CHEMBL1967211
 OpenBabel04072215363D

 23 25  0  0  0  0  0  0  0  0999 V2000
   -2.1224    0.1388   -0.1071 F   0  0  0  0  0  0  0  0  0  0  0  0
   -0.7843    0.0737   -0.0829 C   0  0  0  0  0  0  0  0  0  0  0  0
   -0.0854    1.1119    0.5094 C   0  0  0  0  0  0  0  0  0  0  0  0
    1.3061    1.0443    0.5412 C   0  0  0  0  0  0  0  0  0  0  0  0
    1.9503   -0.0657   -0.0107 C   0  0  0  0  0  0  0  0  0  0  0  0
    3.4287   -0.2273   -0.0093 C   0  0  0  0  0  0  0  0  0  0  0  0
    4.1677    0.3901    1.1386 C   0  0  0  0  0  0  0  0  0  0  0  0
    5.5008    0.2699    1.1600 C   0  0  0  0  0  0  0  0  0  0  0  0
    6.1486   -0.4299    0.1221 C   0  0  0  0  0  0  0  0  0  0  0  0
    7.4221   -0.6885   -0.0882 N   0  0  0  0  0  0  0  0  0  0  0  0
    7.4490   -1.4144   -1.2529 C   0  0  0  0  0  0  0  0  0  0  0  0
    6.1806   -1.5971   -1.7518 C   0  0  0  0  0  0  0  0  0  0  0  0
    5.3474   -0.9687   -0.8685 N   0  0  0  0  0  0  0  0  0  0  0  0
    3.9907   -0.8977   -0.9718 N   0  0  0  0  0  0  0  0  0  0  0  0
    1.1570   -1.0457   -0.6016 C   0  0  0  0  0  0  0  0  0  0  0  0
   -0.1986   -1.0041   -0.6420 N   0  0  0  0  0  0  0  0  0  0  0  0
   -0.6211    1.9547    0.9304 H   0  0  0  0  0  0  0  0  0  0  0  0
    1.8592    1.8706    0.9763 H   0  0  0  0  0  0  0  0  0  0  0  0
    3.6413    0.8912    1.9391 H   0  0  0  0  0  0  0  0  0  0  0  0
    6.0997    0.6854    1.9617 H   0  0  0  0  0  0  0  0  0  0  0  0
    8.3831   -1.7667   -1.6711 H   0  0  0  0  0  0  0  0  0  0  0  0
    5.8024   -2.0992   -2.6285 H   0  0  0  0  0  0  0  0  0  0  0  0
    1.5958   -1.9263   -1.0658 H   0  0  0  0  0  0  0  0  0  0  0  0
  1  2  1  0  0  0  0
  2  3  1  0  0  0  0
  2 16  2  0  0  0  0
  3  4  2  0  0  0  0
  3 17  1  0  0  0  0
  4  5  1  0  0  0  0
  4 18  1  0  0  0  0
  5  6  1  0  0  0  0
  5 15  2  0  0  0  0
  6  7  1  0  0  0  0
  6 14  2  0  0  0  0
  7  8  2  0  0  0  0
  7 19  1  0  0  0  0
  8  9  1  0  0  0  0
  8 20  1  0  0  0  0
  9 10  2  0  0  0  0
  9 13  1  0  0  0  0
 10 11  1  0  0  0  0
 11 12  2  0  0  0  0
 11 21  1  0  0  0  0
 12 13  1  0  0  0  0
 12 22  1  0  0  0  0
 13 14  1  0  0  0  0
 15 16  1  0  0  0  0
 15 23  1  0  0  0  0
M  END
$$$$
