CHEMBL271960
 OpenBabel04072215363D

 50 53  0  0  0  0  0  0  0  0999 V2000
    1.8408    1.4533    4.4111 C   0  0  0  0  0  0  0  0  0  0  0  0
    3.2011    1.4130    3.9524 N   0  0  0  0  0  0  0  0  0  0  0  0
    3.5143    1.5040    2.6139 C   0  0  0  0  0  0  0  0  0  0  0  0
    2.6781    1.6475    1.7288 O   0  0  0  0  0  0  0  0  0  0  0  0
    4.9787    1.4320    2.3053 C   0  0  0  0  0  0  0  0  0  0  0  0
    5.3979    1.5647    0.9909 C   0  0  0  0  0  0  0  0  0  0  0  0
    6.7668    1.6209    0.7496 C   0  0  0  0  0  0  0  0  0  0  0  0
    7.3263    1.8230   -0.4929 O   0  0  0  0  0  0  0  0  0  0  0  0
    6.6864    2.6484   -1.3908 C   0  0  0  0  0  0  0  0  0  0  0  0
    6.8234    2.3228   -2.7353 C   0  0  0  0  0  0  0  0  0  0  0  0
    6.1675    3.0798   -3.7153 C   0  0  0  0  0  0  0  0  0  0  0  0
    5.3381    4.1589   -3.3712 C   0  0  0  0  0  0  0  0  0  0  0  0
    5.2674    4.5088   -2.0085 C   0  0  0  0  0  0  0  0  0  0  0  0
    5.9668    3.7874   -1.0358 C   0  0  0  0  0  0  0  0  0  0  0  0
    4.5116    5.5436   -1.5086 O   0  0  0  0  0  0  0  0  0  0  0  0
    3.4910    5.9646   -2.4117 C   0  0  0  0  0  0  0  0  0  0  0  0
    4.0611    6.1824   -3.8013 C   0  0  0  0  0  0  0  0  0  0  0  0
    4.5736    4.9129   -4.3422 N   0  0  0  0  0  0  0  0  0  0  0  0
    4.2658    4.3871   -5.6052 C   0  0  0  0  0  0  0  0  0  0  0  0
    4.5995    3.2575   -5.9543 O   0  0  0  0  0  0  0  0  0  0  0  0
    3.5216    5.2124   -6.4348 N   0  0  0  0  0  0  0  0  0  0  0  0
    2.9979    4.8576   -7.7042 C   0  0  0  0  0  0  0  0  0  0  0  0
    2.9502    3.5448   -8.1879 C   0  0  0  0  0  0  0  0  0  0  0  0
    2.5112    3.2711   -9.4872 C   0  0  0  0  0  0  0  0  0  0  0  0
    2.0866    4.3120  -10.3031 C   0  0  0  0  0  0  0  0  0  0  0  0
    1.5935    3.9843  -11.9171 Cl  0  0  0  0  0  0  0  0  0  0  0  0
    2.0689    5.6173   -9.8192 C   0  0  0  0  0  0  0  0  0  0  0  0
    2.5169    5.8888   -8.5203 C   0  0  0  0  0  0  0  0  0  0  0  0
    7.6580    1.4282    1.8003 C   0  0  0  0  0  0  0  0  0  0  0  0
    7.1441    1.2615    3.0758 C   0  0  0  0  0  0  0  0  0  0  0  0
    5.8245    1.2801    3.3643 N   0  0  0  0  0  0  0  0  0  0  0  0
    1.8296    1.3552    5.4982 H   0  0  0  0  0  0  0  0  0  0  0  0
    1.2839    0.6304    3.9545 H   0  0  0  0  0  0  0  0  0  0  0  0
    1.3856    2.4026    4.1148 H   0  0  0  0  0  0  0  0  0  0  0  0
    3.9764    1.3092    4.6017 H   0  0  0  0  0  0  0  0  0  0  0  0
    4.6672    1.6597    0.1950 H   0  0  0  0  0  0  0  0  0  0  0  0
    7.4301    1.4719   -3.0355 H   0  0  0  0  0  0  0  0  0  0  0  0
    6.3388    2.7901   -4.7475 H   0  0  0  0  0  0  0  0  0  0  0  0
    5.8937    4.1055    0.0001 H   0  0  0  0  0  0  0  0  0  0  0  0
    3.0846    6.9054   -2.0263 H   0  0  0  0  0  0  0  0  0  0  0  0
    2.6763    5.2292   -2.4178 H   0  0  0  0  0  0  0  0  0  0  0  0
    4.9136    6.8726   -3.7643 H   0  0  0  0  0  0  0  0  0  0  0  0
    3.2896    6.6269   -4.4300 H   0  0  0  0  0  0  0  0  0  0  0  0
    3.5491    6.1994   -6.2460 H   0  0  0  0  0  0  0  0  0  0  0  0
    3.2558    2.6976   -7.5828 H   0  0  0  0  0  0  0  0  0  0  0  0
    2.5212    2.2468   -9.8475 H   0  0  0  0  0  0  0  0  0  0  0  0
    1.7217    6.4302  -10.4519 H   0  0  0  0  0  0  0  0  0  0  0  0
    2.5016    6.9177   -8.1715 H   0  0  0  0  0  0  0  0  0  0  0  0
    8.7287    1.4202    1.6275 H   0  0  0  0  0  0  0  0  0  0  0  0
    7.8057    1.1139    3.9253 H   0  0  0  0  0  0  0  0  0  0  0  0
  1  2  1  0  0  0  0
  1 32  1  0  0  0  0
  1 33  1  0  0  0  0
  1 34  1  0  0  0  0
  2  3  1  0  0  0  0
  2 35  1  0  0  0  0
  3  4  2  0  0  0  0
  3  5  1  0  0  0  0
  5  6  1  0  0  0  0
  5 31  2  0  0  0  0
  6  7  2  0  0  0  0
  6 36  1  0  0  0  0
  7  8  1  0  0  0  0
  7 29  1  0  0  0  0
  8  9  1  0  0  0  0
  9 10  1  0  0  0  0
  9 14  2  0  0  0  0
 10 11  2  0  0  0  0
 10 37  1  0  0  0  0
 11 12  1  0  0  0  0
 11 38  1  0  0  0  0
 12 13  2  0  0  0  0
 12 18  1  0  0  0  0
 13 14  1  0  0  0  0
 13 15  1  0  0  0  0
 14 39  1  0  0  0  0
 15 16  1  0  0  0  0
 16 17  1  0  0  0  0
 16 40  1  0  0  0  0
 16 41  1  0  0  0  0
 17 18  1  0  0  0  0
 17 42  1  0  0  0  0
 17 43  1  0  0  0  0
 18 19  1  0  0  0  0
 19 20  2  0  0  0  0
 19 21  1  0  0  0  0
 21 22  1  0  0  0  0
 21 44  1  0  0  0  0
 22 23  1  0  0  0  0
 22 28  2  0  0  0  0
 23 24  2  0  0  0  0
 23 45  1  0  0  0  0
 24 25  1  0  0  0  0
 24 46  1  0  0  0  0
 25 26  1  0  0  0  0
 25 27  2  0  0  0  0
 27 28  1  0  0  0  0
 27 47  1  0  0  0  0
 28 48  1  0  0  0  0
 29 30  2  0  0  0  0
 29 49  1  0  0  0  0
 30 31  1  0  0  0  0
 30 50  1  0  0  0  0
M  END
$$$$
