CHEMBL3221561
 OpenBabel04072215363D

 49 50  0  0  0  0  0  0  0  0999 V2000
   12.8894    1.7858   -4.2664 C   0  0  0  0  0  0  0  0  0  0  0  0
   12.0968    3.0044   -3.7947 C   0  0  0  0  0  0  0  0  0  0  0  0
   10.8352    2.6976   -3.2996 O   0  0  0  0  0  0  0  0  0  0  0  0
    9.8191    2.1034   -3.9851 C   0  0  0  0  0  0  0  0  0  0  0  0
   10.0370    1.6177   -5.0831 O   0  0  0  0  0  0  0  0  0  0  0  0
    8.5739    1.9769   -3.4522 N   0  0  0  0  0  0  0  0  0  0  0  0
    8.0789    2.5823   -2.2432 C   0  0  0  0  0  0  0  0  0  0  0  0
    8.6823    3.7235   -1.6815 C   0  0  0  0  0  0  0  0  0  0  0  0
    8.1665    4.3437   -0.5243 C   0  0  0  0  0  0  0  0  0  0  0  0
    8.7654    5.5058    0.0676 N   0  0  0  0  0  0  0  0  0  0  0  0
   10.1358    5.9103   -0.1037 C   0  0  0  0  0  0  0  0  0  0  0  0
   11.0201    5.0548   -0.6861 N   0  0  0  0  0  0  0  0  0  0  0  0
   12.3271    5.3603   -0.8549 C   0  0  0  0  0  0  0  0  0  0  0  0
   12.8027    6.5508   -0.4456 N   0  0  0  0  0  0  0  0  0  0  0  0
   11.9924    7.4491    0.1597 C   0  0  0  0  0  0  0  0  0  0  0  0
   12.5375    8.6539    0.5830 C   0  0  0  0  0  0  0  0  0  0  0  0
   11.7566    9.6150    1.2555 C   0  0  0  0  0  0  0  0  0  0  0  0
   12.3198   10.7865    1.6673 O   0  0  0  0  0  0  0  0  0  0  0  0
   13.6437   11.1439    1.4424 C   0  0  0  0  0  0  0  0  0  0  0  0
   10.3793    9.3213    1.4910 C   0  0  0  0  0  0  0  0  0  0  0  0
    9.4969   10.1196    2.1471 O   0  0  0  0  0  0  0  0  0  0  0  0
    9.6812   11.3340    2.7597 C   0  0  0  0  0  0  0  0  0  0  0  0
    9.8433    8.1110    1.0332 C   0  0  0  0  0  0  0  0  0  0  0  0
   10.6300    7.1574    0.3687 C   0  0  0  0  0  0  0  0  0  0  0  0
    6.9994    3.8197    0.0496 C   0  0  0  0  0  0  0  0  0  0  0  0
    6.3876    2.6887   -0.4887 C   0  0  0  0  0  0  0  0  0  0  0  0
    6.9152    2.0642   -1.6240 C   0  0  0  0  0  0  0  0  0  0  0  0
    6.0913    0.6353   -2.2316 Cl  0  0  0  0  0  0  0  0  0  0  0  0
    1.1048    2.5648   -1.8869 Cl  0  0  0  0  0  0  0  0  0  0  0  0
   13.9062    2.1152   -4.5719 H   0  0  0  0  0  0  0  0  0  0  0  0
   12.4187    1.3084   -5.1464 H   0  0  0  0  0  0  0  0  0  0  0  0
   12.9874    1.0452   -3.4456 H   0  0  0  0  0  0  0  0  0  0  0  0
   12.0160    3.7556   -4.6072 H   0  0  0  0  0  0  0  0  0  0  0  0
   12.6860    3.4502   -2.9806 H   0  0  0  0  0  0  0  0  0  0  0  0
    7.9058    1.4000   -3.9865 H   0  0  0  0  0  0  0  0  0  0  0  0
    9.5150    4.1644   -2.1812 H   0  0  0  0  0  0  0  0  0  0  0  0
    8.1724    6.0287    0.7243 H   0  0  0  0  0  0  0  0  0  0  0  0
   13.0043    4.6533   -1.2955 H   0  0  0  0  0  0  0  0  0  0  0  0
   13.5888    8.8189    0.3813 H   0  0  0  0  0  0  0  0  0  0  0  0
   13.8520   12.1419    1.8744 H   0  0  0  0  0  0  0  0  0  0  0  0
   13.8544   11.1857    0.3494 H   0  0  0  0  0  0  0  0  0  0  0  0
   14.3345   10.4094    1.9154 H   0  0  0  0  0  0  0  0  0  0  0  0
    8.7096   11.6252    3.2171 H   0  0  0  0  0  0  0  0  0  0  0  0
    9.9612   12.1049    2.0158 H   0  0  0  0  0  0  0  0  0  0  0  0
   10.4307   11.2517    3.5730 H   0  0  0  0  0  0  0  0  0  0  0  0
    8.7970    7.9459    1.2279 H   0  0  0  0  0  0  0  0  0  0  0  0
    6.5659    4.2835    0.9281 H   0  0  0  0  0  0  0  0  0  0  0  0
    5.4956    2.2943   -0.0187 H   0  0  0  0  0  0  0  0  0  0  0  0
    0.5863    1.5797   -1.0786 H   0  0  0  0  0  0  0  0  0  0  0  0
  1  2  1  0  0  0  0
  1 30  1  0  0  0  0
  1 31  1  0  0  0  0
  1 32  1  0  0  0  0
  2  3  1  0  0  0  0
  2 33  1  0  0  0  0
  2 34  1  0  0  0  0
  3  4  1  0  0  0  0
  4  5  2  0  0  0  0
  4  6  1  0  0  0  0
  6  7  1  0  0  0  0
  6 35  1  0  0  0  0
  7  8  1  0  0  0  0
  7 27  2  0  0  0  0
  8  9  2  0  0  0  0
  8 36  1  0  0  0  0
  9 10  1  0  0  0  0
  9 25  1  0  0  0  0
 10 11  1  0  0  0  0
 10 37  1  0  0  0  0
 11 12  1  0  0  0  0
 11 24  2  0  0  0  0
 12 13  2  0  0  0  0
 13 14  1  0  0  0  0
 13 38  1  0  0  0  0
 14 15  2  0  0  0  0
 15 16  1  0  0  0  0
 15 24  1  0  0  0  0
 16 17  2  0  0  0  0
 16 39  1  0  0  0  0
 17 18  1  0  0  0  0
 17 20  1  0  0  0  0
 18 19  1  0  0  0  0
 19 40  1  0  0  0  0
 19 41  1  0  0  0  0
 19 42  1  0  0  0  0
 20 21  1  0  0  0  0
 20 23  2  0  0  0  0
 21 22  1  0  0  0  0
 22 43  1  0  0  0  0
 22 44  1  0  0  0  0
 22 45  1  0  0  0  0
 23 24  1  0  0  0  0
 23 46  1  0  0  0  0
 25 26  2  0  0  0  0
 25 47  1  0  0  0  0
 26 27  1  0  0  0  0
 26 48  1  0  0  0  0
 27 28  1  0  0  0  0
 29 49  1  0  0  0  0
M  END
$$$$
