CHEMBL254760
 OpenBabel04072215363D

 56 60  0  0  0  0  0  0  0  0999 V2000
    0.8811    2.5435   -2.8175 C   0  0  0  0  0  0  0  0  0  0  0  0
    0.4872    1.2310   -3.2594 N   0  0  0  0  0  0  0  0  0  0  0  0
    1.2516    0.3445   -3.9586 C   0  0  0  0  0  0  0  0  0  0  0  0
    0.6288   -0.8030   -4.1161 N   0  0  0  0  0  0  0  0  0  0  0  0
   -0.6014   -0.6278   -3.5293 C   0  0  0  0  0  0  0  0  0  0  0  0
   -1.6431   -1.6903   -3.4611 C   0  0  0  0  0  0  0  0  0  0  0  0
   -1.4262   -2.9990   -3.8274 C   0  0  0  0  0  0  0  0  0  0  0  0
   -2.5710   -3.8201   -3.6040 C   0  0  0  0  0  0  0  0  0  0  0  0
   -2.6294   -5.1624   -3.8266 N   0  0  0  0  0  0  0  0  0  0  0  0
   -3.8000   -5.7556   -3.5306 C   0  0  0  0  0  0  0  0  0  0  0  0
   -4.9276   -5.1056   -3.0719 C   0  0  0  0  0  0  0  0  0  0  0  0
   -4.8909   -3.7182   -2.9269 C   0  0  0  0  0  0  0  0  0  0  0  0
   -5.9827   -2.9707   -2.5471 O   0  0  0  0  0  0  0  0  0  0  0  0
   -7.2088   -3.2564   -3.1031 C   0  0  0  0  0  0  0  0  0  0  0  0
   -7.3910   -3.8301   -4.3622 C   0  0  0  0  0  0  0  0  0  0  0  0
   -8.6746   -4.1715   -4.7906 C   0  0  0  0  0  0  0  0  0  0  0  0
   -9.7997   -3.8541   -4.0176 C   0  0  0  0  0  0  0  0  0  0  0  0
  -11.0420   -4.2361   -4.5546 N   0  0  0  0  0  0  0  0  0  0  0  0
  -12.3181   -3.7678   -4.3553 C   0  0  0  0  0  0  0  0  0  0  0  0
  -12.8391   -2.4672   -3.4461 S   0  0  0  0  0  0  0  0  0  0  0  0
  -13.2961   -4.4466   -5.0664 N   0  0  0  0  0  0  0  0  0  0  0  0
  -13.1467   -5.4900   -5.9723 C   0  0  0  0  0  0  0  0  0  0  0  0
  -12.0558   -5.9734   -6.2739 O   0  0  0  0  0  0  0  0  0  0  0  0
  -14.4497   -5.9868   -6.5704 C   0  0  0  0  0  0  0  0  0  0  0  0
  -15.1424   -6.9530   -5.6458 C   0  0  0  0  0  0  0  0  0  0  0  0
  -16.1861   -6.5258   -4.8148 C   0  0  0  0  0  0  0  0  0  0  0  0
  -16.7452   -7.4010   -3.8831 C   0  0  0  0  0  0  0  0  0  0  0  0
  -16.2727   -8.7079   -3.7794 C   0  0  0  0  0  0  0  0  0  0  0  0
  -15.2525   -9.1489   -4.6194 C   0  0  0  0  0  0  0  0  0  0  0  0
  -14.6887   -8.2760   -5.5492 C   0  0  0  0  0  0  0  0  0  0  0  0
   -9.6188   -3.2244   -2.7889 C   0  0  0  0  0  0  0  0  0  0  0  0
   -8.3306   -2.9283   -2.3440 C   0  0  0  0  0  0  0  0  0  0  0  0
   -8.1822   -2.3388   -1.1477 F   0  0  0  0  0  0  0  0  0  0  0  0
   -3.6586   -3.0835   -3.1373 C   0  0  0  0  0  0  0  0  0  0  0  0
   -3.2322   -1.4368   -2.9029 S   0  0  0  0  0  0  0  0  0  0  0  0
   -0.7147    0.6429   -3.0066 C   0  0  0  0  0  0  0  0  0  0  0  0
    1.8333    2.8171   -3.2783 H   0  0  0  0  0  0  0  0  0  0  0  0
    0.9846    2.5159   -1.7286 H   0  0  0  0  0  0  0  0  0  0  0  0
    0.1070    3.2584   -3.1066 H   0  0  0  0  0  0  0  0  0  0  0  0
    2.2472    0.5737   -4.3157 H   0  0  0  0  0  0  0  0  0  0  0  0
   -0.4822   -3.3671   -4.2085 H   0  0  0  0  0  0  0  0  0  0  0  0
   -3.8207   -6.8298   -3.6965 H   0  0  0  0  0  0  0  0  0  0  0  0
   -5.8293   -5.6709   -2.8613 H   0  0  0  0  0  0  0  0  0  0  0  0
   -6.5507   -4.0379   -5.0188 H   0  0  0  0  0  0  0  0  0  0  0  0
   -8.7864   -4.6632   -5.7556 H   0  0  0  0  0  0  0  0  0  0  0  0
  -10.9819   -4.9244   -5.3081 H   0  0  0  0  0  0  0  0  0  0  0  0
  -14.2306   -4.1025   -4.8893 H   0  0  0  0  0  0  0  0  0  0  0  0
  -14.2293   -6.4701   -7.5307 H   0  0  0  0  0  0  0  0  0  0  0  0
  -15.0956   -5.1314   -6.8035 H   0  0  0  0  0  0  0  0  0  0  0  0
  -16.5670   -5.5092   -4.8752 H   0  0  0  0  0  0  0  0  0  0  0  0
  -17.5436   -7.0600   -3.2289 H   0  0  0  0  0  0  0  0  0  0  0  0
  -16.6964   -9.3821   -3.0398 H   0  0  0  0  0  0  0  0  0  0  0  0
  -14.8850  -10.1690   -4.5403 H   0  0  0  0  0  0  0  0  0  0  0  0
  -13.8780   -8.6297   -6.1848 H   0  0  0  0  0  0  0  0  0  0  0  0
  -10.4388   -2.9970   -2.1205 H   0  0  0  0  0  0  0  0  0  0  0  0
   -1.5088    1.1368   -2.4663 H   0  0  0  0  0  0  0  0  0  0  0  0
  1  2  1  0  0  0  0
  1 37  1  0  0  0  0
  1 38  1  0  0  0  0
  1 39  1  0  0  0  0
  2  3  1  0  0  0  0
  2 36  1  0  0  0  0
  3  4  2  0  0  0  0
  3 40  1  0  0  0  0
  4  5  1  0  0  0  0
  5  6  1  0  0  0  0
  5 36  2  0  0  0  0
  6  7  2  0  0  0  0
  6 35  1  0  0  0  0
  7  8  1  0  0  0  0
  7 41  1  0  0  0  0
  8  9  1  0  0  0  0
  8 34  2  0  0  0  0
  9 10  2  0  0  0  0
 10 11  1  0  0  0  0
 10 42  1  0  0  0  0
 11 12  2  0  0  0  0
 11 43  1  0  0  0  0
 12 13  1  0  0  0  0
 12 34  1  0  0  0  0
 13 14  1  0  0  0  0
 14 15  1  0  0  0  0
 14 32  2  0  0  0  0
 15 16  2  0  0  0  0
 15 44  1  0  0  0  0
 16 17  1  0  0  0  0
 16 45  1  0  0  0  0
 17 18  1  0  0  0  0
 17 31  2  0  0  0  0
 18 19  1  0  0  0  0
 18 46  1  0  0  0  0
 19 20  2  0  0  0  0
 19 21  1  0  0  0  0
 21 22  1  0  0  0  0
 21 47  1  0  0  0  0
 22 23  2  0  0  0  0
 22 24  1  0  0  0  0
 24 25  1  0  0  0  0
 24 48  1  0  0  0  0
 24 49  1  0  0  0  0
 25 26  1  0  0  0  0
 25 30  2  0  0  0  0
 26 27  2  0  0  0  0
 26 50  1  0  0  0  0
 27 28  1  0  0  0  0
 27 51  1  0  0  0  0
 28 29  2  0  0  0  0
 28 52  1  0  0  0  0
 29 30  1  0  0  0  0
 29 53  1  0  0  0  0
 30 54  1  0  0  0  0
 31 32  1  0  0  0  0
 31 55  1  0  0  0  0
 32 33  1  0  0  0  0
 34 35  1  0  0  0  0
 36 56  1  0  0  0  0
M  END
$$$$
