CHEMBL4069517
 OpenBabel04072215383D

 47 50  0  0  0  0  0  0  0  0999 V2000
    3.2278   -0.9123   -4.1691 N   0  0  0  0  0  0  0  0  0  0  0  0
    3.7191   -0.5183   -2.9424 C   0  0  0  0  0  0  0  0  0  0  0  0
    3.3297   -1.2317   -1.8862 N   0  0  0  0  0  0  0  0  0  0  0  0
    3.8564   -0.8556   -0.7017 C   0  0  0  0  0  0  0  0  0  0  0  0
    4.7578    0.1820   -0.5624 C   0  0  0  0  0  0  0  0  0  0  0  0
    5.3094    0.5432    0.6713 C   0  0  0  0  0  0  0  0  0  0  0  0
    6.2002    1.6044    0.7261 C   0  0  0  0  0  0  0  0  0  0  0  0
    6.5275    2.3600   -0.4177 C   0  0  0  0  0  0  0  0  0  0  0  0
    7.3698    3.5709   -0.2764 C   0  0  0  0  0  0  0  0  0  0  0  0
    8.2881    4.0248   -1.2354 C   0  0  0  0  0  0  0  0  0  0  0  0
    9.0791    5.1713   -1.0018 C   0  0  0  0  0  0  0  0  0  0  0  0
    8.9521    5.9070    0.1877 C   0  0  0  0  0  0  0  0  0  0  0  0
    9.7061    7.0949    0.3268 N   0  0  0  0  0  0  0  0  0  0  0  0
    9.5795    8.1719    1.2114 C   0  0  0  0  0  0  0  0  0  0  0  0
    8.5911    8.3402    2.5574 S   0  0  0  0  0  0  0  0  0  0  0  0
   10.3212    9.2486    0.7121 N   0  0  0  0  0  0  0  0  0  0  0  0
   10.9242   10.2686    1.4790 C   0  0  0  0  0  0  0  0  0  0  0  0
   11.0168   11.5538    0.9457 C   0  0  0  0  0  0  0  0  0  0  0  0
   11.6855   12.5475    1.6610 C   0  0  0  0  0  0  0  0  0  0  0  0
   11.8226   14.2886    0.9353 Br  0  0  0  0  0  0  0  0  0  0  0  0
   12.2714   12.2702    2.8973 C   0  0  0  0  0  0  0  0  0  0  0  0
   12.1834   10.9822    3.4412 C   0  0  0  0  0  0  0  0  0  0  0  0
   12.8125   10.6320    4.7650 C   0  0  0  0  0  0  0  0  0  0  0  0
   13.5362   11.6497    5.3070 F   0  0  0  0  0  0  0  0  0  0  0  0
   11.8949   10.2804    5.7058 F   0  0  0  0  0  0  0  0  0  0  0  0
   13.6703    9.5785    4.6649 F   0  0  0  0  0  0  0  0  0  0  0  0
   11.5057    9.9890    2.7199 C   0  0  0  0  0  0  0  0  0  0  0  0
    8.0603    5.4438    1.1372 C   0  0  0  0  0  0  0  0  0  0  0  0
    7.2684    4.3247    0.8990 C   0  0  0  0  0  0  0  0  0  0  0  0
    5.9727    1.9447   -1.6421 C   0  0  0  0  0  0  0  0  0  0  0  0
    5.0955    0.8610   -1.7354 C   0  0  0  0  0  0  0  0  0  0  0  0
    4.5863    0.5000   -2.9234 N   0  0  0  0  0  0  0  0  0  0  0  0
    2.9610   -1.8859   -4.1237 H   0  0  0  0  0  0  0  0  0  0  0  0
    3.8755   -0.6464   -4.8960 H   0  0  0  0  0  0  0  0  0  0  0  0
    3.5170   -1.4346    0.1513 H   0  0  0  0  0  0  0  0  0  0  0  0
    5.0483    0.0151    1.5849 H   0  0  0  0  0  0  0  0  0  0  0  0
    6.6288    1.8550    1.6975 H   0  0  0  0  0  0  0  0  0  0  0  0
    8.4041    3.5004   -2.1819 H   0  0  0  0  0  0  0  0  0  0  0  0
    9.7648    5.4936   -1.7815 H   0  0  0  0  0  0  0  0  0  0  0  0
   10.4600    7.2041   -0.3401 H   0  0  0  0  0  0  0  0  0  0  0  0
   10.0605    9.4968   -0.2357 H   0  0  0  0  0  0  0  0  0  0  0  0
   10.5557   11.7916   -0.0088 H   0  0  0  0  0  0  0  0  0  0  0  0
   12.8065   13.0508    3.4349 H   0  0  0  0  0  0  0  0  0  0  0  0
   11.4664    8.9809    3.1317 H   0  0  0  0  0  0  0  0  0  0  0  0
    7.9390    5.8982    2.1092 H   0  0  0  0  0  0  0  0  0  0  0  0
    6.5511    4.0633    1.6754 H   0  0  0  0  0  0  0  0  0  0  0  0
    6.1909    2.4954   -2.5547 H   0  0  0  0  0  0  0  0  0  0  0  0
  1  2  1  0  0  0  0
  1 33  1  0  0  0  0
  1 34  1  0  0  0  0
  2  3  1  0  0  0  0
  2 32  2  0  0  0  0
  3  4  2  0  0  0  0
  4  5  1  0  0  0  0
  4 35  1  0  0  0  0
  5  6  1  0  0  0  0
  5 31  2  0  0  0  0
  6  7  2  0  0  0  0
  6 36  1  0  0  0  0
  7  8  1  0  0  0  0
  7 37  1  0  0  0  0
  8  9  1  0  0  0  0
  8 30  2  0  0  0  0
  9 10  1  0  0  0  0
  9 29  2  0  0  0  0
 10 11  2  0  0  0  0
 10 38  1  0  0  0  0
 11 12  1  0  0  0  0
 11 39  1  0  0  0  0
 12 13  1  0  0  0  0
 12 28  2  0  0  0  0
 13 14  1  0  0  0  0
 13 40  1  0  0  0  0
 14 15  2  0  0  0  0
 14 16  1  0  0  0  0
 16 17  1  0  0  0  0
 16 41  1  0  0  0  0
 17 18  1  0  0  0  0
 17 27  2  0  0  0  0
 18 19  2  0  0  0  0
 18 42  1  0  0  0  0
 19 20  1  0  0  0  0
 19 21  1  0  0  0  0
 21 22  2  0  0  0  0
 21 43  1  0  0  0  0
 22 23  1  0  0  0  0
 22 27  1  0  0  0  0
 23 24  1  0  0  0  0
 23 25  1  0  0  0  0
 23 26  1  0  0  0  0
 27 44  1  0  0  0  0
 28 29  1  0  0  0  0
 28 45  1  0  0  0  0
 29 46  1  0  0  0  0
 30 31  1  0  0  0  0
 30 47  1  0  0  0  0
 31 32  1  0  0  0  0
M  END
$$$$
