CHEMBL221121
 OpenBabel04072215363D

 48 51  0  0  0  0  0  0  0  0999 V2000
    2.4330    0.2664   -0.5407 C   0  0  0  0  0  0  0  0  0  0  0  0
    0.9602    0.1624   -0.2519 C   0  0  0  0  0  0  0  0  0  0  0  0
    0.2035    1.3529   -0.2160 C   0  0  0  0  0  0  0  0  0  0  0  0
   -1.1828    1.3217   -0.0566 C   0  0  0  0  0  0  0  0  0  0  0  0
   -1.8373    0.0950    0.0134 C   0  0  0  0  0  0  0  0  0  0  0  0
   -3.3114    0.0401    0.1192 C   0  0  0  0  0  0  0  0  0  0  0  0
   -3.9584    0.9410   -0.4003 O   0  0  0  0  0  0  0  0  0  0  0  0
   -3.8194   -1.0245    0.8591 N   0  0  0  0  0  0  0  0  0  0  0  0
   -5.1794   -1.3251    1.0665 C   0  0  0  0  0  0  0  0  0  0  0  0
   -6.2124   -0.7636    0.3156 C   0  0  0  0  0  0  0  0  0  0  0  0
   -7.5460   -1.0749    0.5941 C   0  0  0  0  0  0  0  0  0  0  0  0
   -7.8581   -1.9567    1.6250 C   0  0  0  0  0  0  0  0  0  0  0  0
   -6.8343   -2.5481    2.3615 C   0  0  0  0  0  0  0  0  0  0  0  0
   -5.4991   -2.2453    2.0741 C   0  0  0  0  0  0  0  0  0  0  0  0
   -1.0913   -1.0764   -0.0411 C   0  0  0  0  0  0  0  0  0  0  0  0
    0.3116   -1.0719   -0.0537 C   0  0  0  0  0  0  0  0  0  0  0  0
    1.0022   -2.2966    0.0799 N   0  0  0  0  0  0  0  0  0  0  0  0
    0.5631   -3.4498    0.7982 C   0  0  0  0  0  0  0  0  0  0  0  0
   -0.5974   -3.3631    1.5118 N   0  0  0  0  0  0  0  0  0  0  0  0
   -1.1402   -4.4737    2.0382 C   0  0  0  0  0  0  0  0  0  0  0  0
   -0.5634   -5.7141    1.9279 C   0  0  0  0  0  0  0  0  0  0  0  0
    0.6538   -5.8052    1.2590 C   0  0  0  0  0  0  0  0  0  0  0  0
    1.2545   -4.6737    0.6597 C   0  0  0  0  0  0  0  0  0  0  0  0
    2.5137   -4.7995   -0.1115 C   0  0  0  0  0  0  0  0  0  0  0  0
    2.8487   -5.9509   -0.8068 C   0  0  0  0  0  0  0  0  0  0  0  0
    4.0056   -5.9133   -1.5513 C   0  0  0  0  0  0  0  0  0  0  0  0
    4.8093   -4.8410   -1.6183 N   0  0  0  0  0  0  0  0  0  0  0  0
    4.4203   -3.7831   -0.8974 C   0  0  0  0  0  0  0  0  0  0  0  0
    3.3162   -3.7057   -0.1361 N   0  0  0  0  0  0  0  0  0  0  0  0
    2.7188    1.2992   -0.7754 H   0  0  0  0  0  0  0  0  0  0  0  0
    2.6823   -0.3346   -1.4223 H   0  0  0  0  0  0  0  0  0  0  0  0
    3.0309   -0.0610    0.3132 H   0  0  0  0  0  0  0  0  0  0  0  0
    0.6923    2.3199   -0.3165 H   0  0  0  0  0  0  0  0  0  0  0  0
   -1.7512    2.2476   -0.0137 H   0  0  0  0  0  0  0  0  0  0  0  0
   -3.1483   -1.5714    1.3868 H   0  0  0  0  0  0  0  0  0  0  0  0
   -6.0082   -0.0829   -0.5053 H   0  0  0  0  0  0  0  0  0  0  0  0
   -8.3368   -0.6191    0.0041 H   0  0  0  0  0  0  0  0  0  0  0  0
   -8.8971   -2.1811    1.8510 H   0  0  0  0  0  0  0  0  0  0  0  0
   -7.0763   -3.2368    3.1665 H   0  0  0  0  0  0  0  0  0  0  0  0
   -4.7194   -2.7121    2.6692 H   0  0  0  0  0  0  0  0  0  0  0  0
   -1.6125   -2.0278   -0.0815 H   0  0  0  0  0  0  0  0  0  0  0  0
    2.0170   -2.2274    0.1424 H   0  0  0  0  0  0  0  0  0  0  0  0
   -2.0879   -4.3299    2.5478 H   0  0  0  0  0  0  0  0  0  0  0  0
   -1.0481   -6.5878    2.3483 H   0  0  0  0  0  0  0  0  0  0  0  0
    1.1217   -6.7847    1.2010 H   0  0  0  0  0  0  0  0  0  0  0  0
    2.2305   -6.8383   -0.8096 H   0  0  0  0  0  0  0  0  0  0  0  0
    4.3178   -6.7688   -2.1435 H   0  0  0  0  0  0  0  0  0  0  0  0
    5.0506   -2.9016   -0.9412 H   0  0  0  0  0  0  0  0  0  0  0  0
  1  2  1  0  0  0  0
  1 30  1  0  0  0  0
  1 31  1  0  0  0  0
  1 32  1  0  0  0  0
  2  3  1  0  0  0  0
  2 16  2  0  0  0  0
  3  4  2  0  0  0  0
  3 33  1  0  0  0  0
  4  5  1  0  0  0  0
  4 34  1  0  0  0  0
  5  6  1  0  0  0  0
  5 15  2  0  0  0  0
  6  7  2  0  0  0  0
  6  8  1  0  0  0  0
  8  9  1  0  0  0  0
  8 35  1  0  0  0  0
  9 10  1  0  0  0  0
  9 14  2  0  0  0  0
 10 11  2  0  0  0  0
 10 36  1  0  0  0  0
 11 12  1  0  0  0  0
 11 37  1  0  0  0  0
 12 13  2  0  0  0  0
 12 38  1  0  0  0  0
 13 14  1  0  0  0  0
 13 39  1  0  0  0  0
 14 40  1  0  0  0  0
 15 16  1  0  0  0  0
 15 41  1  0  0  0  0
 16 17  1  0  0  0  0
 17 18  1  0  0  0  0
 17 42  1  0  0  0  0
 18 19  1  0  0  0  0
 18 23  2  0  0  0  0
 19 20  2  0  0  0  0
 20 21  1  0  0  0  0
 20 43  1  0  0  0  0
 21 22  2  0  0  0  0
 21 44  1  0  0  0  0
 22 23  1  0  0  0  0
 22 45  1  0  0  0  0
 23 24  1  0  0  0  0
 24 25  1  0  0  0  0
 24 29  2  0  0  0  0
 25 26  2  0  0  0  0
 25 46  1  0  0  0  0
 26 27  1  0  0  0  0
 26 47  1  0  0  0  0
 27 28  2  0  0  0  0
 28 29  1  0  0  0  0
 28 48  1  0  0  0  0
M  END
$$$$
