CHEMBL3983387
 OpenBabel04072215373D

 58 60  0  0  0  0  0  0  0  0999 V2000
    1.3255   -0.4635    5.4318 C   0  0  0  0  0  0  0  0  0  0  0  0
    2.2592    0.4483    4.9874 O   0  0  0  0  0  0  0  0  0  0  0  0
    2.8934    0.4650    3.7809 C   0  0  0  0  0  0  0  0  0  0  0  0
    2.6242   -0.4381    2.7651 C   0  0  0  0  0  0  0  0  0  0  0  0
    3.3427   -0.3583    1.5803 C   0  0  0  0  0  0  0  0  0  0  0  0
    4.3396    0.6209    1.3741 C   0  0  0  0  0  0  0  0  0  0  0  0
    5.1440    0.4188   -0.1809 Cl  0  0  0  0  0  0  0  0  0  0  0  0
    4.6544    1.5985    2.3974 C   0  0  0  0  0  0  0  0  0  0  0  0
    5.7192    2.6428    2.2626 N   0  0  0  0  0  0  0  0  0  0  0  0
    6.2157    3.0693    0.9354 C   0  0  0  0  0  0  0  0  0  0  0  0
    5.1430    3.6978    0.0396 C   0  0  0  0  0  0  0  0  0  0  0  0
    4.5457    4.9097    0.6272 N   0  0  0  0  0  0  0  0  0  0  0  0
    3.6329    5.5824   -0.3284 C   0  0  0  0  0  0  0  0  0  0  0  0
    2.4611    4.6714   -0.7363 C   0  0  0  0  0  0  0  0  0  0  0  0
    3.0655    6.8656    0.2951 C   0  0  0  0  0  0  0  0  0  0  0  0
    6.5040    3.1583    3.3939 C   0  0  0  0  0  0  0  0  0  0  0  0
    7.9176    3.3572    3.2646 C   0  0  0  0  0  0  0  0  0  0  0  0
    8.7140    3.7862    4.3393 C   0  0  0  0  0  0  0  0  0  0  0  0
    8.1372    3.9865    5.5901 C   0  0  0  0  0  0  0  0  0  0  0  0
    8.8810    4.3410    6.6726 N   0  0  0  0  0  0  0  0  0  0  0  0
    8.3079    4.4906    7.9002 C   0  0  0  0  0  0  0  0  0  0  0  0
    6.9274    4.2701    8.0549 C   0  0  0  0  0  0  0  0  0  0  0  0
    6.2490    4.3372    9.3618 C   0  0  0  0  0  0  0  0  0  0  0  0
    4.9333    3.9967    9.6284 C   0  0  0  0  0  0  0  0  0  0  0  0
    4.6947    4.1829   10.9399 N   0  0  0  0  0  0  0  0  0  0  0  0
    5.8123    4.6239   11.4961 N   0  0  0  0  0  0  0  0  0  0  0  0
    6.7808    4.7270   10.5751 C   0  0  0  0  0  0  0  0  0  0  0  0
    6.1934    3.9608    6.9610 N   0  0  0  0  0  0  0  0  0  0  0  0
    6.7612    3.8160    5.7399 C   0  0  0  0  0  0  0  0  0  0  0  0
    5.9671    3.4690    4.6612 C   0  0  0  0  0  0  0  0  0  0  0  0
    3.8714    1.4359    3.5860 C   0  0  0  0  0  0  0  0  0  0  0  0
    1.6837    0.2520   -2.4983 Cl  0  0  0  0  0  0  0  0  0  0  0  0
    1.0484   -0.2064    6.4782 H   0  0  0  0  0  0  0  0  0  0  0  0
    1.7608   -1.4848    5.4303 H   0  0  0  0  0  0  0  0  0  0  0  0
    0.4130   -0.4265    4.8015 H   0  0  0  0  0  0  0  0  0  0  0  0
    1.8738   -1.2095    2.8912 H   0  0  0  0  0  0  0  0  0  0  0  0
    3.1275   -1.0914    0.8122 H   0  0  0  0  0  0  0  0  0  0  0  0
    6.7266    2.2339    0.4287 H   0  0  0  0  0  0  0  0  0  0  0  0
    6.9823    3.8628    1.0090 H   0  0  0  0  0  0  0  0  0  0  0  0
    4.3642    2.9447   -0.1396 H   0  0  0  0  0  0  0  0  0  0  0  0
    5.6314    3.9577   -0.9287 H   0  0  0  0  0  0  0  0  0  0  0  0
    5.3197    5.5809    0.8533 H   0  0  0  0  0  0  0  0  0  0  0  0
    4.1919    5.8797   -1.2452 H   0  0  0  0  0  0  0  0  0  0  0  0
    1.9209    4.3181    0.1672 H   0  0  0  0  0  0  0  0  0  0  0  0
    2.8093    3.7977   -1.3221 H   0  0  0  0  0  0  0  0  0  0  0  0
    1.7581    5.2183   -1.3974 H   0  0  0  0  0  0  0  0  0  0  0  0
    2.4894    6.6343    1.2159 H   0  0  0  0  0  0  0  0  0  0  0  0
    2.3882    7.3695   -0.4300 H   0  0  0  0  0  0  0  0  0  0  0  0
    3.8809    7.5767    0.5449 H   0  0  0  0  0  0  0  0  0  0  0  0
    8.4463    3.1573    2.3424 H   0  0  0  0  0  0  0  0  0  0  0  0
    9.7798    3.9268    4.2016 H   0  0  0  0  0  0  0  0  0  0  0  0
    8.9294    4.7479    8.7448 H   0  0  0  0  0  0  0  0  0  0  0  0
    4.1987    3.6240    8.9246 H   0  0  0  0  0  0  0  0  0  0  0  0
    5.9087    4.8524   12.5122 H   0  0  0  0  0  0  0  0  0  0  0  0
    7.7872    5.0583   10.7683 H   0  0  0  0  0  0  0  0  0  0  0  0
    4.9468    3.4952    4.9018 H   0  0  0  0  0  0  0  0  0  0  0  0
    3.9216    2.0099    4.4429 H   0  0  0  0  0  0  0  0  0  0  0  0
    0.9518    1.1277   -1.7308 H   0  0  0  0  0  0  0  0  0  0  0  0
  1  2  1  0  0  0  0
  1 33  1  0  0  0  0
  1 34  1  0  0  0  0
  1 35  1  0  0  0  0
  2  3  1  0  0  0  0
  3  4  1  0  0  0  0
  3 31  2  0  0  0  0
  4  5  2  0  0  0  0
  4 36  1  0  0  0  0
  5  6  1  0  0  0  0
  5 37  1  0  0  0  0
  6  7  1  0  0  0  0
  6  8  2  0  0  0  0
  8  9  1  0  0  0  0
  8 31  1  0  0  0  0
  9 10  1  0  0  0  0
  9 16  1  0  0  0  0
 10 11  1  0  0  0  0
 10 38  1  0  0  0  0
 10 39  1  0  0  0  0
 11 12  1  0  0  0  0
 11 40  1  0  0  0  0
 11 41  1  0  0  0  0
 12 13  1  0  0  0  0
 12 42  1  0  0  0  0
 13 14  1  0  0  0  0
 13 15  1  0  0  0  0
 13 43  1  0  0  0  0
 14 44  1  0  0  0  0
 14 45  1  0  0  0  0
 14 46  1  0  0  0  0
 15 47  1  0  0  0  0
 15 48  1  0  0  0  0
 15 49  1  0  0  0  0
 16 17  1  0  0  0  0
 16 30  2  0  0  0  0
 17 18  2  0  0  0  0
 17 50  1  0  0  0  0
 18 19  1  0  0  0  0
 18 51  1  0  0  0  0
 19 20  1  0  0  0  0
 19 29  2  0  0  0  0
 20 21  2  0  0  0  0
 21 22  1  0  0  0  0
 21 52  1  0  0  0  0
 22 23  1  0  0  0  0
 22 28  2  0  0  0  0
 23 24  1  0  0  0  0
 23 27  2  0  0  0  0
 24 25  2  0  0  0  0
 24 53  1  0  0  0  0
 25 26  1  0  0  0  0
 26 27  1  0  0  0  0
 26 54  1  0  0  0  0
 27 55  1  0  0  0  0
 28 29  1  0  0  0  0
 29 30  1  0  0  0  0
 30 56  1  0  0  0  0
 31 57  1  0  0  0  0
 32 58  1  0  0  0  0
M  END
$$$$
