CHEMBL3946793
 OpenBabel04072215373D

 41 44  0  0  0  0  0  0  0  0999 V2000
    2.0722   -1.3027   -1.3766 O   0  0  0  0  0  0  0  0  0  0  0  0
    0.7714   -1.0377   -1.0715 C   0  0  0  0  0  0  0  0  0  0  0  0
   -0.1070   -2.0509   -0.6954 C   0  0  0  0  0  0  0  0  0  0  0  0
   -1.4326   -1.7446   -0.3922 C   0  0  0  0  0  0  0  0  0  0  0  0
   -1.8533   -0.4129   -0.3880 C   0  0  0  0  0  0  0  0  0  0  0  0
   -3.1185   -0.0159   -0.0654 O   0  0  0  0  0  0  0  0  0  0  0  0
   -3.8344   -0.5896    0.9623 C   0  0  0  0  0  0  0  0  0  0  0  0
   -3.3400   -1.4038    1.9904 C   0  0  0  0  0  0  0  0  0  0  0  0
   -4.1980   -1.9742    2.9629 C   0  0  0  0  0  0  0  0  0  0  0  0
   -5.5320   -1.5311    3.0043 C   0  0  0  0  0  0  0  0  0  0  0  0
   -6.7321   -1.6909    3.7878 C   0  0  0  0  0  0  0  0  0  0  0  0
   -7.8243   -2.6399    3.5743 C   0  0  0  0  0  0  0  0  0  0  0  0
   -7.9942   -3.3371    2.4329 C   0  0  0  0  0  0  0  0  0  0  0  0
   -9.2958   -3.4499    1.7351 C   0  0  0  0  0  0  0  0  0  0  0  0
  -10.1842   -2.3573    1.6601 C   0  0  0  0  0  0  0  0  0  0  0  0
  -11.2469   -2.3532    0.7481 C   0  0  0  0  0  0  0  0  0  0  0  0
  -11.4405   -3.4412   -0.0979 C   0  0  0  0  0  0  0  0  0  0  0  0
  -10.5907   -4.5426   -0.0110 C   0  0  0  0  0  0  0  0  0  0  0  0
   -9.5257   -4.5455    0.8981 C   0  0  0  0  0  0  0  0  0  0  0  0
   -7.2048   -0.4328    3.9587 N   0  0  0  0  0  0  0  0  0  0  0  0
   -6.9363    0.1043    2.7504 N   0  0  0  0  0  0  0  0  0  0  0  0
   -5.8793   -0.4993    2.1315 C   0  0  0  0  0  0  0  0  0  0  0  0
   -5.1595   -0.1542    0.9989 C   0  0  0  0  0  0  0  0  0  0  0  0
   -0.9814    0.5908   -0.8204 C   0  0  0  0  0  0  0  0  0  0  0  0
    0.3357    0.2832   -1.1663 C   0  0  0  0  0  0  0  0  0  0  0  0
    2.2404   -2.2412   -1.1879 H   0  0  0  0  0  0  0  0  0  0  0  0
    0.2242   -3.0845   -0.6293 H   0  0  0  0  0  0  0  0  0  0  0  0
   -2.1202   -2.5449   -0.1354 H   0  0  0  0  0  0  0  0  0  0  0  0
   -2.2717   -1.5846    2.0835 H   0  0  0  0  0  0  0  0  0  0  0  0
   -3.7873   -2.6130    3.7414 H   0  0  0  0  0  0  0  0  0  0  0  0
   -8.7133   -2.3958    4.1649 H   0  0  0  0  0  0  0  0  0  0  0  0
   -7.1420   -3.5567    1.7960 H   0  0  0  0  0  0  0  0  0  0  0  0
  -10.0244   -1.4648    2.2622 H   0  0  0  0  0  0  0  0  0  0  0  0
  -11.8980   -1.4847    0.6704 H   0  0  0  0  0  0  0  0  0  0  0  0
  -12.2392   -3.4243   -0.8358 H   0  0  0  0  0  0  0  0  0  0  0  0
  -10.7334   -5.3879   -0.6793 H   0  0  0  0  0  0  0  0  0  0  0  0
   -8.8476   -5.3946    0.9121 H   0  0  0  0  0  0  0  0  0  0  0  0
   -7.4063    0.9664    2.4974 H   0  0  0  0  0  0  0  0  0  0  0  0
   -5.5425    0.5519    0.2705 H   0  0  0  0  0  0  0  0  0  0  0  0
   -1.3238    1.6212   -0.8862 H   0  0  0  0  0  0  0  0  0  0  0  0
    1.0113    1.0545   -1.5075 H   0  0  0  0  0  0  0  0  0  0  0  0
  1  2  1  0  0  0  0
  1 26  1  0  0  0  0
  2  3  1  0  0  0  0
  2 25  2  0  0  0  0
  3  4  2  0  0  0  0
  3 27  1  0  0  0  0
  4  5  1  0  0  0  0
  4 28  1  0  0  0  0
  5  6  1  0  0  0  0
  5 24  2  0  0  0  0
  6  7  1  0  0  0  0
  7  8  1  0  0  0  0
  7 23  2  0  0  0  0
  8  9  2  0  0  0  0
  8 29  1  0  0  0  0
  9 10  1  0  0  0  0
  9 30  1  0  0  0  0
 10 11  1  0  0  0  0
 10 22  2  0  0  0  0
 11 12  1  0  0  0  0
 11 20  2  0  0  0  0
 12 13  2  0  0  0  0
 12 31  1  0  0  0  0
 13 14  1  0  0  0  0
 13 32  1  0  0  0  0
 14 15  1  0  0  0  0
 14 19  2  0  0  0  0
 15 16  2  0  0  0  0
 15 33  1  0  0  0  0
 16 17  1  0  0  0  0
 16 34  1  0  0  0  0
 17 18  2  0  0  0  0
 17 35  1  0  0  0  0
 18 19  1  0  0  0  0
 18 36  1  0  0  0  0
 19 37  1  0  0  0  0
 20 21  1  0  0  0  0
 21 22  1  0  0  0  0
 21 38  1  0  0  0  0
 22 23  1  0  0  0  0
 23 39  1  0  0  0  0
 24 25  1  0  0  0  0
 24 40  1  0  0  0  0
 25 41  1  0  0  0  0
M  END
$$$$
