CHEMBL3929416
 OpenBabel04072215373D

 45 48  0  0  0  0  0  0  0  0999 V2000
    2.9895    0.1406    0.1159 C   0  0  0  0  0  0  0  0  0  0  0  0
    1.4977    0.0281   -0.0090 C   0  0  0  0  0  0  0  0  0  0  0  0
    0.8915   -1.2302   -0.0618 C   0  0  0  0  0  0  0  0  0  0  0  0
   -0.4894   -1.3309   -0.1951 C   0  0  0  0  0  0  0  0  0  0  0  0
   -1.2738   -0.1810   -0.2659 C   0  0  0  0  0  0  0  0  0  0  0  0
   -2.5763   -0.3627   -0.5152 F   0  0  0  0  0  0  0  0  0  0  0  0
   -0.7010    1.0974   -0.1723 C   0  0  0  0  0  0  0  0  0  0  0  0
   -1.4337    2.3166   -0.1980 N   0  0  0  0  0  0  0  0  0  0  0  0
   -2.7760    2.4468    0.1111 C   0  0  0  0  0  0  0  0  0  0  0  0
   -3.4865    1.5675    0.5862 O   0  0  0  0  0  0  0  0  0  0  0  0
   -3.3932    3.7978   -0.0619 C   0  0  0  0  0  0  0  0  0  0  0  0
   -2.8543    4.8099   -0.8686 C   0  0  0  0  0  0  0  0  0  0  0  0
   -3.5110    6.0407   -0.9773 C   0  0  0  0  0  0  0  0  0  0  0  0
   -4.7217    6.2558   -0.3167 C   0  0  0  0  0  0  0  0  0  0  0  0
   -5.3088    5.2175    0.4053 C   0  0  0  0  0  0  0  0  0  0  0  0
   -6.5400    5.2934    1.0085 O   0  0  0  0  0  0  0  0  0  0  0  0
   -7.5823    5.9160    0.3595 C   0  0  0  0  0  0  0  0  0  0  0  0
   -7.6984    6.0410   -1.0254 C   0  0  0  0  0  0  0  0  0  0  0  0
   -8.7599    6.7554   -1.5473 C   0  0  0  0  0  0  0  0  0  0  0  0
   -9.7507    7.3083   -0.8265 N   0  0  0  0  0  0  0  0  0  0  0  0
   -9.6926    7.0971    0.5148 C   0  0  0  0  0  0  0  0  0  0  0  0
  -10.6657    7.5387    1.4552 C   0  0  0  0  0  0  0  0  0  0  0  0
  -10.3714    7.1661    2.7523 C   0  0  0  0  0  0  0  0  0  0  0  0
  -11.1687    7.4379    3.9340 C   0  0  0  0  0  0  0  0  0  0  0  0
  -12.2103    8.0717    3.9464 O   0  0  0  0  0  0  0  0  0  0  0  0
  -10.6439    6.9057    5.0696 O   0  0  0  0  0  0  0  0  0  0  0  0
   -8.8925    6.3136    2.8281 S   0  0  0  0  0  0  0  0  0  0  0  0
   -8.6461    6.4136    1.1294 C   0  0  0  0  0  0  0  0  0  0  0  0
   -4.6227    4.0190    0.5761 C   0  0  0  0  0  0  0  0  0  0  0  0
    0.6955    1.1851   -0.0697 C   0  0  0  0  0  0  0  0  0  0  0  0
    3.4629   -0.8473    0.1387 H   0  0  0  0  0  0  0  0  0  0  0  0
    3.2544    0.6587    1.0425 H   0  0  0  0  0  0  0  0  0  0  0  0
    3.4010    0.6863   -0.7388 H   0  0  0  0  0  0  0  0  0  0  0  0
    1.4878   -2.1387   -0.0138 H   0  0  0  0  0  0  0  0  0  0  0  0
   -0.9709   -2.3016   -0.2639 H   0  0  0  0  0  0  0  0  0  0  0  0
   -0.8864    3.1645   -0.2581 H   0  0  0  0  0  0  0  0  0  0  0  0
   -1.9441    4.6573   -1.4400 H   0  0  0  0  0  0  0  0  0  0  0  0
   -3.0950    6.8316   -1.5985 H   0  0  0  0  0  0  0  0  0  0  0  0
   -5.2160    7.2200   -0.4049 H   0  0  0  0  0  0  0  0  0  0  0  0
   -6.9698    5.6093   -1.7026 H   0  0  0  0  0  0  0  0  0  0  0  0
   -8.8361    6.9117   -2.6212 H   0  0  0  0  0  0  0  0  0  0  0  0
  -11.5538    8.0969    1.1824 H   0  0  0  0  0  0  0  0  0  0  0  0
   -9.8155    6.4189    4.8968 H   0  0  0  0  0  0  0  0  0  0  0  0
   -5.0677    3.2373    1.1912 H   0  0  0  0  0  0  0  0  0  0  0  0
    1.1799    2.1574   -0.0106 H   0  0  0  0  0  0  0  0  0  0  0  0
  1  2  1  0  0  0  0
  1 31  1  0  0  0  0
  1 32  1  0  0  0  0
  1 33  1  0  0  0  0
  2  3  1  0  0  0  0
  2 30  2  0  0  0  0
  3  4  2  0  0  0  0
  3 34  1  0  0  0  0
  4  5  1  0  0  0  0
  4 35  1  0  0  0  0
  5  6  1  0  0  0  0
  5  7  2  0  0  0  0
  7  8  1  0  0  0  0
  7 30  1  0  0  0  0
  8  9  1  0  0  0  0
  8 36  1  0  0  0  0
  9 10  2  0  0  0  0
  9 11  1  0  0  0  0
 11 12  1  0  0  0  0
 11 29  2  0  0  0  0
 12 13  2  0  0  0  0
 12 37  1  0  0  0  0
 13 14  1  0  0  0  0
 13 38  1  0  0  0  0
 14 15  2  0  0  0  0
 14 39  1  0  0  0  0
 15 16  1  0  0  0  0
 15 29  1  0  0  0  0
 16 17  1  0  0  0  0
 17 18  1  0  0  0  0
 17 28  2  0  0  0  0
 18 19  2  0  0  0  0
 18 40  1  0  0  0  0
 19 20  1  0  0  0  0
 19 41  1  0  0  0  0
 20 21  2  0  0  0  0
 21 22  1  0  0  0  0
 21 28  1  0  0  0  0
 22 23  2  0  0  0  0
 22 42  1  0  0  0  0
 23 24  1  0  0  0  0
 23 27  1  0  0  0  0
 24 25  2  0  0  0  0
 24 26  1  0  0  0  0
 26 43  1  0  0  0  0
 27 28  1  0  0  0  0
 29 44  1  0  0  0  0
 30 45  1  0  0  0  0
M  END
$$$$
