CHEMBL3759149
 OpenBabel04072215373D

 53 55  0  0  0  0  0  0  0  0999 V2000
    3.5537    1.1839   -0.1752 C   0  0  0  0  0  0  0  0  0  0  0  0
    2.5704    0.1507   -0.0782 O   0  0  0  0  0  0  0  0  0  0  0  0
    3.0288   -1.0713    0.3339 C   0  0  0  0  0  0  0  0  0  0  0  0
    4.0489   -1.1724    1.2885 C   0  0  0  0  0  0  0  0  0  0  0  0
    4.6096   -2.3846    1.6375 C   0  0  0  0  0  0  0  0  0  0  0  0
    5.6565   -2.3649    2.4669 N   0  0  0  0  0  0  0  0  0  0  0  0
    6.2506   -3.5346    2.6988 C   0  0  0  0  0  0  0  0  0  0  0  0
    5.8987   -4.7044    2.1683 N   0  0  0  0  0  0  0  0  0  0  0  0
    4.8341   -4.7143    1.3401 C   0  0  0  0  0  0  0  0  0  0  0  0
    4.5378   -5.9156    0.6491 N   0  0  0  0  0  0  0  0  0  0  0  0
    5.4634   -6.9780    0.4955 C   0  0  0  0  0  0  0  0  0  0  0  0
    6.7979   -6.6998    0.1480 C   0  0  0  0  0  0  0  0  0  0  0  0
    7.7562   -7.7080    0.0925 C   0  0  0  0  0  0  0  0  0  0  0  0
    7.3922   -9.0219    0.3661 C   0  0  0  0  0  0  0  0  0  0  0  0
    6.0622   -9.3303    0.6576 C   0  0  0  0  0  0  0  0  0  0  0  0
    5.1010   -8.3157    0.7089 C   0  0  0  0  0  0  0  0  0  0  0  0
    3.4645   -8.7403    1.0703 Cl  0  0  0  0  0  0  0  0  0  0  0  0
    4.1000   -3.5535    1.0625 C   0  0  0  0  0  0  0  0  0  0  0  0
    2.9714   -3.4780    0.2111 C   0  0  0  0  0  0  0  0  0  0  0  0
    2.4489   -2.2428   -0.1744 C   0  0  0  0  0  0  0  0  0  0  0  0
    1.3889   -2.3301   -1.0448 O   0  0  0  0  0  0  0  0  0  0  0  0
    1.4242   -1.3746   -2.1011 C   0  0  0  0  0  0  0  0  0  0  0  0
    0.4449   -1.7558   -3.2103 C   0  0  0  0  0  0  0  0  0  0  0  0
    0.5069   -0.6845   -4.3009 C   0  0  0  0  0  0  0  0  0  0  0  0
   -0.4909   -0.9136   -5.4290 C   0  0  0  0  0  0  0  0  0  0  0  0
   -0.3887    0.2021   -6.4710 C   0  0  0  0  0  0  0  0  0  0  0  0
   -1.3589   -0.0011   -7.6130 C   0  0  0  0  0  0  0  0  0  0  0  0
   -2.1265   -0.9509   -7.7132 O   0  0  0  0  0  0  0  0  0  0  0  0
   -1.3035    0.9917   -8.5681 N   0  0  0  0  0  0  0  0  0  0  0  0
   -2.2782    0.8887   -9.5904 O   0  0  0  0  0  0  0  0  0  0  0  0
    3.3565    1.7553   -1.0874 H   0  0  0  0  0  0  0  0  0  0  0  0
    4.5840    0.8155   -0.2485 H   0  0  0  0  0  0  0  0  0  0  0  0
    3.4528    1.8550    0.6825 H   0  0  0  0  0  0  0  0  0  0  0  0
    4.4567   -0.2795    1.7548 H   0  0  0  0  0  0  0  0  0  0  0  0
    7.1112   -3.5321    3.3579 H   0  0  0  0  0  0  0  0  0  0  0  0
    3.5966   -6.2388    0.8502 H   0  0  0  0  0  0  0  0  0  0  0  0
    7.0992   -5.6736   -0.0600 H   0  0  0  0  0  0  0  0  0  0  0  0
    8.7876   -7.4582   -0.1469 H   0  0  0  0  0  0  0  0  0  0  0  0
    8.1449   -9.8060    0.3526 H   0  0  0  0  0  0  0  0  0  0  0  0
    5.7839  -10.3606    0.8592 H   0  0  0  0  0  0  0  0  0  0  0  0
    2.5313   -4.3822   -0.2045 H   0  0  0  0  0  0  0  0  0  0  0  0
    2.4367   -1.3177   -2.5227 H   0  0  0  0  0  0  0  0  0  0  0  0
    1.1137   -0.3966   -1.7248 H   0  0  0  0  0  0  0  0  0  0  0  0
   -0.5691   -1.8344   -2.7978 H   0  0  0  0  0  0  0  0  0  0  0  0
    0.6904   -2.7453   -3.6149 H   0  0  0  0  0  0  0  0  0  0  0  0
    1.5229   -0.6529   -4.7144 H   0  0  0  0  0  0  0  0  0  0  0  0
    0.3162    0.2978   -3.8504 H   0  0  0  0  0  0  0  0  0  0  0  0
   -1.5097   -0.9461   -5.0238 H   0  0  0  0  0  0  0  0  0  0  0  0
   -0.3030   -1.8850   -5.9015 H   0  0  0  0  0  0  0  0  0  0  0  0
    0.6280    0.2395   -6.8822 H   0  0  0  0  0  0  0  0  0  0  0  0
   -0.6006    1.1722   -6.0027 H   0  0  0  0  0  0  0  0  0  0  0  0
   -0.9535    1.9211   -8.3691 H   0  0  0  0  0  0  0  0  0  0  0  0
   -2.7459    0.0544   -9.3550 H   0  0  0  0  0  0  0  0  0  0  0  0
  1  2  1  0  0  0  0
  1 31  1  0  0  0  0
  1 32  1  0  0  0  0
  1 33  1  0  0  0  0
  2  3  1  0  0  0  0
  3  4  1  0  0  0  0
  3 20  2  0  0  0  0
  4  5  2  0  0  0  0
  4 34  1  0  0  0  0
  5  6  1  0  0  0  0
  5 18  1  0  0  0  0
  6  7  2  0  0  0  0
  7  8  1  0  0  0  0
  7 35  1  0  0  0  0
  8  9  2  0  0  0  0
  9 10  1  0  0  0  0
  9 18  1  0  0  0  0
 10 11  1  0  0  0  0
 10 36  1  0  0  0  0
 11 12  1  0  0  0  0
 11 16  2  0  0  0  0
 12 13  2  0  0  0  0
 12 37  1  0  0  0  0
 13 14  1  0  0  0  0
 13 38  1  0  0  0  0
 14 15  2  0  0  0  0
 14 39  1  0  0  0  0
 15 16  1  0  0  0  0
 15 40  1  0  0  0  0
 16 17  1  0  0  0  0
 18 19  2  0  0  0  0
 19 20  1  0  0  0  0
 19 41  1  0  0  0  0
 20 21  1  0  0  0  0
 21 22  1  0  0  0  0
 22 23  1  0  0  0  0
 22 42  1  0  0  0  0
 22 43  1  0  0  0  0
 23 24  1  0  0  0  0
 23 44  1  0  0  0  0
 23 45  1  0  0  0  0
 24 25  1  0  0  0  0
 24 46  1  0  0  0  0
 24 47  1  0  0  0  0
 25 26  1  0  0  0  0
 25 48  1  0  0  0  0
 25 49  1  0  0  0  0
 26 27  1  0  0  0  0
 26 50  1  0  0  0  0
 26 51  1  0  0  0  0
 27 28  2  0  0  0  0
 27 29  1  0  0  0  0
 29 30  1  0  0  0  0
 29 52  1  0  0  0  0
 30 53  1  0  0  0  0
M  END
$$$$
