CHEMBL3957414
 OpenBabel04072215373D

 57 60  0  0  1  0  0  0  0  0999 V2000
   12.9098   -1.1634   -0.5066 C   0  0  0  0  0  0  0  0  0  0  0  0
   11.5872   -1.0473    0.0141 O   0  0  0  0  0  0  0  0  0  0  0  0
   10.7556   -2.1297   -0.1463 C   0  0  0  0  0  0  0  0  0  0  0  0
   11.0957   -3.2999   -0.8175 C   0  0  0  0  0  0  0  0  0  0  0  0
   10.1521   -4.3045   -0.9268 C   0  0  0  0  0  0  0  0  0  0  0  0
   10.3371   -5.5220   -1.5267 O   0  0  0  0  0  0  0  0  0  0  0  0
   11.6202   -5.8079   -2.0675 C   0  0  0  0  0  0  0  0  0  0  0  0
    8.8818   -4.1242   -0.3466 C   0  0  0  0  0  0  0  0  0  0  0  0
    8.5393   -3.0418    0.4993 C   0  0  0  0  0  0  0  0  0  0  0  0
    7.3238   -3.0670    1.3074 N   0  0  0  0  0  0  0  0  0  0  0  0
    6.5457   -4.2890    1.5092 C   0  0  0  0  0  0  0  0  0  0  0  0
    7.2626   -5.4880    1.5853 C   0  0  0  0  0  0  0  0  0  0  0  0
    6.7028   -6.6455    1.0995 C   0  0  0  0  0  0  0  0  0  0  0  0
    5.3639   -6.7491    0.8255 C   0  0  0  0  0  0  0  0  0  0  0  0
    5.0288   -7.9073    0.2474 N   0  0  0  0  0  0  0  0  0  0  0  0
    3.7255   -8.1861    0.2061 C   0  0  0  0  0  0  0  0  0  0  0  0
    2.7859   -7.3783    0.8040 C   0  0  0  0  0  0  0  0  0  0  0  0
    1.4921   -8.0192    1.0592 C   0  0  0  0  0  0  0  0  0  0  0  0
    1.0543   -8.6993    2.2328 C   0  0  0  0  0  0  0  0  0  0  0  0
   -0.0501   -9.4330    2.0345 N   0  0  0  0  0  0  0  0  0  0  0  0
   -0.3156   -9.2491    0.7309 N   0  0  0  0  0  0  0  0  0  0  0  0
   -1.5740   -9.6810    0.1684 C   0  0  0  0  0  0  0  0  0  0  0  0
    0.6678   -8.5530    0.0803 C   0  0  0  0  0  0  0  0  0  0  0  0
    3.1100   -6.1072    1.2434 N   0  0  0  0  0  0  0  0  0  0  0  0
    4.4681   -5.7216    1.2001 C   0  0  0  0  0  0  0  0  0  0  0  0
    5.1210   -4.4406    1.4564 C   0  0  0  0  0  0  0  0  0  0  0  0
    7.1900   -2.0800    2.4567 C   0  0  2  0  0  0  0  0  0  0  0  0
    6.7216   -0.7080    1.9468 C   0  0  0  0  0  0  0  0  0  0  0  0
    8.4581   -1.9778    3.3850 C   0  0  0  0  0  0  0  0  0  0  0  0
    8.2802   -1.1945    4.6185 N   0  0  0  0  0  0  0  0  0  0  0  0
    9.4821   -2.0053    0.4698 C   0  0  0  0  0  0  0  0  0  0  0  0
   13.4709   -0.2724   -0.2079 H   0  0  0  0  0  0  0  0  0  0  0  0
   12.8976   -1.1995   -1.6016 H   0  0  0  0  0  0  0  0  0  0  0  0
   13.4356   -2.0312   -0.0917 H   0  0  0  0  0  0  0  0  0  0  0  0
   12.0745   -3.4213   -1.2637 H   0  0  0  0  0  0  0  0  0  0  0  0
   11.6295   -6.8592   -2.3772 H   0  0  0  0  0  0  0  0  0  0  0  0
   12.4213   -5.6836   -1.3289 H   0  0  0  0  0  0  0  0  0  0  0  0
   11.8059   -5.1957   -2.9554 H   0  0  0  0  0  0  0  0  0  0  0  0
    8.1707   -4.9188   -0.5470 H   0  0  0  0  0  0  0  0  0  0  0  0
    8.3243   -5.4757    1.7971 H   0  0  0  0  0  0  0  0  0  0  0  0
    7.3473   -7.4951    0.8952 H   0  0  0  0  0  0  0  0  0  0  0  0
    3.4742   -9.1352   -0.2540 H   0  0  0  0  0  0  0  0  0  0  0  0
    1.5155   -8.7337    3.2123 H   0  0  0  0  0  0  0  0  0  0  0  0
   -2.1805  -10.1732    0.9344 H   0  0  0  0  0  0  0  0  0  0  0  0
   -1.3888  -10.3658   -0.6630 H   0  0  0  0  0  0  0  0  0  0  0  0
   -2.0924   -8.7857   -0.1858 H   0  0  0  0  0  0  0  0  0  0  0  0
    0.6835   -8.4913   -0.9979 H   0  0  0  0  0  0  0  0  0  0  0  0
    4.4823   -3.5660    1.5558 H   0  0  0  0  0  0  0  0  0  0  0  0
    6.3843   -2.4303    3.1157 H   0  0  0  0  0  0  0  0  0  0  0  0
    7.3858   -0.2717    1.1953 H   0  0  0  0  0  0  0  0  0  0  0  0
    6.6478    0.0191    2.7650 H   0  0  0  0  0  0  0  0  0  0  0  0
    5.7323   -0.7857    1.4910 H   0  0  0  0  0  0  0  0  0  0  0  0
    9.3090   -1.5166    2.8865 H   0  0  0  0  0  0  0  0  0  0  0  0
    8.7811   -2.9879    3.6666 H   0  0  0  0  0  0  0  0  0  0  0  0
    8.2000   -0.1977    4.3834 H   0  0  0  0  0  0  0  0  0  0  0  0
    9.1244   -1.2727    5.1907 H   0  0  0  0  0  0  0  0  0  0  0  0
    9.2960   -1.0460    0.9386 H   0  0  0  0  0  0  0  0  0  0  0  0
  1  2  1  0  0  0  0
  1 32  1  0  0  0  0
  1 33  1  0  0  0  0
  1 34  1  0  0  0  0
  2  3  1  0  0  0  0
  3  4  1  0  0  0  0
  3 31  2  0  0  0  0
  4  5  2  0  0  0  0
  4 35  1  0  0  0  0
  5  6  1  0  0  0  0
  5  8  1  0  0  0  0
  6  7  1  0  0  0  0
  7 36  1  0  0  0  0
  7 37  1  0  0  0  0
  7 38  1  0  0  0  0
  8  9  2  0  0  0  0
  8 39  1  0  0  0  0
  9 10  1  0  0  0  0
  9 31  1  0  0  0  0
 10 11  1  0  0  0  0
 11 12  1  0  0  0  0
 11 26  2  0  0  0  0
 12 13  2  0  0  0  0
 12 40  1  0  0  0  0
 13 14  1  0  0  0  0
 13 41  1  0  0  0  0
 14 15  1  0  0  0  0
 14 25  2  0  0  0  0
 15 16  2  0  0  0  0
 16 17  1  0  0  0  0
 16 42  1  0  0  0  0
 17 18  1  0  0  0  0
 17 24  2  0  0  0  0
 18 19  1  0  0  0  0
 18 23  2  0  0  0  0
 19 20  2  0  0  0  0
 19 43  1  0  0  0  0
 20 21  1  0  0  0  0
 21 22  1  0  0  0  0
 21 23  1  0  0  0  0
 22 44  1  0  0  0  0
 22 45  1  0  0  0  0
 22 46  1  0  0  0  0
 23 47  1  0  0  0  0
 24 25  1  0  0  0  0
 25 26  1  0  0  0  0
 26 48  1  0  0  0  0
 27 29  1  0  0  0  0
 27 28  1  0  0  0  0
 27 10  1  0  0  0  0
 27 49  1  1  0  0  0
 28 50  1  0  0  0  0
 28 51  1  0  0  0  0
 28 52  1  0  0  0  0
 29 30  1  0  0  0  0
 29 53  1  0  0  0  0
 29 54  1  0  0  0  0
 30 55  1  0  0  0  0
 30 56  1  0  0  0  0
 31 57  1  0  0  0  0
M  END
$$$$
