CHEMBL1448
 OpenBabel04072215363D

 29 30  0  0  0  0  0  0  0  0999 V2000
    1.0113    0.2575    0.3392 O   0  0  0  0  0  0  0  0  0  0  0  0
    2.2228    0.0582    0.2503 C   0  0  0  0  0  0  0  0  0  0  0  0
    2.7915   -1.1095   -0.2160 N   0  0  0  0  0  0  0  0  0  0  0  0
    2.0871   -2.2134   -0.7590 C   0  0  0  0  0  0  0  0  0  0  0  0
    0.7578   -2.0927   -1.1878 C   0  0  0  0  0  0  0  0  0  0  0  0
    0.0594   -3.1799   -1.7120 C   0  0  0  0  0  0  0  0  0  0  0  0
    0.6992   -4.4138   -1.8292 C   0  0  0  0  0  0  0  0  0  0  0  0
   -0.0371   -5.5531   -2.3882 N   0  3  0  0  0  0  0  0  0  0  0  0
   -1.2156   -5.3704   -2.7263 O   0  0  0  0  0  0  0  0  0  0  0  0
    0.5659   -6.6293   -2.4925 O   0  5  0  0  0  0  0  0  0  0  0  0
    2.0319   -4.5642   -1.4247 C   0  0  0  0  0  0  0  0  0  0  0  0
    2.7194   -3.4625   -0.8968 C   0  0  0  0  0  0  0  0  0  0  0  0
    4.3530   -3.6985   -0.3759 Cl  0  0  0  0  0  0  0  0  0  0  0  0
    3.1257    1.1464    0.7238 C   0  0  0  0  0  0  0  0  0  0  0  0
    2.4977    2.2428    1.3442 C   0  0  0  0  0  0  0  0  0  0  0  0
    3.2433    3.3217    1.8029 C   0  0  0  0  0  0  0  0  0  0  0  0
    2.4491    4.6468    2.5577 Cl  0  0  0  0  0  0  0  0  0  0  0  0
    4.6258    3.3311    1.6510 C   0  0  0  0  0  0  0  0  0  0  0  0
    5.2656    2.2534    1.0320 C   0  0  0  0  0  0  0  0  0  0  0  0
    4.5177    1.1650    0.5677 C   0  0  0  0  0  0  0  0  0  0  0  0
    5.1670    0.1267   -0.0438 O   0  0  0  0  0  0  0  0  0  0  0  0
    3.8013   -1.2129   -0.0982 H   0  0  0  0  0  0  0  0  0  0  0  0
    0.2310   -1.1433   -1.1480 H   0  0  0  0  0  0  0  0  0  0  0  0
   -0.9742   -3.0350   -2.0206 H   0  0  0  0  0  0  0  0  0  0  0  0
    2.5345   -5.5255   -1.5087 H   0  0  0  0  0  0  0  0  0  0  0  0
    1.4151    2.2545    1.4660 H   0  0  0  0  0  0  0  0  0  0  0  0
    5.2070    4.1759    2.0123 H   0  0  0  0  0  0  0  0  0  0  0  0
    6.3468    2.2823    0.9252 H   0  0  0  0  0  0  0  0  0  0  0  0
    6.0947    0.3818   -0.2009 H   0  0  0  0  0  0  0  0  0  0  0  0
  1  2  2  0  0  0  0
  2  3  1  0  0  0  0
  2 14  1  0  0  0  0
  3  4  1  0  0  0  0
  3 22  1  0  0  0  0
  4  5  1  0  0  0  0
  4 12  2  0  0  0  0
  5  6  2  0  0  0  0
  5 23  1  0  0  0  0
  6  7  1  0  0  0  0
  6 24  1  0  0  0  0
  7  8  1  0  0  0  0
  7 11  2  0  0  0  0
  8  9  2  0  0  0  0
  8 10  1  0  0  0  0
 11 12  1  0  0  0  0
 11 25  1  0  0  0  0
 12 13  1  0  0  0  0
 14 15  1  0  0  0  0
 14 20  2  0  0  0  0
 15 16  2  0  0  0  0
 15 26  1  0  0  0  0
 16 17  1  0  0  0  0
 16 18  1  0  0  0  0
 18 19  2  0  0  0  0
 18 27  1  0  0  0  0
 19 20  1  0  0  0  0
 19 28  1  0  0  0  0
 20 21  1  0  0  0  0
 21 29  1  0  0  0  0
M  CHG  2   8   1  10  -1
M  END
$$$$
