CHEMBL469043
 OpenBabel04072215383D

 48 52  0  0  0  0  0  0  0  0999 V2000
    3.2468    0.9558   -0.4282 O   0  0  0  0  0  0  0  0  0  0  0  0
    2.6545   -0.0156    0.0232 C   0  0  0  0  0  0  0  0  0  0  0  0
    3.2365   -0.8170    1.1538 C   0  0  0  0  0  0  0  0  0  0  0  0
    2.7903   -2.1401    1.3361 C   0  0  0  0  0  0  0  0  0  0  0  0
    3.5176   -3.0245    2.1319 C   0  0  0  0  0  0  0  0  0  0  0  0
    4.6771   -2.5966    2.7501 C   0  0  0  0  0  0  0  0  0  0  0  0
    5.0737   -1.2622    2.6512 C   0  0  0  0  0  0  0  0  0  0  0  0
    4.3548   -0.3348    1.8860 C   0  0  0  0  0  0  0  0  0  0  0  0
    4.7201    1.0103    1.8657 N   0  0  0  0  0  0  0  0  0  0  0  0
    6.0666    1.4668    2.1829 C   0  0  0  0  0  0  0  0  0  0  0  0
    6.3677    2.7583    1.4472 C   0  0  0  0  0  0  0  0  0  0  0  0
    6.1426    2.8426    0.0572 C   0  0  0  0  0  0  0  0  0  0  0  0
    6.4723    3.9900   -0.6478 C   0  0  0  0  0  0  0  0  0  0  0  0
    7.0212    5.0992   -0.0383 C   0  0  0  0  0  0  0  0  0  0  0  0
    7.3142    6.1826   -0.7740 N   0  0  0  0  0  0  0  0  0  0  0  0
    7.8389    7.2560   -0.1542 C   0  0  0  0  0  0  0  0  0  0  0  0
    8.1124    7.3032    1.2050 C   0  0  0  0  0  0  0  0  0  0  0  0
    7.8219    6.1769    1.9610 C   0  0  0  0  0  0  0  0  0  0  0  0
    7.2693    5.0430    1.3536 C   0  0  0  0  0  0  0  0  0  0  0  0
    6.9381    3.8635    2.0896 C   0  0  0  0  0  0  0  0  0  0  0  0
    1.4232   -0.4607   -0.6097 C   0  0  0  0  0  0  0  0  0  0  0  0
    1.3313   -0.8901   -1.9222 C   0  0  0  0  0  0  0  0  0  0  0  0
    0.0083   -1.1475   -2.1475 N   0  0  0  0  0  0  0  0  0  0  0  0
   -0.7172   -0.3771   -1.2709 C   0  0  0  0  0  0  0  0  0  0  0  0
   -1.9601    0.2460   -1.3609 C   0  0  0  0  0  0  0  0  0  0  0  0
   -2.4240    0.8768   -0.2021 C   0  0  0  0  0  0  0  0  0  0  0  0
   -1.7446    0.7381    1.0119 C   0  0  0  0  0  0  0  0  0  0  0  0
   -0.4883    0.1348    1.0693 C   0  0  0  0  0  0  0  0  0  0  0  0
    0.0892   -0.2843   -0.1377 C   0  0  0  0  0  0  0  0  0  0  0  0
    1.9099   -2.5244    0.8235 H   0  0  0  0  0  0  0  0  0  0  0  0
    3.1891   -4.0583    2.2339 H   0  0  0  0  0  0  0  0  0  0  0  0
    5.2832   -3.2969    3.3210 H   0  0  0  0  0  0  0  0  0  0  0  0
    5.9703   -0.9600    3.1887 H   0  0  0  0  0  0  0  0  0  0  0  0
    3.9836    1.6362    2.1832 H   0  0  0  0  0  0  0  0  0  0  0  0
    6.8149    0.7445    1.8493 H   0  0  0  0  0  0  0  0  0  0  0  0
    6.1660    1.6023    3.2616 H   0  0  0  0  0  0  0  0  0  0  0  0
    5.6912    2.0019   -0.4596 H   0  0  0  0  0  0  0  0  0  0  0  0
    6.2691    4.0234   -1.7247 H   0  0  0  0  0  0  0  0  0  0  0  0
    8.0456    8.1106   -0.7993 H   0  0  0  0  0  0  0  0  0  0  0  0
    8.5344    8.1945    1.6503 H   0  0  0  0  0  0  0  0  0  0  0  0
    8.0342    6.1856    3.0388 H   0  0  0  0  0  0  0  0  0  0  0  0
    7.1357    3.8366    3.1562 H   0  0  0  0  0  0  0  0  0  0  0  0
    2.0838   -1.0408   -2.6881 H   0  0  0  0  0  0  0  0  0  0  0  0
   -0.3767   -1.7306   -2.8824 H   0  0  0  0  0  0  0  0  0  0  0  0
   -2.4879    0.3379   -2.3041 H   0  0  0  0  0  0  0  0  0  0  0  0
   -3.3226    1.4854   -0.2451 H   0  0  0  0  0  0  0  0  0  0  0  0
   -2.1703    1.1802    1.9091 H   0  0  0  0  0  0  0  0  0  0  0  0
    0.0659    0.0984    2.0043 H   0  0  0  0  0  0  0  0  0  0  0  0
  1  2  2  0  0  0  0
  2  3  1  0  0  0  0
  2 21  1  0  0  0  0
  3  4  1  0  0  0  0
  3  8  2  0  0  0  0
  4  5  2  0  0  0  0
  4 30  1  0  0  0  0
  5  6  1  0  0  0  0
  5 31  1  0  0  0  0
  6  7  2  0  0  0  0
  6 32  1  0  0  0  0
  7  8  1  0  0  0  0
  7 33  1  0  0  0  0
  8  9  1  0  0  0  0
  9 10  1  0  0  0  0
  9 34  1  0  0  0  0
 10 11  1  0  0  0  0
 10 35  1  0  0  0  0
 10 36  1  0  0  0  0
 11 12  1  0  0  0  0
 11 20  2  0  0  0  0
 12 13  2  0  0  0  0
 12 37  1  0  0  0  0
 13 14  1  0  0  0  0
 13 38  1  0  0  0  0
 14 15  1  0  0  0  0
 14 19  2  0  0  0  0
 15 16  2  0  0  0  0
 16 17  1  0  0  0  0
 16 39  1  0  0  0  0
 17 18  2  0  0  0  0
 17 40  1  0  0  0  0
 18 19  1  0  0  0  0
 18 41  1  0  0  0  0
 19 20  1  0  0  0  0
 20 42  1  0  0  0  0
 21 22  2  0  0  0  0
 21 29  1  0  0  0  0
 22 23  1  0  0  0  0
 22 43  1  0  0  0  0
 23 24  1  0  0  0  0
 23 44  1  0  0  0  0
 24 25  1  0  0  0  0
 24 29  2  0  0  0  0
 25 26  2  0  0  0  0
 25 45  1  0  0  0  0
 26 27  1  0  0  0  0
 26 46  1  0  0  0  0
 27 28  2  0  0  0  0
 27 47  1  0  0  0  0
 28 29  1  0  0  0  0
 28 48  1  0  0  0  0
M  END
$$$$
