CHEMBL215813
 OpenBabel04072215363D

 51 54  0  0  0  0  0  0  0  0999 V2000
    2.4698    0.2096   -0.1174 C   0  0  0  0  0  0  0  0  0  0  0  0
    0.9696    0.0748   -0.0196 C   0  0  0  0  0  0  0  0  0  0  0  0
    0.2298    1.2822   -0.0138 C   0  0  0  0  0  0  0  0  0  0  0  0
   -1.1648    1.2906    0.0257 C   0  0  0  0  0  0  0  0  0  0  0  0
   -1.8432    0.0805    0.0773 C   0  0  0  0  0  0  0  0  0  0  0  0
   -3.3244   -0.0181    0.1479 C   0  0  0  0  0  0  0  0  0  0  0  0
   -3.7841   -0.9686    0.7761 O   0  0  0  0  0  0  0  0  0  0  0  0
   -4.0509    0.9243   -0.5649 N   0  0  0  0  0  0  0  0  0  0  0  0
   -5.4705    0.9653   -0.6748 C   0  0  0  0  0  0  0  0  0  0  0  0
   -6.2843    0.2410    0.2057 C   0  0  0  0  0  0  0  0  0  0  0  0
   -7.6697    0.2323    0.0782 C   0  0  0  0  0  0  0  0  0  0  0  0
   -8.2715    0.9596   -0.9363 C   0  0  0  0  0  0  0  0  0  0  0  0
   -7.4989    1.7223   -1.8305 C   0  0  0  0  0  0  0  0  0  0  0  0
   -8.2257    2.4811   -2.9230 C   0  0  0  0  0  0  0  0  0  0  0  0
   -9.5782    2.3038   -2.9072 F   0  0  0  0  0  0  0  0  0  0  0  0
   -8.0341    3.8273   -2.8446 F   0  0  0  0  0  0  0  0  0  0  0  0
   -7.8271    2.1121   -4.1727 F   0  0  0  0  0  0  0  0  0  0  0  0
   -6.0808    1.7436   -1.6924 C   0  0  0  0  0  0  0  0  0  0  0  0
   -5.2304    2.5653   -2.6327 C   0  0  0  0  0  0  0  0  0  0  0  0
   -1.1144   -1.1215    0.1199 C   0  0  0  0  0  0  0  0  0  0  0  0
    0.2961   -1.1721    0.0658 C   0  0  0  0  0  0  0  0  0  0  0  0
    0.9581   -2.5117    0.0826 C   0  0  0  0  0  0  0  0  0  0  0  0
    2.1634   -2.7582    0.7526 C   0  0  0  0  0  0  0  0  0  0  0  0
    2.8002   -4.0099    0.7067 C   0  0  0  0  0  0  0  0  0  0  0  0
    2.2372   -5.0876    0.0473 C   0  0  0  0  0  0  0  0  0  0  0  0
    2.8834   -6.2626    0.0220 N   0  0  0  0  0  0  0  0  0  0  0  0
    2.2880   -7.2729   -0.6128 C   0  0  0  0  0  0  0  0  0  0  0  0
    2.9732   -8.4705   -0.6654 N   0  0  0  0  0  0  0  0  0  0  0  0
    1.0791   -7.2275   -1.1682 N   0  0  0  0  0  0  0  0  0  0  0  0
    0.4551   -6.0350   -1.1331 C   0  0  0  0  0  0  0  0  0  0  0  0
    0.9980   -4.8973   -0.5542 C   0  0  0  0  0  0  0  0  0  0  0  0
    0.3756   -3.6253   -0.5563 C   0  0  0  0  0  0  0  0  0  0  0  0
    2.7643    1.2322   -0.3790 H   0  0  0  0  0  0  0  0  0  0  0  0
    2.8701   -0.4434   -0.8986 H   0  0  0  0  0  0  0  0  0  0  0  0
    2.9424   -0.0055    0.8443 H   0  0  0  0  0  0  0  0  0  0  0  0
    0.7534    2.2374   -0.0401 H   0  0  0  0  0  0  0  0  0  0  0  0
   -1.6915    2.2394    0.0527 H   0  0  0  0  0  0  0  0  0  0  0  0
   -3.5257    1.5302   -1.1795 H   0  0  0  0  0  0  0  0  0  0  0  0
   -5.8675   -0.3336    1.0275 H   0  0  0  0  0  0  0  0  0  0  0  0
   -8.2706   -0.3516    0.7711 H   0  0  0  0  0  0  0  0  0  0  0  0
   -9.3570    0.9281   -1.0268 H   0  0  0  0  0  0  0  0  0  0  0  0
   -5.8085    3.1043   -3.3860 H   0  0  0  0  0  0  0  0  0  0  0  0
   -4.5327    1.9181   -3.1740 H   0  0  0  0  0  0  0  0  0  0  0  0
   -4.6706    3.3180   -2.0675 H   0  0  0  0  0  0  0  0  0  0  0  0
   -1.6841   -2.0471    0.2092 H   0  0  0  0  0  0  0  0  0  0  0  0
    2.6433   -1.9886    1.3466 H   0  0  0  0  0  0  0  0  0  0  0  0
    3.7562   -4.1386    1.2037 H   0  0  0  0  0  0  0  0  0  0  0  0
    3.6374   -8.5153    0.0928 H   0  0  0  0  0  0  0  0  0  0  0  0
    2.3168   -9.2338   -0.7612 H   0  0  0  0  0  0  0  0  0  0  0  0
   -0.5272   -6.0220   -1.5956 H   0  0  0  0  0  0  0  0  0  0  0  0
   -0.5765   -3.5234   -1.0744 H   0  0  0  0  0  0  0  0  0  0  0  0
  1  2  1  0  0  0  0
  1 33  1  0  0  0  0
  1 34  1  0  0  0  0
  1 35  1  0  0  0  0
  2  3  1  0  0  0  0
  2 21  2  0  0  0  0
  3  4  2  0  0  0  0
  3 36  1  0  0  0  0
  4  5  1  0  0  0  0
  4 37  1  0  0  0  0
  5  6  1  0  0  0  0
  5 20  2  0  0  0  0
  6  7  2  0  0  0  0
  6  8  1  0  0  0  0
  8  9  1  0  0  0  0
  8 38  1  0  0  0  0
  9 10  1  0  0  0  0
  9 18  2  0  0  0  0
 10 11  2  0  0  0  0
 10 39  1  0  0  0  0
 11 12  1  0  0  0  0
 11 40  1  0  0  0  0
 12 13  2  0  0  0  0
 12 41  1  0  0  0  0
 13 14  1  0  0  0  0
 13 18  1  0  0  0  0
 14 15  1  0  0  0  0
 14 16  1  0  0  0  0
 14 17  1  0  0  0  0
 18 19  1  0  0  0  0
 19 42  1  0  0  0  0
 19 43  1  0  0  0  0
 19 44  1  0  0  0  0
 20 21  1  0  0  0  0
 20 45  1  0  0  0  0
 21 22  1  0  0  0  0
 22 23  1  0  0  0  0
 22 32  2  0  0  0  0
 23 24  2  0  0  0  0
 23 46  1  0  0  0  0
 24 25  1  0  0  0  0
 24 47  1  0  0  0  0
 25 26  1  0  0  0  0
 25 31  2  0  0  0  0
 26 27  2  0  0  0  0
 27 28  1  0  0  0  0
 27 29  1  0  0  0  0
 28 48  1  0  0  0  0
 28 49  1  0  0  0  0
 29 30  2  0  0  0  0
 30 31  1  0  0  0  0
 30 50  1  0  0  0  0
 31 32  1  0  0  0  0
 32 51  1  0  0  0  0
M  END
$$$$
