CHEMBL1098121
 OpenBabel04072215363D

 73 75  0  0  0  0  0  0  0  0999 V2000
   12.9174    4.7912    0.9369 C   0  0  0  0  0  0  0  0  0  0  0  0
   12.9261    4.0665    2.1149 O   0  0  0  0  0  0  0  0  0  0  0  0
   11.9338    3.9147    3.0340 C   0  0  0  0  0  0  0  0  0  0  0  0
   10.6822    4.5627    2.9516 C   0  0  0  0  0  0  0  0  0  0  0  0
    9.7369    4.4061    3.9712 C   0  0  0  0  0  0  0  0  0  0  0  0
   10.0176    3.6030    5.0884 C   0  0  0  0  0  0  0  0  0  0  0  0
    9.0340    3.4929    6.2287 C   0  0  0  0  0  0  0  0  0  0  0  0
    7.6787    2.8828    5.8124 C   0  0  0  0  0  0  0  0  0  0  0  0
    6.6919    2.7334    6.9985 C   0  0  0  0  0  0  0  0  0  0  0  0
    6.3278    4.0842    7.6125 C   0  0  0  0  0  0  0  0  0  0  0  0
    5.3230    4.0337    8.7844 C   0  0  0  0  0  0  0  0  0  0  0  0
    5.3284    5.3628    9.4115 N   0  0  0  0  0  0  0  0  0  0  0  0
    5.2920    6.5412    8.7411 C   0  0  0  0  0  0  0  0  0  0  0  0
    5.6195    7.5848    9.5953 C   0  0  0  0  0  0  0  0  0  0  0  0
    5.9121    9.0065    9.2127 C   0  0  0  0  0  0  0  0  0  0  0  0
    6.5860    9.0750    7.8339 C   0  0  0  0  0  0  0  0  0  0  0  0
    7.0458   10.4277    7.5593 N   0  0  0  0  0  0  0  0  0  0  0  0
    5.8033    7.0146   10.8342 C   0  0  0  0  0  0  0  0  0  0  0  0
    6.2047    7.5831   12.0386 C   0  0  0  0  0  0  0  0  0  0  0  0
    6.3663    6.7418   13.1473 C   0  0  0  0  0  0  0  0  0  0  0  0
    6.8430    7.2852   14.2941 O   0  0  0  0  0  0  0  0  0  0  0  0
    7.1178    6.5512   15.4244 C   0  0  0  0  0  0  0  0  0  0  0  0
    7.8552    7.3954   16.4599 C   0  0  0  0  0  0  0  0  0  0  0  0
    8.0574    6.5601   17.7007 C   0  0  0  0  0  0  0  0  0  0  0  0
    8.8223    5.3812   17.6496 C   0  0  0  0  0  0  0  0  0  0  0  0
    8.9645    4.5874   18.7884 C   0  0  0  0  0  0  0  0  0  0  0  0
    8.3540    4.9653   19.9917 C   0  0  0  0  0  0  0  0  0  0  0  0
    8.4761    4.2025   21.0951 O   0  0  0  0  0  0  0  0  0  0  0  0
    7.6044    6.1476   20.0480 C   0  0  0  0  0  0  0  0  0  0  0  0
    7.4575    6.9434   18.9062 C   0  0  0  0  0  0  0  0  0  0  0  0
    6.0731    5.3510   13.0255 C   0  0  0  0  0  0  0  0  0  0  0  0
    5.6919    4.8048   11.7934 C   0  0  0  0  0  0  0  0  0  0  0  0
    5.5844    5.6667   10.7035 C   0  0  0  0  0  0  0  0  0  0  0  0
   11.2533    2.9434    5.1596 C   0  0  0  0  0  0  0  0  0  0  0  0
   12.1976    3.0984    4.1417 C   0  0  0  0  0  0  0  0  0  0  0  0
    2.1397   -2.3913    1.1763 Cl  0  0  0  0  0  0  0  0  0  0  0  0
   13.3148    4.1571    0.1193 H   0  0  0  0  0  0  0  0  0  0  0  0
   13.5859    5.6706    1.0521 H   0  0  0  0  0  0  0  0  0  0  0  0
   11.9152    5.1413    0.6343 H   0  0  0  0  0  0  0  0  0  0  0  0
   10.4228    5.2100    2.1293 H   0  0  0  0  0  0  0  0  0  0  0  0
    8.7955    4.9354    3.8976 H   0  0  0  0  0  0  0  0  0  0  0  0
    8.8981    4.5222    6.6180 H   0  0  0  0  0  0  0  0  0  0  0  0
    9.4615    2.8704    7.0453 H   0  0  0  0  0  0  0  0  0  0  0  0
    7.8624    1.8723    5.3892 H   0  0  0  0  0  0  0  0  0  0  0  0
    7.2078    3.5104    5.0238 H   0  0  0  0  0  0  0  0  0  0  0  0
    7.1478    2.0861    7.7781 H   0  0  0  0  0  0  0  0  0  0  0  0
    5.7635    2.2499    6.6284 H   0  0  0  0  0  0  0  0  0  0  0  0
    5.9095    4.7294    6.8103 H   0  0  0  0  0  0  0  0  0  0  0  0
    7.2522    4.5546    8.0058 H   0  0  0  0  0  0  0  0  0  0  0  0
    5.6859    3.2819    9.5185 H   0  0  0  0  0  0  0  0  0  0  0  0
    4.3134    3.7390    8.4347 H   0  0  0  0  0  0  0  0  0  0  0  0
    5.1517    6.6325    7.6740 H   0  0  0  0  0  0  0  0  0  0  0  0
    6.6298    9.4203    9.9514 H   0  0  0  0  0  0  0  0  0  0  0  0
    4.9875    9.6180    9.2313 H   0  0  0  0  0  0  0  0  0  0  0  0
    5.8666    8.7561    7.0471 H   0  0  0  0  0  0  0  0  0  0  0  0
    7.4618    8.3868    7.8115 H   0  0  0  0  0  0  0  0  0  0  0  0
    6.2289   11.0774    7.5611 H   0  0  0  0  0  0  0  0  0  0  0  0
    7.4769   10.4421    6.6050 H   0  0  0  0  0  0  0  0  0  0  0  0
    6.4210    8.6404   12.1151 H   0  0  0  0  0  0  0  0  0  0  0  0
    7.7715    5.6957   15.1482 H   0  0  0  0  0  0  0  0  0  0  0  0
    6.1615    6.1722   15.8477 H   0  0  0  0  0  0  0  0  0  0  0  0
    7.2439    8.2955   16.6851 H   0  0  0  0  0  0  0  0  0  0  0  0
    8.8358    7.7313   16.0581 H   0  0  0  0  0  0  0  0  0  0  0  0
    9.2987    5.0672   16.7295 H   0  0  0  0  0  0  0  0  0  0  0  0
    9.5465    3.6746   18.7303 H   0  0  0  0  0  0  0  0  0  0  0  0
    8.9762    3.3730   21.0924 H   0  0  0  0  0  0  0  0  0  0  0  0
    7.1296    6.4433   20.9714 H   0  0  0  0  0  0  0  0  0  0  0  0
    6.8612    7.8452   18.9674 H   0  0  0  0  0  0  0  0  0  0  0  0
    6.1663    4.6793   13.8676 H   0  0  0  0  0  0  0  0  0  0  0  0
    5.4987    3.7438   11.7100 H   0  0  0  0  0  0  0  0  0  0  0  0
   11.4978    2.3251    6.0141 H   0  0  0  0  0  0  0  0  0  0  0  0
   13.1532    2.5956    4.2254 H   0  0  0  0  0  0  0  0  0  0  0  0
    1.3369   -1.4305    1.7463 H   0  0  0  0  0  0  0  0  0  0  0  0
  1  2  1  0  0  0  0
  1 37  1  0  0  0  0
  1 38  1  0  0  0  0
  1 39  1  0  0  0  0
  2  3  1  0  0  0  0
  3  4  1  0  0  0  0
  3 35  2  0  0  0  0
  4  5  2  0  0  0  0
  4 40  1  0  0  0  0
  5  6  1  0  0  0  0
  5 41  1  0  0  0  0
  6  7  1  0  0  0  0
  6 34  2  0  0  0  0
  7  8  1  0  0  0  0
  7 42  1  0  0  0  0
  7 43  1  0  0  0  0
  8  9  1  0  0  0  0
  8 44  1  0  0  0  0
  8 45  1  0  0  0  0
  9 10  1  0  0  0  0
  9 46  1  0  0  0  0
  9 47  1  0  0  0  0
 10 11  1  0  0  0  0
 10 48  1  0  0  0  0
 10 49  1  0  0  0  0
 11 12  1  0  0  0  0
 11 50  1  0  0  0  0
 11 51  1  0  0  0  0
 12 13  1  0  0  0  0
 12 33  1  0  0  0  0
 13 14  2  0  0  0  0
 13 52  1  0  0  0  0
 14 15  1  0  0  0  0
 14 18  1  0  0  0  0
 15 16  1  0  0  0  0
 15 53  1  0  0  0  0
 15 54  1  0  0  0  0
 16 17  1  0  0  0  0
 16 55  1  0  0  0  0
 16 56  1  0  0  0  0
 17 57  1  0  0  0  0
 17 58  1  0  0  0  0
 18 19  1  0  0  0  0
 18 33  2  0  0  0  0
 19 20  2  0  0  0  0
 19 59  1  0  0  0  0
 20 21  1  0  0  0  0
 20 31  1  0  0  0  0
 21 22  1  0  0  0  0
 22 23  1  0  0  0  0
 22 60  1  0  0  0  0
 22 61  1  0  0  0  0
 23 24  1  0  0  0  0
 23 62  1  0  0  0  0
 23 63  1  0  0  0  0
 24 25  1  0  0  0  0
 24 30  2  0  0  0  0
 25 26  2  0  0  0  0
 25 64  1  0  0  0  0
 26 27  1  0  0  0  0
 26 65  1  0  0  0  0
 27 28  1  0  0  0  0
 27 29  2  0  0  0  0
 28 66  1  0  0  0  0
 29 30  1  0  0  0  0
 29 67  1  0  0  0  0
 30 68  1  0  0  0  0
 31 32  2  0  0  0  0
 31 69  1  0  0  0  0
 32 33  1  0  0  0  0
 32 70  1  0  0  0  0
 34 35  1  0  0  0  0
 34 71  1  0  0  0  0
 35 72  1  0  0  0  0
 36 73  1  0  0  0  0
M  END
$$$$
