CHEMBL272198
 OpenBabel04072215363D

 53 57  0  0  0  0  0  0  0  0999 V2000
    4.7535    9.3725   -9.9866 C   0  0  0  0  0  0  0  0  0  0  0  0
    3.8413    9.4068   -8.8875 O   0  0  0  0  0  0  0  0  0  0  0  0
    3.8631    8.2638   -8.1279 C   0  0  0  0  0  0  0  0  0  0  0  0
    3.9784    6.9938   -8.7139 C   0  0  0  0  0  0  0  0  0  0  0  0
    4.0974    5.8404   -7.9596 C   0  0  0  0  0  0  0  0  0  0  0  0
    4.2094    4.6699   -8.6157 N   0  0  0  0  0  0  0  0  0  0  0  0
    4.3546    3.5420   -7.8935 C   0  0  0  0  0  0  0  0  0  0  0  0
    4.3743    3.5167   -6.5169 C   0  0  0  0  0  0  0  0  0  0  0  0
    4.2282    4.7249   -5.8409 C   0  0  0  0  0  0  0  0  0  0  0  0
    4.3163    4.6397   -4.4684 O   0  0  0  0  0  0  0  0  0  0  0  0
    3.3034    5.1253   -3.6720 C   0  0  0  0  0  0  0  0  0  0  0  0
    3.6194    5.2404   -2.3243 C   0  0  0  0  0  0  0  0  0  0  0  0
    2.6788    5.7363   -1.4156 C   0  0  0  0  0  0  0  0  0  0  0  0
    1.4027    6.1957   -1.8316 C   0  0  0  0  0  0  0  0  0  0  0  0
    0.3834    6.7286   -0.9847 C   0  0  0  0  0  0  0  0  0  0  0  0
    0.4683    6.8112    0.5046 C   0  0  0  0  0  0  0  0  0  0  0  0
   -0.5228    6.5348    1.1761 O   0  0  0  0  0  0  0  0  0  0  0  0
    1.6543    7.2532    1.0583 N   0  0  0  0  0  0  0  0  0  0  0  0
    1.8365    7.3399    2.4753 C   0  0  0  0  0  0  0  0  0  0  0  0
    3.1952    7.6153    3.0580 C   0  0  0  0  0  0  0  0  0  0  0  0
    2.5699    6.2628    3.2301 C   0  0  0  0  0  0  0  0  0  0  0  0
   -0.8508    7.1382   -1.5245 C   0  0  0  0  0  0  0  0  0  0  0  0
   -1.0974    7.0483   -2.8888 C   0  0  0  0  0  0  0  0  0  0  0  0
   -0.1240    6.5177   -3.7256 C   0  0  0  0  0  0  0  0  0  0  0  0
    1.1066    6.0769   -3.2176 C   0  0  0  0  0  0  0  0  0  0  0  0
    2.0338    5.5037   -4.1039 C   0  0  0  0  0  0  0  0  0  0  0  0
    4.1121    5.9419   -6.5570 C   0  0  0  0  0  0  0  0  0  0  0  0
    3.9846    7.2235   -5.9722 C   0  0  0  0  0  0  0  0  0  0  0  0
    3.7839    8.3695   -6.7441 C   0  0  0  0  0  0  0  0  0  0  0  0
    3.5800    9.5112   -6.0185 O   0  0  0  0  0  0  0  0  0  0  0  0
    2.6289   10.4222   -6.5664 C   0  0  0  0  0  0  0  0  0  0  0  0
    4.9905   10.4036  -10.2638 H   0  0  0  0  0  0  0  0  0  0  0  0
    4.2845    8.8882  -10.8488 H   0  0  0  0  0  0  0  0  0  0  0  0
    5.6952    8.8733   -9.7298 H   0  0  0  0  0  0  0  0  0  0  0  0
    3.9720    6.8894   -9.7936 H   0  0  0  0  0  0  0  0  0  0  0  0
    4.4700    2.6309   -8.4765 H   0  0  0  0  0  0  0  0  0  0  0  0
    4.5030    2.5834   -5.9805 H   0  0  0  0  0  0  0  0  0  0  0  0
    4.6027    4.9371   -1.9713 H   0  0  0  0  0  0  0  0  0  0  0  0
    2.9733    5.7470   -0.3702 H   0  0  0  0  0  0  0  0  0  0  0  0
    2.3599    7.6555    0.4543 H   0  0  0  0  0  0  0  0  0  0  0  0
    0.9839    7.7847    2.9864 H   0  0  0  0  0  0  0  0  0  0  0  0
    3.2464    8.2641    3.9250 H   0  0  0  0  0  0  0  0  0  0  0  0
    4.0465    7.6930    2.3937 H   0  0  0  0  0  0  0  0  0  0  0  0
    2.2003    5.9953    4.2142 H   0  0  0  0  0  0  0  0  0  0  0  0
    2.9852    5.4297    2.6763 H   0  0  0  0  0  0  0  0  0  0  0  0
   -1.6336    7.5193   -0.8704 H   0  0  0  0  0  0  0  0  0  0  0  0
   -2.0526    7.3704   -3.2961 H   0  0  0  0  0  0  0  0  0  0  0  0
   -0.3395    6.4448   -4.7912 H   0  0  0  0  0  0  0  0  0  0  0  0
    1.7557    5.3830   -5.1481 H   0  0  0  0  0  0  0  0  0  0  0  0
    4.0055    7.3450   -4.8924 H   0  0  0  0  0  0  0  0  0  0  0  0
    2.1194   10.9151   -5.7312 H   0  0  0  0  0  0  0  0  0  0  0  0
    1.8568    9.9345   -7.1728 H   0  0  0  0  0  0  0  0  0  0  0  0
    3.1490   11.1939   -7.1402 H   0  0  0  0  0  0  0  0  0  0  0  0
  1  2  1  0  0  0  0
  1 32  1  0  0  0  0
  1 33  1  0  0  0  0
  1 34  1  0  0  0  0
  2  3  1  0  0  0  0
  3  4  1  0  0  0  0
  3 29  2  0  0  0  0
  4  5  2  0  0  0  0
  4 35  1  0  0  0  0
  5  6  1  0  0  0  0
  5 27  1  0  0  0  0
  6  7  2  0  0  0  0
  7  8  1  0  0  0  0
  7 36  1  0  0  0  0
  8  9  2  0  0  0  0
  8 37  1  0  0  0  0
  9 10  1  0  0  0  0
  9 27  1  0  0  0  0
 10 11  1  0  0  0  0
 11 12  1  0  0  0  0
 11 26  2  0  0  0  0
 12 13  2  0  0  0  0
 12 38  1  0  0  0  0
 13 14  1  0  0  0  0
 13 39  1  0  0  0  0
 14 15  1  0  0  0  0
 14 25  2  0  0  0  0
 15 16  1  0  0  0  0
 15 22  2  0  0  0  0
 16 17  2  0  0  0  0
 16 18  1  0  0  0  0
 18 19  1  0  0  0  0
 18 40  1  0  0  0  0
 19 20  1  0  0  0  0
 19 21  1  0  0  0  0
 19 41  1  0  0  0  0
 20 21  1  0  0  0  0
 20 42  1  0  0  0  0
 20 43  1  0  0  0  0
 21 44  1  0  0  0  0
 21 45  1  0  0  0  0
 22 23  1  0  0  0  0
 22 46  1  0  0  0  0
 23 24  2  0  0  0  0
 23 47  1  0  0  0  0
 24 25  1  0  0  0  0
 24 48  1  0  0  0  0
 25 26  1  0  0  0  0
 26 49  1  0  0  0  0
 27 28  2  0  0  0  0
 28 29  1  0  0  0  0
 28 50  1  0  0  0  0
 29 30  1  0  0  0  0
 30 31  1  0  0  0  0
 31 51  1  0  0  0  0
 31 52  1  0  0  0  0
 31 53  1  0  0  0  0
M  END
$$$$
