CHEMBL3690406
 OpenBabel04072215373D

 45 48  0  0  0  0  0  0  0  0999 V2000
    2.5698    1.4405   -0.6396 O   0  0  0  0  0  0  0  0  0  0  0  0
    2.2791    0.6044    0.2054 C   0  0  0  0  0  0  0  0  0  0  0  0
    0.9748    0.1848    0.3686 N   0  0  0  0  0  0  0  0  0  0  0  0
   -0.0828    0.8766   -0.3805 C   0  0  0  0  0  0  0  0  0  0  0  0
   -0.5716    2.1917    0.2437 C   0  0  0  0  0  0  0  0  0  0  0  0
    0.0251    2.4397    1.4335 F   0  0  0  0  0  0  0  0  0  0  0  0
   -0.3634    3.2536   -0.5607 F   0  0  0  0  0  0  0  0  0  0  0  0
   -1.9048    2.1210    0.4856 F   0  0  0  0  0  0  0  0  0  0  0  0
    3.1341   -0.0398    1.0732 N   0  0  0  0  0  0  0  0  0  0  0  0
    4.5366    0.1135    1.1558 C   0  0  0  0  0  0  0  0  0  0  0  0
    5.2639    0.9447    0.3038 C   0  0  0  0  0  0  0  0  0  0  0  0
    6.6533    0.9905    0.3761 C   0  0  0  0  0  0  0  0  0  0  0  0
    7.3284    0.2328    1.3274 C   0  0  0  0  0  0  0  0  0  0  0  0
    6.6261   -0.5189    2.2757 C   0  0  0  0  0  0  0  0  0  0  0  0
    7.3178   -1.1737    3.3959 C   0  0  0  0  0  0  0  0  0  0  0  0
    7.0524   -2.3801    4.0245 C   0  0  0  0  0  0  0  0  0  0  0  0
    7.8957   -2.6191    5.0764 N   0  0  0  0  0  0  0  0  0  0  0  0
    8.6881   -1.5735    5.1250 C   0  0  0  0  0  0  0  0  0  0  0  0
    9.7518   -1.2588    6.0254 C   0  0  0  0  0  0  0  0  0  0  0  0
   10.4491   -0.1070    5.8907 C   0  0  0  0  0  0  0  0  0  0  0  0
   11.5169    0.1742    6.8529 C   0  0  0  0  0  0  0  0  0  0  0  0
   12.8275   -0.2107    6.6457 C   0  0  0  0  0  0  0  0  0  0  0  0
   13.8312    0.0414    7.5126 N   0  0  0  0  0  0  0  0  0  0  0  0
   13.4854    0.7118    8.6235 C   0  0  0  0  0  0  0  0  0  0  0  0
   12.2549    1.1536    8.9286 N   0  0  0  0  0  0  0  0  0  0  0  0
   11.2930    0.8725    8.0245 C   0  0  0  0  0  0  0  0  0  0  0  0
   10.1078    0.8314    4.8260 C   0  0  0  0  0  0  0  0  0  0  0  0
    9.0879    0.5555    3.9985 C   0  0  0  0  0  0  0  0  0  0  0  0
    8.3866   -0.6463    4.1272 N   0  0  0  0  0  0  0  0  0  0  0  0
    5.2255   -0.6101    2.1452 C   0  0  0  0  0  0  0  0  0  0  0  0
    0.7245   -0.1425    1.2903 H   0  0  0  0  0  0  0  0  0  0  0  0
   -0.9171    0.1710   -0.4539 H   0  0  0  0  0  0  0  0  0  0  0  0
    0.2695    1.0680   -1.4004 H   0  0  0  0  0  0  0  0  0  0  0  0
    2.7219   -0.7351    1.6759 H   0  0  0  0  0  0  0  0  0  0  0  0
    4.7835    1.5579   -0.4512 H   0  0  0  0  0  0  0  0  0  0  0  0
    7.2075    1.6218   -0.3133 H   0  0  0  0  0  0  0  0  0  0  0  0
    8.4143    0.2553    1.3209 H   0  0  0  0  0  0  0  0  0  0  0  0
    6.2816   -3.0986    3.7681 H   0  0  0  0  0  0  0  0  0  0  0  0
    9.9605   -1.9737    6.8157 H   0  0  0  0  0  0  0  0  0  0  0  0
   13.1233   -0.7491    5.7490 H   0  0  0  0  0  0  0  0  0  0  0  0
   14.2728    0.9147    9.3410 H   0  0  0  0  0  0  0  0  0  0  0  0
   10.3031    1.2410    8.2821 H   0  0  0  0  0  0  0  0  0  0  0  0
   10.6776    1.7517    4.7257 H   0  0  0  0  0  0  0  0  0  0  0  0
    8.7932    1.2504    3.2271 H   0  0  0  0  0  0  0  0  0  0  0  0
    4.6668   -1.2310    2.8415 H   0  0  0  0  0  0  0  0  0  0  0  0
  1  2  2  0  0  0  0
  2  3  1  0  0  0  0
  2  9  1  0  0  0  0
  3  4  1  0  0  0  0
  3 31  1  0  0  0  0
  4  5  1  0  0  0  0
  4 32  1  0  0  0  0
  4 33  1  0  0  0  0
  5  6  1  0  0  0  0
  5  7  1  0  0  0  0
  5  8  1  0  0  0  0
  9 10  1  0  0  0  0
  9 34  1  0  0  0  0
 10 11  1  0  0  0  0
 10 30  2  0  0  0  0
 11 12  2  0  0  0  0
 11 35  1  0  0  0  0
 12 13  1  0  0  0  0
 12 36  1  0  0  0  0
 13 14  2  0  0  0  0
 13 37  1  0  0  0  0
 14 15  1  0  0  0  0
 14 30  1  0  0  0  0
 15 16  2  0  0  0  0
 15 29  1  0  0  0  0
 16 17  1  0  0  0  0
 16 38  1  0  0  0  0
 17 18  2  0  0  0  0
 18 19  1  0  0  0  0
 18 29  1  0  0  0  0
 19 20  2  0  0  0  0
 19 39  1  0  0  0  0
 20 21  1  0  0  0  0
 20 27  1  0  0  0  0
 21 22  1  0  0  0  0
 21 26  2  0  0  0  0
 22 23  2  0  0  0  0
 22 40  1  0  0  0  0
 23 24  1  0  0  0  0
 24 25  2  0  0  0  0
 24 41  1  0  0  0  0
 25 26  1  0  0  0  0
 26 42  1  0  0  0  0
 27 28  2  0  0  0  0
 27 43  1  0  0  0  0
 28 29  1  0  0  0  0
 28 44  1  0  0  0  0
 30 45  1  0  0  0  0
M  END
$$$$
