CHEMBL3690497
 OpenBabel04072215373D

 49 52  0  0  0  0  0  0  0  0999 V2000
    5.8075   -4.5783    1.7247 C   0  0  0  0  0  0  0  0  0  0  0  0
    5.1363   -3.3305    1.8754 O   0  0  0  0  0  0  0  0  0  0  0  0
    4.4484   -2.9046    0.7776 C   0  0  0  0  0  0  0  0  0  0  0  0
    3.9143   -3.7133   -0.2047 C   0  0  0  0  0  0  0  0  0  0  0  0
    3.2171   -3.2629   -1.2692 N   0  0  0  0  0  0  0  0  0  0  0  0
    3.0433   -1.9364   -1.3281 C   0  0  0  0  0  0  0  0  0  0  0  0
    3.4966   -1.0464   -0.4387 N   0  0  0  0  0  0  0  0  0  0  0  0
    4.1976   -1.5497    0.6097 C   0  0  0  0  0  0  0  0  0  0  0  0
    4.6678   -0.5287    1.5656 C   0  0  0  0  0  0  0  0  0  0  0  0
    3.8416   -0.0728    2.6824 C   0  0  0  0  0  0  0  0  0  0  0  0
    4.2614    0.9420    3.4537 C   0  0  0  0  0  0  0  0  0  0  0  0
    5.4867    1.5584    3.1860 N   0  0  0  0  0  0  0  0  0  0  0  0
    6.1253    2.6404    3.7855 C   0  0  0  0  0  0  0  0  0  0  0  0
    5.6575    3.4839    4.8955 C   0  0  0  0  0  0  0  0  0  0  0  0
    6.6214    4.0647    5.7362 C   0  0  0  0  0  0  0  0  0  0  0  0
    6.2522    4.9332    6.7528 C   0  0  0  0  0  0  0  0  0  0  0  0
    4.9128    5.2533    6.9364 C   0  0  0  0  0  0  0  0  0  0  0  0
    3.9209    4.7320    6.1003 C   0  0  0  0  0  0  0  0  0  0  0  0
    2.5569    5.1196    6.1859 N   0  0  0  0  0  0  0  0  0  0  0  0
    2.0681    6.0861    7.0416 C   0  0  0  0  0  0  0  0  0  0  0  0
    2.7024    6.7299    7.8547 O   0  0  0  0  0  0  0  0  0  0  0  0
    0.7015    6.2562    6.9574 N   0  0  0  0  0  0  0  0  0  0  0  0
    0.0933    7.2699    7.8369 C   0  0  0  0  0  0  0  0  0  0  0  0
    0.1079    8.7237    7.3367 C   0  0  0  0  0  0  0  0  0  0  0  0
    0.6286    8.8395    6.0940 F   0  0  0  0  0  0  0  0  0  0  0  0
   -1.1627    9.1976    7.2749 F   0  0  0  0  0  0  0  0  0  0  0  0
    0.7962    9.5424    8.1596 F   0  0  0  0  0  0  0  0  0  0  0  0
    4.3056    3.8220    5.0992 C   0  0  0  0  0  0  0  0  0  0  0  0
    7.3219    2.7428    3.0845 C   0  0  0  0  0  0  0  0  0  0  0  0
    7.4440    1.7986    2.1084 N   0  0  0  0  0  0  0  0  0  0  0  0
    6.3332    1.1047    2.1694 C   0  0  0  0  0  0  0  0  0  0  0  0
    5.8840    0.0255    1.3581 C   0  0  0  0  0  0  0  0  0  0  0  0
    6.3842   -4.7625    2.6346 H   0  0  0  0  0  0  0  0  0  0  0  0
    6.5044   -4.5431    0.8798 H   0  0  0  0  0  0  0  0  0  0  0  0
    5.0977   -5.4046    1.6133 H   0  0  0  0  0  0  0  0  0  0  0  0
    4.0074   -4.7926   -0.1810 H   0  0  0  0  0  0  0  0  0  0  0  0
    2.4859   -1.5506   -2.1746 H   0  0  0  0  0  0  0  0  0  0  0  0
    2.8964   -0.5722    2.8668 H   0  0  0  0  0  0  0  0  0  0  0  0
    3.6732    1.2964    4.2857 H   0  0  0  0  0  0  0  0  0  0  0  0
    7.6822    3.8615    5.6031 H   0  0  0  0  0  0  0  0  0  0  0  0
    7.0034    5.3888    7.3932 H   0  0  0  0  0  0  0  0  0  0  0  0
    4.6883    5.9443    7.7393 H   0  0  0  0  0  0  0  0  0  0  0  0
    1.9236    4.7241    5.5144 H   0  0  0  0  0  0  0  0  0  0  0  0
    0.2291    6.0162    6.1014 H   0  0  0  0  0  0  0  0  0  0  0  0
    0.6037    7.2392    8.8073 H   0  0  0  0  0  0  0  0  0  0  0  0
   -0.9350    6.9472    8.0153 H   0  0  0  0  0  0  0  0  0  0  0  0
    3.5406    3.4176    4.4449 H   0  0  0  0  0  0  0  0  0  0  0  0
    8.1065    3.4752    3.2383 H   0  0  0  0  0  0  0  0  0  0  0  0
    6.5340   -0.2930    0.5486 H   0  0  0  0  0  0  0  0  0  0  0  0
  1  2  1  0  0  0  0
  1 33  1  0  0  0  0
  1 34  1  0  0  0  0
  1 35  1  0  0  0  0
  2  3  1  0  0  0  0
  3  4  1  0  0  0  0
  3  8  2  0  0  0  0
  4  5  2  0  0  0  0
  4 36  1  0  0  0  0
  5  6  1  0  0  0  0
  6  7  2  0  0  0  0
  6 37  1  0  0  0  0
  7  8  1  0  0  0  0
  8  9  1  0  0  0  0
  9 10  1  0  0  0  0
  9 32  2  0  0  0  0
 10 11  2  0  0  0  0
 10 38  1  0  0  0  0
 11 12  1  0  0  0  0
 11 39  1  0  0  0  0
 12 13  1  0  0  0  0
 12 31  1  0  0  0  0
 13 14  1  0  0  0  0
 13 29  2  0  0  0  0
 14 15  1  0  0  0  0
 14 28  2  0  0  0  0
 15 16  2  0  0  0  0
 15 40  1  0  0  0  0
 16 17  1  0  0  0  0
 16 41  1  0  0  0  0
 17 18  2  0  0  0  0
 17 42  1  0  0  0  0
 18 19  1  0  0  0  0
 18 28  1  0  0  0  0
 19 20  1  0  0  0  0
 19 43  1  0  0  0  0
 20 21  2  0  0  0  0
 20 22  1  0  0  0  0
 22 23  1  0  0  0  0
 22 44  1  0  0  0  0
 23 24  1  0  0  0  0
 23 45  1  0  0  0  0
 23 46  1  0  0  0  0
 24 25  1  0  0  0  0
 24 26  1  0  0  0  0
 24 27  1  0  0  0  0
 28 47  1  0  0  0  0
 29 30  1  0  0  0  0
 29 48  1  0  0  0  0
 30 31  2  0  0  0  0
 31 32  1  0  0  0  0
 32 49  1  0  0  0  0
M  END
$$$$
