CHEMBL242349
 OpenBabel04072215363D

 61 64  0  0  0  0  0  0  0  0999 V2000
   11.8690   11.7356    6.6233 C   0  0  0  0  0  0  0  0  0  0  0  0
   12.1716   10.6250    5.8015 O   0  0  0  0  0  0  0  0  0  0  0  0
   11.3531    9.4791    6.0655 C   0  0  0  0  0  0  0  0  0  0  0  0
   11.8599    8.4041    5.1138 C   0  0  0  0  0  0  0  0  0  0  0  0
   11.1613    7.1774    5.1804 O   0  0  0  0  0  0  0  0  0  0  0  0
   11.1882    6.3697    4.0675 C   0  0  0  0  0  0  0  0  0  0  0  0
   10.0453    5.5299    4.0406 C   0  0  0  0  0  0  0  0  0  0  0  0
    9.7594    4.6337    3.0074 C   0  0  0  0  0  0  0  0  0  0  0  0
    8.6357    3.9045    3.0365 N   0  0  0  0  0  0  0  0  0  0  0  0
    8.4216    3.0778    2.0032 C   0  0  0  0  0  0  0  0  0  0  0  0
    9.2314    2.8938    0.9563 N   0  0  0  0  0  0  0  0  0  0  0  0
   10.3680    3.6124    0.9452 C   0  0  0  0  0  0  0  0  0  0  0  0
   11.3001    3.4142   -0.1117 N   0  0  0  0  0  0  0  0  0  0  0  0
   11.0033    2.7083   -1.2768 C   0  0  0  0  0  0  0  0  0  0  0  0
    9.9035    2.8562   -2.0138 C   0  0  0  0  0  0  0  0  0  0  0  0
    9.6302    2.0674   -3.2367 C   0  0  0  0  0  0  0  0  0  0  0  0
    8.5664    2.2440   -3.8327 O   0  0  0  0  0  0  0  0  0  0  0  0
   10.6664    1.0881   -3.6773 C   0  0  0  0  0  0  0  0  0  0  0  0
   10.5139    0.2817   -4.7975 O   0  0  0  0  0  0  0  0  0  0  0  0
    9.6731    0.7525   -5.8531 C   0  0  0  0  0  0  0  0  0  0  0  0
   10.1077    0.0851   -7.1398 C   0  0  0  0  0  0  0  0  0  0  0  0
   10.0881   -1.3103   -7.2688 C   0  0  0  0  0  0  0  0  0  0  0  0
   10.5054   -1.9175   -8.4550 C   0  0  0  0  0  0  0  0  0  0  0  0
   10.9259   -1.1384   -9.5349 C   0  0  0  0  0  0  0  0  0  0  0  0
   10.9199    0.2521   -9.4334 C   0  0  0  0  0  0  0  0  0  0  0  0
   11.3037    1.1128  -10.4261 O   0  0  0  0  0  0  0  0  0  0  0  0
   11.0941    0.6393  -11.7527 C   0  0  0  0  0  0  0  0  0  0  0  0
   10.5327    0.8559   -8.2335 C   0  0  0  0  0  0  0  0  0  0  0  0
   11.7789    0.9545   -2.9548 C   0  0  0  0  0  0  0  0  0  0  0  0
   12.0477    1.7432   -1.7390 C   0  0  0  0  0  0  0  0  0  0  0  0
   13.1021    1.6066   -1.1183 O   0  0  0  0  0  0  0  0  0  0  0  0
   10.6701    4.5408    1.9589 C   0  0  0  0  0  0  0  0  0  0  0  0
   11.8040    5.3807    1.9636 C   0  0  0  0  0  0  0  0  0  0  0  0
   12.0934    6.2839    3.0032 C   0  0  0  0  0  0  0  0  0  0  0  0
   13.2184    6.9755    2.6706 O   0  0  0  0  0  0  0  0  0  0  0  0
   14.1679    7.4294    3.6117 C   0  0  0  0  0  0  0  0  0  0  0  0
   12.5387   12.5528    6.3385 H   0  0  0  0  0  0  0  0  0  0  0  0
   12.0439   11.4927    7.6744 H   0  0  0  0  0  0  0  0  0  0  0  0
   10.8371   12.0580    6.4649 H   0  0  0  0  0  0  0  0  0  0  0  0
   10.2966    9.7035    5.8898 H   0  0  0  0  0  0  0  0  0  0  0  0
   11.4774    9.1580    7.1069 H   0  0  0  0  0  0  0  0  0  0  0  0
   12.8788    8.2223    5.4521 H   0  0  0  0  0  0  0  0  0  0  0  0
   11.8465    8.8147    4.0987 H   0  0  0  0  0  0  0  0  0  0  0  0
    9.3234    5.6040    4.8536 H   0  0  0  0  0  0  0  0  0  0  0  0
    7.5054    2.4959    2.0188 H   0  0  0  0  0  0  0  0  0  0  0  0
   12.1986    3.1168    0.2715 H   0  0  0  0  0  0  0  0  0  0  0  0
    9.1294    3.5657   -1.7374 H   0  0  0  0  0  0  0  0  0  0  0  0
    9.7569    1.8398   -5.9689 H   0  0  0  0  0  0  0  0  0  0  0  0
    8.6296    0.4835   -5.6499 H   0  0  0  0  0  0  0  0  0  0  0  0
    9.7599   -1.9315   -6.4383 H   0  0  0  0  0  0  0  0  0  0  0  0
   10.5092   -3.0016   -8.5371 H   0  0  0  0  0  0  0  0  0  0  0  0
   11.2665   -1.6404  -10.4341 H   0  0  0  0  0  0  0  0  0  0  0  0
   11.2350    1.4833  -12.4347 H   0  0  0  0  0  0  0  0  0  0  0  0
   10.0715    0.2689  -11.8870 H   0  0  0  0  0  0  0  0  0  0  0  0
   11.8280   -0.1278  -12.0182 H   0  0  0  0  0  0  0  0  0  0  0  0
   10.5551    1.9413   -8.1638 H   0  0  0  0  0  0  0  0  0  0  0  0
   12.5483    0.2453   -3.2454 H   0  0  0  0  0  0  0  0  0  0  0  0
   12.4834    5.3532    1.1115 H   0  0  0  0  0  0  0  0  0  0  0  0
   15.1693    7.2974    3.1909 H   0  0  0  0  0  0  0  0  0  0  0  0
   14.1385    6.8943    4.5639 H   0  0  0  0  0  0  0  0  0  0  0  0
   14.0431    8.5108    3.7249 H   0  0  0  0  0  0  0  0  0  0  0  0
  1  2  1  0  0  0  0
  1 37  1  0  0  0  0
  1 38  1  0  0  0  0
  1 39  1  0  0  0  0
  2  3  1  0  0  0  0
  3  4  1  0  0  0  0
  3 40  1  0  0  0  0
  3 41  1  0  0  0  0
  4  5  1  0  0  0  0
  4 42  1  0  0  0  0
  4 43  1  0  0  0  0
  5  6  1  0  0  0  0
  6  7  1  0  0  0  0
  6 34  2  0  0  0  0
  7  8  2  0  0  0  0
  7 44  1  0  0  0  0
  8  9  1  0  0  0  0
  8 32  1  0  0  0  0
  9 10  2  0  0  0  0
 10 11  1  0  0  0  0
 10 45  1  0  0  0  0
 11 12  2  0  0  0  0
 12 13  1  0  0  0  0
 12 32  1  0  0  0  0
 13 14  1  0  0  0  0
 13 46  1  0  0  0  0
 14 15  2  0  0  0  0
 14 30  1  0  0  0  0
 15 16  1  0  0  0  0
 15 47  1  0  0  0  0
 16 17  2  0  0  0  0
 16 18  1  0  0  0  0
 18 19  1  0  0  0  0
 18 29  2  0  0  0  0
 19 20  1  0  0  0  0
 20 21  1  0  0  0  0
 20 48  1  0  0  0  0
 20 49  1  0  0  0  0
 21 22  1  0  0  0  0
 21 28  2  0  0  0  0
 22 23  2  0  0  0  0
 22 50  1  0  0  0  0
 23 24  1  0  0  0  0
 23 51  1  0  0  0  0
 24 25  2  0  0  0  0
 24 52  1  0  0  0  0
 25 26  1  0  0  0  0
 25 28  1  0  0  0  0
 26 27  1  0  0  0  0
 27 53  1  0  0  0  0
 27 54  1  0  0  0  0
 27 55  1  0  0  0  0
 28 56  1  0  0  0  0
 29 30  1  0  0  0  0
 29 57  1  0  0  0  0
 30 31  2  0  0  0  0
 32 33  2  0  0  0  0
 33 34  1  0  0  0  0
 33 58  1  0  0  0  0
 34 35  1  0  0  0  0
 35 36  1  0  0  0  0
 36 59  1  0  0  0  0
 36 60  1  0  0  0  0
 36 61  1  0  0  0  0
M  END
$$$$
