CHEMBL1241685
 OpenBabel04072215363D

 47 50  0  0  0  0  0  0  0  0999 V2000
    3.4195    0.2524    1.3026 C   0  0  0  0  0  0  0  0  0  0  0  0
    2.6240    0.0681    0.1311 O   0  0  0  0  0  0  0  0  0  0  0  0
    3.1593   -0.7001   -0.8692 C   0  0  0  0  0  0  0  0  0  0  0  0
    4.1541   -1.6516   -0.6288 C   0  0  0  0  0  0  0  0  0  0  0  0
    4.7595   -2.3748   -1.6396 C   0  0  0  0  0  0  0  0  0  0  0  0
    5.7836   -3.1542   -1.2756 N   0  0  0  0  0  0  0  0  0  0  0  0
    6.4733   -3.7836   -2.2390 C   0  0  0  0  0  0  0  0  0  0  0  0
    6.1412   -3.7213   -3.5719 C   0  0  0  0  0  0  0  0  0  0  0  0
    4.9912   -3.0185   -3.9431 C   0  0  0  0  0  0  0  0  0  0  0  0
    4.5192   -3.0359   -5.2545 O   0  0  0  0  0  0  0  0  0  0  0  0
    4.8589   -4.1178   -6.0522 C   0  0  0  0  0  0  0  0  0  0  0  0
    4.7755   -5.4342   -5.6060 C   0  0  0  0  0  0  0  0  0  0  0  0
    5.3278   -6.4682   -6.3687 C   0  0  0  0  0  0  0  0  0  0  0  0
    5.9113   -6.2363   -7.6359 C   0  0  0  0  0  0  0  0  0  0  0  0
    6.5589   -7.2373   -8.4277 C   0  0  0  0  0  0  0  0  0  0  0  0
    6.8466   -8.6040   -7.8820 C   0  0  0  0  0  0  0  0  0  0  0  0
    6.8525   -9.6467   -8.7705 N   0  0  0  0  0  0  0  0  0  0  0  0
    7.0939   -8.8046   -6.7013 O   0  0  0  0  0  0  0  0  0  0  0  0
    7.0317   -6.9288   -9.7150 C   0  0  0  0  0  0  0  0  0  0  0  0
    6.8870   -5.6438  -10.2265 C   0  0  0  0  0  0  0  0  0  0  0  0
    6.3101   -4.6449   -9.4417 C   0  0  0  0  0  0  0  0  0  0  0  0
    5.8404   -4.9140   -8.1431 C   0  0  0  0  0  0  0  0  0  0  0  0
    5.3228   -3.8694   -7.3444 C   0  0  0  0  0  0  0  0  0  0  0  0
    4.3084   -2.2411   -2.9685 C   0  0  0  0  0  0  0  0  0  0  0  0
    3.2568   -1.3212   -3.2190 C   0  0  0  0  0  0  0  0  0  0  0  0
    2.7053   -0.5274   -2.1851 C   0  0  0  0  0  0  0  0  0  0  0  0
    1.7523    0.5517   -2.5954 C   0  0  0  0  0  0  0  0  0  0  0  0
    0.7207    1.0986   -1.6409 C   0  0  0  0  0  0  0  0  0  0  0  0
    1.8413    1.0080   -3.7361 O   0  0  0  0  0  0  0  0  0  0  0  0
    2.8717    0.9131    1.9812 H   0  0  0  0  0  0  0  0  0  0  0  0
    4.3692    0.7357    1.0501 H   0  0  0  0  0  0  0  0  0  0  0  0
    3.5846   -0.6862    1.8411 H   0  0  0  0  0  0  0  0  0  0  0  0
    4.5236   -1.8408    0.3749 H   0  0  0  0  0  0  0  0  0  0  0  0
    7.3268   -4.3626   -1.9006 H   0  0  0  0  0  0  0  0  0  0  0  0
    6.7650   -4.2431   -4.2876 H   0  0  0  0  0  0  0  0  0  0  0  0
    4.3540   -5.6678   -4.6322 H   0  0  0  0  0  0  0  0  0  0  0  0
    5.3107   -7.4684   -5.9406 H   0  0  0  0  0  0  0  0  0  0  0  0
    6.5521   -9.5769   -9.7310 H   0  0  0  0  0  0  0  0  0  0  0  0
    7.0263  -10.5669   -8.3876 H   0  0  0  0  0  0  0  0  0  0  0  0
    7.5521   -7.6705  -10.3155 H   0  0  0  0  0  0  0  0  0  0  0  0
    7.2529   -5.4101  -11.2241 H   0  0  0  0  0  0  0  0  0  0  0  0
    6.2394   -3.6399   -9.8555 H   0  0  0  0  0  0  0  0  0  0  0  0
    5.3236   -2.8455   -7.7128 H   0  0  0  0  0  0  0  0  0  0  0  0
    2.9083   -1.1759   -4.2424 H   0  0  0  0  0  0  0  0  0  0  0  0
    0.4626    0.3912   -0.8518 H   0  0  0  0  0  0  0  0  0  0  0  0
   -0.2001    1.2915   -2.2011 H   0  0  0  0  0  0  0  0  0  0  0  0
    1.0785    2.0387   -1.2110 H   0  0  0  0  0  0  0  0  0  0  0  0
  1  2  1  0  0  0  0
  1 30  1  0  0  0  0
  1 31  1  0  0  0  0
  1 32  1  0  0  0  0
  2  3  1  0  0  0  0
  3  4  1  0  0  0  0
  3 26  2  0  0  0  0
  4  5  2  0  0  0  0
  4 33  1  0  0  0  0
  5  6  1  0  0  0  0
  5 24  1  0  0  0  0
  6  7  2  0  0  0  0
  7  8  1  0  0  0  0
  7 34  1  0  0  0  0
  8  9  2  0  0  0  0
  8 35  1  0  0  0  0
  9 10  1  0  0  0  0
  9 24  1  0  0  0  0
 10 11  1  0  0  0  0
 11 12  1  0  0  0  0
 11 23  2  0  0  0  0
 12 13  2  0  0  0  0
 12 36  1  0  0  0  0
 13 14  1  0  0  0  0
 13 37  1  0  0  0  0
 14 15  1  0  0  0  0
 14 22  2  0  0  0  0
 15 16  1  0  0  0  0
 15 19  2  0  0  0  0
 16 17  1  0  0  0  0
 16 18  2  0  0  0  0
 17 38  1  0  0  0  0
 17 39  1  0  0  0  0
 19 20  1  0  0  0  0
 19 40  1  0  0  0  0
 20 21  2  0  0  0  0
 20 41  1  0  0  0  0
 21 22  1  0  0  0  0
 21 42  1  0  0  0  0
 22 23  1  0  0  0  0
 23 43  1  0  0  0  0
 24 25  2  0  0  0  0
 25 26  1  0  0  0  0
 25 44  1  0  0  0  0
 26 27  1  0  0  0  0
 27 28  1  0  0  0  0
 27 29  2  0  0  0  0
 28 45  1  0  0  0  0
 28 46  1  0  0  0  0
 28 47  1  0  0  0  0
M  END
$$$$
