CHEMBL3904823
 OpenBabel04072215373D

 44 47  0  0  0  0  0  0  0  0999 V2000
    1.2416    0.1056    0.2138 N   0  0  0  0  0  0  0  0  0  0  0  0
    2.6053    0.0707   -0.0984 C   0  0  0  0  0  0  0  0  0  0  0  0
    3.3515    1.2508   -0.1504 C   0  0  0  0  0  0  0  0  0  0  0  0
    4.7374    1.2137   -0.3604 C   0  0  0  0  0  0  0  0  0  0  0  0
    5.3977   -0.0115   -0.4767 C   0  0  0  0  0  0  0  0  0  0  0  0
    6.8100   -0.0661   -0.7318 C   0  0  0  0  0  0  0  0  0  0  0  0
    7.9890   -0.0819   -0.9733 C   0  0  0  0  0  0  0  0  0  0  0  0
    9.3973    0.0526   -1.2768 C   0  0  0  0  0  0  0  0  0  0  0  0
    9.9913    1.4019   -1.4217 C   0  0  0  0  0  0  0  0  0  0  0  0
   11.2979    1.4661   -1.6961 C   0  0  0  0  0  0  0  0  0  0  0  0
   12.0288    0.2696   -1.8278 C   0  0  0  0  0  0  0  0  0  0  0  0
   13.3047    0.0759   -2.0752 N   0  0  0  0  0  0  0  0  0  0  0  0
   13.4537   -1.2815   -2.1289 C   0  0  0  0  0  0  0  0  0  0  0  0
   14.6615   -1.8736   -2.4045 N   0  0  0  0  0  0  0  0  0  0  0  0
   15.8566   -1.2538   -2.6840 C   0  0  0  0  0  0  0  0  0  0  0  0
   16.8280   -1.9633   -2.9429 O   0  0  0  0  0  0  0  0  0  0  0  0
   15.8651    0.1178   -2.6192 N   0  0  0  0  0  0  0  0  0  0  0  0
   16.9503    0.9835   -2.8462 C   0  0  0  0  0  0  0  0  0  0  0  0
   18.1086    0.5908   -3.5243 C   0  0  0  0  0  0  0  0  0  0  0  0
   19.1889    1.4676   -3.6538 C   0  0  0  0  0  0  0  0  0  0  0  0
   19.1119    2.7409   -3.1041 C   0  0  0  0  0  0  0  0  0  0  0  0
   20.1776    3.5501   -3.1981 F   0  0  0  0  0  0  0  0  0  0  0  0
   17.9486    3.1613   -2.4650 C   0  0  0  0  0  0  0  0  0  0  0  0
   17.8488    4.7401   -1.7820 Cl  0  0  0  0  0  0  0  0  0  0  0  0
   16.8587    2.2924   -2.3530 C   0  0  0  0  0  0  0  0  0  0  0  0
   12.2620   -1.9269   -1.8804 C   0  0  0  0  0  0  0  0  0  0  0  0
   11.3412   -0.9264   -1.6835 N   0  0  0  0  0  0  0  0  0  0  0  0
   10.0058   -1.0891   -1.4004 N   0  0  0  0  0  0  0  0  0  0  0  0
    4.6712   -1.1931   -0.3431 C   0  0  0  0  0  0  0  0  0  0  0  0
    3.2870   -1.1477   -0.1338 C   0  0  0  0  0  0  0  0  0  0  0  0
    0.7701    0.9543   -0.0848 H   0  0  0  0  0  0  0  0  0  0  0  0
    0.7357   -0.7284   -0.0695 H   0  0  0  0  0  0  0  0  0  0  0  0
    2.8574    2.2125   -0.0350 H   0  0  0  0  0  0  0  0  0  0  0  0
    5.2859    2.1499   -0.4231 H   0  0  0  0  0  0  0  0  0  0  0  0
    9.3649    2.2752   -1.3069 H   0  0  0  0  0  0  0  0  0  0  0  0
   11.8131    2.4105   -1.8255 H   0  0  0  0  0  0  0  0  0  0  0  0
   14.7069   -2.8806   -2.4342 H   0  0  0  0  0  0  0  0  0  0  0  0
   15.0102    0.5145   -2.2328 H   0  0  0  0  0  0  0  0  0  0  0  0
   18.1914   -0.3962   -3.9712 H   0  0  0  0  0  0  0  0  0  0  0  0
   20.0914    1.1545   -4.1692 H   0  0  0  0  0  0  0  0  0  0  0  0
   15.9597    2.6276   -1.8425 H   0  0  0  0  0  0  0  0  0  0  0  0
   11.9803   -2.9674   -1.8317 H   0  0  0  0  0  0  0  0  0  0  0  0
    5.1722   -2.1562   -0.3917 H   0  0  0  0  0  0  0  0  0  0  0  0
    2.7451   -2.0806   -0.0050 H   0  0  0  0  0  0  0  0  0  0  0  0
  1  2  1  0  0  0  0
  1 31  1  0  0  0  0
  1 32  1  0  0  0  0
  2  3  1  0  0  0  0
  2 30  2  0  0  0  0
  3  4  2  0  0  0  0
  3 33  1  0  0  0  0
  4  5  1  0  0  0  0
  4 34  1  0  0  0  0
  5  6  1  0  0  0  0
  5 29  2  0  0  0  0
  6  7  3  0  0  0  0
  7  8  1  0  0  0  0
  8  9  1  0  0  0  0
  8 28  2  0  0  0  0
  9 10  2  0  0  0  0
  9 35  1  0  0  0  0
 10 11  1  0  0  0  0
 10 36  1  0  0  0  0
 11 12  2  0  0  0  0
 11 27  1  0  0  0  0
 12 13  1  0  0  0  0
 13 14  1  0  0  0  0
 13 26  2  0  0  0  0
 14 15  1  0  0  0  0
 14 37  1  0  0  0  0
 15 16  2  0  0  0  0
 15 17  1  0  0  0  0
 17 18  1  0  0  0  0
 17 38  1  0  0  0  0
 18 19  1  0  0  0  0
 18 25  2  0  0  0  0
 19 20  2  0  0  0  0
 19 39  1  0  0  0  0
 20 21  1  0  0  0  0
 20 40  1  0  0  0  0
 21 22  1  0  0  0  0
 21 23  2  0  0  0  0
 23 24  1  0  0  0  0
 23 25  1  0  0  0  0
 25 41  1  0  0  0  0
 26 27  1  0  0  0  0
 26 42  1  0  0  0  0
 27 28  1  0  0  0  0
 29 30  1  0  0  0  0
 29 43  1  0  0  0  0
 30 44  1  0  0  0  0
M  END
$$$$
