CHEMBL452914
 OpenBabel04072215383D

 37 40  0  0  0  0  0  0  0  0999 V2000
    2.7882   -0.7715   -0.9868 C   0  0  0  0  0  0  0  0  0  0  0  0
    2.2278    0.1177   -0.0280 O   0  0  0  0  0  0  0  0  0  0  0  0
    3.1065    0.8488    0.7225 C   0  0  0  0  0  0  0  0  0  0  0  0
    4.4980    0.7812    0.6511 C   0  0  0  0  0  0  0  0  0  0  0  0
    5.2860    1.5993    1.4687 C   0  0  0  0  0  0  0  0  0  0  0  0
    4.6882    2.4904    2.3662 C   0  0  0  0  0  0  0  0  0  0  0  0
    5.5142    3.3472    3.2201 C   0  0  0  0  0  0  0  0  0  0  0  0
    5.9586    2.8609    4.5626 C   0  0  0  0  0  0  0  0  0  0  0  0
    6.6958    3.5026    5.4174 N   0  0  0  0  0  0  0  0  0  0  0  0
    7.0932    4.7549    5.0412 C   0  0  0  0  0  0  0  0  0  0  0  0
    7.8671    5.7123    5.6677 C   0  0  0  0  0  0  0  0  0  0  0  0
    8.5326    5.6485    6.9706 C   0  0  0  0  0  0  0  0  0  0  0  0
    9.3007    6.7237    7.5126 C   0  0  0  0  0  0  0  0  0  0  0  0
    9.8241    6.4192    8.7506 C   0  0  0  0  0  0  0  0  0  0  0  0
    9.3979    4.8446    9.2602 S   0  0  0  0  0  0  0  0  0  0  0  0
    8.5116    4.5645    7.8244 C   0  0  0  0  0  0  0  0  0  0  0  0
    7.8854    6.8051    4.7817 C   0  0  0  0  0  0  0  0  0  0  0  0
    7.1895    6.5851    3.6653 N   0  0  0  0  0  0  0  0  0  0  0  0
    6.7255    5.3067    3.8084 N   0  0  0  0  0  0  0  0  0  0  0  0
    5.9327    4.5852    2.8756 C   0  0  0  0  0  0  0  0  0  0  0  0
    5.6399    5.2254    1.6702 N   0  0  0  0  0  0  0  0  0  0  0  0
    3.2938    2.5582    2.4376 C   0  0  0  0  0  0  0  0  0  0  0  0
    2.5112    1.7370    1.6220 C   0  0  0  0  0  0  0  0  0  0  0  0
    1.9652   -1.2087   -1.5601 H   0  0  0  0  0  0  0  0  0  0  0  0
    3.3251   -1.5877   -0.4921 H   0  0  0  0  0  0  0  0  0  0  0  0
    3.4368   -0.2429   -1.6935 H   0  0  0  0  0  0  0  0  0  0  0  0
    5.0037    0.1085   -0.0337 H   0  0  0  0  0  0  0  0  0  0  0  0
    6.3699    1.5395    1.3890 H   0  0  0  0  0  0  0  0  0  0  0  0
    5.6132    1.8484    4.8348 H   0  0  0  0  0  0  0  0  0  0  0  0
    9.4713    7.6788    7.0329 H   0  0  0  0  0  0  0  0  0  0  0  0
   10.4382    7.0468    9.3806 H   0  0  0  0  0  0  0  0  0  0  0  0
    8.0176    3.6128    7.6794 H   0  0  0  0  0  0  0  0  0  0  0  0
    8.3742    7.7635    4.8995 H   0  0  0  0  0  0  0  0  0  0  0  0
    5.7571    6.2394    1.7489 H   0  0  0  0  0  0  0  0  0  0  0  0
    4.7594    4.9432    1.2492 H   0  0  0  0  0  0  0  0  0  0  0  0
    2.8046    3.2491    3.1205 H   0  0  0  0  0  0  0  0  0  0  0  0
    1.4267    1.7932    1.6837 H   0  0  0  0  0  0  0  0  0  0  0  0
  1  2  1  0  0  0  0
  1 24  1  0  0  0  0
  1 25  1  0  0  0  0
  1 26  1  0  0  0  0
  2  3  1  0  0  0  0
  3  4  1  0  0  0  0
  3 23  2  0  0  0  0
  4  5  2  0  0  0  0
  4 27  1  0  0  0  0
  5  6  1  0  0  0  0
  5 28  1  0  0  0  0
  6  7  1  0  0  0  0
  6 22  2  0  0  0  0
  7  8  1  0  0  0  0
  7 20  2  0  0  0  0
  8  9  2  0  0  0  0
  8 29  1  0  0  0  0
  9 10  1  0  0  0  0
 10 11  2  0  0  0  0
 10 19  1  0  0  0  0
 11 12  1  0  0  0  0
 11 17  1  0  0  0  0
 12 13  1  0  0  0  0
 12 16  2  0  0  0  0
 13 14  2  0  0  0  0
 13 30  1  0  0  0  0
 14 15  1  0  0  0  0
 14 31  1  0  0  0  0
 15 16  1  0  0  0  0
 16 32  1  0  0  0  0
 17 18  2  0  0  0  0
 17 33  1  0  0  0  0
 18 19  1  0  0  0  0
 19 20  1  0  0  0  0
 20 21  1  0  0  0  0
 21 34  1  0  0  0  0
 21 35  1  0  0  0  0
 22 23  1  0  0  0  0
 22 36  1  0  0  0  0
 23 37  1  0  0  0  0
M  END
$$$$
