CHEMBL1241580
 OpenBabel04072215363D

 36 39  0  0  0  0  0  0  0  0999 V2000
    1.1204    0.3628   -0.0242 N   0  0  0  0  0  0  0  0  0  0  0  0
    2.4988    0.1721   -0.0162 C   0  0  0  0  0  0  0  0  0  0  0  0
    3.2385    1.2947   -0.0113 N   0  0  0  0  0  0  0  0  0  0  0  0
    4.5830    1.1820   -0.0039 C   0  0  0  0  0  0  0  0  0  0  0  0
    5.3145    0.0594    0.0074 N   0  0  0  0  0  0  0  0  0  0  0  0
    4.5376   -1.0412   -0.0092 C   0  0  0  0  0  0  0  0  0  0  0  0
    3.1513   -1.0747   -0.0330 C   0  0  0  0  0  0  0  0  0  0  0  0
    2.8182   -2.4651   -0.0950 C   0  0  0  0  0  0  0  0  0  0  0  0
    1.5063   -3.1088   -0.2128 C   0  0  0  0  0  0  0  0  0  0  0  0
    0.4638   -2.5011   -0.9273 C   0  0  0  0  0  0  0  0  0  0  0  0
   -0.7977   -3.0929   -1.0098 C   0  0  0  0  0  0  0  0  0  0  0  0
   -1.0026   -4.3476   -0.4501 C   0  0  0  0  0  0  0  0  0  0  0  0
   -2.5420   -5.1040   -0.6139 Cl  0  0  0  0  0  0  0  0  0  0  0  0
    0.0442   -4.9937    0.2104 C   0  0  0  0  0  0  0  0  0  0  0  0
   -0.1014   -6.2496    0.7324 O   0  0  0  0  0  0  0  0  0  0  0  0
    1.2824   -4.3753    0.3477 C   0  0  0  0  0  0  0  0  0  0  0  0
    3.9228   -3.2291   -0.0616 N   0  0  0  0  0  0  0  0  0  0  0  0
    4.9484   -2.3533   -0.0387 N   0  0  0  0  0  0  0  0  0  0  0  0
    6.3312   -2.7684   -0.0953 C   0  0  0  0  0  0  0  0  0  0  0  0
    6.6252   -3.6292   -1.3663 C   0  0  0  0  0  0  0  0  0  0  0  0
    7.4948   -4.5391   -0.4793 C   0  0  0  0  0  0  0  0  0  0  0  0
    6.6365   -4.0702    0.7103 C   0  0  0  0  0  0  0  0  0  0  0  0
    0.8802    1.3298    0.1511 H   0  0  0  0  0  0  0  0  0  0  0  0
    0.5732   -0.3251    0.4748 H   0  0  0  0  0  0  0  0  0  0  0  0
    5.1327    2.1193   -0.0062 H   0  0  0  0  0  0  0  0  0  0  0  0
    0.6232   -1.5640   -1.4543 H   0  0  0  0  0  0  0  0  0  0  0  0
   -1.5973   -2.5757   -1.5328 H   0  0  0  0  0  0  0  0  0  0  0  0
   -0.9900   -6.5642    0.4822 H   0  0  0  0  0  0  0  0  0  0  0  0
    2.0809   -4.8948    0.8778 H   0  0  0  0  0  0  0  0  0  0  0  0
    7.0620   -1.9631    0.0445 H   0  0  0  0  0  0  0  0  0  0  0  0
    7.1658   -3.1151   -2.1656 H   0  0  0  0  0  0  0  0  0  0  0  0
    5.7672   -4.1498   -1.8084 H   0  0  0  0  0  0  0  0  0  0  0  0
    8.5418   -4.2334   -0.4204 H   0  0  0  0  0  0  0  0  0  0  0  0
    7.4456   -5.6077   -0.7077 H   0  0  0  0  0  0  0  0  0  0  0  0
    7.1875   -3.9272    1.6433 H   0  0  0  0  0  0  0  0  0  0  0  0
    5.7881   -4.7360    0.9115 H   0  0  0  0  0  0  0  0  0  0  0  0
  1  2  1  0  0  0  0
  1 23  1  0  0  0  0
  1 24  1  0  0  0  0
  2  3  1  0  0  0  0
  2  7  2  0  0  0  0
  3  4  2  0  0  0  0
  4  5  1  0  0  0  0
  4 25  1  0  0  0  0
  5  6  2  0  0  0  0
  6  7  1  0  0  0  0
  6 18  1  0  0  0  0
  7  8  1  0  0  0  0
  8  9  1  0  0  0  0
  8 17  2  0  0  0  0
  9 10  1  0  0  0  0
  9 16  2  0  0  0  0
 10 11  2  0  0  0  0
 10 26  1  0  0  0  0
 11 12  1  0  0  0  0
 11 27  1  0  0  0  0
 12 13  1  0  0  0  0
 12 14  2  0  0  0  0
 14 15  1  0  0  0  0
 14 16  1  0  0  0  0
 15 28  1  0  0  0  0
 16 29  1  0  0  0  0
 17 18  1  0  0  0  0
 18 19  1  0  0  0  0
 19 20  1  0  0  0  0
 19 22  1  0  0  0  0
 19 30  1  0  0  0  0
 20 21  1  0  0  0  0
 20 31  1  0  0  0  0
 20 32  1  0  0  0  0
 21 22  1  0  0  0  0
 21 33  1  0  0  0  0
 21 34  1  0  0  0  0
 22 35  1  0  0  0  0
 22 36  1  0  0  0  0
M  END
$$$$
