CHEMBL4471650
 OpenBabel04072215383D

 50 52  0  0  0  0  0  0  0  0999 V2000
    6.8699   -8.7131    5.8372 C   0  0  0  0  0  0  0  0  0  0  0  0
    8.2985   -8.2338    5.6476 C   0  0  0  0  0  0  0  0  0  0  0  0
    8.3987   -7.6862    4.3275 O   0  0  0  0  0  0  0  0  0  0  0  0
    8.6589   -8.5812    3.3443 C   0  0  0  0  0  0  0  0  0  0  0  0
    9.1201   -9.7023    3.4864 O   0  0  0  0  0  0  0  0  0  0  0  0
    8.1373   -8.0553    2.0568 C   0  0  0  0  0  0  0  0  0  0  0  0
    8.2066   -8.8788    0.9298 C   0  0  0  0  0  0  0  0  0  0  0  0
    7.6292   -8.4668   -0.2721 C   0  0  0  0  0  0  0  0  0  0  0  0
    6.9555   -7.2409   -0.3626 C   0  0  0  0  0  0  0  0  0  0  0  0
    6.4203   -6.7670   -1.5852 N   0  0  0  0  0  0  0  0  0  0  0  0
    5.7972   -7.6009   -2.5467 C   0  0  0  0  0  0  0  0  0  0  0  0
    5.7617   -7.1946   -3.8655 C   0  0  0  0  0  0  0  0  0  0  0  0
    5.0970   -8.0188   -4.7420 C   0  0  0  0  0  0  0  0  0  0  0  0
    4.4750   -9.1468   -4.3689 N   0  0  0  0  0  0  0  0  0  0  0  0
    4.5098   -9.4339   -3.0612 C   0  0  0  0  0  0  0  0  0  0  0  0
    3.6513  -10.8918   -2.5273 S   0  0  0  0  0  0  0  0  0  0  0  0
    3.2914  -10.4108   -0.8071 C   0  0  0  0  0  0  0  0  0  0  0  0
    2.4200   -9.1654   -0.7229 C   0  0  0  0  0  0  0  0  0  0  0  0
    1.5762   -8.8796   -1.5720 O   0  0  0  0  0  0  0  0  0  0  0  0
    2.4960   -8.3076    0.5012 C   0  0  0  0  0  0  0  0  0  0  0  0
    3.6344   -8.2189    1.3038 C   0  0  0  0  0  0  0  0  0  0  0  0
    3.6346   -7.4068    2.4427 C   0  0  0  0  0  0  0  0  0  0  0  0
    2.4985   -6.6637    2.7993 C   0  0  0  0  0  0  0  0  0  0  0  0
    2.4892   -5.7887    4.0303 C   0  0  0  0  0  0  0  0  0  0  0  0
    3.6622   -5.8156    4.7236 F   0  0  0  0  0  0  0  0  0  0  0  0
    2.2598   -4.4787    3.7388 F   0  0  0  0  0  0  0  0  0  0  0  0
    1.5234   -6.1506    4.9190 F   0  0  0  0  0  0  0  0  0  0  0  0
    1.3612   -6.7424    1.9839 C   0  0  0  0  0  0  0  0  0  0  0  0
    1.3609   -7.5532    0.8448 C   0  0  0  0  0  0  0  0  0  0  0  0
    5.1657   -8.7154   -2.1373 N   0  0  0  0  0  0  0  0  0  0  0  0
    6.9324   -6.3997    0.7534 C   0  0  0  0  0  0  0  0  0  0  0  0
    7.5038   -6.8070    1.9597 C   0  0  0  0  0  0  0  0  0  0  0  0
    6.7127   -9.1034    6.8432 H   0  0  0  0  0  0  0  0  0  0  0  0
    6.6230   -9.4942    5.1096 H   0  0  0  0  0  0  0  0  0  0  0  0
    6.1669   -7.8906    5.6570 H   0  0  0  0  0  0  0  0  0  0  0  0
    9.0237   -9.0366    5.8166 H   0  0  0  0  0  0  0  0  0  0  0  0
    8.5215   -7.4286    6.3545 H   0  0  0  0  0  0  0  0  0  0  0  0
    8.6952   -9.8508    0.9843 H   0  0  0  0  0  0  0  0  0  0  0  0
    7.6979   -9.1235   -1.1367 H   0  0  0  0  0  0  0  0  0  0  0  0
    7.1211   -6.1789   -2.0279 H   0  0  0  0  0  0  0  0  0  0  0  0
    6.2408   -6.2884   -4.2087 H   0  0  0  0  0  0  0  0  0  0  0  0
    5.0385   -7.7847   -5.8009 H   0  0  0  0  0  0  0  0  0  0  0  0
    4.2395  -10.3066   -0.2810 H   0  0  0  0  0  0  0  0  0  0  0  0
    2.7369  -11.2292   -0.3368 H   0  0  0  0  0  0  0  0  0  0  0  0
    4.5532   -8.7447    1.0524 H   0  0  0  0  0  0  0  0  0  0  0  0
    4.5368   -7.3491    3.0510 H   0  0  0  0  0  0  0  0  0  0  0  0
    0.4674   -6.1708    2.2304 H   0  0  0  0  0  0  0  0  0  0  0  0
    0.4669   -7.5978    0.2245 H   0  0  0  0  0  0  0  0  0  0  0  0
    6.4278   -5.4379    0.6998 H   0  0  0  0  0  0  0  0  0  0  0  0
    7.4258   -6.1505    2.8233 H   0  0  0  0  0  0  0  0  0  0  0  0
  1  2  1  0  0  0  0
  1 33  1  0  0  0  0
  1 34  1  0  0  0  0
  1 35  1  0  0  0  0
  2  3  1  0  0  0  0
  2 36  1  0  0  0  0
  2 37  1  0  0  0  0
  3  4  1  0  0  0  0
  4  5  2  0  0  0  0
  4  6  1  0  0  0  0
  6  7  1  0  0  0  0
  6 32  2  0  0  0  0
  7  8  2  0  0  0  0
  7 38  1  0  0  0  0
  8  9  1  0  0  0  0
  8 39  1  0  0  0  0
  9 10  1  0  0  0  0
  9 31  2  0  0  0  0
 10 11  1  0  0  0  0
 10 40  1  0  0  0  0
 11 12  1  0  0  0  0
 11 30  2  0  0  0  0
 12 13  2  0  0  0  0
 12 41  1  0  0  0  0
 13 14  1  0  0  0  0
 13 42  1  0  0  0  0
 14 15  2  0  0  0  0
 15 16  1  0  0  0  0
 15 30  1  0  0  0  0
 16 17  1  0  0  0  0
 17 18  1  0  0  0  0
 17 43  1  0  0  0  0
 17 44  1  0  0  0  0
 18 19  2  0  0  0  0
 18 20  1  0  0  0  0
 20 21  1  0  0  0  0
 20 29  2  0  0  0  0
 21 22  2  0  0  0  0
 21 45  1  0  0  0  0
 22 23  1  0  0  0  0
 22 46  1  0  0  0  0
 23 24  1  0  0  0  0
 23 28  2  0  0  0  0
 24 25  1  0  0  0  0
 24 26  1  0  0  0  0
 24 27  1  0  0  0  0
 28 29  1  0  0  0  0
 28 47  1  0  0  0  0
 29 48  1  0  0  0  0
 31 32  1  0  0  0  0
 31 49  1  0  0  0  0
 32 50  1  0  0  0  0
M  END
$$$$
