CHEMBL3690500
 OpenBabel04072215373D

 64 67  0  0  0  0  0  0  0  0999 V2000
    6.8787   -3.4496   -0.8386 C   0  0  0  0  0  0  0  0  0  0  0  0
    7.8431   -2.3483   -0.8351 N   0  0  0  0  0  0  0  0  0  0  0  0
    8.6960   -2.4341   -2.0238 C   0  0  0  0  0  0  0  0  0  0  0  0
    7.1853   -1.0311   -0.7751 C   0  0  0  0  0  0  0  0  0  0  0  0
    6.3791   -0.7826    0.5055 C   0  0  0  0  0  0  0  0  0  0  0  0
    7.2380   -0.8767    1.7623 C   0  0  0  0  0  0  0  0  0  0  0  0
    6.3872   -0.7059    2.9035 O   0  0  0  0  0  0  0  0  0  0  0  0
    7.0980   -0.7901    4.0841 C   0  0  0  0  0  0  0  0  0  0  0  0
    6.3939   -1.1747    5.2131 C   0  0  0  0  0  0  0  0  0  0  0  0
    7.0912   -1.3078    6.4115 C   0  0  0  0  0  0  0  0  0  0  0  0
    8.4601   -1.0360    6.4420 C   0  0  0  0  0  0  0  0  0  0  0  0
    9.2529   -1.3235    7.6421 C   0  0  0  0  0  0  0  0  0  0  0  0
    9.8183   -2.6568    7.8450 C   0  0  0  0  0  0  0  0  0  0  0  0
   10.5263   -2.9175    8.9504 C   0  0  0  0  0  0  0  0  0  0  0  0
   10.7508   -1.9035    9.8830 N   0  0  0  0  0  0  0  0  0  0  0  0
   11.5067   -1.8947   11.0476 C   0  0  0  0  0  0  0  0  0  0  0  0
   12.3626   -2.9761   11.5531 C   0  0  0  0  0  0  0  0  0  0  0  0
   12.4544   -3.1927   12.9327 C   0  0  0  0  0  0  0  0  0  0  0  0
   13.3014   -4.1747   13.4422 C   0  0  0  0  0  0  0  0  0  0  0  0
   14.0247   -4.9901   12.5753 C   0  0  0  0  0  0  0  0  0  0  0  0
   13.9121   -4.8406   11.1948 C   0  0  0  0  0  0  0  0  0  0  0  0
   14.5489   -5.7092   10.2755 N   0  0  0  0  0  0  0  0  0  0  0  0
   15.0679   -6.9460   10.5805 C   0  0  0  0  0  0  0  0  0  0  0  0
   15.0302   -7.5147   11.6632 O   0  0  0  0  0  0  0  0  0  0  0  0
   15.7112   -7.5326    9.5118 N   0  0  0  0  0  0  0  0  0  0  0  0
   16.2777   -8.8747    9.6951 C   0  0  0  0  0  0  0  0  0  0  0  0
   15.2841  -10.0439    9.6127 C   0  0  0  0  0  0  0  0  0  0  0  0
   14.0634   -9.6435    9.1879 F   0  0  0  0  0  0  0  0  0  0  0  0
   15.7281  -10.9592    8.7143 F   0  0  0  0  0  0  0  0  0  0  0  0
   15.1340  -10.6804   10.7917 F   0  0  0  0  0  0  0  0  0  0  0  0
   13.1310   -3.7866   10.6940 C   0  0  0  0  0  0  0  0  0  0  0  0
   11.2495   -0.6459   11.5971 C   0  0  0  0  0  0  0  0  0  0  0  0
   10.4565    0.1245   10.7898 N   0  0  0  0  0  0  0  0  0  0  0  0
   10.1884   -0.6324    9.7511 C   0  0  0  0  0  0  0  0  0  0  0  0
    9.4267   -0.3596    8.5743 C   0  0  0  0  0  0  0  0  0  0  0  0
    9.0661   -0.6198    5.2620 C   0  0  0  0  0  0  0  0  0  0  0  0
    8.4149   -0.4887    4.0858 N   0  0  0  0  0  0  0  0  0  0  0  0
    7.3978   -4.4132   -0.8936 H   0  0  0  0  0  0  0  0  0  0  0  0
    6.1806   -3.3844   -1.6804 H   0  0  0  0  0  0  0  0  0  0  0  0
    6.3031   -3.4769    0.0919 H   0  0  0  0  0  0  0  0  0  0  0  0
    9.1987   -3.4071   -2.0695 H   0  0  0  0  0  0  0  0  0  0  0  0
    9.4872   -1.6772   -1.9866 H   0  0  0  0  0  0  0  0  0  0  0  0
    8.1275   -2.2975   -2.9509 H   0  0  0  0  0  0  0  0  0  0  0  0
    6.5267   -0.8912   -1.6421 H   0  0  0  0  0  0  0  0  0  0  0  0
    7.9536   -0.2485   -0.8356 H   0  0  0  0  0  0  0  0  0  0  0  0
    5.5248   -1.4656    0.5776 H   0  0  0  0  0  0  0  0  0  0  0  0
    5.9344    0.2200    0.4582 H   0  0  0  0  0  0  0  0  0  0  0  0
    7.9990   -0.0876    1.7245 H   0  0  0  0  0  0  0  0  0  0  0  0
    7.7236   -1.8586    1.8213 H   0  0  0  0  0  0  0  0  0  0  0  0
    5.3361   -1.4036    5.1545 H   0  0  0  0  0  0  0  0  0  0  0  0
    6.5748   -1.6529    7.3032 H   0  0  0  0  0  0  0  0  0  0  0  0
    9.6399   -3.4209    7.0939 H   0  0  0  0  0  0  0  0  0  0  0  0
   10.9287   -3.9007    9.1508 H   0  0  0  0  0  0  0  0  0  0  0  0
   11.8735   -2.5961   13.6328 H   0  0  0  0  0  0  0  0  0  0  0  0
   13.3943   -4.3172   14.5143 H   0  0  0  0  0  0  0  0  0  0  0  0
   14.6853   -5.7333   13.0132 H   0  0  0  0  0  0  0  0  0  0  0  0
   14.4865   -5.4681    9.2975 H   0  0  0  0  0  0  0  0  0  0  0  0
   15.4021   -7.2825    8.5833 H   0  0  0  0  0  0  0  0  0  0  0  0
   16.7848   -8.9075   10.6685 H   0  0  0  0  0  0  0  0  0  0  0  0
   17.0488   -8.9884    8.9277 H   0  0  0  0  0  0  0  0  0  0  0  0
   13.1135   -3.6071    9.6247 H   0  0  0  0  0  0  0  0  0  0  0  0
   11.6293   -0.2515   12.5318 H   0  0  0  0  0  0  0  0  0  0  0  0
    9.0057    0.6345    8.4684 H   0  0  0  0  0  0  0  0  0  0  0  0
   10.1302   -0.4014    5.2173 H   0  0  0  0  0  0  0  0  0  0  0  0
  1  2  1  0  0  0  0
  1 38  1  0  0  0  0
  1 39  1  0  0  0  0
  1 40  1  0  0  0  0
  2  3  1  0  0  0  0
  2  4  1  0  0  0  0
  3 41  1  0  0  0  0
  3 42  1  0  0  0  0
  3 43  1  0  0  0  0
  4  5  1  0  0  0  0
  4 44  1  0  0  0  0
  4 45  1  0  0  0  0
  5  6  1  0  0  0  0
  5 46  1  0  0  0  0
  5 47  1  0  0  0  0
  6  7  1  0  0  0  0
  6 48  1  0  0  0  0
  6 49  1  0  0  0  0
  7  8  1  0  0  0  0
  8  9  1  0  0  0  0
  8 37  2  0  0  0  0
  9 10  2  0  0  0  0
  9 50  1  0  0  0  0
 10 11  1  0  0  0  0
 10 51  1  0  0  0  0
 11 12  1  0  0  0  0
 11 36  2  0  0  0  0
 12 13  1  0  0  0  0
 12 35  2  0  0  0  0
 13 14  2  0  0  0  0
 13 52  1  0  0  0  0
 14 15  1  0  0  0  0
 14 53  1  0  0  0  0
 15 16  1  0  0  0  0
 15 34  1  0  0  0  0
 16 17  1  0  0  0  0
 16 32  2  0  0  0  0
 17 18  1  0  0  0  0
 17 31  2  0  0  0  0
 18 19  2  0  0  0  0
 18 54  1  0  0  0  0
 19 20  1  0  0  0  0
 19 55  1  0  0  0  0
 20 21  2  0  0  0  0
 20 56  1  0  0  0  0
 21 22  1  0  0  0  0
 21 31  1  0  0  0  0
 22 23  1  0  0  0  0
 22 57  1  0  0  0  0
 23 24  2  0  0  0  0
 23 25  1  0  0  0  0
 25 26  1  0  0  0  0
 25 58  1  0  0  0  0
 26 27  1  0  0  0  0
 26 59  1  0  0  0  0
 26 60  1  0  0  0  0
 27 28  1  0  0  0  0
 27 29  1  0  0  0  0
 27 30  1  0  0  0  0
 31 61  1  0  0  0  0
 32 33  1  0  0  0  0
 32 62  1  0  0  0  0
 33 34  2  0  0  0  0
 34 35  1  0  0  0  0
 35 63  1  0  0  0  0
 36 37  1  0  0  0  0
 36 64  1  0  0  0  0
M  END
$$$$
