CHEMBL3921390
 OpenBabel04072215373D

 55 58  0  0  1  0  0  0  0  0999 V2000
    2.9688    1.2790   -0.3172 C   0  0  0  0  0  0  0  0  0  0  0  0
    2.4661   -0.0543   -0.4620 O   0  0  0  0  0  0  0  0  0  0  0  0
    3.1583   -1.0993    0.0871 C   0  0  0  0  0  0  0  0  0  0  0  0
    4.2707   -0.9391    0.9146 C   0  0  0  0  0  0  0  0  0  0  0  0
    4.9939   -2.0479    1.4167 C   0  0  0  0  0  0  0  0  0  0  0  0
    6.0861   -1.9479    2.2871 C   0  0  0  0  0  0  0  0  0  0  0  0
    6.3756   -0.6809    2.8508 N   0  0  0  0  0  0  0  0  0  0  0  0
    7.6276   -0.1317    3.1821 C   0  0  0  0  0  0  0  0  0  0  0  0
    8.7598   -0.5051    2.4516 C   0  0  0  0  0  0  0  0  0  0  0  0
    9.9793    0.1444    2.6202 C   0  0  0  0  0  0  0  0  0  0  0  0
   10.0876    1.1822    3.5411 C   0  0  0  0  0  0  0  0  0  0  0  0
   11.6152    1.9933    3.6298 Cl  0  0  0  0  0  0  0  0  0  0  0  0
    8.9855    1.5501    4.3291 C   0  0  0  0  0  0  0  0  0  0  0  0
    9.1645    2.8193    5.5048 Cl  0  0  0  0  0  0  0  0  0  0  0  0
    7.7378    0.9014    4.1592 C   0  0  0  0  0  0  0  0  0  0  0  0
    6.5254    1.2746    4.9799 C   0  0  0  0  0  0  0  0  0  0  0  0
    6.8136   -3.0153    2.6591 N   0  0  0  0  0  0  0  0  0  0  0  0
    6.4027   -4.1994    2.1939 C   0  0  0  0  0  0  0  0  0  0  0  0
    5.3451   -4.4137    1.4044 N   0  0  0  0  0  0  0  0  0  0  0  0
    4.6510   -3.3367    1.0222 C   0  0  0  0  0  0  0  0  0  0  0  0
    3.5293   -3.4943    0.2318 C   0  0  0  0  0  0  0  0  0  0  0  0
    2.7265   -2.4108   -0.1820 C   0  0  0  0  0  0  0  0  0  0  0  0
    1.5156   -2.6123   -0.8280 O   0  0  0  0  0  0  0  0  0  0  0  0
    0.9420   -3.9116   -0.5674 C   0  0  0  0  0  0  0  0  0  0  0  0
   -0.5655   -4.0190   -0.8479 C   0  0  3  0  0  0  0  0  0  0  0  0
   -1.4039   -3.0044   -0.0539 C   0  0  0  0  0  0  0  0  0  0  0  0
   -1.3391   -3.2873    1.3948 N   0  0  0  0  0  0  0  0  0  0  0  0
   -2.0707   -2.2814    2.1512 C   0  0  0  0  0  0  0  0  0  0  0  0
   -1.8657   -4.6441    1.6316 C   0  0  0  0  0  0  0  0  0  0  0  0
   -1.0888   -5.6883    0.8111 C   0  0  0  0  0  0  0  0  0  0  0  0
   -1.0467   -5.3669   -0.5913 O   0  0  0  0  0  0  0  0  0  0  0  0
    2.8351    1.8034   -1.2694 H   0  0  0  0  0  0  0  0  0  0  0  0
    4.0319    1.3672   -0.0855 H   0  0  0  0  0  0  0  0  0  0  0  0
    2.3853    1.8018    0.4469 H   0  0  0  0  0  0  0  0  0  0  0  0
    4.6318    0.0427    1.1913 H   0  0  0  0  0  0  0  0  0  0  0  0
    5.5940   -0.3755    3.4158 H   0  0  0  0  0  0  0  0  0  0  0  0
    8.6933   -1.2896    1.7017 H   0  0  0  0  0  0  0  0  0  0  0  0
   10.8266   -0.1474    2.0091 H   0  0  0  0  0  0  0  0  0  0  0  0
    6.7184    2.0222    5.7517 H   0  0  0  0  0  0  0  0  0  0  0  0
    6.1427    0.3898    5.5016 H   0  0  0  0  0  0  0  0  0  0  0  0
    5.7419    1.6807    4.3317 H   0  0  0  0  0  0  0  0  0  0  0  0
    6.9711   -5.0716    2.4986 H   0  0  0  0  0  0  0  0  0  0  0  0
    3.2772   -4.5156   -0.0407 H   0  0  0  0  0  0  0  0  0  0  0  0
    1.1119   -4.1844    0.4802 H   0  0  0  0  0  0  0  0  0  0  0  0
    1.4471   -4.6524   -1.2002 H   0  0  0  0  0  0  0  0  0  0  0  0
   -0.7316   -3.8355   -1.9156 H   0  0  0  0  0  0  0  0  0  0  0  0
   -2.4480   -3.0642   -0.3945 H   0  0  0  0  0  0  0  0  0  0  0  0
   -1.0441   -1.9908   -0.2638 H   0  0  0  0  0  0  0  0  0  0  0  0
   -1.6261   -1.2931    1.9881 H   0  0  0  0  0  0  0  0  0  0  0  0
   -2.0002   -2.4837    3.2250 H   0  0  0  0  0  0  0  0  0  0  0  0
   -3.1291   -2.2350    1.8723 H   0  0  0  0  0  0  0  0  0  0  0  0
   -2.9274   -4.6931    1.3571 H   0  0  0  0  0  0  0  0  0  0  0  0
   -1.7837   -4.8995    2.6951 H   0  0  0  0  0  0  0  0  0  0  0  0
   -1.5750   -6.6652    0.9103 H   0  0  0  0  0  0  0  0  0  0  0  0
   -0.0689   -5.8114    1.1929 H   0  0  0  0  0  0  0  0  0  0  0  0
  1  2  1  0  0  0  0
  1 32  1  0  0  0  0
  1 33  1  0  0  0  0
  1 34  1  0  0  0  0
  2  3  1  0  0  0  0
  3  4  1  0  0  0  0
  3 22  2  0  0  0  0
  4  5  2  0  0  0  0
  4 35  1  0  0  0  0
  5  6  1  0  0  0  0
  5 20  1  0  0  0  0
  6  7  1  0  0  0  0
  6 17  2  0  0  0  0
  7  8  1  0  0  0  0
  7 36  1  0  0  0  0
  8  9  1  0  0  0  0
  8 15  2  0  0  0  0
  9 10  2  0  0  0  0
  9 37  1  0  0  0  0
 10 11  1  0  0  0  0
 10 38  1  0  0  0  0
 11 12  1  0  0  0  0
 11 13  2  0  0  0  0
 13 14  1  0  0  0  0
 13 15  1  0  0  0  0
 15 16  1  0  0  0  0
 16 39  1  0  0  0  0
 16 40  1  0  0  0  0
 16 41  1  0  0  0  0
 17 18  1  0  0  0  0
 18 19  2  0  0  0  0
 18 42  1  0  0  0  0
 19 20  1  0  0  0  0
 20 21  2  0  0  0  0
 21 22  1  0  0  0  0
 21 43  1  0  0  0  0
 22 23  1  0  0  0  0
 23 24  1  0  0  0  0
 24 25  1  0  0  0  0
 24 44  1  0  0  0  0
 24 45  1  0  0  0  0
 25 26  1  0  0  0  0
 25 31  1  0  0  0  0
 25 46  1  0  0  0  0
 26 27  1  0  0  0  0
 26 47  1  0  0  0  0
 26 48  1  0  0  0  0
 27 28  1  0  0  0  0
 27 29  1  0  0  0  0
 28 49  1  0  0  0  0
 28 50  1  0  0  0  0
 28 51  1  0  0  0  0
 29 30  1  0  0  0  0
 29 52  1  0  0  0  0
 29 53  1  0  0  0  0
 30 31  1  0  0  0  0
 30 54  1  0  0  0  0
 30 55  1  0  0  0  0
M  END
$$$$
