CHEMBL3690567
 OpenBabel04072215373D

 54 57  0  0  0  0  0  0  0  0999 V2000
    6.7916    1.2562    1.4294 C   0  0  0  0  0  0  0  0  0  0  0  0
    6.5103    0.1143    2.2906 N   0  0  0  0  0  0  0  0  0  0  0  0
    5.1708   -0.3149    2.2511 C   0  0  0  0  0  0  0  0  0  0  0  0
    4.8007   -1.3869    3.0330 C   0  0  0  0  0  0  0  0  0  0  0  0
    3.4803   -1.7750    2.9566 C   0  0  0  0  0  0  0  0  0  0  0  0
    2.9751   -2.9078    3.7524 C   0  0  0  0  0  0  0  0  0  0  0  0
    2.9167   -4.2714    3.2250 C   0  0  0  0  0  0  0  0  0  0  0  0
    2.3769   -5.2534    3.9675 C   0  0  0  0  0  0  0  0  0  0  0  0
    1.8578   -4.9627    5.2327 N   0  0  0  0  0  0  0  0  0  0  0  0
    1.1944   -5.7583    6.1634 C   0  0  0  0  0  0  0  0  0  0  0  0
    0.8267   -7.1819    6.0589 C   0  0  0  0  0  0  0  0  0  0  0  0
    0.8183   -7.9506    7.2339 C   0  0  0  0  0  0  0  0  0  0  0  0
    0.4541   -9.2923    7.2096 C   0  0  0  0  0  0  0  0  0  0  0  0
    0.0803   -9.8909    6.0101 C   0  0  0  0  0  0  0  0  0  0  0  0
    0.0379   -9.1530    4.8233 C   0  0  0  0  0  0  0  0  0  0  0  0
   -0.3842   -9.7140    3.5892 N   0  0  0  0  0  0  0  0  0  0  0  0
   -0.8773  -10.9825    3.4051 C   0  0  0  0  0  0  0  0  0  0  0  0
   -1.0614  -11.8377    4.2637 O   0  0  0  0  0  0  0  0  0  0  0  0
   -1.1339  -11.2755    2.0810 N   0  0  0  0  0  0  0  0  0  0  0  0
   -1.6878  -12.6021    1.7698 C   0  0  0  0  0  0  0  0  0  0  0  0
   -3.1952  -12.7821    2.0112 C   0  0  0  0  0  0  0  0  0  0  0  0
   -3.8038  -11.6179    2.3339 F   0  0  0  0  0  0  0  0  0  0  0  0
   -3.7893  -13.2308    0.8759 F   0  0  0  0  0  0  0  0  0  0  0  0
   -3.4601  -13.6811    2.9815 F   0  0  0  0  0  0  0  0  0  0  0  0
    0.4175   -7.7990    4.8602 C   0  0  0  0  0  0  0  0  0  0  0  0
    0.9843   -4.8983    7.2361 C   0  0  0  0  0  0  0  0  0  0  0  0
    1.4570   -3.6394    7.0040 N   0  0  0  0  0  0  0  0  0  0  0  0
    1.9554   -3.6857    5.7913 C   0  0  0  0  0  0  0  0  0  0  0  0
    2.5380   -2.6511    5.0048 C   0  0  0  0  0  0  0  0  0  0  0  0
    2.5739   -1.1704    2.1652 N   0  0  0  0  0  0  0  0  0  0  0  0
    3.0280   -0.1463    1.4343 C   0  0  0  0  0  0  0  0  0  0  0  0
    1.9185    0.7529    0.3765 S   0  0  0  0  0  0  0  0  0  0  0  0
    0.3719   -0.1340    0.6656 C   0  0  0  0  0  0  0  0  0  0  0  0
    4.2941    0.2945    1.4425 N   0  0  0  0  0  0  0  0  0  0  0  0
    7.8268    1.5754    1.5844 H   0  0  0  0  0  0  0  0  0  0  0  0
    6.1462    2.1116    1.6595 H   0  0  0  0  0  0  0  0  0  0  0  0
    6.6844    0.9879    0.3724 H   0  0  0  0  0  0  0  0  0  0  0  0
    6.7782    0.2973    3.2539 H   0  0  0  0  0  0  0  0  0  0  0  0
    5.5139   -1.9017    3.6637 H   0  0  0  0  0  0  0  0  0  0  0  0
    3.3131   -4.4626    2.2326 H   0  0  0  0  0  0  0  0  0  0  0  0
    2.3325   -6.2733    3.6162 H   0  0  0  0  0  0  0  0  0  0  0  0
    1.0928   -7.5153    8.1921 H   0  0  0  0  0  0  0  0  0  0  0  0
    0.4501   -9.8770    8.1264 H   0  0  0  0  0  0  0  0  0  0  0  0
   -0.1747  -10.9432    6.0474 H   0  0  0  0  0  0  0  0  0  0  0  0
   -0.3296   -9.1173    2.7747 H   0  0  0  0  0  0  0  0  0  0  0  0
   -1.4143  -10.5080    1.4884 H   0  0  0  0  0  0  0  0  0  0  0  0
   -1.1458  -13.3513    2.3607 H   0  0  0  0  0  0  0  0  0  0  0  0
   -1.4538  -12.7952    0.7196 H   0  0  0  0  0  0  0  0  0  0  0  0
    0.3533   -7.2122    3.9486 H   0  0  0  0  0  0  0  0  0  0  0  0
    0.4972   -5.1322    8.1752 H   0  0  0  0  0  0  0  0  0  0  0  0
    2.5744   -1.6572    5.4403 H   0  0  0  0  0  0  0  0  0  0  0  0
   -0.4147    0.3362    0.0681 H   0  0  0  0  0  0  0  0  0  0  0  0
    0.0774   -0.0819    1.7173 H   0  0  0  0  0  0  0  0  0  0  0  0
    0.4586   -1.1781    0.3537 H   0  0  0  0  0  0  0  0  0  0  0  0
  1  2  1  0  0  0  0
  1 35  1  0  0  0  0
  1 36  1  0  0  0  0
  1 37  1  0  0  0  0
  2  3  1  0  0  0  0
  2 38  1  0  0  0  0
  3  4  1  0  0  0  0
  3 34  2  0  0  0  0
  4  5  2  0  0  0  0
  4 39  1  0  0  0  0
  5  6  1  0  0  0  0
  5 30  1  0  0  0  0
  6  7  1  0  0  0  0
  6 29  2  0  0  0  0
  7  8  2  0  0  0  0
  7 40  1  0  0  0  0
  8  9  1  0  0  0  0
  8 41  1  0  0  0  0
  9 10  1  0  0  0  0
  9 28  1  0  0  0  0
 10 11  1  0  0  0  0
 10 26  2  0  0  0  0
 11 12  1  0  0  0  0
 11 25  2  0  0  0  0
 12 13  2  0  0  0  0
 12 42  1  0  0  0  0
 13 14  1  0  0  0  0
 13 43  1  0  0  0  0
 14 15  2  0  0  0  0
 14 44  1  0  0  0  0
 15 16  1  0  0  0  0
 15 25  1  0  0  0  0
 16 17  1  0  0  0  0
 16 45  1  0  0  0  0
 17 18  2  0  0  0  0
 17 19  1  0  0  0  0
 19 20  1  0  0  0  0
 19 46  1  0  0  0  0
 20 21  1  0  0  0  0
 20 47  1  0  0  0  0
 20 48  1  0  0  0  0
 21 22  1  0  0  0  0
 21 23  1  0  0  0  0
 21 24  1  0  0  0  0
 25 49  1  0  0  0  0
 26 27  1  0  0  0  0
 26 50  1  0  0  0  0
 27 28  2  0  0  0  0
 28 29  1  0  0  0  0
 29 51  1  0  0  0  0
 30 31  2  0  0  0  0
 31 32  1  0  0  0  0
 31 34  1  0  0  0  0
 32 33  1  0  0  0  0
 33 52  1  0  0  0  0
 33 53  1  0  0  0  0
 33 54  1  0  0  0  0
M  END
$$$$
