CHEMBL3739750
 OpenBabel04072215373D

 57 61  0  0  0  0  0  0  0  0999 V2000
    1.9767   -1.8497   -0.2630 C   0  0  0  0  0  0  0  0  0  0  0  0
    3.1601   -0.9181   -0.3455 C   0  0  0  0  0  0  0  0  0  0  0  0
    3.6054   -0.5846   -1.4453 O   0  0  0  0  0  0  0  0  0  0  0  0
    3.7882   -0.4956    0.9191 C   0  0  0  0  0  0  0  0  0  0  0  0
    3.6817   -1.2443    2.0305 N   0  0  0  0  0  0  0  0  0  0  0  0
    4.3816   -0.5755    2.9807 N   0  0  0  0  0  0  0  0  0  0  0  0
    4.5436   -1.1095    4.2853 C   0  0  0  0  0  0  0  0  0  0  0  0
    3.9978   -2.3640    4.5906 C   0  0  0  0  0  0  0  0  0  0  0  0
    4.1675   -2.9036    5.8649 C   0  0  0  0  0  0  0  0  0  0  0  0
    4.8757   -2.1994    6.8364 C   0  0  0  0  0  0  0  0  0  0  0  0
    5.4188   -0.9512    6.5377 C   0  0  0  0  0  0  0  0  0  0  0  0
    5.2593   -0.4019    5.2657 C   0  0  0  0  0  0  0  0  0  0  0  0
    4.8713    0.6138    2.5035 C   0  0  0  0  0  0  0  0  0  0  0  0
    4.5613    0.6729    1.1634 C   0  0  0  0  0  0  0  0  0  0  0  0
    4.8072    1.7620    0.2433 C   0  0  0  0  0  0  0  0  0  0  0  0
    3.9366    2.0049   -0.5772 O   0  0  0  0  0  0  0  0  0  0  0  0
    6.0377    2.5756    0.3961 C   0  0  0  0  0  0  0  0  0  0  0  0
    7.2933    2.1638    0.8527 C   0  0  0  0  0  0  0  0  0  0  0  0
    7.8511    0.8470    1.2845 C   0  0  0  0  0  0  0  0  0  0  0  0
    8.1204    3.2642    0.8571 N   0  0  0  0  0  0  0  0  0  0  0  0
    7.4805    4.3856    0.3866 C   0  0  0  0  0  0  0  0  0  0  0  0
    8.1618    5.6952    0.3277 C   0  0  0  0  0  0  0  0  0  0  0  0
    7.9088    6.5836   -0.7271 C   0  0  0  0  0  0  0  0  0  0  0  0
    8.3040    7.9206   -0.6519 C   0  0  0  0  0  0  0  0  0  0  0  0
    9.0454    8.3657    0.4376 C   0  0  0  0  0  0  0  0  0  0  0  0
    9.4088    7.4678    1.4389 C   0  0  0  0  0  0  0  0  0  0  0  0
    8.9633    6.1414    1.3899 C   0  0  0  0  0  0  0  0  0  0  0  0
    6.1760    3.9907    0.0647 C   0  0  0  0  0  0  0  0  0  0  0  0
    5.1490    4.9090   -0.4676 C   0  0  0  0  0  0  0  0  0  0  0  0
    4.3355    4.5246   -1.5418 C   0  0  0  0  0  0  0  0  0  0  0  0
    3.3137    5.3488   -2.0177 C   0  0  0  0  0  0  0  0  0  0  0  0
    3.1859    6.6391   -1.5274 C   0  0  0  0  0  0  0  0  0  0  0  0
    4.0396    7.0793   -0.5196 C   0  0  0  0  0  0  0  0  0  0  0  0
    4.9674    6.1994    0.0485 C   0  0  0  0  0  0  0  0  0  0  0  0
    1.4795   -1.8971   -1.2369 H   0  0  0  0  0  0  0  0  0  0  0  0
    1.2523   -1.4802    0.4683 H   0  0  0  0  0  0  0  0  0  0  0  0
    2.3173   -2.8507    0.0120 H   0  0  0  0  0  0  0  0  0  0  0  0
    3.4458   -2.9357    3.8461 H   0  0  0  0  0  0  0  0  0  0  0  0
    3.7459   -3.8789    6.0992 H   0  0  0  0  0  0  0  0  0  0  0  0
    5.0010   -2.6230    7.8285 H   0  0  0  0  0  0  0  0  0  0  0  0
    5.9692   -0.4031    7.2988 H   0  0  0  0  0  0  0  0  0  0  0  0
    5.6981    0.5690    5.0788 H   0  0  0  0  0  0  0  0  0  0  0  0
    5.4052    1.3139    3.1260 H   0  0  0  0  0  0  0  0  0  0  0  0
    7.1815    0.0130    1.0685 H   0  0  0  0  0  0  0  0  0  0  0  0
    8.0522    0.8559    2.3619 H   0  0  0  0  0  0  0  0  0  0  0  0
    8.7929    0.6371    0.7683 H   0  0  0  0  0  0  0  0  0  0  0  0
    9.0887    3.2488    1.1489 H   0  0  0  0  0  0  0  0  0  0  0  0
    7.3155    6.2647   -1.5823 H   0  0  0  0  0  0  0  0  0  0  0  0
    7.9938    8.6159   -1.4278 H   0  0  0  0  0  0  0  0  0  0  0  0
    9.3293    9.4121    0.5090 H   0  0  0  0  0  0  0  0  0  0  0  0
   10.0016    7.8119    2.2829 H   0  0  0  0  0  0  0  0  0  0  0  0
    9.2020    5.4869    2.2234 H   0  0  0  0  0  0  0  0  0  0  0  0
    4.4664    3.5609   -2.0257 H   0  0  0  0  0  0  0  0  0  0  0  0
    2.6350    4.9723   -2.7788 H   0  0  0  0  0  0  0  0  0  0  0  0
    2.4295    7.3024   -1.9356 H   0  0  0  0  0  0  0  0  0  0  0  0
    3.9854    8.1060   -0.1711 H   0  0  0  0  0  0  0  0  0  0  0  0
    5.5869    6.5623    0.8650 H   0  0  0  0  0  0  0  0  0  0  0  0
  1  2  1  0  0  0  0
  1 35  1  0  0  0  0
  1 36  1  0  0  0  0
  1 37  1  0  0  0  0
  2  3  2  0  0  0  0
  2  4  1  0  0  0  0
  4  5  2  0  0  0  0
  4 14  1  0  0  0  0
  5  6  1  0  0  0  0
  6  7  1  0  0  0  0
  6 13  1  0  0  0  0
  7  8  1  0  0  0  0
  7 12  2  0  0  0  0
  8  9  2  0  0  0  0
  8 38  1  0  0  0  0
  9 10  1  0  0  0  0
  9 39  1  0  0  0  0
 10 11  2  0  0  0  0
 10 40  1  0  0  0  0
 11 12  1  0  0  0  0
 11 41  1  0  0  0  0
 12 42  1  0  0  0  0
 13 14  2  0  0  0  0
 13 43  1  0  0  0  0
 14 15  1  0  0  0  0
 15 16  2  0  0  0  0
 15 17  1  0  0  0  0
 17 18  2  0  0  0  0
 17 28  1  0  0  0  0
 18 19  1  0  0  0  0
 18 20  1  0  0  0  0
 19 44  1  0  0  0  0
 19 45  1  0  0  0  0
 19 46  1  0  0  0  0
 20 21  1  0  0  0  0
 20 47  1  0  0  0  0
 21 22  1  0  0  0  0
 21 28  2  0  0  0  0
 22 23  1  0  0  0  0
 22 27  2  0  0  0  0
 23 24  2  0  0  0  0
 23 48  1  0  0  0  0
 24 25  1  0  0  0  0
 24 49  1  0  0  0  0
 25 26  2  0  0  0  0
 25 50  1  0  0  0  0
 26 27  1  0  0  0  0
 26 51  1  0  0  0  0
 27 52  1  0  0  0  0
 28 29  1  0  0  0  0
 29 30  1  0  0  0  0
 29 34  2  0  0  0  0
 30 31  2  0  0  0  0
 30 53  1  0  0  0  0
 31 32  1  0  0  0  0
 31 54  1  0  0  0  0
 32 33  2  0  0  0  0
 32 55  1  0  0  0  0
 33 34  1  0  0  0  0
 33 56  1  0  0  0  0
 34 57  1  0  0  0  0
M  END
$$$$
