CHEMBL4225828
 OpenBabel04072215383D

 48 50  0  0  0  0  0  0  0  0999 V2000
    2.3004    2.0130    3.0289 C   0  0  0  0  0  0  0  0  0  0  0  0
    3.4056    1.8029    2.1260 N   0  0  0  0  0  0  0  0  0  0  0  0
    4.6996    1.7906    2.6025 C   0  0  0  0  0  0  0  0  0  0  0  0
    4.9973    1.9831    3.7772 O   0  0  0  0  0  0  0  0  0  0  0  0
    5.7605    1.4730    1.6166 C   0  0  0  0  0  0  0  0  0  0  0  0
    5.6688    1.7782    0.2574 C   0  0  0  0  0  0  0  0  0  0  0  0
    6.7220    1.4284   -0.5949 C   0  0  0  0  0  0  0  0  0  0  0  0
    7.8392    0.7778   -0.0705 C   0  0  0  0  0  0  0  0  0  0  0  0
    9.1885    0.3558   -1.1649 S   0  0  0  0  0  0  0  0  0  0  0  0
    9.8879   -1.0965   -0.3987 C   0  0  0  0  0  0  0  0  0  0  0  0
    9.3364   -2.3566   -0.6327 C   0  0  0  0  0  0  0  0  0  0  0  0
    9.8892   -3.4866   -0.0270 C   0  0  0  0  0  0  0  0  0  0  0  0
   11.0164   -3.3733    0.7915 C   0  0  0  0  0  0  0  0  0  0  0  0
   11.6185   -2.1337    0.9828 C   0  0  0  0  0  0  0  0  0  0  0  0
   12.7334   -1.9136    1.8126 N   0  0  0  0  0  0  0  0  0  0  0  0
   13.5966   -2.7574    2.4843 C   0  0  0  0  0  0  0  0  0  0  0  0
   14.1118   -4.2774    2.0355 S   0  0  0  0  0  0  0  0  0  0  0  0
   14.1711   -2.1637    3.6017 N   0  0  0  0  0  0  0  0  0  0  0  0
   13.5552   -1.1906    4.4173 C   0  0  0  0  0  0  0  0  0  0  0  0
   12.1651   -1.0893    4.4881 C   0  0  0  0  0  0  0  0  0  0  0  0
   11.5652   -0.0356    5.1654 C   0  0  0  0  0  0  0  0  0  0  0  0
   12.3492    0.9130    5.8225 C   0  0  0  0  0  0  0  0  0  0  0  0
   11.4995    2.2369    6.5259 Cl  0  0  0  0  0  0  0  0  0  0  0  0
   13.7431    0.7710    5.8624 C   0  0  0  0  0  0  0  0  0  0  0  0
   14.6635    1.7053    6.6034 C   0  0  0  0  0  0  0  0  0  0  0  0
   14.0860    2.7633    7.2270 F   0  0  0  0  0  0  0  0  0  0  0  0
   15.3640    1.0496    7.5734 F   0  0  0  0  0  0  0  0  0  0  0  0
   15.6080    2.2414    5.7769 F   0  0  0  0  0  0  0  0  0  0  0  0
   14.3378   -0.3075    5.1586 C   0  0  0  0  0  0  0  0  0  0  0  0
   11.0338   -0.9949    0.4000 C   0  0  0  0  0  0  0  0  0  0  0  0
    7.9574    0.4975    1.2466 N   0  0  0  0  0  0  0  0  0  0  0  0
    6.9257    0.8554    2.0564 C   0  0  0  0  0  0  0  0  0  0  0  0
    1.3668    1.8902    2.4755 H   0  0  0  0  0  0  0  0  0  0  0  0
    2.3600    3.0235    3.4420 H   0  0  0  0  0  0  0  0  0  0  0  0
    2.3495    1.2845    3.8432 H   0  0  0  0  0  0  0  0  0  0  0  0
    3.2048    1.4610    1.1982 H   0  0  0  0  0  0  0  0  0  0  0  0
    4.8113    2.3089   -0.1458 H   0  0  0  0  0  0  0  0  0  0  0  0
    6.6672    1.6732   -1.6517 H   0  0  0  0  0  0  0  0  0  0  0  0
    8.4700   -2.4702   -1.2782 H   0  0  0  0  0  0  0  0  0  0  0  0
    9.4366   -4.4623   -0.1848 H   0  0  0  0  0  0  0  0  0  0  0  0
   11.3785   -4.2673    1.2858 H   0  0  0  0  0  0  0  0  0  0  0  0
   12.9522   -0.9363    1.9684 H   0  0  0  0  0  0  0  0  0  0  0  0
   15.0790   -2.5238    3.8777 H   0  0  0  0  0  0  0  0  0  0  0  0
   11.5227   -1.8296    4.0153 H   0  0  0  0  0  0  0  0  0  0  0  0
   10.4796    0.0418    5.1570 H   0  0  0  0  0  0  0  0  0  0  0  0
   15.4239   -0.4025    5.1501 H   0  0  0  0  0  0  0  0  0  0  0  0
   11.4625   -0.0106    0.5756 H   0  0  0  0  0  0  0  0  0  0  0  0
    7.0656    0.6137    3.1075 H   0  0  0  0  0  0  0  0  0  0  0  0
  1  2  1  0  0  0  0
  1 33  1  0  0  0  0
  1 34  1  0  0  0  0
  1 35  1  0  0  0  0
  2  3  1  0  0  0  0
  2 36  1  0  0  0  0
  3  4  2  0  0  0  0
  3  5  1  0  0  0  0
  5  6  1  0  0  0  0
  5 32  2  0  0  0  0
  6  7  2  0  0  0  0
  6 37  1  0  0  0  0
  7  8  1  0  0  0  0
  7 38  1  0  0  0  0
  8  9  1  0  0  0  0
  8 31  2  0  0  0  0
  9 10  1  0  0  0  0
 10 11  1  0  0  0  0
 10 30  2  0  0  0  0
 11 12  2  0  0  0  0
 11 39  1  0  0  0  0
 12 13  1  0  0  0  0
 12 40  1  0  0  0  0
 13 14  2  0  0  0  0
 13 41  1  0  0  0  0
 14 15  1  0  0  0  0
 14 30  1  0  0  0  0
 15 16  1  0  0  0  0
 15 42  1  0  0  0  0
 16 17  2  0  0  0  0
 16 18  1  0  0  0  0
 18 19  1  0  0  0  0
 18 43  1  0  0  0  0
 19 20  1  0  0  0  0
 19 29  2  0  0  0  0
 20 21  2  0  0  0  0
 20 44  1  0  0  0  0
 21 22  1  0  0  0  0
 21 45  1  0  0  0  0
 22 23  1  0  0  0  0
 22 24  2  0  0  0  0
 24 25  1  0  0  0  0
 24 29  1  0  0  0  0
 25 26  1  0  0  0  0
 25 27  1  0  0  0  0
 25 28  1  0  0  0  0
 29 46  1  0  0  0  0
 30 47  1  0  0  0  0
 31 32  1  0  0  0  0
 32 48  1  0  0  0  0
M  END
$$$$
