CHEMBL4102888
 OpenBabel04072215383D

 50 55  0  0  0  0  0  0  0  0999 V2000
    2.8559   -0.9251   -0.3914 O   0  0  0  0  0  0  0  0  0  0  0  0
    2.3070    0.0475    0.0876 C   0  0  0  0  0  0  0  0  0  0  0  0
    0.9806    0.4407    0.0151 N   0  0  0  0  0  0  0  0  0  0  0  0
    0.0927   -0.3680   -0.6642 C   0  0  0  0  0  0  0  0  0  0  0  0
   -0.2114   -1.7163   -0.3590 C   0  0  0  0  0  0  0  0  0  0  0  0
   -1.0995   -2.0986   -1.3337 C   0  0  0  0  0  0  0  0  0  0  0  0
   -1.6994   -3.4876   -1.4757 C   0  0  0  0  0  0  0  0  0  0  0  0
   -2.0152   -4.0025   -2.8631 C   0  0  0  0  0  0  0  0  0  0  0  0
   -3.1312   -3.6123   -1.9586 C   0  0  0  0  0  0  0  0  0  0  0  0
   -1.3495   -1.0318   -2.1439 O   0  0  0  0  0  0  0  0  0  0  0  0
   -0.6486    0.0760   -1.6772 N   0  0  0  0  0  0  0  0  0  0  0  0
    3.0755    1.0515    0.7122 N   0  0  0  0  0  0  0  0  0  0  0  0
    4.1896    1.6621    0.1714 C   0  0  0  0  0  0  0  0  0  0  0  0
    4.5964    2.6646    1.0240 C   0  0  0  0  0  0  0  0  0  0  0  0
    3.7749    2.6099    2.1829 C   0  0  0  0  0  0  0  0  0  0  0  0
    3.7316    3.3400    3.3940 C   0  0  0  0  0  0  0  0  0  0  0  0
    2.7767    3.0106    4.3680 C   0  0  0  0  0  0  0  0  0  0  0  0
    2.7282    3.8103    5.4957 O   0  0  0  0  0  0  0  0  0  0  0  0
    2.3949    3.2217    6.7140 C   0  0  0  0  0  0  0  0  0  0  0  0
    1.8802    4.0472    7.6961 C   0  0  0  0  0  0  0  0  0  0  0  0
    1.6689    3.4664    8.9373 C   0  0  0  0  0  0  0  0  0  0  0  0
    1.3383    4.2797   10.1626 C   0  0  0  0  0  0  0  0  0  0  0  0
    0.0836    4.9963   10.0633 N   0  0  0  0  0  0  0  0  0  0  0  0
    0.0290    6.2754    9.6186 N   0  0  0  0  0  0  0  0  0  0  0  0
   -1.2102    6.5976   10.0053 C   0  0  0  0  0  0  0  0  0  0  0  0
   -1.8699    5.5922   10.6434 N   0  0  0  0  0  0  0  0  0  0  0  0
   -1.0287    4.5682   10.6935 N   0  0  0  0  0  0  0  0  0  0  0  0
    1.8984    2.1476    9.1467 N   0  0  0  0  0  0  0  0  0  0  0  0
    2.3690    1.4367    8.1122 C   0  0  0  0  0  0  0  0  0  0  0  0
    2.6668    1.9164    6.9105 N   0  0  0  0  0  0  0  0  0  0  0  0
    1.8712    1.9762    4.1344 C   0  0  0  0  0  0  0  0  0  0  0  0
    1.9086    1.2292    2.9569 C   0  0  0  0  0  0  0  0  0  0  0  0
    2.8469    1.5866    1.9747 C   0  0  0  0  0  0  0  0  0  0  0  0
    0.8194    1.4350   -0.1037 H   0  0  0  0  0  0  0  0  0  0  0  0
    0.1560   -2.3042    0.4661 H   0  0  0  0  0  0  0  0  0  0  0  0
   -1.3471   -4.2218   -0.7573 H   0  0  0  0  0  0  0  0  0  0  0  0
   -1.8692   -5.0600   -3.0563 H   0  0  0  0  0  0  0  0  0  0  0  0
   -1.7997   -3.3677   -3.7153 H   0  0  0  0  0  0  0  0  0  0  0  0
   -3.7419   -4.4039   -1.5350 H   0  0  0  0  0  0  0  0  0  0  0  0
   -3.6938   -2.7218   -2.2137 H   0  0  0  0  0  0  0  0  0  0  0  0
    4.5476    1.3727   -0.8098 H   0  0  0  0  0  0  0  0  0  0  0  0
    5.4075    3.3580    0.8397 H   0  0  0  0  0  0  0  0  0  0  0  0
    4.4333    4.1503    3.5656 H   0  0  0  0  0  0  0  0  0  0  0  0
    1.6898    5.0959    7.5033 H   0  0  0  0  0  0  0  0  0  0  0  0
    2.1320    5.0135   10.3461 H   0  0  0  0  0  0  0  0  0  0  0  0
    1.2803    3.6370   11.0487 H   0  0  0  0  0  0  0  0  0  0  0  0
   -1.6319    7.5781    9.8324 H   0  0  0  0  0  0  0  0  0  0  0  0
    2.5255    0.3743    8.2692 H   0  0  0  0  0  0  0  0  0  0  0  0
    1.1165    1.7237    4.8730 H   0  0  0  0  0  0  0  0  0  0  0  0
    1.2223    0.3999    2.8182 H   0  0  0  0  0  0  0  0  0  0  0  0
  1  2  2  0  0  0  0
  2  3  1  0  0  0  0
  2 12  1  0  0  0  0
  3  4  1  0  0  0  0
  3 34  1  0  0  0  0
  4  5  1  0  0  0  0
  4 11  2  0  0  0  0
  5  6  2  0  0  0  0
  5 35  1  0  0  0  0
  6  7  1  0  0  0  0
  6 10  1  0  0  0  0
  7  8  1  0  0  0  0
  7  9  1  0  0  0  0
  7 36  1  0  0  0  0
  8  9  1  0  0  0  0
  8 37  1  0  0  0  0
  8 38  1  0  0  0  0
  9 39  1  0  0  0  0
  9 40  1  0  0  0  0
 10 11  1  0  0  0  0
 12 13  1  0  0  0  0
 12 33  1  0  0  0  0
 13 14  2  0  0  0  0
 13 41  1  0  0  0  0
 14 15  1  0  0  0  0
 14 42  1  0  0  0  0
 15 16  1  0  0  0  0
 15 33  2  0  0  0  0
 16 17  2  0  0  0  0
 16 43  1  0  0  0  0
 17 18  1  0  0  0  0
 17 31  1  0  0  0  0
 18 19  1  0  0  0  0
 19 20  1  0  0  0  0
 19 30  2  0  0  0  0
 20 21  2  0  0  0  0
 20 44  1  0  0  0  0
 21 22  1  0  0  0  0
 21 28  1  0  0  0  0
 22 23  1  0  0  0  0
 22 45  1  0  0  0  0
 22 46  1  0  0  0  0
 23 24  1  0  0  0  0
 23 27  1  0  0  0  0
 24 25  2  0  0  0  0
 25 26  1  0  0  0  0
 25 47  1  0  0  0  0
 26 27  2  0  0  0  0
 28 29  2  0  0  0  0
 29 30  1  0  0  0  0
 29 48  1  0  0  0  0
 31 32  2  0  0  0  0
 31 49  1  0  0  0  0
 32 33  1  0  0  0  0
 32 50  1  0  0  0  0
M  END
$$$$
