CHEMBL3648088
 OpenBabel04072215373D

 59 60  0  0  1  0  0  0  0  0999 V2000
   16.2319   11.5693   -5.9146 C   0  0  0  0  0  0  0  0  0  0  0  0
   15.6711   10.1731   -6.1019 C   0  0  0  0  0  0  0  0  0  0  0  0
   14.5876   10.2040   -7.0334 O   0  0  0  0  0  0  0  0  0  0  0  0
   14.9442   10.1277   -8.3414 C   0  0  0  0  0  0  0  0  0  0  0  0
   16.0967   10.0302   -8.7379 O   0  0  0  0  0  0  0  0  0  0  0  0
   13.8332   10.0762   -9.1604 N   0  0  0  0  0  0  0  0  0  0  0  0
   13.8619   10.7912  -10.5158 S   0  0  3  0  0  0  0  0  0  0  0  0
   14.3460   12.1467  -10.7094 O   0  0  0  0  0  0  0  0  0  0  0  0
   14.7265    9.7394  -11.6744 C   0  0  0  0  0  0  0  0  0  0  0  0
   14.1020    8.3696  -11.8512 C   0  0  0  0  0  0  0  0  0  0  0  0
   12.1786   10.8014  -11.1031 C   0  0  0  0  0  0  0  0  0  0  0  0
   11.1470   10.2388  -10.3473 C   0  0  0  0  0  0  0  0  0  0  0  0
    9.8245   10.3240  -10.7981 C   0  0  0  0  0  0  0  0  0  0  0  0
    9.5122   10.9833  -11.9936 C   0  0  0  0  0  0  0  0  0  0  0  0
    8.1669   11.1081  -12.3816 N   0  0  0  0  0  0  0  0  0  0  0  0
    7.5822   12.0104  -13.2726 C   0  0  0  0  0  0  0  0  0  0  0  0
    6.2818   12.2727  -13.0914 N   0  0  0  0  0  0  0  0  0  0  0  0
    5.7420   13.2119  -13.8966 C   0  0  0  0  0  0  0  0  0  0  0  0
    6.4465   13.8926  -14.8662 C   0  0  0  0  0  0  0  0  0  0  0  0
    5.5934   15.2057  -15.9173 Br  0  0  0  0  0  0  0  0  0  0  0  0
    7.7835   13.5567  -15.0035 C   0  0  0  0  0  0  0  0  0  0  0  0
    8.5866   14.1445  -15.9976 N   0  0  0  0  0  0  0  0  0  0  0  0
   10.0176   13.7416  -16.0642 C   0  0  2  0  0  0  0  0  0  0  0  0
   10.8631   14.4720  -15.0180 C   0  0  0  0  0  0  0  0  0  0  0  0
   10.5262   13.9567  -17.5317 C   0  0  0  0  0  0  0  0  0  0  0  0
   10.5863   15.4270  -17.9580 C   0  0  0  0  0  0  0  0  0  0  0  0
   11.8921   13.2997  -17.7596 C   0  0  0  0  0  0  0  0  0  0  0  0
    9.5972   13.3027  -18.4160 O   0  0  0  0  0  0  0  0  0  0  0  0
    8.3198   12.6111  -14.2200 N   0  0  0  0  0  0  0  0  0  0  0  0
   10.5799   11.4765  -12.7562 C   0  0  0  0  0  0  0  0  0  0  0  0
   11.9005   11.4213  -12.3134 C   0  0  0  0  0  0  0  0  0  0  0  0
   17.0427   11.5659   -5.1818 H   0  0  0  0  0  0  0  0  0  0  0  0
   15.4472   12.2529   -5.5745 H   0  0  0  0  0  0  0  0  0  0  0  0
   16.6138   11.9706   -6.8588 H   0  0  0  0  0  0  0  0  0  0  0  0
   15.2698    9.8037   -5.1527 H   0  0  0  0  0  0  0  0  0  0  0  0
   16.4468    9.4648   -6.4161 H   0  0  0  0  0  0  0  0  0  0  0  0
   15.7522    9.6404  -11.3052 H   0  0  0  0  0  0  0  0  0  0  0  0
   14.7771   10.2652  -12.6330 H   0  0  0  0  0  0  0  0  0  0  0  0
   13.9304    7.8723  -10.8920 H   0  0  0  0  0  0  0  0  0  0  0  0
   14.7598    7.7317  -12.4499 H   0  0  0  0  0  0  0  0  0  0  0  0
   13.1426    8.4363  -12.3732 H   0  0  0  0  0  0  0  0  0  0  0  0
   11.3510    9.7513   -9.3975 H   0  0  0  0  0  0  0  0  0  0  0  0
    9.0374    9.8949  -10.1827 H   0  0  0  0  0  0  0  0  0  0  0  0
    7.4768   10.8488  -11.6900 H   0  0  0  0  0  0  0  0  0  0  0  0
    4.6875   13.4064  -13.7205 H   0  0  0  0  0  0  0  0  0  0  0  0
    8.4560   15.1542  -15.9956 H   0  0  0  0  0  0  0  0  0  0  0  0
   10.0821   12.6600  -15.8862 H   0  0  0  0  0  0  0  0  0  0  0  0
   10.8904   15.5515  -15.1898 H   0  0  0  0  0  0  0  0  0  0  0  0
   11.8936   14.0999  -15.0233 H   0  0  0  0  0  0  0  0  0  0  0  0
   10.4740   14.3243  -14.0061 H   0  0  0  0  0  0  0  0  0  0  0  0
   11.3280   15.9920  -17.3853 H   0  0  0  0  0  0  0  0  0  0  0  0
    9.6119   15.9148  -17.8491 H   0  0  0  0  0  0  0  0  0  0  0  0
   10.8490   15.5073  -19.0197 H   0  0  0  0  0  0  0  0  0  0  0  0
   12.6867   13.7898  -17.1884 H   0  0  0  0  0  0  0  0  0  0  0  0
   12.1670   13.3325  -18.8205 H   0  0  0  0  0  0  0  0  0  0  0  0
   11.8690   12.2396  -17.4822 H   0  0  0  0  0  0  0  0  0  0  0  0
    8.7263   13.3899  -17.9756 H   0  0  0  0  0  0  0  0  0  0  0  0
   10.4064   11.9403  -13.7165 H   0  0  0  0  0  0  0  0  0  0  0  0
   12.6832   11.8820  -12.9103 H   0  0  0  0  0  0  0  0  0  0  0  0
  1  2  1  0  0  0  0
  1 32  1  0  0  0  0
  1 33  1  0  0  0  0
  1 34  1  0  0  0  0
  2  3  1  0  0  0  0
  2 35  1  0  0  0  0
  2 36  1  0  0  0  0
  3  4  1  0  0  0  0
  4  5  2  0  0  0  0
  4  6  1  0  0  0  0
  6  7  2  0  0  0  0
  7  8  2  0  0  0  0
  7  9  1  0  0  0  0
  7 11  1  0  0  0  0
  9 10  1  0  0  0  0
  9 37  1  0  0  0  0
  9 38  1  0  0  0  0
 10 39  1  0  0  0  0
 10 40  1  0  0  0  0
 10 41  1  0  0  0  0
 11 12  1  0  0  0  0
 11 31  2  0  0  0  0
 12 13  2  0  0  0  0
 12 42  1  0  0  0  0
 13 14  1  0  0  0  0
 13 43  1  0  0  0  0
 14 15  1  0  0  0  0
 14 30  2  0  0  0  0
 15 16  1  0  0  0  0
 15 44  1  0  0  0  0
 16 17  1  0  0  0  0
 16 29  2  0  0  0  0
 17 18  2  0  0  0  0
 18 19  1  0  0  0  0
 18 45  1  0  0  0  0
 19 20  1  0  0  0  0
 19 21  2  0  0  0  0
 21 22  1  0  0  0  0
 21 29  1  0  0  0  0
 22 46  1  0  0  0  0
 23 25  1  0  0  0  0
 23 24  1  0  0  0  0
 23 22  1  0  0  0  0
 23 47  1  1  0  0  0
 24 48  1  0  0  0  0
 24 49  1  0  0  0  0
 24 50  1  0  0  0  0
 25 26  1  0  0  0  0
 25 27  1  0  0  0  0
 25 28  1  0  0  0  0
 26 51  1  0  0  0  0
 26 52  1  0  0  0  0
 26 53  1  0  0  0  0
 27 54  1  0  0  0  0
 27 55  1  0  0  0  0
 27 56  1  0  0  0  0
 28 57  1  0  0  0  0
 30 31  1  0  0  0  0
 30 58  1  0  0  0  0
 31 59  1  0  0  0  0
M  END
$$$$
