CHEMBL357490
 OpenBabel04072215363D

 38 43  0  0  0  0  0  0  0  0999 V2000
    1.0308   -0.3002    0.1364 O   0  0  0  0  0  0  0  0  0  0  0  0
    2.2337   -0.1718    0.3006 C   0  0  0  0  0  0  0  0  0  0  0  0
    3.1009   -1.2531    0.3671 N   0  0  0  0  0  0  0  0  0  0  0  0
    4.5077   -0.9432    0.5323 C   0  0  0  0  0  0  0  0  0  0  0  0
    4.4294    0.5118    0.4760 C   0  0  0  0  0  0  0  0  0  0  0  0
    3.1032    0.9724    0.3746 C   0  0  0  0  0  0  0  0  0  0  0  0
    2.8122    2.3065    0.1838 C   0  0  0  0  0  0  0  0  0  0  0  0
    3.8297    3.1436   -0.2833 C   0  0  0  0  0  0  0  0  0  0  0  0
    5.1119    2.7796    0.0182 C   0  0  0  0  0  0  0  0  0  0  0  0
    6.3175    3.4518    0.0964 N   0  0  0  0  0  0  0  0  0  0  0  0
    7.3096    2.5858    0.6167 C   0  0  0  0  0  0  0  0  0  0  0  0
    8.6309    2.8402    1.0205 C   0  0  0  0  0  0  0  0  0  0  0  0
    9.4011    1.7614    1.4860 C   0  0  0  0  0  0  0  0  0  0  0  0
    8.8853    0.4691    1.5368 C   0  0  0  0  0  0  0  0  0  0  0  0
    7.5649    0.2242    1.1621 C   0  0  0  0  0  0  0  0  0  0  0  0
    6.7614    1.2950    0.7279 C   0  0  0  0  0  0  0  0  0  0  0  0
    5.4355    1.5072    0.4088 C   0  0  0  0  0  0  0  0  0  0  0  0
    3.2314    4.1959   -1.1938 C   0  0  0  0  0  0  0  0  0  0  0  0
    1.7383    3.9925   -0.9494 C   0  0  0  0  0  0  0  0  0  0  0  0
    0.6324    4.6525   -1.4543 C   0  0  0  0  0  0  0  0  0  0  0  0
   -0.6254    4.3626   -0.8972 C   0  0  0  0  0  0  0  0  0  0  0  0
   -0.7600    3.4486    0.1594 C   0  0  0  0  0  0  0  0  0  0  0  0
    0.3400    2.7195    0.5908 C   0  0  0  0  0  0  0  0  0  0  0  0
    1.5568    2.9446   -0.0298 C   0  0  0  0  0  0  0  0  0  0  0  0
    2.7384   -2.1735    0.1710 H   0  0  0  0  0  0  0  0  0  0  0  0
    5.0774   -1.3646   -0.2993 H   0  0  0  0  0  0  0  0  0  0  0  0
    4.8383   -1.3182    1.5010 H   0  0  0  0  0  0  0  0  0  0  0  0
    6.4537    4.4407   -0.0329 H   0  0  0  0  0  0  0  0  0  0  0  0
    9.0523    3.8400    1.0013 H   0  0  0  0  0  0  0  0  0  0  0  0
   10.4225    1.9302    1.8206 H   0  0  0  0  0  0  0  0  0  0  0  0
    9.5000   -0.3551    1.8906 H   0  0  0  0  0  0  0  0  0  0  0  0
    7.1669   -0.7815    1.2484 H   0  0  0  0  0  0  0  0  0  0  0  0
    3.4697    3.9294   -2.2322 H   0  0  0  0  0  0  0  0  0  0  0  0
    3.5647    5.2061   -0.9520 H   0  0  0  0  0  0  0  0  0  0  0  0
    0.7167    5.3736   -2.2590 H   0  0  0  0  0  0  0  0  0  0  0  0
   -1.5162    4.8631   -1.2705 H   0  0  0  0  0  0  0  0  0  0  0  0
   -1.7242    3.2893    0.6358 H   0  0  0  0  0  0  0  0  0  0  0  0
    0.2538    2.0047    1.4030 H   0  0  0  0  0  0  0  0  0  0  0  0
  1  2  2  0  0  0  0
  2  3  1  0  0  0  0
  2  6  1  0  0  0  0
  3  4  1  0  0  0  0
  3 25  1  0  0  0  0
  4  5  1  0  0  0  0
  4 26  1  0  0  0  0
  4 27  1  0  0  0  0
  5  6  1  0  0  0  0
  5 17  2  0  0  0  0
  6  7  2  0  0  0  0
  7  8  1  0  0  0  0
  7 24  1  0  0  0  0
  8  9  2  0  0  0  0
  8 18  1  0  0  0  0
  9 10  1  0  0  0  0
  9 17  1  0  0  0  0
 10 11  1  0  0  0  0
 10 28  1  0  0  0  0
 11 12  1  0  0  0  0
 11 16  2  0  0  0  0
 12 13  2  0  0  0  0
 12 29  1  0  0  0  0
 13 14  1  0  0  0  0
 13 30  1  0  0  0  0
 14 15  2  0  0  0  0
 14 31  1  0  0  0  0
 15 16  1  0  0  0  0
 15 32  1  0  0  0  0
 16 17  1  0  0  0  0
 18 19  1  0  0  0  0
 18 33  1  0  0  0  0
 18 34  1  0  0  0  0
 19 20  1  0  0  0  0
 19 24  2  0  0  0  0
 20 21  2  0  0  0  0
 20 35  1  0  0  0  0
 21 22  1  0  0  0  0
 21 36  1  0  0  0  0
 22 23  2  0  0  0  0
 22 37  1  0  0  0  0
 23 24  1  0  0  0  0
 23 38  1  0  0  0  0
M  END
$$$$
