CHEMBL394577
 OpenBabel04072215373D

 67 70  0  0  0  0  0  0  0  0999 V2000
   -7.5980   -2.5413   -1.3685 C   0  0  0  0  0  0  0  0  0  0  0  0
   -6.1407   -2.5236   -1.4093 N   0  0  0  0  0  0  0  0  0  0  0  0
   -5.6032   -1.2948   -0.7991 C   0  0  0  0  0  0  0  0  0  0  0  0
   -4.0593   -1.2799   -0.8397 C   0  0  0  0  0  0  0  0  0  0  0  0
   -3.4181   -2.4344   -0.1801 N   0  0  0  0  0  0  0  0  0  0  0  0
   -3.5588   -2.4360    1.2846 C   0  0  0  0  0  0  0  0  0  0  0  0
   -2.9516   -1.2312    2.0323 C   0  0  0  0  0  0  0  0  0  0  0  0
   -3.1069   -1.3153    3.5394 C   0  0  0  0  0  0  0  0  0  0  0  0
   -3.1154   -2.5423    4.2135 C   0  0  0  0  0  0  0  0  0  0  0  0
   -3.2213   -2.5950    5.6003 C   0  0  0  0  0  0  0  0  0  0  0  0
   -3.2681   -1.4256    6.3618 C   0  0  0  0  0  0  0  0  0  0  0  0
   -3.3556   -1.4653    7.7652 N   0  0  0  0  0  0  0  0  0  0  0  0
   -2.7211   -2.4197    8.5662 C   0  0  0  0  0  0  0  0  0  0  0  0
   -3.3251   -2.7622    9.7077 N   0  0  0  0  0  0  0  0  0  0  0  0
   -2.6914   -3.6792   10.4689 C   0  0  0  0  0  0  0  0  0  0  0  0
   -1.4914   -4.2759   10.1379 C   0  0  0  0  0  0  0  0  0  0  0  0
   -0.9388   -5.2498   11.0167 C   0  0  0  0  0  0  0  0  0  0  0  0
   -0.4924   -6.0157   11.7647 N   0  0  0  0  0  0  0  0  0  0  0  0
   -0.9332   -3.8782    8.9361 C   0  0  0  0  0  0  0  0  0  0  0  0
    0.3149   -4.4109    8.3282 C   0  0  0  0  0  0  0  0  0  0  0  0
    0.4292   -4.5396    6.9298 C   0  0  0  0  0  0  0  0  0  0  0  0
    1.5725   -5.0801    6.3186 C   0  0  0  0  0  0  0  0  0  0  0  0
    2.6607   -5.5237    7.0822 C   0  0  0  0  0  0  0  0  0  0  0  0
    3.9117   -6.1737    6.4760 C   0  0  0  0  0  0  0  0  0  0  0  0
    5.1727   -5.3668    6.8380 C   0  0  0  0  0  0  0  0  0  0  0  0
    4.0528   -7.6233    6.9852 C   0  0  0  0  0  0  0  0  0  0  0  0
    3.8756   -6.2492    5.0081 N   0  0  0  0  0  0  0  0  0  0  0  0
    2.5666   -5.3574    8.4737 C   0  0  0  0  0  0  0  0  0  0  0  0
    1.4324   -4.7973    9.0787 C   0  0  0  0  0  0  0  0  0  0  0  0
   -1.5549   -2.9524    8.1651 N   0  0  0  0  0  0  0  0  0  0  0  0
   -3.3009   -0.1982    5.6961 C   0  0  0  0  0  0  0  0  0  0  0  0
   -3.1980   -0.1406    4.3003 C   0  0  0  0  0  0  0  0  0  0  0  0
   -4.0145   -3.6751   -0.7416 C   0  0  0  0  0  0  0  0  0  0  0  0
   -5.5659   -3.7099   -0.7513 C   0  0  0  0  0  0  0  0  0  0  0  0
   -8.0039   -1.6755   -1.9033 H   0  0  0  0  0  0  0  0  0  0  0  0
   -7.9875   -2.5284   -0.3446 H   0  0  0  0  0  0  0  0  0  0  0  0
   -7.9837   -3.4324   -1.8757 H   0  0  0  0  0  0  0  0  0  0  0  0
   -5.9520   -1.1861    0.2366 H   0  0  0  0  0  0  0  0  0  0  0  0
   -5.9663   -0.4227   -1.3544 H   0  0  0  0  0  0  0  0  0  0  0  0
   -3.6838   -0.3357   -0.4332 H   0  0  0  0  0  0  0  0  0  0  0  0
   -3.7395   -1.2759   -1.8903 H   0  0  0  0  0  0  0  0  0  0  0  0
   -3.0360   -3.3365    1.6269 H   0  0  0  0  0  0  0  0  0  0  0  0
   -4.6057   -2.5442    1.5916 H   0  0  0  0  0  0  0  0  0  0  0  0
   -3.4434   -0.3106    1.6984 H   0  0  0  0  0  0  0  0  0  0  0  0
   -1.8839   -1.1415    1.7975 H   0  0  0  0  0  0  0  0  0  0  0  0
   -3.0314   -3.4869    3.6872 H   0  0  0  0  0  0  0  0  0  0  0  0
   -3.2393   -3.5701    6.0801 H   0  0  0  0  0  0  0  0  0  0  0  0
   -4.3023   -1.3569    8.1084 H   0  0  0  0  0  0  0  0  0  0  0  0
   -3.2158   -3.9374   11.3879 H   0  0  0  0  0  0  0  0  0  0  0  0
   -0.3874   -4.2125    6.2851 H   0  0  0  0  0  0  0  0  0  0  0  0
    1.5765   -5.1427    5.2338 H   0  0  0  0  0  0  0  0  0  0  0  0
    5.3485   -5.3446    7.9193 H   0  0  0  0  0  0  0  0  0  0  0  0
    5.0949   -4.3264    6.4984 H   0  0  0  0  0  0  0  0  0  0  0  0
    6.0703   -5.8012    6.3810 H   0  0  0  0  0  0  0  0  0  0  0  0
    4.1935   -7.6599    8.0715 H   0  0  0  0  0  0  0  0  0  0  0  0
    4.9144   -8.1233    6.5367 H   0  0  0  0  0  0  0  0  0  0  0  0
    3.1604   -8.2163    6.7492 H   0  0  0  0  0  0  0  0  0  0  0  0
    3.7861   -5.3122    4.6197 H   0  0  0  0  0  0  0  0  0  0  0  0
    3.0630   -6.7857    4.7126 H   0  0  0  0  0  0  0  0  0  0  0  0
    3.3840   -5.6671    9.1225 H   0  0  0  0  0  0  0  0  0  0  0  0
    1.4653   -4.6690   10.1574 H   0  0  0  0  0  0  0  0  0  0  0  0
   -3.3545    0.7260    6.2664 H   0  0  0  0  0  0  0  0  0  0  0  0
   -3.1767    0.8333    3.8153 H   0  0  0  0  0  0  0  0  0  0  0  0
   -3.6349   -4.5542   -0.2046 H   0  0  0  0  0  0  0  0  0  0  0  0
   -3.6552   -3.7861   -1.7728 H   0  0  0  0  0  0  0  0  0  0  0  0
   -5.9391   -3.7996    0.2775 H   0  0  0  0  0  0  0  0  0  0  0  0
   -5.8833   -4.6144   -1.2838 H   0  0  0  0  0  0  0  0  0  0  0  0
  1  2  1  0  0  0  0
  1 35  1  0  0  0  0
  1 36  1  0  0  0  0
  1 37  1  0  0  0  0
  2  3  1  0  0  0  0
  2 34  1  0  0  0  0
  3  4  1  0  0  0  0
  3 38  1  0  0  0  0
  3 39  1  0  0  0  0
  4  5  1  0  0  0  0
  4 40  1  0  0  0  0
  4 41  1  0  0  0  0
  5  6  1  0  0  0  0
  5 33  1  0  0  0  0
  6  7  1  0  0  0  0
  6 42  1  0  0  0  0
  6 43  1  0  0  0  0
  7  8  1  0  0  0  0
  7 44  1  0  0  0  0
  7 45  1  0  0  0  0
  8  9  1  0  0  0  0
  8 32  2  0  0  0  0
  9 10  2  0  0  0  0
  9 46  1  0  0  0  0
 10 11  1  0  0  0  0
 10 47  1  0  0  0  0
 11 12  1  0  0  0  0
 11 31  2  0  0  0  0
 12 13  1  0  0  0  0
 12 48  1  0  0  0  0
 13 14  1  0  0  0  0
 13 30  2  0  0  0  0
 14 15  2  0  0  0  0
 15 16  1  0  0  0  0
 15 49  1  0  0  0  0
 16 17  1  0  0  0  0
 16 19  2  0  0  0  0
 17 18  3  0  0  0  0
 19 20  1  0  0  0  0
 19 30  1  0  0  0  0
 20 21  1  0  0  0  0
 20 29  2  0  0  0  0
 21 22  2  0  0  0  0
 21 50  1  0  0  0  0
 22 23  1  0  0  0  0
 22 51  1  0  0  0  0
 23 24  1  0  0  0  0
 23 28  2  0  0  0  0
 24 25  1  0  0  0  0
 24 26  1  0  0  0  0
 24 27  1  0  0  0  0
 25 52  1  0  0  0  0
 25 53  1  0  0  0  0
 25 54  1  0  0  0  0
 26 55  1  0  0  0  0
 26 56  1  0  0  0  0
 26 57  1  0  0  0  0
 27 58  1  0  0  0  0
 27 59  1  0  0  0  0
 28 29  1  0  0  0  0
 28 60  1  0  0  0  0
 29 61  1  0  0  0  0
 31 32  1  0  0  0  0
 31 62  1  0  0  0  0
 32 63  1  0  0  0  0
 33 34  1  0  0  0  0
 33 64  1  0  0  0  0
 33 65  1  0  0  0  0
 34 66  1  0  0  0  0
 34 67  1  0  0  0  0
M  END
$$$$
