CHEMBL44608
 OpenBabel04072215383D

 42 45  0  0  0  0  0  0  0  0999 V2000
    6.6904   -5.3118   -4.7695 F   0  0  0  0  0  0  0  0  0  0  0  0
    6.9139   -3.9816   -4.9657 C   0  0  0  0  0  0  0  0  0  0  0  0
    8.1281   -3.7247   -4.4018 F   0  0  0  0  0  0  0  0  0  0  0  0
    7.0868   -3.8278   -6.3076 F   0  0  0  0  0  0  0  0  0  0  0  0
    5.8260   -3.0979   -4.4116 C   0  0  0  0  0  0  0  0  0  0  0  0
    4.6999   -3.6406   -3.7786 C   0  0  0  0  0  0  0  0  0  0  0  0
    3.7223   -2.8020   -3.2462 C   0  0  0  0  0  0  0  0  0  0  0  0
    3.8618   -1.4152   -3.3440 C   0  0  0  0  0  0  0  0  0  0  0  0
    4.9516   -0.8456   -4.0112 C   0  0  0  0  0  0  0  0  0  0  0  0
    5.0614    0.5548   -4.0682 N   0  0  0  0  0  0  0  0  0  0  0  0
    5.6305    1.3112   -5.0939 C   0  0  0  0  0  0  0  0  0  0  0  0
    5.5967    0.8615   -6.3579 N   0  0  0  0  0  0  0  0  0  0  0  0
    6.1149    1.6489   -7.3136 C   0  0  0  0  0  0  0  0  0  0  0  0
    6.6865    2.8690   -7.0606 C   0  0  0  0  0  0  0  0  0  0  0  0
    6.7383    3.2338   -5.7317 C   0  0  0  0  0  0  0  0  0  0  0  0
    7.4555    4.4136   -5.3719 N   0  0  0  0  0  0  0  0  0  0  0  0
    7.5401    5.5571   -6.1447 C   0  0  0  0  0  0  0  0  0  0  0  0
    8.2062    6.4799   -5.3820 C   0  0  0  0  0  0  0  0  0  0  0  0
    8.5999    5.9283   -4.1997 N   0  0  0  0  0  0  0  0  0  0  0  0
    8.2003    4.6599   -4.2152 C   0  0  0  0  0  0  0  0  0  0  0  0
    8.5890    3.6819   -3.1770 C   0  0  0  0  0  0  0  0  0  0  0  0
    8.8401    4.1294   -1.8707 C   0  0  0  0  0  0  0  0  0  0  0  0
    9.1714    3.2282   -0.8531 C   0  0  0  0  0  0  0  0  0  0  0  0
    9.2483    1.8641   -1.1250 C   0  0  0  0  0  0  0  0  0  0  0  0
    9.0576    1.4089   -2.4243 C   0  0  0  0  0  0  0  0  0  0  0  0
    8.7747    2.3202   -3.4436 C   0  0  0  0  0  0  0  0  0  0  0  0
    6.1935    2.4782   -4.7491 N   0  0  0  0  0  0  0  0  0  0  0  0
    5.9384   -1.6995   -4.5213 C   0  0  0  0  0  0  0  0  0  0  0  0
    4.5810   -4.7199   -3.6940 H   0  0  0  0  0  0  0  0  0  0  0  0
    2.8481   -3.2265   -2.7582 H   0  0  0  0  0  0  0  0  0  0  0  0
    3.0869   -0.7744   -2.9280 H   0  0  0  0  0  0  0  0  0  0  0  0
    5.3167    0.9822   -3.1852 H   0  0  0  0  0  0  0  0  0  0  0  0
    6.0752    1.2392   -8.3181 H   0  0  0  0  0  0  0  0  0  0  0  0
    7.1329    3.4411   -7.8629 H   0  0  0  0  0  0  0  0  0  0  0  0
    7.0629    5.6487   -7.1094 H   0  0  0  0  0  0  0  0  0  0  0  0
    8.4165    7.5148   -5.6214 H   0  0  0  0  0  0  0  0  0  0  0  0
    8.7814    5.1923   -1.6400 H   0  0  0  0  0  0  0  0  0  0  0  0
    9.3636    3.5933    0.1521 H   0  0  0  0  0  0  0  0  0  0  0  0
    9.4734    1.1587   -0.3301 H   0  0  0  0  0  0  0  0  0  0  0  0
    9.1294    0.3484   -2.6512 H   0  0  0  0  0  0  0  0  0  0  0  0
    8.6853    1.9276   -4.4542 H   0  0  0  0  0  0  0  0  0  0  0  0
    6.8145   -1.2788   -5.0131 H   0  0  0  0  0  0  0  0  0  0  0  0
  1  2  1  0  0  0  0
  2  3  1  0  0  0  0
  2  4  1  0  0  0  0
  2  5  1  0  0  0  0
  5  6  1  0  0  0  0
  5 28  2  0  0  0  0
  6  7  2  0  0  0  0
  6 29  1  0  0  0  0
  7  8  1  0  0  0  0
  7 30  1  0  0  0  0
  8  9  2  0  0  0  0
  8 31  1  0  0  0  0
  9 10  1  0  0  0  0
  9 28  1  0  0  0  0
 10 11  1  0  0  0  0
 10 32  1  0  0  0  0
 11 12  1  0  0  0  0
 11 27  2  0  0  0  0
 12 13  2  0  0  0  0
 13 14  1  0  0  0  0
 13 33  1  0  0  0  0
 14 15  2  0  0  0  0
 14 34  1  0  0  0  0
 15 16  1  0  0  0  0
 15 27  1  0  0  0  0
 16 17  1  0  0  0  0
 16 20  1  0  0  0  0
 17 18  2  0  0  0  0
 17 35  1  0  0  0  0
 18 19  1  0  0  0  0
 18 36  1  0  0  0  0
 19 20  2  0  0  0  0
 20 21  1  0  0  0  0
 21 22  1  0  0  0  0
 21 26  2  0  0  0  0
 22 23  2  0  0  0  0
 22 37  1  0  0  0  0
 23 24  1  0  0  0  0
 23 38  1  0  0  0  0
 24 25  2  0  0  0  0
 24 39  1  0  0  0  0
 25 26  1  0  0  0  0
 25 40  1  0  0  0  0
 26 41  1  0  0  0  0
 28 42  1  0  0  0  0
M  END
$$$$
