CHEMBL2016899
 OpenBabel04072215363D

 45 49  0  0  0  0  0  0  0  0999 V2000
    2.6168    1.0965   -0.0309 O   0  0  0  0  0  0  0  0  0  0  0  0
    2.3066   -0.0960    0.0312 C   0  0  0  0  0  0  0  0  0  0  0  0
    0.9746   -0.4986   -0.5259 C   0  0  0  0  0  0  0  0  0  0  0  0
   -0.0980    0.3873   -0.3991 C   0  0  0  0  0  0  0  0  0  0  0  0
   -1.3865   -0.0192   -0.7591 C   0  0  0  0  0  0  0  0  0  0  0  0
   -1.5733   -1.3095   -1.2197 C   0  0  0  0  0  0  0  0  0  0  0  0
   -0.5592   -2.1641   -1.4380 N   0  0  0  0  0  0  0  0  0  0  0  0
    0.6838   -1.7143   -1.1377 C   0  0  0  0  0  0  0  0  0  0  0  0
    3.1246   -1.0339    0.7012 N   0  0  0  0  0  0  0  0  0  0  0  0
    2.7394   -2.4540    0.7926 C   0  0  0  0  0  0  0  0  0  0  0  0
    3.5690   -3.4951    1.5179 C   0  0  0  0  0  0  0  0  0  0  0  0
    4.7341   -2.8893    2.1247 C   0  0  0  0  0  0  0  0  0  0  0  0
    5.6431   -3.6002    2.8157 N   0  0  0  0  0  0  0  0  0  0  0  0
    6.5113   -2.7218    3.2630 C   0  0  0  0  0  0  0  0  0  0  0  0
    7.6105   -2.9716    4.1146 C   0  0  0  0  0  0  0  0  0  0  0  0
    7.6647   -4.2333    4.5839 C   0  0  0  0  0  0  0  0  0  0  0  0
    8.7818   -4.6533    5.3901 C   0  0  0  0  0  0  0  0  0  0  0  0
    8.8749   -5.9470    5.8452 C   0  0  0  0  0  0  0  0  0  0  0  0
    9.3741   -6.0273    7.1075 F   0  0  0  0  0  0  0  0  0  0  0  0
    9.6101   -6.6924    4.9747 C   0  0  0  0  0  0  0  0  0  0  0  0
   10.9013   -6.1799    4.8405 C   0  0  0  0  0  0  0  0  0  0  0  0
   11.1151   -4.7915    5.0544 C   0  0  0  0  0  0  0  0  0  0  0  0
    9.9776   -3.9892    5.1614 C   0  0  0  0  0  0  0  0  0  0  0  0
    9.9144   -2.6106    4.8508 N   0  0  0  0  0  0  0  0  0  0  0  0
    8.7488   -2.0089    4.4079 C   0  0  0  0  0  0  0  0  0  0  0  0
    8.6448   -0.8069    4.1836 O   0  0  0  0  0  0  0  0  0  0  0  0
    6.1814   -1.4399    2.8208 N   0  0  0  0  0  0  0  0  0  0  0  0
    5.0414   -1.5624    2.1024 C   0  0  0  0  0  0  0  0  0  0  0  0
    4.2548   -0.4818    1.4806 C   0  0  0  0  0  0  0  0  0  0  0  0
    0.0623    1.3916   -0.0142 H   0  0  0  0  0  0  0  0  0  0  0  0
   -2.2316    0.6545   -0.6654 H   0  0  0  0  0  0  0  0  0  0  0  0
   -2.5606   -1.6991   -1.4501 H   0  0  0  0  0  0  0  0  0  0  0  0
    1.4446   -2.4205   -1.4366 H   0  0  0  0  0  0  0  0  0  0  0  0
    2.7856   -2.7993   -0.2372 H   0  0  0  0  0  0  0  0  0  0  0  0
    1.7092   -2.5042    1.1585 H   0  0  0  0  0  0  0  0  0  0  0  0
    3.8838   -4.2667    0.8017 H   0  0  0  0  0  0  0  0  0  0  0  0
    2.9549   -4.0082    2.2657 H   0  0  0  0  0  0  0  0  0  0  0  0
    6.9526   -5.0029    4.2842 H   0  0  0  0  0  0  0  0  0  0  0  0
    9.1109   -7.0609    4.0685 H   0  0  0  0  0  0  0  0  0  0  0  0
   11.6960   -6.8517    4.5387 H   0  0  0  0  0  0  0  0  0  0  0  0
   12.1139   -4.3874    4.9631 H   0  0  0  0  0  0  0  0  0  0  0  0
   10.7419   -2.0274    4.8855 H   0  0  0  0  0  0  0  0  0  0  0  0
    6.7206   -0.6118    3.0321 H   0  0  0  0  0  0  0  0  0  0  0  0
    4.8759    0.1271    0.8157 H   0  0  0  0  0  0  0  0  0  0  0  0
    3.8406    0.1753    2.2547 H   0  0  0  0  0  0  0  0  0  0  0  0
  1  2  2  0  0  0  0
  2  3  1  0  0  0  0
  2  9  1  0  0  0  0
  3  4  1  0  0  0  0
  3  8  2  0  0  0  0
  4  5  2  0  0  0  0
  4 30  1  0  0  0  0
  5  6  1  0  0  0  0
  5 31  1  0  0  0  0
  6  7  2  0  0  0  0
  6 32  1  0  0  0  0
  7  8  1  0  0  0  0
  8 33  1  0  0  0  0
  9 10  1  0  0  0  0
  9 29  1  0  0  0  0
 10 11  1  0  0  0  0
 10 34  1  0  0  0  0
 10 35  1  0  0  0  0
 11 12  1  0  0  0  0
 11 36  1  0  0  0  0
 11 37  1  0  0  0  0
 12 13  1  0  0  0  0
 12 28  2  0  0  0  0
 13 14  2  0  0  0  0
 14 15  1  0  0  0  0
 14 27  1  0  0  0  0
 15 16  2  0  0  0  0
 15 25  1  0  0  0  0
 16 17  1  0  0  0  0
 16 38  1  0  0  0  0
 17 18  1  0  0  0  0
 17 23  2  0  0  0  0
 18 19  1  0  0  0  0
 18 20  2  0  0  0  0
 20 21  1  0  0  0  0
 20 39  1  0  0  0  0
 21 22  2  0  0  0  0
 21 40  1  0  0  0  0
 22 23  1  0  0  0  0
 22 41  1  0  0  0  0
 23 24  1  0  0  0  0
 24 25  1  0  0  0  0
 24 42  1  0  0  0  0
 25 26  2  0  0  0  0
 27 28  1  0  0  0  0
 27 43  1  0  0  0  0
 28 29  1  0  0  0  0
 29 44  1  0  0  0  0
 29 45  1  0  0  0  0
M  END
$$$$
