CHEMBL215191
 OpenBabel04072215363D

 48 51  0  0  0  0  0  0  0  0999 V2000
    3.4195    0.9533   -0.6735 C   0  0  0  0  0  0  0  0  0  0  0  0
    2.6164   -0.1715   -0.3179 O   0  0  0  0  0  0  0  0  0  0  0  0
    3.2692   -1.2023    0.3017 C   0  0  0  0  0  0  0  0  0  0  0  0
    4.3002   -0.9545    1.2223 C   0  0  0  0  0  0  0  0  0  0  0  0
    5.0101   -2.0066    1.8164 C   0  0  0  0  0  0  0  0  0  0  0  0
    4.6412   -3.3247    1.5504 C   0  0  0  0  0  0  0  0  0  0  0  0
    3.5817   -3.5690    0.6725 C   0  0  0  0  0  0  0  0  0  0  0  0
    2.8841   -2.5257    0.0459 C   0  0  0  0  0  0  0  0  0  0  0  0
    1.8908   -2.9970   -0.7700 O   0  0  0  0  0  0  0  0  0  0  0  0
    1.0512   -2.0756   -1.4450 C   0  0  0  0  0  0  0  0  0  0  0  0
    5.2716   -4.3930    2.2007 N   0  0  0  0  0  0  0  0  0  0  0  0
    5.4821   -4.5065    3.5844 C   0  0  0  0  0  0  0  0  0  0  0  0
    5.3689   -5.7802    4.0153 N   0  0  0  0  0  0  0  0  0  0  0  0
    5.4217   -5.9700    5.3329 C   0  0  0  0  0  0  0  0  0  0  0  0
    5.5934   -5.0300    6.2609 N   0  0  0  0  0  0  0  0  0  0  0  0
    5.7412   -3.7686    5.8172 C   0  0  0  0  0  0  0  0  0  0  0  0
    5.8020   -2.7189    6.7656 N   0  0  0  0  0  0  0  0  0  0  0  0
    6.3963   -3.0974    8.0410 C   0  0  0  0  0  0  0  0  0  0  0  0
    5.8807   -2.1860    9.1296 C   0  0  0  0  0  0  0  0  0  0  0  0
    4.5227   -2.2272    9.4842 C   0  0  0  0  0  0  0  0  0  0  0  0
    4.0259   -1.4079   10.4974 C   0  0  0  0  0  0  0  0  0  0  0  0
    4.8828   -0.5406   11.1712 C   0  0  0  0  0  0  0  0  0  0  0  0
    6.2371   -0.5012   10.8398 C   0  0  0  0  0  0  0  0  0  0  0  0
    6.7362   -1.3216    9.8250 C   0  0  0  0  0  0  0  0  0  0  0  0
    5.7166   -3.4288    4.4509 C   0  0  0  0  0  0  0  0  0  0  0  0
    5.8565   -2.0557    4.1051 N   0  0  0  0  0  0  0  0  0  0  0  0
    6.1842   -1.7519    2.7165 C   0  0  0  0  0  0  0  0  0  0  0  0
    3.1725    1.2308   -1.7022 H   0  0  0  0  0  0  0  0  0  0  0  0
    4.4988    0.7657   -0.6440 H   0  0  0  0  0  0  0  0  0  0  0  0
    3.1690    1.7923   -0.0177 H   0  0  0  0  0  0  0  0  0  0  0  0
    4.5649    0.0656    1.4875 H   0  0  0  0  0  0  0  0  0  0  0  0
    3.2672   -4.5922    0.4768 H   0  0  0  0  0  0  0  0  0  0  0  0
    0.3457   -2.6590   -2.0459 H   0  0  0  0  0  0  0  0  0  0  0  0
    1.6211   -1.4519   -2.1396 H   0  0  0  0  0  0  0  0  0  0  0  0
    0.4641   -1.4798   -0.7394 H   0  0  0  0  0  0  0  0  0  0  0  0
    5.0081   -5.3148    1.8682 H   0  0  0  0  0  0  0  0  0  0  0  0
    5.2955   -6.9869    5.6882 H   0  0  0  0  0  0  0  0  0  0  0  0
    6.2982   -1.9407    6.3297 H   0  0  0  0  0  0  0  0  0  0  0  0
    7.4865   -3.0243    7.9627 H   0  0  0  0  0  0  0  0  0  0  0  0
    6.1663   -4.1228    8.3535 H   0  0  0  0  0  0  0  0  0  0  0  0
    3.8506   -2.9047    8.9598 H   0  0  0  0  0  0  0  0  0  0  0  0
    2.9714   -1.4472   10.7564 H   0  0  0  0  0  0  0  0  0  0  0  0
    4.4946    0.1039   11.9550 H   0  0  0  0  0  0  0  0  0  0  0  0
    6.9049    0.1701   11.3735 H   0  0  0  0  0  0  0  0  0  0  0  0
    7.7962   -1.2833    9.5858 H   0  0  0  0  0  0  0  0  0  0  0  0
    5.0000   -1.5808    4.3974 H   0  0  0  0  0  0  0  0  0  0  0  0
    7.0621   -2.3125    2.3813 H   0  0  0  0  0  0  0  0  0  0  0  0
    6.4769   -0.6972    2.6557 H   0  0  0  0  0  0  0  0  0  0  0  0
  1  2  1  0  0  0  0
  1 28  1  0  0  0  0
  1 29  1  0  0  0  0
  1 30  1  0  0  0  0
  2  3  1  0  0  0  0
  3  4  1  0  0  0  0
  3  8  2  0  0  0  0
  4  5  2  0  0  0  0
  4 31  1  0  0  0  0
  5  6  1  0  0  0  0
  5 27  1  0  0  0  0
  6  7  2  0  0  0  0
  6 11  1  0  0  0  0
  7  8  1  0  0  0  0
  7 32  1  0  0  0  0
  8  9  1  0  0  0  0
  9 10  1  0  0  0  0
 10 33  1  0  0  0  0
 10 34  1  0  0  0  0
 10 35  1  0  0  0  0
 11 12  1  0  0  0  0
 11 36  1  0  0  0  0
 12 13  1  0  0  0  0
 12 25  2  0  0  0  0
 13 14  2  0  0  0  0
 14 15  1  0  0  0  0
 14 37  1  0  0  0  0
 15 16  2  0  0  0  0
 16 17  1  0  0  0  0
 16 25  1  0  0  0  0
 17 18  1  0  0  0  0
 17 38  1  0  0  0  0
 18 19  1  0  0  0  0
 18 39  1  0  0  0  0
 18 40  1  0  0  0  0
 19 20  1  0  0  0  0
 19 24  2  0  0  0  0
 20 21  2  0  0  0  0
 20 41  1  0  0  0  0
 21 22  1  0  0  0  0
 21 42  1  0  0  0  0
 22 23  2  0  0  0  0
 22 43  1  0  0  0  0
 23 24  1  0  0  0  0
 23 44  1  0  0  0  0
 24 45  1  0  0  0  0
 25 26  1  0  0  0  0
 26 27  1  0  0  0  0
 26 46  1  0  0  0  0
 27 47  1  0  0  0  0
 27 48  1  0  0  0  0
M  END
$$$$
