CHEMBL3904787
 OpenBabel04072215373D

 68 71  0  0  0  0  0  0  0  0999 V2000
    1.1571    0.2448   -0.1033 C   0  0  0  0  0  0  0  0  0  0  0  0
    2.5572   -0.0345   -0.1641 O   0  0  0  0  0  0  0  0  0  0  0  0
    3.0957    0.1105   -1.4062 C   0  0  0  0  0  0  0  0  0  0  0  0
    2.4774    0.4426   -2.4128 O   0  0  0  0  0  0  0  0  0  0  0  0
    4.5800   -0.2162   -1.3813 C   0  0  0  0  0  0  0  0  0  0  0  0
    5.1426   -0.0054   -2.7013 N   0  0  0  0  0  0  0  0  0  0  0  0
    6.4692   -0.2540   -2.9646 C   0  0  0  0  0  0  0  0  0  0  0  0
    7.2494   -0.6773   -2.1201 O   0  0  0  0  0  0  0  0  0  0  0  0
    6.9201   -0.0085   -4.3608 C   0  0  0  0  0  0  0  0  0  0  0  0
    6.2818    0.9133   -5.1903 C   0  0  0  0  0  0  0  0  0  0  0  0
    6.7283    1.1066   -6.5029 C   0  0  0  0  0  0  0  0  0  0  0  0
    7.8419    0.4245   -7.0019 C   0  0  0  0  0  0  0  0  0  0  0  0
    8.3032    0.5159   -8.3309 N   0  0  0  0  0  0  0  0  0  0  0  0
    7.9017    1.3471   -9.4030 C   0  0  0  0  0  0  0  0  0  0  0  0
    6.9425    2.2698   -9.2000 N   0  0  0  0  0  0  0  0  0  0  0  0
    6.5080    2.9592  -10.2560 C   0  0  0  0  0  0  0  0  0  0  0  0
    6.9422    2.8153  -11.5022 N   0  0  0  0  0  0  0  0  0  0  0  0
    7.8772    1.8948  -11.6940 C   0  0  0  0  0  0  0  0  0  0  0  0
    8.2872    1.7123  -12.9949 C   0  0  0  0  0  0  0  0  0  0  0  0
    9.2466    0.7648  -13.3716 C   0  0  0  0  0  0  0  0  0  0  0  0
    9.6283    0.6174  -14.6751 O   0  0  0  0  0  0  0  0  0  0  0  0
    8.8631    1.3063  -15.6734 C   0  0  0  0  0  0  0  0  0  0  0  0
    9.6630    1.3222  -16.9587 C   0  0  0  0  0  0  0  0  0  0  0  0
    9.9002   -0.0906  -17.4798 C   0  0  0  0  0  0  0  0  0  0  0  0
   10.7508   -0.1209  -18.6802 N   0  0  0  0  0  0  0  0  0  0  0  0
   10.9381   -1.5199  -19.1309 C   0  0  0  0  0  0  0  0  0  0  0  0
   11.8592   -2.3524  -18.2157 C   0  0  0  0  0  0  0  0  0  0  0  0
   13.1270   -1.7180  -17.9976 O   0  0  0  0  0  0  0  0  0  0  0  0
   12.9643   -0.3827  -17.5036 C   0  0  0  0  0  0  0  0  0  0  0  0
   12.1013    0.4504  -18.4614 C   0  0  0  0  0  0  0  0  0  0  0  0
    9.8385   -0.0228  -12.3770 C   0  0  0  0  0  0  0  0  0  0  0  0
   10.7917   -0.9974  -12.4976 O   0  0  0  0  0  0  0  0  0  0  0  0
   11.1755   -1.4279  -13.7946 C   0  0  0  0  0  0  0  0  0  0  0  0
    9.4328    0.1607  -11.0461 C   0  0  0  0  0  0  0  0  0  0  0  0
    8.4357    1.1086  -10.6868 C   0  0  0  0  0  0  0  0  0  0  0  0
    8.4652   -0.5090   -6.1568 C   0  0  0  0  0  0  0  0  0  0  0  0
    8.0200   -0.7159   -4.8453 C   0  0  0  0  0  0  0  0  0  0  0  0
    0.8295    0.1065    0.9309 H   0  0  0  0  0  0  0  0  0  0  0  0
    0.6002   -0.4496   -0.7400 H   0  0  0  0  0  0  0  0  0  0  0  0
    0.9605    1.2822   -0.3933 H   0  0  0  0  0  0  0  0  0  0  0  0
    4.7272   -1.2630   -1.1003 H   0  0  0  0  0  0  0  0  0  0  0  0
    5.0942    0.4447   -0.6800 H   0  0  0  0  0  0  0  0  0  0  0  0
    4.4898    0.1799   -3.4561 H   0  0  0  0  0  0  0  0  0  0  0  0
    5.4454    1.5126   -4.8402 H   0  0  0  0  0  0  0  0  0  0  0  0
    6.1850    1.8218   -7.1091 H   0  0  0  0  0  0  0  0  0  0  0  0
    9.2816    0.2653   -8.4005 H   0  0  0  0  0  0  0  0  0  0  0  0
    5.7247    3.6880  -10.0897 H   0  0  0  0  0  0  0  0  0  0  0  0
    7.7976    2.3574  -13.7158 H   0  0  0  0  0  0  0  0  0  0  0  0
    8.7155    2.3589  -15.4181 H   0  0  0  0  0  0  0  0  0  0  0  0
    7.8945    0.8063  -15.8081 H   0  0  0  0  0  0  0  0  0  0  0  0
   10.6121    1.8141  -16.7231 H   0  0  0  0  0  0  0  0  0  0  0  0
    9.1468    1.9261  -17.7128 H   0  0  0  0  0  0  0  0  0  0  0  0
    8.9219   -0.5216  -17.7306 H   0  0  0  0  0  0  0  0  0  0  0  0
   10.3106   -0.7142  -16.6805 H   0  0  0  0  0  0  0  0  0  0  0  0
   11.3796   -1.4831  -20.1348 H   0  0  0  0  0  0  0  0  0  0  0  0
    9.9674   -2.0181  -19.2429 H   0  0  0  0  0  0  0  0  0  0  0  0
   12.0572   -3.3208  -18.6859 H   0  0  0  0  0  0  0  0  0  0  0  0
   11.3921   -2.5551  -17.2456 H   0  0  0  0  0  0  0  0  0  0  0  0
   13.9598    0.0647  -17.4201 H   0  0  0  0  0  0  0  0  0  0  0  0
   12.5428   -0.4160  -16.4939 H   0  0  0  0  0  0  0  0  0  0  0  0
   12.6013    0.4915  -19.4362 H   0  0  0  0  0  0  0  0  0  0  0  0
   12.0527    1.4916  -18.1268 H   0  0  0  0  0  0  0  0  0  0  0  0
   11.8655   -2.2708  -13.6778 H   0  0  0  0  0  0  0  0  0  0  0  0
   11.7185   -0.6387  -14.3207 H   0  0  0  0  0  0  0  0  0  0  0  0
   10.3169   -1.7918  -14.3680 H   0  0  0  0  0  0  0  0  0  0  0  0
    9.9000   -0.4630  -10.2866 H   0  0  0  0  0  0  0  0  0  0  0  0
    9.3047   -1.0965   -6.5168 H   0  0  0  0  0  0  0  0  0  0  0  0
    8.5295   -1.4406   -4.2152 H   0  0  0  0  0  0  0  0  0  0  0  0
  1  2  1  0  0  0  0
  1 38  1  0  0  0  0
  1 39  1  0  0  0  0
  1 40  1  0  0  0  0
  2  3  1  0  0  0  0
  3  4  2  0  0  0  0
  3  5  1  0  0  0  0
  5  6  1  0  0  0  0
  5 41  1  0  0  0  0
  5 42  1  0  0  0  0
  6  7  1  0  0  0  0
  6 43  1  0  0  0  0
  7  8  2  0  0  0  0
  7  9  1  0  0  0  0
  9 10  1  0  0  0  0
  9 37  2  0  0  0  0
 10 11  2  0  0  0  0
 10 44  1  0  0  0  0
 11 12  1  0  0  0  0
 11 45  1  0  0  0  0
 12 13  1  0  0  0  0
 12 36  2  0  0  0  0
 13 14  1  0  0  0  0
 13 46  1  0  0  0  0
 14 15  1  0  0  0  0
 14 35  2  0  0  0  0
 15 16  2  0  0  0  0
 16 17  1  0  0  0  0
 16 47  1  0  0  0  0
 17 18  2  0  0  0  0
 18 19  1  0  0  0  0
 18 35  1  0  0  0  0
 19 20  2  0  0  0  0
 19 48  1  0  0  0  0
 20 21  1  0  0  0  0
 20 31  1  0  0  0  0
 21 22  1  0  0  0  0
 22 23  1  0  0  0  0
 22 49  1  0  0  0  0
 22 50  1  0  0  0  0
 23 24  1  0  0  0  0
 23 51  1  0  0  0  0
 23 52  1  0  0  0  0
 24 25  1  0  0  0  0
 24 53  1  0  0  0  0
 24 54  1  0  0  0  0
 25 26  1  0  0  0  0
 25 30  1  0  0  0  0
 26 27  1  0  0  0  0
 26 55  1  0  0  0  0
 26 56  1  0  0  0  0
 27 28  1  0  0  0  0
 27 57  1  0  0  0  0
 27 58  1  0  0  0  0
 28 29  1  0  0  0  0
 29 30  1  0  0  0  0
 29 59  1  0  0  0  0
 29 60  1  0  0  0  0
 30 61  1  0  0  0  0
 30 62  1  0  0  0  0
 31 32  1  0  0  0  0
 31 34  2  0  0  0  0
 32 33  1  0  0  0  0
 33 63  1  0  0  0  0
 33 64  1  0  0  0  0
 33 65  1  0  0  0  0
 34 35  1  0  0  0  0
 34 66  1  0  0  0  0
 36 37  1  0  0  0  0
 36 67  1  0  0  0  0
 37 68  1  0  0  0  0
M  END
$$$$
