CHEMBL3644554
 OpenBabel04072215373D

 56 59  0  0  0  0  0  0  0  0999 V2000
    0.7401   -0.1635    0.0204 C   0  0  0  0  0  0  0  0  0  0  0  0
    2.2407    0.0375   -0.1914 C   0  0  0  0  0  0  0  0  0  0  0  0
    3.0429   -0.4477    1.0175 C   0  0  0  0  0  0  0  0  0  0  0  0
    2.7229   -0.6116   -1.4767 C   0  0  0  0  0  0  0  0  0  0  0  0
    3.2858    0.1973   -2.4731 C   0  0  0  0  0  0  0  0  0  0  0  0
    3.7490   -0.3609   -3.6591 C   0  0  0  0  0  0  0  0  0  0  0  0
    3.6858   -1.7416   -3.8516 C   0  0  0  0  0  0  0  0  0  0  0  0
    3.1684   -2.5790   -2.8601 C   0  0  0  0  0  0  0  0  0  0  0  0
    3.1564   -3.9952   -2.9855 N   0  0  0  0  0  0  0  0  0  0  0  0
    3.9427   -4.7084   -3.8764 C   0  0  0  0  0  0  0  0  0  0  0  0
    4.7893   -4.2267   -4.6214 O   0  0  0  0  0  0  0  0  0  0  0  0
    3.7925   -6.1910   -3.8986 C   0  0  0  0  0  0  0  0  0  0  0  0
    2.6163   -6.8565   -3.5655 C   0  0  0  0  0  0  0  0  0  0  0  0
    2.5564   -8.2397   -3.7301 C   0  0  0  0  0  0  0  0  0  0  0  0
    3.6546   -8.9509   -4.2444 C   0  0  0  0  0  0  0  0  0  0  0  0
    4.8453   -8.3085   -4.6049 C   0  0  0  0  0  0  0  0  0  0  0  0
    5.9152   -8.9781   -5.1655 N   0  0  0  0  0  0  0  0  0  0  0  0
    6.8380   -8.3324   -6.1005 C   0  0  0  0  0  0  0  0  0  0  0  0
    8.2123   -8.2163   -5.4374 C   0  0  0  0  0  0  0  0  0  0  0  0
    8.6712   -9.5163   -4.8080 C   0  0  0  0  0  0  0  0  0  0  0  0
    7.7087  -10.5261   -4.5534 C   0  0  0  0  0  0  0  0  0  0  0  0
    8.1468  -11.7390   -4.0252 C   0  0  0  0  0  0  0  0  0  0  0  0
    9.4285  -12.0083   -3.7082 N   0  0  0  0  0  0  0  0  0  0  0  0
   10.3278  -11.0208   -3.9315 C   0  0  0  0  0  0  0  0  0  0  0  0
   10.0124   -9.7682   -4.4558 C   0  0  0  0  0  0  0  0  0  0  0  0
   11.1660   -8.8557   -4.6456 C   0  0  0  0  0  0  0  0  0  0  0  0
   12.2806   -9.2712   -4.9183 O   0  0  0  0  0  0  0  0  0  0  0  0
   10.9161   -7.5488   -4.4393 O   0  0  0  0  0  0  0  0  0  0  0  0
    6.2320  -10.3699   -4.8627 C   0  0  0  0  0  0  0  0  0  0  0  0
    4.8877   -6.9241   -4.3932 C   0  0  0  0  0  0  0  0  0  0  0  0
    2.6542   -2.0049   -1.6925 C   0  0  0  0  0  0  0  0  0  0  0  0
    0.4044    0.3707    0.9159 H   0  0  0  0  0  0  0  0  0  0  0  0
    0.4803   -1.2200    0.1439 H   0  0  0  0  0  0  0  0  0  0  0  0
    0.1715    0.2245   -0.8322 H   0  0  0  0  0  0  0  0  0  0  0  0
    2.4066    1.1208   -0.2667 H   0  0  0  0  0  0  0  0  0  0  0  0
    2.9024   -1.5182    1.2007 H   0  0  0  0  0  0  0  0  0  0  0  0
    2.7378    0.0894    1.9220 H   0  0  0  0  0  0  0  0  0  0  0  0
    4.1147   -0.2715    0.8707 H   0  0  0  0  0  0  0  0  0  0  0  0
    3.3718    1.2731   -2.3330 H   0  0  0  0  0  0  0  0  0  0  0  0
    4.1738    0.2709   -4.4341 H   0  0  0  0  0  0  0  0  0  0  0  0
    4.0448   -2.1291   -4.7987 H   0  0  0  0  0  0  0  0  0  0  0  0
    2.6741   -4.5081   -2.2587 H   0  0  0  0  0  0  0  0  0  0  0  0
    1.7340   -6.3231   -3.2290 H   0  0  0  0  0  0  0  0  0  0  0  0
    1.6361   -8.7752   -3.5010 H   0  0  0  0  0  0  0  0  0  0  0  0
    3.5345  -10.0188   -4.4099 H   0  0  0  0  0  0  0  0  0  0  0  0
    6.4947   -7.3503   -6.4444 H   0  0  0  0  0  0  0  0  0  0  0  0
    6.9129   -8.9501   -7.0058 H   0  0  0  0  0  0  0  0  0  0  0  0
    8.1506   -7.4566   -4.6499 H   0  0  0  0  0  0  0  0  0  0  0  0
    8.9332   -7.8839   -6.1922 H   0  0  0  0  0  0  0  0  0  0  0  0
    7.4554  -12.5583   -3.8397 H   0  0  0  0  0  0  0  0  0  0  0  0
   11.3519  -11.2794   -3.6659 H   0  0  0  0  0  0  0  0  0  0  0  0
   10.0706   -7.3447   -4.0029 H   0  0  0  0  0  0  0  0  0  0  0  0
    5.6662  -10.7343   -3.9969 H   0  0  0  0  0  0  0  0  0  0  0  0
    5.9796  -10.9944   -5.7280 H   0  0  0  0  0  0  0  0  0  0  0  0
    5.8003   -6.3768   -4.6160 H   0  0  0  0  0  0  0  0  0  0  0  0
    2.2263   -2.6380   -0.9192 H   0  0  0  0  0  0  0  0  0  0  0  0
  1  2  1  0  0  0  0
  1 32  1  0  0  0  0
  1 33  1  0  0  0  0
  1 34  1  0  0  0  0
  2  3  1  0  0  0  0
  2  4  1  0  0  0  0
  2 35  1  0  0  0  0
  3 36  1  0  0  0  0
  3 37  1  0  0  0  0
  3 38  1  0  0  0  0
  4  5  1  0  0  0  0
  4 31  2  0  0  0  0
  5  6  2  0  0  0  0
  5 39  1  0  0  0  0
  6  7  1  0  0  0  0
  6 40  1  0  0  0  0
  7  8  2  0  0  0  0
  7 41  1  0  0  0  0
  8  9  1  0  0  0  0
  8 31  1  0  0  0  0
  9 10  1  0  0  0  0
  9 42  1  0  0  0  0
 10 11  2  0  0  0  0
 10 12  1  0  0  0  0
 12 13  1  0  0  0  0
 12 30  2  0  0  0  0
 13 14  2  0  0  0  0
 13 43  1  0  0  0  0
 14 15  1  0  0  0  0
 14 44  1  0  0  0  0
 15 16  2  0  0  0  0
 15 45  1  0  0  0  0
 16 17  1  0  0  0  0
 16 30  1  0  0  0  0
 17 18  1  0  0  0  0
 17 29  1  0  0  0  0
 18 19  1  0  0  0  0
 18 46  1  0  0  0  0
 18 47  1  0  0  0  0
 19 20  1  0  0  0  0
 19 48  1  0  0  0  0
 19 49  1  0  0  0  0
 20 21  1  0  0  0  0
 20 25  2  0  0  0  0
 21 22  2  0  0  0  0
 21 29  1  0  0  0  0
 22 23  1  0  0  0  0
 22 50  1  0  0  0  0
 23 24  2  0  0  0  0
 24 25  1  0  0  0  0
 24 51  1  0  0  0  0
 25 26  1  0  0  0  0
 26 27  2  0  0  0  0
 26 28  1  0  0  0  0
 28 52  1  0  0  0  0
 29 53  1  0  0  0  0
 29 54  1  0  0  0  0
 30 55  1  0  0  0  0
 31 56  1  0  0  0  0
M  END
$$$$
