CHEMBL68663
 OpenBabel04072215383D

 66 71  0  0  0  0  0  0  0  0999 V2000
    0.9211    0.6142    0.3236 N   0  0  0  0  0  0  0  0  0  0  0  0
    2.2848    0.3780    0.1888 C   0  0  0  0  0  0  0  0  0  0  0  0
    2.9671    1.5384    0.1893 N   0  0  0  0  0  0  0  0  0  0  0  0
    4.2850    1.5088    0.0328 C   0  0  0  0  0  0  0  0  0  0  0  0
    5.0393    0.4282   -0.1176 N   0  0  0  0  0  0  0  0  0  0  0  0
    4.3459   -0.7262   -0.1247 C   0  0  0  0  0  0  0  0  0  0  0  0
    2.9811   -0.8762    0.0314 C   0  0  0  0  0  0  0  0  0  0  0  0
    2.7093   -2.3282    0.0052 C   0  0  0  0  0  0  0  0  0  0  0  0
    1.3853   -3.0318    0.1285 C   0  0  0  0  0  0  0  0  0  0  0  0
    0.1816   -2.3498    0.2860 C   0  0  0  0  0  0  0  0  0  0  0  0
   -1.0764   -2.9344    0.0628 C   0  0  0  0  0  0  0  0  0  0  0  0
   -1.1661   -4.2619   -0.3157 C   0  0  0  0  0  0  0  0  0  0  0  0
   -2.3151   -4.9180   -0.6689 O   0  0  0  0  0  0  0  0  0  0  0  0
   -3.3457   -4.2088   -1.2381 C   0  0  0  0  0  0  0  0  0  0  0  0
   -3.1714   -3.1861   -2.1747 C   0  0  0  0  0  0  0  0  0  0  0  0
   -4.2794   -2.4830   -2.6518 C   0  0  0  0  0  0  0  0  0  0  0  0
   -5.5613   -2.8436   -2.2373 C   0  0  0  0  0  0  0  0  0  0  0  0
   -5.7388   -3.9108   -1.3561 C   0  0  0  0  0  0  0  0  0  0  0  0
   -4.6309   -4.5940   -0.8583 C   0  0  0  0  0  0  0  0  0  0  0  0
   -0.0188   -5.0228   -0.2396 C   0  0  0  0  0  0  0  0  0  0  0  0
    1.2153   -4.4110    0.0424 C   0  0  0  0  0  0  0  0  0  0  0  0
    3.9600   -2.9747   -0.2524 C   0  0  0  0  0  0  0  0  0  0  0  0
    4.3595   -4.4625   -0.2780 C   0  0  0  0  0  0  0  0  0  0  0  0
    4.2665   -5.3275   -1.4749 N   0  0  0  0  0  0  0  0  0  0  0  0
    5.3281   -5.1530   -2.4710 C   0  0  0  0  0  0  0  0  0  0  0  0
    5.0215   -4.0030   -3.4352 C   0  0  0  0  0  0  0  0  0  0  0  0
    3.7604   -4.1595   -4.1007 O   0  0  0  0  0  0  0  0  0  0  0  0
    2.6910   -4.3594   -3.1617 C   0  0  0  0  0  0  0  0  0  0  0  0
    3.0228   -5.5294   -2.2324 C   0  0  0  0  0  0  0  0  0  0  0  0
    4.9410   -1.9576   -0.2602 N   0  0  0  0  0  0  0  0  0  0  0  0
    6.3920   -2.1215   -0.3142 C   0  0  0  0  0  0  0  0  0  0  0  0
    7.1412   -1.8937    1.0096 C   0  0  0  0  0  0  0  0  0  0  0  0
    8.6203   -1.9423    0.6048 C   0  0  0  0  0  0  0  0  0  0  0  0
    8.6613   -1.5880   -0.8854 C   0  0  0  0  0  0  0  0  0  0  0  0
    7.2218   -1.2247   -1.2558 C   0  0  0  0  0  0  0  0  0  0  0  0
    0.8158    1.6217    0.4312 H   0  0  0  0  0  0  0  0  0  0  0  0
    0.4159    0.2885   -0.4929 H   0  0  0  0  0  0  0  0  0  0  0  0
    4.7870    2.4719    0.0112 H   0  0  0  0  0  0  0  0  0  0  0  0
    0.1596   -1.3391    0.6384 H   0  0  0  0  0  0  0  0  0  0  0  0
   -1.9642   -2.3192    0.1749 H   0  0  0  0  0  0  0  0  0  0  0  0
   -2.1801   -2.9104   -2.5266 H   0  0  0  0  0  0  0  0  0  0  0  0
   -4.1423   -1.6554   -3.3420 H   0  0  0  0  0  0  0  0  0  0  0  0
   -6.4248   -2.2978   -2.6072 H   0  0  0  0  0  0  0  0  0  0  0  0
   -6.7389   -4.2067   -1.0521 H   0  0  0  0  0  0  0  0  0  0  0  0
   -4.7648   -5.4224   -0.1681 H   0  0  0  0  0  0  0  0  0  0  0  0
   -0.0600   -6.0948   -0.4191 H   0  0  0  0  0  0  0  0  0  0  0  0
    2.0349   -5.0935    0.1623 H   0  0  0  0  0  0  0  0  0  0  0  0
    3.8609   -4.9570    0.5608 H   0  0  0  0  0  0  0  0  0  0  0  0
    5.3941   -4.5468    0.0734 H   0  0  0  0  0  0  0  0  0  0  0  0
    5.3787   -6.0891   -3.0563 H   0  0  0  0  0  0  0  0  0  0  0  0
    6.3093   -5.0622   -2.0011 H   0  0  0  0  0  0  0  0  0  0  0  0
    5.7946   -3.9754   -4.2090 H   0  0  0  0  0  0  0  0  0  0  0  0
    5.0367   -3.0420   -2.9155 H   0  0  0  0  0  0  0  0  0  0  0  0
    1.7884   -4.5893   -3.7382 H   0  0  0  0  0  0  0  0  0  0  0  0
    2.5005   -3.4288   -2.6231 H   0  0  0  0  0  0  0  0  0  0  0  0
    3.1766   -6.4082   -2.8795 H   0  0  0  0  0  0  0  0  0  0  0  0
    2.1818   -5.8614   -1.6335 H   0  0  0  0  0  0  0  0  0  0  0  0
    6.5833   -3.1434   -0.6469 H   0  0  0  0  0  0  0  0  0  0  0  0
    6.9009   -2.6347    1.7766 H   0  0  0  0  0  0  0  0  0  0  0  0
    6.9206   -0.9030    1.4292 H   0  0  0  0  0  0  0  0  0  0  0  0
    9.0269   -2.9489    0.7561 H   0  0  0  0  0  0  0  0  0  0  0  0
    9.2268   -1.2536    1.2031 H   0  0  0  0  0  0  0  0  0  0  0  0
    8.9874   -2.4601   -1.4638 H   0  0  0  0  0  0  0  0  0  0  0  0
    9.3623   -0.7733   -1.0955 H   0  0  0  0  0  0  0  0  0  0  0  0
    7.0048   -1.3910   -2.3136 H   0  0  0  0  0  0  0  0  0  0  0  0
    7.0952   -0.1560   -1.0548 H   0  0  0  0  0  0  0  0  0  0  0  0
  1  2  1  0  0  0  0
  1 36  1  0  0  0  0
  1 37  1  0  0  0  0
  2  3  1  0  0  0  0
  2  7  2  0  0  0  0
  3  4  2  0  0  0  0
  4  5  1  0  0  0  0
  4 38  1  0  0  0  0
  5  6  2  0  0  0  0
  6  7  1  0  0  0  0
  6 30  1  0  0  0  0
  7  8  1  0  0  0  0
  8  9  1  0  0  0  0
  8 22  2  0  0  0  0
  9 10  1  0  0  0  0
  9 21  2  0  0  0  0
 10 11  2  0  0  0  0
 10 39  1  0  0  0  0
 11 12  1  0  0  0  0
 11 40  1  0  0  0  0
 12 13  1  0  0  0  0
 12 20  2  0  0  0  0
 13 14  1  0  0  0  0
 14 15  1  0  0  0  0
 14 19  2  0  0  0  0
 15 16  2  0  0  0  0
 15 41  1  0  0  0  0
 16 17  1  0  0  0  0
 16 42  1  0  0  0  0
 17 18  2  0  0  0  0
 17 43  1  0  0  0  0
 18 19  1  0  0  0  0
 18 44  1  0  0  0  0
 19 45  1  0  0  0  0
 20 21  1  0  0  0  0
 20 46  1  0  0  0  0
 21 47  1  0  0  0  0
 22 23  1  0  0  0  0
 22 30  1  0  0  0  0
 23 24  1  0  0  0  0
 23 48  1  0  0  0  0
 23 49  1  0  0  0  0
 24 25  1  0  0  0  0
 24 29  1  0  0  0  0
 25 26  1  0  0  0  0
 25 50  1  0  0  0  0
 25 51  1  0  0  0  0
 26 27  1  0  0  0  0
 26 52  1  0  0  0  0
 26 53  1  0  0  0  0
 27 28  1  0  0  0  0
 28 29  1  0  0  0  0
 28 54  1  0  0  0  0
 28 55  1  0  0  0  0
 29 56  1  0  0  0  0
 29 57  1  0  0  0  0
 30 31  1  0  0  0  0
 31 32  1  0  0  0  0
 31 35  1  0  0  0  0
 31 58  1  0  0  0  0
 32 33  1  0  0  0  0
 32 59  1  0  0  0  0
 32 60  1  0  0  0  0
 33 34  1  0  0  0  0
 33 61  1  0  0  0  0
 33 62  1  0  0  0  0
 34 35  1  0  0  0  0
 34 63  1  0  0  0  0
 34 64  1  0  0  0  0
 35 65  1  0  0  0  0
 35 66  1  0  0  0  0
M  END
$$$$
