CHEMBL203243
 OpenBabel04072215363D

 51 54  0  0  0  0  0  0  0  0999 V2000
    4.1209    0.7855   -5.1566 C   0  0  0  0  0  0  0  0  0  0  0  0
    4.1943    0.6983   -3.6304 C   0  0  0  0  0  0  0  0  0  0  0  0
    5.3333   -0.2221   -3.1848 C   0  0  0  0  0  0  0  0  0  0  0  0
    4.3102    2.0647   -2.9827 C   0  0  0  0  0  0  0  0  0  0  0  0
    3.3302    2.4848   -2.0751 C   0  0  0  0  0  0  0  0  0  0  0  0
    3.4246    3.7229   -1.4316 C   0  0  0  0  0  0  0  0  0  0  0  0
    4.4955    4.5761   -1.6875 C   0  0  0  0  0  0  0  0  0  0  0  0
    4.6466    5.8400   -1.0847 N   0  0  0  0  0  0  0  0  0  0  0  0
    3.8988    6.3701   -0.0450 C   0  0  0  0  0  0  0  0  0  0  0  0
    3.0257    5.8074    0.6008 O   0  0  0  0  0  0  0  0  0  0  0  0
    4.2508    7.7860    0.3067 C   0  0  0  0  0  0  0  0  0  0  0  0
    5.6149    8.1408    0.3174 C   0  0  0  0  0  0  0  0  0  0  0  0
    6.0106    9.4603    0.5233 C   0  0  0  0  0  0  0  0  0  0  0  0
    5.0508   10.4413    0.7308 C   0  0  0  0  0  0  0  0  0  0  0  0
    3.7015   10.0919    0.7994 C   0  0  0  0  0  0  0  0  0  0  0  0
    3.2757    8.7571    0.6240 C   0  0  0  0  0  0  0  0  0  0  0  0
    1.8002    8.4598    0.8134 C   0  0  0  0  0  0  0  0  0  0  0  0
    1.0315    8.4804   -0.4269 N   0  0  0  0  0  0  0  0  0  0  0  0
    0.8734    9.5908   -1.2242 C   0  0  0  0  0  0  0  0  0  0  0  0
    0.0987    9.2361   -2.3036 C   0  0  0  0  0  0  0  0  0  0  0  0
   -0.2881    7.8802   -2.1312 C   0  0  0  0  0  0  0  0  0  0  0  0
   -1.0685    6.9906   -2.8808 C   0  0  0  0  0  0  0  0  0  0  0  0
   -1.3099    5.7339   -2.4362 N   0  0  0  0  0  0  0  0  0  0  0  0
   -0.7868    5.3583   -1.2498 C   0  0  0  0  0  0  0  0  0  0  0  0
   -0.0012    6.1599   -0.4357 C   0  0  0  0  0  0  0  0  0  0  0  0
    0.2617    7.4439   -0.9213 C   0  0  0  0  0  0  0  0  0  0  0  0
    5.4699    4.1720   -2.6087 C   0  0  0  0  0  0  0  0  0  0  0  0
    5.3837    2.9270   -3.2452 C   0  0  0  0  0  0  0  0  0  0  0  0
    3.9447   -0.2059   -5.5887 H   0  0  0  0  0  0  0  0  0  0  0  0
    5.0449    1.1797   -5.5904 H   0  0  0  0  0  0  0  0  0  0  0  0
    3.2972    1.4372   -5.4701 H   0  0  0  0  0  0  0  0  0  0  0  0
    3.2568    0.2326   -3.2944 H   0  0  0  0  0  0  0  0  0  0  0  0
    6.3117    0.1537   -3.5041 H   0  0  0  0  0  0  0  0  0  0  0  0
    5.2074   -1.2260   -3.6043 H   0  0  0  0  0  0  0  0  0  0  0  0
    5.3535   -0.3159   -2.0931 H   0  0  0  0  0  0  0  0  0  0  0  0
    2.4718    1.8530   -1.8577 H   0  0  0  0  0  0  0  0  0  0  0  0
    2.6278    4.0037   -0.7509 H   0  0  0  0  0  0  0  0  0  0  0  0
    5.3787    6.4156   -1.4785 H   0  0  0  0  0  0  0  0  0  0  0  0
    6.3864    7.3851    0.1867 H   0  0  0  0  0  0  0  0  0  0  0  0
    7.0665    9.7204    0.5207 H   0  0  0  0  0  0  0  0  0  0  0  0
    5.3513   11.4777    0.8645 H   0  0  0  0  0  0  0  0  0  0  0  0
    2.9740   10.8777    0.9987 H   0  0  0  0  0  0  0  0  0  0  0  0
    1.3463    9.2238    1.4599 H   0  0  0  0  0  0  0  0  0  0  0  0
    1.6379    7.5196    1.3427 H   0  0  0  0  0  0  0  0  0  0  0  0
    1.3366   10.5353   -0.9733 H   0  0  0  0  0  0  0  0  0  0  0  0
   -0.1783    9.8877   -3.1215 H   0  0  0  0  0  0  0  0  0  0  0  0
   -1.5116    7.2573   -3.8329 H   0  0  0  0  0  0  0  0  0  0  0  0
   -1.0202    4.3398   -0.9505 H   0  0  0  0  0  0  0  0  0  0  0  0
    0.3912    5.7910    0.5034 H   0  0  0  0  0  0  0  0  0  0  0  0
    6.3221    4.8073   -2.8351 H   0  0  0  0  0  0  0  0  0  0  0  0
    6.1660    2.6357   -3.9424 H   0  0  0  0  0  0  0  0  0  0  0  0
  1  2  1  0  0  0  0
  1 29  1  0  0  0  0
  1 30  1  0  0  0  0
  1 31  1  0  0  0  0
  2  3  1  0  0  0  0
  2  4  1  0  0  0  0
  2 32  1  0  0  0  0
  3 33  1  0  0  0  0
  3 34  1  0  0  0  0
  3 35  1  0  0  0  0
  4  5  1  0  0  0  0
  4 28  2  0  0  0  0
  5  6  2  0  0  0  0
  5 36  1  0  0  0  0
  6  7  1  0  0  0  0
  6 37  1  0  0  0  0
  7  8  1  0  0  0  0
  7 27  2  0  0  0  0
  8  9  1  0  0  0  0
  8 38  1  0  0  0  0
  9 10  2  0  0  0  0
  9 11  1  0  0  0  0
 11 12  1  0  0  0  0
 11 16  2  0  0  0  0
 12 13  2  0  0  0  0
 12 39  1  0  0  0  0
 13 14  1  0  0  0  0
 13 40  1  0  0  0  0
 14 15  2  0  0  0  0
 14 41  1  0  0  0  0
 15 16  1  0  0  0  0
 15 42  1  0  0  0  0
 16 17  1  0  0  0  0
 17 18  1  0  0  0  0
 17 43  1  0  0  0  0
 17 44  1  0  0  0  0
 18 19  1  0  0  0  0
 18 26  1  0  0  0  0
 19 20  2  0  0  0  0
 19 45  1  0  0  0  0
 20 21  1  0  0  0  0
 20 46  1  0  0  0  0
 21 22  1  0  0  0  0
 21 26  2  0  0  0  0
 22 23  2  0  0  0  0
 22 47  1  0  0  0  0
 23 24  1  0  0  0  0
 24 25  2  0  0  0  0
 24 48  1  0  0  0  0
 25 26  1  0  0  0  0
 25 49  1  0  0  0  0
 27 28  1  0  0  0  0
 27 50  1  0  0  0  0
 28 51  1  0  0  0  0
M  END
$$$$
