CHEMBL3903506
 OpenBabel04072215373D

 73 77  0  0  1  0  0  0  0  0999 V2000
   -0.3915    1.6014    5.8307 C   0  0  0  0  0  0  0  0  0  0  0  0
   -0.1032    0.1828    5.3195 C   0  0  1  0  0  0  0  0  0  0  0  0
    1.3244    0.0111    5.0219 N   0  0  0  0  0  0  0  0  0  0  0  0
    1.8289    0.8015    3.9860 C   0  0  0  0  0  0  0  0  0  0  0  0
    1.0326    1.2886    3.0084 N   0  0  0  0  0  0  0  0  0  0  0  0
    1.5829    2.0863    2.0664 C   0  0  0  0  0  0  0  0  0  0  0  0
    2.8700    2.4682    1.9371 N   0  0  0  0  0  0  0  0  0  0  0  0
    3.6316    1.9598    2.9160 C   0  0  0  0  0  0  0  0  0  0  0  0
    4.9720    2.1721    3.0818 N   0  0  0  0  0  0  0  0  0  0  0  0
    5.4403    1.5172    4.2105 C   0  0  0  0  0  0  0  0  0  0  0  0
    6.8130    1.5617    4.7483 C   0  0  0  0  0  0  0  0  0  0  0  0
    6.9886    1.2788    6.1115 C   0  0  0  0  0  0  0  0  0  0  0  0
    8.2484    1.2493    6.7021 C   0  0  0  0  0  0  0  0  0  0  0  0
    9.4018    1.5207    5.9578 C   0  0  0  0  0  0  0  0  0  0  0  0
   10.7463    1.5148    6.6769 C   0  0  0  0  0  0  0  0  0  0  0  0
   11.2678    0.1755    7.0051 N   0  0  0  0  0  0  0  0  0  0  0  0
   12.4948    0.2366    7.8324 C   0  0  0  0  0  0  0  0  0  0  0  0
   13.7852    0.6672    7.0915 C   0  0  0  0  0  0  0  0  0  0  0  0
   14.0560    0.0059    5.8014 N   0  0  0  0  0  0  0  0  0  0  0  0
   14.9631   -1.1406    5.9300 C   0  0  0  0  0  0  0  0  0  0  0  0
   15.4026   -1.7335    4.5790 C   0  0  0  0  0  0  0  0  0  0  0  0
   15.9777   -0.6746    3.6388 C   0  0  0  0  0  0  0  0  0  0  0  0
   16.2844   -1.2460    2.2749 C   0  0  0  0  0  0  0  0  0  0  0  0
   16.0838   -2.4100    1.9398 O   0  0  0  0  0  0  0  0  0  0  0  0
   16.8268   -0.3219    1.4078 N   0  0  0  0  0  0  0  0  0  0  0  0
   17.0171   -0.7932    0.0870 O   0  0  0  0  0  0  0  0  0  0  0  0
   12.8209   -0.2654    5.0395 C   0  0  0  0  0  0  0  0  0  0  0  0
   11.5643   -0.6603    5.8387 C   0  0  0  0  0  0  0  0  0  0  0  0
    9.2387    1.8109    4.5924 C   0  0  0  0  0  0  0  0  0  0  0  0
    7.9585    1.8261    3.9941 C   0  0  0  0  0  0  0  0  0  0  0  0
    4.3255    0.8700    4.7491 C   0  0  0  0  0  0  0  0  0  0  0  0
    3.1931    1.1354    3.9393 C   0  0  0  0  0  0  0  0  0  0  0  0
   -0.4955   -0.8318    6.3908 C   0  0  0  0  0  0  0  0  0  0  0  0
   -1.4766   -1.8003    6.1284 C   0  0  0  0  0  0  0  0  0  0  0  0
   -1.8819   -2.6907    7.1268 C   0  0  0  0  0  0  0  0  0  0  0  0
   -1.3107   -2.6274    8.3967 C   0  0  0  0  0  0  0  0  0  0  0  0
   -0.3237   -1.6837    8.6681 C   0  0  0  0  0  0  0  0  0  0  0  0
    0.0861   -0.7978    7.6709 C   0  0  0  0  0  0  0  0  0  0  0  0
   -0.2819    2.3454    5.0352 H   0  0  0  0  0  0  0  0  0  0  0  0
    0.2974    1.8915    6.6329 H   0  0  0  0  0  0  0  0  0  0  0  0
   -1.4132    1.6829    6.2162 H   0  0  0  0  0  0  0  0  0  0  0  0
   -0.7051   -0.0106    4.4211 H   0  0  0  0  0  0  0  0  0  0  0  0
    1.5120   -0.9597    4.7770 H   0  0  0  0  0  0  0  0  0  0  0  0
    0.8922    2.4634    1.3153 H   0  0  0  0  0  0  0  0  0  0  0  0
    5.5153    2.7750    2.4808 H   0  0  0  0  0  0  0  0  0  0  0  0
    6.1296    1.0801    6.7504 H   0  0  0  0  0  0  0  0  0  0  0  0
    8.3290    1.0072    7.7616 H   0  0  0  0  0  0  0  0  0  0  0  0
   10.5613    2.0298    7.6323 H   0  0  0  0  0  0  0  0  0  0  0  0
   11.4668    2.1443    6.1439 H   0  0  0  0  0  0  0  0  0  0  0  0
   12.6638   -0.7658    8.2482 H   0  0  0  0  0  0  0  0  0  0  0  0
   12.3363    0.8871    8.7012 H   0  0  0  0  0  0  0  0  0  0  0  0
   14.6372    0.5406    7.7758 H   0  0  0  0  0  0  0  0  0  0  0  0
   13.7361    1.7462    6.9028 H   0  0  0  0  0  0  0  0  0  0  0  0
   14.5263   -1.9267    6.5555 H   0  0  0  0  0  0  0  0  0  0  0  0
   15.8820   -0.8060    6.4333 H   0  0  0  0  0  0  0  0  0  0  0  0
   14.5683   -2.2559    4.0989 H   0  0  0  0  0  0  0  0  0  0  0  0
   16.1550   -2.5131    4.7578 H   0  0  0  0  0  0  0  0  0  0  0  0
   16.9007   -0.2616    4.0642 H   0  0  0  0  0  0  0  0  0  0  0  0
   15.2713    0.1469    3.4920 H   0  0  0  0  0  0  0  0  0  0  0  0
   16.6379    0.6715    1.5055 H   0  0  0  0  0  0  0  0  0  0  0  0
   16.7628   -1.7405    0.1650 H   0  0  0  0  0  0  0  0  0  0  0  0
   12.9703   -1.0480    4.2918 H   0  0  0  0  0  0  0  0  0  0  0  0
   12.6055    0.6333    4.4517 H   0  0  0  0  0  0  0  0  0  0  0  0
   11.6970   -1.6901    6.1940 H   0  0  0  0  0  0  0  0  0  0  0  0
   10.7071   -0.7091    5.1574 H   0  0  0  0  0  0  0  0  0  0  0  0
   10.1157    2.0212    3.9753 H   0  0  0  0  0  0  0  0  0  0  0  0
    7.8886    2.0299    2.9217 H   0  0  0  0  0  0  0  0  0  0  0  0
    4.3134    0.2775    5.6512 H   0  0  0  0  0  0  0  0  0  0  0  0
   -1.9439   -1.8612    5.1480 H   0  0  0  0  0  0  0  0  0  0  0  0
   -2.6510   -3.4294    6.9164 H   0  0  0  0  0  0  0  0  0  0  0  0
   -1.6348   -3.3131    9.1751 H   0  0  0  0  0  0  0  0  0  0  0  0
    0.1242   -1.6311    9.6569 H   0  0  0  0  0  0  0  0  0  0  0  0
    0.8594   -0.0662    7.8975 H   0  0  0  0  0  0  0  0  0  0  0  0
  1  2  1  0  0  0  0
  1 39  1  0  0  0  0
  1 40  1  0  0  0  0
  1 41  1  0  0  0  0
  2  3  1  0  0  0  0
  2 33  1  0  0  0  0
  2 42  1  6  0  0  0
  3  4  1  0  0  0  0
  3 43  1  0  0  0  0
  4  5  1  0  0  0  0
  4 32  2  0  0  0  0
  5  6  2  0  0  0  0
  6  7  1  0  0  0  0
  6 44  1  0  0  0  0
  7  8  2  0  0  0  0
  8  9  1  0  0  0  0
  8 32  1  0  0  0  0
  9 10  1  0  0  0  0
  9 45  1  0  0  0  0
 10 11  1  0  0  0  0
 10 31  2  0  0  0  0
 11 12  1  0  0  0  0
 11 30  2  0  0  0  0
 12 13  2  0  0  0  0
 12 46  1  0  0  0  0
 13 14  1  0  0  0  0
 13 47  1  0  0  0  0
 14 15  1  0  0  0  0
 14 29  2  0  0  0  0
 15 16  1  0  0  0  0
 15 48  1  0  0  0  0
 15 49  1  0  0  0  0
 16 17  1  0  0  0  0
 16 28  1  0  0  0  0
 17 18  1  0  0  0  0
 17 50  1  0  0  0  0
 17 51  1  0  0  0  0
 18 19  1  0  0  0  0
 18 52  1  0  0  0  0
 18 53  1  0  0  0  0
 19 20  1  0  0  0  0
 19 27  1  0  0  0  0
 20 21  1  0  0  0  0
 20 54  1  0  0  0  0
 20 55  1  0  0  0  0
 21 22  1  0  0  0  0
 21 56  1  0  0  0  0
 21 57  1  0  0  0  0
 22 23  1  0  0  0  0
 22 58  1  0  0  0  0
 22 59  1  0  0  0  0
 23 24  2  0  0  0  0
 23 25  1  0  0  0  0
 25 26  1  0  0  0  0
 25 60  1  0  0  0  0
 26 61  1  0  0  0  0
 27 28  1  0  0  0  0
 27 62  1  0  0  0  0
 27 63  1  0  0  0  0
 28 64  1  0  0  0  0
 28 65  1  0  0  0  0
 29 30  1  0  0  0  0
 29 66  1  0  0  0  0
 30 67  1  0  0  0  0
 31 32  1  0  0  0  0
 31 68  1  0  0  0  0
 33 34  1  0  0  0  0
 33 38  2  0  0  0  0
 34 35  2  0  0  0  0
 34 69  1  0  0  0  0
 35 36  1  0  0  0  0
 35 70  1  0  0  0  0
 36 37  2  0  0  0  0
 36 71  1  0  0  0  0
 37 38  1  0  0  0  0
 37 72  1  0  0  0  0
 38 73  1  0  0  0  0
M  END
$$$$
