CHEMBL3934355
 OpenBabel04072215373D

 65 69  0  0  0  0  0  0  0  0999 V2000
    1.1059    0.3279    0.0584 C   0  0  0  0  0  0  0  0  0  0  0  0
    2.1850   -0.5127   -0.3613 O   0  0  0  0  0  0  0  0  0  0  0  0
    2.9797   -0.0325   -1.3731 C   0  0  0  0  0  0  0  0  0  0  0  0
    2.7426    1.1563   -2.0362 C   0  0  0  0  0  0  0  0  0  0  0  0
    3.6221    1.5771   -3.0207 C   0  0  0  0  0  0  0  0  0  0  0  0
    3.5040    2.7416   -3.7284 O   0  0  0  0  0  0  0  0  0  0  0  0
    2.3766    3.5257   -3.3655 C   0  0  0  0  0  0  0  0  0  0  0  0
    4.7447    0.8154   -3.3291 C   0  0  0  0  0  0  0  0  0  0  0  0
    5.1025   -0.3283   -2.6229 C   0  0  0  0  0  0  0  0  0  0  0  0
    6.3805   -0.9077   -2.8823 N   0  0  0  0  0  0  0  0  0  0  0  0
    6.9319   -1.8112   -1.7725 C   0  0  0  0  0  0  0  0  0  0  0  0
    7.9694   -1.0256   -0.9323 C   0  0  0  0  0  0  0  0  0  0  0  0
    8.6702   -1.7057    0.1759 N   0  0  0  0  0  0  0  0  0  0  0  0
    9.4675   -2.8690   -0.2507 C   0  0  0  0  0  0  0  0  0  0  0  0
   10.6557   -2.4808   -1.1353 C   0  0  0  0  0  0  0  0  0  0  0  0
   11.5016   -1.5344   -0.4569 N   0  0  0  0  0  0  0  0  0  0  0  0
   11.0042   -0.5907    0.3987 C   0  0  0  0  0  0  0  0  0  0  0  0
   11.7568    0.2814    0.8349 O   0  0  0  0  0  0  0  0  0  0  0  0
    9.5434   -0.7052    0.8742 C   0  0  0  0  0  0  0  0  0  0  0  0
    7.3912   -0.5352   -3.8687 C   0  0  0  0  0  0  0  0  0  0  0  0
    8.0672   -1.5953   -4.4227 C   0  0  0  0  0  0  0  0  0  0  0  0
    9.1589   -1.3483   -5.1782 C   0  0  0  0  0  0  0  0  0  0  0  0
    9.7108   -0.1120   -5.3112 C   0  0  0  0  0  0  0  0  0  0  0  0
   10.9639   -0.2485   -5.2663 N   0  0  0  0  0  0  0  0  0  0  0  0
   11.4702    0.0098   -6.4558 C   0  0  0  0  0  0  0  0  0  0  0  0
   11.5748    1.1865   -7.1101 C   0  0  0  0  0  0  0  0  0  0  0  0
   12.9208    0.5365   -7.8639 C   0  0  0  0  0  0  0  0  0  0  0  0
   13.5160    0.6382   -9.1938 C   0  0  0  0  0  0  0  0  0  0  0  0
   14.6381   -0.0905   -9.4083 N   0  0  0  0  0  0  0  0  0  0  0  0
   14.9014   -0.6870   -8.2399 N   0  0  0  0  0  0  0  0  0  0  0  0
   16.1285   -1.4841   -8.0736 C   0  0  0  0  0  0  0  0  0  0  0  0
   13.9093   -0.3639   -7.3118 C   0  0  0  0  0  0  0  0  0  0  0  0
   10.4027    1.7203   -6.4408 N   0  0  0  0  0  0  0  0  0  0  0  0
    9.1942    1.0904   -5.4208 C   0  0  0  0  0  0  0  0  0  0  0  0
    7.8889    0.7850   -4.4110 C   0  0  0  0  0  0  0  0  0  0  0  0
    4.1144   -0.8010   -1.7142 C   0  0  0  0  0  0  0  0  0  0  0  0
    0.6515   -0.1105    0.9516 H   0  0  0  0  0  0  0  0  0  0  0  0
    0.3393    0.3743   -0.7229 H   0  0  0  0  0  0  0  0  0  0  0  0
    1.4452    1.3361    0.3315 H   0  0  0  0  0  0  0  0  0  0  0  0
    1.8600    1.7377   -1.8099 H   0  0  0  0  0  0  0  0  0  0  0  0
    2.3896    4.4422   -3.9535 H   0  0  0  0  0  0  0  0  0  0  0  0
    2.4157    3.8035   -2.3045 H   0  0  0  0  0  0  0  0  0  0  0  0
    1.4546    2.9806   -3.5959 H   0  0  0  0  0  0  0  0  0  0  0  0
    5.3540    1.1527   -4.1511 H   0  0  0  0  0  0  0  0  0  0  0  0
    7.3945   -2.7275   -2.1675 H   0  0  0  0  0  0  0  0  0  0  0  0
    6.1554   -2.1884   -1.0936 H   0  0  0  0  0  0  0  0  0  0  0  0
    7.4078   -0.1897   -0.5005 H   0  0  0  0  0  0  0  0  0  0  0  0
    8.7210   -0.6095   -1.6059 H   0  0  0  0  0  0  0  0  0  0  0  0
    8.8419   -3.6052   -0.7626 H   0  0  0  0  0  0  0  0  0  0  0  0
    9.8445   -3.3768    0.6484 H   0  0  0  0  0  0  0  0  0  0  0  0
   10.3330   -2.0277   -2.0789 H   0  0  0  0  0  0  0  0  0  0  0  0
   11.2604   -3.3574   -1.3826 H   0  0  0  0  0  0  0  0  0  0  0  0
   12.4721   -1.4195   -0.7223 H   0  0  0  0  0  0  0  0  0  0  0  0
    9.1049    0.2997    0.8066 H   0  0  0  0  0  0  0  0  0  0  0  0
    9.5803   -0.9683    1.9359 H   0  0  0  0  0  0  0  0  0  0  0  0
    7.8847   -2.6379   -4.2122 H   0  0  0  0  0  0  0  0  0  0  0  0
    9.7724   -2.1502   -5.5680 H   0  0  0  0  0  0  0  0  0  0  0  0
   11.7197   -0.9355   -6.8941 H   0  0  0  0  0  0  0  0  0  0  0  0
   13.2012    1.1962  -10.0637 H   0  0  0  0  0  0  0  0  0  0  0  0
   16.6931   -1.5741   -9.0169 H   0  0  0  0  0  0  0  0  0  0  0  0
   15.9046   -2.5025   -7.7315 H   0  0  0  0  0  0  0  0  0  0  0  0
   16.7919   -0.9983   -7.3480 H   0  0  0  0  0  0  0  0  0  0  0  0
   13.9840   -0.8489   -6.3453 H   0  0  0  0  0  0  0  0  0  0  0  0
    7.3547    1.6669   -3.9549 H   0  0  0  0  0  0  0  0  0  0  0  0
    4.1375   -1.7845   -1.2490 H   0  0  0  0  0  0  0  0  0  0  0  0
  1  2  1  0  0  0  0
  1 37  1  0  0  0  0
  1 38  1  0  0  0  0
  1 39  1  0  0  0  0
  2  3  1  0  0  0  0
  3  4  1  0  0  0  0
  3 36  2  0  0  0  0
  4  5  2  0  0  0  0
  4 40  1  0  0  0  0
  5  6  1  0  0  0  0
  5  8  1  0  0  0  0
  6  7  1  0  0  0  0
  7 41  1  0  0  0  0
  7 42  1  0  0  0  0
  7 43  1  0  0  0  0
  8  9  2  0  0  0  0
  8 44  1  0  0  0  0
  9 10  1  0  0  0  0
  9 36  1  0  0  0  0
 10 11  1  0  0  0  0
 10 20  1  0  0  0  0
 11 12  1  0  0  0  0
 11 45  1  0  0  0  0
 11 46  1  0  0  0  0
 12 13  1  0  0  0  0
 12 47  1  0  0  0  0
 12 48  1  0  0  0  0
 13 14  1  0  0  0  0
 13 19  1  0  0  0  0
 14 15  1  0  0  0  0
 14 49  1  0  0  0  0
 14 50  1  0  0  0  0
 15 16  1  0  0  0  0
 15 51  1  0  0  0  0
 15 52  1  0  0  0  0
 16 17  1  0  0  0  0
 16 53  1  0  0  0  0
 17 18  2  0  0  0  0
 17 19  1  0  0  0  0
 19 54  1  0  0  0  0
 19 55  1  0  0  0  0
 20 21  1  0  0  0  0
 20 35  2  0  0  0  0
 21 22  2  0  0  0  0
 21 56  1  0  0  0  0
 22 23  1  0  0  0  0
 22 57  1  0  0  0  0
 23 24  1  0  0  0  0
 23 34  2  0  0  0  0
 24 25  2  0  0  0  0
 25 26  1  0  0  0  0
 25 58  1  0  0  0  0
 26 27  1  0  0  0  0
 26 33  2  0  0  0  0
 27 28  1  0  0  0  0
 27 32  2  0  0  0  0
 28 29  2  0  0  0  0
 28 59  1  0  0  0  0
 29 30  1  0  0  0  0
 30 31  1  0  0  0  0
 30 32  1  0  0  0  0
 31 60  1  0  0  0  0
 31 61  1  0  0  0  0
 31 62  1  0  0  0  0
 32 63  1  0  0  0  0
 33 34  1  0  0  0  0
 34 35  1  0  0  0  0
 35 64  1  0  0  0  0
 36 65  1  0  0  0  0
M  END
$$$$
