CHEMBL223478
 OpenBabel04072215363D

 66 70  0  0  0  0  0  0  0  0999 V2000
    2.5744   -0.9784   -2.1316 C   0  0  0  0  0  0  0  0  0  0  0  0
    1.1019   -1.0175   -2.4147 C   0  0  0  0  0  0  0  0  0  0  0  0
    0.5919   -0.3024   -3.5031 C   0  0  0  0  0  0  0  0  0  0  0  0
   -0.7666   -0.3331   -3.7773 C   0  0  0  0  0  0  0  0  0  0  0  0
   -1.6218   -1.0741   -2.9673 C   0  0  0  0  0  0  0  0  0  0  0  0
   -1.1489   -1.7967   -1.8627 C   0  0  0  0  0  0  0  0  0  0  0  0
   -1.9986   -2.5626   -1.0116 N   0  0  0  0  0  0  0  0  0  0  0  0
   -3.3726   -2.5864   -1.0934 C   0  0  0  0  0  0  0  0  0  0  0  0
   -4.0261   -1.8798   -1.8492 O   0  0  0  0  0  0  0  0  0  0  0  0
   -3.9808   -3.4745   -0.2198 N   0  0  0  0  0  0  0  0  0  0  0  0
   -5.3780   -3.7332   -0.2553 C   0  0  0  0  0  0  0  0  0  0  0  0
   -6.1414   -3.5390   -1.4103 C   0  0  0  0  0  0  0  0  0  0  0  0
   -7.5361   -3.6058   -1.3812 C   0  0  0  0  0  0  0  0  0  0  0  0
   -8.2230   -3.9514   -0.2134 C   0  0  0  0  0  0  0  0  0  0  0  0
   -9.7035   -3.9682   -0.1698 C   0  0  0  0  0  0  0  0  0  0  0  0
  -10.4751   -4.2928   -1.3103 C   0  0  0  0  0  0  0  0  0  0  0  0
  -11.8641   -4.4172   -1.2647 C   0  0  0  0  0  0  0  0  0  0  0  0
  -12.5617   -4.3199   -0.0585 C   0  0  0  0  0  0  0  0  0  0  0  0
  -13.9021   -4.5733    0.1065 O   0  0  0  0  0  0  0  0  0  0  0  0
  -14.4670   -5.3674   -0.9455 C   0  0  0  0  0  0  0  0  0  0  0  0
  -15.7428   -6.0902   -0.4853 C   0  0  0  0  0  0  0  0  0  0  0  0
  -16.3550   -6.9132   -1.5492 N   0  0  0  0  0  0  0  0  0  0  0  0
  -17.5765   -7.6023   -1.0737 C   0  0  0  0  0  0  0  0  0  0  0  0
  -17.3064   -8.8365   -0.1909 C   0  0  0  0  0  0  0  0  0  0  0  0
  -16.4250   -9.7691   -0.8290 O   0  0  0  0  0  0  0  0  0  0  0  0
  -15.1965   -9.1363   -1.2032 C   0  0  0  0  0  0  0  0  0  0  0  0
  -15.4602   -7.9408   -2.1301 C   0  0  0  0  0  0  0  0  0  0  0  0
  -11.8065   -3.9249    1.0478 C   0  0  0  0  0  0  0  0  0  0  0  0
  -12.1790   -3.7320    2.3489 N   0  0  0  0  0  0  0  0  0  0  0  0
  -11.2218   -3.2040    3.1245 N   0  0  0  0  0  0  0  0  0  0  0  0
  -10.1718   -3.1288    2.3147 C   0  0  0  0  0  0  0  0  0  0  0  0
   -9.0219   -2.5492    2.7013 N   0  0  0  0  0  0  0  0  0  0  0  0
  -10.4328   -3.6759    1.0169 C   0  0  0  0  0  0  0  0  0  0  0  0
   -7.4273   -4.3169    0.8909 C   0  0  0  0  0  0  0  0  0  0  0  0
   -6.0267   -4.1753    0.8883 C   0  0  0  0  0  0  0  0  0  0  0  0
    0.2279   -1.7687   -1.5986 C   0  0  0  0  0  0  0  0  0  0  0  0
    3.0956   -0.3196   -2.8356 H   0  0  0  0  0  0  0  0  0  0  0  0
    3.0058   -1.9789   -2.2305 H   0  0  0  0  0  0  0  0  0  0  0  0
    2.7579   -0.5946   -1.1234 H   0  0  0  0  0  0  0  0  0  0  0  0
    1.2457    0.2815   -4.1449 H   0  0  0  0  0  0  0  0  0  0  0  0
   -1.1726    0.2162   -4.6232 H   0  0  0  0  0  0  0  0  0  0  0  0
   -2.6672   -1.0636   -3.2521 H   0  0  0  0  0  0  0  0  0  0  0  0
   -1.5550   -3.1092   -0.2901 H   0  0  0  0  0  0  0  0  0  0  0  0
   -3.5055   -3.6511    0.6516 H   0  0  0  0  0  0  0  0  0  0  0  0
   -5.6762   -3.2941   -2.3631 H   0  0  0  0  0  0  0  0  0  0  0  0
   -8.0651   -3.3548   -2.2972 H   0  0  0  0  0  0  0  0  0  0  0  0
   -9.9908   -4.4807   -2.2661 H   0  0  0  0  0  0  0  0  0  0  0  0
  -12.3748   -4.6376   -2.1986 H   0  0  0  0  0  0  0  0  0  0  0  0
  -13.7392   -6.1306   -1.2345 H   0  0  0  0  0  0  0  0  0  0  0  0
  -14.6963   -4.7184   -1.7995 H   0  0  0  0  0  0  0  0  0  0  0  0
  -16.4632   -5.3229   -0.1700 H   0  0  0  0  0  0  0  0  0  0  0  0
  -15.5183   -6.6738    0.4151 H   0  0  0  0  0  0  0  0  0  0  0  0
  -18.1225   -7.9360   -1.9662 H   0  0  0  0  0  0  0  0  0  0  0  0
  -18.2416   -6.9028   -0.5548 H   0  0  0  0  0  0  0  0  0  0  0  0
  -18.2482   -9.3617   -0.0017 H   0  0  0  0  0  0  0  0  0  0  0  0
  -16.8854   -8.5547    0.7803 H   0  0  0  0  0  0  0  0  0  0  0  0
  -14.5912   -9.8804   -1.7313 H   0  0  0  0  0  0  0  0  0  0  0  0
  -14.6458   -8.8435   -0.3019 H   0  0  0  0  0  0  0  0  0  0  0  0
  -15.9485   -8.3130   -3.0400 H   0  0  0  0  0  0  0  0  0  0  0  0
  -14.5154   -7.5153   -2.4787 H   0  0  0  0  0  0  0  0  0  0  0  0
  -13.0872   -3.9210    2.7549 H   0  0  0  0  0  0  0  0  0  0  0  0
   -9.0598   -2.0092    3.5587 H   0  0  0  0  0  0  0  0  0  0  0  0
   -8.4158   -2.1413    1.9978 H   0  0  0  0  0  0  0  0  0  0  0  0
   -7.8959   -4.6810    1.8034 H   0  0  0  0  0  0  0  0  0  0  0  0
   -5.4864   -4.3762    1.8107 H   0  0  0  0  0  0  0  0  0  0  0  0
    0.6373   -2.3186   -0.7584 H   0  0  0  0  0  0  0  0  0  0  0  0
  1  2  1  0  0  0  0
  1 37  1  0  0  0  0
  1 38  1  0  0  0  0
  1 39  1  0  0  0  0
  2  3  1  0  0  0  0
  2 36  2  0  0  0  0
  3  4  2  0  0  0  0
  3 40  1  0  0  0  0
  4  5  1  0  0  0  0
  4 41  1  0  0  0  0
  5  6  2  0  0  0  0
  5 42  1  0  0  0  0
  6  7  1  0  0  0  0
  6 36  1  0  0  0  0
  7  8  1  0  0  0  0
  7 43  1  0  0  0  0
  8  9  2  0  0  0  0
  8 10  1  0  0  0  0
 10 11  1  0  0  0  0
 10 44  1  0  0  0  0
 11 12  1  0  0  0  0
 11 35  2  0  0  0  0
 12 13  2  0  0  0  0
 12 45  1  0  0  0  0
 13 14  1  0  0  0  0
 13 46  1  0  0  0  0
 14 15  1  0  0  0  0
 14 34  2  0  0  0  0
 15 16  1  0  0  0  0
 15 33  2  0  0  0  0
 16 17  2  0  0  0  0
 16 47  1  0  0  0  0
 17 18  1  0  0  0  0
 17 48  1  0  0  0  0
 18 19  1  0  0  0  0
 18 28  2  0  0  0  0
 19 20  1  0  0  0  0
 20 21  1  0  0  0  0
 20 49  1  0  0  0  0
 20 50  1  0  0  0  0
 21 22  1  0  0  0  0
 21 51  1  0  0  0  0
 21 52  1  0  0  0  0
 22 23  1  0  0  0  0
 22 27  1  0  0  0  0
 23 24  1  0  0  0  0
 23 53  1  0  0  0  0
 23 54  1  0  0  0  0
 24 25  1  0  0  0  0
 24 55  1  0  0  0  0
 24 56  1  0  0  0  0
 25 26  1  0  0  0  0
 26 27  1  0  0  0  0
 26 57  1  0  0  0  0
 26 58  1  0  0  0  0
 27 59  1  0  0  0  0
 27 60  1  0  0  0  0
 28 29  1  0  0  0  0
 28 33  1  0  0  0  0
 29 30  1  0  0  0  0
 29 61  1  0  0  0  0
 30 31  2  0  0  0  0
 31 32  1  0  0  0  0
 31 33  1  0  0  0  0
 32 62  1  0  0  0  0
 32 63  1  0  0  0  0
 34 35  1  0  0  0  0
 34 64  1  0  0  0  0
 35 65  1  0  0  0  0
 36 66  1  0  0  0  0
M  END
$$$$
