CHEMBL196994
 OpenBabel04072215363D

 54 57  0  0  0  0  0  0  0  0999 V2000
   -0.1420   -1.7795    0.9087 C   0  0  0  0  0  0  0  0  0  0  0  0
   -0.2231   -0.4466    1.6888 C   0  0  0  0  0  0  0  0  0  0  0  0
   -0.0876    0.7162    0.6862 C   0  0  0  0  0  0  0  0  0  0  0  0
   -1.6414   -0.3938    2.3049 C   0  0  0  0  0  0  0  0  0  0  0  0
    0.8915   -0.3154    2.7433 C   0  0  0  0  0  0  0  0  0  0  0  0
    2.1359   -0.9524    2.5918 C   0  0  0  0  0  0  0  0  0  0  0  0
    3.1588   -0.8120    3.5427 C   0  0  0  0  0  0  0  0  0  0  0  0
    2.9913    0.0053    4.6611 C   0  0  0  0  0  0  0  0  0  0  0  0
    4.0099    0.1053    5.6326 N   0  0  0  0  0  0  0  0  0  0  0  0
    4.3260    1.2659    6.3892 C   0  0  0  0  0  0  0  0  0  0  0  0
    3.9725    2.4775    5.9184 N   0  0  0  0  0  0  0  0  0  0  0  0
    4.3288    3.6190    6.5790 N   0  0  0  0  0  0  0  0  0  0  0  0
    5.0142    3.5694    7.7455 C   0  0  0  0  0  0  0  0  0  0  0  0
    5.3592    4.9230    8.2616 C   0  0  0  0  0  0  0  0  0  0  0  0
    6.5628    5.2011    8.9351 C   0  0  0  0  0  0  0  0  0  0  0  0
    6.8492    6.4717    9.4435 C   0  0  0  0  0  0  0  0  0  0  0  0
    5.9771    7.5275    9.2070 C   0  0  0  0  0  0  0  0  0  0  0  0
    4.8232    7.3163    8.4511 C   0  0  0  0  0  0  0  0  0  0  0  0
    3.9895    8.4981    8.1096 C   0  0  0  0  0  0  0  0  0  0  0  0
    3.2763    8.4434    6.9444 N   0  0  0  0  0  0  0  0  0  0  0  0
    3.9911    9.5081    8.8016 O   0  0  0  0  0  0  0  0  0  0  0  0
    4.5022    6.0206    8.0166 C   0  0  0  0  0  0  0  0  0  0  0  0
    5.3542    2.3221    8.3279 C   0  0  0  0  0  0  0  0  0  0  0  0
    5.9790    2.1569    9.5964 C   0  0  0  0  0  0  0  0  0  0  0  0
    6.3516    0.9065   10.0925 C   0  0  0  0  0  0  0  0  0  0  0  0
    6.0591   -0.2332    9.3660 C   0  0  0  0  0  0  0  0  0  0  0  0
    5.3876   -0.1166    8.1504 C   0  0  0  0  0  0  0  0  0  0  0  0
    5.0287    1.1434    7.6051 C   0  0  0  0  0  0  0  0  0  0  0  0
    1.7562    0.6362    4.8253 C   0  0  0  0  0  0  0  0  0  0  0  0
    0.7309    0.4902    3.8813 C   0  0  0  0  0  0  0  0  0  0  0  0
   -0.9828   -1.8842    0.2129 H   0  0  0  0  0  0  0  0  0  0  0  0
   -0.1663   -2.6376    1.5910 H   0  0  0  0  0  0  0  0  0  0  0  0
    0.7687   -1.8528    0.3047 H   0  0  0  0  0  0  0  0  0  0  0  0
   -0.8739    0.6733   -0.0768 H   0  0  0  0  0  0  0  0  0  0  0  0
    0.8778    0.6886    0.1677 H   0  0  0  0  0  0  0  0  0  0  0  0
   -0.1657    1.6892    1.1855 H   0  0  0  0  0  0  0  0  0  0  0  0
   -2.4095   -0.4887    1.5273 H   0  0  0  0  0  0  0  0  0  0  0  0
   -1.8444    0.5507    2.8193 H   0  0  0  0  0  0  0  0  0  0  0  0
   -1.7926   -1.2089    3.0218 H   0  0  0  0  0  0  0  0  0  0  0  0
    2.3475   -1.5716    1.7248 H   0  0  0  0  0  0  0  0  0  0  0  0
    4.0948   -1.3389    3.3786 H   0  0  0  0  0  0  0  0  0  0  0  0
    4.8739   -0.3372    5.3392 H   0  0  0  0  0  0  0  0  0  0  0  0
    7.3177    4.4297    9.0687 H   0  0  0  0  0  0  0  0  0  0  0  0
    7.7663    6.6400   10.0025 H   0  0  0  0  0  0  0  0  0  0  0  0
    6.2151    8.5218    9.5794 H   0  0  0  0  0  0  0  0  0  0  0  0
    3.4377    7.7358    6.2407 H   0  0  0  0  0  0  0  0  0  0  0  0
    2.8399    9.3066    6.6465 H   0  0  0  0  0  0  0  0  0  0  0  0
    3.5708    5.8560    7.4763 H   0  0  0  0  0  0  0  0  0  0  0  0
    6.1718    3.0098   10.2409 H   0  0  0  0  0  0  0  0  0  0  0  0
    6.8552    0.8310   11.0533 H   0  0  0  0  0  0  0  0  0  0  0  0
    6.3265   -1.2132    9.7532 H   0  0  0  0  0  0  0  0  0  0  0  0
    5.1229   -1.0369    7.6313 H   0  0  0  0  0  0  0  0  0  0  0  0
    1.5707    1.2546    5.7005 H   0  0  0  0  0  0  0  0  0  0  0  0
   -0.1911    1.0342    4.0652 H   0  0  0  0  0  0  0  0  0  0  0  0
  1  2  1  0  0  0  0
  1 31  1  0  0  0  0
  1 32  1  0  0  0  0
  1 33  1  0  0  0  0
  2  3  1  0  0  0  0
  2  4  1  0  0  0  0
  2  5  1  0  0  0  0
  3 34  1  0  0  0  0
  3 35  1  0  0  0  0
  3 36  1  0  0  0  0
  4 37  1  0  0  0  0
  4 38  1  0  0  0  0
  4 39  1  0  0  0  0
  5  6  1  0  0  0  0
  5 30  2  0  0  0  0
  6  7  2  0  0  0  0
  6 40  1  0  0  0  0
  7  8  1  0  0  0  0
  7 41  1  0  0  0  0
  8  9  1  0  0  0  0
  8 29  2  0  0  0  0
  9 10  1  0  0  0  0
  9 42  1  0  0  0  0
 10 11  1  0  0  0  0
 10 28  2  0  0  0  0
 11 12  2  0  0  0  0
 12 13  1  0  0  0  0
 13 14  1  0  0  0  0
 13 23  2  0  0  0  0
 14 15  1  0  0  0  0
 14 22  2  0  0  0  0
 15 16  2  0  0  0  0
 15 43  1  0  0  0  0
 16 17  1  0  0  0  0
 16 44  1  0  0  0  0
 17 18  2  0  0  0  0
 17 45  1  0  0  0  0
 18 19  1  0  0  0  0
 18 22  1  0  0  0  0
 19 20  1  0  0  0  0
 19 21  2  0  0  0  0
 20 46  1  0  0  0  0
 20 47  1  0  0  0  0
 22 48  1  0  0  0  0
 23 24  1  0  0  0  0
 23 28  1  0  0  0  0
 24 25  2  0  0  0  0
 24 49  1  0  0  0  0
 25 26  1  0  0  0  0
 25 50  1  0  0  0  0
 26 27  2  0  0  0  0
 26 51  1  0  0  0  0
 27 28  1  0  0  0  0
 27 52  1  0  0  0  0
 29 30  1  0  0  0  0
 29 53  1  0  0  0  0
 30 54  1  0  0  0  0
M  END
$$$$
