CHEMBL3959522
 OpenBabel04072215373D

 51 55  0  0  0  0  0  0  0  0999 V2000
    0.0262    0.1652    0.0550 O   0  0  0  0  0  0  0  0  0  0  0  0
    0.8195   -0.4100   -0.6827 C   0  0  0  0  0  0  0  0  0  0  0  0
    1.5692    0.1577   -1.7014 N   0  0  0  0  0  0  0  0  0  0  0  0
    1.5888    1.5274   -2.0496 C   0  0  0  0  0  0  0  0  0  0  0  0
    1.0414    2.5231   -1.2353 C   0  0  0  0  0  0  0  0  0  0  0  0
    1.0296    3.8575   -1.6434 C   0  0  0  0  0  0  0  0  0  0  0  0
    1.5742    4.2160   -2.8716 C   0  0  0  0  0  0  0  0  0  0  0  0
    2.1354    3.2355   -3.6933 C   0  0  0  0  0  0  0  0  0  0  0  0
    2.7079    3.5417   -4.9146 O   0  0  0  0  0  0  0  0  0  0  0  0
    2.0182    4.4230   -5.7286 C   0  0  0  0  0  0  0  0  0  0  0  0
    2.7509    5.4012   -6.4124 C   0  0  0  0  0  0  0  0  0  0  0  0
    2.1033    6.3891   -7.1891 C   0  0  0  0  0  0  0  0  0  0  0  0
    0.7081    6.2873   -7.3634 C   0  0  0  0  0  0  0  0  0  0  0  0
   -0.3826    6.9609   -8.0226 C   0  0  0  0  0  0  0  0  0  0  0  0
   -1.3215    7.9301   -7.4490 C   0  0  0  0  0  0  0  0  0  0  0  0
   -1.4679    8.1446   -6.1256 C   0  0  0  0  0  0  0  0  0  0  0  0
   -2.7766    8.2380   -5.5321 C   0  0  0  0  0  0  0  0  0  0  0  0
   -4.0409    7.9762   -6.0487 C   0  0  0  0  0  0  0  0  0  0  0  0
   -5.0683    7.9321   -5.0573 C   0  0  0  0  0  0  0  0  0  0  0  0
   -4.5784    8.2052   -3.8032 C   0  0  0  0  0  0  0  0  0  0  0  0
   -2.9014    8.5290   -3.8278 S   0  0  0  0  0  0  0  0  0  0  0  0
   -1.0491    5.9771   -8.6640 N   0  0  0  0  0  0  0  0  0  0  0  0
   -1.0001    5.0015   -7.7366 N   0  0  0  0  0  0  0  0  0  0  0  0
    0.1049    5.1110   -6.9216 C   0  0  0  0  0  0  0  0  0  0  0  0
    0.6534    4.2531   -5.9770 C   0  0  0  0  0  0  0  0  0  0  0  0
    2.1696    1.8990   -3.2710 C   0  0  0  0  0  0  0  0  0  0  0  0
    0.9592   -1.8894   -0.5275 C   0  0  0  0  0  0  0  0  0  0  0  0
   -0.1841   -2.6257   -0.1751 C   0  0  0  0  0  0  0  0  0  0  0  0
   -0.1113   -4.0056   -0.0219 C   0  0  0  0  0  0  0  0  0  0  0  0
    1.1225   -4.6521   -0.1645 C   0  0  0  0  0  0  0  0  0  0  0  0
    2.2621   -3.9226   -0.5059 C   0  0  0  0  0  0  0  0  0  0  0  0
    2.1880   -2.5379   -0.6796 C   0  0  0  0  0  0  0  0  0  0  0  0
    2.0367   -0.4748   -2.3393 H   0  0  0  0  0  0  0  0  0  0  0  0
    0.6219    2.2955   -0.2601 H   0  0  0  0  0  0  0  0  0  0  0  0
    0.5868    4.6132   -0.9987 H   0  0  0  0  0  0  0  0  0  0  0  0
    1.5521    5.2575   -3.1782 H   0  0  0  0  0  0  0  0  0  0  0  0
    3.8376    5.3918   -6.3518 H   0  0  0  0  0  0  0  0  0  0  0  0
    2.6836    7.1363   -7.7227 H   0  0  0  0  0  0  0  0  0  0  0  0
   -2.1748    8.1089   -8.1038 H   0  0  0  0  0  0  0  0  0  0  0  0
   -0.6370    7.9505   -5.4522 H   0  0  0  0  0  0  0  0  0  0  0  0
   -4.2241    7.7295   -7.0885 H   0  0  0  0  0  0  0  0  0  0  0  0
   -6.1051    7.6860   -5.2532 H   0  0  0  0  0  0  0  0  0  0  0  0
   -5.1262    8.2233   -2.8700 H   0  0  0  0  0  0  0  0  0  0  0  0
   -1.6459    4.2294   -7.8001 H   0  0  0  0  0  0  0  0  0  0  0  0
    0.0849    3.4359   -5.5483 H   0  0  0  0  0  0  0  0  0  0  0  0
    2.6195    1.1564   -3.9226 H   0  0  0  0  0  0  0  0  0  0  0  0
   -1.1307   -2.1204   -0.0224 H   0  0  0  0  0  0  0  0  0  0  0  0
   -0.9885   -4.5703    0.2690 H   0  0  0  0  0  0  0  0  0  0  0  0
    1.1781   -5.7263   -0.0214 H   0  0  0  0  0  0  0  0  0  0  0  0
    3.2199   -4.4303   -0.6086 H   0  0  0  0  0  0  0  0  0  0  0  0
    3.0927   -1.9754   -0.8925 H   0  0  0  0  0  0  0  0  0  0  0  0
  1  2  2  0  0  0  0
  2  3  1  0  0  0  0
  2 27  1  0  0  0  0
  3  4  1  0  0  0  0
  3 33  1  0  0  0  0
  4  5  1  0  0  0  0
  4 26  2  0  0  0  0
  5  6  2  0  0  0  0
  5 34  1  0  0  0  0
  6  7  1  0  0  0  0
  6 35  1  0  0  0  0
  7  8  2  0  0  0  0
  7 36  1  0  0  0  0
  8  9  1  0  0  0  0
  8 26  1  0  0  0  0
  9 10  1  0  0  0  0
 10 11  1  0  0  0  0
 10 25  2  0  0  0  0
 11 12  2  0  0  0  0
 11 37  1  0  0  0  0
 12 13  1  0  0  0  0
 12 38  1  0  0  0  0
 13 14  1  0  0  0  0
 13 24  2  0  0  0  0
 14 15  1  0  0  0  0
 14 22  2  0  0  0  0
 15 16  2  0  0  0  0
 15 39  1  0  0  0  0
 16 17  1  0  0  0  0
 16 40  1  0  0  0  0
 17 18  2  0  0  0  0
 17 21  1  0  0  0  0
 18 19  1  0  0  0  0
 18 41  1  0  0  0  0
 19 20  2  0  0  0  0
 19 42  1  0  0  0  0
 20 21  1  0  0  0  0
 20 43  1  0  0  0  0
 22 23  1  0  0  0  0
 23 24  1  0  0  0  0
 23 44  1  0  0  0  0
 24 25  1  0  0  0  0
 25 45  1  0  0  0  0
 26 46  1  0  0  0  0
 27 28  1  0  0  0  0
 27 32  2  0  0  0  0
 28 29  2  0  0  0  0
 28 47  1  0  0  0  0
 29 30  1  0  0  0  0
 29 48  1  0  0  0  0
 30 31  2  0  0  0  0
 30 49  1  0  0  0  0
 31 32  1  0  0  0  0
 31 50  1  0  0  0  0
 32 51  1  0  0  0  0
M  END
$$$$
