CHEMBL3774935
 OpenBabel04072215373D

 40 42  0  0  0  0  0  0  0  0999 V2000
    3.4080   -0.8632   -0.7991 C   0  0  0  0  0  0  0  0  0  0  0  0
    2.5288   -0.1052    0.0342 O   0  0  0  0  0  0  0  0  0  0  0  0
    3.0298    1.0699    0.5276 C   0  0  0  0  0  0  0  0  0  0  0  0
    4.0405    1.7878   -0.1380 C   0  0  0  0  0  0  0  0  0  0  0  0
    4.6577    2.9028    0.4157 C   0  0  0  0  0  0  0  0  0  0  0  0
    5.6744    3.4485   -0.2538 N   0  0  0  0  0  0  0  0  0  0  0  0
    6.2862    4.4713    0.3420 C   0  0  0  0  0  0  0  0  0  0  0  0
    5.9932    4.9742    1.5410 N   0  0  0  0  0  0  0  0  0  0  0  0
    4.9666    4.4273    2.2307 C   0  0  0  0  0  0  0  0  0  0  0  0
    4.7370    4.9221    3.5478 N   0  0  0  0  0  0  0  0  0  0  0  0
    4.4643    3.9335    4.6015 C   0  0  0  0  0  0  0  0  0  0  0  0
    5.2182    6.1810    4.0173 C   0  0  0  0  0  0  0  0  0  0  0  0
    5.1700    7.3113    3.1795 C   0  0  0  0  0  0  0  0  0  0  0  0
    5.6695    8.5552    3.5850 C   0  0  0  0  0  0  0  0  0  0  0  0
    6.2315    8.7058    4.8490 C   0  0  0  0  0  0  0  0  0  0  0  0
    6.2684    7.6110    5.6977 C   0  0  0  0  0  0  0  0  0  0  0  0
    6.8068    7.6917    6.9512 O   0  0  0  0  0  0  0  0  0  0  0  0
    5.7609    6.3750    5.3005 C   0  0  0  0  0  0  0  0  0  0  0  0
    4.1935    3.3906    1.6420 C   0  0  0  0  0  0  0  0  0  0  0  0
    3.0348    2.7960    2.1906 C   0  0  0  0  0  0  0  0  0  0  0  0
    2.5025    1.6019    1.7029 C   0  0  0  0  0  0  0  0  0  0  0  0
    1.5344    1.1216    2.5340 O   0  0  0  0  0  0  0  0  0  0  0  0
    1.0651   -0.2072    2.3944 C   0  0  0  0  0  0  0  0  0  0  0  0
    3.1437   -1.9201   -0.6988 H   0  0  0  0  0  0  0  0  0  0  0  0
    4.4619   -0.7692   -0.5100 H   0  0  0  0  0  0  0  0  0  0  0  0
    3.2681   -0.5717   -1.8446 H   0  0  0  0  0  0  0  0  0  0  0  0
    4.4022    1.4585   -1.1087 H   0  0  0  0  0  0  0  0  0  0  0  0
    7.1048    4.9353   -0.1970 H   0  0  0  0  0  0  0  0  0  0  0  0
    4.3024    2.9127    4.2507 H   0  0  0  0  0  0  0  0  0  0  0  0
    3.5661    4.2376    5.1552 H   0  0  0  0  0  0  0  0  0  0  0  0
    5.2934    3.8114    5.3021 H   0  0  0  0  0  0  0  0  0  0  0  0
    4.7376    7.2282    2.1844 H   0  0  0  0  0  0  0  0  0  0  0  0
    5.6236    9.4012    2.9045 H   0  0  0  0  0  0  0  0  0  0  0  0
    6.6324    9.6682    5.1474 H   0  0  0  0  0  0  0  0  0  0  0  0
    7.1793    8.5837    7.0646 H   0  0  0  0  0  0  0  0  0  0  0  0
    5.8502    5.5710    6.0206 H   0  0  0  0  0  0  0  0  0  0  0  0
    2.5592    3.2368    3.0632 H   0  0  0  0  0  0  0  0  0  0  0  0
    0.6666   -0.5104    3.3695 H   0  0  0  0  0  0  0  0  0  0  0  0
    1.8487   -0.9270    2.1456 H   0  0  0  0  0  0  0  0  0  0  0  0
    0.2423   -0.2303    1.6761 H   0  0  0  0  0  0  0  0  0  0  0  0
  1  2  1  0  0  0  0
  1 24  1  0  0  0  0
  1 25  1  0  0  0  0
  1 26  1  0  0  0  0
  2  3  1  0  0  0  0
  3  4  1  0  0  0  0
  3 21  2  0  0  0  0
  4  5  2  0  0  0  0
  4 27  1  0  0  0  0
  5  6  1  0  0  0  0
  5 19  1  0  0  0  0
  6  7  2  0  0  0  0
  7  8  1  0  0  0  0
  7 28  1  0  0  0  0
  8  9  2  0  0  0  0
  9 10  1  0  0  0  0
  9 19  1  0  0  0  0
 10 11  1  0  0  0  0
 10 12  1  0  0  0  0
 11 29  1  0  0  0  0
 11 30  1  0  0  0  0
 11 31  1  0  0  0  0
 12 13  1  0  0  0  0
 12 18  2  0  0  0  0
 13 14  2  0  0  0  0
 13 32  1  0  0  0  0
 14 15  1  0  0  0  0
 14 33  1  0  0  0  0
 15 16  2  0  0  0  0
 15 34  1  0  0  0  0
 16 17  1  0  0  0  0
 16 18  1  0  0  0  0
 17 35  1  0  0  0  0
 18 36  1  0  0  0  0
 19 20  2  0  0  0  0
 20 21  1  0  0  0  0
 20 37  1  0  0  0  0
 21 22  1  0  0  0  0
 22 23  1  0  0  0  0
 23 38  1  0  0  0  0
 23 39  1  0  0  0  0
 23 40  1  0  0  0  0
M  END
$$$$
