CHEMBL4640401
 OpenBabel04072215383D

136144  0  0  1  0  0  0  0  0999 V2000
   12.1791   11.9614    5.5531 C   0  0  0  0  0  0  0  0  0  0  0  0
   12.2558   10.8593    4.5365 C   0  0  0  0  0  0  0  0  0  0  0  0
   11.8280    9.5723    4.8810 C   0  0  0  0  0  0  0  0  0  0  0  0
   11.9423    8.5367    3.9597 C   0  0  0  0  0  0  0  0  0  0  0  0
   12.4821    8.7766    2.6849 C   0  0  0  0  0  0  0  0  0  0  0  0
   12.5893    7.6371    1.7599 C   0  0  0  0  0  0  0  0  0  0  0  0
   11.7365    6.7705    1.9190 O   0  0  0  0  0  0  0  0  0  0  0  0
   13.6620    7.6309    0.8548 N   0  0  0  0  0  0  0  0  0  0  0  0
   14.0250    6.5078    0.0718 C   0  0  0  0  0  0  0  0  0  0  0  0
   13.2627    5.3717    0.1188 C   0  0  0  0  0  0  0  0  0  0  0  0
   13.6967    4.2115   -0.4772 C   0  0  0  0  0  0  0  0  0  0  0  0
   14.8471    4.0599   -1.2200 C   0  0  0  0  0  0  0  0  0  0  0  0
   15.2097    2.6822   -1.7632 C   0  0  0  0  0  0  0  0  0  0  0  0
   14.3958    1.4882   -1.4607 N   0  0  0  0  0  0  0  0  0  0  0  0
   13.0254    1.3507   -1.9611 C   0  0  0  0  0  0  0  0  0  0  0  0
   11.8657    1.6547   -0.9765 C   0  0  0  0  0  0  0  0  0  0  0  0
   12.1558    1.4140    0.4585 N   0  0  0  0  0  0  0  0  0  0  0  0
   11.2063    1.9083    1.3668 C   0  0  0  0  0  0  0  0  0  0  0  0
   10.1468    2.4157    1.0041 O   0  0  0  0  0  0  0  0  0  0  0  0
   11.5293    1.6985    2.8361 C   0  0  0  0  0  0  0  0  0  0  0  0
   10.8738    2.7106    3.7556 C   0  0  0  0  0  0  0  0  0  0  0  0
   11.2430    2.3602    5.1897 C   0  0  0  0  0  0  0  0  0  0  0  0
   10.6781    3.2952    6.1747 C   0  0  0  0  0  0  0  0  0  0  0  0
   11.1950    3.6172    7.3995 C   0  0  0  0  0  0  0  0  0  0  0  0
   10.3072    4.5131    7.9049 N   0  0  0  0  0  0  0  0  0  0  0  0
   10.3656    5.2351    9.1554 C   0  0  0  0  0  0  0  0  0  0  0  0
   11.6982    5.0282    9.8630 C   0  0  0  0  0  0  0  0  0  0  0  0
   12.7990    5.4332    9.0369 O   0  0  0  0  0  0  0  0  0  0  0  0
   12.7717    6.8123    8.6583 C   0  0  0  0  0  0  0  0  0  0  0  0
   12.9050    7.6774    9.9047 C   0  0  0  0  0  0  0  0  0  0  0  0
   14.1108    7.3360   10.5974 O   0  0  0  0  0  0  0  0  0  0  0  0
   15.2854    7.5940    9.8197 C   0  0  0  0  0  0  0  0  0  0  0  0
   15.3477    9.0810    9.4875 C   0  0  0  0  0  0  0  0  0  0  0  0
   15.3812    9.8529   10.7010 O   0  0  0  0  0  0  0  0  0  0  0  0
   16.5345    9.5820   11.5228 C   0  0  0  0  0  0  0  0  0  0  0  0
   17.7572    9.9328   10.7111 C   0  0  0  0  0  0  0  0  0  0  0  0
   19.0625    9.5394   11.2103 N   0  0  0  0  0  0  0  0  0  0  0  0
   20.0995    9.9413   10.3091 C   0  0  0  0  0  0  0  0  0  0  0  0
   21.3540    9.3504   10.4573 C   0  0  0  0  0  0  0  0  0  0  0  0
   22.5081    9.9851    9.9608 C   0  0  0  0  0  0  0  0  0  0  0  0
   22.4446   11.3201    9.5323 C   0  0  0  0  0  0  0  0  0  0  0  0
   21.1894   11.8810    9.4077 C   0  0  0  0  0  0  0  0  0  0  0  0
   20.0721   11.0952    9.5310 C   0  0  0  0  0  0  0  0  0  0  0  0
   18.9848   11.9354    9.0681 C   0  0  0  0  0  0  0  0  0  0  0  0
   18.0413   11.5608    8.3958 O   0  0  0  0  0  0  0  0  0  0  0  0
   19.3089   13.2032    9.4012 N   0  0  0  0  0  0  0  0  0  0  0  0
   18.2239   14.0643    9.8802 C   0  0  3  0  0  0  0  0  0  0  0  0
   18.0769   15.4647    9.3324 C   0  0  0  0  0  0  0  0  0  0  0  0
   19.1551   16.3944    9.8417 C   0  0  0  0  0  0  0  0  0  0  0  0
   19.3766   16.2817   11.3356 C   0  0  0  0  0  0  0  0  0  0  0  0
   19.9771   17.1450   11.9701 O   0  0  0  0  0  0  0  0  0  0  0  0
   18.8774   15.1743   11.9732 N   0  0  0  0  0  0  0  0  0  0  0  0
   18.2456   14.0941   11.4092 C   0  0  0  0  0  0  0  0  0  0  0  0
   17.8244   13.1719   12.1054 O   0  0  0  0  0  0  0  0  0  0  0  0
   20.6738   13.2785    9.4961 C   0  0  0  0  0  0  0  0  0  0  0  0
   21.3668   14.2307    9.7939 O   0  0  0  0  0  0  0  0  0  0  0  0
    9.3022    4.7451    7.0469 N   0  0  0  0  0  0  0  0  0  0  0  0
    9.5131    3.9849    5.9809 N   0  0  0  0  0  0  0  0  0  0  0  0
   13.5580    1.2682    0.8973 C   0  0  0  0  0  0  0  0  0  0  0  0
   14.5573    0.8340   -0.1709 C   0  0  0  0  0  0  0  0  0  0  0  0
   15.5967    5.2446   -1.3876 C   0  0  0  0  0  0  0  0  0  0  0  0
   16.8530    5.2979   -2.2343 C   0  0  0  0  0  0  0  0  0  0  0  0
   17.2441    4.1037   -2.7577 F   0  0  0  0  0  0  0  0  0  0  0  0
   16.7228    6.1377   -3.2986 F   0  0  0  0  0  0  0  0  0  0  0  0
   17.9275    5.7548   -1.5315 F   0  0  0  0  0  0  0  0  0  0  0  0
   15.1803    6.4588   -0.7237 C   0  0  0  0  0  0  0  0  0  0  0  0
   12.8608   10.0572    2.3125 C   0  0  0  0  0  0  0  0  0  0  0  0
   12.7576   11.0919    3.2414 C   0  0  0  0  0  0  0  0  0  0  0  0
   13.2137   12.3798    2.8333 C   0  0  0  0  0  0  0  0  0  0  0  0
   13.6508   13.4320    2.4576 C   0  0  0  0  0  0  0  0  0  0  0  0
   14.2149   14.6437    1.9992 C   0  0  0  0  0  0  0  0  0  0  0  0
   14.5751   14.9800    0.7114 C   0  0  0  0  0  0  0  0  0  0  0  0
   15.0794   16.2542    0.6537 N   0  0  0  0  0  0  0  0  0  0  0  0
   15.0204   16.7068    1.8875 C   0  0  0  0  0  0  0  0  0  0  0  0
   15.3901   17.9464    2.4441 C   0  0  0  0  0  0  0  0  0  0  0  0
   15.2224   18.1531    3.7553 C   0  0  0  0  0  0  0  0  0  0  0  0
   14.6431   17.0452    4.5521 C   0  0  0  0  0  0  0  0  0  0  0  0
   14.2792   15.8882    4.1024 N   0  0  0  0  0  0  0  0  0  0  0  0
   14.4762   15.7528    2.7513 N   0  0  0  0  0  0  0  0  0  0  0  0
   11.7330   11.6105    6.4884 H   0  0  0  0  0  0  0  0  0  0  0  0
   11.5606   12.7812    5.1763 H   0  0  0  0  0  0  0  0  0  0  0  0
   13.1854   12.3278    5.7800 H   0  0  0  0  0  0  0  0  0  0  0  0
   11.4028    9.3668    5.8603 H   0  0  0  0  0  0  0  0  0  0  0  0
   11.6069    7.5369    4.2374 H   0  0  0  0  0  0  0  0  0  0  0  0
   14.3111    8.4025    0.8640 H   0  0  0  0  0  0  0  0  0  0  0  0
   12.3269    5.2821    0.6513 H   0  0  0  0  0  0  0  0  0  0  0  0
   13.0772    3.3880   -0.2525 H   0  0  0  0  0  0  0  0  0  0  0  0
   16.2253    2.4651   -1.4070 H   0  0  0  0  0  0  0  0  0  0  0  0
   15.2743    2.7579   -2.8548 H   0  0  0  0  0  0  0  0  0  0  0  0
   12.9065    0.2927   -2.2306 H   0  0  0  0  0  0  0  0  0  0  0  0
   12.8851    1.8988   -2.8995 H   0  0  0  0  0  0  0  0  0  0  0  0
   10.9787    1.0649   -1.2335 H   0  0  0  0  0  0  0  0  0  0  0  0
   11.5310    2.6936   -1.1127 H   0  0  0  0  0  0  0  0  0  0  0  0
   12.6002    1.7638    3.0329 H   0  0  0  0  0  0  0  0  0  0  0  0
   11.2031    0.6836    3.0896 H   0  0  0  0  0  0  0  0  0  0  0  0
    9.7863    2.7139    3.6262 H   0  0  0  0  0  0  0  0  0  0  0  0
   11.2286    3.7219    3.5137 H   0  0  0  0  0  0  0  0  0  0  0  0
   12.3384    2.3555    5.2936 H   0  0  0  0  0  0  0  0  0  0  0  0
   10.9068    1.3453    5.4336 H   0  0  0  0  0  0  0  0  0  0  0  0
   12.1027    3.3068    7.8971 H   0  0  0  0  0  0  0  0  0  0  0  0
    9.5320    4.8992    9.7754 H   0  0  0  0  0  0  0  0  0  0  0  0
   10.1972    6.2920    8.9179 H   0  0  0  0  0  0  0  0  0  0  0  0
   11.8475    3.9684   10.0957 H   0  0  0  0  0  0  0  0  0  0  0  0
   11.7258    5.5393   10.8288 H   0  0  0  0  0  0  0  0  0  0  0  0
   11.8862    7.0627    8.0716 H   0  0  0  0  0  0  0  0  0  0  0  0
   13.6037    6.9604    7.9630 H   0  0  0  0  0  0  0  0  0  0  0  0
   12.0844    7.5096   10.6046 H   0  0  0  0  0  0  0  0  0  0  0  0
   12.8409    8.7421    9.6735 H   0  0  0  0  0  0  0  0  0  0  0  0
   15.3328    6.9700    8.9243 H   0  0  0  0  0  0  0  0  0  0  0  0
   16.1404    7.2663   10.4170 H   0  0  0  0  0  0  0  0  0  0  0  0
   14.4761    9.4220    8.9253 H   0  0  0  0  0  0  0  0  0  0  0  0
   16.1621    9.3120    8.8000 H   0  0  0  0  0  0  0  0  0  0  0  0
   16.5383    8.5591   11.9042 H   0  0  0  0  0  0  0  0  0  0  0  0
   16.4649   10.2348   12.3999 H   0  0  0  0  0  0  0  0  0  0  0  0
   17.6627   11.0130   10.6269 H   0  0  0  0  0  0  0  0  0  0  0  0
   17.7120    9.4790    9.7244 H   0  0  0  0  0  0  0  0  0  0  0  0
   19.2238   10.0045   12.1089 H   0  0  0  0  0  0  0  0  0  0  0  0
   21.4367    8.4051   10.9918 H   0  0  0  0  0  0  0  0  0  0  0  0
   23.4627    9.4678   10.0292 H   0  0  0  0  0  0  0  0  0  0  0  0
   23.3481   11.8856    9.3369 H   0  0  0  0  0  0  0  0  0  0  0  0
   17.2783   13.5540    9.6383 H   0  0  0  0  0  0  0  0  0  0  0  0
   17.1059   15.8544    9.6778 H   0  0  0  0  0  0  0  0  0  0  0  0
   18.0378   15.4552    8.2392 H   0  0  0  0  0  0  0  0  0  0  0  0
   18.8512   17.4249    9.6284 H   0  0  0  0  0  0  0  0  0  0  0  0
   20.0959   16.2129    9.3205 H   0  0  0  0  0  0  0  0  0  0  0  0
   18.9927   15.1578   12.9778 H   0  0  0  0  0  0  0  0  0  0  0  0
   13.5819    0.5318    1.7076 H   0  0  0  0  0  0  0  0  0  0  0  0
   13.8842    2.2207    1.3358 H   0  0  0  0  0  0  0  0  0  0  0  0
   14.4101   -0.2434   -0.3235 H   0  0  0  0  0  0  0  0  0  0  0  0
   15.5785    0.9337    0.2147 H   0  0  0  0  0  0  0  0  0  0  0  0
   15.7910    7.3524   -0.8436 H   0  0  0  0  0  0  0  0  0  0  0  0
   13.2104   10.2632    1.3047 H   0  0  0  0  0  0  0  0  0  0  0  0
   14.5108   14.3577   -0.1731 H   0  0  0  0  0  0  0  0  0  0  0  0
   15.8066   18.6989    1.7891 H   0  0  0  0  0  0  0  0  0  0  0  0
   15.4840   19.0778    4.2502 H   0  0  0  0  0  0  0  0  0  0  0  0
   14.5288   17.2541    5.6288 H   0  0  0  0  0  0  0  0  0  0  0  0
  1  2  1  0  0  0  0
  1 80  1  0  0  0  0
  1 81  1  0  0  0  0
  1 82  1  0  0  0  0
  2  3  1  0  0  0  0
  2 68  2  0  0  0  0
  3  4  2  0  0  0  0
  3 83  1  0  0  0  0
  4  5  1  0  0  0  0
  4 84  1  0  0  0  0
  5  6  1  0  0  0  0
  5 67  2  0  0  0  0
  6  7  2  0  0  0  0
  6  8  1  0  0  0  0
  8  9  1  0  0  0  0
  8 85  1  0  0  0  0
  9 10  1  0  0  0  0
  9 66  2  0  0  0  0
 10 11  2  0  0  0  0
 10 86  1  0  0  0  0
 11 12  1  0  0  0  0
 11 87  1  0  0  0  0
 12 13  1  0  0  0  0
 12 61  2  0  0  0  0
 13 14  1  0  0  0  0
 13 88  1  0  0  0  0
 13 89  1  0  0  0  0
 14 15  1  0  0  0  0
 14 60  1  0  0  0  0
 15 16  1  0  0  0  0
 15 90  1  0  0  0  0
 15 91  1  0  0  0  0
 16 17  1  0  0  0  0
 16 92  1  0  0  0  0
 16 93  1  0  0  0  0
 17 18  1  0  0  0  0
 17 59  1  0  0  0  0
 18 19  2  0  0  0  0
 18 20  1  0  0  0  0
 20 21  1  0  0  0  0
 20 94  1  0  0  0  0
 20 95  1  0  0  0  0
 21 22  1  0  0  0  0
 21 96  1  0  0  0  0
 21 97  1  0  0  0  0
 22 23  1  0  0  0  0
 22 98  1  0  0  0  0
 22 99  1  0  0  0  0
 23 24  2  0  0  0  0
 23 58  1  0  0  0  0
 24 25  1  0  0  0  0
 24100  1  0  0  0  0
 25 26  1  0  0  0  0
 25 57  1  0  0  0  0
 26 27  1  0  0  0  0
 26101  1  0  0  0  0
 26102  1  0  0  0  0
 27 28  1  0  0  0  0
 27103  1  0  0  0  0
 27104  1  0  0  0  0
 28 29  1  0  0  0  0
 29 30  1  0  0  0  0
 29105  1  0  0  0  0
 29106  1  0  0  0  0
 30 31  1  0  0  0  0
 30107  1  0  0  0  0
 30108  1  0  0  0  0
 31 32  1  0  0  0  0
 32 33  1  0  0  0  0
 32109  1  0  0  0  0
 32110  1  0  0  0  0
 33 34  1  0  0  0  0
 33111  1  0  0  0  0
 33112  1  0  0  0  0
 34 35  1  0  0  0  0
 35 36  1  0  0  0  0
 35113  1  0  0  0  0
 35114  1  0  0  0  0
 36 37  1  0  0  0  0
 36115  1  0  0  0  0
 36116  1  0  0  0  0
 37 38  1  0  0  0  0
 37117  1  0  0  0  0
 38 39  1  0  0  0  0
 38 43  2  0  0  0  0
 39 40  2  0  0  0  0
 39118  1  0  0  0  0
 40 41  1  0  0  0  0
 40119  1  0  0  0  0
 41 42  2  0  0  0  0
 41120  1  0  0  0  0
 42 43  1  0  0  0  0
 42 55  1  0  0  0  0
 43 44  1  0  0  0  0
 44 45  2  0  0  0  0
 44 46  1  0  0  0  0
 46 47  1  0  0  0  0
 46 55  1  0  0  0  0
 47 48  1  0  0  0  0
 47 53  1  0  0  0  0
 47121  1  0  0  0  0
 48 49  1  0  0  0  0
 48122  1  0  0  0  0
 48123  1  0  0  0  0
 49 50  1  0  0  0  0
 49124  1  0  0  0  0
 49125  1  0  0  0  0
 50 51  2  0  0  0  0
 50 52  1  0  0  0  0
 52 53  1  0  0  0  0
 52126  1  0  0  0  0
 53 54  2  0  0  0  0
 55 56  2  0  0  0  0
 57 58  2  0  0  0  0
 59 60  1  0  0  0  0
 59127  1  0  0  0  0
 59128  1  0  0  0  0
 60129  1  0  0  0  0
 60130  1  0  0  0  0
 61 62  1  0  0  0  0
 61 66  1  0  0  0  0
 62 63  1  0  0  0  0
 62 64  1  0  0  0  0
 62 65  1  0  0  0  0
 66131  1  0  0  0  0
 67 68  1  0  0  0  0
 67132  1  0  0  0  0
 68 69  1  0  0  0  0
 69 70  3  0  0  0  0
 70 71  1  0  0  0  0
 71 72  2  0  0  0  0
 71 79  1  0  0  0  0
 72 73  1  0  0  0  0
 72133  1  0  0  0  0
 73 74  2  0  0  0  0
 74 75  1  0  0  0  0
 74 79  1  0  0  0  0
 75 76  2  0  0  0  0
 75134  1  0  0  0  0
 76 77  1  0  0  0  0
 76135  1  0  0  0  0
 77 78  2  0  0  0  0
 77136  1  0  0  0  0
 78 79  1  0  0  0  0
M  END
$$$$
