CHEMBL1992473
 OpenBabel04072215363D

 77 83  0  0  0  0  0  0  0  0999 V2000
    0.7030    2.0502   -1.2926 C   0  0  0  0  0  0  0  0  0  0  0  0
    1.7646    1.1750   -0.7702 N   0  0  0  0  0  0  0  0  0  0  0  0
    1.9354   -0.0479   -1.5496 C   0  0  0  0  0  0  0  0  0  0  0  0
    2.8823    1.8015   -0.1508 C   0  0  0  0  0  0  0  0  0  0  0  0
    2.6410    2.6350    0.9964 C   0  0  0  0  0  0  0  0  0  0  0  0
    1.3239    2.8609    1.4692 N   0  0  0  0  0  0  0  0  0  0  0  0
    0.8603    4.1335    1.7891 C   0  0  0  0  0  0  0  0  0  0  0  0
    1.5639    5.1398    1.7591 O   0  0  0  0  0  0  0  0  0  0  0  0
   -0.5798    4.2773    2.1320 C   0  0  0  0  0  0  0  0  0  0  0  0
   -1.4311    3.1837    2.2854 C   0  0  0  0  0  0  0  0  0  0  0  0
   -0.9899    1.9311    2.1004 F   0  0  0  0  0  0  0  0  0  0  0  0
   -2.7747    3.3500    2.6261 C   0  0  0  0  0  0  0  0  0  0  0  0
   -3.2987    4.6248    2.8190 C   0  0  0  0  0  0  0  0  0  0  0  0
   -2.4684    5.7298    2.6675 C   0  0  0  0  0  0  0  0  0  0  0  0
   -1.1222    5.5537    2.3273 C   0  0  0  0  0  0  0  0  0  0  0  0
   -0.3898    6.6673    2.1717 F   0  0  0  0  0  0  0  0  0  0  0  0
    3.6817    3.1902    1.7581 C   0  0  0  0  0  0  0  0  0  0  0  0
    4.9985    2.9881    1.4044 C   0  0  0  0  0  0  0  0  0  0  0  0
    5.2776    2.2768    0.2470 C   0  0  0  0  0  0  0  0  0  0  0  0
    4.2638    1.6657   -0.5385 C   0  0  0  0  0  0  0  0  0  0  0  0
    4.7362    1.0064   -1.7700 C   0  0  0  0  0  0  0  0  0  0  0  0
    4.1370    1.2664   -2.9989 N   0  0  0  0  0  0  0  0  0  0  0  0
    4.7438    0.4582   -3.8140 C   0  0  0  0  0  0  0  0  0  0  0  0
    4.4870   -0.0118   -5.4654 S   0  0  0  0  0  0  0  0  0  0  0  0
    5.7798   -1.2044   -5.2862 C   0  0  0  0  0  0  0  0  0  0  0  0
    6.3348   -1.1965   -4.0625 C   0  0  0  0  0  0  0  0  0  0  0  0
    5.7416   -0.2606   -3.2349 N   0  0  0  0  0  0  0  0  0  0  0  0
    5.8510    0.1505   -1.9234 C   0  0  0  0  0  0  0  0  0  0  0  0
    6.9143   -0.3020   -1.0273 C   0  0  0  0  0  0  0  0  0  0  0  0
    8.2206   -0.4496   -1.4545 C   0  0  0  0  0  0  0  0  0  0  0  0
    9.1262   -0.8135   -0.4952 C   0  0  0  0  0  0  0  0  0  0  0  0
    8.8033   -0.9635    0.7938 N   0  0  0  0  0  0  0  0  0  0  0  0
    7.5156   -0.7740    1.1335 C   0  0  0  0  0  0  0  0  0  0  0  0
    7.1498   -0.8750    2.4701 N   0  0  0  0  0  0  0  0  0  0  0  0
    7.9487   -0.7065    3.6101 C   0  0  0  0  0  0  0  0  0  0  0  0
    9.0835    0.1078    3.6181 C   0  0  0  0  0  0  0  0  0  0  0  0
    9.8954    0.1796    4.7444 C   0  0  0  0  0  0  0  0  0  0  0  0
    9.5867   -0.5818    5.8719 C   0  0  0  0  0  0  0  0  0  0  0  0
    8.4605   -1.4159    5.9151 C   0  0  0  0  0  0  0  0  0  0  0  0
    8.1575   -2.1607    7.0336 N   0  0  0  0  0  0  0  0  0  0  0  0
    6.7876   -2.5685    7.3725 C   0  0  0  0  0  0  0  0  0  0  0  0
    6.5216   -2.2394    8.8523 C   0  0  0  0  0  0  0  0  0  0  0  0
    7.5036   -2.8284    9.7228 O   0  0  0  0  0  0  0  0  0  0  0  0
    8.8204   -2.3592    9.3794 C   0  0  0  0  0  0  0  0  0  0  0  0
    9.1792   -2.7189    7.9310 C   0  0  0  0  0  0  0  0  0  0  0  0
    7.6514   -1.4449    4.7662 C   0  0  0  0  0  0  0  0  0  0  0  0
    6.5456   -0.4988    0.2506 N   0  0  0  0  0  0  0  0  0  0  0  0
    0.1336    1.5471   -2.0849 H   0  0  0  0  0  0  0  0  0  0  0  0
    1.0862    2.9887   -1.7021 H   0  0  0  0  0  0  0  0  0  0  0  0
   -0.0493    2.2647   -0.5290 H   0  0  0  0  0  0  0  0  0  0  0  0
    0.9807   -0.5852   -1.5942 H   0  0  0  0  0  0  0  0  0  0  0  0
    2.6594   -0.7338   -1.1015 H   0  0  0  0  0  0  0  0  0  0  0  0
    2.1861    0.1600   -2.5913 H   0  0  0  0  0  0  0  0  0  0  0  0
    0.6660    2.1195    1.2598 H   0  0  0  0  0  0  0  0  0  0  0  0
   -3.4082    2.4730    2.7449 H   0  0  0  0  0  0  0  0  0  0  0  0
   -4.3429    4.7587    3.0840 H   0  0  0  0  0  0  0  0  0  0  0  0
   -2.8521    6.7388    2.7963 H   0  0  0  0  0  0  0  0  0  0  0  0
    3.4609    3.7574    2.6595 H   0  0  0  0  0  0  0  0  0  0  0  0
    5.7988    3.3949    2.0151 H   0  0  0  0  0  0  0  0  0  0  0  0
    6.3235    2.2014   -0.0397 H   0  0  0  0  0  0  0  0  0  0  0  0
    6.0504   -1.8690   -6.0955 H   0  0  0  0  0  0  0  0  0  0  0  0
    7.1228   -1.8434   -3.7136 H   0  0  0  0  0  0  0  0  0  0  0  0
    8.5410   -0.2775   -2.4721 H   0  0  0  0  0  0  0  0  0  0  0  0
   10.1729   -0.9913   -0.7335 H   0  0  0  0  0  0  0  0  0  0  0  0
    6.1510   -0.8033    2.5941 H   0  0  0  0  0  0  0  0  0  0  0  0
    9.3420    0.7051    2.7480 H   0  0  0  0  0  0  0  0  0  0  0  0
   10.7693    0.8248    4.7450 H   0  0  0  0  0  0  0  0  0  0  0  0
   10.2362   -0.4823    6.7362 H   0  0  0  0  0  0  0  0  0  0  0  0
    6.6883   -3.6472    7.2031 H   0  0  0  0  0  0  0  0  0  0  0  0
    6.0287   -2.0558    6.7727 H   0  0  0  0  0  0  0  0  0  0  0  0
    5.5409   -2.6249    9.1467 H   0  0  0  0  0  0  0  0  0  0  0  0
    6.5161   -1.1539    9.0104 H   0  0  0  0  0  0  0  0  0  0  0  0
    9.5293   -2.8289   10.0677 H   0  0  0  0  0  0  0  0  0  0  0  0
    8.8656   -1.2746    9.5366 H   0  0  0  0  0  0  0  0  0  0  0  0
    9.1720   -3.8105    7.8168 H   0  0  0  0  0  0  0  0  0  0  0  0
   10.1964   -2.3864    7.7047 H   0  0  0  0  0  0  0  0  0  0  0  0
    6.7982   -2.1158    4.7265 H   0  0  0  0  0  0  0  0  0  0  0  0
  1  2  1  0  0  0  0
  1 48  1  0  0  0  0
  1 49  1  0  0  0  0
  1 50  1  0  0  0  0
  2  3  1  0  0  0  0
  2  4  1  0  0  0  0
  3 51  1  0  0  0  0
  3 52  1  0  0  0  0
  3 53  1  0  0  0  0
  4  5  1  0  0  0  0
  4 20  2  0  0  0  0
  5  6  1  0  0  0  0
  5 17  2  0  0  0  0
  6  7  1  0  0  0  0
  6 54  1  0  0  0  0
  7  8  2  0  0  0  0
  7  9  1  0  0  0  0
  9 10  1  0  0  0  0
  9 15  2  0  0  0  0
 10 11  1  0  0  0  0
 10 12  2  0  0  0  0
 12 13  1  0  0  0  0
 12 55  1  0  0  0  0
 13 14  2  0  0  0  0
 13 56  1  0  0  0  0
 14 15  1  0  0  0  0
 14 57  1  0  0  0  0
 15 16  1  0  0  0  0
 17 18  1  0  0  0  0
 17 58  1  0  0  0  0
 18 19  2  0  0  0  0
 18 59  1  0  0  0  0
 19 20  1  0  0  0  0
 19 60  1  0  0  0  0
 20 21  1  0  0  0  0
 21 22  1  0  0  0  0
 21 28  2  0  0  0  0
 22 23  2  0  0  0  0
 23 24  1  0  0  0  0
 23 27  1  0  0  0  0
 24 25  1  0  0  0  0
 25 26  2  0  0  0  0
 25 61  1  0  0  0  0
 26 27  1  0  0  0  0
 26 62  1  0  0  0  0
 27 28  1  0  0  0  0
 28 29  1  0  0  0  0
 29 30  1  0  0  0  0
 29 47  2  0  0  0  0
 30 31  2  0  0  0  0
 30 63  1  0  0  0  0
 31 32  1  0  0  0  0
 31 64  1  0  0  0  0
 32 33  2  0  0  0  0
 33 34  1  0  0  0  0
 33 47  1  0  0  0  0
 34 35  1  0  0  0  0
 34 65  1  0  0  0  0
 35 36  1  0  0  0  0
 35 46  2  0  0  0  0
 36 37  2  0  0  0  0
 36 66  1  0  0  0  0
 37 38  1  0  0  0  0
 37 67  1  0  0  0  0
 38 39  2  0  0  0  0
 38 68  1  0  0  0  0
 39 40  1  0  0  0  0
 39 46  1  0  0  0  0
 40 41  1  0  0  0  0
 40 45  1  0  0  0  0
 41 42  1  0  0  0  0
 41 69  1  0  0  0  0
 41 70  1  0  0  0  0
 42 43  1  0  0  0  0
 42 71  1  0  0  0  0
 42 72  1  0  0  0  0
 43 44  1  0  0  0  0
 44 45  1  0  0  0  0
 44 73  1  0  0  0  0
 44 74  1  0  0  0  0
 45 75  1  0  0  0  0
 45 76  1  0  0  0  0
 46 77  1  0  0  0  0
M  END
$$$$
