CHEMBL194842
 OpenBabel04072215363D

 60 64  0  0  0  0  0  0  0  0999 V2000
    2.4802   -0.4499    1.5528 C   0  0  0  0  0  0  0  0  0  0  0  0
    0.9840   -0.3208    1.5508 C   0  0  0  0  0  0  0  0  0  0  0  0
    0.3722    0.8568    1.9914 C   0  0  0  0  0  0  0  0  0  0  0  0
   -1.0127    0.9698    1.9798 C   0  0  0  0  0  0  0  0  0  0  0  0
   -1.7972   -0.0877    1.5219 C   0  0  0  0  0  0  0  0  0  0  0  0
   -1.2087   -1.2665    1.0580 C   0  0  0  0  0  0  0  0  0  0  0  0
   -1.9499   -2.3628    0.5601 N   0  0  0  0  0  0  0  0  0  0  0  0
   -3.3050   -2.3637    0.2957 C   0  0  0  0  0  0  0  0  0  0  0  0
   -4.0404   -1.3854    0.3646 O   0  0  0  0  0  0  0  0  0  0  0  0
   -3.7635   -3.6402   -0.0249 N   0  0  0  0  0  0  0  0  0  0  0  0
   -5.1556   -3.7990   -0.1879 C   0  0  0  0  0  0  0  0  0  0  0  0
   -5.8780   -3.0295   -1.0930 C   0  0  0  0  0  0  0  0  0  0  0  0
   -7.2807   -3.0879   -1.1128 C   0  0  0  0  0  0  0  0  0  0  0  0
   -8.0094   -3.8043   -0.1517 C   0  0  0  0  0  0  0  0  0  0  0  0
   -9.5080   -3.8017   -0.0393 C   0  0  0  0  0  0  0  0  0  0  0  0
  -10.2913   -2.7461   -0.5742 C   0  0  0  0  0  0  0  0  0  0  0  0
   -9.8787   -1.4551   -1.2764 C   0  0  0  0  0  0  0  0  0  0  0  0
  -10.8745   -0.3812   -1.4855 N   0  0  0  0  0  0  0  0  0  0  0  0
  -10.2842    0.7127   -2.3055 C   0  0  0  0  0  0  0  0  0  0  0  0
   -9.2810    1.5953   -1.5391 C   0  0  0  0  0  0  0  0  0  0  0  0
   -9.8860    2.1747   -0.3794 O   0  0  0  0  0  0  0  0  0  0  0  0
  -10.4299    1.1707    0.4833 C   0  0  0  0  0  0  0  0  0  0  0  0
  -11.4016    0.2355   -0.2517 C   0  0  0  0  0  0  0  0  0  0  0  0
  -11.9624   -3.1250   -0.5077 S   0  0  0  0  0  0  0  0  0  0  0  0
  -11.7199   -4.4083    0.5530 C   0  0  0  0  0  0  0  0  0  0  0  0
  -12.8091   -4.9604    1.1127 N   0  0  0  0  0  0  0  0  0  0  0  0
  -12.5288   -6.0065    1.8690 C   0  0  0  0  0  0  0  0  0  0  0  0
  -11.3279   -6.5508    2.0475 N   0  0  0  0  0  0  0  0  0  0  0  0
  -10.2510   -5.9967    1.4500 C   0  0  0  0  0  0  0  0  0  0  0  0
   -9.1149   -6.7781    1.6947 N   0  0  0  0  0  0  0  0  0  0  0  0
  -10.3894   -4.7905    0.6924 C   0  0  0  0  0  0  0  0  0  0  0  0
   -7.2283   -4.5304    0.7424 C   0  0  0  0  0  0  0  0  0  0  0  0
   -5.8354   -4.6266    0.6803 C   0  0  0  0  0  0  0  0  0  0  0  0
    0.1833   -1.3826    1.0948 C   0  0  0  0  0  0  0  0  0  0  0  0
    2.9535    0.4529    1.9646 H   0  0  0  0  0  0  0  0  0  0  0  0
    2.8443   -0.5866    0.5341 H   0  0  0  0  0  0  0  0  0  0  0  0
    2.7837   -1.2969    2.1720 H   0  0  0  0  0  0  0  0  0  0  0  0
    0.9708    1.6934    2.3430 H   0  0  0  0  0  0  0  0  0  0  0  0
   -1.4915    1.8833    2.3202 H   0  0  0  0  0  0  0  0  0  0  0  0
   -2.8729    0.0527    1.5469 H   0  0  0  0  0  0  0  0  0  0  0  0
   -1.4297   -3.1588    0.2227 H   0  0  0  0  0  0  0  0  0  0  0  0
   -3.3069   -4.3600    0.5184 H   0  0  0  0  0  0  0  0  0  0  0  0
   -5.3625   -2.3458   -1.7652 H   0  0  0  0  0  0  0  0  0  0  0  0
   -7.7450   -2.4941   -1.8856 H   0  0  0  0  0  0  0  0  0  0  0  0
   -9.5730   -1.7627   -2.2847 H   0  0  0  0  0  0  0  0  0  0  0  0
   -9.0129   -1.0467   -0.7465 H   0  0  0  0  0  0  0  0  0  0  0  0
  -11.1092    1.3519   -2.6475 H   0  0  0  0  0  0  0  0  0  0  0  0
   -9.8162    0.3121   -3.2126 H   0  0  0  0  0  0  0  0  0  0  0  0
   -8.9522    2.4202   -2.1797 H   0  0  0  0  0  0  0  0  0  0  0  0
   -8.3830    1.0403   -1.2443 H   0  0  0  0  0  0  0  0  0  0  0  0
  -10.9755    1.6940    1.2758 H   0  0  0  0  0  0  0  0  0  0  0  0
   -9.6156    0.6112    0.9558 H   0  0  0  0  0  0  0  0  0  0  0  0
  -12.2788    0.8265   -0.5496 H   0  0  0  0  0  0  0  0  0  0  0  0
  -11.7813   -0.5091    0.4518 H   0  0  0  0  0  0  0  0  0  0  0  0
  -13.3579   -6.4760    2.3869 H   0  0  0  0  0  0  0  0  0  0  0  0
   -9.4952   -7.6185    2.1368 H   0  0  0  0  0  0  0  0  0  0  0  0
   -8.5328   -6.3550    2.4050 H   0  0  0  0  0  0  0  0  0  0  0  0
   -7.6777   -4.9832    1.6060 H   0  0  0  0  0  0  0  0  0  0  0  0
   -5.3120   -5.2508    1.3979 H   0  0  0  0  0  0  0  0  0  0  0  0
    0.6691   -2.2925    0.7448 H   0  0  0  0  0  0  0  0  0  0  0  0
  1  2  1  0  0  0  0
  1 35  1  0  0  0  0
  1 36  1  0  0  0  0
  1 37  1  0  0  0  0
  2  3  1  0  0  0  0
  2 34  2  0  0  0  0
  3  4  2  0  0  0  0
  3 38  1  0  0  0  0
  4  5  1  0  0  0  0
  4 39  1  0  0  0  0
  5  6  2  0  0  0  0
  5 40  1  0  0  0  0
  6  7  1  0  0  0  0
  6 34  1  0  0  0  0
  7  8  1  0  0  0  0
  7 41  1  0  0  0  0
  8  9  2  0  0  0  0
  8 10  1  0  0  0  0
 10 11  1  0  0  0  0
 10 42  1  0  0  0  0
 11 12  1  0  0  0  0
 11 33  2  0  0  0  0
 12 13  2  0  0  0  0
 12 43  1  0  0  0  0
 13 14  1  0  0  0  0
 13 44  1  0  0  0  0
 14 15  1  0  0  0  0
 14 32  2  0  0  0  0
 15 16  2  0  0  0  0
 15 31  1  0  0  0  0
 16 17  1  0  0  0  0
 16 24  1  0  0  0  0
 17 18  1  0  0  0  0
 17 45  1  0  0  0  0
 17 46  1  0  0  0  0
 18 19  1  0  0  0  0
 18 23  1  0  0  0  0
 19 20  1  0  0  0  0
 19 47  1  0  0  0  0
 19 48  1  0  0  0  0
 20 21  1  0  0  0  0
 20 49  1  0  0  0  0
 20 50  1  0  0  0  0
 21 22  1  0  0  0  0
 22 23  1  0  0  0  0
 22 51  1  0  0  0  0
 22 52  1  0  0  0  0
 23 53  1  0  0  0  0
 23 54  1  0  0  0  0
 24 25  1  0  0  0  0
 25 26  1  0  0  0  0
 25 31  2  0  0  0  0
 26 27  2  0  0  0  0
 27 28  1  0  0  0  0
 27 55  1  0  0  0  0
 28 29  2  0  0  0  0
 29 30  1  0  0  0  0
 29 31  1  0  0  0  0
 30 56  1  0  0  0  0
 30 57  1  0  0  0  0
 32 33  1  0  0  0  0
 32 58  1  0  0  0  0
 33 59  1  0  0  0  0
 34 60  1  0  0  0  0
M  END
$$$$
