CHEMBL2022855
 OpenBabel04072215363D

 63 68  0  0  1  0  0  0  0  0999 V2000
    0.0869   -6.8973    2.8548 C   0  0  0  0  0  0  0  0  0  0  0  0
    0.6445   -5.7162    2.2387 N   0  0  0  0  0  0  0  0  0  0  0  0
    1.1670   -4.6276    3.0155 C   0  0  0  0  0  0  0  0  0  0  0  0
    1.6157   -3.6144    1.9830 C   0  0  0  0  0  0  0  0  0  0  0  0
    1.9368   -4.4471    0.7309 C   0  0  3  0  0  0  0  0  0  0  0  0
    1.5790   -3.8515   -0.5415 N   0  0  0  0  0  0  0  0  0  0  0  0
    1.8194   -4.3822   -1.7808 C   0  0  0  0  0  0  0  0  0  0  0  0
    1.2285   -3.5366   -2.6980 C   0  0  0  0  0  0  0  0  0  0  0  0
    1.1846   -3.7916   -4.1251 C   0  0  0  0  0  0  0  0  0  0  0  0
    1.1433   -5.0814   -4.6250 C   0  0  0  0  0  0  0  0  0  0  0  0
    1.1471   -5.3998   -5.9275 N   0  0  0  0  0  0  0  0  0  0  0  0
    1.1630   -4.4269   -6.8566 C   0  0  0  0  0  0  0  0  0  0  0  0
    1.2347   -4.9179   -8.1515 N   0  0  0  0  0  0  0  0  0  0  0  0
    1.1257   -3.0497   -6.4764 C   0  0  0  0  0  0  0  0  0  0  0  0
    1.0424   -1.8039   -7.2631 C   0  0  0  0  0  0  0  0  0  0  0  0
    0.9257   -1.6242   -8.7153 C   0  0  0  0  0  0  0  0  0  0  0  0
    0.1878   -2.5277   -9.4713 C   0  0  0  0  0  0  0  0  0  0  0  0
    0.1978   -2.4691  -10.8607 C   0  0  0  0  0  0  0  0  0  0  0  0
    0.8144   -1.4132  -11.5301 C   0  0  0  0  0  0  0  0  0  0  0  0
    0.7776   -1.3005  -12.9357 N   0  0  0  0  0  0  0  0  0  0  0  0
   -0.1545   -1.9401  -13.7279 C   0  0  0  0  0  0  0  0  0  0  0  0
   -1.1279   -2.5589  -13.3036 O   0  0  0  0  0  0  0  0  0  0  0  0
    0.1389   -1.8318  -15.0749 N   0  0  0  0  0  0  0  0  0  0  0  0
   -0.7399   -2.3533  -16.0491 C   0  0  0  0  0  0  0  0  0  0  0  0
   -2.1317   -2.2495  -15.9104 C   0  0  0  0  0  0  0  0  0  0  0  0
   -2.9902   -2.8285  -16.8462 C   0  0  0  0  0  0  0  0  0  0  0  0
   -2.4560   -3.5173  -17.9284 C   0  0  0  0  0  0  0  0  0  0  0  0
   -1.0751   -3.6036  -18.0716 C   0  0  0  0  0  0  0  0  0  0  0  0
   -0.5647   -4.2905  -19.1023 F   0  0  0  0  0  0  0  0  0  0  0  0
   -0.2097   -3.0114  -17.1548 C   0  0  0  0  0  0  0  0  0  0  0  0
    1.4883   -0.4483  -10.7847 C   0  0  0  0  0  0  0  0  0  0  0  0
    1.5547   -0.5613   -9.3875 C   0  0  0  0  0  0  0  0  0  0  0  0
    1.0483   -0.6876   -6.4543 C   0  0  0  0  0  0  0  0  0  0  0  0
    1.2419   -1.0564   -4.8214 S   0  0  0  0  0  0  0  0  0  0  0  0
    1.1702   -2.7629   -5.0933 C   0  0  0  0  0  0  0  0  0  0  0  0
    0.7077   -2.4944   -1.9007 C   0  0  0  0  0  0  0  0  0  0  0  0
    0.9599   -2.6574   -0.6008 N   0  0  0  0  0  0  0  0  0  0  0  0
    1.1742   -5.7411    0.9601 C   0  0  0  0  0  0  0  0  0  0  0  0
    1.1057   -6.6814    0.1802 O   0  0  0  0  0  0  0  0  0  0  0  0
   -0.3232   -6.6534    3.8342 H   0  0  0  0  0  0  0  0  0  0  0  0
    0.8697   -7.6571    2.9449 H   0  0  0  0  0  0  0  0  0  0  0  0
   -0.7056   -7.2894    2.2078 H   0  0  0  0  0  0  0  0  0  0  0  0
    2.0102   -4.9910    3.6169 H   0  0  0  0  0  0  0  0  0  0  0  0
    0.3905   -4.2265    3.6714 H   0  0  0  0  0  0  0  0  0  0  0  0
    2.4823   -3.0376    2.3239 H   0  0  0  0  0  0  0  0  0  0  0  0
    0.8023   -2.9003    1.8166 H   0  0  0  0  0  0  0  0  0  0  0  0
    3.0087   -4.6776    0.6982 H   0  0  0  0  0  0  0  0  0  0  0  0
    2.3377   -5.3258   -1.8889 H   0  0  0  0  0  0  0  0  0  0  0  0
    1.1082   -5.9447   -3.9642 H   0  0  0  0  0  0  0  0  0  0  0  0
    1.4347   -5.9118   -8.1292 H   0  0  0  0  0  0  0  0  0  0  0  0
    1.8014   -4.3686   -8.7828 H   0  0  0  0  0  0  0  0  0  0  0  0
   -0.3868   -3.3241   -9.0044 H   0  0  0  0  0  0  0  0  0  0  0  0
   -0.2913   -3.2824  -11.3883 H   0  0  0  0  0  0  0  0  0  0  0  0
    1.2547   -0.5166  -13.3582 H   0  0  0  0  0  0  0  0  0  0  0  0
    1.1298   -1.8408  -15.2910 H   0  0  0  0  0  0  0  0  0  0  0  0
   -2.5692   -1.7269  -15.0591 H   0  0  0  0  0  0  0  0  0  0  0  0
   -4.0665   -2.7549  -16.7108 H   0  0  0  0  0  0  0  0  0  0  0  0
   -3.1051   -3.9942  -18.6554 H   0  0  0  0  0  0  0  0  0  0  0  0
    0.8588   -3.1358  -17.2879 H   0  0  0  0  0  0  0  0  0  0  0  0
    1.9620    0.4037  -11.2651 H   0  0  0  0  0  0  0  0  0  0  0  0
    2.1057    0.1978   -8.8368 H   0  0  0  0  0  0  0  0  0  0  0  0
    0.9650    0.3508   -6.7453 H   0  0  0  0  0  0  0  0  0  0  0  0
    0.1481   -1.6191   -2.2018 H   0  0  0  0  0  0  0  0  0  0  0  0
  1  2  1  0  0  0  0
  1 40  1  0  0  0  0
  1 41  1  0  0  0  0
  1 42  1  0  0  0  0
  2  3  1  0  0  0  0
  2 38  1  0  0  0  0
  3  4  1  0  0  0  0
  3 43  1  0  0  0  0
  3 44  1  0  0  0  0
  4  5  1  0  0  0  0
  4 45  1  0  0  0  0
  4 46  1  0  0  0  0
  5  6  1  0  0  0  0
  5 38  1  0  0  0  0
  5 47  1  0  0  0  0
  6  7  1  0  0  0  0
  6 37  1  0  0  0  0
  7  8  2  0  0  0  0
  7 48  1  0  0  0  0
  8  9  1  0  0  0  0
  8 36  1  0  0  0  0
  9 10  1  0  0  0  0
  9 35  2  0  0  0  0
 10 11  2  0  0  0  0
 10 49  1  0  0  0  0
 11 12  1  0  0  0  0
 12 13  1  0  0  0  0
 12 14  2  0  0  0  0
 13 50  1  0  0  0  0
 13 51  1  0  0  0  0
 14 15  1  0  0  0  0
 14 35  1  0  0  0  0
 15 16  1  0  0  0  0
 15 33  2  0  0  0  0
 16 17  1  0  0  0  0
 16 32  2  0  0  0  0
 17 18  2  0  0  0  0
 17 52  1  0  0  0  0
 18 19  1  0  0  0  0
 18 53  1  0  0  0  0
 19 20  1  0  0  0  0
 19 31  2  0  0  0  0
 20 21  1  0  0  0  0
 20 54  1  0  0  0  0
 21 22  2  0  0  0  0
 21 23  1  0  0  0  0
 23 24  1  0  0  0  0
 23 55  1  0  0  0  0
 24 25  1  0  0  0  0
 24 30  2  0  0  0  0
 25 26  2  0  0  0  0
 25 56  1  0  0  0  0
 26 27  1  0  0  0  0
 26 57  1  0  0  0  0
 27 28  2  0  0  0  0
 27 58  1  0  0  0  0
 28 29  1  0  0  0  0
 28 30  1  0  0  0  0
 30 59  1  0  0  0  0
 31 32  1  0  0  0  0
 31 60  1  0  0  0  0
 32 61  1  0  0  0  0
 33 34  1  0  0  0  0
 33 62  1  0  0  0  0
 34 35  1  0  0  0  0
 36 37  2  0  0  0  0
 36 63  1  0  0  0  0
 38 39  2  0  0  0  0
M  END
$$$$
