CHEMBL3690534
 OpenBabel04072215373D

 55 58  0  0  0  0  0  0  0  0999 V2000
    6.9985    3.7322    0.8639 N   0  0  0  0  0  0  0  0  0  0  0  0
    7.5455    2.5315    0.2101 C   0  0  0  0  0  0  0  0  0  0  0  0
    6.5076    1.3861    0.1416 C   0  0  0  0  0  0  0  0  0  0  0  0
    5.2608    1.8409   -0.4879 N   0  0  0  0  0  0  0  0  0  0  0  0
    5.4034    2.1446   -1.8654 C   0  0  0  0  0  0  0  0  0  0  0  0
    6.3729    1.5464   -2.5937 N   0  0  0  0  0  0  0  0  0  0  0  0
    6.4718    1.9025   -3.8883 C   0  0  0  0  0  0  0  0  0  0  0  0
    7.5885    1.3440   -4.6711 C   0  0  0  0  0  0  0  0  0  0  0  0
    8.8644    2.0483   -4.8004 C   0  0  0  0  0  0  0  0  0  0  0  0
    9.8228    1.5534   -5.6017 C   0  0  0  0  0  0  0  0  0  0  0  0
    9.6154    0.3451   -6.2788 N   0  0  0  0  0  0  0  0  0  0  0  0
   10.4543   -0.4076   -7.1086 C   0  0  0  0  0  0  0  0  0  0  0  0
   11.8839   -0.1694   -7.3872 C   0  0  0  0  0  0  0  0  0  0  0  0
   12.7125    0.3774   -6.3998 C   0  0  0  0  0  0  0  0  0  0  0  0
   14.0567    0.6276   -6.6450 C   0  0  0  0  0  0  0  0  0  0  0  0
   14.6220    0.2572   -7.8594 C   0  0  0  0  0  0  0  0  0  0  0  0
   13.8613   -0.3757   -8.8436 C   0  0  0  0  0  0  0  0  0  0  0  0
   14.4352   -0.8522  -10.0531 N   0  0  0  0  0  0  0  0  0  0  0  0
   15.7786   -0.8473  -10.3671 C   0  0  0  0  0  0  0  0  0  0  0  0
   16.7026   -0.4433   -9.6697 O   0  0  0  0  0  0  0  0  0  0  0  0
   16.0369   -1.3205  -11.6361 N   0  0  0  0  0  0  0  0  0  0  0  0
   17.4387   -1.3669  -12.0855 C   0  0  0  0  0  0  0  0  0  0  0  0
   18.2919   -2.5279  -11.5482 C   0  0  0  0  0  0  0  0  0  0  0  0
   17.5456   -3.4481  -10.8952 F   0  0  0  0  0  0  0  0  0  0  0  0
   18.8901   -3.1748  -12.5819 F   0  0  0  0  0  0  0  0  0  0  0  0
   19.2716   -2.1117  -10.7200 F   0  0  0  0  0  0  0  0  0  0  0  0
   12.4813   -0.5562   -8.6110 C   0  0  0  0  0  0  0  0  0  0  0  0
    9.6377   -1.4433   -7.5394 C   0  0  0  0  0  0  0  0  0  0  0  0
    8.3920   -1.4007   -6.9725 N   0  0  0  0  0  0  0  0  0  0  0  0
    8.4021   -0.3424   -6.1947 C   0  0  0  0  0  0  0  0  0  0  0  0
    7.3834    0.1937   -5.3504 C   0  0  0  0  0  0  0  0  0  0  0  0
    5.6977    2.8099   -4.5124 N   0  0  0  0  0  0  0  0  0  0  0  0
    4.7208    3.3568   -3.7638 C   0  0  0  0  0  0  0  0  0  0  0  0
    4.5180    3.0443   -2.4432 C   0  0  0  0  0  0  0  0  0  0  0  0
    3.5538    3.6470   -1.7334 F   0  0  0  0  0  0  0  0  0  0  0  0
    7.7062    4.4669    0.8428 H   0  0  0  0  0  0  0  0  0  0  0  0
    6.8357    3.5297    1.8503 H   0  0  0  0  0  0  0  0  0  0  0  0
    8.4359    2.1925    0.7484 H   0  0  0  0  0  0  0  0  0  0  0  0
    7.8678    2.8155   -0.7974 H   0  0  0  0  0  0  0  0  0  0  0  0
    6.2642    1.0743    1.1650 H   0  0  0  0  0  0  0  0  0  0  0  0
    6.9220    0.5035   -0.3590 H   0  0  0  0  0  0  0  0  0  0  0  0
    4.9604    2.6984   -0.0158 H   0  0  0  0  0  0  0  0  0  0  0  0
    9.0025    2.9754   -4.2530 H   0  0  0  0  0  0  0  0  0  0  0  0
   10.7574    2.0744   -5.7487 H   0  0  0  0  0  0  0  0  0  0  0  0
   12.3368    0.6023   -5.4063 H   0  0  0  0  0  0  0  0  0  0  0  0
   14.6771    1.0893   -5.8820 H   0  0  0  0  0  0  0  0  0  0  0  0
   15.6759    0.4725   -7.9901 H   0  0  0  0  0  0  0  0  0  0  0  0
   13.8072   -1.2626  -10.7275 H   0  0  0  0  0  0  0  0  0  0  0  0
   15.4218   -2.0402  -11.9876 H   0  0  0  0  0  0  0  0  0  0  0  0
   17.9218   -0.4200  -11.8140 H   0  0  0  0  0  0  0  0  0  0  0  0
   17.4099   -1.4077  -13.1791 H   0  0  0  0  0  0  0  0  0  0  0  0
   11.8665   -1.0176   -9.3803 H   0  0  0  0  0  0  0  0  0  0  0  0
    9.9029   -2.2524   -8.2078 H   0  0  0  0  0  0  0  0  0  0  0  0
    6.4411   -0.3424   -5.2969 H   0  0  0  0  0  0  0  0  0  0  0  0
    4.0978    4.0916   -4.2612 H   0  0  0  0  0  0  0  0  0  0  0  0
  1  2  1  0  0  0  0
  1 36  1  0  0  0  0
  1 37  1  0  0  0  0
  2  3  1  0  0  0  0
  2 38  1  0  0  0  0
  2 39  1  0  0  0  0
  3  4  1  0  0  0  0
  3 40  1  0  0  0  0
  3 41  1  0  0  0  0
  4  5  1  0  0  0  0
  4 42  1  0  0  0  0
  5  6  1  0  0  0  0
  5 34  2  0  0  0  0
  6  7  2  0  0  0  0
  7  8  1  0  0  0  0
  7 32  1  0  0  0  0
  8  9  1  0  0  0  0
  8 31  2  0  0  0  0
  9 10  2  0  0  0  0
  9 43  1  0  0  0  0
 10 11  1  0  0  0  0
 10 44  1  0  0  0  0
 11 12  1  0  0  0  0
 11 30  1  0  0  0  0
 12 13  1  0  0  0  0
 12 28  2  0  0  0  0
 13 14  1  0  0  0  0
 13 27  2  0  0  0  0
 14 15  2  0  0  0  0
 14 45  1  0  0  0  0
 15 16  1  0  0  0  0
 15 46  1  0  0  0  0
 16 17  2  0  0  0  0
 16 47  1  0  0  0  0
 17 18  1  0  0  0  0
 17 27  1  0  0  0  0
 18 19  1  0  0  0  0
 18 48  1  0  0  0  0
 19 20  2  0  0  0  0
 19 21  1  0  0  0  0
 21 22  1  0  0  0  0
 21 49  1  0  0  0  0
 22 23  1  0  0  0  0
 22 50  1  0  0  0  0
 22 51  1  0  0  0  0
 23 24  1  0  0  0  0
 23 25  1  0  0  0  0
 23 26  1  0  0  0  0
 27 52  1  0  0  0  0
 28 29  1  0  0  0  0
 28 53  1  0  0  0  0
 29 30  2  0  0  0  0
 30 31  1  0  0  0  0
 31 54  1  0  0  0  0
 32 33  2  0  0  0  0
 33 34  1  0  0  0  0
 33 55  1  0  0  0  0
 34 35  1  0  0  0  0
M  END
$$$$
