CHEMBL4460151
 OpenBabel04072215383D

 61 64  0  0  0  0  0  0  0  0999 V2000
    3.3695    0.3159    1.2559 C   0  0  0  0  0  0  0  0  0  0  0  0
    2.4927    0.4311    0.1336 O   0  0  0  0  0  0  0  0  0  0  0  0
    3.0781    0.3390   -1.0999 C   0  0  0  0  0  0  0  0  0  0  0  0
    4.1148   -0.5718   -1.3042 C   0  0  0  0  0  0  0  0  0  0  0  0
    4.7900   -0.6569   -2.5339 C   0  0  0  0  0  0  0  0  0  0  0  0
    5.8906   -1.4970   -2.7570 C   0  0  0  0  0  0  0  0  0  0  0  0
    6.3226   -2.3766   -1.7202 N   0  0  0  0  0  0  0  0  0  0  0  0
    7.5882   -2.9991   -1.6958 C   0  0  0  0  0  0  0  0  0  0  0  0
    8.7459   -2.2414   -1.9305 C   0  0  0  0  0  0  0  0  0  0  0  0
    9.9919   -2.8534   -2.0385 C   0  0  0  0  0  0  0  0  0  0  0  0
   10.0855   -4.2287   -1.8902 C   0  0  0  0  0  0  0  0  0  0  0  0
   11.2723   -4.8284   -2.0483 F   0  0  0  0  0  0  0  0  0  0  0  0
    8.9628   -4.9948   -1.5942 C   0  0  0  0  0  0  0  0  0  0  0  0
    7.7121   -4.3786   -1.4844 C   0  0  0  0  0  0  0  0  0  0  0  0
    6.5564   -1.4824   -3.9239 N   0  0  0  0  0  0  0  0  0  0  0  0
    6.1049   -0.6535   -4.8682 C   0  0  0  0  0  0  0  0  0  0  0  0
    5.0436    0.1614   -4.7656 N   0  0  0  0  0  0  0  0  0  0  0  0
    4.3978    0.1649   -3.5958 C   0  0  0  0  0  0  0  0  0  0  0  0
    3.3057    1.0153   -3.4047 C   0  0  0  0  0  0  0  0  0  0  0  0
    2.6270    1.1166   -2.1766 C   0  0  0  0  0  0  0  0  0  0  0  0
    1.5838    2.0167   -2.1972 O   0  0  0  0  0  0  0  0  0  0  0  0
    0.8938    2.2335   -0.9633 C   0  0  0  0  0  0  0  0  0  0  0  0
   -0.1716    3.3262   -1.0675 C   0  0  0  0  0  0  0  0  0  0  0  0
    0.4310    4.5922   -1.3545 O   0  0  0  0  0  0  0  0  0  0  0  0
   -0.5298    5.6474   -1.3173 C   0  0  0  0  0  0  0  0  0  0  0  0
    0.1557    6.9691   -1.6662 C   0  0  0  0  0  0  0  0  0  0  0  0
   -0.7682    8.0924   -1.6669 N   0  0  0  0  0  0  0  0  0  0  0  0
   -1.0808    8.7628   -0.5033 C   0  0  0  0  0  0  0  0  0  0  0  0
   -0.5484    8.5100    0.5747 O   0  0  0  0  0  0  0  0  0  0  0  0
   -2.1316    9.8404   -0.6410 C   0  0  0  0  0  0  0  0  0  0  0  0
   -3.2404    9.5908    0.2531 N   0  0  0  0  0  0  0  0  0  0  0  0
   -3.2384    9.6005    1.6169 C   0  0  0  0  0  0  0  0  0  0  0  0
   -4.4515    9.3765    2.0702 N   0  0  0  0  0  0  0  0  0  0  0  0
   -5.1797    9.2439    0.9108 C   0  0  0  0  0  0  0  0  0  0  0  0
   -6.6109    8.9704    0.9100 N   0  3  0  0  0  0  0  0  0  0  0  0
   -7.1672    8.8336    2.0078 O   0  0  0  0  0  0  0  0  0  0  0  0
   -7.1857    8.8944   -0.1940 O   0  5  0  0  0  0  0  0  0  0  0  0
   -4.4825    9.3703   -0.2332 N   0  0  0  0  0  0  0  0  0  0  0  0
    3.1620    1.1475    1.9351 H   0  0  0  0  0  0  0  0  0  0  0  0
    4.4366    0.3651    1.0110 H   0  0  0  0  0  0  0  0  0  0  0  0
    3.1515   -0.6229    1.7727 H   0  0  0  0  0  0  0  0  0  0  0  0
    4.4373   -1.2109   -0.4884 H   0  0  0  0  0  0  0  0  0  0  0  0
    5.5656   -3.0021   -1.4662 H   0  0  0  0  0  0  0  0  0  0  0  0
    8.6677   -1.1647   -2.0630 H   0  0  0  0  0  0  0  0  0  0  0  0
   10.8751   -2.2659   -2.2628 H   0  0  0  0  0  0  0  0  0  0  0  0
    9.0664   -6.0688   -1.4777 H   0  0  0  0  0  0  0  0  0  0  0  0
    6.8401   -4.9934   -1.2803 H   0  0  0  0  0  0  0  0  0  0  0  0
    6.6571   -0.6347   -5.8018 H   0  0  0  0  0  0  0  0  0  0  0  0
    2.9860    1.6366   -4.2405 H   0  0  0  0  0  0  0  0  0  0  0  0
    1.6100    2.5616   -0.2033 H   0  0  0  0  0  0  0  0  0  0  0  0
    0.3850    1.3068   -0.6735 H   0  0  0  0  0  0  0  0  0  0  0  0
   -0.6821    3.3920   -0.0983 H   0  0  0  0  0  0  0  0  0  0  0  0
   -0.9043    3.0879   -1.8450 H   0  0  0  0  0  0  0  0  0  0  0  0
   -0.9767    5.7048   -0.3176 H   0  0  0  0  0  0  0  0  0  0  0  0
   -1.3283    5.4422   -2.0407 H   0  0  0  0  0  0  0  0  0  0  0  0
    0.6052    6.9105   -2.6636 H   0  0  0  0  0  0  0  0  0  0  0  0
    0.9702    7.1651   -0.9595 H   0  0  0  0  0  0  0  0  0  0  0  0
   -1.2834    8.2754   -2.5199 H   0  0  0  0  0  0  0  0  0  0  0  0
   -2.5175    9.8944   -1.6637 H   0  0  0  0  0  0  0  0  0  0  0  0
   -1.6959   10.8111   -0.3836 H   0  0  0  0  0  0  0  0  0  0  0  0
   -2.3476    9.7595    2.2126 H   0  0  0  0  0  0  0  0  0  0  0  0
  1  2  1  0  0  0  0
  1 39  1  0  0  0  0
  1 40  1  0  0  0  0
  1 41  1  0  0  0  0
  2  3  1  0  0  0  0
  3  4  1  0  0  0  0
  3 20  2  0  0  0  0
  4  5  2  0  0  0  0
  4 42  1  0  0  0  0
  5  6  1  0  0  0  0
  5 18  1  0  0  0  0
  6  7  1  0  0  0  0
  6 15  2  0  0  0  0
  7  8  1  0  0  0  0
  7 43  1  0  0  0  0
  8  9  1  0  0  0  0
  8 14  2  0  0  0  0
  9 10  2  0  0  0  0
  9 44  1  0  0  0  0
 10 11  1  0  0  0  0
 10 45  1  0  0  0  0
 11 12  1  0  0  0  0
 11 13  2  0  0  0  0
 13 14  1  0  0  0  0
 13 46  1  0  0  0  0
 14 47  1  0  0  0  0
 15 16  1  0  0  0  0
 16 17  2  0  0  0  0
 16 48  1  0  0  0  0
 17 18  1  0  0  0  0
 18 19  2  0  0  0  0
 19 20  1  0  0  0  0
 19 49  1  0  0  0  0
 20 21  1  0  0  0  0
 21 22  1  0  0  0  0
 22 23  1  0  0  0  0
 22 50  1  0  0  0  0
 22 51  1  0  0  0  0
 23 24  1  0  0  0  0
 23 52  1  0  0  0  0
 23 53  1  0  0  0  0
 24 25  1  0  0  0  0
 25 26  1  0  0  0  0
 25 54  1  0  0  0  0
 25 55  1  0  0  0  0
 26 27  1  0  0  0  0
 26 56  1  0  0  0  0
 26 57  1  0  0  0  0
 27 28  1  0  0  0  0
 27 58  1  0  0  0  0
 28 29  2  0  0  0  0
 28 30  1  0  0  0  0
 30 31  1  0  0  0  0
 30 59  1  0  0  0  0
 30 60  1  0  0  0  0
 31 32  1  0  0  0  0
 31 38  1  0  0  0  0
 32 33  2  0  0  0  0
 32 61  1  0  0  0  0
 33 34  1  0  0  0  0
 34 35  1  0  0  0  0
 34 38  2  0  0  0  0
 35 36  2  0  0  0  0
 35 37  1  0  0  0  0
M  CHG  2  35   1  37  -1
M  END
$$$$
