CHEMBL188381
 OpenBabel04072215363D

 62 65  0  0  0  0  0  0  0  0999 V2000
    1.1116   -0.0956    0.1537 C   0  0  0  0  0  0  0  0  0  0  0  0
    2.5717   -0.2189    0.1438 N   0  0  0  0  0  0  0  0  0  0  0  0
    3.1976   -0.6192   -1.0503 C   0  0  0  0  0  0  0  0  0  0  0  0
    2.7134   -0.2396   -2.3010 C   0  0  0  0  0  0  0  0  0  0  0  0
    3.3423   -0.6560   -3.4767 C   0  0  0  0  0  0  0  0  0  0  0  0
    4.4874   -1.4556   -3.4495 C   0  0  0  0  0  0  0  0  0  0  0  0
    5.1320   -1.9295   -4.6174 N   0  0  0  0  0  0  0  0  0  0  0  0
    4.7734   -1.5989   -5.9087 C   0  0  0  0  0  0  0  0  0  0  0  0
    3.9235   -0.7663   -6.2082 O   0  0  0  0  0  0  0  0  0  0  0  0
    5.4496   -2.3518   -6.8617 N   0  0  0  0  0  0  0  0  0  0  0  0
    5.1469   -2.1317   -8.2279 C   0  0  0  0  0  0  0  0  0  0  0  0
    5.0699   -0.8331   -8.7462 C   0  0  0  0  0  0  0  0  0  0  0  0
    4.6156   -0.6057  -10.0471 C   0  0  0  0  0  0  0  0  0  0  0  0
    4.2765   -1.6832  -10.8583 C   0  0  0  0  0  0  0  0  0  0  0  0
    3.8033   -1.6116  -12.1316 O   0  0  0  0  0  0  0  0  0  0  0  0
    4.1518   -0.5046  -12.9502 C   0  0  0  0  0  0  0  0  0  0  0  0
    5.1771    0.2345  -12.4781 F   0  0  0  0  0  0  0  0  0  0  0  0
    4.5177   -0.9786  -14.1634 F   0  0  0  0  0  0  0  0  0  0  0  0
    3.0754    0.2927  -13.1193 F   0  0  0  0  0  0  0  0  0  0  0  0
    4.3641   -2.9820  -10.3405 C   0  0  0  0  0  0  0  0  0  0  0  0
    4.8240   -3.2140   -9.0402 C   0  0  0  0  0  0  0  0  0  0  0  0
    4.9993   -1.8265   -2.2071 C   0  0  0  0  0  0  0  0  0  0  0  0
    4.3561   -1.4175   -1.0277 C   0  0  0  0  0  0  0  0  0  0  0  0
    3.1956    0.3339    1.2917 C   0  0  0  0  0  0  0  0  0  0  0  0
    4.4668    0.8706    1.1885 C   0  0  0  0  0  0  0  0  0  0  0  0
    5.0149    1.4056    2.3198 C   0  0  0  0  0  0  0  0  0  0  0  0
    4.3789    1.4273    3.4931 N   0  0  0  0  0  0  0  0  0  0  0  0
    3.1472    0.9014    3.5336 C   0  0  0  0  0  0  0  0  0  0  0  0
    2.4652    0.8900    4.7533 N   0  0  0  0  0  0  0  0  0  0  0  0
    2.6029    1.8049    5.8126 C   0  0  0  0  0  0  0  0  0  0  0  0
    3.0014    3.1331    5.5972 C   0  0  0  0  0  0  0  0  0  0  0  0
    3.1797    4.0217    6.6597 C   0  0  0  0  0  0  0  0  0  0  0  0
    2.9724    3.5891    7.9633 C   0  0  0  0  0  0  0  0  0  0  0  0
    2.5782    2.2685    8.1858 C   0  0  0  0  0  0  0  0  0  0  0  0
    2.3198    1.7200    9.8534 S   0  0  0  0  0  0  0  0  0  0  0  0
    3.8469    1.1751   10.2606 N   0  0  0  0  0  0  0  0  0  0  0  0
    2.0565    2.8775   10.6770 O   0  0  0  0  0  0  0  0  0  0  0  0
    1.4476    0.5697    9.8211 O   0  0  0  0  0  0  0  0  0  0  0  0
    2.3676    1.3819    7.1216 C   0  0  0  0  0  0  0  0  0  0  0  0
    2.5327    0.3579    2.4722 N   0  0  0  0  0  0  0  0  0  0  0  0
    0.6384   -0.5442   -0.7285 H   0  0  0  0  0  0  0  0  0  0  0  0
    0.8103    0.9589    0.1862 H   0  0  0  0  0  0  0  0  0  0  0  0
    0.6751   -0.6168    1.0130 H   0  0  0  0  0  0  0  0  0  0  0  0
    1.8470    0.4094   -2.3965 H   0  0  0  0  0  0  0  0  0  0  0  0
    2.8876   -0.3204   -4.4018 H   0  0  0  0  0  0  0  0  0  0  0  0
    5.9731   -2.4741   -4.4989 H   0  0  0  0  0  0  0  0  0  0  0  0
    5.6220   -3.3089   -6.5889 H   0  0  0  0  0  0  0  0  0  0  0  0
    5.3225    0.0231   -8.1229 H   0  0  0  0  0  0  0  0  0  0  0  0
    4.5099    0.4256  -10.3699 H   0  0  0  0  0  0  0  0  0  0  0  0
    4.0471   -3.8249  -10.9508 H   0  0  0  0  0  0  0  0  0  0  0  0
    4.8425   -4.2302   -8.6590 H   0  0  0  0  0  0  0  0  0  0  0  0
    5.8889   -2.4448   -2.1269 H   0  0  0  0  0  0  0  0  0  0  0  0
    4.7602   -1.7510   -0.0737 H   0  0  0  0  0  0  0  0  0  0  0  0
    5.0116    0.9097    0.2559 H   0  0  0  0  0  0  0  0  0  0  0  0
    6.0042    1.8500    2.3131 H   0  0  0  0  0  0  0  0  0  0  0  0
    1.5607    0.4556    4.6524 H   0  0  0  0  0  0  0  0  0  0  0  0
    3.1709    3.4950    4.5863 H   0  0  0  0  0  0  0  0  0  0  0  0
    3.4835    5.0445    6.4597 H   0  0  0  0  0  0  0  0  0  0  0  0
    3.1205    4.2790    8.7894 H   0  0  0  0  0  0  0  0  0  0  0  0
    4.4867    1.9046   10.5647 H   0  0  0  0  0  0  0  0  0  0  0  0
    4.2060    0.4127    9.6932 H   0  0  0  0  0  0  0  0  0  0  0  0
    2.0671    0.3551    7.3159 H   0  0  0  0  0  0  0  0  0  0  0  0
  1  2  1  0  0  0  0
  1 41  1  0  0  0  0
  1 42  1  0  0  0  0
  1 43  1  0  0  0  0
  2  3  1  0  0  0  0
  2 24  1  0  0  0  0
  3  4  1  0  0  0  0
  3 23  2  0  0  0  0
  4  5  2  0  0  0  0
  4 44  1  0  0  0  0
  5  6  1  0  0  0  0
  5 45  1  0  0  0  0
  6  7  1  0  0  0  0
  6 22  2  0  0  0  0
  7  8  1  0  0  0  0
  7 46  1  0  0  0  0
  8  9  2  0  0  0  0
  8 10  1  0  0  0  0
 10 11  1  0  0  0  0
 10 47  1  0  0  0  0
 11 12  1  0  0  0  0
 11 21  2  0  0  0  0
 12 13  2  0  0  0  0
 12 48  1  0  0  0  0
 13 14  1  0  0  0  0
 13 49  1  0  0  0  0
 14 15  1  0  0  0  0
 14 20  2  0  0  0  0
 15 16  1  0  0  0  0
 16 17  1  0  0  0  0
 16 18  1  0  0  0  0
 16 19  1  0  0  0  0
 20 21  1  0  0  0  0
 20 50  1  0  0  0  0
 21 51  1  0  0  0  0
 22 23  1  0  0  0  0
 22 52  1  0  0  0  0
 23 53  1  0  0  0  0
 24 25  1  0  0  0  0
 24 40  2  0  0  0  0
 25 26  2  0  0  0  0
 25 54  1  0  0  0  0
 26 27  1  0  0  0  0
 26 55  1  0  0  0  0
 27 28  2  0  0  0  0
 28 29  1  0  0  0  0
 28 40  1  0  0  0  0
 29 30  1  0  0  0  0
 29 56  1  0  0  0  0
 30 31  1  0  0  0  0
 30 39  2  0  0  0  0
 31 32  2  0  0  0  0
 31 57  1  0  0  0  0
 32 33  1  0  0  0  0
 32 58  1  0  0  0  0
 33 34  2  0  0  0  0
 33 59  1  0  0  0  0
 34 35  1  0  0  0  0
 34 39  1  0  0  0  0
 35 36  1  0  0  0  0
 35 37  2  0  0  0  0
 35 38  2  0  0  0  0
 36 60  1  0  0  0  0
 36 61  1  0  0  0  0
 39 62  1  0  0  0  0
M  END
$$$$
