CHEMBL436137
 OpenBabel04072215383D

 65 69  0  0  0  0  0  0  0  0999 V2000
   -2.2094    0.9743    1.4050 C   0  0  0  0  0  0  0  0  0  0  0  0
   -1.0202    0.3479    0.7089 C   0  0  0  0  0  0  0  0  0  0  0  0
   -0.9794   -1.0595    0.7666 C   0  0  0  0  0  0  0  0  0  0  0  0
    0.0162   -1.7780    0.1303 C   0  0  0  0  0  0  0  0  0  0  0  0
    1.0036   -1.1006   -0.5624 C   0  0  0  0  0  0  0  0  0  0  0  0
    1.0340    0.3081   -0.6106 C   0  0  0  0  0  0  0  0  0  0  0  0
    2.2061    0.8838   -1.3768 C   0  0  0  0  0  0  0  0  0  0  0  0
    0.0085    1.0826    0.0286 C   0  0  0  0  0  0  0  0  0  0  0  0
   -0.0029    2.5888   -0.0181 C   0  0  0  0  0  0  0  0  0  0  0  0
    0.3996    3.3049   -1.1545 C   0  0  0  0  0  0  0  0  0  0  0  0
    0.4644    4.7024   -1.1767 C   0  0  0  0  0  0  0  0  0  0  0  0
    1.1624    5.3934   -2.3207 C   0  0  0  0  0  0  0  0  0  0  0  0
   -0.0721    5.4325   -0.1269 C   0  0  0  0  0  0  0  0  0  0  0  0
   -0.1376    6.7630   -0.2115 N   0  0  0  0  0  0  0  0  0  0  0  0
   -0.6048    7.4525    0.8381 C   0  0  0  0  0  0  0  0  0  0  0  0
   -0.5144    8.8464    0.8356 N   0  0  0  0  0  0  0  0  0  0  0  0
    0.5215    9.6245    0.2804 C   0  0  0  0  0  0  0  0  0  0  0  0
    1.5795    9.0678   -0.4481 C   0  0  0  0  0  0  0  0  0  0  0  0
    2.5721    9.8514   -1.0255 C   0  0  0  0  0  0  0  0  0  0  0  0
    2.5084   11.2324   -0.9266 C   0  0  0  0  0  0  0  0  0  0  0  0
    3.4075   12.0818   -1.5193 O   0  0  0  0  0  0  0  0  0  0  0  0
    4.0562   11.5270   -2.6767 C   0  0  0  0  0  0  0  0  0  0  0  0
    4.4897   12.6690   -3.6011 C   0  0  0  0  0  0  0  0  0  0  0  0
    5.1612   12.2337   -4.8437 N   0  0  0  0  0  0  0  0  0  0  0  0
    5.5357   13.4054   -5.6576 C   0  0  0  0  0  0  0  0  0  0  0  0
    4.2833   13.7368   -6.4495 C   0  0  0  0  0  0  0  0  0  0  0  0
    3.7128   12.3712   -6.7814 C   0  0  0  0  0  0  0  0  0  0  0  0
    4.3132   11.4294   -5.7425 C   0  0  0  0  0  0  0  0  0  0  0  0
    1.4740   11.8167   -0.1976 C   0  0  0  0  0  0  0  0  0  0  0  0
    0.4749   11.0192    0.3847 C   0  0  0  0  0  0  0  0  0  0  0  0
   -1.1033    6.8413    1.9291 N   0  0  0  0  0  0  0  0  0  0  0  0
   -1.0441    5.4758    2.0226 N   0  0  0  0  0  0  0  0  0  0  0  0
   -0.5246    4.7682    1.0114 C   0  0  0  0  0  0  0  0  0  0  0  0
   -0.4013    3.3756    1.0714 C   0  0  0  0  0  0  0  0  0  0  0  0
   -2.9639    0.2242    1.6671 H   0  0  0  0  0  0  0  0  0  0  0  0
   -2.7057    1.7034    0.7585 H   0  0  0  0  0  0  0  0  0  0  0  0
   -1.9143    1.4267    2.3550 H   0  0  0  0  0  0  0  0  0  0  0  0
   -1.7499   -1.6117    1.3064 H   0  0  0  0  0  0  0  0  0  0  0  0
    0.0238   -2.8637    0.1701 H   0  0  0  0  0  0  0  0  0  0  0  0
    1.7730   -1.6851   -1.0656 H   0  0  0  0  0  0  0  0  0  0  0  0
    2.9617    0.1197   -1.5949 H   0  0  0  0  0  0  0  0  0  0  0  0
    2.7104    1.6660   -0.8027 H   0  0  0  0  0  0  0  0  0  0  0  0
    1.8904    1.2538   -2.3562 H   0  0  0  0  0  0  0  0  0  0  0  0
    0.6883    2.7866   -2.0617 H   0  0  0  0  0  0  0  0  0  0  0  0
    1.5919    4.6713   -3.0254 H   0  0  0  0  0  0  0  0  0  0  0  0
    2.0035    5.9857   -1.9381 H   0  0  0  0  0  0  0  0  0  0  0  0
    0.4778    6.0428   -2.8688 H   0  0  0  0  0  0  0  0  0  0  0  0
   -0.9033    9.2125    1.6944 H   0  0  0  0  0  0  0  0  0  0  0  0
    1.6837    7.9987   -0.5816 H   0  0  0  0  0  0  0  0  0  0  0  0
    3.3731    9.3412   -1.5525 H   0  0  0  0  0  0  0  0  0  0  0  0
    3.3570   10.8832   -3.2193 H   0  0  0  0  0  0  0  0  0  0  0  0
    4.9268   10.9403   -2.3592 H   0  0  0  0  0  0  0  0  0  0  0  0
    5.1875   13.2955   -3.0287 H   0  0  0  0  0  0  0  0  0  0  0  0
    3.6179   13.3032   -3.8022 H   0  0  0  0  0  0  0  0  0  0  0  0
    6.3426   13.1142   -6.3419 H   0  0  0  0  0  0  0  0  0  0  0  0
    5.9009   14.2512   -5.0664 H   0  0  0  0  0  0  0  0  0  0  0  0
    4.4924   14.3286   -7.3444 H   0  0  0  0  0  0  0  0  0  0  0  0
    3.5698   14.2995   -5.8355 H   0  0  0  0  0  0  0  0  0  0  0  0
    4.0215   12.0647   -7.7876 H   0  0  0  0  0  0  0  0  0  0  0  0
    2.6187   12.3782   -6.7490 H   0  0  0  0  0  0  0  0  0  0  0  0
    4.9557   10.7005   -6.2528 H   0  0  0  0  0  0  0  0  0  0  0  0
    3.5365   10.8412   -5.2476 H   0  0  0  0  0  0  0  0  0  0  0  0
    1.4248   12.8971   -0.0991 H   0  0  0  0  0  0  0  0  0  0  0  0
   -0.3411   11.5036    0.9136 H   0  0  0  0  0  0  0  0  0  0  0  0
   -0.6540    2.9302    2.0255 H   0  0  0  0  0  0  0  0  0  0  0  0
  1  2  1  0  0  0  0
  1 35  1  0  0  0  0
  1 36  1  0  0  0  0
  1 37  1  0  0  0  0
  2  3  1  0  0  0  0
  2  8  2  0  0  0  0
  3  4  2  0  0  0  0
  3 38  1  0  0  0  0
  4  5  1  0  0  0  0
  4 39  1  0  0  0  0
  5  6  2  0  0  0  0
  5 40  1  0  0  0  0
  6  7  1  0  0  0  0
  6  8  1  0  0  0  0
  7 41  1  0  0  0  0
  7 42  1  0  0  0  0
  7 43  1  0  0  0  0
  8  9  1  0  0  0  0
  9 10  1  0  0  0  0
  9 34  2  0  0  0  0
 10 11  2  0  0  0  0
 10 44  1  0  0  0  0
 11 12  1  0  0  0  0
 11 13  1  0  0  0  0
 12 45  1  0  0  0  0
 12 46  1  0  0  0  0
 12 47  1  0  0  0  0
 13 14  1  0  0  0  0
 13 33  2  0  0  0  0
 14 15  2  0  0  0  0
 15 16  1  0  0  0  0
 15 31  1  0  0  0  0
 16 17  1  0  0  0  0
 16 48  1  0  0  0  0
 17 18  1  0  0  0  0
 17 30  2  0  0  0  0
 18 19  2  0  0  0  0
 18 49  1  0  0  0  0
 19 20  1  0  0  0  0
 19 50  1  0  0  0  0
 20 21  1  0  0  0  0
 20 29  2  0  0  0  0
 21 22  1  0  0  0  0
 22 23  1  0  0  0  0
 22 51  1  0  0  0  0
 22 52  1  0  0  0  0
 23 24  1  0  0  0  0
 23 53  1  0  0  0  0
 23 54  1  0  0  0  0
 24 25  1  0  0  0  0
 24 28  1  0  0  0  0
 25 26  1  0  0  0  0
 25 55  1  0  0  0  0
 25 56  1  0  0  0  0
 26 27  1  0  0  0  0
 26 57  1  0  0  0  0
 26 58  1  0  0  0  0
 27 28  1  0  0  0  0
 27 59  1  0  0  0  0
 27 60  1  0  0  0  0
 28 61  1  0  0  0  0
 28 62  1  0  0  0  0
 29 30  1  0  0  0  0
 29 63  1  0  0  0  0
 30 64  1  0  0  0  0
 31 32  2  0  0  0  0
 32 33  1  0  0  0  0
 33 34  1  0  0  0  0
 34 65  1  0  0  0  0
M  END
$$$$
