CHEMBL495749
 OpenBabel04072215383D

 52 56  0  0  1  0  0  0  0  0999 V2000
   -1.8315    0.9535   -3.2593 C   0  0  0  0  0  0  0  0  0  0  0  0
   -0.3883    1.1790   -3.1802 N   0  0  0  0  0  0  0  0  0  0  0  0
    0.0354    2.1207   -4.2244 C   0  0  0  0  0  0  0  0  0  0  0  0
    1.5461    2.3284   -4.1852 C   0  0  0  0  0  0  0  0  0  0  0  0
    1.9909    2.8298   -2.8190 C   0  0  0  0  0  0  0  0  0  0  0  0
    1.5025    1.8989   -1.6950 C   0  0  3  0  0  0  0  0  0  0  0  0
    1.7630    2.4683   -0.3873 O   0  0  0  0  0  0  0  0  0  0  0  0
    3.0922    2.6778   -0.0710 C   0  0  0  0  0  0  0  0  0  0  0  0
    4.0885    1.8107   -0.5804 C   0  0  0  0  0  0  0  0  0  0  0  0
    5.4405    2.1014   -0.4591 C   0  0  0  0  0  0  0  0  0  0  0  0
    5.8148    3.2501    0.2023 C   0  0  0  0  0  0  0  0  0  0  0  0
    4.8367    4.0592    0.7909 C   0  0  0  0  0  0  0  0  0  0  0  0
    5.3042    5.1914    1.4302 N   0  0  0  0  0  0  0  0  0  0  0  0
    4.5104    6.0957    2.0329 C   0  0  0  0  0  0  0  0  0  0  0  0
    5.0529    7.0916    2.5149 O   0  0  0  0  0  0  0  0  0  0  0  0
    3.0257    5.8281    2.1168 C   0  0  0  0  0  0  0  0  0  0  0  0
    2.2260    6.7803    2.8659 C   0  0  0  0  0  0  0  0  0  0  0  0
    0.9287    6.9301    3.1294 N   0  0  0  0  0  0  0  0  0  0  0  0
    0.8051    8.1419    3.8148 C   0  0  0  0  0  0  0  0  0  0  0  0
   -0.3064    8.8300    4.3327 C   0  0  0  0  0  0  0  0  0  0  0  0
   -0.1144   10.1050    4.9081 C   0  0  0  0  0  0  0  0  0  0  0  0
    1.1530   10.6887    4.9768 C   0  0  0  0  0  0  0  0  0  0  0  0
    2.2722   10.0024    4.5145 C   0  0  0  0  0  0  0  0  0  0  0  0
    2.0392    8.7433    3.9636 C   0  0  0  0  0  0  0  0  0  0  0  0
    2.9077    7.8282    3.4540 N   0  0  0  0  0  0  0  0  0  0  0  0
    2.5226    4.7267    1.4894 C   0  0  0  0  0  0  0  0  0  0  0  0
    1.1895    4.3468    1.5497 N   0  0  0  0  0  0  0  0  0  0  0  0
    3.4542    3.7960    0.7236 C   0  0  0  0  0  0  0  0  0  0  0  0
   -0.0167    1.6653   -1.8367 C   0  0  0  0  0  0  0  0  0  0  0  0
   -2.1082    0.5682   -4.2473 H   0  0  0  0  0  0  0  0  0  0  0  0
   -2.4013    1.8714   -3.0760 H   0  0  0  0  0  0  0  0  0  0  0  0
   -2.1428    0.1989   -2.5291 H   0  0  0  0  0  0  0  0  0  0  0  0
   -0.4711    3.0878   -4.1093 H   0  0  0  0  0  0  0  0  0  0  0  0
   -0.2289    1.7280   -5.2139 H   0  0  0  0  0  0  0  0  0  0  0  0
    1.8421    3.0502   -4.9551 H   0  0  0  0  0  0  0  0  0  0  0  0
    2.0595    1.3864   -4.4190 H   0  0  0  0  0  0  0  0  0  0  0  0
    1.6103    3.8436   -2.6450 H   0  0  0  0  0  0  0  0  0  0  0  0
    3.0825    2.9177   -2.8179 H   0  0  0  0  0  0  0  0  0  0  0  0
    1.9632    0.9071   -1.7829 H   0  0  0  0  0  0  0  0  0  0  0  0
    3.8365    0.9001   -1.1140 H   0  0  0  0  0  0  0  0  0  0  0  0
    6.1888    1.4517   -0.9034 H   0  0  0  0  0  0  0  0  0  0  0  0
    6.8680    3.5083    0.2691 H   0  0  0  0  0  0  0  0  0  0  0  0
    6.2887    5.4194    1.4270 H   0  0  0  0  0  0  0  0  0  0  0  0
   -1.2979    8.3954    4.2827 H   0  0  0  0  0  0  0  0  0  0  0  0
   -0.9678   10.6576    5.2956 H   0  0  0  0  0  0  0  0  0  0  0  0
    1.2775   11.6851    5.3950 H   0  0  0  0  0  0  0  0  0  0  0  0
    3.2673   10.4324    4.5662 H   0  0  0  0  0  0  0  0  0  0  0  0
    3.9138    7.9431    3.4264 H   0  0  0  0  0  0  0  0  0  0  0  0
    0.5572    5.0888    1.8609 H   0  0  0  0  0  0  0  0  0  0  0  0
    0.8680    3.8228    0.7379 H   0  0  0  0  0  0  0  0  0  0  0  0
   -0.5563    2.5873   -1.5838 H   0  0  0  0  0  0  0  0  0  0  0  0
   -0.3121    0.9209   -1.0850 H   0  0  0  0  0  0  0  0  0  0  0  0
  1  2  1  0  0  0  0
  1 30  1  0  0  0  0
  1 31  1  0  0  0  0
  1 32  1  0  0  0  0
  2  3  1  0  0  0  0
  2 29  1  0  0  0  0
  3  4  1  0  0  0  0
  3 33  1  0  0  0  0
  3 34  1  0  0  0  0
  4  5  1  0  0  0  0
  4 35  1  0  0  0  0
  4 36  1  0  0  0  0
  5  6  1  0  0  0  0
  5 37  1  0  0  0  0
  5 38  1  0  0  0  0
  6  7  1  0  0  0  0
  6 29  1  0  0  0  0
  6 39  1  0  0  0  0
  7  8  1  0  0  0  0
  8  9  1  0  0  0  0
  8 28  2  0  0  0  0
  9 10  2  0  0  0  0
  9 40  1  0  0  0  0
 10 11  1  0  0  0  0
 10 41  1  0  0  0  0
 11 12  2  0  0  0  0
 11 42  1  0  0  0  0
 12 13  1  0  0  0  0
 12 28  1  0  0  0  0
 13 14  1  0  0  0  0
 13 43  1  0  0  0  0
 14 15  2  0  0  0  0
 14 16  1  0  0  0  0
 16 17  1  0  0  0  0
 16 26  2  0  0  0  0
 17 18  2  0  0  0  0
 17 25  1  0  0  0  0
 18 19  1  0  0  0  0
 19 20  1  0  0  0  0
 19 24  2  0  0  0  0
 20 21  2  0  0  0  0
 20 44  1  0  0  0  0
 21 22  1  0  0  0  0
 21 45  1  0  0  0  0
 22 23  2  0  0  0  0
 22 46  1  0  0  0  0
 23 24  1  0  0  0  0
 23 47  1  0  0  0  0
 24 25  1  0  0  0  0
 25 48  1  0  0  0  0
 26 27  1  0  0  0  0
 26 28  1  0  0  0  0
 27 49  1  0  0  0  0
 27 50  1  0  0  0  0
 29 51  1  0  0  0  0
 29 52  1  0  0  0  0
M  END
$$$$
