CHEMBL3890520
 OpenBabel04072215373D

 77 81  0  0  0  0  0  0  0  0999 V2000
    2.2740   -2.6041   -0.0757 C   0  0  0  0  0  0  0  0  0  0  0  0
    3.2914   -1.4780   -0.0139 C   0  0  0  0  0  0  0  0  0  0  0  0
    3.9993   -1.4572   -1.2579 O   0  0  0  0  0  0  0  0  0  0  0  0
    5.0394   -2.3262   -1.3539 C   0  0  0  0  0  0  0  0  0  0  0  0
    5.5858   -2.8449   -0.3882 O   0  0  0  0  0  0  0  0  0  0  0  0
    5.3540   -2.6112   -2.6649 N   0  0  0  0  0  0  0  0  0  0  0  0
    4.6000   -2.0938   -3.8091 C   0  0  0  0  0  0  0  0  0  0  0  0
    4.0294   -3.2522   -4.6504 C   0  0  0  0  0  0  0  0  0  0  0  0
    5.0454   -4.2406   -5.0890 N   0  0  0  0  0  0  0  0  0  0  0  0
    6.0102   -3.6891   -6.0592 C   0  0  0  0  0  0  0  0  0  0  0  0
    5.3827   -3.2037   -7.3761 C   0  0  0  0  0  0  0  0  0  0  0  0
    6.3746   -2.6238   -8.2598 N   0  0  0  0  0  0  0  0  0  0  0  0
    6.0409   -1.6342   -9.1640 C   0  0  0  0  0  0  0  0  0  0  0  0
    4.9141   -1.1492   -9.2009 O   0  0  0  0  0  0  0  0  0  0  0  0
    7.1052   -1.2013  -10.0546 C   0  0  0  0  0  0  0  0  0  0  0  0
    7.0277   -0.1782  -10.9786 C   0  0  0  0  0  0  0  0  0  0  0  0
    8.2409    0.0192  -11.6920 C   0  0  0  0  0  0  0  0  0  0  0  0
    8.4407    0.9685  -12.6440 N   0  0  0  0  0  0  0  0  0  0  0  0
    9.6740    1.0146  -13.1767 C   0  0  0  0  0  0  0  0  0  0  0  0
   10.7126    0.1675  -12.8509 C   0  0  0  0  0  0  0  0  0  0  0  0
   10.4778   -0.8560  -11.9352 C   0  0  0  0  0  0  0  0  0  0  0  0
   11.4329   -1.7751  -11.5684 O   0  0  0  0  0  0  0  0  0  0  0  0
   12.2474   -2.3186  -12.5297 C   0  0  0  0  0  0  0  0  0  0  0  0
   13.4885   -2.7539  -12.0698 C   0  0  0  0  0  0  0  0  0  0  0  0
   14.4016   -3.3266  -12.9537 C   0  0  0  0  0  0  0  0  0  0  0  0
   14.0784   -3.4941  -14.3062 C   0  0  0  0  0  0  0  0  0  0  0  0
   14.9647   -4.0985  -15.2335 N   0  0  0  0  0  0  0  0  0  0  0  0
   15.9124   -5.0200  -14.8494 C   0  0  0  0  0  0  0  0  0  0  0  0
   15.9910   -5.4870  -13.7141 O   0  0  0  0  0  0  0  0  0  0  0  0
   16.7881   -5.3497  -15.8711 N   0  0  0  0  0  0  0  0  0  0  0  0
   17.8541   -6.2322  -15.5523 C   0  0  0  0  0  0  0  0  0  0  0  0
   17.6073   -7.4337  -14.8769 C   0  0  0  0  0  0  0  0  0  0  0  0
   18.6617   -8.1795  -14.3401 C   0  0  0  0  0  0  0  0  0  0  0  0
   18.3785   -9.4069  -13.5249 C   0  0  0  0  0  0  0  0  0  0  0  0
   19.9732   -7.7162  -14.5050 C   0  0  0  0  0  0  0  0  0  0  0  0
   20.2275   -6.5548  -15.2416 C   0  0  0  0  0  0  0  0  0  0  0  0
   19.1682   -5.8316  -15.7796 C   0  0  0  0  0  0  0  0  0  0  0  0
   19.4144   -4.6823  -16.4275 F   0  0  0  0  0  0  0  0  0  0  0  0
   12.8334   -3.0535  -14.7514 C   0  0  0  0  0  0  0  0  0  0  0  0
   12.5032   -3.1865  -16.0469 F   0  0  0  0  0  0  0  0  0  0  0  0
   11.9047   -2.5017  -13.8714 C   0  0  0  0  0  0  0  0  0  0  0  0
    9.2235   -0.8898  -11.3089 C   0  0  0  0  0  0  0  0  0  0  0  0
    8.6495   -1.9335  -10.0694 S   0  0  0  0  0  0  0  0  0  0  0  0
    5.7476   -4.7457   -3.8801 C   0  0  0  0  0  0  0  0  0  0  0  0
    6.3393   -3.6468   -2.9671 C   0  0  0  0  0  0  0  0  0  0  0  0
    1.6404   -2.6165    0.8136 H   0  0  0  0  0  0  0  0  0  0  0  0
    2.7742   -3.5746   -0.1658 H   0  0  0  0  0  0  0  0  0  0  0  0
    1.6422   -2.4969   -0.9648 H   0  0  0  0  0  0  0  0  0  0  0  0
    3.9655   -1.5832    0.8432 H   0  0  0  0  0  0  0  0  0  0  0  0
    2.7787   -0.5163    0.0870 H   0  0  0  0  0  0  0  0  0  0  0  0
    5.2852   -1.4780   -4.4013 H   0  0  0  0  0  0  0  0  0  0  0  0
    3.7774   -1.4444   -3.4974 H   0  0  0  0  0  0  0  0  0  0  0  0
    3.4654   -2.8574   -5.5008 H   0  0  0  0  0  0  0  0  0  0  0  0
    3.2830   -3.7880   -4.0477 H   0  0  0  0  0  0  0  0  0  0  0  0
    6.7338   -4.4752   -6.3140 H   0  0  0  0  0  0  0  0  0  0  0  0
    6.5984   -2.8706   -5.6277 H   0  0  0  0  0  0  0  0  0  0  0  0
    4.6178   -2.4456   -7.1887 H   0  0  0  0  0  0  0  0  0  0  0  0
    4.9116   -4.0354   -7.9101 H   0  0  0  0  0  0  0  0  0  0  0  0
    7.2721   -3.0790   -8.3690 H   0  0  0  0  0  0  0  0  0  0  0  0
    6.1359    0.4156  -11.1322 H   0  0  0  0  0  0  0  0  0  0  0  0
    9.8178    1.7926  -13.9227 H   0  0  0  0  0  0  0  0  0  0  0  0
   11.6811    0.2944  -13.3226 H   0  0  0  0  0  0  0  0  0  0  0  0
   13.7532   -2.6520  -11.0196 H   0  0  0  0  0  0  0  0  0  0  0  0
   15.3649   -3.6338  -12.5557 H   0  0  0  0  0  0  0  0  0  0  0  0
   14.6609   -4.1381  -16.1936 H   0  0  0  0  0  0  0  0  0  0  0  0
   17.0481   -4.5583  -16.4484 H   0  0  0  0  0  0  0  0  0  0  0  0
   16.5806   -7.7562  -14.7109 H   0  0  0  0  0  0  0  0  0  0  0  0
   17.3278   -9.7073  -13.6058 H   0  0  0  0  0  0  0  0  0  0  0  0
   18.5939   -9.2153  -12.4689 H   0  0  0  0  0  0  0  0  0  0  0  0
   18.9889  -10.2445  -13.8748 H   0  0  0  0  0  0  0  0  0  0  0  0
   20.8007   -8.2492  -14.0419 H   0  0  0  0  0  0  0  0  0  0  0  0
   21.2416   -6.1864  -15.3562 H   0  0  0  0  0  0  0  0  0  0  0  0
   10.9291   -2.2259  -14.2555 H   0  0  0  0  0  0  0  0  0  0  0  0
    6.5337   -5.4543   -4.1672 H   0  0  0  0  0  0  0  0  0  0  0  0
    5.0222   -5.3294   -3.2972 H   0  0  0  0  0  0  0  0  0  0  0  0
    7.1879   -3.1549   -3.4538 H   0  0  0  0  0  0  0  0  0  0  0  0
    6.7160   -4.1091   -2.0487 H   0  0  0  0  0  0  0  0  0  0  0  0
  1  2  1  0  0  0  0
  1 46  1  0  0  0  0
  1 47  1  0  0  0  0
  1 48  1  0  0  0  0
  2  3  1  0  0  0  0
  2 49  1  0  0  0  0
  2 50  1  0  0  0  0
  3  4  1  0  0  0  0
  4  5  2  0  0  0  0
  4  6  1  0  0  0  0
  6  7  1  0  0  0  0
  6 45  1  0  0  0  0
  7  8  1  0  0  0  0
  7 51  1  0  0  0  0
  7 52  1  0  0  0  0
  8  9  1  0  0  0  0
  8 53  1  0  0  0  0
  8 54  1  0  0  0  0
  9 10  1  0  0  0  0
  9 44  1  0  0  0  0
 10 11  1  0  0  0  0
 10 55  1  0  0  0  0
 10 56  1  0  0  0  0
 11 12  1  0  0  0  0
 11 57  1  0  0  0  0
 11 58  1  0  0  0  0
 12 13  1  0  0  0  0
 12 59  1  0  0  0  0
 13 14  2  0  0  0  0
 13 15  1  0  0  0  0
 15 16  2  0  0  0  0
 15 43  1  0  0  0  0
 16 17  1  0  0  0  0
 16 60  1  0  0  0  0
 17 18  1  0  0  0  0
 17 42  2  0  0  0  0
 18 19  2  0  0  0  0
 19 20  1  0  0  0  0
 19 61  1  0  0  0  0
 20 21  2  0  0  0  0
 20 62  1  0  0  0  0
 21 22  1  0  0  0  0
 21 42  1  0  0  0  0
 22 23  1  0  0  0  0
 23 24  1  0  0  0  0
 23 41  2  0  0  0  0
 24 25  2  0  0  0  0
 24 63  1  0  0  0  0
 25 26  1  0  0  0  0
 25 64  1  0  0  0  0
 26 27  1  0  0  0  0
 26 39  2  0  0  0  0
 27 28  1  0  0  0  0
 27 65  1  0  0  0  0
 28 29  2  0  0  0  0
 28 30  1  0  0  0  0
 30 31  1  0  0  0  0
 30 66  1  0  0  0  0
 31 32  1  0  0  0  0
 31 37  2  0  0  0  0
 32 33  2  0  0  0  0
 32 67  1  0  0  0  0
 33 34  1  0  0  0  0
 33 35  1  0  0  0  0
 34 68  1  0  0  0  0
 34 69  1  0  0  0  0
 34 70  1  0  0  0  0
 35 36  2  0  0  0  0
 35 71  1  0  0  0  0
 36 37  1  0  0  0  0
 36 72  1  0  0  0  0
 37 38  1  0  0  0  0
 39 40  1  0  0  0  0
 39 41  1  0  0  0  0
 41 73  1  0  0  0  0
 42 43  1  0  0  0  0
 44 45  1  0  0  0  0
 44 74  1  0  0  0  0
 44 75  1  0  0  0  0
 45 76  1  0  0  0  0
 45 77  1  0  0  0  0
M  END
$$$$
