CHEMBL214495
 OpenBabel04072215363D

 66 70  0  0  0  0  0  0  0  0999 V2000
    1.0696    0.2263    0.7502 C   0  0  0  0  0  0  0  0  0  0  0  0
    2.1826    0.0865   -0.1572 N   0  0  0  0  0  0  0  0  0  0  0  0
    2.8554    1.2644   -0.4449 C   0  0  0  0  0  0  0  0  0  0  0  0
    3.4302    1.3154   -1.6518 N   0  0  0  0  0  0  0  0  0  0  0  0
    4.1281    2.4283   -1.9350 C   0  0  0  0  0  0  0  0  0  0  0  0
    4.2581    3.4997   -1.0709 C   0  0  0  0  0  0  0  0  0  0  0  0
    5.0062    4.6657   -1.3662 C   0  0  0  0  0  0  0  0  0  0  0  0
    5.0107    5.7759   -0.5149 C   0  0  0  0  0  0  0  0  0  0  0  0
    5.7242    7.0455   -0.8497 C   0  0  0  0  0  0  0  0  0  0  0  0
    6.3361    7.7853    0.1944 C   0  0  0  0  0  0  0  0  0  0  0  0
    6.9604    9.0258   -0.0204 C   0  0  0  0  0  0  0  0  0  0  0  0
    7.4473    9.7944    1.1659 C   0  0  0  0  0  0  0  0  0  0  0  0
    7.6677    9.1908    2.2120 O   0  0  0  0  0  0  0  0  0  0  0  0
    7.6348   11.1557    0.9843 N   0  0  0  0  0  0  0  0  0  0  0  0
    8.1723   11.9982    1.9783 C   0  0  0  0  0  0  0  0  0  0  0  0
    7.6261   11.9817    3.2678 C   0  0  0  0  0  0  0  0  0  0  0  0
    8.0536   12.9040    4.2287 C   0  0  0  0  0  0  0  0  0  0  0  0
    7.3611   13.0117    5.5647 C   0  0  0  0  0  0  0  0  0  0  0  0
    6.2732   12.2088    5.6905 F   0  0  0  0  0  0  0  0  0  0  0  0
    8.1879   12.7077    6.6053 F   0  0  0  0  0  0  0  0  0  0  0  0
    6.9126   14.2815    5.8060 F   0  0  0  0  0  0  0  0  0  0  0  0
    9.1116   13.7621    3.9088 C   0  0  0  0  0  0  0  0  0  0  0  0
    9.6614   13.7696    2.6210 C   0  0  0  0  0  0  0  0  0  0  0  0
    9.1661   12.9367    1.6066 C   0  0  0  0  0  0  0  0  0  0  0  0
    9.5914   13.0425    0.2667 N   0  0  0  0  0  0  0  0  0  0  0  0
   10.1226   14.3487   -0.1591 C   0  0  0  0  0  0  0  0  0  0  0  0
   10.0253   14.4434   -1.6805 C   0  0  0  0  0  0  0  0  0  0  0  0
   10.7305   13.2715   -2.3625 C   0  0  0  0  0  0  0  0  0  0  0  0
   10.2792   11.9324   -1.7788 C   0  0  0  0  0  0  0  0  0  0  0  0
   10.3909   11.9153   -0.2493 C   0  0  0  0  0  0  0  0  0  0  0  0
    7.0768    9.5016   -1.3213 C   0  0  0  0  0  0  0  0  0  0  0  0
    6.5096    8.7944   -2.3740 C   0  0  0  0  0  0  0  0  0  0  0  0
    5.7954    7.6012   -2.1548 C   0  0  0  0  0  0  0  0  0  0  0  0
    5.1222    7.0099   -3.3680 C   0  0  0  0  0  0  0  0  0  0  0  0
    4.3119    5.6253    0.6961 C   0  0  0  0  0  0  0  0  0  0  0  0
    3.6321    4.4396    1.0120 C   0  0  0  0  0  0  0  0  0  0  0  0
    3.5750    3.3685    0.1312 C   0  0  0  0  0  0  0  0  0  0  0  0
    2.8921    2.2645    0.4481 N   0  0  0  0  0  0  0  0  0  0  0  0
    0.5794   -0.7450    0.8700 H   0  0  0  0  0  0  0  0  0  0  0  0
    0.3232    0.9320    0.3690 H   0  0  0  0  0  0  0  0  0  0  0  0
    1.3975    0.5475    1.7456 H   0  0  0  0  0  0  0  0  0  0  0  0
    1.9847   -0.3582   -1.0452 H   0  0  0  0  0  0  0  0  0  0  0  0
    4.5820    2.4385   -2.9224 H   0  0  0  0  0  0  0  0  0  0  0  0
    5.5839    4.6691   -2.2836 H   0  0  0  0  0  0  0  0  0  0  0  0
    6.3136    7.4029    1.2157 H   0  0  0  0  0  0  0  0  0  0  0  0
    7.7335   11.5386    0.0547 H   0  0  0  0  0  0  0  0  0  0  0  0
    6.8033   11.3046    3.4946 H   0  0  0  0  0  0  0  0  0  0  0  0
    9.4939   14.4582    4.6535 H   0  0  0  0  0  0  0  0  0  0  0  0
   10.4798   14.4562    2.4255 H   0  0  0  0  0  0  0  0  0  0  0  0
   11.1680   14.4636    0.1574 H   0  0  0  0  0  0  0  0  0  0  0  0
    9.5417   15.1730    0.2719 H   0  0  0  0  0  0  0  0  0  0  0  0
   10.4572   15.3900   -2.0238 H   0  0  0  0  0  0  0  0  0  0  0  0
    8.9672   14.4460   -1.9714 H   0  0  0  0  0  0  0  0  0  0  0  0
   11.8148   13.3745   -2.2402 H   0  0  0  0  0  0  0  0  0  0  0  0
   10.5218   13.2950   -3.4382 H   0  0  0  0  0  0  0  0  0  0  0  0
   10.8654   11.1156   -2.2127 H   0  0  0  0  0  0  0  0  0  0  0  0
    9.2355   11.7699   -2.0697 H   0  0  0  0  0  0  0  0  0  0  0  0
   11.4403   12.0181    0.0555 H   0  0  0  0  0  0  0  0  0  0  0  0
   10.0466   10.9434    0.1179 H   0  0  0  0  0  0  0  0  0  0  0  0
    7.5964   10.4200   -1.5563 H   0  0  0  0  0  0  0  0  0  0  0  0
    6.6011    9.2031   -3.3787 H   0  0  0  0  0  0  0  0  0  0  0  0
    5.1110    7.7209   -4.2024 H   0  0  0  0  0  0  0  0  0  0  0  0
    4.0783    6.7656   -3.1533 H   0  0  0  0  0  0  0  0  0  0  0  0
    5.6635    6.1309   -3.7266 H   0  0  0  0  0  0  0  0  0  0  0  0
    4.2780    6.4314    1.4273 H   0  0  0  0  0  0  0  0  0  0  0  0
    3.1210    4.3576    1.9707 H   0  0  0  0  0  0  0  0  0  0  0  0
  1  2  1  0  0  0  0
  1 39  1  0  0  0  0
  1 40  1  0  0  0  0
  1 41  1  0  0  0  0
  2  3  1  0  0  0  0
  2 42  1  0  0  0  0
  3  4  1  0  0  0  0
  3 38  2  0  0  0  0
  4  5  2  0  0  0  0
  5  6  1  0  0  0  0
  5 43  1  0  0  0  0
  6  7  1  0  0  0  0
  6 37  2  0  0  0  0
  7  8  2  0  0  0  0
  7 44  1  0  0  0  0
  8  9  1  0  0  0  0
  8 35  1  0  0  0  0
  9 10  1  0  0  0  0
  9 33  2  0  0  0  0
 10 11  2  0  0  0  0
 10 45  1  0  0  0  0
 11 12  1  0  0  0  0
 11 31  1  0  0  0  0
 12 13  2  0  0  0  0
 12 14  1  0  0  0  0
 14 15  1  0  0  0  0
 14 46  1  0  0  0  0
 15 16  1  0  0  0  0
 15 24  2  0  0  0  0
 16 17  2  0  0  0  0
 16 47  1  0  0  0  0
 17 18  1  0  0  0  0
 17 22  1  0  0  0  0
 18 19  1  0  0  0  0
 18 20  1  0  0  0  0
 18 21  1  0  0  0  0
 22 23  2  0  0  0  0
 22 48  1  0  0  0  0
 23 24  1  0  0  0  0
 23 49  1  0  0  0  0
 24 25  1  0  0  0  0
 25 26  1  0  0  0  0
 25 30  1  0  0  0  0
 26 27  1  0  0  0  0
 26 50  1  0  0  0  0
 26 51  1  0  0  0  0
 27 28  1  0  0  0  0
 27 52  1  0  0  0  0
 27 53  1  0  0  0  0
 28 29  1  0  0  0  0
 28 54  1  0  0  0  0
 28 55  1  0  0  0  0
 29 30  1  0  0  0  0
 29 56  1  0  0  0  0
 29 57  1  0  0  0  0
 30 58  1  0  0  0  0
 30 59  1  0  0  0  0
 31 32  2  0  0  0  0
 31 60  1  0  0  0  0
 32 33  1  0  0  0  0
 32 61  1  0  0  0  0
 33 34  1  0  0  0  0
 34 62  1  0  0  0  0
 34 63  1  0  0  0  0
 34 64  1  0  0  0  0
 35 36  2  0  0  0  0
 35 65  1  0  0  0  0
 36 37  1  0  0  0  0
 36 66  1  0  0  0  0
 37 38  1  0  0  0  0
M  END
$$$$
