CHEMBL1254835
 OpenBabel04072215363D

 44 47  0  0  0  0  0  0  0  0999 V2000
    0.6118   -0.3703    0.4300 C   0  0  0  0  0  0  0  0  0  0  0  0
    1.9811   -0.2468    0.8773 N   0  0  0  0  0  0  0  0  0  0  0  0
    2.5229    0.8931    1.4209 C   0  0  0  0  0  0  0  0  0  0  0  0
    3.8303    0.6184    1.7642 C   0  0  0  0  0  0  0  0  0  0  0  0
    4.0858   -0.7237    1.4045 C   0  0  0  0  0  0  0  0  0  0  0  0
    5.2215   -1.4358    1.5548 N   0  0  0  0  0  0  0  0  0  0  0  0
    5.1336   -2.6820    1.0756 C   0  0  0  0  0  0  0  0  0  0  0  0
    4.0771   -3.2648    0.4853 N   0  0  0  0  0  0  0  0  0  0  0  0
    2.9285   -2.5570    0.3896 C   0  0  0  0  0  0  0  0  0  0  0  0
    1.7988   -3.1270   -0.1880 O   0  0  0  0  0  0  0  0  0  0  0  0
    1.6025   -4.4835   -0.0358 C   0  0  0  0  0  0  0  0  0  0  0  0
    2.0061   -5.1911    1.0917 C   0  0  0  0  0  0  0  0  0  0  0  0
    1.7965   -6.5709    1.1731 C   0  0  0  0  0  0  0  0  0  0  0  0
    1.1268   -7.2612    0.1592 C   0  0  0  0  0  0  0  0  0  0  0  0
    0.9193   -8.6613    0.1951 N   0  0  0  0  0  0  0  0  0  0  0  0
    1.2341   -9.4957    1.2595 C   0  0  0  0  0  0  0  0  0  0  0  0
    1.6187   -9.1245    2.3640 O   0  0  0  0  0  0  0  0  0  0  0  0
    1.1055  -10.8344    0.9221 N   0  0  0  0  0  0  0  0  0  0  0  0
    1.3618  -11.8453    1.8813 C   0  0  0  0  0  0  0  0  0  0  0  0
    2.1531  -12.9318    1.5104 C   0  0  0  0  0  0  0  0  0  0  0  0
    2.4797  -13.9136    2.4540 C   0  0  0  0  0  0  0  0  0  0  0  0
    1.9744  -13.8319    3.7531 C   0  0  0  0  0  0  0  0  0  0  0  0
    1.1586  -12.7616    4.1091 C   0  0  0  0  0  0  0  0  0  0  0  0
    0.4439  -12.6691    5.8592 Br  0  0  0  0  0  0  0  0  0  0  0  0
    0.8584  -11.7612    3.1834 C   0  0  0  0  0  0  0  0  0  0  0  0
    0.6654   -6.5374   -0.9467 C   0  0  0  0  0  0  0  0  0  0  0  0
    0.9029   -5.1524   -1.0413 C   0  0  0  0  0  0  0  0  0  0  0  0
    2.9279   -1.2435    0.8366 C   0  0  0  0  0  0  0  0  0  0  0  0
    0.0978    0.5854    0.5614 H   0  0  0  0  0  0  0  0  0  0  0  0
    0.1203   -1.1382    1.0329 H   0  0  0  0  0  0  0  0  0  0  0  0
    0.6142   -0.6436   -0.6280 H   0  0  0  0  0  0  0  0  0  0  0  0
    1.9413    1.8001    1.5274 H   0  0  0  0  0  0  0  0  0  0  0  0
    4.5282    1.3040    2.2236 H   0  0  0  0  0  0  0  0  0  0  0  0
    6.0200   -3.2996    1.1827 H   0  0  0  0  0  0  0  0  0  0  0  0
    2.5173   -4.7052    1.9175 H   0  0  0  0  0  0  0  0  0  0  0  0
    2.1911   -7.0633    2.0520 H   0  0  0  0  0  0  0  0  0  0  0  0
    0.3967   -9.0731   -0.5632 H   0  0  0  0  0  0  0  0  0  0  0  0
    1.3627  -11.0456   -0.0328 H   0  0  0  0  0  0  0  0  0  0  0  0
    2.5828  -13.0011    0.5142 H   0  0  0  0  0  0  0  0  0  0  0  0
    3.1393  -14.7336    2.1812 H   0  0  0  0  0  0  0  0  0  0  0  0
    2.2242  -14.6039    4.4772 H   0  0  0  0  0  0  0  0  0  0  0  0
    0.2329  -10.9248    3.4788 H   0  0  0  0  0  0  0  0  0  0  0  0
    0.1266   -7.0279   -1.7516 H   0  0  0  0  0  0  0  0  0  0  0  0
    0.5490   -4.6048   -1.9106 H   0  0  0  0  0  0  0  0  0  0  0  0
  1  2  1  0  0  0  0
  1 29  1  0  0  0  0
  1 30  1  0  0  0  0
  1 31  1  0  0  0  0
  2  3  1  0  0  0  0
  2 28  1  0  0  0  0
  3  4  2  0  0  0  0
  3 32  1  0  0  0  0
  4  5  1  0  0  0  0
  4 33  1  0  0  0  0
  5  6  1  0  0  0  0
  5 28  2  0  0  0  0
  6  7  2  0  0  0  0
  7  8  1  0  0  0  0
  7 34  1  0  0  0  0
  8  9  2  0  0  0  0
  9 10  1  0  0  0  0
  9 28  1  0  0  0  0
 10 11  1  0  0  0  0
 11 12  1  0  0  0  0
 11 27  2  0  0  0  0
 12 13  2  0  0  0  0
 12 35  1  0  0  0  0
 13 14  1  0  0  0  0
 13 36  1  0  0  0  0
 14 15  1  0  0  0  0
 14 26  2  0  0  0  0
 15 16  1  0  0  0  0
 15 37  1  0  0  0  0
 16 17  2  0  0  0  0
 16 18  1  0  0  0  0
 18 19  1  0  0  0  0
 18 38  1  0  0  0  0
 19 20  1  0  0  0  0
 19 25  2  0  0  0  0
 20 21  2  0  0  0  0
 20 39  1  0  0  0  0
 21 22  1  0  0  0  0
 21 40  1  0  0  0  0
 22 23  2  0  0  0  0
 22 41  1  0  0  0  0
 23 24  1  0  0  0  0
 23 25  1  0  0  0  0
 25 42  1  0  0  0  0
 26 27  1  0  0  0  0
 26 43  1  0  0  0  0
 27 44  1  0  0  0  0
M  END
$$$$
