CHEMBL3690575
 OpenBabel04072215373D

 57 60  0  0  0  0  0  0  0  0999 V2000
    1.0529    2.3926    1.2616 C   0  0  0  0  0  0  0  0  0  0  0  0
    0.6687    1.0876    0.6395 C   0  0  0  0  0  0  0  0  0  0  0  0
    1.5572    0.0333    0.6139 C   0  0  0  0  0  0  0  0  0  0  0  0
    1.1101   -1.1461    0.0519 C   0  0  0  0  0  0  0  0  0  0  0  0
    1.9612   -2.3645    0.0075 C   0  0  0  0  0  0  0  0  0  0  0  0
    1.8755   -3.3327   -1.0936 C   0  0  0  0  0  0  0  0  0  0  0  0
    2.6224   -4.4501   -1.0735 C   0  0  0  0  0  0  0  0  0  0  0  0
    3.4606   -4.7036    0.0139 N   0  0  0  0  0  0  0  0  0  0  0  0
    4.2776   -5.7869    0.3176 C   0  0  0  0  0  0  0  0  0  0  0  0
    4.4547   -7.0276   -0.4480 C   0  0  0  0  0  0  0  0  0  0  0  0
    5.7141   -7.6442   -0.4336 C   0  0  0  0  0  0  0  0  0  0  0  0
    5.9351   -8.8280   -1.1253 C   0  0  0  0  0  0  0  0  0  0  0  0
    4.8942   -9.4227   -1.8321 C   0  0  0  0  0  0  0  0  0  0  0  0
    3.6120   -8.8700   -1.8304 C   0  0  0  0  0  0  0  0  0  0  0  0
    2.5087   -9.4812   -2.4822 N   0  0  0  0  0  0  0  0  0  0  0  0
    2.5268  -10.7153   -3.0984 C   0  0  0  0  0  0  0  0  0  0  0  0
    3.4721  -11.4909   -3.1669 O   0  0  0  0  0  0  0  0  0  0  0  0
    1.3400  -11.0244   -3.7234 N   0  0  0  0  0  0  0  0  0  0  0  0
    1.2463  -12.3290   -4.3961 C   0  0  0  0  0  0  0  0  0  0  0  0
    0.9966  -13.5492   -3.4944 C   0  0  0  0  0  0  0  0  0  0  0  0
    0.7671  -13.2010   -2.2078 F   0  0  0  0  0  0  0  0  0  0  0  0
   -0.1076  -14.2144   -3.9212 F   0  0  0  0  0  0  0  0  0  0  0  0
    2.0221  -14.4258   -3.5186 F   0  0  0  0  0  0  0  0  0  0  0  0
    3.4043   -7.6632   -1.1403 C   0  0  0  0  0  0  0  0  0  0  0  0
    4.9057   -5.4069    1.4979 C   0  0  0  0  0  0  0  0  0  0  0  0
    4.4874   -4.1876    1.9442 N   0  0  0  0  0  0  0  0  0  0  0  0
    3.6042   -3.7931    1.0582 C   0  0  0  0  0  0  0  0  0  0  0  0
    2.8118   -2.6143    1.0314 C   0  0  0  0  0  0  0  0  0  0  0  0
   -0.1203   -1.2651   -0.4914 N   0  0  0  0  0  0  0  0  0  0  0  0
   -0.9203   -0.1813   -0.4325 C   0  0  0  0  0  0  0  0  0  0  0  0
   -2.3132   -0.2811   -1.0187 C   0  0  0  0  0  0  0  0  0  0  0  0
   -2.2624   -0.5907   -2.5140 C   0  0  0  0  0  0  0  0  0  0  0  0
   -3.1565   -1.3148   -0.2742 C   0  0  0  0  0  0  0  0  0  0  0  0
   -0.5701    0.9927    0.1187 N   0  0  0  0  0  0  0  0  0  0  0  0
    2.0640    2.3579    1.6844 H   0  0  0  0  0  0  0  0  0  0  0  0
    0.3587    2.6386    2.0706 H   0  0  0  0  0  0  0  0  0  0  0  0
    1.0252    3.1858    0.5093 H   0  0  0  0  0  0  0  0  0  0  0  0
    2.5539    0.1387    1.0223 H   0  0  0  0  0  0  0  0  0  0  0  0
    1.2016   -3.1192   -1.9183 H   0  0  0  0  0  0  0  0  0  0  0  0
    2.5967   -5.1643   -1.8828 H   0  0  0  0  0  0  0  0  0  0  0  0
    6.5454   -7.2118    0.1194 H   0  0  0  0  0  0  0  0  0  0  0  0
    6.9134   -9.2995   -1.1106 H   0  0  0  0  0  0  0  0  0  0  0  0
    5.1295  -10.3348   -2.3690 H   0  0  0  0  0  0  0  0  0  0  0  0
    1.6313   -8.9945   -2.4518 H   0  0  0  0  0  0  0  0  0  0  0  0
    0.4892  -10.6260   -3.3504 H   0  0  0  0  0  0  0  0  0  0  0  0
    2.1754  -12.4932   -4.9541 H   0  0  0  0  0  0  0  0  0  0  0  0
    0.4437  -12.2415   -5.1344 H   0  0  0  0  0  0  0  0  0  0  0  0
    2.4068   -7.2374   -1.1129 H   0  0  0  0  0  0  0  0  0  0  0  0
    5.6386   -5.9716    2.0612 H   0  0  0  0  0  0  0  0  0  0  0  0
    2.9171   -1.9581    1.8875 H   0  0  0  0  0  0  0  0  0  0  0  0
   -2.8021    0.6943   -0.8985 H   0  0  0  0  0  0  0  0  0  0  0  0
   -1.7833   -1.5559   -2.7133 H   0  0  0  0  0  0  0  0  0  0  0  0
   -1.6998    0.1790   -3.0536 H   0  0  0  0  0  0  0  0  0  0  0  0
   -3.2730   -0.6247   -2.9354 H   0  0  0  0  0  0  0  0  0  0  0  0
   -2.7387   -2.3235   -0.3666 H   0  0  0  0  0  0  0  0  0  0  0  0
   -4.1773   -1.3373   -0.6721 H   0  0  0  0  0  0  0  0  0  0  0  0
   -3.2193   -1.0757    0.7932 H   0  0  0  0  0  0  0  0  0  0  0  0
  1  2  1  0  0  0  0
  1 35  1  0  0  0  0
  1 36  1  0  0  0  0
  1 37  1  0  0  0  0
  2  3  1  0  0  0  0
  2 34  2  0  0  0  0
  3  4  2  0  0  0  0
  3 38  1  0  0  0  0
  4  5  1  0  0  0  0
  4 29  1  0  0  0  0
  5  6  1  0  0  0  0
  5 28  2  0  0  0  0
  6  7  2  0  0  0  0
  6 39  1  0  0  0  0
  7  8  1  0  0  0  0
  7 40  1  0  0  0  0
  8  9  1  0  0  0  0
  8 27  1  0  0  0  0
  9 10  1  0  0  0  0
  9 25  2  0  0  0  0
 10 11  1  0  0  0  0
 10 24  2  0  0  0  0
 11 12  2  0  0  0  0
 11 41  1  0  0  0  0
 12 13  1  0  0  0  0
 12 42  1  0  0  0  0
 13 14  2  0  0  0  0
 13 43  1  0  0  0  0
 14 15  1  0  0  0  0
 14 24  1  0  0  0  0
 15 16  1  0  0  0  0
 15 44  1  0  0  0  0
 16 17  2  0  0  0  0
 16 18  1  0  0  0  0
 18 19  1  0  0  0  0
 18 45  1  0  0  0  0
 19 20  1  0  0  0  0
 19 46  1  0  0  0  0
 19 47  1  0  0  0  0
 20 21  1  0  0  0  0
 20 22  1  0  0  0  0
 20 23  1  0  0  0  0
 24 48  1  0  0  0  0
 25 26  1  0  0  0  0
 25 49  1  0  0  0  0
 26 27  2  0  0  0  0
 27 28  1  0  0  0  0
 28 50  1  0  0  0  0
 29 30  2  0  0  0  0
 30 31  1  0  0  0  0
 30 34  1  0  0  0  0
 31 32  1  0  0  0  0
 31 33  1  0  0  0  0
 31 51  1  0  0  0  0
 32 52  1  0  0  0  0
 32 53  1  0  0  0  0
 32 54  1  0  0  0  0
 33 55  1  0  0  0  0
 33 56  1  0  0  0  0
 33 57  1  0  0  0  0
M  END
$$$$
