CHEMBL2071273
 OpenBabel04072215363D

 50 53  0  0  1  0  0  0  0  0999 V2000
   -5.4954    7.7740  -10.0723 C   0  0  0  0  0  0  0  0  0  0  0  0
   -4.5506    8.6055  -10.7703 N   0  0  0  0  0  0  0  0  0  0  0  0
   -4.2426    8.3718  -12.0959 C   0  0  0  0  0  0  0  0  0  0  0  0
   -4.8226    7.5321  -12.7813 O   0  0  0  0  0  0  0  0  0  0  0  0
   -3.1731    9.2714  -12.6722 C   0  0  0  0  0  0  0  0  0  0  0  0
   -1.9272    9.1234  -11.9487 N   0  0  0  0  0  0  0  0  0  0  0  0
   -0.8819    8.2962  -12.2559 C   0  0  0  0  0  0  0  0  0  0  0  0
    0.0256    8.4490  -11.2381 C   0  0  0  0  0  0  0  0  0  0  0  0
    1.2076    7.8107  -11.1332 N   0  0  0  0  0  0  0  0  0  0  0  0
    2.0696    7.7437  -10.0369 C   0  0  0  0  0  0  0  0  0  0  0  0
    3.3112    7.3048  -10.2799 N   0  0  0  0  0  0  0  0  0  0  0  0
    4.1488    7.2631   -9.2222 C   0  0  0  0  0  0  0  0  0  0  0  0
    3.7871    7.6131   -7.9407 C   0  0  0  0  0  0  0  0  0  0  0  0
    4.9141    7.4782   -6.6499 Cl  0  0  0  0  0  0  0  0  0  0  0  0
    2.4762    8.0305   -7.7645 C   0  0  0  0  0  0  0  0  0  0  0  0
    1.9851    8.3050   -6.4924 N   0  0  0  0  0  0  0  0  0  0  0  0
    0.5525    8.4107   -6.2384 C   0  0  1  0  0  0  0  0  0  0  0  0
   -0.0124    7.1746   -5.4562 C   0  0  1  0  0  0  0  0  0  0  0  0
    1.0050    6.1049   -5.0992 C   0  0  0  0  0  0  0  0  0  0  0  0
    1.2358    5.1711   -6.0672 N   0  0  0  0  0  0  0  0  0  0  0  0
    1.5912    6.0344   -4.0236 O   0  0  0  0  0  0  0  0  0  0  0  0
   -0.5971    7.8235   -4.1755 C   0  0  2  0  0  0  0  0  0  0  0  0
   -1.7811    8.6731   -4.5879 C   0  0  0  0  0  0  0  0  0  0  0  0
   -1.2926    9.7418   -5.2369 C   0  0  0  0  0  0  0  0  0  0  0  0
    0.2171    9.5916   -5.2719 C   0  0  1  0  0  0  0  0  0  0  0  0
    0.4049    8.9494   -3.8962 C   0  0  0  0  0  0  0  0  0  0  0  0
    1.6300    8.0804   -8.8101 N   0  0  0  0  0  0  0  0  0  0  0  0
   -0.5436    9.4190  -10.3864 C   0  0  0  0  0  0  0  0  0  0  0  0
   -1.7431    9.8291  -10.8108 N   0  0  0  0  0  0  0  0  0  0  0  0
   -5.5597    8.1072   -9.0342 H   0  0  0  0  0  0  0  0  0  0  0  0
   -5.1609    6.7336  -10.1120 H   0  0  0  0  0  0  0  0  0  0  0  0
   -6.4731    7.8584  -10.5543 H   0  0  0  0  0  0  0  0  0  0  0  0
   -3.8881    9.1607  -10.2276 H   0  0  0  0  0  0  0  0  0  0  0  0
   -3.4909   10.3177  -12.6112 H   0  0  0  0  0  0  0  0  0  0  0  0
   -2.9937    9.0182  -13.7213 H   0  0  0  0  0  0  0  0  0  0  0  0
   -0.8966    7.6652  -13.1338 H   0  0  0  0  0  0  0  0  0  0  0  0
    1.6268    7.3241  -11.9151 H   0  0  0  0  0  0  0  0  0  0  0  0
    5.1545    6.9204   -9.4484 H   0  0  0  0  0  0  0  0  0  0  0  0
    2.6207    8.7978   -5.8728 H   0  0  0  0  0  0  0  0  0  0  0  0
   -0.0175    8.5535   -7.1649 H   0  0  0  0  0  0  0  0  0  0  0  0
   -0.8119    6.6968   -6.0387 H   0  0  0  0  0  0  0  0  0  0  0  0
    0.9271    5.3031   -7.0211 H   0  0  0  0  0  0  0  0  0  0  0  0
    1.9561    4.4870   -5.8796 H   0  0  0  0  0  0  0  0  0  0  0  0
   -0.7854    7.1598   -3.3300 H   0  0  0  0  0  0  0  0  0  0  0  0
   -2.8205    8.4325   -4.4196 H   0  0  0  0  0  0  0  0  0  0  0  0
   -1.8623   10.5346   -5.6979 H   0  0  0  0  0  0  0  0  0  0  0  0
    0.7649   10.5231   -5.4226 H   0  0  0  0  0  0  0  0  0  0  0  0
    0.1011    9.5981   -3.0636 H   0  0  0  0  0  0  0  0  0  0  0  0
    1.4274    8.6061   -3.7125 H   0  0  0  0  0  0  0  0  0  0  0  0
   -0.1324    9.8506   -9.4836 H   0  0  0  0  0  0  0  0  0  0  0  0
  1  2  1  0  0  0  0
  1 30  1  0  0  0  0
  1 31  1  0  0  0  0
  1 32  1  0  0  0  0
  2  3  1  0  0  0  0
  2 33  1  0  0  0  0
  3  4  2  0  0  0  0
  3  5  1  0  0  0  0
  5  6  1  0  0  0  0
  5 34  1  0  0  0  0
  5 35  1  0  0  0  0
  6  7  1  0  0  0  0
  6 29  1  0  0  0  0
  7  8  2  0  0  0  0
  7 36  1  0  0  0  0
  8  9  1  0  0  0  0
  8 28  1  0  0  0  0
  9 10  1  0  0  0  0
  9 37  1  0  0  0  0
 10 11  1  0  0  0  0
 10 27  2  0  0  0  0
 11 12  2  0  0  0  0
 12 13  1  0  0  0  0
 12 38  1  0  0  0  0
 13 14  1  0  0  0  0
 13 15  2  0  0  0  0
 15 16  1  0  0  0  0
 15 27  1  0  0  0  0
 16 39  1  0  0  0  0
 17 18  1  0  0  0  0
 17 25  1  0  0  0  0
 17 16  1  0  0  0  0
 17 40  1  6  0  0  0
 18 19  1  0  0  0  0
 18 22  1  0  0  0  0
 18 41  1  6  0  0  0
 19 20  1  0  0  0  0
 19 21  2  0  0  0  0
 20 42  1  0  0  0  0
 20 43  1  0  0  0  0
 22 23  1  0  0  0  0
 22 26  1  0  0  0  0
 22 44  1  1  0  0  0
 23 24  2  0  0  0  0
 23 45  1  0  0  0  0
 24 25  1  0  0  0  0
 24 46  1  0  0  0  0
 25 26  1  0  0  0  0
 25 47  1  6  0  0  0
 26 48  1  0  0  0  0
 26 49  1  0  0  0  0
 28 29  2  0  0  0  0
 28 50  1  0  0  0  0
M  END
$$$$
