CHEMBL3656064
 OpenBabel04072215373D

 75 78  0  0  1  0  0  0  0  0999 V2000
    6.6168   -3.9231   -0.5529 C   0  0  0  0  0  0  0  0  0  0  0  0
    5.4809   -3.0299   -0.0937 C   0  0  0  0  0  0  0  0  0  0  0  0
    5.6771   -1.6547   -0.5048 N   0  0  0  0  0  0  0  0  0  0  0  0
    5.2495   -1.1974   -1.7310 C   0  0  0  0  0  0  0  0  0  0  0  0
    4.7362   -1.9216   -2.5841 O   0  0  0  0  0  0  0  0  0  0  0  0
    5.5002    0.2979   -1.9745 C   0  0  2  0  0  0  0  0  0  0  0  0
    4.3170    0.9236   -2.7311 C   0  0  0  0  0  0  0  0  0  0  0  0
    3.0195    0.8276   -1.9355 C   0  0  0  0  0  0  0  0  0  0  0  0
    1.8778    1.4164   -2.7186 C   0  0  0  0  0  0  0  0  0  0  0  0
    1.5212    2.5777   -2.6346 O   0  0  0  0  0  0  0  0  0  0  0  0
    1.2906    0.5300   -3.5550 O   0  0  0  0  0  0  0  0  0  0  0  0
    6.7380    0.4384   -2.7333 N   0  0  0  0  0  0  0  0  0  0  0  0
    7.5387    1.5415   -2.5534 C   0  0  0  0  0  0  0  0  0  0  0  0
    7.2658    2.4050   -1.7233 O   0  0  0  0  0  0  0  0  0  0  0  0
    8.7308    1.6439   -3.3906 C   0  0  0  0  0  0  0  0  0  0  0  0
    9.2752    0.7579   -4.3045 C   0  0  0  0  0  0  0  0  0  0  0  0
   10.4371    1.3065   -4.8057 N   0  0  0  0  0  0  0  0  0  0  0  0
   10.6740    2.5346   -4.2304 C   0  0  0  0  0  0  0  0  0  0  0  0
   11.8614    3.3448   -4.4970 C   0  0  0  0  0  0  0  0  0  0  0  0
   12.0547    4.5588   -3.8482 C   0  0  0  0  0  0  0  0  0  0  0  0
   13.2733    5.2154   -3.9900 C   0  0  0  0  0  0  0  0  0  0  0  0
   13.5953    6.3752   -3.3103 O   0  0  0  0  0  0  0  0  0  0  0  0
   13.1764    6.5259   -2.0011 C   0  0  0  0  0  0  0  0  0  0  0  0
   13.0071    5.4590   -1.1181 C   0  0  0  0  0  0  0  0  0  0  0  0
   12.5011    5.6720    0.1652 C   0  0  0  0  0  0  0  0  0  0  0  0
   12.2059    6.9568    0.6204 C   0  0  0  0  0  0  0  0  0  0  0  0
   11.6285    7.2060    1.8967 N   0  0  0  0  0  0  0  0  0  0  0  0
   11.0510    6.2408    2.7092 C   0  0  0  0  0  0  0  0  0  0  0  0
   10.9974    5.0445    2.4435 O   0  0  0  0  0  0  0  0  0  0  0  0
   10.4762    6.7780    3.8526 N   0  0  0  0  0  0  0  0  0  0  0  0
    9.8215    5.9315    4.7842 C   0  0  0  0  0  0  0  0  0  0  0  0
    8.5476    6.2841    5.2288 C   0  0  0  0  0  0  0  0  0  0  0  0
    7.8479    5.4328    6.0865 C   0  0  0  0  0  0  0  0  0  0  0  0
    8.4390    4.2562    6.5501 C   0  0  0  0  0  0  0  0  0  0  0  0
    9.7333    3.9106    6.1498 C   0  0  0  0  0  0  0  0  0  0  0  0
   10.3975    2.6740    6.6818 C   0  0  0  0  0  0  0  0  0  0  0  0
   10.4121    4.7475    5.2501 C   0  0  0  0  0  0  0  0  0  0  0  0
   12.4825    8.0297   -0.2373 C   0  0  0  0  0  0  0  0  0  0  0  0
   12.2575    9.2858    0.1835 F   0  0  0  0  0  0  0  0  0  0  0  0
   12.9544    7.8228   -1.5379 C   0  0  0  0  0  0  0  0  0  0  0  0
   14.2105    4.7060   -4.8787 C   0  0  0  0  0  0  0  0  0  0  0  0
   13.9124    3.5151   -5.5279 C   0  0  0  0  0  0  0  0  0  0  0  0
   12.7705    2.8076   -5.3424 N   0  0  0  0  0  0  0  0  0  0  0  0
    9.6210    2.7556   -3.3620 C   0  0  0  0  0  0  0  0  0  0  0  0
    6.4062   -4.9665   -0.2994 H   0  0  0  0  0  0  0  0  0  0  0  0
    7.5553   -3.6348   -0.0684 H   0  0  0  0  0  0  0  0  0  0  0  0
    6.7642   -3.8543   -1.6354 H   0  0  0  0  0  0  0  0  0  0  0  0
    5.4044   -3.0406    0.9981 H   0  0  0  0  0  0  0  0  0  0  0  0
    4.5314   -3.3918   -0.5039 H   0  0  0  0  0  0  0  0  0  0  0  0
    6.2571   -1.0546    0.0737 H   0  0  0  0  0  0  0  0  0  0  0  0
    5.6101    0.8019   -1.0053 H   0  0  0  0  0  0  0  0  0  0  0  0
    4.5366    1.9787   -2.9438 H   0  0  0  0  0  0  0  0  0  0  0  0
    4.1945    0.4413   -3.7093 H   0  0  0  0  0  0  0  0  0  0  0  0
    3.0991    1.3687   -0.9859 H   0  0  0  0  0  0  0  0  0  0  0  0
    2.7661   -0.2058   -1.6732 H   0  0  0  0  0  0  0  0  0  0  0  0
    1.6867   -0.3634   -3.5318 H   0  0  0  0  0  0  0  0  0  0  0  0
    6.9218   -0.1942   -3.5006 H   0  0  0  0  0  0  0  0  0  0  0  0
    8.9540   -0.2157   -4.6515 H   0  0  0  0  0  0  0  0  0  0  0  0
   11.0650    0.8785   -5.4771 H   0  0  0  0  0  0  0  0  0  0  0  0
   11.2865    4.9597   -3.1988 H   0  0  0  0  0  0  0  0  0  0  0  0
   13.2303    4.4363   -1.4099 H   0  0  0  0  0  0  0  0  0  0  0  0
   12.3564    4.7924    0.7843 H   0  0  0  0  0  0  0  0  0  0  0  0
   11.5583    8.1757    2.1752 H   0  0  0  0  0  0  0  0  0  0  0  0
   10.0709    7.6935    3.7288 H   0  0  0  0  0  0  0  0  0  0  0  0
    8.0586    7.1820    4.8641 H   0  0  0  0  0  0  0  0  0  0  0  0
    6.8331    5.6801    6.3862 H   0  0  0  0  0  0  0  0  0  0  0  0
    7.8807    3.6104    7.2242 H   0  0  0  0  0  0  0  0  0  0  0  0
    9.7248    2.1068    7.3346 H   0  0  0  0  0  0  0  0  0  0  0  0
   11.2790    2.9471    7.2713 H   0  0  0  0  0  0  0  0  0  0  0  0
   10.7011    2.0148    5.8626 H   0  0  0  0  0  0  0  0  0  0  0  0
   11.4110    4.4714    4.9175 H   0  0  0  0  0  0  0  0  0  0  0  0
   13.1268    8.6790   -2.1849 H   0  0  0  0  0  0  0  0  0  0  0  0
   15.1525    5.2130   -5.0534 H   0  0  0  0  0  0  0  0  0  0  0  0
   14.6179    3.0765   -6.2297 H   0  0  0  0  0  0  0  0  0  0  0  0
    9.4917    3.6228   -2.7260 H   0  0  0  0  0  0  0  0  0  0  0  0
  1  2  1  0  0  0  0
  1 45  1  0  0  0  0
  1 46  1  0  0  0  0
  1 47  1  0  0  0  0
  2  3  1  0  0  0  0
  2 48  1  0  0  0  0
  2 49  1  0  0  0  0
  3  4  1  0  0  0  0
  3 50  1  0  0  0  0
  4  5  2  0  0  0  0
  6 12  1  0  0  0  0
  6  7  1  0  0  0  0
  6  4  1  0  0  0  0
  6 51  1  1  0  0  0
  7  8  1  0  0  0  0
  7 52  1  0  0  0  0
  7 53  1  0  0  0  0
  8  9  1  0  0  0  0
  8 54  1  0  0  0  0
  8 55  1  0  0  0  0
  9 10  2  0  0  0  0
  9 11  1  0  0  0  0
 11 56  1  0  0  0  0
 12 13  1  0  0  0  0
 12 57  1  0  0  0  0
 13 14  2  0  0  0  0
 13 15  1  0  0  0  0
 15 16  2  0  0  0  0
 15 44  1  0  0  0  0
 16 17  1  0  0  0  0
 16 58  1  0  0  0  0
 17 18  1  0  0  0  0
 17 59  1  0  0  0  0
 18 19  1  0  0  0  0
 18 44  2  0  0  0  0
 19 20  1  0  0  0  0
 19 43  2  0  0  0  0
 20 21  2  0  0  0  0
 20 60  1  0  0  0  0
 21 22  1  0  0  0  0
 21 41  1  0  0  0  0
 22 23  1  0  0  0  0
 23 24  1  0  0  0  0
 23 40  2  0  0  0  0
 24 25  2  0  0  0  0
 24 61  1  0  0  0  0
 25 26  1  0  0  0  0
 25 62  1  0  0  0  0
 26 27  1  0  0  0  0
 26 38  2  0  0  0  0
 27 28  1  0  0  0  0
 27 63  1  0  0  0  0
 28 29  2  0  0  0  0
 28 30  1  0  0  0  0
 30 31  1  0  0  0  0
 30 64  1  0  0  0  0
 31 32  1  0  0  0  0
 31 37  2  0  0  0  0
 32 33  2  0  0  0  0
 32 65  1  0  0  0  0
 33 34  1  0  0  0  0
 33 66  1  0  0  0  0
 34 35  2  0  0  0  0
 34 67  1  0  0  0  0
 35 36  1  0  0  0  0
 35 37  1  0  0  0  0
 36 68  1  0  0  0  0
 36 69  1  0  0  0  0
 36 70  1  0  0  0  0
 37 71  1  0  0  0  0
 38 39  1  0  0  0  0
 38 40  1  0  0  0  0
 40 72  1  0  0  0  0
 41 42  2  0  0  0  0
 41 73  1  0  0  0  0
 42 43  1  0  0  0  0
 42 74  1  0  0  0  0
 44 75  1  0  0  0  0
M  END
$$$$
