CHEMBL4464066
 OpenBabel04072215383D

 39 42  0  0  0  0  0  0  0  0999 V2000
    1.1388    0.8586    0.3552 O   0  0  0  0  0  0  0  0  0  0  0  0
    2.2653    0.4327    0.1265 C   0  0  0  0  0  0  0  0  0  0  0  0
    2.8279    0.2042   -1.1187 N   0  0  0  0  0  0  0  0  0  0  0  0
    2.1749    0.4796   -2.3466 C   0  0  0  0  0  0  0  0  0  0  0  0
    1.0751    1.3458   -2.4250 C   0  0  0  0  0  0  0  0  0  0  0  0
    0.3684    1.5532   -3.6115 C   0  0  0  0  0  0  0  0  0  0  0  0
    0.8184    0.8510   -4.7208 C   0  0  0  0  0  0  0  0  0  0  0  0
    0.3518    0.7799   -6.0028 N   0  0  0  0  0  0  0  0  0  0  0  0
    1.1515   -0.0796   -6.7182 C   0  0  0  0  0  0  0  0  0  0  0  0
    0.9146   -0.4030   -8.1248 C   0  0  0  0  0  0  0  0  0  0  0  0
    0.3179    0.5207   -8.9975 C   0  0  0  0  0  0  0  0  0  0  0  0
    0.1147    0.2007  -10.3429 C   0  0  0  0  0  0  0  0  0  0  0  0
    0.5034   -1.0473  -10.8237 C   0  0  0  0  0  0  0  0  0  0  0  0
    0.2680   -1.4314  -12.4834 Cl  0  0  0  0  0  0  0  0  0  0  0  0
    1.0891   -1.9790   -9.9701 C   0  0  0  0  0  0  0  0  0  0  0  0
    1.2973   -1.6548   -8.6257 C   0  0  0  0  0  0  0  0  0  0  0  0
    2.1094   -0.5595   -5.9430 N   0  0  0  0  0  0  0  0  0  0  0  0
    1.9218    0.0113   -4.7049 C   0  0  0  0  0  0  0  0  0  0  0  0
    2.6402   -0.1602   -3.5072 C   0  0  0  0  0  0  0  0  0  0  0  0
    3.0787    0.0698    1.3098 C   0  0  0  0  0  0  0  0  0  0  0  0
    2.3993   -0.4261    2.4326 C   0  0  0  0  0  0  0  0  0  0  0  0
    3.0863   -0.6748    3.6174 C   0  0  0  0  0  0  0  0  0  0  0  0
    4.4582   -0.4208    3.6950 C   0  0  0  0  0  0  0  0  0  0  0  0
    5.2325   -0.7127    5.2085 Cl  0  0  0  0  0  0  0  0  0  0  0  0
    5.1389    0.0724    2.5710 C   0  0  0  0  0  0  0  0  0  0  0  0
    6.9948    0.4777    2.6053 Br  0  0  0  0  0  0  0  0  0  0  0  0
    4.4519    0.3149    1.3737 C   0  0  0  0  0  0  0  0  0  0  0  0
    3.6636   -0.3661   -1.1675 H   0  0  0  0  0  0  0  0  0  0  0  0
    0.7283    1.8948   -1.5534 H   0  0  0  0  0  0  0  0  0  0  0  0
   -0.4943    2.2085   -3.6419 H   0  0  0  0  0  0  0  0  0  0  0  0
   -0.4691    1.2486   -6.3536 H   0  0  0  0  0  0  0  0  0  0  0  0
    0.0284    1.5106   -8.6542 H   0  0  0  0  0  0  0  0  0  0  0  0
   -0.3340    0.9327  -11.0089 H   0  0  0  0  0  0  0  0  0  0  0  0
    1.3932   -2.9538  -10.3413 H   0  0  0  0  0  0  0  0  0  0  0  0
    1.7612   -2.3848   -7.9638 H   0  0  0  0  0  0  0  0  0  0  0  0
    3.4968   -0.8232   -3.5014 H   0  0  0  0  0  0  0  0  0  0  0  0
    1.3229   -0.5920    2.3884 H   0  0  0  0  0  0  0  0  0  0  0  0
    2.5381   -1.0428    4.4824 H   0  0  0  0  0  0  0  0  0  0  0  0
    4.9747    0.7427    0.5225 H   0  0  0  0  0  0  0  0  0  0  0  0
  1  2  2  0  0  0  0
  2  3  1  0  0  0  0
  2 20  1  0  0  0  0
  3  4  1  0  0  0  0
  3 28  1  0  0  0  0
  4  5  1  0  0  0  0
  4 19  2  0  0  0  0
  5  6  2  0  0  0  0
  5 29  1  0  0  0  0
  6  7  1  0  0  0  0
  6 30  1  0  0  0  0
  7  8  1  0  0  0  0
  7 18  2  0  0  0  0
  8  9  1  0  0  0  0
  8 31  1  0  0  0  0
  9 10  1  0  0  0  0
  9 17  2  0  0  0  0
 10 11  1  0  0  0  0
 10 16  2  0  0  0  0
 11 12  2  0  0  0  0
 11 32  1  0  0  0  0
 12 13  1  0  0  0  0
 12 33  1  0  0  0  0
 13 14  1  0  0  0  0
 13 15  2  0  0  0  0
 15 16  1  0  0  0  0
 15 34  1  0  0  0  0
 16 35  1  0  0  0  0
 17 18  1  0  0  0  0
 18 19  1  0  0  0  0
 19 36  1  0  0  0  0
 20 21  1  0  0  0  0
 20 27  2  0  0  0  0
 21 22  2  0  0  0  0
 21 37  1  0  0  0  0
 22 23  1  0  0  0  0
 22 38  1  0  0  0  0
 23 24  1  0  0  0  0
 23 25  2  0  0  0  0
 25 26  1  0  0  0  0
 25 27  1  0  0  0  0
 27 39  1  0  0  0  0
M  END
$$$$
