CHEMBL3819461
 OpenBabel04072215373D

 41 44  0  0  0  0  0  0  0  0999 V2000
    3.6203    2.0104   -2.1673 C   0  0  0  0  0  0  0  0  0  0  0  0
    4.2715    1.2130   -1.1841 O   0  0  0  0  0  0  0  0  0  0  0  0
    4.5005   -0.0905   -1.5280 C   0  0  0  0  0  0  0  0  0  0  0  0
    4.1239   -0.6830   -2.7259 C   0  0  0  0  0  0  0  0  0  0  0  0
    4.3943   -2.0334   -2.9593 C   0  0  0  0  0  0  0  0  0  0  0  0
    5.0208   -2.8348   -1.9978 C   0  0  0  0  0  0  0  0  0  0  0  0
    5.3014   -4.1931   -2.2042 N   0  0  0  0  0  0  0  0  0  0  0  0
    5.0892   -4.9794   -3.3352 C   0  0  0  0  0  0  0  0  0  0  0  0
    4.8972   -6.2892   -3.1404 N   0  0  0  0  0  0  0  0  0  0  0  0
    4.6593   -7.0256   -4.2364 C   0  0  0  0  0  0  0  0  0  0  0  0
    4.6039   -6.5137   -5.5119 C   0  0  0  0  0  0  0  0  0  0  0  0
    4.8433   -5.1648   -5.6338 C   0  0  0  0  0  0  0  0  0  0  0  0
    4.9194   -4.5967   -6.9187 N   0  0  0  0  0  0  0  0  0  0  0  0
    5.6299   -3.4581   -7.3568 C   0  0  0  0  0  0  0  0  0  0  0  0
    5.4951   -3.0508   -8.6957 C   0  0  0  0  0  0  0  0  0  0  0  0
    6.3577   -2.1130   -9.2857 C   0  0  0  0  0  0  0  0  0  0  0  0
    7.3572   -1.5766   -8.4725 C   0  0  0  0  0  0  0  0  0  0  0  0
    8.4220   -0.7561   -8.7367 N   0  0  0  0  0  0  0  0  0  0  0  0
    9.1095   -0.3763   -7.6435 N   0  0  0  0  0  0  0  0  0  0  0  0
    8.5082   -1.0458   -6.6552 C   0  0  0  0  0  0  0  0  0  0  0  0
    7.4521   -1.8590   -7.1181 C   0  0  0  0  0  0  0  0  0  0  0  0
    6.5857   -2.8103   -6.5556 C   0  0  0  0  0  0  0  0  0  0  0  0
    5.0850   -4.4192   -4.5514 N   0  0  0  0  0  0  0  0  0  0  0  0
    5.4330   -2.2136   -0.8095 C   0  0  0  0  0  0  0  0  0  0  0  0
    5.1703   -0.8610   -0.5748 C   0  0  0  0  0  0  0  0  0  0  0  0
    3.5209    3.0269   -1.7665 H   0  0  0  0  0  0  0  0  0  0  0  0
    2.6129    1.6366   -2.3769 H   0  0  0  0  0  0  0  0  0  0  0  0
    4.2176    2.0717   -3.0841 H   0  0  0  0  0  0  0  0  0  0  0  0
    3.6101   -0.1384   -3.5110 H   0  0  0  0  0  0  0  0  0  0  0  0
    4.0724   -2.4404   -3.9111 H   0  0  0  0  0  0  0  0  0  0  0  0
    5.2349   -4.7758   -1.3801 H   0  0  0  0  0  0  0  0  0  0  0  0
    4.5191   -8.0864   -4.0553 H   0  0  0  0  0  0  0  0  0  0  0  0
    4.4356   -7.1524   -6.3675 H   0  0  0  0  0  0  0  0  0  0  0  0
    4.2025   -4.9230   -7.5516 H   0  0  0  0  0  0  0  0  0  0  0  0
    4.7241   -3.4953   -9.3210 H   0  0  0  0  0  0  0  0  0  0  0  0
    6.2661   -1.8473  -10.3340 H   0  0  0  0  0  0  0  0  0  0  0  0
    8.7484   -0.4392   -9.6419 H   0  0  0  0  0  0  0  0  0  0  0  0
    8.8684   -0.9314   -5.6414 H   0  0  0  0  0  0  0  0  0  0  0  0
    6.7229   -3.0654   -5.5108 H   0  0  0  0  0  0  0  0  0  0  0  0
    5.9736   -2.7859   -0.0565 H   0  0  0  0  0  0  0  0  0  0  0  0
    5.4874   -0.4036    0.3590 H   0  0  0  0  0  0  0  0  0  0  0  0
  1  2  1  0  0  0  0
  1 26  1  0  0  0  0
  1 27  1  0  0  0  0
  1 28  1  0  0  0  0
  2  3  1  0  0  0  0
  3  4  1  0  0  0  0
  3 25  2  0  0  0  0
  4  5  2  0  0  0  0
  4 29  1  0  0  0  0
  5  6  1  0  0  0  0
  5 30  1  0  0  0  0
  6  7  1  0  0  0  0
  6 24  2  0  0  0  0
  7  8  1  0  0  0  0
  7 31  1  0  0  0  0
  8  9  1  0  0  0  0
  8 23  2  0  0  0  0
  9 10  2  0  0  0  0
 10 11  1  0  0  0  0
 10 32  1  0  0  0  0
 11 12  2  0  0  0  0
 11 33  1  0  0  0  0
 12 13  1  0  0  0  0
 12 23  1  0  0  0  0
 13 14  1  0  0  0  0
 13 34  1  0  0  0  0
 14 15  1  0  0  0  0
 14 22  2  0  0  0  0
 15 16  2  0  0  0  0
 15 35  1  0  0  0  0
 16 17  1  0  0  0  0
 16 36  1  0  0  0  0
 17 18  1  0  0  0  0
 17 21  2  0  0  0  0
 18 19  1  0  0  0  0
 18 37  1  0  0  0  0
 19 20  2  0  0  0  0
 20 21  1  0  0  0  0
 20 38  1  0  0  0  0
 21 22  1  0  0  0  0
 22 39  1  0  0  0  0
 24 25  1  0  0  0  0
 24 40  1  0  0  0  0
 25 41  1  0  0  0  0
M  END
$$$$
