CHEMBL3690374
 OpenBabel04072215373D

 49 51  0  0  0  0  0  0  0  0999 V2000
    1.0247   -0.1577    0.0902 N   0  0  0  0  0  0  0  0  0  0  0  0
    2.2933    0.1017    0.0356 C   0  0  0  0  0  0  0  0  0  0  0  0
    3.0573    0.1931   -1.2432 C   0  0  0  0  0  0  0  0  0  0  0  0
    2.4893    0.6471   -2.3723 C   0  0  0  0  0  0  0  0  0  0  0  0
    3.1915    0.7378   -3.6859 C   0  0  0  0  0  0  0  0  0  0  0  0
    2.4857   -0.0705   -4.6626 N   0  0  0  0  0  0  0  0  0  0  0  0
    3.0816    0.2502    1.3059 C   0  0  0  0  0  0  0  0  0  0  0  0
    2.6943   -0.5386    2.4752 C   0  0  0  0  0  0  0  0  0  0  0  0
    3.3505   -0.3819    3.6380 C   0  0  0  0  0  0  0  0  0  0  0  0
    4.3874    0.5504    3.7272 N   0  0  0  0  0  0  0  0  0  0  0  0
    5.1861    0.9415    4.7987 C   0  0  0  0  0  0  0  0  0  0  0  0
    5.1524    0.4711    6.1962 C   0  0  0  0  0  0  0  0  0  0  0  0
    6.3683    0.3866    6.8932 C   0  0  0  0  0  0  0  0  0  0  0  0
    6.4069   -0.0004    8.2288 C   0  0  0  0  0  0  0  0  0  0  0  0
    5.2270   -0.3122    8.8967 C   0  0  0  0  0  0  0  0  0  0  0  0
    3.9950   -0.2232    8.2483 C   0  0  0  0  0  0  0  0  0  0  0  0
    2.7675   -0.5147    8.8949 N   0  0  0  0  0  0  0  0  0  0  0  0
    2.5966   -0.8293   10.2301 C   0  0  0  0  0  0  0  0  0  0  0  0
    3.4611   -0.8819   11.0919 O   0  0  0  0  0  0  0  0  0  0  0  0
    1.2875   -1.1402   10.5303 N   0  0  0  0  0  0  0  0  0  0  0  0
    0.9568   -1.4556   11.9264 C   0  0  0  0  0  0  0  0  0  0  0  0
    0.8372   -0.2537   12.8776 C   0  0  0  0  0  0  0  0  0  0  0  0
    0.8402    0.9230   12.2077 F   0  0  0  0  0  0  0  0  0  0  0  0
   -0.3413   -0.3149   13.5481 F   0  0  0  0  0  0  0  0  0  0  0  0
    1.8197   -0.2202   13.7981 F   0  0  0  0  0  0  0  0  0  0  0  0
    3.9676    0.1703    6.8943 C   0  0  0  0  0  0  0  0  0  0  0  0
    6.0625    1.8609    4.2316 C   0  0  0  0  0  0  0  0  0  0  0  0
    5.8281    2.0648    2.9022 N   0  0  0  0  0  0  0  0  0  0  0  0
    4.8090    1.2895    2.6176 C   0  0  0  0  0  0  0  0  0  0  0  0
    4.1127    1.1187    1.3853 C   0  0  0  0  0  0  0  0  0  0  0  0
    0.6363   -0.2729   -0.8507 H   0  0  0  0  0  0  0  0  0  0  0  0
    4.0920   -0.1351   -1.2236 H   0  0  0  0  0  0  0  0  0  0  0  0
    1.4592    0.9985   -2.3715 H   0  0  0  0  0  0  0  0  0  0  0  0
    4.2338    0.4085   -3.6167 H   0  0  0  0  0  0  0  0  0  0  0  0
    3.1954    1.7817   -4.0161 H   0  0  0  0  0  0  0  0  0  0  0  0
    2.5838   -1.0565   -4.4204 H   0  0  0  0  0  0  0  0  0  0  0  0
    2.9307    0.0360   -5.5730 H   0  0  0  0  0  0  0  0  0  0  0  0
    1.8709   -1.2395    2.3729 H   0  0  0  0  0  0  0  0  0  0  0  0
    3.1007   -0.9605    4.5153 H   0  0  0  0  0  0  0  0  0  0  0  0
    7.3107    0.6264    6.4052 H   0  0  0  0  0  0  0  0  0  0  0  0
    7.3569   -0.0547    8.7577 H   0  0  0  0  0  0  0  0  0  0  0  0
    5.3145   -0.6212    9.9330 H   0  0  0  0  0  0  0  0  0  0  0  0
    1.9364   -0.4908    8.3243 H   0  0  0  0  0  0  0  0  0  0  0  0
    0.5776   -0.6706    9.9893 H   0  0  0  0  0  0  0  0  0  0  0  0
    1.7126   -2.1457   12.3182 H   0  0  0  0  0  0  0  0  0  0  0  0
    0.0076   -1.9993   11.8987 H   0  0  0  0  0  0  0  0  0  0  0  0
    3.0079    0.2827    6.3984 H   0  0  0  0  0  0  0  0  0  0  0  0
    6.8586    2.3980    4.7333 H   0  0  0  0  0  0  0  0  0  0  0  0
    4.4275    1.7380    0.5534 H   0  0  0  0  0  0  0  0  0  0  0  0
  1  2  2  0  0  0  0
  1 31  1  0  0  0  0
  2  3  1  0  0  0  0
  2  7  1  0  0  0  0
  3  4  2  0  0  0  0
  3 32  1  0  0  0  0
  4  5  1  0  0  0  0
  4 33  1  0  0  0  0
  5  6  1  0  0  0  0
  5 34  1  0  0  0  0
  5 35  1  0  0  0  0
  6 36  1  0  0  0  0
  6 37  1  0  0  0  0
  7  8  1  0  0  0  0
  7 30  2  0  0  0  0
  8  9  2  0  0  0  0
  8 38  1  0  0  0  0
  9 10  1  0  0  0  0
  9 39  1  0  0  0  0
 10 11  1  0  0  0  0
 10 29  1  0  0  0  0
 11 12  1  0  0  0  0
 11 27  2  0  0  0  0
 12 13  1  0  0  0  0
 12 26  2  0  0  0  0
 13 14  2  0  0  0  0
 13 40  1  0  0  0  0
 14 15  1  0  0  0  0
 14 41  1  0  0  0  0
 15 16  2  0  0  0  0
 15 42  1  0  0  0  0
 16 17  1  0  0  0  0
 16 26  1  0  0  0  0
 17 18  1  0  0  0  0
 17 43  1  0  0  0  0
 18 19  2  0  0  0  0
 18 20  1  0  0  0  0
 20 21  1  0  0  0  0
 20 44  1  0  0  0  0
 21 22  1  0  0  0  0
 21 45  1  0  0  0  0
 21 46  1  0  0  0  0
 22 23  1  0  0  0  0
 22 24  1  0  0  0  0
 22 25  1  0  0  0  0
 26 47  1  0  0  0  0
 27 28  1  0  0  0  0
 27 48  1  0  0  0  0
 28 29  2  0  0  0  0
 29 30  1  0  0  0  0
 30 49  1  0  0  0  0
M  END
$$$$
