CHEMBL215948
 OpenBabel04072215363D

 69 74  0  0  0  0  0  0  0  0999 V2000
    2.0117   -0.1887   -0.9817 C   0  0  0  0  0  0  0  0  0  0  0  0
    0.5795    0.0849   -1.0603 N   0  0  0  0  0  0  0  0  0  0  0  0
   -0.2029   -1.1121   -0.7132 C   0  0  0  0  0  0  0  0  0  0  0  0
   -1.7208   -0.8215   -0.7210 C   0  0  0  0  0  0  0  0  0  0  0  0
   -2.1387    0.2566    0.2016 N   0  0  0  0  0  0  0  0  0  0  0  0
   -1.9889   -0.0770    1.6309 C   0  0  0  0  0  0  0  0  0  0  0  0
   -2.7748   -1.2893    2.0853 C   0  0  0  0  0  0  0  0  0  0  0  0
   -2.1913   -2.5817    1.9978 C   0  0  0  0  0  0  0  0  0  0  0  0
   -2.8946   -3.7418    2.3266 C   0  0  0  0  0  0  0  0  0  0  0  0
   -4.1832   -3.5985    2.7972 C   0  0  0  0  0  0  0  0  0  0  0  0
   -4.7464   -2.3027    2.9432 C   0  0  0  0  0  0  0  0  0  0  0  0
   -4.0808   -1.1512    2.5800 C   0  0  0  0  0  0  0  0  0  0  0  0
   -6.0301   -2.5056    3.5213 C   0  0  0  0  0  0  0  0  0  0  0  0
   -7.0031   -1.7490    4.0071 N   0  0  0  0  0  0  0  0  0  0  0  0
   -7.8784   -2.6829    4.4658 N   0  0  0  0  0  0  0  0  0  0  0  0
   -7.4718   -3.9916    4.2800 C   0  0  0  0  0  0  0  0  0  0  0  0
   -8.1987   -5.1443    4.7047 C   0  0  0  0  0  0  0  0  0  0  0  0
   -7.9728   -6.4530    4.3267 C   0  0  0  0  0  0  0  0  0  0  0  0
   -8.7887   -7.3716    5.0427 C   0  0  0  0  0  0  0  0  0  0  0  0
   -9.6084   -6.7374    5.9580 C   0  0  0  0  0  0  0  0  0  0  0  0
  -10.5574   -7.3648    6.9196 C   0  0  0  0  0  0  0  0  0  0  0  0
  -10.2819   -7.1588    8.3486 N   0  0  0  0  0  0  0  0  0  0  0  0
   -9.0894   -6.4491    8.8066 C   0  0  0  0  0  0  0  0  0  0  0  0
  -11.2931   -7.6252    9.1876 C   0  0  0  0  0  0  0  0  0  0  0  0
  -12.2216   -8.2914    8.7327 O   0  0  0  0  0  0  0  0  0  0  0  0
  -11.1843   -7.2442   10.5066 N   0  0  0  0  0  0  0  0  0  0  0  0
  -12.0914   -7.5529   11.5438 C   0  0  0  0  0  0  0  0  0  0  0  0
  -13.1020   -8.5084   11.4283 C   0  0  0  0  0  0  0  0  0  0  0  0
  -14.0264   -8.6983   12.4591 C   0  0  0  0  0  0  0  0  0  0  0  0
  -13.9388   -7.9428   13.6273 C   0  0  0  0  0  0  0  0  0  0  0  0
  -15.1445   -8.1884   14.8376 Cl  0  0  0  0  0  0  0  0  0  0  0  0
  -12.8992   -7.0201   13.7740 C   0  0  0  0  0  0  0  0  0  0  0  0
  -12.7103   -6.0594   15.1985 Cl  0  0  0  0  0  0  0  0  0  0  0  0
  -11.9741   -6.8342   12.7389 C   0  0  0  0  0  0  0  0  0  0  0  0
   -9.5097   -5.0338    5.7960 S   0  0  0  0  0  0  0  0  0  0  0  0
   -6.2498   -3.8802    3.6738 C   0  0  0  0  0  0  0  0  0  0  0  0
   -5.1251   -4.7307    3.2045 C   0  0  0  0  0  0  0  0  0  0  0  0
   -1.3316    1.4555   -0.1351 C   0  0  0  0  0  0  0  0  0  0  0  0
    0.2017    1.2170   -0.1896 C   0  0  0  0  0  0  0  0  0  0  0  0
    2.2794   -1.0238   -1.6392 H   0  0  0  0  0  0  0  0  0  0  0  0
    2.3331   -0.4393    0.0358 H   0  0  0  0  0  0  0  0  0  0  0  0
    2.5863    0.6787   -1.3229 H   0  0  0  0  0  0  0  0  0  0  0  0
    0.1057   -1.4936    0.2668 H   0  0  0  0  0  0  0  0  0  0  0  0
   -0.0017   -1.9071   -1.4411 H   0  0  0  0  0  0  0  0  0  0  0  0
   -2.2848   -1.7420   -0.5408 H   0  0  0  0  0  0  0  0  0  0  0  0
   -2.0102   -0.5270   -1.7399 H   0  0  0  0  0  0  0  0  0  0  0  0
   -2.3391    0.7793    2.2236 H   0  0  0  0  0  0  0  0  0  0  0  0
   -0.9408   -0.2196    1.9206 H   0  0  0  0  0  0  0  0  0  0  0  0
   -1.1708   -2.6884    1.6397 H   0  0  0  0  0  0  0  0  0  0  0  0
   -2.4366   -4.7186    2.2153 H   0  0  0  0  0  0  0  0  0  0  0  0
   -4.5580   -0.1813    2.6796 H   0  0  0  0  0  0  0  0  0  0  0  0
   -8.7293   -2.3674    4.9167 H   0  0  0  0  0  0  0  0  0  0  0  0
   -7.2379   -6.7515    3.5886 H   0  0  0  0  0  0  0  0  0  0  0  0
   -8.7591   -8.4474    4.9087 H   0  0  0  0  0  0  0  0  0  0  0  0
  -10.5665   -8.4519    6.7585 H   0  0  0  0  0  0  0  0  0  0  0  0
  -11.5742   -7.0100    6.7040 H   0  0  0  0  0  0  0  0  0  0  0  0
   -8.2529   -6.5627    8.1140 H   0  0  0  0  0  0  0  0  0  0  0  0
   -8.7576   -6.8460    9.7706 H   0  0  0  0  0  0  0  0  0  0  0  0
   -9.3433   -5.3920    8.9334 H   0  0  0  0  0  0  0  0  0  0  0  0
  -10.5254   -6.5095   10.7084 H   0  0  0  0  0  0  0  0  0  0  0  0
  -13.2085   -9.1254   10.5397 H   0  0  0  0  0  0  0  0  0  0  0  0
  -14.8190   -9.4314   12.3297 H   0  0  0  0  0  0  0  0  0  0  0  0
  -11.1786   -6.1039   12.8662 H   0  0  0  0  0  0  0  0  0  0  0  0
   -5.4046   -5.3347    2.3376 H   0  0  0  0  0  0  0  0  0  0  0  0
   -4.6969   -5.3350    4.0068 H   0  0  0  0  0  0  0  0  0  0  0  0
   -1.5531    2.2694    0.5651 H   0  0  0  0  0  0  0  0  0  0  0  0
   -1.6606    1.8178   -1.1189 H   0  0  0  0  0  0  0  0  0  0  0  0
    0.5775    1.0575    0.8295 H   0  0  0  0  0  0  0  0  0  0  0  0
    0.6758    2.1312   -0.5641 H   0  0  0  0  0  0  0  0  0  0  0  0
  1  2  1  0  0  0  0
  1 40  1  0  0  0  0
  1 41  1  0  0  0  0
  1 42  1  0  0  0  0
  2  3  1  0  0  0  0
  2 39  1  0  0  0  0
  3  4  1  0  0  0  0
  3 43  1  0  0  0  0
  3 44  1  0  0  0  0
  4  5  1  0  0  0  0
  4 45  1  0  0  0  0
  4 46  1  0  0  0  0
  5  6  1  0  0  0  0
  5 38  1  0  0  0  0
  6  7  1  0  0  0  0
  6 47  1  0  0  0  0
  6 48  1  0  0  0  0
  7  8  1  0  0  0  0
  7 12  2  0  0  0  0
  8  9  2  0  0  0  0
  8 49  1  0  0  0  0
  9 10  1  0  0  0  0
  9 50  1  0  0  0  0
 10 11  2  0  0  0  0
 10 37  1  0  0  0  0
 11 12  1  0  0  0  0
 11 13  1  0  0  0  0
 12 51  1  0  0  0  0
 13 14  2  0  0  0  0
 13 36  1  0  0  0  0
 14 15  1  0  0  0  0
 15 16  1  0  0  0  0
 15 52  1  0  0  0  0
 16 17  1  0  0  0  0
 16 36  2  0  0  0  0
 17 18  2  0  0  0  0
 17 35  1  0  0  0  0
 18 19  1  0  0  0  0
 18 53  1  0  0  0  0
 19 20  2  0  0  0  0
 19 54  1  0  0  0  0
 20 21  1  0  0  0  0
 20 35  1  0  0  0  0
 21 22  1  0  0  0  0
 21 55  1  0  0  0  0
 21 56  1  0  0  0  0
 22 23  1  0  0  0  0
 22 24  1  0  0  0  0
 23 57  1  0  0  0  0
 23 58  1  0  0  0  0
 23 59  1  0  0  0  0
 24 25  2  0  0  0  0
 24 26  1  0  0  0  0
 26 27  1  0  0  0  0
 26 60  1  0  0  0  0
 27 28  1  0  0  0  0
 27 34  2  0  0  0  0
 28 29  2  0  0  0  0
 28 61  1  0  0  0  0
 29 30  1  0  0  0  0
 29 62  1  0  0  0  0
 30 31  1  0  0  0  0
 30 32  2  0  0  0  0
 32 33  1  0  0  0  0
 32 34  1  0  0  0  0
 34 63  1  0  0  0  0
 36 37  1  0  0  0  0
 37 64  1  0  0  0  0
 37 65  1  0  0  0  0
 38 39  1  0  0  0  0
 38 66  1  0  0  0  0
 38 67  1  0  0  0  0
 39 68  1  0  0  0  0
 39 69  1  0  0  0  0
M  END
$$$$
