CHEMBL1688860
 OpenBabel04072215363D

 68 72  0  0  1  0  0  0  0  0999 V2000
   11.6141   -1.2008    2.3992 C   0  0  0  0  0  0  0  0  0  0  0  0
   11.6915   -1.3227    0.9418 N   0  0  0  0  0  0  0  0  0  0  0  0
   11.5998   -2.7420    0.5733 C   0  0  0  0  0  0  0  0  0  0  0  0
   10.6087   -0.5712    0.2734 C   0  0  0  0  0  0  0  0  0  0  0  0
   10.6103    0.9342    0.5233 C   0  0  0  0  0  0  0  0  0  0  0  0
    9.4439    1.5849    0.9532 C   0  0  0  0  0  0  0  0  0  0  0  0
    9.3597    2.9906    1.0979 C   0  0  0  0  0  0  0  0  0  0  0  0
    8.0042    3.5317    1.4892 C   0  0  0  0  0  0  0  0  0  0  0  0
    7.1493    2.7132    1.8481 O   0  0  0  0  0  0  0  0  0  0  0  0
    7.7023    4.8954    1.4496 N   0  0  0  0  0  0  0  0  0  0  0  0
    6.4040    5.3456    2.0281 C   0  0  2  0  0  0  0  0  0  0  0  0
    5.8371    6.6754    1.4156 C   0  0  0  0  0  0  0  0  0  0  0  0
    5.1576    7.5724    2.4955 C   0  0  0  0  0  0  0  0  0  0  0  0
    6.2935    7.9276    3.4367 C   0  0  0  0  0  0  0  0  0  0  0  0
    6.7707    9.2350    3.5141 C   0  0  0  0  0  0  0  0  0  0  0  0
    8.1360    9.4240    3.6943 C   0  0  0  0  0  0  0  0  0  0  0  0
    8.9786    8.3087    3.7900 C   0  0  0  0  0  0  0  0  0  0  0  0
   10.3321    8.3851    3.5439 O   0  0  0  0  0  0  0  0  0  0  0  0
   10.7482    9.0772    2.4166 C   0  0  0  0  0  0  0  0  0  0  0  0
    9.9785    9.2649    1.2658 C   0  0  0  0  0  0  0  0  0  0  0  0
   10.4642   10.1101    0.2830 C   0  0  0  0  0  0  0  0  0  0  0  0
   11.6510   10.7425    0.3636 N   0  0  0  0  0  0  0  0  0  0  0  0
   12.4120   10.4761    1.4413 C   0  0  0  0  0  0  0  0  0  0  0  0
   12.0364    9.6245    2.4720 C   0  0  0  0  0  0  0  0  0  0  0  0
   12.9442    9.4094    3.6470 C   0  0  0  0  0  0  0  0  0  0  0  0
   14.3976    9.7213    3.3250 C   0  0  0  0  0  0  0  0  0  0  0  0
   14.5511   10.9713    2.4920 C   0  0  0  0  0  0  0  0  0  0  0  0
   15.5344   11.7053    2.5901 O   0  0  0  0  0  0  0  0  0  0  0  0
   13.6066   11.1733    1.5322 N   0  0  0  0  0  0  0  0  0  0  0  0
    8.4604    7.0339    4.0100 C   0  0  0  0  0  0  0  0  0  0  0  0
    7.0977    6.8358    3.8285 C   0  0  0  0  0  0  0  0  0  0  0  0
    6.5333    5.4577    3.5637 C   0  0  0  0  0  0  0  0  0  0  0  0
   10.5190    3.7439    0.8616 C   0  0  0  0  0  0  0  0  0  0  0  0
   11.7236    3.1033    0.4610 C   0  0  0  0  0  0  0  0  0  0  0  0
   13.0099    3.8590    0.2329 C   0  0  0  0  0  0  0  0  0  0  0  0
   12.8988    5.1988    0.4643 F   0  0  0  0  0  0  0  0  0  0  0  0
   14.0206    3.4227    1.0381 F   0  0  0  0  0  0  0  0  0  0  0  0
   13.4696    3.7333   -1.0413 F   0  0  0  0  0  0  0  0  0  0  0  0
   11.7421    1.7060    0.2681 C   0  0  0  0  0  0  0  0  0  0  0  0
   12.3938   -1.8131    2.8758 H   0  0  0  0  0  0  0  0  0  0  0  0
   10.6445   -1.5198    2.7928 H   0  0  0  0  0  0  0  0  0  0  0  0
   11.8062   -0.1731    2.7209 H   0  0  0  0  0  0  0  0  0  0  0  0
   12.4037   -3.3207    1.0441 H   0  0  0  0  0  0  0  0  0  0  0  0
   11.7137   -2.8746   -0.5083 H   0  0  0  0  0  0  0  0  0  0  0  0
   10.6428   -3.1870    0.8751 H   0  0  0  0  0  0  0  0  0  0  0  0
    9.6331   -0.9903    0.5495 H   0  0  0  0  0  0  0  0  0  0  0  0
   10.7079   -0.7016   -0.8130 H   0  0  0  0  0  0  0  0  0  0  0  0
    8.5626    0.9793    1.1710 H   0  0  0  0  0  0  0  0  0  0  0  0
    8.4660    5.5619    1.4388 H   0  0  0  0  0  0  0  0  0  0  0  0
    5.6673    4.5635    1.8079 H   0  0  0  0  0  0  0  0  0  0  0  0
    5.1245    6.4521    0.6150 H   0  0  0  0  0  0  0  0  0  0  0  0
    6.6550    7.2451    0.9492 H   0  0  0  0  0  0  0  0  0  0  0  0
    4.7217    8.4714    2.0453 H   0  0  0  0  0  0  0  0  0  0  0  0
    4.3544    7.0435    3.0222 H   0  0  0  0  0  0  0  0  0  0  0  0
    6.1420   10.0807    3.2468 H   0  0  0  0  0  0  0  0  0  0  0  0
    8.5531   10.4225    3.5926 H   0  0  0  0  0  0  0  0  0  0  0  0
    9.0043    8.8094    1.1358 H   0  0  0  0  0  0  0  0  0  0  0  0
    9.8815   10.3307   -0.6090 H   0  0  0  0  0  0  0  0  0  0  0  0
   12.8898    8.3636    3.9743 H   0  0  0  0  0  0  0  0  0  0  0  0
   12.5984   10.0387    4.4753 H   0  0  0  0  0  0  0  0  0  0  0  0
   14.8491    8.8988    2.7554 H   0  0  0  0  0  0  0  0  0  0  0  0
   14.9637    9.8365    4.2543 H   0  0  0  0  0  0  0  0  0  0  0  0
   13.7571   11.9096    0.8573 H   0  0  0  0  0  0  0  0  0  0  0  0
    9.1245    6.1824    4.1239 H   0  0  0  0  0  0  0  0  0  0  0  0
    5.5406    5.3771    4.0330 H   0  0  0  0  0  0  0  0  0  0  0  0
    7.1463    4.6687    4.0076 H   0  0  0  0  0  0  0  0  0  0  0  0
   10.5181    4.8222    0.9919 H   0  0  0  0  0  0  0  0  0  0  0  0
   12.6575    1.2147   -0.0726 H   0  0  0  0  0  0  0  0  0  0  0  0
  1  2  1  0  0  0  0
  1 40  1  0  0  0  0
  1 41  1  0  0  0  0
  1 42  1  0  0  0  0
  2  3  1  0  0  0  0
  2  4  1  0  0  0  0
  3 43  1  0  0  0  0
  3 44  1  0  0  0  0
  3 45  1  0  0  0  0
  4  5  1  0  0  0  0
  4 46  1  0  0  0  0
  4 47  1  0  0  0  0
  5  6  1  0  0  0  0
  5 39  2  0  0  0  0
  6  7  2  0  0  0  0
  6 48  1  0  0  0  0
  7  8  1  0  0  0  0
  7 33  1  0  0  0  0
  8  9  2  0  0  0  0
  8 10  1  0  0  0  0
 10 49  1  0  0  0  0
 11 12  1  0  0  0  0
 11 32  1  0  0  0  0
 11 10  1  0  0  0  0
 11 50  1  6  0  0  0
 12 13  1  0  0  0  0
 12 51  1  0  0  0  0
 12 52  1  0  0  0  0
 13 14  1  0  0  0  0
 13 53  1  0  0  0  0
 13 54  1  0  0  0  0
 14 15  1  0  0  0  0
 14 31  2  0  0  0  0
 15 16  2  0  0  0  0
 15 55  1  0  0  0  0
 16 17  1  0  0  0  0
 16 56  1  0  0  0  0
 17 18  1  0  0  0  0
 17 30  2  0  0  0  0
 18 19  1  0  0  0  0
 19 20  1  0  0  0  0
 19 24  2  0  0  0  0
 20 21  2  0  0  0  0
 20 57  1  0  0  0  0
 21 22  1  0  0  0  0
 21 58  1  0  0  0  0
 22 23  2  0  0  0  0
 23 24  1  0  0  0  0
 23 29  1  0  0  0  0
 24 25  1  0  0  0  0
 25 26  1  0  0  0  0
 25 59  1  0  0  0  0
 25 60  1  0  0  0  0
 26 27  1  0  0  0  0
 26 61  1  0  0  0  0
 26 62  1  0  0  0  0
 27 28  2  0  0  0  0
 27 29  1  0  0  0  0
 29 63  1  0  0  0  0
 30 31  1  0  0  0  0
 30 64  1  0  0  0  0
 31 32  1  0  0  0  0
 32 65  1  0  0  0  0
 32 66  1  0  0  0  0
 33 34  2  0  0  0  0
 33 67  1  0  0  0  0
 34 35  1  0  0  0  0
 34 39  1  0  0  0  0
 35 36  1  0  0  0  0
 35 37  1  0  0  0  0
 35 38  1  0  0  0  0
 39 68  1  0  0  0  0
M  END
$$$$
