CHEMBL4640617
 OpenBabel04072215383D

 68 72  0  0  0  0  0  0  0  0999 V2000
    1.6584   -0.9809   -3.8075 C   0  0  0  0  0  0  0  0  0  0  0  0
    2.9244   -0.7728   -3.1707 O   0  0  0  0  0  0  0  0  0  0  0  0
    3.8103   -0.0701   -3.9296 C   0  0  0  0  0  0  0  0  0  0  0  0
    3.5906    0.3568   -5.0523 O   0  0  0  0  0  0  0  0  0  0  0  0
    5.1021    0.1272   -3.2139 C   0  0  0  0  0  0  0  0  0  0  0  0
    5.3873   -0.4264   -1.9452 C   0  0  0  0  0  0  0  0  0  0  0  0
    6.6420   -0.2314   -1.3253 C   0  0  0  0  0  0  0  0  0  0  0  0
    7.6076    0.5164   -1.9828 C   0  0  0  0  0  0  0  0  0  0  0  0
    7.2904    1.0727   -3.2303 C   0  0  0  0  0  0  0  0  0  0  0  0
    6.0733    0.8972   -3.8629 C   0  0  0  0  0  0  0  0  0  0  0  0
    8.3652    1.7866   -3.7413 N   0  0  0  0  0  0  0  0  0  0  0  0
    9.4593    1.7166   -2.9006 C   0  0  0  0  0  0  0  0  0  0  0  0
   10.5705    2.1446   -3.1449 O   0  0  0  0  0  0  0  0  0  0  0  0
    9.0069    0.9237   -1.6996 C   0  0  0  0  0  0  0  0  0  0  0  0
    9.8625    0.6955   -0.6749 C   0  0  0  0  0  0  0  0  0  0  0  0
   11.1928    1.1403   -0.5678 N   0  0  0  0  0  0  0  0  0  0  0  0
   11.5480    2.4469   -0.0922 C   0  0  0  0  0  0  0  0  0  0  0  0
   10.6411    3.3269    0.4925 C   0  0  0  0  0  0  0  0  0  0  0  0
   11.0118    4.6488    0.7899 C   0  0  0  0  0  0  0  0  0  0  0  0
   12.3198    5.1117    0.5835 C   0  0  0  0  0  0  0  0  0  0  0  0
   12.6439    6.4996    0.8110 N   0  0  0  0  0  0  0  0  0  0  0  0
   12.0539    7.3399    1.7768 C   0  0  0  0  0  0  0  0  0  0  0  0
   11.1127    6.9462    2.8675 C   0  0  0  0  0  0  0  0  0  0  0  0
   12.5326    8.6239    1.6070 C   0  0  0  0  0  0  0  0  0  0  0  0
   13.4715    8.5978    0.5770 C   0  0  0  0  0  0  0  0  0  0  0  0
   13.5453    7.3042    0.0841 C   0  0  0  0  0  0  0  0  0  0  0  0
   14.3982    6.9221   -1.0958 C   0  0  0  0  0  0  0  0  0  0  0  0
   13.6622    6.3834   -2.2449 N   0  0  0  0  0  0  0  0  0  0  0  0
   12.6473    7.3110   -2.7494 C   0  0  0  0  0  0  0  0  0  0  0  0
   14.5931    6.0547   -3.3287 C   0  0  0  0  0  0  0  0  0  0  0  0
   13.2615    4.1929    0.1127 C   0  0  0  0  0  0  0  0  0  0  0  0
   12.8780    2.8787   -0.2212 C   0  0  0  0  0  0  0  0  0  0  0  0
    9.5057   -0.2874    0.3695 C   0  0  0  0  0  0  0  0  0  0  0  0
    9.8178   -1.6410    0.1581 C   0  0  0  0  0  0  0  0  0  0  0  0
    9.5224   -2.5978    1.1291 C   0  0  0  0  0  0  0  0  0  0  0  0
    8.9170   -2.2095    2.3221 C   0  0  0  0  0  0  0  0  0  0  0  0
    8.6066   -0.8674    2.5436 C   0  0  0  0  0  0  0  0  0  0  0  0
    8.9000    0.0924    1.5713 C   0  0  0  0  0  0  0  0  0  0  0  0
    0.9893   -1.4685   -3.0930 H   0  0  0  0  0  0  0  0  0  0  0  0
    1.7708   -1.6363   -4.6783 H   0  0  0  0  0  0  0  0  0  0  0  0
    1.2065   -0.0270   -4.1024 H   0  0  0  0  0  0  0  0  0  0  0  0
    4.6375   -1.0227   -1.4272 H   0  0  0  0  0  0  0  0  0  0  0  0
    6.8260   -0.6757   -0.3521 H   0  0  0  0  0  0  0  0  0  0  0  0
    5.8804    1.3341   -4.8378 H   0  0  0  0  0  0  0  0  0  0  0  0
    8.3980    2.2436   -4.6421 H   0  0  0  0  0  0  0  0  0  0  0  0
   11.6171    1.1191   -1.5046 H   0  0  0  0  0  0  0  0  0  0  0  0
    9.6131    3.0316    0.6656 H   0  0  0  0  0  0  0  0  0  0  0  0
   10.2205    5.3155    1.1149 H   0  0  0  0  0  0  0  0  0  0  0  0
   11.0391    5.8738    3.0448 H   0  0  0  0  0  0  0  0  0  0  0  0
   10.1149    7.3475    2.6548 H   0  0  0  0  0  0  0  0  0  0  0  0
   11.4458    7.3861    3.8148 H   0  0  0  0  0  0  0  0  0  0  0  0
   12.2418    9.4842    2.1970 H   0  0  0  0  0  0  0  0  0  0  0  0
   14.0332    9.4430    0.1988 H   0  0  0  0  0  0  0  0  0  0  0  0
   15.1691    6.2206   -0.7576 H   0  0  0  0  0  0  0  0  0  0  0  0
   14.9557    7.8147   -1.4196 H   0  0  0  0  0  0  0  0  0  0  0  0
   11.8725    7.5082   -2.0020 H   0  0  0  0  0  0  0  0  0  0  0  0
   12.1297    6.8744   -3.6115 H   0  0  0  0  0  0  0  0  0  0  0  0
   13.0802    8.2689   -3.0616 H   0  0  0  0  0  0  0  0  0  0  0  0
   15.4308    5.4480   -2.9669 H   0  0  0  0  0  0  0  0  0  0  0  0
   15.0069    6.9519   -3.8060 H   0  0  0  0  0  0  0  0  0  0  0  0
   14.0842    5.4618   -4.0965 H   0  0  0  0  0  0  0  0  0  0  0  0
   14.3057    4.4564   -0.0071 H   0  0  0  0  0  0  0  0  0  0  0  0
   13.6318    2.2007   -0.6162 H   0  0  0  0  0  0  0  0  0  0  0  0
   10.3097   -1.9501   -0.7620 H   0  0  0  0  0  0  0  0  0  0  0  0
    9.7797   -3.6402    0.9598 H   0  0  0  0  0  0  0  0  0  0  0  0
    8.7004   -2.9517    3.0861 H   0  0  0  0  0  0  0  0  0  0  0  0
    8.1477   -0.5654    3.4813 H   0  0  0  0  0  0  0  0  0  0  0  0
    8.6652    1.1344    1.7647 H   0  0  0  0  0  0  0  0  0  0  0  0
  1  2  1  0  0  0  0
  1 39  1  0  0  0  0
  1 40  1  0  0  0  0
  1 41  1  0  0  0  0
  2  3  1  0  0  0  0
  3  4  2  0  0  0  0
  3  5  1  0  0  0  0
  5  6  1  0  0  0  0
  5 10  2  0  0  0  0
  6  7  2  0  0  0  0
  6 42  1  0  0  0  0
  7  8  1  0  0  0  0
  7 43  1  0  0  0  0
  8  9  2  0  0  0  0
  8 14  1  0  0  0  0
  9 10  1  0  0  0  0
  9 11  1  0  0  0  0
 10 44  1  0  0  0  0
 11 12  1  0  0  0  0
 11 45  1  0  0  0  0
 12 13  2  0  0  0  0
 12 14  1  0  0  0  0
 14 15  2  0  0  0  0
 15 16  1  0  0  0  0
 15 33  1  0  0  0  0
 16 17  1  0  0  0  0
 16 46  1  0  0  0  0
 17 18  1  0  0  0  0
 17 32  2  0  0  0  0
 18 19  2  0  0  0  0
 18 47  1  0  0  0  0
 19 20  1  0  0  0  0
 19 48  1  0  0  0  0
 20 21  1  0  0  0  0
 20 31  2  0  0  0  0
 21 22  1  0  0  0  0
 21 26  1  0  0  0  0
 22 23  1  0  0  0  0
 22 24  2  0  0  0  0
 23 49  1  0  0  0  0
 23 50  1  0  0  0  0
 23 51  1  0  0  0  0
 24 25  1  0  0  0  0
 24 52  1  0  0  0  0
 25 26  2  0  0  0  0
 25 53  1  0  0  0  0
 26 27  1  0  0  0  0
 27 28  1  0  0  0  0
 27 54  1  0  0  0  0
 27 55  1  0  0  0  0
 28 29  1  0  0  0  0
 28 30  1  0  0  0  0
 29 56  1  0  0  0  0
 29 57  1  0  0  0  0
 29 58  1  0  0  0  0
 30 59  1  0  0  0  0
 30 60  1  0  0  0  0
 30 61  1  0  0  0  0
 31 32  1  0  0  0  0
 31 62  1  0  0  0  0
 32 63  1  0  0  0  0
 33 34  1  0  0  0  0
 33 38  2  0  0  0  0
 34 35  2  0  0  0  0
 34 64  1  0  0  0  0
 35 36  1  0  0  0  0
 35 65  1  0  0  0  0
 36 37  2  0  0  0  0
 36 66  1  0  0  0  0
 37 38  1  0  0  0  0
 37 67  1  0  0  0  0
 38 68  1  0  0  0  0
M  END
$$$$
