CHEMBL3929849
 OpenBabel04072215373D

 63 67  0  0  0  0  0  0  0  0999 V2000
    1.3233   -0.6266   -0.2567 C   0  0  0  0  0  0  0  0  0  0  0  0
    2.2197    0.1729    0.5106 O   0  0  0  0  0  0  0  0  0  0  0  0
    2.9828   -0.4877    1.4391 C   0  0  0  0  0  0  0  0  0  0  0  0
    2.6800   -1.7223    1.9890 C   0  0  0  0  0  0  0  0  0  0  0  0
    3.5293   -2.2663    2.9531 C   0  0  0  0  0  0  0  0  0  0  0  0
    3.2583   -3.4350    3.6220 O   0  0  0  0  0  0  0  0  0  0  0  0
    1.8758   -3.7897    3.7157 C   0  0  0  0  0  0  0  0  0  0  0  0
    4.7598   -1.6379    3.2493 C   0  0  0  0  0  0  0  0  0  0  0  0
    5.1472   -0.4356    2.6320 C   0  0  0  0  0  0  0  0  0  0  0  0
    6.4385    0.1578    2.8197 N   0  0  0  0  0  0  0  0  0  0  0  0
    6.8289    1.2970    1.8109 C   0  0  0  0  0  0  0  0  0  0  0  0
    6.9900    0.5722    0.4846 C   0  0  0  0  0  0  0  0  0  0  0  0
    7.1282   -0.0496   -0.6531 C   0  0  0  0  0  0  0  0  0  0  0  0
    7.1953   -0.6481   -1.9512 C   0  0  0  0  0  0  0  0  0  0  0  0
    7.9736   -1.7582   -2.0204 N   0  0  0  0  0  0  0  0  0  0  0  0
    7.9925   -2.3724   -3.2235 C   0  0  0  0  0  0  0  0  0  0  0  0
    7.2683   -1.9112   -4.3122 C   0  0  0  0  0  0  0  0  0  0  0  0
    6.5065   -0.7950   -4.2589 N   0  0  0  0  0  0  0  0  0  0  0  0
    6.4810   -0.1658   -3.0545 C   0  0  0  0  0  0  0  0  0  0  0  0
    5.7548    1.0037   -2.9357 O   0  0  0  0  0  0  0  0  0  0  0  0
    4.7987    1.1674   -3.9799 C   0  0  0  0  0  0  0  0  0  0  0  0
    7.6505   -0.4055    3.3706 C   0  0  0  0  0  0  0  0  0  0  0  0
    8.4239    0.4900    4.0841 C   0  0  0  0  0  0  0  0  0  0  0  0
    9.7822    0.2842    4.2107 C   0  0  0  0  0  0  0  0  0  0  0  0
   10.3865   -0.8907    3.7991 C   0  0  0  0  0  0  0  0  0  0  0  0
   11.7089   -0.8225    3.7996 N   0  0  0  0  0  0  0  0  0  0  0  0
   12.3695   -1.9695    3.6006 C   0  0  0  0  0  0  0  0  0  0  0  0
   11.7190   -3.1764    3.5208 C   0  0  0  0  0  0  0  0  0  0  0  0
   12.5569   -4.3587    3.7619 C   0  0  0  0  0  0  0  0  0  0  0  0
   12.7577   -5.0975    4.9598 C   0  0  0  0  0  0  0  0  0  0  0  0
   13.7788   -5.9639    4.8810 N   0  0  0  0  0  0  0  0  0  0  0  0
   14.2471   -5.7753    3.6368 N   0  0  0  0  0  0  0  0  0  0  0  0
   15.1324   -6.7437    3.0312 C   0  0  0  0  0  0  0  0  0  0  0  0
   13.6759   -4.6976    3.0125 C   0  0  0  0  0  0  0  0  0  0  0  0
   10.3439   -3.2409    3.3936 N   0  0  0  0  0  0  0  0  0  0  0  0
    9.6201   -2.0163    3.4436 C   0  0  0  0  0  0  0  0  0  0  0  0
    8.2198   -1.7189    3.1642 C   0  0  0  0  0  0  0  0  0  0  0  0
    4.1563    0.1722    1.8285 C   0  0  0  0  0  0  0  0  0  0  0  0
    1.0833   -0.0778   -1.1731 H   0  0  0  0  0  0  0  0  0  0  0  0
    0.3922   -0.7874    0.2958 H   0  0  0  0  0  0  0  0  0  0  0  0
    1.7664   -1.5823   -0.5607 H   0  0  0  0  0  0  0  0  0  0  0  0
    1.7884   -2.2491    1.6765 H   0  0  0  0  0  0  0  0  0  0  0  0
    1.7891   -4.6587    4.3755 H   0  0  0  0  0  0  0  0  0  0  0  0
    1.4668   -4.0849    2.7432 H   0  0  0  0  0  0  0  0  0  0  0  0
    1.2859   -2.9765    4.1543 H   0  0  0  0  0  0  0  0  0  0  0  0
    5.4065   -2.1093    3.9859 H   0  0  0  0  0  0  0  0  0  0  0  0
    7.7712    1.7863    2.0764 H   0  0  0  0  0  0  0  0  0  0  0  0
    6.0649    2.0774    1.7809 H   0  0  0  0  0  0  0  0  0  0  0  0
    8.6065   -3.2636   -3.2909 H   0  0  0  0  0  0  0  0  0  0  0  0
    7.2807   -2.4324   -5.2621 H   0  0  0  0  0  0  0  0  0  0  0  0
    4.2167    2.0687   -3.7640 H   0  0  0  0  0  0  0  0  0  0  0  0
    4.1026    0.3216   -4.0071 H   0  0  0  0  0  0  0  0  0  0  0  0
    5.2786    1.3106   -4.9550 H   0  0  0  0  0  0  0  0  0  0  0  0
    8.0001    1.4352    4.4135 H   0  0  0  0  0  0  0  0  0  0  0  0
   10.3993    1.0792    4.6058 H   0  0  0  0  0  0  0  0  0  0  0  0
   13.4505   -1.8842    3.5812 H   0  0  0  0  0  0  0  0  0  0  0  0
   12.2302   -5.0198    5.9022 H   0  0  0  0  0  0  0  0  0  0  0  0
   15.3237   -7.5645    3.7279 H   0  0  0  0  0  0  0  0  0  0  0  0
   16.0694   -6.2599    2.7463 H   0  0  0  0  0  0  0  0  0  0  0  0
   14.6216   -7.1339    2.1459 H   0  0  0  0  0  0  0  0  0  0  0  0
   14.0893   -4.3092    2.0919 H   0  0  0  0  0  0  0  0  0  0  0  0
    7.6146   -2.5055    2.7152 H   0  0  0  0  0  0  0  0  0  0  0  0
    4.2790    1.1746    1.4345 H   0  0  0  0  0  0  0  0  0  0  0  0
  1  2  1  0  0  0  0
  1 39  1  0  0  0  0
  1 40  1  0  0  0  0
  1 41  1  0  0  0  0
  2  3  1  0  0  0  0
  3  4  1  0  0  0  0
  3 38  2  0  0  0  0
  4  5  2  0  0  0  0
  4 42  1  0  0  0  0
  5  6  1  0  0  0  0
  5  8  1  0  0  0  0
  6  7  1  0  0  0  0
  7 43  1  0  0  0  0
  7 44  1  0  0  0  0
  7 45  1  0  0  0  0
  8  9  2  0  0  0  0
  8 46  1  0  0  0  0
  9 10  1  0  0  0  0
  9 38  1  0  0  0  0
 10 11  1  0  0  0  0
 10 22  1  0  0  0  0
 11 12  1  0  0  0  0
 11 47  1  0  0  0  0
 11 48  1  0  0  0  0
 12 13  3  0  0  0  0
 13 14  1  0  0  0  0
 14 15  1  0  0  0  0
 14 19  2  0  0  0  0
 15 16  2  0  0  0  0
 16 17  1  0  0  0  0
 16 49  1  0  0  0  0
 17 18  2  0  0  0  0
 17 50  1  0  0  0  0
 18 19  1  0  0  0  0
 19 20  1  0  0  0  0
 20 21  1  0  0  0  0
 21 51  1  0  0  0  0
 21 52  1  0  0  0  0
 21 53  1  0  0  0  0
 22 23  1  0  0  0  0
 22 37  2  0  0  0  0
 23 24  2  0  0  0  0
 23 54  1  0  0  0  0
 24 25  1  0  0  0  0
 24 55  1  0  0  0  0
 25 26  1  0  0  0  0
 25 36  2  0  0  0  0
 26 27  2  0  0  0  0
 27 28  1  0  0  0  0
 27 56  1  0  0  0  0
 28 29  1  0  0  0  0
 28 35  2  0  0  0  0
 29 30  1  0  0  0  0
 29 34  2  0  0  0  0
 30 31  2  0  0  0  0
 30 57  1  0  0  0  0
 31 32  1  0  0  0  0
 32 33  1  0  0  0  0
 32 34  1  0  0  0  0
 33 58  1  0  0  0  0
 33 59  1  0  0  0  0
 33 60  1  0  0  0  0
 34 61  1  0  0  0  0
 35 36  1  0  0  0  0
 36 37  1  0  0  0  0
 37 62  1  0  0  0  0
 38 63  1  0  0  0  0
M  END
$$$$
