CHEMBL2032022
 OpenBabel04072215363D

 65 69  0  0  0  0  0  0  0  0999 V2000
    4.1166    1.0932    3.2370 C   0  0  0  0  0  0  0  0  0  0  0  0
    3.8221    1.4231    1.7857 C   0  0  0  0  0  0  0  0  0  0  0  0
    5.0050    1.1797    0.8463 C   0  0  0  0  0  0  0  0  0  0  0  0
    5.4817   -0.2075    0.7259 N   0  0  0  0  0  0  0  0  0  0  0  0
    6.7226   -0.7355    1.1094 C   0  0  0  0  0  0  0  0  0  0  0  0
    7.8693    0.1266    1.5460 C   0  0  0  0  0  0  0  0  0  0  0  0
    6.7568   -2.0910    1.0453 C   0  0  0  0  0  0  0  0  0  0  0  0
    7.9331   -2.9932    1.2755 C   0  0  0  0  0  0  0  0  0  0  0  0
    8.9832   -2.4901    1.6698 O   0  0  0  0  0  0  0  0  0  0  0  0
    7.7521   -4.3412    0.9981 N   0  0  0  0  0  0  0  0  0  0  0  0
    8.7776   -5.3267    1.0723 C   0  0  0  0  0  0  0  0  0  0  0  0
    8.4503   -6.6643    0.8540 C   0  0  0  0  0  0  0  0  0  0  0  0
    9.4540   -7.6639    0.9098 C   0  0  0  0  0  0  0  0  0  0  0  0
   10.7921   -7.3151    1.1123 C   0  0  0  0  0  0  0  0  0  0  0  0
   11.9048   -8.1593    1.1149 O   0  0  0  0  0  0  0  0  0  0  0  0
   11.7947   -9.4149    0.5277 C   0  0  0  0  0  0  0  0  0  0  0  0
   11.1870   -9.5706   -0.7205 C   0  0  0  0  0  0  0  0  0  0  0  0
   10.7118  -10.8180   -1.0242 C   0  0  0  0  0  0  0  0  0  0  0  0
   10.7047  -11.8547   -0.1589 N   0  0  0  0  0  0  0  0  0  0  0  0
   11.3959  -11.7102    0.9840 C   0  0  0  0  0  0  0  0  0  0  0  0
   11.2704  -12.6119    2.0269 C   0  0  0  0  0  0  0  0  0  0  0  0
   12.0091  -12.4065    3.1867 C   0  0  0  0  0  0  0  0  0  0  0  0
   11.3499  -12.5576    4.3852 O   0  0  0  0  0  0  0  0  0  0  0  0
   11.8019  -11.6620    5.4211 C   0  0  0  0  0  0  0  0  0  0  0  0
   13.2013  -11.7229    3.0943 C   0  0  0  0  0  0  0  0  0  0  0  0
   13.1946  -10.6648    2.2089 C   0  0  0  0  0  0  0  0  0  0  0  0
   12.1619  -10.5655    1.2463 C   0  0  0  0  0  0  0  0  0  0  0  0
   11.0135   -5.9675    1.3577 C   0  0  0  0  0  0  0  0  0  0  0  0
   10.0539   -4.9900    1.3411 N   0  0  0  0  0  0  0  0  0  0  0  0
    5.3683   -2.4847    0.6827 C   0  0  0  0  0  0  0  0  0  0  0  0
    5.0360   -3.6488    0.4985 O   0  0  0  0  0  0  0  0  0  0  0  0
    4.6122   -1.3024    0.5562 N   0  0  0  0  0  0  0  0  0  0  0  0
    3.3763   -1.2505   -0.1221 C   0  0  0  0  0  0  0  0  0  0  0  0
    2.3216   -2.0488    0.3394 C   0  0  0  0  0  0  0  0  0  0  0  0
    1.0578   -1.9724   -0.2521 C   0  0  0  0  0  0  0  0  0  0  0  0
    0.8439   -1.1202   -1.3325 C   0  0  0  0  0  0  0  0  0  0  0  0
    1.8948   -0.3465   -1.8215 C   0  0  0  0  0  0  0  0  0  0  0  0
    3.1544   -0.4093   -1.2173 C   0  0  0  0  0  0  0  0  0  0  0  0
    3.2658    1.3819    3.8637 H   0  0  0  0  0  0  0  0  0  0  0  0
    4.9962    1.6379    3.5933 H   0  0  0  0  0  0  0  0  0  0  0  0
    4.2869    0.0221    3.3717 H   0  0  0  0  0  0  0  0  0  0  0  0
    3.5610    2.4890    1.7265 H   0  0  0  0  0  0  0  0  0  0  0  0
    2.9275    0.8839    1.4638 H   0  0  0  0  0  0  0  0  0  0  0  0
    5.8116    1.8447    1.1674 H   0  0  0  0  0  0  0  0  0  0  0  0
    4.7426    1.5534   -0.1494 H   0  0  0  0  0  0  0  0  0  0  0  0
    7.6659    1.1961    1.4776 H   0  0  0  0  0  0  0  0  0  0  0  0
    8.7561   -0.0540    0.9321 H   0  0  0  0  0  0  0  0  0  0  0  0
    8.1095   -0.0767    2.5959 H   0  0  0  0  0  0  0  0  0  0  0  0
    6.8223   -4.6514    0.7227 H   0  0  0  0  0  0  0  0  0  0  0  0
    7.4264   -6.9574    0.6398 H   0  0  0  0  0  0  0  0  0  0  0  0
    9.1498   -8.6999    0.7787 H   0  0  0  0  0  0  0  0  0  0  0  0
   11.0357   -8.7257   -1.3654 H   0  0  0  0  0  0  0  0  0  0  0  0
   10.2363  -11.0091   -1.9805 H   0  0  0  0  0  0  0  0  0  0  0  0
   10.4773  -13.3552    1.9917 H   0  0  0  0  0  0  0  0  0  0  0  0
   10.9517  -11.2995    6.0088 H   0  0  0  0  0  0  0  0  0  0  0  0
   12.3206  -10.7543    5.0762 H   0  0  0  0  0  0  0  0  0  0  0  0
   12.4674  -12.2350    6.0674 H   0  0  0  0  0  0  0  0  0  0  0  0
   13.9689  -11.8301    3.8557 H   0  0  0  0  0  0  0  0  0  0  0  0
   13.9808   -9.9171    2.2752 H   0  0  0  0  0  0  0  0  0  0  0  0
   12.0112   -5.6056    1.5905 H   0  0  0  0  0  0  0  0  0  0  0  0
    2.4651   -2.7044    1.1950 H   0  0  0  0  0  0  0  0  0  0  0  0
    0.2404   -2.5741    0.1373 H   0  0  0  0  0  0  0  0  0  0  0  0
   -0.1386   -1.0643   -1.7955 H   0  0  0  0  0  0  0  0  0  0  0  0
    1.7370    0.3058   -2.6764 H   0  0  0  0  0  0  0  0  0  0  0  0
    3.9658    0.1749   -1.6397 H   0  0  0  0  0  0  0  0  0  0  0  0
  1  2  1  0  0  0  0
  1 39  1  0  0  0  0
  1 40  1  0  0  0  0
  1 41  1  0  0  0  0
  2  3  1  0  0  0  0
  2 42  1  0  0  0  0
  2 43  1  0  0  0  0
  3  4  1  0  0  0  0
  3 44  1  0  0  0  0
  3 45  1  0  0  0  0
  4  5  1  0  0  0  0
  4 32  1  0  0  0  0
  5  6  1  0  0  0  0
  5  7  2  0  0  0  0
  6 46  1  0  0  0  0
  6 47  1  0  0  0  0
  6 48  1  0  0  0  0
  7  8  1  0  0  0  0
  7 30  1  0  0  0  0
  8  9  2  0  0  0  0
  8 10  1  0  0  0  0
 10 11  1  0  0  0  0
 10 49  1  0  0  0  0
 11 12  1  0  0  0  0
 11 29  2  0  0  0  0
 12 13  2  0  0  0  0
 12 50  1  0  0  0  0
 13 14  1  0  0  0  0
 13 51  1  0  0  0  0
 14 15  1  0  0  0  0
 14 28  2  0  0  0  0
 15 16  1  0  0  0  0
 16 17  1  0  0  0  0
 16 27  2  0  0  0  0
 17 18  2  0  0  0  0
 17 52  1  0  0  0  0
 18 19  1  0  0  0  0
 18 53  1  0  0  0  0
 19 20  2  0  0  0  0
 20 21  1  0  0  0  0
 20 27  1  0  0  0  0
 21 22  2  0  0  0  0
 21 54  1  0  0  0  0
 22 23  1  0  0  0  0
 22 25  1  0  0  0  0
 23 24  1  0  0  0  0
 24 55  1  0  0  0  0
 24 56  1  0  0  0  0
 24 57  1  0  0  0  0
 25 26  2  0  0  0  0
 25 58  1  0  0  0  0
 26 27  1  0  0  0  0
 26 59  1  0  0  0  0
 28 29  1  0  0  0  0
 28 60  1  0  0  0  0
 30 31  2  0  0  0  0
 30 32  1  0  0  0  0
 32 33  1  0  0  0  0
 33 34  1  0  0  0  0
 33 38  2  0  0  0  0
 34 35  2  0  0  0  0
 34 61  1  0  0  0  0
 35 36  1  0  0  0  0
 35 62  1  0  0  0  0
 36 37  2  0  0  0  0
 36 63  1  0  0  0  0
 37 38  1  0  0  0  0
 37 64  1  0  0  0  0
 38 65  1  0  0  0  0
M  END
$$$$
