CHEMBL4540917
 OpenBabel04072215383D

 51 54  0  0  0  0  0  0  0  0999 V2000
    1.5191   -0.4309   -1.1928 C   0  0  0  0  0  0  0  0  0  0  0  0
    2.5124   -0.0708   -0.2362 O   0  0  0  0  0  0  0  0  0  0  0  0
    2.9248   -1.0635    0.6125 C   0  0  0  0  0  0  0  0  0  0  0  0
    3.8874   -0.6638    1.5698 C   0  0  0  0  0  0  0  0  0  0  0  0
    4.4060   -1.5631    2.5150 C   0  0  0  0  0  0  0  0  0  0  0  0
    3.9342   -2.8566    2.4769 C   0  0  0  0  0  0  0  0  0  0  0  0
    2.9881   -3.2430    1.5317 C   0  0  0  0  0  0  0  0  0  0  0  0
    2.4670   -2.3808    0.5883 C   0  0  0  0  0  0  0  0  0  0  0  0
    2.6915   -4.6475    1.7735 C   0  0  0  0  0  0  0  0  0  0  0  0
    1.8350   -5.3503    1.1057 N   0  0  0  0  0  0  0  0  0  0  0  0
    1.6476   -6.6535    1.4777 N   0  0  0  0  0  0  0  0  0  0  0  0
    0.7229   -7.4332    0.7887 C   0  0  0  0  0  0  0  0  0  0  0  0
    0.0912   -7.0650   -0.1989 O   0  0  0  0  0  0  0  0  0  0  0  0
    0.5089   -8.8196    1.3014 C   0  0  0  0  0  0  0  0  0  0  0  0
    0.7267   -9.1490    2.6373 C   0  0  0  0  0  0  0  0  0  0  0  0
    0.4923  -10.4527    3.0887 C   0  0  0  0  0  0  0  0  0  0  0  0
    0.0228  -11.4536    2.2342 C   0  0  0  0  0  0  0  0  0  0  0  0
   -0.2172  -12.7878    2.6568 N   0  0  0  0  0  0  0  0  0  0  0  0
   -0.1256  -13.2466    3.9610 C   0  0  0  0  0  0  0  0  0  0  0  0
    0.0925  -12.5435    4.9411 O   0  0  0  0  0  0  0  0  0  0  0  0
   -0.2529  -14.6301    4.0476 N   0  0  0  0  0  0  0  0  0  0  0  0
   -0.1532  -15.2612    5.3140 C   0  0  0  0  0  0  0  0  0  0  0  0
   -0.8582  -14.7775    6.4248 C   0  0  0  0  0  0  0  0  0  0  0  0
   -0.6770  -15.3508    7.6856 C   0  0  0  0  0  0  0  0  0  0  0  0
    0.2184  -16.4047    7.8378 C   0  0  0  0  0  0  0  0  0  0  0  0
    0.4835  -17.0826    9.3969 Cl  0  0  0  0  0  0  0  0  0  0  0  0
    0.9090  -16.9074    6.7348 C   0  0  0  0  0  0  0  0  0  0  0  0
    0.7048  -16.3525    5.4659 C   0  0  0  0  0  0  0  0  0  0  0  0
   -0.2107  -11.1207    0.8933 C   0  0  0  0  0  0  0  0  0  0  0  0
    0.0255   -9.8116    0.4344 C   0  0  0  0  0  0  0  0  0  0  0  0
    3.5665   -5.0561    2.9588 C   0  0  0  0  0  0  0  0  0  0  0  0
    3.5864   -6.1630    3.4484 O   0  0  0  0  0  0  0  0  0  0  0  0
    4.2733   -3.9201    3.3079 N   0  0  0  0  0  0  0  0  0  0  0  0
    1.2691    0.4621   -1.7726 H   0  0  0  0  0  0  0  0  0  0  0  0
    0.6029   -0.7752   -0.7006 H   0  0  0  0  0  0  0  0  0  0  0  0
    1.9013   -1.1858   -1.8883 H   0  0  0  0  0  0  0  0  0  0  0  0
    4.2284    0.3714    1.5711 H   0  0  0  0  0  0  0  0  0  0  0  0
    5.1398   -1.2338    3.2426 H   0  0  0  0  0  0  0  0  0  0  0  0
    1.7320   -2.7503   -0.1157 H   0  0  0  0  0  0  0  0  0  0  0  0
    2.2160   -7.0305    2.2359 H   0  0  0  0  0  0  0  0  0  0  0  0
    1.0479   -8.4101    3.3665 H   0  0  0  0  0  0  0  0  0  0  0  0
    0.6848  -10.6368    4.1403 H   0  0  0  0  0  0  0  0  0  0  0  0
   -0.6021  -13.4272    1.9758 H   0  0  0  0  0  0  0  0  0  0  0  0
    0.1405  -15.1333    3.2656 H   0  0  0  0  0  0  0  0  0  0  0  0
   -1.5417  -13.9371    6.3226 H   0  0  0  0  0  0  0  0  0  0  0  0
   -1.2188  -14.9539    8.5399 H   0  0  0  0  0  0  0  0  0  0  0  0
    1.6259  -17.7142    6.8619 H   0  0  0  0  0  0  0  0  0  0  0  0
    1.2790  -16.7336    4.6269 H   0  0  0  0  0  0  0  0  0  0  0  0
   -0.5813  -11.8591    0.1869 H   0  0  0  0  0  0  0  0  0  0  0  0
   -0.1735   -9.5638   -0.6083 H   0  0  0  0  0  0  0  0  0  0  0  0
    4.9394   -3.8901    4.0676 H   0  0  0  0  0  0  0  0  0  0  0  0
  1  2  1  0  0  0  0
  1 34  1  0  0  0  0
  1 35  1  0  0  0  0
  1 36  1  0  0  0  0
  2  3  1  0  0  0  0
  3  4  1  0  0  0  0
  3  8  2  0  0  0  0
  4  5  2  0  0  0  0
  4 37  1  0  0  0  0
  5  6  1  0  0  0  0
  5 38  1  0  0  0  0
  6  7  2  0  0  0  0
  6 33  1  0  0  0  0
  7  8  1  0  0  0  0
  7  9  1  0  0  0  0
  8 39  1  0  0  0  0
  9 10  2  0  0  0  0
  9 31  1  0  0  0  0
 10 11  1  0  0  0  0
 11 12  1  0  0  0  0
 11 40  1  0  0  0  0
 12 13  2  0  0  0  0
 12 14  1  0  0  0  0
 14 15  1  0  0  0  0
 14 30  2  0  0  0  0
 15 16  2  0  0  0  0
 15 41  1  0  0  0  0
 16 17  1  0  0  0  0
 16 42  1  0  0  0  0
 17 18  1  0  0  0  0
 17 29  2  0  0  0  0
 18 19  1  0  0  0  0
 18 43  1  0  0  0  0
 19 20  2  0  0  0  0
 19 21  1  0  0  0  0
 21 22  1  0  0  0  0
 21 44  1  0  0  0  0
 22 23  1  0  0  0  0
 22 28  2  0  0  0  0
 23 24  2  0  0  0  0
 23 45  1  0  0  0  0
 24 25  1  0  0  0  0
 24 46  1  0  0  0  0
 25 26  1  0  0  0  0
 25 27  2  0  0  0  0
 27 28  1  0  0  0  0
 27 47  1  0  0  0  0
 28 48  1  0  0  0  0
 29 30  1  0  0  0  0
 29 49  1  0  0  0  0
 30 50  1  0  0  0  0
 31 32  2  0  0  0  0
 31 33  1  0  0  0  0
 33 51  1  0  0  0  0
M  END
$$$$
