CHEMBL491473
 OpenBabel04072215383D

 60 64  0  0  0  0  0  0  0  0999 V2000
    2.4848   -0.5826    1.0504 C   0  0  0  0  0  0  0  0  0  0  0  0
    2.3365    0.2954   -0.0605 O   0  0  0  0  0  0  0  0  0  0  0  0
    3.0544    0.0452   -1.1975 C   0  0  0  0  0  0  0  0  0  0  0  0
    4.1611   -0.8095   -1.2237 C   0  0  0  0  0  0  0  0  0  0  0  0
    4.7854   -1.1552   -2.4447 C   0  0  0  0  0  0  0  0  0  0  0  0
    5.8458   -2.0551   -2.5845 C   0  0  0  0  0  0  0  0  0  0  0  0
    6.3408   -2.6757   -1.4330 O   0  0  0  0  0  0  0  0  0  0  0  0
    7.6287   -3.1794   -1.4893 C   0  0  0  0  0  0  0  0  0  0  0  0
    8.6824   -2.4379   -2.0334 C   0  0  0  0  0  0  0  0  0  0  0  0
    9.9702   -2.9682   -2.1219 C   0  0  0  0  0  0  0  0  0  0  0  0
   10.1901   -4.2298   -1.5643 C   0  0  0  0  0  0  0  0  0  0  0  0
   11.3495   -4.9651   -1.4890 N   0  0  0  0  0  0  0  0  0  0  0  0
   11.1599   -6.0708   -0.7004 C   0  0  0  0  0  0  0  0  0  0  0  0
   12.2968   -6.9188   -0.2677 C   0  0  0  0  0  0  0  0  0  0  0  0
    9.8078   -6.1463   -0.4244 C   0  0  0  0  0  0  0  0  0  0  0  0
    9.1821   -4.9686   -0.9400 C   0  0  0  0  0  0  0  0  0  0  0  0
    7.8769   -4.4339   -0.9201 C   0  0  0  0  0  0  0  0  0  0  0  0
    6.8768   -5.1153   -0.3371 F   0  0  0  0  0  0  0  0  0  0  0  0
    6.3982   -2.3810   -3.7690 N   0  0  0  0  0  0  0  0  0  0  0  0
    5.9027   -1.7484   -4.8313 C   0  0  0  0  0  0  0  0  0  0  0  0
    4.9013   -0.8630   -4.8235 N   0  0  0  0  0  0  0  0  0  0  0  0
    4.3421   -0.5856   -3.6418 C   0  0  0  0  0  0  0  0  0  0  0  0
    3.2923    0.3205   -3.5938 C   0  0  0  0  0  0  0  0  0  0  0  0
    2.6571    0.6688   -2.3949 C   0  0  0  0  0  0  0  0  0  0  0  0
    1.6740    1.6230   -2.5605 O   0  0  0  0  0  0  0  0  0  0  0  0
    1.4144    2.4256   -1.4123 C   0  0  0  0  0  0  0  0  0  0  0  0
    0.9241    3.8300   -1.7815 C   0  0  0  0  0  0  0  0  0  0  0  0
    0.8299    4.6188   -0.4663 C   0  0  0  0  0  0  0  0  0  0  0  0
    0.3784    6.0128   -0.5420 N   0  0  0  0  0  0  0  0  0  0  0  0
    1.2846    6.8910   -1.2964 C   0  0  0  0  0  0  0  0  0  0  0  0
    2.2682    7.4379   -0.2815 C   0  0  0  0  0  0  0  0  0  0  0  0
    1.4064    7.6388    0.9461 C   0  0  0  0  0  0  0  0  0  0  0  0
    0.3208    6.5729    0.8309 C   0  0  0  0  0  0  0  0  0  0  0  0
    3.1991   -0.1526    1.7588 H   0  0  0  0  0  0  0  0  0  0  0  0
    2.7771   -1.6011    0.7780 H   0  0  0  0  0  0  0  0  0  0  0  0
    1.5125   -0.6582    1.5459 H   0  0  0  0  0  0  0  0  0  0  0  0
    4.5630   -1.2280   -0.3045 H   0  0  0  0  0  0  0  0  0  0  0  0
    8.5039   -1.4403   -2.4284 H   0  0  0  0  0  0  0  0  0  0  0  0
   10.7693   -2.4048   -2.5931 H   0  0  0  0  0  0  0  0  0  0  0  0
   12.2330   -4.6751   -1.8855 H   0  0  0  0  0  0  0  0  0  0  0  0
   13.2379   -6.5898   -0.7217 H   0  0  0  0  0  0  0  0  0  0  0  0
   12.1348   -7.9662   -0.5355 H   0  0  0  0  0  0  0  0  0  0  0  0
   12.4139   -6.8504    0.8192 H   0  0  0  0  0  0  0  0  0  0  0  0
    9.3215   -6.9247    0.1511 H   0  0  0  0  0  0  0  0  0  0  0  0
    6.3668   -1.9621   -5.7879 H   0  0  0  0  0  0  0  0  0  0  0  0
    2.9570    0.7797   -4.5217 H   0  0  0  0  0  0  0  0  0  0  0  0
    2.3319    2.5614   -0.8282 H   0  0  0  0  0  0  0  0  0  0  0  0
    0.6464    1.9306   -0.8073 H   0  0  0  0  0  0  0  0  0  0  0  0
   -0.0453    3.7798   -2.2920 H   0  0  0  0  0  0  0  0  0  0  0  0
    1.6275    4.2833   -2.4876 H   0  0  0  0  0  0  0  0  0  0  0  0
    1.8007    4.5702    0.0457 H   0  0  0  0  0  0  0  0  0  0  0  0
    0.1129    4.0777    0.1671 H   0  0  0  0  0  0  0  0  0  0  0  0
    0.6929    7.7170   -1.7111 H   0  0  0  0  0  0  0  0  0  0  0  0
    1.7884    6.4134   -2.1405 H   0  0  0  0  0  0  0  0  0  0  0  0
    2.7382    8.3692   -0.6114 H   0  0  0  0  0  0  0  0  0  0  0  0
    3.0600    6.7082   -0.0746 H   0  0  0  0  0  0  0  0  0  0  0  0
    0.9512    8.6384    0.9246 H   0  0  0  0  0  0  0  0  0  0  0  0
    1.9862    7.5498    1.8676 H   0  0  0  0  0  0  0  0  0  0  0  0
   -0.6660    7.0131    1.0134 H   0  0  0  0  0  0  0  0  0  0  0  0
    0.4720    5.8130    1.6074 H   0  0  0  0  0  0  0  0  0  0  0  0
  1  2  1  0  0  0  0
  1 34  1  0  0  0  0
  1 35  1  0  0  0  0
  1 36  1  0  0  0  0
  2  3  1  0  0  0  0
  3  4  1  0  0  0  0
  3 24  2  0  0  0  0
  4  5  2  0  0  0  0
  4 37  1  0  0  0  0
  5  6  1  0  0  0  0
  5 22  1  0  0  0  0
  6  7  1  0  0  0  0
  6 19  2  0  0  0  0
  7  8  1  0  0  0  0
  8  9  1  0  0  0  0
  8 17  2  0  0  0  0
  9 10  2  0  0  0  0
  9 38  1  0  0  0  0
 10 11  1  0  0  0  0
 10 39  1  0  0  0  0
 11 12  1  0  0  0  0
 11 16  2  0  0  0  0
 12 13  1  0  0  0  0
 12 40  1  0  0  0  0
 13 14  1  0  0  0  0
 13 15  2  0  0  0  0
 14 41  1  0  0  0  0
 14 42  1  0  0  0  0
 14 43  1  0  0  0  0
 15 16  1  0  0  0  0
 15 44  1  0  0  0  0
 16 17  1  0  0  0  0
 17 18  1  0  0  0  0
 19 20  1  0  0  0  0
 20 21  2  0  0  0  0
 20 45  1  0  0  0  0
 21 22  1  0  0  0  0
 22 23  2  0  0  0  0
 23 24  1  0  0  0  0
 23 46  1  0  0  0  0
 24 25  1  0  0  0  0
 25 26  1  0  0  0  0
 26 27  1  0  0  0  0
 26 47  1  0  0  0  0
 26 48  1  0  0  0  0
 27 28  1  0  0  0  0
 27 49  1  0  0  0  0
 27 50  1  0  0  0  0
 28 29  1  0  0  0  0
 28 51  1  0  0  0  0
 28 52  1  0  0  0  0
 29 30  1  0  0  0  0
 29 33  1  0  0  0  0
 30 31  1  0  0  0  0
 30 53  1  0  0  0  0
 30 54  1  0  0  0  0
 31 32  1  0  0  0  0
 31 55  1  0  0  0  0
 31 56  1  0  0  0  0
 32 33  1  0  0  0  0
 32 57  1  0  0  0  0
 32 58  1  0  0  0  0
 33 59  1  0  0  0  0
 33 60  1  0  0  0  0
M  END
$$$$
