CHEMBL204754
 OpenBabel04072215363D

 48 52  0  0  0  0  0  0  0  0999 V2000
    0.6941    1.2045    0.0216 C   0  0  0  0  0  0  0  0  0  0  0  0
   -0.6680    1.0452    0.1139 C   0  0  0  0  0  0  0  0  0  0  0  0
   -1.2755   -0.1591    0.1948 N   0  0  0  0  0  0  0  0  0  0  0  0
   -0.5246   -1.2913    0.1455 C   0  0  0  0  0  0  0  0  0  0  0  0
   -1.2203   -2.5173    0.1655 N   0  0  0  0  0  0  0  0  0  0  0  0
   -2.4752   -2.4380    0.9144 C   0  0  0  0  0  0  0  0  0  0  0  0
   -3.1773   -3.7775    0.9193 C   0  0  0  0  0  0  0  0  0  0  0  0
   -3.4736   -4.4401    2.1099 C   0  0  0  0  0  0  0  0  0  0  0  0
   -4.1947   -5.6264    2.0514 C   0  0  0  0  0  0  0  0  0  0  0  0
   -4.6262   -6.1871    0.9027 N   0  0  0  0  0  0  0  0  0  0  0  0
   -4.3290   -5.5312   -0.2388 C   0  0  0  0  0  0  0  0  0  0  0  0
   -3.6161   -4.3446   -0.2822 C   0  0  0  0  0  0  0  0  0  0  0  0
    0.8715   -1.2214   -0.0114 C   0  0  0  0  0  0  0  0  0  0  0  0
    1.7700   -2.3597   -0.1508 C   0  0  0  0  0  0  0  0  0  0  0  0
    3.0880   -2.3616   -0.1680 N   0  0  0  0  0  0  0  0  0  0  0  0
    3.4692   -3.6412   -0.4786 N   0  0  0  0  0  0  0  0  0  0  0  0
    2.3687   -4.3449   -0.6333 C   0  0  0  0  0  0  0  0  0  0  0  0
    2.1533   -5.6097   -1.0440 N   0  0  0  0  0  0  0  0  0  0  0  0
    3.0334   -6.3612   -1.8516 C   0  0  0  0  0  0  0  0  0  0  0  0
    2.5172   -7.4367   -2.5984 C   0  0  0  0  0  0  0  0  0  0  0  0
    3.3344   -8.1836   -3.4552 C   0  0  0  0  0  0  0  0  0  0  0  0
    4.6881   -7.8828   -3.5616 C   0  0  0  0  0  0  0  0  0  0  0  0
    5.2210   -6.8262   -2.8248 C   0  0  0  0  0  0  0  0  0  0  0  0
    4.4056   -6.0883   -1.9654 C   0  0  0  0  0  0  0  0  0  0  0  0
    6.5400   -6.4536   -2.8851 O   0  0  0  0  0  0  0  0  0  0  0  0
    7.1961   -7.0271   -4.0191 C   0  0  0  0  0  0  0  0  0  0  0  0
    6.8361   -8.4964   -4.1619 C   0  0  0  0  0  0  0  0  0  0  0  0
    5.4343   -8.6582   -4.4103 O   0  0  0  0  0  0  0  0  0  0  0  0
    1.2430   -3.6044   -0.3807 O   0  0  0  0  0  0  0  0  0  0  0  0
    1.4675    0.0573   -0.0330 C   0  0  0  0  0  0  0  0  0  0  0  0
    1.1464    2.1899   -0.0182 H   0  0  0  0  0  0  0  0  0  0  0  0
   -1.3335    1.9036    0.1226 H   0  0  0  0  0  0  0  0  0  0  0  0
   -0.6300   -3.2629    0.5205 H   0  0  0  0  0  0  0  0  0  0  0  0
   -3.1694   -1.7079    0.4804 H   0  0  0  0  0  0  0  0  0  0  0  0
   -2.2661   -2.1335    1.9487 H   0  0  0  0  0  0  0  0  0  0  0  0
   -3.1761   -4.0439    3.0757 H   0  0  0  0  0  0  0  0  0  0  0  0
   -4.4624   -6.1663    2.9564 H   0  0  0  0  0  0  0  0  0  0  0  0
   -4.7020   -5.9928   -1.1484 H   0  0  0  0  0  0  0  0  0  0  0  0
   -3.4172   -3.8580   -1.2331 H   0  0  0  0  0  0  0  0  0  0  0  0
    1.1857   -5.8984   -1.1053 H   0  0  0  0  0  0  0  0  0  0  0  0
    1.4625   -7.6942   -2.5369 H   0  0  0  0  0  0  0  0  0  0  0  0
    2.9132   -9.0002   -4.0346 H   0  0  0  0  0  0  0  0  0  0  0  0
    4.8722   -5.2865   -1.4017 H   0  0  0  0  0  0  0  0  0  0  0  0
    8.2742   -6.9156   -3.8693 H   0  0  0  0  0  0  0  0  0  0  0  0
    6.9142   -6.4551   -4.9124 H   0  0  0  0  0  0  0  0  0  0  0  0
    7.0953   -9.0607   -3.2571 H   0  0  0  0  0  0  0  0  0  0  0  0
    7.3763   -8.9373   -5.0051 H   0  0  0  0  0  0  0  0  0  0  0  0
    2.5502    0.1567   -0.1096 H   0  0  0  0  0  0  0  0  0  0  0  0
  1  2  1  0  0  0  0
  1 30  2  0  0  0  0
  1 31  1  0  0  0  0
  2  3  2  0  0  0  0
  2 32  1  0  0  0  0
  3  4  1  0  0  0  0
  4  5  1  0  0  0  0
  4 13  2  0  0  0  0
  5  6  1  0  0  0  0
  5 33  1  0  0  0  0
  6  7  1  0  0  0  0
  6 34  1  0  0  0  0
  6 35  1  0  0  0  0
  7  8  1  0  0  0  0
  7 12  2  0  0  0  0
  8  9  2  0  0  0  0
  8 36  1  0  0  0  0
  9 10  1  0  0  0  0
  9 37  1  0  0  0  0
 10 11  2  0  0  0  0
 11 12  1  0  0  0  0
 11 38  1  0  0  0  0
 12 39  1  0  0  0  0
 13 14  1  0  0  0  0
 13 30  1  0  0  0  0
 14 15  2  0  0  0  0
 14 29  1  0  0  0  0
 15 16  1  0  0  0  0
 16 17  2  0  0  0  0
 17 18  1  0  0  0  0
 17 29  1  0  0  0  0
 18 19  1  0  0  0  0
 18 40  1  0  0  0  0
 19 20  1  0  0  0  0
 19 24  2  0  0  0  0
 20 21  2  0  0  0  0
 20 41  1  0  0  0  0
 21 22  1  0  0  0  0
 21 42  1  0  0  0  0
 22 23  2  0  0  0  0
 22 28  1  0  0  0  0
 23 24  1  0  0  0  0
 23 25  1  0  0  0  0
 24 43  1  0  0  0  0
 25 26  1  0  0  0  0
 26 27  1  0  0  0  0
 26 44  1  0  0  0  0
 26 45  1  0  0  0  0
 27 28  1  0  0  0  0
 27 46  1  0  0  0  0
 27 47  1  0  0  0  0
 30 48  1  0  0  0  0
M  END
$$$$
