CHEMBL3916843
 OpenBabel04072215373D

 47 50  0  0  0  0  0  0  0  0999 V2000
    3.3438    5.9658    1.5311 C   0  0  0  0  0  0  0  0  0  0  0  0
    1.9503    6.4031    1.1832 C   0  0  0  0  0  0  0  0  0  0  0  0
    1.6277    7.7628    1.1918 C   0  0  0  0  0  0  0  0  0  0  0  0
    0.3507    8.1762    0.8348 C   0  0  0  0  0  0  0  0  0  0  0  0
   -0.6186    7.2374    0.4871 C   0  0  0  0  0  0  0  0  0  0  0  0
   -1.7763    7.7315    0.0379 F   0  0  0  0  0  0  0  0  0  0  0  0
   -0.3518    5.8601    0.5317 C   0  0  0  0  0  0  0  0  0  0  0  0
   -1.3071    4.8364    0.2821 N   0  0  0  0  0  0  0  0  0  0  0  0
   -2.6829    4.9867    0.2831 C   0  0  0  0  0  0  0  0  0  0  0  0
   -3.2937    6.0235    0.5038 O   0  0  0  0  0  0  0  0  0  0  0  0
   -3.3404    3.7778    0.0751 N   0  0  0  0  0  0  0  0  0  0  0  0
   -4.7599    3.7460    0.0171 C   0  0  0  0  0  0  0  0  0  0  0  0
   -5.4944    4.6586   -0.7477 C   0  0  0  0  0  0  0  0  0  0  0  0
   -6.8929    4.6551   -0.6948 C   0  0  0  0  0  0  0  0  0  0  0  0
   -7.5659    3.7498    0.1305 C   0  0  0  0  0  0  0  0  0  0  0  0
   -8.9401    3.8638    0.1667 O   0  0  0  0  0  0  0  0  0  0  0  0
   -9.6184    3.5622    1.3321 C   0  0  0  0  0  0  0  0  0  0  0  0
   -9.1064    3.8124    2.6073 C   0  0  0  0  0  0  0  0  0  0  0  0
   -9.8298    3.4109    3.7125 C   0  0  0  0  0  0  0  0  0  0  0  0
  -11.0450    2.8411    3.6748 N   0  0  0  0  0  0  0  0  0  0  0  0
  -11.5929    2.6978    2.4400 C   0  0  0  0  0  0  0  0  0  0  0  0
  -12.8958    2.1834    2.1914 C   0  0  0  0  0  0  0  0  0  0  0  0
  -13.2242    2.1677    0.8518 C   0  0  0  0  0  0  0  0  0  0  0  0
  -14.4947    1.7389    0.2864 C   0  0  0  0  0  0  0  0  0  0  0  0
  -15.4316    1.2853    0.9263 O   0  0  0  0  0  0  0  0  0  0  0  0
  -14.5585    1.8934   -1.0603 O   0  0  0  0  0  0  0  0  0  0  0  0
  -11.9260    2.7393   -0.1059 S   0  0  0  0  0  0  0  0  0  0  0  0
  -10.9263    3.0444    1.2650 C   0  0  0  0  0  0  0  0  0  0  0  0
   -6.8370    2.7800    0.8252 C   0  0  0  0  0  0  0  0  0  0  0  0
   -5.4459    2.7944    0.7715 C   0  0  0  0  0  0  0  0  0  0  0  0
   -4.7549    1.9243    1.5255 F   0  0  0  0  0  0  0  0  0  0  0  0
    0.9581    5.4581    0.8509 C   0  0  0  0  0  0  0  0  0  0  0  0
    3.9873    6.8259    1.7499 H   0  0  0  0  0  0  0  0  0  0  0  0
    3.7911    5.4247    0.6917 H   0  0  0  0  0  0  0  0  0  0  0  0
    3.3332    5.3248    2.4173 H   0  0  0  0  0  0  0  0  0  0  0  0
    2.3696    8.5120    1.4567 H   0  0  0  0  0  0  0  0  0  0  0  0
    0.0925    9.2289    0.8069 H   0  0  0  0  0  0  0  0  0  0  0  0
   -0.9575    3.8931    0.2105 H   0  0  0  0  0  0  0  0  0  0  0  0
   -2.9256    2.9916    0.5573 H   0  0  0  0  0  0  0  0  0  0  0  0
   -4.9868    5.3909   -1.3722 H   0  0  0  0  0  0  0  0  0  0  0  0
   -7.4522    5.3819   -1.2804 H   0  0  0  0  0  0  0  0  0  0  0  0
   -8.1449    4.2933    2.7515 H   0  0  0  0  0  0  0  0  0  0  0  0
   -9.4202    3.5425    4.7118 H   0  0  0  0  0  0  0  0  0  0  0  0
  -13.5703    1.8540    2.9726 H   0  0  0  0  0  0  0  0  0  0  0  0
  -13.7411    2.2800   -1.4271 H   0  0  0  0  0  0  0  0  0  0  0  0
   -7.3237    2.0345    1.4447 H   0  0  0  0  0  0  0  0  0  0  0  0
    1.2183    4.4015    0.8703 H   0  0  0  0  0  0  0  0  0  0  0  0
  1  2  1  0  0  0  0
  1 33  1  0  0  0  0
  1 34  1  0  0  0  0
  1 35  1  0  0  0  0
  2  3  1  0  0  0  0
  2 32  2  0  0  0  0
  3  4  2  0  0  0  0
  3 36  1  0  0  0  0
  4  5  1  0  0  0  0
  4 37  1  0  0  0  0
  5  6  1  0  0  0  0
  5  7  2  0  0  0  0
  7  8  1  0  0  0  0
  7 32  1  0  0  0  0
  8  9  1  0  0  0  0
  8 38  1  0  0  0  0
  9 10  2  0  0  0  0
  9 11  1  0  0  0  0
 11 12  1  0  0  0  0
 11 39  1  0  0  0  0
 12 13  1  0  0  0  0
 12 30  2  0  0  0  0
 13 14  2  0  0  0  0
 13 40  1  0  0  0  0
 14 15  1  0  0  0  0
 14 41  1  0  0  0  0
 15 16  1  0  0  0  0
 15 29  2  0  0  0  0
 16 17  1  0  0  0  0
 17 18  1  0  0  0  0
 17 28  2  0  0  0  0
 18 19  2  0  0  0  0
 18 42  1  0  0  0  0
 19 20  1  0  0  0  0
 19 43  1  0  0  0  0
 20 21  2  0  0  0  0
 21 22  1  0  0  0  0
 21 28  1  0  0  0  0
 22 23  2  0  0  0  0
 22 44  1  0  0  0  0
 23 24  1  0  0  0  0
 23 27  1  0  0  0  0
 24 25  2  0  0  0  0
 24 26  1  0  0  0  0
 26 45  1  0  0  0  0
 27 28  1  0  0  0  0
 29 30  1  0  0  0  0
 29 46  1  0  0  0  0
 30 31  1  0  0  0  0
 32 47  1  0  0  0  0
M  END
$$$$
