CHEMBL268825
 OpenBabel04072215363D

 59 63  0  0  0  0  0  0  0  0999 V2000
   -0.9967    1.6114    0.9321 C   0  0  0  0  0  0  0  0  0  0  0  0
   -0.1431    1.7918    2.1587 C   0  0  0  0  0  0  0  0  0  0  0  0
   -0.4503    1.0658    3.3287 C   0  0  0  0  0  0  0  0  0  0  0  0
    0.2753    1.2261    4.5216 C   0  0  0  0  0  0  0  0  0  0  0  0
   -0.0498    0.4364    5.7412 C   0  0  0  0  0  0  0  0  0  0  0  0
   -1.4057    0.1594    6.0308 C   0  0  0  0  0  0  0  0  0  0  0  0
   -1.7910   -0.6278    7.1206 C   0  0  0  0  0  0  0  0  0  0  0  0
   -0.8318   -1.1310    7.9871 C   0  0  0  0  0  0  0  0  0  0  0  0
    0.5113   -0.8558    7.7547 C   0  0  0  0  0  0  0  0  0  0  0  0
    0.9052   -0.1016    6.6378 C   0  0  0  0  0  0  0  0  0  0  0  0
    2.6206    0.0359    6.4181 Cl  0  0  0  0  0  0  0  0  0  0  0  0
    1.2987    2.1757    4.4909 C   0  0  0  0  0  0  0  0  0  0  0  0
    1.6538    2.8496    3.3313 C   0  0  0  0  0  0  0  0  0  0  0  0
    2.6942    3.6762    3.3646 N   0  0  0  0  0  0  0  0  0  0  0  0
    3.0472    4.3234    2.2347 N   0  0  0  0  0  0  0  0  0  0  0  0
    2.3372    4.1639    1.0980 C   0  0  0  0  0  0  0  0  0  0  0  0
    2.6932    4.8857   -0.0384 N   0  0  0  0  0  0  0  0  0  0  0  0
    3.3693    6.1145   -0.0726 C   0  0  0  0  0  0  0  0  0  0  0  0
    4.1506    6.4451   -1.1826 C   0  0  0  0  0  0  0  0  0  0  0  0
    4.9099    7.6208   -1.1941 C   0  0  0  0  0  0  0  0  0  0  0  0
    4.8693    8.4947   -0.1038 C   0  0  0  0  0  0  0  0  0  0  0  0
    5.5314    9.6848   -0.0083 O   0  0  0  0  0  0  0  0  0  0  0  0
    5.8744   10.2800   -1.2589 C   0  0  0  0  0  0  0  0  0  0  0  0
    6.0612   11.7862   -1.0422 C   0  0  0  0  0  0  0  0  0  0  0  0
    6.3133   12.5261   -2.2933 N   0  0  0  0  0  0  0  0  0  0  0  0
    7.5735   12.1429   -2.9483 C   0  0  0  0  0  0  0  0  0  0  0  0
    8.6283   12.9854   -2.2664 C   0  0  0  0  0  0  0  0  0  0  0  0
    7.9252   14.3192   -2.1158 C   0  0  0  0  0  0  0  0  0  0  0  0
    6.4411   13.9721   -2.0216 C   0  0  0  0  0  0  0  0  0  0  0  0
    4.1100    8.1676    1.0103 C   0  0  0  0  0  0  0  0  0  0  0  0
    3.3668    6.9926    1.0240 C   0  0  0  0  0  0  0  0  0  0  0  0
    1.2894    3.3314    1.0092 N   0  0  0  0  0  0  0  0  0  0  0  0
    0.9463    2.6702    2.1363 C   0  0  0  0  0  0  0  0  0  0  0  0
   -1.8250    0.9196    1.1183 H   0  0  0  0  0  0  0  0  0  0  0  0
   -0.4008    1.2073    0.1084 H   0  0  0  0  0  0  0  0  0  0  0  0
   -1.4347    2.5694    0.6320 H   0  0  0  0  0  0  0  0  0  0  0  0
   -1.2761    0.3567    3.2912 H   0  0  0  0  0  0  0  0  0  0  0  0
   -2.1967    0.5543    5.3950 H   0  0  0  0  0  0  0  0  0  0  0  0
   -2.8432   -0.8463    7.2860 H   0  0  0  0  0  0  0  0  0  0  0  0
   -1.1245   -1.7428    8.8360 H   0  0  0  0  0  0  0  0  0  0  0  0
    1.2594   -1.2529    8.4375 H   0  0  0  0  0  0  0  0  0  0  0  0
    1.8716    2.4087    5.3860 H   0  0  0  0  0  0  0  0  0  0  0  0
    2.1442    4.6321   -0.8456 H   0  0  0  0  0  0  0  0  0  0  0  0
    4.2111    5.7685   -2.0309 H   0  0  0  0  0  0  0  0  0  0  0  0
    5.5385    7.8206   -2.0547 H   0  0  0  0  0  0  0  0  0  0  0  0
    5.0792   10.1334   -2.0004 H   0  0  0  0  0  0  0  0  0  0  0  0
    6.8000    9.8117   -1.6063 H   0  0  0  0  0  0  0  0  0  0  0  0
    6.8420   11.9573   -0.2899 H   0  0  0  0  0  0  0  0  0  0  0  0
    5.1326   12.1636   -0.5903 H   0  0  0  0  0  0  0  0  0  0  0  0
    7.5052   12.4128   -4.0098 H   0  0  0  0  0  0  0  0  0  0  0  0
    7.8060   11.0760   -2.9186 H   0  0  0  0  0  0  0  0  0  0  0  0
    9.5488   13.0591   -2.8515 H   0  0  0  0  0  0  0  0  0  0  0  0
    8.8815   12.5732   -1.2824 H   0  0  0  0  0  0  0  0  0  0  0  0
    8.1060   14.9348   -3.0050 H   0  0  0  0  0  0  0  0  0  0  0  0
    8.2824   14.8676   -1.2398 H   0  0  0  0  0  0  0  0  0  0  0  0
    5.8816   14.5302   -2.7813 H   0  0  0  0  0  0  0  0  0  0  0  0
    6.0273   14.2659   -1.0494 H   0  0  0  0  0  0  0  0  0  0  0  0
    4.0900    8.8273    1.8732 H   0  0  0  0  0  0  0  0  0  0  0  0
    2.7723    6.7813    1.9085 H   0  0  0  0  0  0  0  0  0  0  0  0
  1  2  1  0  0  0  0
  1 34  1  0  0  0  0
  1 35  1  0  0  0  0
  1 36  1  0  0  0  0
  2  3  1  0  0  0  0
  2 33  2  0  0  0  0
  3  4  2  0  0  0  0
  3 37  1  0  0  0  0
  4  5  1  0  0  0  0
  4 12  1  0  0  0  0
  5  6  1  0  0  0  0
  5 10  2  0  0  0  0
  6  7  2  0  0  0  0
  6 38  1  0  0  0  0
  7  8  1  0  0  0  0
  7 39  1  0  0  0  0
  8  9  2  0  0  0  0
  8 40  1  0  0  0  0
  9 10  1  0  0  0  0
  9 41  1  0  0  0  0
 10 11  1  0  0  0  0
 12 13  2  0  0  0  0
 12 42  1  0  0  0  0
 13 14  1  0  0  0  0
 13 33  1  0  0  0  0
 14 15  2  0  0  0  0
 15 16  1  0  0  0  0
 16 17  1  0  0  0  0
 16 32  2  0  0  0  0
 17 18  1  0  0  0  0
 17 43  1  0  0  0  0
 18 19  1  0  0  0  0
 18 31  2  0  0  0  0
 19 20  2  0  0  0  0
 19 44  1  0  0  0  0
 20 21  1  0  0  0  0
 20 45  1  0  0  0  0
 21 22  1  0  0  0  0
 21 30  2  0  0  0  0
 22 23  1  0  0  0  0
 23 24  1  0  0  0  0
 23 46  1  0  0  0  0
 23 47  1  0  0  0  0
 24 25  1  0  0  0  0
 24 48  1  0  0  0  0
 24 49  1  0  0  0  0
 25 26  1  0  0  0  0
 25 29  1  0  0  0  0
 26 27  1  0  0  0  0
 26 50  1  0  0  0  0
 26 51  1  0  0  0  0
 27 28  1  0  0  0  0
 27 52  1  0  0  0  0
 27 53  1  0  0  0  0
 28 29  1  0  0  0  0
 28 54  1  0  0  0  0
 28 55  1  0  0  0  0
 29 56  1  0  0  0  0
 29 57  1  0  0  0  0
 30 31  1  0  0  0  0
 30 58  1  0  0  0  0
 31 59  1  0  0  0  0
 32 33  1  0  0  0  0
M  END
$$$$
