CHEMBL1984760
 OpenBabel04072215363D

 48 50  0  0  0  0  0  0  0  0999 V2000
    2.7582    1.8813   -1.9356 C   0  0  0  0  0  0  0  0  0  0  0  0
    2.3598    2.2439   -0.5120 C   0  0  0  0  0  0  0  0  0  0  0  0
    3.0081    1.3356    0.5309 C   0  0  0  0  0  0  0  0  0  0  0  0
    4.4543    1.4315    0.5241 N   0  0  0  0  0  0  0  0  0  0  0  0
    5.1196    2.3784    1.2717 C   0  0  0  0  0  0  0  0  0  0  0  0
    4.5549    3.1661    2.0267 O   0  0  0  0  0  0  0  0  0  0  0  0
    6.6016    2.4000    1.1522 C   0  0  0  0  0  0  0  0  0  0  0  0
    7.2521    2.0121   -0.0199 C   0  0  0  0  0  0  0  0  0  0  0  0
    8.6452    2.0870   -0.1003 C   0  0  0  0  0  0  0  0  0  0  0  0
    9.4029    2.5722    0.9748 C   0  0  0  0  0  0  0  0  0  0  0  0
   10.8055    2.6503    0.9142 N   0  0  0  0  0  0  0  0  0  0  0  0
   11.5420    3.0228   -0.2172 C   0  0  0  0  0  0  0  0  0  0  0  0
   12.7896    2.5145   -0.3075 N   0  0  0  0  0  0  0  0  0  0  0  0
   13.5956    2.8664   -1.3525 C   0  0  0  0  0  0  0  0  0  0  0  0
   14.9560    2.2302   -1.4358 C   0  0  0  0  0  0  0  0  0  0  0  0
   15.0053    0.8175   -0.8571 C   0  0  0  0  0  0  0  0  0  0  0  0
   14.0768   -0.1533   -1.5634 C   0  0  0  0  0  0  0  0  0  0  0  0
   13.4328    0.3874   -2.6177 F   0  0  0  0  0  0  0  0  0  0  0  0
   14.7854   -1.2068   -2.0376 F   0  0  0  0  0  0  0  0  0  0  0  0
   13.1486   -0.6505   -0.7163 F   0  0  0  0  0  0  0  0  0  0  0  0
   13.1084    3.7960   -2.2782 C   0  0  0  0  0  0  0  0  0  0  0  0
   13.5899    4.4737   -3.4325 C   0  0  0  0  0  0  0  0  0  0  0  0
   12.5698    5.2770   -3.9018 C   0  0  0  0  0  0  0  0  0  0  0  0
   11.4820    5.0887   -3.0882 N   0  0  0  0  0  0  0  0  0  0  0  0
   11.8078    4.2183   -2.0873 C   0  0  0  0  0  0  0  0  0  0  0  0
   10.9838    3.8641   -1.1008 N   0  0  0  0  0  0  0  0  0  0  0  0
    8.7472    2.9245    2.1577 C   0  0  0  0  0  0  0  0  0  0  0  0
    7.3521    2.8627    2.2400 C   0  0  0  0  0  0  0  0  0  0  0  0
    2.2513    2.5385   -2.6489 H   0  0  0  0  0  0  0  0  0  0  0  0
    2.4808    0.8484   -2.1684 H   0  0  0  0  0  0  0  0  0  0  0  0
    3.8365    1.9910   -2.0880 H   0  0  0  0  0  0  0  0  0  0  0  0
    1.2699    2.1644   -0.4194 H   0  0  0  0  0  0  0  0  0  0  0  0
    2.6242    3.2901   -0.3200 H   0  0  0  0  0  0  0  0  0  0  0  0
    2.7505    0.2883    0.3451 H   0  0  0  0  0  0  0  0  0  0  0  0
    2.6393    1.6015    1.5261 H   0  0  0  0  0  0  0  0  0  0  0  0
    4.9725    0.7506   -0.0108 H   0  0  0  0  0  0  0  0  0  0  0  0
    6.7004    1.6897   -0.8991 H   0  0  0  0  0  0  0  0  0  0  0  0
    9.1348    1.7898   -1.0240 H   0  0  0  0  0  0  0  0  0  0  0  0
   11.2835    1.8774    1.3579 H   0  0  0  0  0  0  0  0  0  0  0  0
   15.6664    2.8698   -0.8995 H   0  0  0  0  0  0  0  0  0  0  0  0
   15.2828    2.1957   -2.4824 H   0  0  0  0  0  0  0  0  0  0  0  0
   14.7682    0.8378    0.2140 H   0  0  0  0  0  0  0  0  0  0  0  0
   16.0354    0.4482   -0.9289 H   0  0  0  0  0  0  0  0  0  0  0  0
   14.5781    4.3995   -3.8657 H   0  0  0  0  0  0  0  0  0  0  0  0
   12.5214    5.9620   -4.7379 H   0  0  0  0  0  0  0  0  0  0  0  0
   10.5774    5.5295   -3.1738 H   0  0  0  0  0  0  0  0  0  0  0  0
    9.3140    3.3033    3.0041 H   0  0  0  0  0  0  0  0  0  0  0  0
    6.8517    3.1889    3.1495 H   0  0  0  0  0  0  0  0  0  0  0  0
  1  2  1  0  0  0  0
  1 29  1  0  0  0  0
  1 30  1  0  0  0  0
  1 31  1  0  0  0  0
  2  3  1  0  0  0  0
  2 32  1  0  0  0  0
  2 33  1  0  0  0  0
  3  4  1  0  0  0  0
  3 34  1  0  0  0  0
  3 35  1  0  0  0  0
  4  5  1  0  0  0  0
  4 36  1  0  0  0  0
  5  6  2  0  0  0  0
  5  7  1  0  0  0  0
  7  8  1  0  0  0  0
  7 28  2  0  0  0  0
  8  9  2  0  0  0  0
  8 37  1  0  0  0  0
  9 10  1  0  0  0  0
  9 38  1  0  0  0  0
 10 11  1  0  0  0  0
 10 27  2  0  0  0  0
 11 12  1  0  0  0  0
 11 39  1  0  0  0  0
 12 13  1  0  0  0  0
 12 26  2  0  0  0  0
 13 14  2  0  0  0  0
 14 15  1  0  0  0  0
 14 21  1  0  0  0  0
 15 16  1  0  0  0  0
 15 40  1  0  0  0  0
 15 41  1  0  0  0  0
 16 17  1  0  0  0  0
 16 42  1  0  0  0  0
 16 43  1  0  0  0  0
 17 18  1  0  0  0  0
 17 19  1  0  0  0  0
 17 20  1  0  0  0  0
 21 22  1  0  0  0  0
 21 25  2  0  0  0  0
 22 23  2  0  0  0  0
 22 44  1  0  0  0  0
 23 24  1  0  0  0  0
 23 45  1  0  0  0  0
 24 25  1  0  0  0  0
 24 46  1  0  0  0  0
 25 26  1  0  0  0  0
 27 28  1  0  0  0  0
 27 47  1  0  0  0  0
 28 48  1  0  0  0  0
M  END
$$$$
