CHEMBL1254098
 OpenBabel04072215363D

 43 46  0  0  0  0  0  0  0  0999 V2000
    3.6544   -0.7566   -1.0467 C   0  0  0  0  0  0  0  0  0  0  0  0
    3.4195   -0.4390    0.3436 N   0  0  0  0  0  0  0  0  0  0  0  0
    4.0144    0.6028    1.0124 C   0  0  0  0  0  0  0  0  0  0  0  0
    3.5424    0.6001    2.3075 C   0  0  0  0  0  0  0  0  0  0  0  0
    2.6301   -0.4735    2.4196 C   0  0  0  0  0  0  0  0  0  0  0  0
    1.9214   -0.8686    3.4972 N   0  0  0  0  0  0  0  0  0  0  0  0
    1.1317   -1.9216    3.2577 C   0  0  0  0  0  0  0  0  0  0  0  0
    0.9922   -2.6005    2.1076 N   0  0  0  0  0  0  0  0  0  0  0  0
    1.7466   -2.2251    1.0498 C   0  0  0  0  0  0  0  0  0  0  0  0
    1.6706   -2.9431   -0.1400 O   0  0  0  0  0  0  0  0  0  0  0  0
    1.4988   -4.3093   -0.0433 C   0  0  0  0  0  0  0  0  0  0  0  0
    2.0595   -5.0724    0.9769 C   0  0  0  0  0  0  0  0  0  0  0  0
    1.8502   -6.4548    1.0323 C   0  0  0  0  0  0  0  0  0  0  0  0
    1.0945   -7.1083    0.0550 C   0  0  0  0  0  0  0  0  0  0  0  0
    0.8770   -8.5133    0.0994 N   0  0  0  0  0  0  0  0  0  0  0  0
    1.1251   -9.3273    1.1868 C   0  0  0  0  0  0  0  0  0  0  0  0
    1.4382   -8.9325    2.3043 O   0  0  0  0  0  0  0  0  0  0  0  0
    1.0266  -10.6750    0.8700 N   0  0  0  0  0  0  0  0  0  0  0  0
    1.2848  -11.6566    1.8573 C   0  0  0  0  0  0  0  0  0  0  0  0
    2.0638  -12.7642    1.5339 C   0  0  0  0  0  0  0  0  0  0  0  0
    2.3979  -13.6792    2.5335 C   0  0  0  0  0  0  0  0  0  0  0  0
    1.8960  -13.4829    3.8110 C   0  0  0  0  0  0  0  0  0  0  0  0
    1.1022  -12.4476    4.1511 N   0  0  0  0  0  0  0  0  0  0  0  0
    0.8295  -11.5492    3.1729 C   0  0  0  0  0  0  0  0  0  0  0  0
    0.5877   -6.3406   -1.0059 C   0  0  0  0  0  0  0  0  0  0  0  0
   -0.3008   -7.0856   -2.2944 Cl  0  0  0  0  0  0  0  0  0  0  0  0
    0.7879   -4.9529   -1.0610 C   0  0  0  0  0  0  0  0  0  0  0  0
    2.5668   -1.1138    1.1866 C   0  0  0  0  0  0  0  0  0  0  0  0
    4.3674   -0.0431   -1.4682 H   0  0  0  0  0  0  0  0  0  0  0  0
    2.7048   -0.6860   -1.5830 H   0  0  0  0  0  0  0  0  0  0  0  0
    4.0660   -1.7669   -1.1072 H   0  0  0  0  0  0  0  0  0  0  0  0
    4.7219    1.2605    0.5229 H   0  0  0  0  0  0  0  0  0  0  0  0
    3.8177    1.2918    3.0921 H   0  0  0  0  0  0  0  0  0  0  0  0
    0.5392   -2.2763    4.0954 H   0  0  0  0  0  0  0  0  0  0  0  0
    2.6526   -4.6173    1.7650 H   0  0  0  0  0  0  0  0  0  0  0  0
    2.2974   -6.9750    1.8678 H   0  0  0  0  0  0  0  0  0  0  0  0
    0.3150   -8.8982   -0.6538 H   0  0  0  0  0  0  0  0  0  0  0  0
    1.2783  -10.9059   -0.0805 H   0  0  0  0  0  0  0  0  0  0  0  0
    2.4748  -12.8926    0.5380 H   0  0  0  0  0  0  0  0  0  0  0  0
    3.0537  -14.5177    2.3272 H   0  0  0  0  0  0  0  0  0  0  0  0
    2.1312  -14.1675    4.6200 H   0  0  0  0  0  0  0  0  0  0  0  0
    0.2064  -10.7181    3.4922 H   0  0  0  0  0  0  0  0  0  0  0  0
    0.3855   -4.3672   -1.8837 H   0  0  0  0  0  0  0  0  0  0  0  0
  1  2  1  0  0  0  0
  1 29  1  0  0  0  0
  1 30  1  0  0  0  0
  1 31  1  0  0  0  0
  2  3  1  0  0  0  0
  2 28  1  0  0  0  0
  3  4  2  0  0  0  0
  3 32  1  0  0  0  0
  4  5  1  0  0  0  0
  4 33  1  0  0  0  0
  5  6  1  0  0  0  0
  5 28  2  0  0  0  0
  6  7  2  0  0  0  0
  7  8  1  0  0  0  0
  7 34  1  0  0  0  0
  8  9  2  0  0  0  0
  9 10  1  0  0  0  0
  9 28  1  0  0  0  0
 10 11  1  0  0  0  0
 11 12  1  0  0  0  0
 11 27  2  0  0  0  0
 12 13  2  0  0  0  0
 12 35  1  0  0  0  0
 13 14  1  0  0  0  0
 13 36  1  0  0  0  0
 14 15  1  0  0  0  0
 14 25  2  0  0  0  0
 15 16  1  0  0  0  0
 15 37  1  0  0  0  0
 16 17  2  0  0  0  0
 16 18  1  0  0  0  0
 18 19  1  0  0  0  0
 18 38  1  0  0  0  0
 19 20  1  0  0  0  0
 19 24  2  0  0  0  0
 20 21  2  0  0  0  0
 20 39  1  0  0  0  0
 21 22  1  0  0  0  0
 21 40  1  0  0  0  0
 22 23  2  0  0  0  0
 22 41  1  0  0  0  0
 23 24  1  0  0  0  0
 24 42  1  0  0  0  0
 25 26  1  0  0  0  0
 25 27  1  0  0  0  0
 27 43  1  0  0  0  0
M  END
$$$$
