CHEMBL3775560
 OpenBabel04072215373D

 40 42  0  0  0  0  0  0  0  0999 V2000
    2.4393    1.8128    0.2339 C   0  0  0  0  0  0  0  0  0  0  0  0
    2.3312    0.3944    0.1117 O   0  0  0  0  0  0  0  0  0  0  0  0
    2.9590   -0.3278    1.0941 C   0  0  0  0  0  0  0  0  0  0  0  0
    4.0602    0.1778    1.7956 C   0  0  0  0  0  0  0  0  0  0  0  0
    4.6302   -0.4925    2.8634 C   0  0  0  0  0  0  0  0  0  0  0  0
    5.6295    0.1124    3.5055 N   0  0  0  0  0  0  0  0  0  0  0  0
    6.1679   -0.5484    4.5302 C   0  0  0  0  0  0  0  0  0  0  0  0
    5.8248   -1.7704    4.9269 N   0  0  0  0  0  0  0  0  0  0  0  0
    4.8357   -2.3918    4.2502 C   0  0  0  0  0  0  0  0  0  0  0  0
    4.5679   -3.7489    4.5692 N   0  0  0  0  0  0  0  0  0  0  0  0
    5.4654   -4.5494    5.3266 C   0  0  0  0  0  0  0  0  0  0  0  0
    6.8340   -4.5284    5.0136 C   0  0  0  0  0  0  0  0  0  0  0  0
    7.7702   -5.1758    5.8125 C   0  0  0  0  0  0  0  0  0  0  0  0
    7.3642   -5.8897    6.9451 C   0  0  0  0  0  0  0  0  0  0  0  0
    8.4223   -6.4932    7.8218 C   0  0  0  0  0  0  0  0  0  0  0  0
    5.9899   -5.9839    7.2250 C   0  0  0  0  0  0  0  0  0  0  0  0
    5.5391   -6.7002    8.3054 O   0  0  0  0  0  0  0  0  0  0  0  0
    5.0415   -5.3251    6.4163 C   0  0  0  0  0  0  0  0  0  0  0  0
    3.3485   -5.4310    6.7835 Cl  0  0  0  0  0  0  0  0  0  0  0  0
    4.1454   -1.7590    3.2060 C   0  0  0  0  0  0  0  0  0  0  0  0
    3.0642   -2.3033    2.4753 C   0  0  0  0  0  0  0  0  0  0  0  0
    2.4788   -1.6011    1.4167 C   0  0  0  0  0  0  0  0  0  0  0  0
    1.4210   -2.2568    0.8474 O   0  0  0  0  0  0  0  0  0  0  0  0
    1.2236   -2.0600   -0.5474 C   0  0  0  0  0  0  0  0  0  0  0  0
    1.6508    2.2670   -0.3722 H   0  0  0  0  0  0  0  0  0  0  0  0
    3.4035    2.1592   -0.1533 H   0  0  0  0  0  0  0  0  0  0  0  0
    2.2933    2.1452    1.2686 H   0  0  0  0  0  0  0  0  0  0  0  0
    4.5046    1.1322    1.5278 H   0  0  0  0  0  0  0  0  0  0  0  0
    6.9601   -0.0549    5.0826 H   0  0  0  0  0  0  0  0  0  0  0  0
    3.5996   -3.8783    4.8523 H   0  0  0  0  0  0  0  0  0  0  0  0
    7.1817   -3.9544    4.1567 H   0  0  0  0  0  0  0  0  0  0  0  0
    8.8221   -5.0856    5.5556 H   0  0  0  0  0  0  0  0  0  0  0  0
    9.4290   -6.2594    7.4580 H   0  0  0  0  0  0  0  0  0  0  0  0
    8.3211   -7.5820    7.8482 H   0  0  0  0  0  0  0  0  0  0  0  0
    8.3459   -6.0890    8.8378 H   0  0  0  0  0  0  0  0  0  0  0  0
    6.2873   -7.0866    8.7837 H   0  0  0  0  0  0  0  0  0  0  0  0
    2.6649   -3.2816    2.7325 H   0  0  0  0  0  0  0  0  0  0  0  0
    0.7939   -2.9835   -0.9496 H   0  0  0  0  0  0  0  0  0  0  0  0
    2.1553   -1.8741   -1.0923 H   0  0  0  0  0  0  0  0  0  0  0  0
    0.4988   -1.2574   -0.7149 H   0  0  0  0  0  0  0  0  0  0  0  0
  1  2  1  0  0  0  0
  1 25  1  0  0  0  0
  1 26  1  0  0  0  0
  1 27  1  0  0  0  0
  2  3  1  0  0  0  0
  3  4  1  0  0  0  0
  3 22  2  0  0  0  0
  4  5  2  0  0  0  0
  4 28  1  0  0  0  0
  5  6  1  0  0  0  0
  5 20  1  0  0  0  0
  6  7  2  0  0  0  0
  7  8  1  0  0  0  0
  7 29  1  0  0  0  0
  8  9  2  0  0  0  0
  9 10  1  0  0  0  0
  9 20  1  0  0  0  0
 10 11  1  0  0  0  0
 10 30  1  0  0  0  0
 11 12  1  0  0  0  0
 11 18  2  0  0  0  0
 12 13  2  0  0  0  0
 12 31  1  0  0  0  0
 13 14  1  0  0  0  0
 13 32  1  0  0  0  0
 14 15  1  0  0  0  0
 14 16  2  0  0  0  0
 15 33  1  0  0  0  0
 15 34  1  0  0  0  0
 15 35  1  0  0  0  0
 16 17  1  0  0  0  0
 16 18  1  0  0  0  0
 17 36  1  0  0  0  0
 18 19  1  0  0  0  0
 20 21  2  0  0  0  0
 21 22  1  0  0  0  0
 21 37  1  0  0  0  0
 22 23  1  0  0  0  0
 23 24  1  0  0  0  0
 24 38  1  0  0  0  0
 24 39  1  0  0  0  0
 24 40  1  0  0  0  0
M  END
$$$$
