CHEMBL383671
 OpenBabel04072215373D

 41 44  0  0  0  0  0  0  0  0999 V2000
    1.2118    2.3258   -1.2502 C   0  0  0  0  0  0  0  0  0  0  0  0
    2.6293    2.1790   -1.2145 O   0  0  0  0  0  0  0  0  0  0  0  0
    3.0658    0.9071   -0.9772 C   0  0  0  0  0  0  0  0  0  0  0  0
    2.3294   -0.0565   -0.8012 O   0  0  0  0  0  0  0  0  0  0  0  0
    4.5265    0.8238   -0.9573 C   0  0  0  0  0  0  0  0  0  0  0  0
    5.3836    1.8998   -1.1144 C   0  0  0  0  0  0  0  0  0  0  0  0
    6.6674    1.4566   -1.0336 N   0  0  0  0  0  0  0  0  0  0  0  0
    7.7600    2.2309   -1.1481 N   0  0  0  0  0  0  0  0  0  0  0  0
    8.8827    1.5920   -1.0495 C   0  0  0  0  0  0  0  0  0  0  0  0
    9.0440    0.2454   -0.8630 N   0  0  0  0  0  0  0  0  0  0  0  0
    7.9734   -0.4711   -0.7778 C   0  0  0  0  0  0  0  0  0  0  0  0
    7.9629   -1.8503   -0.6677 O   0  0  0  0  0  0  0  0  0  0  0  0
    9.0920   -2.5590   -1.1276 C   0  0  0  0  0  0  0  0  0  0  0  0
    9.7209   -2.2082   -2.3253 C   0  0  0  0  0  0  0  0  0  0  0  0
   10.8108   -2.9375   -2.7993 C   0  0  0  0  0  0  0  0  0  0  0  0
   11.2180   -4.0516   -2.0589 C   0  0  0  0  0  0  0  0  0  0  0  0
   12.2383   -4.9430   -2.2966 N   0  0  0  0  0  0  0  0  0  0  0  0
   12.2733   -5.9042   -1.3180 C   0  0  0  0  0  0  0  0  0  0  0  0
   13.2737   -6.9993   -1.3260 C   0  0  0  0  0  0  0  0  0  0  0  0
   11.2569   -5.6207   -0.4273 C   0  0  0  0  0  0  0  0  0  0  0  0
   10.5851   -4.4492   -0.8793 C   0  0  0  0  0  0  0  0  0  0  0  0
    9.4984   -3.6897   -0.4095 C   0  0  0  0  0  0  0  0  0  0  0  0
    8.8486   -4.0471    0.7098 F   0  0  0  0  0  0  0  0  0  0  0  0
    6.6768    0.1085   -0.8401 C   0  0  0  0  0  0  0  0  0  0  0  0
    5.3629   -0.3421   -0.7889 C   0  0  0  0  0  0  0  0  0  0  0  0
    4.8611   -1.7364   -0.6137 C   0  0  0  0  0  0  0  0  0  0  0  0
    0.9883    3.3343   -1.6092 H   0  0  0  0  0  0  0  0  0  0  0  0
    0.7985    2.2150   -0.2435 H   0  0  0  0  0  0  0  0  0  0  0  0
    0.7566    1.6083   -1.9403 H   0  0  0  0  0  0  0  0  0  0  0  0
    5.1831    2.9497   -1.2784 H   0  0  0  0  0  0  0  0  0  0  0  0
    9.8146    2.1764   -1.1405 H   0  0  0  0  0  0  0  0  0  0  0  0
    9.3783   -1.3538   -2.9027 H   0  0  0  0  0  0  0  0  0  0  0  0
   11.3150   -2.6456   -3.7152 H   0  0  0  0  0  0  0  0  0  0  0  0
   12.8635   -4.8942   -3.0892 H   0  0  0  0  0  0  0  0  0  0  0  0
   13.9401   -6.9315   -2.1921 H   0  0  0  0  0  0  0  0  0  0  0  0
   12.7729   -7.9718   -1.3595 H   0  0  0  0  0  0  0  0  0  0  0  0
   13.8887   -6.9579   -0.4217 H   0  0  0  0  0  0  0  0  0  0  0  0
   11.0153   -6.1920    0.4599 H   0  0  0  0  0  0  0  0  0  0  0  0
    5.6623   -2.4748   -0.5548 H   0  0  0  0  0  0  0  0  0  0  0  0
    4.2241   -2.0161   -1.4594 H   0  0  0  0  0  0  0  0  0  0  0  0
    4.2723   -1.8151    0.3058 H   0  0  0  0  0  0  0  0  0  0  0  0
  1  2  1  0  0  0  0
  1 27  1  0  0  0  0
  1 28  1  0  0  0  0
  1 29  1  0  0  0  0
  2  3  1  0  0  0  0
  3  4  2  0  0  0  0
  3  5  1  0  0  0  0
  5  6  2  0  0  0  0
  5 25  1  0  0  0  0
  6  7  1  0  0  0  0
  6 30  1  0  0  0  0
  7  8  1  0  0  0  0
  7 24  1  0  0  0  0
  8  9  2  0  0  0  0
  9 10  1  0  0  0  0
  9 31  1  0  0  0  0
 10 11  2  0  0  0  0
 11 12  1  0  0  0  0
 11 24  1  0  0  0  0
 12 13  1  0  0  0  0
 13 14  1  0  0  0  0
 13 22  2  0  0  0  0
 14 15  2  0  0  0  0
 14 32  1  0  0  0  0
 15 16  1  0  0  0  0
 15 33  1  0  0  0  0
 16 17  1  0  0  0  0
 16 21  2  0  0  0  0
 17 18  1  0  0  0  0
 17 34  1  0  0  0  0
 18 19  1  0  0  0  0
 18 20  2  0  0  0  0
 19 35  1  0  0  0  0
 19 36  1  0  0  0  0
 19 37  1  0  0  0  0
 20 21  1  0  0  0  0
 20 38  1  0  0  0  0
 21 22  1  0  0  0  0
 22 23  1  0  0  0  0
 24 25  2  0  0  0  0
 25 26  1  0  0  0  0
 26 39  1  0  0  0  0
 26 40  1  0  0  0  0
 26 41  1  0  0  0  0
M  END
$$$$
