CHEMBL2016914
 OpenBabel04072215363D

 56 60  0  0  0  0  0  0  0  0999 V2000
   -2.5821    1.8907   -2.9978 C   0  0  0  0  0  0  0  0  0  0  0  0
   -3.5270    1.1864   -2.1391 N   0  0  0  0  0  0  0  0  0  0  0  0
   -2.9988   -0.1276   -1.7278 C   0  0  0  0  0  0  0  0  0  0  0  0
   -3.9888   -0.8606   -0.7910 C   0  0  0  0  0  0  0  0  0  0  0  0
   -4.3466   -0.1018    0.4339 N   0  0  0  0  0  0  0  0  0  0  0  0
   -3.1953    0.0369    1.3566 C   0  0  0  0  0  0  0  0  0  0  0  0
   -2.8478   -1.3081    2.0334 C   0  0  0  0  0  0  0  0  0  0  0  0
   -2.2610   -2.1930    1.4006 O   0  0  0  0  0  0  0  0  0  0  0  0
   -3.2084   -1.4963    3.3703 N   0  0  0  0  0  0  0  0  0  0  0  0
   -3.7804   -0.3992    4.1812 C   0  0  0  0  0  0  0  0  0  0  0  0
   -4.1740   -0.6127    5.6479 C   0  0  0  0  0  0  0  0  0  0  0  0
   -3.9734   -1.9945    6.0737 C   0  0  0  0  0  0  0  0  0  0  0  0
   -4.3073   -2.4736    7.3026 N   0  0  0  0  0  0  0  0  0  0  0  0
   -3.9607   -3.7510    7.2910 C   0  0  0  0  0  0  0  0  0  0  0  0
   -4.0768   -4.7226    8.3197 C   0  0  0  0  0  0  0  0  0  0  0  0
   -4.7407   -4.3783    9.4375 C   0  0  0  0  0  0  0  0  0  0  0  0
   -4.8331   -5.2888   10.5711 C   0  0  0  0  0  0  0  0  0  0  0  0
   -5.5017   -4.9254   11.7401 C   0  0  0  0  0  0  0  0  0  0  0  0
   -5.5189   -5.8049   12.8168 C   0  0  0  0  0  0  0  0  0  0  0  0
   -6.1525   -5.4552   13.9440 F   0  0  0  0  0  0  0  0  0  0  0  0
   -4.8800   -7.0405   12.7468 C   0  0  0  0  0  0  0  0  0  0  0  0
   -4.2223   -7.4175   11.5753 C   0  0  0  0  0  0  0  0  0  0  0  0
   -4.2028   -6.5396   10.4920 C   0  0  0  0  0  0  0  0  0  0  0  0
   -3.5467   -6.9023    9.3101 N   0  0  0  0  0  0  0  0  0  0  0  0
   -3.4585   -6.0856    8.2090 C   0  0  0  0  0  0  0  0  0  0  0  0
   -2.8947   -6.4656    7.1854 O   0  0  0  0  0  0  0  0  0  0  0  0
   -3.4035   -4.0855    6.0711 N   0  0  0  0  0  0  0  0  0  0  0  0
   -3.4345   -2.9680    5.2855 C   0  0  0  0  0  0  0  0  0  0  0  0
   -2.9911   -2.8540    3.8928 C   0  0  0  0  0  0  0  0  0  0  0  0
   -4.8345    1.2294    0.0016 C   0  0  0  0  0  0  0  0  0  0  0  0
   -3.8851    1.9903   -0.9579 C   0  0  0  0  0  0  0  0  0  0  0  0
   -2.3518    1.2914   -3.8856 H   0  0  0  0  0  0  0  0  0  0  0  0
   -1.6426    2.1209   -2.4835 H   0  0  0  0  0  0  0  0  0  0  0  0
   -3.0199    2.8284   -3.3570 H   0  0  0  0  0  0  0  0  0  0  0  0
   -2.0241   -0.0185   -1.2360 H   0  0  0  0  0  0  0  0  0  0  0  0
   -2.8364   -0.7525   -2.6139 H   0  0  0  0  0  0  0  0  0  0  0  0
   -3.6054   -1.8556   -0.5484 H   0  0  0  0  0  0  0  0  0  0  0  0
   -4.9154   -1.0527   -1.3502 H   0  0  0  0  0  0  0  0  0  0  0  0
   -3.4402    0.7922    2.1043 H   0  0  0  0  0  0  0  0  0  0  0  0
   -2.2866    0.4075    0.8734 H   0  0  0  0  0  0  0  0  0  0  0  0
   -4.6699   -0.0402    3.6470 H   0  0  0  0  0  0  0  0  0  0  0  0
   -3.0474    0.4175    4.1531 H   0  0  0  0  0  0  0  0  0  0  0  0
   -5.2222   -0.3271    5.7873 H   0  0  0  0  0  0  0  0  0  0  0  0
   -3.5838    0.0574    6.2854 H   0  0  0  0  0  0  0  0  0  0  0  0
   -5.1973   -3.3964    9.5379 H   0  0  0  0  0  0  0  0  0  0  0  0
   -6.0064   -3.9663   11.8324 H   0  0  0  0  0  0  0  0  0  0  0  0
   -4.8966   -7.6987   13.6098 H   0  0  0  0  0  0  0  0  0  0  0  0
   -3.7240   -8.3812   11.5260 H   0  0  0  0  0  0  0  0  0  0  0  0
   -3.1085   -7.8076    9.2257 H   0  0  0  0  0  0  0  0  0  0  0  0
   -3.0433   -5.0047    5.8325 H   0  0  0  0  0  0  0  0  0  0  0  0
   -3.5560   -3.5491    3.2594 H   0  0  0  0  0  0  0  0  0  0  0  0
   -1.9273   -3.1010    3.7975 H   0  0  0  0  0  0  0  0  0  0  0  0
   -5.0513    1.8535    0.8776 H   0  0  0  0  0  0  0  0  0  0  0  0
   -5.8020    1.0907   -0.5005 H   0  0  0  0  0  0  0  0  0  0  0  0
   -2.9847    2.2960   -0.4092 H   0  0  0  0  0  0  0  0  0  0  0  0
   -4.3915    2.9075   -1.2817 H   0  0  0  0  0  0  0  0  0  0  0  0
  1  2  1  0  0  0  0
  1 32  1  0  0  0  0
  1 33  1  0  0  0  0
  1 34  1  0  0  0  0
  2  3  1  0  0  0  0
  2 31  1  0  0  0  0
  3  4  1  0  0  0  0
  3 35  1  0  0  0  0
  3 36  1  0  0  0  0
  4  5  1  0  0  0  0
  4 37  1  0  0  0  0
  4 38  1  0  0  0  0
  5  6  1  0  0  0  0
  5 30  1  0  0  0  0
  6  7  1  0  0  0  0
  6 39  1  0  0  0  0
  6 40  1  0  0  0  0
  7  8  2  0  0  0  0
  7  9  1  0  0  0  0
  9 10  1  0  0  0  0
  9 29  1  0  0  0  0
 10 11  1  0  0  0  0
 10 41  1  0  0  0  0
 10 42  1  0  0  0  0
 11 12  1  0  0  0  0
 11 43  1  0  0  0  0
 11 44  1  0  0  0  0
 12 13  1  0  0  0  0
 12 28  2  0  0  0  0
 13 14  2  0  0  0  0
 14 15  1  0  0  0  0
 14 27  1  0  0  0  0
 15 16  2  0  0  0  0
 15 25  1  0  0  0  0
 16 17  1  0  0  0  0
 16 45  1  0  0  0  0
 17 18  1  0  0  0  0
 17 23  2  0  0  0  0
 18 19  2  0  0  0  0
 18 46  1  0  0  0  0
 19 20  1  0  0  0  0
 19 21  1  0  0  0  0
 21 22  2  0  0  0  0
 21 47  1  0  0  0  0
 22 23  1  0  0  0  0
 22 48  1  0  0  0  0
 23 24  1  0  0  0  0
 24 25  1  0  0  0  0
 24 49  1  0  0  0  0
 25 26  2  0  0  0  0
 27 28  1  0  0  0  0
 27 50  1  0  0  0  0
 28 29  1  0  0  0  0
 29 51  1  0  0  0  0
 29 52  1  0  0  0  0
 30 31  1  0  0  0  0
 30 53  1  0  0  0  0
 30 54  1  0  0  0  0
 31 55  1  0  0  0  0
 31 56  1  0  0  0  0
M  END
$$$$
