CHEMBL3621294
 OpenBabel04072215363D

 53 55  0  0  0  0  0  0  0  0999 V2000
   -0.6349   -0.5300   -0.3475 O   0  0  0  0  0  0  0  0  0  0  0  0
    0.0707   -1.1548    0.4393 C   0  0  0  0  0  0  0  0  0  0  0  0
    0.8595   -2.3981    0.0898 C   0  0  0  0  0  0  0  0  0  0  0  0
    0.6747   -2.8174   -1.3685 C   0  0  0  0  0  0  0  0  0  0  0  0
    1.4711   -4.0866   -1.6753 C   0  0  0  0  0  0  0  0  0  0  0  0
    1.2812   -4.5498   -3.1226 C   0  0  0  0  0  0  0  0  0  0  0  0
    2.0946   -5.8062   -3.4648 C   0  0  0  0  0  0  0  0  0  0  0  0
    1.7010   -7.0247   -2.6279 C   0  0  0  0  0  0  0  0  0  0  0  0
    2.5609   -8.2333   -2.9499 C   0  0  0  0  0  0  0  0  0  0  0  0
    3.7591   -8.2518   -2.6865 O   0  0  0  0  0  0  0  0  0  0  0  0
    1.8655   -9.2447   -3.5925 N   0  0  0  0  0  0  0  0  0  0  0  0
    2.5069  -10.4100   -4.0610 C   0  0  0  0  0  0  0  0  0  0  0  0
    2.2505  -10.7805   -5.3934 C   0  0  0  0  0  0  0  0  0  0  0  0
    2.9384  -11.8406   -5.9794 C   0  0  0  0  0  0  0  0  0  0  0  0
    3.8111  -12.5461   -5.1774 C   0  0  0  0  0  0  0  0  0  0  0  0
    4.0164  -12.2581   -3.8234 C   0  0  0  0  0  0  0  0  0  0  0  0
    3.3843  -11.1602   -3.2540 C   0  0  0  0  0  0  0  0  0  0  0  0
    4.9846  -13.2578   -3.3376 C   0  0  0  0  0  0  0  0  0  0  0  0
    5.4438  -13.4040   -2.0857 C   0  0  0  0  0  0  0  0  0  0  0  0
    6.4657  -14.3281   -1.7614 C   0  0  0  0  0  0  0  0  0  0  0  0
    7.8341  -14.1987   -1.6510 C   0  0  0  0  0  0  0  0  0  0  0  0
    8.3699  -15.4848   -1.3985 C   0  0  0  0  0  0  0  0  0  0  0  0
    7.3114  -16.3621   -1.3257 C   0  0  0  0  0  0  0  0  0  0  0  0
    6.1535  -15.6514   -1.5388 N   0  0  0  0  0  0  0  0  0  0  0  0
    5.3554  -14.1118   -4.5365 C   0  0  0  0  0  0  0  0  0  0  0  0
    6.1075  -15.0671   -4.6084 O   0  0  0  0  0  0  0  0  0  0  0  0
    4.6069  -13.6093   -5.5842 N   0  0  0  0  0  0  0  0  0  0  0  0
    0.2108   -0.7757    1.7513 N   0  0  0  0  0  0  0  0  0  0  0  0
   -0.4776    0.3881    2.1535 O   0  0  0  0  0  0  0  0  0  0  0  0
    0.5317   -3.2065    0.7545 H   0  0  0  0  0  0  0  0  0  0  0  0
    1.9189   -2.1994    0.2900 H   0  0  0  0  0  0  0  0  0  0  0  0
    0.9939   -2.0055   -2.0330 H   0  0  0  0  0  0  0  0  0  0  0  0
   -0.3897   -2.9924   -1.5687 H   0  0  0  0  0  0  0  0  0  0  0  0
    1.1447   -4.8714   -0.9851 H   0  0  0  0  0  0  0  0  0  0  0  0
    2.5365   -3.9086   -1.4857 H   0  0  0  0  0  0  0  0  0  0  0  0
    1.5858   -3.7423   -3.8007 H   0  0  0  0  0  0  0  0  0  0  0  0
    0.2183   -4.7387   -3.3155 H   0  0  0  0  0  0  0  0  0  0  0  0
    3.1634   -5.5918   -3.3406 H   0  0  0  0  0  0  0  0  0  0  0  0
    1.9523   -6.0357   -4.5289 H   0  0  0  0  0  0  0  0  0  0  0  0
    0.6402   -7.2541   -2.7787 H   0  0  0  0  0  0  0  0  0  0  0  0
    1.8409   -6.8368   -1.5594 H   0  0  0  0  0  0  0  0  0  0  0  0
    1.0456   -8.9458   -4.1059 H   0  0  0  0  0  0  0  0  0  0  0  0
    1.5738  -10.1937   -6.0097 H   0  0  0  0  0  0  0  0  0  0  0  0
    2.8051  -12.0823   -7.0269 H   0  0  0  0  0  0  0  0  0  0  0  0
    3.5618  -10.8865   -2.2203 H   0  0  0  0  0  0  0  0  0  0  0  0
    5.0998  -12.7447   -1.2917 H   0  0  0  0  0  0  0  0  0  0  0  0
    8.3917  -13.2841   -1.7942 H   0  0  0  0  0  0  0  0  0  0  0  0
    9.4166  -15.7445   -1.3081 H   0  0  0  0  0  0  0  0  0  0  0  0
    7.2823  -17.4320   -1.1730 H   0  0  0  0  0  0  0  0  0  0  0  0
    5.2301  -16.0539   -1.5850 H   0  0  0  0  0  0  0  0  0  0  0  0
    4.6681  -13.9844   -6.5171 H   0  0  0  0  0  0  0  0  0  0  0  0
    0.8137   -1.2217    2.4329 H   0  0  0  0  0  0  0  0  0  0  0  0
   -0.9284    0.6607    1.3241 H   0  0  0  0  0  0  0  0  0  0  0  0
  1  2  2  0  0  0  0
  2  3  1  0  0  0  0
  2 28  1  0  0  0  0
  3  4  1  0  0  0  0
  3 30  1  0  0  0  0
  3 31  1  0  0  0  0
  4  5  1  0  0  0  0
  4 32  1  0  0  0  0
  4 33  1  0  0  0  0
  5  6  1  0  0  0  0
  5 34  1  0  0  0  0
  5 35  1  0  0  0  0
  6  7  1  0  0  0  0
  6 36  1  0  0  0  0
  6 37  1  0  0  0  0
  7  8  1  0  0  0  0
  7 38  1  0  0  0  0
  7 39  1  0  0  0  0
  8  9  1  0  0  0  0
  8 40  1  0  0  0  0
  8 41  1  0  0  0  0
  9 10  2  0  0  0  0
  9 11  1  0  0  0  0
 11 12  1  0  0  0  0
 11 42  1  0  0  0  0
 12 13  1  0  0  0  0
 12 17  2  0  0  0  0
 13 14  2  0  0  0  0
 13 43  1  0  0  0  0
 14 15  1  0  0  0  0
 14 44  1  0  0  0  0
 15 16  2  0  0  0  0
 15 27  1  0  0  0  0
 16 17  1  0  0  0  0
 16 18  1  0  0  0  0
 17 45  1  0  0  0  0
 18 19  2  0  0  0  0
 18 25  1  0  0  0  0
 19 20  1  0  0  0  0
 19 46  1  0  0  0  0
 20 21  2  0  0  0  0
 20 24  1  0  0  0  0
 21 22  1  0  0  0  0
 21 47  1  0  0  0  0
 22 23  2  0  0  0  0
 22 48  1  0  0  0  0
 23 24  1  0  0  0  0
 23 49  1  0  0  0  0
 24 50  1  0  0  0  0
 25 26  2  0  0  0  0
 25 27  1  0  0  0  0
 27 51  1  0  0  0  0
 28 29  1  0  0  0  0
 28 52  1  0  0  0  0
 29 53  1  0  0  0  0
M  END
$$$$
