CHEMBL4100492
 OpenBabel04072215383D

 49 52  0  0  0  0  0  0  0  0999 V2000
   -1.0042    2.1977   -3.3914 C   0  0  0  0  0  0  0  0  0  0  0  0
   -1.2772    1.0328   -2.5036 C   0  0  0  0  0  0  0  0  0  0  0  0
   -1.6844   -0.0969   -3.1085 N   0  0  0  0  0  0  0  0  0  0  0  0
   -1.8794   -0.9503   -2.0973 N   0  0  0  0  0  0  0  0  0  0  0  0
   -1.6037   -0.4334   -0.8708 C   0  0  0  0  0  0  0  0  0  0  0  0
   -1.7269   -1.1120    0.2863 N   0  0  0  0  0  0  0  0  0  0  0  0
   -1.3869   -0.3796    1.3592 C   0  0  0  0  0  0  0  0  0  0  0  0
   -0.9550    0.9376    1.3299 C   0  0  0  0  0  0  0  0  0  0  0  0
   -0.8455    1.6247    0.1025 C   0  0  0  0  0  0  0  0  0  0  0  0
   -0.3829    3.0227    0.0584 C   0  0  0  0  0  0  0  0  0  0  0  0
    0.5041    3.4398   -0.9283 C   0  0  0  0  0  0  0  0  0  0  0  0
    0.8584    4.7781   -1.0883 C   0  0  0  0  0  0  0  0  0  0  0  0
    0.4578    5.7481   -0.1737 C   0  0  0  0  0  0  0  0  0  0  0  0
    0.8508    7.1079   -0.2807 N   0  0  0  0  0  0  0  0  0  0  0  0
    1.5485    7.6514   -1.3335 C   0  0  0  0  0  0  0  0  0  0  0  0
    1.9005    7.0550   -2.3528 O   0  0  0  0  0  0  0  0  0  0  0  0
    1.8485    8.9913   -1.1804 N   0  0  0  0  0  0  0  0  0  0  0  0
    2.6761    9.5814   -2.2325 C   0  0  0  0  0  0  0  0  0  0  0  0
    2.9530   11.0685   -2.0569 C   0  0  0  0  0  0  0  0  0  0  0  0
    3.7439   11.6308   -3.2175 C   0  0  0  0  0  0  0  0  0  0  0  0
    3.0802   12.1215   -4.3517 C   0  0  0  0  0  0  0  0  0  0  0  0
    3.7968   12.6578   -5.4234 C   0  0  0  0  0  0  0  0  0  0  0  0
    5.1902   12.7029   -5.3776 C   0  0  0  0  0  0  0  0  0  0  0  0
    5.8633   12.1954   -4.2676 C   0  0  0  0  0  0  0  0  0  0  0  0
    5.1450   11.6567   -3.1950 C   0  0  0  0  0  0  0  0  0  0  0  0
   -0.3402    5.3366    0.8980 C   0  0  0  0  0  0  0  0  0  0  0  0
   -0.7693    3.9963    0.9986 C   0  0  0  0  0  0  0  0  0  0  0  0
   -1.1901    0.8822   -1.0687 C   0  0  0  0  0  0  0  0  0  0  0  0
   -1.2657    1.9715   -4.4316 H   0  0  0  0  0  0  0  0  0  0  0  0
    0.0578    2.4504   -3.4138 H   0  0  0  0  0  0  0  0  0  0  0  0
   -1.5881    3.0694   -3.0856 H   0  0  0  0  0  0  0  0  0  0  0  0
   -2.2086   -1.8860   -2.2971 H   0  0  0  0  0  0  0  0  0  0  0  0
   -1.4673   -0.9063    2.3078 H   0  0  0  0  0  0  0  0  0  0  0  0
   -0.6864    1.4181    2.2664 H   0  0  0  0  0  0  0  0  0  0  0  0
    0.9487    2.7202   -1.6075 H   0  0  0  0  0  0  0  0  0  0  0  0
    1.4698    5.0053   -1.9522 H   0  0  0  0  0  0  0  0  0  0  0  0
    0.5219    7.7420    0.4291 H   0  0  0  0  0  0  0  0  0  0  0  0
    1.9945    9.3011   -0.2320 H   0  0  0  0  0  0  0  0  0  0  0  0
    2.1560    9.4051   -3.1864 H   0  0  0  0  0  0  0  0  0  0  0  0
    3.6127    9.0183   -2.2693 H   0  0  0  0  0  0  0  0  0  0  0  0
    3.4971   11.2385   -1.1197 H   0  0  0  0  0  0  0  0  0  0  0  0
    2.0085   11.6188   -1.9576 H   0  0  0  0  0  0  0  0  0  0  0  0
    1.9945   12.0932   -4.4068 H   0  0  0  0  0  0  0  0  0  0  0  0
    3.2694   13.0423   -6.2925 H   0  0  0  0  0  0  0  0  0  0  0  0
    5.7475   13.1280   -6.2074 H   0  0  0  0  0  0  0  0  0  0  0  0
    6.9506   12.2215   -4.2364 H   0  0  0  0  0  0  0  0  0  0  0  0
    5.6938   11.2624   -2.3421 H   0  0  0  0  0  0  0  0  0  0  0  0
   -0.6553    6.0419    1.6639 H   0  0  0  0  0  0  0  0  0  0  0  0
   -1.4171    3.7240    1.8326 H   0  0  0  0  0  0  0  0  0  0  0  0
  1  2  1  0  0  0  0
  1 29  1  0  0  0  0
  1 30  1  0  0  0  0
  1 31  1  0  0  0  0
  2  3  2  0  0  0  0
  2 28  1  0  0  0  0
  3  4  1  0  0  0  0
  4  5  1  0  0  0  0
  4 32  1  0  0  0  0
  5  6  1  0  0  0  0
  5 28  2  0  0  0  0
  6  7  2  0  0  0  0
  7  8  1  0  0  0  0
  7 33  1  0  0  0  0
  8  9  2  0  0  0  0
  8 34  1  0  0  0  0
  9 10  1  0  0  0  0
  9 28  1  0  0  0  0
 10 11  1  0  0  0  0
 10 27  2  0  0  0  0
 11 12  2  0  0  0  0
 11 35  1  0  0  0  0
 12 13  1  0  0  0  0
 12 36  1  0  0  0  0
 13 14  1  0  0  0  0
 13 26  2  0  0  0  0
 14 15  1  0  0  0  0
 14 37  1  0  0  0  0
 15 16  2  0  0  0  0
 15 17  1  0  0  0  0
 17 18  1  0  0  0  0
 17 38  1  0  0  0  0
 18 19  1  0  0  0  0
 18 39  1  0  0  0  0
 18 40  1  0  0  0  0
 19 20  1  0  0  0  0
 19 41  1  0  0  0  0
 19 42  1  0  0  0  0
 20 21  1  0  0  0  0
 20 25  2  0  0  0  0
 21 22  2  0  0  0  0
 21 43  1  0  0  0  0
 22 23  1  0  0  0  0
 22 44  1  0  0  0  0
 23 24  2  0  0  0  0
 23 45  1  0  0  0  0
 24 25  1  0  0  0  0
 24 46  1  0  0  0  0
 25 47  1  0  0  0  0
 26 27  1  0  0  0  0
 26 48  1  0  0  0  0
 27 49  1  0  0  0  0
M  END
$$$$
