CHEMBL3128235
 OpenBabel04072215363D

 60 64  0  0  0  0  0  0  0  0999 V2000
    5.0404    1.9822   -1.9729 O   0  0  0  0  0  0  0  0  0  0  0  0
    5.9407    1.2555   -2.3723 C   0  0  0  0  0  0  0  0  0  0  0  0
    6.4437    1.2818   -3.6658 N   0  0  0  0  0  0  0  0  0  0  0  0
    5.9738    2.1094   -4.7154 C   0  0  0  0  0  0  0  0  0  0  0  0
    5.1269    3.2058   -4.5208 C   0  0  0  0  0  0  0  0  0  0  0  0
    4.6332    3.9348   -5.6061 C   0  0  0  0  0  0  0  0  0  0  0  0
    4.9925    3.5822   -6.9022 C   0  0  0  0  0  0  0  0  0  0  0  0
    5.8662    2.5171   -7.1100 C   0  0  0  0  0  0  0  0  0  0  0  0
    6.3628    1.7898   -6.0220 C   0  0  0  0  0  0  0  0  0  0  0  0
    6.5527    0.2749   -1.6018 N   0  0  0  0  0  0  0  0  0  0  0  0
    6.1878   -0.1082   -0.2858 C   0  0  0  0  0  0  0  0  0  0  0  0
    5.1097    0.4435    0.4088 C   0  0  0  0  0  0  0  0  0  0  0  0
    4.8022    0.0395    1.7092 C   0  0  0  0  0  0  0  0  0  0  0  0
    5.5582   -0.9473    2.3299 C   0  0  0  0  0  0  0  0  0  0  0  0
    6.6242   -1.5463    1.6489 C   0  0  0  0  0  0  0  0  0  0  0  0
    7.4204   -2.6557    2.3035 C   0  0  0  0  0  0  0  0  0  0  0  0
    8.7963   -2.2191    2.4392 N   0  0  0  0  0  0  0  0  0  0  0  0
    9.6965   -3.1323    2.9773 C   0  0  0  0  0  0  0  0  0  0  0  0
    9.4760   -4.4663    2.8870 N   0  0  0  0  0  0  0  0  0  0  0  0
   10.4045   -5.3124    3.3802 C   0  0  0  0  0  0  0  0  0  0  0  0
   11.5709   -5.0113    3.9773 N   0  0  0  0  0  0  0  0  0  0  0  0
   11.7603   -3.6819    4.0468 C   0  0  0  0  0  0  0  0  0  0  0  0
   10.8844   -2.7133    3.5905 C   0  0  0  0  0  0  0  0  0  0  0  0
   11.5125   -1.4932    3.9051 C   0  0  0  0  0  0  0  0  0  0  0  0
   12.6956   -1.6556    4.5021 N   0  0  0  0  0  0  0  0  0  0  0  0
   12.8440   -3.0049    4.5533 N   0  0  0  0  0  0  0  0  0  0  0  0
   14.0594   -3.5384    5.1459 C   0  0  0  0  0  0  0  0  0  0  0  0
   14.5519   -4.8543    4.5482 C   0  0  0  0  0  0  0  0  0  0  0  0
   15.8890   -5.2853    5.1023 C   0  0  0  0  0  0  0  0  0  0  0  0
   15.9545   -6.1098    6.2343 C   0  0  0  0  0  0  0  0  0  0  0  0
   17.1869   -6.5562    6.7139 C   0  0  0  0  0  0  0  0  0  0  0  0
   18.3643   -6.1750    6.0738 C   0  0  0  0  0  0  0  0  0  0  0  0
   18.3114   -5.3354    4.9626 C   0  0  0  0  0  0  0  0  0  0  0  0
   17.0799   -4.8877    4.4807 C   0  0  0  0  0  0  0  0  0  0  0  0
    6.9383   -1.1105    0.3438 C   0  0  0  0  0  0  0  0  0  0  0  0
    7.0583    0.5295   -3.9326 H   0  0  0  0  0  0  0  0  0  0  0  0
    4.8243    3.5274   -3.5297 H   0  0  0  0  0  0  0  0  0  0  0  0
    3.9573    4.7684   -5.4301 H   0  0  0  0  0  0  0  0  0  0  0  0
    4.5910    4.1365   -7.7462 H   0  0  0  0  0  0  0  0  0  0  0  0
    6.1504    2.2431   -8.1229 H   0  0  0  0  0  0  0  0  0  0  0  0
    7.0306    0.9560   -6.2179 H   0  0  0  0  0  0  0  0  0  0  0  0
    7.3711   -0.1698   -1.9864 H   0  0  0  0  0  0  0  0  0  0  0  0
    4.4697    1.2037   -0.0287 H   0  0  0  0  0  0  0  0  0  0  0  0
    3.9633    0.4996    2.2260 H   0  0  0  0  0  0  0  0  0  0  0  0
    5.3023   -1.2468    3.3433 H   0  0  0  0  0  0  0  0  0  0  0  0
    7.3293   -3.5565    1.6845 H   0  0  0  0  0  0  0  0  0  0  0  0
    7.0010   -2.8838    3.2920 H   0  0  0  0  0  0  0  0  0  0  0  0
    8.8887   -1.2882    2.8282 H   0  0  0  0  0  0  0  0  0  0  0  0
   10.1836   -6.3715    3.2764 H   0  0  0  0  0  0  0  0  0  0  0  0
   11.1498   -0.4897    3.7267 H   0  0  0  0  0  0  0  0  0  0  0  0
   13.8684   -3.6323    6.2211 H   0  0  0  0  0  0  0  0  0  0  0  0
   14.8317   -2.7684    5.0156 H   0  0  0  0  0  0  0  0  0  0  0  0
   14.6224   -4.7740    3.4558 H   0  0  0  0  0  0  0  0  0  0  0  0
   13.8351   -5.6593    4.7443 H   0  0  0  0  0  0  0  0  0  0  0  0
   15.0443   -6.4272    6.7388 H   0  0  0  0  0  0  0  0  0  0  0  0
   17.2278   -7.2112    7.5805 H   0  0  0  0  0  0  0  0  0  0  0  0
   19.3228   -6.5349    6.4387 H   0  0  0  0  0  0  0  0  0  0  0  0
   19.2301   -5.0376    4.4639 H   0  0  0  0  0  0  0  0  0  0  0  0
   17.0569   -4.2415    3.6060 H   0  0  0  0  0  0  0  0  0  0  0  0
    7.7799   -1.5720   -0.1677 H   0  0  0  0  0  0  0  0  0  0  0  0
  1  2  2  0  0  0  0
  2  3  1  0  0  0  0
  2 10  1  0  0  0  0
  3  4  1  0  0  0  0
  3 36  1  0  0  0  0
  4  5  1  0  0  0  0
  4  9  2  0  0  0  0
  5  6  2  0  0  0  0
  5 37  1  0  0  0  0
  6  7  1  0  0  0  0
  6 38  1  0  0  0  0
  7  8  2  0  0  0  0
  7 39  1  0  0  0  0
  8  9  1  0  0  0  0
  8 40  1  0  0  0  0
  9 41  1  0  0  0  0
 10 11  1  0  0  0  0
 10 42  1  0  0  0  0
 11 12  1  0  0  0  0
 11 35  2  0  0  0  0
 12 13  2  0  0  0  0
 12 43  1  0  0  0  0
 13 14  1  0  0  0  0
 13 44  1  0  0  0  0
 14 15  2  0  0  0  0
 14 45  1  0  0  0  0
 15 16  1  0  0  0  0
 15 35  1  0  0  0  0
 16 17  1  0  0  0  0
 16 46  1  0  0  0  0
 16 47  1  0  0  0  0
 17 18  1  0  0  0  0
 17 48  1  0  0  0  0
 18 19  1  0  0  0  0
 18 23  2  0  0  0  0
 19 20  2  0  0  0  0
 20 21  1  0  0  0  0
 20 49  1  0  0  0  0
 21 22  2  0  0  0  0
 22 23  1  0  0  0  0
 22 26  1  0  0  0  0
 23 24  1  0  0  0  0
 24 25  2  0  0  0  0
 24 50  1  0  0  0  0
 25 26  1  0  0  0  0
 26 27  1  0  0  0  0
 27 28  1  0  0  0  0
 27 51  1  0  0  0  0
 27 52  1  0  0  0  0
 28 29  1  0  0  0  0
 28 53  1  0  0  0  0
 28 54  1  0  0  0  0
 29 30  1  0  0  0  0
 29 34  2  0  0  0  0
 30 31  2  0  0  0  0
 30 55  1  0  0  0  0
 31 32  1  0  0  0  0
 31 56  1  0  0  0  0
 32 33  2  0  0  0  0
 32 57  1  0  0  0  0
 33 34  1  0  0  0  0
 33 58  1  0  0  0  0
 34 59  1  0  0  0  0
 35 60  1  0  0  0  0
M  END
$$$$
