CHEMBL151067
 OpenBabel04072215363D

 43 46  0  0  0  0  0  0  0  0999 V2000
    3.4123    0.2775    1.1169 C   0  0  0  0  0  0  0  0  0  0  0  0
    2.6123    0.5815   -0.0317 O   0  0  0  0  0  0  0  0  0  0  0  0
    3.2510    0.4771   -1.2394 C   0  0  0  0  0  0  0  0  0  0  0  0
    4.2862   -0.4371   -1.4643 C   0  0  0  0  0  0  0  0  0  0  0  0
    5.0014   -0.4448   -2.6891 C   0  0  0  0  0  0  0  0  0  0  0  0
    6.0268   -1.3359   -3.0265 C   0  0  0  0  0  0  0  0  0  0  0  0
    6.3760   -2.3884   -2.1423 N   0  0  0  0  0  0  0  0  0  0  0  0
    7.1369   -3.5131   -2.5419 C   0  0  0  0  0  0  0  0  0  0  0  0
    6.8488   -4.1815   -3.7406 C   0  0  0  0  0  0  0  0  0  0  0  0
    7.6630   -5.2183   -4.1921 C   0  0  0  0  0  0  0  0  0  0  0  0
    8.7615   -5.6125   -3.4306 C   0  0  0  0  0  0  0  0  0  0  0  0
    9.8011   -6.8483   -4.0203 Cl  0  0  0  0  0  0  0  0  0  0  0  0
    9.0298   -5.0045   -2.2058 C   0  0  0  0  0  0  0  0  0  0  0  0
    8.2107   -3.9667   -1.7702 C   0  0  0  0  0  0  0  0  0  0  0  0
    8.4851   -3.3632   -0.6024 F   0  0  0  0  0  0  0  0  0  0  0  0
    6.6780   -1.2556   -4.2070 N   0  0  0  0  0  0  0  0  0  0  0  0
    6.2954   -0.3011   -5.0518 C   0  0  0  0  0  0  0  0  0  0  0  0
    5.3088    0.5703   -4.8461 N   0  0  0  0  0  0  0  0  0  0  0  0
    4.6735    0.4798   -3.6791 C   0  0  0  0  0  0  0  0  0  0  0  0
    3.5992    1.3214   -3.4710 C   0  0  0  0  0  0  0  0  0  0  0  0
    2.8285    1.2938   -2.2982 C   0  0  0  0  0  0  0  0  0  0  0  0
    1.6628    2.0265   -2.1587 O   0  0  0  0  0  0  0  0  0  0  0  0
    1.1034    2.4534   -3.4170 C   0  0  0  0  0  0  0  0  0  0  0  0
   -0.3305    2.8957   -3.3891 C   0  0  0  0  0  0  0  0  0  0  0  0
   -1.3035    2.5996   -2.3861 C   0  0  0  0  0  0  0  0  0  0  0  0
   -2.5596    3.0712   -2.7040 C   0  0  0  0  0  0  0  0  0  0  0  0
   -2.5742    3.8978   -4.1966 S   0  0  0  0  0  0  0  0  0  0  0  0
   -0.9064    3.6135   -4.4249 C   0  0  0  0  0  0  0  0  0  0  0  0
    3.1586    0.9859    1.9112 H   0  0  0  0  0  0  0  0  0  0  0  0
    4.4922    0.3713    0.9475 H   0  0  0  0  0  0  0  0  0  0  0  0
    3.1777   -0.7330    1.4661 H   0  0  0  0  0  0  0  0  0  0  0  0
    4.5393   -1.1681   -0.7015 H   0  0  0  0  0  0  0  0  0  0  0  0
    6.6930   -2.0155   -1.2500 H   0  0  0  0  0  0  0  0  0  0  0  0
    6.0031   -3.8685   -4.3488 H   0  0  0  0  0  0  0  0  0  0  0  0
    7.4456   -5.6926   -5.1449 H   0  0  0  0  0  0  0  0  0  0  0  0
    9.8759   -5.3094   -1.6014 H   0  0  0  0  0  0  0  0  0  0  0  0
    6.8258   -0.2355   -5.9954 H   0  0  0  0  0  0  0  0  0  0  0  0
    3.3688    1.9995   -4.2875 H   0  0  0  0  0  0  0  0  0  0  0  0
    1.1355    1.6241   -4.1386 H   0  0  0  0  0  0  0  0  0  0  0  0
    1.7026    3.2946   -3.7892 H   0  0  0  0  0  0  0  0  0  0  0  0
   -1.0946    2.0317   -1.4838 H   0  0  0  0  0  0  0  0  0  0  0  0
   -3.4711    2.9650   -2.1353 H   0  0  0  0  0  0  0  0  0  0  0  0
   -0.4246    3.9664   -5.3268 H   0  0  0  0  0  0  0  0  0  0  0  0
  1  2  1  0  0  0  0
  1 29  1  0  0  0  0
  1 30  1  0  0  0  0
  1 31  1  0  0  0  0
  2  3  1  0  0  0  0
  3  4  1  0  0  0  0
  3 21  2  0  0  0  0
  4  5  2  0  0  0  0
  4 32  1  0  0  0  0
  5  6  1  0  0  0  0
  5 19  1  0  0  0  0
  6  7  1  0  0  0  0
  6 16  2  0  0  0  0
  7  8  1  0  0  0  0
  7 33  1  0  0  0  0
  8  9  1  0  0  0  0
  8 14  2  0  0  0  0
  9 10  2  0  0  0  0
  9 34  1  0  0  0  0
 10 11  1  0  0  0  0
 10 35  1  0  0  0  0
 11 12  1  0  0  0  0
 11 13  2  0  0  0  0
 13 14  1  0  0  0  0
 13 36  1  0  0  0  0
 14 15  1  0  0  0  0
 16 17  1  0  0  0  0
 17 18  2  0  0  0  0
 17 37  1  0  0  0  0
 18 19  1  0  0  0  0
 19 20  2  0  0  0  0
 20 21  1  0  0  0  0
 20 38  1  0  0  0  0
 21 22  1  0  0  0  0
 22 23  1  0  0  0  0
 23 24  1  0  0  0  0
 23 39  1  0  0  0  0
 23 40  1  0  0  0  0
 24 25  1  0  0  0  0
 24 28  2  0  0  0  0
 25 26  2  0  0  0  0
 25 41  1  0  0  0  0
 26 27  1  0  0  0  0
 26 42  1  0  0  0  0
 27 28  1  0  0  0  0
 28 43  1  0  0  0  0
M  END
$$$$
