CHEMBL241466
 OpenBabel04072215363D

 50 53  0  0  0  0  0  0  0  0999 V2000
    2.1110    0.0728   -0.0006 C   0  0  0  0  0  0  0  0  0  0  0  0
    0.6727   -0.0519    0.0148 N   0  0  0  0  0  0  0  0  0  0  0  0
   -0.2057    0.9924   -0.0333 C   0  0  0  0  0  0  0  0  0  0  0  0
   -1.4469    0.5725   -0.1189 N   0  0  0  0  0  0  0  0  0  0  0  0
   -1.3607   -0.7848   -0.0793 C   0  0  0  0  0  0  0  0  0  0  0  0
   -2.4510   -1.5667   -0.1082 N   0  0  0  0  0  0  0  0  0  0  0  0
   -3.7191   -1.0519   -0.5992 C   0  0  0  0  0  0  0  0  0  0  0  0
   -4.8069   -2.1220   -0.4770 C   0  0  0  0  0  0  0  0  0  0  0  0
   -6.1042   -1.6951   -1.1177 C   0  0  0  0  0  0  0  0  0  0  0  0
   -7.0641   -0.9797   -0.3673 C   0  0  0  0  0  0  0  0  0  0  0  0
   -8.2719   -0.5755   -0.9448 C   0  0  0  0  0  0  0  0  0  0  0  0
   -8.4905   -0.8970   -2.2663 C   0  0  0  0  0  0  0  0  0  0  0  0
   -7.5582   -1.5827   -3.0075 C   0  0  0  0  0  0  0  0  0  0  0  0
   -6.3563   -1.9898   -2.4677 C   0  0  0  0  0  0  0  0  0  0  0  0
   -7.9681   -1.7986   -4.2862 O   0  0  0  0  0  0  0  0  0  0  0  0
   -9.2817   -1.2021   -4.2526 C   0  0  0  0  0  0  0  0  0  0  0  0
   -9.6056   -0.5967   -2.9840 O   0  0  0  0  0  0  0  0  0  0  0  0
   -0.0542   -1.2226   -0.0274 C   0  0  0  0  0  0  0  0  0  0  0  0
    0.4970   -2.5554   -0.0390 C   0  0  0  0  0  0  0  0  0  0  0  0
    1.5871   -2.8040    0.4709 O   0  0  0  0  0  0  0  0  0  0  0  0
   -0.2740   -3.4703   -0.7400 N   0  0  0  0  0  0  0  0  0  0  0  0
   -0.0112   -4.8469   -0.8921 C   0  0  0  0  0  0  0  0  0  0  0  0
    0.8640   -5.5452   -0.0637 C   0  0  0  0  0  0  0  0  0  0  0  0
    1.1434   -6.8946   -0.2940 C   0  0  0  0  0  0  0  0  0  0  0  0
    0.5434   -7.5754   -1.3597 C   0  0  0  0  0  0  0  0  0  0  0  0
    0.9030   -9.0113   -1.6561 C   0  0  0  0  0  0  0  0  0  0  0  0
    1.8340   -9.5271   -0.8051 F   0  0  0  0  0  0  0  0  0  0  0  0
   -0.1706   -9.8463   -1.5850 F   0  0  0  0  0  0  0  0  0  0  0  0
    1.4178   -9.1692   -2.9074 F   0  0  0  0  0  0  0  0  0  0  0  0
   -0.3808   -6.8878   -2.1597 C   0  0  0  0  0  0  0  0  0  0  0  0
   -0.6661   -5.5359   -1.9204 C   0  0  0  0  0  0  0  0  0  0  0  0
    2.3836    1.1296   -0.0730 H   0  0  0  0  0  0  0  0  0  0  0  0
    2.4975   -0.4589   -0.8753 H   0  0  0  0  0  0  0  0  0  0  0  0
    2.5122   -0.3472    0.9231 H   0  0  0  0  0  0  0  0  0  0  0  0
    0.1076    2.0286   -0.0160 H   0  0  0  0  0  0  0  0  0  0  0  0
   -2.4432   -2.5043    0.2798 H   0  0  0  0  0  0  0  0  0  0  0  0
   -3.5938   -0.7750   -1.6536 H   0  0  0  0  0  0  0  0  0  0  0  0
   -4.0176   -0.1498   -0.0515 H   0  0  0  0  0  0  0  0  0  0  0  0
   -4.9793   -2.3630    0.5802 H   0  0  0  0  0  0  0  0  0  0  0  0
   -4.4686   -3.0600   -0.9375 H   0  0  0  0  0  0  0  0  0  0  0  0
   -6.8711   -0.7377    0.6765 H   0  0  0  0  0  0  0  0  0  0  0  0
   -9.0138   -0.0307   -0.3725 H   0  0  0  0  0  0  0  0  0  0  0  0
   -5.6384   -2.5268   -3.0785 H   0  0  0  0  0  0  0  0  0  0  0  0
  -10.0238   -1.9799   -4.4682 H   0  0  0  0  0  0  0  0  0  0  0  0
   -9.3401   -0.4353   -5.0334 H   0  0  0  0  0  0  0  0  0  0  0  0
   -1.0180   -3.0701   -1.3025 H   0  0  0  0  0  0  0  0  0  0  0  0
    1.3478   -5.0647    0.7823 H   0  0  0  0  0  0  0  0  0  0  0  0
    1.8472   -7.4036    0.3622 H   0  0  0  0  0  0  0  0  0  0  0  0
   -0.8715   -7.3981   -2.9873 H   0  0  0  0  0  0  0  0  0  0  0  0
   -1.3721   -5.0277   -2.5735 H   0  0  0  0  0  0  0  0  0  0  0  0
  1  2  1  0  0  0  0
  1 32  1  0  0  0  0
  1 33  1  0  0  0  0
  1 34  1  0  0  0  0
  2  3  1  0  0  0  0
  2 18  1  0  0  0  0
  3  4  2  0  0  0  0
  3 35  1  0  0  0  0
  4  5  1  0  0  0  0
  5  6  1  0  0  0  0
  5 18  2  0  0  0  0
  6  7  1  0  0  0  0
  6 36  1  0  0  0  0
  7  8  1  0  0  0  0
  7 37  1  0  0  0  0
  7 38  1  0  0  0  0
  8  9  1  0  0  0  0
  8 39  1  0  0  0  0
  8 40  1  0  0  0  0
  9 10  1  0  0  0  0
  9 14  2  0  0  0  0
 10 11  2  0  0  0  0
 10 41  1  0  0  0  0
 11 12  1  0  0  0  0
 11 42  1  0  0  0  0
 12 13  2  0  0  0  0
 12 17  1  0  0  0  0
 13 14  1  0  0  0  0
 13 15  1  0  0  0  0
 14 43  1  0  0  0  0
 15 16  1  0  0  0  0
 16 17  1  0  0  0  0
 16 44  1  0  0  0  0
 16 45  1  0  0  0  0
 18 19  1  0  0  0  0
 19 20  2  0  0  0  0
 19 21  1  0  0  0  0
 21 22  1  0  0  0  0
 21 46  1  0  0  0  0
 22 23  1  0  0  0  0
 22 31  2  0  0  0  0
 23 24  2  0  0  0  0
 23 47  1  0  0  0  0
 24 25  1  0  0  0  0
 24 48  1  0  0  0  0
 25 26  1  0  0  0  0
 25 30  2  0  0  0  0
 26 27  1  0  0  0  0
 26 28  1  0  0  0  0
 26 29  1  0  0  0  0
 30 31  1  0  0  0  0
 30 49  1  0  0  0  0
 31 50  1  0  0  0  0
M  END
$$$$
