CHEMBL3958481
 OpenBabel04072215373D

 53 57  0  0  1  0  0  0  0  0999 V2000
    3.7092    1.2895   -0.5151 C   0  0  0  0  0  0  0  0  0  0  0  0
    2.8448    0.1540   -0.5532 O   0  0  0  0  0  0  0  0  0  0  0  0
    3.3376   -1.0034   -0.0195 C   0  0  0  0  0  0  0  0  0  0  0  0
    4.4332   -1.0095    0.8481 C   0  0  0  0  0  0  0  0  0  0  0  0
    5.0093   -2.2020    1.3346 C   0  0  0  0  0  0  0  0  0  0  0  0
    6.1032   -2.2309    2.2238 C   0  0  0  0  0  0  0  0  0  0  0  0
    6.5574   -0.9882    2.7543 N   0  0  0  0  0  0  0  0  0  0  0  0
    7.7217   -0.6790    3.4990 C   0  0  0  0  0  0  0  0  0  0  0  0
    8.8914   -1.4317    3.3717 C   0  0  0  0  0  0  0  0  0  0  0  0
   10.0361   -1.1055    4.0994 C   0  0  0  0  0  0  0  0  0  0  0  0
   10.0439    0.0047    4.9452 C   0  0  0  0  0  0  0  0  0  0  0  0
   11.4919    0.3002    5.8440 Cl  0  0  0  0  0  0  0  0  0  0  0  0
    8.9144    0.8269    5.0377 C   0  0  0  0  0  0  0  0  0  0  0  0
    8.9401    2.2404    6.0482 Cl  0  0  0  0  0  0  0  0  0  0  0  0
    7.7642    0.4907    4.3001 C   0  0  0  0  0  0  0  0  0  0  0  0
    6.3430    1.5032    4.3478 Cl  0  0  0  0  0  0  0  0  0  0  0  0
    6.6965   -3.3809    2.5705 N   0  0  0  0  0  0  0  0  0  0  0  0
    6.1612   -4.4973    2.0683 C   0  0  0  0  0  0  0  0  0  0  0  0
    5.0828   -4.5824    1.2734 N   0  0  0  0  0  0  0  0  0  0  0  0
    4.5078   -3.4291    0.9123 C   0  0  0  0  0  0  0  0  0  0  0  0
    3.3812   -3.4163    0.0764 C   0  0  0  0  0  0  0  0  0  0  0  0
    2.7634   -2.2267   -0.3661 C   0  0  0  0  0  0  0  0  0  0  0  0
    1.7173   -2.4295   -1.2261 O   0  0  0  0  0  0  0  0  0  0  0  0
    0.5390   -1.6082   -1.1820 C   0  0  2  0  0  0  0  0  0  0  0  0
    0.5311   -0.5497   -2.2759 C   0  0  0  0  0  0  0  0  0  0  0  0
   -0.0676    0.6607   -1.6168 C   0  0  1  0  0  0  0  0  0  0  0  0
   -1.3919    0.9417   -2.0966 O   0  0  0  0  0  0  0  0  0  0  0  0
   -2.0930    1.4722   -0.9626 C   0  0  0  0  0  0  0  0  0  0  0  0
   -1.6477    0.6040    0.2037 C   0  0  2  0  0  0  0  0  0  0  0  0
   -1.8390    1.3057    1.4323 O   0  0  0  0  0  0  0  0  0  0  0  0
   -1.5264    0.5072    2.5677 C   0  0  0  0  0  0  0  0  0  0  0  0
   -0.1781    0.3453   -0.1356 C   0  0  1  0  0  0  0  0  0  0  0  0
    0.1968   -1.0234    0.0809 O   0  0  0  0  0  0  0  0  0  0  0  0
    3.2057    2.1175   -1.0189 H   0  0  0  0  0  0  0  0  0  0  0  0
    4.6445    1.0818   -1.0476 H   0  0  0  0  0  0  0  0  0  0  0  0
    3.9044    1.6149    0.5130 H   0  0  0  0  0  0  0  0  0  0  0  0
    4.9075   -0.0784    1.1359 H   0  0  0  0  0  0  0  0  0  0  0  0
    5.7590   -0.4789    3.1360 H   0  0  0  0  0  0  0  0  0  0  0  0
    8.9259   -2.2888    2.7036 H   0  0  0  0  0  0  0  0  0  0  0  0
   10.9214   -1.7294    3.9988 H   0  0  0  0  0  0  0  0  0  0  0  0
    6.6531   -5.4297    2.3310 H   0  0  0  0  0  0  0  0  0  0  0  0
    2.9784   -4.3718   -0.2538 H   0  0  0  0  0  0  0  0  0  0  0  0
   -0.2823   -2.3019   -1.4038 H   0  0  0  0  0  0  0  0  0  0  0  0
   -0.0435   -0.8857   -3.1468 H   0  0  0  0  0  0  0  0  0  0  0  0
    1.5437   -0.3461   -2.6376 H   0  0  0  0  0  0  0  0  0  0  0  0
    0.5329    1.5597   -1.7917 H   0  0  0  0  0  0  0  0  0  0  0  0
   -3.1734    1.4343   -1.1331 H   0  0  0  0  0  0  0  0  0  0  0  0
   -1.8146    2.5252   -0.8239 H   0  0  0  0  0  0  0  0  0  0  0  0
   -2.2316   -0.3255    0.2121 H   0  0  0  0  0  0  0  0  0  0  0  0
   -1.7404    1.0936    3.4653 H   0  0  0  0  0  0  0  0  0  0  0  0
   -0.4656    0.2425    2.5778 H   0  0  0  0  0  0  0  0  0  0  0  0
   -2.1434   -0.3959    2.5847 H   0  0  0  0  0  0  0  0  0  0  0  0
    0.4961    0.9678    0.4602 H   0  0  0  0  0  0  0  0  0  0  0  0
  1  2  1  0  0  0  0
  1 34  1  0  0  0  0
  1 35  1  0  0  0  0
  1 36  1  0  0  0  0
  2  3  1  0  0  0  0
  3  4  1  0  0  0  0
  3 22  2  0  0  0  0
  4  5  2  0  0  0  0
  4 37  1  0  0  0  0
  5  6  1  0  0  0  0
  5 20  1  0  0  0  0
  6  7  1  0  0  0  0
  6 17  2  0  0  0  0
  7  8  1  0  0  0  0
  7 38  1  0  0  0  0
  8  9  1  0  0  0  0
  8 15  2  0  0  0  0
  9 10  2  0  0  0  0
  9 39  1  0  0  0  0
 10 11  1  0  0  0  0
 10 40  1  0  0  0  0
 11 12  1  0  0  0  0
 11 13  2  0  0  0  0
 13 14  1  0  0  0  0
 13 15  1  0  0  0  0
 15 16  1  0  0  0  0
 17 18  1  0  0  0  0
 18 19  2  0  0  0  0
 18 41  1  0  0  0  0
 19 20  1  0  0  0  0
 20 21  2  0  0  0  0
 21 22  1  0  0  0  0
 21 42  1  0  0  0  0
 22 23  1  0  0  0  0
 23 24  1  0  0  0  0
 24 25  1  0  0  0  0
 24 33  1  0  0  0  0
 24 43  1  6  0  0  0
 25 26  1  0  0  0  0
 25 44  1  0  0  0  0
 25 45  1  0  0  0  0
 26 27  1  0  0  0  0
 26 32  1  0  0  0  0
 26 46  1  6  0  0  0
 27 28  1  0  0  0  0
 28 29  1  0  0  0  0
 28 47  1  0  0  0  0
 28 48  1  0  0  0  0
 29 30  1  0  0  0  0
 29 32  1  0  0  0  0
 29 49  1  1  0  0  0
 30 31  1  0  0  0  0
 31 50  1  0  0  0  0
 31 51  1  0  0  0  0
 31 52  1  0  0  0  0
 32 33  1  0  0  0  0
 32 53  1  1  0  0  0
M  END
$$$$
