CHEMBL1965169
 OpenBabel04072215363D

 27 29  0  0  0  0  0  0  0  0999 V2000
    2.3155   -0.0221   -0.0316 C   0  0  0  0  0  0  0  0  0  0  0  0
    0.8161   -0.0054   -0.0167 C   0  0  0  0  0  0  0  0  0  0  0  0
    0.1059    1.1985   -0.0238 C   0  0  0  0  0  0  0  0  0  0  0  0
   -1.2943    1.1987   -0.0167 C   0  0  0  0  0  0  0  0  0  0  0  0
   -2.0140   -0.0034   -0.0071 C   0  0  0  0  0  0  0  0  0  0  0  0
   -3.4791   -0.0001   -0.0488 C   0  0  0  0  0  0  0  0  0  0  0  0
   -4.3700    0.9458   -0.5463 C   0  0  0  0  0  0  0  0  0  0  0  0
   -5.6731    0.4031   -0.4808 C   0  0  0  0  0  0  0  0  0  0  0  0
   -6.8617    0.8939   -0.9192 N   0  0  0  0  0  0  0  0  0  0  0  0
   -7.8883    0.0319   -0.7298 C   0  0  0  0  0  0  0  0  0  0  0  0
   -9.6020    0.5501   -1.3594 Br  0  0  0  0  0  0  0  0  0  0  0  0
   -7.7479   -1.2156   -0.1227 C   0  0  0  0  0  0  0  0  0  0  0  0
   -6.5729   -1.7152    0.3460 N   0  0  0  0  0  0  0  0  0  0  0  0
   -5.5665   -0.8457    0.1186 C   0  0  0  0  0  0  0  0  0  0  0  0
   -4.2509   -1.0486    0.4192 N   0  0  0  0  0  0  0  0  0  0  0  0
   -1.2927   -1.2070   -0.0041 C   0  0  0  0  0  0  0  0  0  0  0  0
    0.1055   -1.2082   -0.0080 C   0  0  0  0  0  0  0  0  0  0  0  0
    2.7291    0.9914   -0.0181 H   0  0  0  0  0  0  0  0  0  0  0  0
    2.6784   -0.5220   -0.9354 H   0  0  0  0  0  0  0  0  0  0  0  0
    2.6941   -0.5510    0.8490 H   0  0  0  0  0  0  0  0  0  0  0  0
    0.6338    2.1493   -0.0395 H   0  0  0  0  0  0  0  0  0  0  0  0
   -1.8123    2.1539   -0.0251 H   0  0  0  0  0  0  0  0  0  0  0  0
   -4.1090    1.9002   -0.9824 H   0  0  0  0  0  0  0  0  0  0  0  0
   -8.5999   -1.8772    0.0011 H   0  0  0  0  0  0  0  0  0  0  0  0
   -3.9069   -1.8803    0.8746 H   0  0  0  0  0  0  0  0  0  0  0  0
   -1.8021   -2.1669   -0.0320 H   0  0  0  0  0  0  0  0  0  0  0  0
    0.6365   -2.1578   -0.0171 H   0  0  0  0  0  0  0  0  0  0  0  0
  1  2  1  0  0  0  0
  1 18  1  0  0  0  0
  1 19  1  0  0  0  0
  1 20  1  0  0  0  0
  2  3  1  0  0  0  0
  2 17  2  0  0  0  0
  3  4  2  0  0  0  0
  3 21  1  0  0  0  0
  4  5  1  0  0  0  0
  4 22  1  0  0  0  0
  5  6  1  0  0  0  0
  5 16  2  0  0  0  0
  6  7  2  0  0  0  0
  6 15  1  0  0  0  0
  7  8  1  0  0  0  0
  7 23  1  0  0  0  0
  8  9  1  0  0  0  0
  8 14  2  0  0  0  0
  9 10  2  0  0  0  0
 10 11  1  0  0  0  0
 10 12  1  0  0  0  0
 12 13  2  0  0  0  0
 12 24  1  0  0  0  0
 13 14  1  0  0  0  0
 14 15  1  0  0  0  0
 15 25  1  0  0  0  0
 16 17  1  0  0  0  0
 16 26  1  0  0  0  0
 17 27  1  0  0  0  0
M  END
$$$$
