CHEMBL420528
 OpenBabel04072215383D

 49 53  0  0  1  0  0  0  0  0999 V2000
    2.7268    0.0574    1.2526 O   0  0  0  0  0  0  0  0  0  0  0  0
    2.7113   -0.1365   -0.1802 S   0  0  0  0  0  0  0  0  0  0  0  0
    1.5153    0.0326   -0.9710 O   0  0  0  0  0  0  0  0  0  0  0  0
    3.8469    0.9154   -0.8644 N   0  0  0  0  0  0  0  0  0  0  0  0
    4.8627    1.5363    0.0187 C   0  0  3  0  0  0  0  0  0  0  0  0
    5.7688    2.4327   -0.8156 C   0  0  0  0  0  0  0  0  0  0  0  0
    6.9177    1.5291   -1.2133 C   0  0  0  0  0  0  0  0  0  0  0  0
    7.1438    0.6618   -0.0574 N   0  0  0  0  0  0  0  0  0  0  0  0
    5.8490    0.5351    0.6415 C   0  0  0  0  0  0  0  0  0  0  0  0
    3.3254   -1.7554   -0.5330 C   0  0  0  0  0  0  0  0  0  0  0  0
    2.6951   -2.8669    0.0360 C   0  0  0  0  0  0  0  0  0  0  0  0
    3.0595   -4.1656   -0.3469 C   0  0  0  0  0  0  0  0  0  0  0  0
    4.0630   -4.2884   -1.3162 C   0  0  0  0  0  0  0  0  0  0  0  0
    4.5582   -5.3931   -1.9735 N   0  0  0  0  0  0  0  0  0  0  0  0
    5.5007   -5.0227   -2.9118 C   0  0  0  0  0  0  0  0  0  0  0  0
    6.0725   -5.9265   -3.9080 C   0  0  0  0  0  0  0  0  0  0  0  0
    7.0331   -5.4442   -4.7982 C   0  0  0  0  0  0  0  0  0  0  0  0
    7.4705   -6.2268   -5.8641 C   0  0  0  0  0  0  0  0  0  0  0  0
    8.3768   -5.7095   -6.8018 C   0  0  0  0  0  0  0  0  0  0  0  0
    8.7594   -6.4777   -7.8942 C   0  0  0  0  0  0  0  0  0  0  0  0
    8.2489   -7.7634   -8.0369 C   0  0  0  0  0  0  0  0  0  0  0  0
    7.3599   -8.2783   -7.0842 C   0  0  0  0  0  0  0  0  0  0  0  0
    6.9487   -7.5308   -5.9908 C   0  0  0  0  0  0  0  0  0  0  0  0
    6.0668   -8.0451   -5.1116 N   0  0  0  0  0  0  0  0  0  0  0  0
    5.6561   -7.2360   -4.1165 C   0  0  0  0  0  0  0  0  0  0  0  0
    4.7250   -7.8304   -3.3198 O   0  0  0  0  0  0  0  0  0  0  0  0
    5.6728   -3.6594   -2.7753 C   0  0  0  0  0  0  0  0  0  0  0  0
    4.7365   -3.1882   -1.8351 C   0  0  0  0  0  0  0  0  0  0  0  0
    4.3774   -1.8998   -1.4358 C   0  0  0  0  0  0  0  0  0  0  0  0
    3.3744    1.5343   -1.5251 H   0  0  0  0  0  0  0  0  0  0  0  0
    4.3471    2.1358    0.7725 H   0  0  0  0  0  0  0  0  0  0  0  0
    6.1470    3.2493   -0.1876 H   0  0  0  0  0  0  0  0  0  0  0  0
    5.2770    2.8756   -1.6875 H   0  0  0  0  0  0  0  0  0  0  0  0
    7.8179    2.0999   -1.4629 H   0  0  0  0  0  0  0  0  0  0  0  0
    6.6563    0.9189   -2.0850 H   0  0  0  0  0  0  0  0  0  0  0  0
    7.8102    1.1080    0.5735 H   0  0  0  0  0  0  0  0  0  0  0  0
    6.0000    0.7830    1.6986 H   0  0  0  0  0  0  0  0  0  0  0  0
    5.5200   -0.5032    0.6080 H   0  0  0  0  0  0  0  0  0  0  0  0
    1.8888   -2.7294    0.7540 H   0  0  0  0  0  0  0  0  0  0  0  0
    2.5483   -5.0340    0.0568 H   0  0  0  0  0  0  0  0  0  0  0  0
    4.2086   -6.3381   -1.8716 H   0  0  0  0  0  0  0  0  0  0  0  0
    7.4193   -4.4337   -4.6956 H   0  0  0  0  0  0  0  0  0  0  0  0
    8.7708   -4.7010   -6.6946 H   0  0  0  0  0  0  0  0  0  0  0  0
    9.4452   -6.0702   -8.6318 H   0  0  0  0  0  0  0  0  0  0  0  0
    8.5338   -8.3679   -8.8922 H   0  0  0  0  0  0  0  0  0  0  0  0
    6.9674   -9.2833   -7.2106 H   0  0  0  0  0  0  0  0  0  0  0  0
    4.6653   -8.6922   -3.7714 H   0  0  0  0  0  0  0  0  0  0  0  0
    6.3239   -3.0299   -3.3665 H   0  0  0  0  0  0  0  0  0  0  0  0
    4.8876   -1.0503   -1.8743 H   0  0  0  0  0  0  0  0  0  0  0  0
  1  2  2  0  0  0  0
  2  3  2  0  0  0  0
  2  4  1  0  0  0  0
  2 10  1  0  0  0  0
  4  5  1  0  0  0  0
  4 30  1  0  0  0  0
  5  6  1  0  0  0  0
  5  9  1  0  0  0  0
  5 31  1  0  0  0  0
  6  7  1  0  0  0  0
  6 32  1  0  0  0  0
  6 33  1  0  0  0  0
  7  8  1  0  0  0  0
  7 34  1  0  0  0  0
  7 35  1  0  0  0  0
  8  9  1  0  0  0  0
  8 36  1  0  0  0  0
  9 37  1  0  0  0  0
  9 38  1  0  0  0  0
 10 11  1  0  0  0  0
 10 29  2  0  0  0  0
 11 12  2  0  0  0  0
 11 39  1  0  0  0  0
 12 13  1  0  0  0  0
 12 40  1  0  0  0  0
 13 14  1  0  0  0  0
 13 28  2  0  0  0  0
 14 15  1  0  0  0  0
 14 41  1  0  0  0  0
 15 16  1  0  0  0  0
 15 27  2  0  0  0  0
 16 17  1  0  0  0  0
 16 25  2  0  0  0  0
 17 18  2  0  0  0  0
 17 42  1  0  0  0  0
 18 19  1  0  0  0  0
 18 23  1  0  0  0  0
 19 20  2  0  0  0  0
 19 43  1  0  0  0  0
 20 21  1  0  0  0  0
 20 44  1  0  0  0  0
 21 22  2  0  0  0  0
 21 45  1  0  0  0  0
 22 23  1  0  0  0  0
 22 46  1  0  0  0  0
 23 24  2  0  0  0  0
 24 25  1  0  0  0  0
 25 26  1  0  0  0  0
 26 47  1  0  0  0  0
 27 28  1  0  0  0  0
 27 48  1  0  0  0  0
 28 29  1  0  0  0  0
 29 49  1  0  0  0  0
M  END
$$$$
