CHEMBL176019
 OpenBabel04072215363D

 48 51  0  0  0  0  0  0  0  0999 V2000
    2.1464   -0.5073   -1.3663 C   0  0  0  0  0  0  0  0  0  0  0  0
    2.8391    0.0561   -0.1315 C   0  0  0  0  0  0  0  0  0  0  0  0
    2.0354    1.1977    0.4949 C   0  0  0  0  0  0  0  0  0  0  0  0
    3.1638   -0.9694    0.8689 N   0  0  0  0  0  0  0  0  0  0  0  0
    2.1582   -1.7677    1.5643 C   0  0  0  0  0  0  0  0  0  0  0  0
    1.9659   -3.1426    0.9456 C   0  0  0  0  0  0  0  0  0  0  0  0
    2.8039   -4.2164    1.2849 C   0  0  0  0  0  0  0  0  0  0  0  0
    2.6606   -5.4599    0.6631 C   0  0  0  0  0  0  0  0  0  0  0  0
    1.6757   -5.6487   -0.3034 C   0  0  0  0  0  0  0  0  0  0  0  0
    0.8153   -4.6039   -0.6278 C   0  0  0  0  0  0  0  0  0  0  0  0
    0.9518   -3.3651    0.0018 C   0  0  0  0  0  0  0  0  0  0  0  0
    4.4981   -1.2499    1.0983 C   0  0  0  0  0  0  0  0  0  0  0  0
    4.8711   -1.7099    2.2861 N   0  0  0  0  0  0  0  0  0  0  0  0
    6.1720   -1.9104    2.4038 C   0  0  0  0  0  0  0  0  0  0  0  0
    6.5663   -2.3058    3.6436 O   0  0  0  0  0  0  0  0  0  0  0  0
    7.1143   -1.7410    1.4978 N   0  0  0  0  0  0  0  0  0  0  0  0
    6.6522   -1.2798    0.3482 C   0  0  0  0  0  0  0  0  0  0  0  0
    7.5796   -1.0807   -0.6747 N   0  0  0  0  0  0  0  0  0  0  0  0
    7.5236   -0.1574   -1.7338 C   0  0  0  0  0  0  0  0  0  0  0  0
    8.2512   -0.4193   -2.8980 C   0  0  0  0  0  0  0  0  0  0  0  0
    8.2299    0.4660   -3.9856 C   0  0  0  0  0  0  0  0  0  0  0  0
    7.4725    1.6515   -3.9111 C   0  0  0  0  0  0  0  0  0  0  0  0
    7.3682    2.6190   -4.8951 N   0  0  0  0  0  0  0  0  0  0  0  0
    6.5817    3.5842   -4.4771 C   0  0  0  0  0  0  0  0  0  0  0  0
    5.9164    3.4046   -2.9107 S   0  0  0  0  0  0  0  0  0  0  0  0
    6.7473    1.9038   -2.7454 C   0  0  0  0  0  0  0  0  0  0  0  0
    6.7577    1.0165   -1.6573 C   0  0  0  0  0  0  0  0  0  0  0  0
    5.3685   -1.0094    0.1239 N   0  0  0  0  0  0  0  0  0  0  0  0
    2.1933    0.2215   -2.1845 H   0  0  0  0  0  0  0  0  0  0  0  0
    1.0880   -0.7074   -1.1833 H   0  0  0  0  0  0  0  0  0  0  0  0
    2.6292   -1.4248   -1.7176 H   0  0  0  0  0  0  0  0  0  0  0  0
    3.7530    0.5361   -0.5027 H   0  0  0  0  0  0  0  0  0  0  0  0
    1.1675    0.8474    1.0595 H   0  0  0  0  0  0  0  0  0  0  0  0
    1.6752    1.8884   -0.2750 H   0  0  0  0  0  0  0  0  0  0  0  0
    2.6680    1.7687    1.1840 H   0  0  0  0  0  0  0  0  0  0  0  0
    1.1895   -1.2557    1.5666 H   0  0  0  0  0  0  0  0  0  0  0  0
    2.4029   -1.8818    2.6292 H   0  0  0  0  0  0  0  0  0  0  0  0
    3.5847   -4.0909    2.0308 H   0  0  0  0  0  0  0  0  0  0  0  0
    3.3272   -6.2778    0.9242 H   0  0  0  0  0  0  0  0  0  0  0  0
    1.5794   -6.6082   -0.8043 H   0  0  0  0  0  0  0  0  0  0  0  0
    0.0432   -4.7479   -1.3789 H   0  0  0  0  0  0  0  0  0  0  0  0
    0.2644   -2.5670   -0.2638 H   0  0  0  0  0  0  0  0  0  0  0  0
    5.7079   -2.2838    4.0975 H   0  0  0  0  0  0  0  0  0  0  0  0
    8.5111   -1.2813   -0.3333 H   0  0  0  0  0  0  0  0  0  0  0  0
    8.8264   -1.3388   -2.9848 H   0  0  0  0  0  0  0  0  0  0  0  0
    8.7900    0.2464   -4.8891 H   0  0  0  0  0  0  0  0  0  0  0  0
    6.3606    4.4514   -5.0849 H   0  0  0  0  0  0  0  0  0  0  0  0
    6.1909    1.2590   -0.7637 H   0  0  0  0  0  0  0  0  0  0  0  0
  1  2  1  0  0  0  0
  1 29  1  0  0  0  0
  1 30  1  0  0  0  0
  1 31  1  0  0  0  0
  2  3  1  0  0  0  0
  2  4  1  0  0  0  0
  2 32  1  0  0  0  0
  3 33  1  0  0  0  0
  3 34  1  0  0  0  0
  3 35  1  0  0  0  0
  4  5  1  0  0  0  0
  4 12  1  0  0  0  0
  5  6  1  0  0  0  0
  5 36  1  0  0  0  0
  5 37  1  0  0  0  0
  6  7  1  0  0  0  0
  6 11  2  0  0  0  0
  7  8  2  0  0  0  0
  7 38  1  0  0  0  0
  8  9  1  0  0  0  0
  8 39  1  0  0  0  0
  9 10  2  0  0  0  0
  9 40  1  0  0  0  0
 10 11  1  0  0  0  0
 10 41  1  0  0  0  0
 11 42  1  0  0  0  0
 12 13  1  0  0  0  0
 12 28  2  0  0  0  0
 13 14  2  0  0  0  0
 14 15  1  0  0  0  0
 14 16  1  0  0  0  0
 15 43  1  0  0  0  0
 16 17  2  0  0  0  0
 17 18  1  0  0  0  0
 17 28  1  0  0  0  0
 18 19  1  0  0  0  0
 18 44  1  0  0  0  0
 19 20  1  0  0  0  0
 19 27  2  0  0  0  0
 20 21  2  0  0  0  0
 20 45  1  0  0  0  0
 21 22  1  0  0  0  0
 21 46  1  0  0  0  0
 22 23  1  0  0  0  0
 22 26  2  0  0  0  0
 23 24  2  0  0  0  0
 24 25  1  0  0  0  0
 24 47  1  0  0  0  0
 25 26  1  0  0  0  0
 26 27  1  0  0  0  0
 27 48  1  0  0  0  0
M  END
$$$$
