CHEMBL4168788
 OpenBabel04072215383D

 47 50  0  0  0  0  0  0  0  0999 V2000
   -1.3798    2.0382   -3.1051 N   0  0  0  0  0  0  0  0  0  0  0  0
   -1.6110    0.9279   -2.3854 C   0  0  0  0  0  0  0  0  0  0  0  0
   -2.1180   -0.1530   -2.9707 N   0  0  0  0  0  0  0  0  0  0  0  0
   -2.2450   -1.0251   -1.9694 N   0  0  0  0  0  0  0  0  0  0  0  0
   -1.8355   -0.5559   -0.7505 C   0  0  0  0  0  0  0  0  0  0  0  0
   -1.8401   -1.1763    0.4993 C   0  0  0  0  0  0  0  0  0  0  0  0
   -1.3546   -0.4503    1.5804 C   0  0  0  0  0  0  0  0  0  0  0  0
   -0.8743    0.8419    1.3952 C   0  0  0  0  0  0  0  0  0  0  0  0
   -0.8775    1.4860    0.1295 C   0  0  0  0  0  0  0  0  0  0  0  0
   -0.4437    2.8885    0.0230 C   0  0  0  0  0  0  0  0  0  0  0  0
    0.3756    3.3791   -1.0008 C   0  0  0  0  0  0  0  0  0  0  0  0
    0.6602    4.7500   -1.1155 C   0  0  0  0  0  0  0  0  0  0  0  0
    0.1852    5.6639   -0.1688 C   0  0  0  0  0  0  0  0  0  0  0  0
    0.4123    7.0349   -0.4140 N   0  0  0  0  0  0  0  0  0  0  0  0
   -0.0884    8.1818    0.1991 C   0  0  0  0  0  0  0  0  0  0  0  0
   -1.1274    8.3037    1.5155 S   0  0  0  0  0  0  0  0  0  0  0  0
    0.3198    9.3068   -0.5375 N   0  0  0  0  0  0  0  0  0  0  0  0
    0.4132   10.6103    0.0187 C   0  0  0  0  0  0  0  0  0  0  0  0
    1.0247   10.7721    1.2728 C   0  0  0  0  0  0  0  0  0  0  0  0
    1.0709   12.0163    1.8881 C   0  0  0  0  0  0  0  0  0  0  0  0
    1.6316   12.3004    3.0955 O   0  0  0  0  0  0  0  0  0  0  0  0
    2.5490   11.3892    3.6871 C   0  0  0  0  0  0  0  0  0  0  0  0
    3.2007   10.6186    2.7903 F   0  0  0  0  0  0  0  0  0  0  0  0
    3.4830   12.1082    4.3509 F   0  0  0  0  0  0  0  0  0  0  0  0
    1.9143   10.5994    4.5777 F   0  0  0  0  0  0  0  0  0  0  0  0
    0.4749   13.1051    1.2451 C   0  0  0  0  0  0  0  0  0  0  0  0
   -0.0847   12.9704   -0.0296 C   0  0  0  0  0  0  0  0  0  0  0  0
   -0.0947   11.7261   -0.6528 C   0  0  0  0  0  0  0  0  0  0  0  0
   -0.8731   11.5784   -2.3790 Br  0  0  0  0  0  0  0  0  0  0  0  0
   -0.5069    5.1585    0.9248 C   0  0  0  0  0  0  0  0  0  0  0  0
   -0.8424    3.8072    1.0044 C   0  0  0  0  0  0  0  0  0  0  0  0
   -1.3775    0.7469   -0.9815 C   0  0  0  0  0  0  0  0  0  0  0  0
   -1.7602    2.0234   -4.0453 H   0  0  0  0  0  0  0  0  0  0  0  0
   -1.4765    2.9418   -2.6568 H   0  0  0  0  0  0  0  0  0  0  0  0
   -2.6324   -1.9389   -2.1724 H   0  0  0  0  0  0  0  0  0  0  0  0
   -2.2207   -2.1835    0.6351 H   0  0  0  0  0  0  0  0  0  0  0  0
   -1.3521   -0.8896    2.5754 H   0  0  0  0  0  0  0  0  0  0  0  0
   -0.4953    1.3701    2.2698 H   0  0  0  0  0  0  0  0  0  0  0  0
    0.7692    2.6989   -1.7542 H   0  0  0  0  0  0  0  0  0  0  0  0
    1.2343    5.0832   -1.9765 H   0  0  0  0  0  0  0  0  0  0  0  0
    1.0388    7.2317   -1.1863 H   0  0  0  0  0  0  0  0  0  0  0  0
   -0.0073    9.2829   -1.4999 H   0  0  0  0  0  0  0  0  0  0  0  0
    1.4431    9.8924    1.7536 H   0  0  0  0  0  0  0  0  0  0  0  0
    0.4547   14.0751    1.7371 H   0  0  0  0  0  0  0  0  0  0  0  0
   -0.5236   13.8402   -0.5123 H   0  0  0  0  0  0  0  0  0  0  0  0
   -0.8168    5.7673    1.7600 H   0  0  0  0  0  0  0  0  0  0  0  0
   -1.4479    3.4936    1.8538 H   0  0  0  0  0  0  0  0  0  0  0  0
  1  2  1  0  0  0  0
  1 33  1  0  0  0  0
  1 34  1  0  0  0  0
  2  3  2  0  0  0  0
  2 32  1  0  0  0  0
  3  4  1  0  0  0  0
  4  5  1  0  0  0  0
  4 35  1  0  0  0  0
  5  6  1  0  0  0  0
  5 32  2  0  0  0  0
  6  7  2  0  0  0  0
  6 36  1  0  0  0  0
  7  8  1  0  0  0  0
  7 37  1  0  0  0  0
  8  9  2  0  0  0  0
  8 38  1  0  0  0  0
  9 10  1  0  0  0  0
  9 32  1  0  0  0  0
 10 11  1  0  0  0  0
 10 31  2  0  0  0  0
 11 12  2  0  0  0  0
 11 39  1  0  0  0  0
 12 13  1  0  0  0  0
 12 40  1  0  0  0  0
 13 14  1  0  0  0  0
 13 30  2  0  0  0  0
 14 15  1  0  0  0  0
 14 41  1  0  0  0  0
 15 16  2  0  0  0  0
 15 17  1  0  0  0  0
 17 18  1  0  0  0  0
 17 42  1  0  0  0  0
 18 19  1  0  0  0  0
 18 28  2  0  0  0  0
 19 20  2  0  0  0  0
 19 43  1  0  0  0  0
 20 21  1  0  0  0  0
 20 26  1  0  0  0  0
 21 22  1  0  0  0  0
 22 23  1  0  0  0  0
 22 24  1  0  0  0  0
 22 25  1  0  0  0  0
 26 27  2  0  0  0  0
 26 44  1  0  0  0  0
 27 28  1  0  0  0  0
 27 45  1  0  0  0  0
 28 29  1  0  0  0  0
 30 31  1  0  0  0  0
 30 46  1  0  0  0  0
 31 47  1  0  0  0  0
M  END
$$$$
