CHEMBL213270
 OpenBabel04072215363D

 79 84  0  0  0  0  0  0  0  0999 V2000
    6.9849   -0.8305   -5.1946 C   0  0  0  0  0  0  0  0  0  0  0  0
    6.6149    0.1228   -4.2033 O   0  0  0  0  0  0  0  0  0  0  0  0
    5.7324   -0.4584   -3.2424 C   0  0  0  0  0  0  0  0  0  0  0  0
    5.5009    0.4747   -2.0556 C   0  0  0  0  0  0  0  0  0  0  0  0
    4.8054    1.7632   -2.2161 N   0  0  0  0  0  0  0  0  0  0  0  0
    3.9365    2.0132   -3.3724 C   0  0  0  0  0  0  0  0  0  0  0  0
    2.4954    1.6607   -3.0750 C   0  0  0  0  0  0  0  0  0  0  0  0
    1.8302    0.4706   -3.2993 C   0  0  0  0  0  0  0  0  0  0  0  0
    0.4646    0.5087   -2.8689 C   0  0  0  0  0  0  0  0  0  0  0  0
    0.0993    1.7311   -2.3408 C   0  0  0  0  0  0  0  0  0  0  0  0
   -1.1722    2.1050   -1.7750 C   0  0  0  0  0  0  0  0  0  0  0  0
   -1.4582    3.3767   -1.3009 N   0  0  0  0  0  0  0  0  0  0  0  0
   -2.7110    3.5390   -0.8033 N   0  0  0  0  0  0  0  0  0  0  0  0
   -3.2211    2.3273   -0.9602 C   0  0  0  0  0  0  0  0  0  0  0  0
   -2.3351    1.4067   -1.5404 C   0  0  0  0  0  0  0  0  0  0  0  0
   -2.9298    0.0443   -1.7006 C   0  0  0  0  0  0  0  0  0  0  0  0
   -4.3241    0.3523   -1.1264 C   0  0  0  0  0  0  0  0  0  0  0  0
   -5.3923   -0.5264   -1.0067 C   0  0  0  0  0  0  0  0  0  0  0  0
   -6.6016   -0.0631   -0.4465 C   0  0  0  0  0  0  0  0  0  0  0  0
   -7.7950   -0.9962   -0.3098 C   0  0  0  0  0  0  0  0  0  0  0  0
   -7.5101   -2.2117    0.4677 N   0  0  0  0  0  0  0  0  0  0  0  0
   -7.1665   -1.9112    1.8702 C   0  0  0  0  0  0  0  0  0  0  0  0
   -6.8745   -3.2025    2.6702 C   0  0  0  0  0  0  0  0  0  0  0  0
   -7.9630   -4.1999    2.6618 N   0  0  0  0  0  0  0  0  0  0  0  0
   -9.0676   -3.7984    3.5282 C   0  0  0  0  0  0  0  0  0  0  0  0
   -8.4069   -4.4217    1.2706 C   0  0  0  0  0  0  0  0  0  0  0  0
   -8.6632   -3.1372    0.4420 C   0  0  0  0  0  0  0  0  0  0  0  0
   -6.7068    1.2859   -0.0211 C   0  0  0  0  0  0  0  0  0  0  0  0
   -5.6345    2.1738   -0.1368 C   0  0  0  0  0  0  0  0  0  0  0  0
   -4.4667    1.6916   -0.6887 C   0  0  0  0  0  0  0  0  0  0  0  0
    1.4103    2.8378   -2.4484 S   0  0  0  0  0  0  0  0  0  0  0  0
    4.9387    2.5924   -1.0970 C   0  0  0  0  0  0  0  0  0  0  0  0
    5.5939    2.2018   -0.1275 O   0  0  0  0  0  0  0  0  0  0  0  0
    4.2990    3.8100   -1.1376 N   0  0  0  0  0  0  0  0  0  0  0  0
    4.3332    4.7543   -0.0779 C   0  0  0  0  0  0  0  0  0  0  0  0
    5.3527    4.7800    0.8807 C   0  0  0  0  0  0  0  0  0  0  0  0
    5.2869    5.6352    1.9779 C   0  0  0  0  0  0  0  0  0  0  0  0
    4.2063    6.4975    2.1234 C   0  0  0  0  0  0  0  0  0  0  0  0
    3.1953    6.5286    1.1541 C   0  0  0  0  0  0  0  0  0  0  0  0
    2.0265    7.4509    1.3151 C   0  0  0  0  0  0  0  0  0  0  0  0
    3.2833    5.6739    0.0407 C   0  0  0  0  0  0  0  0  0  0  0  0
    7.6893   -0.3635   -5.8881 H   0  0  0  0  0  0  0  0  0  0  0  0
    6.1008   -1.1531   -5.7526 H   0  0  0  0  0  0  0  0  0  0  0  0
    7.4737   -1.6975   -4.7366 H   0  0  0  0  0  0  0  0  0  0  0  0
    6.2043   -1.3684   -2.8477 H   0  0  0  0  0  0  0  0  0  0  0  0
    4.7918   -0.7396   -3.7226 H   0  0  0  0  0  0  0  0  0  0  0  0
    6.4952    0.6995   -1.6401 H   0  0  0  0  0  0  0  0  0  0  0  0
    4.9469   -0.0772   -1.2871 H   0  0  0  0  0  0  0  0  0  0  0  0
    4.2938    1.4470   -4.2376 H   0  0  0  0  0  0  0  0  0  0  0  0
    4.0199    3.0690   -3.6570 H   0  0  0  0  0  0  0  0  0  0  0  0
    2.2968   -0.4021   -3.7395 H   0  0  0  0  0  0  0  0  0  0  0  0
   -0.2076   -0.3374   -2.9377 H   0  0  0  0  0  0  0  0  0  0  0  0
   -0.8335    4.1754   -1.2926 H   0  0  0  0  0  0  0  0  0  0  0  0
   -2.4137   -0.7009   -1.0914 H   0  0  0  0  0  0  0  0  0  0  0  0
   -3.0003   -0.2530   -2.7493 H   0  0  0  0  0  0  0  0  0  0  0  0
   -5.3019   -1.5608   -1.3266 H   0  0  0  0  0  0  0  0  0  0  0  0
   -8.0883   -1.2739   -1.3305 H   0  0  0  0  0  0  0  0  0  0  0  0
   -8.6512   -0.4567    0.1199 H   0  0  0  0  0  0  0  0  0  0  0  0
   -7.9742   -1.3468    2.3557 H   0  0  0  0  0  0  0  0  0  0  0  0
   -6.2659   -1.2900    1.9185 H   0  0  0  0  0  0  0  0  0  0  0  0
   -6.6053   -2.9438    3.7018 H   0  0  0  0  0  0  0  0  0  0  0  0
   -5.9799   -3.6779    2.2451 H   0  0  0  0  0  0  0  0  0  0  0  0
   -8.7128   -3.6488    4.5543 H   0  0  0  0  0  0  0  0  0  0  0  0
   -9.8199   -4.5936    3.5754 H   0  0  0  0  0  0  0  0  0  0  0  0
   -9.5636   -2.8788    3.2024 H   0  0  0  0  0  0  0  0  0  0  0  0
   -9.3030   -5.0541    1.2567 H   0  0  0  0  0  0  0  0  0  0  0  0
   -7.6278   -5.0076    0.7635 H   0  0  0  0  0  0  0  0  0  0  0  0
   -9.5661   -2.6382    0.8189 H   0  0  0  0  0  0  0  0  0  0  0  0
   -8.8687   -3.4380   -0.5918 H   0  0  0  0  0  0  0  0  0  0  0  0
   -7.6378    1.6476    0.4146 H   0  0  0  0  0  0  0  0  0  0  0  0
   -5.7128    3.2054    0.1916 H   0  0  0  0  0  0  0  0  0  0  0  0
    3.5192    3.8879   -1.7686 H   0  0  0  0  0  0  0  0  0  0  0  0
    6.2163    4.1268    0.8058 H   0  0  0  0  0  0  0  0  0  0  0  0
    6.0728    5.6054    2.7284 H   0  0  0  0  0  0  0  0  0  0  0  0
    4.1552    7.1356    3.0018 H   0  0  0  0  0  0  0  0  0  0  0  0
    2.0447    7.9508    2.2907 H   0  0  0  0  0  0  0  0  0  0  0  0
    1.0917    6.8844    1.2551 H   0  0  0  0  0  0  0  0  0  0  0  0
    2.0387    8.2199    0.5381 H   0  0  0  0  0  0  0  0  0  0  0  0
    2.4944    5.7034   -0.7084 H   0  0  0  0  0  0  0  0  0  0  0  0
  1  2  1  0  0  0  0
  1 42  1  0  0  0  0
  1 43  1  0  0  0  0
  1 44  1  0  0  0  0
  2  3  1  0  0  0  0
  3  4  1  0  0  0  0
  3 45  1  0  0  0  0
  3 46  1  0  0  0  0
  4  5  1  0  0  0  0
  4 47  1  0  0  0  0
  4 48  1  0  0  0  0
  5  6  1  0  0  0  0
  5 32  1  0  0  0  0
  6  7  1  0  0  0  0
  6 49  1  0  0  0  0
  6 50  1  0  0  0  0
  7  8  2  0  0  0  0
  7 31  1  0  0  0  0
  8  9  1  0  0  0  0
  8 51  1  0  0  0  0
  9 10  2  0  0  0  0
  9 52  1  0  0  0  0
 10 11  1  0  0  0  0
 10 31  1  0  0  0  0
 11 12  1  0  0  0  0
 11 15  2  0  0  0  0
 12 13  1  0  0  0  0
 12 53  1  0  0  0  0
 13 14  2  0  0  0  0
 14 15  1  0  0  0  0
 14 30  1  0  0  0  0
 15 16  1  0  0  0  0
 16 17  1  0  0  0  0
 16 54  1  0  0  0  0
 16 55  1  0  0  0  0
 17 18  1  0  0  0  0
 17 30  2  0  0  0  0
 18 19  2  0  0  0  0
 18 56  1  0  0  0  0
 19 20  1  0  0  0  0
 19 28  1  0  0  0  0
 20 21  1  0  0  0  0
 20 57  1  0  0  0  0
 20 58  1  0  0  0  0
 21 22  1  0  0  0  0
 21 27  1  0  0  0  0
 22 23  1  0  0  0  0
 22 59  1  0  0  0  0
 22 60  1  0  0  0  0
 23 24  1  0  0  0  0
 23 61  1  0  0  0  0
 23 62  1  0  0  0  0
 24 25  1  0  0  0  0
 24 26  1  0  0  0  0
 25 63  1  0  0  0  0
 25 64  1  0  0  0  0
 25 65  1  0  0  0  0
 26 27  1  0  0  0  0
 26 66  1  0  0  0  0
 26 67  1  0  0  0  0
 27 68  1  0  0  0  0
 27 69  1  0  0  0  0
 28 29  2  0  0  0  0
 28 70  1  0  0  0  0
 29 30  1  0  0  0  0
 29 71  1  0  0  0  0
 32 33  2  0  0  0  0
 32 34  1  0  0  0  0
 34 35  1  0  0  0  0
 34 72  1  0  0  0  0
 35 36  1  0  0  0  0
 35 41  2  0  0  0  0
 36 37  2  0  0  0  0
 36 73  1  0  0  0  0
 37 38  1  0  0  0  0
 37 74  1  0  0  0  0
 38 39  2  0  0  0  0
 38 75  1  0  0  0  0
 39 40  1  0  0  0  0
 39 41  1  0  0  0  0
 40 76  1  0  0  0  0
 40 77  1  0  0  0  0
 40 78  1  0  0  0  0
 41 79  1  0  0  0  0
M  END
$$$$
