CHEMBL3628814
 OpenBabel04072215373D

 42 45  0  0  0  0  0  0  0  0999 V2000
    9.1069   -1.0161   -7.7602 C   0  0  0  0  0  0  0  0  0  0  0  0
    8.4020   -1.2175   -6.5397 O   0  0  0  0  0  0  0  0  0  0  0  0
    7.7001   -0.1401   -6.0718 C   0  0  0  0  0  0  0  0  0  0  0  0
    7.5738    1.0857   -6.7195 C   0  0  0  0  0  0  0  0  0  0  0  0
    6.8529    2.1142   -6.1318 C   0  0  0  0  0  0  0  0  0  0  0  0
    6.2656    1.9848   -4.8722 C   0  0  0  0  0  0  0  0  0  0  0  0
    5.5428    3.0194   -4.2754 N   0  0  0  0  0  0  0  0  0  0  0  0
    5.0107    4.2099   -4.7677 C   0  0  0  0  0  0  0  0  0  0  0  0
    4.5422    5.0345   -3.8142 N   0  0  0  0  0  0  0  0  0  0  0  0
    3.7550    6.0488   -4.2029 C   0  0  0  0  0  0  0  0  0  0  0  0
    3.3920    6.2404   -5.5069 C   0  0  0  0  0  0  0  0  0  0  0  0
    4.0384    5.4520   -6.4484 C   0  0  0  0  0  0  0  0  0  0  0  0
    4.8580    4.4403   -6.0903 N   0  0  0  0  0  0  0  0  0  0  0  0
    3.6190    5.5676   -7.8551 C   0  0  0  0  0  0  0  0  0  0  0  0
    4.4976    5.8756   -8.8995 C   0  0  0  0  0  0  0  0  0  0  0  0
    4.0085    6.0864  -10.2022 C   0  0  0  0  0  0  0  0  0  0  0  0
    2.6598    5.8674  -10.4999 C   0  0  0  0  0  0  0  0  0  0  0  0
    2.0724    5.9734  -11.7293 O   0  0  0  0  0  0  0  0  0  0  0  0
    2.7827    6.7005  -12.7216 C   0  0  0  0  0  0  0  0  0  0  0  0
    1.7749    5.5620   -9.4712 C   0  0  0  0  0  0  0  0  0  0  0  0
    2.2389    5.5517   -8.1573 C   0  0  0  0  0  0  0  0  0  0  0  0
    1.0644    5.9897   -6.8478 S   0  0  0  0  0  0  0  0  0  0  0  0
    2.2445    7.0900   -5.9420 C   0  0  0  0  0  0  0  0  0  0  0  0
    6.3529    0.7288   -4.2445 C   0  0  0  0  0  0  0  0  0  0  0  0
    7.0733   -0.3187   -4.8410 C   0  0  0  0  0  0  0  0  0  0  0  0
    9.6473   -1.9367   -7.9955 H   0  0  0  0  0  0  0  0  0  0  0  0
    9.8460   -0.2137   -7.6625 H   0  0  0  0  0  0  0  0  0  0  0  0
    8.4128   -0.8155   -8.5848 H   0  0  0  0  0  0  0  0  0  0  0  0
    8.0173    1.2737   -7.6905 H   0  0  0  0  0  0  0  0  0  0  0  0
    6.7746    3.0609   -6.6752 H   0  0  0  0  0  0  0  0  0  0  0  0
    5.3999    2.9646   -3.2795 H   0  0  0  0  0  0  0  0  0  0  0  0
    3.3621    6.6651   -3.3999 H   0  0  0  0  0  0  0  0  0  0  0  0
    5.5499    6.0501   -8.6893 H   0  0  0  0  0  0  0  0  0  0  0  0
    4.7048    6.4317  -10.9600 H   0  0  0  0  0  0  0  0  0  0  0  0
    2.1614    6.7251  -13.6225 H   0  0  0  0  0  0  0  0  0  0  0  0
    3.7239    6.2080  -12.9817 H   0  0  0  0  0  0  0  0  0  0  0  0
    2.9490    7.7348  -12.4017 H   0  0  0  0  0  0  0  0  0  0  0  0
    0.7146    5.4559   -9.6854 H   0  0  0  0  0  0  0  0  0  0  0  0
    1.7360    7.5571   -5.0970 H   0  0  0  0  0  0  0  0  0  0  0  0
    2.5931    7.8885   -6.6109 H   0  0  0  0  0  0  0  0  0  0  0  0
    5.8614    0.5532   -3.2943 H   0  0  0  0  0  0  0  0  0  0  0  0
    7.1419   -1.2785   -4.3306 H   0  0  0  0  0  0  0  0  0  0  0  0
  1  2  1  0  0  0  0
  1 26  1  0  0  0  0
  1 27  1  0  0  0  0
  1 28  1  0  0  0  0
  2  3  1  0  0  0  0
  3  4  1  0  0  0  0
  3 25  2  0  0  0  0
  4  5  2  0  0  0  0
  4 29  1  0  0  0  0
  5  6  1  0  0  0  0
  5 30  1  0  0  0  0
  6  7  1  0  0  0  0
  6 24  2  0  0  0  0
  7  8  1  0  0  0  0
  7 31  1  0  0  0  0
  8  9  1  0  0  0  0
  8 13  2  0  0  0  0
  9 10  2  0  0  0  0
 10 11  1  0  0  0  0
 10 32  1  0  0  0  0
 11 12  2  0  0  0  0
 11 23  1  0  0  0  0
 12 13  1  0  0  0  0
 12 14  1  0  0  0  0
 14 15  1  0  0  0  0
 14 21  2  0  0  0  0
 15 16  2  0  0  0  0
 15 33  1  0  0  0  0
 16 17  1  0  0  0  0
 16 34  1  0  0  0  0
 17 18  1  0  0  0  0
 17 20  2  0  0  0  0
 18 19  1  0  0  0  0
 19 35  1  0  0  0  0
 19 36  1  0  0  0  0
 19 37  1  0  0  0  0
 20 21  1  0  0  0  0
 20 38  1  0  0  0  0
 21 22  1  0  0  0  0
 22 23  1  0  0  0  0
 23 39  1  0  0  0  0
 23 40  1  0  0  0  0
 24 25  1  0  0  0  0
 24 41  1  0  0  0  0
 25 42  1  0  0  0  0
M  END
$$$$
