CHEMBL4208454
 OpenBabel04072215383D

 75 80  0  0  0  0  0  0  0  0999 V2000
    0.9643   -0.3225    0.4974 C   0  0  0  0  0  0  0  0  0  0  0  0
    2.4299   -0.2460    0.2278 C   0  0  0  0  0  0  0  0  0  0  0  0
    3.2127   -1.3918    0.0894 C   0  0  0  0  0  0  0  0  0  0  0  0
    2.7649   -2.7817    0.1895 C   0  0  0  0  0  0  0  0  0  0  0  0
    1.7602   -3.1210    0.8124 O   0  0  0  0  0  0  0  0  0  0  0  0
    3.4938   -3.7298   -0.4935 N   0  0  0  0  0  0  0  0  0  0  0  0
    3.0323   -5.1096   -0.5506 C   0  0  0  0  0  0  0  0  0  0  0  0
    2.0949   -5.3887   -1.7463 C   0  0  0  0  0  0  0  0  0  0  0  0
    2.6864   -5.0010   -3.0354 N   0  0  0  0  0  0  0  0  0  0  0  0
    3.8445   -5.8339   -3.4216 C   0  0  0  0  0  0  0  0  0  0  0  0
    4.4632   -5.2743   -4.7128 C   0  0  0  0  0  0  0  0  0  0  0  0
    3.5113   -5.2501   -5.7858 O   0  0  0  0  0  0  0  0  0  0  0  0
    2.3455   -4.5015   -5.4108 C   0  0  0  0  0  0  0  0  0  0  0  0
    1.7038   -5.0764   -4.1380 C   0  0  0  0  0  0  0  0  0  0  0  0
    4.8564   -1.0054   -0.1428 S   0  0  0  0  0  0  0  0  0  0  0  0
    4.5493    0.6640   -0.0787 C   0  0  0  0  0  0  0  0  0  0  0  0
    5.5848    1.5237   -0.1534 N   0  0  0  0  0  0  0  0  0  0  0  0
    5.2065    2.7988   -0.1219 C   0  0  0  0  0  0  0  0  0  0  0  0
    3.9537    3.2621   -0.0960 N   0  0  0  0  0  0  0  0  0  0  0  0
    2.9278    2.3760   -0.0489 C   0  0  0  0  0  0  0  0  0  0  0  0
    1.6892    3.0096   -0.0210 O   0  0  0  0  0  0  0  0  0  0  0  0
    0.6413    2.4735   -0.7241 C   0  0  0  0  0  0  0  0  0  0  0  0
    0.7703    1.8497   -1.9675 C   0  0  0  0  0  0  0  0  0  0  0  0
   -0.2988    1.0936   -2.4641 C   0  0  0  0  0  0  0  0  0  0  0  0
   -1.5197    1.0604   -1.7783 C   0  0  0  0  0  0  0  0  0  0  0  0
   -2.5011    0.1622   -2.2182 N   0  0  0  0  0  0  0  0  0  0  0  0
   -3.8548    0.4689   -2.3111 C   0  0  0  0  0  0  0  0  0  0  0  0
   -4.3666    1.5513   -2.0903 O   0  0  0  0  0  0  0  0  0  0  0  0
   -4.6959   -0.6766   -2.7369 C   0  0  0  0  0  0  0  0  0  0  0  0
   -5.3179   -1.3296   -1.5310 C   0  0  0  0  0  0  0  0  0  0  0  0
   -5.0665   -2.4851   -1.2545 O   0  0  0  0  0  0  0  0  0  0  0  0
   -6.1821   -0.4271   -0.9234 N   0  0  0  0  0  0  0  0  0  0  0  0
   -7.1179   -0.6295    0.0961 C   0  0  0  0  0  0  0  0  0  0  0  0
   -7.2498   -1.8234    0.7955 C   0  0  0  0  0  0  0  0  0  0  0  0
   -8.2583   -1.9572    1.7579 C   0  0  0  0  0  0  0  0  0  0  0  0
   -9.1164   -0.8954    2.0214 C   0  0  0  0  0  0  0  0  0  0  0  0
  -10.0848   -1.0314    2.9372 F   0  0  0  0  0  0  0  0  0  0  0  0
   -8.9787    0.3105    1.3474 C   0  0  0  0  0  0  0  0  0  0  0  0
   -7.9822    0.4434    0.3823 C   0  0  0  0  0  0  0  0  0  0  0  0
   -4.5685   -0.7551   -4.2725 C   0  0  0  0  0  0  0  0  0  0  0  0
   -5.9098   -0.8283   -3.7439 C   0  0  0  0  0  0  0  0  0  0  0  0
   -1.6899    1.7966   -0.6082 C   0  0  0  0  0  0  0  0  0  0  0  0
   -0.6055    2.4987   -0.0889 C   0  0  0  0  0  0  0  0  0  0  0  0
   -0.7282    3.0778    1.1155 F   0  0  0  0  0  0  0  0  0  0  0  0
    3.1993    0.9896    0.0316 C   0  0  0  0  0  0  0  0  0  0  0  0
    0.6303   -1.2448    0.9647 H   0  0  0  0  0  0  0  0  0  0  0  0
    0.4386   -0.2967   -0.4520 H   0  0  0  0  0  0  0  0  0  0  0  0
    0.6431    0.4748    1.1675 H   0  0  0  0  0  0  0  0  0  0  0  0
    4.1791   -3.4195   -1.1701 H   0  0  0  0  0  0  0  0  0  0  0  0
    2.4989   -5.3502    0.3760 H   0  0  0  0  0  0  0  0  0  0  0  0
    3.9210   -5.7445   -0.5814 H   0  0  0  0  0  0  0  0  0  0  0  0
    1.1797   -4.8009   -1.5933 H   0  0  0  0  0  0  0  0  0  0  0  0
    1.8001   -6.4454   -1.7438 H   0  0  0  0  0  0  0  0  0  0  0  0
    3.5295   -6.8743   -3.5812 H   0  0  0  0  0  0  0  0  0  0  0  0
    4.6155   -5.8318   -2.6463 H   0  0  0  0  0  0  0  0  0  0  0  0
    5.3024   -5.9031   -5.0255 H   0  0  0  0  0  0  0  0  0  0  0  0
    4.8495   -4.2605   -4.5486 H   0  0  0  0  0  0  0  0  0  0  0  0
    1.6383   -4.5481   -6.2444 H   0  0  0  0  0  0  0  0  0  0  0  0
    2.6213   -3.4491   -5.2665 H   0  0  0  0  0  0  0  0  0  0  0  0
    1.4032   -6.1187   -4.3147 H   0  0  0  0  0  0  0  0  0  0  0  0
    0.8027   -4.5008   -3.9001 H   0  0  0  0  0  0  0  0  0  0  0  0
    5.9970    3.5437   -0.1286 H   0  0  0  0  0  0  0  0  0  0  0  0
    1.7133    1.8650   -2.5078 H   0  0  0  0  0  0  0  0  0  0  0  0
   -0.1584    0.5148   -3.3738 H   0  0  0  0  0  0  0  0  0  0  0  0
   -2.2004   -0.7284   -2.5954 H   0  0  0  0  0  0  0  0  0  0  0  0
   -6.1830    0.5107   -1.3265 H   0  0  0  0  0  0  0  0  0  0  0  0
   -6.5948   -2.6673    0.6071 H   0  0  0  0  0  0  0  0  0  0  0  0
   -8.3809   -2.8885    2.2995 H   0  0  0  0  0  0  0  0  0  0  0  0
   -9.6653    1.1258    1.5515 H   0  0  0  0  0  0  0  0  0  0  0  0
   -7.9037    1.3870   -0.1585 H   0  0  0  0  0  0  0  0  0  0  0  0
   -4.1032   -1.6062   -4.7366 H   0  0  0  0  0  0  0  0  0  0  0  0
   -4.3964    0.1738   -4.8253 H   0  0  0  0  0  0  0  0  0  0  0  0
   -6.3649   -1.8225   -3.8182 H   0  0  0  0  0  0  0  0  0  0  0  0
   -6.6340   -0.0304   -3.7918 H   0  0  0  0  0  0  0  0  0  0  0  0
   -2.6015    1.7360   -0.0204 H   0  0  0  0  0  0  0  0  0  0  0  0
  1  2  1  0  0  0  0
  1 46  1  0  0  0  0
  1 47  1  0  0  0  0
  1 48  1  0  0  0  0
  2  3  2  0  0  0  0
  2 45  1  0  0  0  0
  3  4  1  0  0  0  0
  3 15  1  0  0  0  0
  4  5  2  0  0  0  0
  4  6  1  0  0  0  0
  6  7  1  0  0  0  0
  6 49  1  0  0  0  0
  7  8  1  0  0  0  0
  7 50  1  0  0  0  0
  7 51  1  0  0  0  0
  8  9  1  0  0  0  0
  8 52  1  0  0  0  0
  8 53  1  0  0  0  0
  9 10  1  0  0  0  0
  9 14  1  0  0  0  0
 10 11  1  0  0  0  0
 10 54  1  0  0  0  0
 10 55  1  0  0  0  0
 11 12  1  0  0  0  0
 11 56  1  0  0  0  0
 11 57  1  0  0  0  0
 12 13  1  0  0  0  0
 13 14  1  0  0  0  0
 13 58  1  0  0  0  0
 13 59  1  0  0  0  0
 14 60  1  0  0  0  0
 14 61  1  0  0  0  0
 15 16  1  0  0  0  0
 16 17  1  0  0  0  0
 16 45  2  0  0  0  0
 17 18  2  0  0  0  0
 18 19  1  0  0  0  0
 18 62  1  0  0  0  0
 19 20  2  0  0  0  0
 20 21  1  0  0  0  0
 20 45  1  0  0  0  0
 21 22  1  0  0  0  0
 22 23  1  0  0  0  0
 22 43  2  0  0  0  0
 23 24  2  0  0  0  0
 23 63  1  0  0  0  0
 24 25  1  0  0  0  0
 24 64  1  0  0  0  0
 25 26  1  0  0  0  0
 25 42  2  0  0  0  0
 26 27  1  0  0  0  0
 26 65  1  0  0  0  0
 27 28  2  0  0  0  0
 27 29  1  0  0  0  0
 29 30  1  0  0  0  0
 29 40  1  0  0  0  0
 29 41  1  0  0  0  0
 30 31  2  0  0  0  0
 30 32  1  0  0  0  0
 32 33  1  0  0  0  0
 32 66  1  0  0  0  0
 33 34  1  0  0  0  0
 33 39  2  0  0  0  0
 34 35  2  0  0  0  0
 34 67  1  0  0  0  0
 35 36  1  0  0  0  0
 35 68  1  0  0  0  0
 36 37  1  0  0  0  0
 36 38  2  0  0  0  0
 38 39  1  0  0  0  0
 38 69  1  0  0  0  0
 39 70  1  0  0  0  0
 40 41  1  0  0  0  0
 40 71  1  0  0  0  0
 40 72  1  0  0  0  0
 41 73  1  0  0  0  0
 41 74  1  0  0  0  0
 42 43  1  0  0  0  0
 42 75  1  0  0  0  0
 43 44  1  0  0  0  0
M  END
$$$$
