CHEMBL3987162
 OpenBabel04072215373D

 62 65  0  0  0  0  0  0  0  0999 V2000
    1.5997    0.0330    0.4619 C   0  0  0  0  0  0  0  0  0  0  0  0
    2.5242    0.1042   -0.6189 O   0  0  0  0  0  0  0  0  0  0  0  0
    3.1229    1.3150   -0.8405 C   0  0  0  0  0  0  0  0  0  0  0  0
    2.6970    2.5322   -0.3405 C   0  0  0  0  0  0  0  0  0  0  0  0
    3.4143    3.6978   -0.6576 C   0  0  0  0  0  0  0  0  0  0  0  0
    3.0699    4.9512   -0.2362 O   0  0  0  0  0  0  0  0  0  0  0  0
    1.7175    5.1301    0.1671 C   0  0  0  0  0  0  0  0  0  0  0  0
    4.6006    3.6232   -1.4007 C   0  0  0  0  0  0  0  0  0  0  0  0
    5.1093    2.4030   -1.8440 C   0  0  0  0  0  0  0  0  0  0  0  0
    6.4067    2.2874   -2.4146 N   0  0  0  0  0  0  0  0  0  0  0  0
    6.9160    0.8769   -2.6213 C   0  0  0  0  0  0  0  0  0  0  0  0
    7.3442    0.1707   -1.3262 C   0  0  0  0  0  0  0  0  0  0  0  0
    7.8224   -0.9627   -1.3440 O   0  0  0  0  0  0  0  0  0  0  0  0
    7.1760    0.8873   -0.1644 N   0  0  0  0  0  0  0  0  0  0  0  0
    7.4772    0.3871    1.1572 C   0  0  0  0  0  0  0  0  0  0  0  0
    7.7607    1.5763    2.0731 C   0  0  0  0  0  0  0  0  0  0  0  0
    6.3332   -0.4616    1.7029 C   0  0  0  0  0  0  0  0  0  0  0  0
    7.4728    3.2285   -2.6447 C   0  0  0  0  0  0  0  0  0  0  0  0
    8.1017    3.1164   -3.8852 C   0  0  0  0  0  0  0  0  0  0  0  0
    9.4113    3.5326   -4.0409 C   0  0  0  0  0  0  0  0  0  0  0  0
   10.0703    4.2018   -3.0503 C   0  0  0  0  0  0  0  0  0  0  0  0
   11.3741    4.3532   -3.2883 N   0  0  0  0  0  0  0  0  0  0  0  0
   12.0460    5.1359   -2.4409 C   0  0  0  0  0  0  0  0  0  0  0  0
   11.4082    5.8336   -1.4333 C   0  0  0  0  0  0  0  0  0  0  0  0
   12.1895    6.9306   -0.8565 C   0  0  0  0  0  0  0  0  0  0  0  0
   12.1608    8.3145   -1.1737 C   0  0  0  0  0  0  0  0  0  0  0  0
   13.2072    8.9892   -0.6769 N   0  0  0  0  0  0  0  0  0  0  0  0
   13.9246    8.0399   -0.0539 N   0  0  0  0  0  0  0  0  0  0  0  0
   15.0453    8.3987    0.7845 C   0  0  0  0  0  0  0  0  0  0  0  0
   13.4301    6.7799   -0.2536 C   0  0  0  0  0  0  0  0  0  0  0  0
   10.1002    5.5906   -1.1081 N   0  0  0  0  0  0  0  0  0  0  0  0
    9.3903    4.6863   -1.9066 C   0  0  0  0  0  0  0  0  0  0  0  0
    8.0753    4.1093   -1.7036 C   0  0  0  0  0  0  0  0  0  0  0  0
    4.2778    1.2741   -1.6304 C   0  0  0  0  0  0  0  0  0  0  0  0
    1.4047   -1.0214    0.6722 H   0  0  0  0  0  0  0  0  0  0  0  0
    0.6503    0.5036    0.1847 H   0  0  0  0  0  0  0  0  0  0  0  0
    2.0054    0.4806    1.3762 H   0  0  0  0  0  0  0  0  0  0  0  0
    1.8201    2.5796    0.2930 H   0  0  0  0  0  0  0  0  0  0  0  0
    1.5685    6.1913    0.3765 H   0  0  0  0  0  0  0  0  0  0  0  0
    1.5001    4.5797    1.0891 H   0  0  0  0  0  0  0  0  0  0  0  0
    1.0290    4.8408   -0.6350 H   0  0  0  0  0  0  0  0  0  0  0  0
    5.1335    4.5460   -1.6143 H   0  0  0  0  0  0  0  0  0  0  0  0
    7.8043    0.8346   -3.2643 H   0  0  0  0  0  0  0  0  0  0  0  0
    6.1797    0.2652   -3.1555 H   0  0  0  0  0  0  0  0  0  0  0  0
    6.6443    1.7461   -0.2391 H   0  0  0  0  0  0  0  0  0  0  0  0
    8.3770   -0.2371    1.0857 H   0  0  0  0  0  0  0  0  0  0  0  0
    6.8873    2.2356    2.1407 H   0  0  0  0  0  0  0  0  0  0  0  0
    8.5898    2.1697    1.6831 H   0  0  0  0  0  0  0  0  0  0  0  0
    8.0186    1.2406    3.0820 H   0  0  0  0  0  0  0  0  0  0  0  0
    5.3978    0.1083    1.7479 H   0  0  0  0  0  0  0  0  0  0  0  0
    6.5641   -0.8172    2.7127 H   0  0  0  0  0  0  0  0  0  0  0  0
    6.1540   -1.3376    1.0704 H   0  0  0  0  0  0  0  0  0  0  0  0
    7.6357    2.5664   -4.6955 H   0  0  0  0  0  0  0  0  0  0  0  0
    9.9404    3.2736   -4.9559 H   0  0  0  0  0  0  0  0  0  0  0  0
   13.1068    5.2436   -2.6505 H   0  0  0  0  0  0  0  0  0  0  0  0
   11.4534    8.8546   -1.7906 H   0  0  0  0  0  0  0  0  0  0  0  0
   15.2236    9.4762    0.7322 H   0  0  0  0  0  0  0  0  0  0  0  0
   15.9346    7.8542    0.4574 H   0  0  0  0  0  0  0  0  0  0  0  0
   14.7839    8.1194    1.8088 H   0  0  0  0  0  0  0  0  0  0  0  0
   13.9927    5.9068    0.0457 H   0  0  0  0  0  0  0  0  0  0  0  0
    7.5783    4.3182   -0.7625 H   0  0  0  0  0  0  0  0  0  0  0  0
    4.5253    0.2900   -2.0213 H   0  0  0  0  0  0  0  0  0  0  0  0
  1  2  1  0  0  0  0
  1 35  1  0  0  0  0
  1 36  1  0  0  0  0
  1 37  1  0  0  0  0
  2  3  1  0  0  0  0
  3  4  1  0  0  0  0
  3 34  2  0  0  0  0
  4  5  2  0  0  0  0
  4 38  1  0  0  0  0
  5  6  1  0  0  0  0
  5  8  1  0  0  0  0
  6  7  1  0  0  0  0
  7 39  1  0  0  0  0
  7 40  1  0  0  0  0
  7 41  1  0  0  0  0
  8  9  2  0  0  0  0
  8 42  1  0  0  0  0
  9 10  1  0  0  0  0
  9 34  1  0  0  0  0
 10 11  1  0  0  0  0
 10 18  1  0  0  0  0
 11 12  1  0  0  0  0
 11 43  1  0  0  0  0
 11 44  1  0  0  0  0
 12 13  2  0  0  0  0
 12 14  1  0  0  0  0
 14 15  1  0  0  0  0
 14 45  1  0  0  0  0
 15 16  1  0  0  0  0
 15 17  1  0  0  0  0
 15 46  1  0  0  0  0
 16 47  1  0  0  0  0
 16 48  1  0  0  0  0
 16 49  1  0  0  0  0
 17 50  1  0  0  0  0
 17 51  1  0  0  0  0
 17 52  1  0  0  0  0
 18 19  1  0  0  0  0
 18 33  2  0  0  0  0
 19 20  2  0  0  0  0
 19 53  1  0  0  0  0
 20 21  1  0  0  0  0
 20 54  1  0  0  0  0
 21 22  1  0  0  0  0
 21 32  2  0  0  0  0
 22 23  2  0  0  0  0
 23 24  1  0  0  0  0
 23 55  1  0  0  0  0
 24 25  1  0  0  0  0
 24 31  2  0  0  0  0
 25 26  1  0  0  0  0
 25 30  2  0  0  0  0
 26 27  2  0  0  0  0
 26 56  1  0  0  0  0
 27 28  1  0  0  0  0
 28 29  1  0  0  0  0
 28 30  1  0  0  0  0
 29 57  1  0  0  0  0
 29 58  1  0  0  0  0
 29 59  1  0  0  0  0
 30 60  1  0  0  0  0
 31 32  1  0  0  0  0
 32 33  1  0  0  0  0
 33 61  1  0  0  0  0
 34 62  1  0  0  0  0
M  END
$$$$
