CHEMBL4743088
 OpenBabel04072215383D

 48 52  0  0  0  0  0  0  0  0999 V2000
   -3.9615    0.1009    0.3312 O   0  0  0  0  0  0  0  0  0  0  0  0
   -2.7509    0.1721    0.2803 C   0  0  0  0  0  0  0  0  0  0  0  0
   -1.7555   -0.9940    0.1552 C   0  0  0  0  0  0  0  0  0  0  0  0
   -1.9704   -2.2646    0.0407 N   0  0  0  0  0  0  0  0  0  0  0  0
   -3.3098   -2.6123    0.1026 N   0  0  0  0  0  0  0  0  0  0  0  0
   -3.6037   -3.7988   -0.3231 C   0  0  0  0  0  0  0  0  0  0  0  0
   -4.8575   -4.3534   -0.3216 N   0  0  0  0  0  0  0  0  0  0  0  0
   -4.9843   -5.6166   -0.8613 C   0  0  0  0  0  0  0  0  0  0  0  0
   -6.2872   -6.2995   -0.9003 C   0  0  0  0  0  0  0  0  0  0  0  0
   -7.2356   -6.0877    0.1149 C   0  0  0  0  0  0  0  0  0  0  0  0
   -8.4790   -6.7280    0.0838 C   0  0  0  0  0  0  0  0  0  0  0  0
   -8.7879   -7.5899   -0.9639 C   0  0  0  0  0  0  0  0  0  0  0  0
  -10.3140   -8.3828   -0.9995 Cl  0  0  0  0  0  0  0  0  0  0  0  0
   -7.8664   -7.8140   -1.9818 C   0  0  0  0  0  0  0  0  0  0  0  0
   -6.6231   -7.1692   -1.9513 C   0  0  0  0  0  0  0  0  0  0  0  0
   -3.8143   -6.1205   -1.2976 C   0  0  0  0  0  0  0  0  0  0  0  0
   -2.4872   -4.9993   -1.0338 S   0  0  0  0  0  0  0  0  0  0  0  0
   -0.4296   -0.3901    0.1382 C   0  0  0  0  0  0  0  0  0  0  0  0
    0.8080   -0.9955    0.0250 C   0  0  0  0  0  0  0  0  0  0  0  0
    1.9184   -0.1564    0.0345 C   0  0  0  0  0  0  0  0  0  0  0  0
    3.4945   -0.8338   -0.1057 Cl  0  0  0  0  0  0  0  0  0  0  0  0
    1.7722    1.2401    0.1550 C   0  0  0  0  0  0  0  0  0  0  0  0
    0.5012    1.8277    0.2445 C   0  0  0  0  0  0  0  0  0  0  0  0
   -0.6016    0.9918    0.2261 C   0  0  0  0  0  0  0  0  0  0  0  0
   -1.9662    1.3214    0.2722 N   0  0  0  0  0  0  0  0  0  0  0  0
   -2.5182    2.6433    0.0818 C   0  0  0  0  0  0  0  0  0  0  0  0
   -2.5641    3.5005    1.3212 C   0  0  0  0  0  0  0  0  0  0  0  0
   -1.9814    4.7777    1.3202 C   0  0  0  0  0  0  0  0  0  0  0  0
   -2.0448    5.5898    2.4536 C   0  0  0  0  0  0  0  0  0  0  0  0
   -2.7027    5.1409    3.5963 C   0  0  0  0  0  0  0  0  0  0  0  0
   -3.3155    3.8892    3.5989 C   0  0  0  0  0  0  0  0  0  0  0  0
   -3.2530    3.0753    2.4660 C   0  0  0  0  0  0  0  0  0  0  0  0
   -5.6536   -3.7975   -0.0559 H   0  0  0  0  0  0  0  0  0  0  0  0
   -7.0113   -5.4367    0.9573 H   0  0  0  0  0  0  0  0  0  0  0  0
   -9.1960   -6.5517    0.8822 H   0  0  0  0  0  0  0  0  0  0  0  0
   -8.1042   -8.4865   -2.8021 H   0  0  0  0  0  0  0  0  0  0  0  0
   -5.9265   -7.3527   -2.7669 H   0  0  0  0  0  0  0  0  0  0  0  0
   -3.6554   -7.0914   -1.7457 H   0  0  0  0  0  0  0  0  0  0  0  0
    0.8984   -2.0724   -0.0710 H   0  0  0  0  0  0  0  0  0  0  0  0
    2.6577    1.8729    0.1793 H   0  0  0  0  0  0  0  0  0  0  0  0
    0.4072    2.9028    0.3470 H   0  0  0  0  0  0  0  0  0  0  0  0
   -3.5399    2.5543   -0.3071 H   0  0  0  0  0  0  0  0  0  0  0  0
   -1.9378    3.1382   -0.7103 H   0  0  0  0  0  0  0  0  0  0  0  0
   -1.4826    5.1568    0.4311 H   0  0  0  0  0  0  0  0  0  0  0  0
   -1.5869    6.5758    2.4431 H   0  0  0  0  0  0  0  0  0  0  0  0
   -2.7475    5.7706    4.4810 H   0  0  0  0  0  0  0  0  0  0  0  0
   -3.8498    3.5482    4.4824 H   0  0  0  0  0  0  0  0  0  0  0  0
   -3.7586    2.1106    2.4775 H   0  0  0  0  0  0  0  0  0  0  0  0
  1  2  2  0  0  0  0
  2  3  1  0  0  0  0
  2 25  1  0  0  0  0
  3  4  2  0  0  0  0
  3 18  1  0  0  0  0
  4  5  1  0  0  0  0
  5  6  2  0  0  0  0
  6  7  1  0  0  0  0
  6 17  1  0  0  0  0
  7  8  1  0  0  0  0
  7 33  1  0  0  0  0
  8  9  1  0  0  0  0
  8 16  2  0  0  0  0
  9 10  1  0  0  0  0
  9 15  2  0  0  0  0
 10 11  2  0  0  0  0
 10 34  1  0  0  0  0
 11 12  1  0  0  0  0
 11 35  1  0  0  0  0
 12 13  1  0  0  0  0
 12 14  2  0  0  0  0
 14 15  1  0  0  0  0
 14 36  1  0  0  0  0
 15 37  1  0  0  0  0
 16 17  1  0  0  0  0
 16 38  1  0  0  0  0
 18 19  1  0  0  0  0
 18 24  2  0  0  0  0
 19 20  2  0  0  0  0
 19 39  1  0  0  0  0
 20 21  1  0  0  0  0
 20 22  1  0  0  0  0
 22 23  2  0  0  0  0
 22 40  1  0  0  0  0
 23 24  1  0  0  0  0
 23 41  1  0  0  0  0
 24 25  1  0  0  0  0
 25 26  1  0  0  0  0
 26 27  1  0  0  0  0
 26 42  1  0  0  0  0
 26 43  1  0  0  0  0
 27 28  1  0  0  0  0
 27 32  2  0  0  0  0
 28 29  2  0  0  0  0
 28 44  1  0  0  0  0
 29 30  1  0  0  0  0
 29 45  1  0  0  0  0
 30 31  2  0  0  0  0
 30 46  1  0  0  0  0
 31 32  1  0  0  0  0
 31 47  1  0  0  0  0
 32 48  1  0  0  0  0
M  END
$$$$
