CHEMBL3951686
 OpenBabel04072215373D

 45 48  0  0  0  0  0  0  0  0999 V2000
    2.7726    0.8122   -2.4495 C   0  0  0  0  0  0  0  0  0  0  0  0
    1.3703    0.5263   -1.9931 C   0  0  0  0  0  0  0  0  0  0  0  0
    0.8613   -0.7708   -2.0938 C   0  0  0  0  0  0  0  0  0  0  0  0
   -0.4248   -1.0463   -1.6477 C   0  0  0  0  0  0  0  0  0  0  0  0
   -1.2174   -0.0317   -1.1160 C   0  0  0  0  0  0  0  0  0  0  0  0
   -2.3886   -0.4171   -0.5985 F   0  0  0  0  0  0  0  0  0  0  0  0
   -0.7646    1.2961   -1.0500 C   0  0  0  0  0  0  0  0  0  0  0  0
   -1.5401    2.4013   -0.5921 N   0  0  0  0  0  0  0  0  0  0  0  0
   -2.9220    2.4268   -0.4726 C   0  0  0  0  0  0  0  0  0  0  0  0
   -3.6834    1.5148   -0.7577 O   0  0  0  0  0  0  0  0  0  0  0  0
   -3.3921    3.6804   -0.0599 N   0  0  0  0  0  0  0  0  0  0  0  0
   -4.7914    3.8541    0.1209 C   0  0  0  0  0  0  0  0  0  0  0  0
   -5.5274    2.9686    0.9172 C   0  0  0  0  0  0  0  0  0  0  0  0
   -6.9213    3.0554    0.9743 C   0  0  0  0  0  0  0  0  0  0  0  0
   -7.5958    4.0197    0.2192 C   0  0  0  0  0  0  0  0  0  0  0  0
   -9.0723    3.9956    0.1484 C   0  0  0  0  0  0  0  0  0  0  0  0
   -9.7662    4.7201    1.0571 C   0  0  0  0  0  0  0  0  0  0  0  0
  -11.2233    4.7435    1.0843 C   0  0  0  0  0  0  0  0  0  0  0  0
  -11.9002    4.0229    0.1755 C   0  0  0  0  0  0  0  0  0  0  0  0
  -11.2072    3.2709   -0.7681 N   0  0  0  0  0  0  0  0  0  0  0  0
  -11.7163    2.4843   -1.7510 N   0  0  0  0  0  0  0  0  0  0  0  0
  -10.7048    1.9401   -2.4182 N   0  0  0  0  0  0  0  0  0  0  0  0
   -9.5479    2.3819   -1.8591 C   0  0  0  0  0  0  0  0  0  0  0  0
   -8.3513    1.9907   -2.3141 N   0  0  0  0  0  0  0  0  0  0  0  0
   -9.8126    3.2289   -0.8125 C   0  0  0  0  0  0  0  0  0  0  0  0
   -6.8542    4.9403   -0.5332 C   0  0  0  0  0  0  0  0  0  0  0  0
   -5.4539    4.8753   -0.5624 C   0  0  0  0  0  0  0  0  0  0  0  0
    0.5535    1.5529   -1.4685 C   0  0  0  0  0  0  0  0  0  0  0  0
    3.2661   -0.0992   -2.8114 H   0  0  0  0  0  0  0  0  0  0  0  0
    3.3709    1.2019   -1.6206 H   0  0  0  0  0  0  0  0  0  0  0  0
    2.7677    1.5337   -3.2716 H   0  0  0  0  0  0  0  0  0  0  0  0
    1.4644   -1.5793   -2.5017 H   0  0  0  0  0  0  0  0  0  0  0  0
   -0.8242   -2.0552   -1.6915 H   0  0  0  0  0  0  0  0  0  0  0  0
   -1.0530    3.2708   -0.4450 H   0  0  0  0  0  0  0  0  0  0  0  0
   -2.9104    4.4535   -0.4911 H   0  0  0  0  0  0  0  0  0  0  0  0
   -5.0238    2.1777    1.4694 H   0  0  0  0  0  0  0  0  0  0  0  0
   -7.4745    2.3313    1.5674 H   0  0  0  0  0  0  0  0  0  0  0  0
   -9.2591    5.3121    1.8147 H   0  0  0  0  0  0  0  0  0  0  0  0
  -11.7287    5.3374    1.8365 H   0  0  0  0  0  0  0  0  0  0  0  0
  -12.9817    3.9790    0.1242 H   0  0  0  0  0  0  0  0  0  0  0  0
   -8.3115    1.1969   -2.9447 H   0  0  0  0  0  0  0  0  0  0  0  0
   -7.5150    2.0938   -1.7457 H   0  0  0  0  0  0  0  0  0  0  0  0
   -7.3651    5.6806   -1.1463 H   0  0  0  0  0  0  0  0  0  0  0  0
   -4.9084    5.5652   -1.1998 H   0  0  0  0  0  0  0  0  0  0  0  0
    0.9609    2.5612   -1.4159 H   0  0  0  0  0  0  0  0  0  0  0  0
  1  2  1  0  0  0  0
  1 29  1  0  0  0  0
  1 30  1  0  0  0  0
  1 31  1  0  0  0  0
  2  3  1  0  0  0  0
  2 28  2  0  0  0  0
  3  4  2  0  0  0  0
  3 32  1  0  0  0  0
  4  5  1  0  0  0  0
  4 33  1  0  0  0  0
  5  6  1  0  0  0  0
  5  7  2  0  0  0  0
  7  8  1  0  0  0  0
  7 28  1  0  0  0  0
  8  9  1  0  0  0  0
  8 34  1  0  0  0  0
  9 10  2  0  0  0  0
  9 11  1  0  0  0  0
 11 12  1  0  0  0  0
 11 35  1  0  0  0  0
 12 13  1  0  0  0  0
 12 27  2  0  0  0  0
 13 14  2  0  0  0  0
 13 36  1  0  0  0  0
 14 15  1  0  0  0  0
 14 37  1  0  0  0  0
 15 16  1  0  0  0  0
 15 26  2  0  0  0  0
 16 17  2  0  0  0  0
 16 25  1  0  0  0  0
 17 18  1  0  0  0  0
 17 38  1  0  0  0  0
 18 19  2  0  0  0  0
 18 39  1  0  0  0  0
 19 20  1  0  0  0  0
 19 40  1  0  0  0  0
 20 21  1  0  0  0  0
 20 25  1  0  0  0  0
 21 22  2  0  0  0  0
 22 23  1  0  0  0  0
 23 24  1  0  0  0  0
 23 25  2  0  0  0  0
 24 41  1  0  0  0  0
 24 42  1  0  0  0  0
 26 27  1  0  0  0  0
 26 43  1  0  0  0  0
 27 44  1  0  0  0  0
 28 45  1  0  0  0  0
M  END
$$$$
