CHEMBL1988581
 OpenBabel04072215363D

 32 33  0  0  0  0  0  0  0  0999 V2000
    0.9717    0.0147   -0.0489 C   0  0  0  0  0  0  0  0  0  0  0  0
    2.4657   -0.1268   -0.0246 C   0  0  0  0  0  0  0  0  0  0  0  0
    3.0433   -1.3327   -0.0195 C   0  0  0  0  0  0  0  0  0  0  0  0
    4.5099   -1.4143   -0.0234 C   0  0  0  0  0  0  0  0  0  0  0  0
    5.0363   -2.5272   -0.0093 O   0  0  0  0  0  0  0  0  0  0  0  0
    5.1839   -0.2029   -0.0531 N   0  0  0  0  0  0  0  0  0  0  0  0
    6.5685   -0.2140   -0.0974 C   0  0  0  0  0  0  0  0  0  0  0  0
    7.2868    0.9108   -0.1524 C   0  0  0  0  0  0  0  0  0  0  0  0
    6.6345    2.2031   -0.1549 C   0  0  0  0  0  0  0  0  0  0  0  0
    7.5365    3.4124   -0.3000 C   0  0  0  0  0  0  0  0  0  0  0  0
    7.3988    4.4190    0.7712 N   0  0  0  0  0  0  0  0  0  0  0  0
    7.8268    3.8766    2.0696 C   0  0  0  0  0  0  0  0  0  0  0  0
    8.2500    5.5768    0.4505 C   0  0  0  0  0  0  0  0  0  0  0  0
    5.2907    2.2722   -0.0581 C   0  0  0  0  0  0  0  0  0  0  0  0
    4.6185    3.4819    0.0128 O   0  0  0  0  0  0  0  0  0  0  0  0
    4.4683    0.9947   -0.0403 C   0  0  0  0  0  0  0  0  0  0  0  0
    3.1683    1.0489   -0.0209 N   0  0  0  0  0  0  0  0  0  0  0  0
    0.4641   -0.9560   -0.0690 H   0  0  0  0  0  0  0  0  0  0  0  0
    0.6584    0.5716   -0.9384 H   0  0  0  0  0  0  0  0  0  0  0  0
    0.6267    0.5547    0.8388 H   0  0  0  0  0  0  0  0  0  0  0  0
    2.4939   -2.2638   -0.0237 H   0  0  0  0  0  0  0  0  0  0  0  0
    7.0539   -1.1870   -0.0908 H   0  0  0  0  0  0  0  0  0  0  0  0
    8.3707    0.8587   -0.1805 H   0  0  0  0  0  0  0  0  0  0  0  0
    7.2676    3.8837   -1.2567 H   0  0  0  0  0  0  0  0  0  0  0  0
    8.5871    3.1103   -0.4051 H   0  0  0  0  0  0  0  0  0  0  0  0
    7.2057    3.0283    2.3742 H   0  0  0  0  0  0  0  0  0  0  0  0
    7.7129    4.6348    2.8530 H   0  0  0  0  0  0  0  0  0  0  0  0
    8.8741    3.5515    2.0580 H   0  0  0  0  0  0  0  0  0  0  0  0
    7.9581    6.0215   -0.5071 H   0  0  0  0  0  0  0  0  0  0  0  0
    9.3115    5.3041    0.3913 H   0  0  0  0  0  0  0  0  0  0  0  0
    8.1412    6.3593    1.2097 H   0  0  0  0  0  0  0  0  0  0  0  0
    5.2770    4.1623    0.2591 H   0  0  0  0  0  0  0  0  0  0  0  0
  1  2  1  0  0  0  0
  1 18  1  0  0  0  0
  1 19  1  0  0  0  0
  1 20  1  0  0  0  0
  2  3  2  0  0  0  0
  2 17  1  0  0  0  0
  3  4  1  0  0  0  0
  3 21  1  0  0  0  0
  4  5  2  0  0  0  0
  4  6  1  0  0  0  0
  6  7  1  0  0  0  0
  6 16  1  0  0  0  0
  7  8  2  0  0  0  0
  7 22  1  0  0  0  0
  8  9  1  0  0  0  0
  8 23  1  0  0  0  0
  9 10  1  0  0  0  0
  9 14  2  0  0  0  0
 10 11  1  0  0  0  0
 10 24  1  0  0  0  0
 10 25  1  0  0  0  0
 11 12  1  0  0  0  0
 11 13  1  0  0  0  0
 12 26  1  0  0  0  0
 12 27  1  0  0  0  0
 12 28  1  0  0  0  0
 13 29  1  0  0  0  0
 13 30  1  0  0  0  0
 13 31  1  0  0  0  0
 14 15  1  0  0  0  0
 14 16  1  0  0  0  0
 15 32  1  0  0  0  0
 16 17  2  0  0  0  0
M  END
$$$$
