CHEMBL3397931
 OpenBabel04072215363D

 60 63  0  0  0  0  0  0  0  0999 V2000
    1.0826   -0.5075    0.2256 O   0  0  0  0  0  0  0  0  0  0  0  0
    2.2233   -0.0792    0.0689 C   0  0  0  0  0  0  0  0  0  0  0  0
    2.8516    0.8942    0.8239 N   0  0  0  0  0  0  0  0  0  0  0  0
    2.3217    1.5082    1.9756 C   0  0  0  0  0  0  0  0  0  0  0  0
    1.2134    1.0037    2.6599 C   0  0  0  0  0  0  0  0  0  0  0  0
    0.7136    1.6546    3.7876 C   0  0  0  0  0  0  0  0  0  0  0  0
    1.3365    2.8054    4.2544 C   0  0  0  0  0  0  0  0  0  0  0  0
    0.9429    3.5057    5.3545 O   0  0  0  0  0  0  0  0  0  0  0  0
    0.2931    2.7460    6.3786 C   0  0  0  0  0  0  0  0  0  0  0  0
    0.5459    3.4572    7.7054 C   0  0  0  0  0  0  0  0  0  0  0  0
   -0.0184    4.8821    7.6721 C   0  0  0  0  0  0  0  0  0  0  0  0
    0.1583    5.6430    8.9210 N   0  0  0  0  0  0  0  0  0  0  0  0
   -0.4460    6.9929    8.7786 C   0  0  0  0  0  0  0  0  0  0  0  0
    0.3645    7.9495    7.8811 C   0  0  0  0  0  0  0  0  0  0  0  0
    1.7158    8.0803    8.3395 O   0  0  0  0  0  0  0  0  0  0  0  0
    2.3551    6.7989    8.4081 C   0  0  0  0  0  0  0  0  0  0  0  0
    1.5728    5.8344    9.3151 C   0  0  0  0  0  0  0  0  0  0  0  0
    2.4356    3.3250    3.5704 C   0  0  0  0  0  0  0  0  0  0  0  0
    2.9418    2.6696    2.4449 C   0  0  0  0  0  0  0  0  0  0  0  0
    2.9989   -0.6075   -1.0784 C   0  0  0  0  0  0  0  0  0  0  0  0
    2.3026   -0.9829   -2.2283 C   0  0  0  0  0  0  0  0  0  0  0  0
    2.9951   -1.5116   -3.3122 C   0  0  0  0  0  0  0  0  0  0  0  0
    4.3846   -1.6515   -3.2450 C   0  0  0  0  0  0  0  0  0  0  0  0
    5.1177   -1.2557   -2.1082 C   0  0  0  0  0  0  0  0  0  0  0  0
    6.5986   -1.2816   -2.0848 C   0  0  0  0  0  0  0  0  0  0  0  0
    7.3433   -1.0404   -3.2544 C   0  0  0  0  0  0  0  0  0  0  0  0
    8.7393   -0.9502   -3.2325 C   0  0  0  0  0  0  0  0  0  0  0  0
    9.4253   -1.0804   -2.0306 C   0  0  0  0  0  0  0  0  0  0  0  0
    8.7100   -1.3261   -0.8674 C   0  0  0  0  0  0  0  0  0  0  0  0
    9.3348   -1.4214    0.3417 O   0  0  0  0  0  0  0  0  0  0  0  0
    7.3226   -1.4546   -0.8896 C   0  0  0  0  0  0  0  0  0  0  0  0
    4.3895   -0.7558   -1.0140 C   0  0  0  0  0  0  0  0  0  0  0  0
    3.7097    1.2901    0.4617 H   0  0  0  0  0  0  0  0  0  0  0  0
    0.7171    0.0911    2.3475 H   0  0  0  0  0  0  0  0  0  0  0  0
   -0.1646    1.2413    4.2721 H   0  0  0  0  0  0  0  0  0  0  0  0
    0.7041    1.7314    6.4503 H   0  0  0  0  0  0  0  0  0  0  0  0
   -0.7812    2.6907    6.1661 H   0  0  0  0  0  0  0  0  0  0  0  0
    1.6300    3.4864    7.8602 H   0  0  0  0  0  0  0  0  0  0  0  0
    0.1004    2.8835    8.5252 H   0  0  0  0  0  0  0  0  0  0  0  0
   -1.0962    4.7976    7.4789 H   0  0  0  0  0  0  0  0  0  0  0  0
    0.4084    5.4204    6.8204 H   0  0  0  0  0  0  0  0  0  0  0  0
   -0.5106    7.4306    9.7826 H   0  0  0  0  0  0  0  0  0  0  0  0
   -1.4762    6.9147    8.4121 H   0  0  0  0  0  0  0  0  0  0  0  0
   -0.0882    8.9457    7.9034 H   0  0  0  0  0  0  0  0  0  0  0  0
    0.3721    7.6234    6.8348 H   0  0  0  0  0  0  0  0  0  0  0  0
    3.3567    6.9565    8.8206 H   0  0  0  0  0  0  0  0  0  0  0  0
    2.4773    6.3978    7.3951 H   0  0  0  0  0  0  0  0  0  0  0  0
    1.5684    6.2515   10.3313 H   0  0  0  0  0  0  0  0  0  0  0  0
    2.0995    4.8792    9.4004 H   0  0  0  0  0  0  0  0  0  0  0  0
    2.9054    4.2399    3.9230 H   0  0  0  0  0  0  0  0  0  0  0  0
    3.8051    3.0921    1.9402 H   0  0  0  0  0  0  0  0  0  0  0  0
    1.2219   -0.8633   -2.2802 H   0  0  0  0  0  0  0  0  0  0  0  0
    2.4576   -1.8048   -4.2084 H   0  0  0  0  0  0  0  0  0  0  0  0
    4.8919   -2.0777   -4.1085 H   0  0  0  0  0  0  0  0  0  0  0  0
    6.8409   -0.8811   -4.2063 H   0  0  0  0  0  0  0  0  0  0  0  0
    9.2797   -0.7548   -4.1540 H   0  0  0  0  0  0  0  0  0  0  0  0
   10.5078   -0.9885   -2.0224 H   0  0  0  0  0  0  0  0  0  0  0  0
   10.2653   -1.1649    0.2286 H   0  0  0  0  0  0  0  0  0  0  0  0
    6.8170   -1.6704    0.0479 H   0  0  0  0  0  0  0  0  0  0  0  0
    4.9104   -0.4785   -0.1015 H   0  0  0  0  0  0  0  0  0  0  0  0
  1  2  2  0  0  0  0
  2  3  1  0  0  0  0
  2 20  1  0  0  0  0
  3  4  1  0  0  0  0
  3 33  1  0  0  0  0
  4  5  1  0  0  0  0
  4 19  2  0  0  0  0
  5  6  2  0  0  0  0
  5 34  1  0  0  0  0
  6  7  1  0  0  0  0
  6 35  1  0  0  0  0
  7  8  1  0  0  0  0
  7 18  2  0  0  0  0
  8  9  1  0  0  0  0
  9 10  1  0  0  0  0
  9 36  1  0  0  0  0
  9 37  1  0  0  0  0
 10 11  1  0  0  0  0
 10 38  1  0  0  0  0
 10 39  1  0  0  0  0
 11 12  1  0  0  0  0
 11 40  1  0  0  0  0
 11 41  1  0  0  0  0
 12 13  1  0  0  0  0
 12 17  1  0  0  0  0
 13 14  1  0  0  0  0
 13 42  1  0  0  0  0
 13 43  1  0  0  0  0
 14 15  1  0  0  0  0
 14 44  1  0  0  0  0
 14 45  1  0  0  0  0
 15 16  1  0  0  0  0
 16 17  1  0  0  0  0
 16 46  1  0  0  0  0
 16 47  1  0  0  0  0
 17 48  1  0  0  0  0
 17 49  1  0  0  0  0
 18 19  1  0  0  0  0
 18 50  1  0  0  0  0
 19 51  1  0  0  0  0
 20 21  1  0  0  0  0
 20 32  2  0  0  0  0
 21 22  2  0  0  0  0
 21 52  1  0  0  0  0
 22 23  1  0  0  0  0
 22 53  1  0  0  0  0
 23 24  2  0  0  0  0
 23 54  1  0  0  0  0
 24 25  1  0  0  0  0
 24 32  1  0  0  0  0
 25 26  1  0  0  0  0
 25 31  2  0  0  0  0
 26 27  2  0  0  0  0
 26 55  1  0  0  0  0
 27 28  1  0  0  0  0
 27 56  1  0  0  0  0
 28 29  2  0  0  0  0
 28 57  1  0  0  0  0
 29 30  1  0  0  0  0
 29 31  1  0  0  0  0
 30 58  1  0  0  0  0
 31 59  1  0  0  0  0
 32 60  1  0  0  0  0
M  END
$$$$
