CHEMBL3964493
 OpenBabel04072215373D

 72 76  0  0  0  0  0  0  0  0999 V2000
   -0.8192    3.1944   -3.4811 C   0  0  0  0  0  0  0  0  0  0  0  0
   -0.8915    2.0448   -2.5741 N   0  0  0  0  0  0  0  0  0  0  0  0
   -0.5398    0.8237   -3.3158 C   0  0  0  0  0  0  0  0  0  0  0  0
   -0.5216   -0.3984   -2.4027 C   0  0  0  0  0  0  0  0  0  0  0  0
    0.4754   -0.2023   -1.2553 C   0  0  0  0  0  0  0  0  0  0  0  0
    1.8690   -0.0608   -1.7448 N   0  0  0  0  0  0  0  0  0  0  0  0
    2.4571   -1.0861   -2.4897 C   0  0  0  0  0  0  0  0  0  0  0  0
    2.1049   -2.4132   -2.2568 C   0  0  0  0  0  0  0  0  0  0  0  0
    2.6826   -3.4623   -2.9607 C   0  0  0  0  0  0  0  0  0  0  0  0
    3.6591   -3.2470   -3.9252 C   0  0  0  0  0  0  0  0  0  0  0  0
    4.2595   -4.3201   -4.6409 N   0  0  0  0  0  0  0  0  0  0  0  0
    3.9217   -5.6622   -4.4871 C   0  0  0  0  0  0  0  0  0  0  0  0
    3.0242   -6.0943   -3.7714 O   0  0  0  0  0  0  0  0  0  0  0  0
    4.7548   -6.5194   -5.1930 N   0  0  0  0  0  0  0  0  0  0  0  0
    4.5429   -7.9235   -5.0994 C   0  0  0  0  0  0  0  0  0  0  0  0
    5.6198   -8.7469   -4.7652 C   0  0  0  0  0  0  0  0  0  0  0  0
    5.4369  -10.1303   -4.6217 C   0  0  0  0  0  0  0  0  0  0  0  0
    4.1719  -10.7054   -4.7918 C   0  0  0  0  0  0  0  0  0  0  0  0
    3.9136  -12.0607   -4.6700 O   0  0  0  0  0  0  0  0  0  0  0  0
    4.5805  -12.8036   -3.7114 C   0  0  0  0  0  0  0  0  0  0  0  0
    5.0075  -12.2761   -2.4959 C   0  0  0  0  0  0  0  0  0  0  0  0
    5.7219  -13.0982   -1.6542 C   0  0  0  0  0  0  0  0  0  0  0  0
    5.9644  -14.3929   -1.9178 N   0  0  0  0  0  0  0  0  0  0  0  0
    5.4819  -14.9319   -3.0460 C   0  0  0  0  0  0  0  0  0  0  0  0
    5.7020  -16.3045   -3.2946 N   0  0  0  0  0  0  0  0  0  0  0  0
    6.4202  -17.1267   -2.4475 C   0  0  0  0  0  0  0  0  0  0  0  0
    6.9538  -16.8195   -1.3842 O   0  0  0  0  0  0  0  0  0  0  0  0
    6.5836  -18.5550   -2.8620 C   0  0  0  0  0  0  0  0  0  0  0  0
    7.3446  -18.8669   -4.1298 C   0  0  0  0  0  0  0  0  0  0  0  0
    5.9021  -19.2629   -3.9979 C   0  0  0  0  0  0  0  0  0  0  0  0
    4.7799  -14.1668   -3.9761 C   0  0  0  0  0  0  0  0  0  0  0  0
    3.1118   -9.8782   -5.1666 C   0  0  0  0  0  0  0  0  0  0  0  0
    1.8955  -10.4047   -5.3920 F   0  0  0  0  0  0  0  0  0  0  0  0
    3.2833   -8.5007   -5.3104 C   0  0  0  0  0  0  0  0  0  0  0  0
    4.0563   -1.9214   -4.1515 C   0  0  0  0  0  0  0  0  0  0  0  0
    3.4851   -0.8333   -3.4181 C   0  0  0  0  0  0  0  0  0  0  0  0
    4.0071    0.5601   -3.6979 C   0  0  0  0  0  0  0  0  0  0  0  0
    3.5170    1.5676   -2.9198 F   0  0  0  0  0  0  0  0  0  0  0  0
    5.3647    0.6270   -3.5345 F   0  0  0  0  0  0  0  0  0  0  0  0
    3.7868    0.9534   -4.9874 F   0  0  0  0  0  0  0  0  0  0  0  0
    0.0765    1.0624   -0.4937 C   0  0  0  0  0  0  0  0  0  0  0  0
    0.0063    2.2692   -1.4291 C   0  0  0  0  0  0  0  0  0  0  0  0
   -1.4871    3.0535   -4.3376 H   0  0  0  0  0  0  0  0  0  0  0  0
    0.1973    3.3517   -3.8627 H   0  0  0  0  0  0  0  0  0  0  0  0
   -1.1410    4.1073   -2.9697 H   0  0  0  0  0  0  0  0  0  0  0  0
    0.4312    0.9288   -3.8160 H   0  0  0  0  0  0  0  0  0  0  0  0
   -1.2846    0.6481   -4.1020 H   0  0  0  0  0  0  0  0  0  0  0  0
   -0.2960   -1.2916   -2.9946 H   0  0  0  0  0  0  0  0  0  0  0  0
   -1.5258   -0.5583   -1.9871 H   0  0  0  0  0  0  0  0  0  0  0  0
    0.4123   -1.0410   -0.5516 H   0  0  0  0  0  0  0  0  0  0  0  0
    2.4947    0.2179   -0.9871 H   0  0  0  0  0  0  0  0  0  0  0  0
    1.3548   -2.6804   -1.5195 H   0  0  0  0  0  0  0  0  0  0  0  0
    2.3097   -4.4454   -2.7057 H   0  0  0  0  0  0  0  0  0  0  0  0
    4.9326   -4.0859   -5.3558 H   0  0  0  0  0  0  0  0  0  0  0  0
    5.7165   -6.2146   -5.2367 H   0  0  0  0  0  0  0  0  0  0  0  0
    6.5965   -8.3226   -4.5487 H   0  0  0  0  0  0  0  0  0  0  0  0
    6.2944  -10.7407   -4.3527 H   0  0  0  0  0  0  0  0  0  0  0  0
    4.8232  -11.2513   -2.2056 H   0  0  0  0  0  0  0  0  0  0  0  0
    6.1399  -12.7329   -0.7216 H   0  0  0  0  0  0  0  0  0  0  0  0
    5.3270  -16.6919   -4.1431 H   0  0  0  0  0  0  0  0  0  0  0  0
    6.8183  -19.1863   -2.0034 H   0  0  0  0  0  0  0  0  0  0  0  0
    8.1067  -19.6366   -4.0705 H   0  0  0  0  0  0  0  0  0  0  0  0
    7.5963  -18.0532   -4.8001 H   0  0  0  0  0  0  0  0  0  0  0  0
    5.6864  -20.3197   -3.8614 H   0  0  0  0  0  0  0  0  0  0  0  0
    5.1657  -18.7540   -4.6027 H   0  0  0  0  0  0  0  0  0  0  0  0
    4.3913  -14.5999   -4.8903 H   0  0  0  0  0  0  0  0  0  0  0  0
    2.4242   -7.8908   -5.5829 H   0  0  0  0  0  0  0  0  0  0  0  0
    4.8183   -1.6965   -4.8973 H   0  0  0  0  0  0  0  0  0  0  0  0
    0.7865    1.2617    0.3179 H   0  0  0  0  0  0  0  0  0  0  0  0
   -0.9038    0.9062   -0.0238 H   0  0  0  0  0  0  0  0  0  0  0  0
    1.0189    2.5231   -1.7673 H   0  0  0  0  0  0  0  0  0  0  0  0
   -0.3609    3.1242   -0.8476 H   0  0  0  0  0  0  0  0  0  0  0  0
  1  2  1  0  0  0  0
  1 43  1  0  0  0  0
  1 44  1  0  0  0  0
  1 45  1  0  0  0  0
  2  3  1  0  0  0  0
  2 42  1  0  0  0  0
  3  4  1  0  0  0  0
  3 46  1  0  0  0  0
  3 47  1  0  0  0  0
  4  5  1  0  0  0  0
  4 48  1  0  0  0  0
  4 49  1  0  0  0  0
  5  6  1  0  0  0  0
  5 41  1  0  0  0  0
  5 50  1  0  0  0  0
  6  7  1  0  0  0  0
  6 51  1  0  0  0  0
  7  8  1  0  0  0  0
  7 36  2  0  0  0  0
  8  9  2  0  0  0  0
  8 52  1  0  0  0  0
  9 10  1  0  0  0  0
  9 53  1  0  0  0  0
 10 11  1  0  0  0  0
 10 35  2  0  0  0  0
 11 12  1  0  0  0  0
 11 54  1  0  0  0  0
 12 13  2  0  0  0  0
 12 14  1  0  0  0  0
 14 15  1  0  0  0  0
 14 55  1  0  0  0  0
 15 16  1  0  0  0  0
 15 34  2  0  0  0  0
 16 17  2  0  0  0  0
 16 56  1  0  0  0  0
 17 18  1  0  0  0  0
 17 57  1  0  0  0  0
 18 19  1  0  0  0  0
 18 32  2  0  0  0  0
 19 20  1  0  0  0  0
 20 21  1  0  0  0  0
 20 31  2  0  0  0  0
 21 22  2  0  0  0  0
 21 58  1  0  0  0  0
 22 23  1  0  0  0  0
 22 59  1  0  0  0  0
 23 24  2  0  0  0  0
 24 25  1  0  0  0  0
 24 31  1  0  0  0  0
 25 26  1  0  0  0  0
 25 60  1  0  0  0  0
 26 27  2  0  0  0  0
 26 28  1  0  0  0  0
 28 29  1  0  0  0  0
 28 30  1  0  0  0  0
 28 61  1  0  0  0  0
 29 30  1  0  0  0  0
 29 62  1  0  0  0  0
 29 63  1  0  0  0  0
 30 64  1  0  0  0  0
 30 65  1  0  0  0  0
 31 66  1  0  0  0  0
 32 33  1  0  0  0  0
 32 34  1  0  0  0  0
 34 67  1  0  0  0  0
 35 36  1  0  0  0  0
 35 68  1  0  0  0  0
 36 37  1  0  0  0  0
 37 38  1  0  0  0  0
 37 39  1  0  0  0  0
 37 40  1  0  0  0  0
 41 42  1  0  0  0  0
 41 69  1  0  0  0  0
 41 70  1  0  0  0  0
 42 71  1  0  0  0  0
 42 72  1  0  0  0  0
M  END
$$$$
