CHEMBL2409788
 OpenBabel04072215363D

 55 58  0  0  0  0  0  0  0  0999 V2000
    2.5038    0.2799    0.0633 C   0  0  0  0  0  0  0  0  0  0  0  0
    1.0025    0.1676    0.0958 C   0  0  0  0  0  0  0  0  0  0  0  0
    0.2772    1.3692    0.1633 C   0  0  0  0  0  0  0  0  0  0  0  0
   -1.1132    1.3660    0.1857 C   0  0  0  0  0  0  0  0  0  0  0  0
   -1.8064    0.1656    0.0459 C   0  0  0  0  0  0  0  0  0  0  0  0
   -3.1847    0.1071   -0.0271 O   0  0  0  0  0  0  0  0  0  0  0  0
   -3.8700    1.0665   -0.7571 C   0  0  0  0  0  0  0  0  0  0  0  0
   -5.2459    1.3151   -0.3295 C   0  0  0  0  0  0  0  0  0  0  0  0
   -6.0173    2.2521   -0.9247 C   0  0  0  0  0  0  0  0  0  0  0  0
   -5.4880    3.0189   -2.0044 C   0  0  0  0  0  0  0  0  0  0  0  0
   -5.9743    3.9919   -2.7484 N   0  0  0  0  0  0  0  0  0  0  0  0
   -4.9123    4.3361   -3.5447 C   0  0  0  0  0  0  0  0  0  0  0  0
   -5.0371    5.3775   -4.4250 N   0  0  0  0  0  0  0  0  0  0  0  0
   -3.9649    5.9565   -5.0612 C   0  0  0  0  0  0  0  0  0  0  0  0
   -2.7809    5.7041   -4.8808 O   0  0  0  0  0  0  0  0  0  0  0  0
   -4.2683    7.0490   -6.0332 C   0  0  0  0  0  0  0  0  0  0  0  0
   -5.0550    8.2643   -5.6006 C   0  0  0  0  0  0  0  0  0  0  0  0
   -5.6088    7.3451   -6.6530 C   0  0  0  0  0  0  0  0  0  0  0  0
   -3.8286    3.5855   -3.3809 N   0  0  0  0  0  0  0  0  0  0  0  0
   -4.1800    2.7399   -2.3983 N   0  0  0  0  0  0  0  0  0  0  0  0
   -3.3983    1.7584   -1.8080 C   0  0  0  0  0  0  0  0  0  0  0  0
   -1.1010   -1.0402    0.0177 C   0  0  0  0  0  0  0  0  0  0  0  0
    0.3048   -1.0627    0.0650 C   0  0  0  0  0  0  0  0  0  0  0  0
    1.0389   -2.2806    0.0959 N   0  0  0  0  0  0  0  0  0  0  0  0
    0.5426   -3.5328    0.4210 C   0  0  0  0  0  0  0  0  0  0  0  0
   -0.6283   -3.8080    0.6674 O   0  0  0  0  0  0  0  0  0  0  0  0
    1.5988   -4.6311    0.4792 C   0  0  0  0  0  0  0  0  0  0  0  0
    2.7152   -4.3958    1.5097 C   0  0  0  0  0  0  0  0  0  0  0  0
    2.1607   -4.2131    2.9245 C   0  0  0  0  0  0  0  0  0  0  0  0
    3.7028   -5.5669    1.4976 C   0  0  0  0  0  0  0  0  0  0  0  0
    2.8294    1.2949    0.3219 H   0  0  0  0  0  0  0  0  0  0  0  0
    2.8780    0.0589   -0.9411 H   0  0  0  0  0  0  0  0  0  0  0  0
    2.9685   -0.3902    0.7918 H   0  0  0  0  0  0  0  0  0  0  0  0
    0.7902    2.3274    0.2030 H   0  0  0  0  0  0  0  0  0  0  0  0
   -1.6404    2.3110    0.2777 H   0  0  0  0  0  0  0  0  0  0  0  0
   -5.6267    0.7176    0.4953 H   0  0  0  0  0  0  0  0  0  0  0  0
   -7.0347    2.4393   -0.5984 H   0  0  0  0  0  0  0  0  0  0  0  0
   -5.9655    5.7538   -4.5078 H   0  0  0  0  0  0  0  0  0  0  0  0
   -3.4155    7.2425   -6.6830 H   0  0  0  0  0  0  0  0  0  0  0  0
   -4.6685    9.2309   -5.9052 H   0  0  0  0  0  0  0  0  0  0  0  0
   -5.5242    8.2675   -4.6249 H   0  0  0  0  0  0  0  0  0  0  0  0
   -5.6103    7.7017   -7.6794 H   0  0  0  0  0  0  0  0  0  0  0  0
   -6.4692    6.7362   -6.4122 H   0  0  0  0  0  0  0  0  0  0  0  0
   -2.4102    1.6399   -2.2295 H   0  0  0  0  0  0  0  0  0  0  0  0
   -1.6755   -1.9570   -0.0718 H   0  0  0  0  0  0  0  0  0  0  0  0
    2.0425   -2.1996    0.0073 H   0  0  0  0  0  0  0  0  0  0  0  0
    2.0201   -4.7470   -0.5266 H   0  0  0  0  0  0  0  0  0  0  0  0
    1.0799   -5.5715    0.7102 H   0  0  0  0  0  0  0  0  0  0  0  0
    3.2691   -3.4894    1.2417 H   0  0  0  0  0  0  0  0  0  0  0  0
    1.6348   -5.1112    3.2660 H   0  0  0  0  0  0  0  0  0  0  0  0
    1.4645   -3.3705    2.9762 H   0  0  0  0  0  0  0  0  0  0  0  0
    2.9732   -4.0093    3.6305 H   0  0  0  0  0  0  0  0  0  0  0  0
    3.2222   -6.4995    1.8137 H   0  0  0  0  0  0  0  0  0  0  0  0
    4.5384   -5.3737    2.1789 H   0  0  0  0  0  0  0  0  0  0  0  0
    4.1179   -5.7220    0.4963 H   0  0  0  0  0  0  0  0  0  0  0  0
  1  2  1  0  0  0  0
  1 31  1  0  0  0  0
  1 32  1  0  0  0  0
  1 33  1  0  0  0  0
  2  3  1  0  0  0  0
  2 23  2  0  0  0  0
  3  4  2  0  0  0  0
  3 34  1  0  0  0  0
  4  5  1  0  0  0  0
  4 35  1  0  0  0  0
  5  6  1  0  0  0  0
  5 22  2  0  0  0  0
  6  7  1  0  0  0  0
  7  8  1  0  0  0  0
  7 21  2  0  0  0  0
  8  9  2  0  0  0  0
  8 36  1  0  0  0  0
  9 10  1  0  0  0  0
  9 37  1  0  0  0  0
 10 11  2  0  0  0  0
 10 20  1  0  0  0  0
 11 12  1  0  0  0  0
 12 13  1  0  0  0  0
 12 19  2  0  0  0  0
 13 14  1  0  0  0  0
 13 38  1  0  0  0  0
 14 15  2  0  0  0  0
 14 16  1  0  0  0  0
 16 17  1  0  0  0  0
 16 18  1  0  0  0  0
 16 39  1  0  0  0  0
 17 18  1  0  0  0  0
 17 40  1  0  0  0  0
 17 41  1  0  0  0  0
 18 42  1  0  0  0  0
 18 43  1  0  0  0  0
 19 20  1  0  0  0  0
 20 21  1  0  0  0  0
 21 44  1  0  0  0  0
 22 23  1  0  0  0  0
 22 45  1  0  0  0  0
 23 24  1  0  0  0  0
 24 25  1  0  0  0  0
 24 46  1  0  0  0  0
 25 26  2  0  0  0  0
 25 27  1  0  0  0  0
 27 28  1  0  0  0  0
 27 47  1  0  0  0  0
 27 48  1  0  0  0  0
 28 29  1  0  0  0  0
 28 30  1  0  0  0  0
 28 49  1  0  0  0  0
 29 50  1  0  0  0  0
 29 51  1  0  0  0  0
 29 52  1  0  0  0  0
 30 53  1  0  0  0  0
 30 54  1  0  0  0  0
 30 55  1  0  0  0  0
M  END
$$$$
