CHEMBL3963327
 OpenBabel04072215373D

 72 74  0  0  0  0  0  0  0  0999 V2000
   -5.4600   -1.7131    2.7555 O   0  0  0  0  0  0  0  0  0  0  0  0
   -5.9337   -0.7487    3.3572 C   0  0  0  0  0  0  0  0  0  0  0  0
   -5.3266   -0.1093    4.5852 C   0  0  0  0  0  0  0  0  0  0  0  0
   -4.0488   -0.8082    5.0210 C   0  0  0  0  0  0  0  0  0  0  0  0
   -3.4445   -0.1550    6.2607 C   0  0  0  0  0  0  0  0  0  0  0  0
   -2.1640   -0.8767    6.6715 C   0  0  0  0  0  0  0  0  0  0  0  0
   -1.5452   -0.2333    7.9048 C   0  0  0  0  0  0  0  0  0  0  0  0
   -0.2578   -0.9509    8.3023 C   0  0  0  0  0  0  0  0  0  0  0  0
    0.3420   -0.2790    9.5290 C   0  0  0  0  0  0  0  0  0  0  0  0
    1.5619   -0.9782    9.9344 N   0  0  0  0  0  0  0  0  0  0  0  0
    2.1179   -0.3675   11.1546 C   0  0  0  0  0  0  0  0  0  0  0  0
    1.1726   -0.4520   12.3363 C   0  0  0  0  0  0  0  0  0  0  0  0
    0.6975   -1.7027   12.7371 C   0  0  0  0  0  0  0  0  0  0  0  0
   -0.1893   -1.7894   13.7979 C   0  0  0  0  0  0  0  0  0  0  0  0
   -0.6873   -2.9843   14.2872 O   0  0  0  0  0  0  0  0  0  0  0  0
    0.1198   -4.1062   14.2861 C   0  0  0  0  0  0  0  0  0  0  0  0
    1.5015   -4.0497   14.3863 C   0  0  0  0  0  0  0  0  0  0  0  0
    2.2683   -5.2106   14.2930 C   0  0  0  0  0  0  0  0  0  0  0  0
    1.6905   -6.4775   14.1790 C   0  0  0  0  0  0  0  0  0  0  0  0
    2.4764   -7.6629   14.0563 N   0  0  0  0  0  0  0  0  0  0  0  0
    3.8640   -7.6858   14.0207 C   0  0  0  0  0  0  0  0  0  0  0  0
    4.5851   -6.6950   14.1261 O   0  0  0  0  0  0  0  0  0  0  0  0
    4.4168   -8.9420   13.8098 N   0  0  0  0  0  0  0  0  0  0  0  0
    5.8322   -9.0347   13.6457 C   0  0  0  0  0  0  0  0  0  0  0  0
    6.3480   -9.6335   12.5018 C   0  0  0  0  0  0  0  0  0  0  0  0
    7.7298   -9.6308   12.2804 C   0  0  0  0  0  0  0  0  0  0  0  0
    8.6116   -9.0429   13.1985 C   0  0  0  0  0  0  0  0  0  0  0  0
   10.2942   -9.1708   12.8352 Cl  0  0  0  0  0  0  0  0  0  0  0  0
    8.1171   -8.4065   14.3391 C   0  0  0  0  0  0  0  0  0  0  0  0
    8.9658   -7.6320   15.3173 C   0  0  0  0  0  0  0  0  0  0  0  0
   10.2865   -7.5204   15.0153 F   0  0  0  0  0  0  0  0  0  0  0  0
    8.5303   -6.3462   15.4611 F   0  0  0  0  0  0  0  0  0  0  0  0
    8.9259   -8.1696   16.5710 F   0  0  0  0  0  0  0  0  0  0  0  0
    6.7189   -8.4443   14.5630 C   0  0  0  0  0  0  0  0  0  0  0  0
    0.2910   -6.5444   14.1824 C   0  0  0  0  0  0  0  0  0  0  0  0
   -0.4908   -5.3633   14.2260 C   0  0  0  0  0  0  0  0  0  0  0  0
   -0.6588   -0.6117   14.3746 C   0  0  0  0  0  0  0  0  0  0  0  0
   -0.1706    0.5940   13.8949 C   0  0  0  0  0  0  0  0  0  0  0  0
    0.7419    0.7019   12.9052 N   0  0  0  0  0  0  0  0  0  0  0  0
   -7.1010   -0.1445    2.9537 N   0  0  0  0  0  0  0  0  0  0  0  0
   -7.7251   -0.6663    1.8023 O   0  0  0  0  0  0  0  0  0  0  0  0
   -6.0708   -0.1445    5.3915 H   0  0  0  0  0  0  0  0  0  0  0  0
   -5.1229    0.9451    4.3536 H   0  0  0  0  0  0  0  0  0  0  0  0
   -3.3179   -0.7879    4.2024 H   0  0  0  0  0  0  0  0  0  0  0  0
   -4.2586   -1.8655    5.2291 H   0  0  0  0  0  0  0  0  0  0  0  0
   -4.1658   -0.1819    7.0866 H   0  0  0  0  0  0  0  0  0  0  0  0
   -3.2249    0.9002    6.0570 H   0  0  0  0  0  0  0  0  0  0  0  0
   -1.4431   -0.8510    5.8458 H   0  0  0  0  0  0  0  0  0  0  0  0
   -2.3830   -1.9311    6.8791 H   0  0  0  0  0  0  0  0  0  0  0  0
   -2.2598   -0.2654    8.7370 H   0  0  0  0  0  0  0  0  0  0  0  0
   -1.3304    0.8238    7.7057 H   0  0  0  0  0  0  0  0  0  0  0  0
    0.4571   -0.9301    7.4717 H   0  0  0  0  0  0  0  0  0  0  0  0
   -0.4763   -2.0047    8.5211 H   0  0  0  0  0  0  0  0  0  0  0  0
   -0.4123   -0.3074   10.3238 H   0  0  0  0  0  0  0  0  0  0  0  0
    0.5627    0.7726    9.3122 H   0  0  0  0  0  0  0  0  0  0  0  0
    2.2533   -0.9158    9.1894 H   0  0  0  0  0  0  0  0  0  0  0  0
    2.3962    0.6770   10.9612 H   0  0  0  0  0  0  0  0  0  0  0  0
    3.0430   -0.8942   11.4186 H   0  0  0  0  0  0  0  0  0  0  0  0
    1.0337   -2.5834   12.1933 H   0  0  0  0  0  0  0  0  0  0  0  0
    2.0318   -3.1089   14.5009 H   0  0  0  0  0  0  0  0  0  0  0  0
    3.3366   -5.0517   14.3107 H   0  0  0  0  0  0  0  0  0  0  0  0
    1.9827   -8.5414   14.0116 H   0  0  0  0  0  0  0  0  0  0  0  0
    3.8588   -9.5601   13.2385 H   0  0  0  0  0  0  0  0  0  0  0  0
    5.6937  -10.0360   11.7343 H   0  0  0  0  0  0  0  0  0  0  0  0
    8.1197  -10.0668   11.3623 H   0  0  0  0  0  0  0  0  0  0  0  0
    6.3194   -7.9647   15.4584 H   0  0  0  0  0  0  0  0  0  0  0  0
   -0.2288   -7.4995   14.1409 H   0  0  0  0  0  0  0  0  0  0  0  0
   -1.5754   -5.4297   14.2052 H   0  0  0  0  0  0  0  0  0  0  0  0
   -1.3864   -0.6298   15.1775 H   0  0  0  0  0  0  0  0  0  0  0  0
   -0.5205    1.5406   14.2965 H   0  0  0  0  0  0  0  0  0  0  0  0
   -7.5127    0.6739    3.3805 H   0  0  0  0  0  0  0  0  0  0  0  0
   -7.1164   -1.4068    1.5565 H   0  0  0  0  0  0  0  0  0  0  0  0
  1  2  2  0  0  0  0
  2  3  1  0  0  0  0
  2 40  1  0  0  0  0
  3  4  1  0  0  0  0
  3 42  1  0  0  0  0
  3 43  1  0  0  0  0
  4  5  1  0  0  0  0
  4 44  1  0  0  0  0
  4 45  1  0  0  0  0
  5  6  1  0  0  0  0
  5 46  1  0  0  0  0
  5 47  1  0  0  0  0
  6  7  1  0  0  0  0
  6 48  1  0  0  0  0
  6 49  1  0  0  0  0
  7  8  1  0  0  0  0
  7 50  1  0  0  0  0
  7 51  1  0  0  0  0
  8  9  1  0  0  0  0
  8 52  1  0  0  0  0
  8 53  1  0  0  0  0
  9 10  1  0  0  0  0
  9 54  1  0  0  0  0
  9 55  1  0  0  0  0
 10 11  1  0  0  0  0
 10 56  1  0  0  0  0
 11 12  1  0  0  0  0
 11 57  1  0  0  0  0
 11 58  1  0  0  0  0
 12 13  1  0  0  0  0
 12 39  2  0  0  0  0
 13 14  2  0  0  0  0
 13 59  1  0  0  0  0
 14 15  1  0  0  0  0
 14 37  1  0  0  0  0
 15 16  1  0  0  0  0
 16 17  1  0  0  0  0
 16 36  2  0  0  0  0
 17 18  2  0  0  0  0
 17 60  1  0  0  0  0
 18 19  1  0  0  0  0
 18 61  1  0  0  0  0
 19 20  1  0  0  0  0
 19 35  2  0  0  0  0
 20 21  1  0  0  0  0
 20 62  1  0  0  0  0
 21 22  2  0  0  0  0
 21 23  1  0  0  0  0
 23 24  1  0  0  0  0
 23 63  1  0  0  0  0
 24 25  1  0  0  0  0
 24 34  2  0  0  0  0
 25 26  2  0  0  0  0
 25 64  1  0  0  0  0
 26 27  1  0  0  0  0
 26 65  1  0  0  0  0
 27 28  1  0  0  0  0
 27 29  2  0  0  0  0
 29 30  1  0  0  0  0
 29 34  1  0  0  0  0
 30 31  1  0  0  0  0
 30 32  1  0  0  0  0
 30 33  1  0  0  0  0
 34 66  1  0  0  0  0
 35 36  1  0  0  0  0
 35 67  1  0  0  0  0
 36 68  1  0  0  0  0
 37 38  2  0  0  0  0
 37 69  1  0  0  0  0
 38 39  1  0  0  0  0
 38 70  1  0  0  0  0
 40 41  1  0  0  0  0
 40 71  1  0  0  0  0
 41 72  1  0  0  0  0
M  END
$$$$
