CHEMBL446367
 OpenBabel04072215383D

 55 59  0  0  0  0  0  0  0  0999 V2000
   11.0350   -3.9261   -8.0683 C   0  0  0  0  0  0  0  0  0  0  0  0
    9.7175   -3.4361   -8.3156 O   0  0  0  0  0  0  0  0  0  0  0  0
    8.8288   -3.6078   -7.2822 C   0  0  0  0  0  0  0  0  0  0  0  0
    9.2505   -3.5847   -5.9395 C   0  0  0  0  0  0  0  0  0  0  0  0
    8.3897   -3.8085   -4.8747 C   0  0  0  0  0  0  0  0  0  0  0  0
    8.9206   -3.8626   -3.6412 N   0  0  0  0  0  0  0  0  0  0  0  0
    8.1042   -4.1468   -2.6077 C   0  0  0  0  0  0  0  0  0  0  0  0
    6.7503   -4.3637   -2.7429 C   0  0  0  0  0  0  0  0  0  0  0  0
    6.1979   -4.2770   -4.0171 C   0  0  0  0  0  0  0  0  0  0  0  0
    4.8785   -4.6829   -4.0901 O   0  0  0  0  0  0  0  0  0  0  0  0
    3.9373   -3.9047   -4.7542 C   0  0  0  0  0  0  0  0  0  0  0  0
    2.7716   -4.5679   -5.1054 C   0  0  0  0  0  0  0  0  0  0  0  0
    1.7643   -3.8727   -5.7839 C   0  0  0  0  0  0  0  0  0  0  0  0
    0.5715   -4.5290   -6.1396 C   0  0  0  0  0  0  0  0  0  0  0  0
   -0.4492   -3.8567   -6.8066 C   0  0  0  0  0  0  0  0  0  0  0  0
   -0.2961   -2.5156   -7.1403 C   0  0  0  0  0  0  0  0  0  0  0  0
    0.8882   -1.8387   -6.8042 C   0  0  0  0  0  0  0  0  0  0  0  0
    1.0499   -0.4315   -7.2606 C   0  0  0  0  0  0  0  0  0  0  0  0
    2.1186   -0.1232   -7.7723 O   0  0  0  0  0  0  0  0  0  0  0  0
   -0.0303    0.4178   -7.0382 N   0  0  0  0  0  0  0  0  0  0  0  0
   -0.0607    1.8043   -7.3170 C   0  0  0  0  0  0  0  0  0  0  0  0
    0.9375    2.4618   -8.0424 C   0  0  0  0  0  0  0  0  0  0  0  0
    0.9097    3.8495   -8.2117 C   0  0  0  0  0  0  0  0  0  0  0  0
   -0.1298    4.5925   -7.6679 C   0  0  0  0  0  0  0  0  0  0  0  0
   -0.1355    6.3031   -7.8319 Cl  0  0  0  0  0  0  0  0  0  0  0  0
   -1.1582    3.9491   -6.9840 C   0  0  0  0  0  0  0  0  0  0  0  0
   -1.1292    2.5582   -6.8160 C   0  0  0  0  0  0  0  0  0  0  0  0
    1.9461   -2.5134   -6.1158 C   0  0  0  0  0  0  0  0  0  0  0  0
    3.1821   -1.9574   -5.7125 C   0  0  0  0  0  0  0  0  0  0  0  0
    4.1602   -2.6074   -5.0226 N   0  0  0  0  0  0  0  0  0  0  0  0
    7.0241   -4.0202   -5.1350 C   0  0  0  0  0  0  0  0  0  0  0  0
    6.5980   -3.9992   -6.4838 C   0  0  0  0  0  0  0  0  0  0  0  0
    7.4726   -3.7963   -7.5542 C   0  0  0  0  0  0  0  0  0  0  0  0
    6.8081   -3.8526   -8.7455 O   0  0  0  0  0  0  0  0  0  0  0  0
    7.4925   -3.7244   -9.9766 C   0  0  0  0  0  0  0  0  0  0  0  0
   11.5199   -4.0964   -9.0337 H   0  0  0  0  0  0  0  0  0  0  0  0
   11.0278   -4.8856   -7.5327 H   0  0  0  0  0  0  0  0  0  0  0  0
   11.6234   -3.1811   -7.5251 H   0  0  0  0  0  0  0  0  0  0  0  0
   10.2925   -3.4041   -5.6910 H   0  0  0  0  0  0  0  0  0  0  0  0
    8.5929   -4.2225   -1.6403 H   0  0  0  0  0  0  0  0  0  0  0  0
    6.1456   -4.6221   -1.8822 H   0  0  0  0  0  0  0  0  0  0  0  0
    2.6662   -5.6195   -4.8571 H   0  0  0  0  0  0  0  0  0  0  0  0
    0.4388   -5.5850   -5.9050 H   0  0  0  0  0  0  0  0  0  0  0  0
   -1.3551   -4.3914   -7.0860 H   0  0  0  0  0  0  0  0  0  0  0  0
   -1.0865   -2.0181   -7.6977 H   0  0  0  0  0  0  0  0  0  0  0  0
   -0.8201    0.0449   -6.5222 H   0  0  0  0  0  0  0  0  0  0  0  0
    1.7650    1.9254   -8.4960 H   0  0  0  0  0  0  0  0  0  0  0  0
    1.7133    4.3345   -8.7599 H   0  0  0  0  0  0  0  0  0  0  0  0
   -1.9775    4.5293   -6.5645 H   0  0  0  0  0  0  0  0  0  0  0  0
   -1.9394    2.0878   -6.2646 H   0  0  0  0  0  0  0  0  0  0  0  0
    3.4394   -0.9251   -5.9421 H   0  0  0  0  0  0  0  0  0  0  0  0
    5.5507   -4.1487   -6.7266 H   0  0  0  0  0  0  0  0  0  0  0  0
    6.8390   -4.1564  -10.7428 H   0  0  0  0  0  0  0  0  0  0  0  0
    8.4233   -4.2912  -10.0180 H   0  0  0  0  0  0  0  0  0  0  0  0
    7.6399   -2.6694  -10.2242 H   0  0  0  0  0  0  0  0  0  0  0  0
  1  2  1  0  0  0  0
  1 36  1  0  0  0  0
  1 37  1  0  0  0  0
  1 38  1  0  0  0  0
  2  3  1  0  0  0  0
  3  4  1  0  0  0  0
  3 33  2  0  0  0  0
  4  5  2  0  0  0  0
  4 39  1  0  0  0  0
  5  6  1  0  0  0  0
  5 31  1  0  0  0  0
  6  7  2  0  0  0  0
  7  8  1  0  0  0  0
  7 40  1  0  0  0  0
  8  9  2  0  0  0  0
  8 41  1  0  0  0  0
  9 10  1  0  0  0  0
  9 31  1  0  0  0  0
 10 11  1  0  0  0  0
 11 12  1  0  0  0  0
 11 30  2  0  0  0  0
 12 13  2  0  0  0  0
 12 42  1  0  0  0  0
 13 14  1  0  0  0  0
 13 28  1  0  0  0  0
 14 15  2  0  0  0  0
 14 43  1  0  0  0  0
 15 16  1  0  0  0  0
 15 44  1  0  0  0  0
 16 17  2  0  0  0  0
 16 45  1  0  0  0  0
 17 18  1  0  0  0  0
 17 28  1  0  0  0  0
 18 19  2  0  0  0  0
 18 20  1  0  0  0  0
 20 21  1  0  0  0  0
 20 46  1  0  0  0  0
 21 22  1  0  0  0  0
 21 27  2  0  0  0  0
 22 23  2  0  0  0  0
 22 47  1  0  0  0  0
 23 24  1  0  0  0  0
 23 48  1  0  0  0  0
 24 25  1  0  0  0  0
 24 26  2  0  0  0  0
 26 27  1  0  0  0  0
 26 49  1  0  0  0  0
 27 50  1  0  0  0  0
 28 29  2  0  0  0  0
 29 30  1  0  0  0  0
 29 51  1  0  0  0  0
 31 32  2  0  0  0  0
 32 33  1  0  0  0  0
 32 52  1  0  0  0  0
 33 34  1  0  0  0  0
 34 35  1  0  0  0  0
 35 53  1  0  0  0  0
 35 54  1  0  0  0  0
 35 55  1  0  0  0  0
M  END
$$$$
