CHEMBL3671547
 OpenBabel04072215373D

 52 54  0  0  0  0  0  0  0  0999 V2000
    2.4566    3.7423   -1.5543 C   0  0  0  0  0  0  0  0  0  0  0  0
    3.2348    3.3667   -0.3081 C   0  0  0  0  0  0  0  0  0  0  0  0
    3.6039    1.8900   -0.2567 C   0  0  0  0  0  0  0  0  0  0  0  0
    3.3170    1.0896   -1.1456 O   0  0  0  0  0  0  0  0  0  0  0  0
    4.3190    1.4458    0.8340 N   0  0  0  0  0  0  0  0  0  0  0  0
    4.8665    2.3061    1.7972 C   0  0  0  0  0  0  0  0  0  0  0  0
    6.0272    2.9957    1.4449 C   0  0  0  0  0  0  0  0  0  0  0  0
    6.4925    4.0643    2.2393 C   0  0  0  0  0  0  0  0  0  0  0  0
    7.5392    4.9286    1.8692 C   0  0  0  0  0  0  0  0  0  0  0  0
    8.1412    4.8077    0.5882 N   0  0  0  0  0  0  0  0  0  0  0  0
    8.8901    5.8344   -0.0393 C   0  0  0  0  0  0  0  0  0  0  0  0
    8.4555    7.1683   -0.0173 C   0  0  0  0  0  0  0  0  0  0  0  0
    9.2378    8.1869   -0.5666 C   0  0  0  0  0  0  0  0  0  0  0  0
   10.4574    7.8743   -1.1617 C   0  0  0  0  0  0  0  0  0  0  0  0
   11.5480    9.2632   -1.8350 Br  0  0  0  0  0  0  0  0  0  0  0  0
   10.8840    6.5515   -1.2484 C   0  0  0  0  0  0  0  0  0  0  0  0
   10.0922    5.5461   -0.6980 C   0  0  0  0  0  0  0  0  0  0  0  0
   10.5123    4.2730   -0.7717 F   0  0  0  0  0  0  0  0  0  0  0  0
    7.9429    5.9306    2.6730 N   0  0  0  0  0  0  0  0  0  0  0  0
    7.2860    6.0878    3.8221 C   0  0  0  0  0  0  0  0  0  0  0  0
    6.2362    5.3666    4.2399 N   0  0  0  0  0  0  0  0  0  0  0  0
    5.8334    4.3739    3.4427 C   0  0  0  0  0  0  0  0  0  0  0  0
    4.7038    3.6370    3.7933 C   0  0  0  0  0  0  0  0  0  0  0  0
    4.2040    2.6010    2.9937 C   0  0  0  0  0  0  0  0  0  0  0  0
    3.0525    2.0008    3.4560 O   0  0  0  0  0  0  0  0  0  0  0  0
    3.0034    0.5767    3.2823 C   0  0  0  0  0  0  0  0  0  0  0  0
    1.8409   -0.0485    4.0644 C   0  0  0  0  0  0  0  0  0  0  0  0
    1.7311   -1.4810    3.8088 N   0  0  0  0  0  0  0  0  0  0  0  0
    2.5186   -2.3957    4.4696 C   0  0  0  0  0  0  0  0  0  0  0  0
    2.3767   -3.8156    3.9827 C   0  0  0  0  0  0  0  0  0  0  0  0
    3.2764   -2.0960    5.3847 O   0  0  0  0  0  0  0  0  0  0  0  0
    2.3473    4.8303   -1.6120 H   0  0  0  0  0  0  0  0  0  0  0  0
    1.4582    3.2957   -1.5437 H   0  0  0  0  0  0  0  0  0  0  0  0
    2.9712    3.4065   -2.4607 H   0  0  0  0  0  0  0  0  0  0  0  0
    2.6586    3.6368    0.5823 H   0  0  0  0  0  0  0  0  0  0  0  0
    4.1633    3.9468   -0.3173 H   0  0  0  0  0  0  0  0  0  0  0  0
    4.8274    0.5972    0.6145 H   0  0  0  0  0  0  0  0  0  0  0  0
    6.5132    2.7657    0.5001 H   0  0  0  0  0  0  0  0  0  0  0  0
    8.5769    3.8973    0.4717 H   0  0  0  0  0  0  0  0  0  0  0  0
    7.5087    7.4246    0.4526 H   0  0  0  0  0  0  0  0  0  0  0  0
    8.8911    9.2153   -0.5054 H   0  0  0  0  0  0  0  0  0  0  0  0
   11.8269    6.2921   -1.7174 H   0  0  0  0  0  0  0  0  0  0  0  0
    7.6302    6.8840    4.4739 H   0  0  0  0  0  0  0  0  0  0  0  0
    4.1818    3.9017    4.7088 H   0  0  0  0  0  0  0  0  0  0  0  0
    3.9503    0.1233    3.5994 H   0  0  0  0  0  0  0  0  0  0  0  0
    2.8168    0.3389    2.2328 H   0  0  0  0  0  0  0  0  0  0  0  0
    0.8919    0.4083    3.7620 H   0  0  0  0  0  0  0  0  0  0  0  0
    1.9591    0.1261    5.1392 H   0  0  0  0  0  0  0  0  0  0  0  0
    1.1767   -1.7868    3.0189 H   0  0  0  0  0  0  0  0  0  0  0  0
    1.9397   -3.8576    2.9813 H   0  0  0  0  0  0  0  0  0  0  0  0
    1.7475   -4.3804    4.6751 H   0  0  0  0  0  0  0  0  0  0  0  0
    3.3695   -4.2747    3.9347 H   0  0  0  0  0  0  0  0  0  0  0  0
  1  2  1  0  0  0  0
  1 32  1  0  0  0  0
  1 33  1  0  0  0  0
  1 34  1  0  0  0  0
  2  3  1  0  0  0  0
  2 35  1  0  0  0  0
  2 36  1  0  0  0  0
  3  4  2  0  0  0  0
  3  5  1  0  0  0  0
  5  6  1  0  0  0  0
  5 37  1  0  0  0  0
  6  7  1  0  0  0  0
  6 24  2  0  0  0  0
  7  8  2  0  0  0  0
  7 38  1  0  0  0  0
  8  9  1  0  0  0  0
  8 22  1  0  0  0  0
  9 10  1  0  0  0  0
  9 19  2  0  0  0  0
 10 11  1  0  0  0  0
 10 39  1  0  0  0  0
 11 12  1  0  0  0  0
 11 17  2  0  0  0  0
 12 13  2  0  0  0  0
 12 40  1  0  0  0  0
 13 14  1  0  0  0  0
 13 41  1  0  0  0  0
 14 15  1  0  0  0  0
 14 16  2  0  0  0  0
 16 17  1  0  0  0  0
 16 42  1  0  0  0  0
 17 18  1  0  0  0  0
 19 20  1  0  0  0  0
 20 21  2  0  0  0  0
 20 43  1  0  0  0  0
 21 22  1  0  0  0  0
 22 23  2  0  0  0  0
 23 24  1  0  0  0  0
 23 44  1  0  0  0  0
 24 25  1  0  0  0  0
 25 26  1  0  0  0  0
 26 27  1  0  0  0  0
 26 45  1  0  0  0  0
 26 46  1  0  0  0  0
 27 28  1  0  0  0  0
 27 47  1  0  0  0  0
 27 48  1  0  0  0  0
 28 29  1  0  0  0  0
 28 49  1  0  0  0  0
 29 30  1  0  0  0  0
 29 31  2  0  0  0  0
 30 50  1  0  0  0  0
 30 51  1  0  0  0  0
 30 52  1  0  0  0  0
M  END
$$$$
