CHEMBL1761940
 OpenBabel04072215363D

 54 57  0  0  0  0  0  0  0  0999 V2000
   10.0692   -4.7165   -0.9186 C   0  0  0  0  0  0  0  0  0  0  0  0
   10.1434   -4.4670   -2.3275 O   0  0  0  0  0  0  0  0  0  0  0  0
    9.0652   -3.8132   -2.8660 C   0  0  0  0  0  0  0  0  0  0  0  0
    8.3256   -2.8962   -2.1024 C   0  0  0  0  0  0  0  0  0  0  0  0
    7.1405   -2.3350   -2.5543 C   0  0  0  0  0  0  0  0  0  0  0  0
    6.4462   -1.5705   -1.7062 N   0  0  0  0  0  0  0  0  0  0  0  0
    5.2599   -1.1250   -2.1294 C   0  0  0  0  0  0  0  0  0  0  0  0
    4.7197   -1.3622   -3.3207 N   0  0  0  0  0  0  0  0  0  0  0  0
    5.4708   -2.0752   -4.1890 C   0  0  0  0  0  0  0  0  0  0  0  0
    4.9651   -2.3075   -5.4721 O   0  0  0  0  0  0  0  0  0  0  0  0
    3.9941   -1.4425   -5.9276 C   0  0  0  0  0  0  0  0  0  0  0  0
    4.1135   -0.0647   -5.7752 C   0  0  0  0  0  0  0  0  0  0  0  0
    3.0541    0.7711   -6.1069 C   0  0  0  0  0  0  0  0  0  0  0  0
    1.8747    0.2675   -6.6673 C   0  0  0  0  0  0  0  0  0  0  0  0
    0.7406    1.0820   -6.9233 N   0  0  0  0  0  0  0  0  0  0  0  0
    0.6596    2.4460   -6.6816 C   0  0  0  0  0  0  0  0  0  0  0  0
    1.5918    3.1521   -6.3125 O   0  0  0  0  0  0  0  0  0  0  0  0
   -0.6285    2.9453   -6.8483 N   0  0  0  0  0  0  0  0  0  0  0  0
   -0.8604    4.3303   -6.6395 C   0  0  0  0  0  0  0  0  0  0  0  0
   -0.0070    5.2940   -7.1905 C   0  0  0  0  0  0  0  0  0  0  0  0
   -0.1668    6.6472   -6.8854 C   0  0  0  0  0  0  0  0  0  0  0  0
   -1.1848    7.0608   -6.0188 C   0  0  0  0  0  0  0  0  0  0  0  0
   -1.3332    8.5128   -5.6352 C   0  0  0  0  0  0  0  0  0  0  0  0
   -0.4281    9.3353   -6.2384 F   0  0  0  0  0  0  0  0  0  0  0  0
   -2.5587    9.0120   -5.9554 F   0  0  0  0  0  0  0  0  0  0  0  0
   -1.1856    8.7182   -4.2965 F   0  0  0  0  0  0  0  0  0  0  0  0
   -2.0609    6.0928   -5.4966 C   0  0  0  0  0  0  0  0  0  0  0  0
   -1.9156    4.7374   -5.8231 C   0  0  0  0  0  0  0  0  0  0  0  0
    1.8087   -1.1039   -6.9400 C   0  0  0  0  0  0  0  0  0  0  0  0
    2.8648   -1.9588   -6.5705 C   0  0  0  0  0  0  0  0  0  0  0  0
    6.7132   -2.6273   -3.8496 C   0  0  0  0  0  0  0  0  0  0  0  0
    7.5212   -3.4314   -4.6807 C   0  0  0  0  0  0  0  0  0  0  0  0
    8.6843   -4.0474   -4.1930 C   0  0  0  0  0  0  0  0  0  0  0  0
    9.2658   -4.8404   -5.1415 O   0  0  0  0  0  0  0  0  0  0  0  0
   10.3437   -5.6923   -4.7943 C   0  0  0  0  0  0  0  0  0  0  0  0
   10.5743   -5.6641   -0.7096 H   0  0  0  0  0  0  0  0  0  0  0  0
    9.0414   -4.8184   -0.5474 H   0  0  0  0  0  0  0  0  0  0  0  0
   10.5903   -3.9212   -0.3757 H   0  0  0  0  0  0  0  0  0  0  0  0
    8.6463   -2.6218   -1.0995 H   0  0  0  0  0  0  0  0  0  0  0  0
    4.6843   -0.5180   -1.4393 H   0  0  0  0  0  0  0  0  0  0  0  0
    5.0018    0.3749   -5.3164 H   0  0  0  0  0  0  0  0  0  0  0  0
    3.1872    1.8215   -5.8731 H   0  0  0  0  0  0  0  0  0  0  0  0
   -0.0592    0.6435   -7.3551 H   0  0  0  0  0  0  0  0  0  0  0  0
   -1.3622    2.3184   -6.5527 H   0  0  0  0  0  0  0  0  0  0  0  0
    0.8117    4.9972   -7.8420 H   0  0  0  0  0  0  0  0  0  0  0  0
    0.5294    7.3691   -7.3095 H   0  0  0  0  0  0  0  0  0  0  0  0
   -2.8476    6.3924   -4.8053 H   0  0  0  0  0  0  0  0  0  0  0  0
   -2.5835    4.0111   -5.3696 H   0  0  0  0  0  0  0  0  0  0  0  0
    0.9300   -1.5407   -7.4113 H   0  0  0  0  0  0  0  0  0  0  0  0
    2.7901   -3.0309   -6.7555 H   0  0  0  0  0  0  0  0  0  0  0  0
    7.2204   -3.6206   -5.7096 H   0  0  0  0  0  0  0  0  0  0  0  0
   10.4624   -6.4057   -5.6176 H   0  0  0  0  0  0  0  0  0  0  0  0
   10.1398   -6.2833   -3.8979 H   0  0  0  0  0  0  0  0  0  0  0  0
   11.2757   -5.1258   -4.7120 H   0  0  0  0  0  0  0  0  0  0  0  0
  1  2  1  0  0  0  0
  1 36  1  0  0  0  0
  1 37  1  0  0  0  0
  1 38  1  0  0  0  0
  2  3  1  0  0  0  0
  3  4  1  0  0  0  0
  3 33  2  0  0  0  0
  4  5  2  0  0  0  0
  4 39  1  0  0  0  0
  5  6  1  0  0  0  0
  5 31  1  0  0  0  0
  6  7  2  0  0  0  0
  7  8  1  0  0  0  0
  7 40  1  0  0  0  0
  8  9  2  0  0  0  0
  9 10  1  0  0  0  0
  9 31  1  0  0  0  0
 10 11  1  0  0  0  0
 11 12  1  0  0  0  0
 11 30  2  0  0  0  0
 12 13  2  0  0  0  0
 12 41  1  0  0  0  0
 13 14  1  0  0  0  0
 13 42  1  0  0  0  0
 14 15  1  0  0  0  0
 14 29  2  0  0  0  0
 15 16  1  0  0  0  0
 15 43  1  0  0  0  0
 16 17  2  0  0  0  0
 16 18  1  0  0  0  0
 18 19  1  0  0  0  0
 18 44  1  0  0  0  0
 19 20  1  0  0  0  0
 19 28  2  0  0  0  0
 20 21  2  0  0  0  0
 20 45  1  0  0  0  0
 21 22  1  0  0  0  0
 21 46  1  0  0  0  0
 22 23  1  0  0  0  0
 22 27  2  0  0  0  0
 23 24  1  0  0  0  0
 23 25  1  0  0  0  0
 23 26  1  0  0  0  0
 27 28  1  0  0  0  0
 27 47  1  0  0  0  0
 28 48  1  0  0  0  0
 29 30  1  0  0  0  0
 29 49  1  0  0  0  0
 30 50  1  0  0  0  0
 31 32  2  0  0  0  0
 32 33  1  0  0  0  0
 32 51  1  0  0  0  0
 33 34  1  0  0  0  0
 34 35  1  0  0  0  0
 35 52  1  0  0  0  0
 35 53  1  0  0  0  0
 35 54  1  0  0  0  0
M  END
$$$$
