CHEMBL3908978
 OpenBabel04072215373D

 52 56  0  0  0  0  0  0  0  0999 V2000
   -0.6575    1.5615    1.5082 C   0  0  0  0  0  0  0  0  0  0  0  0
    0.0628    0.6587    0.6450 N   0  0  0  0  0  0  0  0  0  0  0  0
    1.1524   -0.0888    0.9694 C   0  0  0  0  0  0  0  0  0  0  0  0
    1.4815   -0.8083   -0.1622 C   0  0  0  0  0  0  0  0  0  0  0  0
    2.6066   -1.7213   -0.2527 C   0  0  0  0  0  0  0  0  0  0  0  0
    2.8912   -2.4357   -1.4049 C   0  0  0  0  0  0  0  0  0  0  0  0
    3.9659   -3.2539   -1.5155 N   0  0  0  0  0  0  0  0  0  0  0  0
    4.7855   -3.2943   -0.4468 C   0  0  0  0  0  0  0  0  0  0  0  0
    5.9257   -4.0684   -0.4767 C   0  0  0  0  0  0  0  0  0  0  0  0
    6.8366   -4.0425    0.5864 C   0  0  0  0  0  0  0  0  0  0  0  0
    6.6890   -3.1830    1.6840 C   0  0  0  0  0  0  0  0  0  0  0  0
    7.7096   -3.0035    2.6604 N   0  0  0  0  0  0  0  0  0  0  0  0
    7.6181   -1.8222    3.5738 C   0  0  0  0  0  0  0  0  0  0  0  0
    8.3827   -0.6241    3.0592 C   0  0  0  0  0  0  0  0  0  0  0  0
    8.4609    0.6163    3.9248 C   0  0  0  0  0  0  0  0  0  0  0  0
    7.6933    0.6507    2.6348 C   0  0  0  0  0  0  0  0  0  0  0  0
    9.0267   -3.5673    2.6508 C   0  0  0  0  0  0  0  0  0  0  0  0
    9.7586   -3.7449    1.4655 C   0  0  0  0  0  0  0  0  0  0  0  0
   10.9979   -4.3871    1.4568 C   0  0  0  0  0  0  0  0  0  0  0  0
   11.5910   -4.7749    2.6533 C   0  0  0  0  0  0  0  0  0  0  0  0
   10.9458   -4.5055    3.8576 C   0  0  0  0  0  0  0  0  0  0  0  0
   11.4575   -4.7662    5.0992 O   0  0  0  0  0  0  0  0  0  0  0  0
   12.8743   -4.7305    5.1934 C   0  0  0  0  0  0  0  0  0  0  0  0
   13.3316   -3.5251    4.7703 F   0  0  0  0  0  0  0  0  0  0  0  0
   13.1951   -4.8240    6.5092 F   0  0  0  0  0  0  0  0  0  0  0  0
    9.6588   -3.9531    3.8467 C   0  0  0  0  0  0  0  0  0  0  0  0
    5.4418   -2.5453    1.7616 C   0  0  0  0  0  0  0  0  0  0  0  0
    4.5175   -2.5532    0.7195 C   0  0  0  0  0  0  0  0  0  0  0  0
    3.4089   -1.7999    0.8359 N   0  0  0  0  0  0  0  0  0  0  0  0
    0.5234   -0.4058   -1.1134 C   0  0  0  0  0  0  0  0  0  0  0  0
   -0.3464    0.4884   -0.6265 N   0  0  0  0  0  0  0  0  0  0  0  0
   -0.1293    1.6529    2.4608 H   0  0  0  0  0  0  0  0  0  0  0  0
   -1.6567    1.1504    1.6713 H   0  0  0  0  0  0  0  0  0  0  0  0
   -0.7163    2.5378    1.0207 H   0  0  0  0  0  0  0  0  0  0  0  0
    1.6031   -0.0531    1.9531 H   0  0  0  0  0  0  0  0  0  0  0  0
    2.2785   -2.3700   -2.2961 H   0  0  0  0  0  0  0  0  0  0  0  0
    6.1333   -4.6804   -1.3505 H   0  0  0  0  0  0  0  0  0  0  0  0
    7.6911   -4.7118    0.4985 H   0  0  0  0  0  0  0  0  0  0  0  0
    8.0117   -2.0761    4.5648 H   0  0  0  0  0  0  0  0  0  0  0  0
    6.5889   -1.5346    3.8029 H   0  0  0  0  0  0  0  0  0  0  0  0
    9.2969   -0.8962    2.5470 H   0  0  0  0  0  0  0  0  0  0  0  0
    9.4069    1.1473    3.9720 H   0  0  0  0  0  0  0  0  0  0  0  0
    7.8959    0.6453    4.8484 H   0  0  0  0  0  0  0  0  0  0  0  0
    8.1255    1.2121    1.8125 H   0  0  0  0  0  0  0  0  0  0  0  0
    6.6128    0.7109    2.6859 H   0  0  0  0  0  0  0  0  0  0  0  0
    9.3750   -3.3751    0.5180 H   0  0  0  0  0  0  0  0  0  0  0  0
   11.5021   -4.5733    0.5117 H   0  0  0  0  0  0  0  0  0  0  0  0
   12.5514   -5.2756    2.6070 H   0  0  0  0  0  0  0  0  0  0  0  0
   13.3651   -5.5467    4.6551 H   0  0  0  0  0  0  0  0  0  0  0  0
    9.1534   -3.8265    4.7999 H   0  0  0  0  0  0  0  0  0  0  0  0
    5.1347   -1.9922    2.6403 H   0  0  0  0  0  0  0  0  0  0  0  0
    0.4166   -0.7114   -2.1461 H   0  0  0  0  0  0  0  0  0  0  0  0
  1  2  1  0  0  0  0
  1 32  1  0  0  0  0
  1 33  1  0  0  0  0
  1 34  1  0  0  0  0
  2  3  1  0  0  0  0
  2 31  1  0  0  0  0
  3  4  2  0  0  0  0
  3 35  1  0  0  0  0
  4  5  1  0  0  0  0
  4 30  1  0  0  0  0
  5  6  1  0  0  0  0
  5 29  2  0  0  0  0
  6  7  2  0  0  0  0
  6 36  1  0  0  0  0
  7  8  1  0  0  0  0
  8  9  1  0  0  0  0
  8 28  2  0  0  0  0
  9 10  2  0  0  0  0
  9 37  1  0  0  0  0
 10 11  1  0  0  0  0
 10 38  1  0  0  0  0
 11 12  1  0  0  0  0
 11 27  2  0  0  0  0
 12 13  1  0  0  0  0
 12 17  1  0  0  0  0
 13 14  1  0  0  0  0
 13 39  1  0  0  0  0
 13 40  1  0  0  0  0
 14 15  1  0  0  0  0
 14 16  1  0  0  0  0
 14 41  1  0  0  0  0
 15 16  1  0  0  0  0
 15 42  1  0  0  0  0
 15 43  1  0  0  0  0
 16 44  1  0  0  0  0
 16 45  1  0  0  0  0
 17 18  1  0  0  0  0
 17 26  2  0  0  0  0
 18 19  2  0  0  0  0
 18 46  1  0  0  0  0
 19 20  1  0  0  0  0
 19 47  1  0  0  0  0
 20 21  2  0  0  0  0
 20 48  1  0  0  0  0
 21 22  1  0  0  0  0
 21 26  1  0  0  0  0
 22 23  1  0  0  0  0
 23 24  1  0  0  0  0
 23 25  1  0  0  0  0
 23 49  1  0  0  0  0
 26 50  1  0  0  0  0
 27 28  1  0  0  0  0
 27 51  1  0  0  0  0
 28 29  1  0  0  0  0
 30 31  2  0  0  0  0
 30 52  1  0  0  0  0
M  END
$$$$
