CHEMBL4531912
 OpenBabel04072215383D

 68 71  0  0  0  0  0  0  0  0999 V2000
    2.9704   -0.8094   -0.8819 C   0  0  0  0  0  0  0  0  0  0  0  0
    2.2242    0.0744   -0.0410 O   0  0  0  0  0  0  0  0  0  0  0  0
    2.9471    0.9713    0.7013 C   0  0  0  0  0  0  0  0  0  0  0  0
    4.0659    1.5754    0.1336 C   0  0  0  0  0  0  0  0  0  0  0  0
    4.8944    2.4144    0.8928 C   0  0  0  0  0  0  0  0  0  0  0  0
    6.0802    2.9826    0.4136 C   0  0  0  0  0  0  0  0  0  0  0  0
    6.4423    2.7990   -0.9573 N   0  0  0  0  0  0  0  0  0  0  0  0
    7.7704    3.0033   -1.4174 C   0  0  0  0  0  0  0  0  0  0  0  0
    8.8304    2.3982   -0.7230 C   0  0  0  0  0  0  0  0  0  0  0  0
   10.1540    2.6901   -1.0422 C   0  0  0  0  0  0  0  0  0  0  0  0
   10.4217    3.5691   -2.0829 C   0  0  0  0  0  0  0  0  0  0  0  0
   11.6911    3.8926   -2.3560 F   0  0  0  0  0  0  0  0  0  0  0  0
    9.3954    4.1200   -2.8433 C   0  0  0  0  0  0  0  0  0  0  0  0
    8.0712    3.8282   -2.5158 C   0  0  0  0  0  0  0  0  0  0  0  0
    6.8084    4.5331   -3.4613 Cl  0  0  0  0  0  0  0  0  0  0  0  0
    6.8968    3.6841    1.2059 N   0  0  0  0  0  0  0  0  0  0  0  0
    6.5089    3.8585    2.4717 C   0  0  0  0  0  0  0  0  0  0  0  0
    5.3841    3.3921    3.0242 N   0  0  0  0  0  0  0  0  0  0  0  0
    4.5844    2.6714    2.2324 C   0  0  0  0  0  0  0  0  0  0  0  0
    3.4082    2.1553    2.7586 C   0  0  0  0  0  0  0  0  0  0  0  0
    2.5638    1.3232    2.0138 C   0  0  0  0  0  0  0  0  0  0  0  0
    1.4380    0.9370    2.7209 O   0  0  0  0  0  0  0  0  0  0  0  0
    0.6265    0.0098    2.0256 C   0  0  0  0  0  0  0  0  0  0  0  0
   -0.5560   -0.5639    2.7891 C   0  0  0  0  0  0  0  0  0  0  0  0
   -1.2562   -1.5022    1.9532 O   0  0  0  0  0  0  0  0  0  0  0  0
   -0.4712   -2.6043    1.4597 C   0  0  0  0  0  0  0  0  0  0  0  0
    0.0436   -3.5051    2.5794 C   0  0  0  0  0  0  0  0  0  0  0  0
   -1.1051   -4.0856    3.1847 O   0  0  0  0  0  0  0  0  0  0  0  0
   -0.8080   -4.8594    4.3338 C   0  0  0  0  0  0  0  0  0  0  0  0
   -2.1375   -5.3890    4.8645 C   0  0  0  0  0  0  0  0  0  0  0  0
   -1.9767   -6.2577    6.0124 N   0  0  0  0  0  0  0  0  0  0  0  0
   -1.9219   -5.7497    7.2917 C   0  0  0  0  0  0  0  0  0  0  0  0
   -2.0084   -4.5500    7.5398 O   0  0  0  0  0  0  0  0  0  0  0  0
   -1.7252   -6.7736    8.3815 C   0  0  0  0  0  0  0  0  0  0  0  0
   -2.8646   -6.8191    9.2685 N   0  0  0  0  0  0  0  0  0  0  0  0
   -3.3474   -5.8303   10.0737 C   0  0  0  0  0  0  0  0  0  0  0  0
   -4.4049   -6.2620   10.7246 N   0  0  0  0  0  0  0  0  0  0  0  0
   -4.5258   -7.5551   10.2729 C   0  0  0  0  0  0  0  0  0  0  0  0
   -5.6149   -8.4365   10.6702 N   0  3  0  0  0  0  0  0  0  0  0  0
   -6.4818   -7.9625   11.4208 O   0  0  0  0  0  0  0  0  0  0  0  0
   -5.6127   -9.5973   10.2288 O   0  5  0  0  0  0  0  0  0  0  0  0
   -3.5857   -7.9530    9.3960 N   0  0  0  0  0  0  0  0  0  0  0  0
    2.5964   -1.8262   -0.7271 H   0  0  0  0  0  0  0  0  0  0  0  0
    4.0461   -0.8316   -0.6750 H   0  0  0  0  0  0  0  0  0  0  0  0
    2.7960   -0.5316   -1.9251 H   0  0  0  0  0  0  0  0  0  0  0  0
    4.3268    1.3670   -0.8998 H   0  0  0  0  0  0  0  0  0  0  0  0
    5.7681    3.2805   -1.5518 H   0  0  0  0  0  0  0  0  0  0  0  0
    8.6204    1.7212    0.1020 H   0  0  0  0  0  0  0  0  0  0  0  0
   10.9673    2.2574   -0.4695 H   0  0  0  0  0  0  0  0  0  0  0  0
    9.6416    4.7849   -3.6645 H   0  0  0  0  0  0  0  0  0  0  0  0
    7.1831    4.4026    3.1202 H   0  0  0  0  0  0  0  0  0  0  0  0
    3.1490    2.3872    3.7905 H   0  0  0  0  0  0  0  0  0  0  0  0
    1.2731   -0.8369    1.7960 H   0  0  0  0  0  0  0  0  0  0  0  0
    0.2228    0.4720    1.1173 H   0  0  0  0  0  0  0  0  0  0  0  0
   -1.2615    0.2293    3.0605 H   0  0  0  0  0  0  0  0  0  0  0  0
   -0.2587   -1.0322    3.7332 H   0  0  0  0  0  0  0  0  0  0  0  0
    0.3454   -2.2548    0.8204 H   0  0  0  0  0  0  0  0  0  0  0  0
   -1.1296   -3.1816    0.8025 H   0  0  0  0  0  0  0  0  0  0  0  0
    0.6186   -2.9427    3.3228 H   0  0  0  0  0  0  0  0  0  0  0  0
    0.6830   -4.2949    2.1719 H   0  0  0  0  0  0  0  0  0  0  0  0
   -0.3014   -4.2460    5.0879 H   0  0  0  0  0  0  0  0  0  0  0  0
   -0.1487   -5.6886    4.0535 H   0  0  0  0  0  0  0  0  0  0  0  0
   -2.6511   -5.9602    4.0828 H   0  0  0  0  0  0  0  0  0  0  0  0
   -2.7949   -4.5497    5.1223 H   0  0  0  0  0  0  0  0  0  0  0  0
   -1.9691   -7.2572    5.8484 H   0  0  0  0  0  0  0  0  0  0  0  0
   -0.8420   -6.5057    8.9691 H   0  0  0  0  0  0  0  0  0  0  0  0
   -1.5685   -7.7728    7.9619 H   0  0  0  0  0  0  0  0  0  0  0  0
   -2.9152   -4.8385   10.1297 H   0  0  0  0  0  0  0  0  0  0  0  0
  1  2  1  0  0  0  0
  1 43  1  0  0  0  0
  1 44  1  0  0  0  0
  1 45  1  0  0  0  0
  2  3  1  0  0  0  0
  3  4  1  0  0  0  0
  3 21  2  0  0  0  0
  4  5  2  0  0  0  0
  4 46  1  0  0  0  0
  5  6  1  0  0  0  0
  5 19  1  0  0  0  0
  6  7  1  0  0  0  0
  6 16  2  0  0  0  0
  7  8  1  0  0  0  0
  7 47  1  0  0  0  0
  8  9  1  0  0  0  0
  8 14  2  0  0  0  0
  9 10  2  0  0  0  0
  9 48  1  0  0  0  0
 10 11  1  0  0  0  0
 10 49  1  0  0  0  0
 11 12  1  0  0  0  0
 11 13  2  0  0  0  0
 13 14  1  0  0  0  0
 13 50  1  0  0  0  0
 14 15  1  0  0  0  0
 16 17  1  0  0  0  0
 17 18  2  0  0  0  0
 17 51  1  0  0  0  0
 18 19  1  0  0  0  0
 19 20  2  0  0  0  0
 20 21  1  0  0  0  0
 20 52  1  0  0  0  0
 21 22  1  0  0  0  0
 22 23  1  0  0  0  0
 23 24  1  0  0  0  0
 23 53  1  0  0  0  0
 23 54  1  0  0  0  0
 24 25  1  0  0  0  0
 24 55  1  0  0  0  0
 24 56  1  0  0  0  0
 25 26  1  0  0  0  0
 26 27  1  0  0  0  0
 26 57  1  0  0  0  0
 26 58  1  0  0  0  0
 27 28  1  0  0  0  0
 27 59  1  0  0  0  0
 27 60  1  0  0  0  0
 28 29  1  0  0  0  0
 29 30  1  0  0  0  0
 29 61  1  0  0  0  0
 29 62  1  0  0  0  0
 30 31  1  0  0  0  0
 30 63  1  0  0  0  0
 30 64  1  0  0  0  0
 31 32  1  0  0  0  0
 31 65  1  0  0  0  0
 32 33  2  0  0  0  0
 32 34  1  0  0  0  0
 34 35  1  0  0  0  0
 34 66  1  0  0  0  0
 34 67  1  0  0  0  0
 35 36  1  0  0  0  0
 35 42  1  0  0  0  0
 36 37  2  0  0  0  0
 36 68  1  0  0  0  0
 37 38  1  0  0  0  0
 38 39  1  0  0  0  0
 38 42  2  0  0  0  0
 39 40  2  0  0  0  0
 39 41  1  0  0  0  0
M  CHG  2  39   1  41  -1
M  END
$$$$
