CHEMBL184997
 OpenBabel04072215363D

 49 52  0  0  0  0  0  0  0  0999 V2000
   -5.4924   -2.2768    7.0450 C   0  0  0  0  0  0  0  0  0  0  0  0
   -4.4051   -2.4554    6.0254 C   0  0  0  0  0  0  0  0  0  0  0  0
   -3.0627   -2.3581    6.4032 C   0  0  0  0  0  0  0  0  0  0  0  0
   -2.0542   -2.5441    5.4606 C   0  0  0  0  0  0  0  0  0  0  0  0
   -2.3735   -2.8322    4.1324 C   0  0  0  0  0  0  0  0  0  0  0  0
   -3.7031   -2.9238    3.7273 C   0  0  0  0  0  0  0  0  0  0  0  0
   -4.0963   -3.1843    2.3976 N   0  0  0  0  0  0  0  0  0  0  0  0
   -3.2929   -3.4968    1.3113 C   0  0  0  0  0  0  0  0  0  0  0  0
   -2.0676   -3.6019    1.3572 O   0  0  0  0  0  0  0  0  0  0  0  0
   -3.9809   -3.6278    0.0923 N   0  0  0  0  0  0  0  0  0  0  0  0
   -3.2223   -3.8738   -1.1317 C   0  0  0  0  0  0  0  0  0  0  0  0
   -5.3837   -3.7558   -0.0227 C   0  0  0  0  0  0  0  0  0  0  0  0
   -6.0939   -2.8735   -0.8328 C   0  0  0  0  0  0  0  0  0  0  0  0
   -7.4906   -2.9193   -0.8563 C   0  0  0  0  0  0  0  0  0  0  0  0
   -8.2088   -3.8840   -0.1253 C   0  0  0  0  0  0  0  0  0  0  0  0
   -9.6885   -3.9204   -0.1466 C   0  0  0  0  0  0  0  0  0  0  0  0
  -10.4014   -3.5840   -1.3244 C   0  0  0  0  0  0  0  0  0  0  0  0
  -11.8082   -3.6103   -1.3971 C   0  0  0  0  0  0  0  0  0  0  0  0
  -12.5611   -3.9836   -0.2919 C   0  0  0  0  0  0  0  0  0  0  0  0
  -11.8680   -4.2972    0.8597 C   0  0  0  0  0  0  0  0  0  0  0  0
  -10.4717   -4.2693    0.9576 C   0  0  0  0  0  0  0  0  0  0  0  0
  -10.0864   -4.6358    2.3591 C   0  0  0  0  0  0  0  0  0  0  0  0
  -11.3520   -4.8486    3.0095 N   0  0  0  0  0  0  0  0  0  0  0  0
  -12.4152   -4.6987    2.1541 C   0  0  0  0  0  0  0  0  0  0  0  0
  -13.5868   -4.8866    2.4128 O   0  0  0  0  0  0  0  0  0  0  0  0
   -7.4558   -4.8171    0.6077 C   0  0  0  0  0  0  0  0  0  0  0  0
   -6.0656   -4.7399    0.6883 C   0  0  0  0  0  0  0  0  0  0  0  0
   -4.7171   -2.7319    4.6829 C   0  0  0  0  0  0  0  0  0  0  0  0
   -5.0792   -2.0336    8.0299 H   0  0  0  0  0  0  0  0  0  0  0  0
   -6.0715   -3.1995    7.1465 H   0  0  0  0  0  0  0  0  0  0  0  0
   -6.1588   -1.4591    6.7538 H   0  0  0  0  0  0  0  0  0  0  0  0
   -2.7903   -2.1370    7.4321 H   0  0  0  0  0  0  0  0  0  0  0  0
   -1.0117   -2.4640    5.7554 H   0  0  0  0  0  0  0  0  0  0  0  0
   -1.5531   -2.9611    3.4352 H   0  0  0  0  0  0  0  0  0  0  0  0
   -5.0833   -3.1008    2.2149 H   0  0  0  0  0  0  0  0  0  0  0  0
   -2.1499   -3.7219   -0.9858 H   0  0  0  0  0  0  0  0  0  0  0  0
   -3.5572   -3.2044   -1.9292 H   0  0  0  0  0  0  0  0  0  0  0  0
   -3.3832   -4.9134   -1.4401 H   0  0  0  0  0  0  0  0  0  0  0  0
   -5.5777   -2.1034   -1.4006 H   0  0  0  0  0  0  0  0  0  0  0  0
   -8.0097   -2.1683   -1.4492 H   0  0  0  0  0  0  0  0  0  0  0  0
   -9.8627   -3.3016   -2.2287 H   0  0  0  0  0  0  0  0  0  0  0  0
  -12.3038   -3.3414   -2.3272 H   0  0  0  0  0  0  0  0  0  0  0  0
  -13.6447   -4.0231   -0.3227 H   0  0  0  0  0  0  0  0  0  0  0  0
   -9.5539   -3.8316    2.8736 H   0  0  0  0  0  0  0  0  0  0  0  0
   -9.5426   -5.5801    2.4214 H   0  0  0  0  0  0  0  0  0  0  0  0
  -11.4793   -5.2145    3.9433 H   0  0  0  0  0  0  0  0  0  0  0  0
   -7.9330   -5.6443    1.1216 H   0  0  0  0  0  0  0  0  0  0  0  0
   -5.5240   -5.4673    1.2896 H   0  0  0  0  0  0  0  0  0  0  0  0
   -5.7632   -2.8073    4.3943 H   0  0  0  0  0  0  0  0  0  0  0  0
  1  2  1  0  0  0  0
  1 29  1  0  0  0  0
  1 30  1  0  0  0  0
  1 31  1  0  0  0  0
  2  3  1  0  0  0  0
  2 28  2  0  0  0  0
  3  4  2  0  0  0  0
  3 32  1  0  0  0  0
  4  5  1  0  0  0  0
  4 33  1  0  0  0  0
  5  6  2  0  0  0  0
  5 34  1  0  0  0  0
  6  7  1  0  0  0  0
  6 28  1  0  0  0  0
  7  8  1  0  0  0  0
  7 35  1  0  0  0  0
  8  9  2  0  0  0  0
  8 10  1  0  0  0  0
 10 11  1  0  0  0  0
 10 12  1  0  0  0  0
 11 36  1  0  0  0  0
 11 37  1  0  0  0  0
 11 38  1  0  0  0  0
 12 13  1  0  0  0  0
 12 27  2  0  0  0  0
 13 14  2  0  0  0  0
 13 39  1  0  0  0  0
 14 15  1  0  0  0  0
 14 40  1  0  0  0  0
 15 16  1  0  0  0  0
 15 26  2  0  0  0  0
 16 17  1  0  0  0  0
 16 21  2  0  0  0  0
 17 18  2  0  0  0  0
 17 41  1  0  0  0  0
 18 19  1  0  0  0  0
 18 42  1  0  0  0  0
 19 20  2  0  0  0  0
 19 43  1  0  0  0  0
 20 21  1  0  0  0  0
 20 24  1  0  0  0  0
 21 22  1  0  0  0  0
 22 23  1  0  0  0  0
 22 44  1  0  0  0  0
 22 45  1  0  0  0  0
 23 24  1  0  0  0  0
 23 46  1  0  0  0  0
 24 25  2  0  0  0  0
 26 27  1  0  0  0  0
 26 47  1  0  0  0  0
 27 48  1  0  0  0  0
 28 49  1  0  0  0  0
M  END
$$$$
