CHEMBL210070
 OpenBabel04072215363D

 81 86  0  0  0  0  0  0  0  0999 V2000
   -5.2651    1.6715    2.4398 C   0  0  0  0  0  0  0  0  0  0  0  0
   -5.0307    1.0916    1.0747 C   0  0  0  0  0  0  0  0  0  0  0  0
   -5.3179    1.8487   -0.0630 C   0  0  0  0  0  0  0  0  0  0  0  0
   -5.1404    1.3018   -1.3259 C   0  0  0  0  0  0  0  0  0  0  0  0
   -4.6826   -0.0176   -1.4603 C   0  0  0  0  0  0  0  0  0  0  0  0
   -4.3784   -0.7970   -0.3435 C   0  0  0  0  0  0  0  0  0  0  0  0
   -3.8743   -2.1290   -0.4097 N   0  0  0  0  0  0  0  0  0  0  0  0
   -3.6599   -2.8874   -1.5474 C   0  0  0  0  0  0  0  0  0  0  0  0
   -3.9384   -2.4858   -2.6824 O   0  0  0  0  0  0  0  0  0  0  0  0
   -3.0988   -4.1493   -1.3692 N   0  0  0  0  0  0  0  0  0  0  0  0
   -3.0580   -4.9295   -0.1222 C   0  0  0  0  0  0  0  0  0  0  0  0
   -1.6488   -5.0000    0.3826 C   0  0  0  0  0  0  0  0  0  0  0  0
   -1.0465   -4.1295    1.2758 C   0  0  0  0  0  0  0  0  0  0  0  0
    0.3397   -4.3777    1.3351 C   0  0  0  0  0  0  0  0  0  0  0  0
    0.7989   -5.3319    0.4322 C   0  0  0  0  0  0  0  0  0  0  0  0
    2.1833   -5.5196    0.0466 C   0  0  0  0  0  0  0  0  0  0  0  0
    2.8458   -6.6959   -0.2468 N   0  0  0  0  0  0  0  0  0  0  0  0
    4.2064   -6.6407   -0.0296 N   0  0  0  0  0  0  0  0  0  0  0  0
    4.4249   -5.3480    0.2485 C   0  0  0  0  0  0  0  0  0  0  0  0
    3.2093   -4.6072    0.1577 C   0  0  0  0  0  0  0  0  0  0  0  0
    3.3301   -3.3373    0.9151 C   0  0  0  0  0  0  0  0  0  0  0  0
    4.1816   -4.0192    1.9950 C   0  0  0  0  0  0  0  0  0  0  0  0
    3.6780   -4.7302    3.1069 C   0  0  0  0  0  0  0  0  0  0  0  0
    4.5137   -5.6755    3.7327 C   0  0  0  0  0  0  0  0  0  0  0  0
    4.0077   -6.8996    4.4793 C   0  0  0  0  0  0  0  0  0  0  0  0
    4.1856   -6.8370    5.9256 N   0  0  0  0  0  0  0  0  0  0  0  0
    3.1528   -5.9900    6.5408 C   0  0  0  0  0  0  0  0  0  0  0  0
    3.3182   -5.9213    8.0733 C   0  0  0  0  0  0  0  0  0  0  0  0
    3.3641   -7.2264    8.7645 N   0  0  0  0  0  0  0  0  0  0  0  0
    2.0416   -7.8351    8.8660 C   0  0  0  0  0  0  0  0  0  0  0  0
    4.3197   -8.1137    8.0691 C   0  0  0  0  0  0  0  0  0  0  0  0
    4.1387   -8.1837    6.5332 C   0  0  0  0  0  0  0  0  0  0  0  0
    5.8699   -5.6596    3.4011 C   0  0  0  0  0  0  0  0  0  0  0  0
    6.2203   -5.2405    2.1250 C   0  0  0  0  0  0  0  0  0  0  0  0
    5.2410   -4.6786    1.3319 C   0  0  0  0  0  0  0  0  0  0  0  0
   -0.5419   -6.2465   -0.1057 S   0  0  0  0  0  0  0  0  0  0  0  0
   -2.7985   -4.9094   -2.5950 C   0  0  0  0  0  0  0  0  0  0  0  0
   -1.6848   -4.3295   -3.5055 C   0  0  0  0  0  0  0  0  0  0  0  0
   -0.3195   -4.2166   -2.8342 C   0  0  0  0  0  0  0  0  0  0  0  0
   -1.5468   -5.2209   -4.7440 C   0  0  0  0  0  0  0  0  0  0  0  0
   -4.5704   -0.2305    0.9212 C   0  0  0  0  0  0  0  0  0  0  0  0
   -5.2889    2.7668    2.4078 H   0  0  0  0  0  0  0  0  0  0  0  0
   -4.4597    1.3851    3.1236 H   0  0  0  0  0  0  0  0  0  0  0  0
   -6.2203    1.3175    2.8389 H   0  0  0  0  0  0  0  0  0  0  0  0
   -5.6827    2.8703    0.0240 H   0  0  0  0  0  0  0  0  0  0  0  0
   -5.3532    1.8827   -2.2122 H   0  0  0  0  0  0  0  0  0  0  0  0
   -4.5486   -0.3844   -2.4689 H   0  0  0  0  0  0  0  0  0  0  0  0
   -3.5969   -2.5253    0.4652 H   0  0  0  0  0  0  0  0  0  0  0  0
   -3.4808   -5.9247   -0.3067 H   0  0  0  0  0  0  0  0  0  0  0  0
   -3.7036   -4.4712    0.6355 H   0  0  0  0  0  0  0  0  0  0  0  0
   -1.5528   -3.3188    1.7579 H   0  0  0  0  0  0  0  0  0  0  0  0
    0.9634   -3.7661    1.9582 H   0  0  0  0  0  0  0  0  0  0  0  0
    2.4334   -7.6061   -0.3998 H   0  0  0  0  0  0  0  0  0  0  0  0
    2.4498   -2.8199    1.2596 H   0  0  0  0  0  0  0  0  0  0  0  0
    3.9445   -2.6187    0.3501 H   0  0  0  0  0  0  0  0  0  0  0  0
    2.6056   -4.7615    3.2916 H   0  0  0  0  0  0  0  0  0  0  0  0
    4.5995   -7.7432    4.0867 H   0  0  0  0  0  0  0  0  0  0  0  0
    2.9762   -7.1429    4.1899 H   0  0  0  0  0  0  0  0  0  0  0  0
    2.1505   -6.3626    6.2917 H   0  0  0  0  0  0  0  0  0  0  0  0
    3.2263   -4.9705    6.1461 H   0  0  0  0  0  0  0  0  0  0  0  0
    2.5218   -5.2961    8.4940 H   0  0  0  0  0  0  0  0  0  0  0  0
    4.2562   -5.3938    8.2917 H   0  0  0  0  0  0  0  0  0  0  0  0
    1.3550   -7.1685    9.3995 H   0  0  0  0  0  0  0  0  0  0  0  0
    2.0958   -8.7579    9.4546 H   0  0  0  0  0  0  0  0  0  0  0  0
    1.5965   -8.0756    7.8954 H   0  0  0  0  0  0  0  0  0  0  0  0
    4.2786   -9.1237    8.4956 H   0  0  0  0  0  0  0  0  0  0  0  0
    5.3334   -7.7483    8.2800 H   0  0  0  0  0  0  0  0  0  0  0  0
    3.1938   -8.6901    6.2934 H   0  0  0  0  0  0  0  0  0  0  0  0
    4.9451   -8.8073    6.1278 H   0  0  0  0  0  0  0  0  0  0  0  0
    6.6007   -6.1177    4.0603 H   0  0  0  0  0  0  0  0  0  0  0  0
    7.2562   -5.2376    1.8078 H   0  0  0  0  0  0  0  0  0  0  0  0
   -3.7372   -4.9554   -3.1727 H   0  0  0  0  0  0  0  0  0  0  0  0
   -2.5562   -5.9415   -2.3416 H   0  0  0  0  0  0  0  0  0  0  0  0
   -1.9628   -3.3277   -3.8416 H   0  0  0  0  0  0  0  0  0  0  0  0
    0.0723   -5.2030   -2.5762 H   0  0  0  0  0  0  0  0  0  0  0  0
   -0.3597   -3.5883   -1.9397 H   0  0  0  0  0  0  0  0  0  0  0  0
    0.4124   -3.7671   -3.5132 H   0  0  0  0  0  0  0  0  0  0  0  0
   -1.2622   -6.2428   -4.4646 H   0  0  0  0  0  0  0  0  0  0  0  0
   -0.7798   -4.8311   -5.4200 H   0  0  0  0  0  0  0  0  0  0  0  0
   -2.4909   -5.2697   -5.2944 H   0  0  0  0  0  0  0  0  0  0  0  0
   -4.3684   -0.8157    1.8210 H   0  0  0  0  0  0  0  0  0  0  0  0
  1  2  1  0  0  0  0
  1 42  1  0  0  0  0
  1 43  1  0  0  0  0
  1 44  1  0  0  0  0
  2  3  1  0  0  0  0
  2 41  2  0  0  0  0
  3  4  2  0  0  0  0
  3 45  1  0  0  0  0
  4  5  1  0  0  0  0
  4 46  1  0  0  0  0
  5  6  2  0  0  0  0
  5 47  1  0  0  0  0
  6  7  1  0  0  0  0
  6 41  1  0  0  0  0
  7  8  1  0  0  0  0
  7 48  1  0  0  0  0
  8  9  2  0  0  0  0
  8 10  1  0  0  0  0
 10 11  1  0  0  0  0
 10 37  1  0  0  0  0
 11 12  1  0  0  0  0
 11 49  1  0  0  0  0
 11 50  1  0  0  0  0
 12 13  2  0  0  0  0
 12 36  1  0  0  0  0
 13 14  1  0  0  0  0
 13 51  1  0  0  0  0
 14 15  2  0  0  0  0
 14 52  1  0  0  0  0
 15 16  1  0  0  0  0
 15 36  1  0  0  0  0
 16 17  1  0  0  0  0
 16 20  2  0  0  0  0
 17 18  1  0  0  0  0
 17 53  1  0  0  0  0
 18 19  2  0  0  0  0
 19 20  1  0  0  0  0
 19 35  1  0  0  0  0
 20 21  1  0  0  0  0
 21 22  1  0  0  0  0
 21 54  1  0  0  0  0
 21 55  1  0  0  0  0
 22 23  1  0  0  0  0
 22 35  2  0  0  0  0
 23 24  2  0  0  0  0
 23 56  1  0  0  0  0
 24 25  1  0  0  0  0
 24 33  1  0  0  0  0
 25 26  1  0  0  0  0
 25 57  1  0  0  0  0
 25 58  1  0  0  0  0
 26 27  1  0  0  0  0
 26 32  1  0  0  0  0
 27 28  1  0  0  0  0
 27 59  1  0  0  0  0
 27 60  1  0  0  0  0
 28 29  1  0  0  0  0
 28 61  1  0  0  0  0
 28 62  1  0  0  0  0
 29 30  1  0  0  0  0
 29 31  1  0  0  0  0
 30 63  1  0  0  0  0
 30 64  1  0  0  0  0
 30 65  1  0  0  0  0
 31 32  1  0  0  0  0
 31 66  1  0  0  0  0
 31 67  1  0  0  0  0
 32 68  1  0  0  0  0
 32 69  1  0  0  0  0
 33 34  2  0  0  0  0
 33 70  1  0  0  0  0
 34 35  1  0  0  0  0
 34 71  1  0  0  0  0
 37 38  1  0  0  0  0
 37 72  1  0  0  0  0
 37 73  1  0  0  0  0
 38 39  1  0  0  0  0
 38 40  1  0  0  0  0
 38 74  1  0  0  0  0
 39 75  1  0  0  0  0
 39 76  1  0  0  0  0
 39 77  1  0  0  0  0
 40 78  1  0  0  0  0
 40 79  1  0  0  0  0
 40 80  1  0  0  0  0
 41 81  1  0  0  0  0
M  END
$$$$
