CHEMBL3959038
 OpenBabel04072215373D

 72 75  0  0  1  0  0  0  0  0999 V2000
    0.8603    0.3536    0.1970 C   0  0  0  0  0  0  0  0  0  0  0  0
    2.2329   -0.0856   -0.2987 C   0  0  0  0  0  0  0  0  0  0  0  0
    2.9389    1.0482   -1.0435 C   0  0  0  0  0  0  0  0  0  0  0  0
    4.3766    0.7318   -1.5582 C   0  0  0  0  0  0  0  0  0  0  0  0
    4.4043   -0.5049   -2.4684 C   0  0  0  0  0  0  0  0  0  0  0  0
    3.7119   -0.3531   -3.8187 C   0  0  0  0  0  0  0  0  0  0  0  0
    3.9439   -1.6033   -4.6587 C   0  0  0  0  0  0  0  0  0  0  0  0
    4.9546    2.0334   -2.1553 C   0  0  0  0  0  0  0  0  0  0  0  0
    4.2335    3.0362   -2.2284 O   0  0  0  0  0  0  0  0  0  0  0  0
    6.2872    2.1388   -2.5048 N   0  0  0  0  0  0  0  0  0  0  0  0
    7.3286    1.1157   -2.5892 C   0  0  0  0  0  0  0  0  0  0  0  0
    8.4068    1.3263   -1.5263 C   0  0  0  0  0  0  0  0  0  0  0  0
    8.9428    2.6430   -1.5933 O   0  0  0  0  0  0  0  0  0  0  0  0
    7.9324    3.6698   -1.5422 C   0  0  3  0  0  0  0  0  0  0  0  0
    7.3082    3.8514   -0.1343 C   0  0  0  0  0  0  0  0  0  0  0  0
    8.2288    4.1379    0.9256 O   0  0  0  0  0  0  0  0  0  0  0  0
    9.1994    5.0748    0.7070 C   0  0  0  0  0  0  0  0  0  0  0  0
   10.3839    4.8171    1.4178 C   0  0  0  0  0  0  0  0  0  0  0  0
   11.5163    5.6051    1.2739 C   0  0  0  0  0  0  0  0  0  0  0  0
   12.6205    5.3360    1.9802 N   0  0  0  0  0  0  0  0  0  0  0  0
   13.6668    6.1481    1.7875 C   0  0  0  0  0  0  0  0  0  0  0  0
   13.7099    7.2037    0.9651 N   0  0  0  0  0  0  0  0  0  0  0  0
   12.5955    7.4722    0.2685 C   0  0  0  0  0  0  0  0  0  0  0  0
   12.5231    8.6104   -0.5862 N   0  0  0  0  0  0  0  0  0  0  0  0
   13.5454    9.5040   -0.9487 C   0  0  0  0  0  0  0  0  0  0  0  0
   14.8878    9.1392   -0.9822 C   0  0  0  0  0  0  0  0  0  0  0  0
   15.8715   10.0673   -1.3250 C   0  0  0  0  0  0  0  0  0  0  0  0
   15.5139   11.3597   -1.6980 C   0  0  0  0  0  0  0  0  0  0  0  0
   16.7822   12.4732   -2.0571 Cl  0  0  0  0  0  0  0  0  0  0  0  0
   14.1577   11.7146   -1.7669 C   0  0  0  0  0  0  0  0  0  0  0  0
   13.6346   13.2794   -2.2770 Cl  0  0  0  0  0  0  0  0  0  0  0  0
   13.1846   10.7866   -1.4125 C   0  0  0  0  0  0  0  0  0  0  0  0
   11.4527    6.6698    0.3745 C   0  0  0  0  0  0  0  0  0  0  0  0
   10.2747    6.9218   -0.3556 C   0  0  0  0  0  0  0  0  0  0  0  0
    9.1259    6.1748   -0.1550 C   0  0  0  0  0  0  0  0  0  0  0  0
    7.9422    6.5066   -0.7636 O   0  0  0  0  0  0  0  0  0  0  0  0
    8.0510    7.1552   -2.0365 C   0  0  0  0  0  0  0  0  0  0  0  0
    6.8481    3.4823   -2.6145 C   0  0  0  0  0  0  0  0  0  0  0  0
    0.3479   -0.4816    0.6851 H   0  0  0  0  0  0  0  0  0  0  0  0
    0.2332    0.6950   -0.6338 H   0  0  0  0  0  0  0  0  0  0  0  0
    0.9435    1.1707    0.9206 H   0  0  0  0  0  0  0  0  0  0  0  0
    2.0927   -0.9490   -0.9555 H   0  0  0  0  0  0  0  0  0  0  0  0
    2.8404   -0.4078    0.5539 H   0  0  0  0  0  0  0  0  0  0  0  0
    2.9927    1.9110   -0.3641 H   0  0  0  0  0  0  0  0  0  0  0  0
    2.3092    1.3681   -1.8847 H   0  0  0  0  0  0  0  0  0  0  0  0
    4.9900    0.5126   -0.6735 H   0  0  0  0  0  0  0  0  0  0  0  0
    3.9670   -1.3556   -1.9332 H   0  0  0  0  0  0  0  0  0  0  0  0
    5.4222   -0.8357   -2.6531 H   0  0  0  0  0  0  0  0  0  0  0  0
    4.1031    0.5157   -4.3595 H   0  0  0  0  0  0  0  0  0  0  0  0
    2.6366   -0.2047   -3.6798 H   0  0  0  0  0  0  0  0  0  0  0  0
    5.0101   -1.7306   -4.8796 H   0  0  0  0  0  0  0  0  0  0  0  0
    3.4064   -1.5366   -5.6078 H   0  0  0  0  0  0  0  0  0  0  0  0
    3.6004   -2.4993   -4.1302 H   0  0  0  0  0  0  0  0  0  0  0  0
    7.7773    1.2294   -3.5856 H   0  0  0  0  0  0  0  0  0  0  0  0
    6.9573    0.1098   -2.5055 H   0  0  0  0  0  0  0  0  0  0  0  0
    9.2352    0.6330   -1.7012 H   0  0  0  0  0  0  0  0  0  0  0  0
    8.0217    1.1362   -0.5199 H   0  0  0  0  0  0  0  0  0  0  0  0
    8.4834    4.5487   -1.8487 H   0  0  0  0  0  0  0  0  0  0  0  0
    6.8289    2.9135    0.1701 H   0  0  0  0  0  0  0  0  0  0  0  0
    6.5098    4.6023   -0.1239 H   0  0  0  0  0  0  0  0  0  0  0  0
   10.4229    3.9618    2.0905 H   0  0  0  0  0  0  0  0  0  0  0  0
   14.5653    5.9377    2.3560 H   0  0  0  0  0  0  0  0  0  0  0  0
   11.6686    9.1145   -0.3697 H   0  0  0  0  0  0  0  0  0  0  0  0
   15.1910    8.1299   -0.7198 H   0  0  0  0  0  0  0  0  0  0  0  0
   16.9142    9.7642   -1.2896 H   0  0  0  0  0  0  0  0  0  0  0  0
   12.1334   11.0630   -1.4825 H   0  0  0  0  0  0  0  0  0  0  0  0
   10.2743    7.7203   -1.0867 H   0  0  0  0  0  0  0  0  0  0  0  0
    7.0647    7.1429   -2.5073 H   0  0  0  0  0  0  0  0  0  0  0  0
    8.7412    6.6225   -2.7023 H   0  0  0  0  0  0  0  0  0  0  0  0
    8.3558    8.1998   -1.9234 H   0  0  0  0  0  0  0  0  0  0  0  0
    7.2901    3.5686   -3.6127 H   0  0  0  0  0  0  0  0  0  0  0  0
    6.0951    4.2746   -2.5237 H   0  0  0  0  0  0  0  0  0  0  0  0
  1  2  1  0  0  0  0
  1 39  1  0  0  0  0
  1 40  1  0  0  0  0
  1 41  1  0  0  0  0
  2  3  1  0  0  0  0
  2 42  1  0  0  0  0
  2 43  1  0  0  0  0
  3  4  1  0  0  0  0
  3 44  1  0  0  0  0
  3 45  1  0  0  0  0
  4  5  1  0  0  0  0
  4  8  1  0  0  0  0
  4 46  1  0  0  0  0
  5  6  1  0  0  0  0
  5 47  1  0  0  0  0
  5 48  1  0  0  0  0
  6  7  1  0  0  0  0
  6 49  1  0  0  0  0
  6 50  1  0  0  0  0
  7 51  1  0  0  0  0
  7 52  1  0  0  0  0
  7 53  1  0  0  0  0
  8  9  2  0  0  0  0
  8 10  1  0  0  0  0
 10 11  1  0  0  0  0
 10 38  1  0  0  0  0
 11 12  1  0  0  0  0
 11 54  1  0  0  0  0
 11 55  1  0  0  0  0
 12 13  1  0  0  0  0
 12 56  1  0  0  0  0
 12 57  1  0  0  0  0
 13 14  1  0  0  0  0
 14 15  1  0  0  0  0
 14 38  1  0  0  0  0
 14 58  1  0  0  0  0
 15 16  1  0  0  0  0
 15 59  1  0  0  0  0
 15 60  1  0  0  0  0
 16 17  1  0  0  0  0
 17 18  1  0  0  0  0
 17 35  2  0  0  0  0
 18 19  2  0  0  0  0
 18 61  1  0  0  0  0
 19 20  1  0  0  0  0
 19 33  1  0  0  0  0
 20 21  2  0  0  0  0
 21 22  1  0  0  0  0
 21 62  1  0  0  0  0
 22 23  2  0  0  0  0
 23 24  1  0  0  0  0
 23 33  1  0  0  0  0
 24 25  1  0  0  0  0
 24 63  1  0  0  0  0
 25 26  1  0  0  0  0
 25 32  2  0  0  0  0
 26 27  2  0  0  0  0
 26 64  1  0  0  0  0
 27 28  1  0  0  0  0
 27 65  1  0  0  0  0
 28 29  1  0  0  0  0
 28 30  2  0  0  0  0
 30 31  1  0  0  0  0
 30 32  1  0  0  0  0
 32 66  1  0  0  0  0
 33 34  2  0  0  0  0
 34 35  1  0  0  0  0
 34 67  1  0  0  0  0
 35 36  1  0  0  0  0
 36 37  1  0  0  0  0
 37 68  1  0  0  0  0
 37 69  1  0  0  0  0
 37 70  1  0  0  0  0
 38 71  1  0  0  0  0
 38 72  1  0  0  0  0
M  END
$$$$
