CHEMBL3982416
 OpenBabel04072215373D

 55 59  0  0  0  0  0  0  0  0999 V2000
    2.6747   -1.7664    1.9646 C   0  0  0  0  0  0  0  0  0  0  0  0
    2.9651   -0.9845    0.8013 O   0  0  0  0  0  0  0  0  0  0  0  0
    3.2701    0.3206    1.0839 C   0  0  0  0  0  0  0  0  0  0  0  0
    2.8819    0.9526    2.2669 C   0  0  0  0  0  0  0  0  0  0  0  0
    3.3801    2.1863    2.6628 C   0  0  0  0  0  0  0  0  0  0  0  0
    2.9801    2.6964    3.9327 N   0  0  0  0  0  0  0  0  0  0  0  0
    3.7815    3.8917    4.4726 C   0  0  0  0  0  0  0  0  0  0  0  0
    3.6478    5.2763    3.7964 C   0  0  0  0  0  0  0  0  0  0  0  0
    4.5323    6.4123    4.3150 C   0  0  0  0  0  0  0  0  0  0  0  0
    3.0495    6.5027    4.4727 C   0  0  0  0  0  0  0  0  0  0  0  0
    1.6834    2.5056    4.6123 C   0  0  0  0  0  0  0  0  0  0  0  0
    0.9600    3.6439    4.6700 C   0  0  0  0  0  0  0  0  0  0  0  0
    0.0880    3.8025    5.6937 C   0  0  0  0  0  0  0  0  0  0  0  0
   -0.2425    2.7886    6.5451 C   0  0  0  0  0  0  0  0  0  0  0  0
   -0.6766    3.3701    7.6348 N   0  0  0  0  0  0  0  0  0  0  0  0
   -1.5081    2.6860    8.3947 C   0  0  0  0  0  0  0  0  0  0  0  0
   -2.0155    1.4524    8.0596 C   0  0  0  0  0  0  0  0  0  0  0  0
   -3.4269    1.3556    8.6696 C   0  0  0  0  0  0  0  0  0  0  0  0
   -4.1760    2.5618    9.0136 C   0  0  0  0  0  0  0  0  0  0  0  0
   -5.2414    2.3843    9.7727 N   0  0  0  0  0  0  0  0  0  0  0  0
   -5.3279    1.0600    9.8802 N   0  0  0  0  0  0  0  0  0  0  0  0
   -6.4898    0.5834   10.6046 C   0  0  0  0  0  0  0  0  0  0  0  0
   -4.2559    0.3894    9.2660 C   0  0  0  0  0  0  0  0  0  0  0  0
   -1.2827    0.7422    7.0728 N   0  0  0  0  0  0  0  0  0  0  0  0
   -0.1659    1.4505    6.2731 C   0  0  0  0  0  0  0  0  0  0  0  0
    1.0696    1.3487    5.2844 C   0  0  0  0  0  0  0  0  0  0  0  0
    4.2664    2.8104    1.7463 C   0  0  0  0  0  0  0  0  0  0  0  0
    4.5306    2.2744    0.4575 C   0  0  0  0  0  0  0  0  0  0  0  0
    5.3169    3.0298   -0.5944 C   0  0  0  0  0  0  0  0  0  0  0  0
    5.9580    4.1341   -0.1186 F   0  0  0  0  0  0  0  0  0  0  0  0
    6.2812    2.2696   -1.1873 F   0  0  0  0  0  0  0  0  0  0  0  0
    4.5256    3.4747   -1.6129 F   0  0  0  0  0  0  0  0  0  0  0  0
    4.0222    1.0113    0.1412 C   0  0  0  0  0  0  0  0  0  0  0  0
    2.7768   -2.8233    1.7132 H   0  0  0  0  0  0  0  0  0  0  0  0
    1.6423   -1.5858    2.2835 H   0  0  0  0  0  0  0  0  0  0  0  0
    3.3723   -1.5602    2.7891 H   0  0  0  0  0  0  0  0  0  0  0  0
    2.2054    0.4459    2.9388 H   0  0  0  0  0  0  0  0  0  0  0  0
    4.8461    3.6235    4.4333 H   0  0  0  0  0  0  0  0  0  0  0  0
    3.5636    4.0164    5.5410 H   0  0  0  0  0  0  0  0  0  0  0  0
    3.5324    5.2343    2.7210 H   0  0  0  0  0  0  0  0  0  0  0  0
    4.9939    7.1051    3.6149 H   0  0  0  0  0  0  0  0  0  0  0  0
    5.1093    6.2899    5.2266 H   0  0  0  0  0  0  0  0  0  0  0  0
    2.5527    7.2535    3.8616 H   0  0  0  0  0  0  0  0  0  0  0  0
    2.6486    6.4301    5.4759 H   0  0  0  0  0  0  0  0  0  0  0  0
    1.1805    4.5113    4.0428 H   0  0  0  0  0  0  0  0  0  0  0  0
   -0.3188    4.7955    5.8964 H   0  0  0  0  0  0  0  0  0  0  0  0
   -1.9095    3.3167    9.1646 H   0  0  0  0  0  0  0  0  0  0  0  0
   -3.9294    3.5943    8.8026 H   0  0  0  0  0  0  0  0  0  0  0  0
   -7.0266    1.4499   11.0310 H   0  0  0  0  0  0  0  0  0  0  0  0
   -6.1913   -0.0629   11.4300 H   0  0  0  0  0  0  0  0  0  0  0  0
   -7.1639    0.0909    9.9040 H   0  0  0  0  0  0  0  0  0  0  0  0
   -4.1960   -0.6811    9.3661 H   0  0  0  0  0  0  0  0  0  0  0  0
    1.4881    0.3455    5.1307 H   0  0  0  0  0  0  0  0  0  0  0  0
    4.7635    3.7475    1.9817 H   0  0  0  0  0  0  0  0  0  0  0  0
    4.2341    0.5553   -0.8249 H   0  0  0  0  0  0  0  0  0  0  0  0
  1  2  1  0  0  0  0
  1 34  1  0  0  0  0
  1 35  1  0  0  0  0
  1 36  1  0  0  0  0
  2  3  1  0  0  0  0
  3  4  1  0  0  0  0
  3 33  2  0  0  0  0
  4  5  2  0  0  0  0
  4 37  1  0  0  0  0
  5  6  1  0  0  0  0
  5 27  1  0  0  0  0
  6  7  1  0  0  0  0
  6 11  1  0  0  0  0
  7  8  1  0  0  0  0
  7 38  1  0  0  0  0
  7 39  1  0  0  0  0
  8  9  1  0  0  0  0
  8 10  1  0  0  0  0
  8 40  1  0  0  0  0
  9 10  1  0  0  0  0
  9 41  1  0  0  0  0
  9 42  1  0  0  0  0
 10 43  1  0  0  0  0
 10 44  1  0  0  0  0
 11 12  1  0  0  0  0
 11 26  2  0  0  0  0
 12 13  2  0  0  0  0
 12 45  1  0  0  0  0
 13 14  1  0  0  0  0
 13 46  1  0  0  0  0
 14 15  1  0  0  0  0
 14 25  2  0  0  0  0
 15 16  2  0  0  0  0
 16 17  1  0  0  0  0
 16 47  1  0  0  0  0
 17 18  1  0  0  0  0
 17 24  2  0  0  0  0
 18 19  1  0  0  0  0
 18 23  2  0  0  0  0
 19 20  2  0  0  0  0
 19 48  1  0  0  0  0
 20 21  1  0  0  0  0
 21 22  1  0  0  0  0
 21 23  1  0  0  0  0
 22 49  1  0  0  0  0
 22 50  1  0  0  0  0
 22 51  1  0  0  0  0
 23 52  1  0  0  0  0
 24 25  1  0  0  0  0
 25 26  1  0  0  0  0
 26 53  1  0  0  0  0
 27 28  2  0  0  0  0
 27 54  1  0  0  0  0
 28 29  1  0  0  0  0
 28 33  1  0  0  0  0
 29 30  1  0  0  0  0
 29 31  1  0  0  0  0
 29 32  1  0  0  0  0
 33 55  1  0  0  0  0
M  END
$$$$
