CHEMBL2022854
 OpenBabel04072215363D

 70 75  0  0  0  0  0  0  0  0999 V2000
    1.0963    0.0939    0.0049 N   0  0  0  0  0  0  0  0  0  0  0  0
    2.4808   -0.0164    0.0140 C   0  0  0  0  0  0  0  0  0  0  0  0
    3.1123    1.1698    0.0816 N   0  0  0  0  0  0  0  0  0  0  0  0
    4.4500    1.2165    0.1198 C   0  0  0  0  0  0  0  0  0  0  0  0
    5.2838    0.1016    0.0998 C   0  0  0  0  0  0  0  0  0  0  0  0
    6.7233    0.2327    0.0922 C   0  0  0  0  0  0  0  0  0  0  0  0
    7.7609   -0.5665    0.6252 C   0  0  0  0  0  0  0  0  0  0  0  0
    8.9760   -0.0957    0.3373 N   0  0  0  0  0  0  0  0  0  0  0  0
    8.7179    1.0123   -0.3780 N   0  0  0  0  0  0  0  0  0  0  0  0
    9.8118    1.8006   -0.9006 C   0  0  0  0  0  0  0  0  0  0  0  0
   10.2253    1.3274   -2.2994 C   0  0  0  0  0  0  0  0  0  0  0  0
   11.3301    2.1202   -2.8829 N   0  0  0  0  0  0  0  0  0  0  0  0
   12.5507    2.0091   -2.0648 C   0  0  0  0  0  0  0  0  0  0  0  0
   13.6879    2.8421   -2.6420 C   0  0  0  0  0  0  0  0  0  0  0  0
   13.9884    2.4443   -4.0773 C   0  0  0  0  0  0  0  0  0  0  0  0
   12.7159    2.4867   -4.9141 C   0  0  0  0  0  0  0  0  0  0  0  0
   11.5910    1.6736   -4.2654 C   0  0  0  0  0  0  0  0  0  0  0  0
    7.3927    1.2663   -0.5330 C   0  0  0  0  0  0  0  0  0  0  0  0
    4.6270   -1.1409    0.0224 C   0  0  0  0  0  0  0  0  0  0  0  0
    5.3635   -2.7004   -0.0502 S   0  0  0  0  0  0  0  0  0  0  0  0
    3.8839   -3.4934   -0.1142 C   0  0  0  0  0  0  0  0  0  0  0  0
    2.7983   -2.6395   -0.0966 C   0  0  0  0  0  0  0  0  0  0  0  0
    1.4592   -3.2369   -0.0986 C   0  0  0  0  0  0  0  0  0  0  0  0
    1.2382   -4.4000    0.6441 C   0  0  0  0  0  0  0  0  0  0  0  0
   -0.0107   -5.0057    0.6734 C   0  0  0  0  0  0  0  0  0  0  0  0
   -1.0997   -4.4248    0.0290 C   0  0  0  0  0  0  0  0  0  0  0  0
   -2.3971   -4.9788    0.1278 N   0  0  0  0  0  0  0  0  0  0  0  0
   -2.7844   -5.8314    1.1498 C   0  0  0  0  0  0  0  0  0  0  0  0
   -2.1095   -6.0886    2.1401 O   0  0  0  0  0  0  0  0  0  0  0  0
   -4.0252   -6.3945    0.9128 N   0  0  0  0  0  0  0  0  0  0  0  0
   -4.6147   -7.2523    1.8685 C   0  0  0  0  0  0  0  0  0  0  0  0
   -4.6007   -6.9378    3.2359 C   0  0  0  0  0  0  0  0  0  0  0  0
   -5.2074   -7.7809    4.1691 C   0  0  0  0  0  0  0  0  0  0  0  0
   -5.8095   -8.9589    3.7350 C   0  0  0  0  0  0  0  0  0  0  0  0
   -5.7974   -9.2789    2.3815 C   0  0  0  0  0  0  0  0  0  0  0  0
   -6.3397  -10.4345    1.9753 F   0  0  0  0  0  0  0  0  0  0  0  0
   -5.2227   -8.4296    1.4398 C   0  0  0  0  0  0  0  0  0  0  0  0
   -0.8942   -3.2803   -0.7418 C   0  0  0  0  0  0  0  0  0  0  0  0
    0.3873   -2.7120   -0.8320 C   0  0  0  0  0  0  0  0  0  0  0  0
    3.2175   -1.2355   -0.0250 C   0  0  0  0  0  0  0  0  0  0  0  0
    0.8456    1.0480    0.2428 H   0  0  0  0  0  0  0  0  0  0  0  0
    0.6343   -0.6177    0.5566 H   0  0  0  0  0  0  0  0  0  0  0  0
    4.8586    2.2201    0.1746 H   0  0  0  0  0  0  0  0  0  0  0  0
    7.6945   -1.4731    1.2129 H   0  0  0  0  0  0  0  0  0  0  0  0
   10.6231    1.7081   -0.1724 H   0  0  0  0  0  0  0  0  0  0  0  0
    9.4898    2.8469   -0.9182 H   0  0  0  0  0  0  0  0  0  0  0  0
    9.3481    1.4129   -2.9563 H   0  0  0  0  0  0  0  0  0  0  0  0
   10.4872    0.2604   -2.2744 H   0  0  0  0  0  0  0  0  0  0  0  0
   12.8589    0.9570   -1.9748 H   0  0  0  0  0  0  0  0  0  0  0  0
   12.3724    2.3846   -1.0539 H   0  0  0  0  0  0  0  0  0  0  0  0
   14.5826    2.7130   -2.0226 H   0  0  0  0  0  0  0  0  0  0  0  0
   13.4189    3.9052   -2.5983 H   0  0  0  0  0  0  0  0  0  0  0  0
   14.4069    1.4309   -4.0949 H   0  0  0  0  0  0  0  0  0  0  0  0
   14.7429    3.1150   -4.4999 H   0  0  0  0  0  0  0  0  0  0  0  0
   12.9235    2.0968   -5.9164 H   0  0  0  0  0  0  0  0  0  0  0  0
   12.3924    3.5284   -5.0353 H   0  0  0  0  0  0  0  0  0  0  0  0
   11.8526    0.6089   -4.2858 H   0  0  0  0  0  0  0  0  0  0  0  0
   10.6876    1.8009   -4.8734 H   0  0  0  0  0  0  0  0  0  0  0  0
    7.0452    2.1311   -1.0813 H   0  0  0  0  0  0  0  0  0  0  0  0
    3.8838   -4.5745   -0.1554 H   0  0  0  0  0  0  0  0  0  0  0  0
    2.0361   -4.8698    1.2182 H   0  0  0  0  0  0  0  0  0  0  0  0
   -0.0944   -5.9380    1.2232 H   0  0  0  0  0  0  0  0  0  0  0  0
   -3.1384   -4.5272   -0.3824 H   0  0  0  0  0  0  0  0  0  0  0  0
   -4.2270   -6.5790   -0.0594 H   0  0  0  0  0  0  0  0  0  0  0  0
   -4.1196   -6.0277    3.5905 H   0  0  0  0  0  0  0  0  0  0  0  0
   -5.1993   -7.5201    5.2221 H   0  0  0  0  0  0  0  0  0  0  0  0
   -6.2828   -9.6321    4.4446 H   0  0  0  0  0  0  0  0  0  0  0  0
   -5.2095   -8.7324    0.3987 H   0  0  0  0  0  0  0  0  0  0  0  0
   -1.7158   -2.7959   -1.2633 H   0  0  0  0  0  0  0  0  0  0  0  0
    0.5253   -1.8377   -1.4661 H   0  0  0  0  0  0  0  0  0  0  0  0
  1  2  1  0  0  0  0
  1 41  1  0  0  0  0
  1 42  1  0  0  0  0
  2  3  1  0  0  0  0
  2 40  2  0  0  0  0
  3  4  2  0  0  0  0
  4  5  1  0  0  0  0
  4 43  1  0  0  0  0
  5  6  1  0  0  0  0
  5 19  2  0  0  0  0
  6  7  1  0  0  0  0
  6 18  2  0  0  0  0
  7  8  2  0  0  0  0
  7 44  1  0  0  0  0
  8  9  1  0  0  0  0
  9 10  1  0  0  0  0
  9 18  1  0  0  0  0
 10 11  1  0  0  0  0
 10 45  1  0  0  0  0
 10 46  1  0  0  0  0
 11 12  1  0  0  0  0
 11 47  1  0  0  0  0
 11 48  1  0  0  0  0
 12 13  1  0  0  0  0
 12 17  1  0  0  0  0
 13 14  1  0  0  0  0
 13 49  1  0  0  0  0
 13 50  1  0  0  0  0
 14 15  1  0  0  0  0
 14 51  1  0  0  0  0
 14 52  1  0  0  0  0
 15 16  1  0  0  0  0
 15 53  1  0  0  0  0
 15 54  1  0  0  0  0
 16 17  1  0  0  0  0
 16 55  1  0  0  0  0
 16 56  1  0  0  0  0
 17 57  1  0  0  0  0
 17 58  1  0  0  0  0
 18 59  1  0  0  0  0
 19 20  1  0  0  0  0
 19 40  1  0  0  0  0
 20 21  1  0  0  0  0
 21 22  2  0  0  0  0
 21 60  1  0  0  0  0
 22 23  1  0  0  0  0
 22 40  1  0  0  0  0
 23 24  1  0  0  0  0
 23 39  2  0  0  0  0
 24 25  2  0  0  0  0
 24 61  1  0  0  0  0
 25 26  1  0  0  0  0
 25 62  1  0  0  0  0
 26 27  1  0  0  0  0
 26 38  2  0  0  0  0
 27 28  1  0  0  0  0
 27 63  1  0  0  0  0
 28 29  2  0  0  0  0
 28 30  1  0  0  0  0
 30 31  1  0  0  0  0
 30 64  1  0  0  0  0
 31 32  1  0  0  0  0
 31 37  2  0  0  0  0
 32 33  2  0  0  0  0
 32 65  1  0  0  0  0
 33 34  1  0  0  0  0
 33 66  1  0  0  0  0
 34 35  2  0  0  0  0
 34 67  1  0  0  0  0
 35 36  1  0  0  0  0
 35 37  1  0  0  0  0
 37 68  1  0  0  0  0
 38 39  1  0  0  0  0
 38 69  1  0  0  0  0
 39 70  1  0  0  0  0
M  END
$$$$
