CHEMBL1242286
 OpenBabel04072215363D

 42 44  0  0  0  0  0  0  0  0999 V2000
    4.7991    3.9488    7.2214 C   0  0  0  0  0  0  0  0  0  0  0  0
    6.2175    3.9260    7.1278 O   0  0  0  0  0  0  0  0  0  0  0  0
    6.6456    3.8586    5.7667 C   0  0  0  0  0  0  0  0  0  0  0  0
    6.1696    2.6736    5.1328 O   0  0  0  0  0  0  0  0  0  0  0  0
    6.1025    2.7129    3.7656 C   0  0  0  0  0  0  0  0  0  0  0  0
    6.9551    3.4957    2.9803 C   0  0  0  0  0  0  0  0  0  0  0  0
    6.8431    3.4993    1.5782 C   0  0  0  0  0  0  0  0  0  0  0  0
    7.7151    4.3674    0.7901 C   0  0  0  0  0  0  0  0  0  0  0  0
    8.9895    4.5604    1.1761 N   0  0  0  0  0  0  0  0  0  0  0  0
    9.5129    5.3609    0.2245 N   0  0  0  0  0  0  0  0  0  0  0  0
   10.9074    5.7845    0.3137 C   0  0  0  0  0  0  0  0  0  0  0  0
   11.1543    6.6285    1.5650 C   0  0  0  0  0  0  0  0  0  0  0  0
   11.8629    4.5923    0.2591 C   0  0  0  0  0  0  0  0  0  0  0  0
    8.6119    5.7120   -0.7429 C   0  0  0  0  0  0  0  0  0  0  0  0
    8.8421    6.4811   -1.8208 N   0  0  0  0  0  0  0  0  0  0  0  0
    7.7340    6.6330   -2.5613 C   0  0  0  0  0  0  0  0  0  0  0  0
    6.5007    6.1512   -2.3143 N   0  0  0  0  0  0  0  0  0  0  0  0
    6.3095    5.3869   -1.2188 C   0  0  0  0  0  0  0  0  0  0  0  0
    5.0187    4.9227   -1.0167 N   0  0  0  0  0  0  0  0  0  0  0  0
    7.4111    5.1168   -0.3918 C   0  0  0  0  0  0  0  0  0  0  0  0
    5.9047    2.6614    0.9721 C   0  0  0  0  0  0  0  0  0  0  0  0
    5.0488    1.8773    1.7449 C   0  0  0  0  0  0  0  0  0  0  0  0
    5.1491    1.9015    3.1362 C   0  0  0  0  0  0  0  0  0  0  0  0
    3.9434    0.8251    4.1328 Br  0  0  0  0  0  0  0  0  0  0  0  0
    4.5259    4.1376    8.2624 H   0  0  0  0  0  0  0  0  0  0  0  0
    4.3811    2.9814    6.9271 H   0  0  0  0  0  0  0  0  0  0  0  0
    4.3787    4.7453    6.5991 H   0  0  0  0  0  0  0  0  0  0  0  0
    7.7411    3.8435    5.7761 H   0  0  0  0  0  0  0  0  0  0  0  0
    6.3041    4.7683    5.2556 H   0  0  0  0  0  0  0  0  0  0  0  0
    7.7316    4.1050    3.4363 H   0  0  0  0  0  0  0  0  0  0  0  0
   11.1063    6.4143   -0.5615 H   0  0  0  0  0  0  0  0  0  0  0  0
   10.9537    6.0634    2.4821 H   0  0  0  0  0  0  0  0  0  0  0  0
   10.5091    7.5136    1.5723 H   0  0  0  0  0  0  0  0  0  0  0  0
   12.1950    6.9698    1.6031 H   0  0  0  0  0  0  0  0  0  0  0  0
   11.7241    3.9216    1.1138 H   0  0  0  0  0  0  0  0  0  0  0  0
   12.9046    4.9327    0.2666 H   0  0  0  0  0  0  0  0  0  0  0  0
   11.7065    4.0073   -0.6535 H   0  0  0  0  0  0  0  0  0  0  0  0
    7.8422    7.2148   -3.4718 H   0  0  0  0  0  0  0  0  0  0  0  0
    4.3523    5.3995   -1.6140 H   0  0  0  0  0  0  0  0  0  0  0  0
    4.7339    4.7791   -0.0571 H   0  0  0  0  0  0  0  0  0  0  0  0
    5.8323    2.5998   -0.1125 H   0  0  0  0  0  0  0  0  0  0  0  0
    4.3101    1.2503    1.2511 H   0  0  0  0  0  0  0  0  0  0  0  0
  1  2  1  0  0  0  0
  1 25  1  0  0  0  0
  1 26  1  0  0  0  0
  1 27  1  0  0  0  0
  2  3  1  0  0  0  0
  3  4  1  0  0  0  0
  3 28  1  0  0  0  0
  3 29  1  0  0  0  0
  4  5  1  0  0  0  0
  5  6  1  0  0  0  0
  5 23  2  0  0  0  0
  6  7  2  0  0  0  0
  6 30  1  0  0  0  0
  7  8  1  0  0  0  0
  7 21  1  0  0  0  0
  8  9  2  0  0  0  0
  8 20  1  0  0  0  0
  9 10  1  0  0  0  0
 10 11  1  0  0  0  0
 10 14  1  0  0  0  0
 11 12  1  0  0  0  0
 11 13  1  0  0  0  0
 11 31  1  0  0  0  0
 12 32  1  0  0  0  0
 12 33  1  0  0  0  0
 12 34  1  0  0  0  0
 13 35  1  0  0  0  0
 13 36  1  0  0  0  0
 13 37  1  0  0  0  0
 14 15  1  0  0  0  0
 14 20  2  0  0  0  0
 15 16  2  0  0  0  0
 16 17  1  0  0  0  0
 16 38  1  0  0  0  0
 17 18  2  0  0  0  0
 18 19  1  0  0  0  0
 18 20  1  0  0  0  0
 19 39  1  0  0  0  0
 19 40  1  0  0  0  0
 21 22  2  0  0  0  0
 21 41  1  0  0  0  0
 22 23  1  0  0  0  0
 22 42  1  0  0  0  0
 23 24  1  0  0  0  0
M  END
$$$$
