CHEMBL3890328
 OpenBabel04072215373D

 57 60  0  0  1  0  0  0  0  0999 V2000
    6.6643   -8.9222    0.1868 C   0  0  0  0  0  0  0  0  0  0  0  0
    5.3020   -9.0615    0.8762 C   0  0  3  0  0  0  0  0  0  0  0  0
    5.3625  -10.1199    1.8925 N   0  0  0  0  0  0  0  0  0  0  0  0
    4.8538   -7.7560    1.5008 C   0  0  0  0  0  0  0  0  0  0  0  0
    3.6461   -7.1269    1.1856 C   0  0  0  0  0  0  0  0  0  0  0  0
    3.2328   -5.9743    1.8838 C   0  0  0  0  0  0  0  0  0  0  0  0
    3.9982   -5.4459    2.9341 C   0  0  0  0  0  0  0  0  0  0  0  0
    3.5184   -4.3674    3.7026 N   0  0  0  0  0  0  0  0  0  0  0  0
    3.9457   -3.9507    4.9693 C   0  0  0  0  0  0  0  0  0  0  0  0
    3.0613   -3.2977    5.7337 N   0  0  0  0  0  0  0  0  0  0  0  0
    3.4723   -2.9694    6.9863 C   0  0  0  0  0  0  0  0  0  0  0  0
    4.7197   -3.2578    7.5060 C   0  0  0  0  0  0  0  0  0  0  0  0
    5.1213   -2.7996    9.1082 Cl  0  0  0  0  0  0  0  0  0  0  0  0
    5.5869   -3.9093    6.6531 C   0  0  0  0  0  0  0  0  0  0  0  0
    7.0124   -4.2893    6.9848 C   0  0  0  0  0  0  0  0  0  0  0  0
    7.1573   -5.6972    7.5896 C   0  0  0  0  0  0  0  0  0  0  0  0
    8.5932   -6.0519    7.9682 C   0  0  0  0  0  0  0  0  0  0  0  0
    9.0785   -5.5397    9.1912 C   0  0  0  0  0  0  0  0  0  0  0  0
   10.3520   -5.8611    9.6668 C   0  0  0  0  0  0  0  0  0  0  0  0
   11.1962   -6.6528    8.9057 C   0  0  0  0  0  0  0  0  0  0  0  0
   10.7393   -7.1628    7.6985 C   0  0  0  0  0  0  0  0  0  0  0  0
    9.4279   -6.9236    7.2176 C   0  0  0  0  0  0  0  0  0  0  0  0
    8.9805   -7.8075    6.0465 C   0  0  0  0  0  0  0  0  0  0  0  0
    8.3836   -9.1632    6.4079 C   0  0  0  0  0  0  0  0  0  0  0  0
    7.9275   -9.3176    7.6870 N   0  0  0  0  0  0  0  0  0  0  0  0
    8.2976  -10.0704    5.5953 O   0  0  0  0  0  0  0  0  0  0  0  0
    9.9165   -7.7743    4.8165 C   0  0  0  0  0  0  0  0  0  0  0  0
    8.5363   -7.2259    4.7230 C   0  0  0  0  0  0  0  0  0  0  0  0
    5.1883   -4.2433    5.4026 N   0  0  0  0  0  0  0  0  0  0  0  0
    5.2504   -6.0181    3.1488 C   0  0  0  0  0  0  0  0  0  0  0  0
    5.6594   -7.1501    2.4574 C   0  0  0  0  0  0  0  0  0  0  0  0
    6.9708   -9.8680   -0.2721 H   0  0  0  0  0  0  0  0  0  0  0  0
    7.4607   -8.6268    0.8807 H   0  0  0  0  0  0  0  0  0  0  0  0
    6.6200   -8.1619   -0.6005 H   0  0  0  0  0  0  0  0  0  0  0  0
    4.5666   -9.3705    0.1261 H   0  0  0  0  0  0  0  0  0  0  0  0
    6.0470   -9.8736    2.6102 H   0  0  0  0  0  0  0  0  0  0  0  0
    5.7081  -10.9804    1.4738 H   0  0  0  0  0  0  0  0  0  0  0  0
    3.0037   -7.5385    0.4114 H   0  0  0  0  0  0  0  0  0  0  0  0
    2.2822   -5.5200    1.6165 H   0  0  0  0  0  0  0  0  0  0  0  0
    2.5338   -4.1640    3.6046 H   0  0  0  0  0  0  0  0  0  0  0  0
    2.7232   -2.4508    7.5777 H   0  0  0  0  0  0  0  0  0  0  0  0
    7.4568   -3.5258    7.6293 H   0  0  0  0  0  0  0  0  0  0  0  0
    7.5910   -4.2496    6.0511 H   0  0  0  0  0  0  0  0  0  0  0  0
    6.7408   -6.4519    6.9140 H   0  0  0  0  0  0  0  0  0  0  0  0
    6.5440   -5.7627    8.4997 H   0  0  0  0  0  0  0  0  0  0  0  0
    8.4401   -4.9150    9.8139 H   0  0  0  0  0  0  0  0  0  0  0  0
   10.6819   -5.5014   10.6378 H   0  0  0  0  0  0  0  0  0  0  0  0
   12.1886   -6.9141    9.2625 H   0  0  0  0  0  0  0  0  0  0  0  0
   11.3988   -7.8261    7.1380 H   0  0  0  0  0  0  0  0  0  0  0  0
    8.0661   -8.6173    8.4033 H   0  0  0  0  0  0  0  0  0  0  0  0
    7.5805  -10.2253    7.9572 H   0  0  0  0  0  0  0  0  0  0  0  0
   10.1383   -8.7143    4.3209 H   0  0  0  0  0  0  0  0  0  0  0  0
   10.7266   -7.0556    4.7637 H   0  0  0  0  0  0  0  0  0  0  0  0
    7.8362   -7.8298    4.1665 H   0  0  0  0  0  0  0  0  0  0  0  0
    8.4189   -6.1589    4.6067 H   0  0  0  0  0  0  0  0  0  0  0  0
    5.9441   -5.6280    3.8816 H   0  0  0  0  0  0  0  0  0  0  0  0
    6.6195   -7.5826    2.6891 H   0  0  0  0  0  0  0  0  0  0  0  0
  1  2  1  0  0  0  0
  1 32  1  0  0  0  0
  1 33  1  0  0  0  0
  1 34  1  0  0  0  0
  2  3  1  0  0  0  0
  2  4  1  0  0  0  0
  2 35  1  0  0  0  0
  3 36  1  0  0  0  0
  3 37  1  0  0  0  0
  4  5  1  0  0  0  0
  4 31  2  0  0  0  0
  5  6  2  0  0  0  0
  5 38  1  0  0  0  0
  6  7  1  0  0  0  0
  6 39  1  0  0  0  0
  7  8  1  0  0  0  0
  7 30  2  0  0  0  0
  8  9  1  0  0  0  0
  8 40  1  0  0  0  0
  9 10  1  0  0  0  0
  9 29  2  0  0  0  0
 10 11  2  0  0  0  0
 11 12  1  0  0  0  0
 11 41  1  0  0  0  0
 12 13  1  0  0  0  0
 12 14  2  0  0  0  0
 14 15  1  0  0  0  0
 14 29  1  0  0  0  0
 15 16  1  0  0  0  0
 15 42  1  0  0  0  0
 15 43  1  0  0  0  0
 16 17  1  0  0  0  0
 16 44  1  0  0  0  0
 16 45  1  0  0  0  0
 17 18  1  0  0  0  0
 17 22  2  0  0  0  0
 18 19  2  0  0  0  0
 18 46  1  0  0  0  0
 19 20  1  0  0  0  0
 19 47  1  0  0  0  0
 20 21  2  0  0  0  0
 20 48  1  0  0  0  0
 21 22  1  0  0  0  0
 21 49  1  0  0  0  0
 22 23  1  0  0  0  0
 23 24  1  0  0  0  0
 23 27  1  0  0  0  0
 23 28  1  0  0  0  0
 24 25  1  0  0  0  0
 24 26  2  0  0  0  0
 25 50  1  0  0  0  0
 25 51  1  0  0  0  0
 27 28  1  0  0  0  0
 27 52  1  0  0  0  0
 27 53  1  0  0  0  0
 28 54  1  0  0  0  0
 28 55  1  0  0  0  0
 30 31  1  0  0  0  0
 30 56  1  0  0  0  0
 31 57  1  0  0  0  0
M  END
$$$$
