CHEMBL2386807
 OpenBabel04072215363D

 71 75  0  0  0  0  0  0  0  0999 V2000
    5.5250    4.5930   -2.1071 C   0  0  0  0  0  0  0  0  0  0  0  0
    4.8931    3.3707   -1.5176 C   0  0  0  0  0  0  0  0  0  0  0  0
    3.6263    3.4970   -1.0891 N   0  0  0  0  0  0  0  0  0  0  0  0
    3.0674    2.4312   -0.4951 C   0  0  0  0  0  0  0  0  0  0  0  0
    1.7441    2.4881    0.0118 N   0  0  0  0  0  0  0  0  0  0  0  0
    1.0085    3.6198    0.0144 C   0  0  0  0  0  0  0  0  0  0  0  0
    0.0484    4.0740    0.8856 C   0  0  0  0  0  0  0  0  0  0  0  0
   -0.2973    5.3808    0.4342 C   0  0  0  0  0  0  0  0  0  0  0  0
   -1.2015    6.3362    1.0730 C   0  0  0  0  0  0  0  0  0  0  0  0
   -1.7815    6.0535    2.3204 C   0  0  0  0  0  0  0  0  0  0  0  0
   -2.6410    6.9659    2.9294 C   0  0  0  0  0  0  0  0  0  0  0  0
   -2.9547    8.1838    2.3082 C   0  0  0  0  0  0  0  0  0  0  0  0
   -3.9243    9.1345    2.9518 C   0  0  0  0  0  0  0  0  0  0  0  0
   -3.2922   10.0596    3.8635 N   0  0  0  0  0  0  0  0  0  0  0  0
   -3.1176    9.7424    5.1892 C   0  0  0  0  0  0  0  0  0  0  0  0
   -3.3981    8.6455    5.6596 O   0  0  0  0  0  0  0  0  0  0  0  0
   -2.6848   10.8306    5.9136 N   0  0  0  0  0  0  0  0  0  0  0  0
   -2.5061   10.7217    7.2783 C   0  0  0  0  0  0  0  0  0  0  0  0
   -1.8648    9.6792    7.9814 C   0  0  0  0  0  0  0  0  0  0  0  0
   -2.0322   10.0059    9.3026 C   0  0  0  0  0  0  0  0  0  0  0  0
   -1.6656    9.3564   10.5719 C   0  0  0  0  0  0  0  0  0  0  0  0
   -2.6925   11.1921    9.3880 O   0  0  0  0  0  0  0  0  0  0  0  0
   -2.9406   11.6727    8.1112 N   0  0  0  0  0  0  0  0  0  0  0  0
   -2.3568    8.4826    1.0780 C   0  0  0  0  0  0  0  0  0  0  0  0
   -1.4946    7.5666    0.4673 C   0  0  0  0  0  0  0  0  0  0  0  0
    0.3527    5.6705   -0.7113 N   0  0  0  0  0  0  0  0  0  0  0  0
    1.1341    4.6005   -0.9288 N   0  0  0  0  0  0  0  0  0  0  0  0
    3.7457    1.2438   -0.3899 C   0  0  0  0  0  0  0  0  0  0  0  0
    5.0515    1.1929   -0.8402 C   0  0  0  0  0  0  0  0  0  0  0  0
    5.7312   -0.0077   -0.6623 N   0  0  0  0  0  0  0  0  0  0  0  0
    6.8475   -0.3235   -1.5565 C   0  0  0  0  0  0  0  0  0  0  0  0
    7.1394   -1.8502   -1.4275 C   0  0  0  0  0  0  0  0  0  0  0  0
    7.3629   -2.3600   -0.0371 N   0  0  0  0  0  0  0  0  0  0  0  0
    8.7002   -1.9528    0.4463 C   0  0  0  0  0  0  0  0  0  0  0  0
    9.0436   -2.4910    1.8468 C   0  0  0  0  0  0  0  0  0  0  0  0
    8.8864   -3.9050    1.9007 O   0  0  0  0  0  0  0  0  0  0  0  0
    6.2584   -1.8663    0.8237 C   0  0  0  0  0  0  0  0  0  0  0  0
    6.0075   -0.3463    0.7416 C   0  0  0  0  0  0  0  0  0  0  0  0
    5.6332    2.2497   -1.4247 N   0  0  0  0  0  0  0  0  0  0  0  0
    4.8341    5.4413   -2.0742 H   0  0  0  0  0  0  0  0  0  0  0  0
    5.7975    4.4110   -3.1506 H   0  0  0  0  0  0  0  0  0  0  0  0
    6.4208    4.8624   -1.5400 H   0  0  0  0  0  0  0  0  0  0  0  0
    1.6490    1.8888    0.8272 H   0  0  0  0  0  0  0  0  0  0  0  0
   -0.3048    3.5610    1.7639 H   0  0  0  0  0  0  0  0  0  0  0  0
   -1.5729    5.1226    2.8396 H   0  0  0  0  0  0  0  0  0  0  0  0
   -3.0771    6.7177    3.8957 H   0  0  0  0  0  0  0  0  0  0  0  0
   -4.7073    8.5716    3.4799 H   0  0  0  0  0  0  0  0  0  0  0  0
   -4.4286    9.7319    2.1860 H   0  0  0  0  0  0  0  0  0  0  0  0
   -2.6211   10.7073    3.4724 H   0  0  0  0  0  0  0  0  0  0  0  0
   -3.0870   11.7131    5.6353 H   0  0  0  0  0  0  0  0  0  0  0  0
   -1.3677    8.8107    7.5770 H   0  0  0  0  0  0  0  0  0  0  0  0
   -0.8918    8.5989   10.4118 H   0  0  0  0  0  0  0  0  0  0  0  0
   -2.5371    8.8644   11.0146 H   0  0  0  0  0  0  0  0  0  0  0  0
   -1.2799   10.0883   11.2876 H   0  0  0  0  0  0  0  0  0  0  0  0
   -2.5698    9.4210    0.5721 H   0  0  0  0  0  0  0  0  0  0  0  0
   -1.0504    7.8170   -0.4947 H   0  0  0  0  0  0  0  0  0  0  0  0
    1.7799    4.5998   -1.7065 H   0  0  0  0  0  0  0  0  0  0  0  0
    3.2783    0.3645    0.0347 H   0  0  0  0  0  0  0  0  0  0  0  0
    7.7383    0.2638   -1.3016 H   0  0  0  0  0  0  0  0  0  0  0  0
    6.5848   -0.1064   -2.5991 H   0  0  0  0  0  0  0  0  0  0  0  0
    7.9801   -2.1269   -2.0744 H   0  0  0  0  0  0  0  0  0  0  0  0
    6.2693   -2.3896   -1.8280 H   0  0  0  0  0  0  0  0  0  0  0  0
    8.8278   -0.8655    0.4411 H   0  0  0  0  0  0  0  0  0  0  0  0
    9.4390   -2.3732   -0.2476 H   0  0  0  0  0  0  0  0  0  0  0  0
    8.4116   -2.0449    2.6204 H   0  0  0  0  0  0  0  0  0  0  0  0
   10.0816   -2.2515    2.0955 H   0  0  0  0  0  0  0  0  0  0  0  0
    8.0747   -4.0990    1.3923 H   0  0  0  0  0  0  0  0  0  0  0  0
    6.3986   -2.1647    1.8667 H   0  0  0  0  0  0  0  0  0  0  0  0
    5.3397   -2.3790    0.5061 H   0  0  0  0  0  0  0  0  0  0  0  0
    6.8769    0.2161    1.1062 H   0  0  0  0  0  0  0  0  0  0  0  0
    5.1691   -0.1010    1.4040 H   0  0  0  0  0  0  0  0  0  0  0  0
  1  2  1  0  0  0  0
  1 40  1  0  0  0  0
  1 41  1  0  0  0  0
  1 42  1  0  0  0  0
  2  3  1  0  0  0  0
  2 39  2  0  0  0  0
  3  4  2  0  0  0  0
  4  5  1  0  0  0  0
  4 28  1  0  0  0  0
  5  6  1  0  0  0  0
  5 43  1  0  0  0  0
  6  7  2  0  0  0  0
  6 27  1  0  0  0  0
  7  8  1  0  0  0  0
  7 44  1  0  0  0  0
  8  9  1  0  0  0  0
  8 26  2  0  0  0  0
  9 10  1  0  0  0  0
  9 25  2  0  0  0  0
 10 11  2  0  0  0  0
 10 45  1  0  0  0  0
 11 12  1  0  0  0  0
 11 46  1  0  0  0  0
 12 13  1  0  0  0  0
 12 24  2  0  0  0  0
 13 14  1  0  0  0  0
 13 47  1  0  0  0  0
 13 48  1  0  0  0  0
 14 15  1  0  0  0  0
 14 49  1  0  0  0  0
 15 16  2  0  0  0  0
 15 17  1  0  0  0  0
 17 18  1  0  0  0  0
 17 50  1  0  0  0  0
 18 19  1  0  0  0  0
 18 23  2  0  0  0  0
 19 20  2  0  0  0  0
 19 51  1  0  0  0  0
 20 21  1  0  0  0  0
 20 22  1  0  0  0  0
 21 52  1  0  0  0  0
 21 53  1  0  0  0  0
 21 54  1  0  0  0  0
 22 23  1  0  0  0  0
 24 25  1  0  0  0  0
 24 55  1  0  0  0  0
 25 56  1  0  0  0  0
 26 27  1  0  0  0  0
 27 57  1  0  0  0  0
 28 29  2  0  0  0  0
 28 58  1  0  0  0  0
 29 30  1  0  0  0  0
 29 39  1  0  0  0  0
 30 31  1  0  0  0  0
 30 38  1  0  0  0  0
 31 32  1  0  0  0  0
 31 59  1  0  0  0  0
 31 60  1  0  0  0  0
 32 33  1  0  0  0  0
 32 61  1  0  0  0  0
 32 62  1  0  0  0  0
 33 34  1  0  0  0  0
 33 37  1  0  0  0  0
 34 35  1  0  0  0  0
 34 63  1  0  0  0  0
 34 64  1  0  0  0  0
 35 36  1  0  0  0  0
 35 65  1  0  0  0  0
 35 66  1  0  0  0  0
 36 67  1  0  0  0  0
 37 38  1  0  0  0  0
 37 68  1  0  0  0  0
 37 69  1  0  0  0  0
 38 70  1  0  0  0  0
 38 71  1  0  0  0  0
M  END
$$$$
