CHEMBL3702657
 OpenBabel04072215373D

 53 56  0  0  0  0  0  0  0  0999 V2000
    2.4824    0.0152   -0.0530 C   0  0  0  0  0  0  0  0  0  0  0  0
    0.9764   -0.0444    0.0150 C   0  0  0  0  0  0  0  0  0  0  0  0
    0.2660    1.1779    0.0534 C   0  0  0  0  0  0  0  0  0  0  0  0
   -1.1286    1.2098    0.0573 C   0  0  0  0  0  0  0  0  0  0  0  0
   -1.8315    0.0108    0.0450 C   0  0  0  0  0  0  0  0  0  0  0  0
   -3.3136   -0.0669    0.1153 C   0  0  0  0  0  0  0  0  0  0  0  0
   -3.7839   -1.0279    0.7191 O   0  0  0  0  0  0  0  0  0  0  0  0
   -4.0357    0.9037   -0.5634 N   0  0  0  0  0  0  0  0  0  0  0  0
   -5.4529    0.9400   -0.6477 C   0  0  0  0  0  0  0  0  0  0  0  0
   -6.2822    0.2121    0.2096 C   0  0  0  0  0  0  0  0  0  0  0  0
   -7.6695    0.2215    0.0571 C   0  0  0  0  0  0  0  0  0  0  0  0
   -8.2503    0.9666   -0.9616 C   0  0  0  0  0  0  0  0  0  0  0  0
   -7.4496    1.7262   -1.8245 C   0  0  0  0  0  0  0  0  0  0  0  0
   -8.0754    2.5150   -2.9477 C   0  0  0  0  0  0  0  0  0  0  0  0
   -9.4263    2.3635   -3.0356 F   0  0  0  0  0  0  0  0  0  0  0  0
   -7.8571    3.8542   -2.8312 F   0  0  0  0  0  0  0  0  0  0  0  0
   -7.5824    2.1612   -4.1672 F   0  0  0  0  0  0  0  0  0  0  0  0
   -6.0484    1.7247   -1.6463 C   0  0  0  0  0  0  0  0  0  0  0  0
   -1.1298   -1.2077    0.0282 C   0  0  0  0  0  0  0  0  0  0  0  0
    0.2721   -1.2701   -0.0036 C   0  0  0  0  0  0  0  0  0  0  0  0
    0.9432   -2.4950   -0.1112 N   0  0  0  0  0  0  0  0  0  0  0  0
    0.2517   -3.6046   -0.7984 C   0  0  0  0  0  0  0  0  0  0  0  0
    1.3073   -4.5421   -1.3816 C   0  0  0  0  0  0  0  0  0  0  0  0
    2.4053   -4.8459   -0.3960 C   0  0  0  0  0  0  0  0  0  0  0  0
    3.2570   -5.8408   -0.7345 N   0  0  0  0  0  0  0  0  0  0  0  0
    4.2929   -6.0745    0.0967 C   0  0  0  0  0  0  0  0  0  0  0  0
    5.3007   -7.1181   -0.3156 C   0  0  0  0  0  0  0  0  0  0  0  0
    5.4639   -8.4670    0.8933 S   0  0  0  0  0  0  0  0  0  0  0  0
    4.5208   -5.3907    1.2384 N   0  0  0  0  0  0  0  0  0  0  0  0
    3.6445   -4.4131    1.5386 C   0  0  0  0  0  0  0  0  0  0  0  0
    2.5694   -4.0742    0.7446 C   0  0  0  0  0  0  0  0  0  0  0  0
    1.6250   -2.9643    1.1083 C   0  0  0  0  0  0  0  0  0  0  0  0
    2.8390    1.0454   -0.1583 H   0  0  0  0  0  0  0  0  0  0  0  0
    2.8533   -0.5477   -0.9146 H   0  0  0  0  0  0  0  0  0  0  0  0
    2.9342   -0.3732    0.8635 H   0  0  0  0  0  0  0  0  0  0  0  0
    0.8144    2.1195    0.0713 H   0  0  0  0  0  0  0  0  0  0  0  0
   -1.6403    2.1684    0.1081 H   0  0  0  0  0  0  0  0  0  0  0  0
   -3.5256    1.5198   -1.1819 H   0  0  0  0  0  0  0  0  0  0  0  0
   -5.8785   -0.3795    1.0261 H   0  0  0  0  0  0  0  0  0  0  0  0
   -8.2876   -0.3667    0.7311 H   0  0  0  0  0  0  0  0  0  0  0  0
   -9.3335    0.9467   -1.0805 H   0  0  0  0  0  0  0  0  0  0  0  0
   -5.4334    2.3131   -2.3234 H   0  0  0  0  0  0  0  0  0  0  0  0
   -1.7127   -2.1265    0.0414 H   0  0  0  0  0  0  0  0  0  0  0  0
   -0.3837   -3.2496   -1.6187 H   0  0  0  0  0  0  0  0  0  0  0  0
   -0.3883   -4.1488   -0.0896 H   0  0  0  0  0  0  0  0  0  0  0  0
    1.7662   -4.0662   -2.2565 H   0  0  0  0  0  0  0  0  0  0  0  0
    0.8329   -5.4720   -1.7159 H   0  0  0  0  0  0  0  0  0  0  0  0
    6.2754   -6.6341   -0.4340 H   0  0  0  0  0  0  0  0  0  0  0  0
    5.0263   -7.5516   -1.2826 H   0  0  0  0  0  0  0  0  0  0  0  0
    5.6224   -7.6601    1.9546 H   0  0  0  0  0  0  0  0  0  0  0  0
    3.8553   -3.8816    2.4623 H   0  0  0  0  0  0  0  0  0  0  0  0
    2.1865   -2.1649    1.5974 H   0  0  0  0  0  0  0  0  0  0  0  0
    0.8915   -3.3386    1.8349 H   0  0  0  0  0  0  0  0  0  0  0  0
  1  2  1  0  0  0  0
  1 33  1  0  0  0  0
  1 34  1  0  0  0  0
  1 35  1  0  0  0  0
  2  3  1  0  0  0  0
  2 20  2  0  0  0  0
  3  4  2  0  0  0  0
  3 36  1  0  0  0  0
  4  5  1  0  0  0  0
  4 37  1  0  0  0  0
  5  6  1  0  0  0  0
  5 19  2  0  0  0  0
  6  7  2  0  0  0  0
  6  8  1  0  0  0  0
  8  9  1  0  0  0  0
  8 38  1  0  0  0  0
  9 10  1  0  0  0  0
  9 18  2  0  0  0  0
 10 11  2  0  0  0  0
 10 39  1  0  0  0  0
 11 12  1  0  0  0  0
 11 40  1  0  0  0  0
 12 13  2  0  0  0  0
 12 41  1  0  0  0  0
 13 14  1  0  0  0  0
 13 18  1  0  0  0  0
 14 15  1  0  0  0  0
 14 16  1  0  0  0  0
 14 17  1  0  0  0  0
 18 42  1  0  0  0  0
 19 20  1  0  0  0  0
 19 43  1  0  0  0  0
 20 21  1  0  0  0  0
 21 22  1  0  0  0  0
 21 32  1  0  0  0  0
 22 23  1  0  0  0  0
 22 44  1  0  0  0  0
 22 45  1  0  0  0  0
 23 24  1  0  0  0  0
 23 46  1  0  0  0  0
 23 47  1  0  0  0  0
 24 25  1  0  0  0  0
 24 31  2  0  0  0  0
 25 26  2  0  0  0  0
 26 27  1  0  0  0  0
 26 29  1  0  0  0  0
 27 28  1  0  0  0  0
 27 48  1  0  0  0  0
 27 49  1  0  0  0  0
 28 50  1  0  0  0  0
 29 30  2  0  0  0  0
 30 31  1  0  0  0  0
 30 51  1  0  0  0  0
 31 32  1  0  0  0  0
 32 52  1  0  0  0  0
 32 53  1  0  0  0  0
M  END
$$$$
