CHEMBL1974310
 OpenBabel04072215363D

 28 30  0  0  0  0  0  0  0  0999 V2000
    1.4154   -0.8242    0.1248 N   0  0  0  0  0  0  0  0  0  0  0  0
    2.5237   -0.0606   -0.1095 C   0  0  0  0  0  0  0  0  0  0  0  0
    2.8783    0.1406   -1.2692 O   0  0  0  0  0  0  0  0  0  0  0  0
    3.2032    0.4917    1.0519 C   0  0  0  0  0  0  0  0  0  0  0  0
    4.3069    1.3187    1.0360 C   0  0  0  0  0  0  0  0  0  0  0  0
    4.7031    1.8130    2.3340 C   0  0  0  0  0  0  0  0  0  0  0  0
    5.7098    2.7387    2.7421 C   0  0  0  0  0  0  0  0  0  0  0  0
    6.5784    3.4477    1.7773 C   0  0  0  0  0  0  0  0  0  0  0  0
    6.0890    3.9417    0.5519 C   0  0  0  0  0  0  0  0  0  0  0  0
    6.9342    4.5387   -0.3890 C   0  0  0  0  0  0  0  0  0  0  0  0
    8.2771    4.7061   -0.0918 C   0  0  0  0  0  0  0  0  0  0  0  0
    9.0892    5.2748   -0.9918 F   0  0  0  0  0  0  0  0  0  0  0  0
    8.7864    4.2947    1.1302 C   0  0  0  0  0  0  0  0  0  0  0  0
    7.9449    3.6634    2.0532 C   0  0  0  0  0  0  0  0  0  0  0  0
    5.8277    2.9198    4.1254 C   0  0  0  0  0  0  0  0  0  0  0  0
    5.0907    2.3013    5.0719 N   0  0  0  0  0  0  0  0  0  0  0  0
    4.1309    1.4428    4.6788 C   0  0  0  0  0  0  0  0  0  0  0  0
    3.9175    1.2033    3.3212 C   0  0  0  0  0  0  0  0  0  0  0  0
    2.7093    0.1756    2.6492 S   0  0  0  0  0  0  0  0  0  0  0  0
    0.9068   -1.1780   -0.6732 H   0  0  0  0  0  0  0  0  0  0  0  0
    1.0599   -0.9800    1.0565 H   0  0  0  0  0  0  0  0  0  0  0  0
    4.7851    1.5914    0.1025 H   0  0  0  0  0  0  0  0  0  0  0  0
    5.0323    3.8654    0.3042 H   0  0  0  0  0  0  0  0  0  0  0  0
    6.5481    4.8703   -1.3477 H   0  0  0  0  0  0  0  0  0  0  0  0
    9.8363    4.4537    1.3549 H   0  0  0  0  0  0  0  0  0  0  0  0
    8.3828    3.3269    2.9914 H   0  0  0  0  0  0  0  0  0  0  0  0
    6.5590    3.6136    4.5354 H   0  0  0  0  0  0  0  0  0  0  0  0
    3.5484    0.9673    5.4598 H   0  0  0  0  0  0  0  0  0  0  0  0
  1  2  1  0  0  0  0
  1 20  1  0  0  0  0
  1 21  1  0  0  0  0
  2  3  2  0  0  0  0
  2  4  1  0  0  0  0
  4  5  2  0  0  0  0
  4 19  1  0  0  0  0
  5  6  1  0  0  0  0
  5 22  1  0  0  0  0
  6  7  1  0  0  0  0
  6 18  2  0  0  0  0
  7  8  1  0  0  0  0
  7 15  2  0  0  0  0
  8  9  1  0  0  0  0
  8 14  2  0  0  0  0
  9 10  2  0  0  0  0
  9 23  1  0  0  0  0
 10 11  1  0  0  0  0
 10 24  1  0  0  0  0
 11 12  1  0  0  0  0
 11 13  2  0  0  0  0
 13 14  1  0  0  0  0
 13 25  1  0  0  0  0
 14 26  1  0  0  0  0
 15 16  1  0  0  0  0
 15 27  1  0  0  0  0
 16 17  2  0  0  0  0
 17 18  1  0  0  0  0
 17 28  1  0  0  0  0
 18 19  1  0  0  0  0
M  END
$$$$
