CHEMBL3954085
 OpenBabel04072215373D

 54 59  0  0  0  0  0  0  0  0999 V2000
    2.3859    1.4063   -0.7368 O   0  0  0  0  0  0  0  0  0  0  0  0
    3.4159    0.7385   -0.7819 C   0  0  0  0  0  0  0  0  0  0  0  0
    3.6926   -0.2962   -1.6654 N   0  0  0  0  0  0  0  0  0  0  0  0
    2.8088   -0.7472   -2.6736 C   0  0  0  0  0  0  0  0  0  0  0  0
    1.6975    0.0033   -3.0882 C   0  0  0  0  0  0  0  0  0  0  0  0
    0.7674   -0.5291   -3.9701 C   0  0  0  0  0  0  0  0  0  0  0  0
    0.9424   -1.8047   -4.5074 C   0  0  0  0  0  0  0  0  0  0  0  0
    2.1130   -2.5104   -4.2075 C   0  0  0  0  0  0  0  0  0  0  0  0
    2.3761   -3.8357   -4.8204 C   0  0  0  0  0  0  0  0  0  0  0  0
    3.0863   -4.6212   -4.1847 O   0  0  0  0  0  0  0  0  0  0  0  0
    1.8492   -4.2566   -6.1526 C   0  0  0  0  0  0  0  0  0  0  0  0
    1.4197   -3.3727   -7.1582 C   0  0  0  0  0  0  0  0  0  0  0  0
    0.8641   -3.8487   -8.3705 C   0  0  0  0  0  0  0  0  0  0  0  0
    0.9723   -5.2256   -8.6505 C   0  0  0  0  0  0  0  0  0  0  0  0
    0.6262   -6.1856   -9.6395 C   0  0  0  0  0  0  0  0  0  0  0  0
   -0.6889   -6.6207  -10.2102 C   0  0  0  0  0  0  0  0  0  0  0  0
   -1.8786   -6.5470   -9.6395 N   0  0  0  0  0  0  0  0  0  0  0  0
   -2.6854   -7.4055  -10.3708 C   0  0  0  0  0  0  0  0  0  0  0  0
   -4.0310   -7.7729  -10.1997 C   0  0  0  0  0  0  0  0  0  0  0  0
   -4.6453   -8.5625  -11.1872 C   0  0  0  0  0  0  0  0  0  0  0  0
   -3.9268   -9.0170  -12.2961 C   0  0  0  0  0  0  0  0  0  0  0  0
   -2.5614   -8.7545  -12.4264 C   0  0  0  0  0  0  0  0  0  0  0  0
   -1.9873   -7.9471  -11.4446 C   0  0  0  0  0  0  0  0  0  0  0  0
   -0.7092   -7.5125  -11.2547 N   0  0  0  0  0  0  0  0  0  0  0  0
    1.5777   -7.1381   -9.6870 N   0  0  0  0  0  0  0  0  0  0  0  0
    1.9752   -7.1601   -8.4019 N   0  0  0  0  0  0  0  0  0  0  0  0
    1.6415   -6.0187   -7.7253 C   0  0  0  0  0  0  0  0  0  0  0  0
    1.9213   -5.6248   -6.4233 C   0  0  0  0  0  0  0  0  0  0  0  0
    3.0316   -1.9877   -3.2722 C   0  0  0  0  0  0  0  0  0  0  0  0
    4.4373    1.0203    0.2563 C   0  0  0  0  0  0  0  0  0  0  0  0
    3.9822    1.3867    1.5308 C   0  0  0  0  0  0  0  0  0  0  0  0
    4.8879    1.7321    2.5310 C   0  0  0  0  0  0  0  0  0  0  0  0
    6.2535    1.7224    2.2575 C   0  0  0  0  0  0  0  0  0  0  0  0
    6.7128    1.3666    0.9862 C   0  0  0  0  0  0  0  0  0  0  0  0
    5.8080    1.0134   -0.0203 C   0  0  0  0  0  0  0  0  0  0  0  0
    4.4910   -0.8839   -1.4580 H   0  0  0  0  0  0  0  0  0  0  0  0
    1.5170    0.9996   -2.7098 H   0  0  0  0  0  0  0  0  0  0  0  0
   -0.1217    0.0600   -4.2322 H   0  0  0  0  0  0  0  0  0  0  0  0
    0.1609   -2.1967   -5.1297 H   0  0  0  0  0  0  0  0  0  0  0  0
    1.5276   -2.2964   -7.0351 H   0  0  0  0  0  0  0  0  0  0  0  0
    0.5173   -3.1430   -9.1234 H   0  0  0  0  0  0  0  0  0  0  0  0
   -4.5910   -7.4284   -9.3374 H   0  0  0  0  0  0  0  0  0  0  0  0
   -5.7017   -8.8070  -11.0993 H   0  0  0  0  0  0  0  0  0  0  0  0
   -4.4348   -9.5867  -13.0719 H   0  0  0  0  0  0  0  0  0  0  0  0
   -1.9898   -9.1247  -13.2705 H   0  0  0  0  0  0  0  0  0  0  0  0
    0.1225   -7.8274  -11.7319 H   0  0  0  0  0  0  0  0  0  0  0  0
    2.5346   -7.9352   -8.0788 H   0  0  0  0  0  0  0  0  0  0  0  0
    2.2865   -6.3354   -5.6892 H   0  0  0  0  0  0  0  0  0  0  0  0
    3.8970   -2.5914   -2.9981 H   0  0  0  0  0  0  0  0  0  0  0  0
    2.9141    1.4164    1.7388 H   0  0  0  0  0  0  0  0  0  0  0  0
    4.5240    2.0231    3.5132 H   0  0  0  0  0  0  0  0  0  0  0  0
    6.9596    2.0086    3.0336 H   0  0  0  0  0  0  0  0  0  0  0  0
    7.7798    1.3861    0.7776 H   0  0  0  0  0  0  0  0  0  0  0  0
    6.1801    0.7842   -1.0147 H   0  0  0  0  0  0  0  0  0  0  0  0
  1  2  2  0  0  0  0
  2  3  1  0  0  0  0
  2 30  1  0  0  0  0
  3  4  1  0  0  0  0
  3 36  1  0  0  0  0
  4  5  1  0  0  0  0
  4 29  2  0  0  0  0
  5  6  2  0  0  0  0
  5 37  1  0  0  0  0
  6  7  1  0  0  0  0
  6 38  1  0  0  0  0
  7  8  2  0  0  0  0
  7 39  1  0  0  0  0
  8  9  1  0  0  0  0
  8 29  1  0  0  0  0
  9 10  2  0  0  0  0
  9 11  1  0  0  0  0
 11 12  1  0  0  0  0
 11 28  2  0  0  0  0
 12 13  2  0  0  0  0
 12 40  1  0  0  0  0
 13 14  1  0  0  0  0
 13 41  1  0  0  0  0
 14 15  1  0  0  0  0
 14 27  2  0  0  0  0
 15 16  1  0  0  0  0
 15 25  2  0  0  0  0
 16 17  2  0  0  0  0
 16 24  1  0  0  0  0
 17 18  1  0  0  0  0
 18 19  1  0  0  0  0
 18 23  2  0  0  0  0
 19 20  2  0  0  0  0
 19 42  1  0  0  0  0
 20 21  1  0  0  0  0
 20 43  1  0  0  0  0
 21 22  2  0  0  0  0
 21 44  1  0  0  0  0
 22 23  1  0  0  0  0
 22 45  1  0  0  0  0
 23 24  1  0  0  0  0
 24 46  1  0  0  0  0
 25 26  1  0  0  0  0
 26 27  1  0  0  0  0
 26 47  1  0  0  0  0
 27 28  1  0  0  0  0
 28 48  1  0  0  0  0
 29 49  1  0  0  0  0
 30 31  1  0  0  0  0
 30 35  2  0  0  0  0
 31 32  2  0  0  0  0
 31 50  1  0  0  0  0
 32 33  1  0  0  0  0
 32 51  1  0  0  0  0
 33 34  2  0  0  0  0
 33 52  1  0  0  0  0
 34 35  1  0  0  0  0
 34 53  1  0  0  0  0
 35 54  1  0  0  0  0
M  END
$$$$
