CHEMBL419458
 OpenBabel04072215383D

 39 42  0  0  0  0  0  0  0  0999 V2000
    5.6215   -4.8826   -2.8470 Cl  0  0  0  0  0  0  0  0  0  0  0  0
    5.1217   -3.4848   -1.9769 C   0  0  0  0  0  0  0  0  0  0  0  0
    6.0510   -2.7659   -1.2314 C   0  0  0  0  0  0  0  0  0  0  0  0
    5.6509   -1.6202   -0.5498 C   0  0  0  0  0  0  0  0  0  0  0  0
    4.3268   -1.1618   -0.6231 C   0  0  0  0  0  0  0  0  0  0  0  0
    3.8828   -0.0380    0.1101 N   0  0  0  0  0  0  0  0  0  0  0  0
    4.6341    1.1629    0.2442 C   0  0  0  0  0  0  0  0  0  0  0  0
    5.5820    1.4308   -0.6836 N   0  0  0  0  0  0  0  0  0  0  0  0
    6.2607    2.6072   -0.6860 N   0  0  0  0  0  0  0  0  0  0  0  0
    5.9498    3.5703    0.2078 C   0  0  0  0  0  0  0  0  0  0  0  0
    6.8521    4.7779    0.1454 C   0  0  0  0  0  0  0  0  0  0  0  0
    8.0054    4.6929    1.1208 C   0  0  0  0  0  0  0  0  0  0  0  0
    8.9638    3.6991    0.9977 C   0  0  0  0  0  0  0  0  0  0  0  0
    9.9536    3.6784    1.9543 C   0  0  0  0  0  0  0  0  0  0  0  0
   10.0328    4.5693    2.9577 N   0  0  0  0  0  0  0  0  0  0  0  0
    9.0691    5.5011    2.9802 C   0  0  0  0  0  0  0  0  0  0  0  0
    8.0478    5.6110    2.1128 N   0  0  0  0  0  0  0  0  0  0  0  0
    4.9446    3.3842    1.1759 C   0  0  0  0  0  0  0  0  0  0  0  0
    4.5525    4.3855    2.0981 C   0  0  0  0  0  0  0  0  0  0  0  0
    3.6005    4.1396    3.0876 C   0  0  0  0  0  0  0  0  0  0  0  0
    3.0336    2.8814    3.1975 C   0  0  0  0  0  0  0  0  0  0  0  0
    3.3675    1.8922    2.2732 C   0  0  0  0  0  0  0  0  0  0  0  0
    4.2991    2.1238    1.2263 C   0  0  0  0  0  0  0  0  0  0  0  0
    3.3936   -1.9336   -1.3251 C   0  0  0  0  0  0  0  0  0  0  0  0
    3.7910   -3.0784   -2.0189 C   0  0  0  0  0  0  0  0  0  0  0  0
    7.0906   -3.0871   -1.1827 H   0  0  0  0  0  0  0  0  0  0  0  0
    6.3913   -1.0719    0.0361 H   0  0  0  0  0  0  0  0  0  0  0  0
    3.5524   -0.3607    1.0086 H   0  0  0  0  0  0  0  0  0  0  0  0
    6.2803    5.6994    0.3009 H   0  0  0  0  0  0  0  0  0  0  0  0
    7.2683    4.8700   -0.8670 H   0  0  0  0  0  0  0  0  0  0  0  0
    8.9370    2.9621    0.2046 H   0  0  0  0  0  0  0  0  0  0  0  0
   10.7307    2.9194    1.9410 H   0  0  0  0  0  0  0  0  0  0  0  0
    9.1186    6.2359    3.7763 H   0  0  0  0  0  0  0  0  0  0  0  0
    4.9828    5.3843    2.0581 H   0  0  0  0  0  0  0  0  0  0  0  0
    3.3153    4.9291    3.7786 H   0  0  0  0  0  0  0  0  0  0  0  0
    2.3266    2.6665    3.9949 H   0  0  0  0  0  0  0  0  0  0  0  0
    2.8935    0.9233    2.4027 H   0  0  0  0  0  0  0  0  0  0  0  0
    2.3536   -1.6159   -1.3661 H   0  0  0  0  0  0  0  0  0  0  0  0
    3.0600   -3.6438   -2.5891 H   0  0  0  0  0  0  0  0  0  0  0  0
  1  2  1  0  0  0  0
  2  3  1  0  0  0  0
  2 25  2  0  0  0  0
  3  4  2  0  0  0  0
  3 26  1  0  0  0  0
  4  5  1  0  0  0  0
  4 27  1  0  0  0  0
  5  6  1  0  0  0  0
  5 24  2  0  0  0  0
  6  7  1  0  0  0  0
  6 28  1  0  0  0  0
  7  8  1  0  0  0  0
  7 23  2  0  0  0  0
  8  9  2  0  0  0  0
  9 10  1  0  0  0  0
 10 11  1  0  0  0  0
 10 18  2  0  0  0  0
 11 12  1  0  0  0  0
 11 29  1  0  0  0  0
 11 30  1  0  0  0  0
 12 13  1  0  0  0  0
 12 17  2  0  0  0  0
 13 14  2  0  0  0  0
 13 31  1  0  0  0  0
 14 15  1  0  0  0  0
 14 32  1  0  0  0  0
 15 16  2  0  0  0  0
 16 17  1  0  0  0  0
 16 33  1  0  0  0  0
 18 19  1  0  0  0  0
 18 23  1  0  0  0  0
 19 20  2  0  0  0  0
 19 34  1  0  0  0  0
 20 21  1  0  0  0  0
 20 35  1  0  0  0  0
 21 22  2  0  0  0  0
 21 36  1  0  0  0  0
 22 23  1  0  0  0  0
 22 37  1  0  0  0  0
 24 25  1  0  0  0  0
 24 38  1  0  0  0  0
 25 39  1  0  0  0  0
M  END
$$$$
