CHEMBL1965303
 OpenBabel04072215363D

 42 44  0  0  0  0  0  0  0  0999 V2000
    1.0241   -0.1923    0.0342 C   0  0  0  0  0  0  0  0  0  0  0  0
    2.3785    0.2360   -0.0549 O   0  0  0  0  0  0  0  0  0  0  0  0
    3.0725    0.3960    1.1161 C   0  0  0  0  0  0  0  0  0  0  0  0
    2.7021   -0.2560    2.2972 C   0  0  0  0  0  0  0  0  0  0  0  0
    3.4868   -0.1865    3.4554 C   0  0  0  0  0  0  0  0  0  0  0  0
    3.1245   -0.8733    4.6304 N   0  0  0  0  0  0  0  0  0  0  0  0
    2.5213   -2.1359    4.6552 C   0  0  0  0  0  0  0  0  0  0  0  0
    1.7088   -2.3889    5.6708 N   0  0  0  0  0  0  0  0  0  0  0  0
    1.1739   -3.5985    5.6520 C   0  0  0  0  0  0  0  0  0  0  0  0
    1.3921   -4.5332    4.7400 N   0  0  0  0  0  0  0  0  0  0  0  0
    2.2363   -4.2013    3.7661 C   0  0  0  0  0  0  0  0  0  0  0  0
    2.6097   -5.1199    2.7867 N   0  0  0  0  0  0  0  0  0  0  0  0
    2.6053   -6.4634    2.8423 C   0  0  0  0  0  0  0  0  0  0  0  0
    1.8102   -7.2677    3.6931 C   0  0  0  0  0  0  0  0  0  0  0  0
    2.2281   -8.5563    3.4766 C   0  0  0  0  0  0  0  0  0  0  0  0
    3.1883   -8.4714    2.5169 N   0  0  0  0  0  0  0  0  0  0  0  0
    3.4149   -7.2180    2.0927 N   0  0  0  0  0  0  0  0  0  0  0  0
    2.7958   -3.0053    3.6820 N   0  0  0  0  0  0  0  0  0  0  0  0
    4.6242    0.6179    3.4535 C   0  0  0  0  0  0  0  0  0  0  0  0
    5.0353    1.2528    2.2781 C   0  0  0  0  0  0  0  0  0  0  0  0
    6.1802    2.0145    2.2119 O   0  0  0  0  0  0  0  0  0  0  0  0
    7.2610    1.5540    3.0168 C   0  0  0  0  0  0  0  0  0  0  0  0
    4.2502    1.1658    1.1068 C   0  0  0  0  0  0  0  0  0  0  0  0
    4.7677    1.8114    0.0072 O   0  0  0  0  0  0  0  0  0  0  0  0
    3.8306    2.3602   -0.9100 C   0  0  0  0  0  0  0  0  0  0  0  0
    0.6139   -0.2115   -0.9799 H   0  0  0  0  0  0  0  0  0  0  0  0
    0.4322    0.5148    0.6248 H   0  0  0  0  0  0  0  0  0  0  0  0
    0.9413   -1.2089    0.4312 H   0  0  0  0  0  0  0  0  0  0  0  0
    1.8116   -0.8734    2.3277 H   0  0  0  0  0  0  0  0  0  0  0  0
    2.6738   -0.2918    5.3255 H   0  0  0  0  0  0  0  0  0  0  0  0
    0.4969   -3.8579    6.4583 H   0  0  0  0  0  0  0  0  0  0  0  0
    3.3009   -4.6931    2.1827 H   0  0  0  0  0  0  0  0  0  0  0  0
    1.0549   -6.9518    4.3967 H   0  0  0  0  0  0  0  0  0  0  0  0
    1.9401   -9.4970    3.9219 H   0  0  0  0  0  0  0  0  0  0  0  0
    3.7368   -9.2218    2.1114 H   0  0  0  0  0  0  0  0  0  0  0  0
    5.2037    0.7021    4.3675 H   0  0  0  0  0  0  0  0  0  0  0  0
    8.1784    2.0247    2.6494 H   0  0  0  0  0  0  0  0  0  0  0  0
    7.3930    0.4682    2.9462 H   0  0  0  0  0  0  0  0  0  0  0  0
    7.1250    1.8631    4.0583 H   0  0  0  0  0  0  0  0  0  0  0  0
    4.3439    3.1389   -1.4823 H   0  0  0  0  0  0  0  0  0  0  0  0
    2.9799    2.8292   -0.4033 H   0  0  0  0  0  0  0  0  0  0  0  0
    3.5030    1.6039   -1.6292 H   0  0  0  0  0  0  0  0  0  0  0  0
  1  2  1  0  0  0  0
  1 26  1  0  0  0  0
  1 27  1  0  0  0  0
  1 28  1  0  0  0  0
  2  3  1  0  0  0  0
  3  4  1  0  0  0  0
  3 23  2  0  0  0  0
  4  5  2  0  0  0  0
  4 29  1  0  0  0  0
  5  6  1  0  0  0  0
  5 19  1  0  0  0  0
  6  7  1  0  0  0  0
  6 30  1  0  0  0  0
  7  8  1  0  0  0  0
  7 18  2  0  0  0  0
  8  9  2  0  0  0  0
  9 10  1  0  0  0  0
  9 31  1  0  0  0  0
 10 11  2  0  0  0  0
 11 12  1  0  0  0  0
 11 18  1  0  0  0  0
 12 13  1  0  0  0  0
 12 32  1  0  0  0  0
 13 14  1  0  0  0  0
 13 17  2  0  0  0  0
 14 15  2  0  0  0  0
 14 33  1  0  0  0  0
 15 16  1  0  0  0  0
 15 34  1  0  0  0  0
 16 17  1  0  0  0  0
 16 35  1  0  0  0  0
 19 20  2  0  0  0  0
 19 36  1  0  0  0  0
 20 21  1  0  0  0  0
 20 23  1  0  0  0  0
 21 22  1  0  0  0  0
 22 37  1  0  0  0  0
 22 38  1  0  0  0  0
 22 39  1  0  0  0  0
 23 24  1  0  0  0  0
 24 25  1  0  0  0  0
 25 40  1  0  0  0  0
 25 41  1  0  0  0  0
 25 42  1  0  0  0  0
M  END
$$$$
