CHEMBL3906005
 OpenBabel04072215373D

 80 84  0  0  0  0  0  0  0  0999 V2000
   -1.2217    6.0657   -1.8663 C   0  0  0  0  0  0  0  0  0  0  0  0
   -1.0805    7.3074   -2.7294 C   0  0  0  0  0  0  0  0  0  0  0  0
    0.1925    7.2419   -3.3828 O   0  0  0  0  0  0  0  0  0  0  0  0
    1.2373    7.6995   -2.6443 C   0  0  0  0  0  0  0  0  0  0  0  0
    1.1136    8.4485   -1.6825 O   0  0  0  0  0  0  0  0  0  0  0  0
    2.4384    7.1589   -3.0481 N   0  0  0  0  0  0  0  0  0  0  0  0
    2.5792    6.1901   -4.1384 C   0  0  0  0  0  0  0  0  0  0  0  0
    3.2916    4.9088   -3.6571 C   0  0  0  0  0  0  0  0  0  0  0  0
    4.5748    5.1396   -2.9522 N   0  0  0  0  0  0  0  0  0  0  0  0
    5.6476    5.6626   -3.8138 C   0  0  0  0  0  0  0  0  0  0  0  0
    6.0319    4.7593   -4.9947 C   0  0  0  0  0  0  0  0  0  0  0  0
    7.1547    5.3829   -5.8260 C   0  0  0  0  0  0  0  0  0  0  0  0
    6.7368    6.6311   -6.4344 N   0  0  0  0  0  0  0  0  0  0  0  0
    7.5539    7.4053   -7.2120 C   0  0  0  0  0  0  0  0  0  0  0  0
    8.6895    7.0389   -7.5204 O   0  0  0  0  0  0  0  0  0  0  0  0
    6.9807    8.6761   -7.6304 C   0  0  0  0  0  0  0  0  0  0  0  0
    7.5609    9.6209   -8.4496 C   0  0  0  0  0  0  0  0  0  0  0  0
    6.7293   10.7572   -8.6543 C   0  0  0  0  0  0  0  0  0  0  0  0
    7.0621   11.8304   -9.4197 N   0  0  0  0  0  0  0  0  0  0  0  0
    6.1343   12.7985   -9.5039 C   0  0  0  0  0  0  0  0  0  0  0  0
    4.9052   12.7797   -8.8732 C   0  0  0  0  0  0  0  0  0  0  0  0
    4.5906   11.7096   -8.0314 C   0  0  0  0  0  0  0  0  0  0  0  0
    3.4137   11.6486   -7.3003 O   0  0  0  0  0  0  0  0  0  0  0  0
    3.0026   12.7841   -6.6307 C   0  0  0  0  0  0  0  0  0  0  0  0
    3.8829   13.7806   -6.2129 C   0  0  0  0  0  0  0  0  0  0  0  0
    3.3971   14.9658   -5.6713 C   0  0  0  0  0  0  0  0  0  0  0  0
    2.0283   15.1629   -5.4776 C   0  0  0  0  0  0  0  0  0  0  0  0
    1.5233   16.3985   -4.9909 N   0  0  0  0  0  0  0  0  0  0  0  0
    2.1934   17.5933   -5.1840 C   0  0  0  0  0  0  0  0  0  0  0  0
    3.1917   17.7098   -5.8910 O   0  0  0  0  0  0  0  0  0  0  0  0
    1.6472   18.6517   -4.4704 N   0  0  0  0  0  0  0  0  0  0  0  0
    2.3490   19.8901   -4.5243 C   0  0  0  0  0  0  0  0  0  0  0  0
    2.7071   20.4596   -5.7535 C   0  0  0  0  0  0  0  0  0  0  0  0
    3.6009   21.5366   -5.8104 C   0  0  0  0  0  0  0  0  0  0  0  0
    4.0532   22.0791   -7.1347 C   0  0  0  0  0  0  0  0  0  0  0  0
    4.1271   22.0463   -4.6164 C   0  0  0  0  0  0  0  0  0  0  0  0
    3.7209   21.5242   -3.3846 C   0  0  0  0  0  0  0  0  0  0  0  0
    2.8174   20.4656   -3.3449 C   0  0  0  0  0  0  0  0  0  0  0  0
    2.4835   19.9293   -2.1609 F   0  0  0  0  0  0  0  0  0  0  0  0
    1.1657   14.1023   -5.7705 C   0  0  0  0  0  0  0  0  0  0  0  0
   -0.1517   14.2326   -5.5434 F   0  0  0  0  0  0  0  0  0  0  0  0
    1.6401   12.9194   -6.3526 C   0  0  0  0  0  0  0  0  0  0  0  0
    5.5209   10.6611   -7.9640 C   0  0  0  0  0  0  0  0  0  0  0  0
    5.4298    9.1797   -7.1025 S   0  0  0  0  0  0  0  0  0  0  0  0
    4.3217    6.0893   -1.8342 C   0  0  0  0  0  0  0  0  0  0  0  0
    3.6380    7.4101   -2.2566 C   0  0  0  0  0  0  0  0  0  0  0  0
   -2.2079    6.0185   -1.4005 H   0  0  0  0  0  0  0  0  0  0  0  0
   -0.4587    6.0491   -1.0795 H   0  0  0  0  0  0  0  0  0  0  0  0
   -1.0638    5.1638   -2.4691 H   0  0  0  0  0  0  0  0  0  0  0  0
   -1.1996    8.2237   -2.1409 H   0  0  0  0  0  0  0  0  0  0  0  0
   -1.8516    7.3141   -3.5054 H   0  0  0  0  0  0  0  0  0  0  0  0
    3.1560    6.6772   -4.9324 H   0  0  0  0  0  0  0  0  0  0  0  0
    1.6099    5.9187   -4.5661 H   0  0  0  0  0  0  0  0  0  0  0  0
    3.4208    4.2156   -4.4949 H   0  0  0  0  0  0  0  0  0  0  0  0
    2.6239    4.3829   -2.9614 H   0  0  0  0  0  0  0  0  0  0  0  0
    6.5466    5.7983   -3.1984 H   0  0  0  0  0  0  0  0  0  0  0  0
    5.3825    6.6544   -4.1905 H   0  0  0  0  0  0  0  0  0  0  0  0
    5.1727    4.5919   -5.6533 H   0  0  0  0  0  0  0  0  0  0  0  0
    6.3592    3.7824   -4.6211 H   0  0  0  0  0  0  0  0  0  0  0  0
    7.4491    4.7044   -6.6320 H   0  0  0  0  0  0  0  0  0  0  0  0
    8.0402    5.5787   -5.2127 H   0  0  0  0  0  0  0  0  0  0  0  0
    5.8270    7.0161   -6.2125 H   0  0  0  0  0  0  0  0  0  0  0  0
    8.5435    9.5019   -8.8901 H   0  0  0  0  0  0  0  0  0  0  0  0
    6.4228   13.6513  -10.1145 H   0  0  0  0  0  0  0  0  0  0  0  0
    4.2275   13.6173   -9.0005 H   0  0  0  0  0  0  0  0  0  0  0  0
    4.9580   13.6847   -6.3352 H   0  0  0  0  0  0  0  0  0  0  0  0
    4.1268   15.7299   -5.4193 H   0  0  0  0  0  0  0  0  0  0  0  0
    0.5279   16.4512   -4.8113 H   0  0  0  0  0  0  0  0  0  0  0  0
    1.3293   18.3868   -3.5451 H   0  0  0  0  0  0  0  0  0  0  0  0
    2.3348   20.0203   -6.6773 H   0  0  0  0  0  0  0  0  0  0  0  0
    3.4563   21.6729   -7.9588 H   0  0  0  0  0  0  0  0  0  0  0  0
    5.1004   21.8143   -7.3133 H   0  0  0  0  0  0  0  0  0  0  0  0
    3.9467   23.1679   -7.1561 H   0  0  0  0  0  0  0  0  0  0  0  0
    4.8712   22.8398   -4.6436 H   0  0  0  0  0  0  0  0  0  0  0  0
    4.1407   21.9071   -2.4602 H   0  0  0  0  0  0  0  0  0  0  0  0
    0.9419   12.1273   -6.6042 H   0  0  0  0  0  0  0  0  0  0  0  0
    5.2574    6.3102   -1.3068 H   0  0  0  0  0  0  0  0  0  0  0  0
    3.6801    5.5805   -1.1024 H   0  0  0  0  0  0  0  0  0  0  0  0
    4.3068    8.0235   -2.8696 H   0  0  0  0  0  0  0  0  0  0  0  0
    3.4036    7.9934   -1.3603 H   0  0  0  0  0  0  0  0  0  0  0  0
  1  2  1  0  0  0  0
  1 47  1  0  0  0  0
  1 48  1  0  0  0  0
  1 49  1  0  0  0  0
  2  3  1  0  0  0  0
  2 50  1  0  0  0  0
  2 51  1  0  0  0  0
  3  4  1  0  0  0  0
  4  5  2  0  0  0  0
  4  6  1  0  0  0  0
  6  7  1  0  0  0  0
  6 46  1  0  0  0  0
  7  8  1  0  0  0  0
  7 52  1  0  0  0  0
  7 53  1  0  0  0  0
  8  9  1  0  0  0  0
  8 54  1  0  0  0  0
  8 55  1  0  0  0  0
  9 10  1  0  0  0  0
  9 45  1  0  0  0  0
 10 11  1  0  0  0  0
 10 56  1  0  0  0  0
 10 57  1  0  0  0  0
 11 12  1  0  0  0  0
 11 58  1  0  0  0  0
 11 59  1  0  0  0  0
 12 13  1  0  0  0  0
 12 60  1  0  0  0  0
 12 61  1  0  0  0  0
 13 14  1  0  0  0  0
 13 62  1  0  0  0  0
 14 15  2  0  0  0  0
 14 16  1  0  0  0  0
 16 17  2  0  0  0  0
 16 44  1  0  0  0  0
 17 18  1  0  0  0  0
 17 63  1  0  0  0  0
 18 19  1  0  0  0  0
 18 43  2  0  0  0  0
 19 20  2  0  0  0  0
 20 21  1  0  0  0  0
 20 64  1  0  0  0  0
 21 22  2  0  0  0  0
 21 65  1  0  0  0  0
 22 23  1  0  0  0  0
 22 43  1  0  0  0  0
 23 24  1  0  0  0  0
 24 25  1  0  0  0  0
 24 42  2  0  0  0  0
 25 26  2  0  0  0  0
 25 66  1  0  0  0  0
 26 27  1  0  0  0  0
 26 67  1  0  0  0  0
 27 28  1  0  0  0  0
 27 40  2  0  0  0  0
 28 29  1  0  0  0  0
 28 68  1  0  0  0  0
 29 30  2  0  0  0  0
 29 31  1  0  0  0  0
 31 32  1  0  0  0  0
 31 69  1  0  0  0  0
 32 33  1  0  0  0  0
 32 38  2  0  0  0  0
 33 34  2  0  0  0  0
 33 70  1  0  0  0  0
 34 35  1  0  0  0  0
 34 36  1  0  0  0  0
 35 71  1  0  0  0  0
 35 72  1  0  0  0  0
 35 73  1  0  0  0  0
 36 37  2  0  0  0  0
 36 74  1  0  0  0  0
 37 38  1  0  0  0  0
 37 75  1  0  0  0  0
 38 39  1  0  0  0  0
 40 41  1  0  0  0  0
 40 42  1  0  0  0  0
 42 76  1  0  0  0  0
 43 44  1  0  0  0  0
 45 46  1  0  0  0  0
 45 77  1  0  0  0  0
 45 78  1  0  0  0  0
 46 79  1  0  0  0  0
 46 80  1  0  0  0  0
M  END
$$$$
