CHEMBL2180881
 OpenBabel04072215363D

 45 48  0  0  0  0  0  0  0  0999 V2000
    1.3429   -0.5852    0.4243 C   0  0  0  0  0  0  0  0  0  0  0  0
    2.4460    0.0992   -0.1625 O   0  0  0  0  0  0  0  0  0  0  0  0
    3.1324    0.9823    0.6334 C   0  0  0  0  0  0  0  0  0  0  0  0
    2.7024    1.3118    1.9254 C   0  0  0  0  0  0  0  0  0  0  0  0
    3.4616    2.1429    2.7500 C   0  0  0  0  0  0  0  0  0  0  0  0
    3.0405    2.3554    4.1271 C   0  0  0  0  0  0  0  0  0  0  0  0
    3.3952    1.6056    5.1788 C   0  0  0  0  0  0  0  0  0  0  0  0
    4.2595    0.4866    5.2098 C   0  0  0  0  0  0  0  0  0  0  0  0
    5.6184    0.5554    5.4377 C   0  0  0  0  0  0  0  0  0  0  0  0
    6.1222   -0.7182    5.3465 N   0  0  0  0  0  0  0  0  0  0  0  0
    5.1125   -1.6038    5.0517 C   0  0  0  0  0  0  0  0  0  0  0  0
    5.1305   -2.9831    4.8530 C   0  0  0  0  0  0  0  0  0  0  0  0
    3.9065   -3.5698    4.5567 C   0  0  0  0  0  0  0  0  0  0  0  0
    2.7740   -2.7741    4.4696 C   0  0  0  0  0  0  0  0  0  0  0  0
    2.7332   -1.4327    4.6518 N   0  0  0  0  0  0  0  0  0  0  0  0
    3.9327   -0.8711    4.9548 C   0  0  0  0  0  0  0  0  0  0  0  0
    2.7313    2.1822    6.3647 C   0  0  0  0  0  0  0  0  0  0  0  0
    2.8738    1.8354    7.5217 O   0  0  0  0  0  0  0  0  0  0  0  0
    1.9695    3.2147    5.9299 N   0  0  0  0  0  0  0  0  0  0  0  0
    2.1494    3.4210    4.6080 C   0  0  0  0  0  0  0  0  0  0  0  0
    1.6936    4.3328    3.9455 O   0  0  0  0  0  0  0  0  0  0  0  0
    4.6749    2.6507    2.2919 C   0  0  0  0  0  0  0  0  0  0  0  0
    5.1330    2.3248    1.0122 C   0  0  0  0  0  0  0  0  0  0  0  0
    6.3443    2.7707    0.5328 O   0  0  0  0  0  0  0  0  0  0  0  0
    7.3709    2.9103    1.5124 C   0  0  0  0  0  0  0  0  0  0  0  0
    4.3388    1.5330    0.1511 C   0  0  0  0  0  0  0  0  0  0  0  0
    4.8848    1.2953   -1.0903 O   0  0  0  0  0  0  0  0  0  0  0  0
    3.9762    1.1330   -2.1730 C   0  0  0  0  0  0  0  0  0  0  0  0
    0.9536   -1.2961   -0.3096 H   0  0  0  0  0  0  0  0  0  0  0  0
    0.5362    0.1152    0.6655 H   0  0  0  0  0  0  0  0  0  0  0  0
    1.6499   -1.1564    1.3081 H   0  0  0  0  0  0  0  0  0  0  0  0
    1.7843    0.9020    2.3355 H   0  0  0  0  0  0  0  0  0  0  0  0
    6.2721    1.3923    5.6508 H   0  0  0  0  0  0  0  0  0  0  0  0
    7.0934   -0.9713    5.4651 H   0  0  0  0  0  0  0  0  0  0  0  0
    6.0426   -3.5685    4.9269 H   0  0  0  0  0  0  0  0  0  0  0  0
    3.8347   -4.6426    4.3910 H   0  0  0  0  0  0  0  0  0  0  0  0
    1.8112   -3.2249    4.2374 H   0  0  0  0  0  0  0  0  0  0  0  0
    1.4418    3.8198    6.5327 H   0  0  0  0  0  0  0  0  0  0  0  0
    5.2563    3.2907    2.9468 H   0  0  0  0  0  0  0  0  0  0  0  0
    8.3269    3.0104    0.9904 H   0  0  0  0  0  0  0  0  0  0  0  0
    7.4362    2.0287    2.1617 H   0  0  0  0  0  0  0  0  0  0  0  0
    7.2246    3.8189    2.1056 H   0  0  0  0  0  0  0  0  0  0  0  0
    4.5259    1.3256   -3.1004 H   0  0  0  0  0  0  0  0  0  0  0  0
    3.1427    1.8430   -2.1316 H   0  0  0  0  0  0  0  0  0  0  0  0
    3.6222    0.0998   -2.2276 H   0  0  0  0  0  0  0  0  0  0  0  0
  1  2  1  0  0  0  0
  1 29  1  0  0  0  0
  1 30  1  0  0  0  0
  1 31  1  0  0  0  0
  2  3  1  0  0  0  0
  3  4  1  0  0  0  0
  3 26  2  0  0  0  0
  4  5  2  0  0  0  0
  4 32  1  0  0  0  0
  5  6  1  0  0  0  0
  5 22  1  0  0  0  0
  6  7  2  0  0  0  0
  6 20  1  0  0  0  0
  7  8  1  0  0  0  0
  7 17  1  0  0  0  0
  8  9  2  0  0  0  0
  8 16  1  0  0  0  0
  9 10  1  0  0  0  0
  9 33  1  0  0  0  0
 10 11  1  0  0  0  0
 10 34  1  0  0  0  0
 11 12  1  0  0  0  0
 11 16  2  0  0  0  0
 12 13  2  0  0  0  0
 12 35  1  0  0  0  0
 13 14  1  0  0  0  0
 13 36  1  0  0  0  0
 14 15  2  0  0  0  0
 14 37  1  0  0  0  0
 15 16  1  0  0  0  0
 17 18  2  0  0  0  0
 17 19  1  0  0  0  0
 19 20  1  0  0  0  0
 19 38  1  0  0  0  0
 20 21  2  0  0  0  0
 22 23  2  0  0  0  0
 22 39  1  0  0  0  0
 23 24  1  0  0  0  0
 23 26  1  0  0  0  0
 24 25  1  0  0  0  0
 25 40  1  0  0  0  0
 25 41  1  0  0  0  0
 25 42  1  0  0  0  0
 26 27  1  0  0  0  0
 27 28  1  0  0  0  0
 28 43  1  0  0  0  0
 28 44  1  0  0  0  0
 28 45  1  0  0  0  0
M  END
$$$$
