CHEMBL3979687
 OpenBabel04072215373D

 55 58  0  0  0  0  0  0  0  0999 V2000
    2.5929    0.9591   -0.2350 C   0  0  0  0  0  0  0  0  0  0  0  0
    2.3271   -0.4267   -0.0026 O   0  0  0  0  0  0  0  0  0  0  0  0
    3.1629   -1.0787    0.8673 C   0  0  0  0  0  0  0  0  0  0  0  0
    4.3920   -0.5448    1.2723 C   0  0  0  0  0  0  0  0  0  0  0  0
    5.1602   -1.1667    2.2791 C   0  0  0  0  0  0  0  0  0  0  0  0
    6.3021   -0.6026    2.8670 C   0  0  0  0  0  0  0  0  0  0  0  0
    6.6424    0.7473    2.5605 N   0  0  0  0  0  0  0  0  0  0  0  0
    7.9010    1.3168    2.8469 C   0  0  0  0  0  0  0  0  0  0  0  0
    9.0738    0.6365    2.5001 C   0  0  0  0  0  0  0  0  0  0  0  0
   10.3269    1.1560    2.8158 C   0  0  0  0  0  0  0  0  0  0  0  0
   10.4230    2.3815    3.4733 C   0  0  0  0  0  0  0  0  0  0  0  0
   12.0034    2.9450    3.8848 Cl  0  0  0  0  0  0  0  0  0  0  0  0
    9.2601    3.0951    3.7881 C   0  0  0  0  0  0  0  0  0  0  0  0
    9.3089    4.6269    4.5871 Cl  0  0  0  0  0  0  0  0  0  0  0  0
    8.0021    2.5693    3.4651 C   0  0  0  0  0  0  0  0  0  0  0  0
    7.0395   -1.2722    3.7719 N   0  0  0  0  0  0  0  0  0  0  0  0
    6.6145   -2.4905    4.1127 C   0  0  0  0  0  0  0  0  0  0  0  0
    5.5197   -3.0981    3.6459 N   0  0  0  0  0  0  0  0  0  0  0  0
    4.8006   -2.4253    2.7461 C   0  0  0  0  0  0  0  0  0  0  0  0
    3.6227   -2.9907    2.2756 C   0  0  0  0  0  0  0  0  0  0  0  0
    2.7548   -2.3165    1.3991 C   0  0  0  0  0  0  0  0  0  0  0  0
    1.5029   -2.8109    1.0635 O   0  0  0  0  0  0  0  0  0  0  0  0
    1.0279   -3.8552    1.9337 C   0  0  0  0  0  0  0  0  0  0  0  0
   -0.4677   -4.1478    1.7707 C   0  0  0  0  0  0  0  0  0  0  0  0
   -1.0045   -5.0633    2.9084 C   0  0  0  0  0  0  0  0  0  0  0  0
   -0.3330   -6.4521    2.9166 C   0  0  0  0  0  0  0  0  0  0  0  0
   -0.9493   -7.4255    3.9250 C   0  0  0  0  0  0  0  0  0  0  0  0
   -2.4652   -7.5079    3.8030 C   0  0  0  0  0  0  0  0  0  0  0  0
   -3.0905   -6.1233    3.9049 C   0  0  0  0  0  0  0  0  0  0  0  0
   -2.5353   -5.1905    2.8287 C   0  0  0  0  0  0  0  0  0  0  0  0
    3.2796    1.0763   -1.0809 H   0  0  0  0  0  0  0  0  0  0  0  0
    2.9854    1.4811    0.6463 H   0  0  0  0  0  0  0  0  0  0  0  0
    1.6493    1.4509   -0.4847 H   0  0  0  0  0  0  0  0  0  0  0  0
    4.7803    0.3644    0.8244 H   0  0  0  0  0  0  0  0  0  0  0  0
    5.8737    1.3382    2.8546 H   0  0  0  0  0  0  0  0  0  0  0  0
    9.0094   -0.3245    1.9939 H   0  0  0  0  0  0  0  0  0  0  0  0
   11.2169    0.5895    2.5542 H   0  0  0  0  0  0  0  0  0  0  0  0
    7.1073    3.1297    3.7262 H   0  0  0  0  0  0  0  0  0  0  0  0
    7.2050   -3.0297    4.8450 H   0  0  0  0  0  0  0  0  0  0  0  0
    3.3841   -3.9775    2.6610 H   0  0  0  0  0  0  0  0  0  0  0  0
    1.1867   -3.5560    2.9768 H   0  0  0  0  0  0  0  0  0  0  0  0
    1.5868   -4.7708    1.7094 H   0  0  0  0  0  0  0  0  0  0  0  0
   -0.6478   -4.6086    0.7911 H   0  0  0  0  0  0  0  0  0  0  0  0
   -1.0206   -3.2005    1.7641 H   0  0  0  0  0  0  0  0  0  0  0  0
   -0.7707   -4.5775    3.8664 H   0  0  0  0  0  0  0  0  0  0  0  0
    0.7316   -6.3504    3.1578 H   0  0  0  0  0  0  0  0  0  0  0  0
   -0.3914   -6.8949    1.9150 H   0  0  0  0  0  0  0  0  0  0  0  0
   -0.6859   -7.1126    4.9430 H   0  0  0  0  0  0  0  0  0  0  0  0
   -0.5172   -8.4231    3.7815 H   0  0  0  0  0  0  0  0  0  0  0  0
   -2.8657   -8.1569    4.5906 H   0  0  0  0  0  0  0  0  0  0  0  0
   -2.7359   -7.9662    2.8440 H   0  0  0  0  0  0  0  0  0  0  0  0
   -2.8913   -5.7035    4.8992 H   0  0  0  0  0  0  0  0  0  0  0  0
   -4.1788   -6.2016    3.8046 H   0  0  0  0  0  0  0  0  0  0  0  0
   -2.9952   -4.2021    2.9456 H   0  0  0  0  0  0  0  0  0  0  0  0
   -2.8286   -5.5662    1.8408 H   0  0  0  0  0  0  0  0  0  0  0  0
  1  2  1  0  0  0  0
  1 31  1  0  0  0  0
  1 32  1  0  0  0  0
  1 33  1  0  0  0  0
  2  3  1  0  0  0  0
  3  4  1  0  0  0  0
  3 21  2  0  0  0  0
  4  5  2  0  0  0  0
  4 34  1  0  0  0  0
  5  6  1  0  0  0  0
  5 19  1  0  0  0  0
  6  7  1  0  0  0  0
  6 16  2  0  0  0  0
  7  8  1  0  0  0  0
  7 35  1  0  0  0  0
  8  9  1  0  0  0  0
  8 15  2  0  0  0  0
  9 10  2  0  0  0  0
  9 36  1  0  0  0  0
 10 11  1  0  0  0  0
 10 37  1  0  0  0  0
 11 12  1  0  0  0  0
 11 13  2  0  0  0  0
 13 14  1  0  0  0  0
 13 15  1  0  0  0  0
 15 38  1  0  0  0  0
 16 17  1  0  0  0  0
 17 18  2  0  0  0  0
 17 39  1  0  0  0  0
 18 19  1  0  0  0  0
 19 20  2  0  0  0  0
 20 21  1  0  0  0  0
 20 40  1  0  0  0  0
 21 22  1  0  0  0  0
 22 23  1  0  0  0  0
 23 24  1  0  0  0  0
 23 41  1  0  0  0  0
 23 42  1  0  0  0  0
 24 25  1  0  0  0  0
 24 43  1  0  0  0  0
 24 44  1  0  0  0  0
 25 26  1  0  0  0  0
 25 30  1  0  0  0  0
 25 45  1  0  0  0  0
 26 27  1  0  0  0  0
 26 46  1  0  0  0  0
 26 47  1  0  0  0  0
 27 28  1  0  0  0  0
 27 48  1  0  0  0  0
 27 49  1  0  0  0  0
 28 29  1  0  0  0  0
 28 50  1  0  0  0  0
 28 51  1  0  0  0  0
 29 30  1  0  0  0  0
 29 52  1  0  0  0  0
 29 53  1  0  0  0  0
 30 54  1  0  0  0  0
 30 55  1  0  0  0  0
M  END
$$$$
