CHEMBL3686064
 OpenBabel04072215373D

 56 59  0  0  0  0  0  0  0  0999 V2000
    0.1365   -1.2338   -2.2347 C   0  0  0  0  0  0  0  0  0  0  0  0
    1.6542   -1.4478   -2.3938 C   0  0  0  0  0  0  0  0  0  0  0  0
    2.1544   -2.1771   -1.1272 C   0  0  0  0  0  0  0  0  0  0  0  0
    1.9467   -2.3549   -3.5878 C   0  0  0  0  0  0  0  0  0  0  0  0
    1.0884   -2.9408   -4.2358 O   0  0  0  0  0  0  0  0  0  0  0  0
    3.2648   -2.4940   -3.8868 O   0  0  0  0  0  0  0  0  0  0  0  0
    2.3201   -0.1577   -2.6154 N   0  0  0  0  0  0  0  0  0  0  0  0
    2.0374    0.7653   -3.5890 C   0  0  0  0  0  0  0  0  0  0  0  0
    2.9220    1.8109   -3.4158 C   0  0  0  0  0  0  0  0  0  0  0  0
    2.9524    3.0314   -4.1748 C   0  0  0  0  0  0  0  0  0  0  0  0
    2.3287    3.0560   -5.5065 C   0  0  0  0  0  0  0  0  0  0  0  0
    2.1270    4.2182   -6.1429 C   0  0  0  0  0  0  0  0  0  0  0  0
    2.7659    5.3593   -5.6721 N   0  0  0  0  0  0  0  0  0  0  0  0
    3.0310    6.5580   -6.3168 C   0  0  0  0  0  0  0  0  0  0  0  0
    2.7636    6.8908   -7.7265 C   0  0  0  0  0  0  0  0  0  0  0  0
    2.4492    8.2128   -8.0582 C   0  0  0  0  0  0  0  0  0  0  0  0
    2.2775    8.5873   -9.3863 C   0  0  0  0  0  0  0  0  0  0  0  0
    2.4274    7.6473  -10.4071 C   0  0  0  0  0  0  0  0  0  0  0  0
    2.7485    6.3205  -10.1236 C   0  0  0  0  0  0  0  0  0  0  0  0
    2.9133    5.3327  -11.1306 N   0  0  0  0  0  0  0  0  0  0  0  0
    2.8554    5.5332  -12.4923 C   0  0  0  0  0  0  0  0  0  0  0  0
    2.6713    6.5905  -13.0707 O   0  0  0  0  0  0  0  0  0  0  0  0
    2.9922    4.3615  -13.2032 N   0  0  0  0  0  0  0  0  0  0  0  0
    2.9645    4.4249  -14.6713 C   0  0  0  0  0  0  0  0  0  0  0  0
    4.2641    4.8838  -15.3458 C   0  0  0  0  0  0  0  0  0  0  0  0
    5.2927    4.9499  -14.4688 F   0  0  0  0  0  0  0  0  0  0  0  0
    4.6258    3.9917  -16.3025 F   0  0  0  0  0  0  0  0  0  0  0  0
    4.1404    6.0848  -15.9451 F   0  0  0  0  0  0  0  0  0  0  0  0
    2.9139    5.9533   -8.7750 C   0  0  0  0  0  0  0  0  0  0  0  0
    3.7334    7.2880   -5.3674 C   0  0  0  0  0  0  0  0  0  0  0  0
    3.9663    6.5699   -4.2238 N   0  0  0  0  0  0  0  0  0  0  0  0
    3.4364    5.3892   -4.4526 C   0  0  0  0  0  0  0  0  0  0  0  0
    3.4687    4.1868   -3.6839 C   0  0  0  0  0  0  0  0  0  0  0  0
    3.7296    1.3977   -2.3368 C   0  0  0  0  0  0  0  0  0  0  0  0
    3.4190    0.1712   -1.9043 N   0  0  0  0  0  0  0  0  0  0  0  0
   -0.3821   -2.1831   -2.0540 H   0  0  0  0  0  0  0  0  0  0  0  0
   -0.3143   -0.7933   -3.1310 H   0  0  0  0  0  0  0  0  0  0  0  0
   -0.0815   -0.5672   -1.3918 H   0  0  0  0  0  0  0  0  0  0  0  0
    1.6335   -3.1326   -0.9929 H   0  0  0  0  0  0  0  0  0  0  0  0
    1.9890   -1.5737   -0.2272 H   0  0  0  0  0  0  0  0  0  0  0  0
    3.2249   -2.4079   -1.1789 H   0  0  0  0  0  0  0  0  0  0  0  0
    3.8688   -1.9623   -3.3222 H   0  0  0  0  0  0  0  0  0  0  0  0
    1.2270    0.6144   -4.2906 H   0  0  0  0  0  0  0  0  0  0  0  0
    2.0560    2.1228   -5.9870 H   0  0  0  0  0  0  0  0  0  0  0  0
    1.5726    4.2916   -7.0672 H   0  0  0  0  0  0  0  0  0  0  0  0
    2.3544    8.9733   -7.2885 H   0  0  0  0  0  0  0  0  0  0  0  0
    2.0519    9.6184   -9.6402 H   0  0  0  0  0  0  0  0  0  0  0  0
    2.2916    8.0017  -11.4225 H   0  0  0  0  0  0  0  0  0  0  0  0
    3.0970    4.3920  -10.8153 H   0  0  0  0  0  0  0  0  0  0  0  0
    3.5727    3.6482  -12.7865 H   0  0  0  0  0  0  0  0  0  0  0  0
    2.1480    5.0918  -14.9738 H   0  0  0  0  0  0  0  0  0  0  0  0
    2.7012    3.4203  -15.0181 H   0  0  0  0  0  0  0  0  0  0  0  0
    3.1992    4.9310   -8.5456 H   0  0  0  0  0  0  0  0  0  0  0  0
    4.1496    8.2816   -5.4868 H   0  0  0  0  0  0  0  0  0  0  0  0
    3.9037    4.2533   -2.6921 H   0  0  0  0  0  0  0  0  0  0  0  0
    4.5439    1.9268   -1.8579 H   0  0  0  0  0  0  0  0  0  0  0  0
  1  2  1  0  0  0  0
  1 36  1  0  0  0  0
  1 37  1  0  0  0  0
  1 38  1  0  0  0  0
  2  3  1  0  0  0  0
  2  4  1  0  0  0  0
  2  7  1  0  0  0  0
  3 39  1  0  0  0  0
  3 40  1  0  0  0  0
  3 41  1  0  0  0  0
  4  5  2  0  0  0  0
  4  6  1  0  0  0  0
  6 42  1  0  0  0  0
  7  8  1  0  0  0  0
  7 35  1  0  0  0  0
  8  9  2  0  0  0  0
  8 43  1  0  0  0  0
  9 10  1  0  0  0  0
  9 34  1  0  0  0  0
 10 11  1  0  0  0  0
 10 33  2  0  0  0  0
 11 12  2  0  0  0  0
 11 44  1  0  0  0  0
 12 13  1  0  0  0  0
 12 45  1  0  0  0  0
 13 14  1  0  0  0  0
 13 32  1  0  0  0  0
 14 15  1  0  0  0  0
 14 30  2  0  0  0  0
 15 16  1  0  0  0  0
 15 29  2  0  0  0  0
 16 17  2  0  0  0  0
 16 46  1  0  0  0  0
 17 18  1  0  0  0  0
 17 47  1  0  0  0  0
 18 19  2  0  0  0  0
 18 48  1  0  0  0  0
 19 20  1  0  0  0  0
 19 29  1  0  0  0  0
 20 21  1  0  0  0  0
 20 49  1  0  0  0  0
 21 22  2  0  0  0  0
 21 23  1  0  0  0  0
 23 24  1  0  0  0  0
 23 50  1  0  0  0  0
 24 25  1  0  0  0  0
 24 51  1  0  0  0  0
 24 52  1  0  0  0  0
 25 26  1  0  0  0  0
 25 27  1  0  0  0  0
 25 28  1  0  0  0  0
 29 53  1  0  0  0  0
 30 31  1  0  0  0  0
 30 54  1  0  0  0  0
 31 32  2  0  0  0  0
 32 33  1  0  0  0  0
 33 55  1  0  0  0  0
 34 35  2  0  0  0  0
 34 56  1  0  0  0  0
M  END
$$$$
