CHEMBL2113172
 OpenBabel04072215363D

 47 49  0  0  0  0  0  0  0  0999 V2000
    1.0893   -0.2505   -0.9652 C   0  0  0  0  0  0  0  0  0  0  0  0
    2.3418   -0.2064   -0.3107 O   0  0  0  0  0  0  0  0  0  0  0  0
    2.8158   -1.4933    0.0985 C   0  0  0  0  0  0  0  0  0  0  0  0
    4.1284   -1.2206    0.8181 C   0  0  0  0  0  0  0  0  0  0  0  0
    4.7807   -2.3827    1.2883 O   0  0  0  0  0  0  0  0  0  0  0  0
    6.1409   -2.3155    1.4680 C   0  0  0  0  0  0  0  0  0  0  0  0
    6.7184   -3.6049    1.3920 C   0  0  0  0  0  0  0  0  0  0  0  0
    8.0882   -3.8478    1.4597 C   0  0  0  0  0  0  0  0  0  0  0  0
    8.5470   -5.1008    1.3362 N   0  0  0  0  0  0  0  0  0  0  0  0
    9.8740   -5.2637    1.3962 C   0  0  0  0  0  0  0  0  0  0  0  0
   10.7804   -4.2968    1.5858 N   0  0  0  0  0  0  0  0  0  0  0  0
   10.3106   -3.0411    1.7175 C   0  0  0  0  0  0  0  0  0  0  0  0
   11.2298   -1.9741    1.8831 N   0  0  0  0  0  0  0  0  0  0  0  0
   12.6155   -2.0554    1.8441 C   0  0  0  0  0  0  0  0  0  0  0  0
   13.3442   -2.9242    1.1320 C   0  0  0  0  0  0  0  0  0  0  0  0
   14.8153   -2.9572    1.1635 C   0  0  0  0  0  0  0  0  0  0  0  0
   15.4012   -3.6378    0.3296 O   0  0  0  0  0  0  0  0  0  0  0  0
   15.5132   -2.1689    2.2249 C   0  0  0  0  0  0  0  0  0  0  0  0
   16.8544   -2.3517    2.5399 O   0  0  0  0  0  0  0  0  0  0  0  0
   17.5246   -3.4766    1.9803 C   0  0  0  0  0  0  0  0  0  0  0  0
   14.8004   -1.2323    2.8733 C   0  0  0  0  0  0  0  0  0  0  0  0
   15.5265   -0.2088    4.0687 Cl  0  0  0  0  0  0  0  0  0  0  0  0
   13.3446   -1.0220    2.6353 C   0  0  0  0  0  0  0  0  0  0  0  0
   12.7194   -0.0685    3.1014 O   0  0  0  0  0  0  0  0  0  0  0  0
    8.9372   -2.7547    1.6413 C   0  0  0  0  0  0  0  0  0  0  0  0
    8.3742   -1.4594    1.7168 C   0  0  0  0  0  0  0  0  0  0  0  0
    6.9920   -1.2204    1.6501 C   0  0  0  0  0  0  0  0  0  0  0  0
    6.7566    0.1232    1.6562 O   0  0  0  0  0  0  0  0  0  0  0  0
    5.6973    0.6914    2.4056 C   0  0  0  0  0  0  0  0  0  0  0  0
    0.8194    0.7747   -1.2367 H   0  0  0  0  0  0  0  0  0  0  0  0
    0.3216   -0.6467   -0.2955 H   0  0  0  0  0  0  0  0  0  0  0  0
    1.1555   -0.8482   -1.8775 H   0  0  0  0  0  0  0  0  0  0  0  0
    2.9633   -2.1487   -0.7647 H   0  0  0  0  0  0  0  0  0  0  0  0
    2.0967   -1.9652    0.7802 H   0  0  0  0  0  0  0  0  0  0  0  0
    3.8353   -0.6298    1.6850 H   0  0  0  0  0  0  0  0  0  0  0  0
    4.7708   -0.6395    0.1476 H   0  0  0  0  0  0  0  0  0  0  0  0
    6.0636   -4.4599    1.2255 H   0  0  0  0  0  0  0  0  0  0  0  0
   10.2539   -6.2727    1.2782 H   0  0  0  0  0  0  0  0  0  0  0  0
   10.9223   -1.2977    2.5848 H   0  0  0  0  0  0  0  0  0  0  0  0
   12.8935   -3.6555    0.4835 H   0  0  0  0  0  0  0  0  0  0  0  0
   18.4775   -3.5937    2.5047 H   0  0  0  0  0  0  0  0  0  0  0  0
   17.7487   -3.2966    0.9252 H   0  0  0  0  0  0  0  0  0  0  0  0
   16.9586   -4.4038    2.1232 H   0  0  0  0  0  0  0  0  0  0  0  0
    9.0284   -0.5962    1.8069 H   0  0  0  0  0  0  0  0  0  0  0  0
    6.0772    1.5423    2.9786 H   0  0  0  0  0  0  0  0  0  0  0  0
    5.2198   -0.0009    3.1038 H   0  0  0  0  0  0  0  0  0  0  0  0
    4.9818    1.1151    1.6928 H   0  0  0  0  0  0  0  0  0  0  0  0
  1  2  1  0  0  0  0
  1 30  1  0  0  0  0
  1 31  1  0  0  0  0
  1 32  1  0  0  0  0
  2  3  1  0  0  0  0
  3  4  1  0  0  0  0
  3 33  1  0  0  0  0
  3 34  1  0  0  0  0
  4  5  1  0  0  0  0
  4 35  1  0  0  0  0
  4 36  1  0  0  0  0
  5  6  1  0  0  0  0
  6  7  1  0  0  0  0
  6 27  2  0  0  0  0
  7  8  2  0  0  0  0
  7 37  1  0  0  0  0
  8  9  1  0  0  0  0
  8 25  1  0  0  0  0
  9 10  2  0  0  0  0
 10 11  1  0  0  0  0
 10 38  1  0  0  0  0
 11 12  2  0  0  0  0
 12 13  1  0  0  0  0
 12 25  1  0  0  0  0
 13 14  1  0  0  0  0
 13 39  1  0  0  0  0
 14 15  2  0  0  0  0
 14 23  1  0  0  0  0
 15 16  1  0  0  0  0
 15 40  1  0  0  0  0
 16 17  2  0  0  0  0
 16 18  1  0  0  0  0
 18 19  1  0  0  0  0
 18 21  2  0  0  0  0
 19 20  1  0  0  0  0
 20 41  1  0  0  0  0
 20 42  1  0  0  0  0
 20 43  1  0  0  0  0
 21 22  1  0  0  0  0
 21 23  1  0  0  0  0
 23 24  2  0  0  0  0
 25 26  2  0  0  0  0
 26 27  1  0  0  0  0
 26 44  1  0  0  0  0
 27 28  1  0  0  0  0
 28 29  1  0  0  0  0
 29 45  1  0  0  0  0
 29 46  1  0  0  0  0
 29 47  1  0  0  0  0
M  END
$$$$
