CHEMBL231456
 OpenBabel04072215363D

 45 48  0  0  0  0  0  0  0  0999 V2000
    2.0337   -0.2681    2.4560 C   0  0  0  0  0  0  0  0  0  0  0  0
    0.6233   -0.1286    1.9672 C   0  0  0  0  0  0  0  0  0  0  0  0
    0.0174    1.1215    1.9445 C   0  0  0  0  0  0  0  0  0  0  0  0
   -1.2985    1.2620    1.4877 C   0  0  0  0  0  0  0  0  0  0  0  0
   -2.0265    0.1715    1.0262 C   0  0  0  0  0  0  0  0  0  0  0  0
   -3.3608    0.2779    0.5430 N   0  0  0  0  0  0  0  0  0  0  0  0
   -4.0347    1.4612    0.3203 C   0  0  0  0  0  0  0  0  0  0  0  0
   -3.5408    2.5802    0.4345 O   0  0  0  0  0  0  0  0  0  0  0  0
   -5.3640    1.2616   -0.0219 N   0  0  0  0  0  0  0  0  0  0  0  0
   -6.2012    2.3806   -0.2729 C   0  0  0  0  0  0  0  0  0  0  0  0
   -5.7438    3.4735   -1.0115 C   0  0  0  0  0  0  0  0  0  0  0  0
   -6.4874    4.6556   -1.0653 C   0  0  0  0  0  0  0  0  0  0  0  0
   -7.7253    4.7562   -0.4153 C   0  0  0  0  0  0  0  0  0  0  0  0
   -8.4406    6.0442   -0.3721 C   0  0  0  0  0  0  0  0  0  0  0  0
   -8.4187    6.8578   -1.4919 C   0  0  0  0  0  0  0  0  0  0  0  0
   -9.2436    8.3231   -1.2830 S   0  0  0  0  0  0  0  0  0  0  0  0
   -9.6865    7.9229    0.3268 C   0  0  0  0  0  0  0  0  0  0  0  0
  -10.4485    8.7352    1.1751 C   0  0  0  0  0  0  0  0  0  0  0  0
  -10.6985    8.2332    2.4291 C   0  0  0  0  0  0  0  0  0  0  0  0
  -10.2396    7.0526    2.8678 N   0  0  0  0  0  0  0  0  0  0  0  0
   -9.4833    6.2719    2.0631 C   0  0  0  0  0  0  0  0  0  0  0  0
   -9.0272    5.1127    2.6808 N   0  0  0  0  0  0  0  0  0  0  0  0
   -9.1907    6.6715    0.7268 C   0  0  0  0  0  0  0  0  0  0  0  0
   -8.2359    3.6051    0.1995 C   0  0  0  0  0  0  0  0  0  0  0  0
   -7.4736    2.4282    0.2886 C   0  0  0  0  0  0  0  0  0  0  0  0
   -1.4192   -1.0943    1.0581 C   0  0  0  0  0  0  0  0  0  0  0  0
   -0.1065   -1.2393    1.5257 C   0  0  0  0  0  0  0  0  0  0  0  0
    2.4474    0.7005    2.7625 H   0  0  0  0  0  0  0  0  0  0  0  0
    2.6745   -0.6628    1.6623 H   0  0  0  0  0  0  0  0  0  0  0  0
    2.0728   -0.9321    3.3240 H   0  0  0  0  0  0  0  0  0  0  0  0
    0.5481    2.0062    2.2815 H   0  0  0  0  0  0  0  0  0  0  0  0
   -1.7030    2.2679    1.5117 H   0  0  0  0  0  0  0  0  0  0  0  0
   -3.7929   -0.5653    0.2009 H   0  0  0  0  0  0  0  0  0  0  0  0
   -5.8008    0.4651    0.4190 H   0  0  0  0  0  0  0  0  0  0  0  0
   -4.7774    3.4410   -1.5107 H   0  0  0  0  0  0  0  0  0  0  0  0
   -6.0510    5.5016   -1.5913 H   0  0  0  0  0  0  0  0  0  0  0  0
   -7.9458    6.6677   -2.4460 H   0  0  0  0  0  0  0  0  0  0  0  0
  -10.8239    9.7020    0.8630 H   0  0  0  0  0  0  0  0  0  0  0  0
  -11.2913    8.7943    3.1460 H   0  0  0  0  0  0  0  0  0  0  0  0
   -9.2107    5.1922    3.6761 H   0  0  0  0  0  0  0  0  0  0  0  0
   -8.0672    4.8942    2.4443 H   0  0  0  0  0  0  0  0  0  0  0  0
   -9.2170    3.6205    0.6690 H   0  0  0  0  0  0  0  0  0  0  0  0
   -7.8625    1.5977    0.8707 H   0  0  0  0  0  0  0  0  0  0  0  0
   -1.9559   -1.9759    0.7193 H   0  0  0  0  0  0  0  0  0  0  0  0
    0.3454   -2.2285    1.5389 H   0  0  0  0  0  0  0  0  0  0  0  0
  1  2  1  0  0  0  0
  1 28  1  0  0  0  0
  1 29  1  0  0  0  0
  1 30  1  0  0  0  0
  2  3  1  0  0  0  0
  2 27  2  0  0  0  0
  3  4  2  0  0  0  0
  3 31  1  0  0  0  0
  4  5  1  0  0  0  0
  4 32  1  0  0  0  0
  5  6  1  0  0  0  0
  5 26  2  0  0  0  0
  6  7  1  0  0  0  0
  6 33  1  0  0  0  0
  7  8  2  0  0  0  0
  7  9  1  0  0  0  0
  9 10  1  0  0  0  0
  9 34  1  0  0  0  0
 10 11  1  0  0  0  0
 10 25  2  0  0  0  0
 11 12  2  0  0  0  0
 11 35  1  0  0  0  0
 12 13  1  0  0  0  0
 12 36  1  0  0  0  0
 13 14  1  0  0  0  0
 13 24  2  0  0  0  0
 14 15  2  0  0  0  0
 14 23  1  0  0  0  0
 15 16  1  0  0  0  0
 15 37  1  0  0  0  0
 16 17  1  0  0  0  0
 17 18  1  0  0  0  0
 17 23  2  0  0  0  0
 18 19  2  0  0  0  0
 18 38  1  0  0  0  0
 19 20  1  0  0  0  0
 19 39  1  0  0  0  0
 20 21  2  0  0  0  0
 21 22  1  0  0  0  0
 21 23  1  0  0  0  0
 22 40  1  0  0  0  0
 22 41  1  0  0  0  0
 24 25  1  0  0  0  0
 24 42  1  0  0  0  0
 25 43  1  0  0  0  0
 26 27  1  0  0  0  0
 26 44  1  0  0  0  0
 27 45  1  0  0  0  0
M  END
$$$$
