CHEMBL218799
 OpenBabel04072215363D

 55 60  0  0  0  0  0  0  0  0999 V2000
    3.5653   -3.4824   -2.1909 C   0  0  0  0  0  0  0  0  0  0  0  0
    3.2573   -2.1035   -1.6088 C   0  0  0  0  0  0  0  0  0  0  0  0
    1.7468   -1.8577   -1.7086 C   0  0  0  0  0  0  0  0  0  0  0  0
    3.7539   -1.9493   -0.1484 C   0  0  0  0  0  0  0  0  0  0  0  0
    5.2038   -1.8332    0.0143 N   0  0  0  0  0  0  0  0  0  0  0  0
    5.9085   -0.6107   -0.1138 C   0  0  0  0  0  0  0  0  0  0  0  0
    5.4777    0.7132   -0.3255 C   0  0  0  0  0  0  0  0  0  0  0  0
    6.4511    1.7185   -0.5194 C   0  0  0  0  0  0  0  0  0  0  0  0
    7.8169    1.4529   -0.4399 C   0  0  0  0  0  0  0  0  0  0  0  0
    8.7735    2.4131   -0.7918 N   0  0  0  0  0  0  0  0  0  0  0  0
    8.2243    0.1373   -0.2754 C   0  0  0  0  0  0  0  0  0  0  0  0
    7.2820   -0.8976   -0.1196 C   0  0  0  0  0  0  0  0  0  0  0  0
    7.2982   -2.2736   -0.0945 C   0  0  0  0  0  0  0  0  0  0  0  0
    8.3981   -3.0090   -0.5643 C   0  0  0  0  0  0  0  0  0  0  0  0
    8.1000   -4.3096   -1.0161 C   0  0  0  0  0  0  0  0  0  0  0  0
    6.8389   -4.9146   -0.8786 C   0  0  0  0  0  0  0  0  0  0  0  0
    6.0383   -4.3124    0.1505 C   0  0  0  0  0  0  0  0  0  0  0  0
    6.1066   -2.8996    0.1466 C   0  0  0  0  0  0  0  0  0  0  0  0
    6.0623   -5.1813    1.4813 C   0  0  0  0  0  0  0  0  0  0  0  0
    7.1060   -6.3781    1.4686 C   0  0  0  0  0  0  0  0  0  0  0  0
    6.8916   -7.1132    0.1926 C   0  0  0  0  0  0  0  0  0  0  0  0
    6.5054   -8.3774    0.0297 N   0  0  0  0  0  0  0  0  0  0  0  0
    6.0470   -8.3801   -1.2492 N   0  0  0  0  0  0  0  0  0  0  0  0
    5.3935   -9.5561   -1.7710 C   0  0  0  0  0  0  0  0  0  0  0  0
    6.0611   -7.1413   -1.8434 C   0  0  0  0  0  0  0  0  0  0  0  0
    6.7605   -6.3467   -0.9748 C   0  0  0  0  0  0  0  0  0  0  0  0
    9.3360   -4.8888   -1.4754 C   0  0  0  0  0  0  0  0  0  0  0  0
    9.6380   -5.9929   -1.9318 O   0  0  0  0  0  0  0  0  0  0  0  0
   10.2886   -3.9059   -1.2616 N   0  0  0  0  0  0  0  0  0  0  0  0
    9.7968   -2.6452   -0.7544 C   0  0  0  0  0  0  0  0  0  0  0  0
    3.1022   -3.6031   -3.1767 H   0  0  0  0  0  0  0  0  0  0  0  0
    3.1878   -4.2800   -1.5438 H   0  0  0  0  0  0  0  0  0  0  0  0
    4.6437   -3.6179   -2.3288 H   0  0  0  0  0  0  0  0  0  0  0  0
    3.7554   -1.3483   -2.2392 H   0  0  0  0  0  0  0  0  0  0  0  0
    1.1810   -2.5730   -1.0994 H   0  0  0  0  0  0  0  0  0  0  0  0
    1.4014   -1.9614   -2.7447 H   0  0  0  0  0  0  0  0  0  0  0  0
    1.4824   -0.8458   -1.3797 H   0  0  0  0  0  0  0  0  0  0  0  0
    3.4101   -2.7769    0.4817 H   0  0  0  0  0  0  0  0  0  0  0  0
    3.3253   -1.0324    0.2827 H   0  0  0  0  0  0  0  0  0  0  0  0
    4.4248    0.9663   -0.4025 H   0  0  0  0  0  0  0  0  0  0  0  0
    6.1185    2.7269   -0.7550 H   0  0  0  0  0  0  0  0  0  0  0  0
    8.4910    3.3746   -0.6154 H   0  0  0  0  0  0  0  0  0  0  0  0
    9.7074    2.2157   -0.4426 H   0  0  0  0  0  0  0  0  0  0  0  0
    9.2836   -0.0901   -0.2852 H   0  0  0  0  0  0  0  0  0  0  0  0
    5.0607   -5.6031    1.6196 H   0  0  0  0  0  0  0  0  0  0  0  0
    6.2949   -4.5352    2.3355 H   0  0  0  0  0  0  0  0  0  0  0  0
    7.0116   -7.0268    2.3426 H   0  0  0  0  0  0  0  0  0  0  0  0
    8.1309   -5.9740    1.4729 H   0  0  0  0  0  0  0  0  0  0  0  0
    5.6235  -10.4135   -1.1336 H   0  0  0  0  0  0  0  0  0  0  0  0
    5.7565   -9.7358   -2.7856 H   0  0  0  0  0  0  0  0  0  0  0  0
    4.3164   -9.3695   -1.7761 H   0  0  0  0  0  0  0  0  0  0  0  0
    5.5392   -6.9424   -2.7686 H   0  0  0  0  0  0  0  0  0  0  0  0
   11.2602   -4.1071   -1.4375 H   0  0  0  0  0  0  0  0  0  0  0  0
    9.9395   -1.8825   -1.5211 H   0  0  0  0  0  0  0  0  0  0  0  0
   10.3015   -2.4026    0.1828 H   0  0  0  0  0  0  0  0  0  0  0  0
  1  2  1  0  0  0  0
  1 31  1  0  0  0  0
  1 32  1  0  0  0  0
  1 33  1  0  0  0  0
  2  3  1  0  0  0  0
  2  4  1  0  0  0  0
  2 34  1  0  0  0  0
  3 35  1  0  0  0  0
  3 36  1  0  0  0  0
  3 37  1  0  0  0  0
  4  5  1  0  0  0  0
  4 38  1  0  0  0  0
  4 39  1  0  0  0  0
  5  6  1  0  0  0  0
  5 18  1  0  0  0  0
  6  7  1  0  0  0  0
  6 12  2  0  0  0  0
  7  8  2  0  0  0  0
  7 40  1  0  0  0  0
  8  9  1  0  0  0  0
  8 41  1  0  0  0  0
  9 10  1  0  0  0  0
  9 11  2  0  0  0  0
 10 42  1  0  0  0  0
 10 43  1  0  0  0  0
 11 12  1  0  0  0  0
 11 44  1  0  0  0  0
 12 13  1  0  0  0  0
 13 14  1  0  0  0  0
 13 18  2  0  0  0  0
 14 15  2  0  0  0  0
 14 30  1  0  0  0  0
 15 16  1  0  0  0  0
 15 27  1  0  0  0  0
 16 17  2  0  0  0  0
 16 26  1  0  0  0  0
 17 18  1  0  0  0  0
 17 19  1  0  0  0  0
 19 20  1  0  0  0  0
 19 45  1  0  0  0  0
 19 46  1  0  0  0  0
 20 21  1  0  0  0  0
 20 47  1  0  0  0  0
 20 48  1  0  0  0  0
 21 22  2  0  0  0  0
 21 26  1  0  0  0  0
 22 23  1  0  0  0  0
 23 24  1  0  0  0  0
 23 25  1  0  0  0  0
 24 49  1  0  0  0  0
 24 50  1  0  0  0  0
 24 51  1  0  0  0  0
 25 26  2  0  0  0  0
 25 52  1  0  0  0  0
 27 28  2  0  0  0  0
 27 29  1  0  0  0  0
 29 30  1  0  0  0  0
 29 53  1  0  0  0  0
 30 54  1  0  0  0  0
 30 55  1  0  0  0  0
M  END
$$$$
