CHEMBL178596
 OpenBabel04072215363D

 46 48  0  0  0  0  0  0  0  0999 V2000
    6.5442   -0.0828    0.5830 C   0  0  0  0  0  0  0  0  0  0  0  0
    5.3832   -0.6233   -0.2340 C   0  0  0  0  0  0  0  0  0  0  0  0
    5.1464    0.2903   -1.3090 O   0  0  0  0  0  0  0  0  0  0  0  0
    4.3790    1.3761   -1.0011 C   0  0  0  0  0  0  0  0  0  0  0  0
    3.6064    1.4233   -0.0477 O   0  0  0  0  0  0  0  0  0  0  0  0
    4.6704    2.5010   -1.8786 C   0  0  0  0  0  0  0  0  0  0  0  0
    5.5571    2.4580   -2.9345 C   0  0  0  0  0  0  0  0  0  0  0  0
    5.6118    3.6871   -3.5133 N   0  0  0  0  0  0  0  0  0  0  0  0
    6.3864    3.9553   -4.5719 N   0  0  0  0  0  0  0  0  0  0  0  0
    6.3114    5.1800   -4.9667 C   0  0  0  0  0  0  0  0  0  0  0  0
    5.5480    6.1634   -4.4101 N   0  0  0  0  0  0  0  0  0  0  0  0
    4.8206    5.9211   -3.3591 C   0  0  0  0  0  0  0  0  0  0  0  0
    4.1438    6.9713   -2.7785 N   0  0  0  0  0  0  0  0  0  0  0  0
    3.6136    8.1168   -3.4003 C   0  0  0  0  0  0  0  0  0  0  0  0
    3.3267    8.1812   -4.7667 C   0  0  0  0  0  0  0  0  0  0  0  0
    2.8002    9.3445   -5.3389 C   0  0  0  0  0  0  0  0  0  0  0  0
    2.5801   10.4905   -4.5643 C   0  0  0  0  0  0  0  0  0  0  0  0
    2.0372   11.7275   -5.2156 C   0  0  0  0  0  0  0  0  0  0  0  0
    2.8995   10.4337   -3.2053 C   0  0  0  0  0  0  0  0  0  0  0  0
    2.7373   11.4945   -2.3592 O   0  0  0  0  0  0  0  0  0  0  0  0
    3.4104    9.2688   -2.6313 C   0  0  0  0  0  0  0  0  0  0  0  0
    4.8019    4.5710   -2.8384 C   0  0  0  0  0  0  0  0  0  0  0  0
    4.1842    3.8517   -1.8164 C   0  0  0  0  0  0  0  0  0  0  0  0
    3.3783    4.2499   -0.8026 O   0  0  0  0  0  0  0  0  0  0  0  0
    2.3610    5.1963   -1.0853 C   0  0  0  0  0  0  0  0  0  0  0  0
    1.0995    4.8999   -0.2851 C   0  0  0  0  0  0  0  0  0  0  0  0
    6.8113   -0.7635    1.3953 H   0  0  0  0  0  0  0  0  0  0  0  0
    6.2971    0.8952    1.0095 H   0  0  0  0  0  0  0  0  0  0  0  0
    7.4200    0.0701   -0.0573 H   0  0  0  0  0  0  0  0  0  0  0  0
    4.4882   -0.7772    0.3784 H   0  0  0  0  0  0  0  0  0  0  0  0
    5.6532   -1.5890   -0.6730 H   0  0  0  0  0  0  0  0  0  0  0  0
    6.1752    1.6518   -3.3121 H   0  0  0  0  0  0  0  0  0  0  0  0
    6.9275    5.4805   -5.8397 H   0  0  0  0  0  0  0  0  0  0  0  0
    3.9799    6.9187   -1.7910 H   0  0  0  0  0  0  0  0  0  0  0  0
    3.4824    7.3159   -5.4060 H   0  0  0  0  0  0  0  0  0  0  0  0
    2.5645    9.3415   -6.4013 H   0  0  0  0  0  0  0  0  0  0  0  0
    1.8204   11.5636   -6.2766 H   0  0  0  0  0  0  0  0  0  0  0  0
    2.7692   12.5384   -5.1478 H   0  0  0  0  0  0  0  0  0  0  0  0
    1.1045   12.0347   -4.7322 H   0  0  0  0  0  0  0  0  0  0  0  0
    2.4095   12.2579   -2.8589 H   0  0  0  0  0  0  0  0  0  0  0  0
    3.6622    9.2773   -1.5741 H   0  0  0  0  0  0  0  0  0  0  0  0
    2.1135    5.2504   -2.1465 H   0  0  0  0  0  0  0  0  0  0  0  0
    2.7058    6.1615   -0.7094 H   0  0  0  0  0  0  0  0  0  0  0  0
    0.6721    3.9310   -0.5540 H   0  0  0  0  0  0  0  0  0  0  0  0
    0.3528    5.6815   -0.4695 H   0  0  0  0  0  0  0  0  0  0  0  0
    1.3129    4.8805    0.7892 H   0  0  0  0  0  0  0  0  0  0  0  0
  1  2  1  0  0  0  0
  1 27  1  0  0  0  0
  1 28  1  0  0  0  0
  1 29  1  0  0  0  0
  2  3  1  0  0  0  0
  2 30  1  0  0  0  0
  2 31  1  0  0  0  0
  3  4  1  0  0  0  0
  4  5  2  0  0  0  0
  4  6  1  0  0  0  0
  6  7  2  0  0  0  0
  6 23  1  0  0  0  0
  7  8  1  0  0  0  0
  7 32  1  0  0  0  0
  8  9  1  0  0  0  0
  8 22  1  0  0  0  0
  9 10  2  0  0  0  0
 10 11  1  0  0  0  0
 10 33  1  0  0  0  0
 11 12  2  0  0  0  0
 12 13  1  0  0  0  0
 12 22  1  0  0  0  0
 13 14  1  0  0  0  0
 13 34  1  0  0  0  0
 14 15  1  0  0  0  0
 14 21  2  0  0  0  0
 15 16  2  0  0  0  0
 15 35  1  0  0  0  0
 16 17  1  0  0  0  0
 16 36  1  0  0  0  0
 17 18  1  0  0  0  0
 17 19  2  0  0  0  0
 18 37  1  0  0  0  0
 18 38  1  0  0  0  0
 18 39  1  0  0  0  0
 19 20  1  0  0  0  0
 19 21  1  0  0  0  0
 20 40  1  0  0  0  0
 21 41  1  0  0  0  0
 22 23  2  0  0  0  0
 23 24  1  0  0  0  0
 24 25  1  0  0  0  0
 25 26  1  0  0  0  0
 25 42  1  0  0  0  0
 25 43  1  0  0  0  0
 26 44  1  0  0  0  0
 26 45  1  0  0  0  0
 26 46  1  0  0  0  0
M  END
$$$$
