CHEMBL1614710
 OpenBabel04072215363D

 47 50  0  0  0  0  0  0  0  0999 V2000
    1.0901    1.0379    0.6594 O   0  0  0  0  0  0  0  0  0  0  0  0
    2.0453    0.4788    0.1269 C   0  0  0  0  0  0  0  0  0  0  0  0
    2.5216   -0.7737    0.5213 N   0  0  0  0  0  0  0  0  0  0  0  0
    1.9391   -1.6470    1.4673 C   0  0  0  0  0  0  0  0  0  0  0  0
    0.6392   -1.4953    1.9512 C   0  0  0  0  0  0  0  0  0  0  0  0
    0.1180   -2.3636    2.9218 C   0  0  0  0  0  0  0  0  0  0  0  0
    0.8770   -3.4295    3.3909 C   0  0  0  0  0  0  0  0  0  0  0  0
    0.4977   -4.3551    4.3134 O   0  0  0  0  0  0  0  0  0  0  0  0
   -0.8808   -4.5631    4.5847 C   0  0  0  0  0  0  0  0  0  0  0  0
   -1.6958   -4.1986    3.5729 F   0  0  0  0  0  0  0  0  0  0  0  0
   -1.0712   -5.8851    4.8015 F   0  0  0  0  0  0  0  0  0  0  0  0
   -1.2377   -3.8990    5.7045 F   0  0  0  0  0  0  0  0  0  0  0  0
    2.1754   -3.5950    2.9005 C   0  0  0  0  0  0  0  0  0  0  0  0
    2.6992   -2.7233    1.9345 C   0  0  0  0  0  0  0  0  0  0  0  0
    2.7786    1.1124   -0.9745 C   0  0  0  0  0  0  0  0  0  0  0  0
    4.0171    0.2628   -1.8163 S   0  0  0  0  0  0  0  0  0  0  0  0
    4.2174    1.5229   -2.9438 C   0  0  0  0  0  0  0  0  0  0  0  0
    3.4026    2.5950   -2.6655 C   0  0  0  0  0  0  0  0  0  0  0  0
    2.6041    2.3870   -1.5015 C   0  0  0  0  0  0  0  0  0  0  0  0
    1.7672    3.3197   -0.9725 N   0  0  0  0  0  0  0  0  0  0  0  0
    1.4865    4.6246   -1.5560 C   0  0  0  0  0  0  0  0  0  0  0  0
    2.4656    5.7352   -1.1964 C   0  0  0  0  0  0  0  0  0  0  0  0
    3.5923    5.5033   -0.3988 C   0  0  0  0  0  0  0  0  0  0  0  0
    4.4286    6.5622   -0.0932 C   0  0  0  0  0  0  0  0  0  0  0  0
    4.2193    7.8317   -0.4957 N   0  0  0  0  0  0  0  0  0  0  0  0
    3.1287    8.0793   -1.2468 C   0  0  0  0  0  0  0  0  0  0  0  0
    2.8799    9.3904   -1.6250 C   0  0  0  0  0  0  0  0  0  0  0  0
    1.7741    9.7468   -2.3960 C   0  0  0  0  0  0  0  0  0  0  0  0
    0.9020    8.7591   -2.8284 C   0  0  0  0  0  0  0  0  0  0  0  0
    1.1311    7.4337   -2.4666 C   0  0  0  0  0  0  0  0  0  0  0  0
    2.2287    7.0655   -1.6491 C   0  0  0  0  0  0  0  0  0  0  0  0
    3.4084   -1.0536    0.1208 H   0  0  0  0  0  0  0  0  0  0  0  0
   -0.0146   -0.7127    1.5785 H   0  0  0  0  0  0  0  0  0  0  0  0
   -0.8871   -2.1612    3.2802 H   0  0  0  0  0  0  0  0  0  0  0  0
    2.7900   -4.4129    3.2720 H   0  0  0  0  0  0  0  0  0  0  0  0
    3.7123   -2.8932    1.5798 H   0  0  0  0  0  0  0  0  0  0  0  0
    4.9221    1.4290   -3.7576 H   0  0  0  0  0  0  0  0  0  0  0  0
    3.3954    3.4869   -3.2794 H   0  0  0  0  0  0  0  0  0  0  0  0
    1.0906    3.0218   -0.2647 H   0  0  0  0  0  0  0  0  0  0  0  0
    0.4991    4.9305   -1.1884 H   0  0  0  0  0  0  0  0  0  0  0  0
    1.4094    4.5417   -2.6467 H   0  0  0  0  0  0  0  0  0  0  0  0
    3.8253    4.5174   -0.0113 H   0  0  0  0  0  0  0  0  0  0  0  0
    5.3191    6.4161    0.5119 H   0  0  0  0  0  0  0  0  0  0  0  0
    3.5648   10.1685   -1.3001 H   0  0  0  0  0  0  0  0  0  0  0  0
    1.5945   10.7878   -2.6492 H   0  0  0  0  0  0  0  0  0  0  0  0
    0.0399    9.0197   -3.4405 H   0  0  0  0  0  0  0  0  0  0  0  0
    0.4298    6.6872   -2.8323 H   0  0  0  0  0  0  0  0  0  0  0  0
  1  2  2  0  0  0  0
  2  3  1  0  0  0  0
  2 15  1  0  0  0  0
  3  4  1  0  0  0  0
  3 32  1  0  0  0  0
  4  5  1  0  0  0  0
  4 14  2  0  0  0  0
  5  6  2  0  0  0  0
  5 33  1  0  0  0  0
  6  7  1  0  0  0  0
  6 34  1  0  0  0  0
  7  8  1  0  0  0  0
  7 13  2  0  0  0  0
  8  9  1  0  0  0  0
  9 10  1  0  0  0  0
  9 11  1  0  0  0  0
  9 12  1  0  0  0  0
 13 14  1  0  0  0  0
 13 35  1  0  0  0  0
 14 36  1  0  0  0  0
 15 16  1  0  0  0  0
 15 19  2  0  0  0  0
 16 17  1  0  0  0  0
 17 18  2  0  0  0  0
 17 37  1  0  0  0  0
 18 19  1  0  0  0  0
 18 38  1  0  0  0  0
 19 20  1  0  0  0  0
 20 21  1  0  0  0  0
 20 39  1  0  0  0  0
 21 22  1  0  0  0  0
 21 40  1  0  0  0  0
 21 41  1  0  0  0  0
 22 23  1  0  0  0  0
 22 31  2  0  0  0  0
 23 24  2  0  0  0  0
 23 42  1  0  0  0  0
 24 25  1  0  0  0  0
 24 43  1  0  0  0  0
 25 26  2  0  0  0  0
 26 27  1  0  0  0  0
 26 31  1  0  0  0  0
 27 28  2  0  0  0  0
 27 44  1  0  0  0  0
 28 29  1  0  0  0  0
 28 45  1  0  0  0  0
 29 30  2  0  0  0  0
 29 46  1  0  0  0  0
 30 31  1  0  0  0  0
 30 47  1  0  0  0  0
M  END
$$$$
