CHEMBL3983466
 OpenBabel04072215373D

 59 63  0  0  1  0  0  0  0  0999 V2000
    0.2392    1.7766    7.2038 C   0  0  0  0  0  0  0  0  0  0  0  0
    0.5507    2.2622    5.9009 O   0  0  0  0  0  0  0  0  0  0  0  0
    1.3721    3.3579    5.8406 C   0  0  0  0  0  0  0  0  0  0  0  0
    1.7970    3.9745    7.0058 C   0  0  0  0  0  0  0  0  0  0  0  0
    2.8593    4.8782    7.0343 C   0  0  0  0  0  0  0  0  0  0  0  0
    3.4261    5.3116    8.2288 C   0  0  0  0  0  0  0  0  0  0  0  0
    3.0690    4.6866    9.4494 N   0  0  0  0  0  0  0  0  0  0  0  0
    2.9506    5.2669   10.7299 C   0  0  0  0  0  0  0  0  0  0  0  0
    2.6339    6.6230   10.8652 C   0  0  0  0  0  0  0  0  0  0  0  0
    2.2099    7.1377   12.0890 C   0  0  0  0  0  0  0  0  0  0  0  0
    2.1440    6.3161   13.2153 C   0  0  0  0  0  0  0  0  0  0  0  0
    1.4421    6.9857   14.6452 Cl  0  0  0  0  0  0  0  0  0  0  0  0
    2.5730    4.9884   13.1358 C   0  0  0  0  0  0  0  0  0  0  0  0
    2.5947    3.9523   14.5203 Cl  0  0  0  0  0  0  0  0  0  0  0  0
    2.9520    4.4725   11.8896 C   0  0  0  0  0  0  0  0  0  0  0  0
    3.2870    3.1731   11.7792 F   0  0  0  0  0  0  0  0  0  0  0  0
    4.3622    6.2712    8.2398 N   0  0  0  0  0  0  0  0  0  0  0  0
    4.7585    6.7104    7.0420 C   0  0  0  0  0  0  0  0  0  0  0  0
    4.3182    6.2957    5.8337 N   0  0  0  0  0  0  0  0  0  0  0  0
    3.3568    5.3699    5.8244 C   0  0  0  0  0  0  0  0  0  0  0  0
    2.8136    4.8588    4.6339 C   0  0  0  0  0  0  0  0  0  0  0  0
    1.8465    3.8456    4.6092 C   0  0  0  0  0  0  0  0  0  0  0  0
    1.4300    3.4543    3.3569 O   0  0  0  0  0  0  0  0  0  0  0  0
    0.4231    2.4304    3.2982 C   0  0  0  0  0  0  0  0  0  0  0  0
   -0.0080    2.1213    1.8548 C   0  0  2  0  0  0  0  0  0  0  0  0
    1.2458    1.6061    1.0879 C   0  0  0  0  0  0  0  0  0  0  0  0
    1.0977    1.6665   -0.3590 N   0  0  3  0  0  0  0  0  0  0  0  0
    2.3657    1.5580   -1.0776 C   0  0  0  0  0  0  0  0  0  0  0  0
    1.9299    1.9634   -2.4808 C   0  0  0  0  0  0  0  0  0  0  0  0
    0.7689    2.9432   -2.2713 C   0  0  0  0  0  0  0  0  0  0  0  0
    0.6153    2.9985   -0.7654 C   0  0  1  0  0  0  0  0  0  0  0  0
   -0.7679    3.2848   -0.2051 C   0  0  0  0  0  0  0  0  0  0  0  0
   -1.7006    3.7143   -0.8770 O   0  0  0  0  0  0  0  0  0  0  0  0
   -0.7612    3.2210    1.1948 N   0  0  0  0  0  0  0  0  0  0  0  0
   -1.8057    3.9194    1.9208 C   0  0  0  0  0  0  0  0  0  0  0  0
   -0.1400    0.7547    7.1301 H   0  0  0  0  0  0  0  0  0  0  0  0
   -0.5381    2.4137    7.6384 H   0  0  0  0  0  0  0  0  0  0  0  0
    1.1204    1.7272    7.8569 H   0  0  0  0  0  0  0  0  0  0  0  0
    1.3049    3.7636    7.9573 H   0  0  0  0  0  0  0  0  0  0  0  0
    3.3348    3.7062    9.4670 H   0  0  0  0  0  0  0  0  0  0  0  0
    2.6452    7.2752    9.9960 H   0  0  0  0  0  0  0  0  0  0  0  0
    1.8845    8.1746   12.1369 H   0  0  0  0  0  0  0  0  0  0  0  0
    5.5192    7.4826    7.0378 H   0  0  0  0  0  0  0  0  0  0  0  0
    3.1941    5.2541    3.6915 H   0  0  0  0  0  0  0  0  0  0  0  0
   -0.4615    2.7322    3.8680 H   0  0  0  0  0  0  0  0  0  0  0  0
    0.8485    1.5037    3.7033 H   0  0  0  0  0  0  0  0  0  0  0  0
   -0.7295    1.2906    1.8940 H   0  0  0  0  0  0  0  0  0  0  0  0
    1.4137    0.5588    1.3770 H   0  0  0  0  0  0  0  0  0  0  0  0
    2.1372    2.1587    1.4025 H   0  0  0  0  0  0  0  0  0  0  0  0
    2.7980    0.5551   -1.0409 H   0  0  0  0  0  0  0  0  0  0  0  0
    3.1099    2.2728   -0.6958 H   0  0  0  0  0  0  0  0  0  0  0  0
    1.5734    1.0853   -3.0305 H   0  0  0  0  0  0  0  0  0  0  0  0
    2.7492    2.4160   -3.0468 H   0  0  0  0  0  0  0  0  0  0  0  0
   -0.1343    2.5834   -2.7757 H   0  0  0  0  0  0  0  0  0  0  0  0
    1.0077    3.9340   -2.6721 H   0  0  0  0  0  0  0  0  0  0  0  0
    1.2700    3.7918   -0.3706 H   0  0  0  0  0  0  0  0  0  0  0  0
   -2.3898    4.5660    1.2593 H   0  0  0  0  0  0  0  0  0  0  0  0
   -1.3238    4.5596    2.6658 H   0  0  0  0  0  0  0  0  0  0  0  0
   -2.4732    3.2071    2.4114 H   0  0  0  0  0  0  0  0  0  0  0  0
  1  2  1  0  0  0  0
  1 36  1  0  0  0  0
  1 37  1  0  0  0  0
  1 38  1  0  0  0  0
  2  3  1  0  0  0  0
  3  4  1  0  0  0  0
  3 22  2  0  0  0  0
  4  5  2  0  0  0  0
  4 39  1  0  0  0  0
  5  6  1  0  0  0  0
  5 20  1  0  0  0  0
  6  7  1  0  0  0  0
  6 17  2  0  0  0  0
  7  8  1  0  0  0  0
  7 40  1  0  0  0  0
  8  9  1  0  0  0  0
  8 15  2  0  0  0  0
  9 10  2  0  0  0  0
  9 41  1  0  0  0  0
 10 11  1  0  0  0  0
 10 42  1  0  0  0  0
 11 12  1  0  0  0  0
 11 13  2  0  0  0  0
 13 14  1  0  0  0  0
 13 15  1  0  0  0  0
 15 16  1  0  0  0  0
 17 18  1  0  0  0  0
 18 19  2  0  0  0  0
 18 43  1  0  0  0  0
 19 20  1  0  0  0  0
 20 21  2  0  0  0  0
 21 22  1  0  0  0  0
 21 44  1  0  0  0  0
 22 23  1  0  0  0  0
 23 24  1  0  0  0  0
 24 45  1  0  0  0  0
 24 46  1  0  0  0  0
 25 26  1  0  0  0  0
 25 34  1  0  0  0  0
 25 24  1  0  0  0  0
 25 47  1  1  0  0  0
 26 27  1  0  0  0  0
 26 48  1  0  0  0  0
 26 49  1  0  0  0  0
 27 28  1  0  0  0  0
 27 31  1  0  0  0  0
 28 29  1  0  0  0  0
 28 50  1  0  0  0  0
 28 51  1  0  0  0  0
 29 30  1  0  0  0  0
 29 52  1  0  0  0  0
 29 53  1  0  0  0  0
 30 31  1  0  0  0  0
 30 54  1  0  0  0  0
 30 55  1  0  0  0  0
 31 32  1  0  0  0  0
 31 56  1  1  0  0  0
 32 33  2  0  0  0  0
 32 34  1  0  0  0  0
 34 35  1  0  0  0  0
 35 57  1  0  0  0  0
 35 58  1  0  0  0  0
 35 59  1  0  0  0  0
M  END
$$$$
