CHEMBL3109340
 OpenBabel04072215363D

 57 61  0  0  0  0  0  0  0  0999 V2000
    1.5081   -5.7366   -3.1259 C   0  0  0  0  0  0  0  0  0  0  0  0
    2.8717   -5.3894   -2.9383 O   0  0  0  0  0  0  0  0  0  0  0  0
    3.1794   -4.1231   -3.5206 C   0  0  0  0  0  0  0  0  0  0  0  0
    4.6503   -3.8256   -3.2704 C   0  0  0  0  0  0  0  0  0  0  0  0
    4.9788   -2.5475   -3.8084 O   0  0  0  0  0  0  0  0  0  0  0  0
    6.3048   -2.1559   -3.7809 C   0  0  0  0  0  0  0  0  0  0  0  0
    7.3000   -2.9250   -3.0362 C   0  0  0  0  0  0  0  0  0  0  0  0
    8.5833   -2.5141   -3.0299 C   0  0  0  0  0  0  0  0  0  0  0  0
    8.9459   -1.3664   -3.7290 N   0  0  0  0  0  0  0  0  0  0  0  0
   10.1669   -0.7272   -3.8445 C   0  0  0  0  0  0  0  0  0  0  0  0
   11.4151   -1.1257   -3.2085 C   0  0  0  0  0  0  0  0  0  0  0  0
   12.3083   -0.1612   -2.7724 C   0  0  0  0  0  0  0  0  0  0  0  0
   13.4999   -0.5796   -2.2098 C   0  0  0  0  0  0  0  0  0  0  0  0
   13.7767   -1.9444   -2.1091 C   0  0  0  0  0  0  0  0  0  0  0  0
   15.0000   -2.3406   -1.5600 C   0  0  0  0  0  0  0  0  0  0  0  0
   15.3177   -3.6844   -1.4671 C   0  0  0  0  0  0  0  0  0  0  0  0
   14.4098   -4.6391   -1.9143 C   0  0  0  0  0  0  0  0  0  0  0  0
   13.1742   -4.2633   -2.4718 C   0  0  0  0  0  0  0  0  0  0  0  0
   12.2425   -5.1958   -2.9137 O   0  0  0  0  0  0  0  0  0  0  0  0
   12.7229   -6.4892   -3.3342 C   0  0  0  0  0  0  0  0  0  0  0  0
   13.3509   -6.4167   -4.7269 C   0  0  0  0  0  0  0  0  0  0  0  0
   12.2954   -6.1796   -5.8049 C   0  0  0  0  0  0  0  0  0  0  0  0
   11.2483   -7.2009   -5.8054 N   0  0  0  0  0  0  0  0  0  0  0  0
   10.6058   -7.3328   -4.4988 C   0  0  0  0  0  0  0  0  0  0  0  0
   11.5894   -7.5241   -3.3483 C   0  0  0  0  0  0  0  0  0  0  0  0
   12.8256   -2.8915   -2.5741 C   0  0  0  0  0  0  0  0  0  0  0  0
   11.6530   -2.4581   -3.1108 N   0  0  0  0  0  0  0  0  0  0  0  0
    9.8969    0.3747   -4.6407 C   0  0  0  0  0  0  0  0  0  0  0  0
    8.5794    0.4493   -4.9970 N   0  0  0  0  0  0  0  0  0  0  0  0
    8.0196   -0.6012   -4.4389 C   0  0  0  0  0  0  0  0  0  0  0  0
    6.6661   -1.0397   -4.4433 C   0  0  0  0  0  0  0  0  0  0  0  0
    1.3353   -6.7106   -2.6629 H   0  0  0  0  0  0  0  0  0  0  0  0
    1.2772   -5.8077   -4.1930 H   0  0  0  0  0  0  0  0  0  0  0  0
    0.8582   -4.9985   -2.6458 H   0  0  0  0  0  0  0  0  0  0  0  0
    2.5563   -3.3387   -3.0748 H   0  0  0  0  0  0  0  0  0  0  0  0
    2.9791   -4.1428   -4.5982 H   0  0  0  0  0  0  0  0  0  0  0  0
    5.2547   -4.6114   -3.7407 H   0  0  0  0  0  0  0  0  0  0  0  0
    4.8321   -3.8371   -2.1888 H   0  0  0  0  0  0  0  0  0  0  0  0
    7.0395   -3.8171   -2.4881 H   0  0  0  0  0  0  0  0  0  0  0  0
    9.3556   -3.0550   -2.4918 H   0  0  0  0  0  0  0  0  0  0  0  0
   12.0926    0.8982   -2.8627 H   0  0  0  0  0  0  0  0  0  0  0  0
   14.2123    0.1672   -1.8671 H   0  0  0  0  0  0  0  0  0  0  0  0
   15.7165   -1.6027   -1.2048 H   0  0  0  0  0  0  0  0  0  0  0  0
   16.2720   -3.9904   -1.0455 H   0  0  0  0  0  0  0  0  0  0  0  0
   14.7086   -5.6735   -1.7982 H   0  0  0  0  0  0  0  0  0  0  0  0
   13.4419   -6.8840   -2.6129 H   0  0  0  0  0  0  0  0  0  0  0  0
   13.8779   -7.3570   -4.9332 H   0  0  0  0  0  0  0  0  0  0  0  0
   14.0937   -5.6135   -4.7772 H   0  0  0  0  0  0  0  0  0  0  0  0
   12.7856   -6.1938   -6.7851 H   0  0  0  0  0  0  0  0  0  0  0  0
   11.8492   -5.1845   -5.6952 H   0  0  0  0  0  0  0  0  0  0  0  0
   11.6308   -8.0956   -6.1052 H   0  0  0  0  0  0  0  0  0  0  0  0
    9.9443   -8.2078   -4.5377 H   0  0  0  0  0  0  0  0  0  0  0  0
    9.9608   -6.4688   -4.3076 H   0  0  0  0  0  0  0  0  0  0  0  0
   12.0371   -8.5242   -3.4381 H   0  0  0  0  0  0  0  0  0  0  0  0
   11.0421   -7.5015   -2.3988 H   0  0  0  0  0  0  0  0  0  0  0  0
   10.5980    1.1309   -4.9708 H   0  0  0  0  0  0  0  0  0  0  0  0
    5.9399   -0.4507   -4.9912 H   0  0  0  0  0  0  0  0  0  0  0  0
  1  2  1  0  0  0  0
  1 32  1  0  0  0  0
  1 33  1  0  0  0  0
  1 34  1  0  0  0  0
  2  3  1  0  0  0  0
  3  4  1  0  0  0  0
  3 35  1  0  0  0  0
  3 36  1  0  0  0  0
  4  5  1  0  0  0  0
  4 37  1  0  0  0  0
  4 38  1  0  0  0  0
  5  6  1  0  0  0  0
  6  7  1  0  0  0  0
  6 31  2  0  0  0  0
  7  8  2  0  0  0  0
  7 39  1  0  0  0  0
  8  9  1  0  0  0  0
  8 40  1  0  0  0  0
  9 10  1  0  0  0  0
  9 30  1  0  0  0  0
 10 11  1  0  0  0  0
 10 28  2  0  0  0  0
 11 12  1  0  0  0  0
 11 27  2  0  0  0  0
 12 13  2  0  0  0  0
 12 41  1  0  0  0  0
 13 14  1  0  0  0  0
 13 42  1  0  0  0  0
 14 15  1  0  0  0  0
 14 26  2  0  0  0  0
 15 16  2  0  0  0  0
 15 43  1  0  0  0  0
 16 17  1  0  0  0  0
 16 44  1  0  0  0  0
 17 18  2  0  0  0  0
 17 45  1  0  0  0  0
 18 19  1  0  0  0  0
 18 26  1  0  0  0  0
 19 20  1  0  0  0  0
 20 21  1  0  0  0  0
 20 25  1  0  0  0  0
 20 46  1  0  0  0  0
 21 22  1  0  0  0  0
 21 47  1  0  0  0  0
 21 48  1  0  0  0  0
 22 23  1  0  0  0  0
 22 49  1  0  0  0  0
 22 50  1  0  0  0  0
 23 24  1  0  0  0  0
 23 51  1  0  0  0  0
 24 25  1  0  0  0  0
 24 52  1  0  0  0  0
 24 53  1  0  0  0  0
 25 54  1  0  0  0  0
 25 55  1  0  0  0  0
 26 27  1  0  0  0  0
 28 29  1  0  0  0  0
 28 56  1  0  0  0  0
 29 30  2  0  0  0  0
 30 31  1  0  0  0  0
 31 57  1  0  0  0  0
M  END
$$$$
