CHEMBL215726
 OpenBabel04072215363D

 80 85  0  0  0  0  0  0  0  0999 V2000
    0.9900    2.5458    3.1793 C   0  0  0  0  0  0  0  0  0  0  0  0
    2.4505    2.2395    3.0351 C   0  0  0  0  0  0  0  0  0  0  0  0
    3.1194    1.7704    4.1794 C   0  0  0  0  0  0  0  0  0  0  0  0
    4.4797    1.4742    4.1580 C   0  0  0  0  0  0  0  0  0  0  0  0
    5.2009    1.6151    2.9785 C   0  0  0  0  0  0  0  0  0  0  0  0
    4.5683    2.0615    1.8115 C   0  0  0  0  0  0  0  0  0  0  0  0
    5.3825    2.2172    0.5550 C   0  0  0  0  0  0  0  0  0  0  0  0
    3.1912    2.3795    1.8491 C   0  0  0  0  0  0  0  0  0  0  0  0
    2.7097    2.9924    0.6518 O   0  0  0  0  0  0  0  0  0  0  0  0
    1.3961    3.3148    0.2837 C   0  0  0  0  0  0  0  0  0  0  0  0
    0.4903    2.4797    0.3064 O   0  0  0  0  0  0  0  0  0  0  0  0
    1.2468    4.6782   -0.0152 N   0  0  0  0  0  0  0  0  0  0  0  0
   -0.0216    5.3494   -0.0140 C   0  0  0  0  0  0  0  0  0  0  0  0
   -1.0858    4.9148    0.7795 C   0  0  0  0  0  0  0  0  0  0  0  0
   -2.2503    5.6764    0.8798 C   0  0  0  0  0  0  0  0  0  0  0  0
   -2.3754    6.8756    0.1740 C   0  0  0  0  0  0  0  0  0  0  0  0
   -1.3467    7.3425   -0.6569 C   0  0  0  0  0  0  0  0  0  0  0  0
   -1.4027    8.6710   -1.3170 C   0  0  0  0  0  0  0  0  0  0  0  0
   -2.0443    9.7606   -0.6976 C   0  0  0  0  0  0  0  0  0  0  0  0
   -2.0147   11.0435   -1.2539 C   0  0  0  0  0  0  0  0  0  0  0  0
   -1.3336   11.2714   -2.4438 C   0  0  0  0  0  0  0  0  0  0  0  0
   -0.7058   10.2121   -3.0900 C   0  0  0  0  0  0  0  0  0  0  0  0
   -0.7512    8.9263   -2.5389 C   0  0  0  0  0  0  0  0  0  0  0  0
   -0.1989    6.5340   -0.7620 C   0  0  0  0  0  0  0  0  0  0  0  0
    2.4158    5.4923   -0.1445 C   0  0  0  0  0  0  0  0  0  0  0  0
    2.5350    6.6544    0.5929 C   0  0  0  0  0  0  0  0  0  0  0  0
    3.6931    7.3662    0.4181 C   0  0  0  0  0  0  0  0  0  0  0  0
    4.6764    6.9917   -0.4170 N   0  0  0  0  0  0  0  0  0  0  0  0
    4.4795    5.8631   -1.1089 C   0  0  0  0  0  0  0  0  0  0  0  0
    5.4842    5.4899   -2.0026 N   0  0  0  0  0  0  0  0  0  0  0  0
    5.3154    4.8340   -3.2313 C   0  0  0  0  0  0  0  0  0  0  0  0
    4.0991    4.8427   -3.9136 C   0  0  0  0  0  0  0  0  0  0  0  0
    3.9273    4.1065   -5.0846 C   0  0  0  0  0  0  0  0  0  0  0  0
    4.9544    3.3241   -5.6240 C   0  0  0  0  0  0  0  0  0  0  0  0
    4.7238    2.6109   -6.7838 N   0  0  0  0  0  0  0  0  0  0  0  0
    5.8091    2.1692   -7.6659 C   0  0  0  0  0  0  0  0  0  0  0  0
    5.2808    2.1413   -9.1224 C   0  0  0  0  0  0  0  0  0  0  0  0
    4.0816    1.2841   -9.2862 N   0  0  0  0  0  0  0  0  0  0  0  0
    3.5912    1.3448  -10.6603 C   0  0  0  0  0  0  0  0  0  0  0  0
    3.0290    1.7312   -8.3424 C   0  0  0  0  0  0  0  0  0  0  0  0
    3.5191    1.7618   -6.8770 C   0  0  0  0  0  0  0  0  0  0  0  0
    6.1891    3.3642   -4.9652 C   0  0  0  0  0  0  0  0  0  0  0  0
    6.3715    4.1118   -3.7895 C   0  0  0  0  0  0  0  0  0  0  0  0
    3.3851    5.0940   -0.9810 N   0  0  0  0  0  0  0  0  0  0  0  0
    0.6832    2.5501    4.2315 H   0  0  0  0  0  0  0  0  0  0  0  0
    0.3888    1.7833    2.6767 H   0  0  0  0  0  0  0  0  0  0  0  0
    0.7615    3.5433    2.8009 H   0  0  0  0  0  0  0  0  0  0  0  0
    2.5768    1.6456    5.1155 H   0  0  0  0  0  0  0  0  0  0  0  0
    4.9759    1.1363    5.0640 H   0  0  0  0  0  0  0  0  0  0  0  0
    6.2644    1.3863    2.9784 H   0  0  0  0  0  0  0  0  0  0  0  0
    6.4283    1.9282    0.7190 H   0  0  0  0  0  0  0  0  0  0  0  0
    5.3847    3.2584    0.2230 H   0  0  0  0  0  0  0  0  0  0  0  0
    4.9872    1.5753   -0.2386 H   0  0  0  0  0  0  0  0  0  0  0  0
   -1.0195    4.0118    1.3794 H   0  0  0  0  0  0  0  0  0  0  0  0
   -3.0535    5.3490    1.5359 H   0  0  0  0  0  0  0  0  0  0  0  0
   -3.2947    7.4453    0.2912 H   0  0  0  0  0  0  0  0  0  0  0  0
   -2.5540    9.6342    0.2548 H   0  0  0  0  0  0  0  0  0  0  0  0
   -2.5104   11.8653   -0.7436 H   0  0  0  0  0  0  0  0  0  0  0  0
   -1.2903   12.2721   -2.8650 H   0  0  0  0  0  0  0  0  0  0  0  0
   -0.1707   10.3840   -4.0207 H   0  0  0  0  0  0  0  0  0  0  0  0
   -0.2543    8.1252   -3.0822 H   0  0  0  0  0  0  0  0  0  0  0  0
    0.6023    6.8561   -1.4243 H   0  0  0  0  0  0  0  0  0  0  0  0
    1.7776    6.9840    1.2915 H   0  0  0  0  0  0  0  0  0  0  0  0
    3.8671    8.2895    0.9621 H   0  0  0  0  0  0  0  0  0  0  0  0
    6.2448    6.1539   -1.9702 H   0  0  0  0  0  0  0  0  0  0  0  0
    3.2595    5.4287   -3.5518 H   0  0  0  0  0  0  0  0  0  0  0  0
    2.9684    4.1744   -5.5903 H   0  0  0  0  0  0  0  0  0  0  0  0
    6.1625    1.1738   -7.3680 H   0  0  0  0  0  0  0  0  0  0  0  0
    6.6603    2.8587   -7.6316 H   0  0  0  0  0  0  0  0  0  0  0  0
    6.0835    1.7820   -9.7764 H   0  0  0  0  0  0  0  0  0  0  0  0
    5.0463    3.1721   -9.4237 H   0  0  0  0  0  0  0  0  0  0  0  0
    4.3597    0.9902  -11.3554 H   0  0  0  0  0  0  0  0  0  0  0  0
    3.3002    2.3594  -10.9556 H   0  0  0  0  0  0  0  0  0  0  0  0
    2.7237    0.6876  -10.7854 H   0  0  0  0  0  0  0  0  0  0  0  0
    2.1669    1.0567   -8.4062 H   0  0  0  0  0  0  0  0  0  0  0  0
    2.6801    2.7376   -8.6132 H   0  0  0  0  0  0  0  0  0  0  0  0
    3.7604    0.7446   -6.5410 H   0  0  0  0  0  0  0  0  0  0  0  0
    2.6949    2.1126   -6.2466 H   0  0  0  0  0  0  0  0  0  0  0  0
    7.0275    2.7769   -5.3294 H   0  0  0  0  0  0  0  0  0  0  0  0
    7.3367    4.0838   -3.2906 H   0  0  0  0  0  0  0  0  0  0  0  0
  1  2  1  0  0  0  0
  1 45  1  0  0  0  0
  1 46  1  0  0  0  0
  1 47  1  0  0  0  0
  2  3  1  0  0  0  0
  2  8  2  0  0  0  0
  3  4  2  0  0  0  0
  3 48  1  0  0  0  0
  4  5  1  0  0  0  0
  4 49  1  0  0  0  0
  5  6  2  0  0  0  0
  5 50  1  0  0  0  0
  6  7  1  0  0  0  0
  6  8  1  0  0  0  0
  7 51  1  0  0  0  0
  7 52  1  0  0  0  0
  7 53  1  0  0  0  0
  8  9  1  0  0  0  0
  9 10  1  0  0  0  0
 10 11  2  0  0  0  0
 10 12  1  0  0  0  0
 12 13  1  0  0  0  0
 12 25  1  0  0  0  0
 13 14  1  0  0  0  0
 13 24  2  0  0  0  0
 14 15  2  0  0  0  0
 14 54  1  0  0  0  0
 15 16  1  0  0  0  0
 15 55  1  0  0  0  0
 16 17  2  0  0  0  0
 16 56  1  0  0  0  0
 17 18  1  0  0  0  0
 17 24  1  0  0  0  0
 18 19  1  0  0  0  0
 18 23  2  0  0  0  0
 19 20  2  0  0  0  0
 19 57  1  0  0  0  0
 20 21  1  0  0  0  0
 20 58  1  0  0  0  0
 21 22  2  0  0  0  0
 21 59  1  0  0  0  0
 22 23  1  0  0  0  0
 22 60  1  0  0  0  0
 23 61  1  0  0  0  0
 24 62  1  0  0  0  0
 25 26  1  0  0  0  0
 25 44  2  0  0  0  0
 26 27  2  0  0  0  0
 26 63  1  0  0  0  0
 27 28  1  0  0  0  0
 27 64  1  0  0  0  0
 28 29  2  0  0  0  0
 29 30  1  0  0  0  0
 29 44  1  0  0  0  0
 30 31  1  0  0  0  0
 30 65  1  0  0  0  0
 31 32  1  0  0  0  0
 31 43  2  0  0  0  0
 32 33  2  0  0  0  0
 32 66  1  0  0  0  0
 33 34  1  0  0  0  0
 33 67  1  0  0  0  0
 34 35  1  0  0  0  0
 34 42  2  0  0  0  0
 35 36  1  0  0  0  0
 35 41  1  0  0  0  0
 36 37  1  0  0  0  0
 36 68  1  0  0  0  0
 36 69  1  0  0  0  0
 37 38  1  0  0  0  0
 37 70  1  0  0  0  0
 37 71  1  0  0  0  0
 38 39  1  0  0  0  0
 38 40  1  0  0  0  0
 39 72  1  0  0  0  0
 39 73  1  0  0  0  0
 39 74  1  0  0  0  0
 40 41  1  0  0  0  0
 40 75  1  0  0  0  0
 40 76  1  0  0  0  0
 41 77  1  0  0  0  0
 41 78  1  0  0  0  0
 42 43  1  0  0  0  0
 42 79  1  0  0  0  0
 43 80  1  0  0  0  0
M  END
$$$$
