CHEMBL3986984
 OpenBabel04072215373D

 69 73  0  0  0  0  0  0  0  0999 V2000
   -8.1909   16.3091    1.9805 C   0  0  0  0  0  0  0  0  0  0  0  0
   -7.8867   15.0520    1.2170 C   0  0  0  0  0  0  0  0  0  0  0  0
   -7.5018   15.1328   -0.1245 C   0  0  0  0  0  0  0  0  0  0  0  0
   -7.1852   13.9763   -0.8248 C   0  0  0  0  0  0  0  0  0  0  0  0
   -7.2669   12.7335   -0.2009 C   0  0  0  0  0  0  0  0  0  0  0  0
   -6.8164   11.6954   -0.9129 F   0  0  0  0  0  0  0  0  0  0  0  0
   -7.7096   12.6075    1.1212 C   0  0  0  0  0  0  0  0  0  0  0  0
   -7.9072   11.3711    1.8016 N   0  0  0  0  0  0  0  0  0  0  0  0
   -8.0150   10.1274    1.2033 C   0  0  0  0  0  0  0  0  0  0  0  0
   -7.9568    9.8950    0.0039 O   0  0  0  0  0  0  0  0  0  0  0  0
   -8.2918    9.1258    2.1291 N   0  0  0  0  0  0  0  0  0  0  0  0
   -8.4514    7.7889    1.6720 C   0  0  0  0  0  0  0  0  0  0  0  0
   -7.5097    7.1709    0.8432 C   0  0  0  0  0  0  0  0  0  0  0  0
   -7.7359    5.8719    0.3719 C   0  0  0  0  0  0  0  0  0  0  0  0
   -8.9089    5.1927    0.7129 C   0  0  0  0  0  0  0  0  0  0  0  0
   -9.0643    3.9320    0.1775 O   0  0  0  0  0  0  0  0  0  0  0  0
   -9.7190    2.9578    0.9057 C   0  0  0  0  0  0  0  0  0  0  0  0
   -9.6502    2.8635    2.2969 C   0  0  0  0  0  0  0  0  0  0  0  0
  -10.3534    1.8635    2.9387 C   0  0  0  0  0  0  0  0  0  0  0  0
  -11.0777    0.9119    2.3280 N   0  0  0  0  0  0  0  0  0  0  0  0
  -11.0905    0.9580    0.9692 C   0  0  0  0  0  0  0  0  0  0  0  0
  -11.7616    0.0183    0.1358 C   0  0  0  0  0  0  0  0  0  0  0  0
  -11.6261    0.2957   -1.2087 C   0  0  0  0  0  0  0  0  0  0  0  0
  -12.1965   -0.4629   -2.3169 C   0  0  0  0  0  0  0  0  0  0  0  0
  -12.8690   -1.4780   -2.1606 O   0  0  0  0  0  0  0  0  0  0  0  0
  -11.9345    0.0379   -3.5720 N   0  0  0  0  0  0  0  0  0  0  0  0
  -12.4260   -0.5668   -4.7926 C   0  0  0  0  0  0  0  0  0  0  0  0
  -11.9353    0.2216   -6.0010 C   0  0  0  0  0  0  0  0  0  0  0  0
  -12.3629   -0.4177   -7.3269 C   0  0  0  0  0  0  0  0  0  0  0  0
  -11.9676    0.3935   -8.4909 N   0  0  0  0  0  0  0  0  0  0  0  0
  -12.4661   -0.1878   -9.7488 C   0  0  0  0  0  0  0  0  0  0  0  0
  -11.3921   -1.1626  -10.1950 C   0  0  0  0  0  0  0  0  0  0  0  0
  -10.0992   -0.5259   -9.7237 C   0  0  0  0  0  0  0  0  0  0  0  0
  -10.5127    0.5060   -8.6822 C   0  0  0  0  0  0  0  0  0  0  0  0
  -10.6685    1.6978   -1.4504 S   0  0  0  0  0  0  0  0  0  0  0  0
  -10.4358    1.9470    0.2358 C   0  0  0  0  0  0  0  0  0  0  0  0
   -9.8710    5.8272    1.5021 C   0  0  0  0  0  0  0  0  0  0  0  0
   -9.6120    7.0958    2.0133 C   0  0  0  0  0  0  0  0  0  0  0  0
  -10.5296    7.6843    2.7965 F   0  0  0  0  0  0  0  0  0  0  0  0
   -7.9892   13.7873    1.8329 C   0  0  0  0  0  0  0  0  0  0  0  0
   -8.0432   17.1983    1.3565 H   0  0  0  0  0  0  0  0  0  0  0  0
   -7.5243   16.3984    2.8436 H   0  0  0  0  0  0  0  0  0  0  0  0
   -9.2314   16.3089    2.3180 H   0  0  0  0  0  0  0  0  0  0  0  0
   -7.4270   16.0931   -0.6291 H   0  0  0  0  0  0  0  0  0  0  0  0
   -6.8546   14.0226   -1.8580 H   0  0  0  0  0  0  0  0  0  0  0  0
   -8.1011   11.4172    2.7909 H   0  0  0  0  0  0  0  0  0  0  0  0
   -8.9613    9.4005    2.8368 H   0  0  0  0  0  0  0  0  0  0  0  0
   -6.6031    7.6955    0.5484 H   0  0  0  0  0  0  0  0  0  0  0  0
   -6.9994    5.4011   -0.2760 H   0  0  0  0  0  0  0  0  0  0  0  0
   -9.0711    3.5651    2.8873 H   0  0  0  0  0  0  0  0  0  0  0  0
  -10.3498    1.8042    4.0248 H   0  0  0  0  0  0  0  0  0  0  0  0
  -12.3248   -0.8270    0.5136 H   0  0  0  0  0  0  0  0  0  0  0  0
  -11.3836    0.8861   -3.6318 H   0  0  0  0  0  0  0  0  0  0  0  0
  -13.5203   -0.5890   -4.7467 H   0  0  0  0  0  0  0  0  0  0  0  0
  -12.0683   -1.6021   -4.8239 H   0  0  0  0  0  0  0  0  0  0  0  0
  -10.8439    0.2868   -5.9363 H   0  0  0  0  0  0  0  0  0  0  0  0
  -12.3130    1.2505   -5.9421 H   0  0  0  0  0  0  0  0  0  0  0  0
  -13.4589   -0.4893   -7.3167 H   0  0  0  0  0  0  0  0  0  0  0  0
  -11.9733   -1.4401   -7.3947 H   0  0  0  0  0  0  0  0  0  0  0  0
  -12.5670    0.6149  -10.4900 H   0  0  0  0  0  0  0  0  0  0  0  0
  -13.4484   -0.6635   -9.6565 H   0  0  0  0  0  0  0  0  0  0  0  0
  -11.3976   -1.3233  -11.2773 H   0  0  0  0  0  0  0  0  0  0  0  0
  -11.5266   -2.1360   -9.7090 H   0  0  0  0  0  0  0  0  0  0  0  0
   -9.5814   -0.0359  -10.5560 H   0  0  0  0  0  0  0  0  0  0  0  0
   -9.4251   -1.2796   -9.3034 H   0  0  0  0  0  0  0  0  0  0  0  0
  -10.2960    1.5110   -9.0647 H   0  0  0  0  0  0  0  0  0  0  0  0
   -9.9178    0.3972   -7.7721 H   0  0  0  0  0  0  0  0  0  0  0  0
  -10.8233    5.3597    1.7240 H   0  0  0  0  0  0  0  0  0  0  0  0
   -8.3124   13.7416    2.8714 H   0  0  0  0  0  0  0  0  0  0  0  0
  1  2  1  0  0  0  0
  1 41  1  0  0  0  0
  1 42  1  0  0  0  0
  1 43  1  0  0  0  0
  2  3  1  0  0  0  0
  2 40  2  0  0  0  0
  3  4  2  0  0  0  0
  3 44  1  0  0  0  0
  4  5  1  0  0  0  0
  4 45  1  0  0  0  0
  5  6  1  0  0  0  0
  5  7  2  0  0  0  0
  7  8  1  0  0  0  0
  7 40  1  0  0  0  0
  8  9  1  0  0  0  0
  8 46  1  0  0  0  0
  9 10  2  0  0  0  0
  9 11  1  0  0  0  0
 11 12  1  0  0  0  0
 11 47  1  0  0  0  0
 12 13  1  0  0  0  0
 12 38  2  0  0  0  0
 13 14  2  0  0  0  0
 13 48  1  0  0  0  0
 14 15  1  0  0  0  0
 14 49  1  0  0  0  0
 15 16  1  0  0  0  0
 15 37  2  0  0  0  0
 16 17  1  0  0  0  0
 17 18  1  0  0  0  0
 17 36  2  0  0  0  0
 18 19  2  0  0  0  0
 18 50  1  0  0  0  0
 19 20  1  0  0  0  0
 19 51  1  0  0  0  0
 20 21  2  0  0  0  0
 21 22  1  0  0  0  0
 21 36  1  0  0  0  0
 22 23  2  0  0  0  0
 22 52  1  0  0  0  0
 23 24  1  0  0  0  0
 23 35  1  0  0  0  0
 24 25  2  0  0  0  0
 24 26  1  0  0  0  0
 26 27  1  0  0  0  0
 26 53  1  0  0  0  0
 27 28  1  0  0  0  0
 27 54  1  0  0  0  0
 27 55  1  0  0  0  0
 28 29  1  0  0  0  0
 28 56  1  0  0  0  0
 28 57  1  0  0  0  0
 29 30  1  0  0  0  0
 29 58  1  0  0  0  0
 29 59  1  0  0  0  0
 30 31  1  0  0  0  0
 30 34  1  0  0  0  0
 31 32  1  0  0  0  0
 31 60  1  0  0  0  0
 31 61  1  0  0  0  0
 32 33  1  0  0  0  0
 32 62  1  0  0  0  0
 32 63  1  0  0  0  0
 33 34  1  0  0  0  0
 33 64  1  0  0  0  0
 33 65  1  0  0  0  0
 34 66  1  0  0  0  0
 34 67  1  0  0  0  0
 35 36  1  0  0  0  0
 37 38  1  0  0  0  0
 37 68  1  0  0  0  0
 38 39  1  0  0  0  0
 40 69  1  0  0  0  0
M  END
$$$$
