CHEMBL3690556
 OpenBabel04072215373D

 45 47  0  0  0  0  0  0  0  0999 V2000
    2.5656    0.4480    1.5033 O   0  0  0  0  0  0  0  0  0  0  0  0
    2.2728   -0.3109    0.5907 C   0  0  0  0  0  0  0  0  0  0  0  0
    0.9631   -0.4446    0.1733 N   0  0  0  0  0  0  0  0  0  0  0  0
   -0.0916    0.2462    0.9288 C   0  0  0  0  0  0  0  0  0  0  0  0
   -0.5483   -0.4469    2.2217 C   0  0  0  0  0  0  0  0  0  0  0  0
    0.0742   -1.6330    2.4129 F   0  0  0  0  0  0  0  0  0  0  0  0
   -0.3450    0.3176    3.3140 F   0  0  0  0  0  0  0  0  0  0  0  0
   -1.8779   -0.7122    2.1568 F   0  0  0  0  0  0  0  0  0  0  0  0
    3.1298   -1.0942   -0.1521 N   0  0  0  0  0  0  0  0  0  0  0  0
    4.5356   -1.1843   -0.0149 C   0  0  0  0  0  0  0  0  0  0  0  0
    5.2733   -0.4026    0.8711 C   0  0  0  0  0  0  0  0  0  0  0  0
    6.6559   -0.5551    0.9676 C   0  0  0  0  0  0  0  0  0  0  0  0
    7.3084   -1.5300    0.2149 C   0  0  0  0  0  0  0  0  0  0  0  0
    6.5935   -2.3567   -0.6614 C   0  0  0  0  0  0  0  0  0  0  0  0
    7.3051   -3.4317   -1.3728 C   0  0  0  0  0  0  0  0  0  0  0  0
    8.6183   -3.4665   -1.8260 C   0  0  0  0  0  0  0  0  0  0  0  0
    8.9426   -4.6649   -2.4014 N   0  0  0  0  0  0  0  0  0  0  0  0
    7.8547   -5.3952   -2.3053 C   0  0  0  0  0  0  0  0  0  0  0  0
    7.5992   -6.7305   -2.7378 C   0  0  0  0  0  0  0  0  0  0  0  0
    6.3847   -7.3070   -2.5605 C   0  0  0  0  0  0  0  0  0  0  0  0
    6.1837   -8.6749   -3.0332 C   0  0  0  0  0  0  0  0  0  0  0  0
    4.9971   -9.1647   -3.4308 C   0  0  0  0  0  0  0  0  0  0  0  0
    4.7714  -10.5556   -3.9179 C   0  0  0  0  0  0  0  0  0  0  0  0
    3.8062  -11.1649   -3.0761 O   0  0  0  0  0  0  0  0  0  0  0  0
    5.3601   -6.5611   -1.8169 C   0  0  0  0  0  0  0  0  0  0  0  0
    5.5996   -5.3132   -1.3889 C   0  0  0  0  0  0  0  0  0  0  0  0
    6.8273   -4.7092   -1.6576 N   0  0  0  0  0  0  0  0  0  0  0  0
    5.2117   -2.1266   -0.8102 C   0  0  0  0  0  0  0  0  0  0  0  0
    0.7084   -1.3188   -0.2621 H   0  0  0  0  0  0  0  0  0  0  0  0
   -0.9405    0.3453    0.2452 H   0  0  0  0  0  0  0  0  0  0  0  0
    0.2539    1.2586    1.1650 H   0  0  0  0  0  0  0  0  0  0  0  0
    2.7059   -1.6809   -0.8539 H   0  0  0  0  0  0  0  0  0  0  0  0
    4.8068    0.3479    1.5002 H   0  0  0  0  0  0  0  0  0  0  0  0
    7.2207    0.0773    1.6479 H   0  0  0  0  0  0  0  0  0  0  0  0
    8.3832   -1.6427    0.3389 H   0  0  0  0  0  0  0  0  0  0  0  0
    9.3546   -2.6760   -1.7595 H   0  0  0  0  0  0  0  0  0  0  0  0
    8.4142   -7.2459   -3.2357 H   0  0  0  0  0  0  0  0  0  0  0  0
    7.0659   -9.3131   -3.0668 H   0  0  0  0  0  0  0  0  0  0  0  0
    4.1128   -8.5321   -3.4358 H   0  0  0  0  0  0  0  0  0  0  0  0
    5.6812  -11.1631   -3.9109 H   0  0  0  0  0  0  0  0  0  0  0  0
    4.3751  -10.5354   -4.9373 H   0  0  0  0  0  0  0  0  0  0  0  0
    4.1872  -11.1873   -2.1816 H   0  0  0  0  0  0  0  0  0  0  0  0
    4.4127   -7.0435   -1.6001 H   0  0  0  0  0  0  0  0  0  0  0  0
    4.8677   -4.7639   -0.8174 H   0  0  0  0  0  0  0  0  0  0  0  0
    4.6524   -2.6964   -1.5413 H   0  0  0  0  0  0  0  0  0  0  0  0
  1  2  2  0  0  0  0
  2  3  1  0  0  0  0
  2  9  1  0  0  0  0
  3  4  1  0  0  0  0
  3 29  1  0  0  0  0
  4  5  1  0  0  0  0
  4 30  1  0  0  0  0
  4 31  1  0  0  0  0
  5  6  1  0  0  0  0
  5  7  1  0  0  0  0
  5  8  1  0  0  0  0
  9 10  1  0  0  0  0
  9 32  1  0  0  0  0
 10 11  1  0  0  0  0
 10 28  2  0  0  0  0
 11 12  2  0  0  0  0
 11 33  1  0  0  0  0
 12 13  1  0  0  0  0
 12 34  1  0  0  0  0
 13 14  2  0  0  0  0
 13 35  1  0  0  0  0
 14 15  1  0  0  0  0
 14 28  1  0  0  0  0
 15 16  2  0  0  0  0
 15 27  1  0  0  0  0
 16 17  1  0  0  0  0
 16 36  1  0  0  0  0
 17 18  2  0  0  0  0
 18 19  1  0  0  0  0
 18 27  1  0  0  0  0
 19 20  2  0  0  0  0
 19 37  1  0  0  0  0
 20 21  1  0  0  0  0
 20 25  1  0  0  0  0
 21 22  2  0  0  0  0
 21 38  1  0  0  0  0
 22 23  1  0  0  0  0
 22 39  1  0  0  0  0
 23 24  1  0  0  0  0
 23 40  1  0  0  0  0
 23 41  1  0  0  0  0
 24 42  1  0  0  0  0
 25 26  2  0  0  0  0
 25 43  1  0  0  0  0
 26 27  1  0  0  0  0
 26 44  1  0  0  0  0
 28 45  1  0  0  0  0
M  END
$$$$
