CHEMBL593987
 OpenBabel04072215383D

 71 76  0  0  0  0  0  0  0  0999 V2000
    2.5900    1.2455    0.0464 C   0  0  0  0  0  0  0  0  0  0  0  0
    2.4107   -0.1541   -0.1203 O   0  0  0  0  0  0  0  0  0  0  0  0
    3.1354   -1.0343    0.6282 C   0  0  0  0  0  0  0  0  0  0  0  0
    4.3005   -0.6552    1.2873 C   0  0  0  0  0  0  0  0  0  0  0  0
    5.0145   -1.5575    2.1018 C   0  0  0  0  0  0  0  0  0  0  0  0
    6.1442   -1.1949    2.8524 C   0  0  0  0  0  0  0  0  0  0  0  0
    6.4983    0.1749    2.9114 N   0  0  0  0  0  0  0  0  0  0  0  0
    7.7768    0.7459    2.9934 C   0  0  0  0  0  0  0  0  0  0  0  0
    7.9082    2.1296    3.1743 C   0  0  0  0  0  0  0  0  0  0  0  0
    9.1578    2.7519    3.0626 C   0  0  0  0  0  0  0  0  0  0  0  0
   10.3048    2.0073    2.7454 C   0  0  0  0  0  0  0  0  0  0  0  0
   11.5897    2.6881    2.5750 C   0  0  0  0  0  0  0  0  0  0  0  0
   11.9457    3.7642    3.2461 N   0  0  0  0  0  0  0  0  0  0  0  0
   13.2362    4.1291    2.9056 C   0  0  0  0  0  0  0  0  0  0  0  0
   13.9713    5.1833    3.4803 C   0  0  0  0  0  0  0  0  0  0  0  0
   15.2843    5.4204    3.0635 C   0  0  0  0  0  0  0  0  0  0  0  0
   15.8656    4.6308    2.0750 C   0  0  0  0  0  0  0  0  0  0  0  0
   15.1495    3.5919    1.4744 C   0  0  0  0  0  0  0  0  0  0  0  0
   13.8364    3.3574    1.9109 C   0  0  0  0  0  0  0  0  0  0  0  0
   12.7210    2.1659    1.3856 S   0  0  0  0  0  0  0  0  0  0  0  0
   10.1675    0.6281    2.6116 C   0  0  0  0  0  0  0  0  0  0  0  0
   11.2274   -0.1588    2.3703 F   0  0  0  0  0  0  0  0  0  0  0  0
    8.9270    0.0080    2.7138 C   0  0  0  0  0  0  0  0  0  0  0  0
    6.8648   -2.0974    3.5255 N   0  0  0  0  0  0  0  0  0  0  0  0
    6.4423   -3.3632    3.4745 C   0  0  0  0  0  0  0  0  0  0  0  0
    5.3449   -3.8051    2.8464 N   0  0  0  0  0  0  0  0  0  0  0  0
    4.6354   -2.8994    2.1626 C   0  0  0  0  0  0  0  0  0  0  0  0
    3.4883   -3.2813    1.4794 C   0  0  0  0  0  0  0  0  0  0  0  0
    2.7200   -2.3759    0.7201 C   0  0  0  0  0  0  0  0  0  0  0  0
    1.6178   -2.9654    0.1471 O   0  0  0  0  0  0  0  0  0  0  0  0
    0.8203   -2.1271   -0.6771 C   0  0  0  0  0  0  0  0  0  0  0  0
   -0.3296   -2.8910   -1.3139 C   0  0  0  0  0  0  0  0  0  0  0  0
   -1.0891   -1.9147   -2.2215 C   0  0  0  0  0  0  0  0  0  0  0  0
   -2.2786   -2.4832   -2.8551 N   0  0  0  0  0  0  0  0  0  0  0  0
   -2.9915   -1.4422   -3.6247 C   0  0  0  0  0  0  0  0  0  0  0  0
   -4.2599   -2.0059   -4.3023 C   0  0  0  0  0  0  0  0  0  0  0  0
   -4.0224   -3.1659   -5.1848 N   0  0  0  0  0  0  0  0  0  0  0  0
   -3.3719   -2.7706   -6.4314 C   0  0  0  0  0  0  0  0  0  0  0  0
   -3.2229   -4.1692   -4.4531 C   0  0  0  0  0  0  0  0  0  0  0  0
   -1.9640   -3.6184   -3.7421 C   0  0  0  0  0  0  0  0  0  0  0  0
    3.1984    1.6295   -0.7774 H   0  0  0  0  0  0  0  0  0  0  0  0
    3.0185    1.5363    1.0091 H   0  0  0  0  0  0  0  0  0  0  0  0
    1.6023    1.7125   -0.0095 H   0  0  0  0  0  0  0  0  0  0  0  0
    4.7042    0.3429    1.1515 H   0  0  0  0  0  0  0  0  0  0  0  0
    5.7579    0.7288    3.3266 H   0  0  0  0  0  0  0  0  0  0  0  0
    7.0360    2.7466    3.3817 H   0  0  0  0  0  0  0  0  0  0  0  0
    9.2309    3.8313    3.1985 H   0  0  0  0  0  0  0  0  0  0  0  0
   13.5143    5.7916    4.2538 H   0  0  0  0  0  0  0  0  0  0  0  0
   15.8559    6.2234    3.5214 H   0  0  0  0  0  0  0  0  0  0  0  0
   16.8910    4.8210    1.7656 H   0  0  0  0  0  0  0  0  0  0  0  0
   15.6007    2.9753    0.7028 H   0  0  0  0  0  0  0  0  0  0  0  0
    8.8861   -1.0646    2.5554 H   0  0  0  0  0  0  0  0  0  0  0  0
    7.0488   -4.1015    3.9870 H   0  0  0  0  0  0  0  0  0  0  0  0
    3.1753   -4.3229    1.5287 H   0  0  0  0  0  0  0  0  0  0  0  0
    1.4361   -1.7351   -1.4948 H   0  0  0  0  0  0  0  0  0  0  0  0
    0.3899   -1.3222   -0.0701 H   0  0  0  0  0  0  0  0  0  0  0  0
   -0.9857   -3.3073   -0.5401 H   0  0  0  0  0  0  0  0  0  0  0  0
    0.0764   -3.7396   -1.8749 H   0  0  0  0  0  0  0  0  0  0  0  0
   -0.4048   -1.5111   -2.9800 H   0  0  0  0  0  0  0  0  0  0  0  0
   -1.4046   -1.0638   -1.6011 H   0  0  0  0  0  0  0  0  0  0  0  0
   -2.3307   -1.0010   -4.3844 H   0  0  0  0  0  0  0  0  0  0  0  0
   -3.2933   -0.6264   -2.9563 H   0  0  0  0  0  0  0  0  0  0  0  0
   -4.7699   -1.2067   -4.8544 H   0  0  0  0  0  0  0  0  0  0  0  0
   -4.9619   -2.3136   -3.5155 H   0  0  0  0  0  0  0  0  0  0  0  0
   -3.9796   -2.0280   -6.9603 H   0  0  0  0  0  0  0  0  0  0  0  0
   -3.2839   -3.6341   -7.0998 H   0  0  0  0  0  0  0  0  0  0  0  0
   -2.3715   -2.3502   -6.2884 H   0  0  0  0  0  0  0  0  0  0  0  0
   -2.9336   -4.9861   -5.1246 H   0  0  0  0  0  0  0  0  0  0  0  0
   -3.8719   -4.6264   -3.6944 H   0  0  0  0  0  0  0  0  0  0  0  0
   -1.2118   -3.3276   -4.4874 H   0  0  0  0  0  0  0  0  0  0  0  0
   -1.5423   -4.4433   -3.1593 H   0  0  0  0  0  0  0  0  0  0  0  0
  1  2  1  0  0  0  0
  1 41  1  0  0  0  0
  1 42  1  0  0  0  0
  1 43  1  0  0  0  0
  2  3  1  0  0  0  0
  3  4  1  0  0  0  0
  3 29  2  0  0  0  0
  4  5  2  0  0  0  0
  4 44  1  0  0  0  0
  5  6  1  0  0  0  0
  5 27  1  0  0  0  0
  6  7  1  0  0  0  0
  6 24  2  0  0  0  0
  7  8  1  0  0  0  0
  7 45  1  0  0  0  0
  8  9  1  0  0  0  0
  8 23  2  0  0  0  0
  9 10  2  0  0  0  0
  9 46  1  0  0  0  0
 10 11  1  0  0  0  0
 10 47  1  0  0  0  0
 11 12  1  0  0  0  0
 11 21  2  0  0  0  0
 12 13  2  0  0  0  0
 12 20  1  0  0  0  0
 13 14  1  0  0  0  0
 14 15  1  0  0  0  0
 14 19  2  0  0  0  0
 15 16  2  0  0  0  0
 15 48  1  0  0  0  0
 16 17  1  0  0  0  0
 16 49  1  0  0  0  0
 17 18  2  0  0  0  0
 17 50  1  0  0  0  0
 18 19  1  0  0  0  0
 18 51  1  0  0  0  0
 19 20  1  0  0  0  0
 21 22  1  0  0  0  0
 21 23  1  0  0  0  0
 23 52  1  0  0  0  0
 24 25  1  0  0  0  0
 25 26  2  0  0  0  0
 25 53  1  0  0  0  0
 26 27  1  0  0  0  0
 27 28  2  0  0  0  0
 28 29  1  0  0  0  0
 28 54  1  0  0  0  0
 29 30  1  0  0  0  0
 30 31  1  0  0  0  0
 31 32  1  0  0  0  0
 31 55  1  0  0  0  0
 31 56  1  0  0  0  0
 32 33  1  0  0  0  0
 32 57  1  0  0  0  0
 32 58  1  0  0  0  0
 33 34  1  0  0  0  0
 33 59  1  0  0  0  0
 33 60  1  0  0  0  0
 34 35  1  0  0  0  0
 34 40  1  0  0  0  0
 35 36  1  0  0  0  0
 35 61  1  0  0  0  0
 35 62  1  0  0  0  0
 36 37  1  0  0  0  0
 36 63  1  0  0  0  0
 36 64  1  0  0  0  0
 37 38  1  0  0  0  0
 37 39  1  0  0  0  0
 38 65  1  0  0  0  0
 38 66  1  0  0  0  0
 38 67  1  0  0  0  0
 39 40  1  0  0  0  0
 39 68  1  0  0  0  0
 39 69  1  0  0  0  0
 40 70  1  0  0  0  0
 40 71  1  0  0  0  0
M  END
$$$$
