CHEMBL3297897
 OpenBabel04072215363D

 35 37  0  0  0  0  0  0  0  0999 V2000
    2.9635   -2.7091    1.0669 C   0  0  0  0  0  0  0  0  0  0  0  0
    4.1845   -2.0104    0.8518 O   0  0  0  0  0  0  0  0  0  0  0  0
    4.3717   -0.8697    1.5825 C   0  0  0  0  0  0  0  0  0  0  0  0
    3.4597   -0.3209    2.4802 C   0  0  0  0  0  0  0  0  0  0  0  0
    3.7921    0.8303    3.1978 C   0  0  0  0  0  0  0  0  0  0  0  0
    5.0333    1.4556    3.0316 C   0  0  0  0  0  0  0  0  0  0  0  0
    5.3828    2.6175    3.7510 N   0  0  0  0  0  0  0  0  0  0  0  0
    4.9387    2.9257    5.0469 C   0  0  0  0  0  0  0  0  0  0  0  0
    4.6829    1.9214    5.9246 N   0  0  0  0  0  0  0  0  0  0  0  0
    4.2353    2.1924    7.1651 C   0  0  0  0  0  0  0  0  0  0  0  0
    3.9500    1.0114    8.0427 C   0  0  0  0  0  0  0  0  0  0  0  0
    3.9944    3.4098    7.6696 N   0  0  0  0  0  0  0  0  0  0  0  0
    4.2631    4.3794    6.7894 C   0  0  0  0  0  0  0  0  0  0  0  0
    4.0790    5.7026    7.0656 O   0  0  0  0  0  0  0  0  0  0  0  0
    4.4269    6.4050    5.9520 C   0  0  0  0  0  0  0  0  0  0  0  0
    4.2723    7.8718    6.0214 C   0  0  0  0  0  0  0  0  0  0  0  0
    4.8514    5.5470    4.9602 C   0  0  0  0  0  0  0  0  0  0  0  0
    4.7360    4.2360    5.4923 C   0  0  0  0  0  0  0  0  0  0  0  0
    5.9229    0.9301    2.0923 C   0  0  0  0  0  0  0  0  0  0  0  0
    5.5990   -0.2327    1.3843 C   0  0  0  0  0  0  0  0  0  0  0  0
    3.0075   -3.6441    0.5011 H   0  0  0  0  0  0  0  0  0  0  0  0
    2.1151   -2.1272    0.6920 H   0  0  0  0  0  0  0  0  0  0  0  0
    2.8275   -2.9701    2.1221 H   0  0  0  0  0  0  0  0  0  0  0  0
    2.4861   -0.7633    2.6591 H   0  0  0  0  0  0  0  0  0  0  0  0
    3.0649    1.2323    3.8991 H   0  0  0  0  0  0  0  0  0  0  0  0
    5.4684    3.4254    3.1483 H   0  0  0  0  0  0  0  0  0  0  0  0
    4.1871    0.0747    7.5273 H   0  0  0  0  0  0  0  0  0  0  0  0
    2.8899    0.9955    8.3114 H   0  0  0  0  0  0  0  0  0  0  0  0
    4.5517    1.0656    8.9541 H   0  0  0  0  0  0  0  0  0  0  0  0
    3.8923    8.1893    6.9974 H   0  0  0  0  0  0  0  0  0  0  0  0
    3.5689    8.2143    5.2557 H   0  0  0  0  0  0  0  0  0  0  0  0
    5.2338    8.3654    5.8515 H   0  0  0  0  0  0  0  0  0  0  0  0
    5.1822    5.8347    3.9725 H   0  0  0  0  0  0  0  0  0  0  0  0
    6.8944    1.3935    1.9387 H   0  0  0  0  0  0  0  0  0  0  0  0
    6.3176   -0.6548    0.6873 H   0  0  0  0  0  0  0  0  0  0  0  0
  1  2  1  0  0  0  0
  1 21  1  0  0  0  0
  1 22  1  0  0  0  0
  1 23  1  0  0  0  0
  2  3  1  0  0  0  0
  3  4  1  0  0  0  0
  3 20  2  0  0  0  0
  4  5  2  0  0  0  0
  4 24  1  0  0  0  0
  5  6  1  0  0  0  0
  5 25  1  0  0  0  0
  6  7  1  0  0  0  0
  6 19  2  0  0  0  0
  7  8  1  0  0  0  0
  7 26  1  0  0  0  0
  8  9  1  0  0  0  0
  8 18  2  0  0  0  0
  9 10  2  0  0  0  0
 10 11  1  0  0  0  0
 10 12  1  0  0  0  0
 11 27  1  0  0  0  0
 11 28  1  0  0  0  0
 11 29  1  0  0  0  0
 12 13  2  0  0  0  0
 13 14  1  0  0  0  0
 13 18  1  0  0  0  0
 14 15  1  0  0  0  0
 15 16  1  0  0  0  0
 15 17  2  0  0  0  0
 16 30  1  0  0  0  0
 16 31  1  0  0  0  0
 16 32  1  0  0  0  0
 17 18  1  0  0  0  0
 17 33  1  0  0  0  0
 19 20  1  0  0  0  0
 19 34  1  0  0  0  0
 20 35  1  0  0  0  0
M  END
$$$$
