CHEMBL3671535
 OpenBabel04072215373D

 51 53  0  0  0  0  0  0  0  0999 V2000
    3.4583   -3.4354   -2.0076 C   0  0  0  0  0  0  0  0  0  0  0  0
    3.4959   -2.1274   -2.2870 C   0  0  0  0  0  0  0  0  0  0  0  0
    3.6668   -1.1498   -1.1786 C   0  0  0  0  0  0  0  0  0  0  0  0
    3.2310   -1.3579   -0.0506 O   0  0  0  0  0  0  0  0  0  0  0  0
    4.3864   -0.0085   -1.4497 N   0  0  0  0  0  0  0  0  0  0  0  0
    5.2239    0.1163   -2.5728 C   0  0  0  0  0  0  0  0  0  0  0  0
    6.3507   -0.7048   -2.6427 C   0  0  0  0  0  0  0  0  0  0  0  0
    7.0532   -0.8485   -3.8581 C   0  0  0  0  0  0  0  0  0  0  0  0
    8.0897   -1.7680   -4.0762 C   0  0  0  0  0  0  0  0  0  0  0  0
    8.4501   -2.6916   -3.0546 N   0  0  0  0  0  0  0  0  0  0  0  0
    9.1867   -3.8755   -3.2960 C   0  0  0  0  0  0  0  0  0  0  0  0
    8.8758   -4.7047   -4.3835 C   0  0  0  0  0  0  0  0  0  0  0  0
    9.6748   -5.8071   -4.6956 C   0  0  0  0  0  0  0  0  0  0  0  0
   10.7830   -6.1000   -3.9047 C   0  0  0  0  0  0  0  0  0  0  0  0
   11.9216   -7.5274   -4.3869 Br  0  0  0  0  0  0  0  0  0  0  0  0
   11.0650   -5.3314   -2.7811 C   0  0  0  0  0  0  0  0  0  0  0  0
   10.2627   -4.2334   -2.4776 C   0  0  0  0  0  0  0  0  0  0  0  0
   10.5544   -3.4841   -1.4038 F   0  0  0  0  0  0  0  0  0  0  0  0
    8.7122   -1.8672   -5.2644 N   0  0  0  0  0  0  0  0  0  0  0  0
    8.2815   -1.0711   -6.2441 C   0  0  0  0  0  0  0  0  0  0  0  0
    7.2729   -0.1988   -6.1608 N   0  0  0  0  0  0  0  0  0  0  0  0
    6.6602   -0.1008   -4.9779 C   0  0  0  0  0  0  0  0  0  0  0  0
    5.5689    0.7543   -4.8656 C   0  0  0  0  0  0  0  0  0  0  0  0
    4.8516    0.8948   -3.6741 C   0  0  0  0  0  0  0  0  0  0  0  0
    3.7920    1.7648   -3.7381 O   0  0  0  0  0  0  0  0  0  0  0  0
    3.4939    2.4605   -2.5215 C   0  0  0  0  0  0  0  0  0  0  0  0
    2.9589    3.8602   -2.8212 C   0  0  0  0  0  0  0  0  0  0  0  0
    2.7596    4.6340   -1.6100 N   0  0  0  0  0  0  0  0  0  0  0  0
    3.7955    5.2429   -0.9645 C   0  0  0  0  0  0  0  0  0  0  0  0
    4.9509    5.2663   -1.3630 O   0  0  0  0  0  0  0  0  0  0  0  0
    3.3517    5.7944    0.1908 O   0  0  0  0  0  0  0  0  0  0  0  0
    4.3648    6.4876    0.9221 C   0  0  0  0  0  0  0  0  0  0  0  0
    3.4024   -4.1721   -2.8012 H   0  0  0  0  0  0  0  0  0  0  0  0
    3.5041   -3.7959   -0.9836 H   0  0  0  0  0  0  0  0  0  0  0  0
    3.4716   -1.7696   -3.3091 H   0  0  0  0  0  0  0  0  0  0  0  0
    4.7405    0.3724   -0.5778 H   0  0  0  0  0  0  0  0  0  0  0  0
    6.6286   -1.3016   -1.7770 H   0  0  0  0  0  0  0  0  0  0  0  0
    8.7756   -2.2026   -2.2228 H   0  0  0  0  0  0  0  0  0  0  0  0
    8.0222   -4.4738   -5.0164 H   0  0  0  0  0  0  0  0  0  0  0  0
    9.4383   -6.4012   -5.5726 H   0  0  0  0  0  0  0  0  0  0  0  0
   11.9202   -5.5539   -2.1415 H   0  0  0  0  0  0  0  0  0  0  0  0
    8.7916   -1.1482   -7.1984 H   0  0  0  0  0  0  0  0  0  0  0  0
    5.2501    1.3087   -5.7460 H   0  0  0  0  0  0  0  0  0  0  0  0
    4.3856    2.5703   -1.8896 H   0  0  0  0  0  0  0  0  0  0  0  0
    2.7272    1.9008   -1.9735 H   0  0  0  0  0  0  0  0  0  0  0  0
    2.0004    3.8040   -3.3486 H   0  0  0  0  0  0  0  0  0  0  0  0
    3.6581    4.3952   -3.4746 H   0  0  0  0  0  0  0  0  0  0  0  0
    1.8754    4.6147   -1.1197 H   0  0  0  0  0  0  0  0  0  0  0  0
    3.9461    6.7873    1.8871 H   0  0  0  0  0  0  0  0  0  0  0  0
    4.6662    7.3893    0.3795 H   0  0  0  0  0  0  0  0  0  0  0  0
    5.2301    5.8433    1.1102 H   0  0  0  0  0  0  0  0  0  0  0  0
  1  2  2  0  0  0  0
  1 33  1  0  0  0  0
  1 34  1  0  0  0  0
  2  3  1  0  0  0  0
  2 35  1  0  0  0  0
  3  4  2  0  0  0  0
  3  5  1  0  0  0  0
  5  6  1  0  0  0  0
  5 36  1  0  0  0  0
  6  7  1  0  0  0  0
  6 24  2  0  0  0  0
  7  8  2  0  0  0  0
  7 37  1  0  0  0  0
  8  9  1  0  0  0  0
  8 22  1  0  0  0  0
  9 10  1  0  0  0  0
  9 19  2  0  0  0  0
 10 11  1  0  0  0  0
 10 38  1  0  0  0  0
 11 12  1  0  0  0  0
 11 17  2  0  0  0  0
 12 13  2  0  0  0  0
 12 39  1  0  0  0  0
 13 14  1  0  0  0  0
 13 40  1  0  0  0  0
 14 15  1  0  0  0  0
 14 16  2  0  0  0  0
 16 17  1  0  0  0  0
 16 41  1  0  0  0  0
 17 18  1  0  0  0  0
 19 20  1  0  0  0  0
 20 21  2  0  0  0  0
 20 42  1  0  0  0  0
 21 22  1  0  0  0  0
 22 23  2  0  0  0  0
 23 24  1  0  0  0  0
 23 43  1  0  0  0  0
 24 25  1  0  0  0  0
 25 26  1  0  0  0  0
 26 27  1  0  0  0  0
 26 44  1  0  0  0  0
 26 45  1  0  0  0  0
 27 28  1  0  0  0  0
 27 46  1  0  0  0  0
 27 47  1  0  0  0  0
 28 29  1  0  0  0  0
 28 48  1  0  0  0  0
 29 30  2  0  0  0  0
 29 31  1  0  0  0  0
 31 32  1  0  0  0  0
 32 49  1  0  0  0  0
 32 50  1  0  0  0  0
 32 51  1  0  0  0  0
M  END
$$$$
