CHEMBL74143
 OpenBabel04072215383D

 42 45  0  0  0  0  0  0  0  0999 V2000
    0.9918   -0.0383   -0.2064 N   0  0  0  0  0  0  0  0  0  0  0  0
    2.3676   -0.0161    0.0394 C   0  0  0  0  0  0  0  0  0  0  0  0
    3.0613    1.1855   -0.0137 C   0  0  0  0  0  0  0  0  0  0  0  0
    4.4510    1.2107    0.1075 C   0  0  0  0  0  0  0  0  0  0  0  0
    5.2042    0.0232    0.2192 C   0  0  0  0  0  0  0  0  0  0  0  0
    6.6073    0.0044    0.3180 C   0  0  0  0  0  0  0  0  0  0  0  0
    7.4711    1.2442    0.3358 C   0  0  0  0  0  0  0  0  0  0  0  0
    7.6742    1.8346    1.7123 C   0  0  0  0  0  0  0  0  0  0  0  0
    8.3320    1.1080    2.7115 C   0  0  0  0  0  0  0  0  0  0  0  0
    8.4715    1.6748    3.9687 C   0  0  0  0  0  0  0  0  0  0  0  0
    8.0231    2.9064    4.2904 N   0  0  0  0  0  0  0  0  0  0  0  0
    7.4121    3.6018    3.3090 C   0  0  0  0  0  0  0  0  0  0  0  0
    7.2190    3.1191    2.0227 C   0  0  0  0  0  0  0  0  0  0  0  0
    7.2932   -1.1538    0.4167 N   0  0  0  0  0  0  0  0  0  0  0  0
    6.6301   -2.3394    0.4180 N   0  0  0  0  0  0  0  0  0  0  0  0
    5.2814   -2.3942    0.3232 C   0  0  0  0  0  0  0  0  0  0  0  0
    4.6556   -3.6759    0.3202 N   0  0  0  0  0  0  0  0  0  0  0  0
    5.2609   -4.8223    0.8929 C   0  0  0  0  0  0  0  0  0  0  0  0
    5.9881   -4.7204    2.0917 C   0  0  0  0  0  0  0  0  0  0  0  0
    6.6294   -5.8258    2.6463 C   0  0  0  0  0  0  0  0  0  0  0  0
    6.5107   -7.0655    2.0298 C   0  0  0  0  0  0  0  0  0  0  0  0
    7.3398   -8.4223    2.6845 Cl  0  0  0  0  0  0  0  0  0  0  0  0
    5.7281   -7.2069    0.8853 C   0  0  0  0  0  0  0  0  0  0  0  0
    5.0898   -6.0912    0.3264 C   0  0  0  0  0  0  0  0  0  0  0  0
    4.5179   -1.2154    0.2107 C   0  0  0  0  0  0  0  0  0  0  0  0
    3.1007   -1.2059    0.1160 C   0  0  0  0  0  0  0  0  0  0  0  0
    0.5154    0.8251    0.0241 H   0  0  0  0  0  0  0  0  0  0  0  0
    0.5163   -0.8531    0.1575 H   0  0  0  0  0  0  0  0  0  0  0  0
    2.5275    2.1228   -0.1442 H   0  0  0  0  0  0  0  0  0  0  0  0
    4.9319    2.1841    0.1015 H   0  0  0  0  0  0  0  0  0  0  0  0
    7.0666    1.9927   -0.3550 H   0  0  0  0  0  0  0  0  0  0  0  0
    8.4578    0.9977   -0.0795 H   0  0  0  0  0  0  0  0  0  0  0  0
    8.7231    0.1122    2.5227 H   0  0  0  0  0  0  0  0  0  0  0  0
    8.9592    1.1329    4.7740 H   0  0  0  0  0  0  0  0  0  0  0  0
    7.0666    4.5919    3.5928 H   0  0  0  0  0  0  0  0  0  0  0  0
    6.7215    3.7413    1.2869 H   0  0  0  0  0  0  0  0  0  0  0  0
    4.3074   -3.8504   -0.6200 H   0  0  0  0  0  0  0  0  0  0  0  0
    6.0871   -3.7585    2.5903 H   0  0  0  0  0  0  0  0  0  0  0  0
    7.2255   -5.7023    3.5466 H   0  0  0  0  0  0  0  0  0  0  0  0
    5.6197   -8.1826    0.4183 H   0  0  0  0  0  0  0  0  0  0  0  0
    4.4902   -6.2258   -0.5684 H   0  0  0  0  0  0  0  0  0  0  0  0
    2.5569   -2.1479    0.1142 H   0  0  0  0  0  0  0  0  0  0  0  0
  1  2  1  0  0  0  0
  1 27  1  0  0  0  0
  1 28  1  0  0  0  0
  2  3  1  0  0  0  0
  2 26  2  0  0  0  0
  3  4  2  0  0  0  0
  3 29  1  0  0  0  0
  4  5  1  0  0  0  0
  4 30  1  0  0  0  0
  5  6  1  0  0  0  0
  5 25  2  0  0  0  0
  6  7  1  0  0  0  0
  6 14  2  0  0  0  0
  7  8  1  0  0  0  0
  7 31  1  0  0  0  0
  7 32  1  0  0  0  0
  8  9  1  0  0  0  0
  8 13  2  0  0  0  0
  9 10  2  0  0  0  0
  9 33  1  0  0  0  0
 10 11  1  0  0  0  0
 10 34  1  0  0  0  0
 11 12  2  0  0  0  0
 12 13  1  0  0  0  0
 12 35  1  0  0  0  0
 13 36  1  0  0  0  0
 14 15  1  0  0  0  0
 15 16  2  0  0  0  0
 16 17  1  0  0  0  0
 16 25  1  0  0  0  0
 17 18  1  0  0  0  0
 17 37  1  0  0  0  0
 18 19  1  0  0  0  0
 18 24  2  0  0  0  0
 19 20  2  0  0  0  0
 19 38  1  0  0  0  0
 20 21  1  0  0  0  0
 20 39  1  0  0  0  0
 21 22  1  0  0  0  0
 21 23  2  0  0  0  0
 23 24  1  0  0  0  0
 23 40  1  0  0  0  0
 24 41  1  0  0  0  0
 25 26  1  0  0  0  0
 26 42  1  0  0  0  0
M  END
$$$$
