CHEMBL218816
 OpenBabel04072215363D

 73 79  0  0  0  0  0  0  0  0999 V2000
    0.4467   -1.0176    1.1750 C   0  0  0  0  0  0  0  0  0  0  0  0
    1.8244   -1.1401    1.5249 O   0  0  0  0  0  0  0  0  0  0  0  0
    2.5537   -2.0230    0.7763 C   0  0  0  0  0  0  0  0  0  0  0  0
    2.0491   -2.7885   -0.2664 C   0  0  0  0  0  0  0  0  0  0  0  0
    2.8779   -3.6705   -0.9623 C   0  0  0  0  0  0  0  0  0  0  0  0
    4.2299   -3.8134   -0.6383 C   0  0  0  0  0  0  0  0  0  0  0  0
    5.0911   -4.7210   -1.3047 N   0  0  0  0  0  0  0  0  0  0  0  0
    4.7356   -5.5417   -2.3625 C   0  0  0  0  0  0  0  0  0  0  0  0
    3.6324   -5.5591   -2.9026 O   0  0  0  0  0  0  0  0  0  0  0  0
    5.7707   -6.3981   -2.7416 N   0  0  0  0  0  0  0  0  0  0  0  0
    5.5184   -7.3211   -3.7918 C   0  0  0  0  0  0  0  0  0  0  0  0
    4.9830   -6.8922   -5.0063 C   0  0  0  0  0  0  0  0  0  0  0  0
    4.4526   -7.8040   -5.9313 C   0  0  0  0  0  0  0  0  0  0  0  0
    4.4659   -9.1714   -5.5950 C   0  0  0  0  0  0  0  0  0  0  0  0
    5.1496   -9.5901   -4.4826 C   0  0  0  0  0  0  0  0  0  0  0  0
    5.7017   -8.6841   -3.5598 C   0  0  0  0  0  0  0  0  0  0  0  0
    5.0157  -10.9534   -4.5867 C   0  0  0  0  0  0  0  0  0  0  0  0
    6.2746  -11.5844   -4.8827 C   0  0  0  0  0  0  0  0  0  0  0  0
    6.3028  -12.9122   -4.4060 C   0  0  0  0  0  0  0  0  0  0  0  0
    5.1974  -13.3859   -3.6735 C   0  0  0  0  0  0  0  0  0  0  0  0
    3.9879  -12.7948   -4.5046 C   0  0  0  0  0  0  0  0  0  0  0  0
    3.9233  -11.5405   -5.3868 C   0  0  0  0  0  0  0  0  0  0  0  0
    3.9127  -10.3300   -6.1911 N   0  0  0  0  0  0  0  0  0  0  0  0
    3.1272  -10.0832   -7.4554 C   0  0  0  0  0  0  0  0  0  0  0  0
    3.7906   -9.4616   -8.7912 C   0  0  0  0  0  0  0  0  0  0  0  0
    4.7603  -10.3841   -9.5264 C   0  0  0  0  0  0  0  0  0  0  0  0
    2.7250   -9.0440   -9.8477 C   0  0  0  0  0  0  0  0  0  0  0  0
    2.8809  -13.8996   -4.5085 C   0  0  0  0  0  0  0  0  0  0  0  0
    3.4992  -15.2750   -4.9409 C   0  0  0  0  0  0  0  0  0  0  0  0
    4.3334  -15.7329   -3.8038 C   0  0  0  0  0  0  0  0  0  0  0  0
    4.1586  -16.8940   -3.1750 N   0  0  0  0  0  0  0  0  0  0  0  0
    4.6815  -16.6631   -1.9551 N   0  0  0  0  0  0  0  0  0  0  0  0
    4.4996  -17.7191   -0.9706 C   0  0  0  0  0  0  0  0  0  0  0  0
    5.1161  -15.3386   -1.8283 C   0  0  0  0  0  0  0  0  0  0  0  0
    5.1066  -14.7794   -3.1143 C   0  0  0  0  0  0  0  0  0  0  0  0
    7.1647  -13.6674   -5.2999 C   0  0  0  0  0  0  0  0  0  0  0  0
    7.4292  -14.8575   -5.4090 O   0  0  0  0  0  0  0  0  0  0  0  0
    7.5828  -12.7430   -6.2668 N   0  0  0  0  0  0  0  0  0  0  0  0
    7.0139  -11.4229   -6.1563 C   0  0  0  0  0  0  0  0  0  0  0  0
    4.7407   -3.0318    0.4027 C   0  0  0  0  0  0  0  0  0  0  0  0
    3.9058   -2.1460    1.1056 C   0  0  0  0  0  0  0  0  0  0  0  0
   -0.0090   -0.2685    1.8285 H   0  0  0  0  0  0  0  0  0  0  0  0
   -0.0851   -1.9634    1.3310 H   0  0  0  0  0  0  0  0  0  0  0  0
    0.3307   -0.6691    0.1423 H   0  0  0  0  0  0  0  0  0  0  0  0
    1.0114   -2.7380   -0.5777 H   0  0  0  0  0  0  0  0  0  0  0  0
    2.4089   -4.2319   -1.7615 H   0  0  0  0  0  0  0  0  0  0  0  0
    6.0632   -4.7203   -1.0310 H   0  0  0  0  0  0  0  0  0  0  0  0
    6.2954   -6.7587   -1.9587 H   0  0  0  0  0  0  0  0  0  0  0  0
    4.9089   -5.8262   -5.2177 H   0  0  0  0  0  0  0  0  0  0  0  0
    3.9886   -7.4151   -6.8298 H   0  0  0  0  0  0  0  0  0  0  0  0
    6.0838   -9.0585   -2.6167 H   0  0  0  0  0  0  0  0  0  0  0  0
    2.3922   -9.3277   -7.1383 H   0  0  0  0  0  0  0  0  0  0  0  0
    2.5703  -10.9919   -7.6925 H   0  0  0  0  0  0  0  0  0  0  0  0
    4.3461   -8.5448   -8.5622 H   0  0  0  0  0  0  0  0  0  0  0  0
    4.2467  -11.2729   -9.9010 H   0  0  0  0  0  0  0  0  0  0  0  0
    5.5917  -10.6794   -8.8921 H   0  0  0  0  0  0  0  0  0  0  0  0
    5.1950   -9.8725  -10.3999 H   0  0  0  0  0  0  0  0  0  0  0  0
    2.1426   -9.9070  -10.1875 H   0  0  0  0  0  0  0  0  0  0  0  0
    3.1982   -8.6156  -10.7473 H   0  0  0  0  0  0  0  0  0  0  0  0
    2.0346   -8.2831   -9.4710 H   0  0  0  0  0  0  0  0  0  0  0  0
    2.0303  -13.6229   -5.1252 H   0  0  0  0  0  0  0  0  0  0  0  0
    2.5188  -13.9762   -3.4649 H   0  0  0  0  0  0  0  0  0  0  0  0
    4.1476  -15.1610   -5.8174 H   0  0  0  0  0  0  0  0  0  0  0  0
    2.7275  -16.0169   -5.1489 H   0  0  0  0  0  0  0  0  0  0  0  0
    4.8080  -18.6744   -1.4178 H   0  0  0  0  0  0  0  0  0  0  0  0
    3.4340  -17.7968   -0.7214 H   0  0  0  0  0  0  0  0  0  0  0  0
    5.0868  -17.5431   -0.0670 H   0  0  0  0  0  0  0  0  0  0  0  0
    5.3045  -14.9451   -0.8363 H   0  0  0  0  0  0  0  0  0  0  0  0
    7.9223  -13.1058   -7.1479 H   0  0  0  0  0  0  0  0  0  0  0  0
    6.3365  -11.2822   -7.0035 H   0  0  0  0  0  0  0  0  0  0  0  0
    7.7781  -10.6484   -6.1408 H   0  0  0  0  0  0  0  0  0  0  0  0
    5.7863   -3.0977    0.6918 H   0  0  0  0  0  0  0  0  0  0  0  0
    4.3147   -1.5488    1.9183 H   0  0  0  0  0  0  0  0  0  0  0  0
  1  2  1  0  0  0  0
  1 42  1  0  0  0  0
  1 43  1  0  0  0  0
  1 44  1  0  0  0  0
  2  3  1  0  0  0  0
  3  4  1  0  0  0  0
  3 41  2  0  0  0  0
  4  5  2  0  0  0  0
  4 45  1  0  0  0  0
  5  6  1  0  0  0  0
  5 46  1  0  0  0  0
  6  7  1  0  0  0  0
  6 40  2  0  0  0  0
  7  8  1  0  0  0  0
  7 47  1  0  0  0  0
  8  9  2  0  0  0  0
  8 10  1  0  0  0  0
 10 11  1  0  0  0  0
 10 48  1  0  0  0  0
 11 12  1  0  0  0  0
 11 16  2  0  0  0  0
 12 13  2  0  0  0  0
 12 49  1  0  0  0  0
 13 14  1  0  0  0  0
 13 50  1  0  0  0  0
 14 15  2  0  0  0  0
 14 23  1  0  0  0  0
 15 16  1  0  0  0  0
 15 17  1  0  0  0  0
 16 51  1  0  0  0  0
 17 18  1  0  0  0  0
 17 22  2  0  0  0  0
 18 19  2  0  0  0  0
 18 39  1  0  0  0  0
 19 20  1  0  0  0  0
 19 36  1  0  0  0  0
 20 21  2  0  0  0  0
 20 35  1  0  0  0  0
 21 22  1  0  0  0  0
 21 28  1  0  0  0  0
 22 23  1  0  0  0  0
 23 24  1  0  0  0  0
 24 25  1  0  0  0  0
 24 52  1  0  0  0  0
 24 53  1  0  0  0  0
 25 26  1  0  0  0  0
 25 27  1  0  0  0  0
 25 54  1  0  0  0  0
 26 55  1  0  0  0  0
 26 56  1  0  0  0  0
 26 57  1  0  0  0  0
 27 58  1  0  0  0  0
 27 59  1  0  0  0  0
 27 60  1  0  0  0  0
 28 29  1  0  0  0  0
 28 61  1  0  0  0  0
 28 62  1  0  0  0  0
 29 30  1  0  0  0  0
 29 63  1  0  0  0  0
 29 64  1  0  0  0  0
 30 31  2  0  0  0  0
 30 35  1  0  0  0  0
 31 32  1  0  0  0  0
 32 33  1  0  0  0  0
 32 34  1  0  0  0  0
 33 65  1  0  0  0  0
 33 66  1  0  0  0  0
 33 67  1  0  0  0  0
 34 35  2  0  0  0  0
 34 68  1  0  0  0  0
 36 37  2  0  0  0  0
 36 38  1  0  0  0  0
 38 39  1  0  0  0  0
 38 69  1  0  0  0  0
 39 70  1  0  0  0  0
 39 71  1  0  0  0  0
 40 41  1  0  0  0  0
 40 72  1  0  0  0  0
 41 73  1  0  0  0  0
M  END
$$$$
