CHEMBL1094194
 OpenBabel04072215363D

 73 75  0  0  0  0  0  0  0  0999 V2000
    3.6000   -8.8217   -1.4734 C   0  0  0  0  0  0  0  0  0  0  0  0
    4.3694   -9.3966   -3.0216 S   0  0  0  0  0  0  0  0  0  0  0  0
    5.0613   -7.8382   -3.6291 C   0  0  0  0  0  0  0  0  0  0  0  0
    6.4468   -7.7307   -3.8080 C   0  0  0  0  0  0  0  0  0  0  0  0
    7.0027   -6.5776   -4.3756 C   0  0  0  0  0  0  0  0  0  0  0  0
    6.1826   -5.5071   -4.7755 C   0  0  0  0  0  0  0  0  0  0  0  0
    6.7927   -4.2682   -5.4092 C   0  0  0  0  0  0  0  0  0  0  0  0
    6.2687   -4.0038   -6.8328 C   0  0  0  0  0  0  0  0  0  0  0  0
    6.9138   -2.7355   -7.4328 C   0  0  0  0  0  0  0  0  0  0  0  0
    6.3667   -2.4507   -8.8323 C   0  0  0  0  0  0  0  0  0  0  0  0
    6.9653   -1.1845   -9.4936 C   0  0  0  0  0  0  0  0  0  0  0  0
    6.5723   -1.1887  -10.9100 N   0  0  0  0  0  0  0  0  0  0  0  0
    5.3239   -1.4419  -11.3778 C   0  0  0  0  0  0  0  0  0  0  0  0
    5.3762   -1.6793  -12.7455 C   0  0  0  0  0  0  0  0  0  0  0  0
    4.2769   -2.1948  -13.6259 C   0  0  0  0  0  0  0  0  0  0  0  0
    3.3951   -3.1973  -12.8765 C   0  0  0  0  0  0  0  0  0  0  0  0
    2.4649   -3.8341  -13.8019 N   0  0  0  0  0  0  0  0  0  0  0  0
    6.6939   -1.5067  -13.1083 C   0  0  0  0  0  0  0  0  0  0  0  0
    7.3381   -1.6946  -14.3294 C   0  0  0  0  0  0  0  0  0  0  0  0
    8.7155   -1.5033  -14.3934 C   0  0  0  0  0  0  0  0  0  0  0  0
    9.3559   -1.8024  -15.5546 O   0  0  0  0  0  0  0  0  0  0  0  0
   10.7229   -1.7339  -15.6798 C   0  0  0  0  0  0  0  0  0  0  0  0
   11.2060   -2.3062  -17.0110 C   0  0  0  0  0  0  0  0  0  0  0  0
   12.7004   -2.1175  -17.0878 C   0  0  0  0  0  0  0  0  0  0  0  0
   13.5705   -3.2218  -17.1572 C   0  0  0  0  0  0  0  0  0  0  0  0
   14.9571   -3.0167  -17.1816 C   0  0  0  0  0  0  0  0  0  0  0  0
   15.4841   -1.7169  -17.1367 C   0  0  0  0  0  0  0  0  0  0  0  0
   16.8116   -1.5011  -17.1487 O   0  0  0  0  0  0  0  0  0  0  0  0
   14.6168   -0.6222  -17.0742 C   0  0  0  0  0  0  0  0  0  0  0  0
   13.2398   -0.8197  -17.0580 C   0  0  0  0  0  0  0  0  0  0  0  0
    9.4187   -1.0488  -13.2371 C   0  0  0  0  0  0  0  0  0  0  0  0
    8.7498   -0.8906  -12.0168 C   0  0  0  0  0  0  0  0  0  0  0  0
    7.3866   -1.1574  -11.9800 C   0  0  0  0  0  0  0  0  0  0  0  0
    4.7917   -5.6082   -4.5704 C   0  0  0  0  0  0  0  0  0  0  0  0
    4.2365   -6.7687   -4.0073 C   0  0  0  0  0  0  0  0  0  0  0  0
   -0.0217   -0.7299   -2.3707 Cl  0  0  0  0  0  0  0  0  0  0  0  0
    3.2360   -9.7237   -0.9334 H   0  0  0  0  0  0  0  0  0  0  0  0
    2.7140   -8.1862   -1.6792 H   0  0  0  0  0  0  0  0  0  0  0  0
    4.3362   -8.3255   -0.8094 H   0  0  0  0  0  0  0  0  0  0  0  0
    7.0939   -8.5520   -3.5285 H   0  0  0  0  0  0  0  0  0  0  0  0
    8.0764   -6.5282   -4.5147 H   0  0  0  0  0  0  0  0  0  0  0  0
    7.8982   -4.3758   -5.4620 H   0  0  0  0  0  0  0  0  0  0  0  0
    6.5634   -3.3914   -4.7678 H   0  0  0  0  0  0  0  0  0  0  0  0
    5.1669   -3.8679   -6.8034 H   0  0  0  0  0  0  0  0  0  0  0  0
    6.4974   -4.8807   -7.4804 H   0  0  0  0  0  0  0  0  0  0  0  0
    8.0132   -2.8820   -7.5029 H   0  0  0  0  0  0  0  0  0  0  0  0
    6.6993   -1.8626   -6.7819 H   0  0  0  0  0  0  0  0  0  0  0  0
    5.2627   -2.3338   -8.7719 H   0  0  0  0  0  0  0  0  0  0  0  0
    6.5897   -3.3319   -9.4772 H   0  0  0  0  0  0  0  0  0  0  0  0
    8.0705   -1.2600   -9.4242 H   0  0  0  0  0  0  0  0  0  0  0  0
    6.6375   -0.2629   -8.9687 H   0  0  0  0  0  0  0  0  0  0  0  0
    4.4490   -1.5660  -10.7547 H   0  0  0  0  0  0  0  0  0  0  0  0
    4.7407   -2.7311  -14.4800 H   0  0  0  0  0  0  0  0  0  0  0  0
    3.6673   -1.3577  -14.0232 H   0  0  0  0  0  0  0  0  0  0  0  0
    2.8278   -2.6750  -12.0743 H   0  0  0  0  0  0  0  0  0  0  0  0
    4.0311   -3.9833  -12.4103 H   0  0  0  0  0  0  0  0  0  0  0  0
    1.8630   -3.1081  -14.2445 H   0  0  0  0  0  0  0  0  0  0  0  0
    1.8570   -4.4875  -13.2584 H   0  0  0  0  0  0  0  0  0  0  0  0
    6.7831   -2.0340  -15.2045 H   0  0  0  0  0  0  0  0  0  0  0  0
   11.2060   -2.3319  -14.8731 H   0  0  0  0  0  0  0  0  0  0  0  0
   11.0184   -0.6686  -15.5774 H   0  0  0  0  0  0  0  0  0  0  0  0
   10.7166   -1.7836  -17.8609 H   0  0  0  0  0  0  0  0  0  0  0  0
   10.9334   -3.3846  -17.0570 H   0  0  0  0  0  0  0  0  0  0  0  0
   13.1834   -4.2275  -17.1764 H   0  0  0  0  0  0  0  0  0  0  0  0
   15.6202   -3.8719  -17.2283 H   0  0  0  0  0  0  0  0  0  0  0  0
   17.4564   -2.2337  -17.1883 H   0  0  0  0  0  0  0  0  0  0  0  0
   15.0104    0.3863  -17.0366 H   0  0  0  0  0  0  0  0  0  0  0  0
   12.5892    0.0484  -17.0051 H   0  0  0  0  0  0  0  0  0  0  0  0
   10.4781   -0.8568  -13.2562 H   0  0  0  0  0  0  0  0  0  0  0  0
    9.3053   -0.5745  -11.1424 H   0  0  0  0  0  0  0  0  0  0  0  0
    4.1369   -4.7975   -4.8611 H   0  0  0  0  0  0  0  0  0  0  0  0
    3.1640   -6.8380   -3.8828 H   0  0  0  0  0  0  0  0  0  0  0  0
    0.7868   -1.3537   -1.4489 H   0  0  0  0  0  0  0  0  0  0  0  0
  1  2  1  0  0  0  0
  1 37  1  0  0  0  0
  1 38  1  0  0  0  0
  1 39  1  0  0  0  0
  2  3  1  0  0  0  0
  3  4  1  0  0  0  0
  3 35  2  0  0  0  0
  4  5  2  0  0  0  0
  4 40  1  0  0  0  0
  5  6  1  0  0  0  0
  5 41  1  0  0  0  0
  6  7  1  0  0  0  0
  6 34  2  0  0  0  0
  7  8  1  0  0  0  0
  7 42  1  0  0  0  0
  7 43  1  0  0  0  0
  8  9  1  0  0  0  0
  8 44  1  0  0  0  0
  8 45  1  0  0  0  0
  9 10  1  0  0  0  0
  9 46  1  0  0  0  0
  9 47  1  0  0  0  0
 10 11  1  0  0  0  0
 10 48  1  0  0  0  0
 10 49  1  0  0  0  0
 11 12  1  0  0  0  0
 11 50  1  0  0  0  0
 11 51  1  0  0  0  0
 12 13  1  0  0  0  0
 12 33  1  0  0  0  0
 13 14  2  0  0  0  0
 13 52  1  0  0  0  0
 14 15  1  0  0  0  0
 14 18  1  0  0  0  0
 15 16  1  0  0  0  0
 15 53  1  0  0  0  0
 15 54  1  0  0  0  0
 16 17  1  0  0  0  0
 16 55  1  0  0  0  0
 16 56  1  0  0  0  0
 17 57  1  0  0  0  0
 17 58  1  0  0  0  0
 18 19  1  0  0  0  0
 18 33  2  0  0  0  0
 19 20  2  0  0  0  0
 19 59  1  0  0  0  0
 20 21  1  0  0  0  0
 20 31  1  0  0  0  0
 21 22  1  0  0  0  0
 22 23  1  0  0  0  0
 22 60  1  0  0  0  0
 22 61  1  0  0  0  0
 23 24  1  0  0  0  0
 23 62  1  0  0  0  0
 23 63  1  0  0  0  0
 24 25  1  0  0  0  0
 24 30  2  0  0  0  0
 25 26  2  0  0  0  0
 25 64  1  0  0  0  0
 26 27  1  0  0  0  0
 26 65  1  0  0  0  0
 27 28  1  0  0  0  0
 27 29  2  0  0  0  0
 28 66  1  0  0  0  0
 29 30  1  0  0  0  0
 29 67  1  0  0  0  0
 30 68  1  0  0  0  0
 31 32  2  0  0  0  0
 31 69  1  0  0  0  0
 32 33  1  0  0  0  0
 32 70  1  0  0  0  0
 34 35  1  0  0  0  0
 34 71  1  0  0  0  0
 35 72  1  0  0  0  0
 36 73  1  0  0  0  0
M  END
$$$$
