CHEMBL1991674
 OpenBabel04072215363D

 42 45  0  0  1  0  0  0  0  0999 V2000
   -1.8293    0.4121   -2.6578 O   0  0  0  0  0  0  0  0  0  0  0  0
   -2.3864    1.0585   -1.5175 C   0  0  3  0  0  0  0  0  0  0  0  0
   -3.3197    0.0993   -0.7827 C   0  0  0  0  0  0  0  0  0  0  0  0
   -3.8264    0.7241    0.5175 C   0  0  0  0  0  0  0  0  0  0  0  0
   -2.6630    1.0865    1.4583 C   0  0  3  0  0  0  0  0  0  0  0  0
   -1.8667   -0.1001    1.8015 N   0  0  0  0  0  0  0  0  0  0  0  0
   -2.4868   -1.1345    2.5198 C   0  0  0  0  0  0  0  0  0  0  0  0
   -1.9752   -2.4039    2.3653 C   0  0  0  0  0  0  0  0  0  0  0  0
   -2.6038   -3.3892    3.0868 C   0  0  0  0  0  0  0  0  0  0  0  0
   -2.1330   -5.0309    2.9323 Cl  0  0  0  0  0  0  0  0  0  0  0  0
   -3.5933   -3.1831    3.9585 N   0  0  0  0  0  0  0  0  0  0  0  0
   -3.9839   -1.9105    4.0766 C   0  0  0  0  0  0  0  0  0  0  0  0
   -4.9792   -1.6257    5.0995 C   0  0  0  0  0  0  0  0  0  0  0  0
   -5.5064   -0.3673    5.3392 C   0  0  0  0  0  0  0  0  0  0  0  0
   -6.3933   -0.4591    6.3741 N   0  0  0  0  0  0  0  0  0  0  0  0
   -6.4399   -1.7437    6.8360 C   0  0  0  0  0  0  0  0  0  0  0  0
   -7.2038   -2.1501    7.8660 N   0  0  0  0  0  0  0  0  0  0  0  0
   -7.0508   -3.4647    8.1449 C   0  0  0  0  0  0  0  0  0  0  0  0
   -6.2125   -4.3443    7.4744 C   0  0  0  0  0  0  0  0  0  0  0  0
   -5.4498   -3.8684    6.4083 C   0  0  0  0  0  0  0  0  0  0  0  0
   -5.5660   -2.5066    6.0722 C   0  0  0  0  0  0  0  0  0  0  0  0
   -3.4818   -0.8699    3.3729 N   0  0  0  0  0  0  0  0  0  0  0  0
   -1.7455    2.0861    0.7212 C   0  0  0  0  0  0  0  0  0  0  0  0
   -1.2461    1.5450   -0.6232 C   0  0  0  0  0  0  0  0  0  0  0  0
   -2.5669    0.0844   -3.1997 H   0  0  0  0  0  0  0  0  0  0  0  0
   -2.9587    1.9225   -1.8758 H   0  0  0  0  0  0  0  0  0  0  0  0
   -2.7986   -0.8454   -0.5812 H   0  0  0  0  0  0  0  0  0  0  0  0
   -4.1649   -0.1690   -1.4271 H   0  0  0  0  0  0  0  0  0  0  0  0
   -4.5363    0.0467    1.0023 H   0  0  0  0  0  0  0  0  0  0  0  0
   -4.3873    1.6376    0.2766 H   0  0  0  0  0  0  0  0  0  0  0  0
   -3.0439    1.5667    2.3674 H   0  0  0  0  0  0  0  0  0  0  0  0
   -1.0132    0.1437    2.2957 H   0  0  0  0  0  0  0  0  0  0  0  0
   -1.1746   -2.6214    1.6790 H   0  0  0  0  0  0  0  0  0  0  0  0
   -5.3144    0.5831    4.8556 H   0  0  0  0  0  0  0  0  0  0  0  0
   -6.9336    0.2955    6.7745 H   0  0  0  0  0  0  0  0  0  0  0  0
   -7.6544   -3.8195    8.9773 H   0  0  0  0  0  0  0  0  0  0  0  0
   -6.1492   -5.3841    7.7765 H   0  0  0  0  0  0  0  0  0  0  0  0
   -4.7830   -4.5310    5.8654 H   0  0  0  0  0  0  0  0  0  0  0  0
   -0.8848    2.3501    1.3472 H   0  0  0  0  0  0  0  0  0  0  0  0
   -2.3015    3.0148    0.5411 H   0  0  0  0  0  0  0  0  0  0  0  0
   -0.5324    0.7279   -0.4570 H   0  0  0  0  0  0  0  0  0  0  0  0
   -0.6772    2.3218   -1.1496 H   0  0  0  0  0  0  0  0  0  0  0  0
  1  2  1  0  0  0  0
  1 25  1  0  0  0  0
  2  3  1  0  0  0  0
  2 24  1  0  0  0  0
  2 26  1  0  0  0  0
  3  4  1  0  0  0  0
  3 27  1  0  0  0  0
  3 28  1  0  0  0  0
  4  5  1  0  0  0  0
  4 29  1  0  0  0  0
  4 30  1  0  0  0  0
  5  6  1  0  0  0  0
  5 23  1  0  0  0  0
  5 31  1  0  0  0  0
  6  7  1  0  0  0  0
  6 32  1  0  0  0  0
  7  8  1  0  0  0  0
  7 22  2  0  0  0  0
  8  9  2  0  0  0  0
  8 33  1  0  0  0  0
  9 10  1  0  0  0  0
  9 11  1  0  0  0  0
 11 12  2  0  0  0  0
 12 13  1  0  0  0  0
 12 22  1  0  0  0  0
 13 14  2  0  0  0  0
 13 21  1  0  0  0  0
 14 15  1  0  0  0  0
 14 34  1  0  0  0  0
 15 16  1  0  0  0  0
 15 35  1  0  0  0  0
 16 17  1  0  0  0  0
 16 21  2  0  0  0  0
 17 18  2  0  0  0  0
 18 19  1  0  0  0  0
 18 36  1  0  0  0  0
 19 20  2  0  0  0  0
 19 37  1  0  0  0  0
 20 21  1  0  0  0  0
 20 38  1  0  0  0  0
 23 24  1  0  0  0  0
 23 39  1  0  0  0  0
 23 40  1  0  0  0  0
 24 41  1  0  0  0  0
 24 42  1  0  0  0  0
M  END
$$$$
