CHEMBL3098312
 OpenBabel04072215363D

 47 49  0  0  0  0  0  0  0  0999 V2000
   -0.2049    0.1067    2.1215 C   0  0  0  0  0  0  0  0  0  0  0  0
    1.1932    0.1863    1.8487 O   0  0  0  0  0  0  0  0  0  0  0  0
    1.9056   -0.9575    2.1042 C   0  0  0  0  0  0  0  0  0  0  0  0
    3.1935   -0.7334    2.6131 C   0  0  0  0  0  0  0  0  0  0  0  0
    4.0382   -1.7756    2.9669 C   0  0  0  0  0  0  0  0  0  0  0  0
    5.2395   -1.4951    3.4814 N   0  0  0  0  0  0  0  0  0  0  0  0
    5.9822   -2.5441    3.8442 C   0  0  0  0  0  0  0  0  0  0  0  0
    7.5194   -2.1975    4.4996 Cl  0  0  0  0  0  0  0  0  0  0  0  0
    5.6543   -3.8321    3.7615 N   0  0  0  0  0  0  0  0  0  0  0  0
    4.4511   -4.1016    3.2306 C   0  0  0  0  0  0  0  0  0  0  0  0
    4.0346   -5.4556    3.1199 N   0  0  0  0  0  0  0  0  0  0  0  0
    4.4512   -6.5174    3.9502 C   0  0  0  0  0  0  0  0  0  0  0  0
    4.7528   -6.3115    5.3056 C   0  0  0  0  0  0  0  0  0  0  0  0
    5.1821   -7.3600    6.1184 C   0  0  0  0  0  0  0  0  0  0  0  0
    5.2752   -8.6443    5.5847 C   0  0  0  0  0  0  0  0  0  0  0  0
    5.9926   -9.9529    6.5579 S   0  0  0  0  0  0  0  0  0  0  0  0
    6.4811  -10.9539    5.6288 O   0  0  0  0  0  0  0  0  0  0  0  0
    6.8754   -9.3412    7.5270 O   0  0  0  0  0  0  0  0  0  0  0  0
    4.6599  -10.6091    7.3822 N   0  0  0  0  0  0  0  0  0  0  0  0
    4.1202   -9.8333    8.5077 C   0  0  0  0  0  0  0  0  0  0  0  0
    3.6239  -11.2523    6.5582 C   0  0  0  0  0  0  0  0  0  0  0  0
    4.9126   -8.8856    4.2547 C   0  0  0  0  0  0  0  0  0  0  0  0
    4.4806   -7.8260    3.4499 C   0  0  0  0  0  0  0  0  0  0  0  0
    3.5861   -3.0875    2.7857 C   0  0  0  0  0  0  0  0  0  0  0  0
    2.3087   -3.3214    2.2236 C   0  0  0  0  0  0  0  0  0  0  0  0
    1.4666   -2.2662    1.8821 C   0  0  0  0  0  0  0  0  0  0  0  0
    0.2628   -2.4633    1.2643 O   0  0  0  0  0  0  0  0  0  0  0  0
   -0.4635   -3.6193    1.6663 C   0  0  0  0  0  0  0  0  0  0  0  0
   -0.5787    1.1275    2.2487 H   0  0  0  0  0  0  0  0  0  0  0  0
   -0.4137   -0.4395    3.0482 H   0  0  0  0  0  0  0  0  0  0  0  0
   -0.7427   -0.3262    1.2737 H   0  0  0  0  0  0  0  0  0  0  0  0
    3.5315    0.2901    2.7613 H   0  0  0  0  0  0  0  0  0  0  0  0
    3.9868   -5.7127    2.1403 H   0  0  0  0  0  0  0  0  0  0  0  0
    4.6820   -5.3145    5.7364 H   0  0  0  0  0  0  0  0  0  0  0  0
    5.4677   -7.1577    7.1473 H   0  0  0  0  0  0  0  0  0  0  0  0
    4.9177   -9.5260    9.1890 H   0  0  0  0  0  0  0  0  0  0  0  0
    3.4362  -10.4577    9.0927 H   0  0  0  0  0  0  0  0  0  0  0  0
    3.5736   -8.9526    8.1606 H   0  0  0  0  0  0  0  0  0  0  0  0
    4.0694  -11.9026    5.7992 H   0  0  0  0  0  0  0  0  0  0  0  0
    2.9913  -10.5044    6.0717 H   0  0  0  0  0  0  0  0  0  0  0  0
    2.9900  -11.8852    7.1874 H   0  0  0  0  0  0  0  0  0  0  0  0
    4.9885   -9.8849    3.8315 H   0  0  0  0  0  0  0  0  0  0  0  0
    4.2103   -8.0305    2.4174 H   0  0  0  0  0  0  0  0  0  0  0  0
    1.9903   -4.3464    2.0533 H   0  0  0  0  0  0  0  0  0  0  0  0
   -1.5038   -3.4785    1.3583 H   0  0  0  0  0  0  0  0  0  0  0  0
   -0.4509   -3.7478    2.7544 H   0  0  0  0  0  0  0  0  0  0  0  0
   -0.0825   -4.5119    1.1602 H   0  0  0  0  0  0  0  0  0  0  0  0
  1  2  1  0  0  0  0
  1 29  1  0  0  0  0
  1 30  1  0  0  0  0
  1 31  1  0  0  0  0
  2  3  1  0  0  0  0
  3  4  1  0  0  0  0
  3 26  2  0  0  0  0
  4  5  2  0  0  0  0
  4 32  1  0  0  0  0
  5  6  1  0  0  0  0
  5 24  1  0  0  0  0
  6  7  2  0  0  0  0
  7  8  1  0  0  0  0
  7  9  1  0  0  0  0
  9 10  2  0  0  0  0
 10 11  1  0  0  0  0
 10 24  1  0  0  0  0
 11 12  1  0  0  0  0
 11 33  1  0  0  0  0
 12 13  1  0  0  0  0
 12 23  2  0  0  0  0
 13 14  2  0  0  0  0
 13 34  1  0  0  0  0
 14 15  1  0  0  0  0
 14 35  1  0  0  0  0
 15 16  1  0  0  0  0
 15 22  2  0  0  0  0
 16 17  2  0  0  0  0
 16 18  2  0  0  0  0
 16 19  1  0  0  0  0
 19 20  1  0  0  0  0
 19 21  1  0  0  0  0
 20 36  1  0  0  0  0
 20 37  1  0  0  0  0
 20 38  1  0  0  0  0
 21 39  1  0  0  0  0
 21 40  1  0  0  0  0
 21 41  1  0  0  0  0
 22 23  1  0  0  0  0
 22 42  1  0  0  0  0
 23 43  1  0  0  0  0
 24 25  2  0  0  0  0
 25 26  1  0  0  0  0
 25 44  1  0  0  0  0
 26 27  1  0  0  0  0
 27 28  1  0  0  0  0
 28 45  1  0  0  0  0
 28 46  1  0  0  0  0
 28 47  1  0  0  0  0
M  END
$$$$
