CHEMBL3671529
 OpenBabel04072215373D

 52 54  0  0  0  0  0  0  0  0999 V2000
    3.2444   -1.3349   -3.8779 C   0  0  0  0  0  0  0  0  0  0  0  0
    3.3291   -0.1875   -3.1960 C   0  0  0  0  0  0  0  0  0  0  0  0
    3.6051   -0.2246   -1.7376 C   0  0  0  0  0  0  0  0  0  0  0  0
    3.2032   -1.1370   -1.0229 O   0  0  0  0  0  0  0  0  0  0  0  0
    4.3861    0.7831   -1.2205 N   0  0  0  0  0  0  0  0  0  0  0  0
    5.1707    1.6248   -2.0310 C   0  0  0  0  0  0  0  0  0  0  0  0
    6.2297    1.0517   -2.7370 C   0  0  0  0  0  0  0  0  0  0  0  0
    6.8275    1.7422   -3.8120 C   0  0  0  0  0  0  0  0  0  0  0  0
    7.8457    1.2133   -4.6254 C   0  0  0  0  0  0  0  0  0  0  0  0
    8.2631   -0.1207   -4.4220 N   0  0  0  0  0  0  0  0  0  0  0  0
    9.5424   -0.6779   -4.6250 C   0  0  0  0  0  0  0  0  0  0  0  0
   10.7085    0.0872   -4.5093 C   0  0  0  0  0  0  0  0  0  0  0  0
   11.9653   -0.5254   -4.4806 C   0  0  0  0  0  0  0  0  0  0  0  0
   12.0648   -1.9124   -4.5771 C   0  0  0  0  0  0  0  0  0  0  0  0
   13.7540   -2.7423   -4.4040 Br  0  0  0  0  0  0  0  0  0  0  0  0
   10.9263   -2.6910   -4.7527 C   0  0  0  0  0  0  0  0  0  0  0  0
    9.6814   -2.0681   -4.7675 C   0  0  0  0  0  0  0  0  0  0  0  0
    8.5804   -2.8272   -4.8929 F   0  0  0  0  0  0  0  0  0  0  0  0
    8.3962    1.9165   -5.6285 N   0  0  0  0  0  0  0  0  0  0  0  0
    7.9001    3.1388   -5.8411 C   0  0  0  0  0  0  0  0  0  0  0  0
    6.9254    3.7374   -5.1379 N   0  0  0  0  0  0  0  0  0  0  0  0
    6.4003    3.0392   -4.1250 C   0  0  0  0  0  0  0  0  0  0  0  0
    5.3932    3.6208   -3.3546 C   0  0  0  0  0  0  0  0  0  0  0  0
    4.7826    2.9434   -2.2928 C   0  0  0  0  0  0  0  0  0  0  0  0
    3.8017    3.6498   -1.6360 O   0  0  0  0  0  0  0  0  0  0  0  0
    3.6664    3.3513   -0.2386 C   0  0  0  0  0  0  0  0  0  0  0  0
    3.2367    4.5960    0.5465 C   0  0  0  0  0  0  0  0  0  0  0  0
    3.2257    4.3543    1.9809 N   0  0  0  0  0  0  0  0  0  0  0  0
    4.3898    4.2948    2.7169 C   0  0  0  0  0  0  0  0  0  0  0  0
    5.4998    4.5117    2.2393 O   0  0  0  0  0  0  0  0  0  0  0  0
    4.1969    3.8477    4.1688 C   0  0  0  0  0  0  0  0  0  0  0  0
    3.0778    4.5667    4.7998 N   0  0  0  0  0  0  0  0  0  0  0  0
    3.1127   -1.3422   -4.9557 H   0  0  0  0  0  0  0  0  0  0  0  0
    3.3196   -2.2959   -3.3747 H   0  0  0  0  0  0  0  0  0  0  0  0
    3.2703    0.7703   -3.7062 H   0  0  0  0  0  0  0  0  0  0  0  0
    4.8016    0.4759   -0.3476 H   0  0  0  0  0  0  0  0  0  0  0  0
    6.5539    0.0433   -2.4884 H   0  0  0  0  0  0  0  0  0  0  0  0
    7.5142   -0.7763   -4.6310 H   0  0  0  0  0  0  0  0  0  0  0  0
   10.6480    1.1665   -4.3940 H   0  0  0  0  0  0  0  0  0  0  0  0
   12.8519    0.0895   -4.3480 H   0  0  0  0  0  0  0  0  0  0  0  0
   10.9848   -3.7704   -4.8427 H   0  0  0  0  0  0  0  0  0  0  0  0
    8.3220    3.7000   -6.6675 H   0  0  0  0  0  0  0  0  0  0  0  0
    5.0624    4.6257   -3.6036 H   0  0  0  0  0  0  0  0  0  0  0  0
    4.6113    2.9889    0.1836 H   0  0  0  0  0  0  0  0  0  0  0  0
    2.8978    2.5785   -0.1169 H   0  0  0  0  0  0  0  0  0  0  0  0
    2.2312    4.9088    0.2466 H   0  0  0  0  0  0  0  0  0  0  0  0
    3.9170    5.4279    0.3277 H   0  0  0  0  0  0  0  0  0  0  0  0
    2.3577    4.1564    2.4721 H   0  0  0  0  0  0  0  0  0  0  0  0
    5.1215    4.0370    4.7228 H   0  0  0  0  0  0  0  0  0  0  0  0
    3.9954    2.7716    4.1749 H   0  0  0  0  0  0  0  0  0  0  0  0
    3.2668    5.5692    4.7325 H   0  0  0  0  0  0  0  0  0  0  0  0
    3.0979    4.3617    5.8006 H   0  0  0  0  0  0  0  0  0  0  0  0
  1  2  2  0  0  0  0
  1 33  1  0  0  0  0
  1 34  1  0  0  0  0
  2  3  1  0  0  0  0
  2 35  1  0  0  0  0
  3  4  2  0  0  0  0
  3  5  1  0  0  0  0
  5  6  1  0  0  0  0
  5 36  1  0  0  0  0
  6  7  1  0  0  0  0
  6 24  2  0  0  0  0
  7  8  2  0  0  0  0
  7 37  1  0  0  0  0
  8  9  1  0  0  0  0
  8 22  1  0  0  0  0
  9 10  1  0  0  0  0
  9 19  2  0  0  0  0
 10 11  1  0  0  0  0
 10 38  1  0  0  0  0
 11 12  1  0  0  0  0
 11 17  2  0  0  0  0
 12 13  2  0  0  0  0
 12 39  1  0  0  0  0
 13 14  1  0  0  0  0
 13 40  1  0  0  0  0
 14 15  1  0  0  0  0
 14 16  2  0  0  0  0
 16 17  1  0  0  0  0
 16 41  1  0  0  0  0
 17 18  1  0  0  0  0
 19 20  1  0  0  0  0
 20 21  2  0  0  0  0
 20 42  1  0  0  0  0
 21 22  1  0  0  0  0
 22 23  2  0  0  0  0
 23 24  1  0  0  0  0
 23 43  1  0  0  0  0
 24 25  1  0  0  0  0
 25 26  1  0  0  0  0
 26 27  1  0  0  0  0
 26 44  1  0  0  0  0
 26 45  1  0  0  0  0
 27 28  1  0  0  0  0
 27 46  1  0  0  0  0
 27 47  1  0  0  0  0
 28 29  1  0  0  0  0
 28 48  1  0  0  0  0
 29 30  2  0  0  0  0
 29 31  1  0  0  0  0
 31 32  1  0  0  0  0
 31 49  1  0  0  0  0
 31 50  1  0  0  0  0
 32 51  1  0  0  0  0
 32 52  1  0  0  0  0
M  END
$$$$
