CHEMBL3660273
 OpenBabel04072215373D

 62 65  0  0  0  0  0  0  0  0999 V2000
    0.3946   -0.2857   -1.0173 C   0  0  0  0  0  0  0  0  0  0  0  0
    1.1318   -0.7762   -2.1253 O   0  0  0  0  0  0  0  0  0  0  0  0
    2.5431   -0.6978   -1.9163 C   0  0  0  0  0  0  0  0  0  0  0  0
    3.2163   -1.2413   -3.1651 C   0  0  0  0  0  0  0  0  0  0  0  0
    4.6363   -1.1065   -3.1354 O   0  0  0  0  0  0  0  0  0  0  0  0
    5.2855   -2.2991   -3.0273 C   0  0  0  0  0  0  0  0  0  0  0  0
    4.9177   -3.2222   -2.3113 O   0  0  0  0  0  0  0  0  0  0  0  0
    6.3898   -2.4065   -3.9712 C   0  0  0  0  0  0  0  0  0  0  0  0
    6.8247   -1.4492   -4.8750 C   0  0  0  0  0  0  0  0  0  0  0  0
    7.8374   -1.9805   -5.6242 N   0  0  0  0  0  0  0  0  0  0  0  0
    8.0697   -3.2851   -5.2539 C   0  0  0  0  0  0  0  0  0  0  0  0
    9.0802   -4.1226   -5.8858 C   0  0  0  0  0  0  0  0  0  0  0  0
    9.2432   -5.4449   -5.5076 C   0  0  0  0  0  0  0  0  0  0  0  0
   10.3405   -6.1429   -5.9971 C   0  0  0  0  0  0  0  0  0  0  0  0
   10.6664   -7.4166   -5.5886 O   0  0  0  0  0  0  0  0  0  0  0  0
   10.4371   -7.7671   -4.2746 C   0  0  0  0  0  0  0  0  0  0  0  0
   10.0647   -9.0852   -4.0446 C   0  0  0  0  0  0  0  0  0  0  0  0
    9.7698   -9.5117   -2.7472 C   0  0  0  0  0  0  0  0  0  0  0  0
    9.8408   -8.6367   -1.6554 C   0  0  0  0  0  0  0  0  0  0  0  0
    9.4868   -9.0076   -0.3335 N   0  0  0  0  0  0  0  0  0  0  0  0
    9.1298  -10.2781    0.0752 C   0  0  0  0  0  0  0  0  0  0  0  0
    9.1517  -11.2775   -0.6367 O   0  0  0  0  0  0  0  0  0  0  0  0
    8.7090  -10.3178    1.3992 N   0  0  0  0  0  0  0  0  0  0  0  0
    8.3121  -11.5703    1.9449 C   0  0  0  0  0  0  0  0  0  0  0  0
    9.1234  -12.7055    1.8174 C   0  0  0  0  0  0  0  0  0  0  0  0
    8.6830  -13.9573    2.2697 C   0  0  0  0  0  0  0  0  0  0  0  0
    9.5543  -15.1709    2.1237 C   0  0  0  0  0  0  0  0  0  0  0  0
    7.4104  -14.0648    2.8455 C   0  0  0  0  0  0  0  0  0  0  0  0
    6.6043  -12.9328    2.9919 C   0  0  0  0  0  0  0  0  0  0  0  0
    7.0685  -11.6919    2.5627 C   0  0  0  0  0  0  0  0  0  0  0  0
    6.2723  -10.6176    2.6775 F   0  0  0  0  0  0  0  0  0  0  0  0
   10.2638   -7.3242   -1.8886 C   0  0  0  0  0  0  0  0  0  0  0  0
   10.5867   -6.9012   -3.1859 C   0  0  0  0  0  0  0  0  0  0  0  0
   11.1521   -5.5535   -6.9558 C   0  0  0  0  0  0  0  0  0  0  0  0
   10.8748   -4.2466   -7.3218 C   0  0  0  0  0  0  0  0  0  0  0  0
    9.8702   -3.5064   -6.7932 N   0  0  0  0  0  0  0  0  0  0  0  0
    7.1942   -3.5591   -4.2074 C   0  0  0  0  0  0  0  0  0  0  0  0
   -0.6702   -0.3821   -1.2472 H   0  0  0  0  0  0  0  0  0  0  0  0
    0.6203    0.7706   -0.8456 H   0  0  0  0  0  0  0  0  0  0  0  0
    0.6139   -0.8737   -0.1218 H   0  0  0  0  0  0  0  0  0  0  0  0
    2.8305   -1.2838   -1.0359 H   0  0  0  0  0  0  0  0  0  0  0  0
    2.8415    0.3433   -1.7466 H   0  0  0  0  0  0  0  0  0  0  0  0
    2.8757   -0.6720   -4.0367 H   0  0  0  0  0  0  0  0  0  0  0  0
    2.8992   -2.2755   -3.3523 H   0  0  0  0  0  0  0  0  0  0  0  0
    6.4776   -0.4404   -5.0576 H   0  0  0  0  0  0  0  0  0  0  0  0
    8.3492   -1.5194   -6.3667 H   0  0  0  0  0  0  0  0  0  0  0  0
    8.5623   -5.9069   -4.8046 H   0  0  0  0  0  0  0  0  0  0  0  0
    9.9826   -9.7897   -4.8676 H   0  0  0  0  0  0  0  0  0  0  0  0
    9.4721  -10.5487   -2.6361 H   0  0  0  0  0  0  0  0  0  0  0  0
    9.5884   -8.3073    0.3882 H   0  0  0  0  0  0  0  0  0  0  0  0
    8.1322   -9.5332    1.6779 H   0  0  0  0  0  0  0  0  0  0  0  0
   10.0986  -12.6188    1.3419 H   0  0  0  0  0  0  0  0  0  0  0  0
   10.5095  -14.9251    1.6471 H   0  0  0  0  0  0  0  0  0  0  0  0
    9.0573  -15.9259    1.5065 H   0  0  0  0  0  0  0  0  0  0  0  0
    9.7731  -15.5956    3.1086 H   0  0  0  0  0  0  0  0  0  0  0  0
    7.0398  -15.0338    3.1735 H   0  0  0  0  0  0  0  0  0  0  0  0
    5.6093  -13.0175    3.4168 H   0  0  0  0  0  0  0  0  0  0  0  0
   10.3449   -6.6075   -1.0762 H   0  0  0  0  0  0  0  0  0  0  0  0
   10.9275   -5.8797   -3.3350 H   0  0  0  0  0  0  0  0  0  0  0  0
   11.9848   -6.0931   -7.3925 H   0  0  0  0  0  0  0  0  0  0  0  0
   11.4856   -3.7371   -8.0621 H   0  0  0  0  0  0  0  0  0  0  0  0
    7.1011   -4.4956   -3.6760 H   0  0  0  0  0  0  0  0  0  0  0  0
  1  2  1  0  0  0  0
  1 38  1  0  0  0  0
  1 39  1  0  0  0  0
  1 40  1  0  0  0  0
  2  3  1  0  0  0  0
  3  4  1  0  0  0  0
  3 41  1  0  0  0  0
  3 42  1  0  0  0  0
  4  5  1  0  0  0  0
  4 43  1  0  0  0  0
  4 44  1  0  0  0  0
  5  6  1  0  0  0  0
  6  7  2  0  0  0  0
  6  8  1  0  0  0  0
  8  9  2  0  0  0  0
  8 37  1  0  0  0  0
  9 10  1  0  0  0  0
  9 45  1  0  0  0  0
 10 11  1  0  0  0  0
 10 46  1  0  0  0  0
 11 12  1  0  0  0  0
 11 37  2  0  0  0  0
 12 13  1  0  0  0  0
 12 36  2  0  0  0  0
 13 14  2  0  0  0  0
 13 47  1  0  0  0  0
 14 15  1  0  0  0  0
 14 34  1  0  0  0  0
 15 16  1  0  0  0  0
 16 17  1  0  0  0  0
 16 33  2  0  0  0  0
 17 18  2  0  0  0  0
 17 48  1  0  0  0  0
 18 19  1  0  0  0  0
 18 49  1  0  0  0  0
 19 20  1  0  0  0  0
 19 32  2  0  0  0  0
 20 21  1  0  0  0  0
 20 50  1  0  0  0  0
 21 22  2  0  0  0  0
 21 23  1  0  0  0  0
 23 24  1  0  0  0  0
 23 51  1  0  0  0  0
 24 25  1  0  0  0  0
 24 30  2  0  0  0  0
 25 26  2  0  0  0  0
 25 52  1  0  0  0  0
 26 27  1  0  0  0  0
 26 28  1  0  0  0  0
 27 53  1  0  0  0  0
 27 54  1  0  0  0  0
 27 55  1  0  0  0  0
 28 29  2  0  0  0  0
 28 56  1  0  0  0  0
 29 30  1  0  0  0  0
 29 57  1  0  0  0  0
 30 31  1  0  0  0  0
 32 33  1  0  0  0  0
 32 58  1  0  0  0  0
 33 59  1  0  0  0  0
 34 35  2  0  0  0  0
 34 60  1  0  0  0  0
 35 36  1  0  0  0  0
 35 61  1  0  0  0  0
 37 62  1  0  0  0  0
M  END
$$$$
