CHEMBL270953
 OpenBabel04072215363D

 46 50  0  0  0  0  0  0  0  0999 V2000
    1.0633    0.5000   -0.0397 O   0  0  0  0  0  0  0  0  0  0  0  0
    2.1744   -0.0292    0.0224 C   0  0  0  0  0  0  0  0  0  0  0  0
    2.7363   -0.5016    1.1866 N   0  0  0  0  0  0  0  0  0  0  0  0
    2.1089   -0.5579    2.4457 C   0  0  0  0  0  0  0  0  0  0  0  0
    0.7361   -0.3713    2.6135 C   0  0  0  0  0  0  0  0  0  0  0  0
    0.1742   -0.3157    3.8866 C   0  0  0  0  0  0  0  0  0  0  0  0
    0.9856   -0.4855    5.0057 C   0  0  0  0  0  0  0  0  0  0  0  0
    0.3012   -0.3658    6.5747 Cl  0  0  0  0  0  0  0  0  0  0  0  0
    2.3483   -0.7346    4.8498 C   0  0  0  0  0  0  0  0  0  0  0  0
    2.9102   -0.7847    3.5712 C   0  0  0  0  0  0  0  0  0  0  0  0
    2.9875   -0.0738   -1.1002 N   0  0  0  0  0  0  0  0  0  0  0  0
    2.5871    0.7473   -2.2437 C   0  0  0  0  0  0  0  0  0  0  0  0
    3.8076    1.4499   -2.8015 C   0  0  0  0  0  0  0  0  0  0  0  0
    4.7865    0.5177   -3.2607 O   0  0  0  0  0  0  0  0  0  0  0  0
    4.9523   -0.5761   -2.4420 C   0  0  0  0  0  0  0  0  0  0  0  0
    6.0252   -1.3933   -2.7830 C   0  0  0  0  0  0  0  0  0  0  0  0
    6.2639   -2.5743   -2.0789 C   0  0  0  0  0  0  0  0  0  0  0  0
    7.2968   -3.4318   -2.3620 O   0  0  0  0  0  0  0  0  0  0  0  0
    7.6180   -3.6416   -3.6955 C   0  0  0  0  0  0  0  0  0  0  0  0
    6.6689   -3.5181   -4.6603 N   0  0  0  0  0  0  0  0  0  0  0  0
    7.0427   -3.7148   -5.9367 C   0  0  0  0  0  0  0  0  0  0  0  0
    8.2529   -4.0701   -6.3989 N   0  0  0  0  0  0  0  0  0  0  0  0
    9.1383   -4.2120   -5.4010 C   0  0  0  0  0  0  0  0  0  0  0  0
   10.4448   -4.5802   -5.5620 N   0  0  0  0  0  0  0  0  0  0  0  0
   11.0745   -4.6012   -4.3426 C   0  0  0  0  0  0  0  0  0  0  0  0
   10.1469   -4.2521   -3.3831 C   0  0  0  0  0  0  0  0  0  0  0  0
    8.9118   -4.0161   -4.0492 C   0  0  0  0  0  0  0  0  0  0  0  0
    5.4564   -2.9039   -0.9933 C   0  0  0  0  0  0  0  0  0  0  0  0
    4.3777   -2.0860   -0.6488 C   0  0  0  0  0  0  0  0  0  0  0  0
    4.1120   -0.9062   -1.3610 C   0  0  0  0  0  0  0  0  0  0  0  0
    3.7426   -0.5779    1.1808 H   0  0  0  0  0  0  0  0  0  0  0  0
    0.0674   -0.2432    1.7669 H   0  0  0  0  0  0  0  0  0  0  0  0
   -0.8894   -0.1196    3.9872 H   0  0  0  0  0  0  0  0  0  0  0  0
    2.9815   -0.8716    5.7242 H   0  0  0  0  0  0  0  0  0  0  0  0
    3.9760   -0.9739    3.4730 H   0  0  0  0  0  0  0  0  0  0  0  0
    1.8363    1.4921   -1.9620 H   0  0  0  0  0  0  0  0  0  0  0  0
    2.1359    0.0742   -2.9836 H   0  0  0  0  0  0  0  0  0  0  0  0
    4.2686    2.1056   -2.0524 H   0  0  0  0  0  0  0  0  0  0  0  0
    3.5172    2.0723   -3.6541 H   0  0  0  0  0  0  0  0  0  0  0  0
    6.6485   -1.1125   -3.6262 H   0  0  0  0  0  0  0  0  0  0  0  0
    6.2707   -3.5596   -6.6852 H   0  0  0  0  0  0  0  0  0  0  0  0
   10.8612   -4.7950   -6.4576 H   0  0  0  0  0  0  0  0  0  0  0  0
   12.1218   -4.8618   -4.2651 H   0  0  0  0  0  0  0  0  0  0  0  0
   10.3340   -4.1717   -2.3207 H   0  0  0  0  0  0  0  0  0  0  0  0
    5.6366   -3.8209   -0.4375 H   0  0  0  0  0  0  0  0  0  0  0  0
    3.7239   -2.4441    0.1414 H   0  0  0  0  0  0  0  0  0  0  0  0
  1  2  2  0  0  0  0
  2  3  1  0  0  0  0
  2 11  1  0  0  0  0
  3  4  1  0  0  0  0
  3 31  1  0  0  0  0
  4  5  1  0  0  0  0
  4 10  2  0  0  0  0
  5  6  2  0  0  0  0
  5 32  1  0  0  0  0
  6  7  1  0  0  0  0
  6 33  1  0  0  0  0
  7  8  1  0  0  0  0
  7  9  2  0  0  0  0
  9 10  1  0  0  0  0
  9 34  1  0  0  0  0
 10 35  1  0  0  0  0
 11 12  1  0  0  0  0
 11 30  1  0  0  0  0
 12 13  1  0  0  0  0
 12 36  1  0  0  0  0
 12 37  1  0  0  0  0
 13 14  1  0  0  0  0
 13 38  1  0  0  0  0
 13 39  1  0  0  0  0
 14 15  1  0  0  0  0
 15 16  1  0  0  0  0
 15 30  2  0  0  0  0
 16 17  2  0  0  0  0
 16 40  1  0  0  0  0
 17 18  1  0  0  0  0
 17 28  1  0  0  0  0
 18 19  1  0  0  0  0
 19 20  1  0  0  0  0
 19 27  2  0  0  0  0
 20 21  2  0  0  0  0
 21 22  1  0  0  0  0
 21 41  1  0  0  0  0
 22 23  2  0  0  0  0
 23 24  1  0  0  0  0
 23 27  1  0  0  0  0
 24 25  1  0  0  0  0
 24 42  1  0  0  0  0
 25 26  2  0  0  0  0
 25 43  1  0  0  0  0
 26 27  1  0  0  0  0
 26 44  1  0  0  0  0
 28 29  2  0  0  0  0
 28 45  1  0  0  0  0
 29 30  1  0  0  0  0
 29 46  1  0  0  0  0
M  END
$$$$
