CHEMBL259381
 OpenBabel04072215363D

 33 35  0  0  0  0  0  0  0  0999 V2000
    1.2209    0.1205    0.1807 N   0  0  0  0  0  0  0  0  0  0  0  0
    2.5980    0.1280    0.0861 C   0  0  0  0  0  0  0  0  0  0  0  0
    3.1851    1.2972   -0.1593 N   0  0  0  0  0  0  0  0  0  0  0  0
    4.5241    1.2853   -0.2262 C   0  0  0  0  0  0  0  0  0  0  0  0
    5.1356    2.5175   -0.5223 N   0  0  0  0  0  0  0  0  0  0  0  0
    5.3027    0.1331   -0.0905 C   0  0  0  0  0  0  0  0  0  0  0  0
    4.5727   -1.0380    0.1252 C   0  0  0  0  0  0  0  0  0  0  0  0
    3.2276   -1.0430    0.2082 N   0  0  0  0  0  0  0  0  0  0  0  0
    5.1379   -2.2898    0.3220 N   0  0  0  0  0  0  0  0  0  0  0  0
    6.2527   -2.7829   -0.4725 C   0  0  0  0  0  0  0  0  0  0  0  0
    6.8542   -1.7976   -1.4582 C   0  0  0  0  0  0  0  0  0  0  0  0
    7.4480   -0.6318   -0.6960 C   0  0  0  0  0  0  0  0  0  0  0  0
    8.9319   -0.4749   -0.6559 C   0  0  0  0  0  0  0  0  0  0  0  0
    9.7872   -1.5837   -0.6778 C   0  0  0  0  0  0  0  0  0  0  0  0
   11.1714   -1.4010   -0.6298 C   0  0  0  0  0  0  0  0  0  0  0  0
   11.7041   -0.1143   -0.5535 C   0  0  0  0  0  0  0  0  0  0  0  0
   10.8510    0.9876   -0.5176 C   0  0  0  0  0  0  0  0  0  0  0  0
   11.5127    2.5727   -0.4159 Cl  0  0  0  0  0  0  0  0  0  0  0  0
    9.4697    0.8152   -0.5646 C   0  0  0  0  0  0  0  0  0  0  0  0
    6.7176    0.2507   -0.0858 N   0  0  0  0  0  0  0  0  0  0  0  0
    0.8403    0.9170   -0.3105 H   0  0  0  0  0  0  0  0  0  0  0  0
    0.8621   -0.7927   -0.0572 H   0  0  0  0  0  0  0  0  0  0  0  0
    4.4449    3.2523   -0.4213 H   0  0  0  0  0  0  0  0  0  0  0  0
    5.9626    2.6305    0.0572 H   0  0  0  0  0  0  0  0  0  0  0  0
    4.3711   -2.9509    0.4240 H   0  0  0  0  0  0  0  0  0  0  0  0
    5.9107   -3.6635   -1.0292 H   0  0  0  0  0  0  0  0  0  0  0  0
    7.0237   -3.1372    0.2221 H   0  0  0  0  0  0  0  0  0  0  0  0
    6.1054   -1.4248   -2.1676 H   0  0  0  0  0  0  0  0  0  0  0  0
    7.6153   -2.2954   -2.0670 H   0  0  0  0  0  0  0  0  0  0  0  0
    9.4004   -2.5977   -0.7072 H   0  0  0  0  0  0  0  0  0  0  0  0
   11.8362   -2.2623   -0.6435 H   0  0  0  0  0  0  0  0  0  0  0  0
   12.7819    0.0230   -0.5150 H   0  0  0  0  0  0  0  0  0  0  0  0
    8.8127    1.6813   -0.5349 H   0  0  0  0  0  0  0  0  0  0  0  0
  1  2  1  0  0  0  0
  1 21  1  0  0  0  0
  1 22  1  0  0  0  0
  2  3  1  0  0  0  0
  2  8  2  0  0  0  0
  3  4  2  0  0  0  0
  4  5  1  0  0  0  0
  4  6  1  0  0  0  0
  5 23  1  0  0  0  0
  5 24  1  0  0  0  0
  6  7  2  0  0  0  0
  6 20  1  0  0  0  0
  7  8  1  0  0  0  0
  7  9  1  0  0  0  0
  9 10  1  0  0  0  0
  9 25  1  0  0  0  0
 10 11  1  0  0  0  0
 10 26  1  0  0  0  0
 10 27  1  0  0  0  0
 11 12  1  0  0  0  0
 11 28  1  0  0  0  0
 11 29  1  0  0  0  0
 12 13  1  0  0  0  0
 12 20  2  0  0  0  0
 13 14  1  0  0  0  0
 13 19  2  0  0  0  0
 14 15  2  0  0  0  0
 14 30  1  0  0  0  0
 15 16  1  0  0  0  0
 15 31  1  0  0  0  0
 16 17  2  0  0  0  0
 16 32  1  0  0  0  0
 17 18  1  0  0  0  0
 17 19  1  0  0  0  0
 19 33  1  0  0  0  0
M  END
$$$$
