CHEMBL3808619
 OpenBabel04072215373D

 50 52  0  0  0  0  0  0  0  0999 V2000
    1.2823    1.8888   -2.3054 C   0  0  0  0  0  0  0  0  0  0  0  0
    2.7381    2.1226   -2.0009 C   0  0  0  0  0  0  0  0  0  0  0  0
    3.2090    3.2528   -2.0609 O   0  0  0  0  0  0  0  0  0  0  0  0
    3.3907    0.9499   -1.6815 N   0  0  0  0  0  0  0  0  0  0  0  0
    4.7070    0.8824   -1.2841 C   0  0  0  0  0  0  0  0  0  0  0  0
    5.4457   -0.3188   -1.2386 C   0  0  0  0  0  0  0  0  0  0  0  0
    6.7321    0.0422   -0.8862 C   0  0  0  0  0  0  0  0  0  0  0  0
    7.9541   -0.7415   -0.8513 C   0  0  0  0  0  0  0  0  0  0  0  0
    8.1267   -1.7417   -1.8157 C   0  0  0  0  0  0  0  0  0  0  0  0
    9.2662   -2.5378   -1.8262 C   0  0  0  0  0  0  0  0  0  0  0  0
   10.2505   -2.3513   -0.8651 C   0  0  0  0  0  0  0  0  0  0  0  0
   11.4038   -3.1376   -0.7975 N   0  0  0  0  0  0  0  0  0  0  0  0
   11.7965   -4.1665   -1.6129 C   0  0  0  0  0  0  0  0  0  0  0  0
   11.1920   -4.5963   -2.5930 O   0  0  0  0  0  0  0  0  0  0  0  0
   13.0123   -4.7263   -1.3204 N   0  0  0  0  0  0  0  0  0  0  0  0
   13.7954   -4.4780   -0.2173 C   0  0  0  0  0  0  0  0  0  0  0  0
   15.1020   -4.9660   -0.0284 C   0  0  0  0  0  0  0  0  0  0  0  0
   15.4765   -4.4810    1.2038 C   0  0  0  0  0  0  0  0  0  0  0  0
   16.7171   -4.6071    2.0361 C   0  0  0  0  0  0  0  0  0  0  0  0
   17.8868   -3.9353    1.2980 C   0  0  0  0  0  0  0  0  0  0  0  0
   16.5456   -3.9341    3.4116 C   0  0  0  0  0  0  0  0  0  0  0  0
   17.0169   -6.0997    2.2502 C   0  0  0  0  0  0  0  0  0  0  0  0
   14.4567   -3.7447    1.7149 O   0  0  0  0  0  0  0  0  0  0  0  0
   13.4130   -3.7329    0.8259 N   0  0  0  0  0  0  0  0  0  0  0  0
   10.0973   -1.3404    0.0945 C   0  0  0  0  0  0  0  0  0  0  0  0
    8.9544   -0.5350    0.1001 C   0  0  0  0  0  0  0  0  0  0  0  0
    6.6652    1.3902   -0.6672 N   0  0  0  0  0  0  0  0  0  0  0  0
    5.4543    1.9132   -0.8956 N   0  0  0  0  0  0  0  0  0  0  0  0
    0.8728    2.7729   -2.8024 H   0  0  0  0  0  0  0  0  0  0  0  0
    0.7412    1.7191   -1.3710 H   0  0  0  0  0  0  0  0  0  0  0  0
    1.1564    1.0309   -2.9719 H   0  0  0  0  0  0  0  0  0  0  0  0
    2.9295    0.0692   -1.8507 H   0  0  0  0  0  0  0  0  0  0  0  0
    5.1173   -1.3133   -1.5036 H   0  0  0  0  0  0  0  0  0  0  0  0
    7.3760   -1.9096   -2.5831 H   0  0  0  0  0  0  0  0  0  0  0  0
    9.3474   -3.2977   -2.5941 H   0  0  0  0  0  0  0  0  0  0  0  0
   12.0301   -2.9441   -0.0218 H   0  0  0  0  0  0  0  0  0  0  0  0
   13.3330   -5.4007   -1.9995 H   0  0  0  0  0  0  0  0  0  0  0  0
   15.6955   -5.5723   -0.6956 H   0  0  0  0  0  0  0  0  0  0  0  0
   17.7047   -2.8619    1.1627 H   0  0  0  0  0  0  0  0  0  0  0  0
   18.0362   -4.3659    0.3009 H   0  0  0  0  0  0  0  0  0  0  0  0
   18.8234   -4.0486    1.8544 H   0  0  0  0  0  0  0  0  0  0  0  0
   16.3578   -2.8582    3.3102 H   0  0  0  0  0  0  0  0  0  0  0  0
   17.4433   -4.0561    4.0276 H   0  0  0  0  0  0  0  0  0  0  0  0
   15.7000   -4.3622    3.9646 H   0  0  0  0  0  0  0  0  0  0  0  0
   17.1550   -6.6233    1.2969 H   0  0  0  0  0  0  0  0  0  0  0  0
   16.1910   -6.5952    2.7757 H   0  0  0  0  0  0  0  0  0  0  0  0
   17.9265   -6.2414    2.8427 H   0  0  0  0  0  0  0  0  0  0  0  0
   10.8624   -1.1738    0.8496 H   0  0  0  0  0  0  0  0  0  0  0  0
    8.8537    0.2280    0.8693 H   0  0  0  0  0  0  0  0  0  0  0  0
    7.4148    2.0218   -0.4099 H   0  0  0  0  0  0  0  0  0  0  0  0
  1  2  1  0  0  0  0
  1 29  1  0  0  0  0
  1 30  1  0  0  0  0
  1 31  1  0  0  0  0
  2  3  2  0  0  0  0
  2  4  1  0  0  0  0
  4  5  1  0  0  0  0
  4 32  1  0  0  0  0
  5  6  1  0  0  0  0
  5 28  2  0  0  0  0
  6  7  2  0  0  0  0
  6 33  1  0  0  0  0
  7  8  1  0  0  0  0
  7 27  1  0  0  0  0
  8  9  1  0  0  0  0
  8 26  2  0  0  0  0
  9 10  2  0  0  0  0
  9 34  1  0  0  0  0
 10 11  1  0  0  0  0
 10 35  1  0  0  0  0
 11 12  1  0  0  0  0
 11 25  2  0  0  0  0
 12 13  1  0  0  0  0
 12 36  1  0  0  0  0
 13 14  2  0  0  0  0
 13 15  1  0  0  0  0
 15 16  1  0  0  0  0
 15 37  1  0  0  0  0
 16 17  1  0  0  0  0
 16 24  2  0  0  0  0
 17 18  2  0  0  0  0
 17 38  1  0  0  0  0
 18 19  1  0  0  0  0
 18 23  1  0  0  0  0
 19 20  1  0  0  0  0
 19 21  1  0  0  0  0
 19 22  1  0  0  0  0
 20 39  1  0  0  0  0
 20 40  1  0  0  0  0
 20 41  1  0  0  0  0
 21 42  1  0  0  0  0
 21 43  1  0  0  0  0
 21 44  1  0  0  0  0
 22 45  1  0  0  0  0
 22 46  1  0  0  0  0
 22 47  1  0  0  0  0
 23 24  1  0  0  0  0
 25 26  1  0  0  0  0
 25 48  1  0  0  0  0
 26 49  1  0  0  0  0
 27 28  1  0  0  0  0
 27 50  1  0  0  0  0
M  END
$$$$
