CHEMBL3892248
 OpenBabel04072215373D

 55 58  0  0  0  0  0  0  0  0999 V2000
   -0.2858   -0.7566   -2.8378 C   0  0  0  0  0  0  0  0  0  0  0  0
    0.8970   -0.5433   -1.9056 C   0  0  0  0  0  0  0  0  0  0  0  0
    0.4244   -0.5922   -0.6244 F   0  0  0  0  0  0  0  0  0  0  0  0
    1.7282   -1.6182   -2.0247 F   0  0  0  0  0  0  0  0  0  0  0  0
    1.5987    0.7659   -2.2026 C   0  0  0  0  0  0  0  0  0  0  0  0
    1.1351    1.9377   -1.5868 C   0  0  0  0  0  0  0  0  0  0  0  0
    1.7551    3.1521   -1.8445 C   0  0  0  0  0  0  0  0  0  0  0  0
    2.8286    3.2111   -2.7276 C   0  0  0  0  0  0  0  0  0  0  0  0
    3.4544    4.3914   -2.8171 F   0  0  0  0  0  0  0  0  0  0  0  0
    3.2880    2.0705   -3.4090 C   0  0  0  0  0  0  0  0  0  0  0  0
    4.3278    2.0919   -4.3851 N   0  0  0  0  0  0  0  0  0  0  0  0
    4.6575    3.2032   -5.1300 C   0  0  0  0  0  0  0  0  0  0  0  0
    4.0527    4.2696   -5.0995 O   0  0  0  0  0  0  0  0  0  0  0  0
    5.7276    2.9917   -6.0013 N   0  0  0  0  0  0  0  0  0  0  0  0
    6.2444    4.1267   -6.6845 C   0  0  0  0  0  0  0  0  0  0  0  0
    6.6409    5.2497   -5.9508 C   0  0  0  0  0  0  0  0  0  0  0  0
    6.9822    6.4374   -6.5984 C   0  0  0  0  0  0  0  0  0  0  0  0
    6.9980    6.4995   -7.9938 C   0  0  0  0  0  0  0  0  0  0  0  0
    7.3129    7.6479   -8.7016 O   0  0  0  0  0  0  0  0  0  0  0  0
    8.2922    8.4906   -8.2055 C   0  0  0  0  0  0  0  0  0  0  0  0
    9.4019    8.0191   -7.5129 C   0  0  0  0  0  0  0  0  0  0  0  0
   10.2748    8.9436   -6.9901 C   0  0  0  0  0  0  0  0  0  0  0  0
   10.1519   10.2661   -7.1856 N   0  0  0  0  0  0  0  0  0  0  0  0
    9.1304   10.7268   -7.9261 C   0  0  0  0  0  0  0  0  0  0  0  0
    9.0305   12.1115   -8.1634 N   0  0  0  0  0  0  0  0  0  0  0  0
    9.9089   13.0439   -7.6378 C   0  0  0  0  0  0  0  0  0  0  0  0
   10.8881   12.8239   -6.9326 O   0  0  0  0  0  0  0  0  0  0  0  0
    9.6426   14.4784   -7.9435 C   0  0  0  0  0  0  0  0  0  0  0  0
    8.3714   15.1104   -7.4205 C   0  0  0  0  0  0  0  0  0  0  0  0
    8.6264   15.0457   -8.8983 C   0  0  0  0  0  0  0  0  0  0  0  0
    8.1690    9.8640   -8.4543 C   0  0  0  0  0  0  0  0  0  0  0  0
    6.6211    5.3699   -8.7306 C   0  0  0  0  0  0  0  0  0  0  0  0
    6.2673    4.1745   -8.0796 C   0  0  0  0  0  0  0  0  0  0  0  0
    2.6838    0.8385   -3.1050 C   0  0  0  0  0  0  0  0  0  0  0  0
   -0.8162   -1.6750   -2.5654 H   0  0  0  0  0  0  0  0  0  0  0  0
    0.0406   -0.8550   -3.8779 H   0  0  0  0  0  0  0  0  0  0  0  0
   -1.0043    0.0678   -2.7711 H   0  0  0  0  0  0  0  0  0  0  0  0
    0.3014    1.9027   -0.8868 H   0  0  0  0  0  0  0  0  0  0  0  0
    1.4254    4.0625   -1.3531 H   0  0  0  0  0  0  0  0  0  0  0  0
    4.7150    1.2083   -4.6777 H   0  0  0  0  0  0  0  0  0  0  0  0
    5.6359    2.1502   -6.5514 H   0  0  0  0  0  0  0  0  0  0  0  0
    6.6449    5.2211   -4.8633 H   0  0  0  0  0  0  0  0  0  0  0  0
    7.2197    7.3058   -5.9907 H   0  0  0  0  0  0  0  0  0  0  0  0
    9.5717    6.9634   -7.3347 H   0  0  0  0  0  0  0  0  0  0  0  0
   11.1181    8.6447   -6.3756 H   0  0  0  0  0  0  0  0  0  0  0  0
    8.2590   12.4365   -8.7202 H   0  0  0  0  0  0  0  0  0  0  0  0
   10.5465   15.0771   -7.8373 H   0  0  0  0  0  0  0  0  0  0  0  0
    8.4720   16.0620   -6.9093 H   0  0  0  0  0  0  0  0  0  0  0  0
    7.6055   14.4671   -7.0019 H   0  0  0  0  0  0  0  0  0  0  0  0
    8.8857   15.9765   -9.3972 H   0  0  0  0  0  0  0  0  0  0  0  0
    8.0176   14.3927   -9.5057 H   0  0  0  0  0  0  0  0  0  0  0  0
    7.3338   10.2347   -9.0371 H   0  0  0  0  0  0  0  0  0  0  0  0
    6.5722    5.4246   -9.8153 H   0  0  0  0  0  0  0  0  0  0  0  0
    5.9326    3.3284   -8.6724 H   0  0  0  0  0  0  0  0  0  0  0  0
    3.0315   -0.0760   -3.5823 H   0  0  0  0  0  0  0  0  0  0  0  0
  1  2  1  0  0  0  0
  1 35  1  0  0  0  0
  1 36  1  0  0  0  0
  1 37  1  0  0  0  0
  2  3  1  0  0  0  0
  2  4  1  0  0  0  0
  2  5  1  0  0  0  0
  5  6  1  0  0  0  0
  5 34  2  0  0  0  0
  6  7  2  0  0  0  0
  6 38  1  0  0  0  0
  7  8  1  0  0  0  0
  7 39  1  0  0  0  0
  8  9  1  0  0  0  0
  8 10  2  0  0  0  0
 10 11  1  0  0  0  0
 10 34  1  0  0  0  0
 11 12  1  0  0  0  0
 11 40  1  0  0  0  0
 12 13  2  0  0  0  0
 12 14  1  0  0  0  0
 14 15  1  0  0  0  0
 14 41  1  0  0  0  0
 15 16  1  0  0  0  0
 15 33  2  0  0  0  0
 16 17  2  0  0  0  0
 16 42  1  0  0  0  0
 17 18  1  0  0  0  0
 17 43  1  0  0  0  0
 18 19  1  0  0  0  0
 18 32  2  0  0  0  0
 19 20  1  0  0  0  0
 20 21  1  0  0  0  0
 20 31  2  0  0  0  0
 21 22  2  0  0  0  0
 21 44  1  0  0  0  0
 22 23  1  0  0  0  0
 22 45  1  0  0  0  0
 23 24  2  0  0  0  0
 24 25  1  0  0  0  0
 24 31  1  0  0  0  0
 25 26  1  0  0  0  0
 25 46  1  0  0  0  0
 26 27  2  0  0  0  0
 26 28  1  0  0  0  0
 28 29  1  0  0  0  0
 28 30  1  0  0  0  0
 28 47  1  0  0  0  0
 29 30  1  0  0  0  0
 29 48  1  0  0  0  0
 29 49  1  0  0  0  0
 30 50  1  0  0  0  0
 30 51  1  0  0  0  0
 31 52  1  0  0  0  0
 32 33  1  0  0  0  0
 32 53  1  0  0  0  0
 33 54  1  0  0  0  0
 34 55  1  0  0  0  0
M  END
$$$$
