CHEMBL3678953
 OpenBabel04072215373D

 67 71  0  0  0  0  0  0  0  0999 V2000
    8.8995   -3.3161   -1.5243 C   0  0  0  0  0  0  0  0  0  0  0  0
    8.3360   -2.1801   -0.8728 O   0  0  0  0  0  0  0  0  0  0  0  0
    7.6596   -2.4188    0.2907 C   0  0  0  0  0  0  0  0  0  0  0  0
    7.4624   -3.6641    0.8734 C   0  0  0  0  0  0  0  0  0  0  0  0
    6.7797   -3.7697    2.0900 C   0  0  0  0  0  0  0  0  0  0  0  0
    6.2597   -2.6486    2.7528 C   0  0  0  0  0  0  0  0  0  0  0  0
    5.5739   -2.7284    3.9895 N   0  0  0  0  0  0  0  0  0  0  0  0
    5.0756   -3.8632    4.5420 C   0  0  0  0  0  0  0  0  0  0  0  0
    4.9214   -5.0215    3.9394 N   0  0  0  0  0  0  0  0  0  0  0  0
    4.3557   -5.8525    4.8502 C   0  0  0  0  0  0  0  0  0  0  0  0
    3.9910   -7.1772    4.7663 C   0  0  0  0  0  0  0  0  0  0  0  0
    3.4602   -7.7759    5.8478 N   0  0  0  0  0  0  0  0  0  0  0  0
    3.2661   -7.0668    6.9832 C   0  0  0  0  0  0  0  0  0  0  0  0
    2.6930   -7.7459    8.0585 N   0  0  0  0  0  0  0  0  0  0  0  0
    2.7232   -9.1272    8.3057 C   0  0  0  0  0  0  0  0  0  0  0  0
    3.7923   -9.9215    7.8828 C   0  0  0  0  0  0  0  0  0  0  0  0
    3.7752  -11.3083    8.0408 C   0  0  0  0  0  0  0  0  0  0  0  0
    2.6854  -11.9688    8.6180 C   0  0  0  0  0  0  0  0  0  0  0  0
    2.7454  -13.3438    8.7892 N   0  0  0  0  0  0  0  0  0  0  0  0
    1.9225  -14.0120    9.8052 C   0  0  0  0  0  0  0  0  0  0  0  0
    2.6014  -15.3465   10.1980 C   0  0  0  0  0  0  0  0  0  0  0  0
    2.8088  -16.2478    9.0398 N   0  0  0  0  0  0  0  0  0  0  0  0
    3.5115  -17.4596    9.4578 C   0  0  0  0  0  0  0  0  0  0  0  0
    3.5834  -15.5339    7.9957 C   0  0  0  0  0  0  0  0  0  0  0  0
    2.9560  -14.1774    7.5873 C   0  0  0  0  0  0  0  0  0  0  0  0
    1.6181  -11.1700    9.0468 C   0  0  0  0  0  0  0  0  0  0  0  0
    1.6342   -9.7697    8.8950 C   0  0  0  0  0  0  0  0  0  0  0  0
    3.5586   -5.7550    7.1467 N   0  0  0  0  0  0  0  0  0  0  0  0
    4.1300   -5.2087    6.0538 C   0  0  0  0  0  0  0  0  0  0  0  0
    4.6367   -3.9378    5.8638 N   0  0  0  0  0  0  0  0  0  0  0  0
    4.7301   -2.8712    6.8523 C   0  0  0  0  0  0  0  0  0  0  0  0
    3.4795   -1.9958    6.8225 C   0  0  0  0  0  0  0  0  0  0  0  0
    5.0414   -3.3257    8.2833 C   0  0  0  0  0  0  0  0  0  0  0  0
    6.4499   -1.4015    2.1436 C   0  0  0  0  0  0  0  0  0  0  0  0
    7.1436   -1.2895    0.9289 C   0  0  0  0  0  0  0  0  0  0  0  0
    9.4876   -2.9585   -2.3738 H   0  0  0  0  0  0  0  0  0  0  0  0
    8.1123   -3.9705   -1.9113 H   0  0  0  0  0  0  0  0  0  0  0  0
    9.5798   -3.8643   -0.8636 H   0  0  0  0  0  0  0  0  0  0  0  0
    7.8272   -4.5803    0.4226 H   0  0  0  0  0  0  0  0  0  0  0  0
    6.6805   -4.7650    2.5123 H   0  0  0  0  0  0  0  0  0  0  0  0
    5.3397   -1.8241    4.3774 H   0  0  0  0  0  0  0  0  0  0  0  0
    4.1193   -7.7764    3.8750 H   0  0  0  0  0  0  0  0  0  0  0  0
    2.3698   -7.1376    8.7917 H   0  0  0  0  0  0  0  0  0  0  0  0
    4.6728   -9.4673    7.4327 H   0  0  0  0  0  0  0  0  0  0  0  0
    4.6509  -11.8717    7.7302 H   0  0  0  0  0  0  0  0  0  0  0  0
    0.9121  -14.1993    9.4188 H   0  0  0  0  0  0  0  0  0  0  0  0
    1.8369  -13.3981   10.7092 H   0  0  0  0  0  0  0  0  0  0  0  0
    1.9756  -15.8468   10.9459 H   0  0  0  0  0  0  0  0  0  0  0  0
    3.5667  -15.1197   10.6736 H   0  0  0  0  0  0  0  0  0  0  0  0
    2.9320  -17.9953   10.2181 H   0  0  0  0  0  0  0  0  0  0  0  0
    4.5037  -17.2452    9.8714 H   0  0  0  0  0  0  0  0  0  0  0  0
    3.6319  -18.1442    8.6116 H   0  0  0  0  0  0  0  0  0  0  0  0
    3.6549  -16.1653    7.1017 H   0  0  0  0  0  0  0  0  0  0  0  0
    4.6074  -15.3480    8.3481 H   0  0  0  0  0  0  0  0  0  0  0  0
    1.9943  -14.3492    7.0854 H   0  0  0  0  0  0  0  0  0  0  0  0
    3.6201  -13.7013    6.8567 H   0  0  0  0  0  0  0  0  0  0  0  0
    0.7301  -11.6244    9.4773 H   0  0  0  0  0  0  0  0  0  0  0  0
    0.7643   -9.1976    9.2037 H   0  0  0  0  0  0  0  0  0  0  0  0
    5.5869   -2.2509    6.5522 H   0  0  0  0  0  0  0  0  0  0  0  0
    2.5793   -2.5814    7.0385 H   0  0  0  0  0  0  0  0  0  0  0  0
    3.3489   -1.5368    5.8365 H   0  0  0  0  0  0  0  0  0  0  0  0
    3.5479   -1.1877    7.5584 H   0  0  0  0  0  0  0  0  0  0  0  0
    4.2199   -3.8946    8.7272 H   0  0  0  0  0  0  0  0  0  0  0  0
    5.2100   -2.4554    8.9303 H   0  0  0  0  0  0  0  0  0  0  0  0
    5.9460   -3.9424    8.3160 H   0  0  0  0  0  0  0  0  0  0  0  0
    6.0617   -0.4959    2.6011 H   0  0  0  0  0  0  0  0  0  0  0  0
    7.2846   -0.3104    0.4777 H   0  0  0  0  0  0  0  0  0  0  0  0
  1  2  1  0  0  0  0
  1 36  1  0  0  0  0
  1 37  1  0  0  0  0
  1 38  1  0  0  0  0
  2  3  1  0  0  0  0
  3  4  1  0  0  0  0
  3 35  2  0  0  0  0
  4  5  2  0  0  0  0
  4 39  1  0  0  0  0
  5  6  1  0  0  0  0
  5 40  1  0  0  0  0
  6  7  1  0  0  0  0
  6 34  2  0  0  0  0
  7  8  1  0  0  0  0
  7 41  1  0  0  0  0
  8  9  2  0  0  0  0
  8 30  1  0  0  0  0
  9 10  1  0  0  0  0
 10 11  1  0  0  0  0
 10 29  2  0  0  0  0
 11 12  2  0  0  0  0
 11 42  1  0  0  0  0
 12 13  1  0  0  0  0
 13 14  1  0  0  0  0
 13 28  2  0  0  0  0
 14 15  1  0  0  0  0
 14 43  1  0  0  0  0
 15 16  1  0  0  0  0
 15 27  2  0  0  0  0
 16 17  2  0  0  0  0
 16 44  1  0  0  0  0
 17 18  1  0  0  0  0
 17 45  1  0  0  0  0
 18 19  1  0  0  0  0
 18 26  2  0  0  0  0
 19 20  1  0  0  0  0
 19 25  1  0  0  0  0
 20 21  1  0  0  0  0
 20 46  1  0  0  0  0
 20 47  1  0  0  0  0
 21 22  1  0  0  0  0
 21 48  1  0  0  0  0
 21 49  1  0  0  0  0
 22 23  1  0  0  0  0
 22 24  1  0  0  0  0
 23 50  1  0  0  0  0
 23 51  1  0  0  0  0
 23 52  1  0  0  0  0
 24 25  1  0  0  0  0
 24 53  1  0  0  0  0
 24 54  1  0  0  0  0
 25 55  1  0  0  0  0
 25 56  1  0  0  0  0
 26 27  1  0  0  0  0
 26 57  1  0  0  0  0
 27 58  1  0  0  0  0
 28 29  1  0  0  0  0
 29 30  1  0  0  0  0
 30 31  1  0  0  0  0
 31 32  1  0  0  0  0
 31 33  1  0  0  0  0
 31 59  1  0  0  0  0
 32 60  1  0  0  0  0
 32 61  1  0  0  0  0
 32 62  1  0  0  0  0
 33 63  1  0  0  0  0
 33 64  1  0  0  0  0
 33 65  1  0  0  0  0
 34 35  1  0  0  0  0
 34 66  1  0  0  0  0
 35 67  1  0  0  0  0
M  END
$$$$
