CHEMBL599446
 OpenBabel04072215383D

 37 40  0  0  0  0  0  0  0  0999 V2000
    1.1226   -0.5390    0.5298 O   0  0  0  0  0  0  0  0  0  0  0  0
    2.2766   -0.2559    0.2105 C   0  0  0  0  0  0  0  0  0  0  0  0
    2.9786   -0.9567   -0.9290 C   0  0  0  0  0  0  0  0  0  0  0  0
    4.2204   -1.6207   -0.4430 C   0  0  0  0  0  0  0  0  0  0  0  0
    4.3293   -2.9881   -0.3309 C   0  0  0  0  0  0  0  0  0  0  0  0
    5.4066   -3.6080    0.1827 N   0  0  0  0  0  0  0  0  0  0  0  0
    6.4304   -2.8259    0.5498 C   0  0  0  0  0  0  0  0  0  0  0  0
    7.5216   -3.4760    1.1195 N   0  0  0  0  0  0  0  0  0  0  0  0
    8.8579   -3.0679    1.1921 C   0  0  0  0  0  0  0  0  0  0  0  0
    9.6669   -3.5261    2.2385 C   0  0  0  0  0  0  0  0  0  0  0  0
   10.9719   -3.0526    2.4008 C   0  0  0  0  0  0  0  0  0  0  0  0
   11.4823   -2.1149    1.5021 C   0  0  0  0  0  0  0  0  0  0  0  0
   12.7477   -1.6259    1.6695 O   0  0  0  0  0  0  0  0  0  0  0  0
   10.6993   -1.6689    0.4380 C   0  0  0  0  0  0  0  0  0  0  0  0
   11.2923   -0.5264   -0.7111 Cl  0  0  0  0  0  0  0  0  0  0  0  0
    9.3951   -2.1383    0.2937 C   0  0  0  0  0  0  0  0  0  0  0  0
    6.4200   -1.4827    0.4488 N   0  0  0  0  0  0  0  0  0  0  0  0
    5.2990   -0.8871   -0.0068 C   0  0  0  0  0  0  0  0  0  0  0  0
    5.2730    0.5873    0.0350 C   0  0  0  0  0  0  0  0  0  0  0  0
    6.3883    1.3336   -0.3447 C   0  0  0  0  0  0  0  0  0  0  0  0
    6.4545    2.6907   -0.3492 N   0  0  0  0  0  0  0  0  0  0  0  0
    5.3802    3.3564    0.1116 C   0  0  0  0  0  0  0  0  0  0  0  0
    4.2401    2.7300    0.5722 C   0  0  0  0  0  0  0  0  0  0  0  0
    4.1649    1.3376    0.4825 C   0  0  0  0  0  0  0  0  0  0  0  0
    2.9197    0.7787    0.8374 N   0  0  0  0  0  0  0  0  0  0  0  0
    3.2055   -0.2342   -1.7243 H   0  0  0  0  0  0  0  0  0  0  0  0
    2.2911   -1.6860   -1.3710 H   0  0  0  0  0  0  0  0  0  0  0  0
    3.5264   -3.6521   -0.6401 H   0  0  0  0  0  0  0  0  0  0  0  0
    7.3179   -4.4466    1.2940 H   0  0  0  0  0  0  0  0  0  0  0  0
    9.2701   -4.2358    2.9634 H   0  0  0  0  0  0  0  0  0  0  0  0
   11.5680   -3.4110    3.2343 H   0  0  0  0  0  0  0  0  0  0  0  0
   13.0902   -1.9121    2.5308 H   0  0  0  0  0  0  0  0  0  0  0  0
    8.7960   -1.7829   -0.5403 H   0  0  0  0  0  0  0  0  0  0  0  0
    7.2984    0.8459   -0.6906 H   0  0  0  0  0  0  0  0  0  0  0  0
    5.4504    4.4401    0.0831 H   0  0  0  0  0  0  0  0  0  0  0  0
    3.4023    3.3260    0.9186 H   0  0  0  0  0  0  0  0  0  0  0  0
    2.3017    1.3111    1.4403 H   0  0  0  0  0  0  0  0  0  0  0  0
  1  2  2  0  0  0  0
  2  3  1  0  0  0  0
  2 25  1  0  0  0  0
  3  4  1  0  0  0  0
  3 26  1  0  0  0  0
  3 27  1  0  0  0  0
  4  5  1  0  0  0  0
  4 18  2  0  0  0  0
  5  6  2  0  0  0  0
  5 28  1  0  0  0  0
  6  7  1  0  0  0  0
  7  8  1  0  0  0  0
  7 17  2  0  0  0  0
  8  9  1  0  0  0  0
  8 29  1  0  0  0  0
  9 10  1  0  0  0  0
  9 16  2  0  0  0  0
 10 11  2  0  0  0  0
 10 30  1  0  0  0  0
 11 12  1  0  0  0  0
 11 31  1  0  0  0  0
 12 13  1  0  0  0  0
 12 14  2  0  0  0  0
 13 32  1  0  0  0  0
 14 15  1  0  0  0  0
 14 16  1  0  0  0  0
 16 33  1  0  0  0  0
 17 18  1  0  0  0  0
 18 19  1  0  0  0  0
 19 20  1  0  0  0  0
 19 24  2  0  0  0  0
 20 21  2  0  0  0  0
 20 34  1  0  0  0  0
 21 22  1  0  0  0  0
 22 23  2  0  0  0  0
 22 35  1  0  0  0  0
 23 24  1  0  0  0  0
 23 36  1  0  0  0  0
 24 25  1  0  0  0  0
 25 37  1  0  0  0  0
M  END
$$$$
