CHEMBL4529255
 OpenBabel04072215383D

 51 53  0  0  0  0  0  0  0  0999 V2000
    2.6768   -0.9280    0.7882 O   0  0  0  0  0  0  0  0  0  0  0  0
    2.2379    0.0051    0.1278 C   0  0  0  0  0  0  0  0  0  0  0  0
    0.7363    0.2779    0.0928 C   0  0  0  0  0  0  0  0  0  0  0  0
    0.0153   -0.2688    1.3371 C   0  0  0  0  0  0  0  0  0  0  0  0
   -1.7707    0.0753    1.1667 S   0  0  0  0  0  0  0  0  0  0  0  0
   -2.4719   -0.6406    2.6303 C   0  0  0  0  0  0  0  0  0  0  0  0
   -2.0772   -0.0263    4.1449 S   0  0  0  0  0  0  0  0  0  0  0  0
   -3.4757   -1.5867    2.3913 N   0  0  0  0  0  0  0  0  0  0  0  0
   -3.4972   -2.4881    1.2254 C   0  0  0  0  0  0  0  0  0  0  0  0
   -4.9038   -2.5893    0.6275 C   0  0  0  0  0  0  0  0  0  0  0  0
   -5.8632   -2.9854    1.6194 O   0  0  0  0  0  0  0  0  0  0  0  0
   -5.8855   -2.0462    2.7047 C   0  0  0  0  0  0  0  0  0  0  0  0
   -4.5102   -1.9500    3.3838 C   0  0  0  0  0  0  0  0  0  0  0  0
    2.9993    0.8746   -0.6625 N   0  0  0  0  0  0  0  0  0  0  0  0
    4.4087    0.7979   -0.8563 C   0  0  0  0  0  0  0  0  0  0  0  0
    5.1177   -0.3797   -0.5958 C   0  0  0  0  0  0  0  0  0  0  0  0
    6.5060   -0.4145   -0.7028 C   0  0  0  0  0  0  0  0  0  0  0  0
    7.2023    0.7064   -1.1341 C   0  0  0  0  0  0  0  0  0  0  0  0
    6.5249    1.8614   -1.5292 C   0  0  0  0  0  0  0  0  0  0  0  0
    7.2170    2.9481   -2.1254 N   0  0  0  0  0  0  0  0  0  0  0  0
    8.4941    2.8771   -2.6859 C   0  0  0  0  0  0  0  0  0  0  0  0
    9.2159    1.8879   -2.7438 O   0  0  0  0  0  0  0  0  0  0  0  0
    8.9767    4.1387   -3.3384 C   0  0  0  0  0  0  0  0  0  0  0  0
   10.2304    4.1520   -3.9533 C   0  0  0  0  0  0  0  0  0  0  0  0
   10.6434    5.3137   -4.5981 C   0  0  0  0  0  0  0  0  0  0  0  0
    9.7961    6.4140   -4.6082 C   0  0  0  0  0  0  0  0  0  0  0  0
    8.5686    6.3141   -3.9648 C   0  0  0  0  0  0  0  0  0  0  0  0
    8.1297    5.2045   -3.3258 N   0  0  0  0  0  0  0  0  0  0  0  0
    5.1229    1.9127   -1.3496 C   0  0  0  0  0  0  0  0  0  0  0  0
    0.3504   -0.2193   -0.8103 H   0  0  0  0  0  0  0  0  0  0  0  0
    0.5657    1.3532   -0.0027 H   0  0  0  0  0  0  0  0  0  0  0  0
    0.4085    0.2217    2.2333 H   0  0  0  0  0  0  0  0  0  0  0  0
    0.1675   -1.3479    1.4478 H   0  0  0  0  0  0  0  0  0  0  0  0
   -3.1933   -3.4711    1.6071 H   0  0  0  0  0  0  0  0  0  0  0  0
   -2.7764   -2.2119    0.4559 H   0  0  0  0  0  0  0  0  0  0  0  0
   -4.9159   -3.3455   -0.1636 H   0  0  0  0  0  0  0  0  0  0  0  0
   -5.2171   -1.6354    0.1877 H   0  0  0  0  0  0  0  0  0  0  0  0
   -6.6404   -2.3841    3.4219 H   0  0  0  0  0  0  0  0  0  0  0  0
   -6.2025   -1.0685    2.3212 H   0  0  0  0  0  0  0  0  0  0  0  0
   -4.2284   -2.9262    3.7964 H   0  0  0  0  0  0  0  0  0  0  0  0
   -4.5706   -1.2300    4.2026 H   0  0  0  0  0  0  0  0  0  0  0  0
    2.5401    1.7044   -1.0223 H   0  0  0  0  0  0  0  0  0  0  0  0
    4.6154   -1.3003   -0.3223 H   0  0  0  0  0  0  0  0  0  0  0  0
    7.0494   -1.3246   -0.4612 H   0  0  0  0  0  0  0  0  0  0  0  0
    8.2857    0.6433   -1.1596 H   0  0  0  0  0  0  0  0  0  0  0  0
    6.7206    3.8199   -2.2892 H   0  0  0  0  0  0  0  0  0  0  0  0
   10.8678    3.2727   -3.9409 H   0  0  0  0  0  0  0  0  0  0  0  0
   11.6104    5.3542   -5.0900 H   0  0  0  0  0  0  0  0  0  0  0  0
   10.0847    7.3323   -5.1101 H   0  0  0  0  0  0  0  0  0  0  0  0
    7.8821    7.1569   -3.9543 H   0  0  0  0  0  0  0  0  0  0  0  0
    4.5897    2.8262   -1.6044 H   0  0  0  0  0  0  0  0  0  0  0  0
  1  2  2  0  0  0  0
  2  3  1  0  0  0  0
  2 14  1  0  0  0  0
  3  4  1  0  0  0  0
  3 30  1  0  0  0  0
  3 31  1  0  0  0  0
  4  5  1  0  0  0  0
  4 32  1  0  0  0  0
  4 33  1  0  0  0  0
  5  6  1  0  0  0  0
  6  7  2  0  0  0  0
  6  8  1  0  0  0  0
  8  9  1  0  0  0  0
  8 13  1  0  0  0  0
  9 10  1  0  0  0  0
  9 34  1  0  0  0  0
  9 35  1  0  0  0  0
 10 11  1  0  0  0  0
 10 36  1  0  0  0  0
 10 37  1  0  0  0  0
 11 12  1  0  0  0  0
 12 13  1  0  0  0  0
 12 38  1  0  0  0  0
 12 39  1  0  0  0  0
 13 40  1  0  0  0  0
 13 41  1  0  0  0  0
 14 15  1  0  0  0  0
 14 42  1  0  0  0  0
 15 16  1  0  0  0  0
 15 29  2  0  0  0  0
 16 17  2  0  0  0  0
 16 43  1  0  0  0  0
 17 18  1  0  0  0  0
 17 44  1  0  0  0  0
 18 19  2  0  0  0  0
 18 45  1  0  0  0  0
 19 20  1  0  0  0  0
 19 29  1  0  0  0  0
 20 21  1  0  0  0  0
 20 46  1  0  0  0  0
 21 22  2  0  0  0  0
 21 23  1  0  0  0  0
 23 24  1  0  0  0  0
 23 28  2  0  0  0  0
 24 25  2  0  0  0  0
 24 47  1  0  0  0  0
 25 26  1  0  0  0  0
 25 48  1  0  0  0  0
 26 27  2  0  0  0  0
 26 49  1  0  0  0  0
 27 28  1  0  0  0  0
 27 50  1  0  0  0  0
 29 51  1  0  0  0  0
M  END
$$$$
