CHEMBL1080299
 OpenBabel04072215353D

 57 61  0  0  0  0  0  0  0  0999 V2000
    2.3911   -0.1354   -0.5996 C   0  0  0  0  0  0  0  0  0  0  0  0
    0.9102   -0.0453   -0.3790 C   0  0  0  0  0  0  0  0  0  0  0  0
    0.2449    1.1785   -0.2969 C   0  0  0  0  0  0  0  0  0  0  0  0
   -1.1353    1.2226   -0.0613 C   0  0  0  0  0  0  0  0  0  0  0  0
   -1.8705    0.0452    0.1023 C   0  0  0  0  0  0  0  0  0  0  0  0
   -1.2126   -1.1828    0.0247 C   0  0  0  0  0  0  0  0  0  0  0  0
   -1.8764   -2.4784    0.3060 C   0  0  0  0  0  0  0  0  0  0  0  0
   -1.1718   -3.3474    0.8209 O   0  0  0  0  0  0  0  0  0  0  0  0
   -3.1987   -2.6225   -0.0795 N   0  0  0  0  0  0  0  0  0  0  0  0
   -3.9388   -3.8299    0.0510 C   0  0  0  0  0  0  0  0  0  0  0  0
   -3.5236   -4.8813    0.8619 C   0  0  0  0  0  0  0  0  0  0  0  0
   -4.1626   -6.1149    0.7984 C   0  0  0  0  0  0  0  0  0  0  0  0
   -5.2799   -6.3072   -0.0263 C   0  0  0  0  0  0  0  0  0  0  0  0
   -5.7731   -7.7177   -0.2011 C   0  0  0  0  0  0  0  0  0  0  0  0
   -5.8523   -5.1976   -0.6897 C   0  0  0  0  0  0  0  0  0  0  0  0
   -7.0954   -5.3347   -1.3676 N   0  0  0  0  0  0  0  0  0  0  0  0
   -7.8968   -4.3222   -1.8124 C   0  0  0  0  0  0  0  0  0  0  0  0
   -7.5672   -3.0600   -1.9893 N   0  0  0  0  0  0  0  0  0  0  0  0
   -8.6576   -2.4324   -2.5019 C   0  0  0  0  0  0  0  0  0  0  0  0
   -8.7953   -1.0818   -2.8563 C   0  0  0  0  0  0  0  0  0  0  0  0
  -10.0182   -0.6323   -3.3573 C   0  0  0  0  0  0  0  0  0  0  0  0
  -11.0970   -1.5048   -3.4637 C   0  0  0  0  0  0  0  0  0  0  0  0
  -10.9820   -2.8500   -3.0897 C   0  0  0  0  0  0  0  0  0  0  0  0
   -9.7249   -3.3106   -2.6513 C   0  0  0  0  0  0  0  0  0  0  0  0
   -9.2188   -4.5444   -2.2326 N   0  0  0  0  0  0  0  0  0  0  0  0
   -9.8979   -5.8022   -2.2360 C   0  0  0  0  0  0  0  0  0  0  0  0
  -10.8792   -6.0436   -3.1778 C   0  0  0  0  0  0  0  0  0  0  0  0
  -11.5034   -7.2686   -3.1291 C   0  0  0  0  0  0  0  0  0  0  0  0
  -12.4946   -7.5813   -4.0578 N   0  0  0  0  0  0  0  0  0  0  0  0
  -11.2297   -8.1812   -2.1949 N   0  0  0  0  0  0  0  0  0  0  0  0
  -10.2550   -7.8672   -1.3304 C   0  0  0  0  0  0  0  0  0  0  0  0
   -9.5316   -6.7354   -1.3259 N   0  0  0  0  0  0  0  0  0  0  0  0
   -5.1202   -3.9875   -0.6822 C   0  0  0  0  0  0  0  0  0  0  0  0
    0.1690   -1.2201   -0.2205 C   0  0  0  0  0  0  0  0  0  0  0  0
    2.8499    0.8556   -0.6695 H   0  0  0  0  0  0  0  0  0  0  0  0
    2.6008   -0.6740   -1.5296 H   0  0  0  0  0  0  0  0  0  0  0  0
    2.8654   -0.6668    0.2331 H   0  0  0  0  0  0  0  0  0  0  0  0
    0.7997    2.1094   -0.3945 H   0  0  0  0  0  0  0  0  0  0  0  0
   -1.6312    2.1876    0.0244 H   0  0  0  0  0  0  0  0  0  0  0  0
   -2.9297    0.1024    0.3352 H   0  0  0  0  0  0  0  0  0  0  0  0
   -3.6110   -1.9074   -0.6665 H   0  0  0  0  0  0  0  0  0  0  0  0
   -2.6764   -4.7890    1.5326 H   0  0  0  0  0  0  0  0  0  0  0  0
   -3.7523   -6.9345    1.3843 H   0  0  0  0  0  0  0  0  0  0  0  0
   -5.1571   -8.4261    0.3669 H   0  0  0  0  0  0  0  0  0  0  0  0
   -5.6905   -8.0081   -1.2545 H   0  0  0  0  0  0  0  0  0  0  0  0
   -6.8041   -7.8293    0.1401 H   0  0  0  0  0  0  0  0  0  0  0  0
   -7.5621   -6.2205   -1.1752 H   0  0  0  0  0  0  0  0  0  0  0  0
   -7.9557   -0.4056   -2.7380 H   0  0  0  0  0  0  0  0  0  0  0  0
  -10.1290    0.4092   -3.6484 H   0  0  0  0  0  0  0  0  0  0  0  0
  -12.0504   -1.1329   -3.8348 H   0  0  0  0  0  0  0  0  0  0  0  0
  -11.8586   -3.4872   -3.1364 H   0  0  0  0  0  0  0  0  0  0  0  0
  -11.1297   -5.3510   -3.9674 H   0  0  0  0  0  0  0  0  0  0  0  0
  -12.1839   -7.4429   -5.0137 H   0  0  0  0  0  0  0  0  0  0  0  0
  -12.7883   -8.5410   -3.8940 H   0  0  0  0  0  0  0  0  0  0  0  0
  -10.0334   -8.6002   -0.5613 H   0  0  0  0  0  0  0  0  0  0  0  0
   -5.4533   -3.1549   -1.2907 H   0  0  0  0  0  0  0  0  0  0  0  0
    0.6805   -2.1811   -0.2582 H   0  0  0  0  0  0  0  0  0  0  0  0
  1  2  1  0  0  0  0
  1 35  1  0  0  0  0
  1 36  1  0  0  0  0
  1 37  1  0  0  0  0
  2  3  1  0  0  0  0
  2 34  2  0  0  0  0
  3  4  2  0  0  0  0
  3 38  1  0  0  0  0
  4  5  1  0  0  0  0
  4 39  1  0  0  0  0
  5  6  2  0  0  0  0
  5 40  1  0  0  0  0
  6  7  1  0  0  0  0
  6 34  1  0  0  0  0
  7  8  2  0  0  0  0
  7  9  1  0  0  0  0
  9 10  1  0  0  0  0
  9 41  1  0  0  0  0
 10 11  1  0  0  0  0
 10 33  2  0  0  0  0
 11 12  2  0  0  0  0
 11 42  1  0  0  0  0
 12 13  1  0  0  0  0
 12 43  1  0  0  0  0
 13 14  1  0  0  0  0
 13 15  2  0  0  0  0
 14 44  1  0  0  0  0
 14 45  1  0  0  0  0
 14 46  1  0  0  0  0
 15 16  1  0  0  0  0
 15 33  1  0  0  0  0
 16 17  1  0  0  0  0
 16 47  1  0  0  0  0
 17 18  2  0  0  0  0
 17 25  1  0  0  0  0
 18 19  1  0  0  0  0
 19 20  1  0  0  0  0
 19 24  2  0  0  0  0
 20 21  2  0  0  0  0
 20 48  1  0  0  0  0
 21 22  1  0  0  0  0
 21 49  1  0  0  0  0
 22 23  2  0  0  0  0
 22 50  1  0  0  0  0
 23 24  1  0  0  0  0
 23 51  1  0  0  0  0
 24 25  1  0  0  0  0
 25 26  1  0  0  0  0
 26 27  1  0  0  0  0
 26 32  2  0  0  0  0
 27 28  2  0  0  0  0
 27 52  1  0  0  0  0
 28 29  1  0  0  0  0
 28 30  1  0  0  0  0
 29 53  1  0  0  0  0
 29 54  1  0  0  0  0
 30 31  2  0  0  0  0
 31 32  1  0  0  0  0
 31 55  1  0  0  0  0
 33 56  1  0  0  0  0
 34 57  1  0  0  0  0
M  END
$$$$
