CHEMBL3967141
 OpenBabel04072215373D

 45 48  0  0  0  0  0  0  0  0999 V2000
    2.8530   -0.0600   -0.9067 C   0  0  0  0  0  0  0  0  0  0  0  0
    1.3971   -0.0271   -0.5384 C   0  0  0  0  0  0  0  0  0  0  0  0
    0.7186   -1.1762   -0.1290 C   0  0  0  0  0  0  0  0  0  0  0  0
   -0.6365   -1.1061    0.2121 C   0  0  0  0  0  0  0  0  0  0  0  0
   -1.3249    0.1107    0.1422 C   0  0  0  0  0  0  0  0  0  0  0  0
   -2.6214    0.1296    0.4867 F   0  0  0  0  0  0  0  0  0  0  0  0
   -0.6775    1.2699   -0.2715 C   0  0  0  0  0  0  0  0  0  0  0  0
   -1.3313    2.6064   -0.4056 C   0  0  0  0  0  0  0  0  0  0  0  0
   -0.6182    3.5136   -0.8328 O   0  0  0  0  0  0  0  0  0  0  0  0
   -2.6597    2.7674   -0.0134 N   0  0  0  0  0  0  0  0  0  0  0  0
   -3.3639    4.0074   -0.0550 C   0  0  0  0  0  0  0  0  0  0  0  0
   -2.9268    5.0998   -0.8114 C   0  0  0  0  0  0  0  0  0  0  0  0
   -3.5452    6.3544   -0.7183 C   0  0  0  0  0  0  0  0  0  0  0  0
   -4.6350    6.5452    0.1249 C   0  0  0  0  0  0  0  0  0  0  0  0
   -5.1638    7.8745    0.2997 C   0  0  0  0  0  0  0  0  0  0  0  0
   -5.5516    9.0047    0.4602 C   0  0  0  0  0  0  0  0  0  0  0  0
   -6.0673   10.3390    0.6999 C   0  0  0  0  0  0  0  0  0  0  0  0
   -7.4101   10.5204    1.3031 C   0  0  0  0  0  0  0  0  0  0  0  0
   -7.8266   11.7765    1.5017 C   0  0  0  0  0  0  0  0  0  0  0  0
   -6.9871   12.8476    1.1331 C   0  0  0  0  0  0  0  0  0  0  0  0
   -7.1667   14.1506    1.2191 N   0  0  0  0  0  0  0  0  0  0  0  0
   -6.0300   14.6840    0.7079 C   0  0  0  0  0  0  0  0  0  0  0  0
   -5.8900   16.0044    0.6331 N   0  0  0  0  0  0  0  0  0  0  0  0
   -5.1309   13.7273    0.3116 C   0  0  0  0  0  0  0  0  0  0  0  0
   -5.7520   12.5324    0.5805 N   0  0  0  0  0  0  0  0  0  0  0  0
   -5.2435   11.2753    0.3419 N   0  0  0  0  0  0  0  0  0  0  0  0
   -5.1482    5.4382    0.8109 C   0  0  0  0  0  0  0  0  0  0  0  0
   -4.5238    4.1732    0.7124 C   0  0  0  0  0  0  0  0  0  0  0  0
    0.6919    1.1840   -0.6043 C   0  0  0  0  0  0  0  0  0  0  0  0
    3.2691   -1.0691   -0.8212 H   0  0  0  0  0  0  0  0  0  0  0  0
    3.4262    0.5967   -0.2435 H   0  0  0  0  0  0  0  0  0  0  0  0
    2.9887    0.2718   -1.9416 H   0  0  0  0  0  0  0  0  0  0  0  0
    1.2395   -2.1306   -0.0726 H   0  0  0  0  0  0  0  0  0  0  0  0
   -1.1601   -2.0030    0.5315 H   0  0  0  0  0  0  0  0  0  0  0  0
   -3.1086    1.9934    0.4659 H   0  0  0  0  0  0  0  0  0  0  0  0
   -2.0842    5.0161   -1.4906 H   0  0  0  0  0  0  0  0  0  0  0  0
   -3.1381    7.1820   -1.2943 H   0  0  0  0  0  0  0  0  0  0  0  0
   -7.9983    9.6513    1.5598 H   0  0  0  0  0  0  0  0  0  0  0  0
   -8.7927   11.9996    1.9376 H   0  0  0  0  0  0  0  0  0  0  0  0
   -6.6005   16.6010    1.0395 H   0  0  0  0  0  0  0  0  0  0  0  0
   -5.0312   16.4670    0.3624 H   0  0  0  0  0  0  0  0  0  0  0  0
   -4.1496   13.7732   -0.1270 H   0  0  0  0  0  0  0  0  0  0  0  0
   -6.0180    5.5500    1.4545 H   0  0  0  0  0  0  0  0  0  0  0  0
   -4.9319    3.3452    1.2873 H   0  0  0  0  0  0  0  0  0  0  0  0
    1.2239    2.0810   -0.9238 H   0  0  0  0  0  0  0  0  0  0  0  0
  1  2  1  0  0  0  0
  1 30  1  0  0  0  0
  1 31  1  0  0  0  0
  1 32  1  0  0  0  0
  2  3  1  0  0  0  0
  2 29  2  0  0  0  0
  3  4  2  0  0  0  0
  3 33  1  0  0  0  0
  4  5  1  0  0  0  0
  4 34  1  0  0  0  0
  5  6  1  0  0  0  0
  5  7  2  0  0  0  0
  7  8  1  0  0  0  0
  7 29  1  0  0  0  0
  8  9  2  0  0  0  0
  8 10  1  0  0  0  0
 10 11  1  0  0  0  0
 10 35  1  0  0  0  0
 11 12  1  0  0  0  0
 11 28  2  0  0  0  0
 12 13  2  0  0  0  0
 12 36  1  0  0  0  0
 13 14  1  0  0  0  0
 13 37  1  0  0  0  0
 14 15  1  0  0  0  0
 14 27  2  0  0  0  0
 15 16  3  0  0  0  0
 16 17  1  0  0  0  0
 17 18  1  0  0  0  0
 17 26  2  0  0  0  0
 18 19  2  0  0  0  0
 18 38  1  0  0  0  0
 19 20  1  0  0  0  0
 19 39  1  0  0  0  0
 20 21  2  0  0  0  0
 20 25  1  0  0  0  0
 21 22  1  0  0  0  0
 22 23  1  0  0  0  0
 22 24  2  0  0  0  0
 23 40  1  0  0  0  0
 23 41  1  0  0  0  0
 24 25  1  0  0  0  0
 24 42  1  0  0  0  0
 25 26  1  0  0  0  0
 27 28  1  0  0  0  0
 27 43  1  0  0  0  0
 28 44  1  0  0  0  0
 29 45  1  0  0  0  0
M  END
$$$$
