CHEMBL3909596
 OpenBabel04072215373D

 53 57  0  0  1  0  0  0  0  0999 V2000
    2.6308   -0.5054   -0.9518 C   0  0  0  0  0  0  0  0  0  0  0  0
    2.3603   -0.0882    0.3849 O   0  0  0  0  0  0  0  0  0  0  0  0
    3.1538    0.8781    0.9391 C   0  0  0  0  0  0  0  0  0  0  0  0
    4.3533    1.3191    0.3819 C   0  0  0  0  0  0  0  0  0  0  0  0
    5.0640    2.4018    0.9531 C   0  0  0  0  0  0  0  0  0  0  0  0
    6.2054    2.9911    0.4040 C   0  0  0  0  0  0  0  0  0  0  0  0
    6.6855    2.5376   -0.8549 N   0  0  0  0  0  0  0  0  0  0  0  0
    7.9936    2.8087   -1.3105 C   0  0  0  0  0  0  0  0  0  0  0  0
    9.0813    2.5897   -0.4514 C   0  0  0  0  0  0  0  0  0  0  0  0
   10.3673    2.9570   -0.8340 C   0  0  0  0  0  0  0  0  0  0  0  0
   10.5861    3.5296   -2.0827 C   0  0  0  0  0  0  0  0  0  0  0  0
   12.1992    4.0241   -2.4661 Cl  0  0  0  0  0  0  0  0  0  0  0  0
    9.5156    3.7004   -2.9688 C   0  0  0  0  0  0  0  0  0  0  0  0
    9.7167    4.3891   -4.5375 Cl  0  0  0  0  0  0  0  0  0  0  0  0
    8.2238    3.3325   -2.5855 C   0  0  0  0  0  0  0  0  0  0  0  0
    6.8574    4.0013    1.0140 N   0  0  0  0  0  0  0  0  0  0  0  0
    6.3657    4.4302    2.1755 C   0  0  0  0  0  0  0  0  0  0  0  0
    5.2798    3.9508    2.7822 N   0  0  0  0  0  0  0  0  0  0  0  0
    4.6448    2.9540    2.1617 C   0  0  0  0  0  0  0  0  0  0  0  0
    3.5008    2.4586    2.7485 C   0  0  0  0  0  0  0  0  0  0  0  0
    2.7167    1.4734    2.1332 C   0  0  0  0  0  0  0  0  0  0  0  0
    1.5078    1.0704    2.6566 O   0  0  0  0  0  0  0  0  0  0  0  0
    0.9198    2.0151    3.5685 C   0  0  0  0  0  0  0  0  0  0  0  0
   -0.4997    1.7253    3.8718 C   0  0  0  0  0  0  0  0  0  0  0  0
   -1.5071    2.2915    3.1941 N   0  0  0  0  0  0  0  0  0  0  0  0
   -2.6379    1.8170    3.8567 O   0  0  0  0  0  0  0  0  0  0  0  0
   -2.1864    1.0216    4.8719 C   0  0  0  0  0  0  0  0  0  0  0  0
   -3.2036    0.3217    5.6934 C   0  0  3  0  0  0  0  0  0  0  0  0
   -4.0413   -0.6336    4.8619 C   0  0  0  0  0  0  0  0  0  0  0  0
   -5.2345   -0.8906    5.7575 C   0  0  0  0  0  0  0  0  0  0  0  0
   -5.3809    0.3862    6.5815 C   0  0  0  0  0  0  0  0  0  0  0  0
   -4.2133    1.2108    6.2905 N   0  0  0  0  0  0  0  0  0  0  0  0
   -0.8764    0.9520    4.9408 N   0  0  0  0  0  0  0  0  0  0  0  0
    3.2532   -1.4059   -0.9405 H   0  0  0  0  0  0  0  0  0  0  0  0
    3.0910    0.2657   -1.5781 H   0  0  0  0  0  0  0  0  0  0  0  0
    1.6768   -0.7532   -1.4266 H   0  0  0  0  0  0  0  0  0  0  0  0
    4.7672    0.8415   -0.5000 H   0  0  0  0  0  0  0  0  0  0  0  0
    5.9743    2.7014   -1.5603 H   0  0  0  0  0  0  0  0  0  0  0  0
    8.9241    2.1655    0.5378 H   0  0  0  0  0  0  0  0  0  0  0  0
   11.1877    2.8134   -0.1292 H   0  0  0  0  0  0  0  0  0  0  0  0
    7.3904    3.4945   -3.2663 H   0  0  0  0  0  0  0  0  0  0  0  0
    6.8875    5.2415    2.6679 H   0  0  0  0  0  0  0  0  0  0  0  0
    3.2298    2.8985    3.7011 H   0  0  0  0  0  0  0  0  0  0  0  0
    0.9736    3.0295    3.1495 H   0  0  0  0  0  0  0  0  0  0  0  0
    1.4719    1.9875    4.5164 H   0  0  0  0  0  0  0  0  0  0  0  0
   -2.6968   -0.2333    6.4961 H   0  0  0  0  0  0  0  0  0  0  0  0
   -3.5034   -1.5530    4.6080 H   0  0  0  0  0  0  0  0  0  0  0  0
   -4.3733   -0.1725    3.9220 H   0  0  0  0  0  0  0  0  0  0  0  0
   -5.0224   -1.7396    6.4184 H   0  0  0  0  0  0  0  0  0  0  0  0
   -6.1326   -1.1240    5.1777 H   0  0  0  0  0  0  0  0  0  0  0  0
   -5.4432    0.1447    7.6481 H   0  0  0  0  0  0  0  0  0  0  0  0
   -6.2905    0.9276    6.3030 H   0  0  0  0  0  0  0  0  0  0  0  0
   -3.8449    1.6493    7.1372 H   0  0  0  0  0  0  0  0  0  0  0  0
  1  2  1  0  0  0  0
  1 34  1  0  0  0  0
  1 35  1  0  0  0  0
  1 36  1  0  0  0  0
  2  3  1  0  0  0  0
  3  4  1  0  0  0  0
  3 21  2  0  0  0  0
  4  5  2  0  0  0  0
  4 37  1  0  0  0  0
  5  6  1  0  0  0  0
  5 19  1  0  0  0  0
  6  7  1  0  0  0  0
  6 16  2  0  0  0  0
  7  8  1  0  0  0  0
  7 38  1  0  0  0  0
  8  9  1  0  0  0  0
  8 15  2  0  0  0  0
  9 10  2  0  0  0  0
  9 39  1  0  0  0  0
 10 11  1  0  0  0  0
 10 40  1  0  0  0  0
 11 12  1  0  0  0  0
 11 13  2  0  0  0  0
 13 14  1  0  0  0  0
 13 15  1  0  0  0  0
 15 41  1  0  0  0  0
 16 17  1  0  0  0  0
 17 18  2  0  0  0  0
 17 42  1  0  0  0  0
 18 19  1  0  0  0  0
 19 20  2  0  0  0  0
 20 21  1  0  0  0  0
 20 43  1  0  0  0  0
 21 22  1  0  0  0  0
 22 23  1  0  0  0  0
 23 24  1  0  0  0  0
 23 44  1  0  0  0  0
 23 45  1  0  0  0  0
 24 25  2  0  0  0  0
 24 33  1  0  0  0  0
 25 26  1  0  0  0  0
 26 27  1  0  0  0  0
 27 28  1  0  0  0  0
 27 33  2  0  0  0  0
 28 29  1  0  0  0  0
 28 32  1  0  0  0  0
 28 46  1  0  0  0  0
 29 30  1  0  0  0  0
 29 47  1  0  0  0  0
 29 48  1  0  0  0  0
 30 31  1  0  0  0  0
 30 49  1  0  0  0  0
 30 50  1  0  0  0  0
 31 32  1  0  0  0  0
 31 51  1  0  0  0  0
 31 52  1  0  0  0  0
 32 53  1  0  0  0  0
M  END
$$$$
