CHEMBL318733
 OpenBabel04072215363D

 44 47  0  0  0  0  0  0  0  0999 V2000
    1.2532   -0.8596   -2.1883 C   0  0  0  0  0  0  0  0  0  0  0  0
    2.7570   -0.9271   -2.2023 C   0  0  0  0  0  0  0  0  0  0  0  0
    3.3786   -0.8196   -3.2566 O   0  0  0  0  0  0  0  0  0  0  0  0
    3.2890   -1.0667   -0.9378 N   0  0  0  0  0  0  0  0  0  0  0  0
    4.6446   -1.0650   -0.7142 C   0  0  0  0  0  0  0  0  0  0  0  0
    5.4830   -1.3017   -1.7565 O   0  0  0  0  0  0  0  0  0  0  0  0
    6.7322   -1.3226   -1.2108 C   0  0  0  0  0  0  0  0  0  0  0  0
    7.8097   -1.6290   -2.1351 C   0  0  0  0  0  0  0  0  0  0  0  0
    9.1337   -1.5366   -1.7408 C   0  0  0  0  0  0  0  0  0  0  0  0
   10.1839   -1.8264   -2.5441 N   0  0  0  0  0  0  0  0  0  0  0  0
    9.8919   -2.2311   -3.8062 C   0  0  0  0  0  0  0  0  0  0  0  0
    8.6039   -2.3714   -4.3324 C   0  0  0  0  0  0  0  0  0  0  0  0
    8.3488   -2.8329   -5.7139 C   0  0  0  0  0  0  0  0  0  0  0  0
    7.2365   -2.3756   -6.4517 C   0  0  0  0  0  0  0  0  0  0  0  0
    6.9830   -2.8183   -7.7561 C   0  0  0  0  0  0  0  0  0  0  0  0
    7.8443   -3.7272   -8.3587 C   0  0  0  0  0  0  0  0  0  0  0  0
    8.9433   -4.1884   -7.6496 C   0  0  0  0  0  0  0  0  0  0  0  0
    9.7764   -5.0662   -8.2238 F   0  0  0  0  0  0  0  0  0  0  0  0
    9.1970   -3.7594   -6.3477 C   0  0  0  0  0  0  0  0  0  0  0  0
    7.5604   -2.0539   -3.4496 C   0  0  0  0  0  0  0  0  0  0  0  0
    6.7583   -1.0905    0.0885 N   0  0  0  0  0  0  0  0  0  0  0  0
    5.4288   -0.9151    0.4167 C   0  0  0  0  0  0  0  0  0  0  0  0
    4.9568   -0.6484    1.7611 C   0  0  0  0  0  0  0  0  0  0  0  0
    3.8228    0.1435    1.9925 C   0  0  0  0  0  0  0  0  0  0  0  0
    3.3042    0.2827    3.2798 C   0  0  0  0  0  0  0  0  0  0  0  0
    3.9392   -0.3358    4.3540 C   0  0  0  0  0  0  0  0  0  0  0  0
    5.1112   -1.0620    4.1461 C   0  0  0  0  0  0  0  0  0  0  0  0
    5.6238   -1.2119    2.8551 C   0  0  0  0  0  0  0  0  0  0  0  0
    0.8904   -0.6830   -3.2047 H   0  0  0  0  0  0  0  0  0  0  0  0
    0.9229   -0.0326   -1.5533 H   0  0  0  0  0  0  0  0  0  0  0  0
    0.8410   -1.8030   -1.8228 H   0  0  0  0  0  0  0  0  0  0  0  0
    2.6773   -1.0805   -0.1318 H   0  0  0  0  0  0  0  0  0  0  0  0
    9.4014   -1.2156   -0.7360 H   0  0  0  0  0  0  0  0  0  0  0  0
   10.7724   -2.4410   -4.4077 H   0  0  0  0  0  0  0  0  0  0  0  0
    6.5454   -1.6514   -6.0211 H   0  0  0  0  0  0  0  0  0  0  0  0
    6.1142   -2.4481   -8.2949 H   0  0  0  0  0  0  0  0  0  0  0  0
    7.6672   -4.0787   -9.3698 H   0  0  0  0  0  0  0  0  0  0  0  0
   10.0615   -4.1770   -5.8405 H   0  0  0  0  0  0  0  0  0  0  0  0
    6.5264   -2.1560   -3.7804 H   0  0  0  0  0  0  0  0  0  0  0  0
    3.3318    0.6696    1.1781 H   0  0  0  0  0  0  0  0  0  0  0  0
    2.4061    0.8731    3.4436 H   0  0  0  0  0  0  0  0  0  0  0  0
    3.5281   -0.2413    5.3553 H   0  0  0  0  0  0  0  0  0  0  0  0
    5.6223   -1.5220    4.9885 H   0  0  0  0  0  0  0  0  0  0  0  0
    6.5364   -1.7871    2.7062 H   0  0  0  0  0  0  0  0  0  0  0  0
  1  2  1  0  0  0  0
  1 29  1  0  0  0  0
  1 30  1  0  0  0  0
  1 31  1  0  0  0  0
  2  3  2  0  0  0  0
  2  4  1  0  0  0  0
  4  5  1  0  0  0  0
  4 32  1  0  0  0  0
  5  6  1  0  0  0  0
  5 22  2  0  0  0  0
  6  7  1  0  0  0  0
  7  8  1  0  0  0  0
  7 21  2  0  0  0  0
  8  9  1  0  0  0  0
  8 20  2  0  0  0  0
  9 10  2  0  0  0  0
  9 33  1  0  0  0  0
 10 11  1  0  0  0  0
 11 12  2  0  0  0  0
 11 34  1  0  0  0  0
 12 13  1  0  0  0  0
 12 20  1  0  0  0  0
 13 14  1  0  0  0  0
 13 19  2  0  0  0  0
 14 15  2  0  0  0  0
 14 35  1  0  0  0  0
 15 16  1  0  0  0  0
 15 36  1  0  0  0  0
 16 17  2  0  0  0  0
 16 37  1  0  0  0  0
 17 18  1  0  0  0  0
 17 19  1  0  0  0  0
 19 38  1  0  0  0  0
 20 39  1  0  0  0  0
 21 22  1  0  0  0  0
 22 23  1  0  0  0  0
 23 24  1  0  0  0  0
 23 28  2  0  0  0  0
 24 25  2  0  0  0  0
 24 40  1  0  0  0  0
 25 26  1  0  0  0  0
 25 41  1  0  0  0  0
 26 27  2  0  0  0  0
 26 42  1  0  0  0  0
 27 28  1  0  0  0  0
 27 43  1  0  0  0  0
 28 44  1  0  0  0  0
M  END
$$$$
