CHEMBL3903877
 OpenBabel04072215373D

 61 65  0  0  0  0  0  0  0  0999 V2000
    7.2423   -2.4909   -2.9050 N   0  0  0  0  0  0  0  0  0  0  0  0
    6.6806   -1.3631   -3.4418 C   0  0  0  0  0  0  0  0  0  0  0  0
    7.3471   -0.4759   -3.9515 O   0  0  0  0  0  0  0  0  0  0  0  0
    5.1786   -1.2890   -3.3658 C   0  0  0  0  0  0  0  0  0  0  0  0
    4.5862   -0.4187   -2.2437 C   0  0  0  0  0  0  0  0  0  0  0  0
    4.5809    0.9837   -2.4283 C   0  0  0  0  0  0  0  0  0  0  0  0
    3.8720    1.8426   -1.5876 C   0  0  0  0  0  0  0  0  0  0  0  0
    3.1529    1.3207   -0.5243 C   0  0  0  0  0  0  0  0  0  0  0  0
    3.2300   -0.0413   -0.2464 C   0  0  0  0  0  0  0  0  0  0  0  0
    3.9717   -0.9217   -1.0646 C   0  0  0  0  0  0  0  0  0  0  0  0
    4.0915   -2.3634   -0.5702 C   0  0  0  0  0  0  0  0  0  0  0  0
    5.1832   -2.4874    0.5122 C   0  0  0  0  0  0  0  0  0  0  0  0
    5.2872   -3.8258    1.2223 C   0  0  0  0  0  0  0  0  0  0  0  0
    5.0325   -4.9316    0.4649 N   0  0  0  0  0  0  0  0  0  0  0  0
    5.0895   -6.1378    1.0615 C   0  0  0  0  0  0  0  0  0  0  0  0
    4.6981   -7.2674    0.3446 N   0  0  0  0  0  0  0  0  0  0  0  0
    4.0782   -8.4072    0.8898 C   0  0  0  0  0  0  0  0  0  0  0  0
    3.2988   -8.3353    2.0492 C   0  0  0  0  0  0  0  0  0  0  0  0
    2.8315   -9.4876    2.6827 C   0  0  0  0  0  0  0  0  0  0  0  0
    3.1304  -10.7719    2.2008 C   0  0  0  0  0  0  0  0  0  0  0  0
    2.7156  -12.0809    2.9931 C   0  0  0  0  0  0  0  0  0  0  0  0
    1.2210  -12.3362    3.2884 C   0  0  0  0  0  0  0  0  0  0  0  0
    1.5898  -12.8436    4.6284 N   0  0  0  0  0  0  0  0  0  0  0  0
    2.8711  -12.1111    4.5356 C   0  0  0  0  0  0  0  0  0  0  0  0
    3.8474  -10.8229    0.9886 C   0  0  0  0  0  0  0  0  0  0  0  0
    4.3030   -9.6659    0.3356 C   0  0  0  0  0  0  0  0  0  0  0  0
    5.4866   -6.3045    2.3302 N   0  0  0  0  0  0  0  0  0  0  0  0
    5.7793   -5.2135    3.0428 C   0  0  0  0  0  0  0  0  0  0  0  0
    5.6817   -3.9280    2.5533 C   0  0  0  0  0  0  0  0  0  0  0  0
    5.9708   -2.8325    3.5257 C   0  0  0  0  0  0  0  0  0  0  0  0
    5.9119   -1.5677    3.0410 F   0  0  0  0  0  0  0  0  0  0  0  0
    5.1027   -2.8595    4.5777 F   0  0  0  0  0  0  0  0  0  0  0  0
    7.2116   -2.9485    4.0776 F   0  0  0  0  0  0  0  0  0  0  0  0
    4.2744   -2.4077   -3.8883 C   0  0  0  0  0  0  0  0  0  0  0  0
    4.5168   -1.2324   -4.7615 C   0  0  0  0  0  0  0  0  0  0  0  0
    8.2418   -2.5858   -2.9536 H   0  0  0  0  0  0  0  0  0  0  0  0
    6.6837   -3.2198   -2.4872 H   0  0  0  0  0  0  0  0  0  0  0  0
    5.1240    1.4122   -3.2717 H   0  0  0  0  0  0  0  0  0  0  0  0
    3.8606    2.9115   -1.7850 H   0  0  0  0  0  0  0  0  0  0  0  0
    2.5468    1.9719    0.0995 H   0  0  0  0  0  0  0  0  0  0  0  0
    2.6968   -0.4224    0.6231 H   0  0  0  0  0  0  0  0  0  0  0  0
    4.2665   -3.0668   -1.3861 H   0  0  0  0  0  0  0  0  0  0  0  0
    3.1253   -2.6540   -0.1336 H   0  0  0  0  0  0  0  0  0  0  0  0
    4.9492   -1.7207    1.2504 H   0  0  0  0  0  0  0  0  0  0  0  0
    6.1672   -2.2490    0.0918 H   0  0  0  0  0  0  0  0  0  0  0  0
    4.5336   -7.0839   -0.6301 H   0  0  0  0  0  0  0  0  0  0  0  0
    3.0642   -7.3733    2.4982 H   0  0  0  0  0  0  0  0  0  0  0  0
    2.2544   -9.3726    3.5988 H   0  0  0  0  0  0  0  0  0  0  0  0
    3.1858  -12.9731    2.5483 H   0  0  0  0  0  0  0  0  0  0  0  0
    0.7388  -13.0738    2.6399 H   0  0  0  0  0  0  0  0  0  0  0  0
    0.5907  -11.4404    3.3236 H   0  0  0  0  0  0  0  0  0  0  0  0
    1.7099  -13.8562    4.6566 H   0  0  0  0  0  0  0  0  0  0  0  0
    3.7394  -12.6633    4.9084 H   0  0  0  0  0  0  0  0  0  0  0  0
    2.8452  -11.1397    5.0416 H   0  0  0  0  0  0  0  0  0  0  0  0
    4.0958  -11.7929    0.5611 H   0  0  0  0  0  0  0  0  0  0  0  0
    4.8995   -9.7688   -0.5667 H   0  0  0  0  0  0  0  0  0  0  0  0
    6.0857   -5.4184    4.0677 H   0  0  0  0  0  0  0  0  0  0  0  0
    3.2662   -2.4915   -3.4917 H   0  0  0  0  0  0  0  0  0  0  0  0
    4.7150   -3.3566   -4.1623 H   0  0  0  0  0  0  0  0  0  0  0  0
    3.6843   -0.5633   -4.9488 H   0  0  0  0  0  0  0  0  0  0  0  0
    5.1411   -1.3919   -5.6398 H   0  0  0  0  0  0  0  0  0  0  0  0
  1  2  1  0  0  0  0
  1 36  1  0  0  0  0
  1 37  1  0  0  0  0
  2  3  2  0  0  0  0
  2  4  1  0  0  0  0
  4  5  1  0  0  0  0
  4 34  1  0  0  0  0
  4 35  1  0  0  0  0
  5  6  1  0  0  0  0
  5 10  2  0  0  0  0
  6  7  2  0  0  0  0
  6 38  1  0  0  0  0
  7  8  1  0  0  0  0
  7 39  1  0  0  0  0
  8  9  2  0  0  0  0
  8 40  1  0  0  0  0
  9 10  1  0  0  0  0
  9 41  1  0  0  0  0
 10 11  1  0  0  0  0
 11 12  1  0  0  0  0
 11 42  1  0  0  0  0
 11 43  1  0  0  0  0
 12 13  1  0  0  0  0
 12 44  1  0  0  0  0
 12 45  1  0  0  0  0
 13 14  1  0  0  0  0
 13 29  2  0  0  0  0
 14 15  2  0  0  0  0
 15 16  1  0  0  0  0
 15 27  1  0  0  0  0
 16 17  1  0  0  0  0
 16 46  1  0  0  0  0
 17 18  1  0  0  0  0
 17 26  2  0  0  0  0
 18 19  2  0  0  0  0
 18 47  1  0  0  0  0
 19 20  1  0  0  0  0
 19 48  1  0  0  0  0
 20 21  1  0  0  0  0
 20 25  2  0  0  0  0
 21 22  1  0  0  0  0
 21 24  1  0  0  0  0
 21 49  1  0  0  0  0
 22 23  1  0  0  0  0
 22 50  1  0  0  0  0
 22 51  1  0  0  0  0
 23 24  1  0  0  0  0
 23 52  1  0  0  0  0
 24 53  1  0  0  0  0
 24 54  1  0  0  0  0
 25 26  1  0  0  0  0
 25 55  1  0  0  0  0
 26 56  1  0  0  0  0
 27 28  2  0  0  0  0
 28 29  1  0  0  0  0
 28 57  1  0  0  0  0
 29 30  1  0  0  0  0
 30 31  1  0  0  0  0
 30 32  1  0  0  0  0
 30 33  1  0  0  0  0
 34 35  1  0  0  0  0
 34 58  1  0  0  0  0
 34 59  1  0  0  0  0
 35 60  1  0  0  0  0
 35 61  1  0  0  0  0
M  END
$$$$
