CHEMBL3093582
 OpenBabel04072215363D

 63 68  0  0  0  0  0  0  0  0999 V2000
    0.9302    0.0343    0.0490 C   0  0  0  0  0  0  0  0  0  0  0  0
    2.4356   -0.0191    0.0815 C   0  0  0  0  0  0  0  0  0  0  0  0
    3.1112    1.0021    0.6302 C   0  0  0  0  0  0  0  0  0  0  0  0
    4.5343    0.9505    0.7736 C   0  0  0  0  0  0  0  0  0  0  0  0
    5.2539   -0.0941    0.3324 C   0  0  0  0  0  0  0  0  0  0  0  0
    6.7265   -0.0223    0.5598 C   0  0  0  0  0  0  0  0  0  0  0  0
    7.1738    0.9227    1.2118 O   0  0  0  0  0  0  0  0  0  0  0  0
    7.5003   -1.0074   -0.0309 N   0  0  0  0  0  0  0  0  0  0  0  0
    8.9127   -1.0659    0.0566 C   0  0  0  0  0  0  0  0  0  0  0  0
    9.6133   -0.3949    1.0667 C   0  0  0  0  0  0  0  0  0  0  0  0
   11.0037   -0.3488    1.0813 C   0  0  0  0  0  0  0  0  0  0  0  0
   11.7142   -0.9650    0.0618 C   0  0  0  0  0  0  0  0  0  0  0  0
   13.1202   -0.9209    0.0465 O   0  0  0  0  0  0  0  0  0  0  0  0
   13.7748    0.2618    0.3877 C   0  0  0  0  0  0  0  0  0  0  0  0
   15.1415   -0.1087    0.8188 C   0  0  0  0  0  0  0  0  0  0  0  0
   15.9358    0.8958    1.2047 C   0  0  0  0  0  0  0  0  0  0  0  0
   15.4421    2.2166    1.1741 C   0  0  0  0  0  0  0  0  0  0  0  0
   16.0163    3.3491    1.4977 N   0  0  0  0  0  0  0  0  0  0  0  0
   15.0729    4.3160    1.3133 C   0  0  0  0  0  0  0  0  0  0  0  0
   15.3123    5.6506    1.5728 N   0  0  0  0  0  0  0  0  0  0  0  0
   16.5444    6.1235    1.9873 C   0  0  0  0  0  0  0  0  0  0  0  0
   17.5743    5.4769    2.1200 O   0  0  0  0  0  0  0  0  0  0  0  0
   16.6422    7.5846    2.2958 C   0  0  0  0  0  0  0  0  0  0  0  0
   15.5085    8.5679    2.4133 C   0  0  0  0  0  0  0  0  0  0  0  0
   16.4058    8.6067    1.2113 C   0  0  0  0  0  0  0  0  0  0  0  0
   13.8907    3.7618    0.8679 C   0  0  0  0  0  0  0  0  0  0  0  0
   14.1366    2.4111    0.7605 N   0  0  0  0  0  0  0  0  0  0  0  0
   13.2525    1.4490    0.3464 N   0  0  0  0  0  0  0  0  0  0  0  0
   11.0377   -1.7250   -0.8918 C   0  0  0  0  0  0  0  0  0  0  0  0
   11.7227   -2.3985   -1.8291 F   0  0  0  0  0  0  0  0  0  0  0  0
    9.6378   -1.7923   -0.8931 C   0  0  0  0  0  0  0  0  0  0  0  0
    4.5466   -1.2269   -0.3247 C   0  0  0  0  0  0  0  0  0  0  0  0
    5.2235   -2.1430   -0.8008 O   0  0  0  0  0  0  0  0  0  0  0  0
    3.1312   -1.1514   -0.3777 N   0  0  0  0  0  0  0  0  0  0  0  0
    2.4647   -2.2965   -0.9139 C   0  0  0  0  0  0  0  0  0  0  0  0
    2.6336   -3.5442   -0.2981 C   0  0  0  0  0  0  0  0  0  0  0  0
    2.0267   -4.6816   -0.8301 C   0  0  0  0  0  0  0  0  0  0  0  0
    1.2591   -4.5814   -1.9887 C   0  0  0  0  0  0  0  0  0  0  0  0
    1.0843   -3.3430   -2.6065 C   0  0  0  0  0  0  0  0  0  0  0  0
    1.6806   -2.2006   -2.0683 C   0  0  0  0  0  0  0  0  0  0  0  0
    0.5487    0.9356    0.5448 H   0  0  0  0  0  0  0  0  0  0  0  0
    0.4956   -0.8222    0.5737 H   0  0  0  0  0  0  0  0  0  0  0  0
    0.5539    0.0664   -0.9764 H   0  0  0  0  0  0  0  0  0  0  0  0
    2.6074    1.8818    1.0219 H   0  0  0  0  0  0  0  0  0  0  0  0
    5.0026    1.7951    1.2750 H   0  0  0  0  0  0  0  0  0  0  0  0
    7.0294   -1.6568   -0.6632 H   0  0  0  0  0  0  0  0  0  0  0  0
    9.1008    0.1083    1.8792 H   0  0  0  0  0  0  0  0  0  0  0  0
   11.5017    0.1842    1.8831 H   0  0  0  0  0  0  0  0  0  0  0  0
   15.4409   -1.1468    0.8454 H   0  0  0  0  0  0  0  0  0  0  0  0
   16.9467    0.7307    1.5581 H   0  0  0  0  0  0  0  0  0  0  0  0
   14.5487    6.2918    1.4389 H   0  0  0  0  0  0  0  0  0  0  0  0
   17.4884    7.7818    2.9565 H   0  0  0  0  0  0  0  0  0  0  0  0
   15.6204    9.3606    3.1474 H   0  0  0  0  0  0  0  0  0  0  0  0
   14.4848    8.2459    2.2813 H   0  0  0  0  0  0  0  0  0  0  0  0
   17.1310    9.4142    1.1308 H   0  0  0  0  0  0  0  0  0  0  0  0
   16.0123    8.2774    0.2589 H   0  0  0  0  0  0  0  0  0  0  0  0
   12.9232    4.1712    0.6217 H   0  0  0  0  0  0  0  0  0  0  0  0
    9.1426   -2.3729   -1.6652 H   0  0  0  0  0  0  0  0  0  0  0  0
    3.2335   -3.6349    0.6040 H   0  0  0  0  0  0  0  0  0  0  0  0
    2.1648   -5.6451   -0.3468 H   0  0  0  0  0  0  0  0  0  0  0  0
    0.8067   -5.4721   -2.4171 H   0  0  0  0  0  0  0  0  0  0  0  0
    0.4989   -3.2709   -3.5194 H   0  0  0  0  0  0  0  0  0  0  0  0
    1.5700   -1.2516   -2.5849 H   0  0  0  0  0  0  0  0  0  0  0  0
  1  2  1  0  0  0  0
  1 41  1  0  0  0  0
  1 42  1  0  0  0  0
  1 43  1  0  0  0  0
  2  3  2  0  0  0  0
  2 34  1  0  0  0  0
  3  4  1  0  0  0  0
  3 44  1  0  0  0  0
  4  5  2  0  0  0  0
  4 45  1  0  0  0  0
  5  6  1  0  0  0  0
  5 32  1  0  0  0  0
  6  7  2  0  0  0  0
  6  8  1  0  0  0  0
  8  9  1  0  0  0  0
  8 46  1  0  0  0  0
  9 10  1  0  0  0  0
  9 31  2  0  0  0  0
 10 11  2  0  0  0  0
 10 47  1  0  0  0  0
 11 12  1  0  0  0  0
 11 48  1  0  0  0  0
 12 13  1  0  0  0  0
 12 29  2  0  0  0  0
 13 14  1  0  0  0  0
 14 15  1  0  0  0  0
 14 28  2  0  0  0  0
 15 16  2  0  0  0  0
 15 49  1  0  0  0  0
 16 17  1  0  0  0  0
 16 50  1  0  0  0  0
 17 18  2  0  0  0  0
 17 27  1  0  0  0  0
 18 19  1  0  0  0  0
 19 20  1  0  0  0  0
 19 26  2  0  0  0  0
 20 21  1  0  0  0  0
 20 51  1  0  0  0  0
 21 22  2  0  0  0  0
 21 23  1  0  0  0  0
 23 24  1  0  0  0  0
 23 25  1  0  0  0  0
 23 52  1  0  0  0  0
 24 25  1  0  0  0  0
 24 53  1  0  0  0  0
 24 54  1  0  0  0  0
 25 55  1  0  0  0  0
 25 56  1  0  0  0  0
 26 27  1  0  0  0  0
 26 57  1  0  0  0  0
 27 28  1  0  0  0  0
 29 30  1  0  0  0  0
 29 31  1  0  0  0  0
 31 58  1  0  0  0  0
 32 33  2  0  0  0  0
 32 34  1  0  0  0  0
 34 35  1  0  0  0  0
 35 36  1  0  0  0  0
 35 40  2  0  0  0  0
 36 37  2  0  0  0  0
 36 59  1  0  0  0  0
 37 38  1  0  0  0  0
 37 60  1  0  0  0  0
 38 39  2  0  0  0  0
 38 61  1  0  0  0  0
 39 40  1  0  0  0  0
 39 62  1  0  0  0  0
 40 63  1  0  0  0  0
M  END
$$$$
