CHEMBL2430253
 OpenBabel04072215363D

 65 70  0  0  1  0  0  0  0  0999 V2000
    1.1061    0.6983   -0.2331 C   0  0  0  0  0  0  0  0  0  0  0  0
    2.4798    0.1256   -0.1151 C   0  0  0  0  0  0  0  0  0  0  0  0
    3.4839    1.0668   -0.0870 N   0  0  0  0  0  0  0  0  0  0  0  0
    4.7082    0.4948   -0.0410 C   0  0  0  0  0  0  0  0  0  0  0  0
    4.5069   -0.8682   -0.0288 C   0  0  0  0  0  0  0  0  0  0  0  0
    3.0809   -1.1402   -0.0261 C   0  0  0  0  0  0  0  0  0  0  0  0
    2.5641   -2.5357    0.0380 C   0  0  0  0  0  0  0  0  0  0  0  0
    3.1913   -3.4427   -0.5152 O   0  0  0  0  0  0  0  0  0  0  0  0
    1.4531   -2.8599    0.8076 N   0  0  0  0  0  0  0  0  0  0  0  0
    0.9771   -4.2284    0.9261 C   0  0  0  0  0  0  0  0  0  0  0  0
   -0.5278   -4.0687    0.8436 C   0  0  0  0  0  0  0  0  0  0  0  0
   -0.7595   -2.7987    1.6471 C   0  0  0  0  0  0  0  0  0  0  0  0
    0.4923   -1.9449    1.4024 C   0  0  1  0  0  0  0  0  0  0  0  0
    1.0526   -1.2260    2.6639 C   0  0  0  0  0  0  0  0  0  0  0  0
    0.3293   -0.0270    3.1342 N   0  0  0  0  0  0  0  0  0  0  0  0
    1.0512    0.6226    4.2447 C   0  0  0  0  0  0  0  0  0  0  0  0
    0.5372   -0.0801    5.4862 C   0  0  0  0  0  0  0  0  0  0  0  0
   -0.9287   -0.3050    5.1706 C   0  0  0  0  0  0  0  0  0  0  0  0
   -1.0191   -0.2626    3.6516 C   0  0  0  0  0  0  0  0  0  0  0  0
    5.6166   -1.8601    0.0167 C   0  0  0  0  0  0  0  0  0  0  0  0
    7.0191   -1.2580    0.0375 C   0  0  0  0  0  0  0  0  0  0  0  0
    7.1844    0.2698    0.0230 C   0  0  0  0  0  0  0  0  0  0  0  0
    5.9621    1.1752   -0.0078 C   0  0  0  0  0  0  0  0  0  0  0  0
    6.1274    2.5328    0.0007 C   0  0  0  0  0  0  0  0  0  0  0  0
    5.0774    3.6478   -0.0127 C   0  0  0  0  0  0  0  0  0  0  0  0
    3.8627    3.5636   -0.0393 O   0  0  0  0  0  0  0  0  0  0  0  0
    5.7816    4.8381    0.0105 N   0  0  0  0  0  0  0  0  0  0  0  0
    7.1449    4.6253    0.0337 C   0  0  0  0  0  0  0  0  0  0  0  0
    8.1206    5.6104    0.0452 C   0  0  0  0  0  0  0  0  0  0  0  0
    9.4544    5.2035    0.0570 C   0  0  0  0  0  0  0  0  0  0  0  0
    9.7623    3.8465    0.0577 C   0  0  0  0  0  0  0  0  0  0  0  0
   11.0456    3.4595    0.0643 F   0  0  0  0  0  0  0  0  0  0  0  0
    8.7700    2.8700    0.0442 C   0  0  0  0  0  0  0  0  0  0  0  0
    7.4352    3.2557    0.0303 C   0  0  0  0  0  0  0  0  0  0  0  0
    1.1392    1.7788   -0.4199 H   0  0  0  0  0  0  0  0  0  0  0  0
    0.5451    0.6284    0.6966 H   0  0  0  0  0  0  0  0  0  0  0  0
    0.5454    0.2411   -1.0506 H   0  0  0  0  0  0  0  0  0  0  0  0
    3.3029    2.0637   -0.1101 H   0  0  0  0  0  0  0  0  0  0  0  0
    1.2644   -4.5930    1.9213 H   0  0  0  0  0  0  0  0  0  0  0  0
    1.3803   -4.9053    0.1702 H   0  0  0  0  0  0  0  0  0  0  0  0
   -1.0821   -4.9175    1.2515 H   0  0  0  0  0  0  0  0  0  0  0  0
   -0.8353   -3.9177   -0.1982 H   0  0  0  0  0  0  0  0  0  0  0  0
   -0.8752   -3.0567    2.7030 H   0  0  0  0  0  0  0  0  0  0  0  0
   -1.6607   -2.2745    1.3071 H   0  0  0  0  0  0  0  0  0  0  0  0
    0.2191   -1.2685    0.6054 H   0  0  0  0  0  0  0  0  0  0  0  0
    2.0703   -0.8916    2.4277 H   0  0  0  0  0  0  0  0  0  0  0  0
    1.1843   -1.9606    3.4673 H   0  0  0  0  0  0  0  0  0  0  0  0
    0.7725    1.6838    4.2753 H   0  0  0  0  0  0  0  0  0  0  0  0
    2.1424    0.5814    4.1564 H   0  0  0  0  0  0  0  0  0  0  0  0
    0.6776    0.5082    6.3970 H   0  0  0  0  0  0  0  0  0  0  0  0
    1.0440   -1.0428    5.6240 H   0  0  0  0  0  0  0  0  0  0  0  0
   -1.5408    0.4961    5.5990 H   0  0  0  0  0  0  0  0  0  0  0  0
   -1.2787   -1.2598    5.5749 H   0  0  0  0  0  0  0  0  0  0  0  0
   -1.6569    0.5738    3.3423 H   0  0  0  0  0  0  0  0  0  0  0  0
   -1.5139   -1.1530    3.2761 H   0  0  0  0  0  0  0  0  0  0  0  0
    5.5474   -2.5245   -0.8527 H   0  0  0  0  0  0  0  0  0  0  0  0
    5.4954   -2.4907    0.9061 H   0  0  0  0  0  0  0  0  0  0  0  0
    7.5852   -1.6653   -0.8121 H   0  0  0  0  0  0  0  0  0  0  0  0
    7.5524   -1.6481    0.9154 H   0  0  0  0  0  0  0  0  0  0  0  0
    7.7902    0.4950   -0.8633 H   0  0  0  0  0  0  0  0  0  0  0  0
    7.7512    0.5131    0.9299 H   0  0  0  0  0  0  0  0  0  0  0  0
    5.3151    5.7320    0.0045 H   0  0  0  0  0  0  0  0  0  0  0  0
    7.8656    6.6632    0.0414 H   0  0  0  0  0  0  0  0  0  0  0  0
   10.2616    5.9286    0.0600 H   0  0  0  0  0  0  0  0  0  0  0  0
    9.1084    1.8457    0.0400 H   0  0  0  0  0  0  0  0  0  0  0  0
  1  2  1  0  0  0  0
  1 35  1  0  0  0  0
  1 36  1  0  0  0  0
  1 37  1  0  0  0  0
  2  3  1  0  0  0  0
  2  6  2  0  0  0  0
  3  4  1  0  0  0  0
  3 38  1  0  0  0  0
  4  5  2  0  0  0  0
  4 23  1  0  0  0  0
  5  6  1  0  0  0  0
  5 20  1  0  0  0  0
  6  7  1  0  0  0  0
  7  8  2  0  0  0  0
  7  9  1  0  0  0  0
  9 10  1  0  0  0  0
  9 13  1  0  0  0  0
 10 11  1  0  0  0  0
 10 39  1  0  0  0  0
 10 40  1  0  0  0  0
 11 12  1  0  0  0  0
 11 41  1  0  0  0  0
 11 42  1  0  0  0  0
 12 13  1  0  0  0  0
 12 43  1  0  0  0  0
 12 44  1  0  0  0  0
 13 14  1  0  0  0  0
 13 45  1  6  0  0  0
 14 15  1  0  0  0  0
 14 46  1  0  0  0  0
 14 47  1  0  0  0  0
 15 16  1  0  0  0  0
 15 19  1  0  0  0  0
 16 17  1  0  0  0  0
 16 48  1  0  0  0  0
 16 49  1  0  0  0  0
 17 18  1  0  0  0  0
 17 50  1  0  0  0  0
 17 51  1  0  0  0  0
 18 19  1  0  0  0  0
 18 52  1  0  0  0  0
 18 53  1  0  0  0  0
 19 54  1  0  0  0  0
 19 55  1  0  0  0  0
 20 21  1  0  0  0  0
 20 56  1  0  0  0  0
 20 57  1  0  0  0  0
 21 22  1  0  0  0  0
 21 58  1  0  0  0  0
 21 59  1  0  0  0  0
 22 23  1  0  0  0  0
 22 60  1  0  0  0  0
 22 61  1  0  0  0  0
 23 24  2  0  0  0  0
 24 25  1  0  0  0  0
 24 34  1  0  0  0  0
 25 26  2  0  0  0  0
 25 27  1  0  0  0  0
 27 28  1  0  0  0  0
 27 62  1  0  0  0  0
 28 29  1  0  0  0  0
 28 34  2  0  0  0  0
 29 30  2  0  0  0  0
 29 63  1  0  0  0  0
 30 31  1  0  0  0  0
 30 64  1  0  0  0  0
 31 32  1  0  0  0  0
 31 33  2  0  0  0  0
 33 34  1  0  0  0  0
 33 65  1  0  0  0  0
M  END
$$$$
