CHEMBL3754319
 OpenBabel04072215373D

 59 63  0  0  0  0  0  0  0  0999 V2000
    2.7312    3.3708   -9.9208 C   0  0  0  0  0  0  0  0  0  0  0  0
    3.1126    2.3093   -9.0483 O   0  0  0  0  0  0  0  0  0  0  0  0
    3.3482    2.6922   -7.7557 C   0  0  0  0  0  0  0  0  0  0  0  0
    2.6734    3.7250   -7.1053 C   0  0  0  0  0  0  0  0  0  0  0  0
    3.0159    4.0766   -5.7956 C   0  0  0  0  0  0  0  0  0  0  0  0
    4.0289    3.3847   -5.1272 C   0  0  0  0  0  0  0  0  0  0  0  0
    4.4862    3.7860   -3.7662 C   0  0  0  0  0  0  0  0  0  0  0  0
    5.0292    2.9504   -3.0437 O   0  0  0  0  0  0  0  0  0  0  0  0
    4.3423    5.2444   -3.3216 C   0  0  0  0  0  0  0  0  0  0  0  0
    5.1379    6.1632   -4.1682 N   0  0  0  0  0  0  0  0  0  0  0  0
    6.5709    5.8038   -4.2186 C   0  0  0  0  0  0  0  0  0  0  0  0
    7.2908    5.8744   -2.8665 C   0  0  0  0  0  0  0  0  0  0  0  0
    7.1265    7.1702   -2.1986 N   0  0  0  0  0  0  0  0  0  0  0  0
    8.2066    7.8334   -1.6183 C   0  0  0  0  0  0  0  0  0  0  0  0
    8.2229    9.1817   -1.6765 N   0  0  0  0  0  0  0  0  0  0  0  0
    9.3386    9.9220   -1.3228 N   0  0  0  0  0  0  0  0  0  0  0  0
   10.4800    9.3126   -0.9273 C   0  0  0  0  0  0  0  0  0  0  0  0
   11.6085   10.2547   -0.6838 C   0  0  0  0  0  0  0  0  0  0  0  0
   11.3868   11.5080   -0.0764 C   0  0  0  0  0  0  0  0  0  0  0  0
   12.4371   12.4022    0.1715 C   0  0  0  0  0  0  0  0  0  0  0  0
   13.7421   12.0575   -0.1629 C   0  0  0  0  0  0  0  0  0  0  0  0
   13.9914   10.8388   -0.7814 C   0  0  0  0  0  0  0  0  0  0  0  0
   12.9325    9.9708   -1.0703 C   0  0  0  0  0  0  0  0  0  0  0  0
   10.5134    7.9093   -0.7615 C   0  0  0  0  0  0  0  0  0  0  0  0
   11.6513    7.1794   -0.3139 C   0  0  0  0  0  0  0  0  0  0  0  0
   11.6626    5.7931   -0.1796 C   0  0  0  0  0  0  0  0  0  0  0  0
   10.4903    5.0945   -0.3512 C   0  0  0  0  0  0  0  0  0  0  0  0
    9.3389    5.7868   -0.7218 C   0  0  0  0  0  0  0  0  0  0  0  0
    9.3300    7.1702   -1.0508 C   0  0  0  0  0  0  0  0  0  0  0  0
    5.8193    7.8473   -2.3152 C   0  0  0  0  0  0  0  0  0  0  0  0
    5.0777    7.5533   -3.6532 C   0  0  0  0  0  0  0  0  0  0  0  0
    4.6519    2.2999   -5.7565 C   0  0  0  0  0  0  0  0  0  0  0  0
    4.3102    1.9565   -7.0663 C   0  0  0  0  0  0  0  0  0  0  0  0
    2.7513    2.9899  -10.9459 H   0  0  0  0  0  0  0  0  0  0  0  0
    3.4369    4.2081   -9.8597 H   0  0  0  0  0  0  0  0  0  0  0  0
    1.7103    3.7056   -9.7135 H   0  0  0  0  0  0  0  0  0  0  0  0
    1.8737    4.2724   -7.5904 H   0  0  0  0  0  0  0  0  0  0  0  0
    2.4785    4.8919   -5.3238 H   0  0  0  0  0  0  0  0  0  0  0  0
    4.6311    5.2965   -2.2655 H   0  0  0  0  0  0  0  0  0  0  0  0
    3.2814    5.5149   -3.3555 H   0  0  0  0  0  0  0  0  0  0  0  0
    7.0744    6.4858   -4.9183 H   0  0  0  0  0  0  0  0  0  0  0  0
    6.7095    4.8070   -4.6522 H   0  0  0  0  0  0  0  0  0  0  0  0
    8.3418    5.6514   -3.0730 H   0  0  0  0  0  0  0  0  0  0  0  0
    6.8992    5.0870   -2.2100 H   0  0  0  0  0  0  0  0  0  0  0  0
   10.3771   11.8036    0.2072 H   0  0  0  0  0  0  0  0  0  0  0  0
   12.2310   13.3677    0.6263 H   0  0  0  0  0  0  0  0  0  0  0  0
   14.5607   12.7432    0.0416 H   0  0  0  0  0  0  0  0  0  0  0  0
   15.0074   10.5627   -1.0526 H   0  0  0  0  0  0  0  0  0  0  0  0
   13.1660    9.0577   -1.6132 H   0  0  0  0  0  0  0  0  0  0  0  0
   12.5743    7.6871   -0.0420 H   0  0  0  0  0  0  0  0  0  0  0  0
   12.5773    5.2739    0.0947 H   0  0  0  0  0  0  0  0  0  0  0  0
   10.4530    4.0216   -0.1908 H   0  0  0  0  0  0  0  0  0  0  0  0
    8.4174    5.2135   -0.7477 H   0  0  0  0  0  0  0  0  0  0  0  0
    5.9008    8.9381   -2.2256 H   0  0  0  0  0  0  0  0  0  0  0  0
    5.1914    7.5127   -1.4828 H   0  0  0  0  0  0  0  0  0  0  0  0
    5.5063    8.2038   -4.4281 H   0  0  0  0  0  0  0  0  0  0  0  0
    4.0301    7.8672   -3.5666 H   0  0  0  0  0  0  0  0  0  0  0  0
    5.4267    1.7336   -5.2389 H   0  0  0  0  0  0  0  0  0  0  0  0
    4.8171    1.1297   -7.5583 H   0  0  0  0  0  0  0  0  0  0  0  0
  1  2  1  0  0  0  0
  1 34  1  0  0  0  0
  1 35  1  0  0  0  0
  1 36  1  0  0  0  0
  2  3  1  0  0  0  0
  3  4  1  0  0  0  0
  3 33  2  0  0  0  0
  4  5  2  0  0  0  0
  4 37  1  0  0  0  0
  5  6  1  0  0  0  0
  5 38  1  0  0  0  0
  6  7  1  0  0  0  0
  6 32  2  0  0  0  0
  7  8  2  0  0  0  0
  7  9  1  0  0  0  0
  9 10  1  0  0  0  0
  9 39  1  0  0  0  0
  9 40  1  0  0  0  0
 10 11  1  0  0  0  0
 10 31  1  0  0  0  0
 11 12  1  0  0  0  0
 11 41  1  0  0  0  0
 11 42  1  0  0  0  0
 12 13  1  0  0  0  0
 12 43  1  0  0  0  0
 12 44  1  0  0  0  0
 13 14  1  0  0  0  0
 13 30  1  0  0  0  0
 14 15  1  0  0  0  0
 14 29  2  0  0  0  0
 15 16  2  0  0  0  0
 16 17  1  0  0  0  0
 17 18  1  0  0  0  0
 17 24  2  0  0  0  0
 18 19  1  0  0  0  0
 18 23  2  0  0  0  0
 19 20  2  0  0  0  0
 19 45  1  0  0  0  0
 20 21  1  0  0  0  0
 20 46  1  0  0  0  0
 21 22  2  0  0  0  0
 21 47  1  0  0  0  0
 22 23  1  0  0  0  0
 22 48  1  0  0  0  0
 23 49  1  0  0  0  0
 24 25  1  0  0  0  0
 24 29  1  0  0  0  0
 25 26  2  0  0  0  0
 25 50  1  0  0  0  0
 26 27  1  0  0  0  0
 26 51  1  0  0  0  0
 27 28  2  0  0  0  0
 27 52  1  0  0  0  0
 28 29  1  0  0  0  0
 28 53  1  0  0  0  0
 30 31  1  0  0  0  0
 30 54  1  0  0  0  0
 30 55  1  0  0  0  0
 31 56  1  0  0  0  0
 31 57  1  0  0  0  0
 32 33  1  0  0  0  0
 32 58  1  0  0  0  0
 33 59  1  0  0  0  0
M  END
$$$$
