CHEMBL272645
 OpenBabel04072215363D

 45 48  0  0  0  0  0  0  0  0999 V2000
    2.0346   -0.3061    2.4317 C   0  0  0  0  0  0  0  0  0  0  0  0
    0.6266   -0.1520    1.9413 C   0  0  0  0  0  0  0  0  0  0  0  0
    0.0359    1.1106    1.9092 C   0  0  0  0  0  0  0  0  0  0  0  0
   -1.2711    1.2681    1.4582 C   0  0  0  0  0  0  0  0  0  0  0  0
   -2.0232    0.1765    1.0092 C   0  0  0  0  0  0  0  0  0  0  0  0
   -3.3528    0.2974    0.5297 N   0  0  0  0  0  0  0  0  0  0  0  0
   -4.0213    1.4894    0.3071 C   0  0  0  0  0  0  0  0  0  0  0  0
   -3.5160    2.6011    0.4214 O   0  0  0  0  0  0  0  0  0  0  0  0
   -5.3524    1.3033   -0.0298 N   0  0  0  0  0  0  0  0  0  0  0  0
   -6.1719    2.4339   -0.2729 C   0  0  0  0  0  0  0  0  0  0  0  0
   -5.7217    3.5112   -1.0397 C   0  0  0  0  0  0  0  0  0  0  0  0
   -6.4713    4.6896   -1.1269 C   0  0  0  0  0  0  0  0  0  0  0  0
   -7.7062    4.8178   -0.4726 C   0  0  0  0  0  0  0  0  0  0  0  0
   -8.4711    6.0843   -0.5124 C   0  0  0  0  0  0  0  0  0  0  0  0
   -8.5259    6.8779   -1.6894 C   0  0  0  0  0  0  0  0  0  0  0  0
   -9.3043    8.0360   -1.7848 C   0  0  0  0  0  0  0  0  0  0  0  0
  -10.0958    8.4498   -0.7184 C   0  0  0  0  0  0  0  0  0  0  0  0
  -10.0043    7.6911    0.4445 C   0  0  0  0  0  0  0  0  0  0  0  0
  -10.6830    7.9498    1.5911 O   0  0  0  0  0  0  0  0  0  0  0  0
  -10.3020    7.0517    2.5658 N   0  0  0  0  0  0  0  0  0  0  0  0
   -9.3846    6.2664    1.9975 C   0  0  0  0  0  0  0  0  0  0  0  0
   -8.6960    5.3353    2.6904 N   0  0  0  0  0  0  0  0  0  0  0  0
   -9.2036    6.5682    0.6098 C   0  0  0  0  0  0  0  0  0  0  0  0
   -8.1887    3.6751    0.1952 C   0  0  0  0  0  0  0  0  0  0  0  0
   -7.4316    2.5002    0.3088 C   0  0  0  0  0  0  0  0  0  0  0  0
   -1.4358   -1.0920    1.0506 C   0  0  0  0  0  0  0  0  0  0  0  0
   -0.1209   -1.2553    1.5138 C   0  0  0  0  0  0  0  0  0  0  0  0
    2.4619    0.6611    2.7215 H   0  0  0  0  0  0  0  0  0  0  0  0
    2.6671   -0.7243    1.6433 H   0  0  0  0  0  0  0  0  0  0  0  0
    2.0619   -0.9566    3.3107 H   0  0  0  0  0  0  0  0  0  0  0  0
    0.5854    1.9903    2.2351 H   0  0  0  0  0  0  0  0  0  0  0  0
   -1.6663    2.2779    1.4692 H   0  0  0  0  0  0  0  0  0  0  0  0
   -3.7984   -0.5417    0.1908 H   0  0  0  0  0  0  0  0  0  0  0  0
   -5.7926    0.5172    0.4241 H   0  0  0  0  0  0  0  0  0  0  0  0
   -4.7616    3.4625   -1.5497 H   0  0  0  0  0  0  0  0  0  0  0  0
   -6.0482    5.5161   -1.6937 H   0  0  0  0  0  0  0  0  0  0  0  0
   -7.9590    6.5794   -2.5708 H   0  0  0  0  0  0  0  0  0  0  0  0
   -9.3066    8.6095   -2.7095 H   0  0  0  0  0  0  0  0  0  0  0  0
  -10.7313    9.3256   -0.7743 H   0  0  0  0  0  0  0  0  0  0  0  0
   -8.7714    5.3855    3.7013 H   0  0  0  0  0  0  0  0  0  0  0  0
   -7.7612    5.0847    2.3784 H   0  0  0  0  0  0  0  0  0  0  0  0
   -9.1614    3.6977    0.6842 H   0  0  0  0  0  0  0  0  0  0  0  0
   -7.8148    1.6863    0.9171 H   0  0  0  0  0  0  0  0  0  0  0  0
   -1.9800   -1.9770    0.7230 H   0  0  0  0  0  0  0  0  0  0  0  0
    0.3149   -2.2513    1.5371 H   0  0  0  0  0  0  0  0  0  0  0  0
  1  2  1  0  0  0  0
  1 28  1  0  0  0  0
  1 29  1  0  0  0  0
  1 30  1  0  0  0  0
  2  3  1  0  0  0  0
  2 27  2  0  0  0  0
  3  4  2  0  0  0  0
  3 31  1  0  0  0  0
  4  5  1  0  0  0  0
  4 32  1  0  0  0  0
  5  6  1  0  0  0  0
  5 26  2  0  0  0  0
  6  7  1  0  0  0  0
  6 33  1  0  0  0  0
  7  8  2  0  0  0  0
  7  9  1  0  0  0  0
  9 10  1  0  0  0  0
  9 34  1  0  0  0  0
 10 11  1  0  0  0  0
 10 25  2  0  0  0  0
 11 12  2  0  0  0  0
 11 35  1  0  0  0  0
 12 13  1  0  0  0  0
 12 36  1  0  0  0  0
 13 14  1  0  0  0  0
 13 24  2  0  0  0  0
 14 15  1  0  0  0  0
 14 23  2  0  0  0  0
 15 16  2  0  0  0  0
 15 37  1  0  0  0  0
 16 17  1  0  0  0  0
 16 38  1  0  0  0  0
 17 18  2  0  0  0  0
 17 39  1  0  0  0  0
 18 19  1  0  0  0  0
 18 23  1  0  0  0  0
 19 20  1  0  0  0  0
 20 21  2  0  0  0  0
 21 22  1  0  0  0  0
 21 23  1  0  0  0  0
 22 40  1  0  0  0  0
 22 41  1  0  0  0  0
 24 25  1  0  0  0  0
 24 42  1  0  0  0  0
 25 43  1  0  0  0  0
 26 27  1  0  0  0  0
 26 44  1  0  0  0  0
 27 45  1  0  0  0  0
M  END
$$$$
