CHEMBL258222
 OpenBabel04072215363D

 72 77  0  0  0  0  0  0  0  0999 V2000
    3.3921   -0.1045    1.5511 C   0  0  0  0  0  0  0  0  0  0  0  0
    2.6248   -0.1061    0.2599 C   0  0  0  0  0  0  0  0  0  0  0  0
    1.3333    0.0554    0.1472 N   0  0  0  0  0  0  0  0  0  0  0  0
    0.7051    0.2480    1.3749 O   0  0  0  0  0  0  0  0  0  0  0  0
   -0.6767    0.5317    1.1321 C   0  0  0  0  0  0  0  0  0  0  0  0
   -1.3630    0.6952    2.4884 C   0  0  0  0  0  0  0  0  0  0  0  0
   -0.7663    1.8774    3.2563 C   0  0  0  0  0  0  0  0  0  0  0  0
   -2.8715    0.8584    2.3319 C   0  0  0  0  0  0  0  0  0  0  0  0
    3.3983   -0.2855   -1.0048 C   0  0  0  0  0  0  0  0  0  0  0  0
    2.8816    0.4352   -2.0744 C   0  0  0  0  0  0  0  0  0  0  0  0
    3.3982    0.2601   -3.3127 C   0  0  0  0  0  0  0  0  0  0  0  0
    4.3878   -0.6772   -3.5244 C   0  0  0  0  0  0  0  0  0  0  0  0
    5.0363   -1.3944   -2.4820 C   0  0  0  0  0  0  0  0  0  0  0  0
    4.5175   -1.1450   -1.1659 C   0  0  0  0  0  0  0  0  0  0  0  0
    6.0494   -2.0919   -3.1556 C   0  0  0  0  0  0  0  0  0  0  0  0
    7.2029   -2.7629   -2.6636 C   0  0  0  0  0  0  0  0  0  0  0  0
    8.2850   -3.1347   -3.5974 C   0  0  0  0  0  0  0  0  0  0  0  0
    8.2871   -2.8881   -5.0165 C   0  0  0  0  0  0  0  0  0  0  0  0
    6.9987   -2.4119   -5.4286 C   0  0  0  0  0  0  0  0  0  0  0  0
    5.9869   -1.9909   -4.5070 C   0  0  0  0  0  0  0  0  0  0  0  0
    4.9750   -1.0288   -4.7240 N   0  0  0  0  0  0  0  0  0  0  0  0
    4.9465   -0.2361   -5.9324 C   0  0  0  0  0  0  0  0  0  0  0  0
    4.0269    0.8364   -6.4714 C   0  0  0  0  0  0  0  0  0  0  0  0
    4.6370    1.2896   -7.8277 C   0  0  0  0  0  0  0  0  0  0  0  0
    2.6353    0.2858   -6.7093 C   0  0  0  0  0  0  0  0  0  0  0  0
    6.9518   -1.7074   -6.7827 C   0  0  0  0  0  0  0  0  0  0  0  0
    7.9756   -0.6960   -7.3001 C   0  0  0  0  0  0  0  0  0  0  0  0
    9.3128   -1.0549   -6.6587 C   0  0  0  0  0  0  0  0  0  0  0  0
   10.3648   -0.8237   -7.4508 N   0  0  0  0  0  0  0  0  0  0  0  0
   10.2268   -1.9307   -8.2099 N   0  0  0  0  0  0  0  0  0  0  0  0
    9.9055   -1.6604   -9.6214 C   0  0  0  0  0  0  0  0  0  0  0  0
    9.7631   -2.9801   -7.3212 C   0  0  0  0  0  0  0  0  0  0  0  0
    9.4427   -2.3920   -6.0305 C   0  0  0  0  0  0  0  0  0  0  0  0
    9.2132   -3.8881   -2.7510 C   0  0  0  0  0  0  0  0  0  0  0  0
   10.2475   -4.5305   -3.0202 O   0  0  0  0  0  0  0  0  0  0  0  0
    8.7201   -3.8411   -1.4440 N   0  0  0  0  0  0  0  0  0  0  0  0
    7.4609   -3.1491   -1.2572 C   0  0  0  0  0  0  0  0  0  0  0  0
    2.8044    0.2959    2.3783 H   0  0  0  0  0  0  0  0  0  0  0  0
    4.2838    0.5210    1.4449 H   0  0  0  0  0  0  0  0  0  0  0  0
    3.6907   -1.1287    1.7936 H   0  0  0  0  0  0  0  0  0  0  0  0
   -1.1234   -0.2986    0.5714 H   0  0  0  0  0  0  0  0  0  0  0  0
   -0.7672    1.4471    0.5324 H   0  0  0  0  0  0  0  0  0  0  0  0
   -1.1694   -0.2103    3.0780 H   0  0  0  0  0  0  0  0  0  0  0  0
   -0.9282    2.8195    2.7217 H   0  0  0  0  0  0  0  0  0  0  0  0
    0.3123    1.7532    3.3983 H   0  0  0  0  0  0  0  0  0  0  0  0
   -1.2210    1.9640    4.2483 H   0  0  0  0  0  0  0  0  0  0  0  0
   -3.1222    1.7619    1.7667 H   0  0  0  0  0  0  0  0  0  0  0  0
   -3.3539    0.9274    3.3131 H   0  0  0  0  0  0  0  0  0  0  0  0
   -3.3042   -0.0012    1.8089 H   0  0  0  0  0  0  0  0  0  0  0  0
    2.0425    1.1145   -1.9449 H   0  0  0  0  0  0  0  0  0  0  0  0
    2.9569    0.8342   -4.1138 H   0  0  0  0  0  0  0  0  0  0  0  0
    4.9448   -1.6491   -0.3055 H   0  0  0  0  0  0  0  0  0  0  0  0
    4.9312   -0.9856   -6.7303 H   0  0  0  0  0  0  0  0  0  0  0  0
    5.8743    0.3464   -5.8403 H   0  0  0  0  0  0  0  0  0  0  0  0
    4.0225    1.7024   -5.7989 H   0  0  0  0  0  0  0  0  0  0  0  0
    4.5013    0.5199   -8.5979 H   0  0  0  0  0  0  0  0  0  0  0  0
    5.7164    1.4677   -7.7540 H   0  0  0  0  0  0  0  0  0  0  0  0
    4.1742    2.2146   -8.1812 H   0  0  0  0  0  0  0  0  0  0  0  0
    2.6412   -0.4545   -7.5166 H   0  0  0  0  0  0  0  0  0  0  0  0
    1.9564    1.0968   -6.9842 H   0  0  0  0  0  0  0  0  0  0  0  0
    2.2403   -0.2174   -5.8247 H   0  0  0  0  0  0  0  0  0  0  0  0
    7.1933   -2.6047   -7.3329 H   0  0  0  0  0  0  0  0  0  0  0  0
    7.0425   -0.9551   -6.0165 H   0  0  0  0  0  0  0  0  0  0  0  0
    7.7203    0.3527   -7.0831 H   0  0  0  0  0  0  0  0  0  0  0  0
    7.9007   -0.7539   -8.3894 H   0  0  0  0  0  0  0  0  0  0  0  0
    9.5264   -0.6223   -9.7138 H   0  0  0  0  0  0  0  0  0  0  0  0
    9.1082   -2.3147   -9.9813 H   0  0  0  0  0  0  0  0  0  0  0  0
   10.8047   -1.7052  -10.2344 H   0  0  0  0  0  0  0  0  0  0  0  0
    9.5194   -3.9287   -7.7772 H   0  0  0  0  0  0  0  0  0  0  0  0
    9.1560   -4.4022   -0.7170 H   0  0  0  0  0  0  0  0  0  0  0  0
    7.5891   -2.2947   -0.5872 H   0  0  0  0  0  0  0  0  0  0  0  0
    6.6976   -3.8415   -0.8724 H   0  0  0  0  0  0  0  0  0  0  0  0
  1  2  1  0  0  0  0
  1 38  1  0  0  0  0
  1 39  1  0  0  0  0
  1 40  1  0  0  0  0
  2  3  2  0  0  0  0
  2  9  1  0  0  0  0
  3  4  1  0  0  0  0
  4  5  1  0  0  0  0
  5  6  1  0  0  0  0
  5 41  1  0  0  0  0
  5 42  1  0  0  0  0
  6  7  1  0  0  0  0
  6  8  1  0  0  0  0
  6 43  1  0  0  0  0
  7 44  1  0  0  0  0
  7 45  1  0  0  0  0
  7 46  1  0  0  0  0
  8 47  1  0  0  0  0
  8 48  1  0  0  0  0
  8 49  1  0  0  0  0
  9 10  1  0  0  0  0
  9 14  2  0  0  0  0
 10 11  2  0  0  0  0
 10 50  1  0  0  0  0
 11 12  1  0  0  0  0
 11 51  1  0  0  0  0
 12 13  2  0  0  0  0
 12 21  1  0  0  0  0
 13 14  1  0  0  0  0
 13 15  1  0  0  0  0
 14 52  1  0  0  0  0
 15 16  1  0  0  0  0
 15 20  2  0  0  0  0
 16 17  2  0  0  0  0
 16 37  1  0  0  0  0
 17 18  1  0  0  0  0
 17 34  1  0  0  0  0
 18 19  2  0  0  0  0
 18 33  1  0  0  0  0
 19 20  1  0  0  0  0
 19 26  1  0  0  0  0
 20 21  1  0  0  0  0
 21 22  1  0  0  0  0
 22 23  1  0  0  0  0
 22 53  1  0  0  0  0
 22 54  1  0  0  0  0
 23 24  1  0  0  0  0
 23 25  1  0  0  0  0
 23 55  1  0  0  0  0
 24 56  1  0  0  0  0
 24 57  1  0  0  0  0
 24 58  1  0  0  0  0
 25 59  1  0  0  0  0
 25 60  1  0  0  0  0
 25 61  1  0  0  0  0
 26 27  1  0  0  0  0
 26 62  1  0  0  0  0
 26 63  1  0  0  0  0
 27 28  1  0  0  0  0
 27 64  1  0  0  0  0
 27 65  1  0  0  0  0
 28 29  2  0  0  0  0
 28 33  1  0  0  0  0
 29 30  1  0  0  0  0
 30 31  1  0  0  0  0
 30 32  1  0  0  0  0
 31 66  1  0  0  0  0
 31 67  1  0  0  0  0
 31 68  1  0  0  0  0
 32 33  2  0  0  0  0
 32 69  1  0  0  0  0
 34 35  2  0  0  0  0
 34 36  1  0  0  0  0
 36 37  1  0  0  0  0
 36 70  1  0  0  0  0
 37 71  1  0  0  0  0
 37 72  1  0  0  0  0
M  END
$$$$
