CHEMBL3747226
 OpenBabel04072215373D

 51 55  0  0  0  0  0  0  0  0999 V2000
    2.7317    0.9446   -1.1365 O   0  0  0  0  0  0  0  0  0  0  0  0
    2.5919    0.2832   -0.1065 C   0  0  0  0  0  0  0  0  0  0  0  0
    1.4738    0.1608    0.6898 N   0  0  0  0  0  0  0  0  0  0  0  0
    0.2652    0.8243    0.4192 C   0  0  0  0  0  0  0  0  0  0  0  0
    0.1914    2.0248   -0.2892 C   0  0  0  0  0  0  0  0  0  0  0  0
   -1.0506    2.5672   -0.6241 C   0  0  0  0  0  0  0  0  0  0  0  0
   -2.2232    1.8972   -0.2733 C   0  0  0  0  0  0  0  0  0  0  0  0
   -2.1574    0.7007    0.4518 C   0  0  0  0  0  0  0  0  0  0  0  0
   -3.3815   -0.1175    0.7639 C   0  0  0  0  0  0  0  0  0  0  0  0
   -4.5413    0.4159    0.2959 F   0  0  0  0  0  0  0  0  0  0  0  0
   -3.3012   -1.3691    0.2276 F   0  0  0  0  0  0  0  0  0  0  0  0
   -3.5574   -0.3002    2.1013 F   0  0  0  0  0  0  0  0  0  0  0  0
   -0.9040    0.2009    0.8378 C   0  0  0  0  0  0  0  0  0  0  0  0
    3.6058   -0.5733    0.3360 N   0  0  0  0  0  0  0  0  0  0  0  0
    3.8907   -0.8501    1.7036 C   0  0  0  0  0  0  0  0  0  0  0  0
    4.6798   -1.9914    1.6279 C   0  0  0  0  0  0  0  0  0  0  0  0
    5.5649   -1.5585    0.6011 C   0  0  0  0  0  0  0  0  0  0  0  0
    6.9467   -1.4983    0.4317 C   0  0  0  0  0  0  0  0  0  0  0  0
    7.4372   -1.1142   -0.8181 C   0  0  0  0  0  0  0  0  0  0  0  0
    8.8045   -1.0815   -0.8894 O   0  0  0  0  0  0  0  0  0  0  0  0
    9.4193   -0.3279   -1.8741 C   0  0  0  0  0  0  0  0  0  0  0  0
    8.9247    0.8715   -2.2076 N   0  0  0  0  0  0  0  0  0  0  0  0
    9.6052    1.5043   -3.1691 C   0  0  0  0  0  0  0  0  0  0  0  0
   10.7372    1.0717   -3.7556 N   0  0  0  0  0  0  0  0  0  0  0  0
   11.2282   -0.1267   -3.3445 C   0  0  0  0  0  0  0  0  0  0  0  0
   10.5712   -0.8774   -2.4030 C   0  0  0  0  0  0  0  0  0  0  0  0
   10.9897   -2.2529   -2.0433 C   0  0  0  0  0  0  0  0  0  0  0  0
   12.3827   -2.6777   -2.4802 C   0  0  0  0  0  0  0  0  0  0  0  0
   13.0763   -1.9087   -3.4931 N   0  0  0  0  0  0  0  0  0  0  0  0
   12.5091   -0.6397   -3.9628 C   0  0  0  0  0  0  0  0  0  0  0  0
    6.5705   -0.8508   -1.8833 C   0  0  0  0  0  0  0  0  0  0  0  0
    5.1973   -0.7149   -1.6661 C   0  0  0  0  0  0  0  0  0  0  0  0
    4.7507   -0.9633   -0.3635 C   0  0  0  0  0  0  0  0  0  0  0  0
    1.4341   -0.6460    1.3169 H   0  0  0  0  0  0  0  0  0  0  0  0
    1.0895    2.5572   -0.5966 H   0  0  0  0  0  0  0  0  0  0  0  0
   -1.0967    3.4966   -1.1877 H   0  0  0  0  0  0  0  0  0  0  0  0
   -3.1846    2.3007   -0.5875 H   0  0  0  0  0  0  0  0  0  0  0  0
   -0.8594   -0.7342    1.3929 H   0  0  0  0  0  0  0  0  0  0  0  0
    4.1239    0.0593    2.2547 H   0  0  0  0  0  0  0  0  0  0  0  0
    4.1491   -2.9391    1.4878 H   0  0  0  0  0  0  0  0  0  0  0  0
    7.6102   -1.6815    1.2694 H   0  0  0  0  0  0  0  0  0  0  0  0
    9.1801    2.4397   -3.5120 H   0  0  0  0  0  0  0  0  0  0  0  0
   10.9339   -2.3601   -0.9536 H   0  0  0  0  0  0  0  0  0  0  0  0
   10.2584   -2.9288   -2.5026 H   0  0  0  0  0  0  0  0  0  0  0  0
   12.3093   -3.7223   -2.8157 H   0  0  0  0  0  0  0  0  0  0  0  0
   13.0207   -2.7319   -1.5898 H   0  0  0  0  0  0  0  0  0  0  0  0
   13.3278   -2.4974   -4.2850 H   0  0  0  0  0  0  0  0  0  0  0  0
   12.3554   -0.7193   -5.0427 H   0  0  0  0  0  0  0  0  0  0  0  0
   13.2797    0.1275   -3.8051 H   0  0  0  0  0  0  0  0  0  0  0  0
    6.9558   -0.6360   -2.8758 H   0  0  0  0  0  0  0  0  0  0  0  0
    4.5470   -0.3215   -2.4426 H   0  0  0  0  0  0  0  0  0  0  0  0
  1  2  2  0  0  0  0
  2  3  1  0  0  0  0
  2 14  1  0  0  0  0
  3  4  1  0  0  0  0
  3 34  1  0  0  0  0
  4  5  1  0  0  0  0
  4 13  2  0  0  0  0
  5  6  2  0  0  0  0
  5 35  1  0  0  0  0
  6  7  1  0  0  0  0
  6 36  1  0  0  0  0
  7  8  2  0  0  0  0
  7 37  1  0  0  0  0
  8  9  1  0  0  0  0
  8 13  1  0  0  0  0
  9 10  1  0  0  0  0
  9 11  1  0  0  0  0
  9 12  1  0  0  0  0
 13 38  1  0  0  0  0
 14 15  1  0  0  0  0
 14 33  1  0  0  0  0
 15 16  2  0  0  0  0
 15 39  1  0  0  0  0
 16 17  1  0  0  0  0
 16 40  1  0  0  0  0
 17 18  1  0  0  0  0
 17 33  2  0  0  0  0
 18 19  2  0  0  0  0
 18 41  1  0  0  0  0
 19 20  1  0  0  0  0
 19 31  1  0  0  0  0
 20 21  1  0  0  0  0
 21 22  1  0  0  0  0
 21 26  2  0  0  0  0
 22 23  2  0  0  0  0
 23 24  1  0  0  0  0
 23 42  1  0  0  0  0
 24 25  2  0  0  0  0
 25 26  1  0  0  0  0
 25 30  1  0  0  0  0
 26 27  1  0  0  0  0
 27 28  1  0  0  0  0
 27 43  1  0  0  0  0
 27 44  1  0  0  0  0
 28 29  1  0  0  0  0
 28 45  1  0  0  0  0
 28 46  1  0  0  0  0
 29 30  1  0  0  0  0
 29 47  1  0  0  0  0
 30 48  1  0  0  0  0
 30 49  1  0  0  0  0
 31 32  2  0  0  0  0
 31 50  1  0  0  0  0
 32 33  1  0  0  0  0
 32 51  1  0  0  0  0
M  END
$$$$
