CHEMBL269891
 OpenBabel04072215363D

 42 45  0  0  0  0  0  0  0  0999 V2000
    2.8710   -0.0366    1.1239 O   0  0  0  0  0  0  0  0  0  0  0  0
    2.2874    0.1458    0.0631 C   0  0  0  0  0  0  0  0  0  0  0  0
    0.9125    0.1236   -0.1279 N   0  0  0  0  0  0  0  0  0  0  0  0
   -0.0638   -0.1632    0.8525 C   0  0  0  0  0  0  0  0  0  0  0  0
    0.2221   -0.2990    2.2142 C   0  0  0  0  0  0  0  0  0  0  0  0
   -0.7756   -0.6716    3.1202 C   0  0  0  0  0  0  0  0  0  0  0  0
   -2.0714   -0.8964    2.6695 C   0  0  0  0  0  0  0  0  0  0  0  0
   -3.2841   -1.4071    3.7754 Cl  0  0  0  0  0  0  0  0  0  0  0  0
   -2.3842   -0.7232    1.3238 C   0  0  0  0  0  0  0  0  0  0  0  0
   -1.3848   -0.3493    0.4202 C   0  0  0  0  0  0  0  0  0  0  0  0
    3.0927    0.3838   -1.1722 C   0  0  0  0  0  0  0  0  0  0  0  0
    2.6945    1.4258   -2.0260 C   0  0  0  0  0  0  0  0  0  0  0  0
    3.4206    1.7008   -3.1791 C   0  0  0  0  0  0  0  0  0  0  0  0
    4.5396    0.9328   -3.4956 C   0  0  0  0  0  0  0  0  0  0  0  0
    4.9637   -0.1150   -2.6622 C   0  0  0  0  0  0  0  0  0  0  0  0
    6.0871   -0.8896   -3.0136 C   0  0  0  0  0  0  0  0  0  0  0  0
    6.5294   -1.9276   -2.1930 C   0  0  0  0  0  0  0  0  0  0  0  0
    7.6060   -2.6632   -2.6432 O   0  0  0  0  0  0  0  0  0  0  0  0
    7.7058   -3.9868   -2.2662 C   0  0  0  0  0  0  0  0  0  0  0  0
    6.6100   -4.8410   -2.1511 C   0  0  0  0  0  0  0  0  0  0  0  0
    6.8289   -6.1193   -1.6725 C   0  0  0  0  0  0  0  0  0  0  0  0
    8.0512   -6.6088   -1.3780 N   0  0  0  0  0  0  0  0  0  0  0  0
    9.1019   -5.7826   -1.5765 C   0  0  0  0  0  0  0  0  0  0  0  0
    8.9831   -4.4753   -2.0164 C   0  0  0  0  0  0  0  0  0  0  0  0
    5.8988   -2.1466   -0.9726 C   0  0  0  0  0  0  0  0  0  0  0  0
    4.7515   -1.4273   -0.6411 C   0  0  0  0  0  0  0  0  0  0  0  0
    4.2545   -0.3936   -1.4687 C   0  0  0  0  0  0  0  0  0  0  0  0
    0.5759    0.2043   -1.0789 H   0  0  0  0  0  0  0  0  0  0  0  0
    1.2179   -0.1262    2.6101 H   0  0  0  0  0  0  0  0  0  0  0  0
   -0.5231   -0.7920    4.1710 H   0  0  0  0  0  0  0  0  0  0  0  0
   -3.3969   -0.8937    0.9703 H   0  0  0  0  0  0  0  0  0  0  0  0
   -1.6488   -0.2359   -0.6292 H   0  0  0  0  0  0  0  0  0  0  0  0
    1.8475    2.0596   -1.7742 H   0  0  0  0  0  0  0  0  0  0  0  0
    3.1258    2.5227   -3.8275 H   0  0  0  0  0  0  0  0  0  0  0  0
    5.0943    1.1685   -4.4027 H   0  0  0  0  0  0  0  0  0  0  0  0
    6.6220   -0.6909   -3.9396 H   0  0  0  0  0  0  0  0  0  0  0  0
    5.6027   -4.5166   -2.3844 H   0  0  0  0  0  0  0  0  0  0  0  0
    5.9993   -6.7983   -1.4972 H   0  0  0  0  0  0  0  0  0  0  0  0
   10.0740   -6.2140   -1.3556 H   0  0  0  0  0  0  0  0  0  0  0  0
    9.8601   -3.8525   -2.1445 H   0  0  0  0  0  0  0  0  0  0  0  0
    6.2629   -2.8942   -0.2724 H   0  0  0  0  0  0  0  0  0  0  0  0
    4.2586   -1.6928    0.2926 H   0  0  0  0  0  0  0  0  0  0  0  0
  1  2  2  0  0  0  0
  2  3  1  0  0  0  0
  2 11  1  0  0  0  0
  3  4  1  0  0  0  0
  3 28  1  0  0  0  0
  4  5  1  0  0  0  0
  4 10  2  0  0  0  0
  5  6  2  0  0  0  0
  5 29  1  0  0  0  0
  6  7  1  0  0  0  0
  6 30  1  0  0  0  0
  7  8  1  0  0  0  0
  7  9  2  0  0  0  0
  9 10  1  0  0  0  0
  9 31  1  0  0  0  0
 10 32  1  0  0  0  0
 11 12  1  0  0  0  0
 11 27  2  0  0  0  0
 12 13  2  0  0  0  0
 12 33  1  0  0  0  0
 13 14  1  0  0  0  0
 13 34  1  0  0  0  0
 14 15  2  0  0  0  0
 14 35  1  0  0  0  0
 15 16  1  0  0  0  0
 15 27  1  0  0  0  0
 16 17  2  0  0  0  0
 16 36  1  0  0  0  0
 17 18  1  0  0  0  0
 17 25  1  0  0  0  0
 18 19  1  0  0  0  0
 19 20  1  0  0  0  0
 19 24  2  0  0  0  0
 20 21  2  0  0  0  0
 20 37  1  0  0  0  0
 21 22  1  0  0  0  0
 21 38  1  0  0  0  0
 22 23  2  0  0  0  0
 23 24  1  0  0  0  0
 23 39  1  0  0  0  0
 24 40  1  0  0  0  0
 25 26  2  0  0  0  0
 25 41  1  0  0  0  0
 26 27  1  0  0  0  0
 26 42  1  0  0  0  0
M  END
$$$$
