CHEMBL2086760
 OpenBabel04072215363D

 58 62  0  0  0  0  0  0  0  0999 V2000
    3.3579   -0.1801    4.7786 C   0  0  0  0  0  0  0  0  0  0  0  0
    3.2191   -1.6414    4.3671 C   0  0  0  0  0  0  0  0  0  0  0  0
    4.4729   -2.2109    3.8424 N   0  0  0  0  0  0  0  0  0  0  0  0
    4.2809   -3.6442    3.5625 C   0  0  0  0  0  0  0  0  0  0  0  0
    5.5824   -4.2742    3.0714 C   0  0  0  0  0  0  0  0  0  0  0  0
    6.0727   -3.5967    1.7860 C   0  0  0  0  0  0  0  0  0  0  0  0
    5.1474   -3.8166    0.6521 N   0  0  0  0  0  0  0  0  0  0  0  0
    4.8780   -5.1367    0.2523 C   0  0  0  0  0  0  0  0  0  0  0  0
    5.8353   -6.1638    0.3437 C   0  0  0  0  0  0  0  0  0  0  0  0
    5.5309   -7.4720   -0.0212 C   0  0  0  0  0  0  0  0  0  0  0  0
    4.2689   -7.7080   -0.5171 C   0  0  0  0  0  0  0  0  0  0  0  0
    3.3094   -6.7049   -0.6988 C   0  0  0  0  0  0  0  0  0  0  0  0
    3.6208   -5.4057   -0.3254 C   0  0  0  0  0  0  0  0  0  0  0  0
    2.1083   -7.3833   -1.2388 C   0  0  0  0  0  0  0  0  0  0  0  0
    0.8868   -6.8969   -1.5660 C   0  0  0  0  0  0  0  0  0  0  0  0
    0.5623   -5.4516   -1.5170 C   0  0  0  0  0  0  0  0  0  0  0  0
    0.7848   -4.6495   -2.6483 C   0  0  0  0  0  0  0  0  0  0  0  0
    0.3149   -3.3342   -2.6806 C   0  0  0  0  0  0  0  0  0  0  0  0
   -0.3742   -2.8170   -1.5866 C   0  0  0  0  0  0  0  0  0  0  0  0
   -1.0308   -1.2285   -1.6660 Cl  0  0  0  0  0  0  0  0  0  0  0  0
   -0.5616   -3.5888   -0.4413 C   0  0  0  0  0  0  0  0  0  0  0  0
   -0.0971   -4.9064   -0.4073 C   0  0  0  0  0  0  0  0  0  0  0  0
   -0.1536   -7.8075   -1.9161 C   0  0  0  0  0  0  0  0  0  0  0  0
   -1.0567   -8.4064   -1.1614 N   0  0  0  0  0  0  0  0  0  0  0  0
   -1.8019   -9.1773   -2.0207 C   0  0  0  0  0  0  0  0  0  0  0  0
   -1.3886   -9.0035   -3.3154 C   0  0  0  0  0  0  0  0  0  0  0  0
   -0.3439   -8.1270   -3.2410 N   0  0  0  0  0  0  0  0  0  0  0  0
    2.4913   -8.8489   -1.3869 C   0  0  0  0  0  0  0  0  0  0  0  0
    1.8781   -9.7616   -1.9042 O   0  0  0  0  0  0  0  0  0  0  0  0
    3.7803   -8.9431   -0.9034 N   0  0  0  0  0  0  0  0  0  0  0  0
    6.2050   -2.0979    2.0529 C   0  0  0  0  0  0  0  0  0  0  0  0
    4.9210   -1.5048    2.6293 C   0  0  0  0  0  0  0  0  0  0  0  0
    2.4431    0.1615    5.2724 H   0  0  0  0  0  0  0  0  0  0  0  0
    3.5178    0.4717    3.9144 H   0  0  0  0  0  0  0  0  0  0  0  0
    4.1923   -0.0457    5.4747 H   0  0  0  0  0  0  0  0  0  0  0  0
    2.4058   -1.7394    3.6363 H   0  0  0  0  0  0  0  0  0  0  0  0
    2.9179   -2.2054    5.2597 H   0  0  0  0  0  0  0  0  0  0  0  0
    3.4813   -3.8010    2.8251 H   0  0  0  0  0  0  0  0  0  0  0  0
    3.9759   -4.1682    4.4768 H   0  0  0  0  0  0  0  0  0  0  0  0
    5.4402   -5.3515    2.9399 H   0  0  0  0  0  0  0  0  0  0  0  0
    6.3510   -4.1651    3.8488 H   0  0  0  0  0  0  0  0  0  0  0  0
    7.0690   -3.9681    1.5200 H   0  0  0  0  0  0  0  0  0  0  0  0
    5.4189   -3.2703   -0.1655 H   0  0  0  0  0  0  0  0  0  0  0  0
    6.8302   -5.9651    0.7313 H   0  0  0  0  0  0  0  0  0  0  0  0
    6.2612   -8.2634    0.0958 H   0  0  0  0  0  0  0  0  0  0  0  0
    2.8997   -4.6014   -0.4136 H   0  0  0  0  0  0  0  0  0  0  0  0
    1.2888   -5.0539   -3.5229 H   0  0  0  0  0  0  0  0  0  0  0  0
    0.4595   -2.7313   -3.5748 H   0  0  0  0  0  0  0  0  0  0  0  0
   -1.0967   -3.1851    0.4140 H   0  0  0  0  0  0  0  0  0  0  0  0
   -0.2875   -5.5201    0.4718 H   0  0  0  0  0  0  0  0  0  0  0  0
   -2.5951   -9.8156   -1.6531 H   0  0  0  0  0  0  0  0  0  0  0  0
   -1.7165   -9.4316   -4.2521 H   0  0  0  0  0  0  0  0  0  0  0  0
    0.2219   -7.7962   -4.0094 H   0  0  0  0  0  0  0  0  0  0  0  0
    4.2889   -9.8141   -0.8881 H   0  0  0  0  0  0  0  0  0  0  0  0
    6.4779   -1.5618    1.1375 H   0  0  0  0  0  0  0  0  0  0  0  0
    7.0236   -1.9365    2.7690 H   0  0  0  0  0  0  0  0  0  0  0  0
    4.1334   -1.5032    1.8660 H   0  0  0  0  0  0  0  0  0  0  0  0
    5.1486   -0.4609    2.8673 H   0  0  0  0  0  0  0  0  0  0  0  0
  1  2  1  0  0  0  0
  1 33  1  0  0  0  0
  1 34  1  0  0  0  0
  1 35  1  0  0  0  0
  2  3  1  0  0  0  0
  2 36  1  0  0  0  0
  2 37  1  0  0  0  0
  3  4  1  0  0  0  0
  3 32  1  0  0  0  0
  4  5  1  0  0  0  0
  4 38  1  0  0  0  0
  4 39  1  0  0  0  0
  5  6  1  0  0  0  0
  5 40  1  0  0  0  0
  5 41  1  0  0  0  0
  6  7  1  0  0  0  0
  6 31  1  0  0  0  0
  6 42  1  0  0  0  0
  7  8  1  0  0  0  0
  7 43  1  0  0  0  0
  8  9  1  0  0  0  0
  8 13  2  0  0  0  0
  9 10  2  0  0  0  0
  9 44  1  0  0  0  0
 10 11  1  0  0  0  0
 10 45  1  0  0  0  0
 11 12  2  0  0  0  0
 11 30  1  0  0  0  0
 12 13  1  0  0  0  0
 12 14  1  0  0  0  0
 13 46  1  0  0  0  0
 14 15  2  3  0  0  0
 14 28  1  0  0  0  0
 15 16  1  0  0  0  0
 15 23  1  0  0  0  0
 16 17  1  0  0  0  0
 16 22  2  0  0  0  0
 17 18  2  0  0  0  0
 17 47  1  0  0  0  0
 18 19  1  0  0  0  0
 18 48  1  0  0  0  0
 19 20  1  0  0  0  0
 19 21  2  0  0  0  0
 21 22  1  0  0  0  0
 21 49  1  0  0  0  0
 22 50  1  0  0  0  0
 23 24  2  0  0  0  0
 23 27  1  0  0  0  0
 24 25  1  0  0  0  0
 25 26  2  0  0  0  0
 25 51  1  0  0  0  0
 26 27  1  0  0  0  0
 26 52  1  0  0  0  0
 27 53  1  0  0  0  0
 28 29  2  0  0  0  0
 28 30  1  0  0  0  0
 30 54  1  0  0  0  0
 31 32  1  0  0  0  0
 31 55  1  0  0  0  0
 31 56  1  0  0  0  0
 32 57  1  0  0  0  0
 32 58  1  0  0  0  0
M  END
$$$$
