CHEMBL3648080
 OpenBabel04072215373D

 67 68  0  0  1  0  0  0  0  0999 V2000
    1.9358    1.4899    0.2750 C   0  0  0  0  0  0  0  0  0  0  0  0
    2.5359    0.6882   -0.8814 C   0  0  2  0  0  0  0  0  0  0  0  0
    2.8224   -0.6409   -0.4229 O   0  0  0  0  0  0  0  0  0  0  0  0
    3.8168    1.3070   -1.5219 C   0  0  1  0  0  0  0  0  0  0  0  0
    3.5205    2.7153   -2.0452 C   0  0  0  0  0  0  0  0  0  0  0  0
    4.8857    1.3401   -0.5114 N   0  0  0  0  0  0  0  0  0  0  0  0
    6.1884    1.7125   -0.8960 C   0  0  0  0  0  0  0  0  0  0  0  0
    6.5800    1.5788   -2.1843 N   0  0  0  0  0  0  0  0  0  0  0  0
    7.8438    1.9232   -2.4966 C   0  0  0  0  0  0  0  0  0  0  0  0
    8.2505    1.7835   -3.8280 N   0  0  0  0  0  0  0  0  0  0  0  0
    9.1651    2.5665   -4.5555 C   0  0  0  0  0  0  0  0  0  0  0  0
    9.8311    3.6691   -3.9945 C   0  0  0  0  0  0  0  0  0  0  0  0
   10.7242    4.4561   -4.7298 C   0  0  0  0  0  0  0  0  0  0  0  0
   10.9746    4.1350   -6.0491 C   0  0  0  0  0  0  0  0  0  0  0  0
   11.9613    5.1762   -7.0520 S   0  0  3  0  0  0  0  0  0  0  0  0
   13.0962    4.4315   -7.5337 O   0  0  0  0  0  0  0  0  0  0  0  0
   10.9216    5.7645   -8.3558 C   0  0  0  0  0  0  0  0  0  0  0  0
    9.7434    6.5059   -7.8039 C   0  0  0  0  0  0  0  0  0  0  0  0
    9.3050    7.5337   -8.3132 O   0  0  0  0  0  0  0  0  0  0  0  0
   12.3588    6.5215   -6.1480 N   0  0  0  0  0  0  0  0  0  0  0  0
   13.3730    7.7660   -6.6924 S   0  0  0  0  0  0  0  0  0  0  0  0
   14.0446    8.3360   -5.5407 O   0  0  0  0  0  0  0  0  0  0  0  0
   14.1097    7.3403   -7.8617 O   0  0  0  0  0  0  0  0  0  0  0  0
   12.1561    8.9566   -7.2403 C   0  0  0  0  0  0  0  0  0  0  0  0
   12.7899   10.1872   -7.8822 C   0  0  0  0  0  0  0  0  0  0  0  0
   11.5445   11.4460   -8.5913 Si  0  0  0  0  0  0  0  0  0  0  0  0
   12.5171   12.8522   -9.3621 C   0  0  0  0  0  0  0  0  0  0  0  0
   10.4715   10.6470   -9.9047 C   0  0  0  0  0  0  0  0  0  0  0  0
   10.4587   12.1019   -7.2129 C   0  0  0  0  0  0  0  0  0  0  0  0
   10.3949    2.9963   -6.6182 C   0  0  0  0  0  0  0  0  0  0  0  0
    9.5012    2.2143   -5.8704 C   0  0  0  0  0  0  0  0  0  0  0  0
    8.7244    2.3827   -1.5938 N   0  0  0  0  0  0  0  0  0  0  0  0
    8.3204    2.4962   -0.3218 C   0  0  0  0  0  0  0  0  0  0  0  0
    7.0648    2.1474    0.0929 C   0  0  0  0  0  0  0  0  0  0  0  0
    6.6047    2.3105    1.9172 Br  0  0  0  0  0  0  0  0  0  0  0  0
    1.6214    2.4893   -0.0385 H   0  0  0  0  0  0  0  0  0  0  0  0
    2.6427    1.5889    1.1057 H   0  0  0  0  0  0  0  0  0  0  0  0
    1.0583    0.9706    0.6770 H   0  0  0  0  0  0  0  0  0  0  0  0
    1.7717    0.5888   -1.6611 H   0  0  0  0  0  0  0  0  0  0  0  0
    3.2379   -0.5653    0.4525 H   0  0  0  0  0  0  0  0  0  0  0  0
    4.1169    0.6517   -2.3491 H   0  0  0  0  0  0  0  0  0  0  0  0
    3.4716    3.4486   -1.2319 H   0  0  0  0  0  0  0  0  0  0  0  0
    2.5684    2.7419   -2.5864 H   0  0  0  0  0  0  0  0  0  0  0  0
    4.2987    3.0514   -2.7373 H   0  0  0  0  0  0  0  0  0  0  0  0
    4.9825    0.4368   -0.0514 H   0  0  0  0  0  0  0  0  0  0  0  0
    7.5349    1.3137   -4.3636 H   0  0  0  0  0  0  0  0  0  0  0  0
    9.6506    3.9668   -2.9665 H   0  0  0  0  0  0  0  0  0  0  0  0
   11.1926    5.2973   -4.2284 H   0  0  0  0  0  0  0  0  0  0  0  0
   10.5691    4.9024   -8.9245 H   0  0  0  0  0  0  0  0  0  0  0  0
   11.5205    6.4034   -9.0082 H   0  0  0  0  0  0  0  0  0  0  0  0
    9.2206    6.0590   -6.9437 H   0  0  0  0  0  0  0  0  0  0  0  0
   11.5367    9.2210   -6.3776 H   0  0  0  0  0  0  0  0  0  0  0  0
   11.5457    8.4544   -7.9867 H   0  0  0  0  0  0  0  0  0  0  0  0
   13.4401    9.8760   -8.7079 H   0  0  0  0  0  0  0  0  0  0  0  0
   13.4272   10.7015   -7.1546 H   0  0  0  0  0  0  0  0  0  0  0  0
   13.1565   12.4786  -10.1675 H   0  0  0  0  0  0  0  0  0  0  0  0
   13.1535   13.3331   -8.6139 H   0  0  0  0  0  0  0  0  0  0  0  0
   11.8435   13.6060   -9.7794 H   0  0  0  0  0  0  0  0  0  0  0  0
   11.0822   10.2285  -10.7098 H   0  0  0  0  0  0  0  0  0  0  0  0
    9.7886   11.3822  -10.3418 H   0  0  0  0  0  0  0  0  0  0  0  0
    9.8667    9.8422   -9.4799 H   0  0  0  0  0  0  0  0  0  0  0  0
   11.0653   12.5681   -6.4314 H   0  0  0  0  0  0  0  0  0  0  0  0
    9.8746   11.2958   -6.7590 H   0  0  0  0  0  0  0  0  0  0  0  0
    9.7607   12.8517   -7.5974 H   0  0  0  0  0  0  0  0  0  0  0  0
   10.6365    2.6985   -7.6356 H   0  0  0  0  0  0  0  0  0  0  0  0
    9.0713    1.3237   -6.3262 H   0  0  0  0  0  0  0  0  0  0  0  0
    9.0668    2.8918    0.3594 H   0  0  0  0  0  0  0  0  0  0  0  0
  1 36  1  0  0  0  0
  1 37  1  0  0  0  0
  1 38  1  0  0  0  0
  2  4  1  0  0  0  0
  2  3  1  0  0  0  0
  2  1  1  0  0  0  0
  2 39  1  6  0  0  0
  3 40  1  0  0  0  0
  4  5  1  0  0  0  0
  4  6  1  0  0  0  0
  4 41  1  6  0  0  0
  5 42  1  0  0  0  0
  5 43  1  0  0  0  0
  5 44  1  0  0  0  0
  6  7  1  0  0  0  0
  6 45  1  0  0  0  0
  7  8  1  0  0  0  0
  7 34  2  0  0  0  0
  8  9  2  0  0  0  0
  9 10  1  0  0  0  0
  9 32  1  0  0  0  0
 10 11  1  0  0  0  0
 10 46  1  0  0  0  0
 11 12  1  0  0  0  0
 11 31  2  0  0  0  0
 12 13  2  0  0  0  0
 12 47  1  0  0  0  0
 13 14  1  0  0  0  0
 13 48  1  0  0  0  0
 14 15  1  0  0  0  0
 14 30  2  0  0  0  0
 15 16  2  0  0  0  0
 15 17  1  0  0  0  0
 15 20  2  0  0  0  0
 17 18  1  0  0  0  0
 17 49  1  0  0  0  0
 17 50  1  0  0  0  0
 18 19  2  0  0  0  0
 18 51  1  0  0  0  0
 20 21  1  0  0  0  0
 21 22  2  0  0  0  0
 21 23  2  0  0  0  0
 21 24  1  0  0  0  0
 24 25  1  0  0  0  0
 24 52  1  0  0  0  0
 24 53  1  0  0  0  0
 25 26  1  0  0  0  0
 25 54  1  0  0  0  0
 25 55  1  0  0  0  0
 26 27  1  0  0  0  0
 26 28  1  0  0  0  0
 26 29  1  0  0  0  0
 27 56  1  0  0  0  0
 27 57  1  0  0  0  0
 27 58  1  0  0  0  0
 28 59  1  0  0  0  0
 28 60  1  0  0  0  0
 28 61  1  0  0  0  0
 29 62  1  0  0  0  0
 29 63  1  0  0  0  0
 29 64  1  0  0  0  0
 30 31  1  0  0  0  0
 30 65  1  0  0  0  0
 31 66  1  0  0  0  0
 32 33  2  0  0  0  0
 33 34  1  0  0  0  0
 33 67  1  0  0  0  0
 34 35  1  0  0  0  0
M  END
$$$$
