CHEMBL248978
 OpenBabel04072215363D

 43 45  0  0  0  0  0  0  0  0999 V2000
    0.8551   -0.2138   -0.5250 O   0  0  0  0  0  0  0  0  0  0  0  0
    2.0100    0.0056   -0.1777 C   0  0  0  0  0  0  0  0  0  0  0  0
    2.5055    1.2084    0.2979 N   0  0  0  0  0  0  0  0  0  0  0  0
    1.7653    2.4038    0.4385 C   0  0  0  0  0  0  0  0  0  0  0  0
    0.4157    2.5129    0.0859 C   0  0  0  0  0  0  0  0  0  0  0  0
   -0.2892    3.7107    0.2395 C   0  0  0  0  0  0  0  0  0  0  0  0
    0.3346    4.8210    0.7873 C   0  0  0  0  0  0  0  0  0  0  0  0
   -0.2427    6.0307    1.0166 O   0  0  0  0  0  0  0  0  0  0  0  0
   -1.6479    6.1182    1.2205 C   0  0  0  0  0  0  0  0  0  0  0  0
   -2.2564    4.9360    1.4507 F   0  0  0  0  0  0  0  0  0  0  0  0
   -1.8698    6.9032    2.2998 F   0  0  0  0  0  0  0  0  0  0  0  0
   -2.2257    6.7059    0.1502 F   0  0  0  0  0  0  0  0  0  0  0  0
    1.6940    4.7356    1.1108 C   0  0  0  0  0  0  0  0  0  0  0  0
    2.4050    3.5371    0.9438 C   0  0  0  0  0  0  0  0  0  0  0  0
    2.9542   -1.1307   -0.3072 C   0  0  0  0  0  0  0  0  0  0  0  0
    2.6579   -2.0545   -1.3274 C   0  0  0  0  0  0  0  0  0  0  0  0
    3.4372   -3.1867   -1.4886 C   0  0  0  0  0  0  0  0  0  0  0  0
    4.5006   -3.3473   -0.6276 C   0  0  0  0  0  0  0  0  0  0  0  0
    4.8314   -2.4617    0.3479 N   0  0  0  0  0  0  0  0  0  0  0  0
    4.0656   -1.3550    0.5129 C   0  0  0  0  0  0  0  0  0  0  0  0
    4.4265   -0.4277    1.5117 N   0  0  0  0  0  0  0  0  0  0  0  0
    5.6946   -0.7079    2.1797 C   0  0  0  0  0  0  0  0  0  0  0  0
    6.1532    0.5479    2.8819 C   0  0  0  0  0  0  0  0  0  0  0  0
    6.0421    0.7081    4.2653 C   0  0  0  0  0  0  0  0  0  0  0  0
    6.4902    1.8939    4.8319 C   0  0  0  0  0  0  0  0  0  0  0  0
    7.0239    2.9138    4.1255 N   0  0  0  0  0  0  0  0  0  0  0  0
    7.1199    2.7414    2.7915 C   0  0  0  0  0  0  0  0  0  0  0  0
    6.7030    1.5962    2.1340 C   0  0  0  0  0  0  0  0  0  0  0  0
    3.4874    1.2253    0.5739 H   0  0  0  0  0  0  0  0  0  0  0  0
   -0.1426    1.6778   -0.3216 H   0  0  0  0  0  0  0  0  0  0  0  0
   -1.3249    3.7182   -0.0860 H   0  0  0  0  0  0  0  0  0  0  0  0
    2.2068    5.6089    1.5096 H   0  0  0  0  0  0  0  0  0  0  0  0
    3.4565    3.5108    1.2202 H   0  0  0  0  0  0  0  0  0  0  0  0
    1.8081   -1.8848   -1.9892 H   0  0  0  0  0  0  0  0  0  0  0  0
    3.2173   -3.9097   -2.2674 H   0  0  0  0  0  0  0  0  0  0  0  0
    5.1387   -4.2219   -0.6929 H   0  0  0  0  0  0  0  0  0  0  0  0
    3.6642   -0.3613    2.1882 H   0  0  0  0  0  0  0  0  0  0  0  0
    6.4823   -0.9806    1.4620 H   0  0  0  0  0  0  0  0  0  0  0  0
    5.5947   -1.5372    2.8910 H   0  0  0  0  0  0  0  0  0  0  0  0
    5.6285   -0.0688    4.8996 H   0  0  0  0  0  0  0  0  0  0  0  0
    6.4344    2.0599    5.9047 H   0  0  0  0  0  0  0  0  0  0  0  0
    7.5579    3.5716    2.2452 H   0  0  0  0  0  0  0  0  0  0  0  0
    6.8111    1.5155    1.0572 H   0  0  0  0  0  0  0  0  0  0  0  0
  1  2  2  0  0  0  0
  2  3  1  0  0  0  0
  2 15  1  0  0  0  0
  3  4  1  0  0  0  0
  3 29  1  0  0  0  0
  4  5  1  0  0  0  0
  4 14  2  0  0  0  0
  5  6  2  0  0  0  0
  5 30  1  0  0  0  0
  6  7  1  0  0  0  0
  6 31  1  0  0  0  0
  7  8  1  0  0  0  0
  7 13  2  0  0  0  0
  8  9  1  0  0  0  0
  9 10  1  0  0  0  0
  9 11  1  0  0  0  0
  9 12  1  0  0  0  0
 13 14  1  0  0  0  0
 13 32  1  0  0  0  0
 14 33  1  0  0  0  0
 15 16  1  0  0  0  0
 15 20  2  0  0  0  0
 16 17  2  0  0  0  0
 16 34  1  0  0  0  0
 17 18  1  0  0  0  0
 17 35  1  0  0  0  0
 18 19  2  0  0  0  0
 18 36  1  0  0  0  0
 19 20  1  0  0  0  0
 20 21  1  0  0  0  0
 21 22  1  0  0  0  0
 21 37  1  0  0  0  0
 22 23  1  0  0  0  0
 22 38  1  0  0  0  0
 22 39  1  0  0  0  0
 23 24  1  0  0  0  0
 23 28  2  0  0  0  0
 24 25  2  0  0  0  0
 24 40  1  0  0  0  0
 25 26  1  0  0  0  0
 25 41  1  0  0  0  0
 26 27  2  0  0  0  0
 27 28  1  0  0  0  0
 27 42  1  0  0  0  0
 28 43  1  0  0  0  0
M  END
$$$$
