CHEMBL3961887
 OpenBabel04072215373D

 60 63  0  0  0  0  0  0  0  0999 V2000
    1.4571   -0.9533   -0.1840 C   0  0  0  0  0  0  0  0  0  0  0  0
    2.7226   -0.3060   -0.1954 O   0  0  0  0  0  0  0  0  0  0  0  0
    3.2775    0.0395    1.0103 C   0  0  0  0  0  0  0  0  0  0  0  0
    2.9270   -0.5972    2.2169 C   0  0  0  0  0  0  0  0  0  0  0  0
    3.5835   -0.3003    3.4174 C   0  0  0  0  0  0  0  0  0  0  0  0
    3.2895   -0.9745    4.6946 C   0  0  0  0  0  0  0  0  0  0  0  0
    2.8095   -2.1969    4.9725 C   0  0  0  0  0  0  0  0  0  0  0  0
    2.2288   -3.2446    4.2048 C   0  0  0  0  0  0  0  0  0  0  0  0
    0.8510   -3.3094    4.1150 C   0  0  0  0  0  0  0  0  0  0  0  0
    0.5284   -4.6216    4.3713 N   0  0  0  0  0  0  0  0  0  0  0  0
   -0.6758   -5.0611    5.0642 C   0  0  0  0  0  0  0  0  0  0  0  0
   -1.9355   -4.2095    4.8565 C   0  0  0  0  0  0  0  0  0  0  0  0
   -3.1067   -4.7405    5.5948 N   0  0  0  0  0  0  0  0  0  0  0  0
   -2.8934   -4.6929    7.0488 C   0  0  0  0  0  0  0  0  0  0  0  0
   -4.3022   -3.9677    5.2535 C   0  0  0  0  0  0  0  0  0  0  0  0
    1.6613   -5.4135    4.2637 C   0  0  0  0  0  0  0  0  0  0  0  0
    1.8421   -6.7867    4.5003 C   0  0  0  0  0  0  0  0  0  0  0  0
    3.1198   -7.3220    4.3380 C   0  0  0  0  0  0  0  0  0  0  0  0
    4.1841   -6.5153    3.9500 C   0  0  0  0  0  0  0  0  0  0  0  0
    4.0177   -5.1296    3.8153 C   0  0  0  0  0  0  0  0  0  0  0  0
    2.7393   -4.5597    3.9983 C   0  0  0  0  0  0  0  0  0  0  0  0
    2.7406   -2.3342    6.4603 C   0  0  0  0  0  0  0  0  0  0  0  0
    2.2436   -3.2476    7.0947 O   0  0  0  0  0  0  0  0  0  0  0  0
    3.2484   -1.2149    6.9912 N   0  0  0  0  0  0  0  0  0  0  0  0
    3.4514   -0.3089    6.0232 C   0  0  0  0  0  0  0  0  0  0  0  0
    3.6514    0.8777    6.2172 O   0  0  0  0  0  0  0  0  0  0  0  0
    4.5957    0.6697    3.3887 C   0  0  0  0  0  0  0  0  0  0  0  0
    4.9779    1.2998    2.2022 C   0  0  0  0  0  0  0  0  0  0  0  0
    5.9763    2.2405    2.1482 O   0  0  0  0  0  0  0  0  0  0  0  0
    7.0177    2.0814    3.1121 C   0  0  0  0  0  0  0  0  0  0  0  0
    4.3050    1.0045    1.0053 C   0  0  0  0  0  0  0  0  0  0  0  0
    4.7922    1.6519   -0.1062 O   0  0  0  0  0  0  0  0  0  0  0  0
    3.8544    1.9954   -1.1163 C   0  0  0  0  0  0  0  0  0  0  0  0
    1.1492   -1.0940   -1.2247 H   0  0  0  0  0  0  0  0  0  0  0  0
    0.7043   -0.3294    0.3088 H   0  0  0  0  0  0  0  0  0  0  0  0
    1.5134   -1.9462    0.2717 H   0  0  0  0  0  0  0  0  0  0  0  0
    2.1503   -1.3527    2.2227 H   0  0  0  0  0  0  0  0  0  0  0  0
    0.1177   -2.5252    4.2396 H   0  0  0  0  0  0  0  0  0  0  0  0
   -0.3860   -5.0679    6.1221 H   0  0  0  0  0  0  0  0  0  0  0  0
   -0.8791   -6.0883    4.7483 H   0  0  0  0  0  0  0  0  0  0  0  0
   -2.1617   -4.2050    3.7826 H   0  0  0  0  0  0  0  0  0  0  0  0
   -1.7573   -3.1674    5.1490 H   0  0  0  0  0  0  0  0  0  0  0  0
   -2.1002   -5.3838    7.3588 H   0  0  0  0  0  0  0  0  0  0  0  0
   -3.7936   -5.0229    7.5760 H   0  0  0  0  0  0  0  0  0  0  0  0
   -2.6375   -3.6862    7.4006 H   0  0  0  0  0  0  0  0  0  0  0  0
   -4.5024   -4.0253    4.1787 H   0  0  0  0  0  0  0  0  0  0  0  0
   -4.2110   -2.9126    5.5341 H   0  0  0  0  0  0  0  0  0  0  0  0
   -5.1806   -4.3850    5.7595 H   0  0  0  0  0  0  0  0  0  0  0  0
    1.0244   -7.4174    4.8340 H   0  0  0  0  0  0  0  0  0  0  0  0
    3.2808   -8.3808    4.5287 H   0  0  0  0  0  0  0  0  0  0  0  0
    5.1629   -6.9612    3.7933 H   0  0  0  0  0  0  0  0  0  0  0  0
    4.8716   -4.5066    3.5663 H   0  0  0  0  0  0  0  0  0  0  0  0
    3.1765   -0.9880    7.9685 H   0  0  0  0  0  0  0  0  0  0  0  0
    5.1017    0.9404    4.3101 H   0  0  0  0  0  0  0  0  0  0  0  0
    7.8715    2.6874    2.7919 H   0  0  0  0  0  0  0  0  0  0  0  0
    7.3567    1.0412    3.1754 H   0  0  0  0  0  0  0  0  0  0  0  0
    6.7065    2.4496    4.0925 H   0  0  0  0  0  0  0  0  0  0  0  0
    4.2788    2.8234   -1.6935 H   0  0  0  0  0  0  0  0  0  0  0  0
    2.8997    2.3372   -0.7023 H   0  0  0  0  0  0  0  0  0  0  0  0
    3.7163    1.1623   -1.8111 H   0  0  0  0  0  0  0  0  0  0  0  0
  1  2  1  0  0  0  0
  1 34  1  0  0  0  0
  1 35  1  0  0  0  0
  1 36  1  0  0  0  0
  2  3  1  0  0  0  0
  3  4  1  0  0  0  0
  3 31  2  0  0  0  0
  4  5  2  0  0  0  0
  4 37  1  0  0  0  0
  5  6  1  0  0  0  0
  5 27  1  0  0  0  0
  6  7  2  0  0  0  0
  6 25  1  0  0  0  0
  7  8  1  0  0  0  0
  7 22  1  0  0  0  0
  8  9  2  0  0  0  0
  8 21  1  0  0  0  0
  9 10  1  0  0  0  0
  9 38  1  0  0  0  0
 10 11  1  0  0  0  0
 10 16  1  0  0  0  0
 11 12  1  0  0  0  0
 11 39  1  0  0  0  0
 11 40  1  0  0  0  0
 12 13  1  0  0  0  0
 12 41  1  0  0  0  0
 12 42  1  0  0  0  0
 13 14  1  0  0  0  0
 13 15  1  0  0  0  0
 14 43  1  0  0  0  0
 14 44  1  0  0  0  0
 14 45  1  0  0  0  0
 15 46  1  0  0  0  0
 15 47  1  0  0  0  0
 15 48  1  0  0  0  0
 16 17  1  0  0  0  0
 16 21  2  0  0  0  0
 17 18  2  0  0  0  0
 17 49  1  0  0  0  0
 18 19  1  0  0  0  0
 18 50  1  0  0  0  0
 19 20  2  0  0  0  0
 19 51  1  0  0  0  0
 20 21  1  0  0  0  0
 20 52  1  0  0  0  0
 22 23  2  0  0  0  0
 22 24  1  0  0  0  0
 24 25  1  0  0  0  0
 24 53  1  0  0  0  0
 25 26  2  0  0  0  0
 27 28  2  0  0  0  0
 27 54  1  0  0  0  0
 28 29  1  0  0  0  0
 28 31  1  0  0  0  0
 29 30  1  0  0  0  0
 30 55  1  0  0  0  0
 30 56  1  0  0  0  0
 30 57  1  0  0  0  0
 31 32  1  0  0  0  0
 32 33  1  0  0  0  0
 33 58  1  0  0  0  0
 33 59  1  0  0  0  0
 33 60  1  0  0  0  0
M  END
$$$$
