CHEMBL197828
 OpenBabel04072215363D

 50 53  0  0  0  0  0  0  0  0999 V2000
    3.9007    5.5433   -1.7709 C   0  0  0  0  0  0  0  0  0  0  0  0
    2.8470    4.4401   -1.7456 C   0  0  0  0  0  0  0  0  0  0  0  0
    3.0773    3.3127   -0.7570 C   0  0  0  0  0  0  0  0  0  0  0  0
    4.6953    2.8657   -0.3952 S   0  0  0  0  0  0  0  0  0  0  0  0
    4.2241    1.6717    0.6993 C   0  0  0  0  0  0  0  0  0  0  0  0
    5.1728    0.9916    1.3637 N   0  0  0  0  0  0  0  0  0  0  0  0
    4.6674    0.0705    2.1765 C   0  0  0  0  0  0  0  0  0  0  0  0
    3.3774   -0.2319    2.3432 N   0  0  0  0  0  0  0  0  0  0  0  0
    2.4509    0.4532    1.6446 C   0  0  0  0  0  0  0  0  0  0  0  0
    1.1532    0.0152    1.8647 N   0  0  0  0  0  0  0  0  0  0  0  0
    2.8502    1.5023    0.7763 C   0  0  0  0  0  0  0  0  0  0  0  0
    2.1614    2.4900   -0.0864 C   0  0  0  0  0  0  0  0  0  0  0  0
    0.6967    2.6374   -0.2391 C   0  0  0  0  0  0  0  0  0  0  0  0
   -0.1254    2.4791    0.8753 C   0  0  0  0  0  0  0  0  0  0  0  0
   -1.5152    2.3776    0.7495 C   0  0  0  0  0  0  0  0  0  0  0  0
   -2.1465    2.5731   -0.4776 C   0  0  0  0  0  0  0  0  0  0  0  0
   -3.5423    2.4328   -0.6602 N   0  0  0  0  0  0  0  0  0  0  0  0
   -4.4623    2.1096    0.3240 C   0  0  0  0  0  0  0  0  0  0  0  0
   -4.2133    2.0013    1.5212 O   0  0  0  0  0  0  0  0  0  0  0  0
   -5.7190    1.8546   -0.2089 N   0  0  0  0  0  0  0  0  0  0  0  0
   -6.8028    1.5071    0.6315 C   0  0  0  0  0  0  0  0  0  0  0  0
   -7.6367    0.4552    0.2535 C   0  0  0  0  0  0  0  0  0  0  0  0
   -8.6635    0.0380    1.1042 C   0  0  0  0  0  0  0  0  0  0  0  0
   -8.8963    0.7087    2.3059 C   0  0  0  0  0  0  0  0  0  0  0  0
   -8.0999    1.8002    2.6778 C   0  0  0  0  0  0  0  0  0  0  0  0
   -8.3583    2.5657    3.9522 C   0  0  0  0  0  0  0  0  0  0  0  0
   -9.4604    2.1322    4.6284 F   0  0  0  0  0  0  0  0  0  0  0  0
   -7.3273    2.4910    4.8369 F   0  0  0  0  0  0  0  0  0  0  0  0
   -8.5663    3.8941    3.7279 F   0  0  0  0  0  0  0  0  0  0  0  0
   -7.0446    2.1835    1.8334 C   0  0  0  0  0  0  0  0  0  0  0  0
   -1.3437    2.8671   -1.5818 C   0  0  0  0  0  0  0  0  0  0  0  0
    0.0621    2.8621   -1.4706 C   0  0  0  0  0  0  0  0  0  0  0  0
    3.6335    6.2948   -2.5216 H   0  0  0  0  0  0  0  0  0  0  0  0
    4.8927    5.1666   -2.0410 H   0  0  0  0  0  0  0  0  0  0  0  0
    3.9742    6.0447   -0.8005 H   0  0  0  0  0  0  0  0  0  0  0  0
    2.7791    4.0030   -2.7497 H   0  0  0  0  0  0  0  0  0  0  0  0
    1.8881    4.9242   -1.5322 H   0  0  0  0  0  0  0  0  0  0  0  0
    5.3768   -0.5042    2.7626 H   0  0  0  0  0  0  0  0  0  0  0  0
    1.1568   -0.8538    2.3870 H   0  0  0  0  0  0  0  0  0  0  0  0
    0.5467    0.0377    1.0559 H   0  0  0  0  0  0  0  0  0  0  0  0
    0.2966    2.3608    1.8731 H   0  0  0  0  0  0  0  0  0  0  0  0
   -2.0600    2.1285    1.6553 H   0  0  0  0  0  0  0  0  0  0  0  0
   -3.9103    2.6542   -1.5736 H   0  0  0  0  0  0  0  0  0  0  0  0
   -5.7077    1.4267   -1.1223 H   0  0  0  0  0  0  0  0  0  0  0  0
   -7.4608   -0.0949   -0.6662 H   0  0  0  0  0  0  0  0  0  0  0  0
   -9.2769   -0.8189    0.8355 H   0  0  0  0  0  0  0  0  0  0  0  0
   -9.7021    0.3729    2.9566 H   0  0  0  0  0  0  0  0  0  0  0  0
   -6.4109    3.0204    2.1273 H   0  0  0  0  0  0  0  0  0  0  0  0
   -1.7865    3.0629   -2.5545 H   0  0  0  0  0  0  0  0  0  0  0  0
    0.6411    3.0200   -2.3756 H   0  0  0  0  0  0  0  0  0  0  0  0
  1  2  1  0  0  0  0
  1 33  1  0  0  0  0
  1 34  1  0  0  0  0
  1 35  1  0  0  0  0
  2  3  1  0  0  0  0
  2 36  1  0  0  0  0
  2 37  1  0  0  0  0
  3  4  1  0  0  0  0
  3 12  2  0  0  0  0
  4  5  1  0  0  0  0
  5  6  1  0  0  0  0
  5 11  2  0  0  0  0
  6  7  2  0  0  0  0
  7  8  1  0  0  0  0
  7 38  1  0  0  0  0
  8  9  2  0  0  0  0
  9 10  1  0  0  0  0
  9 11  1  0  0  0  0
 10 39  1  0  0  0  0
 10 40  1  0  0  0  0
 11 12  1  0  0  0  0
 12 13  1  0  0  0  0
 13 14  1  0  0  0  0
 13 32  2  0  0  0  0
 14 15  2  0  0  0  0
 14 41  1  0  0  0  0
 15 16  1  0  0  0  0
 15 42  1  0  0  0  0
 16 17  1  0  0  0  0
 16 31  2  0  0  0  0
 17 18  1  0  0  0  0
 17 43  1  0  0  0  0
 18 19  2  0  0  0  0
 18 20  1  0  0  0  0
 20 21  1  0  0  0  0
 20 44  1  0  0  0  0
 21 22  1  0  0  0  0
 21 30  2  0  0  0  0
 22 23  2  0  0  0  0
 22 45  1  0  0  0  0
 23 24  1  0  0  0  0
 23 46  1  0  0  0  0
 24 25  2  0  0  0  0
 24 47  1  0  0  0  0
 25 26  1  0  0  0  0
 25 30  1  0  0  0  0
 26 27  1  0  0  0  0
 26 28  1  0  0  0  0
 26 29  1  0  0  0  0
 30 48  1  0  0  0  0
 31 32  1  0  0  0  0
 31 49  1  0  0  0  0
 32 50  1  0  0  0  0
M  END
$$$$
