CHEMBL1097743
 OpenBabel04072215363D

 45 48  0  0  0  0  0  0  0  0999 V2000
    3.9378    0.9129    4.2190 F   0  0  0  0  0  0  0  0  0  0  0  0
    3.8144   -0.4403    4.3315 C   0  0  0  0  0  0  0  0  0  0  0  0
    5.0891   -0.9187    4.4037 F   0  0  0  0  0  0  0  0  0  0  0  0
    3.2623   -0.6632    5.5555 F   0  0  0  0  0  0  0  0  0  0  0  0
    3.0343   -1.0665    3.2046 C   0  0  0  0  0  0  0  0  0  0  0  0
    2.4589   -0.2886    2.1935 C   0  0  0  0  0  0  0  0  0  0  0  0
    1.7981   -0.8966    1.1257 C   0  0  0  0  0  0  0  0  0  0  0  0
    1.7170   -2.2900    1.0525 C   0  0  0  0  0  0  0  0  0  0  0  0
    2.2581   -3.0911    2.0626 C   0  0  0  0  0  0  0  0  0  0  0  0
    2.2209   -4.4979    1.9271 N   0  0  0  0  0  0  0  0  0  0  0  0
    2.2603   -5.3964    3.0104 C   0  0  0  0  0  0  0  0  0  0  0  0
    1.5669   -5.0925    4.1413 N   0  0  0  0  0  0  0  0  0  0  0  0
    1.6347   -5.9157    5.1988 C   0  0  0  0  0  0  0  0  0  0  0  0
    2.3435   -7.0466    5.3119 N   0  0  0  0  0  0  0  0  0  0  0  0
    3.0041   -7.3240    4.1792 C   0  0  0  0  0  0  0  0  0  0  0  0
    3.8309   -8.3977    4.0254 N   0  0  0  0  0  0  0  0  0  0  0  0
    4.3499   -8.4187    2.7487 C   0  0  0  0  0  0  0  0  0  0  0  0
    5.3067   -9.4741    2.2735 C   0  0  0  0  0  0  0  0  0  0  0  0
    5.0993  -10.8389    2.9390 C   0  0  0  0  0  0  0  0  0  0  0  0
    6.0600  -11.8865    2.4365 C   0  0  0  0  0  0  0  0  0  0  0  0
    7.3091  -12.0597    3.0499 C   0  0  0  0  0  0  0  0  0  0  0  0
    8.1872  -13.0460    2.5981 C   0  0  0  0  0  0  0  0  0  0  0  0
    7.8276  -13.8637    1.5286 C   0  0  0  0  0  0  0  0  0  0  0  0
    6.5929  -13.6918    0.9054 C   0  0  0  0  0  0  0  0  0  0  0  0
    5.7142  -12.7045    1.3537 C   0  0  0  0  0  0  0  0  0  0  0  0
    3.8495   -7.2996    2.0976 C   0  0  0  0  0  0  0  0  0  0  0  0
    3.0066   -6.5917    3.0037 C   0  0  0  0  0  0  0  0  0  0  0  0
    2.9090   -2.4642    3.1364 C   0  0  0  0  0  0  0  0  0  0  0  0
    2.5351    0.7971    2.2253 H   0  0  0  0  0  0  0  0  0  0  0  0
    1.3516   -0.2863    0.3456 H   0  0  0  0  0  0  0  0  0  0  0  0
    1.2033   -2.7502    0.2119 H   0  0  0  0  0  0  0  0  0  0  0  0
    2.8113   -4.8055    1.1624 H   0  0  0  0  0  0  0  0  0  0  0  0
    1.0522   -5.6206    6.0653 H   0  0  0  0  0  0  0  0  0  0  0  0
    4.0128   -9.0581    4.7655 H   0  0  0  0  0  0  0  0  0  0  0  0
    6.3297   -9.1198    2.4504 H   0  0  0  0  0  0  0  0  0  0  0  0
    5.1978   -9.5799    1.1850 H   0  0  0  0  0  0  0  0  0  0  0  0
    4.0688  -11.1843    2.7814 H   0  0  0  0  0  0  0  0  0  0  0  0
    5.2192  -10.7593    4.0272 H   0  0  0  0  0  0  0  0  0  0  0  0
    7.6022  -11.4353    3.8907 H   0  0  0  0  0  0  0  0  0  0  0  0
    9.1499  -13.1805    3.0845 H   0  0  0  0  0  0  0  0  0  0  0  0
    8.5086  -14.6365    1.1819 H   0  0  0  0  0  0  0  0  0  0  0  0
    6.3113  -14.3310    0.0727 H   0  0  0  0  0  0  0  0  0  0  0  0
    4.7526  -12.5854    0.8593 H   0  0  0  0  0  0  0  0  0  0  0  0
    4.0879   -7.0169    1.0798 H   0  0  0  0  0  0  0  0  0  0  0  0
    3.3491   -3.0679    3.9294 H   0  0  0  0  0  0  0  0  0  0  0  0
  1  2  1  0  0  0  0
  2  3  1  0  0  0  0
  2  4  1  0  0  0  0
  2  5  1  0  0  0  0
  5  6  1  0  0  0  0
  5 28  2  0  0  0  0
  6  7  2  0  0  0  0
  6 29  1  0  0  0  0
  7  8  1  0  0  0  0
  7 30  1  0  0  0  0
  8  9  2  0  0  0  0
  8 31  1  0  0  0  0
  9 10  1  0  0  0  0
  9 28  1  0  0  0  0
 10 11  1  0  0  0  0
 10 32  1  0  0  0  0
 11 12  1  0  0  0  0
 11 27  2  0  0  0  0
 12 13  2  0  0  0  0
 13 14  1  0  0  0  0
 13 33  1  0  0  0  0
 14 15  2  0  0  0  0
 15 16  1  0  0  0  0
 15 27  1  0  0  0  0
 16 17  1  0  0  0  0
 16 34  1  0  0  0  0
 17 18  1  0  0  0  0
 17 26  2  0  0  0  0
 18 19  1  0  0  0  0
 18 35  1  0  0  0  0
 18 36  1  0  0  0  0
 19 20  1  0  0  0  0
 19 37  1  0  0  0  0
 19 38  1  0  0  0  0
 20 21  1  0  0  0  0
 20 25  2  0  0  0  0
 21 22  2  0  0  0  0
 21 39  1  0  0  0  0
 22 23  1  0  0  0  0
 22 40  1  0  0  0  0
 23 24  2  0  0  0  0
 23 41  1  0  0  0  0
 24 25  1  0  0  0  0
 24 42  1  0  0  0  0
 25 43  1  0  0  0  0
 26 27  1  0  0  0  0
 26 44  1  0  0  0  0
 28 45  1  0  0  0  0
M  END
$$$$
