CHEMBL1242027
 OpenBabel04072215363D

 38 40  0  0  0  0  0  0  0  0999 V2000
    1.8105    0.8155   -1.0665 C   0  0  0  0  0  0  0  0  0  0  0  0
    2.4429    0.0142   -0.0771 O   0  0  0  0  0  0  0  0  0  0  0  0
    3.1807   -1.0487   -0.5172 C   0  0  0  0  0  0  0  0  0  0  0  0
    3.2521   -1.5014   -1.8327 C   0  0  0  0  0  0  0  0  0  0  0  0
    4.0015   -2.6429   -2.1399 C   0  0  0  0  0  0  0  0  0  0  0  0
    3.9791   -3.0615   -3.4155 F   0  0  0  0  0  0  0  0  0  0  0  0
    4.7168   -3.3431   -1.1565 C   0  0  0  0  0  0  0  0  0  0  0  0
    5.4400   -4.5797   -1.4699 C   0  0  0  0  0  0  0  0  0  0  0  0
    6.0528   -4.7211   -2.6568 N   0  0  0  0  0  0  0  0  0  0  0  0
    6.5823   -5.9604   -2.6284 N   0  0  0  0  0  0  0  0  0  0  0  0
    7.2912   -6.4798   -3.7951 C   0  0  0  0  0  0  0  0  0  0  0  0
    6.3712   -6.5904   -5.0119 C   0  0  0  0  0  0  0  0  0  0  0  0
    8.5268   -5.6399   -4.1227 C   0  0  0  0  0  0  0  0  0  0  0  0
    6.3715   -6.6107   -1.4452 C   0  0  0  0  0  0  0  0  0  0  0  0
    6.8057   -7.8407   -1.1110 N   0  0  0  0  0  0  0  0  0  0  0  0
    6.4261   -8.1768    0.1290 C   0  0  0  0  0  0  0  0  0  0  0  0
    5.6857   -7.4567    0.9905 N   0  0  0  0  0  0  0  0  0  0  0  0
    5.2545   -6.2352    0.6098 C   0  0  0  0  0  0  0  0  0  0  0  0
    4.4756   -5.5678    1.5447 N   0  0  0  0  0  0  0  0  0  0  0  0
    5.6156   -5.7547   -0.6604 C   0  0  0  0  0  0  0  0  0  0  0  0
    4.7002   -2.8313    0.1439 C   0  0  0  0  0  0  0  0  0  0  0  0
    3.9091   -1.7291    0.4595 C   0  0  0  0  0  0  0  0  0  0  0  0
    3.8472   -1.3368    1.7410 F   0  0  0  0  0  0  0  0  0  0  0  0
    1.3149    1.6467   -0.5563 H   0  0  0  0  0  0  0  0  0  0  0  0
    1.0436    0.2467   -1.6021 H   0  0  0  0  0  0  0  0  0  0  0  0
    2.5464    1.2379   -1.7584 H   0  0  0  0  0  0  0  0  0  0  0  0
    2.7259   -1.0152   -2.6461 H   0  0  0  0  0  0  0  0  0  0  0  0
    7.6316   -7.4904   -3.5396 H   0  0  0  0  0  0  0  0  0  0  0  0
    5.9627   -5.6157   -5.3026 H   0  0  0  0  0  0  0  0  0  0  0  0
    5.5261   -7.2557   -4.8028 H   0  0  0  0  0  0  0  0  0  0  0  0
    6.9132   -6.9962   -5.8728 H   0  0  0  0  0  0  0  0  0  0  0  0
    8.2574   -4.6132   -4.3943 H   0  0  0  0  0  0  0  0  0  0  0  0
    9.0775   -6.0752   -4.9632 H   0  0  0  0  0  0  0  0  0  0  0  0
    9.2051   -5.5915   -3.2639 H   0  0  0  0  0  0  0  0  0  0  0  0
    6.7497   -9.1502    0.4828 H   0  0  0  0  0  0  0  0  0  0  0  0
    4.2281   -6.1928    2.3037 H   0  0  0  0  0  0  0  0  0  0  0  0
    3.7014   -5.0422    1.1614 H   0  0  0  0  0  0  0  0  0  0  0  0
    5.2844   -3.2799    0.9419 H   0  0  0  0  0  0  0  0  0  0  0  0
  1  2  1  0  0  0  0
  1 24  1  0  0  0  0
  1 25  1  0  0  0  0
  1 26  1  0  0  0  0
  2  3  1  0  0  0  0
  3  4  1  0  0  0  0
  3 22  2  0  0  0  0
  4  5  2  0  0  0  0
  4 27  1  0  0  0  0
  5  6  1  0  0  0  0
  5  7  1  0  0  0  0
  7  8  1  0  0  0  0
  7 21  2  0  0  0  0
  8  9  2  0  0  0  0
  8 20  1  0  0  0  0
  9 10  1  0  0  0  0
 10 11  1  0  0  0  0
 10 14  1  0  0  0  0
 11 12  1  0  0  0  0
 11 13  1  0  0  0  0
 11 28  1  0  0  0  0
 12 29  1  0  0  0  0
 12 30  1  0  0  0  0
 12 31  1  0  0  0  0
 13 32  1  0  0  0  0
 13 33  1  0  0  0  0
 13 34  1  0  0  0  0
 14 15  1  0  0  0  0
 14 20  2  0  0  0  0
 15 16  2  0  0  0  0
 16 17  1  0  0  0  0
 16 35  1  0  0  0  0
 17 18  2  0  0  0  0
 18 19  1  0  0  0  0
 18 20  1  0  0  0  0
 19 36  1  0  0  0  0
 19 37  1  0  0  0  0
 21 22  1  0  0  0  0
 21 38  1  0  0  0  0
 22 23  1  0  0  0  0
M  END
$$$$
