CHEMBL524647
 OpenBabel04072215383D

 71 75  0  0  0  0  0  0  0  0999 V2000
    1.5658   -1.6128    0.1496 C   0  0  0  0  0  0  0  0  0  0  0  0
    2.6234   -0.5200    0.0439 C   0  0  0  0  0  0  0  0  0  0  0  0
    2.0623    0.7274   -0.6333 C   0  0  0  0  0  0  0  0  0  0  0  0
    3.1419   -0.2039    1.3720 N   0  0  0  0  0  0  0  0  0  0  0  0
    4.4091    0.2990    1.5335 C   0  0  0  0  0  0  0  0  0  0  0  0
    5.1710    0.5211    0.5960 O   0  0  0  0  0  0  0  0  0  0  0  0
    4.8685    0.5623    2.9288 C   0  0  0  0  0  0  0  0  0  0  0  0
    4.3233   -0.0972    4.0541 C   0  0  0  0  0  0  0  0  0  0  0  0
    4.8966    0.0495    5.3330 C   0  0  0  0  0  0  0  0  0  0  0  0
    6.0323    0.8304    5.4686 C   0  0  0  0  0  0  0  0  0  0  0  0
    6.5240    1.5076    4.3429 C   0  0  0  0  0  0  0  0  0  0  0  0
    5.9691    1.4062    3.0848 C   0  0  0  0  0  0  0  0  0  0  0  0
    7.6806    2.2071    4.6446 N   0  0  0  0  0  0  0  0  0  0  0  0
    8.0862    1.9679    5.9471 C   0  0  0  0  0  0  0  0  0  0  0  0
    9.1816    2.2537    6.3854 O   0  0  0  0  0  0  0  0  0  0  0  0
    6.9596    1.1620    6.5760 C   0  0  0  0  0  0  0  0  0  0  0  0
    6.9472    0.8647    7.8970 C   0  0  0  0  0  0  0  0  0  0  0  0
    7.7743    1.4043    8.8719 N   0  0  0  0  0  0  0  0  0  0  0  0
    7.9784    2.7809    9.1229 C   0  0  0  0  0  0  0  0  0  0  0  0
    7.2500    3.7810    8.4674 C   0  0  0  0  0  0  0  0  0  0  0  0
    7.6619    5.1132    8.4954 C   0  0  0  0  0  0  0  0  0  0  0  0
    8.8036    5.4810    9.2095 C   0  0  0  0  0  0  0  0  0  0  0  0
    9.3963    6.8600    9.0329 C   0  0  0  0  0  0  0  0  0  0  0  0
    8.4789    7.9860    9.3149 N   0  0  0  0  0  0  0  0  0  0  0  0
    8.1452    8.0180   10.7478 C   0  0  0  0  0  0  0  0  0  0  0  0
    7.3865    9.2787   11.1612 C   0  0  0  0  0  0  0  0  0  0  0  0
    8.1601   10.5271   10.7666 C   0  0  0  0  0  0  0  0  0  0  0  0
    8.4033   10.5078    9.2662 C   0  0  0  0  0  0  0  0  0  0  0  0
    9.1205    9.2266    8.8429 C   0  0  0  0  0  0  0  0  0  0  0  0
    9.4662    4.5083    9.9707 C   0  0  0  0  0  0  0  0  0  0  0  0
    9.0603    3.1696    9.9216 C   0  0  0  0  0  0  0  0  0  0  0  0
    6.0387   -0.1631    8.4407 C   0  0  0  0  0  0  0  0  0  0  0  0
    6.4515   -1.5024    8.4550 C   0  0  0  0  0  0  0  0  0  0  0  0
    5.6506   -2.4811    9.0458 C   0  0  0  0  0  0  0  0  0  0  0  0
    4.4334   -2.1255    9.6236 C   0  0  0  0  0  0  0  0  0  0  0  0
    4.0144   -0.7940    9.6140 C   0  0  0  0  0  0  0  0  0  0  0  0
    4.8160    0.1883    9.0293 C   0  0  0  0  0  0  0  0  0  0  0  0
    1.1936   -1.8955   -0.8396 H   0  0  0  0  0  0  0  0  0  0  0  0
    0.7164   -1.2851    0.7583 H   0  0  0  0  0  0  0  0  0  0  0  0
    1.9856   -2.5074    0.6230 H   0  0  0  0  0  0  0  0  0  0  0  0
    3.4535   -0.8994   -0.5644 H   0  0  0  0  0  0  0  0  0  0  0  0
    1.2560    1.1713   -0.0396 H   0  0  0  0  0  0  0  0  0  0  0  0
    1.6666    0.4885   -1.6259 H   0  0  0  0  0  0  0  0  0  0  0  0
    2.8388    1.4903   -0.7567 H   0  0  0  0  0  0  0  0  0  0  0  0
    2.4771   -0.1340    2.1316 H   0  0  0  0  0  0  0  0  0  0  0  0
    3.4857   -0.7813    3.9453 H   0  0  0  0  0  0  0  0  0  0  0  0
    4.4687   -0.4859    6.1735 H   0  0  0  0  0  0  0  0  0  0  0  0
    6.4097    1.9177    2.2340 H   0  0  0  0  0  0  0  0  0  0  0  0
    8.2743    2.6816    3.9826 H   0  0  0  0  0  0  0  0  0  0  0  0
    7.9797    0.8006    9.6630 H   0  0  0  0  0  0  0  0  0  0  0  0
    6.3799    3.5329    7.8683 H   0  0  0  0  0  0  0  0  0  0  0  0
    7.1258    5.8523    7.9046 H   0  0  0  0  0  0  0  0  0  0  0  0
    9.7242    6.9105    7.9846 H   0  0  0  0  0  0  0  0  0  0  0  0
   10.3086    6.9535    9.6379 H   0  0  0  0  0  0  0  0  0  0  0  0
    9.0523    7.9374   11.3602 H   0  0  0  0  0  0  0  0  0  0  0  0
    7.5099    7.1579   10.9927 H   0  0  0  0  0  0  0  0  0  0  0  0
    7.2243    9.2705   12.2447 H   0  0  0  0  0  0  0  0  0  0  0  0
    6.3968    9.2919   10.6876 H   0  0  0  0  0  0  0  0  0  0  0  0
    9.1184   10.5567   11.3003 H   0  0  0  0  0  0  0  0  0  0  0  0
    7.6029   11.4261   11.0493 H   0  0  0  0  0  0  0  0  0  0  0  0
    9.0083   11.3760    8.9794 H   0  0  0  0  0  0  0  0  0  0  0  0
    7.4473   10.5942    8.7355 H   0  0  0  0  0  0  0  0  0  0  0  0
   10.1599    9.2807    9.1914 H   0  0  0  0  0  0  0  0  0  0  0  0
    9.1511    9.2096    7.7454 H   0  0  0  0  0  0  0  0  0  0  0  0
   10.3474    4.7695   10.5517 H   0  0  0  0  0  0  0  0  0  0  0  0
    9.6472    2.4234   10.4508 H   0  0  0  0  0  0  0  0  0  0  0  0
    7.4120   -1.7827    8.0275 H   0  0  0  0  0  0  0  0  0  0  0  0
    5.9867   -3.5140    9.0705 H   0  0  0  0  0  0  0  0  0  0  0  0
    3.8155   -2.8860   10.0961 H   0  0  0  0  0  0  0  0  0  0  0  0
    3.0708   -0.5193   10.0777 H   0  0  0  0  0  0  0  0  0  0  0  0
    4.4974    1.2271    9.0501 H   0  0  0  0  0  0  0  0  0  0  0  0
  1  2  1  0  0  0  0
  1 38  1  0  0  0  0
  1 39  1  0  0  0  0
  1 40  1  0  0  0  0
  2  3  1  0  0  0  0
  2  4  1  0  0  0  0
  2 41  1  0  0  0  0
  3 42  1  0  0  0  0
  3 43  1  0  0  0  0
  3 44  1  0  0  0  0
  4  5  1  0  0  0  0
  4 45  1  0  0  0  0
  5  6  2  0  0  0  0
  5  7  1  0  0  0  0
  7  8  1  0  0  0  0
  7 12  2  0  0  0  0
  8  9  2  0  0  0  0
  8 46  1  0  0  0  0
  9 10  1  0  0  0  0
  9 47  1  0  0  0  0
 10 11  2  0  0  0  0
 10 16  1  0  0  0  0
 11 12  1  0  0  0  0
 11 13  1  0  0  0  0
 12 48  1  0  0  0  0
 13 14  1  0  0  0  0
 13 49  1  0  0  0  0
 14 15  2  0  0  0  0
 14 16  1  0  0  0  0
 16 17  2  0  0  0  0
 17 18  1  0  0  0  0
 17 32  1  0  0  0  0
 18 19  1  0  0  0  0
 18 50  1  0  0  0  0
 19 20  1  0  0  0  0
 19 31  2  0  0  0  0
 20 21  2  0  0  0  0
 20 51  1  0  0  0  0
 21 22  1  0  0  0  0
 21 52  1  0  0  0  0
 22 23  1  0  0  0  0
 22 30  2  0  0  0  0
 23 24  1  0  0  0  0
 23 53  1  0  0  0  0
 23 54  1  0  0  0  0
 24 25  1  0  0  0  0
 24 29  1  0  0  0  0
 25 26  1  0  0  0  0
 25 55  1  0  0  0  0
 25 56  1  0  0  0  0
 26 27  1  0  0  0  0
 26 57  1  0  0  0  0
 26 58  1  0  0  0  0
 27 28  1  0  0  0  0
 27 59  1  0  0  0  0
 27 60  1  0  0  0  0
 28 29  1  0  0  0  0
 28 61  1  0  0  0  0
 28 62  1  0  0  0  0
 29 63  1  0  0  0  0
 29 64  1  0  0  0  0
 30 31  1  0  0  0  0
 30 65  1  0  0  0  0
 31 66  1  0  0  0  0
 32 33  1  0  0  0  0
 32 37  2  0  0  0  0
 33 34  2  0  0  0  0
 33 67  1  0  0  0  0
 34 35  1  0  0  0  0
 34 68  1  0  0  0  0
 35 36  2  0  0  0  0
 35 69  1  0  0  0  0
 36 37  1  0  0  0  0
 36 70  1  0  0  0  0
 37 71  1  0  0  0  0
M  END
$$$$
