CHEMBL3656031
 OpenBabel04072215373D

 52 55  0  0  0  0  0  0  0  0999 V2000
   -3.7032    5.2419   -5.3388 C   0  0  0  0  0  0  0  0  0  0  0  0
   -2.8210    4.7409   -4.2323 C   0  0  0  0  0  0  0  0  0  0  0  0
   -1.4551    5.0386   -4.2289 C   0  0  0  0  0  0  0  0  0  0  0  0
   -0.6369    4.5403   -3.2189 C   0  0  0  0  0  0  0  0  0  0  0  0
   -1.1799    3.7696   -2.1912 C   0  0  0  0  0  0  0  0  0  0  0  0
   -0.3135    3.2149   -1.3334 F   0  0  0  0  0  0  0  0  0  0  0  0
   -2.5541    3.5026   -2.1328 C   0  0  0  0  0  0  0  0  0  0  0  0
   -3.1944    2.7661   -1.1011 N   0  0  0  0  0  0  0  0  0  0  0  0
   -2.7006    2.5618    0.1774 C   0  0  0  0  0  0  0  0  0  0  0  0
   -1.7009    3.0726    0.6672 O   0  0  0  0  0  0  0  0  0  0  0  0
   -3.4820    1.6385    1.0482 C   0  0  0  0  0  0  0  0  0  0  0  0
   -2.7615    0.8299    1.9415 C   0  0  0  0  0  0  0  0  0  0  0  0
   -3.4220   -0.1113    2.7290 C   0  0  0  0  0  0  0  0  0  0  0  0
   -4.8044   -0.2191    2.6539 C   0  0  0  0  0  0  0  0  0  0  0  0
   -5.3950   -1.1901    3.3653 F   0  0  0  0  0  0  0  0  0  0  0  0
   -5.5498    0.6695    1.8715 C   0  0  0  0  0  0  0  0  0  0  0  0
   -6.9251    0.7139    1.8096 O   0  0  0  0  0  0  0  0  0  0  0  0
   -7.6797    0.3613    2.9062 C   0  0  0  0  0  0  0  0  0  0  0  0
   -7.3258    0.6063    4.2297 C   0  0  0  0  0  0  0  0  0  0  0  0
   -8.1626    0.1305    5.2245 C   0  0  0  0  0  0  0  0  0  0  0  0
   -9.3329   -0.5013    4.9872 N   0  0  0  0  0  0  0  0  0  0  0  0
   -9.6863   -0.6628    3.6887 C   0  0  0  0  0  0  0  0  0  0  0  0
  -10.9670   -1.3295    3.4903 C   0  0  0  0  0  0  0  0  0  0  0  0
  -11.6868   -1.6333    2.3489 C   0  0  0  0  0  0  0  0  0  0  0  0
  -12.8936   -2.2972    2.7213 C   0  0  0  0  0  0  0  0  0  0  0  0
  -13.9218   -2.7696    1.8005 C   0  0  0  0  0  0  0  0  0  0  0  0
  -13.8330   -2.6331    0.5775 O   0  0  0  0  0  0  0  0  0  0  0  0
  -15.0083   -3.3806    2.3762 N   0  0  0  0  0  0  0  0  0  0  0  0
  -16.0505   -3.7944    1.5156 O   0  0  0  0  0  0  0  0  0  0  0  0
  -12.8643   -2.3846    4.1031 C   0  0  0  0  0  0  0  0  0  0  0  0
  -11.7059   -1.8015    4.5503 N   0  0  0  0  0  0  0  0  0  0  0  0
   -8.8996   -0.2434    2.6271 C   0  0  0  0  0  0  0  0  0  0  0  0
   -4.8814    1.5732    1.0320 C   0  0  0  0  0  0  0  0  0  0  0  0
   -3.3602    3.9673   -3.1863 C   0  0  0  0  0  0  0  0  0  0  0  0
   -3.1398    5.8474   -6.0581 H   0  0  0  0  0  0  0  0  0  0  0  0
   -4.5044    5.8678   -4.9338 H   0  0  0  0  0  0  0  0  0  0  0  0
   -4.1400    4.3990   -5.8827 H   0  0  0  0  0  0  0  0  0  0  0  0
   -1.0148    5.6422   -5.0198 H   0  0  0  0  0  0  0  0  0  0  0  0
    0.4321    4.7290   -3.2292 H   0  0  0  0  0  0  0  0  0  0  0  0
   -4.1216    2.4265   -1.3137 H   0  0  0  0  0  0  0  0  0  0  0  0
   -1.6780    0.9201    2.0088 H   0  0  0  0  0  0  0  0  0  0  0  0
   -2.8683   -0.7627    3.3985 H   0  0  0  0  0  0  0  0  0  0  0  0
   -6.4075    1.1137    4.4989 H   0  0  0  0  0  0  0  0  0  0  0  0
   -7.8975    0.2408    6.2724 H   0  0  0  0  0  0  0  0  0  0  0  0
  -11.3913   -1.4077    1.3315 H   0  0  0  0  0  0  0  0  0  0  0  0
  -15.1724   -3.4490    3.3709 H   0  0  0  0  0  0  0  0  0  0  0  0
  -15.7074   -3.5329    0.6334 H   0  0  0  0  0  0  0  0  0  0  0  0
  -13.5553   -2.8057    4.8196 H   0  0  0  0  0  0  0  0  0  0  0  0
  -11.4027   -1.7154    5.5137 H   0  0  0  0  0  0  0  0  0  0  0  0
   -9.2118   -0.3933    1.6007 H   0  0  0  0  0  0  0  0  0  0  0  0
   -5.4671    2.2376    0.4035 H   0  0  0  0  0  0  0  0  0  0  0  0
   -4.4273    3.7560   -3.1919 H   0  0  0  0  0  0  0  0  0  0  0  0
  1  2  1  0  0  0  0
  1 35  1  0  0  0  0
  1 36  1  0  0  0  0
  1 37  1  0  0  0  0
  2  3  1  0  0  0  0
  2 34  2  0  0  0  0
  3  4  2  0  0  0  0
  3 38  1  0  0  0  0
  4  5  1  0  0  0  0
  4 39  1  0  0  0  0
  5  6  1  0  0  0  0
  5  7  2  0  0  0  0
  7  8  1  0  0  0  0
  7 34  1  0  0  0  0
  8  9  1  0  0  0  0
  8 40  1  0  0  0  0
  9 10  2  0  0  0  0
  9 11  1  0  0  0  0
 11 12  1  0  0  0  0
 11 33  2  0  0  0  0
 12 13  2  0  0  0  0
 12 41  1  0  0  0  0
 13 14  1  0  0  0  0
 13 42  1  0  0  0  0
 14 15  1  0  0  0  0
 14 16  2  0  0  0  0
 16 17  1  0  0  0  0
 16 33  1  0  0  0  0
 17 18  1  0  0  0  0
 18 19  1  0  0  0  0
 18 32  2  0  0  0  0
 19 20  2  0  0  0  0
 19 43  1  0  0  0  0
 20 21  1  0  0  0  0
 20 44  1  0  0  0  0
 21 22  2  0  0  0  0
 22 23  1  0  0  0  0
 22 32  1  0  0  0  0
 23 24  2  0  0  0  0
 23 31  1  0  0  0  0
 24 25  1  0  0  0  0
 24 45  1  0  0  0  0
 25 26  1  0  0  0  0
 25 30  2  0  0  0  0
 26 27  2  0  0  0  0
 26 28  1  0  0  0  0
 28 29  1  0  0  0  0
 28 46  1  0  0  0  0
 29 47  1  0  0  0  0
 30 31  1  0  0  0  0
 30 48  1  0  0  0  0
 31 49  1  0  0  0  0
 32 50  1  0  0  0  0
 33 51  1  0  0  0  0
 34 52  1  0  0  0  0
M  END
$$$$
