CHEMBL3671493
 OpenBabel04072215373D

 56 58  0  0  0  0  0  0  0  0999 V2000
    3.6543    4.0055   -0.7827 C   0  0  0  0  0  0  0  0  0  0  0  0
    3.5667    3.1494    0.2422 C   0  0  0  0  0  0  0  0  0  0  0  0
    3.7319    1.6933   -0.0183 C   0  0  0  0  0  0  0  0  0  0  0  0
    3.3524    1.1683   -1.0596 O   0  0  0  0  0  0  0  0  0  0  0  0
    4.3946    0.9537    0.9292 N   0  0  0  0  0  0  0  0  0  0  0  0
    5.1847    1.5195    1.9436 C   0  0  0  0  0  0  0  0  0  0  0  0
    6.3719    2.1504    1.5757 C   0  0  0  0  0  0  0  0  0  0  0  0
    7.0805    2.9380    2.5067 C   0  0  0  0  0  0  0  0  0  0  0  0
    8.2006    3.7225    2.1961 C   0  0  0  0  0  0  0  0  0  0  0  0
    8.6516    3.8060    0.8522 N   0  0  0  0  0  0  0  0  0  0  0  0
    9.4804    4.8384    0.3562 C   0  0  0  0  0  0  0  0  0  0  0  0
    9.2529    6.1783    0.7013 C   0  0  0  0  0  0  0  0  0  0  0  0
   10.1270    7.1831    0.2843 C   0  0  0  0  0  0  0  0  0  0  0  0
   11.2288    6.8541   -0.5023 C   0  0  0  0  0  0  0  0  0  0  0  0
   12.4542    8.2043   -0.9986 Br  0  0  0  0  0  0  0  0  0  0  0  0
   11.4417    5.5395   -0.9091 C   0  0  0  0  0  0  0  0  0  0  0  0
   10.5605    4.5480   -0.4857 C   0  0  0  0  0  0  0  0  0  0  0  0
   10.7764    3.2784   -0.8654 F   0  0  0  0  0  0  0  0  0  0  0  0
    8.8311    4.4633    3.1267 N   0  0  0  0  0  0  0  0  0  0  0  0
    8.3288    4.4382    4.3645 C   0  0  0  0  0  0  0  0  0  0  0  0
    7.2457    3.7656    4.7584 N   0  0  0  0  0  0  0  0  0  0  0  0
    6.6222    3.0323    3.8310 C   0  0  0  0  0  0  0  0  0  0  0  0
    5.4537    2.3651    4.1793 C   0  0  0  0  0  0  0  0  0  0  0  0
    4.7346    1.5904    3.2652 C   0  0  0  0  0  0  0  0  0  0  0  0
    3.5687    1.0438    3.7395 O   0  0  0  0  0  0  0  0  0  0  0  0
    3.3572   -0.3229    3.3794 C   0  0  0  0  0  0  0  0  0  0  0  0
    2.1146   -0.8687    4.0842 C   0  0  0  0  0  0  0  0  0  0  0  0
    0.8367   -0.0535    3.8399 C   0  0  0  0  0  0  0  0  0  0  0  0
    0.5068    0.1292    2.3573 C   0  0  0  0  0  0  0  0  0  0  0  0
   -0.6798    0.9344    2.1613 N   0  0  0  0  0  0  0  0  0  0  0  0
   -0.6071    2.3058    2.0608 C   0  0  0  0  0  0  0  0  0  0  0  0
   -1.9278    2.9774    1.7994 C   0  0  0  0  0  0  0  0  0  0  0  0
    0.4355    2.9461    2.1587 O   0  0  0  0  0  0  0  0  0  0  0  0
    3.5936    5.0752   -0.6189 H   0  0  0  0  0  0  0  0  0  0  0  0
    3.7991    3.6545   -1.8005 H   0  0  0  0  0  0  0  0  0  0  0  0
    3.4286    3.4904    1.2616 H   0  0  0  0  0  0  0  0  0  0  0  0
    4.7464    0.1068    0.4977 H   0  0  0  0  0  0  0  0  0  0  0  0
    6.7006    2.0990    0.5405 H   0  0  0  0  0  0  0  0  0  0  0  0
    8.9283    2.8928    0.5013 H   0  0  0  0  0  0  0  0  0  0  0  0
    8.4003    6.4421    1.3236 H   0  0  0  0  0  0  0  0  0  0  0  0
    9.9458    8.2080    0.5974 H   0  0  0  0  0  0  0  0  0  0  0  0
   12.2889    5.2699   -1.5299 H   0  0  0  0  0  0  0  0  0  0  0  0
    8.8443    5.0312    5.1120 H   0  0  0  0  0  0  0  0  0  0  0  0
    5.0744    2.4743    5.1962 H   0  0  0  0  0  0  0  0  0  0  0  0
    4.2310   -0.9226    3.6602 H   0  0  0  0  0  0  0  0  0  0  0  0
    3.1926   -0.4395    2.3083 H   0  0  0  0  0  0  0  0  0  0  0  0
    2.2990   -0.8990    5.1644 H   0  0  0  0  0  0  0  0  0  0  0  0
    1.9541   -1.9030    3.7552 H   0  0  0  0  0  0  0  0  0  0  0  0
    0.9283    0.9245    4.3271 H   0  0  0  0  0  0  0  0  0  0  0  0
    0.0011   -0.5626    4.3342 H   0  0  0  0  0  0  0  0  0  0  0  0
    0.3228   -0.8415    1.8851 H   0  0  0  0  0  0  0  0  0  0  0  0
    1.3298    0.6143    1.8251 H   0  0  0  0  0  0  0  0  0  0  0  0
   -1.5756    0.4703    2.0913 H   0  0  0  0  0  0  0  0  0  0  0  0
   -2.7582    2.2668    1.8158 H   0  0  0  0  0  0  0  0  0  0  0  0
   -1.8945    3.4542    0.8159 H   0  0  0  0  0  0  0  0  0  0  0  0
   -2.1034    3.7316    2.5710 H   0  0  0  0  0  0  0  0  0  0  0  0
  1  2  2  0  0  0  0
  1 34  1  0  0  0  0
  1 35  1  0  0  0  0
  2  3  1  0  0  0  0
  2 36  1  0  0  0  0
  3  4  2  0  0  0  0
  3  5  1  0  0  0  0
  5  6  1  0  0  0  0
  5 37  1  0  0  0  0
  6  7  1  0  0  0  0
  6 24  2  0  0  0  0
  7  8  2  0  0  0  0
  7 38  1  0  0  0  0
  8  9  1  0  0  0  0
  8 22  1  0  0  0  0
  9 10  1  0  0  0  0
  9 19  2  0  0  0  0
 10 11  1  0  0  0  0
 10 39  1  0  0  0  0
 11 12  1  0  0  0  0
 11 17  2  0  0  0  0
 12 13  2  0  0  0  0
 12 40  1  0  0  0  0
 13 14  1  0  0  0  0
 13 41  1  0  0  0  0
 14 15  1  0  0  0  0
 14 16  2  0  0  0  0
 16 17  1  0  0  0  0
 16 42  1  0  0  0  0
 17 18  1  0  0  0  0
 19 20  1  0  0  0  0
 20 21  2  0  0  0  0
 20 43  1  0  0  0  0
 21 22  1  0  0  0  0
 22 23  2  0  0  0  0
 23 24  1  0  0  0  0
 23 44  1  0  0  0  0
 24 25  1  0  0  0  0
 25 26  1  0  0  0  0
 26 27  1  0  0  0  0
 26 45  1  0  0  0  0
 26 46  1  0  0  0  0
 27 28  1  0  0  0  0
 27 47  1  0  0  0  0
 27 48  1  0  0  0  0
 28 29  1  0  0  0  0
 28 49  1  0  0  0  0
 28 50  1  0  0  0  0
 29 30  1  0  0  0  0
 29 51  1  0  0  0  0
 29 52  1  0  0  0  0
 30 31  1  0  0  0  0
 30 53  1  0  0  0  0
 31 32  1  0  0  0  0
 31 33  2  0  0  0  0
 32 54  1  0  0  0  0
 32 55  1  0  0  0  0
 32 56  1  0  0  0  0
M  END
$$$$
