CHEMBL3898908
 OpenBabel04072215373D

 58 62  0  0  0  0  0  0  0  0999 V2000
    0.8172   -2.3296    3.9116 C   0  0  0  0  0  0  0  0  0  0  0  0
    2.2354   -2.3835    4.0642 O   0  0  0  0  0  0  0  0  0  0  0  0
    3.0035   -2.0396    2.9791 C   0  0  0  0  0  0  0  0  0  0  0  0
    2.5062   -1.8004    1.6977 C   0  0  0  0  0  0  0  0  0  0  0  0
    3.3701   -1.3799    0.6884 C   0  0  0  0  0  0  0  0  0  0  0  0
    3.0142   -1.0840   -0.6005 O   0  0  0  0  0  0  0  0  0  0  0  0
    1.6596   -1.3074   -0.9691 C   0  0  0  0  0  0  0  0  0  0  0  0
    4.7303   -1.1848    0.9681 C   0  0  0  0  0  0  0  0  0  0  0  0
    5.2680   -1.4247    2.2385 C   0  0  0  0  0  0  0  0  0  0  0  0
    6.5769   -1.0310    2.5944 N   0  0  0  0  0  0  0  0  0  0  0  0
    7.0719    0.2598    1.9915 C   0  0  0  0  0  0  0  0  0  0  0  0
    6.3144    1.5573    2.0054 C   0  0  0  0  0  0  0  0  0  0  0  0
    5.1663    2.1093    2.5342 C   0  0  0  0  0  0  0  0  0  0  0  0
    5.1314    3.4343    2.0099 C   0  0  0  0  0  0  0  0  0  0  0  0
    4.0860    4.4815    2.1173 C   0  0  0  0  0  0  0  0  0  0  0  0
    6.2245    3.6903    1.2861 N   0  0  0  0  0  0  0  0  0  0  0  0
    6.9578    2.5300    1.2900 O   0  0  0  0  0  0  0  0  0  0  0  0
    7.7334   -1.8569    2.8729 C   0  0  0  0  0  0  0  0  0  0  0  0
    8.5423   -1.3692    3.8968 C   0  0  0  0  0  0  0  0  0  0  0  0
    9.8853   -1.6790    3.9502 C   0  0  0  0  0  0  0  0  0  0  0  0
   10.4519   -2.5769    3.0800 C   0  0  0  0  0  0  0  0  0  0  0  0
   11.7865   -2.6263    3.1694 N   0  0  0  0  0  0  0  0  0  0  0  0
   12.3969   -3.5787    2.4315 C   0  0  0  0  0  0  0  0  0  0  0  0
   11.6928   -4.4874    1.6982 C   0  0  0  0  0  0  0  0  0  0  0  0
   12.4689   -5.6291    1.2004 C   0  0  0  0  0  0  0  0  0  0  0  0
   12.6870   -6.9041    1.7946 C   0  0  0  0  0  0  0  0  0  0  0  0
   13.6550   -7.6077    1.1911 N   0  0  0  0  0  0  0  0  0  0  0  0
   14.0711   -6.7860    0.2136 N   0  0  0  0  0  0  0  0  0  0  0  0
   14.8844   -7.2866   -0.8709 C   0  0  0  0  0  0  0  0  0  0  0  0
   13.5243   -5.5332    0.3043 C   0  0  0  0  0  0  0  0  0  0  0  0
   10.3213   -4.3831    1.5219 N   0  0  0  0  0  0  0  0  0  0  0  0
    9.6571   -3.3537    2.1993 C   0  0  0  0  0  0  0  0  0  0  0  0
    8.2716   -2.9182    2.0815 C   0  0  0  0  0  0  0  0  0  0  0  0
    4.3822   -1.8873    3.2300 C   0  0  0  0  0  0  0  0  0  0  0  0
    0.3652   -2.3662    4.9095 H   0  0  0  0  0  0  0  0  0  0  0  0
    0.4561   -3.1974    3.3494 H   0  0  0  0  0  0  0  0  0  0  0  0
    0.4800   -1.3961    3.4456 H   0  0  0  0  0  0  0  0  0  0  0  0
    1.4521   -1.9284    1.4906 H   0  0  0  0  0  0  0  0  0  0  0  0
    1.5768   -1.1412   -2.0473 H   0  0  0  0  0  0  0  0  0  0  0  0
    0.9966   -0.5952   -0.4668 H   0  0  0  0  0  0  0  0  0  0  0  0
    1.3550   -2.3400   -0.7700 H   0  0  0  0  0  0  0  0  0  0  0  0
    5.3611   -0.8179    0.1656 H   0  0  0  0  0  0  0  0  0  0  0  0
    7.3525    0.0541    0.9503 H   0  0  0  0  0  0  0  0  0  0  0  0
    8.0118    0.5471    2.4848 H   0  0  0  0  0  0  0  0  0  0  0  0
    4.4323    1.6316    3.1664 H   0  0  0  0  0  0  0  0  0  0  0  0
    3.5370    4.4155    3.0601 H   0  0  0  0  0  0  0  0  0  0  0  0
    3.3721    4.3795    1.2927 H   0  0  0  0  0  0  0  0  0  0  0  0
    4.5201    5.4876    2.0519 H   0  0  0  0  0  0  0  0  0  0  0  0
    8.1636   -0.6063    4.5729 H   0  0  0  0  0  0  0  0  0  0  0  0
   10.5273   -1.1608    4.6528 H   0  0  0  0  0  0  0  0  0  0  0  0
   13.4768   -3.5772    2.4984 H   0  0  0  0  0  0  0  0  0  0  0  0
   12.2107   -7.3382    2.6651 H   0  0  0  0  0  0  0  0  0  0  0  0
   15.0676   -8.3567   -0.7387 H   0  0  0  0  0  0  0  0  0  0  0  0
   15.8295   -6.7400   -0.9061 H   0  0  0  0  0  0  0  0  0  0  0  0
   14.3188   -7.1283   -1.7937 H   0  0  0  0  0  0  0  0  0  0  0  0
   13.9064   -4.7172   -0.2929 H   0  0  0  0  0  0  0  0  0  0  0  0
    7.6513   -3.3793    1.3144 H   0  0  0  0  0  0  0  0  0  0  0  0
    4.7468   -2.0525    4.2426 H   0  0  0  0  0  0  0  0  0  0  0  0
  1  2  1  0  0  0  0
  1 35  1  0  0  0  0
  1 36  1  0  0  0  0
  1 37  1  0  0  0  0
  2  3  1  0  0  0  0
  3  4  1  0  0  0  0
  3 34  2  0  0  0  0
  4  5  2  0  0  0  0
  4 38  1  0  0  0  0
  5  6  1  0  0  0  0
  5  8  1  0  0  0  0
  6  7  1  0  0  0  0
  7 39  1  0  0  0  0
  7 40  1  0  0  0  0
  7 41  1  0  0  0  0
  8  9  2  0  0  0  0
  8 42  1  0  0  0  0
  9 10  1  0  0  0  0
  9 34  1  0  0  0  0
 10 11  1  0  0  0  0
 10 18  1  0  0  0  0
 11 12  1  0  0  0  0
 11 43  1  0  0  0  0
 11 44  1  0  0  0  0
 12 13  2  0  0  0  0
 12 17  1  0  0  0  0
 13 14  1  0  0  0  0
 13 45  1  0  0  0  0
 14 15  1  0  0  0  0
 14 16  2  0  0  0  0
 15 46  1  0  0  0  0
 15 47  1  0  0  0  0
 15 48  1  0  0  0  0
 16 17  1  0  0  0  0
 18 19  1  0  0  0  0
 18 33  2  0  0  0  0
 19 20  2  0  0  0  0
 19 49  1  0  0  0  0
 20 21  1  0  0  0  0
 20 50  1  0  0  0  0
 21 22  1  0  0  0  0
 21 32  2  0  0  0  0
 22 23  2  0  0  0  0
 23 24  1  0  0  0  0
 23 51  1  0  0  0  0
 24 25  1  0  0  0  0
 24 31  2  0  0  0  0
 25 26  1  0  0  0  0
 25 30  2  0  0  0  0
 26 27  2  0  0  0  0
 26 52  1  0  0  0  0
 27 28  1  0  0  0  0
 28 29  1  0  0  0  0
 28 30  1  0  0  0  0
 29 53  1  0  0  0  0
 29 54  1  0  0  0  0
 29 55  1  0  0  0  0
 30 56  1  0  0  0  0
 31 32  1  0  0  0  0
 32 33  1  0  0  0  0
 33 57  1  0  0  0  0
 34 58  1  0  0  0  0
M  END
$$$$
