CHEMBL498013
 OpenBabel04072215383D

 50 54  0  0  0  0  0  0  0  0999 V2000
    2.1549   -1.0479   -0.9782 C   0  0  0  0  0  0  0  0  0  0  0  0
    0.9749   -0.2401   -0.6771 N   0  0  0  0  0  0  0  0  0  0  0  0
   -0.1939   -0.7301   -1.4488 C   0  0  0  0  0  0  0  0  0  0  0  0
   -1.5057    0.0160   -1.1014 C   0  0  0  0  0  0  0  0  0  0  0  0
   -1.7411   -0.1062    0.3438 N   0  0  0  0  0  0  0  0  0  0  0  0
   -3.0209   -0.0495    0.8751 C   0  0  0  0  0  0  0  0  0  0  0  0
   -3.2672   -0.6626    2.1195 C   0  0  0  0  0  0  0  0  0  0  0  0
   -4.5297   -0.6967    2.7227 C   0  0  0  0  0  0  0  0  0  0  0  0
   -5.5582   -0.0911    2.0143 C   0  0  0  0  0  0  0  0  0  0  0  0
   -6.8860    0.0838    2.2909 N   0  0  0  0  0  0  0  0  0  0  0  0
   -7.4806    0.7122    1.2210 C   0  0  0  0  0  0  0  0  0  0  0  0
   -8.8891    0.9466    1.2389 C   0  0  0  0  0  0  0  0  0  0  0  0
   -9.5718    1.0260    0.0689 C   0  0  0  0  0  0  0  0  0  0  0  0
   -9.0016    0.8510   -1.1954 N   0  0  0  0  0  0  0  0  0  0  0  0
  -11.0337    1.3048    0.1059 C   0  0  0  0  0  0  0  0  0  0  0  0
  -11.8322    1.3284   -1.0511 C   0  0  0  0  0  0  0  0  0  0  0  0
  -13.2005    1.6021   -0.9712 C   0  0  0  0  0  0  0  0  0  0  0  0
  -13.7804    1.8511    0.2659 C   0  0  0  0  0  0  0  0  0  0  0  0
  -15.0927    2.1064    0.3409 F   0  0  0  0  0  0  0  0  0  0  0  0
  -13.0233    1.8250    1.4282 C   0  0  0  0  0  0  0  0  0  0  0  0
  -11.6591    1.5438    1.3411 C   0  0  0  0  0  0  0  0  0  0  0  0
  -10.9150    1.4627    2.5191 N   0  0  0  0  0  0  0  0  0  0  0  0
   -9.5939    1.1231    2.5514 C   0  0  0  0  0  0  0  0  0  0  0  0
   -9.0234    0.9624    3.6305 O   0  0  0  0  0  0  0  0  0  0  0  0
   -6.5794    0.9744    0.2854 N   0  0  0  0  0  0  0  0  0  0  0  0
   -5.3845    0.5008    0.7724 C   0  0  0  0  0  0  0  0  0  0  0  0
   -4.1043    0.5314    0.1970 C   0  0  0  0  0  0  0  0  0  0  0  0
   -0.6334    0.4424    1.1477 C   0  0  0  0  0  0  0  0  0  0  0  0
    0.6720   -0.2966    0.7738 C   0  0  0  0  0  0  0  0  0  0  0  0
    2.3975   -0.9883   -2.0445 H   0  0  0  0  0  0  0  0  0  0  0  0
    2.0150   -2.1030   -0.7153 H   0  0  0  0  0  0  0  0  0  0  0  0
    3.0262   -0.6702   -0.4323 H   0  0  0  0  0  0  0  0  0  0  0  0
   -0.3469   -1.8012   -1.2549 H   0  0  0  0  0  0  0  0  0  0  0  0
   -0.0013   -0.6141   -2.5215 H   0  0  0  0  0  0  0  0  0  0  0  0
   -2.3178   -0.4423   -1.6780 H   0  0  0  0  0  0  0  0  0  0  0  0
   -1.4324    1.0722   -1.3914 H   0  0  0  0  0  0  0  0  0  0  0  0
   -2.4509   -1.1732    2.6273 H   0  0  0  0  0  0  0  0  0  0  0  0
   -4.6877   -1.1884    3.6755 H   0  0  0  0  0  0  0  0  0  0  0  0
   -7.3601   -0.1779    3.1464 H   0  0  0  0  0  0  0  0  0  0  0  0
   -7.9735    0.8349   -1.1249 H   0  0  0  0  0  0  0  0  0  0  0  0
   -9.2707    1.5837   -1.8459 H   0  0  0  0  0  0  0  0  0  0  0  0
  -11.4063    1.1128   -2.0281 H   0  0  0  0  0  0  0  0  0  0  0  0
  -13.8178    1.6119   -1.8650 H   0  0  0  0  0  0  0  0  0  0  0  0
  -13.5095    2.0099    2.3797 H   0  0  0  0  0  0  0  0  0  0  0  0
  -11.3596    1.5917    3.4177 H   0  0  0  0  0  0  0  0  0  0  0  0
   -3.9829    1.0194   -0.7618 H   0  0  0  0  0  0  0  0  0  0  0  0
   -0.7980    0.3333    2.2253 H   0  0  0  0  0  0  0  0  0  0  0  0
   -0.5283    1.5170    0.9465 H   0  0  0  0  0  0  0  0  0  0  0  0
    0.5805   -1.3421    1.0995 H   0  0  0  0  0  0  0  0  0  0  0  0
    1.4980    0.1529    1.3373 H   0  0  0  0  0  0  0  0  0  0  0  0
  1  2  1  0  0  0  0
  1 30  1  0  0  0  0
  1 31  1  0  0  0  0
  1 32  1  0  0  0  0
  2  3  1  0  0  0  0
  2 29  1  0  0  0  0
  3  4  1  0  0  0  0
  3 33  1  0  0  0  0
  3 34  1  0  0  0  0
  4  5  1  0  0  0  0
  4 35  1  0  0  0  0
  4 36  1  0  0  0  0
  5  6  1  0  0  0  0
  5 28  1  0  0  0  0
  6  7  1  0  0  0  0
  6 27  2  0  0  0  0
  7  8  2  0  0  0  0
  7 37  1  0  0  0  0
  8  9  1  0  0  0  0
  8 38  1  0  0  0  0
  9 10  1  0  0  0  0
  9 26  2  0  0  0  0
 10 11  1  0  0  0  0
 10 39  1  0  0  0  0
 11 12  1  0  0  0  0
 11 25  2  0  0  0  0
 12 13  2  0  0  0  0
 12 23  1  0  0  0  0
 13 14  1  0  0  0  0
 13 15  1  0  0  0  0
 14 40  1  0  0  0  0
 14 41  1  0  0  0  0
 15 16  1  0  0  0  0
 15 21  2  0  0  0  0
 16 17  2  0  0  0  0
 16 42  1  0  0  0  0
 17 18  1  0  0  0  0
 17 43  1  0  0  0  0
 18 19  1  0  0  0  0
 18 20  2  0  0  0  0
 20 21  1  0  0  0  0
 20 44  1  0  0  0  0
 21 22  1  0  0  0  0
 22 23  1  0  0  0  0
 22 45  1  0  0  0  0
 23 24  2  0  0  0  0
 25 26  1  0  0  0  0
 26 27  1  0  0  0  0
 27 46  1  0  0  0  0
 28 29  1  0  0  0  0
 28 47  1  0  0  0  0
 28 48  1  0  0  0  0
 29 49  1  0  0  0  0
 29 50  1  0  0  0  0
M  END
$$$$
