CHEMBL2032017
 OpenBabel04072215363D

 64 69  0  0  0  0  0  0  0  0999 V2000
    3.0474    0.0130   -1.4894 C   0  0  0  0  0  0  0  0  0  0  0  0
    4.4469   -0.1887   -1.3038 O   0  0  0  0  0  0  0  0  0  0  0  0
    4.7964   -1.0506   -0.3036 C   0  0  0  0  0  0  0  0  0  0  0  0
    3.9004   -1.6748    0.5491 C   0  0  0  0  0  0  0  0  0  0  0  0
    4.3660   -2.5318    1.5376 C   0  0  0  0  0  0  0  0  0  0  0  0
    5.7345   -2.8742    1.6281 C   0  0  0  0  0  0  0  0  0  0  0  0
    6.2386   -3.8787    2.4910 C   0  0  0  0  0  0  0  0  0  0  0  0
    5.4684   -4.6647    3.3378 O   0  0  0  0  0  0  0  0  0  0  0  0
    4.3473   -5.3153    2.8707 C   0  0  0  0  0  0  0  0  0  0  0  0
    3.3848   -5.6928    3.8076 C   0  0  0  0  0  0  0  0  0  0  0  0
    2.1860   -6.3046    3.3899 C   0  0  0  0  0  0  0  0  0  0  0  0
    1.9696   -6.5229    2.0323 C   0  0  0  0  0  0  0  0  0  0  0  0
    0.7650   -7.1288    1.5955 N   0  0  0  0  0  0  0  0  0  0  0  0
    0.4616   -7.3216    0.2623 C   0  0  0  0  0  0  0  0  0  0  0  0
    1.1651   -6.9709   -0.6888 O   0  0  0  0  0  0  0  0  0  0  0  0
   -0.7915   -8.0368   -0.0618 C   0  0  0  0  0  0  0  0  0  0  0  0
   -1.4387   -7.9876   -1.2465 C   0  0  0  0  0  0  0  0  0  0  0  0
   -1.1925   -6.9941   -2.2929 C   0  0  0  0  0  0  0  0  0  0  0  0
   -0.3158   -7.2181   -3.3478 C   0  0  0  0  0  0  0  0  0  0  0  0
   -0.1149   -6.3187   -4.3450 N   0  0  0  0  0  0  0  0  0  0  0  0
   -0.7998   -5.1547   -4.2137 C   0  0  0  0  0  0  0  0  0  0  0  0
   -1.6709   -4.9186   -3.1620 C   0  0  0  0  0  0  0  0  0  0  0  0
   -1.9032   -5.8325   -2.1938 N   0  0  0  0  0  0  0  0  0  0  0  0
   -2.4416   -8.9564   -1.3639 N   0  0  0  0  0  0  0  0  0  0  0  0
   -3.6414   -8.8070   -2.1872 C   0  0  0  0  0  0  0  0  0  0  0  0
   -2.6006   -9.4950   -0.0712 N   0  0  0  0  0  0  0  0  0  0  0  0
   -3.3630  -10.6547    0.1774 C   0  0  0  0  0  0  0  0  0  0  0  0
   -4.1599  -10.7091    1.3271 C   0  0  0  0  0  0  0  0  0  0  0  0
   -4.9696  -11.8203    1.5765 C   0  0  0  0  0  0  0  0  0  0  0  0
   -4.9580  -12.9041    0.7006 C   0  0  0  0  0  0  0  0  0  0  0  0
   -4.1615  -12.8646   -0.4419 C   0  0  0  0  0  0  0  0  0  0  0  0
   -3.3823  -11.7340   -0.7150 C   0  0  0  0  0  0  0  0  0  0  0  0
   -1.5576   -9.0198    0.7462 C   0  0  0  0  0  0  0  0  0  0  0  0
   -1.2643   -9.3214    1.8939 O   0  0  0  0  0  0  0  0  0  0  0  0
    2.9069   -6.1779    1.1310 N   0  0  0  0  0  0  0  0  0  0  0  0
    4.0679   -5.6185    1.5509 C   0  0  0  0  0  0  0  0  0  0  0  0
    7.6094   -4.0753    2.5730 C   0  0  0  0  0  0  0  0  0  0  0  0
    8.4328   -3.3163    1.7667 C   0  0  0  0  0  0  0  0  0  0  0  0
    7.9776   -2.4038    0.8780 N   0  0  0  0  0  0  0  0  0  0  0  0
    6.6501   -2.1983    0.8017 C   0  0  0  0  0  0  0  0  0  0  0  0
    6.1654   -1.2914   -0.1463 C   0  0  0  0  0  0  0  0  0  0  0  0
    2.9069    0.7372   -2.2969 H   0  0  0  0  0  0  0  0  0  0  0  0
    2.5867    0.4316   -0.5883 H   0  0  0  0  0  0  0  0  0  0  0  0
    2.5527   -0.9195   -1.7857 H   0  0  0  0  0  0  0  0  0  0  0  0
    2.8275   -1.5400    0.4750 H   0  0  0  0  0  0  0  0  0  0  0  0
    3.6241   -2.9595    2.2092 H   0  0  0  0  0  0  0  0  0  0  0  0
    3.5551   -5.4999    4.8648 H   0  0  0  0  0  0  0  0  0  0  0  0
    1.4460   -6.5838    4.1320 H   0  0  0  0  0  0  0  0  0  0  0  0
    0.1251   -7.4760    2.2994 H   0  0  0  0  0  0  0  0  0  0  0  0
    0.2555   -8.1396   -3.4230 H   0  0  0  0  0  0  0  0  0  0  0  0
   -0.6201   -4.4134   -4.9839 H   0  0  0  0  0  0  0  0  0  0  0  0
   -2.2072   -3.9831   -3.0782 H   0  0  0  0  0  0  0  0  0  0  0  0
   -3.5260   -8.0467   -2.9659 H   0  0  0  0  0  0  0  0  0  0  0  0
   -4.5180   -8.5434   -1.5861 H   0  0  0  0  0  0  0  0  0  0  0  0
   -3.8464   -9.7478   -2.7093 H   0  0  0  0  0  0  0  0  0  0  0  0
   -4.1937   -9.8631    2.0085 H   0  0  0  0  0  0  0  0  0  0  0  0
   -5.6088  -11.8393    2.4559 H   0  0  0  0  0  0  0  0  0  0  0  0
   -5.5700  -13.7794    0.9101 H   0  0  0  0  0  0  0  0  0  0  0  0
   -4.1430  -13.7165   -1.1179 H   0  0  0  0  0  0  0  0  0  0  0  0
   -2.7591  -11.7255   -1.6055 H   0  0  0  0  0  0  0  0  0  0  0  0
    4.7527   -5.3824    0.7422 H   0  0  0  0  0  0  0  0  0  0  0  0
    8.0400   -4.8069    3.2528 H   0  0  0  0  0  0  0  0  0  0  0  0
    9.5136   -3.4201    1.7982 H   0  0  0  0  0  0  0  0  0  0  0  0
    6.8730   -0.7859   -0.7926 H   0  0  0  0  0  0  0  0  0  0  0  0
  1  2  1  0  0  0  0
  1 42  1  0  0  0  0
  1 43  1  0  0  0  0
  1 44  1  0  0  0  0
  2  3  1  0  0  0  0
  3  4  1  0  0  0  0
  3 41  2  0  0  0  0
  4  5  2  0  0  0  0
  4 45  1  0  0  0  0
  5  6  1  0  0  0  0
  5 46  1  0  0  0  0
  6  7  1  0  0  0  0
  6 40  2  0  0  0  0
  7  8  1  0  0  0  0
  7 37  2  0  0  0  0
  8  9  1  0  0  0  0
  9 10  1  0  0  0  0
  9 36  2  0  0  0  0
 10 11  2  0  0  0  0
 10 47  1  0  0  0  0
 11 12  1  0  0  0  0
 11 48  1  0  0  0  0
 12 13  1  0  0  0  0
 12 35  2  0  0  0  0
 13 14  1  0  0  0  0
 13 49  1  0  0  0  0
 14 15  2  0  0  0  0
 14 16  1  0  0  0  0
 16 17  2  0  0  0  0
 16 33  1  0  0  0  0
 17 18  1  0  0  0  0
 17 24  1  0  0  0  0
 18 19  1  0  0  0  0
 18 23  2  0  0  0  0
 19 20  2  0  0  0  0
 19 50  1  0  0  0  0
 20 21  1  0  0  0  0
 21 22  2  0  0  0  0
 21 51  1  0  0  0  0
 22 23  1  0  0  0  0
 22 52  1  0  0  0  0
 24 25  1  0  0  0  0
 24 26  1  0  0  0  0
 25 53  1  0  0  0  0
 25 54  1  0  0  0  0
 25 55  1  0  0  0  0
 26 27  1  0  0  0  0
 26 33  1  0  0  0  0
 27 28  1  0  0  0  0
 27 32  2  0  0  0  0
 28 29  2  0  0  0  0
 28 56  1  0  0  0  0
 29 30  1  0  0  0  0
 29 57  1  0  0  0  0
 30 31  2  0  0  0  0
 30 58  1  0  0  0  0
 31 32  1  0  0  0  0
 31 59  1  0  0  0  0
 32 60  1  0  0  0  0
 33 34  2  0  0  0  0
 35 36  1  0  0  0  0
 36 61  1  0  0  0  0
 37 38  1  0  0  0  0
 37 62  1  0  0  0  0
 38 39  2  0  0  0  0
 38 63  1  0  0  0  0
 39 40  1  0  0  0  0
 40 41  1  0  0  0  0
 41 64  1  0  0  0  0
M  END
$$$$
