CHEMBL231468
 OpenBabel04072215363D

 60 64  0  0  0  0  0  0  0  0999 V2000
   10.0843   -2.6214    7.5692 C   0  0  0  0  0  0  0  0  0  0  0  0
    9.1369   -3.8628    6.6510 S   0  0  0  0  0  0  0  0  0  0  0  0
    7.7010   -3.9403    7.6899 C   0  0  0  0  0  0  0  0  0  0  0  0
    6.9623   -5.0575    7.6564 N   0  0  0  0  0  0  0  0  0  0  0  0
    5.8366   -5.0541    8.3943 C   0  0  0  0  0  0  0  0  0  0  0  0
    5.4056   -3.9654    9.1215 C   0  0  0  0  0  0  0  0  0  0  0  0
    6.2188   -2.8613    9.0530 C   0  0  0  0  0  0  0  0  0  0  0  0
    5.7919   -1.6977    9.6883 O   0  0  0  0  0  0  0  0  0  0  0  0
    6.2536   -0.4903    9.1892 C   0  0  0  0  0  0  0  0  0  0  0  0
    6.4289   -0.2539    7.8155 C   0  0  0  0  0  0  0  0  0  0  0  0
    6.9480    0.9506    7.3314 C   0  0  0  0  0  0  0  0  0  0  0  0
    7.2240    1.9298    8.2809 C   0  0  0  0  0  0  0  0  0  0  0  0
    7.7358    3.1976    8.1783 N   0  0  0  0  0  0  0  0  0  0  0  0
    7.7186    3.7807    9.4212 C   0  0  0  0  0  0  0  0  0  0  0  0
    8.0781    5.0806    9.5588 N   0  0  0  0  0  0  0  0  0  0  0  0
    7.4897    5.9933   10.4693 C   0  0  0  0  0  0  0  0  0  0  0  0
    6.5330    5.6127   11.4150 C   0  0  0  0  0  0  0  0  0  0  0  0
    5.9157    6.5492   12.2413 C   0  0  0  0  0  0  0  0  0  0  0  0
    6.2577    7.8952   12.1590 C   0  0  0  0  0  0  0  0  0  0  0  0
    5.3776    8.9899   13.1642 Cl  0  0  0  0  0  0  0  0  0  0  0  0
    7.2650    8.3169   11.2763 C   0  0  0  0  0  0  0  0  0  0  0  0
    7.7023    9.7661   11.1742 C   0  0  0  0  0  0  0  0  0  0  0  0
    7.5981   10.3247    9.8135 N   0  0  0  0  0  0  0  0  0  0  0  0
    6.2071   10.3273    9.3154 C   0  0  0  0  0  0  0  0  0  0  0  0
    6.1169   10.9503    7.9025 C   0  0  0  0  0  0  0  0  0  0  0  0
    6.6485   12.3232    7.7954 N   0  0  0  0  0  0  0  0  0  0  0  0
    5.7495   13.2943    8.4150 C   0  0  0  0  0  0  0  0  0  0  0  0
    7.9976   12.3652    8.3953 C   0  0  0  0  0  0  0  0  0  0  0  0
    8.1174   11.7113    9.7930 C   0  0  0  0  0  0  0  0  0  0  0  0
    7.8819    7.3452   10.4505 C   0  0  0  0  0  0  0  0  0  0  0  0
    7.3008    2.9117   10.3208 N   0  0  0  0  0  0  0  0  0  0  0  0
    6.9913    1.7615    9.6400 C   0  0  0  0  0  0  0  0  0  0  0  0
    6.4969    0.5331   10.1147 C   0  0  0  0  0  0  0  0  0  0  0  0
    7.3876   -2.8463    8.3882 N   0  0  0  0  0  0  0  0  0  0  0  0
   11.0496   -2.4713    7.0793 H   0  0  0  0  0  0  0  0  0  0  0  0
   10.2645   -2.9686    8.5904 H   0  0  0  0  0  0  0  0  0  0  0  0
    9.5665   -1.6576    7.5976 H   0  0  0  0  0  0  0  0  0  0  0  0
    5.2645   -5.9743    8.3659 H   0  0  0  0  0  0  0  0  0  0  0  0
    4.4803   -3.9755    9.6778 H   0  0  0  0  0  0  0  0  0  0  0  0
    6.1946   -1.0317    7.0912 H   0  0  0  0  0  0  0  0  0  0  0  0
    7.1246    1.0983    6.2717 H   0  0  0  0  0  0  0  0  0  0  0  0
    7.9970    3.6594    7.3223 H   0  0  0  0  0  0  0  0  0  0  0  0
    8.5317    5.5584    8.7890 H   0  0  0  0  0  0  0  0  0  0  0  0
    6.2197    4.5775   11.5104 H   0  0  0  0  0  0  0  0  0  0  0  0
    5.1491    6.2125   12.9341 H   0  0  0  0  0  0  0  0  0  0  0  0
    8.7531    9.7946   11.4948 H   0  0  0  0  0  0  0  0  0  0  0  0
    7.1627   10.4069   11.8778 H   0  0  0  0  0  0  0  0  0  0  0  0
    5.5444   10.8656   10.0053 H   0  0  0  0  0  0  0  0  0  0  0  0
    5.8278    9.3020    9.2400 H   0  0  0  0  0  0  0  0  0  0  0  0
    5.0791   10.9170    7.5490 H   0  0  0  0  0  0  0  0  0  0  0  0
    6.6829   10.3149    7.2074 H   0  0  0  0  0  0  0  0  0  0  0  0
    4.7603   13.2510    7.9452 H   0  0  0  0  0  0  0  0  0  0  0  0
    6.1232   14.3119    8.2566 H   0  0  0  0  0  0  0  0  0  0  0  0
    5.6202   13.1438    9.4913 H   0  0  0  0  0  0  0  0  0  0  0  0
    8.3584   13.4004    8.4420 H   0  0  0  0  0  0  0  0  0  0  0  0
    8.6834   11.8459    7.7128 H   0  0  0  0  0  0  0  0  0  0  0  0
    7.5894   12.3315   10.5292 H   0  0  0  0  0  0  0  0  0  0  0  0
    9.1767   11.7069   10.0773 H   0  0  0  0  0  0  0  0  0  0  0  0
    8.6573    7.6740    9.7603 H   0  0  0  0  0  0  0  0  0  0  0  0
    6.3253    0.3927   11.1763 H   0  0  0  0  0  0  0  0  0  0  0  0
  1  2  1  0  0  0  0
  1 35  1  0  0  0  0
  1 36  1  0  0  0  0
  1 37  1  0  0  0  0
  2  3  1  0  0  0  0
  3  4  1  0  0  0  0
  3 34  2  0  0  0  0
  4  5  2  0  0  0  0
  5  6  1  0  0  0  0
  5 38  1  0  0  0  0
  6  7  2  0  0  0  0
  6 39  1  0  0  0  0
  7  8  1  0  0  0  0
  7 34  1  0  0  0  0
  8  9  1  0  0  0  0
  9 10  1  0  0  0  0
  9 33  2  0  0  0  0
 10 11  2  0  0  0  0
 10 40  1  0  0  0  0
 11 12  1  0  0  0  0
 11 41  1  0  0  0  0
 12 13  1  0  0  0  0
 12 32  2  0  0  0  0
 13 14  1  0  0  0  0
 13 42  1  0  0  0  0
 14 15  1  0  0  0  0
 14 31  2  0  0  0  0
 15 16  1  0  0  0  0
 15 43  1  0  0  0  0
 16 17  1  0  0  0  0
 16 30  2  0  0  0  0
 17 18  2  0  0  0  0
 17 44  1  0  0  0  0
 18 19  1  0  0  0  0
 18 45  1  0  0  0  0
 19 20  1  0  0  0  0
 19 21  2  0  0  0  0
 21 22  1  0  0  0  0
 21 30  1  0  0  0  0
 22 23  1  0  0  0  0
 22 46  1  0  0  0  0
 22 47  1  0  0  0  0
 23 24  1  0  0  0  0
 23 29  1  0  0  0  0
 24 25  1  0  0  0  0
 24 48  1  0  0  0  0
 24 49  1  0  0  0  0
 25 26  1  0  0  0  0
 25 50  1  0  0  0  0
 25 51  1  0  0  0  0
 26 27  1  0  0  0  0
 26 28  1  0  0  0  0
 27 52  1  0  0  0  0
 27 53  1  0  0  0  0
 27 54  1  0  0  0  0
 28 29  1  0  0  0  0
 28 55  1  0  0  0  0
 28 56  1  0  0  0  0
 29 57  1  0  0  0  0
 29 58  1  0  0  0  0
 30 59  1  0  0  0  0
 31 32  1  0  0  0  0
 32 33  1  0  0  0  0
 33 60  1  0  0  0  0
M  END
$$$$
