CHEMBL243907
 OpenBabel04072215363D

 56 59  0  0  0  0  0  0  0  0999 V2000
    3.5509   -0.1935    2.2887 C   0  0  0  0  0  0  0  0  0  0  0  0
    2.8388   -0.2943    0.9491 C   0  0  0  0  0  0  0  0  0  0  0  0
    3.3185   -1.4662    0.1302 C   0  0  0  0  0  0  0  0  0  0  0  0
    4.4102   -1.2849   -0.7278 C   0  0  0  0  0  0  0  0  0  0  0  0
    4.8506   -2.3356   -1.5188 C   0  0  0  0  0  0  0  0  0  0  0  0
    4.2163   -3.5704   -1.4421 C   0  0  0  0  0  0  0  0  0  0  0  0
    3.1713   -3.8105   -0.5340 C   0  0  0  0  0  0  0  0  0  0  0  0
    2.5969   -5.1072   -0.3493 N   0  0  0  0  0  0  0  0  0  0  0  0
    3.2279   -6.2633   -0.7622 C   0  0  0  0  0  0  0  0  0  0  0  0
    4.3152   -6.2715   -1.3333 O   0  0  0  0  0  0  0  0  0  0  0  0
    2.5351   -7.4382   -0.4624 N   0  0  0  0  0  0  0  0  0  0  0  0
    3.1006   -8.7131   -0.7421 C   0  0  0  0  0  0  0  0  0  0  0  0
    4.4928   -8.8779   -0.8557 C   0  0  0  0  0  0  0  0  0  0  0  0
    5.0486  -10.0525   -1.3423 C   0  0  0  0  0  0  0  0  0  0  0  0
    4.2356  -11.1458   -1.5797 C   0  0  0  0  0  0  0  0  0  0  0  0
    4.6883  -12.3426   -2.0653 O   0  0  0  0  0  0  0  0  0  0  0  0
    6.0013  -12.7336   -1.8969 C   0  0  0  0  0  0  0  0  0  0  0  0
    6.4972  -13.4823   -2.9695 C   0  0  0  0  0  0  0  0  0  0  0  0
    7.7302  -14.1177   -2.8843 C   0  0  0  0  0  0  0  0  0  0  0  0
    8.4787  -13.9346   -1.7246 C   0  0  0  0  0  0  0  0  0  0  0  0
    9.6807  -14.4800   -1.4412 N   0  0  0  0  0  0  0  0  0  0  0  0
   10.0596  -13.9826   -0.2924 C   0  0  0  0  0  0  0  0  0  0  0  0
   11.2798  -14.2558    0.2792 N   0  0  0  0  0  0  0  0  0  0  0  0
   12.0693  -15.2156   -0.3101 C   0  0  0  0  0  0  0  0  0  0  0  0
   11.7596  -16.0125   -1.1840 O   0  0  0  0  0  0  0  0  0  0  0  0
   13.3278  -15.1927    0.2248 O   0  0  0  0  0  0  0  0  0  0  0  0
   14.1836  -16.1382   -0.4370 C   0  0  0  0  0  0  0  0  0  0  0  0
    9.0971  -13.1303    0.2091 N   0  0  0  0  0  0  0  0  0  0  0  0
    8.0348  -13.1279   -0.6889 C   0  0  0  0  0  0  0  0  0  0  0  0
    6.7630  -12.5322   -0.7196 C   0  0  0  0  0  0  0  0  0  0  0  0
    2.8537  -11.0316   -1.3915 C   0  0  0  0  0  0  0  0  0  0  0  0
    2.2836   -9.8152   -0.9735 C   0  0  0  0  0  0  0  0  0  0  0  0
    2.7051   -2.7338    0.2274 C   0  0  0  0  0  0  0  0  0  0  0  0
    3.1816    0.6738    2.8449 H   0  0  0  0  0  0  0  0  0  0  0  0
    4.6322   -0.0757    2.1605 H   0  0  0  0  0  0  0  0  0  0  0  0
    3.3792   -1.0877    2.8974 H   0  0  0  0  0  0  0  0  0  0  0  0
    3.0055    0.6323    0.3823 H   0  0  0  0  0  0  0  0  0  0  0  0
    1.7571   -0.3655    1.0984 H   0  0  0  0  0  0  0  0  0  0  0  0
    4.9184   -0.3277   -0.7933 H   0  0  0  0  0  0  0  0  0  0  0  0
    5.6898   -2.2057   -2.1999 H   0  0  0  0  0  0  0  0  0  0  0  0
    4.5859   -4.3359   -2.1138 H   0  0  0  0  0  0  0  0  0  0  0  0
    1.8555   -5.1937    0.3300 H   0  0  0  0  0  0  0  0  0  0  0  0
    1.5312   -7.3768   -0.4106 H   0  0  0  0  0  0  0  0  0  0  0  0
    5.1854   -8.0829   -0.6107 H   0  0  0  0  0  0  0  0  0  0  0  0
    6.1161  -10.0676   -1.5386 H   0  0  0  0  0  0  0  0  0  0  0  0
    5.9065  -13.6016   -3.8764 H   0  0  0  0  0  0  0  0  0  0  0  0
    8.1193  -14.7350   -3.6801 H   0  0  0  0  0  0  0  0  0  0  0  0
   11.6418  -13.7345    1.0693 H   0  0  0  0  0  0  0  0  0  0  0  0
   15.1867  -16.0627   -0.0115 H   0  0  0  0  0  0  0  0  0  0  0  0
   14.2479  -15.9163   -1.5083 H   0  0  0  0  0  0  0  0  0  0  0  0
   13.8157  -17.1580   -0.2829 H   0  0  0  0  0  0  0  0  0  0  0  0
    9.1508  -12.5982    1.0579 H   0  0  0  0  0  0  0  0  0  0  0  0
    6.3839  -11.9557    0.1187 H   0  0  0  0  0  0  0  0  0  0  0  0
    2.2138  -11.8854   -1.6074 H   0  0  0  0  0  0  0  0  0  0  0  0
    1.2033   -9.7527   -0.8788 H   0  0  0  0  0  0  0  0  0  0  0  0
    1.8793   -2.8676    0.9213 H   0  0  0  0  0  0  0  0  0  0  0  0
  1  2  1  0  0  0  0
  1 34  1  0  0  0  0
  1 35  1  0  0  0  0
  1 36  1  0  0  0  0
  2  3  1  0  0  0  0
  2 37  1  0  0  0  0
  2 38  1  0  0  0  0
  3  4  1  0  0  0  0
  3 33  2  0  0  0  0
  4  5  2  0  0  0  0
  4 39  1  0  0  0  0
  5  6  1  0  0  0  0
  5 40  1  0  0  0  0
  6  7  2  0  0  0  0
  6 41  1  0  0  0  0
  7  8  1  0  0  0  0
  7 33  1  0  0  0  0
  8  9  1  0  0  0  0
  8 42  1  0  0  0  0
  9 10  2  0  0  0  0
  9 11  1  0  0  0  0
 11 12  1  0  0  0  0
 11 43  1  0  0  0  0
 12 13  1  0  0  0  0
 12 32  2  0  0  0  0
 13 14  2  0  0  0  0
 13 44  1  0  0  0  0
 14 15  1  0  0  0  0
 14 45  1  0  0  0  0
 15 16  1  0  0  0  0
 15 31  2  0  0  0  0
 16 17  1  0  0  0  0
 17 18  1  0  0  0  0
 17 30  2  0  0  0  0
 18 19  2  0  0  0  0
 18 46  1  0  0  0  0
 19 20  1  0  0  0  0
 19 47  1  0  0  0  0
 20 21  1  0  0  0  0
 20 29  2  0  0  0  0
 21 22  2  0  0  0  0
 22 23  1  0  0  0  0
 22 28  1  0  0  0  0
 23 24  1  0  0  0  0
 23 48  1  0  0  0  0
 24 25  2  0  0  0  0
 24 26  1  0  0  0  0
 26 27  1  0  0  0  0
 27 49  1  0  0  0  0
 27 50  1  0  0  0  0
 27 51  1  0  0  0  0
 28 29  1  0  0  0  0
 28 52  1  0  0  0  0
 29 30  1  0  0  0  0
 30 53  1  0  0  0  0
 31 32  1  0  0  0  0
 31 54  1  0  0  0  0
 32 55  1  0  0  0  0
 33 56  1  0  0  0  0
M  END
$$$$
