CHEMBL3909258
 OpenBabel04072215373D

 53 57  0  0  0  0  0  0  0  0999 V2000
    1.1081    0.9167   -0.3981 O   0  0  0  0  0  0  0  0  0  0  0  0
    2.2075    0.4118   -0.2268 C   0  0  0  0  0  0  0  0  0  0  0  0
    2.7563   -0.5675   -1.0415 N   0  0  0  0  0  0  0  0  0  0  0  0
    2.1107   -1.1475   -2.1587 C   0  0  0  0  0  0  0  0  0  0  0  0
    0.9899   -0.5863   -2.7793 C   0  0  0  0  0  0  0  0  0  0  0  0
    0.2998   -1.2771   -3.7817 C   0  0  0  0  0  0  0  0  0  0  0  0
    0.7379   -2.5313   -4.1958 C   0  0  0  0  0  0  0  0  0  0  0  0
   -0.0293   -3.1488   -5.1563 O   0  0  0  0  0  0  0  0  0  0  0  0
   -0.2390   -4.5108   -5.1138 C   0  0  0  0  0  0  0  0  0  0  0  0
   -0.1469   -5.2951   -3.9698 C   0  0  0  0  0  0  0  0  0  0  0  0
   -0.3164   -6.6548   -4.1106 C   0  0  0  0  0  0  0  0  0  0  0  0
   -0.6332   -7.2466   -5.2754 N   0  0  0  0  0  0  0  0  0  0  0  0
   -0.7976   -6.4830   -6.3667 C   0  0  0  0  0  0  0  0  0  0  0  0
   -1.1619   -7.0782   -7.5838 N   0  0  0  0  0  0  0  0  0  0  0  0
   -1.3373   -8.4378   -7.7539 C   0  0  0  0  0  0  0  0  0  0  0  0
   -1.2093   -9.3157   -6.9123 O   0  0  0  0  0  0  0  0  0  0  0  0
   -1.7046   -8.8946   -9.1285 C   0  0  0  0  0  0  0  0  0  0  0  0
   -0.7284   -8.6767  -10.2618 C   0  0  0  0  0  0  0  0  0  0  0  0
   -2.0872   -8.0382  -10.3058 C   0  0  0  0  0  0  0  0  0  0  0  0
   -0.6097   -5.1057   -6.3244 C   0  0  0  0  0  0  0  0  0  0  0  0
    1.9330   -3.0276   -3.6697 C   0  0  0  0  0  0  0  0  0  0  0  0
    2.4520   -4.1838   -4.1069 F   0  0  0  0  0  0  0  0  0  0  0  0
    2.6070   -2.3580   -2.6464 C   0  0  0  0  0  0  0  0  0  0  0  0
    3.0589    0.7347    0.8199 N   0  0  0  0  0  0  0  0  0  0  0  0
    2.7279    1.5914    1.8965 C   0  0  0  0  0  0  0  0  0  0  0  0
    1.4087    1.8981    2.2451 C   0  0  0  0  0  0  0  0  0  0  0  0
    1.1014    2.7803    3.2864 C   0  0  0  0  0  0  0  0  0  0  0  0
    2.1705    3.3488    3.9800 C   0  0  0  0  0  0  0  0  0  0  0  0
    2.1722    4.2580    5.0174 N   0  0  0  0  0  0  0  0  0  0  0  0
    3.4590    4.5469    5.3893 C   0  0  0  0  0  0  0  0  0  0  0  0
    4.2804    3.8036    4.5840 C   0  0  0  0  0  0  0  0  0  0  0  0
    5.5818    3.8097    4.6334 F   0  0  0  0  0  0  0  0  0  0  0  0
    3.5000    3.0448    3.6845 C   0  0  0  0  0  0  0  0  0  0  0  0
    3.7830    2.1392    2.6402 C   0  0  0  0  0  0  0  0  0  0  0  0
    3.5408   -1.0726   -0.6570 H   0  0  0  0  0  0  0  0  0  0  0  0
    0.6119    0.3927   -2.4961 H   0  0  0  0  0  0  0  0  0  0  0  0
   -0.5904   -0.8305   -4.2183 H   0  0  0  0  0  0  0  0  0  0  0  0
    0.0812   -4.8900   -2.9924 H   0  0  0  0  0  0  0  0  0  0  0  0
   -0.1931   -7.3323   -3.2709 H   0  0  0  0  0  0  0  0  0  0  0  0
   -1.2804   -6.4736   -8.3795 H   0  0  0  0  0  0  0  0  0  0  0  0
   -2.1881   -9.8704   -9.0988 H   0  0  0  0  0  0  0  0  0  0  0  0
   -0.5263   -9.5261  -10.9047 H   0  0  0  0  0  0  0  0  0  0  0  0
    0.1336   -8.0423  -10.0889 H   0  0  0  0  0  0  0  0  0  0  0  0
   -2.8112   -8.4540  -11.0021 H   0  0  0  0  0  0  0  0  0  0  0  0
   -2.1602   -6.9648  -10.2116 H   0  0  0  0  0  0  0  0  0  0  0  0
   -0.7374   -4.4880   -7.2070 H   0  0  0  0  0  0  0  0  0  0  0  0
    3.4955   -2.8200   -2.2294 H   0  0  0  0  0  0  0  0  0  0  0  0
    4.0394    0.5449    0.6798 H   0  0  0  0  0  0  0  0  0  0  0  0
    0.5687    1.4528    1.7160 H   0  0  0  0  0  0  0  0  0  0  0  0
    0.0691    3.0130    3.5256 H   0  0  0  0  0  0  0  0  0  0  0  0
    1.3391    4.6566    5.4289 H   0  0  0  0  0  0  0  0  0  0  0  0
    3.6726    5.2499    6.1822 H   0  0  0  0  0  0  0  0  0  0  0  0
    4.8184    1.9130    2.4074 H   0  0  0  0  0  0  0  0  0  0  0  0
  1  2  2  0  0  0  0
  2  3  1  0  0  0  0
  2 24  1  0  0  0  0
  3  4  1  0  0  0  0
  3 35  1  0  0  0  0
  4  5  1  0  0  0  0
  4 23  2  0  0  0  0
  5  6  2  0  0  0  0
  5 36  1  0  0  0  0
  6  7  1  0  0  0  0
  6 37  1  0  0  0  0
  7  8  1  0  0  0  0
  7 21  2  0  0  0  0
  8  9  1  0  0  0  0
  9 10  1  0  0  0  0
  9 20  2  0  0  0  0
 10 11  2  0  0  0  0
 10 38  1  0  0  0  0
 11 12  1  0  0  0  0
 11 39  1  0  0  0  0
 12 13  2  0  0  0  0
 13 14  1  0  0  0  0
 13 20  1  0  0  0  0
 14 15  1  0  0  0  0
 14 40  1  0  0  0  0
 15 16  2  0  0  0  0
 15 17  1  0  0  0  0
 17 18  1  0  0  0  0
 17 19  1  0  0  0  0
 17 41  1  0  0  0  0
 18 19  1  0  0  0  0
 18 42  1  0  0  0  0
 18 43  1  0  0  0  0
 19 44  1  0  0  0  0
 19 45  1  0  0  0  0
 20 46  1  0  0  0  0
 21 22  1  0  0  0  0
 21 23  1  0  0  0  0
 23 47  1  0  0  0  0
 24 25  1  0  0  0  0
 24 48  1  0  0  0  0
 25 26  1  0  0  0  0
 25 34  2  0  0  0  0
 26 27  2  0  0  0  0
 26 49  1  0  0  0  0
 27 28  1  0  0  0  0
 27 50  1  0  0  0  0
 28 29  1  0  0  0  0
 28 33  2  0  0  0  0
 29 30  1  0  0  0  0
 29 51  1  0  0  0  0
 30 31  2  0  0  0  0
 30 52  1  0  0  0  0
 31 32  1  0  0  0  0
 31 33  1  0  0  0  0
 33 34  1  0  0  0  0
 34 53  1  0  0  0  0
M  END
$$$$
