CHEMBL4791531
 OpenBabel04072215383D

 56 60  0  0  0  0  0  0  0  0999 V2000
   -2.5351   -4.0075   -1.6916 C   0  0  0  0  0  0  0  0  0  0  0  0
   -3.8841   -4.5145   -2.1364 C   0  0  0  0  0  0  0  0  0  0  0  0
   -3.8942   -5.6996   -2.9044 C   0  0  0  0  0  0  0  0  0  0  0  0
   -5.0887   -6.2477   -3.3669 C   0  0  0  0  0  0  0  0  0  0  0  0
   -5.0738   -7.6742   -4.3277 Cl  0  0  0  0  0  0  0  0  0  0  0  0
   -6.2897   -5.6411   -3.0507 C   0  0  0  0  0  0  0  0  0  0  0  0
   -6.2973   -4.4744   -2.2823 C   0  0  0  0  0  0  0  0  0  0  0  0
   -5.1077   -3.8761   -1.8238 C   0  0  0  0  0  0  0  0  0  0  0  0
   -5.1374   -2.6614   -1.0742 N   0  0  0  0  0  0  0  0  0  0  0  0
   -6.2475   -1.8320   -0.8784 C   0  0  0  0  0  0  0  0  0  0  0  0
   -7.3781   -2.0429   -1.3175 O   0  0  0  0  0  0  0  0  0  0  0  0
   -5.9158   -0.6750   -0.1990 N   0  0  0  0  0  0  0  0  0  0  0  0
   -6.9233    0.2950   -0.0468 C   0  0  0  0  0  0  0  0  0  0  0  0
   -7.9342    0.0898    0.8028 N   0  0  0  0  0  0  0  0  0  0  0  0
   -8.8282    1.0920    0.9006 C   0  0  0  0  0  0  0  0  0  0  0  0
  -10.1225    0.9734    2.1372 S   0  0  0  0  0  0  0  0  0  0  0  0
  -11.1202   -0.3769    1.6397 C   0  0  0  0  0  0  0  0  0  0  0  0
  -10.9355   -1.1991    0.5526 C   0  0  0  0  0  0  0  0  0  0  0  0
  -11.9262   -2.1400    0.5616 N   0  0  0  0  0  0  0  0  0  0  0  0
  -12.7720   -1.9411    1.6270 C   0  0  0  0  0  0  0  0  0  0  0  0
  -13.9045   -2.6648    2.0198 C   0  0  0  0  0  0  0  0  0  0  0  0
  -14.5865   -2.2394    3.1619 C   0  0  0  0  0  0  0  0  0  0  0  0
  -14.1508   -1.1304    3.8811 C   0  0  0  0  0  0  0  0  0  0  0  0
  -13.0123   -0.4174    3.4771 C   0  0  0  0  0  0  0  0  0  0  0  0
  -12.2974   -0.8267    2.3264 C   0  0  0  0  0  0  0  0  0  0  0  0
   -8.7399    2.2524    0.1569 C   0  0  0  0  0  0  0  0  0  0  0  0
   -7.6708    2.3802   -0.7066 C   0  0  0  0  0  0  0  0  0  0  0  0
   -7.5142    3.4914   -1.5134 N   0  0  0  0  0  0  0  0  0  0  0  0
   -8.6256    4.3252   -1.9659 C   0  0  0  0  0  0  0  0  0  0  0  0
   -8.3248    4.5811   -3.4402 C   0  0  0  0  0  0  0  0  0  0  0  0
   -6.8078    4.5797   -3.4962 C   0  0  0  0  0  0  0  0  0  0  0  0
   -6.4078    3.5191   -2.4712 C   0  0  0  0  0  0  0  0  0  0  0  0
   -6.7251    1.4218   -0.7480 N   0  0  0  0  0  0  0  0  0  0  0  0
   -1.7260   -4.5333   -2.2118 H   0  0  0  0  0  0  0  0  0  0  0  0
   -2.3994   -4.1761   -0.6190 H   0  0  0  0  0  0  0  0  0  0  0  0
   -2.4177   -2.9462   -1.9244 H   0  0  0  0  0  0  0  0  0  0  0  0
   -2.9606   -6.1996   -3.1571 H   0  0  0  0  0  0  0  0  0  0  0  0
   -7.2334   -6.0613   -3.3886 H   0  0  0  0  0  0  0  0  0  0  0  0
   -7.2699   -4.0653   -2.0435 H   0  0  0  0  0  0  0  0  0  0  0  0
   -4.2781   -2.3676   -0.6436 H   0  0  0  0  0  0  0  0  0  0  0  0
   -5.1028   -0.2373   -0.5990 H   0  0  0  0  0  0  0  0  0  0  0  0
  -10.1699   -1.2202   -0.2111 H   0  0  0  0  0  0  0  0  0  0  0  0
  -12.0206   -2.8878   -0.1147 H   0  0  0  0  0  0  0  0  0  0  0  0
  -14.2447   -3.5326    1.4616 H   0  0  0  0  0  0  0  0  0  0  0  0
  -15.4685   -2.7843    3.4931 H   0  0  0  0  0  0  0  0  0  0  0  0
  -14.6956   -0.8167    4.7684 H   0  0  0  0  0  0  0  0  0  0  0  0
  -12.6828    0.4431    4.0523 H   0  0  0  0  0  0  0  0  0  0  0  0
   -9.4730    3.0408    0.2728 H   0  0  0  0  0  0  0  0  0  0  0  0
   -8.6135    5.2673   -1.4057 H   0  0  0  0  0  0  0  0  0  0  0  0
   -9.6141    3.8666   -1.8620 H   0  0  0  0  0  0  0  0  0  0  0  0
   -8.7597    5.5199   -3.7999 H   0  0  0  0  0  0  0  0  0  0  0  0
   -8.7247    3.7647   -4.0529 H   0  0  0  0  0  0  0  0  0  0  0  0
   -6.4167    5.5607   -3.2039 H   0  0  0  0  0  0  0  0  0  0  0  0
   -6.4282    4.3481   -4.4964 H   0  0  0  0  0  0  0  0  0  0  0  0
   -5.4708    3.7955   -1.9755 H   0  0  0  0  0  0  0  0  0  0  0  0
   -6.2747    2.5560   -2.9779 H   0  0  0  0  0  0  0  0  0  0  0  0
  1  2  1  0  0  0  0
  1 34  1  0  0  0  0
  1 35  1  0  0  0  0
  1 36  1  0  0  0  0
  2  3  1  0  0  0  0
  2  8  2  0  0  0  0
  3  4  2  0  0  0  0
  3 37  1  0  0  0  0
  4  5  1  0  0  0  0
  4  6  1  0  0  0  0
  6  7  2  0  0  0  0
  6 38  1  0  0  0  0
  7  8  1  0  0  0  0
  7 39  1  0  0  0  0
  8  9  1  0  0  0  0
  9 10  1  0  0  0  0
  9 40  1  0  0  0  0
 10 11  2  0  0  0  0
 10 12  1  0  0  0  0
 12 13  1  0  0  0  0
 12 41  1  0  0  0  0
 13 14  1  0  0  0  0
 13 33  2  0  0  0  0
 14 15  2  0  0  0  0
 15 16  1  0  0  0  0
 15 26  1  0  0  0  0
 16 17  1  0  0  0  0
 17 18  2  0  0  0  0
 17 25  1  0  0  0  0
 18 19  1  0  0  0  0
 18 42  1  0  0  0  0
 19 20  1  0  0  0  0
 19 43  1  0  0  0  0
 20 21  1  0  0  0  0
 20 25  2  0  0  0  0
 21 22  2  0  0  0  0
 21 44  1  0  0  0  0
 22 23  1  0  0  0  0
 22 45  1  0  0  0  0
 23 24  2  0  0  0  0
 23 46  1  0  0  0  0
 24 25  1  0  0  0  0
 24 47  1  0  0  0  0
 26 27  2  0  0  0  0
 26 48  1  0  0  0  0
 27 28  1  0  0  0  0
 27 33  1  0  0  0  0
 28 29  1  0  0  0  0
 28 32  1  0  0  0  0
 29 30  1  0  0  0  0
 29 49  1  0  0  0  0
 29 50  1  0  0  0  0
 30 31  1  0  0  0  0
 30 51  1  0  0  0  0
 30 52  1  0  0  0  0
 31 32  1  0  0  0  0
 31 53  1  0  0  0  0
 31 54  1  0  0  0  0
 32 55  1  0  0  0  0
 32 56  1  0  0  0  0
M  END
$$$$
