CHEMBL396788
 OpenBabel04072215373D

 29 31  0  0  0  0  0  0  0  0999 V2000
    1.1502    0.5858    0.1909 C   0  0  0  0  0  0  0  0  0  0  0  0
    2.6133    0.2915    0.1136 C   0  0  0  0  0  0  0  0  0  0  0  0
    3.4976    1.3941    0.0759 C   0  0  0  0  0  0  0  0  0  0  0  0
    4.8896    1.2329    0.0382 C   0  0  0  0  0  0  0  0  0  0  0  0
    5.4422   -0.0394    0.0403 C   0  0  0  0  0  0  0  0  0  0  0  0
    4.5694   -1.1120    0.0681 C   0  0  0  0  0  0  0  0  0  0  0  0
    3.1630   -0.9899    0.0850 C   0  0  0  0  0  0  0  0  0  0  0  0
    2.6693   -2.3868    0.1025 C   0  0  0  0  0  0  0  0  0  0  0  0
    1.4970   -3.0386    0.0471 C   0  0  0  0  0  0  0  0  0  0  0  0
    0.2207   -2.4601   -0.0926 C   0  0  0  0  0  0  0  0  0  0  0  0
   -0.7669   -2.0951    0.7992 C   0  0  0  0  0  0  0  0  0  0  0  0
   -1.8918   -1.6798    0.0446 C   0  0  0  0  0  0  0  0  0  0  0  0
   -1.5743   -1.8390   -1.2857 C   0  0  0  0  0  0  0  0  0  0  0  0
   -0.2887   -2.3115   -1.3602 N   0  0  0  0  0  0  0  0  0  0  0  0
    3.8847   -3.2903    0.1418 C   0  0  0  0  0  0  0  0  0  0  0  0
    3.9163   -4.5065    0.1755 O   0  0  0  0  0  0  0  0  0  0  0  0
    4.9692   -2.4421    0.1000 N   0  0  0  0  0  0  0  0  0  0  0  0
    0.9616    1.6507    0.3685 H   0  0  0  0  0  0  0  0  0  0  0  0
    0.7047    0.0626    1.0371 H   0  0  0  0  0  0  0  0  0  0  0  0
    0.6591    0.3275   -0.7506 H   0  0  0  0  0  0  0  0  0  0  0  0
    3.0981    2.4082    0.0888 H   0  0  0  0  0  0  0  0  0  0  0  0
    5.5332    2.1087    0.0192 H   0  0  0  0  0  0  0  0  0  0  0  0
    6.5170   -0.1786    0.0259 H   0  0  0  0  0  0  0  0  0  0  0  0
    1.4999   -4.1278    0.0870 H   0  0  0  0  0  0  0  0  0  0  0  0
   -0.6834   -2.1186    1.8782 H   0  0  0  0  0  0  0  0  0  0  0  0
   -2.8372   -1.3227    0.4319 H   0  0  0  0  0  0  0  0  0  0  0  0
   -2.1511   -1.6647   -2.1839 H   0  0  0  0  0  0  0  0  0  0  0  0
    0.2050   -2.5298   -2.2162 H   0  0  0  0  0  0  0  0  0  0  0  0
    5.9202   -2.7744    0.1068 H   0  0  0  0  0  0  0  0  0  0  0  0
  1  2  1  0  0  0  0
  1 18  1  0  0  0  0
  1 19  1  0  0  0  0
  1 20  1  0  0  0  0
  2  3  1  0  0  0  0
  2  7  2  0  0  0  0
  3  4  2  0  0  0  0
  3 21  1  0  0  0  0
  4  5  1  0  0  0  0
  4 22  1  0  0  0  0
  5  6  2  0  0  0  0
  5 23  1  0  0  0  0
  6  7  1  0  0  0  0
  6 17  1  0  0  0  0
  7  8  1  0  0  0  0
  8  9  2  0  0  0  0
  8 15  1  0  0  0  0
  9 10  1  0  0  0  0
  9 24  1  0  0  0  0
 10 11  2  0  0  0  0
 10 14  1  0  0  0  0
 11 12  1  0  0  0  0
 11 25  1  0  0  0  0
 12 13  2  0  0  0  0
 12 26  1  0  0  0  0
 13 14  1  0  0  0  0
 13 27  1  0  0  0  0
 14 28  1  0  0  0  0
 15 16  2  0  0  0  0
 15 17  1  0  0  0  0
 17 29  1  0  0  0  0
M  END
$$$$
