CHEMBL3956056
 OpenBabel04072215373D

 56 60  0  0  1  0  0  0  0  0999 V2000
    3.2814   -1.2468   -0.3619 C   0  0  0  0  0  0  0  0  0  0  0  0
    2.4769   -0.4083    0.4725 O   0  0  0  0  0  0  0  0  0  0  0  0
    3.1417    0.6136    1.0985 C   0  0  0  0  0  0  0  0  0  0  0  0
    4.2542    1.2425    0.5356 C   0  0  0  0  0  0  0  0  0  0  0  0
    4.9763    2.2165    1.2622 C   0  0  0  0  0  0  0  0  0  0  0  0
    6.1380    2.8603    0.8153 C   0  0  0  0  0  0  0  0  0  0  0  0
    6.6563    2.5712   -0.4743 N   0  0  0  0  0  0  0  0  0  0  0  0
    7.9811    2.8850   -0.8434 C   0  0  0  0  0  0  0  0  0  0  0  0
    9.0457    2.5200   -0.0051 C   0  0  0  0  0  0  0  0  0  0  0  0
   10.3479    2.9360   -0.2763 C   0  0  0  0  0  0  0  0  0  0  0  0
   10.6035    3.7117   -1.4049 C   0  0  0  0  0  0  0  0  0  0  0  0
   12.2231    4.2594   -1.6465 Cl  0  0  0  0  0  0  0  0  0  0  0  0
    9.5576    4.0379   -2.2775 C   0  0  0  0  0  0  0  0  0  0  0  0
    9.8057    4.9895   -3.6990 Cl  0  0  0  0  0  0  0  0  0  0  0  0
    8.2511    3.6167   -2.0013 C   0  0  0  0  0  0  0  0  0  0  0  0
    6.8116    3.7355    1.5911 N   0  0  0  0  0  0  0  0  0  0  0  0
    6.3218    3.9749    2.8074 C   0  0  0  0  0  0  0  0  0  0  0  0
    5.2211    3.4292    3.3258 N   0  0  0  0  0  0  0  0  0  0  0  0
    4.5706    2.5616    2.5535 C   0  0  0  0  0  0  0  0  0  0  0  0
    3.4310    1.9795    3.0694 C   0  0  0  0  0  0  0  0  0  0  0  0
    2.6725    1.0517    2.3441 C   0  0  0  0  0  0  0  0  0  0  0  0
    1.4826    0.5425    2.8150 O   0  0  0  0  0  0  0  0  0  0  0  0
    0.8555    1.3585    3.8232 C   0  0  0  0  0  0  0  0  0  0  0  0
   -0.5771    1.0394    4.0410 C   0  0  0  0  0  0  0  0  0  0  0  0
   -1.5603    1.7107    3.4238 N   0  0  0  0  0  0  0  0  0  0  0  0
   -2.7151    1.1824    3.9958 O   0  0  0  0  0  0  0  0  0  0  0  0
   -2.3062    0.2594    4.9153 C   0  0  0  0  0  0  0  0  0  0  0  0
   -3.3904   -0.4597    5.6541 C   0  0  3  0  0  0  0  0  0  0  0  0
   -3.2577   -1.9752    5.4421 C   0  0  0  0  0  0  0  0  0  0  0  0
   -3.0081   -2.5658    6.8240 C   0  0  0  0  0  0  0  0  0  0  0  0
   -2.6069   -1.3829    7.6832 C   0  0  0  0  0  0  0  0  0  0  0  0
   -3.4146   -0.3015    7.1263 N   0  0  0  0  0  0  0  0  0  0  0  0
   -3.0175    1.0073    7.6239 C   0  0  0  0  0  0  0  0  0  0  0  0
   -0.9977    0.1470    4.9965 N   0  0  0  0  0  0  0  0  0  0  0  0
    2.9209   -2.2751   -0.2654 H   0  0  0  0  0  0  0  0  0  0  0  0
    4.3431   -1.2572   -0.0853 H   0  0  0  0  0  0  0  0  0  0  0  0
    3.1698   -0.9379   -1.4061 H   0  0  0  0  0  0  0  0  0  0  0  0
    4.5860    0.9730   -0.4622 H   0  0  0  0  0  0  0  0  0  0  0  0
    5.9668    2.8128   -1.1794 H   0  0  0  0  0  0  0  0  0  0  0  0
    8.8507    1.9378    0.8943 H   0  0  0  0  0  0  0  0  0  0  0  0
   11.1428    2.6731    0.4158 H   0  0  0  0  0  0  0  0  0  0  0  0
    7.4424    3.9025   -2.6685 H   0  0  0  0  0  0  0  0  0  0  0  0
    6.8698    4.6686    3.4357 H   0  0  0  0  0  0  0  0  0  0  0  0
    3.1593    2.2753    4.0777 H   0  0  0  0  0  0  0  0  0  0  0  0
    0.9169    2.4209    3.5473 H   0  0  0  0  0  0  0  0  0  0  0  0
    1.3816    1.2074    4.7745 H   0  0  0  0  0  0  0  0  0  0  0  0
   -4.3580   -0.1246    5.2610 H   0  0  0  0  0  0  0  0  0  0  0  0
   -2.4335   -2.2392    4.7680 H   0  0  0  0  0  0  0  0  0  0  0  0
   -4.1751   -2.3964    5.0159 H   0  0  0  0  0  0  0  0  0  0  0  0
   -2.2365   -3.3416    6.8052 H   0  0  0  0  0  0  0  0  0  0  0  0
   -3.9327   -3.0191    7.2016 H   0  0  0  0  0  0  0  0  0  0  0  0
   -1.5319   -1.1883    7.5876 H   0  0  0  0  0  0  0  0  0  0  0  0
   -2.8389   -1.5633    8.7379 H   0  0  0  0  0  0  0  0  0  0  0  0
   -3.2447    1.0846    8.6929 H   0  0  0  0  0  0  0  0  0  0  0  0
   -3.5783    1.8043    7.1237 H   0  0  0  0  0  0  0  0  0  0  0  0
   -1.9468    1.2049    7.4981 H   0  0  0  0  0  0  0  0  0  0  0  0
  1  2  1  0  0  0  0
  1 35  1  0  0  0  0
  1 36  1  0  0  0  0
  1 37  1  0  0  0  0
  2  3  1  0  0  0  0
  3  4  1  0  0  0  0
  3 21  2  0  0  0  0
  4  5  2  0  0  0  0
  4 38  1  0  0  0  0
  5  6  1  0  0  0  0
  5 19  1  0  0  0  0
  6  7  1  0  0  0  0
  6 16  2  0  0  0  0
  7  8  1  0  0  0  0
  7 39  1  0  0  0  0
  8  9  1  0  0  0  0
  8 15  2  0  0  0  0
  9 10  2  0  0  0  0
  9 40  1  0  0  0  0
 10 11  1  0  0  0  0
 10 41  1  0  0  0  0
 11 12  1  0  0  0  0
 11 13  2  0  0  0  0
 13 14  1  0  0  0  0
 13 15  1  0  0  0  0
 15 42  1  0  0  0  0
 16 17  1  0  0  0  0
 17 18  2  0  0  0  0
 17 43  1  0  0  0  0
 18 19  1  0  0  0  0
 19 20  2  0  0  0  0
 20 21  1  0  0  0  0
 20 44  1  0  0  0  0
 21 22  1  0  0  0  0
 22 23  1  0  0  0  0
 23 24  1  0  0  0  0
 23 45  1  0  0  0  0
 23 46  1  0  0  0  0
 24 25  2  0  0  0  0
 24 34  1  0  0  0  0
 25 26  1  0  0  0  0
 26 27  1  0  0  0  0
 27 28  1  0  0  0  0
 27 34  2  0  0  0  0
 28 29  1  0  0  0  0
 28 32  1  0  0  0  0
 28 47  1  0  0  0  0
 29 30  1  0  0  0  0
 29 48  1  0  0  0  0
 29 49  1  0  0  0  0
 30 31  1  0  0  0  0
 30 50  1  0  0  0  0
 30 51  1  0  0  0  0
 31 32  1  0  0  0  0
 31 52  1  0  0  0  0
 31 53  1  0  0  0  0
 32 33  1  0  0  0  0
 33 54  1  0  0  0  0
 33 55  1  0  0  0  0
 33 56  1  0  0  0  0
M  END
$$$$
