CHEMBL49120
 OpenBabel04072215383D

 62 65  0  0  0  0  0  0  0  0999 V2000
    1.1700    0.5480   -0.0427 C   0  0  0  0  0  0  0  0  0  0  0  0
    2.6471    0.1661   -0.0787 C   0  0  0  0  0  0  0  0  0  0  0  0
    3.0829   -0.5467   -1.2955 N   0  0  0  0  0  0  0  0  0  0  0  0
    2.7701    0.1684   -2.5437 C   0  0  0  0  0  0  0  0  0  0  0  0
    3.5175    1.4782   -2.7751 C   0  0  0  0  0  0  0  0  0  0  0  0
    4.5125   -0.9104   -1.1516 C   0  0  0  0  0  0  0  0  0  0  0  0
    5.1111   -1.7170   -2.3130 C   0  0  0  0  0  0  0  0  0  0  0  0
    6.4889   -1.9993   -2.0275 O   0  0  0  0  0  0  0  0  0  0  0  0
    7.1484   -2.6961   -3.0054 C   0  0  0  0  0  0  0  0  0  0  0  0
    6.8186   -2.6737   -4.3583 C   0  0  0  0  0  0  0  0  0  0  0  0
    7.5547   -3.4269   -5.2734 C   0  0  0  0  0  0  0  0  0  0  0  0
    8.6551   -4.1897   -4.8649 C   0  0  0  0  0  0  0  0  0  0  0  0
    9.3930   -4.9790   -5.7692 N   0  0  0  0  0  0  0  0  0  0  0  0
    9.5833   -4.6714   -7.1220 C   0  0  0  0  0  0  0  0  0  0  0  0
    9.6991   -5.6957   -7.9788 N   0  0  0  0  0  0  0  0  0  0  0  0
    9.8155   -5.3802   -9.2855 C   0  0  0  0  0  0  0  0  0  0  0  0
    9.8002   -4.0896   -9.7689 C   0  0  0  0  0  0  0  0  0  0  0  0
    9.8889   -3.7529  -11.1800 C   0  0  0  0  0  0  0  0  0  0  0  0
    9.8066   -2.4673  -11.5572 C   0  0  0  0  0  0  0  0  0  0  0  0
    9.9169   -2.1088  -12.9844 C   0  0  0  0  0  0  0  0  0  0  0  0
    8.7837   -2.0700  -13.8182 C   0  0  0  0  0  0  0  0  0  0  0  0
    7.2056   -2.4827  -13.2338 Cl  0  0  0  0  0  0  0  0  0  0  0  0
    8.8957   -1.7004  -15.1606 C   0  0  0  0  0  0  0  0  0  0  0  0
   10.1353   -1.3497  -15.6931 C   0  0  0  0  0  0  0  0  0  0  0  0
   11.2688   -1.3849  -14.8828 C   0  0  0  0  0  0  0  0  0  0  0  0
   11.1630   -1.7689  -13.5421 C   0  0  0  0  0  0  0  0  0  0  0  0
   12.6263   -1.8258  -12.6151 Cl  0  0  0  0  0  0  0  0  0  0  0  0
    9.6298   -1.3723  -10.5414 C   0  0  0  0  0  0  0  0  0  0  0  0
    9.5021   -0.2089  -10.9196 O   0  0  0  0  0  0  0  0  0  0  0  0
    9.6277   -1.7515   -9.2119 N   0  0  0  0  0  0  0  0  0  0  0  0
    9.5136   -0.7473   -8.1614 C   0  0  0  0  0  0  0  0  0  0  0  0
    9.6895   -3.1056   -8.8106 C   0  0  0  0  0  0  0  0  0  0  0  0
    9.6039   -3.3889   -7.4986 N   0  0  0  0  0  0  0  0  0  0  0  0
    8.9742   -4.2165   -3.5049 C   0  0  0  0  0  0  0  0  0  0  0  0
    8.2421   -3.4545   -2.5853 C   0  0  0  0  0  0  0  0  0  0  0  0
    0.8899    0.8385    0.9758 H   0  0  0  0  0  0  0  0  0  0  0  0
    0.5284   -0.2876   -0.3396 H   0  0  0  0  0  0  0  0  0  0  0  0
    0.9588    1.4025   -0.6936 H   0  0  0  0  0  0  0  0  0  0  0  0
    2.8261   -0.4880    0.7835 H   0  0  0  0  0  0  0  0  0  0  0  0
    3.2474    1.0690    0.0848 H   0  0  0  0  0  0  0  0  0  0  0  0
    1.6921    0.3594   -2.5964 H   0  0  0  0  0  0  0  0  0  0  0  0
    2.9491   -0.4952   -3.3993 H   0  0  0  0  0  0  0  0  0  0  0  0
    3.5138    2.1193   -1.8897 H   0  0  0  0  0  0  0  0  0  0  0  0
    3.0396    2.0390   -3.5851 H   0  0  0  0  0  0  0  0  0  0  0  0
    4.5573    1.2983   -3.0651 H   0  0  0  0  0  0  0  0  0  0  0  0
    4.6369   -1.5130   -0.2416 H   0  0  0  0  0  0  0  0  0  0  0  0
    5.1266   -0.0137   -0.9945 H   0  0  0  0  0  0  0  0  0  0  0  0
    5.0416   -1.1151   -3.2214 H   0  0  0  0  0  0  0  0  0  0  0  0
    4.5640   -2.6596   -2.4381 H   0  0  0  0  0  0  0  0  0  0  0  0
    6.0072   -2.0716   -4.7501 H   0  0  0  0  0  0  0  0  0  0  0  0
    7.2589   -3.3943   -6.3186 H   0  0  0  0  0  0  0  0  0  0  0  0
    9.1529   -5.9641   -5.7182 H   0  0  0  0  0  0  0  0  0  0  0  0
    9.9118   -6.2337   -9.9501 H   0  0  0  0  0  0  0  0  0  0  0  0
   10.0238   -4.5556  -11.8978 H   0  0  0  0  0  0  0  0  0  0  0  0
    8.0140   -1.6748  -15.8006 H   0  0  0  0  0  0  0  0  0  0  0  0
   10.2182   -1.0468  -16.7330 H   0  0  0  0  0  0  0  0  0  0  0  0
   12.2346   -1.1101  -15.3008 H   0  0  0  0  0  0  0  0  0  0  0  0
    9.5282    0.2662   -8.5713 H   0  0  0  0  0  0  0  0  0  0  0  0
   10.3568   -0.8451   -7.4695 H   0  0  0  0  0  0  0  0  0  0  0  0
    8.5707   -0.8876   -7.6232 H   0  0  0  0  0  0  0  0  0  0  0  0
    9.8206   -4.8034   -3.1568 H   0  0  0  0  0  0  0  0  0  0  0  0
    8.5251   -3.4602   -1.5360 H   0  0  0  0  0  0  0  0  0  0  0  0
  1  2  1  0  0  0  0
  1 36  1  0  0  0  0
  1 37  1  0  0  0  0
  1 38  1  0  0  0  0
  2  3  1  0  0  0  0
  2 39  1  0  0  0  0
  2 40  1  0  0  0  0
  3  4  1  0  0  0  0
  3  6  1  0  0  0  0
  4  5  1  0  0  0  0
  4 41  1  0  0  0  0
  4 42  1  0  0  0  0
  5 43  1  0  0  0  0
  5 44  1  0  0  0  0
  5 45  1  0  0  0  0
  6  7  1  0  0  0  0
  6 46  1  0  0  0  0
  6 47  1  0  0  0  0
  7  8  1  0  0  0  0
  7 48  1  0  0  0  0
  7 49  1  0  0  0  0
  8  9  1  0  0  0  0
  9 10  1  0  0  0  0
  9 35  2  0  0  0  0
 10 11  2  0  0  0  0
 10 50  1  0  0  0  0
 11 12  1  0  0  0  0
 11 51  1  0  0  0  0
 12 13  1  0  0  0  0
 12 34  2  0  0  0  0
 13 14  1  0  0  0  0
 13 52  1  0  0  0  0
 14 15  1  0  0  0  0
 14 33  2  0  0  0  0
 15 16  2  0  0  0  0
 16 17  1  0  0  0  0
 16 53  1  0  0  0  0
 17 18  1  0  0  0  0
 17 32  2  0  0  0  0
 18 19  2  0  0  0  0
 18 54  1  0  0  0  0
 19 20  1  0  0  0  0
 19 28  1  0  0  0  0
 20 21  1  0  0  0  0
 20 26  2  0  0  0  0
 21 22  1  0  0  0  0
 21 23  2  0  0  0  0
 23 24  1  0  0  0  0
 23 55  1  0  0  0  0
 24 25  2  0  0  0  0
 24 56  1  0  0  0  0
 25 26  1  0  0  0  0
 25 57  1  0  0  0  0
 26 27  1  0  0  0  0
 28 29  2  0  0  0  0
 28 30  1  0  0  0  0
 30 31  1  0  0  0  0
 30 32  1  0  0  0  0
 31 58  1  0  0  0  0
 31 59  1  0  0  0  0
 31 60  1  0  0  0  0
 32 33  1  0  0  0  0
 34 35  1  0  0  0  0
 34 61  1  0  0  0  0
 35 62  1  0  0  0  0
M  END
$$$$
