CHEMBL396494
 OpenBabel04072215373D

 43 46  0  0  0  0  0  0  0  0999 V2000
   -3.1074    0.5567   -0.2715 N   0  0  0  0  0  0  0  0  0  0  0  0
   -1.9624    0.4430   -0.4104 C   0  0  0  0  0  0  0  0  0  0  0  0
   -0.5588    0.3016   -0.5761 C   0  0  0  0  0  0  0  0  0  0  0  0
   -0.0384   -0.9202   -1.0108 C   0  0  0  0  0  0  0  0  0  0  0  0
    1.3291   -1.0594   -1.1680 C   0  0  0  0  0  0  0  0  0  0  0  0
    2.1696    0.0180   -0.8896 C   0  0  0  0  0  0  0  0  0  0  0  0
    1.6723    1.2516   -0.4464 C   0  0  0  0  0  0  0  0  0  0  0  0
    2.4981    2.3701   -0.1494 N   0  0  0  0  0  0  0  0  0  0  0  0
    3.8795    2.3494   -0.1700 C   0  0  0  0  0  0  0  0  0  0  0  0
    4.5381    1.3430   -0.4004 O   0  0  0  0  0  0  0  0  0  0  0  0
    4.4581    3.5869    0.0859 N   0  0  0  0  0  0  0  0  0  0  0  0
    5.8572    3.8052   -0.0270 C   0  0  0  0  0  0  0  0  0  0  0  0
    6.6760    2.9679   -0.7876 C   0  0  0  0  0  0  0  0  0  0  0  0
    8.0640    3.0675   -0.7332 C   0  0  0  0  0  0  0  0  0  0  0  0
    8.6819    4.0780    0.0071 C   0  0  0  0  0  0  0  0  0  0  0  0
   10.1497    4.0995    0.1291 C   0  0  0  0  0  0  0  0  0  0  0  0
   10.9166    3.6774   -0.9448 C   0  0  0  0  0  0  0  0  0  0  0  0
   12.5820    3.6875   -0.6383 S   0  0  0  0  0  0  0  0  0  0  0  0
   12.3501    4.2798    0.9558 C   0  0  0  0  0  0  0  0  0  0  0  0
   13.3772    4.5565    1.8636 C   0  0  0  0  0  0  0  0  0  0  0  0
   12.9854    5.0244    3.0940 C   0  0  0  0  0  0  0  0  0  0  0  0
   11.7070    5.1937    3.4599 N   0  0  0  0  0  0  0  0  0  0  0  0
   10.7074    4.9054    2.5971 C   0  0  0  0  0  0  0  0  0  0  0  0
    9.4384    5.0631    3.1434 N   0  0  0  0  0  0  0  0  0  0  0  0
   10.9940    4.4543    1.2766 C   0  0  0  0  0  0  0  0  0  0  0  0
    7.8534    5.0259    0.6213 C   0  0  0  0  0  0  0  0  0  0  0  0
    6.4543    4.8702    0.6453 C   0  0  0  0  0  0  0  0  0  0  0  0
    0.2949    1.3910   -0.2995 C   0  0  0  0  0  0  0  0  0  0  0  0
   -0.6917   -1.7610   -1.2253 H   0  0  0  0  0  0  0  0  0  0  0  0
    1.7575   -2.0003   -1.5071 H   0  0  0  0  0  0  0  0  0  0  0  0
    3.2261   -0.1621   -1.0467 H   0  0  0  0  0  0  0  0  0  0  0  0
    2.0454    3.2373    0.0958 H   0  0  0  0  0  0  0  0  0  0  0  0
    3.9356    4.2377    0.6495 H   0  0  0  0  0  0  0  0  0  0  0  0
    6.2673    2.1844   -1.4185 H   0  0  0  0  0  0  0  0  0  0  0  0
    8.6360    2.3133   -1.2673 H   0  0  0  0  0  0  0  0  0  0  0  0
   10.5812    3.3434   -1.9176 H   0  0  0  0  0  0  0  0  0  0  0  0
   14.4213    4.4152    1.6121 H   0  0  0  0  0  0  0  0  0  0  0  0
   13.7202    5.2763    3.8535 H   0  0  0  0  0  0  0  0  0  0  0  0
    9.5374    5.1945    4.1446 H   0  0  0  0  0  0  0  0  0  0  0  0
    8.8027    4.3223    2.8748 H   0  0  0  0  0  0  0  0  0  0  0  0
    8.2855    5.8843    1.1314 H   0  0  0  0  0  0  0  0  0  0  0  0
    5.8637    5.5732    1.2262 H   0  0  0  0  0  0  0  0  0  0  0  0
   -0.1432    2.3292    0.0394 H   0  0  0  0  0  0  0  0  0  0  0  0
  1  2  3  0  0  0  0
  2  3  1  0  0  0  0
  3  4  1  0  0  0  0
  3 28  2  0  0  0  0
  4  5  2  0  0  0  0
  4 29  1  0  0  0  0
  5  6  1  0  0  0  0
  5 30  1  0  0  0  0
  6  7  2  0  0  0  0
  6 31  1  0  0  0  0
  7  8  1  0  0  0  0
  7 28  1  0  0  0  0
  8  9  1  0  0  0  0
  8 32  1  0  0  0  0
  9 10  2  0  0  0  0
  9 11  1  0  0  0  0
 11 12  1  0  0  0  0
 11 33  1  0  0  0  0
 12 13  1  0  0  0  0
 12 27  2  0  0  0  0
 13 14  2  0  0  0  0
 13 34  1  0  0  0  0
 14 15  1  0  0  0  0
 14 35  1  0  0  0  0
 15 16  1  0  0  0  0
 15 26  2  0  0  0  0
 16 17  2  0  0  0  0
 16 25  1  0  0  0  0
 17 18  1  0  0  0  0
 17 36  1  0  0  0  0
 18 19  1  0  0  0  0
 19 20  1  0  0  0  0
 19 25  2  0  0  0  0
 20 21  2  0  0  0  0
 20 37  1  0  0  0  0
 21 22  1  0  0  0  0
 21 38  1  0  0  0  0
 22 23  2  0  0  0  0
 23 24  1  0  0  0  0
 23 25  1  0  0  0  0
 24 39  1  0  0  0  0
 24 40  1  0  0  0  0
 26 27  1  0  0  0  0
 26 41  1  0  0  0  0
 27 42  1  0  0  0  0
 28 43  1  0  0  0  0
M  END
$$$$
