CHEMBL1254096
 OpenBabel04072215363D

 49 53  0  0  0  0  0  0  0  0999 V2000
    1.1458    0.7338   -0.5275 O   0  0  0  0  0  0  0  0  0  0  0  0
    2.2336    0.2501   -0.2202 C   0  0  0  0  0  0  0  0  0  0  0  0
    2.7547   -0.8877   -0.8101 N   0  0  0  0  0  0  0  0  0  0  0  0
    2.0799   -1.6641   -1.7865 C   0  0  0  0  0  0  0  0  0  0  0  0
    1.0145   -1.1683   -2.5388 C   0  0  0  0  0  0  0  0  0  0  0  0
    0.3144   -1.9929   -3.4196 C   0  0  0  0  0  0  0  0  0  0  0  0
    0.6448   -3.3450   -3.5717 C   0  0  0  0  0  0  0  0  0  0  0  0
   -0.1296   -4.1953   -4.3704 N   0  0  0  0  0  0  0  0  0  0  0  0
   -0.8347   -3.6433   -5.5609 C   0  0  0  0  0  0  0  0  0  0  0  0
   -2.3703   -3.8091   -5.5198 C   0  0  0  0  0  0  0  0  0  0  0  0
   -2.7127   -5.1685   -5.1452 N   0  0  0  0  0  0  0  0  0  0  0  0
   -3.8473   -5.8952   -5.3349 C   0  0  0  0  0  0  0  0  0  0  0  0
   -3.6513   -7.1182   -4.7035 C   0  0  0  0  0  0  0  0  0  0  0  0
   -2.3582   -7.1068   -4.1153 C   0  0  0  0  0  0  0  0  0  0  0  0
   -1.6915   -8.0113   -3.3697 N   0  0  0  0  0  0  0  0  0  0  0  0
   -0.4852   -7.5576   -2.9665 C   0  0  0  0  0  0  0  0  0  0  0  0
    0.1048   -6.3671   -3.2262 N   0  0  0  0  0  0  0  0  0  0  0  0
   -0.5540   -5.4920   -4.0152 C   0  0  0  0  0  0  0  0  0  0  0  0
   -1.8058   -5.8929   -4.4319 C   0  0  0  0  0  0  0  0  0  0  0  0
    1.7353   -3.8245   -2.8362 C   0  0  0  0  0  0  0  0  0  0  0  0
    2.4619   -2.9943   -1.9729 C   0  0  0  0  0  0  0  0  0  0  0  0
    3.0449    0.7607    0.7666 N   0  0  0  0  0  0  0  0  0  0  0  0
    2.7458    1.8416    1.6234 C   0  0  0  0  0  0  0  0  0  0  0  0
    1.5576    2.5718    1.5665 C   0  0  0  0  0  0  0  0  0  0  0  0
    1.3290    3.6324    2.4416 C   0  0  0  0  0  0  0  0  0  0  0  0
    2.2844    3.9599    3.3977 C   0  0  0  0  0  0  0  0  0  0  0  0
    3.4692    3.2159    3.5012 C   0  0  0  0  0  0  0  0  0  0  0  0
    4.4738    3.5260    4.5826 C   0  0  0  0  0  0  0  0  0  0  0  0
    4.0988    4.5641    5.3810 F   0  0  0  0  0  0  0  0  0  0  0  0
    4.6835    2.4706    5.4184 F   0  0  0  0  0  0  0  0  0  0  0  0
    5.6990    3.8574    4.0896 F   0  0  0  0  0  0  0  0  0  0  0  0
    3.6950    2.1653    2.5947 C   0  0  0  0  0  0  0  0  0  0  0  0
    3.4641   -1.3755   -0.2896 H   0  0  0  0  0  0  0  0  0  0  0  0
    0.6854   -0.1393   -2.4423 H   0  0  0  0  0  0  0  0  0  0  0  0
   -0.5352   -1.5604   -3.9388 H   0  0  0  0  0  0  0  0  0  0  0  0
   -0.4490   -4.1746   -6.4417 H   0  0  0  0  0  0  0  0  0  0  0  0
   -0.5865   -2.5919   -5.7431 H   0  0  0  0  0  0  0  0  0  0  0  0
   -2.8083   -3.6041   -6.5012 H   0  0  0  0  0  0  0  0  0  0  0  0
   -2.8194   -3.1484   -4.7703 H   0  0  0  0  0  0  0  0  0  0  0  0
   -4.6990   -5.5027   -5.8751 H   0  0  0  0  0  0  0  0  0  0  0  0
   -4.3674   -7.9267   -4.6514 H   0  0  0  0  0  0  0  0  0  0  0  0
    0.0924   -8.2387   -2.3484 H   0  0  0  0  0  0  0  0  0  0  0  0
    2.0231   -4.8716   -2.9260 H   0  0  0  0  0  0  0  0  0  0  0  0
    3.2955   -3.4235   -1.4264 H   0  0  0  0  0  0  0  0  0  0  0  0
    3.9077    0.2767    0.9071 H   0  0  0  0  0  0  0  0  0  0  0  0
    0.7634    2.3207    0.8709 H   0  0  0  0  0  0  0  0  0  0  0  0
    0.3919    4.1828    2.3870 H   0  0  0  0  0  0  0  0  0  0  0  0
    2.0900    4.7896    4.0745 H   0  0  0  0  0  0  0  0  0  0  0  0
    4.6169    1.5901    2.6763 H   0  0  0  0  0  0  0  0  0  0  0  0
  1  2  2  0  0  0  0
  2  3  1  0  0  0  0
  2 22  1  0  0  0  0
  3  4  1  0  0  0  0
  3 33  1  0  0  0  0
  4  5  1  0  0  0  0
  4 21  2  0  0  0  0
  5  6  2  0  0  0  0
  5 34  1  0  0  0  0
  6  7  1  0  0  0  0
  6 35  1  0  0  0  0
  7  8  1  0  0  0  0
  7 20  2  0  0  0  0
  8  9  1  0  0  0  0
  8 18  1  0  0  0  0
  9 10  1  0  0  0  0
  9 36  1  0  0  0  0
  9 37  1  0  0  0  0
 10 11  1  0  0  0  0
 10 38  1  0  0  0  0
 10 39  1  0  0  0  0
 11 12  1  0  0  0  0
 11 19  1  0  0  0  0
 12 13  2  0  0  0  0
 12 40  1  0  0  0  0
 13 14  1  0  0  0  0
 13 41  1  0  0  0  0
 14 15  1  0  0  0  0
 14 19  2  0  0  0  0
 15 16  2  0  0  0  0
 16 17  1  0  0  0  0
 16 42  1  0  0  0  0
 17 18  2  0  0  0  0
 18 19  1  0  0  0  0
 20 21  1  0  0  0  0
 20 43  1  0  0  0  0
 21 44  1  0  0  0  0
 22 23  1  0  0  0  0
 22 45  1  0  0  0  0
 23 24  1  0  0  0  0
 23 32  2  0  0  0  0
 24 25  2  0  0  0  0
 24 46  1  0  0  0  0
 25 26  1  0  0  0  0
 25 47  1  0  0  0  0
 26 27  2  0  0  0  0
 26 48  1  0  0  0  0
 27 28  1  0  0  0  0
 27 32  1  0  0  0  0
 28 29  1  0  0  0  0
 28 30  1  0  0  0  0
 28 31  1  0  0  0  0
 32 49  1  0  0  0  0
M  END
$$$$
