CHEMBL390353
 OpenBabel04072215373D

 66 71  0  0  0  0  0  0  0  0999 V2000
    2.4883    0.0553    0.0061 C   0  0  0  0  0  0  0  0  0  0  0  0
    1.0881    0.0452   -0.3999 N   0  0  0  0  0  0  0  0  0  0  0  0
    0.4108   -1.1852    0.0429 C   0  0  0  0  0  0  0  0  0  0  0  0
   -1.0725   -1.1900   -0.3891 C   0  0  0  0  0  0  0  0  0  0  0  0
   -1.8594   -0.0408    0.1042 N   0  0  0  0  0  0  0  0  0  0  0  0
   -2.1020   -0.0644    1.5572 C   0  0  0  0  0  0  0  0  0  0  0  0
   -2.9014   -1.2785    2.0793 C   0  0  0  0  0  0  0  0  0  0  0  0
   -3.1257   -1.2754    3.5821 C   0  0  0  0  0  0  0  0  0  0  0  0
   -3.2051   -2.5142    4.2721 C   0  0  0  0  0  0  0  0  0  0  0  0
   -3.3986   -2.5805    5.6591 C   0  0  0  0  0  0  0  0  0  0  0  0
   -3.5156   -1.3893    6.3334 C   0  0  0  0  0  0  0  0  0  0  0  0
   -3.4667   -0.1384    5.6654 C   0  0  0  0  0  0  0  0  0  0  0  0
   -3.2890   -0.0785    4.2956 C   0  0  0  0  0  0  0  0  0  0  0  0
   -3.6228    1.0686    6.6016 C   0  0  0  0  0  0  0  0  0  0  0  0
   -3.7712    0.3018    7.8641 C   0  0  0  0  0  0  0  0  0  0  0  0
   -4.0019    0.4938    9.2274 C   0  0  0  0  0  0  0  0  0  0  0  0
   -4.1705    1.8034    9.8619 C   0  0  0  0  0  0  0  0  0  0  0  0
   -3.6489    2.9939    9.3989 C   0  0  0  0  0  0  0  0  0  0  0  0
   -4.0997    4.3224   10.3743 S   0  0  0  0  0  0  0  0  0  0  0  0
   -4.9865    3.3160   11.4301 C   0  0  0  0  0  0  0  0  0  0  0  0
   -5.6912    3.8231   12.5561 C   0  0  0  0  0  0  0  0  0  0  0  0
   -6.3225    4.3157   13.5851 C   0  0  0  0  0  0  0  0  0  0  0  0
   -7.0585    4.8900   14.7846 C   0  0  0  0  0  0  0  0  0  0  0  0
   -6.1403    5.2232   15.8180 O   0  0  0  0  0  0  0  0  0  0  0  0
   -6.6998    5.7526   16.9522 C   0  0  0  0  0  0  0  0  0  0  0  0
   -8.0616    5.9919   17.1603 C   0  0  0  0  0  0  0  0  0  0  0  0
   -8.5055    6.5438   18.3642 C   0  0  0  0  0  0  0  0  0  0  0  0
   -7.5905    6.8585   19.3689 C   0  0  0  0  0  0  0  0  0  0  0  0
   -6.2346    6.6188   19.1702 C   0  0  0  0  0  0  0  0  0  0  0  0
   -5.7904    6.0684   17.9659 C   0  0  0  0  0  0  0  0  0  0  0  0
   -4.9322    1.9912   11.0548 C   0  0  0  0  0  0  0  0  0  0  0  0
   -4.0885   -0.6851    9.8766 N   0  0  0  0  0  0  0  0  0  0  0  0
   -3.8856   -1.6211    8.9077 N   0  0  0  0  0  0  0  0  0  0  0  0
   -3.7091   -1.0538    7.7001 C   0  0  0  0  0  0  0  0  0  0  0  0
   -1.1369    1.2017   -0.2740 C   0  0  0  0  0  0  0  0  0  0  0  0
    0.3682    1.2281    0.1037 C   0  0  0  0  0  0  0  0  0  0  0  0
    3.0133   -0.8097   -0.4147 H   0  0  0  0  0  0  0  0  0  0  0  0
    2.6080    0.0350    1.0949 H   0  0  0  0  0  0  0  0  0  0  0  0
    2.9926    0.9469   -0.3822 H   0  0  0  0  0  0  0  0  0  0  0  0
    0.4833   -1.3027    1.1322 H   0  0  0  0  0  0  0  0  0  0  0  0
    0.9000   -2.0563   -0.4084 H   0  0  0  0  0  0  0  0  0  0  0  0
   -1.5397   -2.1392   -0.1094 H   0  0  0  0  0  0  0  0  0  0  0  0
   -1.1143   -1.1764   -1.4870 H   0  0  0  0  0  0  0  0  0  0  0  0
   -2.6829    0.8381    1.7821 H   0  0  0  0  0  0  0  0  0  0  0  0
   -1.1676    0.0164    2.1254 H   0  0  0  0  0  0  0  0  0  0  0  0
   -2.3562   -2.1969    1.8354 H   0  0  0  0  0  0  0  0  0  0  0  0
   -3.8769   -1.3298    1.5814 H   0  0  0  0  0  0  0  0  0  0  0  0
   -3.1096   -3.4457    3.7154 H   0  0  0  0  0  0  0  0  0  0  0  0
   -3.4506   -3.5357    6.1672 H   0  0  0  0  0  0  0  0  0  0  0  0
   -3.2754    0.8913    3.8111 H   0  0  0  0  0  0  0  0  0  0  0  0
   -4.5187    1.6436    6.3555 H   0  0  0  0  0  0  0  0  0  0  0  0
   -2.7188    1.6820    6.5896 H   0  0  0  0  0  0  0  0  0  0  0  0
   -3.0205    3.1633    8.5375 H   0  0  0  0  0  0  0  0  0  0  0  0
   -7.7664    4.1276   15.1325 H   0  0  0  0  0  0  0  0  0  0  0  0
   -7.5980    5.7825   14.4449 H   0  0  0  0  0  0  0  0  0  0  0  0
   -8.8112    5.7636   16.4097 H   0  0  0  0  0  0  0  0  0  0  0  0
   -9.5655    6.7283   18.5166 H   0  0  0  0  0  0  0  0  0  0  0  0
   -7.9402    7.2881   20.3035 H   0  0  0  0  0  0  0  0  0  0  0  0
   -5.5183    6.8604   19.9514 H   0  0  0  0  0  0  0  0  0  0  0  0
   -4.7303    5.8836   17.8149 H   0  0  0  0  0  0  0  0  0  0  0  0
   -5.4292    1.1915   11.5921 H   0  0  0  0  0  0  0  0  0  0  0  0
   -3.8976   -2.6021    9.1653 H   0  0  0  0  0  0  0  0  0  0  0  0
   -1.6366    2.0780    0.1587 H   0  0  0  0  0  0  0  0  0  0  0  0
   -1.2249    1.3240   -1.3616 H   0  0  0  0  0  0  0  0  0  0  0  0
    0.4712    1.3066    1.1941 H   0  0  0  0  0  0  0  0  0  0  0  0
    0.8115    2.1350   -0.3249 H   0  0  0  0  0  0  0  0  0  0  0  0
  1  2  1  0  0  0  0
  1 37  1  0  0  0  0
  1 38  1  0  0  0  0
  1 39  1  0  0  0  0
  2  3  1  0  0  0  0
  2 36  1  0  0  0  0
  3  4  1  0  0  0  0
  3 40  1  0  0  0  0
  3 41  1  0  0  0  0
  4  5  1  0  0  0  0
  4 42  1  0  0  0  0
  4 43  1  0  0  0  0
  5  6  1  0  0  0  0
  5 35  1  0  0  0  0
  6  7  1  0  0  0  0
  6 44  1  0  0  0  0
  6 45  1  0  0  0  0
  7  8  1  0  0  0  0
  7 46  1  0  0  0  0
  7 47  1  0  0  0  0
  8  9  1  0  0  0  0
  8 13  2  0  0  0  0
  9 10  2  0  0  0  0
  9 48  1  0  0  0  0
 10 11  1  0  0  0  0
 10 49  1  0  0  0  0
 11 12  2  0  0  0  0
 11 34  1  0  0  0  0
 12 13  1  0  0  0  0
 12 14  1  0  0  0  0
 13 50  1  0  0  0  0
 14 15  1  0  0  0  0
 14 51  1  0  0  0  0
 14 52  1  0  0  0  0
 15 16  1  0  0  0  0
 15 34  2  0  0  0  0
 16 17  1  0  0  0  0
 16 32  2  0  0  0  0
 17 18  2  0  0  0  0
 17 31  1  0  0  0  0
 18 19  1  0  0  0  0
 18 53  1  0  0  0  0
 19 20  1  0  0  0  0
 20 21  1  0  0  0  0
 20 31  2  0  0  0  0
 21 22  3  0  0  0  0
 22 23  1  0  0  0  0
 23 24  1  0  0  0  0
 23 54  1  0  0  0  0
 23 55  1  0  0  0  0
 24 25  1  0  0  0  0
 25 26  1  0  0  0  0
 25 30  2  0  0  0  0
 26 27  2  0  0  0  0
 26 56  1  0  0  0  0
 27 28  1  0  0  0  0
 27 57  1  0  0  0  0
 28 29  2  0  0  0  0
 28 58  1  0  0  0  0
 29 30  1  0  0  0  0
 29 59  1  0  0  0  0
 30 60  1  0  0  0  0
 31 61  1  0  0  0  0
 32 33  1  0  0  0  0
 33 34  1  0  0  0  0
 33 62  1  0  0  0  0
 35 36  1  0  0  0  0
 35 63  1  0  0  0  0
 35 64  1  0  0  0  0
 36 65  1  0  0  0  0
 36 66  1  0  0  0  0
M  END
$$$$
