CHEMBL1762525
 OpenBabel04072215363D

 67 71  0  0  0  0  0  0  0  0999 V2000
    4.2701    2.2444   -1.7998 C   0  0  0  0  0  0  0  0  0  0  0  0
    5.2179    1.9258   -0.7872 O   0  0  0  0  0  0  0  0  0  0  0  0
    5.1233    0.6811   -0.2248 C   0  0  0  0  0  0  0  0  0  0  0  0
    4.1640   -0.2786   -0.5678 C   0  0  0  0  0  0  0  0  0  0  0  0
    4.1716   -1.5137    0.0717 C   0  0  0  0  0  0  0  0  0  0  0  0
    5.1540   -1.7979    1.0246 C   0  0  0  0  0  0  0  0  0  0  0  0
    6.1619   -0.8689    1.3649 C   0  0  0  0  0  0  0  0  0  0  0  0
    7.1772   -1.2548    2.2533 N   0  0  0  0  0  0  0  0  0  0  0  0
    7.8604   -0.2825    3.1067 C   0  0  0  0  0  0  0  0  0  0  0  0
    7.9046   -2.4781    2.1923 C   0  0  0  0  0  0  0  0  0  0  0  0
    8.1711   -3.0459    0.9586 C   0  0  0  0  0  0  0  0  0  0  0  0
    8.8280   -4.2407    0.9570 C   0  0  0  0  0  0  0  0  0  0  0  0
    9.2253   -4.8525    2.0783 N   0  0  0  0  0  0  0  0  0  0  0  0
    8.9351   -4.2531    3.2441 C   0  0  0  0  0  0  0  0  0  0  0  0
    9.2296   -4.9197    4.4288 N   0  0  0  0  0  0  0  0  0  0  0  0
   10.2508   -5.8423    4.6753 C   0  0  0  0  0  0  0  0  0  0  0  0
   11.4495   -5.8276    3.9595 C   0  0  0  0  0  0  0  0  0  0  0  0
   12.4604   -6.7684    4.1649 C   0  0  0  0  0  0  0  0  0  0  0  0
   13.6674   -6.7022    3.5083 N   0  0  0  0  0  0  0  0  0  0  0  0
   14.2750   -5.4221    3.1362 C   0  0  0  0  0  0  0  0  0  0  0  0
   14.4804   -5.3572    1.6200 C   0  0  0  0  0  0  0  0  0  0  0  0
   15.2178   -6.4949    1.1381 O   0  0  0  0  0  0  0  0  0  0  0  0
   14.5029   -7.7082    1.4342 C   0  0  0  0  0  0  0  0  0  0  0  0
   14.3023   -7.8983    2.9469 C   0  0  0  0  0  0  0  0  0  0  0  0
   12.2199   -7.7622    5.1152 C   0  0  0  0  0  0  0  0  0  0  0  0
   11.0562   -7.8050    5.8899 C   0  0  0  0  0  0  0  0  0  0  0  0
   10.9146   -8.7441    6.8870 N   0  0  0  0  0  0  0  0  0  0  0  0
    9.6072   -9.2648    7.2877 C   0  0  0  0  0  0  0  0  0  0  0  0
    9.3791   -9.0177    8.7821 C   0  0  0  0  0  0  0  0  0  0  0  0
   10.4517   -9.5571    9.5735 O   0  0  0  0  0  0  0  0  0  0  0  0
   11.6995   -8.9454    9.2081 C   0  0  0  0  0  0  0  0  0  0  0  0
   12.0415   -9.1781    7.7245 C   0  0  0  0  0  0  0  0  0  0  0  0
   10.0665   -6.8468    5.6261 C   0  0  0  0  0  0  0  0  0  0  0  0
    8.3042   -3.0729    3.3389 N   0  0  0  0  0  0  0  0  0  0  0  0
    6.0926    0.3853    0.7435 C   0  0  0  0  0  0  0  0  0  0  0  0
    4.5043    3.2436   -2.1759 H   0  0  0  0  0  0  0  0  0  0  0  0
    3.2540    2.2699   -1.3912 H   0  0  0  0  0  0  0  0  0  0  0  0
    4.3395    1.5487   -2.6435 H   0  0  0  0  0  0  0  0  0  0  0  0
    3.4015   -0.0950   -1.3152 H   0  0  0  0  0  0  0  0  0  0  0  0
    3.4173   -2.2561   -0.1709 H   0  0  0  0  0  0  0  0  0  0  0  0
    5.1198   -2.7647    1.5237 H   0  0  0  0  0  0  0  0  0  0  0  0
    7.3500    0.6849    3.1519 H   0  0  0  0  0  0  0  0  0  0  0  0
    8.8855   -0.1045    2.7541 H   0  0  0  0  0  0  0  0  0  0  0  0
    7.9156   -0.6431    4.1425 H   0  0  0  0  0  0  0  0  0  0  0  0
    7.8871   -2.5686    0.0302 H   0  0  0  0  0  0  0  0  0  0  0  0
    9.0455   -4.7768    0.0316 H   0  0  0  0  0  0  0  0  0  0  0  0
    8.7124   -4.5593    5.2119 H   0  0  0  0  0  0  0  0  0  0  0  0
   11.5951   -5.0439    3.2201 H   0  0  0  0  0  0  0  0  0  0  0  0
   15.2462   -5.3558    3.6406 H   0  0  0  0  0  0  0  0  0  0  0  0
   13.6954   -4.5564    3.4747 H   0  0  0  0  0  0  0  0  0  0  0  0
   15.0519   -4.4594    1.3675 H   0  0  0  0  0  0  0  0  0  0  0  0
   13.5204   -5.3050    1.0932 H   0  0  0  0  0  0  0  0  0  0  0  0
   15.0850   -8.5427    1.0315 H   0  0  0  0  0  0  0  0  0  0  0  0
   13.5396   -7.6880    0.9100 H   0  0  0  0  0  0  0  0  0  0  0  0
   15.2753   -8.0324    3.4335 H   0  0  0  0  0  0  0  0  0  0  0  0
   13.7155   -8.8083    3.1118 H   0  0  0  0  0  0  0  0  0  0  0  0
   12.9855   -8.5159    5.2791 H   0  0  0  0  0  0  0  0  0  0  0  0
    9.6111  -10.3402    7.0871 H   0  0  0  0  0  0  0  0  0  0  0  0
    8.7776   -8.8465    6.7100 H   0  0  0  0  0  0  0  0  0  0  0  0
    8.4526   -9.5097    9.0925 H   0  0  0  0  0  0  0  0  0  0  0  0
    9.2785   -7.9466    8.9973 H   0  0  0  0  0  0  0  0  0  0  0  0
   12.4801   -9.3801    9.8417 H   0  0  0  0  0  0  0  0  0  0  0  0
   11.6433   -7.8742    9.4328 H   0  0  0  0  0  0  0  0  0  0  0  0
   12.2046  -10.2458    7.5464 H   0  0  0  0  0  0  0  0  0  0  0  0
   12.9751   -8.6509    7.5005 H   0  0  0  0  0  0  0  0  0  0  0  0
    9.1358   -6.8531    6.1814 H   0  0  0  0  0  0  0  0  0  0  0  0
    6.8391    1.1484    0.9601 H   0  0  0  0  0  0  0  0  0  0  0  0
  1  2  1  0  0  0  0
  1 36  1  0  0  0  0
  1 37  1  0  0  0  0
  1 38  1  0  0  0  0
  2  3  1  0  0  0  0
  3  4  1  0  0  0  0
  3 35  2  0  0  0  0
  4  5  2  0  0  0  0
  4 39  1  0  0  0  0
  5  6  1  0  0  0  0
  5 40  1  0  0  0  0
  6  7  2  0  0  0  0
  6 41  1  0  0  0  0
  7  8  1  0  0  0  0
  7 35  1  0  0  0  0
  8  9  1  0  0  0  0
  8 10  1  0  0  0  0
  9 42  1  0  0  0  0
  9 43  1  0  0  0  0
  9 44  1  0  0  0  0
 10 11  1  0  0  0  0
 10 34  2  0  0  0  0
 11 12  2  0  0  0  0
 11 45  1  0  0  0  0
 12 13  1  0  0  0  0
 12 46  1  0  0  0  0
 13 14  2  0  0  0  0
 14 15  1  0  0  0  0
 14 34  1  0  0  0  0
 15 16  1  0  0  0  0
 15 47  1  0  0  0  0
 16 17  1  0  0  0  0
 16 33  2  0  0  0  0
 17 18  2  0  0  0  0
 17 48  1  0  0  0  0
 18 19  1  0  0  0  0
 18 25  1  0  0  0  0
 19 20  1  0  0  0  0
 19 24  1  0  0  0  0
 20 21  1  0  0  0  0
 20 49  1  0  0  0  0
 20 50  1  0  0  0  0
 21 22  1  0  0  0  0
 21 51  1  0  0  0  0
 21 52  1  0  0  0  0
 22 23  1  0  0  0  0
 23 24  1  0  0  0  0
 23 53  1  0  0  0  0
 23 54  1  0  0  0  0
 24 55  1  0  0  0  0
 24 56  1  0  0  0  0
 25 26  2  0  0  0  0
 25 57  1  0  0  0  0
 26 27  1  0  0  0  0
 26 33  1  0  0  0  0
 27 28  1  0  0  0  0
 27 32  1  0  0  0  0
 28 29  1  0  0  0  0
 28 58  1  0  0  0  0
 28 59  1  0  0  0  0
 29 30  1  0  0  0  0
 29 60  1  0  0  0  0
 29 61  1  0  0  0  0
 30 31  1  0  0  0  0
 31 32  1  0  0  0  0
 31 62  1  0  0  0  0
 31 63  1  0  0  0  0
 32 64  1  0  0  0  0
 32 65  1  0  0  0  0
 33 66  1  0  0  0  0
 35 67  1  0  0  0  0
M  END
$$$$
