CHEMBL3660279
 OpenBabel04072215373D

 52 55  0  0  0  0  0  0  0  0999 V2000
    1.2267    0.7377    0.0888 O   0  0  0  0  0  0  0  0  0  0  0  0
    2.3050    0.1489    0.0897 C   0  0  0  0  0  0  0  0  0  0  0  0
    2.8282   -0.5174   -1.0077 N   0  0  0  0  0  0  0  0  0  0  0  0
    2.1773   -0.6548   -2.2580 C   0  0  0  0  0  0  0  0  0  0  0  0
    1.0517    0.0918   -2.6125 C   0  0  0  0  0  0  0  0  0  0  0  0
    0.3691   -0.1542   -3.8018 C   0  0  0  0  0  0  0  0  0  0  0  0
    0.8613   -1.0859   -4.7110 C   0  0  0  0  0  0  0  0  0  0  0  0
    0.2670   -1.3642   -5.9219 O   0  0  0  0  0  0  0  0  0  0  0  0
   -0.4123   -0.3646   -6.5862 C   0  0  0  0  0  0  0  0  0  0  0  0
   -0.0146    0.9706   -6.5950 C   0  0  0  0  0  0  0  0  0  0  0  0
   -0.8034    1.8803   -7.2715 C   0  0  0  0  0  0  0  0  0  0  0  0
   -1.9039    1.5405   -7.9731 N   0  0  0  0  0  0  0  0  0  0  0  0
   -2.2363    0.2247   -8.0008 C   0  0  0  0  0  0  0  0  0  0  0  0
   -3.4076   -0.0622   -8.8212 C   0  0  0  0  0  0  0  0  0  0  0  0
   -4.0744   -1.2334   -9.1337 C   0  0  0  0  0  0  0  0  0  0  0  0
   -5.1536   -0.9271  -10.0187 C   0  0  0  0  0  0  0  0  0  0  0  0
   -6.1017   -1.8788  -10.5865 C   0  0  0  0  0  0  0  0  0  0  0  0
   -6.3355   -2.9713  -10.0907 O   0  0  0  0  0  0  0  0  0  0  0  0
   -6.6870   -1.4727  -11.7420 O   0  0  0  0  0  0  0  0  0  0  0  0
   -5.1259    0.4463  -10.1966 C   0  0  0  0  0  0  0  0  0  0  0  0
   -4.0807    0.9502   -9.4682 N   0  0  0  0  0  0  0  0  0  0  0  0
   -1.5251   -0.7553   -7.3252 C   0  0  0  0  0  0  0  0  0  0  0  0
    1.9960   -1.8283   -4.3798 C   0  0  0  0  0  0  0  0  0  0  0  0
    2.6560   -1.6112   -3.1612 C   0  0  0  0  0  0  0  0  0  0  0  0
    3.1200    0.0481    1.2021 N   0  0  0  0  0  0  0  0  0  0  0  0
    2.8073    0.5055    2.5052 C   0  0  0  0  0  0  0  0  0  0  0  0
    1.5932    1.1096    2.8493 C   0  0  0  0  0  0  0  0  0  0  0  0
    1.3441    1.5285    4.1572 C   0  0  0  0  0  0  0  0  0  0  0  0
    2.3036    1.3308    5.1376 C   0  0  0  0  0  0  0  0  0  0  0  0
    2.0317    1.7371    6.3836 F   0  0  0  0  0  0  0  0  0  0  0  0
    3.5156    0.7173    4.8392 C   0  0  0  0  0  0  0  0  0  0  0  0
    4.5351    0.4597    5.9055 C   0  0  0  0  0  0  0  0  0  0  0  0
    4.2011    0.8899    7.1503 F   0  0  0  0  0  0  0  0  0  0  0  0
    4.8044   -0.8715    6.0337 F   0  0  0  0  0  0  0  0  0  0  0  0
    5.7335    1.0446    5.6191 F   0  0  0  0  0  0  0  0  0  0  0  0
    3.7655    0.3149    3.5085 C   0  0  0  0  0  0  0  0  0  0  0  0
    3.6281   -1.1117   -0.8520 H   0  0  0  0  0  0  0  0  0  0  0  0
    0.6580    0.8815   -1.9818 H   0  0  0  0  0  0  0  0  0  0  0  0
   -0.5409    0.4069   -3.9936 H   0  0  0  0  0  0  0  0  0  0  0  0
    0.8697    1.3113   -6.0691 H   0  0  0  0  0  0  0  0  0  0  0  0
   -0.5633    2.9396   -7.2630 H   0  0  0  0  0  0  0  0  0  0  0  0
   -3.8182   -2.2262   -8.7830 H   0  0  0  0  0  0  0  0  0  0  0  0
   -6.2944   -0.6421  -12.0652 H   0  0  0  0  0  0  0  0  0  0  0  0
   -5.7710    1.1205  -10.7440 H   0  0  0  0  0  0  0  0  0  0  0  0
   -3.8104    1.9238   -9.3854 H   0  0  0  0  0  0  0  0  0  0  0  0
   -1.8205   -1.7971   -7.3615 H   0  0  0  0  0  0  0  0  0  0  0  0
    2.3632   -2.5868   -5.0667 H   0  0  0  0  0  0  0  0  0  0  0  0
    3.5265   -2.2174   -2.9266 H   0  0  0  0  0  0  0  0  0  0  0  0
    4.0357   -0.3524    1.0645 H   0  0  0  0  0  0  0  0  0  0  0  0
    0.7997    1.2752    2.1287 H   0  0  0  0  0  0  0  0  0  0  0  0
    0.3982    2.0003    4.4088 H   0  0  0  0  0  0  0  0  0  0  0  0
    4.7158   -0.1627    3.2769 H   0  0  0  0  0  0  0  0  0  0  0  0
  1  2  2  0  0  0  0
  2  3  1  0  0  0  0
  2 25  1  0  0  0  0
  3  4  1  0  0  0  0
  3 37  1  0  0  0  0
  4  5  1  0  0  0  0
  4 24  2  0  0  0  0
  5  6  2  0  0  0  0
  5 38  1  0  0  0  0
  6  7  1  0  0  0  0
  6 39  1  0  0  0  0
  7  8  1  0  0  0  0
  7 23  2  0  0  0  0
  8  9  1  0  0  0  0
  9 10  1  0  0  0  0
  9 22  2  0  0  0  0
 10 11  2  0  0  0  0
 10 40  1  0  0  0  0
 11 12  1  0  0  0  0
 11 41  1  0  0  0  0
 12 13  2  0  0  0  0
 13 14  1  0  0  0  0
 13 22  1  0  0  0  0
 14 15  2  0  0  0  0
 14 21  1  0  0  0  0
 15 16  1  0  0  0  0
 15 42  1  0  0  0  0
 16 17  1  0  0  0  0
 16 20  2  0  0  0  0
 17 18  2  0  0  0  0
 17 19  1  0  0  0  0
 19 43  1  0  0  0  0
 20 21  1  0  0  0  0
 20 44  1  0  0  0  0
 21 45  1  0  0  0  0
 22 46  1  0  0  0  0
 23 24  1  0  0  0  0
 23 47  1  0  0  0  0
 24 48  1  0  0  0  0
 25 26  1  0  0  0  0
 25 49  1  0  0  0  0
 26 27  1  0  0  0  0
 26 36  2  0  0  0  0
 27 28  2  0  0  0  0
 27 50  1  0  0  0  0
 28 29  1  0  0  0  0
 28 51  1  0  0  0  0
 29 30  1  0  0  0  0
 29 31  2  0  0  0  0
 31 32  1  0  0  0  0
 31 36  1  0  0  0  0
 32 33  1  0  0  0  0
 32 34  1  0  0  0  0
 32 35  1  0  0  0  0
 36 52  1  0  0  0  0
M  END
$$$$
