CHEMBL498347
 OpenBabel04072215383D

 50 54  0  0  0  0  0  0  0  0999 V2000
    2.1048   -1.0888   -1.0065 C   0  0  0  0  0  0  0  0  0  0  0  0
    0.9355   -0.2696   -0.6950 N   0  0  0  0  0  0  0  0  0  0  0  0
   -0.2435   -0.7402   -1.4633 C   0  0  0  0  0  0  0  0  0  0  0  0
   -1.5426    0.0262   -1.1101 C   0  0  0  0  0  0  0  0  0  0  0  0
   -1.7750   -0.0908    0.3361 N   0  0  0  0  0  0  0  0  0  0  0  0
   -3.0520   -0.0375    0.8735 C   0  0  0  0  0  0  0  0  0  0  0  0
   -3.2927   -0.6492    2.1196 C   0  0  0  0  0  0  0  0  0  0  0  0
   -4.5539   -0.6913    2.7261 C   0  0  0  0  0  0  0  0  0  0  0  0
   -5.5900   -0.0944    2.0193 C   0  0  0  0  0  0  0  0  0  0  0  0
   -6.9190    0.0702    2.2983 N   0  0  0  0  0  0  0  0  0  0  0  0
   -7.5203    0.6977    1.2311 C   0  0  0  0  0  0  0  0  0  0  0  0
   -8.9281    0.9440    1.2573 C   0  0  0  0  0  0  0  0  0  0  0  0
   -9.6173    1.0207    0.0909 C   0  0  0  0  0  0  0  0  0  0  0  0
   -9.0540    0.7730   -1.1560 N   0  0  0  0  0  0  0  0  0  0  0  0
  -11.0650    1.3695    0.1240 C   0  0  0  0  0  0  0  0  0  0  0  0
  -11.8562    1.5372   -1.0260 C   0  0  0  0  0  0  0  0  0  0  0  0
  -11.3249    1.4076   -2.2528 F   0  0  0  0  0  0  0  0  0  0  0  0
  -13.2060    1.8709   -0.9500 C   0  0  0  0  0  0  0  0  0  0  0  0
  -13.7876    2.0494    0.2940 C   0  0  0  0  0  0  0  0  0  0  0  0
  -15.0826    2.3778    0.3771 F   0  0  0  0  0  0  0  0  0  0  0  0
  -13.0445    1.9030    1.4573 C   0  0  0  0  0  0  0  0  0  0  0  0
  -11.6915    1.5669    1.3651 C   0  0  0  0  0  0  0  0  0  0  0  0
  -10.9564    1.4272    2.5434 N   0  0  0  0  0  0  0  0  0  0  0  0
   -9.6307    1.1070    2.5715 C   0  0  0  0  0  0  0  0  0  0  0  0
   -9.0596    0.9381    3.6496 O   0  0  0  0  0  0  0  0  0  0  0  0
   -6.6199    0.9703    0.2973 N   0  0  0  0  0  0  0  0  0  0  0  0
   -5.4212    0.4997    0.7784 C   0  0  0  0  0  0  0  0  0  0  0  0
   -4.1417    0.5374    0.1994 C   0  0  0  0  0  0  0  0  0  0  0  0
   -0.6534    0.4309    1.1385 C   0  0  0  0  0  0  0  0  0  0  0  0
    0.6370   -0.3306    0.7564 C   0  0  0  0  0  0  0  0  0  0  0  0
    2.3436   -1.0247   -2.0735 H   0  0  0  0  0  0  0  0  0  0  0  0
    1.9545   -2.1440   -0.7500 H   0  0  0  0  0  0  0  0  0  0  0  0
    2.9828   -0.7245   -0.4622 H   0  0  0  0  0  0  0  0  0  0  0  0
   -0.4119   -1.8092   -1.2704 H   0  0  0  0  0  0  0  0  0  0  0  0
   -0.0528   -0.6259   -2.5365 H   0  0  0  0  0  0  0  0  0  0  0  0
   -2.3632   -0.4198   -1.6841 H   0  0  0  0  0  0  0  0  0  0  0  0
   -1.4542    1.0810   -1.4007 H   0  0  0  0  0  0  0  0  0  0  0  0
   -2.4731   -1.1550    2.6269 H   0  0  0  0  0  0  0  0  0  0  0  0
   -4.7059   -1.1824    3.6798 H   0  0  0  0  0  0  0  0  0  0  0  0
   -7.3884   -0.1953    3.1555 H   0  0  0  0  0  0  0  0  0  0  0  0
   -8.0292    0.8566   -1.1449 H   0  0  0  0  0  0  0  0  0  0  0  0
   -9.4765    1.2822   -1.9286 H   0  0  0  0  0  0  0  0  0  0  0  0
  -13.7892    1.9970   -1.8549 H   0  0  0  0  0  0  0  0  0  0  0  0
  -13.5304    2.0585    2.4153 H   0  0  0  0  0  0  0  0  0  0  0  0
  -11.3990    1.5450    3.4460 H   0  0  0  0  0  0  0  0  0  0  0  0
   -4.0261    1.0263   -0.7598 H   0  0  0  0  0  0  0  0  0  0  0  0
   -0.8156    0.3205    2.2162 H   0  0  0  0  0  0  0  0  0  0  0  0
   -0.5279    1.5041    0.9422 H   0  0  0  0  0  0  0  0  0  0  0  0
    0.5275   -1.3765    1.0754 H   0  0  0  0  0  0  0  0  0  0  0  0
    1.4730    0.0997    1.3201 H   0  0  0  0  0  0  0  0  0  0  0  0
  1  2  1  0  0  0  0
  1 31  1  0  0  0  0
  1 32  1  0  0  0  0
  1 33  1  0  0  0  0
  2  3  1  0  0  0  0
  2 30  1  0  0  0  0
  3  4  1  0  0  0  0
  3 34  1  0  0  0  0
  3 35  1  0  0  0  0
  4  5  1  0  0  0  0
  4 36  1  0  0  0  0
  4 37  1  0  0  0  0
  5  6  1  0  0  0  0
  5 29  1  0  0  0  0
  6  7  1  0  0  0  0
  6 28  2  0  0  0  0
  7  8  2  0  0  0  0
  7 38  1  0  0  0  0
  8  9  1  0  0  0  0
  8 39  1  0  0  0  0
  9 10  1  0  0  0  0
  9 27  2  0  0  0  0
 10 11  1  0  0  0  0
 10 40  1  0  0  0  0
 11 12  1  0  0  0  0
 11 26  2  0  0  0  0
 12 13  2  0  0  0  0
 12 24  1  0  0  0  0
 13 14  1  0  0  0  0
 13 15  1  0  0  0  0
 14 41  1  0  0  0  0
 14 42  1  0  0  0  0
 15 16  1  0  0  0  0
 15 22  2  0  0  0  0
 16 17  1  0  0  0  0
 16 18  2  0  0  0  0
 18 19  1  0  0  0  0
 18 43  1  0  0  0  0
 19 20  1  0  0  0  0
 19 21  2  0  0  0  0
 21 22  1  0  0  0  0
 21 44  1  0  0  0  0
 22 23  1  0  0  0  0
 23 24  1  0  0  0  0
 23 45  1  0  0  0  0
 24 25  2  0  0  0  0
 26 27  1  0  0  0  0
 27 28  1  0  0  0  0
 28 46  1  0  0  0  0
 29 30  1  0  0  0  0
 29 47  1  0  0  0  0
 29 48  1  0  0  0  0
 30 49  1  0  0  0  0
 30 50  1  0  0  0  0
M  END
$$$$
