CHEMBL3676367
 OpenBabel04072215373D

 68 71  0  0  0  0  0  0  0  0999 V2000
    4.8032   -2.2693    0.2648 C   0  0  0  0  0  0  0  0  0  0  0  0
    4.3020   -1.0572   -0.0067 C   0  0  0  0  0  0  0  0  0  0  0  0
    5.1763    0.1310    0.1456 C   0  0  0  0  0  0  0  0  0  0  0  0
    6.3433    0.0288    0.5120 O   0  0  0  0  0  0  0  0  0  0  0  0
    4.5431    1.3190   -0.1437 N   0  0  0  0  0  0  0  0  0  0  0  0
    5.2594    2.5263   -0.2707 C   0  0  0  0  0  0  0  0  0  0  0  0
    6.3967    2.5179   -1.0859 C   0  0  0  0  0  0  0  0  0  0  0  0
    7.0689    3.7088   -1.4173 C   0  0  0  0  0  0  0  0  0  0  0  0
    8.1216    3.8048   -2.3397 C   0  0  0  0  0  0  0  0  0  0  0  0
    8.4862    2.6815   -3.1332 N   0  0  0  0  0  0  0  0  0  0  0  0
    9.2480    2.7918   -4.3232 C   0  0  0  0  0  0  0  0  0  0  0  0
    8.9464    3.7868   -5.2638 C   0  0  0  0  0  0  0  0  0  0  0  0
    9.7869    4.0277   -6.3508 C   0  0  0  0  0  0  0  0  0  0  0  0
   10.9286    3.2495   -6.5322 C   0  0  0  0  0  0  0  0  0  0  0  0
   12.0761    3.7253   -7.9698 Br  0  0  0  0  0  0  0  0  0  0  0  0
   11.2046    2.1933   -5.6542 C   0  0  0  0  0  0  0  0  0  0  0  0
   12.5809    1.1685   -5.8527 Cl  0  0  0  0  0  0  0  0  0  0  0  0
   10.3554    1.9703   -4.5607 C   0  0  0  0  0  0  0  0  0  0  0  0
   10.6200    0.9803   -3.6907 F   0  0  0  0  0  0  0  0  0  0  0  0
    8.7327    4.9752   -2.5808 N   0  0  0  0  0  0  0  0  0  0  0  0
    8.2810    6.0527   -1.9430 C   0  0  0  0  0  0  0  0  0  0  0  0
    7.2422    6.0820   -1.1010 N   0  0  0  0  0  0  0  0  0  0  0  0
    6.6374    4.9199   -0.8539 C   0  0  0  0  0  0  0  0  0  0  0  0
    5.5198    4.9087   -0.0246 C   0  0  0  0  0  0  0  0  0  0  0  0
    4.8203    3.7343    0.2815 C   0  0  0  0  0  0  0  0  0  0  0  0
    3.7766    3.9102    1.1593 O   0  0  0  0  0  0  0  0  0  0  0  0
    3.5461    2.8268    2.0638 C   0  0  0  0  0  0  0  0  0  0  0  0
    3.0557    3.3131    3.4255 C   0  0  0  0  0  0  0  0  0  0  0  0
    2.8620    2.1877    4.3217 N   0  0  0  0  0  0  0  0  0  0  0  0
    1.7318    1.4013    4.2685 C   0  0  0  0  0  0  0  0  0  0  0  0
    0.7484    1.6811    3.5944 O   0  0  0  0  0  0  0  0  0  0  0  0
    1.7925    0.1571    5.1349 C   0  0  0  0  0  0  0  0  0  0  0  0
    2.8671   -0.8368    4.6822 C   0  0  0  0  0  0  0  0  0  0  0  0
    4.2432   -0.2980    4.6918 N   0  0  0  0  0  0  0  0  0  0  0  0
    4.7334   -0.0185    6.0539 C   0  0  0  0  0  0  0  0  0  0  0  0
    6.1142    0.6361    5.9866 C   0  0  0  0  0  0  0  0  0  0  0  0
    7.1097   -0.2642    5.2673 C   0  0  0  0  0  0  0  0  0  0  0  0
    6.5664   -0.6599    3.9003 C   0  0  0  0  0  0  0  0  0  0  0  0
    5.1564   -1.2387    4.0103 C   0  0  0  0  0  0  0  0  0  0  0  0
    4.2192   -3.1699    0.1144 H   0  0  0  0  0  0  0  0  0  0  0  0
    5.8190   -2.3900    0.6364 H   0  0  0  0  0  0  0  0  0  0  0  0
    3.2993   -0.9325   -0.3921 H   0  0  0  0  0  0  0  0  0  0  0  0
    3.5342    1.3732   -0.0948 H   0  0  0  0  0  0  0  0  0  0  0  0
    6.7296    1.5770   -1.5197 H   0  0  0  0  0  0  0  0  0  0  0  0
    8.7554    1.8858   -2.5582 H   0  0  0  0  0  0  0  0  0  0  0  0
    8.0707    4.4180   -5.1224 H   0  0  0  0  0  0  0  0  0  0  0  0
    9.5496    4.8484   -7.0234 H   0  0  0  0  0  0  0  0  0  0  0  0
    8.7901    6.9896   -2.1367 H   0  0  0  0  0  0  0  0  0  0  0  0
    5.1853    5.8536    0.3997 H   0  0  0  0  0  0  0  0  0  0  0  0
    4.4611    2.2481    2.2435 H   0  0  0  0  0  0  0  0  0  0  0  0
    2.7796    2.1760    1.6314 H   0  0  0  0  0  0  0  0  0  0  0  0
    2.1217    3.8773    3.3269 H   0  0  0  0  0  0  0  0  0  0  0  0
    3.7980    3.9736    3.8825 H   0  0  0  0  0  0  0  0  0  0  0  0
    3.7039    1.6669    4.5713 H   0  0  0  0  0  0  0  0  0  0  0  0
    0.8127   -0.3356    5.0770 H   0  0  0  0  0  0  0  0  0  0  0  0
    1.9237    0.4555    6.1801 H   0  0  0  0  0  0  0  0  0  0  0  0
    2.6138   -1.1391    3.6565 H   0  0  0  0  0  0  0  0  0  0  0  0
    2.8079   -1.7423    5.3000 H   0  0  0  0  0  0  0  0  0  0  0  0
    4.7685   -0.9323    6.6586 H   0  0  0  0  0  0  0  0  0  0  0  0
    4.0685    0.6854    6.5658 H   0  0  0  0  0  0  0  0  0  0  0  0
    6.4702    0.8572    6.9981 H   0  0  0  0  0  0  0  0  0  0  0  0
    6.0418    1.5957    5.4567 H   0  0  0  0  0  0  0  0  0  0  0  0
    7.2868   -1.1648    5.8673 H   0  0  0  0  0  0  0  0  0  0  0  0
    8.0713    0.2479    5.1568 H   0  0  0  0  0  0  0  0  0  0  0  0
    7.2337   -1.3922    3.4321 H   0  0  0  0  0  0  0  0  0  0  0  0
    6.5502    0.2226    3.2488 H   0  0  0  0  0  0  0  0  0  0  0  0
    5.1882   -2.2017    4.5365 H   0  0  0  0  0  0  0  0  0  0  0  0
    4.7919   -1.4364    2.9982 H   0  0  0  0  0  0  0  0  0  0  0  0
  1  2  2  0  0  0  0
  1 40  1  0  0  0  0
  1 41  1  0  0  0  0
  2  3  1  0  0  0  0
  2 42  1  0  0  0  0
  3  4  2  0  0  0  0
  3  5  1  0  0  0  0
  5  6  1  0  0  0  0
  5 43  1  0  0  0  0
  6  7  1  0  0  0  0
  6 25  2  0  0  0  0
  7  8  2  0  0  0  0
  7 44  1  0  0  0  0
  8  9  1  0  0  0  0
  8 23  1  0  0  0  0
  9 10  1  0  0  0  0
  9 20  2  0  0  0  0
 10 11  1  0  0  0  0
 10 45  1  0  0  0  0
 11 12  1  0  0  0  0
 11 18  2  0  0  0  0
 12 13  2  0  0  0  0
 12 46  1  0  0  0  0
 13 14  1  0  0  0  0
 13 47  1  0  0  0  0
 14 15  1  0  0  0  0
 14 16  2  0  0  0  0
 16 17  1  0  0  0  0
 16 18  1  0  0  0  0
 18 19  1  0  0  0  0
 20 21  1  0  0  0  0
 21 22  2  0  0  0  0
 21 48  1  0  0  0  0
 22 23  1  0  0  0  0
 23 24  2  0  0  0  0
 24 25  1  0  0  0  0
 24 49  1  0  0  0  0
 25 26  1  0  0  0  0
 26 27  1  0  0  0  0
 27 28  1  0  0  0  0
 27 50  1  0  0  0  0
 27 51  1  0  0  0  0
 28 29  1  0  0  0  0
 28 52  1  0  0  0  0
 28 53  1  0  0  0  0
 29 30  1  0  0  0  0
 29 54  1  0  0  0  0
 30 31  2  0  0  0  0
 30 32  1  0  0  0  0
 32 33  1  0  0  0  0
 32 55  1  0  0  0  0
 32 56  1  0  0  0  0
 33 34  1  0  0  0  0
 33 57  1  0  0  0  0
 33 58  1  0  0  0  0
 34 35  1  0  0  0  0
 34 39  1  0  0  0  0
 35 36  1  0  0  0  0
 35 59  1  0  0  0  0
 35 60  1  0  0  0  0
 36 37  1  0  0  0  0
 36 61  1  0  0  0  0
 36 62  1  0  0  0  0
 37 38  1  0  0  0  0
 37 63  1  0  0  0  0
 37 64  1  0  0  0  0
 38 39  1  0  0  0  0
 38 65  1  0  0  0  0
 38 66  1  0  0  0  0
 39 67  1  0  0  0  0
 39 68  1  0  0  0  0
M  END
$$$$
