CHEMBL220532
 OpenBabel04072215363D

 61 64  0  0  1  0  0  0  0  0999 V2000
    1.4219   -1.7076    2.0415 C   0  0  0  0  0  0  0  0  0  0  0  0
    2.6335   -0.9429    1.7570 N   0  0  0  0  0  0  0  0  0  0  0  0
    2.3094    0.4502    1.3778 C   0  0  1  0  0  0  0  0  0  0  0  0
    1.6373    1.1987    2.5472 C   0  0  0  0  0  0  0  0  0  0  0  0
    1.4270    2.6873    2.2880 C   0  0  0  0  0  0  0  0  0  0  0  0
    2.6397    3.3794    1.6796 C   0  0  0  0  0  0  0  0  0  0  0  0
    3.1194    2.5927    0.5444 N   0  0  0  0  0  0  0  0  0  0  0  0
    3.4086    3.1772   -0.6787 C   0  0  0  0  0  0  0  0  0  0  0  0
    3.8517    4.5144   -0.7133 C   0  0  0  0  0  0  0  0  0  0  0  0
    4.1593    5.1733   -1.9038 C   0  0  0  0  0  0  0  0  0  0  0  0
    4.0670    4.5019   -3.1225 C   0  0  0  0  0  0  0  0  0  0  0  0
    4.3307    5.2191   -4.4190 C   0  0  0  0  0  0  0  0  0  0  0  0
    4.6242    6.5406   -4.2614 F   0  0  0  0  0  0  0  0  0  0  0  0
    5.3760    4.6843   -5.1075 F   0  0  0  0  0  0  0  0  0  0  0  0
    3.2637    5.1745   -5.2640 F   0  0  0  0  0  0  0  0  0  0  0  0
    3.6770    3.1550   -3.1226 C   0  0  0  0  0  0  0  0  0  0  0  0
    3.3018    2.5148   -1.9304 C   0  0  0  0  0  0  0  0  0  0  0  0
    2.7840    1.1992   -2.0528 N   0  0  0  0  0  0  0  0  0  0  0  0
    1.4174    0.9778   -2.2225 C   0  0  0  0  0  0  0  0  0  0  0  0
    0.5573    1.8511   -2.2516 O   0  0  0  0  0  0  0  0  0  0  0  0
    1.0059   -0.4474   -2.4348 C   0  0  0  0  0  0  0  0  0  0  0  0
   -0.1810   -0.7588   -3.1327 C   0  0  0  0  0  0  0  0  0  0  0  0
   -0.5846   -2.0968   -3.2891 C   0  0  0  0  0  0  0  0  0  0  0  0
   -1.7923   -2.4439   -3.9898 C   0  0  0  0  0  0  0  0  0  0  0  0
   -2.7964   -2.7858   -4.5500 C   0  0  0  0  0  0  0  0  0  0  0  0
   -4.0058   -3.1926   -5.1994 C   0  0  0  0  0  0  0  0  0  0  0  0
   -4.3444   -4.5101   -5.4170 C   0  0  0  0  0  0  0  0  0  0  0  0
   -5.4918   -4.9053   -6.0198 N   0  0  0  0  0  0  0  0  0  0  0  0
   -6.3154   -3.9336   -6.4307 C   0  0  0  0  0  0  0  0  0  0  0  0
   -7.4869   -4.3057   -7.0532 N   0  0  0  0  0  0  0  0  0  0  0  0
   -6.0965   -2.6271   -6.2488 N   0  0  0  0  0  0  0  0  0  0  0  0
   -4.9394   -2.2862   -5.6403 C   0  0  0  0  0  0  0  0  0  0  0  0
    0.1968   -3.1251   -2.7474 C   0  0  0  0  0  0  0  0  0  0  0  0
    1.3674   -2.8221   -2.0545 C   0  0  0  0  0  0  0  0  0  0  0  0
    1.7615   -1.4954   -1.9027 C   0  0  0  0  0  0  0  0  0  0  0  0
    2.8917   -1.2638   -1.2208 F   0  0  0  0  0  0  0  0  0  0  0  0
    3.5512    1.2343    0.8849 C   0  0  0  0  0  0  0  0  0  0  0  0
    1.6807   -2.7426    2.2785 H   0  0  0  0  0  0  0  0  0  0  0  0
    0.7440   -1.7120    1.1817 H   0  0  0  0  0  0  0  0  0  0  0  0
    0.8888   -1.3160    2.9124 H   0  0  0  0  0  0  0  0  0  0  0  0
    3.1164   -1.3832    0.9708 H   0  0  0  0  0  0  0  0  0  0  0  0
    1.6017    0.4230    0.5419 H   0  0  0  0  0  0  0  0  0  0  0  0
    2.2274    1.0687    3.4625 H   0  0  0  0  0  0  0  0  0  0  0  0
    0.6462    0.7728    2.7393 H   0  0  0  0  0  0  0  0  0  0  0  0
    1.1550    3.1818    3.2279 H   0  0  0  0  0  0  0  0  0  0  0  0
    0.5728    2.8083    1.6102 H   0  0  0  0  0  0  0  0  0  0  0  0
    3.4380    3.4889    2.4238 H   0  0  0  0  0  0  0  0  0  0  0  0
    2.3169    4.3864    1.3930 H   0  0  0  0  0  0  0  0  0  0  0  0
    3.9779    5.0754    0.2098 H   0  0  0  0  0  0  0  0  0  0  0  0
    4.4623    6.2183   -1.8635 H   0  0  0  0  0  0  0  0  0  0  0  0
    3.5921    2.6272   -4.0703 H   0  0  0  0  0  0  0  0  0  0  0  0
    3.3610    0.5604   -2.5867 H   0  0  0  0  0  0  0  0  0  0  0  0
   -0.7852    0.0414   -3.5569 H   0  0  0  0  0  0  0  0  0  0  0  0
   -3.6971   -5.3240   -5.1072 H   0  0  0  0  0  0  0  0  0  0  0  0
   -7.7496   -5.2371   -6.7824 H   0  0  0  0  0  0  0  0  0  0  0  0
   -8.1823   -3.5736   -6.9468 H   0  0  0  0  0  0  0  0  0  0  0  0
   -4.7914   -1.2158   -5.5152 H   0  0  0  0  0  0  0  0  0  0  0  0
   -0.0990   -4.1665   -2.8591 H   0  0  0  0  0  0  0  0  0  0  0  0
    1.9791   -3.6111   -1.6267 H   0  0  0  0  0  0  0  0  0  0  0  0
    4.3133    1.2857    1.6762 H   0  0  0  0  0  0  0  0  0  0  0  0
    4.0399    0.7189    0.0511 H   0  0  0  0  0  0  0  0  0  0  0  0
  1  2  1  0  0  0  0
  1 38  1  0  0  0  0
  1 39  1  0  0  0  0
  1 40  1  0  0  0  0
  2 41  1  0  0  0  0
  3  4  1  0  0  0  0
  3 37  1  0  0  0  0
  3  2  1  0  0  0  0
  3 42  1  6  0  0  0
  4  5  1  0  0  0  0
  4 43  1  0  0  0  0
  4 44  1  0  0  0  0
  5  6  1  0  0  0  0
  5 45  1  0  0  0  0
  5 46  1  0  0  0  0
  6  7  1  0  0  0  0
  6 47  1  0  0  0  0
  6 48  1  0  0  0  0
  7  8  1  0  0  0  0
  7 37  1  0  0  0  0
  8  9  1  0  0  0  0
  8 17  2  0  0  0  0
  9 10  2  0  0  0  0
  9 49  1  0  0  0  0
 10 11  1  0  0  0  0
 10 50  1  0  0  0  0
 11 12  1  0  0  0  0
 11 16  2  0  0  0  0
 12 13  1  0  0  0  0
 12 14  1  0  0  0  0
 12 15  1  0  0  0  0
 16 17  1  0  0  0  0
 16 51  1  0  0  0  0
 17 18  1  0  0  0  0
 18 19  1  0  0  0  0
 18 52  1  0  0  0  0
 19 20  2  0  0  0  0
 19 21  1  0  0  0  0
 21 22  1  0  0  0  0
 21 35  2  0  0  0  0
 22 23  2  0  0  0  0
 22 53  1  0  0  0  0
 23 24  1  0  0  0  0
 23 33  1  0  0  0  0
 24 25  3  0  0  0  0
 25 26  1  0  0  0  0
 26 27  1  0  0  0  0
 26 32  2  0  0  0  0
 27 28  2  0  0  0  0
 27 54  1  0  0  0  0
 28 29  1  0  0  0  0
 29 30  1  0  0  0  0
 29 31  2  0  0  0  0
 30 55  1  0  0  0  0
 30 56  1  0  0  0  0
 31 32  1  0  0  0  0
 32 57  1  0  0  0  0
 33 34  2  0  0  0  0
 33 58  1  0  0  0  0
 34 35  1  0  0  0  0
 34 59  1  0  0  0  0
 35 36  1  0  0  0  0
 37 60  1  0  0  0  0
 37 61  1  0  0  0  0
M  END
$$$$
