CHEMBL413772
 OpenBabel04072215383D

 49 53  0  0  0  0  0  0  0  0999 V2000
    1.9490    0.0170   -1.0266 C   0  0  0  0  0  0  0  0  0  0  0  0
    0.5015    0.2072   -1.0698 N   0  0  0  0  0  0  0  0  0  0  0  0
   -0.2023   -1.0386   -0.7299 C   0  0  0  0  0  0  0  0  0  0  0  0
   -1.7356   -0.8375   -0.7179 C   0  0  0  0  0  0  0  0  0  0  0  0
   -2.2059    0.1946    0.2316 N   0  0  0  0  0  0  0  0  0  0  0  0
   -2.0229   -0.1675    1.6489 C   0  0  0  0  0  0  0  0  0  0  0  0
   -2.7506   -1.4311    2.0860 C   0  0  0  0  0  0  0  0  0  0  0  0
   -2.0981   -2.6875    1.9912 C   0  0  0  0  0  0  0  0  0  0  0  0
   -2.7370   -3.8818    2.3313 C   0  0  0  0  0  0  0  0  0  0  0  0
   -4.0217   -3.7844    2.8052 C   0  0  0  0  0  0  0  0  0  0  0  0
   -4.6861   -2.5423    2.9691 C   0  0  0  0  0  0  0  0  0  0  0  0
   -4.0641   -1.3609    2.5866 C   0  0  0  0  0  0  0  0  0  0  0  0
   -6.0849   -2.6874    3.6010 C   0  0  0  0  0  0  0  0  0  0  0  0
   -6.0929   -4.1773    3.7077 C   0  0  0  0  0  0  0  0  0  0  0  0
   -6.8808   -5.2381    4.1940 C   0  0  0  0  0  0  0  0  0  0  0  0
   -8.1697   -5.1641    4.8651 C   0  0  0  0  0  0  0  0  0  0  0  0
   -9.0792   -4.1370    4.5987 C   0  0  0  0  0  0  0  0  0  0  0  0
  -10.2674   -4.0571    5.3217 C   0  0  0  0  0  0  0  0  0  0  0  0
  -10.5141   -5.0182    6.2878 C   0  0  0  0  0  0  0  0  0  0  0  0
   -9.6753   -6.0396    6.5621 N   0  0  0  0  0  0  0  0  0  0  0  0
   -8.5266   -6.0922    5.8395 C   0  0  0  0  0  0  0  0  0  0  0  0
   -6.2413   -6.4163    3.9987 N   0  0  0  0  0  0  0  0  0  0  0  0
   -5.0655   -6.0876    3.4071 N   0  0  0  0  0  0  0  0  0  0  0  0
   -4.9441   -4.7594    3.2576 C   0  0  0  0  0  0  0  0  0  0  0  0
   -1.4702    1.4445   -0.0854 C   0  0  0  0  0  0  0  0  0  0  0  0
    0.0746    1.2983   -0.1743 C   0  0  0  0  0  0  0  0  0  0  0  0
    2.2505   -0.7931   -1.6994 H   0  0  0  0  0  0  0  0  0  0  0  0
    2.3066   -0.2245   -0.0195 H   0  0  0  0  0  0  0  0  0  0  0  0
    2.4636    0.9208   -1.3703 H   0  0  0  0  0  0  0  0  0  0  0  0
    0.1381   -1.4156    0.2405 H   0  0  0  0  0  0  0  0  0  0  0  0
    0.0351   -1.8113   -1.4736 H   0  0  0  0  0  0  0  0  0  0  0  0
   -2.2422   -1.7927   -0.5507 H   0  0  0  0  0  0  0  0  0  0  0  0
   -2.0527   -0.5386   -1.7271 H   0  0  0  0  0  0  0  0  0  0  0  0
   -2.4062    0.6556    2.2684 H   0  0  0  0  0  0  0  0  0  0  0  0
   -0.9656   -0.2652    1.9250 H   0  0  0  0  0  0  0  0  0  0  0  0
   -1.0738   -2.7372    1.6316 H   0  0  0  0  0  0  0  0  0  0  0  0
   -2.2293   -4.8322    2.2307 H   0  0  0  0  0  0  0  0  0  0  0  0
   -4.5754   -0.4080    2.6770 H   0  0  0  0  0  0  0  0  0  0  0  0
   -6.8583   -2.3136    2.9283 H   0  0  0  0  0  0  0  0  0  0  0  0
   -6.1188   -2.2094    4.5841 H   0  0  0  0  0  0  0  0  0  0  0  0
   -8.8800   -3.3972    3.8304 H   0  0  0  0  0  0  0  0  0  0  0  0
  -10.9813   -3.2639    5.1359 H   0  0  0  0  0  0  0  0  0  0  0  0
  -11.4216   -4.9919    6.8854 H   0  0  0  0  0  0  0  0  0  0  0  0
   -7.8698   -6.9207    6.0909 H   0  0  0  0  0  0  0  0  0  0  0  0
   -4.4191   -6.8283    3.1551 H   0  0  0  0  0  0  0  0  0  0  0  0
   -1.7236    2.2282    0.6391 H   0  0  0  0  0  0  0  0  0  0  0  0
   -1.8369    1.8132   -1.0533 H   0  0  0  0  0  0  0  0  0  0  0  0
    0.4785    1.1471    0.8347 H   0  0  0  0  0  0  0  0  0  0  0  0
    0.4860    2.2460   -0.5446 H   0  0  0  0  0  0  0  0  0  0  0  0
  1  2  1  0  0  0  0
  1 27  1  0  0  0  0
  1 28  1  0  0  0  0
  1 29  1  0  0  0  0
  2  3  1  0  0  0  0
  2 26  1  0  0  0  0
  3  4  1  0  0  0  0
  3 30  1  0  0  0  0
  3 31  1  0  0  0  0
  4  5  1  0  0  0  0
  4 32  1  0  0  0  0
  4 33  1  0  0  0  0
  5  6  1  0  0  0  0
  5 25  1  0  0  0  0
  6  7  1  0  0  0  0
  6 34  1  0  0  0  0
  6 35  1  0  0  0  0
  7  8  1  0  0  0  0
  7 12  2  0  0  0  0
  8  9  2  0  0  0  0
  8 36  1  0  0  0  0
  9 10  1  0  0  0  0
  9 37  1  0  0  0  0
 10 11  2  0  0  0  0
 10 24  1  0  0  0  0
 11 12  1  0  0  0  0
 11 13  1  0  0  0  0
 12 38  1  0  0  0  0
 13 14  1  0  0  0  0
 13 39  1  0  0  0  0
 13 40  1  0  0  0  0
 14 15  1  0  0  0  0
 14 24  2  0  0  0  0
 15 16  1  0  0  0  0
 15 22  2  0  0  0  0
 16 17  1  0  0  0  0
 16 21  2  0  0  0  0
 17 18  2  0  0  0  0
 17 41  1  0  0  0  0
 18 19  1  0  0  0  0
 18 42  1  0  0  0  0
 19 20  2  0  0  0  0
 19 43  1  0  0  0  0
 20 21  1  0  0  0  0
 21 44  1  0  0  0  0
 22 23  1  0  0  0  0
 23 24  1  0  0  0  0
 23 45  1  0  0  0  0
 25 26  1  0  0  0  0
 25 46  1  0  0  0  0
 25 47  1  0  0  0  0
 26 48  1  0  0  0  0
 26 49  1  0  0  0  0
M  END
$$$$
