CHEMBL172518
 OpenBabel04072215363D

 58 62  0  0  0  0  0  0  0  0999 V2000
    2.6657   -1.1862   -0.5403 C   0  0  0  0  0  0  0  0  0  0  0  0
    2.4462    0.0062    0.2096 O   0  0  0  0  0  0  0  0  0  0  0  0
    3.1186    1.1371   -0.1662 C   0  0  0  0  0  0  0  0  0  0  0  0
    4.2374    1.1090   -0.9966 C   0  0  0  0  0  0  0  0  0  0  0  0
    4.7995    2.2947   -1.5131 C   0  0  0  0  0  0  0  0  0  0  0  0
    5.8656    2.3252   -2.4249 C   0  0  0  0  0  0  0  0  0  0  0  0
    6.4289    1.1024   -2.8783 N   0  0  0  0  0  0  0  0  0  0  0  0
    7.6494    0.9126   -3.5450 C   0  0  0  0  0  0  0  0  0  0  0  0
    8.7368    1.7886   -3.3976 C   0  0  0  0  0  0  0  0  0  0  0  0
    9.9302    1.6306   -4.1025 C   0  0  0  0  0  0  0  0  0  0  0  0
   10.1120    0.5459   -4.9610 C   0  0  0  0  0  0  0  0  0  0  0  0
    9.0820   -0.4048   -5.0759 C   0  0  0  0  0  0  0  0  0  0  0  0
    8.9003   -1.6206   -5.7837 C   0  0  0  0  0  0  0  0  0  0  0  0
   10.0273   -2.3426   -6.8272 Cl  0  0  0  0  0  0  0  0  0  0  0  0
    7.6537   -2.0912   -5.4500 C   0  0  0  0  0  0  0  0  0  0  0  0
    7.0280   -1.2299   -4.6021 O   0  0  0  0  0  0  0  0  0  0  0  0
    7.8990   -0.1972   -4.3695 C   0  0  0  0  0  0  0  0  0  0  0  0
    6.3882    3.4909   -2.8561 N   0  0  0  0  0  0  0  0  0  0  0  0
    5.8346    4.6130   -2.3848 C   0  0  0  0  0  0  0  0  0  0  0  0
    4.8049    4.6941   -1.5400 N   0  0  0  0  0  0  0  0  0  0  0  0
    4.2898    3.5373   -1.1093 C   0  0  0  0  0  0  0  0  0  0  0  0
    3.2336    3.5549   -0.2116 C   0  0  0  0  0  0  0  0  0  0  0  0
    2.6578    2.3774    0.2899 C   0  0  0  0  0  0  0  0  0  0  0  0
    1.6488    2.5882    1.1968 O   0  0  0  0  0  0  0  0  0  0  0  0
    1.5396    1.6085    2.2349 C   0  0  0  0  0  0  0  0  0  0  0  0
    1.0747    2.2766    3.5285 C   0  0  0  0  0  0  0  0  0  0  0  0
   -0.3152    2.9036    3.3812 C   0  0  0  0  0  0  0  0  0  0  0  0
   -0.8450    3.4742    4.6362 N   0  0  0  0  0  0  0  0  0  0  0  0
   -2.1985    4.0426    4.4140 C   0  0  0  0  0  0  0  0  0  0  0  0
   -2.2040    5.3585    3.6086 C   0  0  0  0  0  0  0  0  0  0  0  0
   -1.3238    6.3424    4.1694 O   0  0  0  0  0  0  0  0  0  0  0  0
    0.0037    5.8227    4.3224 C   0  0  0  0  0  0  0  0  0  0  0  0
   -0.0081    4.5601    5.1962 C   0  0  0  0  0  0  0  0  0  0  0  0
    3.3758   -1.8205   -0.0024 H   0  0  0  0  0  0  0  0  0  0  0  0
    3.0078   -1.0186   -1.5667 H   0  0  0  0  0  0  0  0  0  0  0  0
    1.7118   -1.7150   -0.6158 H   0  0  0  0  0  0  0  0  0  0  0  0
    4.7012    0.1616   -1.2496 H   0  0  0  0  0  0  0  0  0  0  0  0
    5.7248    0.4386   -3.1889 H   0  0  0  0  0  0  0  0  0  0  0  0
    8.6538    2.6389   -2.7238 H   0  0  0  0  0  0  0  0  0  0  0  0
   10.7187    2.3686   -3.9804 H   0  0  0  0  0  0  0  0  0  0  0  0
   11.0401    0.4359   -5.5132 H   0  0  0  0  0  0  0  0  0  0  0  0
    7.0958   -2.9755   -5.7239 H   0  0  0  0  0  0  0  0  0  0  0  0
    6.2796    5.5450   -2.7174 H   0  0  0  0  0  0  0  0  0  0  0  0
    2.8468    4.5167    0.1205 H   0  0  0  0  0  0  0  0  0  0  0  0
    2.5063    1.1361    2.4473 H   0  0  0  0  0  0  0  0  0  0  0  0
    0.8132    0.8484    1.9279 H   0  0  0  0  0  0  0  0  0  0  0  0
    1.8093    3.0458    3.7913 H   0  0  0  0  0  0  0  0  0  0  0  0
    1.0644    1.5304    4.3317 H   0  0  0  0  0  0  0  0  0  0  0  0
   -1.0027    2.1125    3.0547 H   0  0  0  0  0  0  0  0  0  0  0  0
   -0.2925    3.6459    2.5770 H   0  0  0  0  0  0  0  0  0  0  0  0
   -2.6381    4.2392    5.4008 H   0  0  0  0  0  0  0  0  0  0  0  0
   -2.8518    3.3038    3.9348 H   0  0  0  0  0  0  0  0  0  0  0  0
   -3.2124    5.7846    3.6163 H   0  0  0  0  0  0  0  0  0  0  0  0
   -1.9312    5.1914    2.5609 H   0  0  0  0  0  0  0  0  0  0  0  0
    0.6094    6.5979    4.8019 H   0  0  0  0  0  0  0  0  0  0  0  0
    0.4409    5.6355    3.3349 H   0  0  0  0  0  0  0  0  0  0  0  0
   -0.4258    4.8238    6.1778 H   0  0  0  0  0  0  0  0  0  0  0  0
    1.0103    4.2166    5.4003 H   0  0  0  0  0  0  0  0  0  0  0  0
  1  2  1  0  0  0  0
  1 34  1  0  0  0  0
  1 35  1  0  0  0  0
  1 36  1  0  0  0  0
  2  3  1  0  0  0  0
  3  4  1  0  0  0  0
  3 23  2  0  0  0  0
  4  5  2  0  0  0  0
  4 37  1  0  0  0  0
  5  6  1  0  0  0  0
  5 21  1  0  0  0  0
  6  7  1  0  0  0  0
  6 18  2  0  0  0  0
  7  8  1  0  0  0  0
  7 38  1  0  0  0  0
  8  9  1  0  0  0  0
  8 17  2  0  0  0  0
  9 10  2  0  0  0  0
  9 39  1  0  0  0  0
 10 11  1  0  0  0  0
 10 40  1  0  0  0  0
 11 12  2  0  0  0  0
 11 41  1  0  0  0  0
 12 13  1  0  0  0  0
 12 17  1  0  0  0  0
 13 14  1  0  0  0  0
 13 15  2  0  0  0  0
 15 16  1  0  0  0  0
 15 42  1  0  0  0  0
 16 17  1  0  0  0  0
 18 19  1  0  0  0  0
 19 20  2  0  0  0  0
 19 43  1  0  0  0  0
 20 21  1  0  0  0  0
 21 22  2  0  0  0  0
 22 23  1  0  0  0  0
 22 44  1  0  0  0  0
 23 24  1  0  0  0  0
 24 25  1  0  0  0  0
 25 26  1  0  0  0  0
 25 45  1  0  0  0  0
 25 46  1  0  0  0  0
 26 27  1  0  0  0  0
 26 47  1  0  0  0  0
 26 48  1  0  0  0  0
 27 28  1  0  0  0  0
 27 49  1  0  0  0  0
 27 50  1  0  0  0  0
 28 29  1  0  0  0  0
 28 33  1  0  0  0  0
 29 30  1  0  0  0  0
 29 51  1  0  0  0  0
 29 52  1  0  0  0  0
 30 31  1  0  0  0  0
 30 53  1  0  0  0  0
 30 54  1  0  0  0  0
 31 32  1  0  0  0  0
 32 33  1  0  0  0  0
 32 55  1  0  0  0  0
 32 56  1  0  0  0  0
 33 57  1  0  0  0  0
 33 58  1  0  0  0  0
M  END
$$$$
