CHEMBL307982
 OpenBabel04072215363D

 46 49  0  0  0  0  0  0  0  0999 V2000
    1.7954    0.8753    1.0529 C   0  0  0  0  0  0  0  0  0  0  0  0
    2.5405    0.0146    0.0288 C   0  0  0  0  0  0  0  0  0  0  0  0
    3.6775    0.8003   -0.6250 C   0  0  0  0  0  0  0  0  0  0  0  0
    3.0213   -1.2325    0.6214 N   0  0  0  0  0  0  0  0  0  0  0  0
    3.9231   -1.3209    1.6512 C   0  0  0  0  0  0  0  0  0  0  0  0
    4.0903   -2.6546    1.9873 C   0  0  0  0  0  0  0  0  0  0  0  0
    4.9659   -3.0653    3.0814 C   0  0  0  0  0  0  0  0  0  0  0  0
    5.1200   -2.2487    4.2105 C   0  0  0  0  0  0  0  0  0  0  0  0
    5.9015   -2.6613    5.2905 C   0  0  0  0  0  0  0  0  0  0  0  0
    6.4629   -3.9383    5.2996 C   0  0  0  0  0  0  0  0  0  0  0  0
    7.1451   -4.4799    6.3656 O   0  0  0  0  0  0  0  0  0  0  0  0
    6.8123   -4.0930    7.6454 C   0  0  0  0  0  0  0  0  0  0  0  0
    5.5082   -3.8132    8.0684 C   0  0  0  0  0  0  0  0  0  0  0  0
    5.2780   -3.3478    9.3630 C   0  0  0  0  0  0  0  0  0  0  0  0
    6.3398   -3.2293   10.2577 C   0  0  0  0  0  0  0  0  0  0  0  0
    7.6285   -3.5900    9.8637 C   0  0  0  0  0  0  0  0  0  0  0  0
    7.8647   -4.0218    8.5580 C   0  0  0  0  0  0  0  0  0  0  0  0
    6.3788   -4.7287    4.1555 C   0  0  0  0  0  0  0  0  0  0  0  0
    5.6609   -4.2789    3.0423 C   0  0  0  0  0  0  0  0  0  0  0  0
    3.2503   -3.4147    1.0982 C   0  0  0  0  0  0  0  0  0  0  0  0
    2.9016   -4.7646    0.8922 C   0  0  0  0  0  0  0  0  0  0  0  0
    3.3303   -5.8311    1.6742 N   0  0  0  0  0  0  0  0  0  0  0  0
    2.0601   -5.0820   -0.1136 N   0  0  0  0  0  0  0  0  0  0  0  0
    1.5646   -4.0927   -0.8711 C   0  0  0  0  0  0  0  0  0  0  0  0
    1.7824   -2.7774   -0.7498 N   0  0  0  0  0  0  0  0  0  0  0  0
    2.6332   -2.4958    0.2505 C   0  0  0  0  0  0  0  0  0  0  0  0
    1.4206    1.7937    0.5885 H   0  0  0  0  0  0  0  0  0  0  0  0
    2.4410    1.1650    1.8896 H   0  0  0  0  0  0  0  0  0  0  0  0
    0.9384    0.3336    1.4678 H   0  0  0  0  0  0  0  0  0  0  0  0
    1.8262   -0.2546   -0.7583 H   0  0  0  0  0  0  0  0  0  0  0  0
    4.4278    1.1156    0.1082 H   0  0  0  0  0  0  0  0  0  0  0  0
    3.2925    1.7004   -1.1161 H   0  0  0  0  0  0  0  0  0  0  0  0
    4.1856    0.1930   -1.3817 H   0  0  0  0  0  0  0  0  0  0  0  0
    4.3685   -0.4258    2.0665 H   0  0  0  0  0  0  0  0  0  0  0  0
    4.6208   -1.2855    4.2783 H   0  0  0  0  0  0  0  0  0  0  0  0
    6.0246   -1.9867    6.1330 H   0  0  0  0  0  0  0  0  0  0  0  0
    4.6656   -3.9234    7.3913 H   0  0  0  0  0  0  0  0  0  0  0  0
    4.2718   -3.0749    9.6697 H   0  0  0  0  0  0  0  0  0  0  0  0
    6.1613   -2.8647   11.2659 H   0  0  0  0  0  0  0  0  0  0  0  0
    8.4514   -3.5254   10.5703 H   0  0  0  0  0  0  0  0  0  0  0  0
    8.8711   -4.2904    8.2481 H   0  0  0  0  0  0  0  0  0  0  0  0
    6.8619   -5.7020    4.1278 H   0  0  0  0  0  0  0  0  0  0  0  0
    5.6422   -4.9032    2.1519 H   0  0  0  0  0  0  0  0  0  0  0  0
    3.4377   -5.5965    2.6528 H   0  0  0  0  0  0  0  0  0  0  0  0
    2.7597   -6.6471    1.4836 H   0  0  0  0  0  0  0  0  0  0  0  0
    0.9015   -4.3934   -1.6739 H   0  0  0  0  0  0  0  0  0  0  0  0
  1  2  1  0  0  0  0
  1 27  1  0  0  0  0
  1 28  1  0  0  0  0
  1 29  1  0  0  0  0
  2  3  1  0  0  0  0
  2  4  1  0  0  0  0
  2 30  1  0  0  0  0
  3 31  1  0  0  0  0
  3 32  1  0  0  0  0
  3 33  1  0  0  0  0
  4  5  1  0  0  0  0
  4 26  1  0  0  0  0
  5  6  2  0  0  0  0
  5 34  1  0  0  0  0
  6  7  1  0  0  0  0
  6 20  1  0  0  0  0
  7  8  1  0  0  0  0
  7 19  2  0  0  0  0
  8  9  2  0  0  0  0
  8 35  1  0  0  0  0
  9 10  1  0  0  0  0
  9 36  1  0  0  0  0
 10 11  1  0  0  0  0
 10 18  2  0  0  0  0
 11 12  1  0  0  0  0
 12 13  1  0  0  0  0
 12 17  2  0  0  0  0
 13 14  2  0  0  0  0
 13 37  1  0  0  0  0
 14 15  1  0  0  0  0
 14 38  1  0  0  0  0
 15 16  2  0  0  0  0
 15 39  1  0  0  0  0
 16 17  1  0  0  0  0
 16 40  1  0  0  0  0
 17 41  1  0  0  0  0
 18 19  1  0  0  0  0
 18 42  1  0  0  0  0
 19 43  1  0  0  0  0
 20 21  1  0  0  0  0
 20 26  2  0  0  0  0
 21 22  1  0  0  0  0
 21 23  2  0  0  0  0
 22 44  1  0  0  0  0
 22 45  1  0  0  0  0
 23 24  1  0  0  0  0
 24 25  2  0  0  0  0
 24 46  1  0  0  0  0
 25 26  1  0  0  0  0
M  END
$$$$
