CHEMBL360534
 OpenBabel04072215363D

 34 37  0  0  0  0  0  0  0  0999 V2000
    1.3877   -1.2402    0.6292 O   0  0  0  0  0  0  0  0  0  0  0  0
    2.3071   -0.4981    0.3207 C   0  0  0  0  0  0  0  0  0  0  0  0
    2.7430    0.6212    0.9872 N   0  0  0  0  0  0  0  0  0  0  0  0
    2.1923    1.1129    2.1781 C   0  0  0  0  0  0  0  0  0  0  0  0
    1.1536    0.5140    2.7885 N   0  0  0  0  0  0  0  0  0  0  0  0
    0.6724    1.0445    3.9269 C   0  0  0  0  0  0  0  0  0  0  0  0
    1.1057    2.1359    4.5711 N   0  0  0  0  0  0  0  0  0  0  0  0
    2.1415    2.6970    3.9340 C   0  0  0  0  0  0  0  0  0  0  0  0
    2.7771    3.8164    4.3841 O   0  0  0  0  0  0  0  0  0  0  0  0
    3.7856    4.1012    3.5062 C   0  0  0  0  0  0  0  0  0  0  0  0
    4.6370    5.2456    3.8191 C   0  0  0  0  0  0  0  0  0  0  0  0
    4.3954    6.0651    4.9303 C   0  0  0  0  0  0  0  0  0  0  0  0
    5.2604    7.1192    5.2419 C   0  0  0  0  0  0  0  0  0  0  0  0
    6.3746    7.3701    4.4441 C   0  0  0  0  0  0  0  0  0  0  0  0
    6.6158    6.5827    3.3235 C   0  0  0  0  0  0  0  0  0  0  0  0
    5.7508    5.5303    3.0124 C   0  0  0  0  0  0  0  0  0  0  0  0
    3.7862    3.1699    2.4858 C   0  0  0  0  0  0  0  0  0  0  0  0
    2.7338    2.2611    2.7592 C   0  0  0  0  0  0  0  0  0  0  0  0
    3.0796   -0.7607   -0.9366 C   0  0  0  0  0  0  0  0  0  0  0  0
    2.3478   -0.7918   -2.2589 C   0  0  0  0  0  0  0  0  0  0  0  0
    2.8995   -2.0631   -1.6833 C   0  0  0  0  0  0  0  0  0  0  0  0
    3.5084    1.1415    0.5897 H   0  0  0  0  0  0  0  0  0  0  0  0
   -0.1683    0.5214    4.3734 H   0  0  0  0  0  0  0  0  0  0  0  0
    3.5355    5.8859    5.5732 H   0  0  0  0  0  0  0  0  0  0  0  0
    5.0668    7.7385    6.1142 H   0  0  0  0  0  0  0  0  0  0  0  0
    7.0555    8.1791    4.6963 H   0  0  0  0  0  0  0  0  0  0  0  0
    7.4813    6.7755    2.6956 H   0  0  0  0  0  0  0  0  0  0  0  0
    5.9722    4.9303    2.1346 H   0  0  0  0  0  0  0  0  0  0  0  0
    4.4758    3.1424    1.6559 H   0  0  0  0  0  0  0  0  0  0  0  0
    4.0867   -0.3534   -0.9534 H   0  0  0  0  0  0  0  0  0  0  0  0
    2.8391   -0.3764   -3.1305 H   0  0  0  0  0  0  0  0  0  0  0  0
    1.2699   -0.6665   -2.2527 H   0  0  0  0  0  0  0  0  0  0  0  0
    3.7701   -2.5039   -2.1535 H   0  0  0  0  0  0  0  0  0  0  0  0
    2.1967   -2.7897   -1.2867 H   0  0  0  0  0  0  0  0  0  0  0  0
  1  2  2  0  0  0  0
  2  3  1  0  0  0  0
  2 19  1  0  0  0  0
  3  4  1  0  0  0  0
  3 22  1  0  0  0  0
  4  5  1  0  0  0  0
  4 18  2  0  0  0  0
  5  6  2  0  0  0  0
  6  7  1  0  0  0  0
  6 23  1  0  0  0  0
  7  8  2  0  0  0  0
  8  9  1  0  0  0  0
  8 18  1  0  0  0  0
  9 10  1  0  0  0  0
 10 11  1  0  0  0  0
 10 17  2  0  0  0  0
 11 12  1  0  0  0  0
 11 16  2  0  0  0  0
 12 13  2  0  0  0  0
 12 24  1  0  0  0  0
 13 14  1  0  0  0  0
 13 25  1  0  0  0  0
 14 15  2  0  0  0  0
 14 26  1  0  0  0  0
 15 16  1  0  0  0  0
 15 27  1  0  0  0  0
 16 28  1  0  0  0  0
 17 18  1  0  0  0  0
 17 29  1  0  0  0  0
 19 20  1  0  0  0  0
 19 21  1  0  0  0  0
 19 30  1  0  0  0  0
 20 21  1  0  0  0  0
 20 31  1  0  0  0  0
 20 32  1  0  0  0  0
 21 33  1  0  0  0  0
 21 34  1  0  0  0  0
M  END
$$$$
