CHEMBL3671524
 OpenBabel04072215373D

 56 58  0  0  0  0  0  0  0  0999 V2000
    2.5146   -1.9031   -1.6904 C   0  0  0  0  0  0  0  0  0  0  0  0
    3.1984   -0.9811   -0.9977 C   0  0  0  0  0  0  0  0  0  0  0  0
    4.0253    0.0115   -1.7257 C   0  0  0  0  0  0  0  0  0  0  0  0
    4.1984   -0.0816   -2.9389 O   0  0  0  0  0  0  0  0  0  0  0  0
    4.4948    1.0430   -0.9290 N   0  0  0  0  0  0  0  0  0  0  0  0
    5.1984    2.1061   -1.5319 C   0  0  0  0  0  0  0  0  0  0  0  0
    6.2786    1.7930   -2.3644 C   0  0  0  0  0  0  0  0  0  0  0  0
    6.9167    2.7820   -3.1383 C   0  0  0  0  0  0  0  0  0  0  0  0
    7.9447    2.5356   -4.0592 C   0  0  0  0  0  0  0  0  0  0  0  0
    8.3761    1.2103   -4.2692 N   0  0  0  0  0  0  0  0  0  0  0  0
    9.6645    0.7541   -4.6037 C   0  0  0  0  0  0  0  0  0  0  0  0
   10.8154    1.4628   -4.2381 C   0  0  0  0  0  0  0  0  0  0  0  0
   12.0846    0.8978   -4.3983 C   0  0  0  0  0  0  0  0  0  0  0  0
   12.2099   -0.3810   -4.9346 C   0  0  0  0  0  0  0  0  0  0  0  0
   13.9162   -1.1870   -5.0362 Br  0  0  0  0  0  0  0  0  0  0  0  0
   11.0861   -1.0856   -5.3541 C   0  0  0  0  0  0  0  0  0  0  0  0
    9.8295   -0.5147   -5.1787 C   0  0  0  0  0  0  0  0  0  0  0  0
    8.7447   -1.2152   -5.5483 F   0  0  0  0  0  0  0  0  0  0  0  0
    8.5195    3.5257   -4.7657 N   0  0  0  0  0  0  0  0  0  0  0  0
    8.0361    4.7572   -4.5718 C   0  0  0  0  0  0  0  0  0  0  0  0
    7.0683    5.0997   -3.7149 N   0  0  0  0  0  0  0  0  0  0  0  0
    6.5193    4.1124   -3.0045 C   0  0  0  0  0  0  0  0  0  0  0  0
    5.5025    4.4196   -2.1114 C   0  0  0  0  0  0  0  0  0  0  0  0
    4.7955    3.4447   -1.3963 C   0  0  0  0  0  0  0  0  0  0  0  0
    3.6642    3.7238   -0.6491 O   0  0  0  0  0  0  0  0  0  0  0  0
    3.0714    5.0017   -0.9590 C   0  0  0  0  0  0  0  0  0  0  0  0
    1.6531    5.1464   -0.4065 C   0  0  0  0  0  0  0  0  0  0  0  0
    0.9836    6.3322   -0.9435 N   0  0  0  0  0  0  0  0  0  0  0  0
    1.1875    7.5802   -0.4164 C   0  0  0  0  0  0  0  0  0  0  0  0
    1.9388    7.7816    0.5357 O   0  0  0  0  0  0  0  0  0  0  0  0
    0.4657    8.7131   -1.1315 C   0  0  0  0  0  0  0  0  0  0  0  0
   -1.0397    8.4984   -1.2615 C   0  0  0  0  0  0  0  0  0  0  0  0
   -1.7344    8.3623    0.0870 C   0  0  0  0  0  0  0  0  0  0  0  0
    1.9188   -2.6549   -1.1897 H   0  0  0  0  0  0  0  0  0  0  0  0
    2.5403   -1.9282   -2.7793 H   0  0  0  0  0  0  0  0  0  0  0  0
    3.1829   -0.9616    0.0847 H   0  0  0  0  0  0  0  0  0  0  0  0
    4.0203    1.2357   -0.0556 H   0  0  0  0  0  0  0  0  0  0  0  0
    6.6156    0.7594   -2.4282 H   0  0  0  0  0  0  0  0  0  0  0  0
    7.6281    0.6252   -4.6340 H   0  0  0  0  0  0  0  0  0  0  0  0
   10.7321    2.4457   -3.7806 H   0  0  0  0  0  0  0  0  0  0  0  0
   12.9573    1.4567   -4.0705 H   0  0  0  0  0  0  0  0  0  0  0  0
   11.1650   -2.0784   -5.7834 H   0  0  0  0  0  0  0  0  0  0  0  0
    8.4628    5.5509   -5.1713 H   0  0  0  0  0  0  0  0  0  0  0  0
    5.2456    5.4734   -2.0371 H   0  0  0  0  0  0  0  0  0  0  0  0
    3.0029    5.1199   -2.0493 H   0  0  0  0  0  0  0  0  0  0  0  0
    3.6955    5.8017   -0.5421 H   0  0  0  0  0  0  0  0  0  0  0  0
    1.6788    5.2075    0.6868 H   0  0  0  0  0  0  0  0  0  0  0  0
    1.0438    4.2784   -0.6759 H   0  0  0  0  0  0  0  0  0  0  0  0
    0.5496    6.2574   -1.8542 H   0  0  0  0  0  0  0  0  0  0  0  0
    0.9135    8.8219   -2.1295 H   0  0  0  0  0  0  0  0  0  0  0  0
    0.6717    9.6302   -0.5888 H   0  0  0  0  0  0  0  0  0  0  0  0
   -1.2548    7.6081   -1.8659 H   0  0  0  0  0  0  0  0  0  0  0  0
   -1.4769    9.3505   -1.7973 H   0  0  0  0  0  0  0  0  0  0  0  0
   -1.3548    7.5019    0.6468 H   0  0  0  0  0  0  0  0  0  0  0  0
   -2.8098    8.2191   -0.0539 H   0  0  0  0  0  0  0  0  0  0  0  0
   -1.5865    9.2606    0.6947 H   0  0  0  0  0  0  0  0  0  0  0  0
  1  2  2  0  0  0  0
  1 34  1  0  0  0  0
  1 35  1  0  0  0  0
  2  3  1  0  0  0  0
  2 36  1  0  0  0  0
  3  4  2  0  0  0  0
  3  5  1  0  0  0  0
  5  6  1  0  0  0  0
  5 37  1  0  0  0  0
  6  7  1  0  0  0  0
  6 24  2  0  0  0  0
  7  8  2  0  0  0  0
  7 38  1  0  0  0  0
  8  9  1  0  0  0  0
  8 22  1  0  0  0  0
  9 10  1  0  0  0  0
  9 19  2  0  0  0  0
 10 11  1  0  0  0  0
 10 39  1  0  0  0  0
 11 12  1  0  0  0  0
 11 17  2  0  0  0  0
 12 13  2  0  0  0  0
 12 40  1  0  0  0  0
 13 14  1  0  0  0  0
 13 41  1  0  0  0  0
 14 15  1  0  0  0  0
 14 16  2  0  0  0  0
 16 17  1  0  0  0  0
 16 42  1  0  0  0  0
 17 18  1  0  0  0  0
 19 20  1  0  0  0  0
 20 21  2  0  0  0  0
 20 43  1  0  0  0  0
 21 22  1  0  0  0  0
 22 23  2  0  0  0  0
 23 24  1  0  0  0  0
 23 44  1  0  0  0  0
 24 25  1  0  0  0  0
 25 26  1  0  0  0  0
 26 27  1  0  0  0  0
 26 45  1  0  0  0  0
 26 46  1  0  0  0  0
 27 28  1  0  0  0  0
 27 47  1  0  0  0  0
 27 48  1  0  0  0  0
 28 29  1  0  0  0  0
 28 49  1  0  0  0  0
 29 30  2  0  0  0  0
 29 31  1  0  0  0  0
 31 32  1  0  0  0  0
 31 50  1  0  0  0  0
 31 51  1  0  0  0  0
 32 33  1  0  0  0  0
 32 52  1  0  0  0  0
 32 53  1  0  0  0  0
 33 54  1  0  0  0  0
 33 55  1  0  0  0  0
 33 56  1  0  0  0  0
M  END
$$$$
