CHEMBL1083091
 OpenBabel04072215363D

 54 58  0  0  0  0  0  0  0  0999 V2000
    1.7069    1.7349   -1.4704 C   0  0  0  0  0  0  0  0  0  0  0  0
    0.7203    0.7526   -1.0294 N   0  0  0  0  0  0  0  0  0  0  0  0
    0.5094    0.8501    0.4331 C   0  0  0  0  0  0  0  0  0  0  0  0
   -0.5492   -0.1503    0.9555 C   0  0  0  0  0  0  0  0  0  0  0  0
   -1.8043    0.0342    0.2198 N   0  0  0  0  0  0  0  0  0  0  0  0
   -3.0315    0.0147    0.8490 C   0  0  0  0  0  0  0  0  0  0  0  0
   -3.2534   -0.6862    2.0413 C   0  0  0  0  0  0  0  0  0  0  0  0
   -4.4764   -0.6207    2.7169 C   0  0  0  0  0  0  0  0  0  0  0  0
   -5.5132    0.1609    2.2125 C   0  0  0  0  0  0  0  0  0  0  0  0
   -5.3378    0.8645    1.0190 C   0  0  0  0  0  0  0  0  0  0  0  0
   -6.3891    1.7306    0.5092 C   0  0  0  0  0  0  0  0  0  0  0  0
   -7.3204    2.5304    1.2025 C   0  0  0  0  0  0  0  0  0  0  0  0
   -8.1328    3.2171    0.3985 N   0  0  0  0  0  0  0  0  0  0  0  0
   -7.7138    2.8854   -0.8601 N   0  0  0  0  0  0  0  0  0  0  0  0
   -8.2589    3.3563   -2.0873 C   0  0  0  0  0  0  0  0  0  0  0  0
   -9.2879    4.2968   -2.0061 N   0  0  0  0  0  0  0  0  0  0  0  0
   -7.7616    2.8470   -3.2338 C   0  0  0  0  0  0  0  0  0  0  0  0
   -8.2406    3.1766   -4.5791 C   0  0  0  0  0  0  0  0  0  0  0  0
   -7.7130    4.2702   -5.2775 C   0  0  0  0  0  0  0  0  0  0  0  0
   -8.1175    4.5260   -6.5898 C   0  0  0  0  0  0  0  0  0  0  0  0
   -9.0509    3.6889   -7.1931 C   0  0  0  0  0  0  0  0  0  0  0  0
   -9.4579    3.8859   -8.4784 O   0  0  0  0  0  0  0  0  0  0  0  0
   -9.5974    2.6127   -6.5035 C   0  0  0  0  0  0  0  0  0  0  0  0
   -9.1931    2.3547   -5.1946 C   0  0  0  0  0  0  0  0  0  0  0  0
   -6.6478    1.8621   -3.0843 C   0  0  0  0  0  0  0  0  0  0  0  0
   -6.1280    1.4389   -1.9754 N   0  0  0  0  0  0  0  0  0  0  0  0
   -6.6708    1.9508   -0.8277 C   0  0  0  0  0  0  0  0  0  0  0  0
   -4.1036    0.7709    0.3531 C   0  0  0  0  0  0  0  0  0  0  0  0
   -1.6693   -0.0246   -1.2449 C   0  0  0  0  0  0  0  0  0  0  0  0
   -0.5762    0.9644   -1.7169 C   0  0  0  0  0  0  0  0  0  0  0  0
    2.6675    1.5599   -0.9732 H   0  0  0  0  0  0  0  0  0  0  0  0
    1.3943    2.7643   -1.2624 H   0  0  0  0  0  0  0  0  0  0  0  0
    1.8872    1.6390   -2.5463 H   0  0  0  0  0  0  0  0  0  0  0  0
    0.1896    1.8679    0.6989 H   0  0  0  0  0  0  0  0  0  0  0  0
    1.4525    0.6565    0.9570 H   0  0  0  0  0  0  0  0  0  0  0  0
   -0.6742    0.0391    2.0280 H   0  0  0  0  0  0  0  0  0  0  0  0
   -0.1947   -1.1809    0.8335 H   0  0  0  0  0  0  0  0  0  0  0  0
   -2.4712   -1.3131    2.4609 H   0  0  0  0  0  0  0  0  0  0  0  0
   -4.6118   -1.1751    3.6415 H   0  0  0  0  0  0  0  0  0  0  0  0
   -6.4514    0.2075    2.7583 H   0  0  0  0  0  0  0  0  0  0  0  0
   -7.4323    2.6472    2.2728 H   0  0  0  0  0  0  0  0  0  0  0  0
   -9.7206    4.2928   -1.0791 H   0  0  0  0  0  0  0  0  0  0  0  0
   -9.9556    4.2505   -2.7716 H   0  0  0  0  0  0  0  0  0  0  0  0
   -6.9768    4.9200   -4.8080 H   0  0  0  0  0  0  0  0  0  0  0  0
   -7.6897    5.3703   -7.1227 H   0  0  0  0  0  0  0  0  0  0  0  0
   -8.9834    4.6514   -8.8430 H   0  0  0  0  0  0  0  0  0  0  0  0
  -10.3266    1.9697   -6.9886 H   0  0  0  0  0  0  0  0  0  0  0  0
   -9.6154    1.5016   -4.6662 H   0  0  0  0  0  0  0  0  0  0  0  0
   -6.2343    1.4706   -4.0307 H   0  0  0  0  0  0  0  0  0  0  0  0
   -3.9546    1.3617   -0.5466 H   0  0  0  0  0  0  0  0  0  0  0  0
   -2.6010    0.1998   -1.7743 H   0  0  0  0  0  0  0  0  0  0  0  0
   -1.3871   -1.0457   -1.5341 H   0  0  0  0  0  0  0  0  0  0  0  0
   -0.9323    1.9900   -1.5466 H   0  0  0  0  0  0  0  0  0  0  0  0
   -0.4407    0.8399   -2.7980 H   0  0  0  0  0  0  0  0  0  0  0  0
  1  2  1  0  0  0  0
  1 31  1  0  0  0  0
  1 32  1  0  0  0  0
  1 33  1  0  0  0  0
  2  3  1  0  0  0  0
  2 30  1  0  0  0  0
  3  4  1  0  0  0  0
  3 34  1  0  0  0  0
  3 35  1  0  0  0  0
  4  5  1  0  0  0  0
  4 36  1  0  0  0  0
  4 37  1  0  0  0  0
  5  6  1  0  0  0  0
  5 29  1  0  0  0  0
  6  7  1  0  0  0  0
  6 28  2  0  0  0  0
  7  8  2  0  0  0  0
  7 38  1  0  0  0  0
  8  9  1  0  0  0  0
  8 39  1  0  0  0  0
  9 10  2  0  0  0  0
  9 40  1  0  0  0  0
 10 11  1  0  0  0  0
 10 28  1  0  0  0  0
 11 12  1  0  0  0  0
 11 27  2  0  0  0  0
 12 13  2  0  0  0  0
 12 41  1  0  0  0  0
 13 14  1  0  0  0  0
 14 15  1  0  0  0  0
 14 27  1  0  0  0  0
 15 16  1  0  0  0  0
 15 17  2  0  0  0  0
 16 42  1  0  0  0  0
 16 43  1  0  0  0  0
 17 18  1  0  0  0  0
 17 25  1  0  0  0  0
 18 19  1  0  0  0  0
 18 24  2  0  0  0  0
 19 20  2  0  0  0  0
 19 44  1  0  0  0  0
 20 21  1  0  0  0  0
 20 45  1  0  0  0  0
 21 22  1  0  0  0  0
 21 23  2  0  0  0  0
 22 46  1  0  0  0  0
 23 24  1  0  0  0  0
 23 47  1  0  0  0  0
 24 48  1  0  0  0  0
 25 26  2  0  0  0  0
 25 49  1  0  0  0  0
 26 27  1  0  0  0  0
 28 50  1  0  0  0  0
 29 30  1  0  0  0  0
 29 51  1  0  0  0  0
 29 52  1  0  0  0  0
 30 53  1  0  0  0  0
 30 54  1  0  0  0  0
M  END
$$$$
