CHEMBL2322141
 OpenBabel04072215363D

 33 36  0  0  0  0  0  0  0  0999 V2000
   -2.5150   -1.0312   -2.1526 C   0  0  0  0  0  0  0  0  0  0  0  0
   -1.4452   -1.6913   -1.5737 C   0  0  0  0  0  0  0  0  0  0  0  0
   -0.5323   -0.6896   -1.2185 C   0  0  0  0  0  0  0  0  0  0  0  0
   -1.0324    0.5456   -1.5786 C   0  0  0  0  0  0  0  0  0  0  0  0
   -0.4726    1.7782   -1.4195 N   0  0  0  0  0  0  0  0  0  0  0  0
    0.7114    1.7555   -0.8469 C   0  0  0  0  0  0  0  0  0  0  0  0
    1.3509    0.5296   -0.4289 C   0  0  0  0  0  0  0  0  0  0  0  0
    2.5182    0.3538    0.1429 N   0  0  0  0  0  0  0  0  0  0  0  0
    2.6544   -1.0086    0.3650 N   0  0  0  0  0  0  0  0  0  0  0  0
    1.5618   -1.6198   -0.0669 C   0  0  0  0  0  0  0  0  0  0  0  0
    1.2025   -3.0606    0.0627 C   0  0  0  0  0  0  0  0  0  0  0  0
    1.8211   -3.7047    1.3083 C   0  0  0  0  0  0  0  0  0  0  0  0
    1.3086   -5.1356    1.4628 C   0  0  0  0  0  0  0  0  0  0  0  0
    1.5914   -5.9696    0.2148 C   0  0  0  0  0  0  0  0  0  0  0  0
    1.0560   -5.3065   -1.0533 C   0  0  0  0  0  0  0  0  0  0  0  0
    1.5537   -3.8672   -1.1944 C   0  0  0  0  0  0  0  0  0  0  0  0
    0.7270   -0.6772   -0.6042 N   0  0  0  0  0  0  0  0  0  0  0  0
   -2.2546    0.3204   -2.1508 N   0  0  0  0  0  0  0  0  0  0  0  0
   -3.4397   -1.4105   -2.5673 H   0  0  0  0  0  0  0  0  0  0  0  0
   -1.3733   -2.7625   -1.4472 H   0  0  0  0  0  0  0  0  0  0  0  0
    1.2383    2.7076   -0.6738 H   0  0  0  0  0  0  0  0  0  0  0  0
    0.1174   -3.1166    0.2096 H   0  0  0  0  0  0  0  0  0  0  0  0
    1.5582   -3.1269    2.2031 H   0  0  0  0  0  0  0  0  0  0  0  0
    2.9169   -3.7072    1.2427 H   0  0  0  0  0  0  0  0  0  0  0  0
    0.2264   -5.1125    1.6460 H   0  0  0  0  0  0  0  0  0  0  0  0
    1.7693   -5.6038    2.3390 H   0  0  0  0  0  0  0  0  0  0  0  0
    1.1410   -6.9620    0.3281 H   0  0  0  0  0  0  0  0  0  0  0  0
    2.6736   -6.1164    0.1163 H   0  0  0  0  0  0  0  0  0  0  0  0
   -0.0414   -5.3051   -1.0253 H   0  0  0  0  0  0  0  0  0  0  0  0
    1.3490   -5.8921   -1.9317 H   0  0  0  0  0  0  0  0  0  0  0  0
    1.0992   -3.4173   -2.0855 H   0  0  0  0  0  0  0  0  0  0  0  0
    2.6382   -3.8650   -1.3662 H   0  0  0  0  0  0  0  0  0  0  0  0
   -2.8598    1.0469   -2.5120 H   0  0  0  0  0  0  0  0  0  0  0  0
  1  2  2  0  0  0  0
  1 18  1  0  0  0  0
  1 19  1  0  0  0  0
  2  3  1  0  0  0  0
  2 20  1  0  0  0  0
  3  4  2  0  0  0  0
  3 17  1  0  0  0  0
  4  5  1  0  0  0  0
  4 18  1  0  0  0  0
  5  6  2  0  0  0  0
  6  7  1  0  0  0  0
  6 21  1  0  0  0  0
  7  8  2  0  0  0  0
  7 17  1  0  0  0  0
  8  9  1  0  0  0  0
  9 10  2  0  0  0  0
 10 11  1  0  0  0  0
 10 17  1  0  0  0  0
 11 12  1  0  0  0  0
 11 16  1  0  0  0  0
 11 22  1  0  0  0  0
 12 13  1  0  0  0  0
 12 23  1  0  0  0  0
 12 24  1  0  0  0  0
 13 14  1  0  0  0  0
 13 25  1  0  0  0  0
 13 26  1  0  0  0  0
 14 15  1  0  0  0  0
 14 27  1  0  0  0  0
 14 28  1  0  0  0  0
 15 16  1  0  0  0  0
 15 29  1  0  0  0  0
 15 30  1  0  0  0  0
 16 31  1  0  0  0  0
 16 32  1  0  0  0  0
 18 33  1  0  0  0  0
M  END
$$$$
