CHEMBL3917093
 OpenBabel04072215373D

 80 83  0  0  1  0  0  0  0  0999 V2000
   -0.0295   -1.2466    6.4047 C   0  0  0  0  0  0  0  0  0  0  0  0
   -0.1248   -2.6636    5.8225 C   0  0  1  0  0  0  0  0  0  0  0  0
    1.1740   -3.1285    5.3256 N   0  0  0  0  0  0  0  0  0  0  0  0
    1.7401   -2.3995    4.2772 C   0  0  0  0  0  0  0  0  0  0  0  0
    0.9757   -1.7047    3.4041 N   0  0  0  0  0  0  0  0  0  0  0  0
    1.5933   -0.9768    2.4512 C   0  0  0  0  0  0  0  0  0  0  0  0
    2.9109   -0.8359    2.2341 N   0  0  0  0  0  0  0  0  0  0  0  0
    3.6346   -1.5543    3.1109 C   0  0  0  0  0  0  0  0  0  0  0  0
    3.1346   -2.3514    4.1210 C   0  0  0  0  0  0  0  0  0  0  0  0
    4.2554   -2.9111    4.7854 C   0  0  0  0  0  0  0  0  0  0  0  0
    5.4246   -2.4351    4.1974 C   0  0  0  0  0  0  0  0  0  0  0  0
    6.8125   -2.7624    4.5695 C   0  0  0  0  0  0  0  0  0  0  0  0
    7.1267   -4.0417    5.0627 C   0  0  0  0  0  0  0  0  0  0  0  0
    8.4456   -4.3949    5.3804 C   0  0  0  0  0  0  0  0  0  0  0  0
    9.4747   -3.4713    5.1899 C   0  0  0  0  0  0  0  0  0  0  0  0
   10.9054   -3.7965    5.4369 C   0  0  0  0  0  0  0  0  0  0  0  0
   11.7757   -3.2132    4.7995 O   0  0  0  0  0  0  0  0  0  0  0  0
   11.1743   -4.7393    6.3988 N   0  0  0  0  0  0  0  0  0  0  0  0
   12.5550   -4.9955    6.7997 C   0  0  0  0  0  0  0  0  0  0  0  0
   13.0805   -3.9867    7.8334 C   0  0  0  0  0  0  0  0  0  0  0  0
   12.3030   -4.0343    9.0848 N   0  0  0  0  0  0  0  0  0  0  0  0
   12.8573   -3.0951   10.0654 C   0  0  0  0  0  0  0  0  0  0  0  0
   12.0347   -3.1540   11.3542 C   0  0  0  0  0  0  0  0  0  0  0  0
   12.5885   -2.1875   12.4011 C   0  0  0  0  0  0  0  0  0  0  0  0
   11.7764   -2.2350   13.6963 C   0  0  0  0  0  0  0  0  0  0  0  0
   12.3478   -1.2609   14.7255 C   0  0  0  0  0  0  0  0  0  0  0  0
   11.5550   -1.2777   16.0299 C   0  0  0  0  0  0  0  0  0  0  0  0
   12.1277   -0.3059   17.0394 C   0  0  0  0  0  0  0  0  0  0  0  0
   13.1224    0.3895   16.8534 O   0  0  0  0  0  0  0  0  0  0  0  0
   11.4265   -0.2586   18.2178 N   0  0  0  0  0  0  0  0  0  0  0  0
   11.9479    0.5897   19.2193 O   0  0  0  0  0  0  0  0  0  0  0  0
    9.1729   -2.1928    4.7171 C   0  0  0  0  0  0  0  0  0  0  0  0
    7.8499   -1.8314    4.4586 C   0  0  0  0  0  0  0  0  0  0  0  0
    5.0117   -1.6111    3.1557 N   0  0  0  0  0  0  0  0  0  0  0  0
    5.8125   -0.8867    2.1925 C   0  0  0  0  0  0  0  0  0  0  0  0
   -0.5694   -3.6352    6.9145 C   0  0  0  0  0  0  0  0  0  0  0  0
   -1.7831   -4.3299    6.8045 C   0  0  0  0  0  0  0  0  0  0  0  0
   -2.1860   -5.2172    7.8069 C   0  0  0  0  0  0  0  0  0  0  0  0
   -1.3834   -5.4217    8.9279 C   0  0  0  0  0  0  0  0  0  0  0  0
   -0.1758   -4.7402    9.0522 C   0  0  0  0  0  0  0  0  0  0  0  0
    0.2287   -3.8557    8.0525 C   0  0  0  0  0  0  0  0  0  0  0  0
    0.1683   -0.5036    5.6255 H   0  0  0  0  0  0  0  0  0  0  0  0
    0.7805   -1.1609    7.1386 H   0  0  0  0  0  0  0  0  0  0  0  0
   -0.9645   -0.9600    6.8990 H   0  0  0  0  0  0  0  0  0  0  0  0
   -0.8679   -2.6760    5.0148 H   0  0  0  0  0  0  0  0  0  0  0  0
    1.0960   -4.0936    5.0118 H   0  0  0  0  0  0  0  0  0  0  0  0
    0.9425   -0.4306    1.7750 H   0  0  0  0  0  0  0  0  0  0  0  0
    4.2016   -3.5834    5.6325 H   0  0  0  0  0  0  0  0  0  0  0  0
    6.3461   -4.7898    5.1891 H   0  0  0  0  0  0  0  0  0  0  0  0
    8.6518   -5.4010    5.7345 H   0  0  0  0  0  0  0  0  0  0  0  0
   10.4588   -4.9668    7.0736 H   0  0  0  0  0  0  0  0  0  0  0  0
   13.1924   -4.9653    5.9085 H   0  0  0  0  0  0  0  0  0  0  0  0
   12.5846   -6.0126    7.2020 H   0  0  0  0  0  0  0  0  0  0  0  0
   13.0436   -2.9739    7.4145 H   0  0  0  0  0  0  0  0  0  0  0  0
   14.1301   -4.2278    8.0415 H   0  0  0  0  0  0  0  0  0  0  0  0
   12.3413   -4.9769    9.4687 H   0  0  0  0  0  0  0  0  0  0  0  0
   12.8351   -2.0739    9.6665 H   0  0  0  0  0  0  0  0  0  0  0  0
   13.9012   -3.3498   10.2869 H   0  0  0  0  0  0  0  0  0  0  0  0
   12.0461   -4.1743   11.7581 H   0  0  0  0  0  0  0  0  0  0  0  0
   10.9892   -2.9014   11.1387 H   0  0  0  0  0  0  0  0  0  0  0  0
   12.5788   -1.1666   11.9996 H   0  0  0  0  0  0  0  0  0  0  0  0
   13.6345   -2.4391   12.6157 H   0  0  0  0  0  0  0  0  0  0  0  0
   11.7892   -3.2532   14.1035 H   0  0  0  0  0  0  0  0  0  0  0  0
   10.7301   -1.9819   13.4868 H   0  0  0  0  0  0  0  0  0  0  0  0
   12.3473   -0.2455   14.3097 H   0  0  0  0  0  0  0  0  0  0  0  0
   13.3953   -1.5165   14.9292 H   0  0  0  0  0  0  0  0  0  0  0  0
   11.5748   -2.2820   16.4683 H   0  0  0  0  0  0  0  0  0  0  0  0
   10.5106   -1.0052   15.8391 H   0  0  0  0  0  0  0  0  0  0  0  0
   10.6821   -0.8926   18.4837 H   0  0  0  0  0  0  0  0  0  0  0  0
   12.7254    0.9882   18.7690 H   0  0  0  0  0  0  0  0  0  0  0  0
    9.9680   -1.4685    4.5507 H   0  0  0  0  0  0  0  0  0  0  0  0
    7.6563   -0.8055    4.1607 H   0  0  0  0  0  0  0  0  0  0  0  0
    6.8551   -1.1936    2.2212 H   0  0  0  0  0  0  0  0  0  0  0  0
    5.7240    0.1812    2.4145 H   0  0  0  0  0  0  0  0  0  0  0  0
    5.4355   -1.1005    1.1893 H   0  0  0  0  0  0  0  0  0  0  0  0
   -2.4275   -4.1835    5.9405 H   0  0  0  0  0  0  0  0  0  0  0  0
   -3.1297   -5.7488    7.7153 H   0  0  0  0  0  0  0  0  0  0  0  0
   -1.6986   -6.1114    9.7066 H   0  0  0  0  0  0  0  0  0  0  0  0
    0.4526   -4.8967    9.9246 H   0  0  0  0  0  0  0  0  0  0  0  0
    1.1787   -3.3347    8.1581 H   0  0  0  0  0  0  0  0  0  0  0  0
  1  2  1  0  0  0  0
  1 42  1  0  0  0  0
  1 43  1  0  0  0  0
  1 44  1  0  0  0  0
  2  3  1  0  0  0  0
  2 36  1  0  0  0  0
  2 45  1  6  0  0  0
  3  4  1  0  0  0  0
  3 46  1  0  0  0  0
  4  5  1  0  0  0  0
  4  9  2  0  0  0  0
  5  6  2  0  0  0  0
  6  7  1  0  0  0  0
  6 47  1  0  0  0  0
  7  8  2  0  0  0  0
  8  9  1  0  0  0  0
  8 34  1  0  0  0  0
  9 10  1  0  0  0  0
 10 11  2  0  0  0  0
 10 48  1  0  0  0  0
 11 12  1  0  0  0  0
 11 34  1  0  0  0  0
 12 13  1  0  0  0  0
 12 33  2  0  0  0  0
 13 14  2  0  0  0  0
 13 49  1  0  0  0  0
 14 15  1  0  0  0  0
 14 50  1  0  0  0  0
 15 16  1  0  0  0  0
 15 32  2  0  0  0  0
 16 17  2  0  0  0  0
 16 18  1  0  0  0  0
 18 19  1  0  0  0  0
 18 51  1  0  0  0  0
 19 20  1  0  0  0  0
 19 52  1  0  0  0  0
 19 53  1  0  0  0  0
 20 21  1  0  0  0  0
 20 54  1  0  0  0  0
 20 55  1  0  0  0  0
 21 22  1  0  0  0  0
 21 56  1  0  0  0  0
 22 23  1  0  0  0  0
 22 57  1  0  0  0  0
 22 58  1  0  0  0  0
 23 24  1  0  0  0  0
 23 59  1  0  0  0  0
 23 60  1  0  0  0  0
 24 25  1  0  0  0  0
 24 61  1  0  0  0  0
 24 62  1  0  0  0  0
 25 26  1  0  0  0  0
 25 63  1  0  0  0  0
 25 64  1  0  0  0  0
 26 27  1  0  0  0  0
 26 65  1  0  0  0  0
 26 66  1  0  0  0  0
 27 28  1  0  0  0  0
 27 67  1  0  0  0  0
 27 68  1  0  0  0  0
 28 29  2  0  0  0  0
 28 30  1  0  0  0  0
 30 31  1  0  0  0  0
 30 69  1  0  0  0  0
 31 70  1  0  0  0  0
 32 33  1  0  0  0  0
 32 71  1  0  0  0  0
 33 72  1  0  0  0  0
 34 35  1  0  0  0  0
 35 73  1  0  0  0  0
 35 74  1  0  0  0  0
 35 75  1  0  0  0  0
 36 37  1  0  0  0  0
 36 41  2  0  0  0  0
 37 38  2  0  0  0  0
 37 76  1  0  0  0  0
 38 39  1  0  0  0  0
 38 77  1  0  0  0  0
 39 40  2  0  0  0  0
 39 78  1  0  0  0  0
 40 41  1  0  0  0  0
 40 79  1  0  0  0  0
 41 80  1  0  0  0  0
M  END
$$$$
