CHEMBL47166
 OpenBabel04072215383D

 44 47  0  0  0  0  0  0  0  0999 V2000
   -2.0399    1.1211   -1.6477 C   0  0  0  0  0  0  0  0  0  0  0  0
   -0.8808    0.1865   -1.4809 C   0  0  0  0  0  0  0  0  0  0  0  0
   -1.0510   -1.0320   -0.8390 C   0  0  0  0  0  0  0  0  0  0  0  0
    0.0257   -1.9143   -0.7240 C   0  0  0  0  0  0  0  0  0  0  0  0
   -0.1069   -3.1705   -0.1016 N   0  0  0  0  0  0  0  0  0  0  0  0
   -1.2907   -3.9043   -0.0006 C   0  0  0  0  0  0  0  0  0  0  0  0
   -1.4629   -4.7059    1.0538 N   0  0  0  0  0  0  0  0  0  0  0  0
   -2.6407   -5.3631    1.1327 C   0  0  0  0  0  0  0  0  0  0  0  0
   -3.6488   -5.2596    0.1998 C   0  0  0  0  0  0  0  0  0  0  0  0
   -3.3510   -4.4716   -0.8849 C   0  0  0  0  0  0  0  0  0  0  0  0
   -4.2424   -4.3778   -1.9895 N   0  0  0  0  0  0  0  0  0  0  0  0
   -5.6188   -4.4183   -1.9110 C   0  0  0  0  0  0  0  0  0  0  0  0
   -6.0734   -4.0976   -3.1648 C   0  0  0  0  0  0  0  0  0  0  0  0
   -5.0299   -3.9426   -4.0295 N   0  0  0  0  0  0  0  0  0  0  0  0
   -3.9196   -4.1713   -3.3348 C   0  0  0  0  0  0  0  0  0  0  0  0
   -2.5795   -4.2564   -3.9560 C   0  0  0  0  0  0  0  0  0  0  0  0
   -2.2928   -3.5083   -5.1046 C   0  0  0  0  0  0  0  0  0  0  0  0
   -1.0264   -3.5510   -5.6995 C   0  0  0  0  0  0  0  0  0  0  0  0
   -0.0193   -4.3365   -5.1454 C   0  0  0  0  0  0  0  0  0  0  0  0
   -0.2935   -5.1170   -4.0288 C   0  0  0  0  0  0  0  0  0  0  0  0
   -1.5726   -5.1063   -3.4684 C   0  0  0  0  0  0  0  0  0  0  0  0
   -2.1985   -3.7893   -0.9764 N   0  0  0  0  0  0  0  0  0  0  0  0
    1.2565   -1.5135   -1.2403 C   0  0  0  0  0  0  0  0  0  0  0  0
    1.3542   -0.2775   -1.8777 C   0  0  0  0  0  0  0  0  0  0  0  0
    2.6388    0.1726   -2.5041 C   0  0  0  0  0  0  0  0  0  0  0  0
    0.3064    0.5732   -1.9946 N   0  0  0  0  0  0  0  0  0  0  0  0
   -2.9424    0.7397   -1.1587 H   0  0  0  0  0  0  0  0  0  0  0  0
   -2.2604    1.2531   -2.7113 H   0  0  0  0  0  0  0  0  0  0  0  0
   -1.8011    2.0930   -1.2058 H   0  0  0  0  0  0  0  0  0  0  0  0
   -2.0258   -1.2912   -0.4403 H   0  0  0  0  0  0  0  0  0  0  0  0
    0.4317   -3.2827    0.7458 H   0  0  0  0  0  0  0  0  0  0  0  0
   -2.7432   -6.0170    1.9936 H   0  0  0  0  0  0  0  0  0  0  0  0
   -4.5596   -5.8314    0.2970 H   0  0  0  0  0  0  0  0  0  0  0  0
   -6.1508   -4.5695   -0.9823 H   0  0  0  0  0  0  0  0  0  0  0  0
   -7.0976   -3.9661   -3.4911 H   0  0  0  0  0  0  0  0  0  0  0  0
   -3.0651   -2.8808   -5.5493 H   0  0  0  0  0  0  0  0  0  0  0  0
   -0.8254   -2.9622   -6.5910 H   0  0  0  0  0  0  0  0  0  0  0  0
    0.9741   -4.3478   -5.5855 H   0  0  0  0  0  0  0  0  0  0  0  0
    0.4849   -5.7316   -3.5832 H   0  0  0  0  0  0  0  0  0  0  0  0
   -1.7501   -5.7555   -2.6165 H   0  0  0  0  0  0  0  0  0  0  0  0
    2.1146   -2.1754   -1.1909 H   0  0  0  0  0  0  0  0  0  0  0  0
    3.4430   -0.5540   -2.3575 H   0  0  0  0  0  0  0  0  0  0  0  0
    2.9515    1.1247   -2.0640 H   0  0  0  0  0  0  0  0  0  0  0  0
    2.4960    0.3123   -3.5812 H   0  0  0  0  0  0  0  0  0  0  0  0
  1  2  1  0  0  0  0
  1 27  1  0  0  0  0
  1 28  1  0  0  0  0
  1 29  1  0  0  0  0
  2  3  1  0  0  0  0
  2 26  2  0  0  0  0
  3  4  2  0  0  0  0
  3 30  1  0  0  0  0
  4  5  1  0  0  0  0
  4 23  1  0  0  0  0
  5  6  1  0  0  0  0
  5 31  1  0  0  0  0
  6  7  1  0  0  0  0
  6 22  2  0  0  0  0
  7  8  2  0  0  0  0
  8  9  1  0  0  0  0
  8 32  1  0  0  0  0
  9 10  2  0  0  0  0
  9 33  1  0  0  0  0
 10 11  1  0  0  0  0
 10 22  1  0  0  0  0
 11 12  1  0  0  0  0
 11 15  1  0  0  0  0
 12 13  2  0  0  0  0
 12 34  1  0  0  0  0
 13 14  1  0  0  0  0
 13 35  1  0  0  0  0
 14 15  2  0  0  0  0
 15 16  1  0  0  0  0
 16 17  1  0  0  0  0
 16 21  2  0  0  0  0
 17 18  2  0  0  0  0
 17 36  1  0  0  0  0
 18 19  1  0  0  0  0
 18 37  1  0  0  0  0
 19 20  2  0  0  0  0
 19 38  1  0  0  0  0
 20 21  1  0  0  0  0
 20 39  1  0  0  0  0
 21 40  1  0  0  0  0
 23 24  2  0  0  0  0
 23 41  1  0  0  0  0
 24 25  1  0  0  0  0
 24 26  1  0  0  0  0
 25 42  1  0  0  0  0
 25 43  1  0  0  0  0
 25 44  1  0  0  0  0
M  END
$$$$
