CHEMBL1269633
 OpenBabel04072215363D

 31 33  0  0  0  0  0  0  0  0999 V2000
    1.2354    0.5789   -0.5934 O   0  0  0  0  0  0  0  0  0  0  0  0
    2.3610    0.1547   -0.3338 C   0  0  0  0  0  0  0  0  0  0  0  0
    2.8627   -1.0821   -0.6966 N   0  0  0  0  0  0  0  0  0  0  0  0
    2.1620   -2.0308   -1.4985 C   0  0  0  0  0  0  0  0  0  0  0  0
    1.1011   -1.6359   -2.3284 C   0  0  0  0  0  0  0  0  0  0  0  0
    0.3661   -2.5692   -3.0457 C   0  0  0  0  0  0  0  0  0  0  0  0
    0.6927   -3.9130   -2.9510 C   0  0  0  0  0  0  0  0  0  0  0  0
    1.7796   -4.3208   -2.1623 C   0  0  0  0  0  0  0  0  0  0  0  0
    2.1082   -5.6782   -2.0743 C   0  0  0  0  0  0  0  0  0  0  0  0
    3.1888   -6.0760   -1.3019 C   0  0  0  0  0  0  0  0  0  0  0  0
    3.9071   -5.0961   -0.6419 C   0  0  0  0  0  0  0  0  0  0  0  0
    3.6125   -3.7750   -0.6856 N   0  0  0  0  0  0  0  0  0  0  0  0
    2.5515   -3.3814   -1.4358 C   0  0  0  0  0  0  0  0  0  0  0  0
    3.2229    1.0463    0.4773 C   0  0  0  0  0  0  0  0  0  0  0  0
    2.5836    1.9036    1.3890 C   0  0  0  0  0  0  0  0  0  0  0  0
    3.3067    2.8809    2.0711 C   0  0  0  0  0  0  0  0  0  0  0  0
    4.6723    3.0081    1.8370 C   0  0  0  0  0  0  0  0  0  0  0  0
    5.5568    4.2503    2.6321 Cl  0  0  0  0  0  0  0  0  0  0  0  0
    5.3214    2.1526    0.9415 C   0  0  0  0  0  0  0  0  0  0  0  0
    4.5983    1.1637    0.2590 C   0  0  0  0  0  0  0  0  0  0  0  0
    3.6683   -1.4659   -0.2050 H   0  0  0  0  0  0  0  0  0  0  0  0
    0.8277   -0.5906   -2.4391 H   0  0  0  0  0  0  0  0  0  0  0  0
   -0.4655   -2.2417   -3.6648 H   0  0  0  0  0  0  0  0  0  0  0  0
    0.0975   -4.6381   -3.5002 H   0  0  0  0  0  0  0  0  0  0  0  0
    1.5233   -6.4270   -2.6017 H   0  0  0  0  0  0  0  0  0  0  0  0
    3.4595   -7.1229   -1.2196 H   0  0  0  0  0  0  0  0  0  0  0  0
    4.7689   -5.3613   -0.0345 H   0  0  0  0  0  0  0  0  0  0  0  0
    1.5072    1.8300    1.5413 H   0  0  0  0  0  0  0  0  0  0  0  0
    2.7917    3.5513    2.7552 H   0  0  0  0  0  0  0  0  0  0  0  0
    6.3845    2.2745    0.7485 H   0  0  0  0  0  0  0  0  0  0  0  0
    5.1058    0.5446   -0.4751 H   0  0  0  0  0  0  0  0  0  0  0  0
  1  2  2  0  0  0  0
  2  3  1  0  0  0  0
  2 14  1  0  0  0  0
  3  4  1  0  0  0  0
  3 21  1  0  0  0  0
  4  5  1  0  0  0  0
  4 13  2  0  0  0  0
  5  6  2  0  0  0  0
  5 22  1  0  0  0  0
  6  7  1  0  0  0  0
  6 23  1  0  0  0  0
  7  8  2  0  0  0  0
  7 24  1  0  0  0  0
  8  9  1  0  0  0  0
  8 13  1  0  0  0  0
  9 10  2  0  0  0  0
  9 25  1  0  0  0  0
 10 11  1  0  0  0  0
 10 26  1  0  0  0  0
 11 12  2  0  0  0  0
 11 27  1  0  0  0  0
 12 13  1  0  0  0  0
 14 15  1  0  0  0  0
 14 20  2  0  0  0  0
 15 16  2  0  0  0  0
 15 28  1  0  0  0  0
 16 17  1  0  0  0  0
 16 29  1  0  0  0  0
 17 18  1  0  0  0  0
 17 19  2  0  0  0  0
 19 20  1  0  0  0  0
 19 30  1  0  0  0  0
 20 31  1  0  0  0  0
M  END
$$$$
