CHEMBL359652
 OpenBabel04072215363D

 48 50  0  0  0  0  0  0  0  0999 V2000
    0.8356   -0.8499   -0.4654 C   0  0  0  0  0  0  0  0  0  0  0  0
    2.3560   -0.8874   -0.5142 C   0  0  0  0  0  0  0  0  0  0  0  0
    2.9509   -1.0643    0.8853 C   0  0  0  0  0  0  0  0  0  0  0  0
    4.4540   -1.0522    0.8781 C   0  0  0  0  0  0  0  0  0  0  0  0
    5.2991   -2.2248    0.7811 C   0  0  0  0  0  0  0  0  0  0  0  0
    4.9402   -3.6414    0.7162 C   0  0  0  0  0  0  0  0  0  0  0  0
    3.7894   -4.0563    0.7528 O   0  0  0  0  0  0  0  0  0  0  0  0
    6.0498   -4.4397    0.7177 O   0  0  0  0  0  0  0  0  0  0  0  0
    5.8665   -5.7652    1.2256 C   0  0  0  0  0  0  0  0  0  0  0  0
    6.0078   -5.7076    2.7374 C   0  0  0  0  0  0  0  0  0  0  0  0
    6.6030   -1.7678    0.8279 C   0  0  0  0  0  0  0  0  0  0  0  0
    6.5970   -0.4140    0.9202 N   0  0  0  0  0  0  0  0  0  0  0  0
    7.7029    0.3370    0.9455 N   0  0  0  0  0  0  0  0  0  0  0  0
    7.4629    1.6013    1.0441 C   0  0  0  0  0  0  0  0  0  0  0  0
    6.2376    2.1884    1.1576 N   0  0  0  0  0  0  0  0  0  0  0  0
    5.1487    1.4733    1.1657 C   0  0  0  0  0  0  0  0  0  0  0  0
    3.9189    2.0759    1.3361 N   0  0  0  0  0  0  0  0  0  0  0  0
    3.6181    3.1967    2.1492 C   0  0  0  0  0  0  0  0  0  0  0  0
    4.5888    3.9719    2.7925 C   0  0  0  0  0  0  0  0  0  0  0  0
    4.2400    5.0751    3.5779 C   0  0  0  0  0  0  0  0  0  0  0  0
    2.9058    5.4378    3.7519 C   0  0  0  0  0  0  0  0  0  0  0  0
    2.5738    6.6033    4.6318 C   0  0  0  0  0  0  0  0  0  0  0  0
    1.9301    4.6791    3.0959 C   0  0  0  0  0  0  0  0  0  0  0  0
    0.5944    4.9448    3.2051 O   0  0  0  0  0  0  0  0  0  0  0  0
    2.2838    3.5893    2.2944 C   0  0  0  0  0  0  0  0  0  0  0  0
    5.3118    0.0463    0.9866 C   0  0  0  0  0  0  0  0  0  0  0  0
    0.4257   -0.6011   -1.4495 H   0  0  0  0  0  0  0  0  0  0  0  0
    0.4817   -0.0988    0.2484 H   0  0  0  0  0  0  0  0  0  0  0  0
    0.4332   -1.8233   -0.1670 H   0  0  0  0  0  0  0  0  0  0  0  0
    2.7232    0.0398   -0.9711 H   0  0  0  0  0  0  0  0  0  0  0  0
    2.6752   -1.7088   -1.1676 H   0  0  0  0  0  0  0  0  0  0  0  0
    2.5785   -1.9936    1.3285 H   0  0  0  0  0  0  0  0  0  0  0  0
    2.5746   -0.2845    1.5536 H   0  0  0  0  0  0  0  0  0  0  0  0
    6.6563   -6.3949    0.8036 H   0  0  0  0  0  0  0  0  0  0  0  0
    4.9050   -6.1925    0.9227 H   0  0  0  0  0  0  0  0  0  0  0  0
    6.9857   -5.3022    3.0140 H   0  0  0  0  0  0  0  0  0  0  0  0
    5.8955   -6.6985    3.1845 H   0  0  0  0  0  0  0  0  0  0  0  0
    5.2574   -5.0368    3.1714 H   0  0  0  0  0  0  0  0  0  0  0  0
    7.5435   -2.3025    0.8103 H   0  0  0  0  0  0  0  0  0  0  0  0
    8.3227    2.2920    1.0544 H   0  0  0  0  0  0  0  0  0  0  0  0
    3.1050    1.5094    1.1549 H   0  0  0  0  0  0  0  0  0  0  0  0
    5.6463    3.7430    2.7152 H   0  0  0  0  0  0  0  0  0  0  0  0
    5.0398    5.6387    4.0561 H   0  0  0  0  0  0  0  0  0  0  0  0
    3.4776    7.0935    5.0098 H   0  0  0  0  0  0  0  0  0  0  0  0
    1.9933    6.2645    5.4966 H   0  0  0  0  0  0  0  0  0  0  0  0
    2.0008    7.3535    4.0760 H   0  0  0  0  0  0  0  0  0  0  0  0
    0.4618    5.6692    3.8335 H   0  0  0  0  0  0  0  0  0  0  0  0
    1.4856    3.0389    1.8015 H   0  0  0  0  0  0  0  0  0  0  0  0
  1  2  1  0  0  0  0
  1 27  1  0  0  0  0
  1 28  1  0  0  0  0
  1 29  1  0  0  0  0
  2  3  1  0  0  0  0
  2 30  1  0  0  0  0
  2 31  1  0  0  0  0
  3  4  1  0  0  0  0
  3 32  1  0  0  0  0
  3 33  1  0  0  0  0
  4  5  1  0  0  0  0
  4 26  2  0  0  0  0
  5  6  1  0  0  0  0
  5 11  2  0  0  0  0
  6  7  2  0  0  0  0
  6  8  1  0  0  0  0
  8  9  1  0  0  0  0
  9 10  1  0  0  0  0
  9 34  1  0  0  0  0
  9 35  1  0  0  0  0
 10 36  1  0  0  0  0
 10 37  1  0  0  0  0
 10 38  1  0  0  0  0
 11 12  1  0  0  0  0
 11 39  1  0  0  0  0
 12 13  1  0  0  0  0
 12 26  1  0  0  0  0
 13 14  2  0  0  0  0
 14 15  1  0  0  0  0
 14 40  1  0  0  0  0
 15 16  2  0  0  0  0
 16 17  1  0  0  0  0
 16 26  1  0  0  0  0
 17 18  1  0  0  0  0
 17 41  1  0  0  0  0
 18 19  1  0  0  0  0
 18 25  2  0  0  0  0
 19 20  2  0  0  0  0
 19 42  1  0  0  0  0
 20 21  1  0  0  0  0
 20 43  1  0  0  0  0
 21 22  1  0  0  0  0
 21 23  2  0  0  0  0
 22 44  1  0  0  0  0
 22 45  1  0  0  0  0
 22 46  1  0  0  0  0
 23 24  1  0  0  0  0
 23 25  1  0  0  0  0
 24 47  1  0  0  0  0
 25 48  1  0  0  0  0
M  END
$$$$
