CHEMBL4086603
 OpenBabel04072215383D

 56 59  0  0  0  0  0  0  0  0999 V2000
    6.8504   -1.9205    8.6020 C   0  0  0  0  0  0  0  0  0  0  0  0
    6.7876   -2.4324    7.1741 C   0  0  0  0  0  0  0  0  0  0  0  0
    5.6463   -1.4655    6.1903 S   0  0  0  0  0  0  0  0  0  0  0  0
    4.3366   -1.5748    6.8020 O   0  0  0  0  0  0  0  0  0  0  0  0
    6.2394   -0.1694    5.9282 O   0  0  0  0  0  0  0  0  0  0  0  0
    5.5650   -2.3266    4.6396 C   0  0  0  0  0  0  0  0  0  0  0  0
    4.3744   -2.8873    4.1919 C   0  0  0  0  0  0  0  0  0  0  0  0
    4.3526   -3.5611    2.9663 C   0  0  0  0  0  0  0  0  0  0  0  0
    5.5225   -3.6929    2.2017 C   0  0  0  0  0  0  0  0  0  0  0  0
    5.5948   -4.3514    0.9947 O   0  0  0  0  0  0  0  0  0  0  0  0
    4.4292   -5.0556    0.5741 C   0  0  0  0  0  0  0  0  0  0  0  0
    6.7348   -3.1281    2.6630 C   0  0  0  0  0  0  0  0  0  0  0  0
    7.9198   -3.3048    1.9104 N   0  0  0  0  0  0  0  0  0  0  0  0
    9.1740   -3.1049    2.3508 C   0  0  0  0  0  0  0  0  0  0  0  0
    9.6114   -2.4828    3.4269 N   0  0  0  0  0  0  0  0  0  0  0  0
   10.9629   -2.6518    3.3997 C   0  0  0  0  0  0  0  0  0  0  0  0
   11.3209   -3.3939    2.3003 C   0  0  0  0  0  0  0  0  0  0  0  0
   12.5689   -3.9244    1.7850 C   0  0  0  0  0  0  0  0  0  0  0  0
   12.5991   -4.6723    0.6138 C   0  0  0  0  0  0  0  0  0  0  0  0
   13.7970   -5.2137    0.1609 C   0  0  0  0  0  0  0  0  0  0  0  0
   15.0038   -5.0417    0.8763 C   0  0  0  0  0  0  0  0  0  0  0  0
   16.2659   -5.7446    0.3893 C   0  0  0  0  0  0  0  0  0  0  0  0
   15.9215   -7.0488   -0.3113 C   0  0  0  0  0  0  0  0  0  0  0  0
   15.6359   -8.1308   -0.8926 N   0  0  0  0  0  0  0  0  0  0  0  0
   15.0167   -4.2065    2.0191 C   0  0  0  0  0  0  0  0  0  0  0  0
   16.2666   -3.8112    2.7105 C   0  0  0  0  0  0  0  0  0  0  0  0
   16.3556   -3.6267    4.0907 C   0  0  0  0  0  0  0  0  0  0  0  0
   17.5525   -3.1696    4.6414 C   0  0  0  0  0  0  0  0  0  0  0  0
   18.6356   -2.9214    3.8102 C   0  0  0  0  0  0  0  0  0  0  0  0
   18.4776   -3.1427    2.4560 C   0  0  0  0  0  0  0  0  0  0  0  0
   17.3270   -3.5741    1.8963 N   0  0  0  0  0  0  0  0  0  0  0  0
   13.7780   -3.6886    2.4621 C   0  0  0  0  0  0  0  0  0  0  0  0
   10.1696   -3.6742    1.6064 O   0  0  0  0  0  0  0  0  0  0  0  0
    6.7236   -2.4171    3.8724 C   0  0  0  0  0  0  0  0  0  0  0  0
    7.5554   -2.5128    9.1939 H   0  0  0  0  0  0  0  0  0  0  0  0
    5.8692   -1.9812    9.0840 H   0  0  0  0  0  0  0  0  0  0  0  0
    7.1718   -0.8746    8.6320 H   0  0  0  0  0  0  0  0  0  0  0  0
    6.4460   -3.4712    7.1624 H   0  0  0  0  0  0  0  0  0  0  0  0
    7.7771   -2.3733    6.7097 H   0  0  0  0  0  0  0  0  0  0  0  0
    3.4608   -2.7973    4.7746 H   0  0  0  0  0  0  0  0  0  0  0  0
    3.4031   -3.9702    2.6366 H   0  0  0  0  0  0  0  0  0  0  0  0
    4.6381   -5.5024   -0.4028 H   0  0  0  0  0  0  0  0  0  0  0  0
    3.5744   -4.3827    0.4481 H   0  0  0  0  0  0  0  0  0  0  0  0
    4.1940   -5.8679    1.2702 H   0  0  0  0  0  0  0  0  0  0  0  0
    7.7833   -3.8773    1.0836 H   0  0  0  0  0  0  0  0  0  0  0  0
   11.5952   -2.2490    4.1769 H   0  0  0  0  0  0  0  0  0  0  0  0
   11.6916   -4.8551    0.0419 H   0  0  0  0  0  0  0  0  0  0  0  0
   13.7604   -5.7934   -0.7613 H   0  0  0  0  0  0  0  0  0  0  0  0
   16.9194   -6.0092    1.2272 H   0  0  0  0  0  0  0  0  0  0  0  0
   16.8045   -5.0923   -0.3060 H   0  0  0  0  0  0  0  0  0  0  0  0
   15.5118   -3.8260    4.7425 H   0  0  0  0  0  0  0  0  0  0  0  0
   17.6343   -3.0026    5.7120 H   0  0  0  0  0  0  0  0  0  0  0  0
   19.5791   -2.5631    4.2063 H   0  0  0  0  0  0  0  0  0  0  0  0
   19.2937   -2.9700    1.7596 H   0  0  0  0  0  0  0  0  0  0  0  0
   13.7626   -3.0574    3.3487 H   0  0  0  0  0  0  0  0  0  0  0  0
    7.6145   -1.9156    4.2324 H   0  0  0  0  0  0  0  0  0  0  0  0
  1  2  1  0  0  0  0
  1 35  1  0  0  0  0
  1 36  1  0  0  0  0
  1 37  1  0  0  0  0
  2  3  1  0  0  0  0
  2 38  1  0  0  0  0
  2 39  1  0  0  0  0
  3  4  2  0  0  0  0
  3  5  2  0  0  0  0
  3  6  1  0  0  0  0
  6  7  1  0  0  0  0
  6 34  2  0  0  0  0
  7  8  2  0  0  0  0
  7 40  1  0  0  0  0
  8  9  1  0  0  0  0
  8 41  1  0  0  0  0
  9 10  1  0  0  0  0
  9 12  2  0  0  0  0
 10 11  1  0  0  0  0
 11 42  1  0  0  0  0
 11 43  1  0  0  0  0
 11 44  1  0  0  0  0
 12 13  1  0  0  0  0
 12 34  1  0  0  0  0
 13 14  1  0  0  0  0
 13 45  1  0  0  0  0
 14 15  2  0  0  0  0
 14 33  1  0  0  0  0
 15 16  1  0  0  0  0
 16 17  2  0  0  0  0
 16 46  1  0  0  0  0
 17 18  1  0  0  0  0
 17 33  1  0  0  0  0
 18 19  1  0  0  0  0
 18 32  2  0  0  0  0
 19 20  2  0  0  0  0
 19 47  1  0  0  0  0
 20 21  1  0  0  0  0
 20 48  1  0  0  0  0
 21 22  1  0  0  0  0
 21 25  2  0  0  0  0
 22 23  1  0  0  0  0
 22 49  1  0  0  0  0
 22 50  1  0  0  0  0
 23 24  3  0  0  0  0
 25 26  1  0  0  0  0
 25 32  1  0  0  0  0
 26 27  1  0  0  0  0
 26 31  2  0  0  0  0
 27 28  2  0  0  0  0
 27 51  1  0  0  0  0
 28 29  1  0  0  0  0
 28 52  1  0  0  0  0
 29 30  2  0  0  0  0
 29 53  1  0  0  0  0
 30 31  1  0  0  0  0
 30 54  1  0  0  0  0
 32 55  1  0  0  0  0
 34 56  1  0  0  0  0
M  END
$$$$
