CHEMBL3893845
 OpenBabel04072215373D

 64 67  0  0  1  0  0  0  0  0999 V2000
    4.9928   -6.9219  -10.1042 C   0  0  0  0  0  0  0  0  0  0  0  0
    6.3552   -6.7148   -9.4477 C   0  0  0  0  0  0  0  0  0  0  0  0
    6.1432   -6.1432   -8.0586 C   0  0  0  0  0  0  0  0  0  0  0  0
    7.4115   -5.8356   -7.2508 C   0  0  0  0  0  0  0  0  0  0  0  0
    6.8146   -5.3345   -5.6283 S   0  0  0  0  0  0  0  0  0  0  0  0
    6.0197   -4.1365   -5.8018 O   0  0  0  0  0  0  0  0  0  0  0  0
    6.2320   -6.5171   -5.0367 O   0  0  0  0  0  0  0  0  0  0  0  0
    8.1385   -4.8944   -4.6883 N   0  0  0  0  0  0  0  0  0  0  0  0
    9.1066   -5.9443   -4.2439 C   0  0  0  0  0  0  0  0  0  0  0  0
    8.6046   -6.7037   -3.0072 C   0  0  0  0  0  0  0  0  0  0  0  0
    8.2505   -5.8327   -1.9213 O   0  0  0  0  0  0  0  0  0  0  0  0
    7.2610   -4.8443   -2.2869 C   0  0  3  0  0  0  0  0  0  0  0  0
    5.8431   -5.4647   -2.4192 C   0  0  0  0  0  0  0  0  0  0  0  0
    5.2304   -5.7606   -1.1467 O   0  0  0  0  0  0  0  0  0  0  0  0
    4.4283   -4.8127   -0.5776 C   0  0  0  0  0  0  0  0  0  0  0  0
    4.3904   -3.4874   -1.0467 C   0  0  0  0  0  0  0  0  0  0  0  0
    3.6790   -2.4790   -0.4172 C   0  0  0  0  0  0  0  0  0  0  0  0
    3.7157   -1.2425   -0.9143 N   0  0  0  0  0  0  0  0  0  0  0  0
    3.0522   -0.3055   -0.2307 C   0  0  0  0  0  0  0  0  0  0  0  0
    2.3977   -0.4894    0.9182 N   0  0  0  0  0  0  0  0  0  0  0  0
    2.3863   -1.7414    1.4148 C   0  0  0  0  0  0  0  0  0  0  0  0
    1.8188   -1.9848    2.7010 N   0  0  0  0  0  0  0  0  0  0  0  0
    1.0400   -1.0432    3.3924 C   0  0  0  0  0  0  0  0  0  0  0  0
   -0.0385   -0.4142    2.7561 C   0  0  0  0  0  0  0  0  0  0  0  0
   -0.7625    0.5832    3.4041 C   0  0  0  0  0  0  0  0  0  0  0  0
   -0.4135    0.9537    4.7033 C   0  0  0  0  0  0  0  0  0  0  0  0
   -1.3057    2.2431    5.4255 Cl  0  0  0  0  0  0  0  0  0  0  0  0
    0.6353    0.3046    5.3612 C   0  0  0  0  0  0  0  0  0  0  0  0
    1.1111    0.7092    6.9732 Cl  0  0  0  0  0  0  0  0  0  0  0  0
    1.3559   -0.6989    4.7094 C   0  0  0  0  0  0  0  0  0  0  0  0
    2.9760   -2.8109    0.7358 C   0  0  0  0  0  0  0  0  0  0  0  0
    2.9166   -4.1466    1.1647 C   0  0  0  0  0  0  0  0  0  0  0  0
    3.6402   -5.1537    0.5299 C   0  0  0  0  0  0  0  0  0  0  0  0
    3.4143   -6.3451    1.1456 O   0  0  0  0  0  0  0  0  0  0  0  0
    4.2221   -7.4793    0.9053 C   0  0  0  0  0  0  0  0  0  0  0  0
    7.7786   -4.0323   -3.5025 C   0  0  0  0  0  0  0  0  0  0  0  0
    5.1073   -7.3343  -11.1139 H   0  0  0  0  0  0  0  0  0  0  0  0
    4.4541   -5.9694  -10.1891 H   0  0  0  0  0  0  0  0  0  0  0  0
    4.3729   -7.6056   -9.5229 H   0  0  0  0  0  0  0  0  0  0  0  0
    6.9623   -6.0339  -10.0524 H   0  0  0  0  0  0  0  0  0  0  0  0
    6.8800   -7.6744   -9.3869 H   0  0  0  0  0  0  0  0  0  0  0  0
    5.5238   -6.8535   -7.4941 H   0  0  0  0  0  0  0  0  0  0  0  0
    5.5481   -5.2251   -8.1398 H   0  0  0  0  0  0  0  0  0  0  0  0
    7.9937   -5.0227   -7.6916 H   0  0  0  0  0  0  0  0  0  0  0  0
    8.0293   -6.7295   -7.1261 H   0  0  0  0  0  0  0  0  0  0  0  0
   10.0407   -5.4260   -3.9867 H   0  0  0  0  0  0  0  0  0  0  0  0
    9.3436   -6.6277   -5.0635 H   0  0  0  0  0  0  0  0  0  0  0  0
    9.4034   -7.3536   -2.6380 H   0  0  0  0  0  0  0  0  0  0  0  0
    7.7640   -7.3573   -3.2471 H   0  0  0  0  0  0  0  0  0  0  0  0
    7.2339   -4.1465   -1.4416 H   0  0  0  0  0  0  0  0  0  0  0  0
    5.9012   -6.4517   -2.8669 H   0  0  0  0  0  0  0  0  0  0  0  0
    5.1801   -4.8708   -3.0599 H   0  0  0  0  0  0  0  0  0  0  0  0
    4.9520   -3.1691   -1.9225 H   0  0  0  0  0  0  0  0  0  0  0  0
    3.0543    0.6988   -0.6397 H   0  0  0  0  0  0  0  0  0  0  0  0
    2.5257   -2.4203    3.2833 H   0  0  0  0  0  0  0  0  0  0  0  0
   -0.2985   -0.6975    1.7371 H   0  0  0  0  0  0  0  0  0  0  0  0
   -1.5753    1.0687    2.8781 H   0  0  0  0  0  0  0  0  0  0  0  0
    2.1840   -1.1837    5.2177 H   0  0  0  0  0  0  0  0  0  0  0  0
    2.2987   -4.4187    2.0192 H   0  0  0  0  0  0  0  0  0  0  0  0
    4.1040   -8.1294    1.7819 H   0  0  0  0  0  0  0  0  0  0  0  0
    5.2840   -7.2409    0.8278 H   0  0  0  0  0  0  0  0  0  0  0  0
    3.8555   -8.0354    0.0386 H   0  0  0  0  0  0  0  0  0  0  0  0
    8.7091   -3.5227   -3.2100 H   0  0  0  0  0  0  0  0  0  0  0  0
    7.0888   -3.2314   -3.7867 H   0  0  0  0  0  0  0  0  0  0  0  0
  1  2  1  0  0  0  0
  1 37  1  0  0  0  0
  1 38  1  0  0  0  0
  1 39  1  0  0  0  0
  2  3  1  0  0  0  0
  2 40  1  0  0  0  0
  2 41  1  0  0  0  0
  3  4  1  0  0  0  0
  3 42  1  0  0  0  0
  3 43  1  0  0  0  0
  4  5  1  0  0  0  0
  4 44  1  0  0  0  0
  4 45  1  0  0  0  0
  5  6  2  0  0  0  0
  5  7  2  0  0  0  0
  5  8  1  0  0  0  0
  8  9  1  0  0  0  0
  8 36  1  0  0  0  0
  9 10  1  0  0  0  0
  9 46  1  0  0  0  0
  9 47  1  0  0  0  0
 10 11  1  0  0  0  0
 10 48  1  0  0  0  0
 10 49  1  0  0  0  0
 11 12  1  0  0  0  0
 12 13  1  0  0  0  0
 12 36  1  0  0  0  0
 12 50  1  0  0  0  0
 13 14  1  0  0  0  0
 13 51  1  0  0  0  0
 13 52  1  0  0  0  0
 14 15  1  0  0  0  0
 15 16  1  0  0  0  0
 15 33  2  0  0  0  0
 16 17  2  0  0  0  0
 16 53  1  0  0  0  0
 17 18  1  0  0  0  0
 17 31  1  0  0  0  0
 18 19  2  0  0  0  0
 19 20  1  0  0  0  0
 19 54  1  0  0  0  0
 20 21  2  0  0  0  0
 21 22  1  0  0  0  0
 21 31  1  0  0  0  0
 22 23  1  0  0  0  0
 22 55  1  0  0  0  0
 23 24  1  0  0  0  0
 23 30  2  0  0  0  0
 24 25  2  0  0  0  0
 24 56  1  0  0  0  0
 25 26  1  0  0  0  0
 25 57  1  0  0  0  0
 26 27  1  0  0  0  0
 26 28  2  0  0  0  0
 28 29  1  0  0  0  0
 28 30  1  0  0  0  0
 30 58  1  0  0  0  0
 31 32  2  0  0  0  0
 32 33  1  0  0  0  0
 32 59  1  0  0  0  0
 33 34  1  0  0  0  0
 34 35  1  0  0  0  0
 35 60  1  0  0  0  0
 35 61  1  0  0  0  0
 35 62  1  0  0  0  0
 36 63  1  0  0  0  0
 36 64  1  0  0  0  0
M  END
$$$$
