CHEMBL376779
 OpenBabel04072215373D

 67 72  0  0  0  0  0  0  0  0999 V2000
    1.8935    0.0209   -1.1157 C   0  0  0  0  0  0  0  0  0  0  0  0
    0.4485    0.2091   -1.1000 N   0  0  0  0  0  0  0  0  0  0  0  0
   -0.2475   -1.0251   -0.7028 C   0  0  0  0  0  0  0  0  0  0  0  0
   -1.7752   -0.7991   -0.7467 C   0  0  0  0  0  0  0  0  0  0  0  0
   -2.2484    0.2271    0.2091 N   0  0  0  0  0  0  0  0  0  0  0  0
   -2.0693   -0.1267    1.6355 C   0  0  0  0  0  0  0  0  0  0  0  0
   -2.7839   -1.3913    2.0970 C   0  0  0  0  0  0  0  0  0  0  0  0
   -2.1245   -2.6483    2.0061 C   0  0  0  0  0  0  0  0  0  0  0  0
   -2.7624   -3.8523    2.2990 C   0  0  0  0  0  0  0  0  0  0  0  0
   -4.0354   -3.7655    2.7899 C   0  0  0  0  0  0  0  0  0  0  0  0
   -4.7015   -2.5261    2.9942 C   0  0  0  0  0  0  0  0  0  0  0  0
   -4.0888   -1.3361    2.6217 C   0  0  0  0  0  0  0  0  0  0  0  0
   -6.0820   -2.6964    3.6580 C   0  0  0  0  0  0  0  0  0  0  0  0
   -6.0695   -4.1866    3.7414 C   0  0  0  0  0  0  0  0  0  0  0  0
   -6.8288   -5.2707    4.1883 C   0  0  0  0  0  0  0  0  0  0  0  0
   -8.1533   -5.1485    4.7829 C   0  0  0  0  0  0  0  0  0  0  0  0
   -9.0568   -4.1559    4.4677 C   0  0  0  0  0  0  0  0  0  0  0  0
  -10.4952   -4.2923    5.3733 S   0  0  0  0  0  0  0  0  0  0  0  0
   -9.9196   -5.6795    6.1901 C   0  0  0  0  0  0  0  0  0  0  0  0
  -10.6854   -6.3451    7.1879 C   0  0  0  0  0  0  0  0  0  0  0  0
  -11.4168   -6.9359    8.0913 C   0  0  0  0  0  0  0  0  0  0  0  0
  -12.2694   -7.6247    9.1443 C   0  0  0  0  0  0  0  0  0  0  0  0
  -11.9434   -9.0365    9.2916 N   0  0  0  0  0  0  0  0  0  0  0  0
  -12.9072   -9.8150   10.4611 S   0  0  0  0  0  0  0  0  0  0  0  0
  -12.1792  -10.9707   10.9044 O   0  0  0  0  0  0  0  0  0  0  0  0
  -13.3326   -8.7842   11.3962 O   0  0  0  0  0  0  0  0  0  0  0  0
  -14.3384  -10.3865    9.5741 C   0  0  0  0  0  0  0  0  0  0  0  0
  -14.1784  -11.2953    8.5241 C   0  0  0  0  0  0  0  0  0  0  0  0
  -15.3053  -11.7885    7.8605 C   0  0  0  0  0  0  0  0  0  0  0  0
  -16.5833  -11.3972    8.2617 C   0  0  0  0  0  0  0  0  0  0  0  0
  -16.7419  -10.5237    9.3386 C   0  0  0  0  0  0  0  0  0  0  0  0
  -15.6199  -10.0095    9.9939 C   0  0  0  0  0  0  0  0  0  0  0  0
   -8.6604   -6.0479    5.7666 C   0  0  0  0  0  0  0  0  0  0  0  0
   -6.1890   -6.4424    4.0002 N   0  0  0  0  0  0  0  0  0  0  0  0
   -5.0290   -6.0903    3.3862 N   0  0  0  0  0  0  0  0  0  0  0  0
   -4.9329   -4.7558    3.2505 C   0  0  0  0  0  0  0  0  0  0  0  0
   -1.5042    1.4741   -0.1190 C   0  0  0  0  0  0  0  0  0  0  0  0
    0.0428    1.3168   -0.2117 C   0  0  0  0  0  0  0  0  0  0  0  0
    2.1634   -0.8038   -1.7854 H   0  0  0  0  0  0  0  0  0  0  0  0
    2.2990   -0.1983   -0.1220 H   0  0  0  0  0  0  0  0  0  0  0  0
    2.3875    0.9162   -1.5067 H   0  0  0  0  0  0  0  0  0  0  0  0
    0.0795   -1.3345    0.2972 H   0  0  0  0  0  0  0  0  0  0  0  0
    0.0058   -1.8446   -1.3847 H   0  0  0  0  0  0  0  0  0  0  0  0
   -2.3213   -1.7392   -0.6322 H   0  0  0  0  0  0  0  0  0  0  0  0
   -2.0436   -0.4695   -1.7635 H   0  0  0  0  0  0  0  0  0  0  0  0
   -2.4642    0.7069    2.2324 H   0  0  0  0  0  0  0  0  0  0  0  0
   -1.0140   -0.2094    1.9213 H   0  0  0  0  0  0  0  0  0  0  0  0
   -1.0868   -2.7021    1.6924 H   0  0  0  0  0  0  0  0  0  0  0  0
   -2.2605   -4.8011    2.1546 H   0  0  0  0  0  0  0  0  0  0  0  0
   -4.5994   -0.3861    2.7503 H   0  0  0  0  0  0  0  0  0  0  0  0
   -6.8802   -2.3174    3.0164 H   0  0  0  0  0  0  0  0  0  0  0  0
   -6.0929   -2.2371    4.6505 H   0  0  0  0  0  0  0  0  0  0  0  0
   -8.9428   -3.3627    3.7433 H   0  0  0  0  0  0  0  0  0  0  0  0
  -13.3202   -7.5025    8.8601 H   0  0  0  0  0  0  0  0  0  0  0  0
  -12.0899   -7.1095   10.0943 H   0  0  0  0  0  0  0  0  0  0  0  0
  -10.9611   -9.2009    9.5105 H   0  0  0  0  0  0  0  0  0  0  0  0
  -13.1903  -11.6441    8.2386 H   0  0  0  0  0  0  0  0  0  0  0  0
  -15.1878  -12.4912    7.0387 H   0  0  0  0  0  0  0  0  0  0  0  0
  -17.4576  -11.7858    7.7437 H   0  0  0  0  0  0  0  0  0  0  0  0
  -17.7412  -10.2539    9.6724 H   0  0  0  0  0  0  0  0  0  0  0  0
  -15.7579   -9.3451   10.8451 H   0  0  0  0  0  0  0  0  0  0  0  0
   -8.1144   -6.9017    6.1525 H   0  0  0  0  0  0  0  0  0  0  0  0
   -4.3789   -6.8170    3.1072 H   0  0  0  0  0  0  0  0  0  0  0  0
   -1.7566    2.2696    0.5926 H   0  0  0  0  0  0  0  0  0  0  0  0
   -1.8673    1.8298   -1.0939 H   0  0  0  0  0  0  0  0  0  0  0  0
    0.4486    1.1671    0.7970 H   0  0  0  0  0  0  0  0  0  0  0  0
    0.4618    2.2555   -0.5926 H   0  0  0  0  0  0  0  0  0  0  0  0
  1  2  1  0  0  0  0
  1 39  1  0  0  0  0
  1 40  1  0  0  0  0
  1 41  1  0  0  0  0
  2  3  1  0  0  0  0
  2 38  1  0  0  0  0
  3  4  1  0  0  0  0
  3 42  1  0  0  0  0
  3 43  1  0  0  0  0
  4  5  1  0  0  0  0
  4 44  1  0  0  0  0
  4 45  1  0  0  0  0
  5  6  1  0  0  0  0
  5 37  1  0  0  0  0
  6  7  1  0  0  0  0
  6 46  1  0  0  0  0
  6 47  1  0  0  0  0
  7  8  1  0  0  0  0
  7 12  2  0  0  0  0
  8  9  2  0  0  0  0
  8 48  1  0  0  0  0
  9 10  1  0  0  0  0
  9 49  1  0  0  0  0
 10 11  2  0  0  0  0
 10 36  1  0  0  0  0
 11 12  1  0  0  0  0
 11 13  1  0  0  0  0
 12 50  1  0  0  0  0
 13 14  1  0  0  0  0
 13 51  1  0  0  0  0
 13 52  1  0  0  0  0
 14 15  1  0  0  0  0
 14 36  2  0  0  0  0
 15 16  1  0  0  0  0
 15 34  2  0  0  0  0
 16 17  2  0  0  0  0
 16 33  1  0  0  0  0
 17 18  1  0  0  0  0
 17 53  1  0  0  0  0
 18 19  1  0  0  0  0
 19 20  1  0  0  0  0
 19 33  2  0  0  0  0
 20 21  3  0  0  0  0
 21 22  1  0  0  0  0
 22 23  1  0  0  0  0
 22 54  1  0  0  0  0
 22 55  1  0  0  0  0
 23 24  1  0  0  0  0
 23 56  1  0  0  0  0
 24 25  2  0  0  0  0
 24 26  2  0  0  0  0
 24 27  1  0  0  0  0
 27 28  1  0  0  0  0
 27 32  2  0  0  0  0
 28 29  2  0  0  0  0
 28 57  1  0  0  0  0
 29 30  1  0  0  0  0
 29 58  1  0  0  0  0
 30 31  2  0  0  0  0
 30 59  1  0  0  0  0
 31 32  1  0  0  0  0
 31 60  1  0  0  0  0
 32 61  1  0  0  0  0
 33 62  1  0  0  0  0
 34 35  1  0  0  0  0
 35 36  1  0  0  0  0
 35 63  1  0  0  0  0
 37 38  1  0  0  0  0
 37 64  1  0  0  0  0
 37 65  1  0  0  0  0
 38 66  1  0  0  0  0
 38 67  1  0  0  0  0
M  END
$$$$
