CHEMBL195254
 OpenBabel04072215363D

 59 62  0  0  0  0  0  0  0  0999 V2000
    6.1781   -0.2294   -1.0271 C   0  0  0  0  0  0  0  0  0  0  0  0
    5.2219    0.6152   -0.2026 C   0  0  0  0  0  0  0  0  0  0  0  0
    5.2699    0.1457    1.1479 O   0  0  0  0  0  0  0  0  0  0  0  0
    4.4552   -0.9142    1.4316 C   0  0  0  0  0  0  0  0  0  0  0  0
    3.4970   -1.2452    0.7406 O   0  0  0  0  0  0  0  0  0  0  0  0
    4.9417   -1.6787    2.5836 C   0  0  0  0  0  0  0  0  0  0  0  0
    6.0494   -1.3086    3.3164 C   0  0  0  0  0  0  0  0  0  0  0  0
    6.3164   -2.2719    4.2306 N   0  0  0  0  0  0  0  0  0  0  0  0
    7.3515   -2.2018    5.0756 N   0  0  0  0  0  0  0  0  0  0  0  0
    7.4903   -3.2472    5.8172 C   0  0  0  0  0  0  0  0  0  0  0  0
    6.7029   -4.3561    5.7976 N   0  0  0  0  0  0  0  0  0  0  0  0
    5.6868   -4.4381    4.9834 C   0  0  0  0  0  0  0  0  0  0  0  0
    4.9365   -5.5975    5.0030 N   0  0  0  0  0  0  0  0  0  0  0  0
    5.4548   -6.8427    5.4533 C   0  0  0  0  0  0  0  0  0  0  0  0
    6.7534   -7.2726    5.1272 C   0  0  0  0  0  0  0  0  0  0  0  0
    7.2418   -8.5166    5.5659 C   0  0  0  0  0  0  0  0  0  0  0  0
    8.6456   -8.9008    5.2213 C   0  0  0  0  0  0  0  0  0  0  0  0
    9.3354   -8.1268    4.5674 O   0  0  0  0  0  0  0  0  0  0  0  0
    9.0671  -10.1225    5.6850 N   0  0  0  0  0  0  0  0  0  0  0  0
   10.4069  -10.4934    5.4319 O   0  0  0  0  0  0  0  0  0  0  0  0
   10.6435  -11.7949    5.9765 C   0  0  0  0  0  0  0  0  0  0  0  0
   12.0499  -12.2091    5.6807 C   0  0  0  0  0  0  0  0  0  0  0  0
   12.5557  -13.5413    6.1778 C   0  0  0  0  0  0  0  0  0  0  0  0
   13.0910  -12.2690    6.7713 C   0  0  0  0  0  0  0  0  0  0  0  0
    6.3952   -9.3402    6.3145 C   0  0  0  0  0  0  0  0  0  0  0  0
    6.8075  -10.5415    6.7503 F   0  0  0  0  0  0  0  0  0  0  0  0
    5.1001   -8.9466    6.6333 C   0  0  0  0  0  0  0  0  0  0  0  0
    4.6436   -7.7109    6.1973 C   0  0  0  0  0  0  0  0  0  0  0  0
    3.3967   -7.3272    6.5177 F   0  0  0  0  0  0  0  0  0  0  0  0
    5.4157   -3.3037    4.1237 C   0  0  0  0  0  0  0  0  0  0  0  0
    4.4835   -2.9569    3.1276 C   0  0  0  0  0  0  0  0  0  0  0  0
    3.2770   -3.6818    2.5410 C   0  0  0  0  0  0  0  0  0  0  0  0
    3.6551   -4.5480    1.3372 C   0  0  0  0  0  0  0  0  0  0  0  0
    2.3962   -4.4648    3.5038 C   0  0  0  0  0  0  0  0  0  0  0  0
    6.2008    0.0968   -2.0689 H   0  0  0  0  0  0  0  0  0  0  0  0
    5.8917   -1.2865   -0.9935 H   0  0  0  0  0  0  0  0  0  0  0  0
    7.1909   -0.1692   -0.6125 H   0  0  0  0  0  0  0  0  0  0  0  0
    4.2064    0.5936   -0.6115 H   0  0  0  0  0  0  0  0  0  0  0  0
    5.5527    1.6599   -0.2028 H   0  0  0  0  0  0  0  0  0  0  0  0
    6.7046   -0.4520    3.2308 H   0  0  0  0  0  0  0  0  0  0  0  0
    8.3202   -3.2586    6.5449 H   0  0  0  0  0  0  0  0  0  0  0  0
    4.0087   -5.4402    5.3878 H   0  0  0  0  0  0  0  0  0  0  0  0
    7.4007   -6.6290    4.5317 H   0  0  0  0  0  0  0  0  0  0  0  0
    8.4835  -10.7512    6.2253 H   0  0  0  0  0  0  0  0  0  0  0  0
    9.9522  -12.5078    5.5121 H   0  0  0  0  0  0  0  0  0  0  0  0
   10.4579  -11.7735    7.0573 H   0  0  0  0  0  0  0  0  0  0  0  0
   12.3620  -11.9039    4.6878 H   0  0  0  0  0  0  0  0  0  0  0  0
   13.2078  -14.1103    5.5240 H   0  0  0  0  0  0  0  0  0  0  0  0
   11.9030  -14.1526    6.7907 H   0  0  0  0  0  0  0  0  0  0  0  0
   14.1046  -11.9777    6.5191 H   0  0  0  0  0  0  0  0  0  0  0  0
   12.8026  -12.0220    7.7867 H   0  0  0  0  0  0  0  0  0  0  0  0
    4.4573   -9.5945    7.2190 H   0  0  0  0  0  0  0  0  0  0  0  0
    2.6022   -2.9004    2.1677 H   0  0  0  0  0  0  0  0  0  0  0  0
    4.3899   -5.3123    1.6080 H   0  0  0  0  0  0  0  0  0  0  0  0
    4.0839   -3.9417    0.5317 H   0  0  0  0  0  0  0  0  0  0  0  0
    2.7715   -5.0522    0.9285 H   0  0  0  0  0  0  0  0  0  0  0  0
    2.8286   -5.4294    3.7656 H   0  0  0  0  0  0  0  0  0  0  0  0
    1.4383   -4.6990    3.0219 H   0  0  0  0  0  0  0  0  0  0  0  0
    2.1784   -3.8964    4.4128 H   0  0  0  0  0  0  0  0  0  0  0  0
  1  2  1  0  0  0  0
  1 35  1  0  0  0  0
  1 36  1  0  0  0  0
  1 37  1  0  0  0  0
  2  3  1  0  0  0  0
  2 38  1  0  0  0  0
  2 39  1  0  0  0  0
  3  4  1  0  0  0  0
  4  5  2  0  0  0  0
  4  6  1  0  0  0  0
  6  7  2  0  0  0  0
  6 31  1  0  0  0  0
  7  8  1  0  0  0  0
  7 40  1  0  0  0  0
  8  9  1  0  0  0  0
  8 30  1  0  0  0  0
  9 10  2  0  0  0  0
 10 11  1  0  0  0  0
 10 41  1  0  0  0  0
 11 12  2  0  0  0  0
 12 13  1  0  0  0  0
 12 30  1  0  0  0  0
 13 14  1  0  0  0  0
 13 42  1  0  0  0  0
 14 15  1  0  0  0  0
 14 28  2  0  0  0  0
 15 16  2  0  0  0  0
 15 43  1  0  0  0  0
 16 17  1  0  0  0  0
 16 25  1  0  0  0  0
 17 18  2  0  0  0  0
 17 19  1  0  0  0  0
 19 20  1  0  0  0  0
 19 44  1  0  0  0  0
 20 21  1  0  0  0  0
 21 22  1  0  0  0  0
 21 45  1  0  0  0  0
 21 46  1  0  0  0  0
 22 23  1  0  0  0  0
 22 24  1  0  0  0  0
 22 47  1  0  0  0  0
 23 24  1  0  0  0  0
 23 48  1  0  0  0  0
 23 49  1  0  0  0  0
 24 50  1  0  0  0  0
 24 51  1  0  0  0  0
 25 26  1  0  0  0  0
 25 27  2  0  0  0  0
 27 28  1  0  0  0  0
 27 52  1  0  0  0  0
 28 29  1  0  0  0  0
 30 31  2  0  0  0  0
 31 32  1  0  0  0  0
 32 33  1  0  0  0  0
 32 34  1  0  0  0  0
 32 53  1  0  0  0  0
 33 54  1  0  0  0  0
 33 55  1  0  0  0  0
 33 56  1  0  0  0  0
 34 57  1  0  0  0  0
 34 58  1  0  0  0  0
 34 59  1  0  0  0  0
M  END
$$$$
