CHEMBL3959193
 OpenBabel04072215373D

 56 59  0  0  0  0  0  0  0  0999 V2000
    2.7307    1.4401   -2.3265 C   0  0  0  0  0  0  0  0  0  0  0  0
    3.1716    0.7145   -1.1874 O   0  0  0  0  0  0  0  0  0  0  0  0
    3.3596   -0.6194   -1.4011 C   0  0  0  0  0  0  0  0  0  0  0  0
    2.6893   -1.4326   -2.2518 C   0  0  0  0  0  0  0  0  0  0  0  0
    3.0608   -2.7682   -2.4072 C   0  0  0  0  0  0  0  0  0  0  0  0
    2.4391   -3.6138   -3.2807 O   0  0  0  0  0  0  0  0  0  0  0  0
    1.3726   -3.0270   -4.0326 C   0  0  0  0  0  0  0  0  0  0  0  0
    0.7952   -4.0783   -4.9475 C   0  0  0  0  0  0  0  0  0  0  0  0
   -0.2226   -3.5436   -5.6704 F   0  0  0  0  0  0  0  0  0  0  0  0
    4.1406   -3.2973   -1.6968 C   0  0  0  0  0  0  0  0  0  0  0  0
    4.9148   -2.4785   -0.8891 C   0  0  0  0  0  0  0  0  0  0  0  0
    6.1306   -2.9566   -0.3585 N   0  0  0  0  0  0  0  0  0  0  0  0
    6.6003   -2.4219    0.9571 C   0  0  0  0  0  0  0  0  0  0  0  0
    7.5613   -1.2480    0.8307 C   0  0  0  0  0  0  0  0  0  0  0  0
    7.0410   -0.0834    0.2208 O   0  0  0  0  0  0  0  0  0  0  0  0
    7.0886   -3.7925   -1.0192 C   0  0  0  0  0  0  0  0  0  0  0  0
    7.7896   -4.6757   -0.2350 C   0  0  0  0  0  0  0  0  0  0  0  0
    8.7161   -5.4697   -0.7891 C   0  0  0  0  0  0  0  0  0  0  0  0
    9.0563   -5.4047   -2.0831 C   0  0  0  0  0  0  0  0  0  0  0  0
   10.3159   -5.5359   -2.0156 N   0  0  0  0  0  0  0  0  0  0  0  0
   10.6746   -6.7770   -2.0768 C   0  0  0  0  0  0  0  0  0  0  0  0
   10.9837   -7.0498   -3.2786 C   0  0  0  0  0  0  0  0  0  0  0  0
   12.5446   -7.9480   -2.7512 C   0  0  0  0  0  0  0  0  0  0  0  0
   13.0996   -8.7795   -1.4154 C   0  0  0  0  0  0  0  0  0  0  0  0
   14.3265   -9.3934   -1.4680 N   0  0  0  0  0  0  0  0  0  0  0  0
   14.7753   -9.1480   -2.7057 N   0  0  0  0  0  0  0  0  0  0  0  0
   16.0597   -9.7786   -3.1996 C   0  0  0  0  0  0  0  0  0  0  0  0
   13.7695   -8.2961   -3.4039 C   0  0  0  0  0  0  0  0  0  0  0  0
    9.9564   -5.9065   -4.0440 N   0  0  0  0  0  0  0  0  0  0  0  0
    8.7313   -4.8632   -3.2366 C   0  0  0  0  0  0  0  0  0  0  0  0
    7.5112   -3.8171   -2.4676 C   0  0  0  0  0  0  0  0  0  0  0  0
    4.3771   -1.1955   -0.6784 C   0  0  0  0  0  0  0  0  0  0  0  0
    2.6591    2.4978   -2.0564 H   0  0  0  0  0  0  0  0  0  0  0  0
    1.7396    1.1000   -2.6280 H   0  0  0  0  0  0  0  0  0  0  0  0
    3.4404    1.3518   -3.1565 H   0  0  0  0  0  0  0  0  0  0  0  0
    1.8508   -1.0138   -2.7624 H   0  0  0  0  0  0  0  0  0  0  0  0
    1.7285   -2.1833   -4.6412 H   0  0  0  0  0  0  0  0  0  0  0  0
    0.5818   -2.6697   -3.3604 H   0  0  0  0  0  0  0  0  0  0  0  0
    0.4088   -4.9196   -4.3672 H   0  0  0  0  0  0  0  0  0  0  0  0
    1.5575   -4.4493   -5.6369 H   0  0  0  0  0  0  0  0  0  0  0  0
    4.3672   -4.3572   -1.7513 H   0  0  0  0  0  0  0  0  0  0  0  0
    7.1466   -3.1671    1.5670 H   0  0  0  0  0  0  0  0  0  0  0  0
    5.7451   -2.0975    1.5315 H   0  0  0  0  0  0  0  0  0  0  0  0
    8.3604   -1.5778    0.1700 H   0  0  0  0  0  0  0  0  0  0  0  0
    7.8491   -0.9450    1.8461 H   0  0  0  0  0  0  0  0  0  0  0  0
    6.8599   -0.3686   -0.6917 H   0  0  0  0  0  0  0  0  0  0  0  0
    7.7741   -4.7667    0.8352 H   0  0  0  0  0  0  0  0  0  0  0  0
    9.3754   -6.1207   -0.2191 H   0  0  0  0  0  0  0  0  0  0  0  0
   11.0783   -7.0704   -1.1223 H   0  0  0  0  0  0  0  0  0  0  0  0
   12.6864   -8.9716   -0.4231 H   0  0  0  0  0  0  0  0  0  0  0  0
   16.6287  -10.3478   -2.4253 H   0  0  0  0  0  0  0  0  0  0  0  0
   16.7572   -9.0263   -3.5992 H   0  0  0  0  0  0  0  0  0  0  0  0
   15.8363  -10.4994   -3.9997 H   0  0  0  0  0  0  0  0  0  0  0  0
   14.1447   -8.0656   -4.3650 H   0  0  0  0  0  0  0  0  0  0  0  0
    6.9453   -2.9577   -2.9350 H   0  0  0  0  0  0  0  0  0  0  0  0
    4.6590   -0.4800    0.0622 H   0  0  0  0  0  0  0  0  0  0  0  0
  1  2  1  0  0  0  0
  1 33  1  0  0  0  0
  1 34  1  0  0  0  0
  1 35  1  0  0  0  0
  2  3  1  0  0  0  0
  3  4  1  0  0  0  0
  3 32  2  0  0  0  0
  4  5  2  0  0  0  0
  4 36  1  0  0  0  0
  5  6  1  0  0  0  0
  5 10  1  0  0  0  0
  6  7  1  0  0  0  0
  7  8  1  0  0  0  0
  7 37  1  0  0  0  0
  7 38  1  0  0  0  0
  8  9  1  0  0  0  0
  8 39  1  0  0  0  0
  8 40  1  0  0  0  0
 10 11  2  0  0  0  0
 10 41  1  0  0  0  0
 11 12  1  0  0  0  0
 11 32  1  0  0  0  0
 12 13  1  0  0  0  0
 12 16  1  0  0  0  0
 13 14  1  0  0  0  0
 13 42  1  0  0  0  0
 13 43  1  0  0  0  0
 14 15  1  0  0  0  0
 14 44  1  0  0  0  0
 14 45  1  0  0  0  0
 15 46  1  0  0  0  0
 16 17  1  0  0  0  0
 16 31  2  0  0  0  0
 17 18  2  0  0  0  0
 17 47  1  0  0  0  0
 18 19  1  0  0  0  0
 18 48  1  0  0  0  0
 19 20  1  0  0  0  0
 19 30  2  0  0  0  0
 20 21  2  0  0  0  0
 21 22  1  0  0  0  0
 21 49  1  0  0  0  0
 22 23  1  0  0  0  0
 22 29  2  0  0  0  0
 23 24  1  0  0  0  0
 23 28  2  0  0  0  0
 24 25  2  0  0  0  0
 24 50  1  0  0  0  0
 25 26  1  0  0  0  0
 26 27  1  0  0  0  0
 26 28  1  0  0  0  0
 27 51  1  0  0  0  0
 27 52  1  0  0  0  0
 27 53  1  0  0  0  0
 28 54  1  0  0  0  0
 29 30  1  0  0  0  0
 30 31  1  0  0  0  0
 31 55  1  0  0  0  0
 32 56  1  0  0  0  0
M  END
$$$$
