CHEMBL4776567
 OpenBabel04072215383D

 53 56  0  0  0  0  0  0  0  0999 V2000
    7.1782   -6.2308   -8.8696 C   0  0  0  0  0  0  0  0  0  0  0  0
    7.8502   -5.2905   -8.0254 O   0  0  0  0  0  0  0  0  0  0  0  0
    7.0501   -4.3436   -7.4410 C   0  0  0  0  0  0  0  0  0  0  0  0
    5.7123   -4.6264   -7.1072 C   0  0  0  0  0  0  0  0  0  0  0  0
    4.8364   -3.6571   -6.6437 C   0  0  0  0  0  0  0  0  0  0  0  0
    3.5557   -3.9900   -6.4526 N   0  0  0  0  0  0  0  0  0  0  0  0
    2.7296   -3.0024   -6.1008 C   0  0  0  0  0  0  0  0  0  0  0  0
    3.0666   -1.7256   -5.9232 N   0  0  0  0  0  0  0  0  0  0  0  0
    4.3625   -1.4039   -6.0970 C   0  0  0  0  0  0  0  0  0  0  0  0
    4.7497   -0.0419   -5.9954 N   0  0  0  0  0  0  0  0  0  0  0  0
    3.8771    1.0623   -6.0636 C   0  0  0  0  0  0  0  0  0  0  0  0
    4.1179    2.2000   -5.2909 C   0  0  0  0  0  0  0  0  0  0  0  0
    3.2059    3.2624   -5.2809 C   0  0  0  0  0  0  0  0  0  0  0  0
    2.0441    3.2127   -6.0513 C   0  0  0  0  0  0  0  0  0  0  0  0
    1.0047    4.1666   -5.9758 N   0  0  0  0  0  0  0  0  0  0  0  0
    0.9818    5.3064   -5.1874 C   0  0  0  0  0  0  0  0  0  0  0  0
    1.9267    5.7567   -4.5497 O   0  0  0  0  0  0  0  0  0  0  0  0
   -0.3430    5.9960   -5.1069 C   0  0  0  0  0  0  0  0  0  0  0  0
   -1.1300    6.1096   -6.2624 C   0  0  0  0  0  0  0  0  0  0  0  0
   -2.3848    6.7202   -6.2025 C   0  0  0  0  0  0  0  0  0  0  0  0
   -2.8673    7.2159   -4.9959 C   0  0  0  0  0  0  0  0  0  0  0  0
   -2.0805    7.1366   -3.8511 C   0  0  0  0  0  0  0  0  0  0  0  0
   -0.8089    6.5344   -3.8865 C   0  0  0  0  0  0  0  0  0  0  0  0
    0.0100    6.5101   -2.6230 C   0  0  0  0  0  0  0  0  0  0  0  0
    1.8541    2.1245   -6.9081 C   0  0  0  0  0  0  0  0  0  0  0  0
    2.7736    1.0725   -6.9237 C   0  0  0  0  0  0  0  0  0  0  0  0
    5.3225   -2.3649   -6.4460 C   0  0  0  0  0  0  0  0  0  0  0  0
    6.6926   -2.0998   -6.6587 C   0  0  0  0  0  0  0  0  0  0  0  0
    7.5619   -3.0726   -7.1626 C   0  0  0  0  0  0  0  0  0  0  0  0
    8.8173   -2.5679   -7.3364 O   0  0  0  0  0  0  0  0  0  0  0  0
    9.8162   -3.3374   -7.9805 C   0  0  0  0  0  0  0  0  0  0  0  0
    7.8472   -6.4854   -9.6968 H   0  0  0  0  0  0  0  0  0  0  0  0
    6.2566   -5.8384   -9.3177 H   0  0  0  0  0  0  0  0  0  0  0  0
    6.9657   -7.1433   -8.3037 H   0  0  0  0  0  0  0  0  0  0  0  0
    5.3079   -5.6265   -7.2425 H   0  0  0  0  0  0  0  0  0  0  0  0
    1.6849   -3.2554   -5.9596 H   0  0  0  0  0  0  0  0  0  0  0  0
    5.4712    0.0637   -5.2910 H   0  0  0  0  0  0  0  0  0  0  0  0
    4.9923    2.2598   -4.6486 H   0  0  0  0  0  0  0  0  0  0  0  0
    3.4174    4.0949   -4.6184 H   0  0  0  0  0  0  0  0  0  0  0  0
    0.1568    3.9170   -6.4663 H   0  0  0  0  0  0  0  0  0  0  0  0
   -0.7714    5.7610   -7.2274 H   0  0  0  0  0  0  0  0  0  0  0  0
   -2.9899    6.8070   -7.1020 H   0  0  0  0  0  0  0  0  0  0  0  0
   -3.8486    7.6834   -4.9494 H   0  0  0  0  0  0  0  0  0  0  0  0
   -2.4655    7.5432   -2.9177 H   0  0  0  0  0  0  0  0  0  0  0  0
   -0.5387    6.9486   -1.7820 H   0  0  0  0  0  0  0  0  0  0  0  0
    0.9211    7.1054   -2.7451 H   0  0  0  0  0  0  0  0  0  0  0  0
    0.2664    5.4830   -2.3462 H   0  0  0  0  0  0  0  0  0  0  0  0
    0.9883    2.0610   -7.5594 H   0  0  0  0  0  0  0  0  0  0  0  0
    2.5997    0.2342   -7.5951 H   0  0  0  0  0  0  0  0  0  0  0  0
    7.0910   -1.1029   -6.4787 H   0  0  0  0  0  0  0  0  0  0  0  0
   10.6262   -2.6468   -8.2422 H   0  0  0  0  0  0  0  0  0  0  0  0
    9.4684   -3.7779   -8.9171 H   0  0  0  0  0  0  0  0  0  0  0  0
   10.2273   -4.0857   -7.2971 H   0  0  0  0  0  0  0  0  0  0  0  0
  1  2  1  0  0  0  0
  1 32  1  0  0  0  0
  1 33  1  0  0  0  0
  1 34  1  0  0  0  0
  2  3  1  0  0  0  0
  3  4  1  0  0  0  0
  3 29  2  0  0  0  0
  4  5  2  0  0  0  0
  4 35  1  0  0  0  0
  5  6  1  0  0  0  0
  5 27  1  0  0  0  0
  6  7  2  0  0  0  0
  7  8  1  0  0  0  0
  7 36  1  0  0  0  0
  8  9  2  0  0  0  0
  9 10  1  0  0  0  0
  9 27  1  0  0  0  0
 10 11  1  0  0  0  0
 10 37  1  0  0  0  0
 11 12  1  0  0  0  0
 11 26  2  0  0  0  0
 12 13  2  0  0  0  0
 12 38  1  0  0  0  0
 13 14  1  0  0  0  0
 13 39  1  0  0  0  0
 14 15  1  0  0  0  0
 14 25  2  0  0  0  0
 15 16  1  0  0  0  0
 15 40  1  0  0  0  0
 16 17  2  0  0  0  0
 16 18  1  0  0  0  0
 18 19  1  0  0  0  0
 18 23  2  0  0  0  0
 19 20  2  0  0  0  0
 19 41  1  0  0  0  0
 20 21  1  0  0  0  0
 20 42  1  0  0  0  0
 21 22  2  0  0  0  0
 21 43  1  0  0  0  0
 22 23  1  0  0  0  0
 22 44  1  0  0  0  0
 23 24  1  0  0  0  0
 24 45  1  0  0  0  0
 24 46  1  0  0  0  0
 24 47  1  0  0  0  0
 25 26  1  0  0  0  0
 25 48  1  0  0  0  0
 26 49  1  0  0  0  0
 27 28  2  0  0  0  0
 28 29  1  0  0  0  0
 28 50  1  0  0  0  0
 29 30  1  0  0  0  0
 30 31  1  0  0  0  0
 31 51  1  0  0  0  0
 31 52  1  0  0  0  0
 31 53  1  0  0  0  0
M  END
$$$$
