CHEMBL2204526
 OpenBabel04072215363D

 55 58  0  0  0  0  0  0  0  0999 V2000
    3.5370    4.4922    3.4447 C   0  0  0  0  0  0  0  0  0  0  0  0
    4.2498    3.1661    3.4429 C   0  0  0  0  0  0  0  0  0  0  0  0
    3.9671    2.3033    4.2663 O   0  0  0  0  0  0  0  0  0  0  0  0
    5.2070    3.0905    2.4560 N   0  0  0  0  0  0  0  0  0  0  0  0
    5.9644    1.9652    2.2897 C   0  0  0  0  0  0  0  0  0  0  0  0
    5.7692    0.7625    2.7693 N   0  0  0  0  0  0  0  0  0  0  0  0
    6.8335   -0.0389    2.4043 C   0  0  0  0  0  0  0  0  0  0  0  0
    7.0789   -1.3806    2.6753 C   0  0  0  0  0  0  0  0  0  0  0  0
    8.2220   -1.9666    2.2295 N   0  0  0  0  0  0  0  0  0  0  0  0
    9.1229   -1.2169    1.5633 C   0  0  0  0  0  0  0  0  0  0  0  0
   10.3225   -1.8302    1.2013 N   0  0  0  0  0  0  0  0  0  0  0  0
   11.5893   -1.2158    1.1480 C   0  0  0  0  0  0  0  0  0  0  0  0
   11.8596   -0.0789    1.9318 C   0  0  0  0  0  0  0  0  0  0  0  0
   13.0415    0.6527    1.8225 C   0  0  0  0  0  0  0  0  0  0  0  0
   13.3094    1.8086    2.5961 N   0  0  0  0  0  0  0  0  0  0  0  0
   12.4652    2.3631    3.5472 C   0  0  0  0  0  0  0  0  0  0  0  0
   11.3546    1.9533    3.8733 O   0  0  0  0  0  0  0  0  0  0  0  0
   12.9605    3.5603    4.2744 C   0  0  0  0  0  0  0  0  0  0  0  0
   13.8351    4.4931    3.7124 C   0  0  0  0  0  0  0  0  0  0  0  0
   14.2034    5.6203    4.4503 C   0  0  0  0  0  0  0  0  0  0  0  0
   13.6921    5.8263    5.7361 C   0  0  0  0  0  0  0  0  0  0  0  0
   12.8026    4.9070    6.3045 C   0  0  0  0  0  0  0  0  0  0  0  0
   12.2221    5.1197    7.6831 C   0  0  0  0  0  0  0  0  0  0  0  0
   13.0232    4.4557    8.8035 C   0  0  0  0  0  0  0  0  0  0  0  0
   14.3513    5.0554    8.9605 C   0  0  0  0  0  0  0  0  0  0  0  0
   15.4036    5.5421    9.0850 N   0  0  0  0  0  0  0  0  0  0  0  0
   12.4502    3.7730    5.5671 C   0  0  0  0  0  0  0  0  0  0  0  0
   13.9942    0.2229    0.9003 C   0  0  0  0  0  0  0  0  0  0  0  0
   13.7660   -0.9271    0.1306 C   0  0  0  0  0  0  0  0  0  0  0  0
   12.5727   -1.6595    0.2538 C   0  0  0  0  0  0  0  0  0  0  0  0
   12.3392   -2.8713   -0.6025 C   0  0  0  0  0  0  0  0  0  0  0  0
    8.9455    0.0645    1.2086 N   0  0  0  0  0  0  0  0  0  0  0  0
    7.8042    0.5947    1.6521 C   0  0  0  0  0  0  0  0  0  0  0  0
    7.3513    2.2035    1.3240 S   0  0  0  0  0  0  0  0  0  0  0  0
    2.9280    4.5723    4.3501 H   0  0  0  0  0  0  0  0  0  0  0  0
    2.8858    4.5593    2.5698 H   0  0  0  0  0  0  0  0  0  0  0  0
    4.2580    5.3141    3.4402 H   0  0  0  0  0  0  0  0  0  0  0  0
    5.4809    3.9111    1.9360 H   0  0  0  0  0  0  0  0  0  0  0  0
    6.3917   -1.9947    3.2429 H   0  0  0  0  0  0  0  0  0  0  0  0
   10.3010   -2.8290    1.3371 H   0  0  0  0  0  0  0  0  0  0  0  0
   11.1010    0.2202    2.6443 H   0  0  0  0  0  0  0  0  0  0  0  0
   14.2186    2.2278    2.4640 H   0  0  0  0  0  0  0  0  0  0  0  0
   14.2074    4.3860    2.6989 H   0  0  0  0  0  0  0  0  0  0  0  0
   14.8799    6.3551    4.0179 H   0  0  0  0  0  0  0  0  0  0  0  0
   13.9900    6.7175    6.2849 H   0  0  0  0  0  0  0  0  0  0  0  0
   11.2027    4.7124    7.6961 H   0  0  0  0  0  0  0  0  0  0  0  0
   12.1116    6.1953    7.8705 H   0  0  0  0  0  0  0  0  0  0  0  0
   13.1186    3.3782    8.6240 H   0  0  0  0  0  0  0  0  0  0  0  0
   12.4719    4.5738    9.7433 H   0  0  0  0  0  0  0  0  0  0  0  0
   11.7528    3.0501    5.9881 H   0  0  0  0  0  0  0  0  0  0  0  0
   14.9205    0.7719    0.7559 H   0  0  0  0  0  0  0  0  0  0  0  0
   14.5217   -1.2359   -0.5887 H   0  0  0  0  0  0  0  0  0  0  0  0
   13.1722   -3.0463   -1.2900 H   0  0  0  0  0  0  0  0  0  0  0  0
   11.4334   -2.7419   -1.2041 H   0  0  0  0  0  0  0  0  0  0  0  0
   12.2313   -3.7604    0.0275 H   0  0  0  0  0  0  0  0  0  0  0  0
  1  2  1  0  0  0  0
  1 35  1  0  0  0  0
  1 36  1  0  0  0  0
  1 37  1  0  0  0  0
  2  3  2  0  0  0  0
  2  4  1  0  0  0  0
  4  5  1  0  0  0  0
  4 38  1  0  0  0  0
  5  6  2  0  0  0  0
  5 34  1  0  0  0  0
  6  7  1  0  0  0  0
  7  8  1  0  0  0  0
  7 33  2  0  0  0  0
  8  9  2  0  0  0  0
  8 39  1  0  0  0  0
  9 10  1  0  0  0  0
 10 11  1  0  0  0  0
 10 32  2  0  0  0  0
 11 12  1  0  0  0  0
 11 40  1  0  0  0  0
 12 13  1  0  0  0  0
 12 30  2  0  0  0  0
 13 14  2  0  0  0  0
 13 41  1  0  0  0  0
 14 15  1  0  0  0  0
 14 28  1  0  0  0  0
 15 16  1  0  0  0  0
 15 42  1  0  0  0  0
 16 17  2  0  0  0  0
 16 18  1  0  0  0  0
 18 19  1  0  0  0  0
 18 27  2  0  0  0  0
 19 20  2  0  0  0  0
 19 43  1  0  0  0  0
 20 21  1  0  0  0  0
 20 44  1  0  0  0  0
 21 22  2  0  0  0  0
 21 45  1  0  0  0  0
 22 23  1  0  0  0  0
 22 27  1  0  0  0  0
 23 24  1  0  0  0  0
 23 46  1  0  0  0  0
 23 47  1  0  0  0  0
 24 25  1  0  0  0  0
 24 48  1  0  0  0  0
 24 49  1  0  0  0  0
 25 26  3  0  0  0  0
 27 50  1  0  0  0  0
 28 29  2  0  0  0  0
 28 51  1  0  0  0  0
 29 30  1  0  0  0  0
 29 52  1  0  0  0  0
 30 31  1  0  0  0  0
 31 53  1  0  0  0  0
 31 54  1  0  0  0  0
 31 55  1  0  0  0  0
 32 33  1  0  0  0  0
 33 34  1  0  0  0  0
M  END
$$$$
