CHEMBL3759278
 OpenBabel04072215373D

 47 49  0  0  0  0  0  0  0  0999 V2000
    2.7104   -0.8120   -1.2083 C   0  0  0  0  0  0  0  0  0  0  0  0
    2.4742   -0.1021    0.0029 O   0  0  0  0  0  0  0  0  0  0  0  0
    3.1305    1.0733    0.2197 C   0  0  0  0  0  0  0  0  0  0  0  0
    4.2562    1.4746   -0.5106 C   0  0  0  0  0  0  0  0  0  0  0  0
    4.8661    2.7056   -0.3263 C   0  0  0  0  0  0  0  0  0  0  0  0
    5.9142    2.9932   -1.1046 N   0  0  0  0  0  0  0  0  0  0  0  0
    6.5148    4.1618   -0.8800 C   0  0  0  0  0  0  0  0  0  0  0  0
    6.1904    5.0303    0.0741 N   0  0  0  0  0  0  0  0  0  0  0  0
    5.1430    4.7178    0.8675 C   0  0  0  0  0  0  0  0  0  0  0  0
    4.9038    5.5364    1.9980 N   0  0  0  0  0  0  0  0  0  0  0  0
    5.8814    6.4018    2.5507 C   0  0  0  0  0  0  0  0  0  0  0  0
    7.2017    5.9442    2.7081 C   0  0  0  0  0  0  0  0  0  0  0  0
    8.2181    6.8013    3.1373 C   0  0  0  0  0  0  0  0  0  0  0  0
    7.9194    8.1245    3.4356 C   0  0  0  0  0  0  0  0  0  0  0  0
    6.6044    8.5840    3.3446 C   0  0  0  0  0  0  0  0  0  0  0  0
    5.5890    7.7219    2.9165 C   0  0  0  0  0  0  0  0  0  0  0  0
    3.9737    8.3295    2.8173 Cl  0  0  0  0  0  0  0  0  0  0  0  0
    4.3808    3.5578    0.6680 C   0  0  0  0  0  0  0  0  0  0  0  0
    3.2446    3.1727    1.4213 C   0  0  0  0  0  0  0  0  0  0  0  0
    2.6433    1.9280    1.2189 C   0  0  0  0  0  0  0  0  0  0  0  0
    1.5504    1.6861    2.0133 O   0  0  0  0  0  0  0  0  0  0  0  0
    1.5585    0.4110    2.6669 C   0  0  0  0  0  0  0  0  0  0  0  0
    0.5327    0.4199    3.8018 C   0  0  0  0  0  0  0  0  0  0  0  0
   -0.8631    0.7722    3.2940 C   0  0  0  0  0  0  0  0  0  0  0  0
   -1.9296    0.6665    4.3642 C   0  0  0  0  0  0  0  0  0  0  0  0
   -1.7231    0.3486    5.5305 O   0  0  0  0  0  0  0  0  0  0  0  0
   -3.1862    0.9863    3.8968 N   0  0  0  0  0  0  0  0  0  0  0  0
   -4.2450    0.8133    4.8178 O   0  0  0  0  0  0  0  0  0  0  0  0
    3.3548   -1.6721   -1.0043 H   0  0  0  0  0  0  0  0  0  0  0  0
    3.1281   -0.2119   -2.0208 H   0  0  0  0  0  0  0  0  0  0  0  0
    1.7443   -1.1820   -1.5647 H   0  0  0  0  0  0  0  0  0  0  0  0
    4.7131    0.8210   -1.2456 H   0  0  0  0  0  0  0  0  0  0  0  0
    7.3545    4.4189   -1.5149 H   0  0  0  0  0  0  0  0  0  0  0  0
    3.9730    5.9426    1.9839 H   0  0  0  0  0  0  0  0  0  0  0  0
    7.4528    4.9158    2.4651 H   0  0  0  0  0  0  0  0  0  0  0  0
    9.2342    6.4317    3.2114 H   0  0  0  0  0  0  0  0  0  0  0  0
    8.7158    8.8011    3.7389 H   0  0  0  0  0  0  0  0  0  0  0  0
    6.3814    9.6178    3.5913 H   0  0  0  0  0  0  0  0  0  0  0  0
    2.8377    3.8343    2.1809 H   0  0  0  0  0  0  0  0  0  0  0  0
    2.5517    0.1919    3.0779 H   0  0  0  0  0  0  0  0  0  0  0  0
    1.2700   -0.3752    1.9649 H   0  0  0  0  0  0  0  0  0  0  0  0
    0.8307    1.1444    4.5699 H   0  0  0  0  0  0  0  0  0  0  0  0
    0.5227   -0.5690    4.2818 H   0  0  0  0  0  0  0  0  0  0  0  0
   -1.1412    0.1006    2.4729 H   0  0  0  0  0  0  0  0  0  0  0  0
   -0.8753    1.8014    2.9139 H   0  0  0  0  0  0  0  0  0  0  0  0
   -3.4304    0.9605    2.9147 H   0  0  0  0  0  0  0  0  0  0  0  0
   -3.7725    0.5470    5.6366 H   0  0  0  0  0  0  0  0  0  0  0  0
  1  2  1  0  0  0  0
  1 29  1  0  0  0  0
  1 30  1  0  0  0  0
  1 31  1  0  0  0  0
  2  3  1  0  0  0  0
  3  4  1  0  0  0  0
  3 20  2  0  0  0  0
  4  5  2  0  0  0  0
  4 32  1  0  0  0  0
  5  6  1  0  0  0  0
  5 18  1  0  0  0  0
  6  7  2  0  0  0  0
  7  8  1  0  0  0  0
  7 33  1  0  0  0  0
  8  9  2  0  0  0  0
  9 10  1  0  0  0  0
  9 18  1  0  0  0  0
 10 11  1  0  0  0  0
 10 34  1  0  0  0  0
 11 12  1  0  0  0  0
 11 16  2  0  0  0  0
 12 13  2  0  0  0  0
 12 35  1  0  0  0  0
 13 14  1  0  0  0  0
 13 36  1  0  0  0  0
 14 15  2  0  0  0  0
 14 37  1  0  0  0  0
 15 16  1  0  0  0  0
 15 38  1  0  0  0  0
 16 17  1  0  0  0  0
 18 19  2  0  0  0  0
 19 20  1  0  0  0  0
 19 39  1  0  0  0  0
 20 21  1  0  0  0  0
 21 22  1  0  0  0  0
 22 23  1  0  0  0  0
 22 40  1  0  0  0  0
 22 41  1  0  0  0  0
 23 24  1  0  0  0  0
 23 42  1  0  0  0  0
 23 43  1  0  0  0  0
 24 25  1  0  0  0  0
 24 44  1  0  0  0  0
 24 45  1  0  0  0  0
 25 26  2  0  0  0  0
 25 27  1  0  0  0  0
 27 28  1  0  0  0  0
 27 46  1  0  0  0  0
 28 47  1  0  0  0  0
M  END
$$$$
