CHEMBL3936828
 OpenBabel04072215373D

 58 61  0  0  1  0  0  0  0  0999 V2000
    0.5129    4.0325   -1.0186 C   0  0  0  0  0  0  0  0  0  0  0  0
    1.8367    4.1982   -1.5308 O   0  0  0  0  0  0  0  0  0  0  0  0
    2.7923    3.3101   -1.0942 C   0  0  0  0  0  0  0  0  0  0  0  0
    2.5574    2.3236   -0.1360 C   0  0  0  0  0  0  0  0  0  0  0  0
    3.5702    1.4359    0.2067 C   0  0  0  0  0  0  0  0  0  0  0  0
    3.4556    0.4067    1.1053 O   0  0  0  0  0  0  0  0  0  0  0  0
    2.2044    0.2676    1.7699 C   0  0  0  0  0  0  0  0  0  0  0  0
    4.8264    1.5410   -0.4089 C   0  0  0  0  0  0  0  0  0  0  0  0
    5.1153    2.5184   -1.3758 C   0  0  0  0  0  0  0  0  0  0  0  0
    6.3209    2.5093   -2.1269 N   0  0  0  0  0  0  0  0  0  0  0  0
    6.9166    1.1379   -2.4171 C   0  0  0  0  0  0  0  0  0  0  0  0
    6.0307    0.1568   -3.2362 C   0  0  3  0  0  0  0  0  0  0  0  0
    5.7169    0.6627   -4.5460 O   0  0  0  0  0  0  0  0  0  0  0  0
    6.7392   -1.2155   -3.4126 C   0  0  0  0  0  0  0  0  0  0  0  0
    7.9722   -1.1530   -4.2173 N   0  0  0  0  0  0  0  0  0  0  0  0
    7.3861    3.4824   -2.1699 C   0  0  0  0  0  0  0  0  0  0  0  0
    8.0508    3.5764   -3.3948 C   0  0  0  0  0  0  0  0  0  0  0  0
    9.3717    3.9585   -3.4410 C   0  0  0  0  0  0  0  0  0  0  0  0
   10.0221    4.4334   -2.3327 C   0  0  0  0  0  0  0  0  0  0  0  0
   11.3462    4.5819   -2.4821 N   0  0  0  0  0  0  0  0  0  0  0  0
   11.9864    5.2263   -1.5041 C   0  0  0  0  0  0  0  0  0  0  0  0
   11.3149    5.7952   -0.4436 C   0  0  0  0  0  0  0  0  0  0  0  0
   12.0242    6.8502    0.2622 C   0  0  0  0  0  0  0  0  0  0  0  0
   11.9328    8.2605    0.0827 C   0  0  0  0  0  0  0  0  0  0  0  0
   12.9172    8.9380    0.6872 N   0  0  0  0  0  0  0  0  0  0  0  0
   13.6582    7.9721    1.2547 N   0  0  0  0  0  0  0  0  0  0  0  0
   14.6871    8.3107    2.2107 C   0  0  0  0  0  0  0  0  0  0  0  0
   13.2572    6.7108    0.8974 C   0  0  0  0  0  0  0  0  0  0  0  0
    9.9785    5.5319   -0.2131 N   0  0  0  0  0  0  0  0  0  0  0  0
    9.3059    4.7467   -1.1577 C   0  0  0  0  0  0  0  0  0  0  0  0
    7.9745    4.1838   -1.0811 C   0  0  0  0  0  0  0  0  0  0  0  0
    4.0702    3.4128   -1.6926 C   0  0  0  0  0  0  0  0  0  0  0  0
   -0.1416    4.7682   -1.4965 H   0  0  0  0  0  0  0  0  0  0  0  0
    0.4778    4.2164    0.0613 H   0  0  0  0  0  0  0  0  0  0  0  0
    0.1083    3.0389   -1.2553 H   0  0  0  0  0  0  0  0  0  0  0  0
    1.5849    2.2382    0.3311 H   0  0  0  0  0  0  0  0  0  0  0  0
    2.2868   -0.5750    2.4632 H   0  0  0  0  0  0  0  0  0  0  0  0
    1.4017    0.0385    1.0615 H   0  0  0  0  0  0  0  0  0  0  0  0
    1.9694    1.1604    2.3602 H   0  0  0  0  0  0  0  0  0  0  0  0
    5.5774    0.8125   -0.1215 H   0  0  0  0  0  0  0  0  0  0  0  0
    7.2400    0.6750   -1.4778 H   0  0  0  0  0  0  0  0  0  0  0  0
    7.8365    1.2413   -3.0046 H   0  0  0  0  0  0  0  0  0  0  0  0
    5.0780   -0.0235   -2.7297 H   0  0  0  0  0  0  0  0  0  0  0  0
    6.5610    0.9272   -4.9496 H   0  0  0  0  0  0  0  0  0  0  0  0
    6.0629   -1.9142   -3.9203 H   0  0  0  0  0  0  0  0  0  0  0  0
    6.9797   -1.6400   -2.4315 H   0  0  0  0  0  0  0  0  0  0  0  0
    7.7190   -0.9592   -5.1892 H   0  0  0  0  0  0  0  0  0  0  0  0
    8.3931   -2.0821   -4.2452 H   0  0  0  0  0  0  0  0  0  0  0  0
    7.5833    3.1805   -4.2959 H   0  0  0  0  0  0  0  0  0  0  0  0
    9.9200    3.8483   -4.3665 H   0  0  0  0  0  0  0  0  0  0  0  0
   13.0573    5.3343   -1.6411 H   0  0  0  0  0  0  0  0  0  0  0  0
   11.2111    8.8164   -0.5021 H   0  0  0  0  0  0  0  0  0  0  0  0
   14.7463    9.3970    2.3258 H   0  0  0  0  0  0  0  0  0  0  0  0
   15.6472    7.9151    1.8714 H   0  0  0  0  0  0  0  0  0  0  0  0
   14.4035    7.8592    3.1652 H   0  0  0  0  0  0  0  0  0  0  0  0
   13.8595    5.8471    1.1412 H   0  0  0  0  0  0  0  0  0  0  0  0
    7.4474    4.2416   -0.1318 H   0  0  0  0  0  0  0  0  0  0  0  0
    4.2170    4.1541   -2.4756 H   0  0  0  0  0  0  0  0  0  0  0  0
  1  2  1  0  0  0  0
  1 33  1  0  0  0  0
  1 34  1  0  0  0  0
  1 35  1  0  0  0  0
  2  3  1  0  0  0  0
  3  4  1  0  0  0  0
  3 32  2  0  0  0  0
  4  5  2  0  0  0  0
  4 36  1  0  0  0  0
  5  6  1  0  0  0  0
  5  8  1  0  0  0  0
  6  7  1  0  0  0  0
  7 37  1  0  0  0  0
  7 38  1  0  0  0  0
  7 39  1  0  0  0  0
  8  9  2  0  0  0  0
  8 40  1  0  0  0  0
  9 10  1  0  0  0  0
  9 32  1  0  0  0  0
 10 11  1  0  0  0  0
 10 16  1  0  0  0  0
 11 12  1  0  0  0  0
 11 41  1  0  0  0  0
 11 42  1  0  0  0  0
 12 13  1  0  0  0  0
 12 14  1  0  0  0  0
 12 43  1  0  0  0  0
 13 44  1  0  0  0  0
 14 15  1  0  0  0  0
 14 45  1  0  0  0  0
 14 46  1  0  0  0  0
 15 47  1  0  0  0  0
 15 48  1  0  0  0  0
 16 17  1  0  0  0  0
 16 31  2  0  0  0  0
 17 18  2  0  0  0  0
 17 49  1  0  0  0  0
 18 19  1  0  0  0  0
 18 50  1  0  0  0  0
 19 20  1  0  0  0  0
 19 30  2  0  0  0  0
 20 21  2  0  0  0  0
 21 22  1  0  0  0  0
 21 51  1  0  0  0  0
 22 23  1  0  0  0  0
 22 29  2  0  0  0  0
 23 24  1  0  0  0  0
 23 28  2  0  0  0  0
 24 25  2  0  0  0  0
 24 52  1  0  0  0  0
 25 26  1  0  0  0  0
 26 27  1  0  0  0  0
 26 28  1  0  0  0  0
 27 53  1  0  0  0  0
 27 54  1  0  0  0  0
 27 55  1  0  0  0  0
 28 56  1  0  0  0  0
 29 30  1  0  0  0  0
 30 31  1  0  0  0  0
 31 57  1  0  0  0  0
 32 58  1  0  0  0  0
M  END
$$$$
