CHEMBL3898689
 OpenBabel04072215373D

 54 57  0  0  0  0  0  0  0  0999 V2000
    2.6043    0.2531    0.0939 C   0  0  0  0  0  0  0  0  0  0  0  0
    1.1104    0.0811    0.1532 C   0  0  0  0  0  0  0  0  0  0  0  0
    0.3550    1.2753    0.2351 C   0  0  0  0  0  0  0  0  0  0  0  0
   -1.0385    1.2753    0.1719 C   0  0  0  0  0  0  0  0  0  0  0  0
   -1.8037    2.4205    0.2493 O   0  0  0  0  0  0  0  0  0  0  0  0
   -1.3488    3.5539   -0.4230 C   0  0  0  0  0  0  0  0  0  0  0  0
   -1.7838    4.7815    0.0396 C   0  0  0  0  0  0  0  0  0  0  0  0
   -1.3275    5.8805   -0.6598 C   0  0  0  0  0  0  0  0  0  0  0  0
   -1.7650    7.1595   -0.2813 N   0  0  0  0  0  0  0  0  0  0  0  0
   -1.4633    8.3121   -0.9901 C   0  0  0  0  0  0  0  0  0  0  0  0
   -0.7993    8.4089   -2.0091 O   0  0  0  0  0  0  0  0  0  0  0  0
   -2.0333    9.5498   -0.3832 C   0  0  0  0  0  0  0  0  0  0  0  0
   -1.9030   10.8857   -1.1144 C   0  0  0  0  0  0  0  0  0  0  0  0
   -1.0693   10.6208    0.1041 C   0  0  0  0  0  0  0  0  0  0  0  0
   -0.4839    5.7573   -1.6917 N   0  0  0  0  0  0  0  0  0  0  0  0
   -0.1346    4.5263   -2.0658 C   0  0  0  0  0  0  0  0  0  0  0  0
   -0.5489    3.3997   -1.4922 N   0  0  0  0  0  0  0  0  0  0  0  0
   -1.6987    0.0609    0.0962 C   0  0  0  0  0  0  0  0  0  0  0  0
   -0.9662   -1.1345    0.0579 C   0  0  0  0  0  0  0  0  0  0  0  0
    0.4391   -1.1602    0.0779 C   0  0  0  0  0  0  0  0  0  0  0  0
    1.1659   -2.3948    0.0546 N   0  0  0  0  0  0  0  0  0  0  0  0
    0.6078   -3.6681   -0.0748 C   0  0  0  0  0  0  0  0  0  0  0  0
   -0.5728   -3.9081   -0.3017 O   0  0  0  0  0  0  0  0  0  0  0  0
    1.5353   -4.6873    0.1350 N   0  0  0  0  0  0  0  0  0  0  0  0
    1.1210   -6.0506    0.0726 C   0  0  0  0  0  0  0  0  0  0  0  0
    1.4541   -6.9081    1.1239 C   0  0  0  0  0  0  0  0  0  0  0  0
    0.9990   -8.2311    1.1274 C   0  0  0  0  0  0  0  0  0  0  0  0
    0.2586   -8.7246    0.0540 C   0  0  0  0  0  0  0  0  0  0  0  0
   -0.0477   -7.8969   -1.0349 C   0  0  0  0  0  0  0  0  0  0  0  0
   -0.8034   -8.4417   -2.2237 C   0  0  0  0  0  0  0  0  0  0  0  0
   -1.0822   -9.7746   -2.1212 F   0  0  0  0  0  0  0  0  0  0  0  0
   -2.0018   -7.8305   -2.4260 F   0  0  0  0  0  0  0  0  0  0  0  0
   -0.1087   -8.3070   -3.3884 F   0  0  0  0  0  0  0  0  0  0  0  0
    0.3730   -6.5512   -1.0045 C   0  0  0  0  0  0  0  0  0  0  0  0
    2.8863    1.2996    0.2746 H   0  0  0  0  0  0  0  0  0  0  0  0
    2.9748   -0.0050   -0.9027 H   0  0  0  0  0  0  0  0  0  0  0  0
    3.1072   -0.3446    0.8566 H   0  0  0  0  0  0  0  0  0  0  0  0
    0.8741    2.2272    0.3205 H   0  0  0  0  0  0  0  0  0  0  0  0
   -2.4458    4.8518    0.8898 H   0  0  0  0  0  0  0  0  0  0  0  0
   -2.3574    7.2415    0.5272 H   0  0  0  0  0  0  0  0  0  0  0  0
   -2.9477    9.4263    0.1698 H   0  0  0  0  0  0  0  0  0  0  0  0
   -2.7167   11.5972   -1.0284 H   0  0  0  0  0  0  0  0  0  0  0  0
   -1.4059   10.9012   -2.0721 H   0  0  0  0  0  0  0  0  0  0  0  0
   -1.3206   11.1542    1.0200 H   0  0  0  0  0  0  0  0  0  0  0  0
   -0.0076   10.4645   -0.0459 H   0  0  0  0  0  0  0  0  0  0  0  0
    0.5481    4.4417   -2.9034 H   0  0  0  0  0  0  0  0  0  0  0  0
   -2.7835    0.0171    0.0567 H   0  0  0  0  0  0  0  0  0  0  0  0
   -1.5556   -2.0430    0.0048 H   0  0  0  0  0  0  0  0  0  0  0  0
    2.1705   -2.3342    0.0331 H   0  0  0  0  0  0  0  0  0  0  0  0
    2.2303   -4.4732    0.8359 H   0  0  0  0  0  0  0  0  0  0  0  0
    2.0100   -6.5469    1.9834 H   0  0  0  0  0  0  0  0  0  0  0  0
    1.2123   -8.8788    1.9752 H   0  0  0  0  0  0  0  0  0  0  0  0
   -0.0796   -9.7610    0.0691 H   0  0  0  0  0  0  0  0  0  0  0  0
    0.1166   -5.8975   -1.8379 H   0  0  0  0  0  0  0  0  0  0  0  0
  1  2  1  0  0  0  0
  1 35  1  0  0  0  0
  1 36  1  0  0  0  0
  1 37  1  0  0  0  0
  2  3  1  0  0  0  0
  2 20  2  0  0  0  0
  3  4  2  0  0  0  0
  3 38  1  0  0  0  0
  4  5  1  0  0  0  0
  4 18  1  0  0  0  0
  5  6  1  0  0  0  0
  6  7  1  0  0  0  0
  6 17  2  0  0  0  0
  7  8  2  0  0  0  0
  7 39  1  0  0  0  0
  8  9  1  0  0  0  0
  8 15  1  0  0  0  0
  9 10  1  0  0  0  0
  9 40  1  0  0  0  0
 10 11  2  0  0  0  0
 10 12  1  0  0  0  0
 12 13  1  0  0  0  0
 12 14  1  0  0  0  0
 12 41  1  0  0  0  0
 13 14  1  0  0  0  0
 13 42  1  0  0  0  0
 13 43  1  0  0  0  0
 14 44  1  0  0  0  0
 14 45  1  0  0  0  0
 15 16  2  0  0  0  0
 16 17  1  0  0  0  0
 16 46  1  0  0  0  0
 18 19  2  0  0  0  0
 18 47  1  0  0  0  0
 19 20  1  0  0  0  0
 19 48  1  0  0  0  0
 20 21  1  0  0  0  0
 21 22  1  0  0  0  0
 21 49  1  0  0  0  0
 22 23  2  0  0  0  0
 22 24  1  0  0  0  0
 24 25  1  0  0  0  0
 24 50  1  0  0  0  0
 25 26  1  0  0  0  0
 25 34  2  0  0  0  0
 26 27  2  0  0  0  0
 26 51  1  0  0  0  0
 27 28  1  0  0  0  0
 27 52  1  0  0  0  0
 28 29  2  0  0  0  0
 28 53  1  0  0  0  0
 29 30  1  0  0  0  0
 29 34  1  0  0  0  0
 30 31  1  0  0  0  0
 30 32  1  0  0  0  0
 30 33  1  0  0  0  0
 34 54  1  0  0  0  0
M  END
$$$$
