CHEMBL344319
 OpenBabel04072215363D

 38 40  0  0  0  0  0  0  0  0999 V2000
    2.4083   -0.1740   -0.1070 C   0  0  0  0  0  0  0  0  0  0  0  0
    0.9226   -0.0791   -0.1123 C   0  0  0  0  0  0  0  0  0  0  0  0
    0.0954    1.0955   -0.1246 C   0  0  0  0  0  0  0  0  0  0  0  0
    0.5137    2.5368   -0.0608 C   0  0  0  0  0  0  0  0  0  0  0  0
    1.2945    2.9969   -1.2842 C   0  0  0  0  0  0  0  0  0  0  0  0
    1.6522    4.4608   -1.1979 C   0  0  0  0  0  0  0  0  0  0  0  0
    1.3349    5.2199   -0.2979 O   0  0  0  0  0  0  0  0  0  0  0  0
    2.3978    4.8624   -2.2541 O   0  0  0  0  0  0  0  0  0  0  0  0
   -1.2147    0.6515   -0.1145 C   0  0  0  0  0  0  0  0  0  0  0  0
   -1.2165   -0.7161   -0.0391 N   0  0  0  0  0  0  0  0  0  0  0  0
    0.0732   -1.1707   -0.0086 C   0  0  0  0  0  0  0  0  0  0  0  0
    0.3323   -2.5485    0.1910 C   0  0  0  0  0  0  0  0  0  0  0  0
    0.4418   -3.0655    1.4255 C   0  0  0  0  0  0  0  0  0  0  0  0
    0.1396   -2.3683    2.7362 C   0  0  0  0  0  0  0  0  0  0  0  0
   -0.3509   -1.2747    2.9346 O   0  0  0  0  0  0  0  0  0  0  0  0
    0.5046   -3.2762    3.7148 N   0  0  0  0  0  0  0  0  0  0  0  0
    0.9699   -4.4623    3.1633 C   0  0  0  0  0  0  0  0  0  0  0  0
    1.4160   -5.5657    3.8619 C   0  0  0  0  0  0  0  0  0  0  0  0
    1.8656   -6.6531    3.1149 C   0  0  0  0  0  0  0  0  0  0  0  0
    1.8619   -6.6097    1.7081 C   0  0  0  0  0  0  0  0  0  0  0  0
    1.4012   -5.4770    1.0214 C   0  0  0  0  0  0  0  0  0  0  0  0
    0.9461   -4.4043    1.7666 C   0  0  0  0  0  0  0  0  0  0  0  0
    2.8940    0.8025   -0.1207 H   0  0  0  0  0  0  0  0  0  0  0  0
    2.7463   -0.7349   -0.9860 H   0  0  0  0  0  0  0  0  0  0  0  0
    2.7538   -0.7020    0.7875 H   0  0  0  0  0  0  0  0  0  0  0  0
    1.1039    2.6940    0.8516 H   0  0  0  0  0  0  0  0  0  0  0  0
   -0.3813    3.1646    0.0518 H   0  0  0  0  0  0  0  0  0  0  0  0
    0.7022    2.8396   -2.1916 H   0  0  0  0  0  0  0  0  0  0  0  0
    2.2290    2.4363   -1.3753 H   0  0  0  0  0  0  0  0  0  0  0  0
    2.5786    4.1496   -2.8962 H   0  0  0  0  0  0  0  0  0  0  0  0
   -2.1486    1.1985   -0.0835 H   0  0  0  0  0  0  0  0  0  0  0  0
   -2.0414   -1.2901    0.0703 H   0  0  0  0  0  0  0  0  0  0  0  0
    0.5927   -3.1361   -0.6846 H   0  0  0  0  0  0  0  0  0  0  0  0
    0.4124   -3.0704    4.6967 H   0  0  0  0  0  0  0  0  0  0  0  0
    1.4260   -5.5864    4.9453 H   0  0  0  0  0  0  0  0  0  0  0  0
    2.2306   -7.5424    3.6263 H   0  0  0  0  0  0  0  0  0  0  0  0
    2.2306   -7.4680    1.1497 H   0  0  0  0  0  0  0  0  0  0  0  0
    1.4196   -5.4535   -0.0630 H   0  0  0  0  0  0  0  0  0  0  0  0
  1  2  1  0  0  0  0
  1 23  1  0  0  0  0
  1 24  1  0  0  0  0
  1 25  1  0  0  0  0
  2  3  1  0  0  0  0
  2 11  2  0  0  0  0
  3  4  1  0  0  0  0
  3  9  2  0  0  0  0
  4  5  1  0  0  0  0
  4 26  1  0  0  0  0
  4 27  1  0  0  0  0
  5  6  1  0  0  0  0
  5 28  1  0  0  0  0
  5 29  1  0  0  0  0
  6  7  2  0  0  0  0
  6  8  1  0  0  0  0
  8 30  1  0  0  0  0
  9 10  1  0  0  0  0
  9 31  1  0  0  0  0
 10 11  1  0  0  0  0
 10 32  1  0  0  0  0
 11 12  1  0  0  0  0
 12 13  2  0  0  0  0
 12 33  1  0  0  0  0
 13 14  1  0  0  0  0
 13 22  1  0  0  0  0
 14 15  2  0  0  0  0
 14 16  1  0  0  0  0
 16 17  1  0  0  0  0
 16 34  1  0  0  0  0
 17 18  1  0  0  0  0
 17 22  2  0  0  0  0
 18 19  2  0  0  0  0
 18 35  1  0  0  0  0
 19 20  1  0  0  0  0
 19 36  1  0  0  0  0
 20 21  2  0  0  0  0
 20 37  1  0  0  0  0
 21 22  1  0  0  0  0
 21 38  1  0  0  0  0
M  END
$$$$
