CHEMBL4161551
 OpenBabel04072215383D

 64 69  0  0  0  0  0  0  0  0999 V2000
    1.0142    0.8795   -0.1576 C   0  0  0  0  0  0  0  0  0  0  0  0
    2.4424    0.8595   -0.1596 O   0  0  0  0  0  0  0  0  0  0  0  0
    2.9865    0.4445    1.0135 C   0  0  0  0  0  0  0  0  0  0  0  0
    2.3668    0.0811    1.9979 O   0  0  0  0  0  0  0  0  0  0  0  0
    4.4716    0.5289    0.9746 C   0  0  0  0  0  0  0  0  0  0  0  0
    5.1954    0.9502   -0.1644 C   0  0  0  0  0  0  0  0  0  0  0  0
    6.5987    1.0552   -0.1381 C   0  0  0  0  0  0  0  0  0  0  0  0
    7.2674    0.7475    1.0342 C   0  0  0  0  0  0  0  0  0  0  0  0
    6.5323    0.3250    2.1509 C   0  0  0  0  0  0  0  0  0  0  0  0
    5.1583    0.1946    2.1491 C   0  0  0  0  0  0  0  0  0  0  0  0
    7.3661    0.0958    3.2382 N   0  0  0  0  0  0  0  0  0  0  0  0
    8.6837    0.3694    2.9249 C   0  0  0  0  0  0  0  0  0  0  0  0
    9.6213    0.4157    3.6994 O   0  0  0  0  0  0  0  0  0  0  0  0
    8.6806    0.7101    1.4533 C   0  0  0  0  0  0  0  0  0  0  0  0
    9.8449    0.8789    0.7880 C   0  0  0  0  0  0  0  0  0  0  0  0
   11.1245    0.6500    1.3052 N   0  0  0  0  0  0  0  0  0  0  0  0
   11.7064   -0.6647    1.3430 C   0  0  0  0  0  0  0  0  0  0  0  0
   11.1714   -1.7649    0.6503 C   0  0  0  0  0  0  0  0  0  0  0  0
   11.7501   -3.0310    0.7521 C   0  0  0  0  0  0  0  0  0  0  0  0
   12.8808   -3.1789    1.5389 C   0  0  0  0  0  0  0  0  0  0  0  0
   13.4834   -2.0899    2.1752 C   0  0  0  0  0  0  0  0  0  0  0  0
   12.8992   -0.8347    2.0767 C   0  0  0  0  0  0  0  0  0  0  0  0
   14.6364   -2.5309    2.8563 N   0  0  0  0  0  0  0  0  0  0  0  0
   15.6257   -1.8738    3.5565 C   0  0  0  0  0  0  0  0  0  0  0  0
   16.5106   -2.5214    4.1366 O   0  0  0  0  0  0  0  0  0  0  0  0
   15.6756   -0.3714    3.6265 C   0  0  0  0  0  0  0  0  0  0  0  0
   14.8878    0.1613    4.7212 N   0  0  0  0  0  0  0  0  0  0  0  0
   14.6537   -0.4029    5.9450 C   0  0  0  0  0  0  0  0  0  0  0  0
   13.8513    0.4771    6.6283 C   0  0  0  0  0  0  0  0  0  0  0  0
   13.6773    1.5579    5.7477 C   0  0  0  0  0  0  0  0  0  0  0  0
   14.3216    1.3815    4.5914 N   0  0  0  0  0  0  0  0  0  0  0  0
   14.6652   -4.0022    2.8090 C   0  0  0  0  0  0  0  0  0  0  0  0
   13.6150   -4.4550    1.7985 C   0  0  0  0  0  0  0  0  0  0  0  0
    9.8703    1.5065   -0.5493 C   0  0  0  0  0  0  0  0  0  0  0  0
    9.9670    2.9074   -0.6183 C   0  0  0  0  0  0  0  0  0  0  0  0
   10.0477    3.5560   -1.8512 C   0  0  0  0  0  0  0  0  0  0  0  0
   10.0342    2.8113   -3.0260 C   0  0  0  0  0  0  0  0  0  0  0  0
    9.9328    1.4201   -2.9719 C   0  0  0  0  0  0  0  0  0  0  0  0
    9.8538    0.7679   -1.7380 C   0  0  0  0  0  0  0  0  0  0  0  0
    0.6722    1.0495   -1.1821 H   0  0  0  0  0  0  0  0  0  0  0  0
    0.6541    1.7012    0.4701 H   0  0  0  0  0  0  0  0  0  0  0  0
    0.6027   -0.0758    0.1867 H   0  0  0  0  0  0  0  0  0  0  0  0
    4.6708    1.2090   -1.0815 H   0  0  0  0  0  0  0  0  0  0  0  0
    7.1245    1.3841   -1.0285 H   0  0  0  0  0  0  0  0  0  0  0  0
    4.6253   -0.1425    3.0336 H   0  0  0  0  0  0  0  0  0  0  0  0
    7.0660   -0.1379    4.1726 H   0  0  0  0  0  0  0  0  0  0  0  0
   11.1565    0.9668    2.2853 H   0  0  0  0  0  0  0  0  0  0  0  0
   10.2745   -1.6627    0.0504 H   0  0  0  0  0  0  0  0  0  0  0  0
   11.3133   -3.8786    0.2335 H   0  0  0  0  0  0  0  0  0  0  0  0
   13.2950    0.0368    2.5749 H   0  0  0  0  0  0  0  0  0  0  0  0
   15.3794    0.0873    2.6812 H   0  0  0  0  0  0  0  0  0  0  0  0
   16.7108   -0.0600    3.8092 H   0  0  0  0  0  0  0  0  0  0  0  0
   15.0591   -1.3680    6.2209 H   0  0  0  0  0  0  0  0  0  0  0  0
   13.4523    0.3567    7.6252 H   0  0  0  0  0  0  0  0  0  0  0  0
   13.1125    2.4681    5.9024 H   0  0  0  0  0  0  0  0  0  0  0  0
   14.4309   -4.3722    3.8157 H   0  0  0  0  0  0  0  0  0  0  0  0
   15.6668   -4.3609    2.5462 H   0  0  0  0  0  0  0  0  0  0  0  0
   12.9632   -5.2249    2.2232 H   0  0  0  0  0  0  0  0  0  0  0  0
   14.0823   -4.8298    0.8829 H   0  0  0  0  0  0  0  0  0  0  0  0
   10.0052    3.4975    0.2949 H   0  0  0  0  0  0  0  0  0  0  0  0
   10.1446    4.6381   -1.8882 H   0  0  0  0  0  0  0  0  0  0  0  0
   10.1144    3.3136   -3.9869 H   0  0  0  0  0  0  0  0  0  0  0  0
    9.9387    0.8412   -3.8902 H   0  0  0  0  0  0  0  0  0  0  0  0
    9.7939   -0.3153   -1.7169 H   0  0  0  0  0  0  0  0  0  0  0  0
  1  2  1  0  0  0  0
  1 40  1  0  0  0  0
  1 41  1  0  0  0  0
  1 42  1  0  0  0  0
  2  3  1  0  0  0  0
  3  4  2  0  0  0  0
  3  5  1  0  0  0  0
  5  6  1  0  0  0  0
  5 10  2  0  0  0  0
  6  7  2  0  0  0  0
  6 43  1  0  0  0  0
  7  8  1  0  0  0  0
  7 44  1  0  0  0  0
  8  9  2  0  0  0  0
  8 14  1  0  0  0  0
  9 10  1  0  0  0  0
  9 11  1  0  0  0  0
 10 45  1  0  0  0  0
 11 12  1  0  0  0  0
 11 46  1  0  0  0  0
 12 13  2  0  0  0  0
 12 14  1  0  0  0  0
 14 15  2  0  0  0  0
 15 16  1  0  0  0  0
 15 34  1  0  0  0  0
 16 17  1  0  0  0  0
 16 47  1  0  0  0  0
 17 18  1  0  0  0  0
 17 22  2  0  0  0  0
 18 19  2  0  0  0  0
 18 48  1  0  0  0  0
 19 20  1  0  0  0  0
 19 49  1  0  0  0  0
 20 21  2  0  0  0  0
 20 33  1  0  0  0  0
 21 22  1  0  0  0  0
 21 23  1  0  0  0  0
 22 50  1  0  0  0  0
 23 24  1  0  0  0  0
 23 32  1  0  0  0  0
 24 25  2  0  0  0  0
 24 26  1  0  0  0  0
 26 27  1  0  0  0  0
 26 51  1  0  0  0  0
 26 52  1  0  0  0  0
 27 28  1  0  0  0  0
 27 31  1  0  0  0  0
 28 29  2  0  0  0  0
 28 53  1  0  0  0  0
 29 30  1  0  0  0  0
 29 54  1  0  0  0  0
 30 31  2  0  0  0  0
 30 55  1  0  0  0  0
 32 33  1  0  0  0  0
 32 56  1  0  0  0  0
 32 57  1  0  0  0  0
 33 58  1  0  0  0  0
 33 59  1  0  0  0  0
 34 35  1  0  0  0  0
 34 39  2  0  0  0  0
 35 36  2  0  0  0  0
 35 60  1  0  0  0  0
 36 37  1  0  0  0  0
 36 61  1  0  0  0  0
 37 38  2  0  0  0  0
 37 62  1  0  0  0  0
 38 39  1  0  0  0  0
 38 63  1  0  0  0  0
 39 64  1  0  0  0  0
M  END
$$$$
