CHEMBL1956898
 OpenBabel04072215363D

 53 56  0  0  0  0  0  0  0  0999 V2000
    1.6705   -1.9411   -5.4360 C   0  0  0  0  0  0  0  0  0  0  0  0
    1.8953   -2.0023   -4.0337 O   0  0  0  0  0  0  0  0  0  0  0  0
    2.5977   -0.9763   -3.4555 C   0  0  0  0  0  0  0  0  0  0  0  0
    2.6363    0.3123   -4.0115 C   0  0  0  0  0  0  0  0  0  0  0  0
    3.2491    1.3794   -3.3386 C   0  0  0  0  0  0  0  0  0  0  0  0
    3.1763    2.7855   -3.8888 C   0  0  0  0  0  0  0  0  0  0  0  0
    1.9763    3.4558   -3.4060 N   0  0  0  0  0  0  0  0  0  0  0  0
    0.7742    3.5027   -4.0728 C   0  0  0  0  0  0  0  0  0  0  0  0
   -0.1474    4.0946   -3.2358 C   0  0  0  0  0  0  0  0  0  0  0  0
    0.5248    4.4417   -2.0293 C   0  0  0  0  0  0  0  0  0  0  0  0
    0.1713    5.0340   -0.8056 C   0  0  0  0  0  0  0  0  0  0  0  0
   -1.1607    5.3659   -0.5173 N   0  0  0  0  0  0  0  0  0  0  0  0
   -1.6878    6.3494    0.3330 C   0  0  0  0  0  0  0  0  0  0  0  0
   -0.8900    7.2629    1.0387 C   0  0  0  0  0  0  0  0  0  0  0  0
   -1.4553    8.2341    1.8638 C   0  0  0  0  0  0  0  0  0  0  0  0
   -2.8376    8.2977    2.0209 C   0  0  0  0  0  0  0  0  0  0  0  0
   -3.6391    7.3725    1.3629 C   0  0  0  0  0  0  0  0  0  0  0  0
   -5.5194    7.4452    1.5769 Br  0  0  0  0  0  0  0  0  0  0  0  0
   -3.0762    6.4001    0.5344 C   0  0  0  0  0  0  0  0  0  0  0  0
    1.1588    5.2280    0.1030 N   0  0  0  0  0  0  0  0  0  0  0  0
    2.4158    4.8693   -0.1815 C   0  0  0  0  0  0  0  0  0  0  0  0
    3.3456    5.0808    0.8212 N   0  0  0  0  0  0  0  0  0  0  0  0
    2.8412    4.2723   -1.2983 N   0  0  0  0  0  0  0  0  0  0  0  0
    1.8546    4.0834   -2.1894 C   0  0  0  0  0  0  0  0  0  0  0  0
    3.8428    1.1408   -2.0941 C   0  0  0  0  0  0  0  0  0  0  0  0
    3.8029   -0.1308   -1.5150 C   0  0  0  0  0  0  0  0  0  0  0  0
    4.3685   -0.4046   -0.2901 O   0  0  0  0  0  0  0  0  0  0  0  0
    4.3477    0.6653    0.6485 C   0  0  0  0  0  0  0  0  0  0  0  0
    3.2015   -1.2062   -2.2026 C   0  0  0  0  0  0  0  0  0  0  0  0
    3.1925   -2.4003   -1.5173 O   0  0  0  0  0  0  0  0  0  0  0  0
    3.2543   -3.5928   -2.2872 C   0  0  0  0  0  0  0  0  0  0  0  0
    1.1432   -2.8544   -5.7274 H   0  0  0  0  0  0  0  0  0  0  0  0
    2.6202   -1.9096   -5.9792 H   0  0  0  0  0  0  0  0  0  0  0  0
    1.0263   -1.1005   -5.7110 H   0  0  0  0  0  0  0  0  0  0  0  0
    2.1450    0.5256   -4.9553 H   0  0  0  0  0  0  0  0  0  0  0  0
    3.1401    2.7744   -4.9847 H   0  0  0  0  0  0  0  0  0  0  0  0
    4.0495    3.3812   -3.6004 H   0  0  0  0  0  0  0  0  0  0  0  0
    0.6644    3.0887   -5.0666 H   0  0  0  0  0  0  0  0  0  0  0  0
   -1.1916    4.2565   -3.4676 H   0  0  0  0  0  0  0  0  0  0  0  0
   -1.8173    5.0128   -1.1989 H   0  0  0  0  0  0  0  0  0  0  0  0
    0.1920    7.2531    0.9314 H   0  0  0  0  0  0  0  0  0  0  0  0
   -0.8125    8.9436    2.3776 H   0  0  0  0  0  0  0  0  0  0  0  0
   -3.2712    9.0629    2.6571 H   0  0  0  0  0  0  0  0  0  0  0  0
   -3.7207    5.6806    0.0384 H   0  0  0  0  0  0  0  0  0  0  0  0
    2.8551    5.1270    1.7053 H   0  0  0  0  0  0  0  0  0  0  0  0
    4.0930    4.4085    0.7424 H   0  0  0  0  0  0  0  0  0  0  0  0
    4.3149    1.9709   -1.5769 H   0  0  0  0  0  0  0  0  0  0  0  0
    4.5826    0.2520    1.6339 H   0  0  0  0  0  0  0  0  0  0  0  0
    3.3592    1.1335    0.7084 H   0  0  0  0  0  0  0  0  0  0  0  0
    5.1182    1.4072    0.4122 H   0  0  0  0  0  0  0  0  0  0  0  0
    3.5895   -4.3980   -1.6249 H   0  0  0  0  0  0  0  0  0  0  0  0
    3.9750   -3.5196   -3.1089 H   0  0  0  0  0  0  0  0  0  0  0  0
    2.2615   -3.8778   -2.6464 H   0  0  0  0  0  0  0  0  0  0  0  0
  1  2  1  0  0  0  0
  1 32  1  0  0  0  0
  1 33  1  0  0  0  0
  1 34  1  0  0  0  0
  2  3  1  0  0  0  0
  3  4  1  0  0  0  0
  3 29  2  0  0  0  0
  4  5  2  0  0  0  0
  4 35  1  0  0  0  0
  5  6  1  0  0  0  0
  5 25  1  0  0  0  0
  6  7  1  0  0  0  0
  6 36  1  0  0  0  0
  6 37  1  0  0  0  0
  7  8  1  0  0  0  0
  7 24  1  0  0  0  0
  8  9  2  0  0  0  0
  8 38  1  0  0  0  0
  9 10  1  0  0  0  0
  9 39  1  0  0  0  0
 10 11  1  0  0  0  0
 10 24  2  0  0  0  0
 11 12  1  0  0  0  0
 11 20  2  0  0  0  0
 12 13  1  0  0  0  0
 12 40  1  0  0  0  0
 13 14  1  0  0  0  0
 13 19  2  0  0  0  0
 14 15  2  0  0  0  0
 14 41  1  0  0  0  0
 15 16  1  0  0  0  0
 15 42  1  0  0  0  0
 16 17  2  0  0  0  0
 16 43  1  0  0  0  0
 17 18  1  0  0  0  0
 17 19  1  0  0  0  0
 19 44  1  0  0  0  0
 20 21  1  0  0  0  0
 21 22  1  0  0  0  0
 21 23  2  0  0  0  0
 22 45  1  0  0  0  0
 22 46  1  0  0  0  0
 23 24  1  0  0  0  0
 25 26  2  0  0  0  0
 25 47  1  0  0  0  0
 26 27  1  0  0  0  0
 26 29  1  0  0  0  0
 27 28  1  0  0  0  0
 28 48  1  0  0  0  0
 28 49  1  0  0  0  0
 28 50  1  0  0  0  0
 29 30  1  0  0  0  0
 30 31  1  0  0  0  0
 31 51  1  0  0  0  0
 31 52  1  0  0  0  0
 31 53  1  0  0  0  0
M  END
$$$$
