CHEMBL1967252
 OpenBabel04072215363D

 27 29  0  0  0  0  0  0  0  0999 V2000
   -2.5422    1.5012   -0.0067 C   0  0  0  0  0  0  0  0  0  0  0  0
   -1.5769    0.3757   -0.0090 C   0  0  0  0  0  0  0  0  0  0  0  0
   -2.0060   -0.8935   -0.0026 N   0  0  0  0  0  0  0  0  0  0  0  0
   -0.8732   -1.6149   -0.0017 N   0  0  0  0  0  0  0  0  0  0  0  0
    0.2716   -0.8638   -0.0032 C   0  0  0  0  0  0  0  0  0  0  0  0
    1.6199   -1.2190    0.0048 C   0  0  0  0  0  0  0  0  0  0  0  0
    2.5543   -0.1702    0.0120 C   0  0  0  0  0  0  0  0  0  0  0  0
    2.1788    1.1877   -0.0041 C   0  0  0  0  0  0  0  0  0  0  0  0
    3.1918    2.2688   -0.0050 C   0  0  0  0  0  0  0  0  0  0  0  0
    2.9709    3.5057    0.6211 C   0  0  0  0  0  0  0  0  0  0  0  0
    3.9443    4.5048    0.5964 C   0  0  0  0  0  0  0  0  0  0  0  0
    5.1373    4.2432   -0.0505 C   0  0  0  0  0  0  0  0  0  0  0  0
    5.4073    3.0765   -0.6668 N   0  0  0  0  0  0  0  0  0  0  0  0
    4.4335    2.1314   -0.6330 C   0  0  0  0  0  0  0  0  0  0  0  0
    0.7996    1.4871   -0.0198 C   0  0  0  0  0  0  0  0  0  0  0  0
   -0.1579    0.4541   -0.0103 C   0  0  0  0  0  0  0  0  0  0  0  0
   -3.5777    1.1467   -0.0188 H   0  0  0  0  0  0  0  0  0  0  0  0
   -2.3900    2.1343   -0.8867 H   0  0  0  0  0  0  0  0  0  0  0  0
   -2.4053    2.1172    0.8880 H   0  0  0  0  0  0  0  0  0  0  0  0
   -0.9487   -2.6254    0.0008 H   0  0  0  0  0  0  0  0  0  0  0  0
    1.9417   -2.2554    0.0118 H   0  0  0  0  0  0  0  0  0  0  0  0
    3.6068   -0.4473    0.0427 H   0  0  0  0  0  0  0  0  0  0  0  0
    2.0412    3.7059    1.1479 H   0  0  0  0  0  0  0  0  0  0  0  0
    3.7730    5.4621    1.0756 H   0  0  0  0  0  0  0  0  0  0  0  0
    5.9289    4.9852   -0.0914 H   0  0  0  0  0  0  0  0  0  0  0  0
    4.6991    1.2213   -1.1648 H   0  0  0  0  0  0  0  0  0  0  0  0
    0.4507    2.5154   -0.0481 H   0  0  0  0  0  0  0  0  0  0  0  0
  1  2  1  0  0  0  0
  1 17  1  0  0  0  0
  1 18  1  0  0  0  0
  1 19  1  0  0  0  0
  2  3  2  0  0  0  0
  2 16  1  0  0  0  0
  3  4  1  0  0  0  0
  4  5  1  0  0  0  0
  4 20  1  0  0  0  0
  5  6  1  0  0  0  0
  5 16  2  0  0  0  0
  6  7  2  0  0  0  0
  6 21  1  0  0  0  0
  7  8  1  0  0  0  0
  7 22  1  0  0  0  0
  8  9  1  0  0  0  0
  8 15  2  0  0  0  0
  9 10  1  0  0  0  0
  9 14  2  0  0  0  0
 10 11  2  0  0  0  0
 10 23  1  0  0  0  0
 11 12  1  0  0  0  0
 11 24  1  0  0  0  0
 12 13  2  0  0  0  0
 12 25  1  0  0  0  0
 13 14  1  0  0  0  0
 14 26  1  0  0  0  0
 15 16  1  0  0  0  0
 15 27  1  0  0  0  0
M  END
$$$$
