CHEMBL195903
 OpenBabel04072215363D

 57 60  0  0  0  0  0  0  0  0999 V2000
   -1.0869    6.3878   -8.0838 C   0  0  0  0  0  0  0  0  0  0  0  0
   -1.5543    5.8099   -6.8668 O   0  0  0  0  0  0  0  0  0  0  0  0
   -0.4665    5.1480   -6.2496 N   0  0  0  0  0  0  0  0  0  0  0  0
    0.2346    5.9068   -5.3395 C   0  0  0  0  0  0  0  0  0  0  0  0
    0.1132    7.1193   -5.1897 O   0  0  0  0  0  0  0  0  0  0  0  0
    1.2272    5.1876   -4.5106 C   0  0  0  0  0  0  0  0  0  0  0  0
    2.3478    5.9013   -4.0575 C   0  0  0  0  0  0  0  0  0  0  0  0
    3.2542    5.3231   -3.1632 C   0  0  0  0  0  0  0  0  0  0  0  0
    4.3742    6.0224   -2.6652 N   0  0  0  0  0  0  0  0  0  0  0  0
    5.0114    7.0921   -3.2509 C   0  0  0  0  0  0  0  0  0  0  0  0
    5.0852    7.1221   -4.5550 N   0  0  0  0  0  0  0  0  0  0  0  0
    5.7545    8.1264   -5.1900 C   0  0  0  0  0  0  0  0  0  0  0  0
    6.3607    9.1147   -4.6279 N   0  0  0  0  0  0  0  0  0  0  0  0
    6.2844    9.1124   -3.2899 N   0  0  0  0  0  0  0  0  0  0  0  0
    6.8258   10.0846   -2.5042 C   0  0  0  0  0  0  0  0  0  0  0  0
    6.5240    9.8008   -1.1963 C   0  0  0  0  0  0  0  0  0  0  0  0
    6.9619   10.6919   -0.0704 C   0  0  0  0  0  0  0  0  0  0  0  0
    7.6590   11.8017   -0.2414 N   0  0  0  0  0  0  0  0  0  0  0  0
    7.8620   12.3635    1.0017 N   0  0  0  0  0  0  0  0  0  0  0  0
    7.2873   11.5572    1.8702 C   0  0  0  0  0  0  0  0  0  0  0  0
    7.1600   11.6985    3.3421 C   0  0  0  0  0  0  0  0  0  0  0  0
    7.0937   13.0179    3.7049 F   0  0  0  0  0  0  0  0  0  0  0  0
    5.9933   11.1385    3.7947 F   0  0  0  0  0  0  0  0  0  0  0  0
    8.6138   10.9001    4.0918 S   0  0  0  0  0  0  0  0  0  0  0  0
    9.9982   11.8123    3.4627 C   0  0  0  0  0  0  0  0  0  0  0  0
    8.5961   11.1206    5.5286 O   0  0  0  0  0  0  0  0  0  0  0  0
    8.7427    9.5352    3.5899 O   0  0  0  0  0  0  0  0  0  0  0  0
    6.6980   10.4768    1.2641 O   0  0  0  0  0  0  0  0  0  0  0  0
    5.7375    8.5842   -1.1759 C   0  0  0  0  0  0  0  0  0  0  0  0
    5.1272    8.0004    0.0849 C   0  0  0  0  0  0  0  0  0  0  0  0
    3.6008    7.9697    0.0575 C   0  0  0  0  0  0  0  0  0  0  0  0
    5.7452    6.6801    0.5386 C   0  0  0  0  0  0  0  0  0  0  0  0
    5.6420    8.1760   -2.5184 C   0  0  0  0  0  0  0  0  0  0  0  0
    3.0316    3.9911   -2.7759 C   0  0  0  0  0  0  0  0  0  0  0  0
    3.8742    3.4070   -1.9102 F   0  0  0  0  0  0  0  0  0  0  0  0
    1.9503    3.2548   -3.2536 C   0  0  0  0  0  0  0  0  0  0  0  0
    1.0505    3.8620   -4.1199 C   0  0  0  0  0  0  0  0  0  0  0  0
   -0.0035    3.1537   -4.5519 F   0  0  0  0  0  0  0  0  0  0  0  0
   -1.9242    6.8938   -8.5704 H   0  0  0  0  0  0  0  0  0  0  0  0
   -0.7069    5.6081   -8.7514 H   0  0  0  0  0  0  0  0  0  0  0  0
   -0.3030    7.1262   -7.8861 H   0  0  0  0  0  0  0  0  0  0  0  0
   -0.5872    4.1486   -6.1164 H   0  0  0  0  0  0  0  0  0  0  0  0
    2.4785    6.9338   -4.3789 H   0  0  0  0  0  0  0  0  0  0  0  0
    4.5575    5.8226   -1.6969 H   0  0  0  0  0  0  0  0  0  0  0  0
    5.7721    8.0685   -6.2907 H   0  0  0  0  0  0  0  0  0  0  0  0
    7.3642   10.9068   -2.9516 H   0  0  0  0  0  0  0  0  0  0  0  0
    9.9081   12.8541    3.7740 H   0  0  0  0  0  0  0  0  0  0  0  0
   10.0406   11.7265    2.3778 H   0  0  0  0  0  0  0  0  0  0  0  0
   10.9036   11.3753    3.8899 H   0  0  0  0  0  0  0  0  0  0  0  0
    5.3531    8.6850    0.9070 H   0  0  0  0  0  0  0  0  0  0  0  0
    3.2011    7.3738   -0.7630 H   0  0  0  0  0  0  0  0  0  0  0  0
    3.2024    8.9854   -0.0508 H   0  0  0  0  0  0  0  0  0  0  0  0
    3.2073    7.5601    0.9942 H   0  0  0  0  0  0  0  0  0  0  0  0
    5.5173    5.8406   -0.1145 H   0  0  0  0  0  0  0  0  0  0  0  0
    5.3716    6.4164    1.5354 H   0  0  0  0  0  0  0  0  0  0  0  0
    6.8359    6.7573    0.6042 H   0  0  0  0  0  0  0  0  0  0  0  0
    1.8013    2.2280   -2.9379 H   0  0  0  0  0  0  0  0  0  0  0  0
  1  2  1  0  0  0  0
  1 39  1  0  0  0  0
  1 40  1  0  0  0  0
  1 41  1  0  0  0  0
  2  3  1  0  0  0  0
  3  4  1  0  0  0  0
  3 42  1  0  0  0  0
  4  5  2  0  0  0  0
  4  6  1  0  0  0  0
  6  7  1  0  0  0  0
  6 37  2  0  0  0  0
  7  8  2  0  0  0  0
  7 43  1  0  0  0  0
  8  9  1  0  0  0  0
  8 34  1  0  0  0  0
  9 10  1  0  0  0  0
  9 44  1  0  0  0  0
 10 11  2  0  0  0  0
 10 33  1  0  0  0  0
 11 12  1  0  0  0  0
 12 13  2  0  0  0  0
 12 45  1  0  0  0  0
 13 14  1  0  0  0  0
 14 15  1  0  0  0  0
 14 33  1  0  0  0  0
 15 16  2  0  0  0  0
 15 46  1  0  0  0  0
 16 17  1  0  0  0  0
 16 29  1  0  0  0  0
 17 18  2  0  0  0  0
 17 28  1  0  0  0  0
 18 19  1  0  0  0  0
 19 20  2  0  0  0  0
 20 21  1  0  0  0  0
 20 28  1  0  0  0  0
 21 22  1  0  0  0  0
 21 23  1  0  0  0  0
 21 24  1  0  0  0  0
 24 25  1  0  0  0  0
 24 26  2  0  0  0  0
 24 27  2  0  0  0  0
 25 47  1  0  0  0  0
 25 48  1  0  0  0  0
 25 49  1  0  0  0  0
 29 30  1  0  0  0  0
 29 33  2  0  0  0  0
 30 31  1  0  0  0  0
 30 32  1  0  0  0  0
 30 50  1  0  0  0  0
 31 51  1  0  0  0  0
 31 52  1  0  0  0  0
 31 53  1  0  0  0  0
 32 54  1  0  0  0  0
 32 55  1  0  0  0  0
 32 56  1  0  0  0  0
 34 35  1  0  0  0  0
 34 36  2  0  0  0  0
 36 37  1  0  0  0  0
 36 57  1  0  0  0  0
 37 38  1  0  0  0  0
M  END
$$$$
