CHEMBL1278234
 OpenBabel04072215363D

 51 54  0  0  0  0  0  0  0  0999 V2000
    0.8630   -0.1516    0.0313 C   0  0  0  0  0  0  0  0  0  0  0  0
    2.3546   -0.0974    0.0277 C   0  0  0  0  0  0  0  0  0  0  0  0
    3.1698    1.0325    0.0293 C   0  0  0  0  0  0  0  0  0  0  0  0
    2.8242    2.4057    0.0343 C   0  0  0  0  0  0  0  0  0  0  0  0
    3.6088    3.4913    0.0265 C   0  0  0  0  0  0  0  0  0  0  0  0
    5.1065    3.6637    0.0058 C   0  0  0  0  0  0  0  0  0  0  0  0
    5.9650    2.7989   -0.0046 O   0  0  0  0  0  0  0  0  0  0  0  0
    5.3139    5.0363    0.0042 N   0  0  0  0  0  0  0  0  0  0  0  0
    4.1092    5.7343    0.0262 C   0  0  0  0  0  0  0  0  0  0  0  0
    3.9313    7.1039    0.0347 C   0  0  0  0  0  0  0  0  0  0  0  0
    2.6168    7.5800    0.0601 C   0  0  0  0  0  0  0  0  0  0  0  0
    1.5368    6.6860    0.0769 C   0  0  0  0  0  0  0  0  0  0  0  0
    0.2868    7.1666    0.1031 F   0  0  0  0  0  0  0  0  0  0  0  0
    1.7290    5.3095    0.0674 C   0  0  0  0  0  0  0  0  0  0  0  0
    3.0327    4.8445    0.0410 C   0  0  0  0  0  0  0  0  0  0  0  0
    4.4750    0.6019    0.0347 N   0  0  0  0  0  0  0  0  0  0  0  0
    4.5045   -0.7625    0.0493 C   0  0  0  0  0  0  0  0  0  0  0  0
    3.2156   -1.2355    0.0373 C   0  0  0  0  0  0  0  0  0  0  0  0
    2.8991   -2.6527    0.0488 C   0  0  0  0  0  0  0  0  0  0  0  0
    1.7407   -3.0584   -0.0094 O   0  0  0  0  0  0  0  0  0  0  0  0
    4.0001   -3.5091    0.1351 N   0  0  0  0  0  0  0  0  0  0  0  0
    3.7314   -4.9445    0.1219 C   0  0  0  0  0  0  0  0  0  0  0  0
    3.5826   -5.5009   -1.3095 C   0  0  0  0  0  0  0  0  0  0  0  0
    3.2929   -6.9493   -1.3708 N   0  0  0  0  0  0  0  0  0  0  0  0
    2.0006   -7.2641   -0.7526 C   0  0  0  0  0  0  0  0  0  0  0  0
    3.2791   -7.3877   -2.7703 C   0  0  0  0  0  0  0  0  0  0  0  0
    5.4100   -3.0839    0.0882 C   0  0  0  0  0  0  0  0  0  0  0  0
    5.7320   -1.5772    0.0828 C   0  0  0  0  0  0  0  0  0  0  0  0
    0.4081    0.8427    0.0324 H   0  0  0  0  0  0  0  0  0  0  0  0
    0.5045   -0.6760    0.9229 H   0  0  0  0  0  0  0  0  0  0  0  0
    0.4982   -0.6783   -0.8561 H   0  0  0  0  0  0  0  0  0  0  0  0
    1.7519    2.5776    0.0506 H   0  0  0  0  0  0  0  0  0  0  0  0
    6.2324    5.4501   -0.0064 H   0  0  0  0  0  0  0  0  0  0  0  0
    4.7701    7.7905    0.0246 H   0  0  0  0  0  0  0  0  0  0  0  0
    2.4136    8.6468    0.0683 H   0  0  0  0  0  0  0  0  0  0  0  0
    0.8722    4.6475    0.0818 H   0  0  0  0  0  0  0  0  0  0  0  0
    5.2952    1.2024    0.0372 H   0  0  0  0  0  0  0  0  0  0  0  0
    2.8100   -5.1093    0.6898 H   0  0  0  0  0  0  0  0  0  0  0  0
    4.5354   -5.4587    0.6599 H   0  0  0  0  0  0  0  0  0  0  0  0
    4.5319   -5.3163   -1.8305 H   0  0  0  0  0  0  0  0  0  0  0  0
    2.8186   -4.9314   -1.8553 H   0  0  0  0  0  0  0  0  0  0  0  0
    2.0201   -7.0748    0.3250 H   0  0  0  0  0  0  0  0  0  0  0  0
    1.7722   -8.3304   -0.8605 H   0  0  0  0  0  0  0  0  0  0  0  0
    1.1790   -6.6894   -1.1950 H   0  0  0  0  0  0  0  0  0  0  0  0
    4.2487   -7.2001   -3.2445 H   0  0  0  0  0  0  0  0  0  0  0  0
    2.5038   -6.8791   -3.3555 H   0  0  0  0  0  0  0  0  0  0  0  0
    3.1044   -8.4677   -2.8330 H   0  0  0  0  0  0  0  0  0  0  0  0
    5.8573   -3.5424   -0.8017 H   0  0  0  0  0  0  0  0  0  0  0  0
    5.9043   -3.5405    0.9547 H   0  0  0  0  0  0  0  0  0  0  0  0
    6.3618   -1.3433   -0.7839 H   0  0  0  0  0  0  0  0  0  0  0  0
    6.3200   -1.3269    0.9737 H   0  0  0  0  0  0  0  0  0  0  0  0
  1  2  1  0  0  0  0
  1 29  1  0  0  0  0
  1 30  1  0  0  0  0
  1 31  1  0  0  0  0
  2  3  2  0  0  0  0
  2 18  1  0  0  0  0
  3  4  1  0  0  0  0
  3 16  1  0  0  0  0
  4  5  2  0  0  0  0
  4 32  1  0  0  0  0
  5  6  1  0  0  0  0
  5 15  1  0  0  0  0
  6  7  2  0  0  0  0
  6  8  1  0  0  0  0
  8  9  1  0  0  0  0
  8 33  1  0  0  0  0
  9 10  1  0  0  0  0
  9 15  2  0  0  0  0
 10 11  2  0  0  0  0
 10 34  1  0  0  0  0
 11 12  1  0  0  0  0
 11 35  1  0  0  0  0
 12 13  1  0  0  0  0
 12 14  2  0  0  0  0
 14 15  1  0  0  0  0
 14 36  1  0  0  0  0
 16 17  1  0  0  0  0
 16 37  1  0  0  0  0
 17 18  2  0  0  0  0
 17 28  1  0  0  0  0
 18 19  1  0  0  0  0
 19 20  2  0  0  0  0
 19 21  1  0  0  0  0
 21 22  1  0  0  0  0
 21 27  1  0  0  0  0
 22 23  1  0  0  0  0
 22 38  1  0  0  0  0
 22 39  1  0  0  0  0
 23 24  1  0  0  0  0
 23 40  1  0  0  0  0
 23 41  1  0  0  0  0
 24 25  1  0  0  0  0
 24 26  1  0  0  0  0
 25 42  1  0  0  0  0
 25 43  1  0  0  0  0
 25 44  1  0  0  0  0
 26 45  1  0  0  0  0
 26 46  1  0  0  0  0
 26 47  1  0  0  0  0
 27 28  1  0  0  0  0
 27 48  1  0  0  0  0
 27 49  1  0  0  0  0
 28 50  1  0  0  0  0
 28 51  1  0  0  0  0
M  END
$$$$
