CHEMBL3961005
 OpenBabel04072215373D

 53 57  0  0  1  0  0  0  0  0999 V2000
    3.5765    0.1390   -1.1321 C   0  0  0  0  0  0  0  0  0  0  0  0
    2.7847   -0.3943   -0.0653 O   0  0  0  0  0  0  0  0  0  0  0  0
    3.3495   -0.3388    1.1876 C   0  0  0  0  0  0  0  0  0  0  0  0
    4.4359    0.4899    1.4738 C   0  0  0  0  0  0  0  0  0  0  0  0
    5.0048    0.5434    2.7574 C   0  0  0  0  0  0  0  0  0  0  0  0
    6.0777    1.3883    3.0882 C   0  0  0  0  0  0  0  0  0  0  0  0
    6.4857    2.3574    2.1411 N   0  0  0  0  0  0  0  0  0  0  0  0
    7.7589    2.9145    1.9190 C   0  0  0  0  0  0  0  0  0  0  0  0
    8.9301    2.1983    2.1703 C   0  0  0  0  0  0  0  0  0  0  0  0
   10.1698    2.7028    1.7692 C   0  0  0  0  0  0  0  0  0  0  0  0
   10.2666    3.9410    1.1430 C   0  0  0  0  0  0  0  0  0  0  0  0
   11.9807    4.4877    0.5356 Br  0  0  0  0  0  0  0  0  0  0  0  0
    9.1151    4.7102    0.9370 C   0  0  0  0  0  0  0  0  0  0  0  0
    9.1573    6.2784    0.2131 Cl  0  0  0  0  0  0  0  0  0  0  0  0
    7.8777    4.1810    1.3187 C   0  0  0  0  0  0  0  0  0  0  0  0
    6.7482    4.8777    1.0875 F   0  0  0  0  0  0  0  0  0  0  0  0
    6.6767    1.3348    4.2865 N   0  0  0  0  0  0  0  0  0  0  0  0
    6.1482    0.4784    5.1702 C   0  0  0  0  0  0  0  0  0  0  0  0
    5.0858   -0.3204    4.9761 N   0  0  0  0  0  0  0  0  0  0  0  0
    4.5182   -0.2877    3.7644 C   0  0  0  0  0  0  0  0  0  0  0  0
    3.4106   -1.0909    3.4819 C   0  0  0  0  0  0  0  0  0  0  0  0
    2.8038   -1.1277    2.2173 C   0  0  0  0  0  0  0  0  0  0  0  0
    1.6591   -1.8339    1.9428 O   0  0  0  0  0  0  0  0  0  0  0  0
    1.3814   -3.0893    2.5858 C   0  0  2  0  0  0  0  0  0  0  0  0
    0.5998   -2.9666    3.8920 C   0  0  0  0  0  0  0  0  0  0  0  0
    1.2290   -3.9866    4.8035 C   0  0  1  0  0  0  0  0  0  0  0  0
    0.3959   -5.1354    5.0246 O   0  0  0  0  0  0  0  0  0  0  0  0
    1.3082   -6.2383    5.1603 C   0  0  0  0  0  0  0  0  0  0  0  0
    2.3578   -5.9987    4.0859 C   0  0  2  0  0  0  0  0  0  0  0  0
    3.5712   -6.6743    4.4166 O   0  0  0  0  0  0  0  0  0  0  0  0
    4.5622   -6.5332    3.4037 C   0  0  0  0  0  0  0  0  0  0  0  0
    2.4855   -4.4743    4.1074 C   0  0  1  0  0  0  0  0  0  0  0  0
    2.5238   -3.9311    2.7823 O   0  0  0  0  0  0  0  0  0  0  0  0
    3.0421   -0.0053   -2.0743 H   0  0  0  0  0  0  0  0  0  0  0  0
    4.5379   -0.3849   -1.2045 H   0  0  0  0  0  0  0  0  0  0  0  0
    3.7325    1.2191   -1.0212 H   0  0  0  0  0  0  0  0  0  0  0  0
    4.8870    1.1026    0.7015 H   0  0  0  0  0  0  0  0  0  0  0  0
    5.7304    3.0048    1.9308 H   0  0  0  0  0  0  0  0  0  0  0  0
    8.8808    1.2128    2.6323 H   0  0  0  0  0  0  0  0  0  0  0  0
   11.0602    2.0930    1.9348 H   0  0  0  0  0  0  0  0  0  0  0  0
    6.6214    0.4328    6.1456 H   0  0  0  0  0  0  0  0  0  0  0  0
    3.0198   -1.6789    4.3018 H   0  0  0  0  0  0  0  0  0  0  0  0
    0.7378   -3.6244    1.8765 H   0  0  0  0  0  0  0  0  0  0  0  0
   -0.4691   -3.1537    3.7343 H   0  0  0  0  0  0  0  0  0  0  0  0
    0.6808   -1.9591    4.3122 H   0  0  0  0  0  0  0  0  0  0  0  0
    1.4577   -3.5658    5.7895 H   0  0  0  0  0  0  0  0  0  0  0  0
    0.7782   -7.1869    5.0302 H   0  0  0  0  0  0  0  0  0  0  0  0
    1.7407   -6.2322    6.1696 H   0  0  0  0  0  0  0  0  0  0  0  0
    1.9835   -6.3614    3.1216 H   0  0  0  0  0  0  0  0  0  0  0  0
    5.4388   -7.1152    3.7006 H   0  0  0  0  0  0  0  0  0  0  0  0
    4.8680   -5.4884    3.2985 H   0  0  0  0  0  0  0  0  0  0  0  0
    4.1937   -6.9175    2.4482 H   0  0  0  0  0  0  0  0  0  0  0  0
    3.3862   -4.1376    4.6267 H   0  0  0  0  0  0  0  0  0  0  0  0
  1  2  1  0  0  0  0
  1 34  1  0  0  0  0
  1 35  1  0  0  0  0
  1 36  1  0  0  0  0
  2  3  1  0  0  0  0
  3  4  1  0  0  0  0
  3 22  2  0  0  0  0
  4  5  2  0  0  0  0
  4 37  1  0  0  0  0
  5  6  1  0  0  0  0
  5 20  1  0  0  0  0
  6  7  1  0  0  0  0
  6 17  2  0  0  0  0
  7  8  1  0  0  0  0
  7 38  1  0  0  0  0
  8  9  1  0  0  0  0
  8 15  2  0  0  0  0
  9 10  2  0  0  0  0
  9 39  1  0  0  0  0
 10 11  1  0  0  0  0
 10 40  1  0  0  0  0
 11 12  1  0  0  0  0
 11 13  2  0  0  0  0
 13 14  1  0  0  0  0
 13 15  1  0  0  0  0
 15 16  1  0  0  0  0
 17 18  1  0  0  0  0
 18 19  2  0  0  0  0
 18 41  1  0  0  0  0
 19 20  1  0  0  0  0
 20 21  2  0  0  0  0
 21 22  1  0  0  0  0
 21 42  1  0  0  0  0
 22 23  1  0  0  0  0
 23 24  1  0  0  0  0
 24 25  1  0  0  0  0
 24 33  1  0  0  0  0
 24 43  1  6  0  0  0
 25 26  1  0  0  0  0
 25 44  1  0  0  0  0
 25 45  1  0  0  0  0
 26 27  1  0  0  0  0
 26 32  1  0  0  0  0
 26 46  1  1  0  0  0
 27 28  1  0  0  0  0
 28 29  1  0  0  0  0
 28 47  1  0  0  0  0
 28 48  1  0  0  0  0
 29 30  1  0  0  0  0
 29 32  1  0  0  0  0
 29 49  1  6  0  0  0
 30 31  1  0  0  0  0
 31 50  1  0  0  0  0
 31 51  1  0  0  0  0
 31 52  1  0  0  0  0
 32 33  1  0  0  0  0
 32 53  1  1  0  0  0
M  END
$$$$
