CHEMBL3676359
 OpenBabel04072215373D

 56 58  0  0  0  0  0  0  0  0999 V2000
    3.3044   -3.5949   -1.4513 C   0  0  0  0  0  0  0  0  0  0  0  0
    3.3904   -2.3305   -1.8823 C   0  0  0  0  0  0  0  0  0  0  0  0
    3.5699   -1.2326   -0.8934 C   0  0  0  0  0  0  0  0  0  0  0  0
    3.1133   -1.3025    0.2435 O   0  0  0  0  0  0  0  0  0  0  0  0
    4.3148   -0.1431   -1.2872 N   0  0  0  0  0  0  0  0  0  0  0  0
    5.1523   -0.1661   -2.4174 C   0  0  0  0  0  0  0  0  0  0  0  0
    6.2677   -1.0032   -2.3871 C   0  0  0  0  0  0  0  0  0  0  0  0
    6.9559   -1.3117   -3.5782 C   0  0  0  0  0  0  0  0  0  0  0  0
    8.0299   -2.2111   -3.6609 C   0  0  0  0  0  0  0  0  0  0  0  0
    8.4465   -2.9246   -2.4997 N   0  0  0  0  0  0  0  0  0  0  0  0
    9.6767   -3.6225   -2.4322 C   0  0  0  0  0  0  0  0  0  0  0  0
   10.8719   -2.9840   -2.7842 C   0  0  0  0  0  0  0  0  0  0  0  0
   12.0748   -3.6918   -2.8257 C   0  0  0  0  0  0  0  0  0  0  0  0
   13.4914   -2.8312   -3.3114 Cl  0  0  0  0  0  0  0  0  0  0  0  0
   12.0929   -5.0510   -2.4928 C   0  0  0  0  0  0  0  0  0  0  0  0
   13.5296   -6.0046   -2.5986 Cl  0  0  0  0  0  0  0  0  0  0  0  0
   10.9184   -5.6844   -2.0797 C   0  0  0  0  0  0  0  0  0  0  0  0
    9.7261   -4.9667   -2.0460 C   0  0  0  0  0  0  0  0  0  0  0  0
    8.5991   -5.5883   -1.6669 F   0  0  0  0  0  0  0  0  0  0  0  0
    8.6640   -2.4566   -4.8220 N   0  0  0  0  0  0  0  0  0  0  0  0
    8.2048   -1.8271   -5.9065 C   0  0  0  0  0  0  0  0  0  0  0  0
    7.1752   -0.9752   -5.9442 N   0  0  0  0  0  0  0  0  0  0  0  0
    6.5608   -0.7172   -4.7854 C   0  0  0  0  0  0  0  0  0  0  0  0
    5.4882    0.1672   -4.7759 C   0  0  0  0  0  0  0  0  0  0  0  0
    4.7870    0.4771   -3.6056 C   0  0  0  0  0  0  0  0  0  0  0  0
    3.7539    1.3689   -3.7678 O   0  0  0  0  0  0  0  0  0  0  0  0
    3.4935    2.2140   -2.6400 C   0  0  0  0  0  0  0  0  0  0  0  0
    2.9895    3.5879   -3.0969 C   0  0  0  0  0  0  0  0  0  0  0  0
    2.8347    4.5038   -1.9691 N   0  0  0  0  0  0  0  0  0  0  0  0
    3.9397    5.1280   -1.4208 C   0  0  0  0  0  0  0  0  0  0  0  0
    5.0348    5.1195   -1.9658 O   0  0  0  0  0  0  0  0  0  0  0  0
    3.7032    5.8377   -0.1227 C   0  0  0  0  0  0  0  0  0  0  0  0
    4.8256    5.2414    1.1239 S   0  0  0  0  0  0  0  0  0  0  0  0
    6.4699    5.6255    0.5601 C   0  0  0  0  0  0  0  0  0  0  0  0
    4.5891    6.0478    2.3082 O   0  0  0  0  0  0  0  0  0  0  0  0
    4.6915    3.7977    1.1963 O   0  0  0  0  0  0  0  0  0  0  0  0
    3.2319   -4.4191   -2.1521 H   0  0  0  0  0  0  0  0  0  0  0  0
    3.3183   -3.8317   -0.3908 H   0  0  0  0  0  0  0  0  0  0  0  0
    3.3890   -2.0966   -2.9396 H   0  0  0  0  0  0  0  0  0  0  0  0
    4.6707    0.3356   -0.4642 H   0  0  0  0  0  0  0  0  0  0  0  0
    6.5675   -1.4632   -1.4480 H   0  0  0  0  0  0  0  0  0  0  0  0
    7.6765   -3.5143   -2.1825 H   0  0  0  0  0  0  0  0  0  0  0  0
   10.8530   -1.9302   -3.0557 H   0  0  0  0  0  0  0  0  0  0  0  0
   10.9153   -6.7351   -1.8083 H   0  0  0  0  0  0  0  0  0  0  0  0
    8.7124   -2.0314   -6.8432 H   0  0  0  0  0  0  0  0  0  0  0  0
    5.1804    0.6227   -5.7156 H   0  0  0  0  0  0  0  0  0  0  0  0
    4.3957    2.3644   -2.0345 H   0  0  0  0  0  0  0  0  0  0  0  0
    2.7173    1.7468   -2.0225 H   0  0  0  0  0  0  0  0  0  0  0  0
    2.0187    3.4985   -3.5947 H   0  0  0  0  0  0  0  0  0  0  0  0
    3.6881    4.0217   -3.8210 H   0  0  0  0  0  0  0  0  0  0  0  0
    1.9538    4.4894   -1.4690 H   0  0  0  0  0  0  0  0  0  0  0  0
    2.6917    5.6636    0.2571 H   0  0  0  0  0  0  0  0  0  0  0  0
    3.8537    6.9124   -0.2478 H   0  0  0  0  0  0  0  0  0  0  0  0
    6.5246    6.6885    0.3192 H   0  0  0  0  0  0  0  0  0  0  0  0
    6.7253    5.0108   -0.3017 H   0  0  0  0  0  0  0  0  0  0  0  0
    7.1645    5.3931    1.3721 H   0  0  0  0  0  0  0  0  0  0  0  0
  1  2  2  0  0  0  0
  1 37  1  0  0  0  0
  1 38  1  0  0  0  0
  2  3  1  0  0  0  0
  2 39  1  0  0  0  0
  3  4  2  0  0  0  0
  3  5  1  0  0  0  0
  5  6  1  0  0  0  0
  5 40  1  0  0  0  0
  6  7  1  0  0  0  0
  6 25  2  0  0  0  0
  7  8  2  0  0  0  0
  7 41  1  0  0  0  0
  8  9  1  0  0  0  0
  8 23  1  0  0  0  0
  9 10  1  0  0  0  0
  9 20  2  0  0  0  0
 10 11  1  0  0  0  0
 10 42  1  0  0  0  0
 11 12  1  0  0  0  0
 11 18  2  0  0  0  0
 12 13  2  0  0  0  0
 12 43  1  0  0  0  0
 13 14  1  0  0  0  0
 13 15  1  0  0  0  0
 15 16  1  0  0  0  0
 15 17  2  0  0  0  0
 17 18  1  0  0  0  0
 17 44  1  0  0  0  0
 18 19  1  0  0  0  0
 20 21  1  0  0  0  0
 21 22  2  0  0  0  0
 21 45  1  0  0  0  0
 22 23  1  0  0  0  0
 23 24  2  0  0  0  0
 24 25  1  0  0  0  0
 24 46  1  0  0  0  0
 25 26  1  0  0  0  0
 26 27  1  0  0  0  0
 27 28  1  0  0  0  0
 27 47  1  0  0  0  0
 27 48  1  0  0  0  0
 28 29  1  0  0  0  0
 28 49  1  0  0  0  0
 28 50  1  0  0  0  0
 29 30  1  0  0  0  0
 29 51  1  0  0  0  0
 30 31  2  0  0  0  0
 30 32  1  0  0  0  0
 32 33  1  0  0  0  0
 32 52  1  0  0  0  0
 32 53  1  0  0  0  0
 33 34  1  0  0  0  0
 33 35  2  0  0  0  0
 33 36  2  0  0  0  0
 34 54  1  0  0  0  0
 34 55  1  0  0  0  0
 34 56  1  0  0  0  0
M  END
$$$$
