CHEMBL381104
 OpenBabel04072215373D

 35 38  0  0  0  0  0  0  0  0999 V2000
    1.1293   -0.6985    0.4073 C   0  0  0  0  0  0  0  0  0  0  0  0
    2.5585   -0.7199    0.4555 O   0  0  0  0  0  0  0  0  0  0  0  0
    3.1367   -0.9311   -0.7607 C   0  0  0  0  0  0  0  0  0  0  0  0
    2.5130   -1.0902   -1.8008 O   0  0  0  0  0  0  0  0  0  0  0  0
    4.5952   -0.9467   -0.6985 C   0  0  0  0  0  0  0  0  0  0  0  0
    5.4766   -0.8203    0.4230 C   0  0  0  0  0  0  0  0  0  0  0  0
    6.7675   -0.9153   -0.0583 C   0  0  0  0  0  0  0  0  0  0  0  0
    8.0739   -0.8640    0.4923 C   0  0  0  0  0  0  0  0  0  0  0  0
    8.0928   -0.6319    1.8614 O   0  0  0  0  0  0  0  0  0  0  0  0
    9.2454   -0.0298    2.4222 C   0  0  0  0  0  0  0  0  0  0  0  0
    9.9278    0.9851    1.7470 C   0  0  0  0  0  0  0  0  0  0  0  0
   11.0295    1.6154    2.3239 C   0  0  0  0  0  0  0  0  0  0  0  0
   11.3866    1.2298    3.6173 C   0  0  0  0  0  0  0  0  0  0  0  0
   12.4004    1.6951    4.4237 N   0  0  0  0  0  0  0  0  0  0  0  0
   12.3683    1.0611    5.6348 C   0  0  0  0  0  0  0  0  0  0  0  0
   11.3293    0.1550    5.6086 C   0  0  0  0  0  0  0  0  0  0  0  0
   10.7003    0.2467    4.3333 C   0  0  0  0  0  0  0  0  0  0  0  0
    9.6044   -0.4038    3.7227 C   0  0  0  0  0  0  0  0  0  0  0  0
    9.1224   -0.9918   -0.2512 N   0  0  0  0  0  0  0  0  0  0  0  0
    8.9211   -1.1336   -1.5995 C   0  0  0  0  0  0  0  0  0  0  0  0
    7.7807   -1.1717   -2.2152 N   0  0  0  0  0  0  0  0  0  0  0  0
    6.7114   -1.0682   -1.4091 N   0  0  0  0  0  0  0  0  0  0  0  0
    5.4089   -1.0875   -1.8105 C   0  0  0  0  0  0  0  0  0  0  0  0
    0.7615   -0.3366    1.3722 H   0  0  0  0  0  0  0  0  0  0  0  0
    0.7474   -1.7110    0.2465 H   0  0  0  0  0  0  0  0  0  0  0  0
    0.7650   -0.0204   -0.3709 H   0  0  0  0  0  0  0  0  0  0  0  0
    5.1904   -0.6811    1.4593 H   0  0  0  0  0  0  0  0  0  0  0  0
    9.6172    1.3028    0.7564 H   0  0  0  0  0  0  0  0  0  0  0  0
   11.5704    2.3858    1.7855 H   0  0  0  0  0  0  0  0  0  0  0  0
   13.0587    2.4137    4.1547 H   0  0  0  0  0  0  0  0  0  0  0  0
   13.0839    1.3093    6.4071 H   0  0  0  0  0  0  0  0  0  0  0  0
   11.0493   -0.4975    6.4239 H   0  0  0  0  0  0  0  0  0  0  0  0
    9.0496   -1.1674    4.2580 H   0  0  0  0  0  0  0  0  0  0  0  0
    9.8358   -1.2055   -2.2129 H   0  0  0  0  0  0  0  0  0  0  0  0
    5.1618   -1.2022   -2.8569 H   0  0  0  0  0  0  0  0  0  0  0  0
  1  2  1  0  0  0  0
  1 24  1  0  0  0  0
  1 25  1  0  0  0  0
  1 26  1  0  0  0  0
  2  3  1  0  0  0  0
  3  4  2  0  0  0  0
  3  5  1  0  0  0  0
  5  6  1  0  0  0  0
  5 23  2  0  0  0  0
  6  7  2  0  0  0  0
  6 27  1  0  0  0  0
  7  8  1  0  0  0  0
  7 22  1  0  0  0  0
  8  9  1  0  0  0  0
  8 19  2  0  0  0  0
  9 10  1  0  0  0  0
 10 11  1  0  0  0  0
 10 18  2  0  0  0  0
 11 12  2  0  0  0  0
 11 28  1  0  0  0  0
 12 13  1  0  0  0  0
 12 29  1  0  0  0  0
 13 14  1  0  0  0  0
 13 17  2  0  0  0  0
 14 15  1  0  0  0  0
 14 30  1  0  0  0  0
 15 16  2  0  0  0  0
 15 31  1  0  0  0  0
 16 17  1  0  0  0  0
 16 32  1  0  0  0  0
 17 18  1  0  0  0  0
 18 33  1  0  0  0  0
 19 20  1  0  0  0  0
 20 21  2  0  0  0  0
 20 34  1  0  0  0  0
 21 22  1  0  0  0  0
 22 23  1  0  0  0  0
 23 35  1  0  0  0  0
M  END
$$$$
