CHEMBL1761944
 OpenBabel04072215363D

 52 55  0  0  0  0  0  0  0  0999 V2000
    7.8277    5.8490   -8.8109 C   0  0  0  0  0  0  0  0  0  0  0  0
    8.4208    5.3636   -7.6016 O   0  0  0  0  0  0  0  0  0  0  0  0
    7.5609    5.2156   -6.5448 C   0  0  0  0  0  0  0  0  0  0  0  0
    6.2112    4.8727   -6.7478 C   0  0  0  0  0  0  0  0  0  0  0  0
    5.2802    4.8595   -5.7205 C   0  0  0  0  0  0  0  0  0  0  0  0
    3.9964    4.6316   -6.0173 N   0  0  0  0  0  0  0  0  0  0  0  0
    3.1257    4.7351   -5.0096 C   0  0  0  0  0  0  0  0  0  0  0  0
    3.4166    5.0435   -3.7485 N   0  0  0  0  0  0  0  0  0  0  0  0
    4.7166    5.2473   -3.4571 C   0  0  0  0  0  0  0  0  0  0  0  0
    5.0713    5.6393   -2.1403 N   0  0  0  0  0  0  0  0  0  0  0  0
    4.1861    6.1623   -1.1800 C   0  0  0  0  0  0  0  0  0  0  0  0
    4.3562    5.8412    0.1626 C   0  0  0  0  0  0  0  0  0  0  0  0
    3.4317    6.2737    1.1119 C   0  0  0  0  0  0  0  0  0  0  0  0
    2.3195    7.0418    0.7490 C   0  0  0  0  0  0  0  0  0  0  0  0
    1.2776    7.3772    1.6515 N   0  0  0  0  0  0  0  0  0  0  0  0
    1.1317    6.8510    2.9213 C   0  0  0  0  0  0  0  0  0  0  0  0
    1.9030    6.0293    3.4199 O   0  0  0  0  0  0  0  0  0  0  0  0
    0.0171    7.3248    3.5879 N   0  0  0  0  0  0  0  0  0  0  0  0
   -0.2491    7.0266    4.9504 C   0  0  0  0  0  0  0  0  0  0  0  0
    0.7725    6.6792    5.8503 C   0  0  0  0  0  0  0  0  0  0  0  0
    0.4851    6.3087    7.1625 C   0  0  0  0  0  0  0  0  0  0  0  0
   -0.8295    6.3177    7.5980 C   0  0  0  0  0  0  0  0  0  0  0  0
   -1.0928    5.9477    8.8598 F   0  0  0  0  0  0  0  0  0  0  0  0
   -1.8533    6.7074    6.7358 C   0  0  0  0  0  0  0  0  0  0  0  0
   -3.4855    6.7357    7.2855 Cl  0  0  0  0  0  0  0  0  0  0  0  0
   -1.5679    7.0722    5.4126 C   0  0  0  0  0  0  0  0  0  0  0  0
    2.2194    7.4743   -0.5715 C   0  0  0  0  0  0  0  0  0  0  0  0
    3.1511    7.0430   -1.5212 C   0  0  0  0  0  0  0  0  0  0  0  0
    5.7209    5.1406   -4.4290 C   0  0  0  0  0  0  0  0  0  0  0  0
    7.0948    5.3531   -4.1929 C   0  0  0  0  0  0  0  0  0  0  0  0
    8.0211    5.4038   -5.2381 C   0  0  0  0  0  0  0  0  0  0  0  0
    9.2740    5.6780   -4.7728 O   0  0  0  0  0  0  0  0  0  0  0  0
   10.3284    5.9469   -5.6780 C   0  0  0  0  0  0  0  0  0  0  0  0
    8.5503    6.5042   -9.3060 H   0  0  0  0  0  0  0  0  0  0  0  0
    6.9208    6.4449   -8.6490 H   0  0  0  0  0  0  0  0  0  0  0  0
    7.6122    5.0061   -9.4749 H   0  0  0  0  0  0  0  0  0  0  0  0
    5.8431    4.6412   -7.7453 H   0  0  0  0  0  0  0  0  0  0  0  0
    2.0781    4.5689   -5.2429 H   0  0  0  0  0  0  0  0  0  0  0  0
    5.7242    4.9672   -1.7505 H   0  0  0  0  0  0  0  0  0  0  0  0
    5.1814    5.2140    0.4892 H   0  0  0  0  0  0  0  0  0  0  0  0
    3.6160    5.9649    2.1353 H   0  0  0  0  0  0  0  0  0  0  0  0
    0.5351    7.9552    1.2930 H   0  0  0  0  0  0  0  0  0  0  0  0
   -0.7624    7.6160    3.0160 H   0  0  0  0  0  0  0  0  0  0  0  0
    1.8169    6.6822    5.5498 H   0  0  0  0  0  0  0  0  0  0  0  0
    1.2834    6.0104    7.8348 H   0  0  0  0  0  0  0  0  0  0  0  0
   -2.3812    7.3528    4.7521 H   0  0  0  0  0  0  0  0  0  0  0  0
    1.4073    8.1173   -0.8992 H   0  0  0  0  0  0  0  0  0  0  0  0
    3.0465    7.3762   -2.5521 H   0  0  0  0  0  0  0  0  0  0  0  0
    7.4557    5.5381   -3.1825 H   0  0  0  0  0  0  0  0  0  0  0  0
   11.1507    6.3675   -5.0882 H   0  0  0  0  0  0  0  0  0  0  0  0
   10.0571    6.7010   -6.4208 H   0  0  0  0  0  0  0  0  0  0  0  0
   10.6900    5.0230   -6.1376 H   0  0  0  0  0  0  0  0  0  0  0  0
  1  2  1  0  0  0  0
  1 34  1  0  0  0  0
  1 35  1  0  0  0  0
  1 36  1  0  0  0  0
  2  3  1  0  0  0  0
  3  4  1  0  0  0  0
  3 31  2  0  0  0  0
  4  5  2  0  0  0  0
  4 37  1  0  0  0  0
  5  6  1  0  0  0  0
  5 29  1  0  0  0  0
  6  7  2  0  0  0  0
  7  8  1  0  0  0  0
  7 38  1  0  0  0  0
  8  9  2  0  0  0  0
  9 10  1  0  0  0  0
  9 29  1  0  0  0  0
 10 11  1  0  0  0  0
 10 39  1  0  0  0  0
 11 12  1  0  0  0  0
 11 28  2  0  0  0  0
 12 13  2  0  0  0  0
 12 40  1  0  0  0  0
 13 14  1  0  0  0  0
 13 41  1  0  0  0  0
 14 15  1  0  0  0  0
 14 27  2  0  0  0  0
 15 16  1  0  0  0  0
 15 42  1  0  0  0  0
 16 17  2  0  0  0  0
 16 18  1  0  0  0  0
 18 19  1  0  0  0  0
 18 43  1  0  0  0  0
 19 20  1  0  0  0  0
 19 26  2  0  0  0  0
 20 21  2  0  0  0  0
 20 44  1  0  0  0  0
 21 22  1  0  0  0  0
 21 45  1  0  0  0  0
 22 23  1  0  0  0  0
 22 24  2  0  0  0  0
 24 25  1  0  0  0  0
 24 26  1  0  0  0  0
 26 46  1  0  0  0  0
 27 28  1  0  0  0  0
 27 47  1  0  0  0  0
 28 48  1  0  0  0  0
 29 30  2  0  0  0  0
 30 31  1  0  0  0  0
 30 49  1  0  0  0  0
 31 32  1  0  0  0  0
 32 33  1  0  0  0  0
 33 50  1  0  0  0  0
 33 51  1  0  0  0  0
 33 52  1  0  0  0  0
M  END
$$$$
