CHEMBL4788820
 OpenBabel04072215383D

 56 60  0  0  0  0  0  0  0  0999 V2000
    1.0510    0.1200   -0.6084 O   0  0  0  0  0  0  0  0  0  0  0  0
    2.2444   -0.1609   -0.6432 C   0  0  0  0  0  0  0  0  0  0  0  0
    2.7771   -1.4153   -0.5077 N   0  0  0  0  0  0  0  0  0  0  0  0
    2.1252   -2.6481   -0.3289 C   0  0  0  0  0  0  0  0  0  0  0  0
    0.7463   -2.7978   -0.2081 C   0  0  0  0  0  0  0  0  0  0  0  0
    0.1886   -4.0678   -0.0160 C   0  0  0  0  0  0  0  0  0  0  0  0
    1.0041   -5.1953    0.0589 C   0  0  0  0  0  0  0  0  0  0  0  0
    2.3807   -5.0564   -0.0735 C   0  0  0  0  0  0  0  0  0  0  0  0
    2.9358   -3.7927   -0.2824 C   0  0  0  0  0  0  0  0  0  0  0  0
    3.1357    0.8464   -0.8680 N   0  0  0  0  0  0  0  0  0  0  0  0
    4.5151    0.7996   -0.9284 C   0  0  0  0  0  0  0  0  0  0  0  0
    5.0934    1.9488   -1.2996 N   0  0  0  0  0  0  0  0  0  0  0  0
    6.4272    1.9166   -1.4420 C   0  0  0  0  0  0  0  0  0  0  0  0
    7.2359    3.3831   -2.0853 S   0  0  0  0  0  0  0  0  0  0  0  0
    7.3948    2.8821   -3.7567 C   0  0  0  0  0  0  0  0  0  0  0  0
    6.4184    3.0189   -4.7158 C   0  0  0  0  0  0  0  0  0  0  0  0
    6.9077    2.4544   -5.8622 N   0  0  0  0  0  0  0  0  0  0  0  0
    7.9725    1.6425   -5.5415 C   0  0  0  0  0  0  0  0  0  0  0  0
    8.5506    0.5760   -6.2357 C   0  0  0  0  0  0  0  0  0  0  0  0
    9.6850   -0.0124   -5.6703 C   0  0  0  0  0  0  0  0  0  0  0  0
   10.2769    0.5227   -4.5270 C   0  0  0  0  0  0  0  0  0  0  0  0
    9.6727    1.5801   -3.8363 C   0  0  0  0  0  0  0  0  0  0  0  0
    8.4395    2.0798   -4.3005 C   0  0  0  0  0  0  0  0  0  0  0  0
    7.1833    0.8051   -1.1618 C   0  0  0  0  0  0  0  0  0  0  0  0
    6.5159   -0.3257   -0.7567 C   0  0  0  0  0  0  0  0  0  0  0  0
    7.2488   -1.4523   -0.3907 N   0  0  0  0  0  0  0  0  0  0  0  0
    6.5770   -2.4388    0.4556 C   0  0  0  0  0  0  0  0  0  0  0  0
    7.6481   -3.2554    1.1817 C   0  0  0  0  0  0  0  0  0  0  0  0
    8.6522   -3.8700    0.2037 C   0  0  0  0  0  0  0  0  0  0  0  0
    9.1907   -2.8356   -0.7880 C   0  0  0  0  0  0  0  0  0  0  0  0
    8.0550   -2.0632   -1.4577 C   0  0  0  0  0  0  0  0  0  0  0  0
    5.1775   -0.3327   -0.6538 N   0  0  0  0  0  0  0  0  0  0  0  0
    3.7910   -1.4422   -0.5573 H   0  0  0  0  0  0  0  0  0  0  0  0
    0.0769   -1.9463   -0.2627 H   0  0  0  0  0  0  0  0  0  0  0  0
   -0.8894   -4.1712    0.0745 H   0  0  0  0  0  0  0  0  0  0  0  0
    0.5647   -6.1790    0.2108 H   0  0  0  0  0  0  0  0  0  0  0  0
    3.0241   -5.9312   -0.0229 H   0  0  0  0  0  0  0  0  0  0  0  0
    4.0090   -3.7153   -0.3861 H   0  0  0  0  0  0  0  0  0  0  0  0
    2.7347    1.7545   -1.0422 H   0  0  0  0  0  0  0  0  0  0  0  0
    5.4308    3.4589   -4.6838 H   0  0  0  0  0  0  0  0  0  0  0  0
    6.4911    2.5309   -6.7802 H   0  0  0  0  0  0  0  0  0  0  0  0
    8.1067    0.1814   -7.1440 H   0  0  0  0  0  0  0  0  0  0  0  0
   10.1209   -0.8909   -6.1406 H   0  0  0  0  0  0  0  0  0  0  0  0
   11.2001    0.0925   -4.1464 H   0  0  0  0  0  0  0  0  0  0  0  0
   10.1244    1.9712   -2.9295 H   0  0  0  0  0  0  0  0  0  0  0  0
    8.2627    0.8166   -1.2364 H   0  0  0  0  0  0  0  0  0  0  0  0
    5.9674   -3.1049   -0.1601 H   0  0  0  0  0  0  0  0  0  0  0  0
    5.9286   -1.9662    1.2035 H   0  0  0  0  0  0  0  0  0  0  0  0
    7.1743   -4.0469    1.7738 H   0  0  0  0  0  0  0  0  0  0  0  0
    8.1826   -2.6031    1.8834 H   0  0  0  0  0  0  0  0  0  0  0  0
    8.1666   -4.6820   -0.3505 H   0  0  0  0  0  0  0  0  0  0  0  0
    9.4843   -4.3138    0.7615 H   0  0  0  0  0  0  0  0  0  0  0  0
    9.8073   -3.3295   -1.5462 H   0  0  0  0  0  0  0  0  0  0  0  0
    9.8370   -2.1281   -0.2528 H   0  0  0  0  0  0  0  0  0  0  0  0
    7.4349   -2.7410   -2.0597 H   0  0  0  0  0  0  0  0  0  0  0  0
    8.4825   -1.3253   -2.1440 H   0  0  0  0  0  0  0  0  0  0  0  0
  1  2  2  0  0  0  0
  2  3  1  0  0  0  0
  2 10  1  0  0  0  0
  3  4  1  0  0  0  0
  3 33  1  0  0  0  0
  4  5  1  0  0  0  0
  4  9  2  0  0  0  0
  5  6  2  0  0  0  0
  5 34  1  0  0  0  0
  6  7  1  0  0  0  0
  6 35  1  0  0  0  0
  7  8  2  0  0  0  0
  7 36  1  0  0  0  0
  8  9  1  0  0  0  0
  8 37  1  0  0  0  0
  9 38  1  0  0  0  0
 10 11  1  0  0  0  0
 10 39  1  0  0  0  0
 11 12  1  0  0  0  0
 11 32  2  0  0  0  0
 12 13  2  0  0  0  0
 13 14  1  0  0  0  0
 13 24  1  0  0  0  0
 14 15  1  0  0  0  0
 15 16  2  0  0  0  0
 15 23  1  0  0  0  0
 16 17  1  0  0  0  0
 16 40  1  0  0  0  0
 17 18  1  0  0  0  0
 17 41  1  0  0  0  0
 18 19  1  0  0  0  0
 18 23  2  0  0  0  0
 19 20  2  0  0  0  0
 19 42  1  0  0  0  0
 20 21  1  0  0  0  0
 20 43  1  0  0  0  0
 21 22  2  0  0  0  0
 21 44  1  0  0  0  0
 22 23  1  0  0  0  0
 22 45  1  0  0  0  0
 24 25  2  0  0  0  0
 24 46  1  0  0  0  0
 25 26  1  0  0  0  0
 25 32  1  0  0  0  0
 26 27  1  0  0  0  0
 26 31  1  0  0  0  0
 27 28  1  0  0  0  0
 27 47  1  0  0  0  0
 27 48  1  0  0  0  0
 28 29  1  0  0  0  0
 28 49  1  0  0  0  0
 28 50  1  0  0  0  0
 29 30  1  0  0  0  0
 29 51  1  0  0  0  0
 29 52  1  0  0  0  0
 30 31  1  0  0  0  0
 30 53  1  0  0  0  0
 30 54  1  0  0  0  0
 31 55  1  0  0  0  0
 31 56  1  0  0  0  0
M  END
$$$$
