CHEMBL1997924
 OpenBabel04072215363D

 44 48  0  0  0  0  0  0  0  0999 V2000
    1.1917   -1.6274    1.1345 C   0  0  0  0  0  0  0  0  0  0  0  0
    0.5852   -0.4205    0.7892 C   0  0  0  0  0  0  0  0  0  0  0  0
   -0.8063   -0.3370    0.6931 C   0  0  0  0  0  0  0  0  0  0  0  0
   -1.6045   -1.4638    0.9421 C   0  0  0  0  0  0  0  0  0  0  0  0
   -3.1151   -1.3817    0.9108 C   0  0  0  0  0  0  0  0  0  0  0  0
   -3.5790   -0.9150   -0.3819 N   0  0  0  0  0  0  0  0  0  0  0  0
   -4.9660   -0.9476   -0.5227 C   0  0  0  0  0  0  0  0  0  0  0  0
   -5.4686   -0.1182   -1.4375 N   0  0  0  0  0  0  0  0  0  0  0  0
   -6.8062    0.0166   -1.6187 C   0  0  0  0  0  0  0  0  0  0  0  0
   -7.3314    1.0278   -2.4439 N   0  0  0  0  0  0  0  0  0  0  0  0
   -6.7412    2.1959   -2.7829 C   0  0  0  0  0  0  0  0  0  0  0  0
   -5.3530    2.4554   -2.7610 C   0  0  0  0  0  0  0  0  0  0  0  0
   -5.2223    3.7954   -3.0225 C   0  0  0  0  0  0  0  0  0  0  0  0
   -3.9444    4.6064   -3.0161 C   0  0  0  0  0  0  0  0  0  0  0  0
   -2.6465    3.9214   -3.3951 C   0  0  0  0  0  0  0  0  0  0  0  0
   -2.8971    4.2723   -1.9697 C   0  0  0  0  0  0  0  0  0  0  0  0
   -6.4836    4.2438   -3.2622 N   0  0  0  0  0  0  0  0  0  0  0  0
   -7.4281    3.2876   -3.1384 N   0  0  0  0  0  0  0  0  0  0  0  0
   -7.6230   -0.8587   -0.8987 C   0  0  0  0  0  0  0  0  0  0  0  0
   -9.3360   -1.0313   -0.8896 S   0  0  0  0  0  0  0  0  0  0  0  0
   -9.2759   -2.2787    0.2776 C   0  0  0  0  0  0  0  0  0  0  0  0
   -7.9858   -2.5513    0.6709 C   0  0  0  0  0  0  0  0  0  0  0  0
   -7.0309   -1.7321   -0.0002 C   0  0  0  0  0  0  0  0  0  0  0  0
   -5.6975   -1.7738    0.2183 N   0  0  0  0  0  0  0  0  0  0  0  0
   -0.9795   -2.6730    1.2816 C   0  0  0  0  0  0  0  0  0  0  0  0
    0.4098   -2.7541    1.3780 C   0  0  0  0  0  0  0  0  0  0  0  0
    2.2735   -1.6898    1.2174 H   0  0  0  0  0  0  0  0  0  0  0  0
    1.1966    0.4585    0.6009 H   0  0  0  0  0  0  0  0  0  0  0  0
   -1.2688    0.6123    0.4290 H   0  0  0  0  0  0  0  0  0  0  0  0
   -3.4337   -0.6854    1.6976 H   0  0  0  0  0  0  0  0  0  0  0  0
   -3.5247   -2.3699    1.1523 H   0  0  0  0  0  0  0  0  0  0  0  0
   -3.2019   -1.4599   -1.1499 H   0  0  0  0  0  0  0  0  0  0  0  0
   -8.3435    1.0479   -2.4448 H   0  0  0  0  0  0  0  0  0  0  0  0
   -4.5520    1.7709   -2.5311 H   0  0  0  0  0  0  0  0  0  0  0  0
   -4.0506    5.6550   -3.2743 H   0  0  0  0  0  0  0  0  0  0  0  0
   -1.9079    4.4974   -3.9393 H   0  0  0  0  0  0  0  0  0  0  0  0
   -2.6581    2.8711   -3.6664 H   0  0  0  0  0  0  0  0  0  0  0  0
   -2.3330    5.0908   -1.5384 H   0  0  0  0  0  0  0  0  0  0  0  0
   -3.0857    3.4641   -1.2700 H   0  0  0  0  0  0  0  0  0  0  0  0
   -6.7829    5.1875   -3.4805 H   0  0  0  0  0  0  0  0  0  0  0  0
  -10.1848   -2.7469    0.6273 H   0  0  0  0  0  0  0  0  0  0  0  0
   -7.7255   -3.2973    1.4089 H   0  0  0  0  0  0  0  0  0  0  0  0
   -1.5746   -3.5607    1.4852 H   0  0  0  0  0  0  0  0  0  0  0  0
    0.8797   -3.6953    1.6498 H   0  0  0  0  0  0  0  0  0  0  0  0
  1  2  1  0  0  0  0
  1 26  2  0  0  0  0
  1 27  1  0  0  0  0
  2  3  2  0  0  0  0
  2 28  1  0  0  0  0
  3  4  1  0  0  0  0
  3 29  1  0  0  0  0
  4  5  1  0  0  0  0
  4 25  2  0  0  0  0
  5  6  1  0  0  0  0
  5 30  1  0  0  0  0
  5 31  1  0  0  0  0
  6  7  1  0  0  0  0
  6 32  1  0  0  0  0
  7  8  1  0  0  0  0
  7 24  2  0  0  0  0
  8  9  2  0  0  0  0
  9 10  1  0  0  0  0
  9 19  1  0  0  0  0
 10 11  1  0  0  0  0
 10 33  1  0  0  0  0
 11 12  1  0  0  0  0
 11 18  2  0  0  0  0
 12 13  2  0  0  0  0
 12 34  1  0  0  0  0
 13 14  1  0  0  0  0
 13 17  1  0  0  0  0
 14 15  1  0  0  0  0
 14 16  1  0  0  0  0
 14 35  1  0  0  0  0
 15 16  1  0  0  0  0
 15 36  1  0  0  0  0
 15 37  1  0  0  0  0
 16 38  1  0  0  0  0
 16 39  1  0  0  0  0
 17 18  1  0  0  0  0
 17 40  1  0  0  0  0
 19 20  1  0  0  0  0
 19 23  2  0  0  0  0
 20 21  1  0  0  0  0
 21 22  2  0  0  0  0
 21 41  1  0  0  0  0
 22 23  1  0  0  0  0
 22 42  1  0  0  0  0
 23 24  1  0  0  0  0
 25 26  1  0  0  0  0
 25 43  1  0  0  0  0
 26 44  1  0  0  0  0
M  END
$$$$
