CHEMBL522855
 OpenBabel04072215383D

 58 62  0  0  0  0  0  0  0  0999 V2000
   12.2589   -4.9050    0.3621 C   0  0  0  0  0  0  0  0  0  0  0  0
   11.5134   -3.8947    1.0506 O   0  0  0  0  0  0  0  0  0  0  0  0
   10.2904   -4.2887    1.5278 C   0  0  0  0  0  0  0  0  0  0  0  0
   10.0811   -5.6087    1.9653 C   0  0  0  0  0  0  0  0  0  0  0  0
    8.8434   -6.0888    2.3342 C   0  0  0  0  0  0  0  0  0  0  0  0
    8.7797   -7.3825    2.6918 N   0  0  0  0  0  0  0  0  0  0  0  0
    7.5784   -7.8962    3.0006 C   0  0  0  0  0  0  0  0  0  0  0  0
    6.4046   -7.1743    2.9427 C   0  0  0  0  0  0  0  0  0  0  0  0
    6.4469   -5.8228    2.5549 C   0  0  0  0  0  0  0  0  0  0  0  0
    5.1112   -5.0930    2.4399 C   0  0  0  0  0  0  0  0  0  0  0  0
    4.1637   -5.8154    1.5810 N   0  0  0  0  0  0  0  0  0  0  0  0
    4.4036   -5.7246    0.1447 C   0  0  0  0  0  0  0  0  0  0  0  0
    3.6080   -4.6367   -0.5941 C   0  0  0  0  0  0  0  0  0  0  0  0
    2.1339   -4.6615   -0.2632 C   0  0  0  0  0  0  0  0  0  0  0  0
    1.7564   -5.2124    0.9783 C   0  0  0  0  0  0  0  0  0  0  0  0
    0.3951   -5.2547    1.3322 C   0  0  0  0  0  0  0  0  0  0  0  0
   -0.5800   -4.7470    0.4825 C   0  0  0  0  0  0  0  0  0  0  0  0
   -0.2127   -4.1710   -0.7302 C   0  0  0  0  0  0  0  0  0  0  0  0
    1.1373   -4.1171   -1.1205 C   0  0  0  0  0  0  0  0  0  0  0  0
    1.4829   -3.3823   -2.3829 C   0  0  0  0  0  0  0  0  0  0  0  0
    2.5473   -2.7785   -2.4719 O   0  0  0  0  0  0  0  0  0  0  0  0
    0.5374   -3.3842   -3.3997 N   0  0  0  0  0  0  0  0  0  0  0  0
    0.6983   -2.6094   -4.5920 C   0  0  0  0  0  0  0  0  0  0  0  0
   -0.3731   -2.5846   -5.6571 C   0  0  0  0  0  0  0  0  0  0  0  0
    0.9304   -3.2796   -5.9200 C   0  0  0  0  0  0  0  0  0  0  0  0
    2.7625   -5.7393    1.9851 C   0  0  0  0  0  0  0  0  0  0  0  0
    7.7191   -5.2361    2.2919 C   0  0  0  0  0  0  0  0  0  0  0  0
    7.9555   -3.8753    1.9730 C   0  0  0  0  0  0  0  0  0  0  0  0
    9.2260   -3.3896    1.5964 C   0  0  0  0  0  0  0  0  0  0  0  0
    9.1849   -2.0597    1.2843 O   0  0  0  0  0  0  0  0  0  0  0  0
   10.3656   -1.3306    0.9916 C   0  0  0  0  0  0  0  0  0  0  0  0
   12.8952   -4.4136   -0.3801 H   0  0  0  0  0  0  0  0  0  0  0  0
   11.6215   -5.6139   -0.1791 H   0  0  0  0  0  0  0  0  0  0  0  0
   12.9063   -5.4323    1.0694 H   0  0  0  0  0  0  0  0  0  0  0  0
   10.9123   -6.3089    2.0030 H   0  0  0  0  0  0  0  0  0  0  0  0
    7.5811   -8.9430    3.2897 H   0  0  0  0  0  0  0  0  0  0  0  0
    5.4642   -7.6608    3.1720 H   0  0  0  0  0  0  0  0  0  0  0  0
    5.2137   -4.0571    2.1046 H   0  0  0  0  0  0  0  0  0  0  0  0
    4.7316   -5.0410    3.4688 H   0  0  0  0  0  0  0  0  0  0  0  0
    4.1388   -6.6994   -0.2881 H   0  0  0  0  0  0  0  0  0  0  0  0
    5.4694   -5.5954   -0.0753 H   0  0  0  0  0  0  0  0  0  0  0  0
    3.7503   -4.8147   -1.6657 H   0  0  0  0  0  0  0  0  0  0  0  0
    4.0075   -3.6471   -0.3466 H   0  0  0  0  0  0  0  0  0  0  0  0
    0.0951   -5.6714    2.2919 H   0  0  0  0  0  0  0  0  0  0  0  0
   -1.6272   -4.7698    0.7814 H   0  0  0  0  0  0  0  0  0  0  0  0
   -0.9956   -3.7223   -1.3349 H   0  0  0  0  0  0  0  0  0  0  0  0
   -0.2894   -3.9602   -3.3174 H   0  0  0  0  0  0  0  0  0  0  0  0
    1.2161   -1.6662   -4.4258 H   0  0  0  0  0  0  0  0  0  0  0  0
   -0.5549   -1.6500   -6.1729 H   0  0  0  0  0  0  0  0  0  0  0  0
   -1.2569   -3.1992   -5.5345 H   0  0  0  0  0  0  0  0  0  0  0  0
    1.6301   -2.8106   -6.6010 H   0  0  0  0  0  0  0  0  0  0  0  0
    0.9375   -4.3619   -5.9547 H   0  0  0  0  0  0  0  0  0  0  0  0
    2.4578   -6.7622    2.2415 H   0  0  0  0  0  0  0  0  0  0  0  0
    2.6473   -5.1423    2.8985 H   0  0  0  0  0  0  0  0  0  0  0  0
    7.1414   -3.1555    2.0077 H   0  0  0  0  0  0  0  0  0  0  0  0
   10.0512   -0.4176    0.4727 H   0  0  0  0  0  0  0  0  0  0  0  0
   11.0446   -1.8375    0.3065 H   0  0  0  0  0  0  0  0  0  0  0  0
   10.8716   -1.0257    1.9132 H   0  0  0  0  0  0  0  0  0  0  0  0
  1  2  1  0  0  0  0
  1 32  1  0  0  0  0
  1 33  1  0  0  0  0
  1 34  1  0  0  0  0
  2  3  1  0  0  0  0
  3  4  1  0  0  0  0
  3 29  2  0  0  0  0
  4  5  2  0  0  0  0
  4 35  1  0  0  0  0
  5  6  1  0  0  0  0
  5 27  1  0  0  0  0
  6  7  2  0  0  0  0
  7  8  1  0  0  0  0
  7 36  1  0  0  0  0
  8  9  2  0  0  0  0
  8 37  1  0  0  0  0
  9 10  1  0  0  0  0
  9 27  1  0  0  0  0
 10 11  1  0  0  0  0
 10 38  1  0  0  0  0
 10 39  1  0  0  0  0
 11 12  1  0  0  0  0
 11 26  1  0  0  0  0
 12 13  1  0  0  0  0
 12 40  1  0  0  0  0
 12 41  1  0  0  0  0
 13 14  1  0  0  0  0
 13 42  1  0  0  0  0
 13 43  1  0  0  0  0
 14 15  1  0  0  0  0
 14 19  2  0  0  0  0
 15 16  2  0  0  0  0
 15 26  1  0  0  0  0
 16 17  1  0  0  0  0
 16 44  1  0  0  0  0
 17 18  2  0  0  0  0
 17 45  1  0  0  0  0
 18 19  1  0  0  0  0
 18 46  1  0  0  0  0
 19 20  1  0  0  0  0
 20 21  2  0  0  0  0
 20 22  1  0  0  0  0
 22 23  1  0  0  0  0
 22 47  1  0  0  0  0
 23 24  1  0  0  0  0
 23 25  1  0  0  0  0
 23 48  1  0  0  0  0
 24 25  1  0  0  0  0
 24 49  1  0  0  0  0
 24 50  1  0  0  0  0
 25 51  1  0  0  0  0
 25 52  1  0  0  0  0
 26 53  1  0  0  0  0
 26 54  1  0  0  0  0
 27 28  2  0  0  0  0
 28 29  1  0  0  0  0
 28 55  1  0  0  0  0
 29 30  1  0  0  0  0
 30 31  1  0  0  0  0
 31 56  1  0  0  0  0
 31 57  1  0  0  0  0
 31 58  1  0  0  0  0
M  END
$$$$
