CHEMBL467164
 OpenBabel04072215383D

 52 56  0  0  0  0  0  0  0  0999 V2000
    0.4999   -0.6886   -0.3423 C   0  0  0  0  0  0  0  0  0  0  0  0
    1.8834   -0.8493   -0.0570 O   0  0  0  0  0  0  0  0  0  0  0  0
    2.4522   -2.0483   -0.3947 C   0  0  0  0  0  0  0  0  0  0  0  0
    1.7941   -3.1278   -0.9787 C   0  0  0  0  0  0  0  0  0  0  0  0
    2.4790   -4.3095   -1.2884 C   0  0  0  0  0  0  0  0  0  0  0  0
    3.8383   -4.3841   -0.9638 C   0  0  0  0  0  0  0  0  0  0  0  0
    4.7383   -5.4034   -1.1638 N   0  0  0  0  0  0  0  0  0  0  0  0
    5.9570   -5.0626   -0.6477 C   0  0  0  0  0  0  0  0  0  0  0  0
    5.8622   -3.8047   -0.0750 C   0  0  0  0  0  0  0  0  0  0  0  0
    6.9707   -3.1692    0.6448 C   0  0  0  0  0  0  0  0  0  0  0  0
    8.1390   -3.3519    0.2995 O   0  0  0  0  0  0  0  0  0  0  0  0
    6.7039   -2.3576    1.8784 C   0  0  0  0  0  0  0  0  0  0  0  0
    5.5566   -2.6361    2.6498 C   0  0  0  0  0  0  0  0  0  0  0  0
    5.2726   -1.9104    3.8035 C   0  0  0  0  0  0  0  0  0  0  0  0
    6.1541   -0.9270    4.2269 C   0  0  0  0  0  0  0  0  0  0  0  0
    7.3152   -0.6651    3.4944 C   0  0  0  0  0  0  0  0  0  0  0  0
    7.6359   -1.3847    2.3270 C   0  0  0  0  0  0  0  0  0  0  0  0
    8.7780   -1.0279    1.5655 N   0  0  0  0  0  0  0  0  0  0  0  0
   10.0174   -0.7600    2.2980 C   0  0  0  0  0  0  0  0  0  0  0  0
   10.5813    0.6333    2.0942 C   0  0  0  0  0  0  0  0  0  0  0  0
   11.6688    1.0006    2.9004 C   0  0  0  0  0  0  0  0  0  0  0  0
   12.2768    2.2506    2.7723 C   0  0  0  0  0  0  0  0  0  0  0  0
   11.8554    3.1667    1.8287 C   0  0  0  0  0  0  0  0  0  0  0  0
   12.4989    4.3459    1.7517 N   0  0  0  0  0  0  0  0  0  0  0  0
   12.1141    5.2204    0.8038 C   0  0  0  0  0  0  0  0  0  0  0  0
   11.0938    4.9722   -0.0926 C   0  0  0  0  0  0  0  0  0  0  0  0
   10.4134    3.7569    0.0023 C   0  0  0  0  0  0  0  0  0  0  0  0
   10.7840    2.8149    0.9823 C   0  0  0  0  0  0  0  0  0  0  0  0
   10.1442    1.5548    1.1304 C   0  0  0  0  0  0  0  0  0  0  0  0
    4.5263   -3.3409   -0.3411 C   0  0  0  0  0  0  0  0  0  0  0  0
    3.8173   -2.1444   -0.0898 C   0  0  0  0  0  0  0  0  0  0  0  0
    0.2093    0.3198   -0.0322 H   0  0  0  0  0  0  0  0  0  0  0  0
   -0.1056   -1.4000    0.2291 H   0  0  0  0  0  0  0  0  0  0  0  0
    0.3054   -0.7754   -1.4162 H   0  0  0  0  0  0  0  0  0  0  0  0
    0.7358   -3.0856   -1.2165 H   0  0  0  0  0  0  0  0  0  0  0  0
    1.9611   -5.1408   -1.7567 H   0  0  0  0  0  0  0  0  0  0  0  0
    4.5220   -6.2802   -1.6185 H   0  0  0  0  0  0  0  0  0  0  0  0
    6.7910   -5.7515   -0.6962 H   0  0  0  0  0  0  0  0  0  0  0  0
    4.8574   -3.4175    2.3618 H   0  0  0  0  0  0  0  0  0  0  0  0
    4.3609   -2.1096    4.3613 H   0  0  0  0  0  0  0  0  0  0  0  0
    5.9388   -0.3531    5.1246 H   0  0  0  0  0  0  0  0  0  0  0  0
    7.9663    0.1322    3.8450 H   0  0  0  0  0  0  0  0  0  0  0  0
    8.9536   -1.7714    0.8738 H   0  0  0  0  0  0  0  0  0  0  0  0
   10.7765   -1.4726    1.9505 H   0  0  0  0  0  0  0  0  0  0  0  0
    9.9101   -0.9423    3.3752 H   0  0  0  0  0  0  0  0  0  0  0  0
   12.0628    0.3063    3.6393 H   0  0  0  0  0  0  0  0  0  0  0  0
   13.1120    2.5079    3.4178 H   0  0  0  0  0  0  0  0  0  0  0  0
   12.6751    6.1502    0.7836 H   0  0  0  0  0  0  0  0  0  0  0  0
   10.8412    5.7036   -0.8514 H   0  0  0  0  0  0  0  0  0  0  0  0
    9.6108    3.5464   -0.6951 H   0  0  0  0  0  0  0  0  0  0  0  0
    9.3075    1.2962    0.4821 H   0  0  0  0  0  0  0  0  0  0  0  0
    4.3178   -1.2915    0.3614 H   0  0  0  0  0  0  0  0  0  0  0  0
  1  2  1  0  0  0  0
  1 32  1  0  0  0  0
  1 33  1  0  0  0  0
  1 34  1  0  0  0  0
  2  3  1  0  0  0  0
  3  4  1  0  0  0  0
  3 31  2  0  0  0  0
  4  5  2  0  0  0  0
  4 35  1  0  0  0  0
  5  6  1  0  0  0  0
  5 36  1  0  0  0  0
  6  7  1  0  0  0  0
  6 30  2  0  0  0  0
  7  8  1  0  0  0  0
  7 37  1  0  0  0  0
  8  9  2  0  0  0  0
  8 38  1  0  0  0  0
  9 10  1  0  0  0  0
  9 30  1  0  0  0  0
 10 11  2  0  0  0  0
 10 12  1  0  0  0  0
 12 13  1  0  0  0  0
 12 17  2  0  0  0  0
 13 14  2  0  0  0  0
 13 39  1  0  0  0  0
 14 15  1  0  0  0  0
 14 40  1  0  0  0  0
 15 16  2  0  0  0  0
 15 41  1  0  0  0  0
 16 17  1  0  0  0  0
 16 42  1  0  0  0  0
 17 18  1  0  0  0  0
 18 19  1  0  0  0  0
 18 43  1  0  0  0  0
 19 20  1  0  0  0  0
 19 44  1  0  0  0  0
 19 45  1  0  0  0  0
 20 21  1  0  0  0  0
 20 29  2  0  0  0  0
 21 22  2  0  0  0  0
 21 46  1  0  0  0  0
 22 23  1  0  0  0  0
 22 47  1  0  0  0  0
 23 24  1  0  0  0  0
 23 28  2  0  0  0  0
 24 25  2  0  0  0  0
 25 26  1  0  0  0  0
 25 48  1  0  0  0  0
 26 27  2  0  0  0  0
 26 49  1  0  0  0  0
 27 28  1  0  0  0  0
 27 50  1  0  0  0  0
 28 29  1  0  0  0  0
 29 51  1  0  0  0  0
 30 31  1  0  0  0  0
 31 52  1  0  0  0  0
M  END
$$$$
