CHEMBL3971758
 OpenBabel04072215373D

 47 50  0  0  0  0  0  0  0  0999 V2000
    2.3224   -0.1078   -1.0356 C   0  0  0  0  0  0  0  0  0  0  0  0
    0.8768   -0.0240   -0.6547 C   0  0  0  0  0  0  0  0  0  0  0  0
    0.2460    1.1876   -0.3900 C   0  0  0  0  0  0  0  0  0  0  0  0
   -1.1032    1.2234   -0.0079 C   0  0  0  0  0  0  0  0  0  0  0  0
   -1.8454    0.0422    0.1276 C   0  0  0  0  0  0  0  0  0  0  0  0
   -1.2263   -1.1799   -0.1365 C   0  0  0  0  0  0  0  0  0  0  0  0
   -1.8594   -2.5067    0.0894 C   0  0  0  0  0  0  0  0  0  0  0  0
   -1.0782   -3.4134    0.3709 O   0  0  0  0  0  0  0  0  0  0  0  0
   -3.2355   -2.6491   -0.0671 N   0  0  0  0  0  0  0  0  0  0  0  0
   -3.9231   -3.8947    0.0793 C   0  0  0  0  0  0  0  0  0  0  0  0
   -3.3327   -5.0239    0.6451 C   0  0  0  0  0  0  0  0  0  0  0  0
   -3.9809   -6.2644    0.6639 C   0  0  0  0  0  0  0  0  0  0  0  0
   -5.2965   -6.3836    0.2333 C   0  0  0  0  0  0  0  0  0  0  0  0
   -5.9767   -5.2400   -0.1667 C   0  0  0  0  0  0  0  0  0  0  0  0
   -7.4739   -5.2282   -0.1703 C   0  0  0  0  0  0  0  0  0  0  0  0
   -8.2451   -4.4675   -1.0511 C   0  0  0  0  0  0  0  0  0  0  0  0
   -8.4761   -3.2599   -0.3121 C   0  0  0  0  0  0  0  0  0  0  0  0
   -8.6760   -1.9233   -0.6867 C   0  0  0  0  0  0  0  0  0  0  0  0
   -8.6180   -0.9373    0.3034 C   0  0  0  0  0  0  0  0  0  0  0  0
   -8.4533   -1.2726    1.6490 C   0  0  0  0  0  0  0  0  0  0  0  0
   -8.3313   -2.6008    2.0547 C   0  0  0  0  0  0  0  0  0  0  0  0
   -8.2916   -3.5619    1.0407 C   0  0  0  0  0  0  0  0  0  0  0  0
   -8.1058   -4.9362    1.0605 N   0  0  0  0  0  0  0  0  0  0  0  0
   -8.3874   -5.7991    2.1325 C   0  0  0  0  0  0  0  0  0  0  0  0
   -8.8780   -7.0046    1.7115 N   0  0  0  0  0  0  0  0  0  0  0  0
   -8.3557   -5.4246    3.2892 O   0  0  0  0  0  0  0  0  0  0  0  0
   -5.2581   -4.0139   -0.3158 C   0  0  0  0  0  0  0  0  0  0  0  0
    0.1285   -1.2016   -0.5233 C   0  0  0  0  0  0  0  0  0  0  0  0
    2.7829    0.8861   -1.0883 H   0  0  0  0  0  0  0  0  0  0  0  0
    2.4253   -0.5788   -2.0182 H   0  0  0  0  0  0  0  0  0  0  0  0
    2.8783   -0.6946   -0.2965 H   0  0  0  0  0  0  0  0  0  0  0  0
    0.7878    2.1291   -0.4750 H   0  0  0  0  0  0  0  0  0  0  0  0
   -1.5666    2.1846    0.2182 H   0  0  0  0  0  0  0  0  0  0  0  0
   -2.8675    0.0931    0.4838 H   0  0  0  0  0  0  0  0  0  0  0  0
   -3.7662   -1.8722   -0.4425 H   0  0  0  0  0  0  0  0  0  0  0  0
   -2.3566   -4.9780    1.1165 H   0  0  0  0  0  0  0  0  0  0  0  0
   -3.4560   -7.1255    1.0668 H   0  0  0  0  0  0  0  0  0  0  0  0
   -5.7941   -7.3468    0.2852 H   0  0  0  0  0  0  0  0  0  0  0  0
   -8.1628   -4.5025   -2.1305 H   0  0  0  0  0  0  0  0  0  0  0  0
   -8.7606   -1.6543   -1.7343 H   0  0  0  0  0  0  0  0  0  0  0  0
   -8.6771    0.1081    0.0156 H   0  0  0  0  0  0  0  0  0  0  0  0
   -8.4072   -0.4877    2.3994 H   0  0  0  0  0  0  0  0  0  0  0  0
   -8.1899   -2.8663    3.0995 H   0  0  0  0  0  0  0  0  0  0  0  0
   -9.2570   -7.0842    0.7772 H   0  0  0  0  0  0  0  0  0  0  0  0
   -9.3785   -7.5124    2.4322 H   0  0  0  0  0  0  0  0  0  0  0  0
   -5.7747   -3.1318   -0.6863 H   0  0  0  0  0  0  0  0  0  0  0  0
    0.6233   -2.1569   -0.6946 H   0  0  0  0  0  0  0  0  0  0  0  0
  1  2  1  0  0  0  0
  1 29  1  0  0  0  0
  1 30  1  0  0  0  0
  1 31  1  0  0  0  0
  2  3  1  0  0  0  0
  2 28  2  0  0  0  0
  3  4  2  0  0  0  0
  3 32  1  0  0  0  0
  4  5  1  0  0  0  0
  4 33  1  0  0  0  0
  5  6  2  0  0  0  0
  5 34  1  0  0  0  0
  6  7  1  0  0  0  0
  6 28  1  0  0  0  0
  7  8  2  0  0  0  0
  7  9  1  0  0  0  0
  9 10  1  0  0  0  0
  9 35  1  0  0  0  0
 10 11  1  0  0  0  0
 10 27  2  0  0  0  0
 11 12  2  0  0  0  0
 11 36  1  0  0  0  0
 12 13  1  0  0  0  0
 12 37  1  0  0  0  0
 13 14  2  0  0  0  0
 13 38  1  0  0  0  0
 14 15  1  0  0  0  0
 14 27  1  0  0  0  0
 15 16  2  0  0  0  0
 15 23  1  0  0  0  0
 16 17  1  0  0  0  0
 16 39  1  0  0  0  0
 17 18  1  0  0  0  0
 17 22  2  0  0  0  0
 18 19  2  0  0  0  0
 18 40  1  0  0  0  0
 19 20  1  0  0  0  0
 19 41  1  0  0  0  0
 20 21  2  0  0  0  0
 20 42  1  0  0  0  0
 21 22  1  0  0  0  0
 21 43  1  0  0  0  0
 22 23  1  0  0  0  0
 23 24  1  0  0  0  0
 24 25  1  0  0  0  0
 24 26  2  0  0  0  0
 25 44  1  0  0  0  0
 25 45  1  0  0  0  0
 27 46  1  0  0  0  0
 28 47  1  0  0  0  0
M  END
$$$$
