CHEMBL3740574
 OpenBabel04072215373D

 60 64  0  0  0  0  0  0  0  0999 V2000
    0.2385    4.5346    1.7391 C   0  0  0  0  0  0  0  0  0  0  0  0
    1.6552    4.3565    1.5678 N   0  0  0  0  0  0  0  0  0  0  0  0
    2.5192    5.4231    1.7023 C   0  0  0  0  0  0  0  0  0  0  0  0
    2.1532    6.5501    2.0161 O   0  0  0  0  0  0  0  0  0  0  0  0
    3.9582    5.1400    1.4554 C   0  0  0  0  0  0  0  0  0  0  0  0
    4.3613    4.1058    0.6060 C   0  0  0  0  0  0  0  0  0  0  0  0
    5.7159    3.8976    0.3728 C   0  0  0  0  0  0  0  0  0  0  0  0
    6.6651    4.7184    0.9853 C   0  0  0  0  0  0  0  0  0  0  0  0
    6.2927    5.7573    1.8472 C   0  0  0  0  0  0  0  0  0  0  0  0
    7.2141    6.6059    2.4787 N   0  0  0  0  0  0  0  0  0  0  0  0
    8.5960    6.5057    2.6465 C   0  0  0  0  0  0  0  0  0  0  0  0
    9.1089    7.2407    3.6438 N   0  0  0  0  0  0  0  0  0  0  0  0
   10.4172    7.0824    3.9055 C   0  0  0  0  0  0  0  0  0  0  0  0
   11.2407    6.2429    3.1981 C   0  0  0  0  0  0  0  0  0  0  0  0
   10.6480    5.5813    2.1490 C   0  0  0  0  0  0  0  0  0  0  0  0
   11.3042    4.6915    1.3198 O   0  0  0  0  0  0  0  0  0  0  0  0
   12.6647    4.8072    1.1894 C   0  0  0  0  0  0  0  0  0  0  0  0
   13.4369    3.6681    1.4093 C   0  0  0  0  0  0  0  0  0  0  0  0
   14.8292    3.7826    1.4540 C   0  0  0  0  0  0  0  0  0  0  0  0
   15.4485    5.0131    1.1679 C   0  0  0  0  0  0  0  0  0  0  0  0
   16.8354    5.2301    1.1594 C   0  0  0  0  0  0  0  0  0  0  0  0
   17.2586    6.4647    2.0438 C   0  0  0  0  0  0  0  0  0  0  0  0
   16.5232    6.8849    2.9268 O   0  0  0  0  0  0  0  0  0  0  0  0
   18.5223    7.0072    1.7309 N   0  0  0  0  0  0  0  0  0  0  0  0
   19.1014    8.2336    2.1516 C   0  0  0  0  0  0  0  0  0  0  0  0
   18.4857    9.1650    2.9932 C   0  0  0  0  0  0  0  0  0  0  0  0
   19.1528   10.3477    3.3534 C   0  0  0  0  0  0  0  0  0  0  0  0
   20.4391   10.6135    2.8782 C   0  0  0  0  0  0  0  0  0  0  0  0
   21.0482    9.7038    2.0238 C   0  0  0  0  0  0  0  0  0  0  0  0
   20.3849    8.5343    1.6621 C   0  0  0  0  0  0  0  0  0  0  0  0
   17.2868    5.4018   -0.1354 C   0  0  0  0  0  0  0  0  0  0  0  0
   16.5617    6.2846   -0.9298 C   0  0  0  0  0  0  0  0  0  0  0  0
   15.2902    6.7041   -0.4949 C   0  0  0  0  0  0  0  0  0  0  0  0
   14.6563    5.9609    0.5101 C   0  0  0  0  0  0  0  0  0  0  0  0
   13.2671    5.9607    0.6939 C   0  0  0  0  0  0  0  0  0  0  0  0
    9.3362    5.6911    1.8824 N   0  0  0  0  0  0  0  0  0  0  0  0
    4.9210    5.9711    2.0494 C   0  0  0  0  0  0  0  0  0  0  0  0
   -0.2482    3.5610    1.6550 H   0  0  0  0  0  0  0  0  0  0  0  0
   -0.1306    5.2023    0.9552 H   0  0  0  0  0  0  0  0  0  0  0  0
    0.0432    4.9721    2.7213 H   0  0  0  0  0  0  0  0  0  0  0  0
    2.0184    3.4174    1.4921 H   0  0  0  0  0  0  0  0  0  0  0  0
    3.6432    3.4832    0.0837 H   0  0  0  0  0  0  0  0  0  0  0  0
    6.0448    3.1041   -0.2931 H   0  0  0  0  0  0  0  0  0  0  0  0
    7.7089    4.5206    0.7622 H   0  0  0  0  0  0  0  0  0  0  0  0
    6.8477    7.2255    3.1884 H   0  0  0  0  0  0  0  0  0  0  0  0
   10.8003    7.6658    4.7399 H   0  0  0  0  0  0  0  0  0  0  0  0
   12.2800    6.1221    3.4684 H   0  0  0  0  0  0  0  0  0  0  0  0
   12.9602    2.7009    1.5468 H   0  0  0  0  0  0  0  0  0  0  0  0
   15.4320    2.8970    1.6377 H   0  0  0  0  0  0  0  0  0  0  0  0
   19.0718    6.4923    1.0548 H   0  0  0  0  0  0  0  0  0  0  0  0
   17.4831    9.0036    3.3749 H   0  0  0  0  0  0  0  0  0  0  0  0
   18.6637   11.0632    4.0137 H   0  0  0  0  0  0  0  0  0  0  0  0
   20.9450   11.5302    3.1715 H   0  0  0  0  0  0  0  0  0  0  0  0
   22.0491    9.9162    1.6442 H   0  0  0  0  0  0  0  0  0  0  0  0
   20.8959    7.8518    0.9880 H   0  0  0  0  0  0  0  0  0  0  0  0
   18.2015    4.9237   -0.4657 H   0  0  0  0  0  0  0  0  0  0  0  0
   16.9524    6.6029   -1.8898 H   0  0  0  0  0  0  0  0  0  0  0  0
   14.7353    7.4187   -1.0973 H   0  0  0  0  0  0  0  0  0  0  0  0
   12.6571    6.7858    0.3357 H   0  0  0  0  0  0  0  0  0  0  0  0
    4.5869    6.7918    2.6829 H   0  0  0  0  0  0  0  0  0  0  0  0
  1  2  1  0  0  0  0
  1 38  1  0  0  0  0
  1 39  1  0  0  0  0
  1 40  1  0  0  0  0
  2  3  1  0  0  0  0
  2 41  1  0  0  0  0
  3  4  2  0  0  0  0
  3  5  1  0  0  0  0
  5  6  1  0  0  0  0
  5 37  2  0  0  0  0
  6  7  2  0  0  0  0
  6 42  1  0  0  0  0
  7  8  1  0  0  0  0
  7 43  1  0  0  0  0
  8  9  2  0  0  0  0
  8 44  1  0  0  0  0
  9 10  1  0  0  0  0
  9 37  1  0  0  0  0
 10 11  1  0  0  0  0
 10 45  1  0  0  0  0
 11 12  1  0  0  0  0
 11 36  2  0  0  0  0
 12 13  2  0  0  0  0
 13 14  1  0  0  0  0
 13 46  1  0  0  0  0
 14 15  2  0  0  0  0
 14 47  1  0  0  0  0
 15 16  1  0  0  0  0
 15 36  1  0  0  0  0
 16 17  1  0  0  0  0
 17 18  1  0  0  0  0
 17 35  2  0  0  0  0
 18 19  2  0  0  0  0
 18 48  1  0  0  0  0
 19 20  1  0  0  0  0
 19 49  1  0  0  0  0
 20 21  1  0  0  0  0
 20 34  2  0  0  0  0
 21 22  1  0  0  0  0
 21 31  2  0  0  0  0
 22 23  2  0  0  0  0
 22 24  1  0  0  0  0
 24 25  1  0  0  0  0
 24 50  1  0  0  0  0
 25 26  1  0  0  0  0
 25 30  2  0  0  0  0
 26 27  2  0  0  0  0
 26 51  1  0  0  0  0
 27 28  1  0  0  0  0
 27 52  1  0  0  0  0
 28 29  2  0  0  0  0
 28 53  1  0  0  0  0
 29 30  1  0  0  0  0
 29 54  1  0  0  0  0
 30 55  1  0  0  0  0
 31 32  1  0  0  0  0
 31 56  1  0  0  0  0
 32 33  2  0  0  0  0
 32 57  1  0  0  0  0
 33 34  1  0  0  0  0
 33 58  1  0  0  0  0
 34 35  1  0  0  0  0
 35 59  1  0  0  0  0
 37 60  1  0  0  0  0
M  END
$$$$
