CHEMBL225334
 OpenBabel04072215363D

 62 67  0  0  0  0  0  0  0  0999 V2000
    6.8755   -4.9655   -4.2051 C   0  0  0  0  0  0  0  0  0  0  0  0
    5.4335   -4.9358   -3.9764 N   0  0  0  0  0  0  0  0  0  0  0  0
    4.6933   -4.3718   -5.1176 C   0  0  0  0  0  0  0  0  0  0  0  0
    4.9287   -2.8660   -5.2853 C   0  0  0  0  0  0  0  0  0  0  0  0
    4.6530   -2.1493   -4.0462 N   0  0  0  0  0  0  0  0  0  0  0  0
    3.7404   -1.0235   -3.9953 C   0  0  0  0  0  0  0  0  0  0  0  0
    4.1415    0.1835   -4.7979 C   0  0  0  0  0  0  0  0  0  0  0  0
    4.9526    1.1894   -4.2153 C   0  0  0  0  0  0  0  0  0  0  0  0
    5.1896    2.4040   -4.8693 C   0  0  0  0  0  0  0  0  0  0  0  0
    4.6333    2.5631   -6.1158 C   0  0  0  0  0  0  0  0  0  0  0  0
    3.8718    1.5425   -6.7474 C   0  0  0  0  0  0  0  0  0  0  0  0
    3.6207    0.3533   -6.0902 C   0  0  0  0  0  0  0  0  0  0  0  0
    3.3629    1.9301   -8.1430 C   0  0  0  0  0  0  0  0  0  0  0  0
    3.9046    3.3119   -8.1580 C   0  0  0  0  0  0  0  0  0  0  0  0
    3.9592    4.4494   -8.9634 C   0  0  0  0  0  0  0  0  0  0  0  0
    3.3301    4.5748  -10.2889 C   0  0  0  0  0  0  0  0  0  0  0  0
    3.8162    5.3435  -11.3235 C   0  0  0  0  0  0  0  0  0  0  0  0
    2.8052    5.2604  -12.7099 S   0  0  0  0  0  0  0  0  0  0  0  0
    1.7099    4.1815  -11.9487 C   0  0  0  0  0  0  0  0  0  0  0  0
    0.5170    3.6729  -12.5846 C   0  0  0  0  0  0  0  0  0  0  0  0
   -0.4763    3.2805  -13.1351 C   0  0  0  0  0  0  0  0  0  0  0  0
   -1.7040    2.8450  -13.8440 C   0  0  0  0  0  0  0  0  0  0  0  0
   -1.5662    1.4899  -14.3003 O   0  0  0  0  0  0  0  0  0  0  0  0
   -2.6599    0.9873  -14.9658 C   0  0  0  0  0  0  0  0  0  0  0  0
   -3.5571    1.7568  -15.7110 C   0  0  0  0  0  0  0  0  0  0  0  0
   -4.6569    1.1616  -16.3331 C   0  0  0  0  0  0  0  0  0  0  0  0
   -4.8562   -0.2121  -16.2344 C   0  0  0  0  0  0  0  0  0  0  0  0
   -3.9420   -0.9952  -15.5315 C   0  0  0  0  0  0  0  0  0  0  0  0
   -2.8429   -0.3971  -14.9042 C   0  0  0  0  0  0  0  0  0  0  0  0
    2.1259    3.8885  -10.6641 C   0  0  0  0  0  0  0  0  0  0  0  0
    4.6731    5.4364   -8.3758 N   0  0  0  0  0  0  0  0  0  0  0  0
    5.0296    4.9168   -7.1680 N   0  0  0  0  0  0  0  0  0  0  0  0
    4.6201    3.6398   -7.0364 C   0  0  0  0  0  0  0  0  0  0  0  0
    5.1219   -2.6644   -2.8460 C   0  0  0  0  0  0  0  0  0  0  0  0
    5.3308   -1.9553   -1.8613 O   0  0  0  0  0  0  0  0  0  0  0  0
    5.1093   -4.1971   -2.7355 C   0  0  0  0  0  0  0  0  0  0  0  0
    7.1036   -5.5265   -5.1179 H   0  0  0  0  0  0  0  0  0  0  0  0
    7.3780   -5.4882   -3.3838 H   0  0  0  0  0  0  0  0  0  0  0  0
    7.3202   -3.9693   -4.2907 H   0  0  0  0  0  0  0  0  0  0  0  0
    3.6211   -4.5466   -4.9563 H   0  0  0  0  0  0  0  0  0  0  0  0
    4.9504   -4.9064   -6.0400 H   0  0  0  0  0  0  0  0  0  0  0  0
    4.3368   -2.4763   -6.1181 H   0  0  0  0  0  0  0  0  0  0  0  0
    5.9825   -2.6751   -5.5229 H   0  0  0  0  0  0  0  0  0  0  0  0
    3.5790   -0.7177   -2.9534 H   0  0  0  0  0  0  0  0  0  0  0  0
    2.7572   -1.3803   -4.3309 H   0  0  0  0  0  0  0  0  0  0  0  0
    5.3689    1.0329   -3.2196 H   0  0  0  0  0  0  0  0  0  0  0  0
    5.7691    3.1868   -4.3952 H   0  0  0  0  0  0  0  0  0  0  0  0
    2.9994   -0.4097   -6.5489 H   0  0  0  0  0  0  0  0  0  0  0  0
    2.2720    1.9114   -8.1769 H   0  0  0  0  0  0  0  0  0  0  0  0
    3.8119    1.2971   -8.9136 H   0  0  0  0  0  0  0  0  0  0  0  0
    4.7147    5.9457  -11.3296 H   0  0  0  0  0  0  0  0  0  0  0  0
   -1.8581    3.5184  -14.6918 H   0  0  0  0  0  0  0  0  0  0  0  0
   -2.5737    2.9112  -13.1779 H   0  0  0  0  0  0  0  0  0  0  0  0
   -3.4234    2.8232  -15.8473 H   0  0  0  0  0  0  0  0  0  0  0  0
   -5.3527    1.7761  -16.8986 H   0  0  0  0  0  0  0  0  0  0  0  0
   -5.7169   -0.6704  -16.7144 H   0  0  0  0  0  0  0  0  0  0  0  0
   -4.0867   -2.0710  -15.4716 H   0  0  0  0  0  0  0  0  0  0  0  0
   -2.1365   -1.0176  -14.3580 H   0  0  0  0  0  0  0  0  0  0  0  0
    1.5711    3.2300  -10.0102 H   0  0  0  0  0  0  0  0  0  0  0  0
    5.5335    5.5021   -6.5112 H   0  0  0  0  0  0  0  0  0  0  0  0
    4.0869   -4.4633   -2.4355 H   0  0  0  0  0  0  0  0  0  0  0  0
    5.7682   -4.5011   -1.9150 H   0  0  0  0  0  0  0  0  0  0  0  0
  1  2  1  0  0  0  0
  1 37  1  0  0  0  0
  1 38  1  0  0  0  0
  1 39  1  0  0  0  0
  2  3  1  0  0  0  0
  2 36  1  0  0  0  0
  3  4  1  0  0  0  0
  3 40  1  0  0  0  0
  3 41  1  0  0  0  0
  4  5  1  0  0  0  0
  4 42  1  0  0  0  0
  4 43  1  0  0  0  0
  5  6  1  0  0  0  0
  5 34  1  0  0  0  0
  6  7  1  0  0  0  0
  6 44  1  0  0  0  0
  6 45  1  0  0  0  0
  7  8  1  0  0  0  0
  7 12  2  0  0  0  0
  8  9  2  0  0  0  0
  8 46  1  0  0  0  0
  9 10  1  0  0  0  0
  9 47  1  0  0  0  0
 10 11  2  0  0  0  0
 10 33  1  0  0  0  0
 11 12  1  0  0  0  0
 11 13  1  0  0  0  0
 12 48  1  0  0  0  0
 13 14  1  0  0  0  0
 13 49  1  0  0  0  0
 13 50  1  0  0  0  0
 14 15  1  0  0  0  0
 14 33  2  0  0  0  0
 15 16  1  0  0  0  0
 15 31  2  0  0  0  0
 16 17  2  0  0  0  0
 16 30  1  0  0  0  0
 17 18  1  0  0  0  0
 17 51  1  0  0  0  0
 18 19  1  0  0  0  0
 19 20  1  0  0  0  0
 19 30  2  0  0  0  0
 20 21  3  0  0  0  0
 21 22  1  0  0  0  0
 22 23  1  0  0  0  0
 22 52  1  0  0  0  0
 22 53  1  0  0  0  0
 23 24  1  0  0  0  0
 24 25  1  0  0  0  0
 24 29  2  0  0  0  0
 25 26  2  0  0  0  0
 25 54  1  0  0  0  0
 26 27  1  0  0  0  0
 26 55  1  0  0  0  0
 27 28  2  0  0  0  0
 27 56  1  0  0  0  0
 28 29  1  0  0  0  0
 28 57  1  0  0  0  0
 29 58  1  0  0  0  0
 30 59  1  0  0  0  0
 31 32  1  0  0  0  0
 32 33  1  0  0  0  0
 32 60  1  0  0  0  0
 34 35  2  0  0  0  0
 34 36  1  0  0  0  0
 36 61  1  0  0  0  0
 36 62  1  0  0  0  0
M  END
$$$$
