CHEMBL2031898
 OpenBabel04072215363D

 64 68  0  0  0  0  0  0  0  0999 V2000
   10.4925   -0.1653   -1.3542 C   0  0  0  0  0  0  0  0  0  0  0  0
    9.8186   -1.0379   -2.2681 O   0  0  0  0  0  0  0  0  0  0  0  0
    8.9801   -0.4291   -3.1676 C   0  0  0  0  0  0  0  0  0  0  0  0
    9.2328    0.8674   -3.6333 C   0  0  0  0  0  0  0  0  0  0  0  0
    8.3485    1.5589   -4.4494 C   0  0  0  0  0  0  0  0  0  0  0  0
    8.6604    2.8238   -4.7689 N   0  0  0  0  0  0  0  0  0  0  0  0
    7.8009    3.5202   -5.5349 C   0  0  0  0  0  0  0  0  0  0  0  0
    6.6049    3.0147   -6.0010 C   0  0  0  0  0  0  0  0  0  0  0  0
    6.2502    1.7206   -5.6179 C   0  0  0  0  0  0  0  0  0  0  0  0
    5.0061    1.2035   -5.9676 O   0  0  0  0  0  0  0  0  0  0  0  0
    3.8855    2.0091   -5.8256 C   0  0  0  0  0  0  0  0  0  0  0  0
    3.7658    3.0001   -4.8546 C   0  0  0  0  0  0  0  0  0  0  0  0
    2.6128    3.7967   -4.7758 C   0  0  0  0  0  0  0  0  0  0  0  0
    1.5071    3.5981   -5.6115 C   0  0  0  0  0  0  0  0  0  0  0  0
    0.3028    4.3780   -5.5006 N   0  0  0  0  0  0  0  0  0  0  0  0
    0.0480    5.3451   -4.5371 C   0  0  0  0  0  0  0  0  0  0  0  0
    0.8383    5.6426   -3.6461 O   0  0  0  0  0  0  0  0  0  0  0  0
   -1.2416    6.0810   -4.6076 C   0  0  0  0  0  0  0  0  0  0  0  0
   -1.6692    7.0765   -3.7948 C   0  0  0  0  0  0  0  0  0  0  0  0
   -1.0352    7.5850   -2.5332 C   0  0  0  0  0  0  0  0  0  0  0  0
   -2.8585    7.6620   -4.2479 N   0  0  0  0  0  0  0  0  0  0  0  0
   -3.8335    8.3489   -3.4029 C   0  0  0  0  0  0  0  0  0  0  0  0
   -3.3460    6.8187   -5.2584 N   0  0  0  0  0  0  0  0  0  0  0  0
   -4.3994    7.1984   -6.1179 C   0  0  0  0  0  0  0  0  0  0  0  0
   -5.3573    6.2446   -6.4785 C   0  0  0  0  0  0  0  0  0  0  0  0
   -6.4516    6.6071   -7.2689 C   0  0  0  0  0  0  0  0  0  0  0  0
   -6.5738    7.9129   -7.7355 C   0  0  0  0  0  0  0  0  0  0  0  0
   -5.6143    8.8683   -7.3951 C   0  0  0  0  0  0  0  0  0  0  0  0
   -4.5393    8.5152   -6.5691 C   0  0  0  0  0  0  0  0  0  0  0  0
   -2.3562    5.8838   -5.5760 C   0  0  0  0  0  0  0  0  0  0  0  0
   -2.3208    5.0468   -6.4731 O   0  0  0  0  0  0  0  0  0  0  0  0
    1.6292    2.5759   -6.5762 C   0  0  0  0  0  0  0  0  0  0  0  0
    0.3378    2.2431   -7.6805 Cl  0  0  0  0  0  0  0  0  0  0  0  0
    2.8007    1.7880   -6.6790 C   0  0  0  0  0  0  0  0  0  0  0  0
    7.1603    0.9268   -4.8730 C   0  0  0  0  0  0  0  0  0  0  0  0
    6.9709   -0.4258   -4.5144 C   0  0  0  0  0  0  0  0  0  0  0  0
    7.8607   -1.1084   -3.6621 C   0  0  0  0  0  0  0  0  0  0  0  0
    7.4658   -2.3982   -3.4312 O   0  0  0  0  0  0  0  0  0  0  0  0
    8.0480   -3.1297   -2.3634 C   0  0  0  0  0  0  0  0  0  0  0  0
   10.5967   -0.6852   -0.3967 H   0  0  0  0  0  0  0  0  0  0  0  0
    9.9449    0.7631   -1.1508 H   0  0  0  0  0  0  0  0  0  0  0  0
   11.4951    0.0605   -1.7316 H   0  0  0  0  0  0  0  0  0  0  0  0
   10.1414    1.3913   -3.3453 H   0  0  0  0  0  0  0  0  0  0  0  0
    8.1007    4.5413   -5.7537 H   0  0  0  0  0  0  0  0  0  0  0  0
    5.9563    3.6347   -6.6054 H   0  0  0  0  0  0  0  0  0  0  0  0
    4.5638    3.1929   -4.1424 H   0  0  0  0  0  0  0  0  0  0  0  0
    2.6358    4.5786   -4.0255 H   0  0  0  0  0  0  0  0  0  0  0  0
   -0.4305    4.1774   -6.1841 H   0  0  0  0  0  0  0  0  0  0  0  0
   -0.0490    7.1801   -2.3180 H   0  0  0  0  0  0  0  0  0  0  0  0
   -1.6675    7.3224   -1.6752 H   0  0  0  0  0  0  0  0  0  0  0  0
   -0.9347    8.6742   -2.5643 H   0  0  0  0  0  0  0  0  0  0  0  0
   -3.4212    8.6245   -2.4260 H   0  0  0  0  0  0  0  0  0  0  0  0
   -4.7223    7.7348   -3.2237 H   0  0  0  0  0  0  0  0  0  0  0  0
   -4.1425    9.2860   -3.8772 H   0  0  0  0  0  0  0  0  0  0  0  0
   -5.2849    5.2273   -6.1043 H   0  0  0  0  0  0  0  0  0  0  0  0
   -7.2116    5.8678   -7.5130 H   0  0  0  0  0  0  0  0  0  0  0  0
   -7.4160    8.1893   -8.3665 H   0  0  0  0  0  0  0  0  0  0  0  0
   -5.7012    9.8827   -7.7715 H   0  0  0  0  0  0  0  0  0  0  0  0
   -3.7962    9.2673   -6.3223 H   0  0  0  0  0  0  0  0  0  0  0  0
    2.8650    1.0018   -7.4283 H   0  0  0  0  0  0  0  0  0  0  0  0
    6.1017   -0.9624   -4.8904 H   0  0  0  0  0  0  0  0  0  0  0  0
    7.3916   -3.9847   -2.1659 H   0  0  0  0  0  0  0  0  0  0  0  0
    8.0950   -2.5505   -1.4369 H   0  0  0  0  0  0  0  0  0  0  0  0
    9.0269   -3.5276   -2.6481 H   0  0  0  0  0  0  0  0  0  0  0  0
  1  2  1  0  0  0  0
  1 40  1  0  0  0  0
  1 41  1  0  0  0  0
  1 42  1  0  0  0  0
  2  3  1  0  0  0  0
  3  4  1  0  0  0  0
  3 37  2  0  0  0  0
  4  5  2  0  0  0  0
  4 43  1  0  0  0  0
  5  6  1  0  0  0  0
  5 35  1  0  0  0  0
  6  7  2  0  0  0  0
  7  8  1  0  0  0  0
  7 44  1  0  0  0  0
  8  9  2  0  0  0  0
  8 45  1  0  0  0  0
  9 10  1  0  0  0  0
  9 35  1  0  0  0  0
 10 11  1  0  0  0  0
 11 12  1  0  0  0  0
 11 34  2  0  0  0  0
 12 13  2  0  0  0  0
 12 46  1  0  0  0  0
 13 14  1  0  0  0  0
 13 47  1  0  0  0  0
 14 15  1  0  0  0  0
 14 32  2  0  0  0  0
 15 16  1  0  0  0  0
 15 48  1  0  0  0  0
 16 17  2  0  0  0  0
 16 18  1  0  0  0  0
 18 19  2  0  0  0  0
 18 30  1  0  0  0  0
 19 20  1  0  0  0  0
 19 21  1  0  0  0  0
 20 49  1  0  0  0  0
 20 50  1  0  0  0  0
 20 51  1  0  0  0  0
 21 22  1  0  0  0  0
 21 23  1  0  0  0  0
 22 52  1  0  0  0  0
 22 53  1  0  0  0  0
 22 54  1  0  0  0  0
 23 24  1  0  0  0  0
 23 30  1  0  0  0  0
 24 25  1  0  0  0  0
 24 29  2  0  0  0  0
 25 26  2  0  0  0  0
 25 55  1  0  0  0  0
 26 27  1  0  0  0  0
 26 56  1  0  0  0  0
 27 28  2  0  0  0  0
 27 57  1  0  0  0  0
 28 29  1  0  0  0  0
 28 58  1  0  0  0  0
 29 59  1  0  0  0  0
 30 31  2  0  0  0  0
 32 33  1  0  0  0  0
 32 34  1  0  0  0  0
 34 60  1  0  0  0  0
 35 36  2  0  0  0  0
 36 37  1  0  0  0  0
 36 61  1  0  0  0  0
 37 38  1  0  0  0  0
 38 39  1  0  0  0  0
 39 62  1  0  0  0  0
 39 63  1  0  0  0  0
 39 64  1  0  0  0  0
M  END
$$$$
