CHEMBL3898255
 OpenBabel04072215373D

 62 65  0  0  0  0  0  0  0  0999 V2000
    0.5962    3.6581    1.8004 C   0  0  0  0  0  0  0  0  0  0  0  0
    1.9486    4.0540    1.6137 O   0  0  0  0  0  0  0  0  0  0  0  0
    2.7982    3.0267    1.3309 C   0  0  0  0  0  0  0  0  0  0  0  0
    2.4705    1.7259    1.2219 C   0  0  0  0  0  0  0  0  0  0  0  0
    3.3799    0.7789    0.7687 C   0  0  0  0  0  0  0  0  0  0  0  0
    3.0419   -0.5309    0.5887 O   0  0  0  0  0  0  0  0  0  0  0  0
    1.6839   -0.8387    0.9022 C   0  0  0  0  0  0  0  0  0  0  0  0
    4.6771    1.1518    0.4290 C   0  0  0  0  0  0  0  0  0  0  0  0
    5.0638    2.4841    0.4372 C   0  0  0  0  0  0  0  0  0  0  0  0
    6.3589    2.8609   -0.0747 N   0  0  0  0  0  0  0  0  0  0  0  0
    6.9758    2.0475   -1.1663 C   0  0  0  0  0  0  0  0  0  0  0  0
    6.1613    1.9895   -2.4313 C   0  0  0  0  0  0  0  0  0  0  0  0
    6.6712    1.2136   -3.5792 C   0  0  0  0  0  0  0  0  0  0  0  0
    7.9277    1.7408   -3.9940 O   0  0  0  0  0  0  0  0  0  0  0  0
    7.3536    3.6180    0.6809 C   0  0  0  0  0  0  0  0  0  0  0  0
    8.1664    4.4022   -0.0980 C   0  0  0  0  0  0  0  0  0  0  0  0
    9.0899    5.1575    0.5047 C   0  0  0  0  0  0  0  0  0  0  0  0
    9.3014    5.1887    1.8520 C   0  0  0  0  0  0  0  0  0  0  0  0
   10.5626    5.2792    1.8385 N   0  0  0  0  0  0  0  0  0  0  0  0
   11.0002    6.4681    1.7450 C   0  0  0  0  0  0  0  0  0  0  0  0
   11.2960    6.6933    2.9626 C   0  0  0  0  0  0  0  0  0  0  0  0
   12.8492    7.6374    2.4944 C   0  0  0  0  0  0  0  0  0  0  0  0
   13.8799    8.3065    3.5939 C   0  0  0  0  0  0  0  0  0  0  0  0
   14.0345    7.9893    5.0416 C   0  0  0  0  0  0  0  0  0  0  0  0
   14.8173    9.2118    3.2386 N   0  0  0  0  0  0  0  0  0  0  0  0
   14.6871    9.3991    1.9411 N   0  0  0  0  0  0  0  0  0  0  0  0
   15.6623   10.3764    1.2702 C   0  0  0  0  0  0  0  0  0  0  0  0
   13.5595    8.5482    1.4344 C   0  0  0  0  0  0  0  0  0  0  0  0
   13.4708    8.7265   -0.0370 C   0  0  0  0  0  0  0  0  0  0  0  0
   10.0319    5.8286    3.7735 N   0  0  0  0  0  0  0  0  0  0  0  0
    8.8334    4.7518    2.9844 C   0  0  0  0  0  0  0  0  0  0  0  0
    7.6206    3.6691    2.1529 C   0  0  0  0  0  0  0  0  0  0  0  0
    4.0976    3.3269    1.0395 C   0  0  0  0  0  0  0  0  0  0  0  0
   -0.0221    4.5537    1.9033 H   0  0  0  0  0  0  0  0  0  0  0  0
    0.5214    3.0748    2.7207 H   0  0  0  0  0  0  0  0  0  0  0  0
    0.1917    3.0904    0.9581 H   0  0  0  0  0  0  0  0  0  0  0  0
    1.4831    1.4600    1.5146 H   0  0  0  0  0  0  0  0  0  0  0  0
    1.5290   -1.9000    0.7190 H   0  0  0  0  0  0  0  0  0  0  0  0
    0.9807   -0.2796    0.2687 H   0  0  0  0  0  0  0  0  0  0  0  0
    1.4752   -0.6432    1.9616 H   0  0  0  0  0  0  0  0  0  0  0  0
    5.3967    0.3910    0.1531 H   0  0  0  0  0  0  0  0  0  0  0  0
    7.1856    1.0072   -0.8843 H   0  0  0  0  0  0  0  0  0  0  0  0
    7.9030    2.5550   -1.4179 H   0  0  0  0  0  0  0  0  0  0  0  0
    6.1597    3.0242   -2.8152 H   0  0  0  0  0  0  0  0  0  0  0  0
    5.1808    1.5291   -2.1941 H   0  0  0  0  0  0  0  0  0  0  0  0
    5.9457    1.2863   -4.3821 H   0  0  0  0  0  0  0  0  0  0  0  0
    6.8119    0.1959   -3.2272 H   0  0  0  0  0  0  0  0  0  0  0  0
    7.8130    2.6679   -4.2739 H   0  0  0  0  0  0  0  0  0  0  0  0
    8.2036    4.4508   -1.1738 H   0  0  0  0  0  0  0  0  0  0  0  0
    9.7725    5.7712   -0.0826 H   0  0  0  0  0  0  0  0  0  0  0  0
   11.4469    6.7035    0.7885 H   0  0  0  0  0  0  0  0  0  0  0  0
   13.2657    7.2768    5.2751 H   0  0  0  0  0  0  0  0  0  0  0  0
   13.9505    8.8744    5.6919 H   0  0  0  0  0  0  0  0  0  0  0  0
   15.0203    7.5430    5.2453 H   0  0  0  0  0  0  0  0  0  0  0  0
   16.3804   10.8697    1.9736 H   0  0  0  0  0  0  0  0  0  0  0  0
   15.1244   11.1995    0.7745 H   0  0  0  0  0  0  0  0  0  0  0  0
   16.2898    9.8662    0.5211 H   0  0  0  0  0  0  0  0  0  0  0  0
   14.2048    9.4240   -0.5097 H   0  0  0  0  0  0  0  0  0  0  0  0
   12.4892    9.1217   -0.2379 H   0  0  0  0  0  0  0  0  0  0  0  0
   13.6705    7.7517   -0.4664 H   0  0  0  0  0  0  0  0  0  0  0  0
    7.0855    2.8022    2.6335 H   0  0  0  0  0  0  0  0  0  0  0  0
    4.2182    4.3182    1.4102 H   0  0  0  0  0  0  0  0  0  0  0  0
  1  2  1  0  0  0  0
  1 34  1  0  0  0  0
  1 35  1  0  0  0  0
  1 36  1  0  0  0  0
  2  3  1  0  0  0  0
  3  4  1  0  0  0  0
  3 33  2  0  0  0  0
  4  5  2  0  0  0  0
  4 37  1  0  0  0  0
  5  6  1  0  0  0  0
  5  8  1  0  0  0  0
  6  7  1  0  0  0  0
  7 38  1  0  0  0  0
  7 39  1  0  0  0  0
  7 40  1  0  0  0  0
  8  9  2  0  0  0  0
  8 41  1  0  0  0  0
  9 10  1  0  0  0  0
  9 33  1  0  0  0  0
 10 11  1  0  0  0  0
 10 15  1  0  0  0  0
 11 12  1  0  0  0  0
 11 42  1  0  0  0  0
 11 43  1  0  0  0  0
 12 13  1  0  0  0  0
 12 44  1  0  0  0  0
 12 45  1  0  0  0  0
 13 14  1  0  0  0  0
 13 46  1  0  0  0  0
 13 47  1  0  0  0  0
 14 48  1  0  0  0  0
 15 16  1  0  0  0  0
 15 32  2  0  0  0  0
 16 17  2  0  0  0  0
 16 49  1  0  0  0  0
 17 18  1  0  0  0  0
 17 50  1  0  0  0  0
 18 19  1  0  0  0  0
 18 31  2  0  0  0  0
 19 20  2  0  0  0  0
 20 21  1  0  0  0  0
 20 51  1  0  0  0  0
 21 22  1  0  0  0  0
 21 30  2  0  0  0  0
 22 23  1  0  0  0  0
 22 28  2  0  0  0  0
 23 24  1  0  0  0  0
 23 25  2  0  0  0  0
 24 52  1  0  0  0  0
 24 53  1  0  0  0  0
 24 54  1  0  0  0  0
 25 26  1  0  0  0  0
 26 27  1  0  0  0  0
 26 28  1  0  0  0  0
 27 55  1  0  0  0  0
 27 56  1  0  0  0  0
 27 57  1  0  0  0  0
 28 29  1  0  0  0  0
 29 58  1  0  0  0  0
 29 59  1  0  0  0  0
 29 60  1  0  0  0  0
 30 31  1  0  0  0  0
 31 32  1  0  0  0  0
 32 61  1  0  0  0  0
 33 62  1  0  0  0  0
M  END
$$$$
