CHEMBL3933908
 OpenBabel04072215373D

 62 66  0  0  0  0  0  0  0  0999 V2000
    0.6113   -4.4183    1.0866 C   0  0  0  0  0  0  0  0  0  0  0  0
    2.0164   -4.6651    1.2093 O   0  0  0  0  0  0  0  0  0  0  0  0
    2.8570   -3.6896    0.7236 C   0  0  0  0  0  0  0  0  0  0  0  0
    2.4483   -2.6771   -0.1405 C   0  0  0  0  0  0  0  0  0  0  0  0
    3.3536   -1.6990   -0.5325 C   0  0  0  0  0  0  0  0  0  0  0  0
    3.0665   -0.6591   -1.3856 O   0  0  0  0  0  0  0  0  0  0  0  0
    1.7656   -0.6531   -1.9693 C   0  0  0  0  0  0  0  0  0  0  0  0
    4.6701   -1.7023   -0.0249 C   0  0  0  0  0  0  0  0  0  0  0  0
    5.1242   -2.7094    0.8375 C   0  0  0  0  0  0  0  0  0  0  0  0
    6.3853   -2.6603    1.4887 N   0  0  0  0  0  0  0  0  0  0  0  0
    6.8480   -1.3243    2.0639 C   0  0  0  0  0  0  0  0  0  0  0  0
    5.8921   -0.4821    2.8930 C   0  0  0  0  0  0  0  0  0  0  0  0
    5.0721    0.2402    3.6043 C   0  0  0  0  0  0  0  0  0  0  0  0
    4.2181    1.0351    4.4326 C   0  0  0  0  0  0  0  0  0  0  0  0
    3.3841    0.3745    5.2453 N   0  0  0  0  0  0  0  0  0  0  0  0
    2.6326    1.1440    6.0453 C   0  0  0  0  0  0  0  0  0  0  0  0
    2.6911    2.5220    6.0573 C   0  0  0  0  0  0  0  0  0  0  0  0
    3.5934    3.1016    5.1841 C   0  0  0  0  0  0  0  0  0  0  0  0
    3.7314    4.5924    5.1087 C   0  0  0  0  0  0  0  0  0  0  0  0
    4.3739    2.3745    4.3624 N   0  0  0  0  0  0  0  0  0  0  0  0
    7.5681   -3.4677    1.2511 C   0  0  0  0  0  0  0  0  0  0  0  0
    8.2707   -3.8005    2.4074 C   0  0  0  0  0  0  0  0  0  0  0  0
    9.6276   -4.0197    2.3556 C   0  0  0  0  0  0  0  0  0  0  0  0
   10.3091   -4.0933    1.1701 C   0  0  0  0  0  0  0  0  0  0  0  0
   11.6336   -4.1106    1.3069 N   0  0  0  0  0  0  0  0  0  0  0  0
   12.3537   -4.3655    0.2095 C   0  0  0  0  0  0  0  0  0  0  0  0
   11.7592   -4.7080   -0.9850 C   0  0  0  0  0  0  0  0  0  0  0  0
   12.6289   -5.3753   -1.9545 C   0  0  0  0  0  0  0  0  0  0  0  0
   12.8416   -6.7666   -2.1602 C   0  0  0  0  0  0  0  0  0  0  0  0
   13.8844   -7.0268   -2.9598 N   0  0  0  0  0  0  0  0  0  0  0  0
   14.3511   -5.8057   -3.2677 N   0  0  0  0  0  0  0  0  0  0  0  0
   15.2814   -5.6333   -4.3600 C   0  0  0  0  0  0  0  0  0  0  0  0
   13.7515   -4.8094   -2.5424 C   0  0  0  0  0  0  0  0  0  0  0  0
   10.3936   -4.5694   -1.1629 N   0  0  0  0  0  0  0  0  0  0  0  0
    9.6245   -4.1665   -0.0608 C   0  0  0  0  0  0  0  0  0  0  0  0
    8.2121   -3.7782    0.0112 C   0  0  0  0  0  0  0  0  0  0  0  0
    4.2002   -3.7290    1.1615 C   0  0  0  0  0  0  0  0  0  0  0  0
    0.0733   -5.1544    1.6955 H   0  0  0  0  0  0  0  0  0  0  0  0
    0.2786   -4.5459    0.0500 H   0  0  0  0  0  0  0  0  0  0  0  0
    0.3350   -3.4253    1.4620 H   0  0  0  0  0  0  0  0  0  0  0  0
    1.4268   -2.6497   -0.4978 H   0  0  0  0  0  0  0  0  0  0  0  0
    1.7311    0.1517   -2.7087 H   0  0  0  0  0  0  0  0  0  0  0  0
    0.9995   -0.4475   -1.2134 H   0  0  0  0  0  0  0  0  0  0  0  0
    1.5539   -1.5906   -2.4962 H   0  0  0  0  0  0  0  0  0  0  0  0
    5.3378   -0.8983   -0.3212 H   0  0  0  0  0  0  0  0  0  0  0  0
    7.1843   -0.7026    1.2221 H   0  0  0  0  0  0  0  0  0  0  0  0
    7.7303   -1.4463    2.7040 H   0  0  0  0  0  0  0  0  0  0  0  0
    1.9592    0.6089    6.7032 H   0  0  0  0  0  0  0  0  0  0  0  0
    2.0741    3.1057    6.7258 H   0  0  0  0  0  0  0  0  0  0  0  0
    3.2078    5.0887    5.9320 H   0  0  0  0  0  0  0  0  0  0  0  0
    3.3112    4.9523    4.1658 H   0  0  0  0  0  0  0  0  0  0  0  0
    4.7865    4.8792    5.1610 H   0  0  0  0  0  0  0  0  0  0  0  0
    7.7774   -3.7169    3.3770 H   0  0  0  0  0  0  0  0  0  0  0  0
   10.1889   -4.0980    3.2800 H   0  0  0  0  0  0  0  0  0  0  0  0
   13.4296   -4.3591    0.3454 H   0  0  0  0  0  0  0  0  0  0  0  0
   12.3067   -7.6049   -1.7320 H   0  0  0  0  0  0  0  0  0  0  0  0
   15.4549   -6.5926   -4.8565 H   0  0  0  0  0  0  0  0  0  0  0  0
   16.2220   -5.2258   -3.9831 H   0  0  0  0  0  0  0  0  0  0  0  0
   14.8218   -4.9396   -5.0697 H   0  0  0  0  0  0  0  0  0  0  0  0
   14.1521   -3.8053   -2.5433 H   0  0  0  0  0  0  0  0  0  0  0  0
    7.6683   -3.6651   -0.9245 H   0  0  0  0  0  0  0  0  0  0  0  0
    4.5031   -4.5348    1.8275 H   0  0  0  0  0  0  0  0  0  0  0  0
  1  2  1  0  0  0  0
  1 38  1  0  0  0  0
  1 39  1  0  0  0  0
  1 40  1  0  0  0  0
  2  3  1  0  0  0  0
  3  4  1  0  0  0  0
  3 37  2  0  0  0  0
  4  5  2  0  0  0  0
  4 41  1  0  0  0  0
  5  6  1  0  0  0  0
  5  8  1  0  0  0  0
  6  7  1  0  0  0  0
  7 42  1  0  0  0  0
  7 43  1  0  0  0  0
  7 44  1  0  0  0  0
  8  9  2  0  0  0  0
  8 45  1  0  0  0  0
  9 10  1  0  0  0  0
  9 37  1  0  0  0  0
 10 11  1  0  0  0  0
 10 21  1  0  0  0  0
 11 12  1  0  0  0  0
 11 46  1  0  0  0  0
 11 47  1  0  0  0  0
 12 13  3  0  0  0  0
 13 14  1  0  0  0  0
 14 15  1  0  0  0  0
 14 20  2  0  0  0  0
 15 16  2  0  0  0  0
 16 17  1  0  0  0  0
 16 48  1  0  0  0  0
 17 18  2  0  0  0  0
 17 49  1  0  0  0  0
 18 19  1  0  0  0  0
 18 20  1  0  0  0  0
 19 50  1  0  0  0  0
 19 51  1  0  0  0  0
 19 52  1  0  0  0  0
 21 22  1  0  0  0  0
 21 36  2  0  0  0  0
 22 23  2  0  0  0  0
 22 53  1  0  0  0  0
 23 24  1  0  0  0  0
 23 54  1  0  0  0  0
 24 25  1  0  0  0  0
 24 35  2  0  0  0  0
 25 26  2  0  0  0  0
 26 27  1  0  0  0  0
 26 55  1  0  0  0  0
 27 28  1  0  0  0  0
 27 34  2  0  0  0  0
 28 29  1  0  0  0  0
 28 33  2  0  0  0  0
 29 30  2  0  0  0  0
 29 56  1  0  0  0  0
 30 31  1  0  0  0  0
 31 32  1  0  0  0  0
 31 33  1  0  0  0  0
 32 57  1  0  0  0  0
 32 58  1  0  0  0  0
 32 59  1  0  0  0  0
 33 60  1  0  0  0  0
 34 35  1  0  0  0  0
 35 36  1  0  0  0  0
 36 61  1  0  0  0  0
 37 62  1  0  0  0  0
M  END
$$$$
