CHEMBL3921476
 OpenBabel04072215373D

 73 76  0  0  1  0  0  0  0  0999 V2000
    1.8328   -0.2111    5.8495 C   0  0  0  0  0  0  0  0  0  0  0  0
    1.9763   -0.8690    4.6486 O   0  0  0  0  0  0  0  0  0  0  0  0
    2.9486   -0.7169    3.7180 C   0  0  0  0  0  0  0  0  0  0  0  0
    2.6430   -1.1741    2.4336 C   0  0  0  0  0  0  0  0  0  0  0  0
    3.5595   -1.0730    1.3962 C   0  0  0  0  0  0  0  0  0  0  0  0
    3.1808   -1.5174    0.1669 O   0  0  0  0  0  0  0  0  0  0  0  0
    3.9200   -1.4225   -0.9960 C   0  0  0  0  0  0  0  0  0  0  0  0
    4.8161   -0.4980    1.6517 C   0  0  0  0  0  0  0  0  0  0  0  0
    5.1762   -0.0005    2.9305 C   0  0  0  0  0  0  0  0  0  0  0  0
    6.4260    0.7201    3.0944 N   0  0  0  0  0  0  0  0  0  0  0  0
    6.8971    1.6090    1.9533 C   0  0  0  0  0  0  0  0  0  0  0  0
    5.9253    2.3281    0.9521 C   0  0  0  0  0  0  0  0  0  0  0  0
    4.8631    3.3704    1.4265 C   0  0  0  0  0  0  0  0  0  0  0  0
    5.3133    4.6952    1.9946 N   0  0  0  0  0  0  0  0  0  0  0  0
    4.1027    5.5162    2.2378 C   0  0  0  0  0  0  0  0  0  0  0  0
    3.8112    6.2374    0.9209 C   0  0  0  0  0  0  0  0  0  0  0  0
    5.1866    6.7249    0.5814 C   0  0  0  0  0  0  0  0  0  0  0  0
    6.0924    5.5629    1.0525 C   0  0  1  0  0  0  0  0  0  0  0  0
    7.3869    6.1284    1.7075 C   0  0  0  0  0  0  0  0  0  0  0  0
    7.1945    7.0817    2.8756 C   0  0  0  0  0  0  0  0  0  0  0  0
    7.0350    7.8726    3.8446 N   0  0  0  0  0  0  0  0  0  0  0  0
    7.3614    0.6718    4.2473 C   0  0  0  0  0  0  0  0  0  0  0  0
    7.8119    1.9449    4.5854 C   0  0  0  0  0  0  0  0  0  0  0  0
    8.9127    2.1618    5.3074 C   0  0  0  0  0  0  0  0  0  0  0  0
    9.5917    1.1385    5.8639 C   0  0  0  0  0  0  0  0  0  0  0  0
   10.7499    1.5233    6.4080 N   0  0  0  0  0  0  0  0  0  0  0  0
   11.5092    0.7044    7.0942 C   0  0  0  0  0  0  0  0  0  0  0  0
   11.0728   -0.5754    7.4279 C   0  0  0  0  0  0  0  0  0  0  0  0
   11.8705   -1.1120    8.6665 C   0  0  0  0  0  0  0  0  0  0  0  0
   12.6589   -0.2162    9.4406 C   0  0  0  0  0  0  0  0  0  0  0  0
   13.1743   -0.8008   10.5059 N   0  0  0  0  0  0  0  0  0  0  0  0
   12.7812   -2.0526   10.5106 N   0  0  0  0  0  0  0  0  0  0  0  0
   13.1680   -2.8962   11.6401 C   0  0  0  0  0  0  0  0  0  0  0  0
   11.9940   -2.3102    9.4133 C   0  0  0  0  0  0  0  0  0  0  0  0
    9.9236   -1.0722    6.7348 N   0  0  0  0  0  0  0  0  0  0  0  0
    9.1628   -0.2038    5.8833 C   0  0  0  0  0  0  0  0  0  0  0  0
    8.0018   -0.4744    4.9826 C   0  0  0  0  0  0  0  0  0  0  0  0
    4.2238   -0.1254    3.9716 C   0  0  0  0  0  0  0  0  0  0  0  0
    1.3228    2.0690    2.0028 Cl  0  0  0  0  0  0  0  0  0  0  0  0
    1.0590   -0.7435    6.4433 H   0  0  0  0  0  0  0  0  0  0  0  0
    1.4691    0.8242    5.6749 H   0  0  0  0  0  0  0  0  0  0  0  0
    2.7758   -0.2145    6.4273 H   0  0  0  0  0  0  0  0  0  0  0  0
    1.6664   -1.6043    2.2353 H   0  0  0  0  0  0  0  0  0  0  0  0
    3.3513   -1.8876   -1.8294 H   0  0  0  0  0  0  0  0  0  0  0  0
    4.8818   -1.9631   -0.8824 H   0  0  0  0  0  0  0  0  0  0  0  0
    4.1044   -0.3562   -1.2505 H   0  0  0  0  0  0  0  0  0  0  0  0
    5.5269   -0.4362    0.8412 H   0  0  0  0  0  0  0  0  0  0  0  0
    7.6546    1.0386    1.3785 H   0  0  0  0  0  0  0  0  0  0  0  0
    7.4738    2.4833    2.2769 H   0  0  0  0  0  0  0  0  0  0  0  0
    5.3819    1.5880    0.3467 H   0  0  0  0  0  0  0  0  0  0  0  0
    6.5729    2.8305    0.2043 H   0  0  0  0  0  0  0  0  0  0  0  0
    4.2005    2.8568    2.1544 H   0  0  0  0  0  0  0  0  0  0  0  0
    4.2523    3.5584    0.5174 H   0  0  0  0  0  0  0  0  0  0  0  0
    4.3435    6.2770    3.0157 H   0  0  0  0  0  0  0  0  0  0  0  0
    3.2269    4.9387    2.6052 H   0  0  0  0  0  0  0  0  0  0  0  0
    3.0569    7.0520    0.9856 H   0  0  0  0  0  0  0  0  0  0  0  0
    3.4744    5.5181    0.1483 H   0  0  0  0  0  0  0  0  0  0  0  0
    5.3404    7.6211    1.2202 H   0  0  0  0  0  0  0  0  0  0  0  0
    5.3424    7.0460   -0.4728 H   0  0  0  0  0  0  0  0  0  0  0  0
    6.3730    4.9783    0.1526 H   0  0  0  0  0  0  0  0  0  0  0  0
    7.9669    6.6744    0.9334 H   0  0  0  0  0  0  0  0  0  0  0  0
    8.0066    5.2730    2.0503 H   0  0  0  0  0  0  0  0  0  0  0  0
    7.3554    2.8387    4.2118 H   0  0  0  0  0  0  0  0  0  0  0  0
    9.2719    3.1694    5.4198 H   0  0  0  0  0  0  0  0  0  0  0  0
   12.4118    1.1587    7.4377 H   0  0  0  0  0  0  0  0  0  0  0  0
   12.8360    0.8387    9.3280 H   0  0  0  0  0  0  0  0  0  0  0  0
   13.7552   -2.2854   12.3793 H   0  0  0  0  0  0  0  0  0  0  0  0
   13.8171   -3.7323   11.3207 H   0  0  0  0  0  0  0  0  0  0  0  0
   12.2667   -3.2497   12.1751 H   0  0  0  0  0  0  0  0  0  0  0  0
   11.5373   -3.2705    9.2232 H   0  0  0  0  0  0  0  0  0  0  0  0
    7.6781   -1.4938    4.8076 H   0  0  0  0  0  0  0  0  0  0  0  0
    4.4578    0.2675    4.9486 H   0  0  0  0  0  0  0  0  0  0  0  0
    2.0289    1.5268    0.9535 H   0  0  0  0  0  0  0  0  0  0  0  0
  1  2  1  0  0  0  0
  1 40  1  0  0  0  0
  1 41  1  0  0  0  0
  1 42  1  0  0  0  0
  2  3  1  0  0  0  0
  3  4  1  0  0  0  0
  3 38  2  0  0  0  0
  4  5  2  0  0  0  0
  4 43  1  0  0  0  0
  5  6  1  0  0  0  0
  5  8  1  0  0  0  0
  6  7  1  0  0  0  0
  7 44  1  0  0  0  0
  7 45  1  0  0  0  0
  7 46  1  0  0  0  0
  8  9  2  0  0  0  0
  8 47  1  0  0  0  0
  9 10  1  0  0  0  0
  9 38  1  0  0  0  0
 10 11  1  0  0  0  0
 10 22  1  0  0  0  0
 11 12  1  0  0  0  0
 11 48  1  0  0  0  0
 11 49  1  0  0  0  0
 12 13  1  0  0  0  0
 12 50  1  0  0  0  0
 12 51  1  0  0  0  0
 13 14  1  0  0  0  0
 13 52  1  0  0  0  0
 13 53  1  0  0  0  0
 14 15  1  0  0  0  0
 14 18  1  0  0  0  0
 15 16  1  0  0  0  0
 15 54  1  0  0  0  0
 15 55  1  0  0  0  0
 16 17  1  0  0  0  0
 16 56  1  0  0  0  0
 16 57  1  0  0  0  0
 17 18  1  0  0  0  0
 17 58  1  0  0  0  0
 17 59  1  0  0  0  0
 18 19  1  0  0  0  0
 18 60  1  6  0  0  0
 19 20  1  0  0  0  0
 19 61  1  0  0  0  0
 19 62  1  0  0  0  0
 20 21  3  0  0  0  0
 22 23  1  0  0  0  0
 22 37  2  0  0  0  0
 23 24  2  0  0  0  0
 23 63  1  0  0  0  0
 24 25  1  0  0  0  0
 24 64  1  0  0  0  0
 25 26  1  0  0  0  0
 25 36  2  0  0  0  0
 26 27  2  0  0  0  0
 27 28  1  0  0  0  0
 27 65  1  0  0  0  0
 28 29  1  0  0  0  0
 28 35  2  0  0  0  0
 29 30  1  0  0  0  0
 29 34  2  0  0  0  0
 30 31  2  0  0  0  0
 30 66  1  0  0  0  0
 31 32  1  0  0  0  0
 32 33  1  0  0  0  0
 32 34  1  0  0  0  0
 33 67  1  0  0  0  0
 33 68  1  0  0  0  0
 33 69  1  0  0  0  0
 34 70  1  0  0  0  0
 35 36  1  0  0  0  0
 36 37  1  0  0  0  0
 37 71  1  0  0  0  0
 38 72  1  0  0  0  0
 39 73  1  0  0  0  0
M  END
$$$$
