CHEMBL3904441
 OpenBabel04072215373D

 75 79  0  0  0  0  0  0  0  0999 V2000
    5.3581   -0.3653   -3.5895 C   0  0  0  0  0  0  0  0  0  0  0  0
    5.2395   -0.9010   -2.3109 O   0  0  0  0  0  0  0  0  0  0  0  0
    5.5784   -0.3212   -1.1167 C   0  0  0  0  0  0  0  0  0  0  0  0
    5.9491    1.0195   -1.0027 C   0  0  0  0  0  0  0  0  0  0  0  0
    6.4046    1.5289    0.2319 C   0  0  0  0  0  0  0  0  0  0  0  0
    6.7070    2.8494    0.3898 O   0  0  0  0  0  0  0  0  0  0  0  0
    6.5989    3.8246   -0.5812 C   0  0  0  0  0  0  0  0  0  0  0  0
    6.6055    0.6492    1.3232 C   0  0  0  0  0  0  0  0  0  0  0  0
    6.3130   -0.7318    1.2264 C   0  0  0  0  0  0  0  0  0  0  0  0
    6.8308   -1.6744    2.2609 N   0  0  0  0  0  0  0  0  0  0  0  0
    6.4751   -1.3558    3.6503 C   0  0  0  0  0  0  0  0  0  0  0  0
    7.6164   -0.8878    4.4941 C   0  0  0  0  0  0  0  0  0  0  0  0
    8.9276   -0.7132    4.0938 C   0  0  0  0  0  0  0  0  0  0  0  0
    9.7596   -0.2634    5.1238 C   0  0  0  0  0  0  0  0  0  0  0  0
    9.0935   -0.0797    6.3251 C   0  0  0  0  0  0  0  0  0  0  0  0
    9.8252    0.4492    7.8269 Cl  0  0  0  0  0  0  0  0  0  0  0  0
    7.4697   -0.4578    6.1179 S   0  0  0  0  0  0  0  0  0  0  0  0
    7.6614   -2.8706    1.8207 C   0  0  0  0  0  0  0  0  0  0  0  0
    7.7397   -3.0157    0.4433 C   0  0  0  0  0  0  0  0  0  0  0  0
    8.2301   -4.0505   -0.2159 C   0  0  0  0  0  0  0  0  0  0  0  0
    8.8707   -5.0185    0.4114 C   0  0  0  0  0  0  0  0  0  0  0  0
    9.2901   -5.9462   -0.4325 N   0  0  0  0  0  0  0  0  0  0  0  0
   10.1070   -6.8909   -0.0723 C   0  0  0  0  0  0  0  0  0  0  0  0
   10.6282   -6.9293    1.1985 C   0  0  0  0  0  0  0  0  0  0  0  0
   11.7803   -7.9573    1.2174 C   0  0  0  0  0  0  0  0  0  0  0  0
   12.3959   -8.7294    2.1919 C   0  0  0  0  0  0  0  0  0  0  0  0
   13.3559   -9.5100    1.6248 N   0  0  0  0  0  0  0  0  0  0  0  0
   13.4275   -9.2514    0.3245 N   0  0  0  0  0  0  0  0  0  0  0  0
   14.4032   -9.8276   -0.6543 C   0  0  0  0  0  0  0  0  0  0  0  0
   15.1524  -11.0081   -0.0256 C   0  0  0  0  0  0  0  0  0  0  0  0
   16.3501  -11.5357   -0.7491 N   0  0  0  0  0  0  0  0  0  0  0  0
   16.8620  -12.7348   -0.0423 C   0  0  0  0  0  0  0  0  0  0  0  0
   17.4248  -12.3735    1.3604 C   0  0  0  0  0  0  0  0  0  0  0  0
   18.4941  -11.3701    1.2517 N   0  0  0  0  0  0  0  0  0  0  0  0
   18.0620  -10.1825    0.4916 C   0  0  0  0  0  0  0  0  0  0  0  0
   17.4764  -10.5806   -0.8785 C   0  0  0  0  0  0  0  0  0  0  0  0
   12.5061   -8.3236    0.0360 C   0  0  0  0  0  0  0  0  0  0  0  0
   10.0774   -6.0349    2.1862 N   0  0  0  0  0  0  0  0  0  0  0  0
    9.1472   -5.0230    1.7818 C   0  0  0  0  0  0  0  0  0  0  0  0
    8.4351   -3.9244    2.5636 C   0  0  0  0  0  0  0  0  0  0  0  0
    5.6534   -1.1469    0.0230 C   0  0  0  0  0  0  0  0  0  0  0  0
   -0.1282   -2.1355    0.4334 Cl  0  0  0  0  0  0  0  0  0  0  0  0
    5.2981   -1.1911   -4.3363 H   0  0  0  0  0  0  0  0  0  0  0  0
    6.3479    0.1213   -3.7524 H   0  0  0  0  0  0  0  0  0  0  0  0
    4.5350    0.3441   -3.8024 H   0  0  0  0  0  0  0  0  0  0  0  0
    5.8969    1.6582   -1.8798 H   0  0  0  0  0  0  0  0  0  0  0  0
    6.8275    4.8123   -0.1357 H   0  0  0  0  0  0  0  0  0  0  0  0
    5.5562    3.8555   -0.9705 H   0  0  0  0  0  0  0  0  0  0  0  0
    7.3052    3.6337   -1.4170 H   0  0  0  0  0  0  0  0  0  0  0  0
    7.0585    1.0442    2.2224 H   0  0  0  0  0  0  0  0  0  0  0  0
    5.9629   -2.2171    4.1267 H   0  0  0  0  0  0  0  0  0  0  0  0
    5.7330   -0.5181    3.6704 H   0  0  0  0  0  0  0  0  0  0  0  0
    9.2750   -0.8976    3.0891 H   0  0  0  0  0  0  0  0  0  0  0  0
   10.8187   -0.0832    4.9949 H   0  0  0  0  0  0  0  0  0  0  0  0
    7.4329   -2.3580   -0.2868 H   0  0  0  0  0  0  0  0  0  0  0  0
    8.1336   -4.0762   -1.2884 H   0  0  0  0  0  0  0  0  0  0  0  0
   10.3633   -7.5654   -0.8632 H   0  0  0  0  0  0  0  0  0  0  0  0
   12.1586   -8.7661    3.2359 H   0  0  0  0  0  0  0  0  0  0  0  0
   15.0896   -9.0133   -0.9589 H   0  0  0  0  0  0  0  0  0  0  0  0
   13.8880  -10.1858   -1.5854 H   0  0  0  0  0  0  0  0  0  0  0  0
   14.4083  -11.8296    0.0735 H   0  0  0  0  0  0  0  0  0  0  0  0
   15.4393  -10.6712    0.9719 H   0  0  0  0  0  0  0  0  0  0  0  0
   17.6858  -13.2007   -0.6307 H   0  0  0  0  0  0  0  0  0  0  0  0
   16.0689  -13.5048    0.0542 H   0  0  0  0  0  0  0  0  0  0  0  0
   17.8194  -13.2846    1.8545 H   0  0  0  0  0  0  0  0  0  0  0  0
   16.6304  -12.0025    2.0395 H   0  0  0  0  0  0  0  0  0  0  0  0
   19.3151  -11.8052    0.7718 H   0  0  0  0  0  0  0  0  0  0  0  0
   18.9339   -9.5114    0.3409 H   0  0  0  0  0  0  0  0  0  0  0  0
   17.3194   -9.6048    1.0774 H   0  0  0  0  0  0  0  0  0  0  0  0
   18.2940  -11.0582   -1.4718 H   0  0  0  0  0  0  0  0  0  0  0  0
   17.1778   -9.6815   -1.4589 H   0  0  0  0  0  0  0  0  0  0  0  0
   12.3828   -7.9408   -0.9660 H   0  0  0  0  0  0  0  0  0  0  0  0
    8.5435   -3.8704    3.6537 H   0  0  0  0  0  0  0  0  0  0  0  0
    5.3590   -2.1823   -0.1141 H   0  0  0  0  0  0  0  0  0  0  0  0
    0.3240   -1.7590   -0.8101 H   0  0  0  0  0  0  0  0  0  0  0  0
  1  2  1  0  0  0  0
  1 43  1  0  0  0  0
  1 44  1  0  0  0  0
  1 45  1  0  0  0  0
  2  3  1  0  0  0  0
  3  4  1  0  0  0  0
  3 41  2  0  0  0  0
  4  5  2  0  0  0  0
  4 46  1  0  0  0  0
  5  6  1  0  0  0  0
  5  8  1  0  0  0  0
  6  7  1  0  0  0  0
  7 47  1  0  0  0  0
  7 48  1  0  0  0  0
  7 49  1  0  0  0  0
  8  9  2  0  0  0  0
  8 50  1  0  0  0  0
  9 10  1  0  0  0  0
  9 41  1  0  0  0  0
 10 11  1  0  0  0  0
 10 18  1  0  0  0  0
 11 12  1  0  0  0  0
 11 51  1  0  0  0  0
 11 52  1  0  0  0  0
 12 13  2  0  0  0  0
 12 17  1  0  0  0  0
 13 14  1  0  0  0  0
 13 53  1  0  0  0  0
 14 15  2  0  0  0  0
 14 54  1  0  0  0  0
 15 16  1  0  0  0  0
 15 17  1  0  0  0  0
 18 19  1  0  0  0  0
 18 40  2  0  0  0  0
 19 20  2  0  0  0  0
 19 55  1  0  0  0  0
 20 21  1  0  0  0  0
 20 56  1  0  0  0  0
 21 22  1  0  0  0  0
 21 39  2  0  0  0  0
 22 23  2  0  0  0  0
 23 24  1  0  0  0  0
 23 57  1  0  0  0  0
 24 25  1  0  0  0  0
 24 38  2  0  0  0  0
 25 26  1  0  0  0  0
 25 37  2  0  0  0  0
 26 27  2  0  0  0  0
 26 58  1  0  0  0  0
 27 28  1  0  0  0  0
 28 29  1  0  0  0  0
 28 37  1  0  0  0  0
 29 30  1  0  0  0  0
 29 59  1  0  0  0  0
 29 60  1  0  0  0  0
 30 31  1  0  0  0  0
 30 61  1  0  0  0  0
 30 62  1  0  0  0  0
 31 32  1  0  0  0  0
 31 36  1  0  0  0  0
 32 33  1  0  0  0  0
 32 63  1  0  0  0  0
 32 64  1  0  0  0  0
 33 34  1  0  0  0  0
 33 65  1  0  0  0  0
 33 66  1  0  0  0  0
 34 35  1  0  0  0  0
 34 67  1  0  0  0  0
 35 36  1  0  0  0  0
 35 68  1  0  0  0  0
 35 69  1  0  0  0  0
 36 70  1  0  0  0  0
 36 71  1  0  0  0  0
 37 72  1  0  0  0  0
 38 39  1  0  0  0  0
 39 40  1  0  0  0  0
 40 73  1  0  0  0  0
 41 74  1  0  0  0  0
 42 75  1  0  0  0  0
M  END
$$$$
