CHEMBL353070
 OpenBabel04072215363D

 59 63  0  0  0  0  0  0  0  0999 V2000
    2.7847    0.0414   -1.2779 C   0  0  0  0  0  0  0  0  0  0  0  0
    2.4922   -0.1194    0.1046 O   0  0  0  0  0  0  0  0  0  0  0  0
    3.2201    0.5674    1.0312 C   0  0  0  0  0  0  0  0  0  0  0  0
    4.4334    1.2046    0.7481 C   0  0  0  0  0  0  0  0  0  0  0  0
    5.1125    1.9863    1.7240 C   0  0  0  0  0  0  0  0  0  0  0  0
    6.2742    2.7425    1.4826 C   0  0  0  0  0  0  0  0  0  0  0  0
    6.8360    2.7591    0.1876 N   0  0  0  0  0  0  0  0  0  0  0  0
    7.4030    3.8299   -0.5189 C   0  0  0  0  0  0  0  0  0  0  0  0
    7.1105    5.1738   -0.2114 C   0  0  0  0  0  0  0  0  0  0  0  0
    7.5731    6.2356   -0.9888 C   0  0  0  0  0  0  0  0  0  0  0  0
    8.3513    5.9992   -2.1233 C   0  0  0  0  0  0  0  0  0  0  0  0
    8.6961    4.6739   -2.4544 C   0  0  0  0  0  0  0  0  0  0  0  0
    9.4566    4.0821   -3.5029 C   0  0  0  0  0  0  0  0  0  0  0  0
   10.2114    4.9171   -4.7761 Cl  0  0  0  0  0  0  0  0  0  0  0  0
    9.4712    2.7235   -3.3022 C   0  0  0  0  0  0  0  0  0  0  0  0
    8.7351    2.4636   -2.1802 N   0  0  0  0  0  0  0  0  0  0  0  0
    8.2267    3.6310   -1.6454 C   0  0  0  0  0  0  0  0  0  0  0  0
    6.8644    3.4722    2.4440 N   0  0  0  0  0  0  0  0  0  0  0  0
    6.2983    3.4389    3.6520 C   0  0  0  0  0  0  0  0  0  0  0  0
    5.1815    2.7821    3.9818 N   0  0  0  0  0  0  0  0  0  0  0  0
    4.5872    2.0794    3.0125 C   0  0  0  0  0  0  0  0  0  0  0  0
    3.4030    1.4124    3.2942 C   0  0  0  0  0  0  0  0  0  0  0  0
    2.7217    0.6446    2.3364 C   0  0  0  0  0  0  0  0  0  0  0  0
    1.5789    0.0629    2.8256 O   0  0  0  0  0  0  0  0  0  0  0  0
    1.1807   -1.2217    2.3325 C   0  0  0  0  0  0  0  0  0  0  0  0
    2.2440   -2.3107    2.5150 C   0  0  0  0  0  0  0  0  0  0  0  0
    2.5898   -2.5042    3.9959 C   0  0  0  0  0  0  0  0  0  0  0  0
    3.6431   -3.5074    4.2368 N   0  0  0  0  0  0  0  0  0  0  0  0
    3.8495   -3.6963    5.6958 C   0  0  0  0  0  0  0  0  0  0  0  0
    4.5673   -2.5185    6.3842 C   0  0  0  0  0  0  0  0  0  0  0  0
    5.8210   -2.2242    5.7545 O   0  0  0  0  0  0  0  0  0  0  0  0
    5.6402   -1.9581    4.3583 C   0  0  0  0  0  0  0  0  0  0  0  0
    4.9560   -3.1417    3.6555 C   0  0  0  0  0  0  0  0  0  0  0  0
    3.4075   -0.7925   -1.6157 H   0  0  0  0  0  0  0  0  0  0  0  0
    3.2518    0.9969   -1.5315 H   0  0  0  0  0  0  0  0  0  0  0  0
    1.8368    0.0032   -1.8230 H   0  0  0  0  0  0  0  0  0  0  0  0
    4.8729    1.1233   -0.2398 H   0  0  0  0  0  0  0  0  0  0  0  0
    7.0898    1.8365   -0.1268 H   0  0  0  0  0  0  0  0  0  0  0  0
    6.4878    5.4063    0.6472 H   0  0  0  0  0  0  0  0  0  0  0  0
    7.3118    7.2560   -0.7160 H   0  0  0  0  0  0  0  0  0  0  0  0
    8.6910    6.8304   -2.7362 H   0  0  0  0  0  0  0  0  0  0  0  0
    9.9434    1.9256   -3.8585 H   0  0  0  0  0  0  0  0  0  0  0  0
    8.6011    1.5464   -1.7812 H   0  0  0  0  0  0  0  0  0  0  0  0
    6.7935    3.9960    4.4405 H   0  0  0  0  0  0  0  0  0  0  0  0
    2.9897    1.4893    4.2983 H   0  0  0  0  0  0  0  0  0  0  0  0
    0.8269   -1.1547    1.3000 H   0  0  0  0  0  0  0  0  0  0  0  0
    0.2958   -1.5054    2.9163 H   0  0  0  0  0  0  0  0  0  0  0  0
    3.1361   -2.0334    1.9504 H   0  0  0  0  0  0  0  0  0  0  0  0
    1.8766   -3.2520    2.0911 H   0  0  0  0  0  0  0  0  0  0  0  0
    1.6739   -2.8448    4.4982 H   0  0  0  0  0  0  0  0  0  0  0  0
    2.8463   -1.5406    4.4467 H   0  0  0  0  0  0  0  0  0  0  0  0
    4.4620   -4.5980    5.8259 H   0  0  0  0  0  0  0  0  0  0  0  0
    2.8956   -3.9020    6.1955 H   0  0  0  0  0  0  0  0  0  0  0  0
    4.7776   -2.7764    7.4269 H   0  0  0  0  0  0  0  0  0  0  0  0
    3.9493   -1.6133    6.3936 H   0  0  0  0  0  0  0  0  0  0  0  0
    6.6316   -1.7970    3.9232 H   0  0  0  0  0  0  0  0  0  0  0  0
    5.0761   -1.0278    4.2351 H   0  0  0  0  0  0  0  0  0  0  0  0
    5.6077   -4.0206    3.7510 H   0  0  0  0  0  0  0  0  0  0  0  0
    4.8850   -2.9561    2.5801 H   0  0  0  0  0  0  0  0  0  0  0  0
  1  2  1  0  0  0  0
  1 34  1  0  0  0  0
  1 35  1  0  0  0  0
  1 36  1  0  0  0  0
  2  3  1  0  0  0  0
  3  4  1  0  0  0  0
  3 23  2  0  0  0  0
  4  5  2  0  0  0  0
  4 37  1  0  0  0  0
  5  6  1  0  0  0  0
  5 21  1  0  0  0  0
  6  7  1  0  0  0  0
  6 18  2  0  0  0  0
  7  8  1  0  0  0  0
  7 38  1  0  0  0  0
  8  9  1  0  0  0  0
  8 17  2  0  0  0  0
  9 10  2  0  0  0  0
  9 39  1  0  0  0  0
 10 11  1  0  0  0  0
 10 40  1  0  0  0  0
 11 12  2  0  0  0  0
 11 41  1  0  0  0  0
 12 13  1  0  0  0  0
 12 17  1  0  0  0  0
 13 14  1  0  0  0  0
 13 15  2  0  0  0  0
 15 16  1  0  0  0  0
 15 42  1  0  0  0  0
 16 17  1  0  0  0  0
 16 43  1  0  0  0  0
 18 19  1  0  0  0  0
 19 20  2  0  0  0  0
 19 44  1  0  0  0  0
 20 21  1  0  0  0  0
 21 22  2  0  0  0  0
 22 23  1  0  0  0  0
 22 45  1  0  0  0  0
 23 24  1  0  0  0  0
 24 25  1  0  0  0  0
 25 26  1  0  0  0  0
 25 46  1  0  0  0  0
 25 47  1  0  0  0  0
 26 27  1  0  0  0  0
 26 48  1  0  0  0  0
 26 49  1  0  0  0  0
 27 28  1  0  0  0  0
 27 50  1  0  0  0  0
 27 51  1  0  0  0  0
 28 29  1  0  0  0  0
 28 33  1  0  0  0  0
 29 30  1  0  0  0  0
 29 52  1  0  0  0  0
 29 53  1  0  0  0  0
 30 31  1  0  0  0  0
 30 54  1  0  0  0  0
 30 55  1  0  0  0  0
 31 32  1  0  0  0  0
 32 33  1  0  0  0  0
 32 56  1  0  0  0  0
 32 57  1  0  0  0  0
 33 58  1  0  0  0  0
 33 59  1  0  0  0  0
M  END
$$$$
