CHEMBL384260
 OpenBabel04072215373D

 54 58  0  0  0  0  0  0  0  0999 V2000
    2.1772    0.2382    0.8969 C   0  0  0  0  0  0  0  0  0  0  0  0
    3.0115   -0.6010    0.1011 O   0  0  0  0  0  0  0  0  0  0  0  0
    3.4113   -0.0828   -1.0994 C   0  0  0  0  0  0  0  0  0  0  0  0
    2.7463    0.9134   -1.7938 C   0  0  0  0  0  0  0  0  0  0  0  0
    3.1945    1.3914   -3.0260 C   0  0  0  0  0  0  0  0  0  0  0  0
    2.4094    2.1989   -3.8081 O   0  0  0  0  0  0  0  0  0  0  0  0
    1.5547    3.2756   -3.3449 C   0  0  0  0  0  0  0  0  0  0  0  0
    0.5967    3.1147   -2.1541 C   0  0  0  0  0  0  0  0  0  0  0  0
   -0.4119    1.9874   -2.3712 C   0  0  0  0  0  0  0  0  0  0  0  0
   -1.2229    2.2036   -3.5733 N   0  0  0  0  0  0  0  0  0  0  0  0
   -2.0553    1.0142   -3.8086 C   0  0  0  0  0  0  0  0  0  0  0  0
   -0.3991    2.4878   -4.7603 C   0  0  0  0  0  0  0  0  0  0  0  0
    0.6345    3.6043   -4.5354 C   0  0  0  0  0  0  0  0  0  0  0  0
    4.4137    0.8471   -3.5795 C   0  0  0  0  0  0  0  0  0  0  0  0
    5.1408    1.2206   -4.7461 C   0  0  0  0  0  0  0  0  0  0  0  0
    4.7667    2.3386   -5.5353 N   0  0  0  0  0  0  0  0  0  0  0  0
    5.6496    3.0153   -6.4153 C   0  0  0  0  0  0  0  0  0  0  0  0
    6.9508    3.3774   -6.0105 C   0  0  0  0  0  0  0  0  0  0  0  0
    7.8465    4.0373   -6.8780 C   0  0  0  0  0  0  0  0  0  0  0  0
    7.4603    4.3574   -8.1797 C   0  0  0  0  0  0  0  0  0  0  0  0
    6.1921    3.9856   -8.5653 C   0  0  0  0  0  0  0  0  0  0  0  0
    5.3104    3.3390   -7.7166 C   0  0  0  0  0  0  0  0  0  0  0  0
    4.1284    3.0548   -8.3452 O   0  0  0  0  0  0  0  0  0  0  0  0
    4.4406    3.4533   -9.6979 C   0  0  0  0  0  0  0  0  0  0  0  0
    5.6732    4.1879   -9.8094 O   0  0  0  0  0  0  0  0  0  0  0  0
    6.2681    0.5785   -5.1399 N   0  0  0  0  0  0  0  0  0  0  0  0
    6.7100   -0.4204   -4.3870 C   0  0  0  0  0  0  0  0  0  0  0  0
    6.1490   -0.8371   -3.2609 N   0  0  0  0  0  0  0  0  0  0  0  0
    5.0429   -0.2053   -2.8708 C   0  0  0  0  0  0  0  0  0  0  0  0
    4.5295   -0.6558   -1.6710 C   0  0  0  0  0  0  0  0  0  0  0  0
    2.2082   -0.1351    1.9239 H   0  0  0  0  0  0  0  0  0  0  0  0
    1.1390    0.1904    0.5502 H   0  0  0  0  0  0  0  0  0  0  0  0
    2.5348    1.2745    0.9108 H   0  0  0  0  0  0  0  0  0  0  0  0
    1.8222    1.2351   -1.3658 H   0  0  0  0  0  0  0  0  0  0  0  0
    2.2048    4.1386   -3.1565 H   0  0  0  0  0  0  0  0  0  0  0  0
    0.0358    4.0521   -2.0179 H   0  0  0  0  0  0  0  0  0  0  0  0
    1.1341    3.0046   -1.2073 H   0  0  0  0  0  0  0  0  0  0  0  0
   -1.0719    1.9405   -1.4964 H   0  0  0  0  0  0  0  0  0  0  0  0
    0.0908    1.0169   -2.4394 H   0  0  0  0  0  0  0  0  0  0  0  0
   -2.7837    0.8901   -2.9990 H   0  0  0  0  0  0  0  0  0  0  0  0
   -1.4568    0.0954   -3.8683 H   0  0  0  0  0  0  0  0  0  0  0  0
   -2.6238    1.1047   -4.7403 H   0  0  0  0  0  0  0  0  0  0  0  0
   -1.0664    2.8076   -5.5704 H   0  0  0  0  0  0  0  0  0  0  0  0
    0.1163    1.5823   -5.1039 H   0  0  0  0  0  0  0  0  0  0  0  0
    0.1109    4.5527   -4.3548 H   0  0  0  0  0  0  0  0  0  0  0  0
    1.2262    3.7270   -5.4495 H   0  0  0  0  0  0  0  0  0  0  0  0
    3.8431    2.1971   -5.9339 H   0  0  0  0  0  0  0  0  0  0  0  0
    7.2880    3.1319   -5.0055 H   0  0  0  0  0  0  0  0  0  0  0  0
    8.8464    4.2850   -6.5272 H   0  0  0  0  0  0  0  0  0  0  0  0
    8.1400    4.8596   -8.8581 H   0  0  0  0  0  0  0  0  0  0  0  0
    3.6259    4.0728  -10.0869 H   0  0  0  0  0  0  0  0  0  0  0  0
    4.5224    2.5525  -10.3191 H   0  0  0  0  0  0  0  0  0  0  0  0
    7.6105   -0.9295   -4.7105 H   0  0  0  0  0  0  0  0  0  0  0  0
    5.0243   -1.4745   -1.1540 H   0  0  0  0  0  0  0  0  0  0  0  0
  1  2  1  0  0  0  0
  1 31  1  0  0  0  0
  1 32  1  0  0  0  0
  1 33  1  0  0  0  0
  2  3  1  0  0  0  0
  3  4  1  0  0  0  0
  3 30  2  0  0  0  0
  4  5  2  0  0  0  0
  4 34  1  0  0  0  0
  5  6  1  0  0  0  0
  5 14  1  0  0  0  0
  6  7  1  0  0  0  0
  7  8  1  0  0  0  0
  7 13  1  0  0  0  0
  7 35  1  0  0  0  0
  8  9  1  0  0  0  0
  8 36  1  0  0  0  0
  8 37  1  0  0  0  0
  9 10  1  0  0  0  0
  9 38  1  0  0  0  0
  9 39  1  0  0  0  0
 10 11  1  0  0  0  0
 10 12  1  0  0  0  0
 11 40  1  0  0  0  0
 11 41  1  0  0  0  0
 11 42  1  0  0  0  0
 12 13  1  0  0  0  0
 12 43  1  0  0  0  0
 12 44  1  0  0  0  0
 13 45  1  0  0  0  0
 13 46  1  0  0  0  0
 14 15  1  0  0  0  0
 14 29  2  0  0  0  0
 15 16  1  0  0  0  0
 15 26  2  0  0  0  0
 16 17  1  0  0  0  0
 16 47  1  0  0  0  0
 17 18  1  0  0  0  0
 17 22  2  0  0  0  0
 18 19  2  0  0  0  0
 18 48  1  0  0  0  0
 19 20  1  0  0  0  0
 19 49  1  0  0  0  0
 20 21  2  0  0  0  0
 20 50  1  0  0  0  0
 21 22  1  0  0  0  0
 21 25  1  0  0  0  0
 22 23  1  0  0  0  0
 23 24  1  0  0  0  0
 24 25  1  0  0  0  0
 24 51  1  0  0  0  0
 24 52  1  0  0  0  0
 26 27  1  0  0  0  0
 27 28  2  0  0  0  0
 27 53  1  0  0  0  0
 28 29  1  0  0  0  0
 29 30  1  0  0  0  0
 30 54  1  0  0  0  0
M  END
$$$$
