CHEMBL1242387
 OpenBabel04072215363D

 57 61  0  0  0  0  0  0  0  0999 V2000
   10.1783    2.7176   -3.4987 C   0  0  0  0  0  0  0  0  0  0  0  0
   10.0515    3.9885   -2.8585 O   0  0  0  0  0  0  0  0  0  0  0  0
    8.9135    4.2052   -2.1267 C   0  0  0  0  0  0  0  0  0  0  0  0
    8.1762    3.1590   -1.5678 C   0  0  0  0  0  0  0  0  0  0  0  0
    6.9828    3.3564   -0.8949 C   0  0  0  0  0  0  0  0  0  0  0  0
    6.3213    2.2559   -0.5398 N   0  0  0  0  0  0  0  0  0  0  0  0
    5.1006    2.3925   -0.0088 C   0  0  0  0  0  0  0  0  0  0  0  0
    4.5288    3.6138    0.2553 C   0  0  0  0  0  0  0  0  0  0  0  0
    5.2829    4.7717    0.0380 C   0  0  0  0  0  0  0  0  0  0  0  0
    4.8332    6.0272    0.4633 O   0  0  0  0  0  0  0  0  0  0  0  0
    3.9317    6.0513    1.5177 C   0  0  0  0  0  0  0  0  0  0  0  0
    4.0920    5.2652    2.6550 C   0  0  0  0  0  0  0  0  0  0  0  0
    3.0260    5.0918    3.5439 C   0  0  0  0  0  0  0  0  0  0  0  0
    1.8146    5.8138    3.4237 C   0  0  0  0  0  0  0  0  0  0  0  0
    0.6625    5.6726    4.2625 C   0  0  0  0  0  0  0  0  0  0  0  0
    0.4644    4.6193    5.3154 C   0  0  0  0  0  0  0  0  0  0  0  0
   -0.6581    4.1298    5.4141 O   0  0  0  0  0  0  0  0  0  0  0  0
    1.5346    4.3227    6.1389 N   0  0  0  0  0  0  0  0  0  0  0  0
    1.5594    3.3560    7.1734 C   0  0  0  0  0  0  0  0  0  0  0  0
    0.5269    2.4445    7.4227 C   0  0  0  0  0  0  0  0  0  0  0  0
    0.5803    1.5860    8.5283 C   0  0  0  0  0  0  0  0  0  0  0  0
    1.6782    1.6221    9.3807 C   0  0  0  0  0  0  0  0  0  0  0  0
    1.7169    0.6173   10.7761 Cl  0  0  0  0  0  0  0  0  0  0  0  0
    2.7413    2.4796    9.1128 C   0  0  0  0  0  0  0  0  0  0  0  0
    2.6853    3.3362    8.0069 C   0  0  0  0  0  0  0  0  0  0  0  0
   -0.4685    6.4864    4.0528 C   0  0  0  0  0  0  0  0  0  0  0  0
   -0.4958    7.4220    3.0276 C   0  0  0  0  0  0  0  0  0  0  0  0
    0.5960    7.5352    2.1726 C   0  0  0  0  0  0  0  0  0  0  0  0
    1.7393    6.7429    2.3422 C   0  0  0  0  0  0  0  0  0  0  0  0
    2.7876    6.8353    1.3963 C   0  0  0  0  0  0  0  0  0  0  0  0
    6.5176    4.6690   -0.6526 C   0  0  0  0  0  0  0  0  0  0  0  0
    7.2946    5.7422   -1.1568 C   0  0  0  0  0  0  0  0  0  0  0  0
    8.4623    5.5171   -1.9273 C   0  0  0  0  0  0  0  0  0  0  0  0
    9.0581    6.7076   -2.6056 C   0  0  0  0  0  0  0  0  0  0  0  0
   10.5149    6.7436   -2.9911 C   0  0  0  0  0  0  0  0  0  0  0  0
    8.3233    7.6598   -2.8719 O   0  0  0  0  0  0  0  0  0  0  0  0
   11.1247    2.7095   -4.0475 H   0  0  0  0  0  0  0  0  0  0  0  0
    9.3662    2.5696   -4.2187 H   0  0  0  0  0  0  0  0  0  0  0  0
   10.2250    1.8911   -2.7822 H   0  0  0  0  0  0  0  0  0  0  0  0
    8.4942    2.1246   -1.6747 H   0  0  0  0  0  0  0  0  0  0  0  0
    4.5768    1.4682    0.2138 H   0  0  0  0  0  0  0  0  0  0  0  0
    3.5260    3.6397    0.6637 H   0  0  0  0  0  0  0  0  0  0  0  0
    5.0048    4.6916    2.8056 H   0  0  0  0  0  0  0  0  0  0  0  0
    3.1692    4.3369    4.3114 H   0  0  0  0  0  0  0  0  0  0  0  0
    2.3357    4.9373    6.0869 H   0  0  0  0  0  0  0  0  0  0  0  0
   -0.3483    2.3808    6.7829 H   0  0  0  0  0  0  0  0  0  0  0  0
   -0.2475    0.9079    8.7207 H   0  0  0  0  0  0  0  0  0  0  0  0
    3.6072    2.5007    9.7688 H   0  0  0  0  0  0  0  0  0  0  0  0
    3.5242    4.0025    7.8259 H   0  0  0  0  0  0  0  0  0  0  0  0
   -1.3502    6.3726    4.6844 H   0  0  0  0  0  0  0  0  0  0  0  0
   -1.3809    8.0355    2.8745 H   0  0  0  0  0  0  0  0  0  0  0  0
    0.5341    8.2500    1.3520 H   0  0  0  0  0  0  0  0  0  0  0  0
    2.6868    7.4845    0.5278 H   0  0  0  0  0  0  0  0  0  0  0  0
    6.9446    6.7641   -1.0110 H   0  0  0  0  0  0  0  0  0  0  0  0
   11.1291    6.1263   -2.3338 H   0  0  0  0  0  0  0  0  0  0  0  0
   10.8756    7.7723   -2.8857 H   0  0  0  0  0  0  0  0  0  0  0  0
   10.6311    6.4336   -4.0338 H   0  0  0  0  0  0  0  0  0  0  0  0
  1  2  1  0  0  0  0
  1 37  1  0  0  0  0
  1 38  1  0  0  0  0
  1 39  1  0  0  0  0
  2  3  1  0  0  0  0
  3  4  1  0  0  0  0
  3 33  2  0  0  0  0
  4  5  2  0  0  0  0
  4 40  1  0  0  0  0
  5  6  1  0  0  0  0
  5 31  1  0  0  0  0
  6  7  2  0  0  0  0
  7  8  1  0  0  0  0
  7 41  1  0  0  0  0
  8  9  2  0  0  0  0
  8 42  1  0  0  0  0
  9 10  1  0  0  0  0
  9 31  1  0  0  0  0
 10 11  1  0  0  0  0
 11 12  1  0  0  0  0
 11 30  2  0  0  0  0
 12 13  2  0  0  0  0
 12 43  1  0  0  0  0
 13 14  1  0  0  0  0
 13 44  1  0  0  0  0
 14 15  1  0  0  0  0
 14 29  2  0  0  0  0
 15 16  1  0  0  0  0
 15 26  2  0  0  0  0
 16 17  2  0  0  0  0
 16 18  1  0  0  0  0
 18 19  1  0  0  0  0
 18 45  1  0  0  0  0
 19 20  1  0  0  0  0
 19 25  2  0  0  0  0
 20 21  2  0  0  0  0
 20 46  1  0  0  0  0
 21 22  1  0  0  0  0
 21 47  1  0  0  0  0
 22 23  1  0  0  0  0
 22 24  2  0  0  0  0
 24 25  1  0  0  0  0
 24 48  1  0  0  0  0
 25 49  1  0  0  0  0
 26 27  1  0  0  0  0
 26 50  1  0  0  0  0
 27 28  2  0  0  0  0
 27 51  1  0  0  0  0
 28 29  1  0  0  0  0
 28 52  1  0  0  0  0
 29 30  1  0  0  0  0
 30 53  1  0  0  0  0
 31 32  2  0  0  0  0
 32 33  1  0  0  0  0
 32 54  1  0  0  0  0
 33 34  1  0  0  0  0
 34 35  1  0  0  0  0
 34 36  2  0  0  0  0
 35 55  1  0  0  0  0
 35 56  1  0  0  0  0
 35 57  1  0  0  0  0
M  END
$$$$
