CHEMBL3957336
 OpenBabel04072215373D

 74 76  0  0  0  0  0  0  0  0999 V2000
    1.6507    3.1961   -7.9766 C   0  0  0  0  0  0  0  0  0  0  0  0
    2.6938    2.2269   -7.8496 O   0  0  0  0  0  0  0  0  0  0  0  0
    3.5822    2.5029   -6.8535 C   0  0  0  0  0  0  0  0  0  0  0  0
    3.5283    3.4776   -6.1164 O   0  0  0  0  0  0  0  0  0  0  0  0
    4.6443    1.4269   -6.7966 C   0  0  0  0  0  0  0  0  0  0  0  0
    5.6613    1.7053   -5.6871 C   0  0  0  0  0  0  0  0  0  0  0  0
    6.7497    0.6320   -5.6191 C   0  0  0  0  0  0  0  0  0  0  0  0
    7.7646    0.9410   -4.5200 C   0  0  0  0  0  0  0  0  0  0  0  0
    9.0153   -0.3333   -4.3739 S   0  0  3  0  0  0  0  0  0  0  0  0
    9.9949    0.2847   -3.0149 C   0  0  0  0  0  0  0  0  0  0  0  0
    8.3359   -1.5264   -3.9054 O   0  0  0  0  0  0  0  0  0  0  0  0
    9.8852   -0.2874   -5.6519 N   0  0  0  0  0  0  0  0  0  0  0  0
   10.9479   -1.1989   -5.8146 C   0  0  0  0  0  0  0  0  0  0  0  0
   11.5210   -1.7131   -4.8567 O   0  0  0  0  0  0  0  0  0  0  0  0
   11.5167   -1.5057   -7.1547 C   0  0  0  0  0  0  0  0  0  0  0  0
   10.9836   -0.9530   -8.3074 C   0  0  0  0  0  0  0  0  0  0  0  0
   11.4925   -1.1605   -9.5519 N   0  0  0  0  0  0  0  0  0  0  0  0
   12.5750   -1.9599   -9.6625 C   0  0  0  0  0  0  0  0  0  0  0  0
   13.1207   -2.0489  -10.9414 N   0  0  0  0  0  0  0  0  0  0  0  0
   13.1633   -2.5863   -8.5563 C   0  0  0  0  0  0  0  0  0  0  0  0
   14.2775   -3.4794   -8.6947 C   0  0  0  0  0  0  0  0  0  0  0  0
   15.1827   -4.2530   -8.8518 C   0  0  0  0  0  0  0  0  0  0  0  0
   16.2461   -5.1794   -9.1004 C   0  0  0  0  0  0  0  0  0  0  0  0
   17.5100   -4.7018   -9.4498 C   0  0  0  0  0  0  0  0  0  0  0  0
   18.5309   -5.6006   -9.7372 C   0  0  0  0  0  0  0  0  0  0  0  0
   18.2897   -6.9740   -9.6728 C   0  0  0  0  0  0  0  0  0  0  0  0
   17.0348   -7.4723   -9.3038 C   0  0  0  0  0  0  0  0  0  0  0  0
   16.7517   -8.8593   -9.2187 N   0  0  0  0  0  0  0  0  0  0  0  0
   17.7024   -9.8669   -9.2270 C   0  0  0  0  0  0  0  0  0  0  0  0
   18.9224   -9.7052   -9.2354 O   0  0  0  0  0  0  0  0  0  0  0  0
   17.2198  -11.2716   -9.1566 C   0  0  0  0  0  0  0  0  0  0  0  0
   16.0111  -11.6964   -9.7128 C   0  0  0  0  0  0  0  0  0  0  0  0
   15.6603  -13.0523   -9.6540 C   0  0  0  0  0  0  0  0  0  0  0  0
   16.5035  -13.9852   -9.0324 C   0  0  0  0  0  0  0  0  0  0  0  0
   16.2309  -15.3249   -8.9149 O   0  0  0  0  0  0  0  0  0  0  0  0
   15.0174  -15.8081   -9.4702 C   0  0  0  0  0  0  0  0  0  0  0  0
   17.7256  -13.5575   -8.4794 C   0  0  0  0  0  0  0  0  0  0  0  0
   18.5055  -14.5205   -7.8873 O   0  0  0  0  0  0  0  0  0  0  0  0
   19.7494  -14.1096   -7.3318 C   0  0  0  0  0  0  0  0  0  0  0  0
   18.0753  -12.2088   -8.5586 C   0  0  0  0  0  0  0  0  0  0  0  0
   16.0094   -6.5607   -9.0238 C   0  0  0  0  0  0  0  0  0  0  0  0
   12.6227   -2.3516   -7.2906 C   0  0  0  0  0  0  0  0  0  0  0  0
    0.9961    2.8892   -8.7972 H   0  0  0  0  0  0  0  0  0  0  0  0
    2.0674    4.1796   -8.2168 H   0  0  0  0  0  0  0  0  0  0  0  0
    1.0556    3.2420   -7.0588 H   0  0  0  0  0  0  0  0  0  0  0  0
    5.1519    1.3947   -7.7670 H   0  0  0  0  0  0  0  0  0  0  0  0
    4.1507    0.4654   -6.6173 H   0  0  0  0  0  0  0  0  0  0  0  0
    5.1412    1.7626   -4.7223 H   0  0  0  0  0  0  0  0  0  0  0  0
    6.1231    2.6867   -5.8529 H   0  0  0  0  0  0  0  0  0  0  0  0
    7.2608    0.5634   -6.5862 H   0  0  0  0  0  0  0  0  0  0  0  0
    6.2889   -0.3454   -5.4338 H   0  0  0  0  0  0  0  0  0  0  0  0
    7.2641    1.0018   -3.5471 H   0  0  0  0  0  0  0  0  0  0  0  0
    8.2743    1.8910   -4.7081 H   0  0  0  0  0  0  0  0  0  0  0  0
    9.3604    0.3439   -2.1277 H   0  0  0  0  0  0  0  0  0  0  0  0
   10.3818    1.2731   -3.2706 H   0  0  0  0  0  0  0  0  0  0  0  0
   10.8178   -0.4040   -2.8194 H   0  0  0  0  0  0  0  0  0  0  0  0
   10.1146   -0.3002   -8.2793 H   0  0  0  0  0  0  0  0  0  0  0  0
   12.4880   -1.5924  -11.5915 H   0  0  0  0  0  0  0  0  0  0  0  0
   13.3593   -2.9962  -11.2080 H   0  0  0  0  0  0  0  0  0  0  0  0
   17.7064   -3.6339   -9.5113 H   0  0  0  0  0  0  0  0  0  0  0  0
   19.5179   -5.2440  -10.0209 H   0  0  0  0  0  0  0  0  0  0  0  0
   19.1116   -7.6320   -9.9361 H   0  0  0  0  0  0  0  0  0  0  0  0
   15.7921   -9.1146   -9.0245 H   0  0  0  0  0  0  0  0  0  0  0  0
   15.3514  -11.0050  -10.2289 H   0  0  0  0  0  0  0  0  0  0  0  0
   14.7250  -13.3553  -10.1139 H   0  0  0  0  0  0  0  0  0  0  0  0
   14.9293  -16.8675   -9.2102 H   0  0  0  0  0  0  0  0  0  0  0  0
   15.0316  -15.7303  -10.5621 H   0  0  0  0  0  0  0  0  0  0  0  0
   14.1493  -15.2931   -9.0465 H   0  0  0  0  0  0  0  0  0  0  0  0
   20.1962  -14.9737   -6.8310 H   0  0  0  0  0  0  0  0  0  0  0  0
   19.6144  -13.3288   -6.5754 H   0  0  0  0  0  0  0  0  0  0  0  0
   20.4391  -13.7837   -8.1177 H   0  0  0  0  0  0  0  0  0  0  0  0
   19.0224  -11.8528   -8.1634 H   0  0  0  0  0  0  0  0  0  0  0  0
   15.0229   -6.9114   -8.7327 H   0  0  0  0  0  0  0  0  0  0  0  0
   13.0671   -2.8181   -6.4136 H   0  0  0  0  0  0  0  0  0  0  0  0
  1  2  1  0  0  0  0
  1 43  1  0  0  0  0
  1 44  1  0  0  0  0
  1 45  1  0  0  0  0
  2  3  1  0  0  0  0
  3  4  2  0  0  0  0
  3  5  1  0  0  0  0
  5  6  1  0  0  0  0
  5 46  1  0  0  0  0
  5 47  1  0  0  0  0
  6  7  1  0  0  0  0
  6 48  1  0  0  0  0
  6 49  1  0  0  0  0
  7  8  1  0  0  0  0
  7 50  1  0  0  0  0
  7 51  1  0  0  0  0
  8  9  1  0  0  0  0
  8 52  1  0  0  0  0
  8 53  1  0  0  0  0
  9 10  1  0  0  0  0
  9 11  2  0  0  0  0
  9 12  2  0  0  0  0
 10 54  1  0  0  0  0
 10 55  1  0  0  0  0
 10 56  1  0  0  0  0
 12 13  1  0  0  0  0
 13 14  2  0  0  0  0
 13 15  1  0  0  0  0
 15 16  1  0  0  0  0
 15 42  2  0  0  0  0
 16 17  2  0  0  0  0
 16 57  1  0  0  0  0
 17 18  1  0  0  0  0
 18 19  1  0  0  0  0
 18 20  2  0  0  0  0
 19 58  1  0  0  0  0
 19 59  1  0  0  0  0
 20 21  1  0  0  0  0
 20 42  1  0  0  0  0
 21 22  3  0  0  0  0
 22 23  1  0  0  0  0
 23 24  1  0  0  0  0
 23 41  2  0  0  0  0
 24 25  2  0  0  0  0
 24 60  1  0  0  0  0
 25 26  1  0  0  0  0
 25 61  1  0  0  0  0
 26 27  2  0  0  0  0
 26 62  1  0  0  0  0
 27 28  1  0  0  0  0
 27 41  1  0  0  0  0
 28 29  1  0  0  0  0
 28 63  1  0  0  0  0
 29 30  2  0  0  0  0
 29 31  1  0  0  0  0
 31 32  1  0  0  0  0
 31 40  2  0  0  0  0
 32 33  2  0  0  0  0
 32 64  1  0  0  0  0
 33 34  1  0  0  0  0
 33 65  1  0  0  0  0
 34 35  1  0  0  0  0
 34 37  2  0  0  0  0
 35 36  1  0  0  0  0
 36 66  1  0  0  0  0
 36 67  1  0  0  0  0
 36 68  1  0  0  0  0
 37 38  1  0  0  0  0
 37 40  1  0  0  0  0
 38 39  1  0  0  0  0
 39 69  1  0  0  0  0
 39 70  1  0  0  0  0
 39 71  1  0  0  0  0
 40 72  1  0  0  0  0
 41 73  1  0  0  0  0
 42 74  1  0  0  0  0
M  END
$$$$
