CHEMBL99832
 OpenBabel04072215383D

 33 35  0  0  0  0  0  0  0  0999 V2000
    2.8800    0.2753    1.5771 C   0  0  0  0  0  0  0  0  0  0  0  0
    3.7706    0.9088    0.6654 O   0  0  0  0  0  0  0  0  0  0  0  0
    4.7475    0.0549    0.1912 C   0  0  0  0  0  0  0  0  0  0  0  0
    5.6252    0.5907   -0.7338 C   0  0  0  0  0  0  0  0  0  0  0  0
    6.6276   -0.2276   -1.2220 C   0  0  0  0  0  0  0  0  0  0  0  0
    6.7070   -1.5390   -0.7678 C   0  0  0  0  0  0  0  0  0  0  0  0
    5.7866   -2.0125    0.1678 C   0  0  0  0  0  0  0  0  0  0  0  0
    5.8232   -3.2970    0.7005 N   0  0  0  0  0  0  0  0  0  0  0  0
    6.5671   -4.3433    0.2933 C   0  0  0  0  0  0  0  0  0  0  0  0
    7.2019   -4.4347   -0.8534 N   0  0  0  0  0  0  0  0  0  0  0  0
    7.8695   -5.6302   -0.9456 C   0  0  0  0  0  0  0  0  0  0  0  0
    7.7675   -6.4709    0.1443 C   0  0  0  0  0  0  0  0  0  0  0  0
    8.3941   -7.7798    0.3546 C   0  0  0  0  0  0  0  0  0  0  0  0
    9.6241   -8.0694   -0.2625 C   0  0  0  0  0  0  0  0  0  0  0  0
   10.2205   -9.3239   -0.1246 C   0  0  0  0  0  0  0  0  0  0  0  0
    9.5999  -10.3069    0.6403 C   0  0  0  0  0  0  0  0  0  0  0  0
    8.3875  -10.0338    1.2689 C   0  0  0  0  0  0  0  0  0  0  0  0
    7.7880   -8.7800    1.1270 C   0  0  0  0  0  0  0  0  0  0  0  0
    6.7400   -5.7285    1.3062 S   0  0  0  0  0  0  0  0  0  0  0  0
    4.8110   -1.2151    0.6515 N   0  0  0  0  0  0  0  0  0  0  0  0
    2.1835    1.0344    1.9446 H   0  0  0  0  0  0  0  0  0  0  0  0
    3.4126   -0.1311    2.4443 H   0  0  0  0  0  0  0  0  0  0  0  0
    2.2952   -0.5031    1.0746 H   0  0  0  0  0  0  0  0  0  0  0  0
    5.5326    1.6196   -1.0586 H   0  0  0  0  0  0  0  0  0  0  0  0
    7.3523    0.1432   -1.9419 H   0  0  0  0  0  0  0  0  0  0  0  0
    7.5104   -2.1654   -1.1382 H   0  0  0  0  0  0  0  0  0  0  0  0
    5.1397   -3.4107    1.4359 H   0  0  0  0  0  0  0  0  0  0  0  0
    8.4285   -5.8414   -1.8492 H   0  0  0  0  0  0  0  0  0  0  0  0
   10.1383   -7.3185   -0.8587 H   0  0  0  0  0  0  0  0  0  0  0  0
   11.1675   -9.5321   -0.6164 H   0  0  0  0  0  0  0  0  0  0  0  0
   10.0588  -11.2861    0.7454 H   0  0  0  0  0  0  0  0  0  0  0  0
    7.8993  -10.8002    1.8659 H   0  0  0  0  0  0  0  0  0  0  0  0
    6.8323   -8.6071    1.6155 H   0  0  0  0  0  0  0  0  0  0  0  0
  1  2  1  0  0  0  0
  1 21  1  0  0  0  0
  1 22  1  0  0  0  0
  1 23  1  0  0  0  0
  2  3  1  0  0  0  0
  3  4  1  0  0  0  0
  3 20  2  0  0  0  0
  4  5  2  0  0  0  0
  4 24  1  0  0  0  0
  5  6  1  0  0  0  0
  5 25  1  0  0  0  0
  6  7  2  0  0  0  0
  6 26  1  0  0  0  0
  7  8  1  0  0  0  0
  7 20  1  0  0  0  0
  8  9  1  0  0  0  0
  8 27  1  0  0  0  0
  9 10  2  0  0  0  0
  9 19  1  0  0  0  0
 10 11  1  0  0  0  0
 11 12  2  0  0  0  0
 11 28  1  0  0  0  0
 12 13  1  0  0  0  0
 12 19  1  0  0  0  0
 13 14  1  0  0  0  0
 13 18  2  0  0  0  0
 14 15  2  0  0  0  0
 14 29  1  0  0  0  0
 15 16  1  0  0  0  0
 15 30  1  0  0  0  0
 16 17  2  0  0  0  0
 16 31  1  0  0  0  0
 17 18  1  0  0  0  0
 17 32  1  0  0  0  0
 18 33  1  0  0  0  0
M  END
$$$$
