CHEMBL4590694
 OpenBabel04072215383D

 47 50  0  0  0  0  0  0  0  0999 V2000
    2.5573   -0.1076   -1.3147 O   0  0  0  0  0  0  0  0  0  0  0  0
    2.1458    0.4156   -0.2869 C   0  0  0  0  0  0  0  0  0  0  0  0
    0.8022    0.5696    0.0172 N   0  0  0  0  0  0  0  0  0  0  0  0
   -0.2781    0.2126   -0.8226 C   0  0  0  0  0  0  0  0  0  0  0  0
   -0.1433   -0.5778   -1.9690 C   0  0  0  0  0  0  0  0  0  0  0  0
   -1.2359   -0.8260   -2.8022 C   0  0  0  0  0  0  0  0  0  0  0  0
   -2.4844   -0.3047   -2.4856 C   0  0  0  0  0  0  0  0  0  0  0  0
   -2.6426    0.4518   -1.3267 C   0  0  0  0  0  0  0  0  0  0  0  0
   -1.5461    0.7068   -0.4964 C   0  0  0  0  0  0  0  0  0  0  0  0
    2.9664    0.9399    0.6959 N   0  0  0  0  0  0  0  0  0  0  0  0
    4.3783    1.0422    0.6268 C   0  0  0  0  0  0  0  0  0  0  0  0
    5.1218    0.7393   -0.5244 C   0  0  0  0  0  0  0  0  0  0  0  0
    6.5132    0.8095   -0.5252 C   0  0  0  0  0  0  0  0  0  0  0  0
    7.1808    1.1917    0.6323 C   0  0  0  0  0  0  0  0  0  0  0  0
    8.6645    1.2354    0.6134 C   0  0  0  0  0  0  0  0  0  0  0  0
    9.2454    1.7846   -0.3111 O   0  0  0  0  0  0  0  0  0  0  0  0
    9.2538    0.6579    1.7297 N   0  0  0  0  0  0  0  0  0  0  0  0
   10.2813    1.3541    2.2922 N   0  0  0  0  0  0  0  0  0  0  0  0
   10.5982    1.0391    3.5055 C   0  0  0  0  0  0  0  0  0  0  0  0
   10.1689   -0.1555    4.3569 C   0  0  0  0  0  0  0  0  0  0  0  0
    9.7439   -1.2130    3.9372 O   0  0  0  0  0  0  0  0  0  0  0  0
   10.2460    0.2864    5.6619 N   0  0  0  0  0  0  0  0  0  0  0  0
   10.5622    1.6438    5.6772 C   0  0  0  0  0  0  0  0  0  0  0  0
   10.2150    2.5675    6.6395 C   0  0  0  0  0  0  0  0  0  0  0  0
   10.4080    3.9214    6.3229 C   0  0  0  0  0  0  0  0  0  0  0  0
   11.0157    4.3066    5.1126 C   0  0  0  0  0  0  0  0  0  0  0  0
   11.1673    5.6098    4.8451 F   0  0  0  0  0  0  0  0  0  0  0  0
   11.3530    3.3765    4.1428 C   0  0  0  0  0  0  0  0  0  0  0  0
   11.0517    2.0630    4.4392 C   0  0  0  0  0  0  0  0  0  0  0  0
    6.4542    1.5545    1.7748 C   0  0  0  0  0  0  0  0  0  0  0  0
    5.0575    1.4753    1.7712 C   0  0  0  0  0  0  0  0  0  0  0  0
    0.5820    1.1474    0.8122 H   0  0  0  0  0  0  0  0  0  0  0  0
    0.8056   -1.0192   -2.2556 H   0  0  0  0  0  0  0  0  0  0  0  0
   -1.0983   -1.4208   -3.7015 H   0  0  0  0  0  0  0  0  0  0  0  0
   -3.3297   -0.4885   -3.1427 H   0  0  0  0  0  0  0  0  0  0  0  0
   -3.6197    0.8552   -1.0762 H   0  0  0  0  0  0  0  0  0  0  0  0
   -1.6964    1.3190    0.3880 H   0  0  0  0  0  0  0  0  0  0  0  0
    2.5361    1.1701    1.5772 H   0  0  0  0  0  0  0  0  0  0  0  0
    4.6504    0.4527   -1.4591 H   0  0  0  0  0  0  0  0  0  0  0  0
    7.0765    0.5808   -1.4327 H   0  0  0  0  0  0  0  0  0  0  0  0
    8.6622    0.1150    2.3562 H   0  0  0  0  0  0  0  0  0  0  0  0
    9.9529   -0.2702    6.4519 H   0  0  0  0  0  0  0  0  0  0  0  0
    9.6692    2.2848    7.5345 H   0  0  0  0  0  0  0  0  0  0  0  0
   10.0304    4.7000    6.9816 H   0  0  0  0  0  0  0  0  0  0  0  0
   11.7017    3.6786    3.1619 H   0  0  0  0  0  0  0  0  0  0  0  0
    6.9660    1.9282    2.6580 H   0  0  0  0  0  0  0  0  0  0  0  0
    4.5151    1.7604    2.6679 H   0  0  0  0  0  0  0  0  0  0  0  0
  1  2  2  0  0  0  0
  2  3  1  0  0  0  0
  2 10  1  0  0  0  0
  3  4  1  0  0  0  0
  3 32  1  0  0  0  0
  4  5  1  0  0  0  0
  4  9  2  0  0  0  0
  5  6  2  0  0  0  0
  5 33  1  0  0  0  0
  6  7  1  0  0  0  0
  6 34  1  0  0  0  0
  7  8  2  0  0  0  0
  7 35  1  0  0  0  0
  8  9  1  0  0  0  0
  8 36  1  0  0  0  0
  9 37  1  0  0  0  0
 10 11  1  0  0  0  0
 10 38  1  0  0  0  0
 11 12  1  0  0  0  0
 11 31  2  0  0  0  0
 12 13  2  0  0  0  0
 12 39  1  0  0  0  0
 13 14  1  0  0  0  0
 13 40  1  0  0  0  0
 14 15  1  0  0  0  0
 14 30  2  0  0  0  0
 15 16  2  0  0  0  0
 15 17  1  0  0  0  0
 17 18  1  0  0  0  0
 17 41  1  0  0  0  0
 18 19  2  0  0  0  0
 19 20  1  0  0  0  0
 19 29  1  0  0  0  0
 20 21  2  0  0  0  0
 20 22  1  0  0  0  0
 22 23  1  0  0  0  0
 22 42  1  0  0  0  0
 23 24  1  0  0  0  0
 23 29  2  0  0  0  0
 24 25  2  0  0  0  0
 24 43  1  0  0  0  0
 25 26  1  0  0  0  0
 25 44  1  0  0  0  0
 26 27  1  0  0  0  0
 26 28  2  0  0  0  0
 28 29  1  0  0  0  0
 28 45  1  0  0  0  0
 30 31  1  0  0  0  0
 30 46  1  0  0  0  0
 31 47  1  0  0  0  0
M  END
$$$$
