CHEMBL3690448
 OpenBabel04072215373D

 47 50  0  0  0  0  0  0  0  0999 V2000
   -2.3183   -0.1639   -0.1953 N   0  0  0  0  0  0  0  0  0  0  0  0
   -0.9370   -0.0531   -0.0765 C   0  0  0  0  0  0  0  0  0  0  0  0
   -0.0663   -0.9929   -0.6206 C   0  0  0  0  0  0  0  0  0  0  0  0
    1.2860   -0.8811   -0.5717 N   0  0  0  0  0  0  0  0  0  0  0  0
    1.7677    0.2301    0.0389 C   0  0  0  0  0  0  0  0  0  0  0  0
    3.2468    0.3823    0.0478 C   0  0  0  0  0  0  0  0  0  0  0  0
    4.0804   -0.2148   -1.0068 C   0  0  0  0  0  0  0  0  0  0  0  0
    5.4169   -0.0847   -0.9765 C   0  0  0  0  0  0  0  0  0  0  0  0
    6.0244    0.6527    0.0445 N   0  0  0  0  0  0  0  0  0  0  0  0
    7.3572    1.0087    0.2686 C   0  0  0  0  0  0  0  0  0  0  0  0
    8.5110    0.7589   -0.6132 C   0  0  0  0  0  0  0  0  0  0  0  0
    8.3562    0.7507   -2.0043 C   0  0  0  0  0  0  0  0  0  0  0  0
    9.4329    0.4928   -2.8447 C   0  0  0  0  0  0  0  0  0  0  0  0
   10.7033    0.3190   -2.3086 C   0  0  0  0  0  0  0  0  0  0  0  0
   10.9254    0.4117   -0.9317 C   0  0  0  0  0  0  0  0  0  0  0  0
   12.2254    0.3392   -0.3680 N   0  0  0  0  0  0  0  0  0  0  0  0
   13.4112    0.2717   -1.0744 C   0  0  0  0  0  0  0  0  0  0  0  0
   13.5545    0.2664   -2.2918 O   0  0  0  0  0  0  0  0  0  0  0  0
   14.5151    0.1594   -0.2591 N   0  0  0  0  0  0  0  0  0  0  0  0
   15.8377    0.0760   -0.9047 C   0  0  0  0  0  0  0  0  0  0  0  0
   16.4375    1.4002   -1.4065 C   0  0  0  0  0  0  0  0  0  0  0  0
   15.7143    2.4728   -1.0106 F   0  0  0  0  0  0  0  0  0  0  0  0
   17.6842    1.5603   -0.8929 F   0  0  0  0  0  0  0  0  0  0  0  0
   16.5532    1.4395   -2.7496 F   0  0  0  0  0  0  0  0  0  0  0  0
    9.8138    0.5965   -0.0884 C   0  0  0  0  0  0  0  0  0  0  0  0
    7.3134    1.6925    1.4757 C   0  0  0  0  0  0  0  0  0  0  0  0
    6.0422    1.8033    1.9700 N   0  0  0  0  0  0  0  0  0  0  0  0
    5.2793    1.1981    1.0876 C   0  0  0  0  0  0  0  0  0  0  0  0
    3.8620    1.0357    1.0621 C   0  0  0  0  0  0  0  0  0  0  0  0
    0.8875    1.1749    0.5655 C   0  0  0  0  0  0  0  0  0  0  0  0
   -0.4668    1.0508    0.5260 N   0  0  0  0  0  0  0  0  0  0  0  0
   -2.6709   -1.0655    0.1025 H   0  0  0  0  0  0  0  0  0  0  0  0
   -2.7330    0.6047    0.3266 H   0  0  0  0  0  0  0  0  0  0  0  0
   -0.4420   -1.8731   -1.1303 H   0  0  0  0  0  0  0  0  0  0  0  0
    3.5890   -0.7695   -1.8022 H   0  0  0  0  0  0  0  0  0  0  0  0
    6.0412   -0.5446   -1.7286 H   0  0  0  0  0  0  0  0  0  0  0  0
    7.4011    0.9652   -2.4721 H   0  0  0  0  0  0  0  0  0  0  0  0
    9.2926    0.4485   -3.9194 H   0  0  0  0  0  0  0  0  0  0  0  0
   11.5058    0.1284   -3.0143 H   0  0  0  0  0  0  0  0  0  0  0  0
   12.2881    0.3743    0.6349 H   0  0  0  0  0  0  0  0  0  0  0  0
   14.4704    0.6161    0.6399 H   0  0  0  0  0  0  0  0  0  0  0  0
   15.7659   -0.6190   -1.7487 H   0  0  0  0  0  0  0  0  0  0  0  0
   16.5081   -0.3795   -0.1716 H   0  0  0  0  0  0  0  0  0  0  0  0
    9.9618    0.6345    0.9878 H   0  0  0  0  0  0  0  0  0  0  0  0
    8.1438    2.1459    2.0021 H   0  0  0  0  0  0  0  0  0  0  0  0
    3.3231    1.4626    1.8998 H   0  0  0  0  0  0  0  0  0  0  0  0
    1.2368    2.0930    1.0261 H   0  0  0  0  0  0  0  0  0  0  0  0
  1  2  1  0  0  0  0
  1 32  1  0  0  0  0
  1 33  1  0  0  0  0
  2  3  1  0  0  0  0
  2 31  2  0  0  0  0
  3  4  2  0  0  0  0
  3 34  1  0  0  0  0
  4  5  1  0  0  0  0
  5  6  1  0  0  0  0
  5 30  2  0  0  0  0
  6  7  1  0  0  0  0
  6 29  2  0  0  0  0
  7  8  2  0  0  0  0
  7 35  1  0  0  0  0
  8  9  1  0  0  0  0
  8 36  1  0  0  0  0
  9 10  1  0  0  0  0
  9 28  1  0  0  0  0
 10 11  1  0  0  0  0
 10 26  2  0  0  0  0
 11 12  1  0  0  0  0
 11 25  2  0  0  0  0
 12 13  2  0  0  0  0
 12 37  1  0  0  0  0
 13 14  1  0  0  0  0
 13 38  1  0  0  0  0
 14 15  2  0  0  0  0
 14 39  1  0  0  0  0
 15 16  1  0  0  0  0
 15 25  1  0  0  0  0
 16 17  1  0  0  0  0
 16 40  1  0  0  0  0
 17 18  2  0  0  0  0
 17 19  1  0  0  0  0
 19 20  1  0  0  0  0
 19 41  1  0  0  0  0
 20 21  1  0  0  0  0
 20 42  1  0  0  0  0
 20 43  1  0  0  0  0
 21 22  1  0  0  0  0
 21 23  1  0  0  0  0
 21 24  1  0  0  0  0
 25 44  1  0  0  0  0
 26 27  1  0  0  0  0
 26 45  1  0  0  0  0
 27 28  2  0  0  0  0
 28 29  1  0  0  0  0
 29 46  1  0  0  0  0
 30 31  1  0  0  0  0
 30 47  1  0  0  0  0
M  END
$$$$
