CHEMBL272183
 OpenBabel04072215363D

 44 47  0  0  0  0  0  0  0  0999 V2000
    3.4496    2.9508   -1.8864 N   0  0  0  0  0  0  0  0  0  0  0  0
    3.1353    1.6525   -1.7313 C   0  0  0  0  0  0  0  0  0  0  0  0
    3.8710    0.6830   -2.2908 N   0  0  0  0  0  0  0  0  0  0  0  0
    3.3051   -0.5007   -1.8762 O   0  0  0  0  0  0  0  0  0  0  0  0
    2.2308   -0.2479   -1.0965 C   0  0  0  0  0  0  0  0  0  0  0  0
    1.4424   -1.2351   -0.5096 C   0  0  0  0  0  0  0  0  0  0  0  0
    0.3658   -0.7969    0.2476 C   0  0  0  0  0  0  0  0  0  0  0  0
    0.1053    0.5677    0.3762 C   0  0  0  0  0  0  0  0  0  0  0  0
    0.9101    1.5826   -0.2250 C   0  0  0  0  0  0  0  0  0  0  0  0
    0.5577    3.0084   -0.0490 C   0  0  0  0  0  0  0  0  0  0  0  0
   -0.0238    3.4533    1.1493 C   0  0  0  0  0  0  0  0  0  0  0  0
   -0.4382    4.7777    1.3273 C   0  0  0  0  0  0  0  0  0  0  0  0
   -0.2400    5.7343    0.3362 C   0  0  0  0  0  0  0  0  0  0  0  0
   -0.6607    7.0806    0.4524 N   0  0  0  0  0  0  0  0  0  0  0  0
   -1.3235    7.6254    1.5373 C   0  0  0  0  0  0  0  0  0  0  0  0
   -1.5425    7.0488    2.5964 O   0  0  0  0  0  0  0  0  0  0  0  0
   -1.7831    8.9128    1.2748 N   0  0  0  0  0  0  0  0  0  0  0  0
   -2.5042    9.6120    2.2737 C   0  0  0  0  0  0  0  0  0  0  0  0
   -2.0586    9.6348    3.6028 C   0  0  0  0  0  0  0  0  0  0  0  0
   -2.8247   10.2304    4.6050 C   0  0  0  0  0  0  0  0  0  0  0  0
   -4.0505   10.8079    4.2862 C   0  0  0  0  0  0  0  0  0  0  0  0
   -4.4847   10.8062    2.9527 C   0  0  0  0  0  0  0  0  0  0  0  0
   -5.7970   11.3735    2.6226 N   0  3  0  0  0  0  0  0  0  0  0  0
   -6.4625   11.8662    3.5443 O   0  0  0  0  0  0  0  0  0  0  0  0
   -6.1630   11.3251    1.4392 O   0  5  0  0  0  0  0  0  0  0  0  0
   -3.7039   10.2350    1.9351 C   0  0  0  0  0  0  0  0  0  0  0  0
    0.3664    5.3264   -0.8515 C   0  0  0  0  0  0  0  0  0  0  0  0
    0.7087    3.9766   -1.0532 C   0  0  0  0  0  0  0  0  0  0  0  0
    2.0308    1.1250   -0.9808 C   0  0  0  0  0  0  0  0  0  0  0  0
    4.3369    3.1427   -2.3379 H   0  0  0  0  0  0  0  0  0  0  0  0
    3.2442    3.5992   -1.1320 H   0  0  0  0  0  0  0  0  0  0  0  0
    1.6606   -2.2889   -0.6431 H   0  0  0  0  0  0  0  0  0  0  0  0
   -0.2853   -1.5205    0.7360 H   0  0  0  0  0  0  0  0  0  0  0  0
   -0.7727    0.8482    0.9605 H   0  0  0  0  0  0  0  0  0  0  0  0
   -0.1924    2.7692    1.9793 H   0  0  0  0  0  0  0  0  0  0  0  0
   -0.9240    5.0076    2.2695 H   0  0  0  0  0  0  0  0  0  0  0  0
   -0.4143    7.7072   -0.2989 H   0  0  0  0  0  0  0  0  0  0  0  0
   -2.0726    9.0627    0.3184 H   0  0  0  0  0  0  0  0  0  0  0  0
   -1.1150    9.1640    3.8759 H   0  0  0  0  0  0  0  0  0  0  0  0
   -2.4730   10.2160    5.6343 H   0  0  0  0  0  0  0  0  0  0  0  0
   -4.6551   11.2379    5.0817 H   0  0  0  0  0  0  0  0  0  0  0  0
   -4.0648   10.2070    0.9104 H   0  0  0  0  0  0  0  0  0  0  0  0
    0.5522    6.0320   -1.6572 H   0  0  0  0  0  0  0  0  0  0  0  0
    1.0835    3.6942   -2.0353 H   0  0  0  0  0  0  0  0  0  0  0  0
  1  2  1  0  0  0  0
  1 30  1  0  0  0  0
  1 31  1  0  0  0  0
  2  3  2  0  0  0  0
  2 29  1  0  0  0  0
  3  4  1  0  0  0  0
  4  5  1  0  0  0  0
  5  6  1  0  0  0  0
  5 29  2  0  0  0  0
  6  7  2  0  0  0  0
  6 32  1  0  0  0  0
  7  8  1  0  0  0  0
  7 33  1  0  0  0  0
  8  9  2  0  0  0  0
  8 34  1  0  0  0  0
  9 10  1  0  0  0  0
  9 29  1  0  0  0  0
 10 11  1  0  0  0  0
 10 28  2  0  0  0  0
 11 12  2  0  0  0  0
 11 35  1  0  0  0  0
 12 13  1  0  0  0  0
 12 36  1  0  0  0  0
 13 14  1  0  0  0  0
 13 27  2  0  0  0  0
 14 15  1  0  0  0  0
 14 37  1  0  0  0  0
 15 16  2  0  0  0  0
 15 17  1  0  0  0  0
 17 18  1  0  0  0  0
 17 38  1  0  0  0  0
 18 19  1  0  0  0  0
 18 26  2  0  0  0  0
 19 20  2  0  0  0  0
 19 39  1  0  0  0  0
 20 21  1  0  0  0  0
 20 40  1  0  0  0  0
 21 22  2  0  0  0  0
 21 41  1  0  0  0  0
 22 23  1  0  0  0  0
 22 26  1  0  0  0  0
 23 24  2  0  0  0  0
 23 25  1  0  0  0  0
 26 42  1  0  0  0  0
 27 28  1  0  0  0  0
 27 43  1  0  0  0  0
 28 44  1  0  0  0  0
M  CHG  2  23   1  25  -1
M  END
$$$$
