CHEMBL3287310
 OpenBabel04072215363D

 67 71  0  0  0  0  0  0  0  0999 V2000
   16.3286   -5.9796   -2.8084 C   0  0  0  0  0  0  0  0  0  0  0  0
   17.7115   -4.8790   -2.8367 S   0  0  0  0  0  0  0  0  0  0  0  0
   18.2673   -4.8817   -1.4961 O   0  0  0  0  0  0  0  0  0  0  0  0
   18.5518   -5.2609   -3.9589 O   0  0  0  0  0  0  0  0  0  0  0  0
   17.0108   -3.2704   -3.2400 C   0  0  0  0  0  0  0  0  0  0  0  0
   16.0039   -2.8252   -2.2145 C   0  0  0  0  0  0  0  0  0  0  0  0
   16.4021   -2.6302   -0.8865 C   0  0  0  0  0  0  0  0  0  0  0  0
   15.4984   -2.2263    0.0704 C   0  0  0  0  0  0  0  0  0  0  0  0
   14.1802   -2.0105   -0.2974 C   0  0  0  0  0  0  0  0  0  0  0  0
   13.7277   -2.1320   -1.6195 C   0  0  0  0  0  0  0  0  0  0  0  0
   12.4085   -1.8181   -1.9981 N   0  0  0  0  0  0  0  0  0  0  0  0
   11.3972   -1.1855   -1.2676 C   0  0  0  0  0  0  0  0  0  0  0  0
   10.2456   -0.8848   -1.8772 N   0  0  0  0  0  0  0  0  0  0  0  0
    9.3204   -0.2263   -1.1370 C   0  0  0  0  0  0  0  0  0  0  0  0
    9.5039    0.1641    0.1717 C   0  0  0  0  0  0  0  0  0  0  0  0
   10.7262   -0.1519    0.6888 C   0  0  0  0  0  0  0  0  0  0  0  0
   11.0707    0.2795    1.9670 O   0  0  0  0  0  0  0  0  0  0  0  0
   12.4250    0.4353    2.2171 C   0  0  0  0  0  0  0  0  0  0  0  0
   13.2798    1.0736    1.3122 C   0  0  0  0  0  0  0  0  0  0  0  0
   14.6561    1.1378    1.5544 C   0  0  0  0  0  0  0  0  0  0  0  0
   15.2020    0.6134    2.7264 C   0  0  0  0  0  0  0  0  0  0  0  0
   16.5863    0.6264    3.0083 N   0  0  0  0  0  0  0  0  0  0  0  0
   17.5771    1.2448    2.2666 C   0  0  0  0  0  0  0  0  0  0  0  0
   17.4418    1.8748    1.2272 O   0  0  0  0  0  0  0  0  0  0  0  0
   18.9632    1.0732    2.8099 C   0  0  0  0  0  0  0  0  0  0  0  0
   19.8854    0.0725    2.1619 C   0  0  0  0  0  0  0  0  0  0  0  0
   21.0112   -0.0622    2.6451 O   0  0  0  0  0  0  0  0  0  0  0  0
   19.4293   -0.6318    1.0519 N   0  0  0  0  0  0  0  0  0  0  0  0
   20.1621   -1.6864    0.4526 C   0  0  0  0  0  0  0  0  0  0  0  0
   21.1360   -2.4149    1.1531 C   0  0  0  0  0  0  0  0  0  0  0  0
   21.8638   -3.4300    0.5335 C   0  0  0  0  0  0  0  0  0  0  0  0
   21.5978   -3.7448   -0.7872 C   0  0  0  0  0  0  0  0  0  0  0  0
   22.2838   -4.7289   -1.3818 F   0  0  0  0  0  0  0  0  0  0  0  0
   20.6278   -3.0501   -1.4983 C   0  0  0  0  0  0  0  0  0  0  0  0
   19.9033   -2.0241   -0.8778 C   0  0  0  0  0  0  0  0  0  0  0  0
   19.1969    1.3087    4.3124 C   0  0  0  0  0  0  0  0  0  0  0  0
   19.6404    2.3517    3.3353 C   0  0  0  0  0  0  0  0  0  0  0  0
   14.3389    0.0273    3.6623 C   0  0  0  0  0  0  0  0  0  0  0  0
   12.9634   -0.0539    3.4059 C   0  0  0  0  0  0  0  0  0  0  0  0
   12.1739   -0.6393    4.3180 F   0  0  0  0  0  0  0  0  0  0  0  0
   11.6319   -0.8494   -0.0012 N   0  0  0  0  0  0  0  0  0  0  0  0
   14.6671   -2.5476   -2.5758 C   0  0  0  0  0  0  0  0  0  0  0  0
   16.7122   -6.9779   -2.5827 H   0  0  0  0  0  0  0  0  0  0  0  0
   15.8486   -5.9694   -3.7879 H   0  0  0  0  0  0  0  0  0  0  0  0
   15.6388   -5.6682   -2.0237 H   0  0  0  0  0  0  0  0  0  0  0  0
   16.5623   -3.3618   -4.2350 H   0  0  0  0  0  0  0  0  0  0  0  0
   17.8307   -2.5485   -3.3069 H   0  0  0  0  0  0  0  0  0  0  0  0
   17.4167   -2.8244   -0.5586 H   0  0  0  0  0  0  0  0  0  0  0  0
   15.8042   -2.0901    1.1031 H   0  0  0  0  0  0  0  0  0  0  0  0
   13.5165   -1.7436    0.5126 H   0  0  0  0  0  0  0  0  0  0  0  0
   12.1219   -1.9844   -2.9495 H   0  0  0  0  0  0  0  0  0  0  0  0
    8.3929    0.0009   -1.6569 H   0  0  0  0  0  0  0  0  0  0  0  0
    8.7554    0.6983    0.7361 H   0  0  0  0  0  0  0  0  0  0  0  0
   12.9033    1.4627    0.3693 H   0  0  0  0  0  0  0  0  0  0  0  0
   15.2736    1.5693    0.7733 H   0  0  0  0  0  0  0  0  0  0  0  0
   16.8797    0.1554    3.8560 H   0  0  0  0  0  0  0  0  0  0  0  0
   18.6259   -0.2680    0.5470 H   0  0  0  0  0  0  0  0  0  0  0  0
   21.3439   -2.2218    2.2009 H   0  0  0  0  0  0  0  0  0  0  0  0
   22.6231   -3.9753    1.0821 H   0  0  0  0  0  0  0  0  0  0  0  0
   20.4275   -3.3392   -2.5250 H   0  0  0  0  0  0  0  0  0  0  0  0
   19.1469   -1.4966   -1.4504 H   0  0  0  0  0  0  0  0  0  0  0  0
   19.9666    0.7163    4.8012 H   0  0  0  0  0  0  0  0  0  0  0  0
   18.3696    1.5600    4.9625 H   0  0  0  0  0  0  0  0  0  0  0  0
   20.7066    2.4707    3.1636 H   0  0  0  0  0  0  0  0  0  0  0  0
   19.0916    3.2855    3.2995 H   0  0  0  0  0  0  0  0  0  0  0  0
   14.7109   -0.3818    4.5980 H   0  0  0  0  0  0  0  0  0  0  0  0
   14.3594   -2.6490   -3.6147 H   0  0  0  0  0  0  0  0  0  0  0  0
  1  2  1  0  0  0  0
  1 43  1  0  0  0  0
  1 44  1  0  0  0  0
  1 45  1  0  0  0  0
  2  3  2  0  0  0  0
  2  4  2  0  0  0  0
  2  5  1  0  0  0  0
  5  6  1  0  0  0  0
  5 46  1  0  0  0  0
  5 47  1  0  0  0  0
  6  7  1  0  0  0  0
  6 42  2  0  0  0  0
  7  8  2  0  0  0  0
  7 48  1  0  0  0  0
  8  9  1  0  0  0  0
  8 49  1  0  0  0  0
  9 10  2  0  0  0  0
  9 50  1  0  0  0  0
 10 11  1  0  0  0  0
 10 42  1  0  0  0  0
 11 12  1  0  0  0  0
 11 51  1  0  0  0  0
 12 13  1  0  0  0  0
 12 41  2  0  0  0  0
 13 14  2  0  0  0  0
 14 15  1  0  0  0  0
 14 52  1  0  0  0  0
 15 16  2  0  0  0  0
 15 53  1  0  0  0  0
 16 17  1  0  0  0  0
 16 41  1  0  0  0  0
 17 18  1  0  0  0  0
 18 19  1  0  0  0  0
 18 39  2  0  0  0  0
 19 20  2  0  0  0  0
 19 54  1  0  0  0  0
 20 21  1  0  0  0  0
 20 55  1  0  0  0  0
 21 22  1  0  0  0  0
 21 38  2  0  0  0  0
 22 23  1  0  0  0  0
 22 56  1  0  0  0  0
 23 24  2  0  0  0  0
 23 25  1  0  0  0  0
 25 26  1  0  0  0  0
 25 36  1  0  0  0  0
 25 37  1  0  0  0  0
 26 27  2  0  0  0  0
 26 28  1  0  0  0  0
 28 29  1  0  0  0  0
 28 57  1  0  0  0  0
 29 30  1  0  0  0  0
 29 35  2  0  0  0  0
 30 31  2  0  0  0  0
 30 58  1  0  0  0  0
 31 32  1  0  0  0  0
 31 59  1  0  0  0  0
 32 33  1  0  0  0  0
 32 34  2  0  0  0  0
 34 35  1  0  0  0  0
 34 60  1  0  0  0  0
 35 61  1  0  0  0  0
 36 37  1  0  0  0  0
 36 62  1  0  0  0  0
 36 63  1  0  0  0  0
 37 64  1  0  0  0  0
 37 65  1  0  0  0  0
 38 39  1  0  0  0  0
 38 66  1  0  0  0  0
 39 40  1  0  0  0  0
 42 67  1  0  0  0  0
M  END
$$$$
