CHEMBL446182
 OpenBabel04072215383D

 50 53  0  0  0  0  0  0  0  0999 V2000
    6.0859   -9.3560   -1.0148 C   0  0  0  0  0  0  0  0  0  0  0  0
    6.4608   -8.2630   -0.1812 O   0  0  0  0  0  0  0  0  0  0  0  0
    6.0553   -7.0217   -0.6020 C   0  0  0  0  0  0  0  0  0  0  0  0
    5.3526   -6.7662   -1.7804 C   0  0  0  0  0  0  0  0  0  0  0  0
    4.9557   -5.4717   -2.1233 C   0  0  0  0  0  0  0  0  0  0  0  0
    5.2843   -4.4381   -1.2447 C   0  0  0  0  0  0  0  0  0  0  0  0
    5.0046   -3.0928   -1.3248 N   0  0  0  0  0  0  0  0  0  0  0  0
    5.5185   -2.4370   -0.2389 C   0  0  0  0  0  0  0  0  0  0  0  0
    6.1738   -3.3678    0.5372 C   0  0  0  0  0  0  0  0  0  0  0  0
    6.8848   -3.0457    1.7161 C   0  0  0  0  0  0  0  0  0  0  0  0
    6.4410   -2.9445    2.9753 C   0  0  0  0  0  0  0  0  0  0  0  0
    5.0929   -3.1810    3.4823 C   0  0  0  0  0  0  0  0  0  0  0  0
    4.6883   -4.4712    3.8346 C   0  0  0  0  0  0  0  0  0  0  0  0
    3.4279   -4.7047    4.4089 C   0  0  0  0  0  0  0  0  0  0  0  0
    3.0334   -5.9522    4.8176 O   0  0  0  0  0  0  0  0  0  0  0  0
    3.9301   -7.0439    4.6757 C   0  0  0  0  0  0  0  0  0  0  0  0
    2.5342   -3.6247    4.6061 C   0  0  0  0  0  0  0  0  0  0  0  0
    1.2537   -3.7156    5.0895 O   0  0  0  0  0  0  0  0  0  0  0  0
    0.7084   -4.9688    5.4691 C   0  0  0  0  0  0  0  0  0  0  0  0
    2.9574   -2.3219    4.2575 C   0  0  0  0  0  0  0  0  0  0  0  0
    2.2466   -1.1514    4.3959 O   0  0  0  0  0  0  0  0  0  0  0  0
    1.3690   -1.0542    5.5125 C   0  0  0  0  0  0  0  0  0  0  0  0
    4.2146   -2.1176    3.6745 C   0  0  0  0  0  0  0  0  0  0  0  0
    7.5765   -2.4972    3.8117 C   0  0  0  0  0  0  0  0  0  0  0  0
    7.5413   -2.2489    4.9980 O   0  0  0  0  0  0  0  0  0  0  0  0
    8.6543   -2.4015    3.0018 N   0  0  0  0  0  0  0  0  0  0  0  0
    8.3216   -2.6828    1.7225 C   0  0  0  0  0  0  0  0  0  0  0  0
    9.0660   -2.6235    0.7616 O   0  0  0  0  0  0  0  0  0  0  0  0
    6.0049   -4.6467   -0.0672 C   0  0  0  0  0  0  0  0  0  0  0  0
    6.3936   -5.9651    0.2559 C   0  0  0  0  0  0  0  0  0  0  0  0
    6.4533  -10.2775   -0.5544 H   0  0  0  0  0  0  0  0  0  0  0  0
    6.5475   -9.2707   -2.0042 H   0  0  0  0  0  0  0  0  0  0  0  0
    4.9963   -9.4349   -1.0932 H   0  0  0  0  0  0  0  0  0  0  0  0
    5.0859   -7.5626   -2.4665 H   0  0  0  0  0  0  0  0  0  0  0  0
    4.4051   -5.2882   -3.0405 H   0  0  0  0  0  0  0  0  0  0  0  0
    4.4952   -2.6579   -2.0827 H   0  0  0  0  0  0  0  0  0  0  0  0
    5.3904   -1.3680   -0.1314 H   0  0  0  0  0  0  0  0  0  0  0  0
    5.3854   -5.2871    3.6676 H   0  0  0  0  0  0  0  0  0  0  0  0
    3.4541   -7.9212    5.1245 H   0  0  0  0  0  0  0  0  0  0  0  0
    4.8660   -6.8666    5.2147 H   0  0  0  0  0  0  0  0  0  0  0  0
    4.1094   -7.2634    3.6188 H   0  0  0  0  0  0  0  0  0  0  0  0
   -0.3417   -4.8059    5.7306 H   0  0  0  0  0  0  0  0  0  0  0  0
    1.2073   -5.3573    6.3628 H   0  0  0  0  0  0  0  0  0  0  0  0
    0.7150   -5.6855    4.6420 H   0  0  0  0  0  0  0  0  0  0  0  0
    1.1515    0.0071    5.6725 H   0  0  0  0  0  0  0  0  0  0  0  0
    1.8205   -1.4395    6.4337 H   0  0  0  0  0  0  0  0  0  0  0  0
    0.4126   -1.5382    5.2962 H   0  0  0  0  0  0  0  0  0  0  0  0
    4.5084   -1.1067    3.3991 H   0  0  0  0  0  0  0  0  0  0  0  0
    9.5617   -2.0851    3.2955 H   0  0  0  0  0  0  0  0  0  0  0  0
    6.9453   -6.1678    1.1692 H   0  0  0  0  0  0  0  0  0  0  0  0
  1  2  1  0  0  0  0
  1 31  1  0  0  0  0
  1 32  1  0  0  0  0
  1 33  1  0  0  0  0
  2  3  1  0  0  0  0
  3  4  1  0  0  0  0
  3 30  2  0  0  0  0
  4  5  2  0  0  0  0
  4 34  1  0  0  0  0
  5  6  1  0  0  0  0
  5 35  1  0  0  0  0
  6  7  1  0  0  0  0
  6 29  2  0  0  0  0
  7  8  1  0  0  0  0
  7 36  1  0  0  0  0
  8  9  2  0  0  0  0
  8 37  1  0  0  0  0
  9 10  1  0  0  0  0
  9 29  1  0  0  0  0
 10 11  2  0  0  0  0
 10 27  1  0  0  0  0
 11 12  1  0  0  0  0
 11 24  1  0  0  0  0
 12 13  1  0  0  0  0
 12 23  2  0  0  0  0
 13 14  2  0  0  0  0
 13 38  1  0  0  0  0
 14 15  1  0  0  0  0
 14 17  1  0  0  0  0
 15 16  1  0  0  0  0
 16 39  1  0  0  0  0
 16 40  1  0  0  0  0
 16 41  1  0  0  0  0
 17 18  1  0  0  0  0
 17 20  2  0  0  0  0
 18 19  1  0  0  0  0
 19 42  1  0  0  0  0
 19 43  1  0  0  0  0
 19 44  1  0  0  0  0
 20 21  1  0  0  0  0
 20 23  1  0  0  0  0
 21 22  1  0  0  0  0
 22 45  1  0  0  0  0
 22 46  1  0  0  0  0
 22 47  1  0  0  0  0
 23 48  1  0  0  0  0
 24 25  2  0  0  0  0
 24 26  1  0  0  0  0
 26 27  1  0  0  0  0
 26 49  1  0  0  0  0
 27 28  2  0  0  0  0
 29 30  1  0  0  0  0
 30 50  1  0  0  0  0
M  END
$$$$
