CHEMBL1095360
 OpenBabel04072215363D

 72 77  0  0  0  0  0  0  0  0999 V2000
    1.4275    3.1003   -2.5273 C   0  0  0  0  0  0  0  0  0  0  0  0
    2.5758    2.2599   -2.4713 O   0  0  0  0  0  0  0  0  0  0  0  0
    3.6726    2.9235   -1.8322 C   0  0  0  0  0  0  0  0  0  0  0  0
    4.8692    1.9723   -1.7446 C   0  0  0  0  0  0  0  0  0  0  0  0
    5.3241    1.5546   -3.0668 N   0  0  0  0  0  0  0  0  0  0  0  0
    6.6477    1.2423   -3.3053 C   0  0  0  0  0  0  0  0  0  0  0  0
    7.5330    1.3584   -2.4665 O   0  0  0  0  0  0  0  0  0  0  0  0
    6.9937    0.8094   -4.6746 C   0  0  0  0  0  0  0  0  0  0  0  0
    8.2657    1.0838   -5.1862 C   0  0  0  0  0  0  0  0  0  0  0  0
    8.5729    0.7439   -6.5047 C   0  0  0  0  0  0  0  0  0  0  0  0
    7.5934    0.1293   -7.2739 C   0  0  0  0  0  0  0  0  0  0  0  0
    7.8331   -0.2553   -8.6636 C   0  0  0  0  0  0  0  0  0  0  0  0
    8.4690    0.4162   -9.6954 C   0  0  0  0  0  0  0  0  0  0  0  0
    8.5763   -0.3655  -10.8890 C   0  0  0  0  0  0  0  0  0  0  0  0
    9.1751    0.0083  -12.0552 N   0  0  0  0  0  0  0  0  0  0  0  0
    9.2886   -0.9644  -12.9894 C   0  0  0  0  0  0  0  0  0  0  0  0
    8.8883   -2.2788  -12.8388 C   0  0  0  0  0  0  0  0  0  0  0  0
    8.2413   -2.6260  -11.6652 C   0  0  0  0  0  0  0  0  0  0  0  0
    8.0112   -3.8990  -11.2595 O   0  0  0  0  0  0  0  0  0  0  0  0
    7.4045   -4.8359  -12.0290 C   0  0  0  0  0  0  0  0  0  0  0  0
    7.5182   -6.1009  -11.4572 C   0  0  0  0  0  0  0  0  0  0  0  0
    6.8943   -7.1871  -12.0382 C   0  0  0  0  0  0  0  0  0  0  0  0
    6.1355   -7.0161  -13.1942 C   0  0  0  0  0  0  0  0  0  0  0  0
    5.4259   -8.0795  -13.7626 N   0  0  0  0  0  0  0  0  0  0  0  0
    5.0681   -9.2262  -13.0816 C   0  0  0  0  0  0  0  0  0  0  0  0
    5.1852   -9.4368  -11.8829 O   0  0  0  0  0  0  0  0  0  0  0  0
    4.5191  -10.2387  -13.9449 C   0  0  0  0  0  0  0  0  0  0  0  0
    3.6587  -10.1022  -15.0383 C   0  0  0  0  0  0  0  0  0  0  0  0
    3.4729  -11.2536  -15.6694 N   0  0  0  0  0  0  0  0  0  0  0  0
    4.0926  -12.1862  -14.8912 N   0  0  0  0  0  0  0  0  0  0  0  0
    3.9359  -13.5528  -15.2300 C   0  0  0  0  0  0  0  0  0  0  0  0
    3.7336  -13.8834  -16.5774 C   0  0  0  0  0  0  0  0  0  0  0  0
    3.5888  -15.2166  -16.9557 C   0  0  0  0  0  0  0  0  0  0  0  0
    3.6151  -16.2155  -15.9936 C   0  0  0  0  0  0  0  0  0  0  0  0
    3.7795  -15.8911  -14.6469 C   0  0  0  0  0  0  0  0  0  0  0  0
    3.9386  -14.5591  -14.2629 C   0  0  0  0  0  0  0  0  0  0  0  0
    4.8102  -11.5923  -13.8765 C   0  0  0  0  0  0  0  0  0  0  0  0
    5.7950  -12.3020  -13.0390 C   0  0  0  0  0  0  0  0  0  0  0  0
    6.7021  -11.4729  -12.4687 F   0  0  0  0  0  0  0  0  0  0  0  0
    5.2146  -12.9962  -12.0288 F   0  0  0  0  0  0  0  0  0  0  0  0
    6.5283  -13.1865  -13.7644 F   0  0  0  0  0  0  0  0  0  0  0  0
    6.0630   -5.7636  -13.8065 C   0  0  0  0  0  0  0  0  0  0  0  0
    6.6714   -4.6685  -13.1991 C   0  0  0  0  0  0  0  0  0  0  0  0
    6.4928   -3.4638  -13.7578 F   0  0  0  0  0  0  0  0  0  0  0  0
    8.0655   -1.6389  -10.6938 C   0  0  0  0  0  0  0  0  0  0  0  0
    7.3069   -1.7992   -9.1692 S   0  0  0  0  0  0  0  0  0  0  0  0
    6.3703   -0.1947   -6.7824 N   0  0  0  0  0  0  0  0  0  0  0  0
    6.1039    0.1358   -5.4959 C   0  0  0  0  0  0  0  0  0  0  0  0
    0.6166    2.5482   -3.0100 H   0  0  0  0  0  0  0  0  0  0  0  0
    1.6393    3.9973   -3.1173 H   0  0  0  0  0  0  0  0  0  0  0  0
    1.1057    3.3810   -1.5193 H   0  0  0  0  0  0  0  0  0  0  0  0
    3.3766    3.2256   -0.8216 H   0  0  0  0  0  0  0  0  0  0  0  0
    3.9387    3.8150   -2.4115 H   0  0  0  0  0  0  0  0  0  0  0  0
    4.5897    1.0577   -1.2119 H   0  0  0  0  0  0  0  0  0  0  0  0
    5.6893    2.4555   -1.2072 H   0  0  0  0  0  0  0  0  0  0  0  0
    4.6004    1.4220   -3.7564 H   0  0  0  0  0  0  0  0  0  0  0  0
    9.0126    1.5703   -4.5633 H   0  0  0  0  0  0  0  0  0  0  0  0
    9.5603    0.9448   -6.9069 H   0  0  0  0  0  0  0  0  0  0  0  0
    8.8780    1.4135   -9.6053 H   0  0  0  0  0  0  0  0  0  0  0  0
    9.7767   -0.6553  -13.9113 H   0  0  0  0  0  0  0  0  0  0  0  0
    9.0992   -3.0137  -13.6065 H   0  0  0  0  0  0  0  0  0  0  0  0
    8.0756   -6.2341  -10.5324 H   0  0  0  0  0  0  0  0  0  0  0  0
    7.0257   -8.1546  -11.5630 H   0  0  0  0  0  0  0  0  0  0  0  0
    5.1151   -7.9625  -14.7174 H   0  0  0  0  0  0  0  0  0  0  0  0
    3.1828   -9.2088  -15.4263 H   0  0  0  0  0  0  0  0  0  0  0  0
    3.7184  -13.1093  -17.3462 H   0  0  0  0  0  0  0  0  0  0  0  0
    3.4539  -15.4628  -18.0042 H   0  0  0  0  0  0  0  0  0  0  0  0
    3.4915  -17.2572  -16.2865 H   0  0  0  0  0  0  0  0  0  0  0  0
    3.7694  -16.6767  -13.8943 H   0  0  0  0  0  0  0  0  0  0  0  0
    3.9972  -14.3506  -13.1988 H   0  0  0  0  0  0  0  0  0  0  0  0
    5.4903   -5.6026  -14.7151 H   0  0  0  0  0  0  0  0  0  0  0  0
    5.1267   -0.1870   -5.1498 H   0  0  0  0  0  0  0  0  0  0  0  0
  1  2  1  0  0  0  0
  1 49  1  0  0  0  0
  1 50  1  0  0  0  0
  1 51  1  0  0  0  0
  2  3  1  0  0  0  0
  3  4  1  0  0  0  0
  3 52  1  0  0  0  0
  3 53  1  0  0  0  0
  4  5  1  0  0  0  0
  4 54  1  0  0  0  0
  4 55  1  0  0  0  0
  5  6  1  0  0  0  0
  5 56  1  0  0  0  0
  6  7  2  0  0  0  0
  6  8  1  0  0  0  0
  8  9  1  0  0  0  0
  8 48  2  0  0  0  0
  9 10  2  0  0  0  0
  9 57  1  0  0  0  0
 10 11  1  0  0  0  0
 10 58  1  0  0  0  0
 11 12  1  0  0  0  0
 11 47  2  0  0  0  0
 12 13  2  0  0  0  0
 12 46  1  0  0  0  0
 13 14  1  0  0  0  0
 13 59  1  0  0  0  0
 14 15  1  0  0  0  0
 14 45  2  0  0  0  0
 15 16  2  0  0  0  0
 16 17  1  0  0  0  0
 16 60  1  0  0  0  0
 17 18  2  0  0  0  0
 17 61  1  0  0  0  0
 18 19  1  0  0  0  0
 18 45  1  0  0  0  0
 19 20  1  0  0  0  0
 20 21  1  0  0  0  0
 20 43  2  0  0  0  0
 21 22  2  0  0  0  0
 21 62  1  0  0  0  0
 22 23  1  0  0  0  0
 22 63  1  0  0  0  0
 23 24  1  0  0  0  0
 23 42  2  0  0  0  0
 24 25  1  0  0  0  0
 24 64  1  0  0  0  0
 25 26  2  0  0  0  0
 25 27  1  0  0  0  0
 27 28  1  0  0  0  0
 27 37  2  0  0  0  0
 28 29  2  0  0  0  0
 28 65  1  0  0  0  0
 29 30  1  0  0  0  0
 30 31  1  0  0  0  0
 30 37  1  0  0  0  0
 31 32  1  0  0  0  0
 31 36  2  0  0  0  0
 32 33  2  0  0  0  0
 32 66  1  0  0  0  0
 33 34  1  0  0  0  0
 33 67  1  0  0  0  0
 34 35  2  0  0  0  0
 34 68  1  0  0  0  0
 35 36  1  0  0  0  0
 35 69  1  0  0  0  0
 36 70  1  0  0  0  0
 37 38  1  0  0  0  0
 38 39  1  0  0  0  0
 38 40  1  0  0  0  0
 38 41  1  0  0  0  0
 42 43  1  0  0  0  0
 42 71  1  0  0  0  0
 43 44  1  0  0  0  0
 45 46  1  0  0  0  0
 47 48  1  0  0  0  0
 48 72  1  0  0  0  0
M  END
$$$$
