CHEMBL286160
 OpenBabel04072215363D

 43 45  0  0  0  0  0  0  0  0999 V2000
    0.9774   -0.4858   -0.7353 C   0  0  0  0  0  0  0  0  0  0  0  0
    2.2325   -0.2908   -0.1143 O   0  0  0  0  0  0  0  0  0  0  0  0
    2.7266   -1.4620    0.5406 C   0  0  0  0  0  0  0  0  0  0  0  0
    4.0412   -1.0395    1.1778 C   0  0  0  0  0  0  0  0  0  0  0  0
    4.7070   -2.1010    1.8272 O   0  0  0  0  0  0  0  0  0  0  0  0
    6.0620   -1.9927    2.0120 C   0  0  0  0  0  0  0  0  0  0  0  0
    6.6324   -3.2704    2.2003 C   0  0  0  0  0  0  0  0  0  0  0  0
    7.9961   -3.4904    2.3505 C   0  0  0  0  0  0  0  0  0  0  0  0
    8.4504   -4.7448    2.4673 N   0  0  0  0  0  0  0  0  0  0  0  0
    9.7704   -4.9004    2.6387 C   0  0  0  0  0  0  0  0  0  0  0  0
   10.6567   -3.9112    2.7357 N   0  0  0  0  0  0  0  0  0  0  0  0
   10.1929   -2.6534    2.6240 C   0  0  0  0  0  0  0  0  0  0  0  0
   11.1041   -1.5895    2.8007 N   0  0  0  0  0  0  0  0  0  0  0  0
   12.3504   -1.7021    3.4609 C   0  0  0  0  0  0  0  0  0  0  0  0
   12.4790   -2.4581    4.6336 C   0  0  0  0  0  0  0  0  0  0  0  0
   13.7231   -2.6265    5.2406 C   0  0  0  0  0  0  0  0  0  0  0  0
   14.8491   -2.0239    4.6852 C   0  0  0  0  0  0  0  0  0  0  0  0
   16.3902   -2.2873    5.4004 Cl  0  0  0  0  0  0  0  0  0  0  0  0
   14.7359   -1.2172    3.5573 C   0  0  0  0  0  0  0  0  0  0  0  0
   13.4876   -1.0549    2.9649 C   0  0  0  0  0  0  0  0  0  0  0  0
   13.3815   -0.2863    1.8675 F   0  0  0  0  0  0  0  0  0  0  0  0
    8.8373   -2.3814    2.3757 C   0  0  0  0  0  0  0  0  0  0  0  0
    8.2857   -1.0906    2.1916 C   0  0  0  0  0  0  0  0  0  0  0  0
    6.9109   -0.8803    1.9980 C   0  0  0  0  0  0  0  0  0  0  0  0
    6.6528    0.4154    1.6531 O   0  0  0  0  0  0  0  0  0  0  0  0
    5.6523    1.1481    2.3434 C   0  0  0  0  0  0  0  0  0  0  0  0
    0.6974    0.4551   -1.2180 H   0  0  0  0  0  0  0  0  0  0  0  0
    0.2173   -0.7351    0.0098 H   0  0  0  0  0  0  0  0  0  0  0  0
    1.0445   -1.2653   -1.4980 H   0  0  0  0  0  0  0  0  0  0  0  0
    2.8769   -2.2775   -0.1742 H   0  0  0  0  0  0  0  0  0  0  0  0
    2.0202   -1.7982    1.3098 H   0  0  0  0  0  0  0  0  0  0  0  0
    3.7597   -0.3027    1.9305 H   0  0  0  0  0  0  0  0  0  0  0  0
    4.6669   -0.5865    0.4018 H   0  0  0  0  0  0  0  0  0  0  0  0
    5.9777   -4.1414    2.1955 H   0  0  0  0  0  0  0  0  0  0  0  0
   10.1484   -5.9125    2.7042 H   0  0  0  0  0  0  0  0  0  0  0  0
   11.1591   -1.0022    1.9705 H   0  0  0  0  0  0  0  0  0  0  0  0
   11.6050   -2.9384    5.0694 H   0  0  0  0  0  0  0  0  0  0  0  0
   13.8045   -3.2477    6.1282 H   0  0  0  0  0  0  0  0  0  0  0  0
   15.6001   -0.7305    3.1248 H   0  0  0  0  0  0  0  0  0  0  0  0
    8.9450   -0.2242    2.1783 H   0  0  0  0  0  0  0  0  0  0  0  0
    6.0801    2.0809    2.7216 H   0  0  0  0  0  0  0  0  0  0  0  0
    5.1996    0.6098    3.1804 H   0  0  0  0  0  0  0  0  0  0  0  0
    4.8973    1.4461    1.6067 H   0  0  0  0  0  0  0  0  0  0  0  0
  1  2  1  0  0  0  0
  1 27  1  0  0  0  0
  1 28  1  0  0  0  0
  1 29  1  0  0  0  0
  2  3  1  0  0  0  0
  3  4  1  0  0  0  0
  3 30  1  0  0  0  0
  3 31  1  0  0  0  0
  4  5  1  0  0  0  0
  4 32  1  0  0  0  0
  4 33  1  0  0  0  0
  5  6  1  0  0  0  0
  6  7  1  0  0  0  0
  6 24  2  0  0  0  0
  7  8  2  0  0  0  0
  7 34  1  0  0  0  0
  8  9  1  0  0  0  0
  8 22  1  0  0  0  0
  9 10  2  0  0  0  0
 10 11  1  0  0  0  0
 10 35  1  0  0  0  0
 11 12  2  0  0  0  0
 12 13  1  0  0  0  0
 12 22  1  0  0  0  0
 13 14  1  0  0  0  0
 13 36  1  0  0  0  0
 14 15  1  0  0  0  0
 14 20  2  0  0  0  0
 15 16  2  0  0  0  0
 15 37  1  0  0  0  0
 16 17  1  0  0  0  0
 16 38  1  0  0  0  0
 17 18  1  0  0  0  0
 17 19  2  0  0  0  0
 19 20  1  0  0  0  0
 19 39  1  0  0  0  0
 20 21  1  0  0  0  0
 22 23  2  0  0  0  0
 23 24  1  0  0  0  0
 23 40  1  0  0  0  0
 24 25  1  0  0  0  0
 25 26  1  0  0  0  0
 26 41  1  0  0  0  0
 26 42  1  0  0  0  0
 26 43  1  0  0  0  0
M  END
$$$$
