CHEMBL212721
 OpenBabel04072215363D

 76 79  0  0  0  0  0  0  0  0999 V2000
    1.3033    0.2049   -0.4698 C   0  0  0  0  0  0  0  0  0  0  0  0
    2.7182    0.1787   -0.3108 O   0  0  0  0  0  0  0  0  0  0  0  0
    3.2654    0.9829    0.6495 C   0  0  0  0  0  0  0  0  0  0  0  0
    2.5736    1.8384    1.5073 C   0  0  0  0  0  0  0  0  0  0  0  0
    3.2658    2.6126    2.4536 C   0  0  0  0  0  0  0  0  0  0  0  0
    4.6681    2.5619    2.5477 C   0  0  0  0  0  0  0  0  0  0  0  0
    5.3746    3.4054    3.4540 N   0  0  0  0  0  0  0  0  0  0  0  0
    6.3160    4.3460    3.0310 C   0  0  0  0  0  0  0  0  0  0  0  0
    7.2314    4.7661    3.7357 O   0  0  0  0  0  0  0  0  0  0  0  0
    6.0672    4.8066    1.7354 O   0  0  0  0  0  0  0  0  0  0  0  0
    6.4528    6.0941    1.2598 C   0  0  0  0  0  0  0  0  0  0  0  0
    6.1813    7.2881    1.9591 C   0  0  0  0  0  0  0  0  0  0  0  0
    5.7179    7.4190    3.3803 C   0  0  0  0  0  0  0  0  0  0  0  0
    6.3069    8.5055    1.2624 C   0  0  0  0  0  0  0  0  0  0  0  0
    6.7089    8.5475   -0.0684 C   0  0  0  0  0  0  0  0  0  0  0  0
    7.0317    7.3670   -0.7278 C   0  0  0  0  0  0  0  0  0  0  0  0
    6.9072    6.1289   -0.0780 C   0  0  0  0  0  0  0  0  0  0  0  0
    7.2918    4.8790   -0.8188 C   0  0  0  0  0  0  0  0  0  0  0  0
    4.8828    3.4974    4.7811 C   0  0  0  0  0  0  0  0  0  0  0  0
    4.8752    2.3559    5.5593 C   0  0  0  0  0  0  0  0  0  0  0  0
    4.3867    2.4918    6.8264 C   0  0  0  0  0  0  0  0  0  0  0  0
    3.8532    3.6370    7.2686 N   0  0  0  0  0  0  0  0  0  0  0  0
    3.8656    4.6992    6.4475 C   0  0  0  0  0  0  0  0  0  0  0  0
    3.2592    5.8785    6.8718 N   0  0  0  0  0  0  0  0  0  0  0  0
    2.1766    6.0147    7.7474 C   0  0  0  0  0  0  0  0  0  0  0  0
    2.0429    7.1750    8.5087 C   0  0  0  0  0  0  0  0  0  0  0  0
    1.0474    7.2813    9.4898 C   0  0  0  0  0  0  0  0  0  0  0  0
    0.1598    6.2276    9.7163 C   0  0  0  0  0  0  0  0  0  0  0  0
   -0.8223    6.1897   10.6676 O   0  0  0  0  0  0  0  0  0  0  0  0
   -0.9051    7.3377   11.5131 C   0  0  0  0  0  0  0  0  0  0  0  0
   -2.0339    7.1364   12.5326 C   0  0  0  0  0  0  0  0  0  0  0  0
   -2.1885    8.2672   13.4707 N   0  0  0  0  0  0  0  0  0  0  0  0
   -2.5296    9.5124   12.7791 C   0  0  0  0  0  0  0  0  0  0  0  0
   -3.2185    7.9538   14.4631 C   0  0  0  0  0  0  0  0  0  0  0  0
    0.2567    5.0819    8.9341 C   0  0  0  0  0  0  0  0  0  0  0  0
    1.2573    4.9787    7.9662 C   0  0  0  0  0  0  0  0  0  0  0  0
    4.4240    4.6852    5.2297 N   0  0  0  0  0  0  0  0  0  0  0  0
    5.3551    1.6703    1.7051 C   0  0  0  0  0  0  0  0  0  0  0  0
    6.7115    1.4523    1.7622 O   0  0  0  0  0  0  0  0  0  0  0  0
    7.1584    1.0360    3.0552 C   0  0  0  0  0  0  0  0  0  0  0  0
    4.6597    0.9104    0.7541 C   0  0  0  0  0  0  0  0  0  0  0  0
    1.0425   -0.5228   -1.2446 H   0  0  0  0  0  0  0  0  0  0  0  0
    0.9620    1.1877   -0.8078 H   0  0  0  0  0  0  0  0  0  0  0  0
    0.7932   -0.0974    0.4518 H   0  0  0  0  0  0  0  0  0  0  0  0
    1.4924    1.9385    1.4551 H   0  0  0  0  0  0  0  0  0  0  0  0
    2.6941    3.3028    3.0738 H   0  0  0  0  0  0  0  0  0  0  0  0
    5.7799    6.5138    3.9695 H   0  0  0  0  0  0  0  0  0  0  0  0
    4.6796    7.7601    3.4110 H   0  0  0  0  0  0  0  0  0  0  0  0
    6.3474    8.1522    3.9000 H   0  0  0  0  0  0  0  0  0  0  0  0
    6.0647    9.4411    1.7646 H   0  0  0  0  0  0  0  0  0  0  0  0
    6.7712    9.5002   -0.5861 H   0  0  0  0  0  0  0  0  0  0  0  0
    7.3608    7.4181   -1.7630 H   0  0  0  0  0  0  0  0  0  0  0  0
    7.5000    5.0911   -1.8742 H   0  0  0  0  0  0  0  0  0  0  0  0
    6.4885    4.1385   -0.7879 H   0  0  0  0  0  0  0  0  0  0  0  0
    8.2027    4.4555   -0.3832 H   0  0  0  0  0  0  0  0  0  0  0  0
    5.2767    1.4118    5.2358 H   0  0  0  0  0  0  0  0  0  0  0  0
    4.4091    1.6866    7.5472 H   0  0  0  0  0  0  0  0  0  0  0  0
    3.6101    6.6953    6.3994 H   0  0  0  0  0  0  0  0  0  0  0  0
    2.7452    7.9929    8.3825 H   0  0  0  0  0  0  0  0  0  0  0  0
    1.0137    8.1955   10.0727 H   0  0  0  0  0  0  0  0  0  0  0  0
   -1.1235    8.2091   10.8877 H   0  0  0  0  0  0  0  0  0  0  0  0
    0.0412    7.4789   12.0498 H   0  0  0  0  0  0  0  0  0  0  0  0
   -1.8021    6.2243   13.1023 H   0  0  0  0  0  0  0  0  0  0  0  0
   -2.9719    6.9268   12.0039 H   0  0  0  0  0  0  0  0  0  0  0  0
   -1.7018    9.8538   12.1492 H   0  0  0  0  0  0  0  0  0  0  0  0
   -2.7026   10.3208   13.4980 H   0  0  0  0  0  0  0  0  0  0  0  0
   -3.4240    9.4064   12.1551 H   0  0  0  0  0  0  0  0  0  0  0  0
   -2.9477    7.0570   15.0312 H   0  0  0  0  0  0  0  0  0  0  0  0
   -4.1991    7.7904   14.0015 H   0  0  0  0  0  0  0  0  0  0  0  0
   -3.3107    8.7682   15.1903 H   0  0  0  0  0  0  0  0  0  0  0  0
   -0.4310    4.2549    9.0894 H   0  0  0  0  0  0  0  0  0  0  0  0
    1.3109    4.0609    7.3838 H   0  0  0  0  0  0  0  0  0  0  0  0
    7.9975    0.3471    2.9325 H   0  0  0  0  0  0  0  0  0  0  0  0
    6.3841    0.5049    3.6190 H   0  0  0  0  0  0  0  0  0  0  0  0
    7.5236    1.8973    3.6212 H   0  0  0  0  0  0  0  0  0  0  0  0
    5.2042    0.2302    0.1032 H   0  0  0  0  0  0  0  0  0  0  0  0
  1  2  1  0  0  0  0
  1 42  1  0  0  0  0
  1 43  1  0  0  0  0
  1 44  1  0  0  0  0
  2  3  1  0  0  0  0
  3  4  1  0  0  0  0
  3 41  2  0  0  0  0
  4  5  2  0  0  0  0
  4 45  1  0  0  0  0
  5  6  1  0  0  0  0
  5 46  1  0  0  0  0
  6  7  1  0  0  0  0
  6 38  2  0  0  0  0
  7  8  1  0  0  0  0
  7 19  1  0  0  0  0
  8  9  2  0  0  0  0
  8 10  1  0  0  0  0
 10 11  1  0  0  0  0
 11 12  1  0  0  0  0
 11 17  2  0  0  0  0
 12 13  1  0  0  0  0
 12 14  2  0  0  0  0
 13 47  1  0  0  0  0
 13 48  1  0  0  0  0
 13 49  1  0  0  0  0
 14 15  1  0  0  0  0
 14 50  1  0  0  0  0
 15 16  2  0  0  0  0
 15 51  1  0  0  0  0
 16 17  1  0  0  0  0
 16 52  1  0  0  0  0
 17 18  1  0  0  0  0
 18 53  1  0  0  0  0
 18 54  1  0  0  0  0
 18 55  1  0  0  0  0
 19 20  1  0  0  0  0
 19 37  2  0  0  0  0
 20 21  2  0  0  0  0
 20 56  1  0  0  0  0
 21 22  1  0  0  0  0
 21 57  1  0  0  0  0
 22 23  2  0  0  0  0
 23 24  1  0  0  0  0
 23 37  1  0  0  0  0
 24 25  1  0  0  0  0
 24 58  1  0  0  0  0
 25 26  1  0  0  0  0
 25 36  2  0  0  0  0
 26 27  2  0  0  0  0
 26 59  1  0  0  0  0
 27 28  1  0  0  0  0
 27 60  1  0  0  0  0
 28 29  1  0  0  0  0
 28 35  2  0  0  0  0
 29 30  1  0  0  0  0
 30 31  1  0  0  0  0
 30 61  1  0  0  0  0
 30 62  1  0  0  0  0
 31 32  1  0  0  0  0
 31 63  1  0  0  0  0
 31 64  1  0  0  0  0
 32 33  1  0  0  0  0
 32 34  1  0  0  0  0
 33 65  1  0  0  0  0
 33 66  1  0  0  0  0
 33 67  1  0  0  0  0
 34 68  1  0  0  0  0
 34 69  1  0  0  0  0
 34 70  1  0  0  0  0
 35 36  1  0  0  0  0
 35 71  1  0  0  0  0
 36 72  1  0  0  0  0
 38 39  1  0  0  0  0
 38 41  1  0  0  0  0
 39 40  1  0  0  0  0
 40 73  1  0  0  0  0
 40 74  1  0  0  0  0
 40 75  1  0  0  0  0
 41 76  1  0  0  0  0
M  END
$$$$
