CHEMBL522601
 OpenBabel04072215383D

 57 61  0  0  0  0  0  0  0  0999 V2000
   -2.0474    1.4573    1.4557 O   0  0  0  0  0  0  0  0  0  0  0  0
   -1.3746    0.4876    1.1670 C   0  0  0  0  0  0  0  0  0  0  0  0
   -1.7134   -0.8160    1.4423 N   0  0  0  0  0  0  0  0  0  0  0  0
   -0.6741   -1.7512    1.1145 C   0  0  0  0  0  0  0  0  0  0  0  0
    0.3850   -0.8697    0.5425 C   0  0  0  0  0  0  0  0  0  0  0  0
    1.6251   -1.2315    0.0477 C   0  0  0  0  0  0  0  0  0  0  0  0
    2.4425   -0.2281   -0.4696 C   0  0  0  0  0  0  0  0  0  0  0  0
    2.0021    1.1077   -0.5081 C   0  0  0  0  0  0  0  0  0  0  0  0
    0.7389    1.4858   -0.0150 C   0  0  0  0  0  0  0  0  0  0  0  0
    0.3005    2.8757   -0.1719 C   0  0  0  0  0  0  0  0  0  0  0  0
    0.6022    3.7968   -1.1617 C   0  0  0  0  0  0  0  0  0  0  0  0
   -0.1621    4.9704   -0.9359 C   0  0  0  0  0  0  0  0  0  0  0  0
   -0.3249    6.1791   -1.6314 C   0  0  0  0  0  0  0  0  0  0  0  0
   -1.2026    7.1428   -1.1288 C   0  0  0  0  0  0  0  0  0  0  0  0
   -1.3076    8.2711   -1.8929 O   0  0  0  0  0  0  0  0  0  0  0  0
   -1.6354    9.4635   -1.1825 C   0  0  0  0  0  0  0  0  0  0  0  0
   -1.0022   10.6124   -1.9495 C   0  0  0  0  0  0  0  0  0  0  0  0
   -1.2484   11.9472   -1.2489 C   0  0  0  0  0  0  0  0  0  0  0  0
   -0.6387   13.0849   -1.9578 N   0  0  0  0  0  0  0  0  0  0  0  0
    0.8259   12.9701   -2.0353 C   0  0  0  0  0  0  0  0  0  0  0  0
    1.4291   14.1200   -2.8367 C   0  0  0  0  0  0  0  0  0  0  0  0
    1.0189   15.4755   -2.2800 C   0  0  0  0  0  0  0  0  0  0  0  0
    1.7015   15.7377   -1.0533 O   0  0  0  0  0  0  0  0  0  0  0  0
   -0.4909   15.5555   -2.0798 C   0  0  0  0  0  0  0  0  0  0  0  0
   -1.0347   14.3486   -1.3148 C   0  0  0  0  0  0  0  0  0  0  0  0
   -1.9254    6.9102    0.0407 C   0  0  0  0  0  0  0  0  0  0  0  0
   -1.7759    5.7153    0.7503 C   0  0  0  0  0  0  0  0  0  0  0  0
   -0.8912    4.7666    0.2290 C   0  0  0  0  0  0  0  0  0  0  0  0
   -0.5897    3.5021    0.6728 N   0  0  0  0  0  0  0  0  0  0  0  0
   -0.0375    0.4698    0.5324 C   0  0  0  0  0  0  0  0  0  0  0  0
   -2.5831   -1.0413    1.9098 H   0  0  0  0  0  0  0  0  0  0  0  0
   -1.0594   -2.4646    0.3818 H   0  0  0  0  0  0  0  0  0  0  0  0
   -0.3458   -2.2542    2.0276 H   0  0  0  0  0  0  0  0  0  0  0  0
    1.9579   -2.2657    0.0569 H   0  0  0  0  0  0  0  0  0  0  0  0
    3.4263   -0.4773   -0.8628 H   0  0  0  0  0  0  0  0  0  0  0  0
    2.6688    1.8554   -0.9354 H   0  0  0  0  0  0  0  0  0  0  0  0
    1.2574    3.6250   -2.0056 H   0  0  0  0  0  0  0  0  0  0  0  0
    0.2180    6.3613   -2.5544 H   0  0  0  0  0  0  0  0  0  0  0  0
   -1.2238    9.4554   -0.1649 H   0  0  0  0  0  0  0  0  0  0  0  0
   -2.7244    9.5732   -1.1415 H   0  0  0  0  0  0  0  0  0  0  0  0
   -1.3858   10.6358   -2.9772 H   0  0  0  0  0  0  0  0  0  0  0  0
    0.0675   10.3906   -2.0298 H   0  0  0  0  0  0  0  0  0  0  0  0
   -0.8866   11.9000   -0.2134 H   0  0  0  0  0  0  0  0  0  0  0  0
   -2.3350   12.0991   -1.2011 H   0  0  0  0  0  0  0  0  0  0  0  0
    1.1207   12.0541   -2.5553 H   0  0  0  0  0  0  0  0  0  0  0  0
    1.2667   12.9259   -1.0313 H   0  0  0  0  0  0  0  0  0  0  0  0
    1.0958   14.0380   -3.8794 H   0  0  0  0  0  0  0  0  0  0  0  0
    2.5205   14.0189   -2.8309 H   0  0  0  0  0  0  0  0  0  0  0  0
    1.3339   16.2591   -2.9770 H   0  0  0  0  0  0  0  0  0  0  0  0
    1.4525   15.0567   -0.4071 H   0  0  0  0  0  0  0  0  0  0  0  0
   -0.9825   15.6058   -3.0596 H   0  0  0  0  0  0  0  0  0  0  0  0
   -0.7493   16.4692   -1.5325 H   0  0  0  0  0  0  0  0  0  0  0  0
   -2.1288   14.4289   -1.2934 H   0  0  0  0  0  0  0  0  0  0  0  0
   -0.6928   14.3790   -0.2720 H   0  0  0  0  0  0  0  0  0  0  0  0
   -2.6369    7.6395    0.4149 H   0  0  0  0  0  0  0  0  0  0  0  0
   -2.3438    5.5245    1.6545 H   0  0  0  0  0  0  0  0  0  0  0  0
   -1.0609    3.0485    1.4475 H   0  0  0  0  0  0  0  0  0  0  0  0
  1  2  2  0  0  0  0
  2  3  1  0  0  0  0
  2 30  1  0  0  0  0
  3  4  1  0  0  0  0
  3 31  1  0  0  0  0
  4  5  1  0  0  0  0
  4 32  1  0  0  0  0
  4 33  1  0  0  0  0
  5  6  1  0  0  0  0
  5 30  2  0  0  0  0
  6  7  2  0  0  0  0
  6 34  1  0  0  0  0
  7  8  1  0  0  0  0
  7 35  1  0  0  0  0
  8  9  2  0  0  0  0
  8 36  1  0  0  0  0
  9 10  1  0  0  0  0
  9 30  1  0  0  0  0
 10 11  2  0  0  0  0
 10 29  1  0  0  0  0
 11 12  1  0  0  0  0
 11 37  1  0  0  0  0
 12 13  1  0  0  0  0
 12 28  2  0  0  0  0
 13 14  2  0  0  0  0
 13 38  1  0  0  0  0
 14 15  1  0  0  0  0
 14 26  1  0  0  0  0
 15 16  1  0  0  0  0
 16 17  1  0  0  0  0
 16 39  1  0  0  0  0
 16 40  1  0  0  0  0
 17 18  1  0  0  0  0
 17 41  1  0  0  0  0
 17 42  1  0  0  0  0
 18 19  1  0  0  0  0
 18 43  1  0  0  0  0
 18 44  1  0  0  0  0
 19 20  1  0  0  0  0
 19 25  1  0  0  0  0
 20 21  1  0  0  0  0
 20 45  1  0  0  0  0
 20 46  1  0  0  0  0
 21 22  1  0  0  0  0
 21 47  1  0  0  0  0
 21 48  1  0  0  0  0
 22 23  1  0  0  0  0
 22 24  1  0  0  0  0
 22 49  1  0  0  0  0
 23 50  1  0  0  0  0
 24 25  1  0  0  0  0
 24 51  1  0  0  0  0
 24 52  1  0  0  0  0
 25 53  1  0  0  0  0
 25 54  1  0  0  0  0
 26 27  2  0  0  0  0
 26 55  1  0  0  0  0
 27 28  1  0  0  0  0
 27 56  1  0  0  0  0
 28 29  1  0  0  0  0
 29 57  1  0  0  0  0
M  END
$$$$
