CHEMBL4558980
 OpenBabel04072215383D

 34 37  0  0  0  0  0  0  0  0999 V2000
    1.1926   -0.0265   -0.1457 N   0  0  0  0  0  0  0  0  0  0  0  0
    2.5485   -0.0668    0.0012 C   0  0  0  0  0  0  0  0  0  0  0  0
    3.0874    0.6609    0.8358 O   0  0  0  0  0  0  0  0  0  0  0  0
    3.2468   -1.0347   -0.8134 C   0  0  0  0  0  0  0  0  0  0  0  0
    4.4583   -1.7456   -0.5076 C   0  0  0  0  0  0  0  0  0  0  0  0
    5.2262   -1.7293    0.7393 C   0  0  0  0  0  0  0  0  0  0  0  0
    6.6110   -1.9148    0.7185 C   0  0  0  0  0  0  0  0  0  0  0  0
    7.3584   -1.9360    1.9007 C   0  0  0  0  0  0  0  0  0  0  0  0
    6.6812   -1.7675    3.1141 C   0  0  0  0  0  0  0  0  0  0  0  0
    7.3116   -1.7685    4.7200 S   0  0  0  0  0  0  0  0  0  0  0  0
    5.7339   -1.5143    5.3308 C   0  0  0  0  0  0  0  0  0  0  0  0
    4.7687   -1.4260    4.4457 N   0  0  0  0  0  0  0  0  0  0  0  0
    5.3015   -1.5733    3.1741 C   0  0  0  0  0  0  0  0  0  0  0  0
    4.5750   -1.5611    1.9732 C   0  0  0  0  0  0  0  0  0  0  0  0
    4.8425   -2.5272   -1.5348 N   0  0  0  0  0  0  0  0  0  0  0  0
    3.8953   -2.3279   -2.4583 N   0  0  0  0  0  0  0  0  0  0  0  0
    2.9004   -1.4700   -2.0771 C   0  0  0  0  0  0  0  0  0  0  0  0
    1.8851   -1.1749   -2.9219 N   0  0  0  0  0  0  0  0  0  0  0  0
    1.7415   -1.8808   -4.1863 C   0  0  0  0  0  0  0  0  0  0  0  0
    3.1120   -2.2049   -4.7784 C   0  0  0  0  0  0  0  0  0  0  0  0
    3.9630   -2.9621   -3.7620 C   0  0  0  0  0  0  0  0  0  0  0  0
    0.6900    0.5204    0.5378 H   0  0  0  0  0  0  0  0  0  0  0  0
    0.7223   -0.7822   -0.6171 H   0  0  0  0  0  0  0  0  0  0  0  0
    7.1236   -2.0486   -0.2332 H   0  0  0  0  0  0  0  0  0  0  0  0
    8.4334   -2.0866    1.8727 H   0  0  0  0  0  0  0  0  0  0  0  0
    5.5480   -1.4360    6.3936 H   0  0  0  0  0  0  0  0  0  0  0  0
    3.5031   -1.4158    2.0350 H   0  0  0  0  0  0  0  0  0  0  0  0
    1.2302   -0.4169   -2.7344 H   0  0  0  0  0  0  0  0  0  0  0  0
    1.1719   -1.2582   -4.8848 H   0  0  0  0  0  0  0  0  0  0  0  0
    1.1681   -2.8008   -4.0235 H   0  0  0  0  0  0  0  0  0  0  0  0
    3.6169   -1.2681   -5.0484 H   0  0  0  0  0  0  0  0  0  0  0  0
    3.0040   -2.7919   -5.6966 H   0  0  0  0  0  0  0  0  0  0  0  0
    5.0113   -2.9864   -4.0796 H   0  0  0  0  0  0  0  0  0  0  0  0
    3.6049   -3.9893   -3.6322 H   0  0  0  0  0  0  0  0  0  0  0  0
  1  2  1  0  0  0  0
  1 22  1  0  0  0  0
  1 23  1  0  0  0  0
  2  3  2  0  0  0  0
  2  4  1  0  0  0  0
  4  5  1  0  0  0  0
  4 17  2  0  0  0  0
  5  6  1  0  0  0  0
  5 15  2  0  0  0  0
  6  7  1  0  0  0  0
  6 14  2  0  0  0  0
  7  8  2  0  0  0  0
  7 24  1  0  0  0  0
  8  9  1  0  0  0  0
  8 25  1  0  0  0  0
  9 10  1  0  0  0  0
  9 13  2  0  0  0  0
 10 11  1  0  0  0  0
 11 12  2  0  0  0  0
 11 26  1  0  0  0  0
 12 13  1  0  0  0  0
 13 14  1  0  0  0  0
 14 27  1  0  0  0  0
 15 16  1  0  0  0  0
 16 17  1  0  0  0  0
 16 21  1  0  0  0  0
 17 18  1  0  0  0  0
 18 19  1  0  0  0  0
 18 28  1  0  0  0  0
 19 20  1  0  0  0  0
 19 29  1  0  0  0  0
 19 30  1  0  0  0  0
 20 21  1  0  0  0  0
 20 31  1  0  0  0  0
 20 32  1  0  0  0  0
 21 33  1  0  0  0  0
 21 34  1  0  0  0  0
M  END
$$$$
