CHEMBL1929556
 OpenBabel04072215363D

 49 52  0  0  0  0  0  0  0  0999 V2000
    8.5341    4.7746    0.2310 C   0  0  0  0  0  0  0  0  0  0  0  0
    7.8471    3.8604    1.0775 O   0  0  0  0  0  0  0  0  0  0  0  0
    8.0891    2.5294    0.8781 C   0  0  0  0  0  0  0  0  0  0  0  0
    8.9400    1.9851   -0.0781 C   0  0  0  0  0  0  0  0  0  0  0  0
    9.0592    0.5951   -0.2072 C   0  0  0  0  0  0  0  0  0  0  0  0
    8.3379   -0.2679    0.6252 C   0  0  0  0  0  0  0  0  0  0  0  0
    8.3156   -1.6325    0.4952 O   0  0  0  0  0  0  0  0  0  0  0  0
    9.3662   -2.2250   -0.2576 C   0  0  0  0  0  0  0  0  0  0  0  0
    7.5188    0.2702    1.6313 C   0  0  0  0  0  0  0  0  0  0  0  0
    6.7252   -0.6076    2.5708 C   0  0  0  0  0  0  0  0  0  0  0  0
    7.5310   -1.4091    3.5504 C   0  0  0  0  0  0  0  0  0  0  0  0
    8.0636   -1.0764    4.7854 C   0  0  0  0  0  0  0  0  0  0  0  0
    8.4277   -2.2938    5.4416 C   0  0  0  0  0  0  0  0  0  0  0  0
    8.8221   -2.6767    6.7346 C   0  0  0  0  0  0  0  0  0  0  0  0
    8.9525   -1.7441    7.7705 N   0  0  0  0  0  0  0  0  0  0  0  0
    8.6992   -1.8824    9.1505 C   0  0  0  0  0  0  0  0  0  0  0  0
    8.3438   -3.0928    9.7574 C   0  0  0  0  0  0  0  0  0  0  0  0
    8.1112   -3.1723   11.1346 C   0  0  0  0  0  0  0  0  0  0  0  0
    8.2464   -2.0373   11.9284 C   0  0  0  0  0  0  0  0  0  0  0  0
    7.9540   -2.1413   13.6196 Cl  0  0  0  0  0  0  0  0  0  0  0  0
    8.6131   -0.8241   11.3597 C   0  0  0  0  0  0  0  0  0  0  0  0
    8.8403   -0.7619    9.9867 C   0  0  0  0  0  0  0  0  0  0  0  0
    9.1794    0.4197    9.4451 F   0  0  0  0  0  0  0  0  0  0  0  0
    8.9978   -4.0053    6.9641 N   0  0  0  0  0  0  0  0  0  0  0  0
    8.7918   -4.8934    5.9850 C   0  0  0  0  0  0  0  0  0  0  0  0
    8.9070   -6.2258    6.3481 N   0  0  0  0  0  0  0  0  0  0  0  0
    8.3918   -4.6262    4.7391 N   0  0  0  0  0  0  0  0  0  0  0  0
    8.2280   -3.3100    4.5272 C   0  0  0  0  0  0  0  0  0  0  0  0
    7.7634   -2.7553    3.3656 N   0  0  0  0  0  0  0  0  0  0  0  0
    7.3924    1.6700    1.7309 C   0  0  0  0  0  0  0  0  0  0  0  0
    8.2574    5.7883    0.5373 H   0  0  0  0  0  0  0  0  0  0  0  0
    8.2333    4.6488   -0.8147 H   0  0  0  0  0  0  0  0  0  0  0  0
    9.6188    4.6789    0.3447 H   0  0  0  0  0  0  0  0  0  0  0  0
    9.5140    2.6103   -0.7539 H   0  0  0  0  0  0  0  0  0  0  0  0
    9.7103    0.2218   -0.9904 H   0  0  0  0  0  0  0  0  0  0  0  0
    9.2101   -3.3079   -0.2461 H   0  0  0  0  0  0  0  0  0  0  0  0
   10.3358   -2.0171    0.2058 H   0  0  0  0  0  0  0  0  0  0  0  0
    9.3474   -1.9066   -1.3045 H   0  0  0  0  0  0  0  0  0  0  0  0
    6.0769   -1.2676    1.9802 H   0  0  0  0  0  0  0  0  0  0  0  0
    6.0354    0.0159    3.1564 H   0  0  0  0  0  0  0  0  0  0  0  0
    8.0592   -0.0851    5.2194 H   0  0  0  0  0  0  0  0  0  0  0  0
    8.9332   -0.7778    7.4589 H   0  0  0  0  0  0  0  0  0  0  0  0
    8.2212   -3.9982    9.1720 H   0  0  0  0  0  0  0  0  0  0  0  0
    7.8235   -4.1251   11.5720 H   0  0  0  0  0  0  0  0  0  0  0  0
    8.7210    0.0708   11.9623 H   0  0  0  0  0  0  0  0  0  0  0  0
    8.7962   -6.2953    7.3461 H   0  0  0  0  0  0  0  0  0  0  0  0
    8.2902   -6.7816    5.7767 H   0  0  0  0  0  0  0  0  0  0  0  0
    7.5216   -3.2886    2.5427 H   0  0  0  0  0  0  0  0  0  0  0  0
    6.7260    2.1049    2.4737 H   0  0  0  0  0  0  0  0  0  0  0  0
  1  2  1  0  0  0  0
  1 31  1  0  0  0  0
  1 32  1  0  0  0  0
  1 33  1  0  0  0  0
  2  3  1  0  0  0  0
  3  4  1  0  0  0  0
  3 30  2  0  0  0  0
  4  5  2  0  0  0  0
  4 34  1  0  0  0  0
  5  6  1  0  0  0  0
  5 35  1  0  0  0  0
  6  7  1  0  0  0  0
  6  9  2  0  0  0  0
  7  8  1  0  0  0  0
  8 36  1  0  0  0  0
  8 37  1  0  0  0  0
  8 38  1  0  0  0  0
  9 10  1  0  0  0  0
  9 30  1  0  0  0  0
 10 11  1  0  0  0  0
 10 39  1  0  0  0  0
 10 40  1  0  0  0  0
 11 12  2  0  0  0  0
 11 29  1  0  0  0  0
 12 13  1  0  0  0  0
 12 41  1  0  0  0  0
 13 14  1  0  0  0  0
 13 28  2  0  0  0  0
 14 15  1  0  0  0  0
 14 24  2  0  0  0  0
 15 16  1  0  0  0  0
 15 42  1  0  0  0  0
 16 17  1  0  0  0  0
 16 22  2  0  0  0  0
 17 18  2  0  0  0  0
 17 43  1  0  0  0  0
 18 19  1  0  0  0  0
 18 44  1  0  0  0  0
 19 20  1  0  0  0  0
 19 21  2  0  0  0  0
 21 22  1  0  0  0  0
 21 45  1  0  0  0  0
 22 23  1  0  0  0  0
 24 25  1  0  0  0  0
 25 26  1  0  0  0  0
 25 27  2  0  0  0  0
 26 46  1  0  0  0  0
 26 47  1  0  0  0  0
 27 28  1  0  0  0  0
 28 29  1  0  0  0  0
 29 48  1  0  0  0  0
 30 49  1  0  0  0  0
M  END
$$$$
