CHEMBL1254191
 OpenBabel04072215363D

 47 50  0  0  0  0  0  0  0  0999 V2000
    3.6272   -0.7213   -0.8246 C   0  0  0  0  0  0  0  0  0  0  0  0
    3.3586   -0.4366    0.5678 N   0  0  0  0  0  0  0  0  0  0  0  0
    3.9086    0.6102    1.2658 C   0  0  0  0  0  0  0  0  0  0  0  0
    3.4137    0.5703    2.5544 C   0  0  0  0  0  0  0  0  0  0  0  0
    2.5396   -0.5390    2.6315 C   0  0  0  0  0  0  0  0  0  0  0  0
    1.8332   -0.9822    3.6920 N   0  0  0  0  0  0  0  0  0  0  0  0
    1.0940   -2.0636    3.4238 C   0  0  0  0  0  0  0  0  0  0  0  0
    0.9946   -2.7203    2.2567 N   0  0  0  0  0  0  0  0  0  0  0  0
    1.7367   -2.2863    1.2115 C   0  0  0  0  0  0  0  0  0  0  0  0
    1.6966   -2.9654   -0.0048 O   0  0  0  0  0  0  0  0  0  0  0  0
    1.4747   -4.3262    0.0328 C   0  0  0  0  0  0  0  0  0  0  0  0
    1.9785   -5.1169    1.0574 C   0  0  0  0  0  0  0  0  0  0  0  0
    1.7321   -6.4873    1.0879 C   0  0  0  0  0  0  0  0  0  0  0  0
    1.0137   -7.1387    0.0744 C   0  0  0  0  0  0  0  0  0  0  0  0
    0.7669   -8.5431    0.1114 N   0  0  0  0  0  0  0  0  0  0  0  0
    1.1651   -9.3900    1.1372 C   0  0  0  0  0  0  0  0  0  0  0  0
    1.7809   -9.0243    2.1395 O   0  0  0  0  0  0  0  0  0  0  0  0
    0.8483  -10.7263    0.9706 N   0  0  0  0  0  0  0  0  0  0  0  0
    1.2688  -11.6515    1.9765 C   0  0  0  0  0  0  0  0  0  0  0  0
    2.1267  -12.7018    1.6368 C   0  0  0  0  0  0  0  0  0  0  0  0
    2.4776  -13.6637    2.5877 C   0  0  0  0  0  0  0  0  0  0  0  0
    1.9591  -13.5959    3.8801 C   0  0  0  0  0  0  0  0  0  0  0  0
    1.1198  -12.5362    4.2525 C   0  0  0  0  0  0  0  0  0  0  0  0
    0.5374  -12.4951    5.6443 C   0  0  0  0  0  0  0  0  0  0  0  0
    0.9054  -13.5643    6.4108 F   0  0  0  0  0  0  0  0  0  0  0  0
    0.9070  -11.3925    6.3499 F   0  0  0  0  0  0  0  0  0  0  0  0
   -0.8250  -12.5052    5.6407 F   0  0  0  0  0  0  0  0  0  0  0  0
    0.7998  -11.5500    3.2972 C   0  0  0  0  0  0  0  0  0  0  0  0
    0.5367   -6.3530   -0.9825 C   0  0  0  0  0  0  0  0  0  0  0  0
    0.7736   -4.9543   -1.0037 C   0  0  0  0  0  0  0  0  0  0  0  0
    0.1559   -4.0282   -2.3287 Cl  0  0  0  0  0  0  0  0  0  0  0  0
    2.5175   -1.1547    1.3844 C   0  0  0  0  0  0  0  0  0  0  0  0
    4.3287    0.0229   -1.2182 H   0  0  0  0  0  0  0  0  0  0  0  0
    2.6873   -0.6679   -1.3768 H   0  0  0  0  0  0  0  0  0  0  0  0
    4.0704   -1.7168   -0.8972 H   0  0  0  0  0  0  0  0  0  0  0  0
    4.6018    1.2974    0.8020 H   0  0  0  0  0  0  0  0  0  0  0  0
    3.6537    1.2526    3.3536 H   0  0  0  0  0  0  0  0  0  0  0  0
    0.5092   -2.4613    4.2479 H   0  0  0  0  0  0  0  0  0  0  0  0
    2.5368   -4.6878    1.8850 H   0  0  0  0  0  0  0  0  0  0  0  0
    2.1207   -6.9937    1.9589 H   0  0  0  0  0  0  0  0  0  0  0  0
    0.2264   -8.9417   -0.6551 H   0  0  0  0  0  0  0  0  0  0  0  0
    0.8958  -11.0612    0.0208 H   0  0  0  0  0  0  0  0  0  0  0  0
    2.5636  -12.7640    0.6461 H   0  0  0  0  0  0  0  0  0  0  0  0
    3.1435  -14.4803    2.3201 H   0  0  0  0  0  0  0  0  0  0  0  0
    2.2062  -14.3809    4.5960 H   0  0  0  0  0  0  0  0  0  0  0  0
    0.1417  -10.7271    3.5759 H   0  0  0  0  0  0  0  0  0  0  0  0
   -0.0321   -6.7929   -1.7946 H   0  0  0  0  0  0  0  0  0  0  0  0
  1  2  1  0  0  0  0
  1 33  1  0  0  0  0
  1 34  1  0  0  0  0
  1 35  1  0  0  0  0
  2  3  1  0  0  0  0
  2 32  1  0  0  0  0
  3  4  2  0  0  0  0
  3 36  1  0  0  0  0
  4  5  1  0  0  0  0
  4 37  1  0  0  0  0
  5  6  1  0  0  0  0
  5 32  2  0  0  0  0
  6  7  2  0  0  0  0
  7  8  1  0  0  0  0
  7 38  1  0  0  0  0
  8  9  2  0  0  0  0
  9 10  1  0  0  0  0
  9 32  1  0  0  0  0
 10 11  1  0  0  0  0
 11 12  1  0  0  0  0
 11 30  2  0  0  0  0
 12 13  2  0  0  0  0
 12 39  1  0  0  0  0
 13 14  1  0  0  0  0
 13 40  1  0  0  0  0
 14 15  1  0  0  0  0
 14 29  2  0  0  0  0
 15 16  1  0  0  0  0
 15 41  1  0  0  0  0
 16 17  2  0  0  0  0
 16 18  1  0  0  0  0
 18 19  1  0  0  0  0
 18 42  1  0  0  0  0
 19 20  1  0  0  0  0
 19 28  2  0  0  0  0
 20 21  2  0  0  0  0
 20 43  1  0  0  0  0
 21 22  1  0  0  0  0
 21 44  1  0  0  0  0
 22 23  2  0  0  0  0
 22 45  1  0  0  0  0
 23 24  1  0  0  0  0
 23 28  1  0  0  0  0
 24 25  1  0  0  0  0
 24 26  1  0  0  0  0
 24 27  1  0  0  0  0
 28 46  1  0  0  0  0
 29 30  1  0  0  0  0
 29 47  1  0  0  0  0
 30 31  1  0  0  0  0
M  END
$$$$
