CHEMBL409538
 OpenBabel04072215383D

 52 56  0  0  0  0  0  0  0  0999 V2000
    5.1667    1.4530   -1.1296 C   0  0  0  0  0  0  0  0  0  0  0  0
    4.0147    0.6090   -1.0819 O   0  0  0  0  0  0  0  0  0  0  0  0
    4.2433   -0.7121   -0.8049 C   0  0  0  0  0  0  0  0  0  0  0  0
    5.3749   -1.1395   -0.0887 C   0  0  0  0  0  0  0  0  0  0  0  0
    5.7254   -2.4783    0.0342 C   0  0  0  0  0  0  0  0  0  0  0  0
    6.9164   -2.7676    0.5830 N   0  0  0  0  0  0  0  0  0  0  0  0
    7.3147   -4.0548    0.6084 C   0  0  0  0  0  0  0  0  0  0  0  0
    6.5770   -5.0920    0.0821 C   0  0  0  0  0  0  0  0  0  0  0  0
    5.3399   -4.7985   -0.4879 C   0  0  0  0  0  0  0  0  0  0  0  0
    4.7269   -5.9142   -1.0403 O   0  0  0  0  0  0  0  0  0  0  0  0
    3.9044   -5.8050   -2.1373 C   0  0  0  0  0  0  0  0  0  0  0  0
    4.0770   -4.8820   -3.1595 C   0  0  0  0  0  0  0  0  0  0  0  0
    3.0096   -4.6090   -4.0233 C   0  0  0  0  0  0  0  0  0  0  0  0
    1.8179   -5.3804   -4.0322 C   0  0  0  0  0  0  0  0  0  0  0  0
    0.6712   -5.1628   -4.8597 C   0  0  0  0  0  0  0  0  0  0  0  0
    0.4552   -4.0092   -5.7886 C   0  0  0  0  0  0  0  0  0  0  0  0
   -0.6940   -3.5656   -5.8564 O   0  0  0  0  0  0  0  0  0  0  0  0
    1.5232   -3.5504   -6.5264 N   0  0  0  0  0  0  0  0  0  0  0  0
    1.4436   -2.4700   -7.3957 C   0  0  0  0  0  0  0  0  0  0  0  0
    2.5564   -1.9135   -8.0737 C   0  0  0  0  0  0  0  0  0  0  0  0
    2.0315   -0.8911   -8.8228 C   0  0  0  0  0  0  0  0  0  0  0  0
    0.6972   -0.8314   -8.6215 O   0  0  0  0  0  0  0  0  0  0  0  0
    0.3290   -1.8087   -7.7224 N   0  0  0  0  0  0  0  0  0  0  0  0
   -0.4421   -6.0230   -4.7584 C   0  0  0  0  0  0  0  0  0  0  0  0
   -0.4593   -7.0792   -3.8585 C   0  0  0  0  0  0  0  0  0  0  0  0
    0.6308   -7.2820   -3.0244 C   0  0  0  0  0  0  0  0  0  0  0  0
    1.7553   -6.4459   -3.0875 C   0  0  0  0  0  0  0  0  0  0  0  0
    2.7852   -6.6337   -2.1508 C   0  0  0  0  0  0  0  0  0  0  0  0
    4.8535   -3.4598   -0.4636 C   0  0  0  0  0  0  0  0  0  0  0  0
    3.5962   -3.0158   -0.9338 C   0  0  0  0  0  0  0  0  0  0  0  0
    3.3253   -1.6732   -1.2188 C   0  0  0  0  0  0  0  0  0  0  0  0
    2.1715   -1.5510   -1.9370 O   0  0  0  0  0  0  0  0  0  0  0  0
    1.8245   -0.3326   -2.5617 C   0  0  0  0  0  0  0  0  0  0  0  0
    4.9991    2.2136   -1.8989 H   0  0  0  0  0  0  0  0  0  0  0  0
    6.0884    0.9246   -1.4074 H   0  0  0  0  0  0  0  0  0  0  0  0
    5.2931    1.9556   -0.1656 H   0  0  0  0  0  0  0  0  0  0  0  0
    6.0574   -0.4172    0.3516 H   0  0  0  0  0  0  0  0  0  0  0  0
    8.2880   -4.2289    1.0585 H   0  0  0  0  0  0  0  0  0  0  0  0
    6.9619   -6.1053    0.0983 H   0  0  0  0  0  0  0  0  0  0  0  0
    4.9616   -4.2517   -3.1968 H   0  0  0  0  0  0  0  0  0  0  0  0
    3.1142   -3.7127   -4.6254 H   0  0  0  0  0  0  0  0  0  0  0  0
    2.4150   -4.0142   -6.4667 H   0  0  0  0  0  0  0  0  0  0  0  0
    3.5933   -2.2006   -8.0206 H   0  0  0  0  0  0  0  0  0  0  0  0
    2.4320   -0.1567   -9.5069 H   0  0  0  0  0  0  0  0  0  0  0  0
   -1.3244   -5.8484   -5.3744 H   0  0  0  0  0  0  0  0  0  0  0  0
   -1.3350   -7.7193   -3.7872 H   0  0  0  0  0  0  0  0  0  0  0  0
    0.5803   -8.0907   -2.2964 H   0  0  0  0  0  0  0  0  0  0  0  0
    2.6878   -7.3890   -1.3718 H   0  0  0  0  0  0  0  0  0  0  0  0
    2.8213   -3.7327   -1.1896 H   0  0  0  0  0  0  0  0  0  0  0  0
    1.0930   -0.5606   -3.3415 H   0  0  0  0  0  0  0  0  0  0  0  0
    2.6684    0.1595   -3.0593 H   0  0  0  0  0  0  0  0  0  0  0  0
    1.3413    0.3327   -1.8361 H   0  0  0  0  0  0  0  0  0  0  0  0
  1  2  1  0  0  0  0
  1 34  1  0  0  0  0
  1 35  1  0  0  0  0
  1 36  1  0  0  0  0
  2  3  1  0  0  0  0
  3  4  1  0  0  0  0
  3 31  2  0  0  0  0
  4  5  2  0  0  0  0
  4 37  1  0  0  0  0
  5  6  1  0  0  0  0
  5 29  1  0  0  0  0
  6  7  2  0  0  0  0
  7  8  1  0  0  0  0
  7 38  1  0  0  0  0
  8  9  2  0  0  0  0
  8 39  1  0  0  0  0
  9 10  1  0  0  0  0
  9 29  1  0  0  0  0
 10 11  1  0  0  0  0
 11 12  1  0  0  0  0
 11 28  2  0  0  0  0
 12 13  2  0  0  0  0
 12 40  1  0  0  0  0
 13 14  1  0  0  0  0
 13 41  1  0  0  0  0
 14 15  1  0  0  0  0
 14 27  2  0  0  0  0
 15 16  1  0  0  0  0
 15 24  2  0  0  0  0
 16 17  2  0  0  0  0
 16 18  1  0  0  0  0
 18 19  1  0  0  0  0
 18 42  1  0  0  0  0
 19 20  1  0  0  0  0
 19 23  2  0  0  0  0
 20 21  2  0  0  0  0
 20 43  1  0  0  0  0
 21 22  1  0  0  0  0
 21 44  1  0  0  0  0
 22 23  1  0  0  0  0
 24 25  1  0  0  0  0
 24 45  1  0  0  0  0
 25 26  2  0  0  0  0
 25 46  1  0  0  0  0
 26 27  1  0  0  0  0
 26 47  1  0  0  0  0
 27 28  1  0  0  0  0
 28 48  1  0  0  0  0
 29 30  2  0  0  0  0
 30 31  1  0  0  0  0
 30 49  1  0  0  0  0
 31 32  1  0  0  0  0
 32 33  1  0  0  0  0
 33 50  1  0  0  0  0
 33 51  1  0  0  0  0
 33 52  1  0  0  0  0
M  END
$$$$
