CHEMBL271955
 OpenBabel04072215363D

 46 49  0  0  0  0  0  0  0  0999 V2000
    1.2237    2.0760    3.2015 N   0  0  0  0  0  0  0  0  0  0  0  0
    1.4782    0.9702    2.4774 C   0  0  0  0  0  0  0  0  0  0  0  0
    1.8580   -0.1688    3.0603 N   0  0  0  0  0  0  0  0  0  0  0  0
    2.0483   -1.0718    2.0419 O   0  0  0  0  0  0  0  0  0  0  0  0
    1.7675   -0.4875    0.8554 C   0  0  0  0  0  0  0  0  0  0  0  0
    1.8516   -1.1238   -0.3752 C   0  0  0  0  0  0  0  0  0  0  0  0
    1.5103   -0.3749   -1.4957 C   0  0  0  0  0  0  0  0  0  0  0  0
    1.0990    0.9549   -1.3559 C   0  0  0  0  0  0  0  0  0  0  0  0
    1.0172    1.6088   -0.0971 C   0  0  0  0  0  0  0  0  0  0  0  0
    0.5568    3.0061   -0.0066 C   0  0  0  0  0  0  0  0  0  0  0  0
   -0.3586    3.3979    0.9702 C   0  0  0  0  0  0  0  0  0  0  0  0
   -0.7385    4.7320    1.1266 C   0  0  0  0  0  0  0  0  0  0  0  0
   -0.2810    5.7221    0.2580 C   0  0  0  0  0  0  0  0  0  0  0  0
   -0.6661    7.0813    0.3737 N   0  0  0  0  0  0  0  0  0  0  0  0
   -1.2696    7.6312    1.4911 C   0  0  0  0  0  0  0  0  0  0  0  0
   -1.3988    7.0525    2.5646 O   0  0  0  0  0  0  0  0  0  0  0  0
   -1.7840    8.8970    1.2433 N   0  0  0  0  0  0  0  0  0  0  0  0
   -2.5005    9.5767    2.2557 C   0  0  0  0  0  0  0  0  0  0  0  0
   -2.0698    9.5759    3.5870 C   0  0  0  0  0  0  0  0  0  0  0  0
   -2.8503   10.1460    4.5976 C   0  0  0  0  0  0  0  0  0  0  0  0
   -4.0549   10.7612    4.2760 C   0  0  0  0  0  0  0  0  0  0  0  0
   -4.9214   11.3390    5.1509 O   0  0  0  0  0  0  0  0  0  0  0  0
   -4.4280   11.8955    6.3606 C   0  0  0  0  0  0  0  0  0  0  0  0
   -3.0919   12.0831    6.3785 F   0  0  0  0  0  0  0  0  0  0  0  0
   -5.0109   13.1041    6.5349 F   0  0  0  0  0  0  0  0  0  0  0  0
   -4.7771   11.1082    7.4002 F   0  0  0  0  0  0  0  0  0  0  0  0
   -4.4833   10.7647    2.9431 C   0  0  0  0  0  0  0  0  0  0  0  0
   -3.6994   10.2033    1.9298 C   0  0  0  0  0  0  0  0  0  0  0  0
    0.5578    5.3381   -0.7902 C   0  0  0  0  0  0  0  0  0  0  0  0
    0.9821    4.0006   -0.9086 C   0  0  0  0  0  0  0  0  0  0  0  0
    1.3769    0.8365    1.0508 C   0  0  0  0  0  0  0  0  0  0  0  0
    1.4355    2.0463    4.1931 H   0  0  0  0  0  0  0  0  0  0  0  0
    1.2843    3.0040    2.7989 H   0  0  0  0  0  0  0  0  0  0  0  0
    2.1704   -2.1583   -0.4609 H   0  0  0  0  0  0  0  0  0  0  0  0
    1.5509   -0.8279   -2.4815 H   0  0  0  0  0  0  0  0  0  0  0  0
    0.8130    1.4931   -2.2601 H   0  0  0  0  0  0  0  0  0  0  0  0
   -0.7845    2.6675    1.6557 H   0  0  0  0  0  0  0  0  0  0  0  0
   -1.4112    4.9487    1.9497 H   0  0  0  0  0  0  0  0  0  0  0  0
   -0.2965    7.7302   -0.3052 H   0  0  0  0  0  0  0  0  0  0  0  0
   -2.0936    9.0429    0.2928 H   0  0  0  0  0  0  0  0  0  0  0  0
   -1.1271    9.1043    3.8613 H   0  0  0  0  0  0  0  0  0  0  0  0
   -2.4923   10.0633    5.6201 H   0  0  0  0  0  0  0  0  0  0  0  0
   -5.4503   11.1959    2.6920 H   0  0  0  0  0  0  0  0  0  0  0  0
   -4.0781   10.2004    0.9125 H   0  0  0  0  0  0  0  0  0  0  0  0
    0.9096    6.0647   -1.5181 H   0  0  0  0  0  0  0  0  0  0  0  0
    1.6602    3.7492   -1.7227 H   0  0  0  0  0  0  0  0  0  0  0  0
  1  2  1  0  0  0  0
  1 32  1  0  0  0  0
  1 33  1  0  0  0  0
  2  3  2  0  0  0  0
  2 31  1  0  0  0  0
  3  4  1  0  0  0  0
  4  5  1  0  0  0  0
  5  6  1  0  0  0  0
  5 31  2  0  0  0  0
  6  7  2  0  0  0  0
  6 34  1  0  0  0  0
  7  8  1  0  0  0  0
  7 35  1  0  0  0  0
  8  9  2  0  0  0  0
  8 36  1  0  0  0  0
  9 10  1  0  0  0  0
  9 31  1  0  0  0  0
 10 11  1  0  0  0  0
 10 30  2  0  0  0  0
 11 12  2  0  0  0  0
 11 37  1  0  0  0  0
 12 13  1  0  0  0  0
 12 38  1  0  0  0  0
 13 14  1  0  0  0  0
 13 29  2  0  0  0  0
 14 15  1  0  0  0  0
 14 39  1  0  0  0  0
 15 16  2  0  0  0  0
 15 17  1  0  0  0  0
 17 18  1  0  0  0  0
 17 40  1  0  0  0  0
 18 19  1  0  0  0  0
 18 28  2  0  0  0  0
 19 20  2  0  0  0  0
 19 41  1  0  0  0  0
 20 21  1  0  0  0  0
 20 42  1  0  0  0  0
 21 22  1  0  0  0  0
 21 27  2  0  0  0  0
 22 23  1  0  0  0  0
 23 24  1  0  0  0  0
 23 25  1  0  0  0  0
 23 26  1  0  0  0  0
 27 28  1  0  0  0  0
 27 43  1  0  0  0  0
 28 44  1  0  0  0  0
 29 30  1  0  0  0  0
 29 45  1  0  0  0  0
 30 46  1  0  0  0  0
M  END
$$$$
