CHEMBL2016924
 OpenBabel04072215363D

 48 52  0  0  0  0  0  0  0  0999 V2000
    1.2485    0.5682   -0.5075 O   0  0  0  0  0  0  0  0  0  0  0  0
    2.3265    0.1007   -0.1320 C   0  0  0  0  0  0  0  0  0  0  0  0
    2.8971    0.5211    1.2089 C   0  0  0  0  0  0  0  0  0  0  0  0
    2.5260   -0.4057    2.3371 C   0  0  0  0  0  0  0  0  0  0  0  0
    1.1931   -0.5818    2.7120 C   0  0  0  0  0  0  0  0  0  0  0  0
    0.8939   -1.4072    3.7914 C   0  0  0  0  0  0  0  0  0  0  0  0
    1.9354   -2.0409    4.4676 C   0  0  0  0  0  0  0  0  0  0  0  0
    3.2291   -1.8289    4.0268 C   0  0  0  0  0  0  0  0  0  0  0  0
    3.5475   -1.0310    2.9819 N   0  0  0  0  0  0  0  0  0  0  0  0
    3.0611   -0.7943   -0.9283 N   0  0  0  0  0  0  0  0  0  0  0  0
    2.4085   -1.1733   -2.2020 C   0  0  0  0  0  0  0  0  0  0  0  0
    3.2551   -1.9225   -3.2492 C   0  0  0  0  0  0  0  0  0  0  0  0
    4.3320   -2.6938   -2.6097 C   0  0  0  0  0  0  0  0  0  0  0  0
    5.1612   -3.5715   -3.2464 N   0  0  0  0  0  0  0  0  0  0  0  0
    5.9517   -4.0721   -2.3061 C   0  0  0  0  0  0  0  0  0  0  0  0
    6.9033   -5.1241   -2.3920 C   0  0  0  0  0  0  0  0  0  0  0  0
    7.3490   -5.4695   -3.6089 C   0  0  0  0  0  0  0  0  0  0  0  0
    7.9300   -6.7948   -3.8380 C   0  0  0  0  0  0  0  0  0  0  0  0
    8.2120   -7.2163   -5.1344 C   0  0  0  0  0  0  0  0  0  0  0  0
    8.1099   -8.5700   -5.4069 C   0  0  0  0  0  0  0  0  0  0  0  0
    8.0012   -8.9688   -6.6800 F   0  0  0  0  0  0  0  0  0  0  0  0
    8.0144   -9.5036   -4.3779 C   0  0  0  0  0  0  0  0  0  0  0  0
    8.0459   -9.0767   -3.0475 C   0  0  0  0  0  0  0  0  0  0  0  0
    7.9239   -7.7160   -2.7837 C   0  0  0  0  0  0  0  0  0  0  0  0
    7.7080   -7.2546   -1.4822 N   0  0  0  0  0  0  0  0  0  0  0  0
    7.2469   -5.9870   -1.2109 C   0  0  0  0  0  0  0  0  0  0  0  0
    7.0748   -5.6070   -0.0610 O   0  0  0  0  0  0  0  0  0  0  0  0
    5.6547   -3.4937   -1.0820 N   0  0  0  0  0  0  0  0  0  0  0  0
    4.6419   -2.5950   -1.2836 C   0  0  0  0  0  0  0  0  0  0  0  0
    3.9912   -1.7412   -0.2645 C   0  0  0  0  0  0  0  0  0  0  0  0
    2.5120    1.5240    1.4365 H   0  0  0  0  0  0  0  0  0  0  0  0
    3.9819    0.6417    1.1350 H   0  0  0  0  0  0  0  0  0  0  0  0
    0.3979   -0.0658    2.1831 H   0  0  0  0  0  0  0  0  0  0  0  0
   -0.1423   -1.5449    4.0950 H   0  0  0  0  0  0  0  0  0  0  0  0
    1.7419   -2.6860    5.3151 H   0  0  0  0  0  0  0  0  0  0  0  0
    4.0666   -2.3173    4.5210 H   0  0  0  0  0  0  0  0  0  0  0  0
    2.0274   -0.2577   -2.6733 H   0  0  0  0  0  0  0  0  0  0  0  0
    1.5277   -1.7728   -1.9376 H   0  0  0  0  0  0  0  0  0  0  0  0
    3.6924   -1.2115   -3.9593 H   0  0  0  0  0  0  0  0  0  0  0  0
    2.6002   -2.5881   -3.8243 H   0  0  0  0  0  0  0  0  0  0  0  0
    7.0632   -4.9001   -4.4949 H   0  0  0  0  0  0  0  0  0  0  0  0
    8.3747   -6.5100   -5.9444 H   0  0  0  0  0  0  0  0  0  0  0  0
    7.8940  -10.5538   -4.6248 H   0  0  0  0  0  0  0  0  0  0  0  0
    8.0357   -9.8132   -2.2474 H   0  0  0  0  0  0  0  0  0  0  0  0
    7.8127   -7.8779   -0.6911 H   0  0  0  0  0  0  0  0  0  0  0  0
    6.0962   -3.7468   -0.2063 H   0  0  0  0  0  0  0  0  0  0  0  0
    4.7453   -1.1853    0.2759 H   0  0  0  0  0  0  0  0  0  0  0  0
    3.4140   -2.3587    0.4254 H   0  0  0  0  0  0  0  0  0  0  0  0
  1  2  2  0  0  0  0
  2  3  1  0  0  0  0
  2 10  1  0  0  0  0
  3  4  1  0  0  0  0
  3 31  1  0  0  0  0
  3 32  1  0  0  0  0
  4  5  1  0  0  0  0
  4  9  2  0  0  0  0
  5  6  2  0  0  0  0
  5 33  1  0  0  0  0
  6  7  1  0  0  0  0
  6 34  1  0  0  0  0
  7  8  2  0  0  0  0
  7 35  1  0  0  0  0
  8  9  1  0  0  0  0
  8 36  1  0  0  0  0
 10 11  1  0  0  0  0
 10 30  1  0  0  0  0
 11 12  1  0  0  0  0
 11 37  1  0  0  0  0
 11 38  1  0  0  0  0
 12 13  1  0  0  0  0
 12 39  1  0  0  0  0
 12 40  1  0  0  0  0
 13 14  1  0  0  0  0
 13 29  2  0  0  0  0
 14 15  2  0  0  0  0
 15 16  1  0  0  0  0
 15 28  1  0  0  0  0
 16 17  2  0  0  0  0
 16 26  1  0  0  0  0
 17 18  1  0  0  0  0
 17 41  1  0  0  0  0
 18 19  1  0  0  0  0
 18 24  2  0  0  0  0
 19 20  2  0  0  0  0
 19 42  1  0  0  0  0
 20 21  1  0  0  0  0
 20 22  1  0  0  0  0
 22 23  2  0  0  0  0
 22 43  1  0  0  0  0
 23 24  1  0  0  0  0
 23 44  1  0  0  0  0
 24 25  1  0  0  0  0
 25 26  1  0  0  0  0
 25 45  1  0  0  0  0
 26 27  2  0  0  0  0
 28 29  1  0  0  0  0
 28 46  1  0  0  0  0
 29 30  1  0  0  0  0
 30 47  1  0  0  0  0
 30 48  1  0  0  0  0
M  END
$$$$
