CHEMBL4099365
 OpenBabel04072215383D

 63 67  0  0  0  0  0  0  0  0999 V2000
    9.9514    4.3384   -2.6425 C   0  0  0  0  0  0  0  0  0  0  0  0
   10.0038    5.1465   -1.4600 O   0  0  0  0  0  0  0  0  0  0  0  0
    8.9527    5.0005   -0.5916 C   0  0  0  0  0  0  0  0  0  0  0  0
    8.2502    3.7862   -0.5039 C   0  0  0  0  0  0  0  0  0  0  0  0
    7.0975    3.6448    0.2492 C   0  0  0  0  0  0  0  0  0  0  0  0
    6.4351    2.4867    0.1682 N   0  0  0  0  0  0  0  0  0  0  0  0
    5.2712    2.4132    0.8176 C   0  0  0  0  0  0  0  0  0  0  0  0
    4.7217    3.3856    1.5507 N   0  0  0  0  0  0  0  0  0  0  0  0
    5.4531    4.5132    1.6838 C   0  0  0  0  0  0  0  0  0  0  0  0
    4.9530    5.5362    2.5044 O   0  0  0  0  0  0  0  0  0  0  0  0
    4.0080    5.1654    3.4520 C   0  0  0  0  0  0  0  0  0  0  0  0
    4.2287    4.0367    4.2284 C   0  0  0  0  0  0  0  0  0  0  0  0
    3.2252    3.5504    5.0498 C   0  0  0  0  0  0  0  0  0  0  0  0
    1.9905    4.2008    5.1878 C   0  0  0  0  0  0  0  0  0  0  0  0
    0.9369    3.5896    5.9358 N   0  0  0  0  0  0  0  0  0  0  0  0
    1.0014    2.3546    6.5704 C   0  0  0  0  0  0  0  0  0  0  0  0
    2.0177    1.6752    6.6617 O   0  0  0  0  0  0  0  0  0  0  0  0
   -0.2138    1.9264    7.0874 N   0  0  0  0  0  0  0  0  0  0  0  0
   -0.3080    0.7011    7.7477 C   0  0  0  0  0  0  0  0  0  0  0  0
    0.7180   -0.1384    8.2500 C   0  0  0  0  0  0  0  0  0  0  0  0
    0.2483   -1.2674    8.7772 N   0  0  0  0  0  0  0  0  0  0  0  0
   -1.0783   -1.1776    8.5851 N   0  0  0  0  0  0  0  0  0  0  0  0
   -1.9140   -2.3295    8.9112 C   0  0  0  0  0  0  0  0  0  0  0  0
   -1.5441   -3.5403    8.0482 C   0  0  0  0  0  0  0  0  0  0  0  0
   -1.8263   -2.6774   10.3976 C   0  0  0  0  0  0  0  0  0  0  0  0
   -1.4685    0.0197    8.0360 C   0  0  0  0  0  0  0  0  0  0  0  0
    1.8174    5.4639    4.5326 C   0  0  0  0  0  0  0  0  0  0  0  0
    0.6775    6.2920    4.6985 C   0  0  0  0  0  0  0  0  0  0  0  0
    0.5544    7.5313    4.0599 C   0  0  0  0  0  0  0  0  0  0  0  0
    1.5586    7.9782    3.2165 C   0  0  0  0  0  0  0  0  0  0  0  0
    2.6865    7.1883    3.0068 C   0  0  0  0  0  0  0  0  0  0  0  0
    2.8464    5.9438    3.6534 C   0  0  0  0  0  0  0  0  0  0  0  0
    6.6634    4.7240    1.0223 C   0  0  0  0  0  0  0  0  0  0  0  0
    7.4407    5.9020    1.0598 C   0  0  0  0  0  0  0  0  0  0  0  0
    8.5657    6.0623    0.2363 C   0  0  0  0  0  0  0  0  0  0  0  0
    9.1100    7.3075    0.3705 O   0  0  0  0  0  0  0  0  0  0  0  0
   10.0988    7.7565   -0.5398 C   0  0  0  0  0  0  0  0  0  0  0  0
   10.4106    4.8989   -3.4605 H   0  0  0  0  0  0  0  0  0  0  0  0
    8.9294    4.0957   -2.9619 H   0  0  0  0  0  0  0  0  0  0  0  0
   10.5282    3.4218   -2.4856 H   0  0  0  0  0  0  0  0  0  0  0  0
    8.5784    2.9138   -1.0637 H   0  0  0  0  0  0  0  0  0  0  0  0
    4.7207    1.4815    0.7438 H   0  0  0  0  0  0  0  0  0  0  0  0
    5.1501    3.4662    4.1466 H   0  0  0  0  0  0  0  0  0  0  0  0
    3.4619    2.6142    5.5374 H   0  0  0  0  0  0  0  0  0  0  0  0
    0.0604    4.0847    5.9956 H   0  0  0  0  0  0  0  0  0  0  0  0
   -1.0719    2.3728    6.8054 H   0  0  0  0  0  0  0  0  0  0  0  0
    1.7889    0.0146    8.2501 H   0  0  0  0  0  0  0  0  0  0  0  0
   -2.9468   -2.0417    8.6817 H   0  0  0  0  0  0  0  0  0  0  0  0
   -0.4994   -3.8382    8.1917 H   0  0  0  0  0  0  0  0  0  0  0  0
   -1.6783   -3.3167    6.9843 H   0  0  0  0  0  0  0  0  0  0  0  0
   -2.1722   -4.4026    8.2945 H   0  0  0  0  0  0  0  0  0  0  0  0
   -0.8077   -2.9570   10.6892 H   0  0  0  0  0  0  0  0  0  0  0  0
   -2.4847   -3.5186   10.6382 H   0  0  0  0  0  0  0  0  0  0  0  0
   -2.1256   -1.8234   11.0152 H   0  0  0  0  0  0  0  0  0  0  0  0
   -2.5096    0.2402    7.8535 H   0  0  0  0  0  0  0  0  0  0  0  0
   -0.1339    6.0037    5.3590 H   0  0  0  0  0  0  0  0  0  0  0  0
   -0.3247    8.1484    4.2307 H   0  0  0  0  0  0  0  0  0  0  0  0
    1.4736    8.9465    2.7267 H   0  0  0  0  0  0  0  0  0  0  0  0
    3.4642    7.5670    2.3461 H   0  0  0  0  0  0  0  0  0  0  0  0
    7.1392    6.7280    1.7017 H   0  0  0  0  0  0  0  0  0  0  0  0
   10.1265    8.8481   -0.4650 H   0  0  0  0  0  0  0  0  0  0  0  0
    9.8579    7.5240   -1.5815 H   0  0  0  0  0  0  0  0  0  0  0  0
   11.0846    7.3805   -0.2517 H   0  0  0  0  0  0  0  0  0  0  0  0
  1  2  1  0  0  0  0
  1 38  1  0  0  0  0
  1 39  1  0  0  0  0
  1 40  1  0  0  0  0
  2  3  1  0  0  0  0
  3  4  1  0  0  0  0
  3 35  2  0  0  0  0
  4  5  2  0  0  0  0
  4 41  1  0  0  0  0
  5  6  1  0  0  0  0
  5 33  1  0  0  0  0
  6  7  2  0  0  0  0
  7  8  1  0  0  0  0
  7 42  1  0  0  0  0
  8  9  2  0  0  0  0
  9 10  1  0  0  0  0
  9 33  1  0  0  0  0
 10 11  1  0  0  0  0
 11 12  1  0  0  0  0
 11 32  2  0  0  0  0
 12 13  2  0  0  0  0
 12 43  1  0  0  0  0
 13 14  1  0  0  0  0
 13 44  1  0  0  0  0
 14 15  1  0  0  0  0
 14 27  2  0  0  0  0
 15 16  1  0  0  0  0
 15 45  1  0  0  0  0
 16 17  2  0  0  0  0
 16 18  1  0  0  0  0
 18 19  1  0  0  0  0
 18 46  1  0  0  0  0
 19 20  1  0  0  0  0
 19 26  2  0  0  0  0
 20 21  2  0  0  0  0
 20 47  1  0  0  0  0
 21 22  1  0  0  0  0
 22 23  1  0  0  0  0
 22 26  1  0  0  0  0
 23 24  1  0  0  0  0
 23 25  1  0  0  0  0
 23 48  1  0  0  0  0
 24 49  1  0  0  0  0
 24 50  1  0  0  0  0
 24 51  1  0  0  0  0
 25 52  1  0  0  0  0
 25 53  1  0  0  0  0
 25 54  1  0  0  0  0
 26 55  1  0  0  0  0
 27 28  1  0  0  0  0
 27 32  1  0  0  0  0
 28 29  2  0  0  0  0
 28 56  1  0  0  0  0
 29 30  1  0  0  0  0
 29 57  1  0  0  0  0
 30 31  2  0  0  0  0
 30 58  1  0  0  0  0
 31 32  1  0  0  0  0
 31 59  1  0  0  0  0
 33 34  2  0  0  0  0
 34 35  1  0  0  0  0
 34 60  1  0  0  0  0
 35 36  1  0  0  0  0
 36 37  1  0  0  0  0
 37 61  1  0  0  0  0
 37 62  1  0  0  0  0
 37 63  1  0  0  0  0
M  END
$$$$
