CHEMBL3899567
 OpenBabel04072215373D

 50 54  0  0  0  0  0  0  0  0999 V2000
    0.9733   -0.4774    0.0171 O   0  0  0  0  0  0  0  0  0  0  0  0
    2.1342   -0.0888   -0.0516 C   0  0  0  0  0  0  0  0  0  0  0  0
    2.7455    0.8278    0.7900 N   0  0  0  0  0  0  0  0  0  0  0  0
    2.1573    1.3985    1.9417 C   0  0  0  0  0  0  0  0  0  0  0  0
    0.9941    0.8929    2.5269 C   0  0  0  0  0  0  0  0  0  0  0  0
    0.3977    1.5269    3.6177 C   0  0  0  0  0  0  0  0  0  0  0  0
    0.9753    2.6680    4.1565 C   0  0  0  0  0  0  0  0  0  0  0  0
    2.1918    3.1331    3.6501 C   0  0  0  0  0  0  0  0  0  0  0  0
    2.8847    4.3054    4.2390 C   0  0  0  0  0  0  0  0  0  0  0  0
    3.5883    4.9949    3.4971 O   0  0  0  0  0  0  0  0  0  0  0  0
    2.8017    4.6561    5.6920 C   0  0  0  0  0  0  0  0  0  0  0  0
    2.4605    3.7371    6.7040 C   0  0  0  0  0  0  0  0  0  0  0  0
    2.3956    4.1192    8.0645 C   0  0  0  0  0  0  0  0  0  0  0  0
    2.8589    5.4012    8.4073 C   0  0  0  0  0  0  0  0  0  0  0  0
    3.1074    6.2053    9.5757 C   0  0  0  0  0  0  0  0  0  0  0  0
    2.2911    7.3165   10.1179 C   0  0  0  0  0  0  0  0  0  0  0  0
    1.4997    7.9095    9.2854 N   0  0  0  0  0  0  0  0  0  0  0  0
    1.4233    9.2706    9.3875 N   0  0  0  0  0  0  0  0  0  0  0  0
    2.2142   10.1863   10.0434 C   0  0  0  0  0  0  0  0  0  0  0  0
    1.9458   11.4069    9.6336 N   0  0  0  0  0  0  0  0  0  0  0  0
    0.9696   11.3148    8.6744 N   0  0  0  0  0  0  0  0  0  0  0  0
    0.6697   10.0436    8.5404 C   0  0  0  0  0  0  0  0  0  0  0  0
    4.3693    6.6697    9.3997 N   0  0  0  0  0  0  0  0  0  0  0  0
    4.3443    6.9401    8.0700 N   0  0  0  0  0  0  0  0  0  0  0  0
    3.4499    6.1471    7.3981 C   0  0  0  0  0  0  0  0  0  0  0  0
    3.2636    5.9300    6.0381 C   0  0  0  0  0  0  0  0  0  0  0  0
    2.7703    2.5104    2.5260 C   0  0  0  0  0  0  0  0  0  0  0  0
    2.9635   -0.6021   -1.1723 C   0  0  0  0  0  0  0  0  0  0  0  0
    2.3215   -0.9073   -2.3808 C   0  0  0  0  0  0  0  0  0  0  0  0
    3.0436   -1.4481   -3.4435 C   0  0  0  0  0  0  0  0  0  0  0  0
    4.4077   -1.6948   -3.2992 C   0  0  0  0  0  0  0  0  0  0  0  0
    5.0505   -1.4022   -2.0945 C   0  0  0  0  0  0  0  0  0  0  0  0
    4.3318   -0.8571   -1.0273 C   0  0  0  0  0  0  0  0  0  0  0  0
    3.6226    1.2282    0.4810 H   0  0  0  0  0  0  0  0  0  0  0  0
    0.5166   -0.0059    2.1513 H   0  0  0  0  0  0  0  0  0  0  0  0
   -0.5250    1.1302    4.0304 H   0  0  0  0  0  0  0  0  0  0  0  0
    0.4606    3.1812    4.9633 H   0  0  0  0  0  0  0  0  0  0  0  0
    2.2846    2.6900    6.4657 H   0  0  0  0  0  0  0  0  0  0  0  0
    2.1316    3.3898    8.8259 H   0  0  0  0  0  0  0  0  0  0  0  0
    2.6488    7.7375   11.0759 H   0  0  0  0  0  0  0  0  0  0  0  0
    2.9868    9.9318   10.7520 H   0  0  0  0  0  0  0  0  0  0  0  0
   -0.0268    9.6175    7.8353 H   0  0  0  0  0  0  0  0  0  0  0  0
    5.0510    7.5355    7.6776 H   0  0  0  0  0  0  0  0  0  0  0  0
    3.6248    6.6294    5.2909 H   0  0  0  0  0  0  0  0  0  0  0  0
    3.6858    2.9225    2.1055 H   0  0  0  0  0  0  0  0  0  0  0  0
    1.2522   -0.7334   -2.4898 H   0  0  0  0  0  0  0  0  0  0  0  0
    2.5381   -1.6882   -4.3757 H   0  0  0  0  0  0  0  0  0  0  0  0
    4.9679   -2.1295   -4.1237 H   0  0  0  0  0  0  0  0  0  0  0  0
    6.1105   -1.6178   -1.9833 H   0  0  0  0  0  0  0  0  0  0  0  0
    4.8397   -0.6790   -0.0840 H   0  0  0  0  0  0  0  0  0  0  0  0
  1  2  2  0  0  0  0
  2  3  1  0  0  0  0
  2 28  1  0  0  0  0
  3  4  1  0  0  0  0
  3 34  1  0  0  0  0
  4  5  1  0  0  0  0
  4 27  2  0  0  0  0
  5  6  2  0  0  0  0
  5 35  1  0  0  0  0
  6  7  1  0  0  0  0
  6 36  1  0  0  0  0
  7  8  2  0  0  0  0
  7 37  1  0  0  0  0
  8  9  1  0  0  0  0
  8 27  1  0  0  0  0
  9 10  2  0  0  0  0
  9 11  1  0  0  0  0
 11 12  1  0  0  0  0
 11 26  2  0  0  0  0
 12 13  2  0  0  0  0
 12 38  1  0  0  0  0
 13 14  1  0  0  0  0
 13 39  1  0  0  0  0
 14 15  1  0  0  0  0
 14 25  2  0  0  0  0
 15 16  1  0  0  0  0
 15 23  2  0  0  0  0
 16 17  2  0  0  0  0
 16 40  1  0  0  0  0
 17 18  1  0  0  0  0
 18 19  1  0  0  0  0
 18 22  1  0  0  0  0
 19 20  2  0  0  0  0
 19 41  1  0  0  0  0
 20 21  1  0  0  0  0
 21 22  2  0  0  0  0
 22 42  1  0  0  0  0
 23 24  1  0  0  0  0
 24 25  1  0  0  0  0
 24 43  1  0  0  0  0
 25 26  1  0  0  0  0
 26 44  1  0  0  0  0
 27 45  1  0  0  0  0
 28 29  1  0  0  0  0
 28 33  2  0  0  0  0
 29 30  2  0  0  0  0
 29 46  1  0  0  0  0
 30 31  1  0  0  0  0
 30 47  1  0  0  0  0
 31 32  2  0  0  0  0
 31 48  1  0  0  0  0
 32 33  1  0  0  0  0
 32 49  1  0  0  0  0
 33 50  1  0  0  0  0
M  END
$$$$
