CHEMBL374745
 OpenBabel04072215373D

 66 72  0  0  0  0  0  0  0  0999 V2000
    3.3446   -1.6989   -0.3306 C   0  0  0  0  0  0  0  0  0  0  0  0
    3.0366   -0.3743    0.3509 C   0  0  0  0  0  0  0  0  0  0  0  0
    3.5704   -0.2667    1.7895 C   0  0  0  0  0  0  0  0  0  0  0  0
    5.0185   -0.1307    1.9142 N   0  0  0  0  0  0  0  0  0  0  0  0
    5.7007    1.1001    1.7829 C   0  0  0  0  0  0  0  0  0  0  0  0
    5.2399    2.4126    1.5842 C   0  0  0  0  0  0  0  0  0  0  0  0
    6.1892    3.4459    1.4323 C   0  0  0  0  0  0  0  0  0  0  0  0
    7.5646    3.2186    1.4957 C   0  0  0  0  0  0  0  0  0  0  0  0
    8.5664    4.2209    1.3665 N   0  0  0  0  0  0  0  0  0  0  0  0
    8.3386    5.5526    1.0891 C   0  0  0  0  0  0  0  0  0  0  0  0
    7.2363    6.0372    0.8871 O   0  0  0  0  0  0  0  0  0  0  0  0
    9.5225    6.3000    1.0557 N   0  0  0  0  0  0  0  0  0  0  0  0
    9.5529    7.7087    0.9090 C   0  0  0  0  0  0  0  0  0  0  0  0
    8.4528    8.5107    1.2405 C   0  0  0  0  0  0  0  0  0  0  0  0
    8.4524    9.8786    0.9745 C   0  0  0  0  0  0  0  0  0  0  0  0
    9.5737   10.4600    0.4083 C   0  0  0  0  0  0  0  0  0  0  0  0
    9.5642   11.7672    0.1200 F   0  0  0  0  0  0  0  0  0  0  0  0
   10.7065    9.6992    0.1397 C   0  0  0  0  0  0  0  0  0  0  0  0
   10.7034    8.3213    0.3944 C   0  0  0  0  0  0  0  0  0  0  0  0
    8.0057    1.9083    1.6763 C   0  0  0  0  0  0  0  0  0  0  0  0
    7.0802    0.8454    1.7905 C   0  0  0  0  0  0  0  0  0  0  0  0
    7.1146   -0.5331    1.8088 C   0  0  0  0  0  0  0  0  0  0  0  0
    8.2257   -1.2598    1.3602 C   0  0  0  0  0  0  0  0  0  0  0  0
    7.9522   -2.5719    0.9273 C   0  0  0  0  0  0  0  0  0  0  0  0
    6.6952   -3.1890    1.0476 C   0  0  0  0  0  0  0  0  0  0  0  0
    5.8807   -2.5922    2.0667 C   0  0  0  0  0  0  0  0  0  0  0  0
    5.9330   -1.1794    2.0503 C   0  0  0  0  0  0  0  0  0  0  0  0
    5.9134   -3.4546    3.4040 C   0  0  0  0  0  0  0  0  0  0  0  0
    6.9610   -4.6498    3.3958 C   0  0  0  0  0  0  0  0  0  0  0  0
    6.7507   -5.3884    2.1210 C   0  0  0  0  0  0  0  0  0  0  0  0
    6.3512   -6.6500    1.9650 N   0  0  0  0  0  0  0  0  0  0  0  0
    5.8749   -6.6503    0.6938 N   0  0  0  0  0  0  0  0  0  0  0  0
    5.2059   -7.8210    0.1799 C   0  0  0  0  0  0  0  0  0  0  0  0
    5.8853   -5.4095    0.1028 C   0  0  0  0  0  0  0  0  0  0  0  0
    6.6194   -4.6233    0.9517 C   0  0  0  0  0  0  0  0  0  0  0  0
    9.2115   -3.1579    0.5183 C   0  0  0  0  0  0  0  0  0  0  0  0
    9.5369   -4.2645    0.1282 O   0  0  0  0  0  0  0  0  0  0  0  0
   10.1421   -2.1439    0.7252 N   0  0  0  0  0  0  0  0  0  0  0  0
    9.6222   -0.8833    1.1946 C   0  0  0  0  0  0  0  0  0  0  0  0
    2.9112   -1.7167   -1.3368 H   0  0  0  0  0  0  0  0  0  0  0  0
    2.9200   -2.5374    0.2304 H   0  0  0  0  0  0  0  0  0  0  0  0
    4.4202   -1.8525   -0.4377 H   0  0  0  0  0  0  0  0  0  0  0  0
    1.9443   -0.2615    0.3770 H   0  0  0  0  0  0  0  0  0  0  0  0
    3.4184    0.4455   -0.2689 H   0  0  0  0  0  0  0  0  0  0  0  0
    3.2508   -1.1189    2.3968 H   0  0  0  0  0  0  0  0  0  0  0  0
    3.1317    0.6280    2.2497 H   0  0  0  0  0  0  0  0  0  0  0  0
    4.1809    2.6440    1.5115 H   0  0  0  0  0  0  0  0  0  0  0  0
    5.7881    4.4420    1.2679 H   0  0  0  0  0  0  0  0  0  0  0  0
    9.5242    3.9333    1.5080 H   0  0  0  0  0  0  0  0  0  0  0  0
   10.3733    5.7973    0.8267 H   0  0  0  0  0  0  0  0  0  0  0  0
    7.5640    8.0904    1.7043 H   0  0  0  0  0  0  0  0  0  0  0  0
    7.5744   10.4783    1.1941 H   0  0  0  0  0  0  0  0  0  0  0  0
   11.5776   10.1855   -0.2893 H   0  0  0  0  0  0  0  0  0  0  0  0
   11.5933    7.7467    0.1614 H   0  0  0  0  0  0  0  0  0  0  0  0
    9.0669    1.6960    1.7135 H   0  0  0  0  0  0  0  0  0  0  0  0
    4.9139   -3.8786    3.5490 H   0  0  0  0  0  0  0  0  0  0  0  0
    6.1481   -2.8023    4.2524 H   0  0  0  0  0  0  0  0  0  0  0  0
    6.8653   -5.2972    4.2707 H   0  0  0  0  0  0  0  0  0  0  0  0
    7.9855   -4.2444    3.4023 H   0  0  0  0  0  0  0  0  0  0  0  0
    5.4259   -8.6774    0.8218 H   0  0  0  0  0  0  0  0  0  0  0  0
    5.5665   -8.0102   -0.8337 H   0  0  0  0  0  0  0  0  0  0  0  0
    4.1310   -7.6218    0.1736 H   0  0  0  0  0  0  0  0  0  0  0  0
    5.3343   -5.2018   -0.8041 H   0  0  0  0  0  0  0  0  0  0  0  0
   11.1208   -2.3505    0.6057 H   0  0  0  0  0  0  0  0  0  0  0  0
    9.7688   -0.1312    0.4189 H   0  0  0  0  0  0  0  0  0  0  0  0
   10.0956   -0.6101    2.1400 H   0  0  0  0  0  0  0  0  0  0  0  0
  1  2  1  0  0  0  0
  1 40  1  0  0  0  0
  1 41  1  0  0  0  0
  1 42  1  0  0  0  0
  2  3  1  0  0  0  0
  2 43  1  0  0  0  0
  2 44  1  0  0  0  0
  3  4  1  0  0  0  0
  3 45  1  0  0  0  0
  3 46  1  0  0  0  0
  4  5  1  0  0  0  0
  4 27  1  0  0  0  0
  5  6  1  0  0  0  0
  5 21  2  0  0  0  0
  6  7  2  0  0  0  0
  6 47  1  0  0  0  0
  7  8  1  0  0  0  0
  7 48  1  0  0  0  0
  8  9  1  0  0  0  0
  8 20  2  0  0  0  0
  9 10  1  0  0  0  0
  9 49  1  0  0  0  0
 10 11  2  0  0  0  0
 10 12  1  0  0  0  0
 12 13  1  0  0  0  0
 12 50  1  0  0  0  0
 13 14  1  0  0  0  0
 13 19  2  0  0  0  0
 14 15  2  0  0  0  0
 14 51  1  0  0  0  0
 15 16  1  0  0  0  0
 15 52  1  0  0  0  0
 16 17  1  0  0  0  0
 16 18  2  0  0  0  0
 18 19  1  0  0  0  0
 18 53  1  0  0  0  0
 19 54  1  0  0  0  0
 20 21  1  0  0  0  0
 20 55  1  0  0  0  0
 21 22  1  0  0  0  0
 22 23  1  0  0  0  0
 22 27  2  0  0  0  0
 23 24  2  0  0  0  0
 23 39  1  0  0  0  0
 24 25  1  0  0  0  0
 24 36  1  0  0  0  0
 25 26  2  0  0  0  0
 25 35  1  0  0  0  0
 26 27  1  0  0  0  0
 26 28  1  0  0  0  0
 28 29  1  0  0  0  0
 28 56  1  0  0  0  0
 28 57  1  0  0  0  0
 29 30  1  0  0  0  0
 29 58  1  0  0  0  0
 29 59  1  0  0  0  0
 30 31  2  0  0  0  0
 30 35  1  0  0  0  0
 31 32  1  0  0  0  0
 32 33  1  0  0  0  0
 32 34  1  0  0  0  0
 33 60  1  0  0  0  0
 33 61  1  0  0  0  0
 33 62  1  0  0  0  0
 34 35  2  0  0  0  0
 34 63  1  0  0  0  0
 36 37  2  0  0  0  0
 36 38  1  0  0  0  0
 38 39  1  0  0  0  0
 38 64  1  0  0  0  0
 39 65  1  0  0  0  0
 39 66  1  0  0  0  0
M  END
$$$$
