CHEMBL431073
 OpenBabel04072215383D

 28 30  0  0  0  0  0  0  0  0999 V2000
    1.3878   -0.1819   -0.0075 C   0  0  0  0  0  0  0  0  0  0  0  0
    0.4990   -1.1149    0.5146 C   0  0  0  0  0  0  0  0  0  0  0  0
   -0.8765   -0.8846    0.4376 C   0  0  0  0  0  0  0  0  0  0  0  0
   -1.3817    0.2846   -0.1553 C   0  0  0  0  0  0  0  0  0  0  0  0
   -2.8284    0.5184   -0.1783 C   0  0  0  0  0  0  0  0  0  0  0  0
   -3.7805    0.1235    0.7388 C   0  0  0  0  0  0  0  0  0  0  0  0
   -5.0781    0.4543    0.4415 N   0  0  0  0  0  0  0  0  0  0  0  0
   -5.1493    1.0823   -0.7109 C   0  0  0  0  0  0  0  0  0  0  0  0
   -6.2842    1.4777   -1.3294 N   0  0  0  0  0  0  0  0  0  0  0  0
   -7.5521    0.9223   -1.1257 C   0  0  0  0  0  0  0  0  0  0  0  0
   -7.9329    0.3036    0.0515 C   0  0  0  0  0  0  0  0  0  0  0  0
   -9.1719   -0.2888    0.0793 C   0  0  0  0  0  0  0  0  0  0  0  0
  -10.0254   -0.2566   -0.9532 N   0  0  0  0  0  0  0  0  0  0  0  0
   -9.5899    0.4083   -2.0312 C   0  0  0  0  0  0  0  0  0  0  0  0
   -8.3944    1.0051   -2.1724 N   0  0  0  0  0  0  0  0  0  0  0  0
   -3.6164    1.3568   -1.4555 S   0  0  0  0  0  0  0  0  0  0  0  0
   -0.4704    1.2131   -0.6758 C   0  0  0  0  0  0  0  0  0  0  0  0
    0.9045    0.9807   -0.6042 C   0  0  0  0  0  0  0  0  0  0  0  0
    2.4576   -0.3575    0.0517 H   0  0  0  0  0  0  0  0  0  0  0  0
    0.8715   -2.0221    0.9832 H   0  0  0  0  0  0  0  0  0  0  0  0
   -1.5470   -1.6354    0.8463 H   0  0  0  0  0  0  0  0  0  0  0  0
   -3.5826   -0.4186    1.6549 H   0  0  0  0  0  0  0  0  0  0  0  0
   -6.2200    1.8367   -2.2740 H   0  0  0  0  0  0  0  0  0  0  0  0
   -7.2983    0.2563    0.9244 H   0  0  0  0  0  0  0  0  0  0  0  0
   -9.5082   -0.8272    0.9600 H   0  0  0  0  0  0  0  0  0  0  0  0
  -10.2674    0.4634   -2.8753 H   0  0  0  0  0  0  0  0  0  0  0  0
   -0.8166    2.1388   -1.1302 H   0  0  0  0  0  0  0  0  0  0  0  0
    1.5971    1.7137   -1.0091 H   0  0  0  0  0  0  0  0  0  0  0  0
  1  2  1  0  0  0  0
  1 18  2  0  0  0  0
  1 19  1  0  0  0  0
  2  3  2  0  0  0  0
  2 20  1  0  0  0  0
  3  4  1  0  0  0  0
  3 21  1  0  0  0  0
  4  5  1  0  0  0  0
  4 17  2  0  0  0  0
  5  6  2  0  0  0  0
  5 16  1  0  0  0  0
  6  7  1  0  0  0  0
  6 22  1  0  0  0  0
  7  8  2  0  0  0  0
  8  9  1  0  0  0  0
  8 16  1  0  0  0  0
  9 10  1  0  0  0  0
  9 23  1  0  0  0  0
 10 11  1  0  0  0  0
 10 15  2  0  0  0  0
 11 12  2  0  0  0  0
 11 24  1  0  0  0  0
 12 13  1  0  0  0  0
 12 25  1  0  0  0  0
 13 14  2  0  0  0  0
 14 15  1  0  0  0  0
 14 26  1  0  0  0  0
 17 18  1  0  0  0  0
 17 27  1  0  0  0  0
 18 28  1  0  0  0  0
M  END
$$$$
