CHEMBL3951245
 OpenBabel04072215373D

 62 66  0  0  0  0  0  0  0  0999 V2000
    1.7348    0.1920   -1.9335 C   0  0  0  0  0  0  0  0  0  0  0  0
    1.6908    1.3977   -1.1813 O   0  0  0  0  0  0  0  0  0  0  0  0
    2.8591    2.0694   -0.9407 C   0  0  0  0  0  0  0  0  0  0  0  0
    2.7652    3.0118    0.0761 C   0  0  0  0  0  0  0  0  0  0  0  0
    3.8729    3.7823    0.4224 C   0  0  0  0  0  0  0  0  0  0  0  0
    3.8617    4.7101    1.4290 O   0  0  0  0  0  0  0  0  0  0  0  0
    3.2227    4.2342    2.6112 C   0  0  0  0  0  0  0  0  0  0  0  0
    5.0833    3.6375   -0.2538 C   0  0  0  0  0  0  0  0  0  0  0  0
    5.2445    2.6721   -1.2455 C   0  0  0  0  0  0  0  0  0  0  0  0
    6.5757    2.4445   -1.7444 N   0  0  0  0  0  0  0  0  0  0  0  0
    6.7906    1.0076   -2.2461 C   0  0  0  0  0  0  0  0  0  0  0  0
    7.4084    0.1695   -1.2081 C   0  0  0  0  0  0  0  0  0  0  0  0
    7.7120    0.4250    0.0921 C   0  0  0  0  0  0  0  0  0  0  0  0
    8.5955   -0.5883    0.4556 C   0  0  0  0  0  0  0  0  0  0  0  0
    9.4570   -0.5635    1.6507 C   0  0  0  0  0  0  0  0  0  0  0  0
    8.6768   -1.5416   -0.4860 N   0  0  0  0  0  0  0  0  0  0  0  0
    7.9089   -1.0617   -1.5479 O   0  0  0  0  0  0  0  0  0  0  0  0
    7.4821    3.4386   -2.3289 C   0  0  0  0  0  0  0  0  0  0  0  0
    7.5121    3.3443   -3.6925 C   0  0  0  0  0  0  0  0  0  0  0  0
    8.5814    3.8595   -4.3483 C   0  0  0  0  0  0  0  0  0  0  0  0
    9.5613    4.5845   -3.7896 C   0  0  0  0  0  0  0  0  0  0  0  0
   10.4517    4.6295   -4.7340 N   0  0  0  0  0  0  0  0  0  0  0  0
   11.3992    5.5322   -4.6857 C   0  0  0  0  0  0  0  0  0  0  0  0
   11.5527    6.4569   -3.6982 C   0  0  0  0  0  0  0  0  0  0  0  0
   12.6035    7.4784   -4.1999 C   0  0  0  0  0  0  0  0  0  0  0  0
   13.9318    7.8151   -3.7684 C   0  0  0  0  0  0  0  0  0  0  0  0
   14.7545    8.2570   -4.7533 N   0  0  0  0  0  0  0  0  0  0  0  0
   14.0273    8.1755   -5.8791 N   0  0  0  0  0  0  0  0  0  0  0  0
   14.6534    8.2580   -7.2186 C   0  0  0  0  0  0  0  0  0  0  0  0
   15.8237    9.2439   -7.3895 C   0  0  0  0  0  0  0  0  0  0  0  0
   16.9851    8.8287   -6.6781 O   0  0  0  0  0  0  0  0  0  0  0  0
   12.7291    7.7890   -5.5840 C   0  0  0  0  0  0  0  0  0  0  0  0
   10.7317    6.2674   -2.5391 N   0  0  0  0  0  0  0  0  0  0  0  0
    9.5935    5.1724   -2.5297 C   0  0  0  0  0  0  0  0  0  0  0  0
    8.4398    4.3773   -1.7284 C   0  0  0  0  0  0  0  0  0  0  0  0
    4.0837    1.9211   -1.6100 C   0  0  0  0  0  0  0  0  0  0  0  0
    0.7018   -0.1430   -2.0886 H   0  0  0  0  0  0  0  0  0  0  0  0
    2.2578   -0.5951   -1.3809 H   0  0  0  0  0  0  0  0  0  0  0  0
    2.1730    0.3454   -2.9218 H   0  0  0  0  0  0  0  0  0  0  0  0
    1.8151    3.1380    0.5863 H   0  0  0  0  0  0  0  0  0  0  0  0
    3.5221    4.8867    3.4358 H   0  0  0  0  0  0  0  0  0  0  0  0
    3.5356    3.2129    2.8610 H   0  0  0  0  0  0  0  0  0  0  0  0
    2.1358    4.2943    2.5080 H   0  0  0  0  0  0  0  0  0  0  0  0
    5.9350    4.2317    0.0558 H   0  0  0  0  0  0  0  0  0  0  0  0
    7.4483    0.9626   -3.1222 H   0  0  0  0  0  0  0  0  0  0  0  0
    5.8786    0.5103   -2.6000 H   0  0  0  0  0  0  0  0  0  0  0  0
    7.4723    1.3247    0.6437 H   0  0  0  0  0  0  0  0  0  0  0  0
    9.5349    0.4711    2.0083 H   0  0  0  0  0  0  0  0  0  0  0  0
   10.4690   -0.8999    1.4136 H   0  0  0  0  0  0  0  0  0  0  0  0
    9.0367   -1.1698    2.4542 H   0  0  0  0  0  0  0  0  0  0  0  0
    6.8109    2.7445   -4.2606 H   0  0  0  0  0  0  0  0  0  0  0  0
    8.6625    3.6108   -5.4121 H   0  0  0  0  0  0  0  0  0  0  0  0
   11.9815    5.5179   -5.5939 H   0  0  0  0  0  0  0  0  0  0  0  0
   14.3753    7.6899   -2.8052 H   0  0  0  0  0  0  0  0  0  0  0  0
   13.8659    8.5336   -7.9322 H   0  0  0  0  0  0  0  0  0  0  0  0
   15.0002    7.2473   -7.4776 H   0  0  0  0  0  0  0  0  0  0  0  0
   15.5587   10.2574   -7.0771 H   0  0  0  0  0  0  0  0  0  0  0  0
   16.1218    9.2993   -8.4473 H   0  0  0  0  0  0  0  0  0  0  0  0
   16.7037    8.7219   -5.7454 H   0  0  0  0  0  0  0  0  0  0  0  0
   12.0614    7.5970   -6.4167 H   0  0  0  0  0  0  0  0  0  0  0  0
    8.3774    4.5345   -0.6424 H   0  0  0  0  0  0  0  0  0  0  0  0
    4.1014    1.2421   -2.4544 H   0  0  0  0  0  0  0  0  0  0  0  0
  1  2  1  0  0  0  0
  1 37  1  0  0  0  0
  1 38  1  0  0  0  0
  1 39  1  0  0  0  0
  2  3  1  0  0  0  0
  3  4  1  0  0  0  0
  3 36  2  0  0  0  0
  4  5  2  0  0  0  0
  4 40  1  0  0  0  0
  5  6  1  0  0  0  0
  5  8  1  0  0  0  0
  6  7  1  0  0  0  0
  7 41  1  0  0  0  0
  7 42  1  0  0  0  0
  7 43  1  0  0  0  0
  8  9  2  0  0  0  0
  8 44  1  0  0  0  0
  9 10  1  0  0  0  0
  9 36  1  0  0  0  0
 10 11  1  0  0  0  0
 10 18  1  0  0  0  0
 11 12  1  0  0  0  0
 11 45  1  0  0  0  0
 11 46  1  0  0  0  0
 12 13  2  0  0  0  0
 12 17  1  0  0  0  0
 13 14  1  0  0  0  0
 13 47  1  0  0  0  0
 14 15  1  0  0  0  0
 14 16  2  0  0  0  0
 15 48  1  0  0  0  0
 15 49  1  0  0  0  0
 15 50  1  0  0  0  0
 16 17  1  0  0  0  0
 18 19  1  0  0  0  0
 18 35  2  0  0  0  0
 19 20  2  0  0  0  0
 19 51  1  0  0  0  0
 20 21  1  0  0  0  0
 20 52  1  0  0  0  0
 21 22  1  0  0  0  0
 21 34  2  0  0  0  0
 22 23  2  0  0  0  0
 23 24  1  0  0  0  0
 23 53  1  0  0  0  0
 24 25  1  0  0  0  0
 24 33  2  0  0  0  0
 25 26  1  0  0  0  0
 25 32  2  0  0  0  0
 26 27  2  0  0  0  0
 26 54  1  0  0  0  0
 27 28  1  0  0  0  0
 28 29  1  0  0  0  0
 28 32  1  0  0  0  0
 29 30  1  0  0  0  0
 29 55  1  0  0  0  0
 29 56  1  0  0  0  0
 30 31  1  0  0  0  0
 30 57  1  0  0  0  0
 30 58  1  0  0  0  0
 31 59  1  0  0  0  0
 32 60  1  0  0  0  0
 33 34  1  0  0  0  0
 34 35  1  0  0  0  0
 35 61  1  0  0  0  0
 36 62  1  0  0  0  0
M  END
$$$$
