CHEMBL429845
 OpenBabel04072215383D

 68 73  0  0  0  0  0  0  0  0999 V2000
    0.9207   -0.1681   -0.0893 C   0  0  0  0  0  0  0  0  0  0  0  0
    2.4428   -0.0212    0.0007 C   0  0  0  0  0  0  0  0  0  0  0  0
    3.2086   -0.1911   -1.3122 C   0  0  0  0  0  0  0  0  0  0  0  0
    2.8478    1.2283    0.7415 C   0  0  0  0  0  0  0  0  0  0  0  0
    3.6425    1.2450    1.9379 C   0  0  0  0  0  0  0  0  0  0  0  0
    4.3222    0.1084    2.6328 C   0  0  0  0  0  0  0  0  0  0  0  0
    4.3650   -1.1334    2.1969 N   0  0  0  0  0  0  0  0  0  0  0  0
    5.1540   -1.8472    3.0735 N   0  0  0  0  0  0  0  0  0  0  0  0
    5.5239   -0.9991    4.0124 C   0  0  0  0  0  0  0  0  0  0  0  0
    6.3481   -1.1500    5.0638 N   0  0  0  0  0  0  0  0  0  0  0  0
    6.1320   -0.3407    6.2634 C   0  0  0  0  0  0  0  0  0  0  0  0
    7.4707   -0.1584    7.0075 C   0  0  0  0  0  0  0  0  0  0  0  0
    8.1260   -1.4484    7.3247 N   0  0  0  0  0  0  0  0  0  0  0  0
    9.4194   -1.2129    7.9620 C   0  0  0  0  0  0  0  0  0  0  0  0
    8.2894   -2.2430    6.0823 C   0  0  0  0  0  0  0  0  0  0  0  0
    6.9506   -2.4557    5.3310 C   0  0  0  0  0  0  0  0  0  0  0  0
    5.0294    0.2560    3.7970 O   0  0  0  0  0  0  0  0  0  0  0  0
    3.6981    2.5430    2.3862 C   0  0  0  0  0  0  0  0  0  0  0  0
    3.0530    3.3334    1.4786 N   0  0  0  0  0  0  0  0  0  0  0  0
    2.9355    4.6624    1.5867 N   0  0  0  0  0  0  0  0  0  0  0  0
    2.2908    5.2070    0.6064 C   0  0  0  0  0  0  0  0  0  0  0  0
    1.7542    4.5643   -0.4700 N   0  0  0  0  0  0  0  0  0  0  0  0
    1.8331    3.2697   -0.5842 C   0  0  0  0  0  0  0  0  0  0  0  0
    1.2660    2.6420   -1.6773 N   0  0  0  0  0  0  0  0  0  0  0  0
    0.0732    2.9808   -2.3553 C   0  0  0  0  0  0  0  0  0  0  0  0
   -0.6773    4.1237   -2.0752 C   0  0  0  0  0  0  0  0  0  0  0  0
   -1.8141    4.4679   -2.8258 C   0  0  0  0  0  0  0  0  0  0  0  0
   -2.4855    5.7469   -2.4776 C   0  0  0  0  0  0  0  0  0  0  0  0
   -2.0446    6.4266   -1.5537 O   0  0  0  0  0  0  0  0  0  0  0  0
   -3.5759    6.1361   -3.2265 N   0  0  0  0  0  0  0  0  0  0  0  0
   -4.2220    7.3819   -2.9689 C   0  0  0  0  0  0  0  0  0  0  0  0
   -5.3490    7.4439   -1.9750 C   0  0  0  0  0  0  0  0  0  0  0  0
   -5.6191    7.6697   -3.4344 C   0  0  0  0  0  0  0  0  0  0  0  0
   -2.2227    3.6242   -3.8571 C   0  0  0  0  0  0  0  0  0  0  0  0
   -3.3034    3.9111   -4.5984 F   0  0  0  0  0  0  0  0  0  0  0  0
   -1.5117    2.4649   -4.1492 C   0  0  0  0  0  0  0  0  0  0  0  0
   -0.3721    2.1634   -3.4077 C   0  0  0  0  0  0  0  0  0  0  0  0
    0.3113    1.0450   -3.7007 F   0  0  0  0  0  0  0  0  0  0  0  0
    2.5482    2.5650    0.4600 C   0  0  0  0  0  0  0  0  0  0  0  0
    0.6393   -1.0185   -0.7155 H   0  0  0  0  0  0  0  0  0  0  0  0
    0.4046    0.7122   -0.4646 H   0  0  0  0  0  0  0  0  0  0  0  0
    0.5105   -0.3355    0.9144 H   0  0  0  0  0  0  0  0  0  0  0  0
    2.7299   -0.8939    0.5933 H   0  0  0  0  0  0  0  0  0  0  0  0
    3.2024    0.6980   -1.9461 H   0  0  0  0  0  0  0  0  0  0  0  0
    2.8176   -1.0327   -1.8917 H   0  0  0  0  0  0  0  0  0  0  0  0
    4.2649   -0.3988   -1.0996 H   0  0  0  0  0  0  0  0  0  0  0  0
    5.4037   -0.8426    6.9145 H   0  0  0  0  0  0  0  0  0  0  0  0
    5.7313    0.6523    6.0307 H   0  0  0  0  0  0  0  0  0  0  0  0
    7.2747    0.3940    7.9342 H   0  0  0  0  0  0  0  0  0  0  0  0
    8.1327    0.4609    6.3865 H   0  0  0  0  0  0  0  0  0  0  0  0
    9.2869   -0.6624    8.8998 H   0  0  0  0  0  0  0  0  0  0  0  0
   10.1021   -0.6427    7.3221 H   0  0  0  0  0  0  0  0  0  0  0  0
    9.8997   -2.1642    8.2188 H   0  0  0  0  0  0  0  0  0  0  0  0
    8.7126   -3.2245    6.3271 H   0  0  0  0  0  0  0  0  0  0  0  0
    8.9934   -1.7396    5.4050 H   0  0  0  0  0  0  0  0  0  0  0  0
    6.2707   -3.0639    5.9424 H   0  0  0  0  0  0  0  0  0  0  0  0
    7.1518   -3.0095    4.4062 H   0  0  0  0  0  0  0  0  0  0  0  0
    4.1559    2.9875    3.2600 H   0  0  0  0  0  0  0  0  0  0  0  0
    2.1464    6.3008    0.6246 H   0  0  0  0  0  0  0  0  0  0  0  0
    1.5343    1.6860   -1.8542 H   0  0  0  0  0  0  0  0  0  0  0  0
   -0.3912    4.7834   -1.2612 H   0  0  0  0  0  0  0  0  0  0  0  0
   -3.8960    5.5618   -4.0006 H   0  0  0  0  0  0  0  0  0  0  0  0
   -3.5276    8.2212   -2.9687 H   0  0  0  0  0  0  0  0  0  0  0  0
   -5.3638    8.2920   -1.3001 H   0  0  0  0  0  0  0  0  0  0  0  0
   -5.6899    6.5176   -1.5286 H   0  0  0  0  0  0  0  0  0  0  0  0
   -5.8413    8.6834   -3.7518 H   0  0  0  0  0  0  0  0  0  0  0  0
   -6.1583    6.9044   -3.9724 H   0  0  0  0  0  0  0  0  0  0  0  0
   -1.8317    1.8103   -4.9526 H   0  0  0  0  0  0  0  0  0  0  0  0
  1  2  1  0  0  0  0
  1 40  1  0  0  0  0
  1 41  1  0  0  0  0
  1 42  1  0  0  0  0
  2  3  1  0  0  0  0
  2  4  1  0  0  0  0
  2 43  1  0  0  0  0
  3 44  1  0  0  0  0
  3 45  1  0  0  0  0
  3 46  1  0  0  0  0
  4  5  1  0  0  0  0
  4 39  2  0  0  0  0
  5  6  1  0  0  0  0
  5 18  2  0  0  0  0
  6  7  2  0  0  0  0
  6 17  1  0  0  0  0
  7  8  1  0  0  0  0
  8  9  2  0  0  0  0
  9 10  1  0  0  0  0
  9 17  1  0  0  0  0
 10 11  1  0  0  0  0
 10 16  1  0  0  0  0
 11 12  1  0  0  0  0
 11 47  1  0  0  0  0
 11 48  1  0  0  0  0
 12 13  1  0  0  0  0
 12 49  1  0  0  0  0
 12 50  1  0  0  0  0
 13 14  1  0  0  0  0
 13 15  1  0  0  0  0
 14 51  1  0  0  0  0
 14 52  1  0  0  0  0
 14 53  1  0  0  0  0
 15 16  1  0  0  0  0
 15 54  1  0  0  0  0
 15 55  1  0  0  0  0
 16 56  1  0  0  0  0
 16 57  1  0  0  0  0
 18 19  1  0  0  0  0
 18 58  1  0  0  0  0
 19 20  1  0  0  0  0
 19 39  1  0  0  0  0
 20 21  2  0  0  0  0
 21 22  1  0  0  0  0
 21 59  1  0  0  0  0
 22 23  2  0  0  0  0
 23 24  1  0  0  0  0
 23 39  1  0  0  0  0
 24 25  1  0  0  0  0
 24 60  1  0  0  0  0
 25 26  1  0  0  0  0
 25 37  2  0  0  0  0
 26 27  2  0  0  0  0
 26 61  1  0  0  0  0
 27 28  1  0  0  0  0
 27 34  1  0  0  0  0
 28 29  2  0  0  0  0
 28 30  1  0  0  0  0
 30 31  1  0  0  0  0
 30 62  1  0  0  0  0
 31 32  1  0  0  0  0
 31 33  1  0  0  0  0
 31 63  1  0  0  0  0
 32 33  1  0  0  0  0
 32 64  1  0  0  0  0
 32 65  1  0  0  0  0
 33 66  1  0  0  0  0
 33 67  1  0  0  0  0
 34 35  1  0  0  0  0
 34 36  2  0  0  0  0
 36 37  1  0  0  0  0
 36 68  1  0  0  0  0
 37 38  1  0  0  0  0
M  END
$$$$
