CHEMBL3942387
 OpenBabel04072215373D

 66 69  0  0  1  0  0  0  0  0999 V2000
    3.1666   -5.3778    1.7388 C   0  0  0  0  0  0  0  0  0  0  0  0
    4.0929   -4.3509    2.0442 O   0  0  0  0  0  0  0  0  0  0  0  0
    3.9971   -3.1349    1.4331 C   0  0  0  0  0  0  0  0  0  0  0  0
    5.2548   -2.5287    1.2677 C   0  0  0  0  0  0  0  0  0  0  0  0
    5.3965   -1.2364    0.7038 C   0  0  0  0  0  0  0  0  0  0  0  0
    6.6008   -0.5699    0.4364 C   0  0  0  0  0  0  0  0  0  0  0  0
    7.8387   -1.2509    0.6187 N   0  0  0  0  0  0  0  0  0  0  0  0
    9.0697   -0.5687    0.7311 C   0  0  0  0  0  0  0  0  0  0  0  0
    9.1780    0.5238    1.6042 C   0  0  0  0  0  0  0  0  0  0  0  0
   10.3351    1.2952    1.6529 C   0  0  0  0  0  0  0  0  0  0  0  0
   11.4155    0.9731    0.8339 C   0  0  0  0  0  0  0  0  0  0  0  0
   12.7879    2.0205    0.8748 Cl  0  0  0  0  0  0  0  0  0  0  0  0
   11.3449   -0.1510    0.0017 C   0  0  0  0  0  0  0  0  0  0  0  0
   12.6534   -0.6117   -1.0313 Cl  0  0  0  0  0  0  0  0  0  0  0  0
   10.1792   -0.9285   -0.0397 C   0  0  0  0  0  0  0  0  0  0  0  0
    6.6323    0.7044   -0.0141 N   0  0  0  0  0  0  0  0  0  0  0  0
    5.4612    1.3067   -0.2219 C   0  0  0  0  0  0  0  0  0  0  0  0
    4.2707    0.7509   -0.0521 N   0  0  0  0  0  0  0  0  0  0  0  0
    4.2538   -0.5020    0.4078 C   0  0  0  0  0  0  0  0  0  0  0  0
    3.0258   -1.0996    0.5903 C   0  0  0  0  0  0  0  0  0  0  0  0
    2.8598   -2.4266    1.0390 C   0  0  0  0  0  0  0  0  0  0  0  0
    1.6020   -2.9882    1.1016 O   0  0  0  0  0  0  0  0  0  0  0  0
    0.6614   -2.3355    0.2283 C   0  0  0  0  0  0  0  0  0  0  0  0
   -0.5556   -3.1824   -0.0995 C   0  0  3  0  0  0  0  0  0  0  0  0
   -0.1099   -4.5096   -0.7277 C   0  0  0  0  0  0  0  0  0  0  0  0
   -1.2635   -5.2314   -1.2567 N   0  0  0  0  0  0  0  0  0  0  0  0
   -1.6240   -6.5269   -0.9411 C   0  0  0  0  0  0  0  0  0  0  0  0
   -2.6277   -7.0568   -1.4252 O   0  0  0  0  0  0  0  0  0  0  0  0
   -0.7442   -7.2698    0.0552 C   0  0  0  0  0  0  0  0  0  0  0  0
   -1.2598   -8.6854    0.3156 C   0  0  0  0  0  0  0  0  0  0  0  0
   -0.4105   -9.4996    1.3072 C   0  0  0  0  0  0  0  0  0  0  0  0
   -0.3392   -8.8526    2.6911 C   0  0  0  0  0  0  0  0  0  0  0  0
   -0.9888  -10.9124    1.4321 C   0  0  0  0  0  0  0  0  0  0  0  0
   -2.0981   -4.4305   -2.1544 C   0  0  0  0  0  0  0  0  0  0  0  0
   -2.5129   -3.1381   -1.4543 C   0  0  0  0  0  0  0  0  0  0  0  0
   -1.3543   -2.4075   -1.0242 O   0  0  0  0  0  0  0  0  0  0  0  0
    3.7451   -6.2925    1.5613 H   0  0  0  0  0  0  0  0  0  0  0  0
    2.5718   -5.1993    0.8433 H   0  0  0  0  0  0  0  0  0  0  0  0
    2.5266   -5.5612    2.6072 H   0  0  0  0  0  0  0  0  0  0  0  0
    6.1398   -3.0692    1.6030 H   0  0  0  0  0  0  0  0  0  0  0  0
    7.8718   -2.0486   -0.0099 H   0  0  0  0  0  0  0  0  0  0  0  0
    8.3295    0.8003    2.2283 H   0  0  0  0  0  0  0  0  0  0  0  0
   10.3686    2.1598    2.3101 H   0  0  0  0  0  0  0  0  0  0  0  0
   10.1295   -1.7818   -0.7092 H   0  0  0  0  0  0  0  0  0  0  0  0
    5.4839    2.3361   -0.5622 H   0  0  0  0  0  0  0  0  0  0  0  0
    2.1738   -0.4659    0.3560 H   0  0  0  0  0  0  0  0  0  0  0  0
    1.1353   -2.0918   -0.7344 H   0  0  0  0  0  0  0  0  0  0  0  0
    0.3115   -1.4028    0.6897 H   0  0  0  0  0  0  0  0  0  0  0  0
   -1.1458   -3.3677    0.8058 H   0  0  0  0  0  0  0  0  0  0  0  0
    0.4393   -5.1042    0.0031 H   0  0  0  0  0  0  0  0  0  0  0  0
    0.5549   -4.3315   -1.5790 H   0  0  0  0  0  0  0  0  0  0  0  0
   -0.7449   -6.6973    0.9903 H   0  0  0  0  0  0  0  0  0  0  0  0
    0.2789   -7.3202   -0.3388 H   0  0  0  0  0  0  0  0  0  0  0  0
   -1.2973   -9.2237   -0.6414 H   0  0  0  0  0  0  0  0  0  0  0  0
   -2.2952   -8.6316    0.6777 H   0  0  0  0  0  0  0  0  0  0  0  0
    0.6098   -9.5815    0.9123 H   0  0  0  0  0  0  0  0  0  0  0  0
   -1.3397   -8.7006    3.1094 H   0  0  0  0  0  0  0  0  0  0  0  0
    0.1682   -7.8840    2.6553 H   0  0  0  0  0  0  0  0  0  0  0  0
    0.2245   -9.4856    3.3849 H   0  0  0  0  0  0  0  0  0  0  0  0
   -2.0127  -10.8881    1.8202 H   0  0  0  0  0  0  0  0  0  0  0  0
   -0.3845  -11.5233    2.1108 H   0  0  0  0  0  0  0  0  0  0  0  0
   -1.0081  -11.4137    0.4586 H   0  0  0  0  0  0  0  0  0  0  0  0
   -2.9842   -4.9812   -2.4883 H   0  0  0  0  0  0  0  0  0  0  0  0
   -1.4859   -4.1988   -3.0331 H   0  0  0  0  0  0  0  0  0  0  0  0
   -3.1446   -3.3332   -0.5801 H   0  0  0  0  0  0  0  0  0  0  0  0
   -3.0743   -2.4940   -2.1403 H   0  0  0  0  0  0  0  0  0  0  0  0
  1  2  1  0  0  0  0
  1 37  1  0  0  0  0
  1 38  1  0  0  0  0
  1 39  1  0  0  0  0
  2  3  1  0  0  0  0
  3  4  1  0  0  0  0
  3 21  2  0  0  0  0
  4  5  2  0  0  0  0
  4 40  1  0  0  0  0
  5  6  1  0  0  0  0
  5 19  1  0  0  0  0
  6  7  1  0  0  0  0
  6 16  2  0  0  0  0
  7  8  1  0  0  0  0
  7 41  1  0  0  0  0
  8  9  1  0  0  0  0
  8 15  2  0  0  0  0
  9 10  2  0  0  0  0
  9 42  1  0  0  0  0
 10 11  1  0  0  0  0
 10 43  1  0  0  0  0
 11 12  1  0  0  0  0
 11 13  2  0  0  0  0
 13 14  1  0  0  0  0
 13 15  1  0  0  0  0
 15 44  1  0  0  0  0
 16 17  1  0  0  0  0
 17 18  2  0  0  0  0
 17 45  1  0  0  0  0
 18 19  1  0  0  0  0
 19 20  2  0  0  0  0
 20 21  1  0  0  0  0
 20 46  1  0  0  0  0
 21 22  1  0  0  0  0
 22 23  1  0  0  0  0
 23 24  1  0  0  0  0
 23 47  1  0  0  0  0
 23 48  1  0  0  0  0
 24 25  1  0  0  0  0
 24 36  1  0  0  0  0
 24 49  1  0  0  0  0
 25 26  1  0  0  0  0
 25 50  1  0  0  0  0
 25 51  1  0  0  0  0
 26 27  1  0  0  0  0
 26 34  1  0  0  0  0
 27 28  2  0  0  0  0
 27 29  1  0  0  0  0
 29 30  1  0  0  0  0
 29 52  1  0  0  0  0
 29 53  1  0  0  0  0
 30 31  1  0  0  0  0
 30 54  1  0  0  0  0
 30 55  1  0  0  0  0
 31 32  1  0  0  0  0
 31 33  1  0  0  0  0
 31 56  1  0  0  0  0
 32 57  1  0  0  0  0
 32 58  1  0  0  0  0
 32 59  1  0  0  0  0
 33 60  1  0  0  0  0
 33 61  1  0  0  0  0
 33 62  1  0  0  0  0
 34 35  1  0  0  0  0
 34 63  1  0  0  0  0
 34 64  1  0  0  0  0
 35 36  1  0  0  0  0
 35 65  1  0  0  0  0
 35 66  1  0  0  0  0
M  END
$$$$
