CHEMBL1242029
 OpenBabel04072215363D

 38 40  0  0  0  0  0  0  0  0999 V2000
    0.7131    0.9014   -0.1541 C   0  0  0  0  0  0  0  0  0  0  0  0
    2.0318    1.2826   -0.5164 O   0  0  0  0  0  0  0  0  0  0  0  0
    2.9105    1.5352    0.4991 C   0  0  0  0  0  0  0  0  0  0  0  0
    2.6338    1.5008    1.8638 C   0  0  0  0  0  0  0  0  0  0  0  0
    3.6416    1.7934    2.7863 C   0  0  0  0  0  0  0  0  0  0  0  0
    4.9158    2.1581    2.3447 C   0  0  0  0  0  0  0  0  0  0  0  0
    5.2028    2.2190    0.9752 C   0  0  0  0  0  0  0  0  0  0  0  0
    6.5286    2.6319    0.5087 C   0  0  0  0  0  0  0  0  0  0  0  0
    7.6212    2.2872    1.2165 N   0  0  0  0  0  0  0  0  0  0  0  0
    8.6550    2.7802    0.5032 N   0  0  0  0  0  0  0  0  0  0  0  0
   10.0225    2.5747    0.9698 C   0  0  0  0  0  0  0  0  0  0  0  0
   10.2536    3.2309    2.3320 C   0  0  0  0  0  0  0  0  0  0  0  0
   10.3859    1.0897    1.0131 C   0  0  0  0  0  0  0  0  0  0  0  0
    8.2679    3.4577   -0.6186 C   0  0  0  0  0  0  0  0  0  0  0  0
    9.0678    4.0599   -1.5153 N   0  0  0  0  0  0  0  0  0  0  0  0
    8.3595    4.6391   -2.4972 C   0  0  0  0  0  0  0  0  0  0  0  0
    7.0213    4.6802   -2.6375 N   0  0  0  0  0  0  0  0  0  0  0  0
    6.2527    4.0693   -1.7140 C   0  0  0  0  0  0  0  0  0  0  0  0
    4.8854    4.1717   -1.9087 N   0  0  0  0  0  0  0  0  0  0  0  0
    6.8808    3.4034   -0.6455 C   0  0  0  0  0  0  0  0  0  0  0  0
    4.1994    1.8623    0.0682 C   0  0  0  0  0  0  0  0  0  0  0  0
    0.1760    0.6557   -1.0753 H   0  0  0  0  0  0  0  0  0  0  0  0
    0.1855    1.7284    0.3322 H   0  0  0  0  0  0  0  0  0  0  0  0
    0.7178    0.0068    0.4760 H   0  0  0  0  0  0  0  0  0  0  0  0
    1.6509    1.2409    2.2423 H   0  0  0  0  0  0  0  0  0  0  0  0
    3.4354    1.7402    3.8526 H   0  0  0  0  0  0  0  0  0  0  0  0
    5.6878    2.3915    3.0763 H   0  0  0  0  0  0  0  0  0  0  0  0
   10.6859    3.0615    0.2448 H   0  0  0  0  0  0  0  0  0  0  0  0
    9.5967    2.8094    3.1010 H   0  0  0  0  0  0  0  0  0  0  0  0
   10.0607    4.3080    2.2836 H   0  0  0  0  0  0  0  0  0  0  0  0
   11.2885    3.0879    2.6612 H   0  0  0  0  0  0  0  0  0  0  0  0
    9.7551    0.5392    1.7198 H   0  0  0  0  0  0  0  0  0  0  0  0
   11.4286    0.9558    1.3213 H   0  0  0  0  0  0  0  0  0  0  0  0
   10.2641    0.6280    0.0274 H   0  0  0  0  0  0  0  0  0  0  0  0
    8.9318    5.1389   -3.2714 H   0  0  0  0  0  0  0  0  0  0  0  0
    4.6609    4.8623   -2.6155 H   0  0  0  0  0  0  0  0  0  0  0  0
    4.3134    4.1865   -1.0750 H   0  0  0  0  0  0  0  0  0  0  0  0
    4.4048    1.8303   -0.9994 H   0  0  0  0  0  0  0  0  0  0  0  0
  1  2  1  0  0  0  0
  1 22  1  0  0  0  0
  1 23  1  0  0  0  0
  1 24  1  0  0  0  0
  2  3  1  0  0  0  0
  3  4  1  0  0  0  0
  3 21  2  0  0  0  0
  4  5  2  0  0  0  0
  4 25  1  0  0  0  0
  5  6  1  0  0  0  0
  5 26  1  0  0  0  0
  6  7  2  0  0  0  0
  6 27  1  0  0  0  0
  7  8  1  0  0  0  0
  7 21  1  0  0  0  0
  8  9  2  0  0  0  0
  8 20  1  0  0  0  0
  9 10  1  0  0  0  0
 10 11  1  0  0  0  0
 10 14  1  0  0  0  0
 11 12  1  0  0  0  0
 11 13  1  0  0  0  0
 11 28  1  0  0  0  0
 12 29  1  0  0  0  0
 12 30  1  0  0  0  0
 12 31  1  0  0  0  0
 13 32  1  0  0  0  0
 13 33  1  0  0  0  0
 13 34  1  0  0  0  0
 14 15  1  0  0  0  0
 14 20  2  0  0  0  0
 15 16  2  0  0  0  0
 16 17  1  0  0  0  0
 16 35  1  0  0  0  0
 17 18  2  0  0  0  0
 18 19  1  0  0  0  0
 18 20  1  0  0  0  0
 19 36  1  0  0  0  0
 19 37  1  0  0  0  0
 21 38  1  0  0  0  0
M  END
$$$$
