CHEMBL438797
 OpenBabel04072215383D

 47 50  0  0  0  0  0  0  0  0999 V2000
   -1.6000   -2.8397   -1.5368 C   0  0  0  0  0  0  0  0  0  0  0  0
   -0.8623   -1.5331   -1.4936 C   0  0  0  0  0  0  0  0  0  0  0  0
   -1.5497   -0.3818   -1.9347 C   0  0  0  0  0  0  0  0  0  0  0  0
   -0.9433    0.8739   -1.9367 C   0  0  0  0  0  0  0  0  0  0  0  0
    0.3544    1.0008   -1.4757 C   0  0  0  0  0  0  0  0  0  0  0  0
    1.0401   -0.1245   -1.0188 C   0  0  0  0  0  0  0  0  0  0  0  0
    0.4677   -1.4100   -1.0414 C   0  0  0  0  0  0  0  0  0  0  0  0
    1.2060   -2.5586   -0.6230 N   0  0  0  0  0  0  0  0  0  0  0  0
    2.5782   -2.5885   -0.4427 C   0  0  0  0  0  0  0  0  0  0  0  0
    3.3272   -1.6288   -0.6199 O   0  0  0  0  0  0  0  0  0  0  0  0
    3.0670   -3.8424   -0.0757 N   0  0  0  0  0  0  0  0  0  0  0  0
    4.4616   -3.9966    0.1577 C   0  0  0  0  0  0  0  0  0  0  0  0
    5.1840   -3.0206    0.8484 C   0  0  0  0  0  0  0  0  0  0  0  0
    6.5811   -3.0446    0.8684 C   0  0  0  0  0  0  0  0  0  0  0  0
    7.2949   -4.0977    0.2853 C   0  0  0  0  0  0  0  0  0  0  0  0
    8.7733   -4.0849    0.2521 C   0  0  0  0  0  0  0  0  0  0  0  0
    9.5287   -3.7024    1.3653 C   0  0  0  0  0  0  0  0  0  0  0  0
    9.1453   -3.2680    2.7488 C   0  0  0  0  0  0  0  0  0  0  0  0
   11.2128   -3.7457    1.0504 S   0  0  0  0  0  0  0  0  0  0  0  0
   10.9818   -4.2959   -0.5303 C   0  0  0  0  0  0  0  0  0  0  0  0
   12.0601   -4.5382   -1.2944 N   0  0  0  0  0  0  0  0  0  0  0  0
   11.7363   -4.9589   -2.5126 C   0  0  0  0  0  0  0  0  0  0  0  0
   10.5054   -5.1254   -3.0065 N   0  0  0  0  0  0  0  0  0  0  0  0
    9.4460   -4.8565   -2.2182 C   0  0  0  0  0  0  0  0  0  0  0  0
    8.2154   -5.0131   -2.8456 N   0  0  0  0  0  0  0  0  0  0  0  0
    9.6457   -4.4326   -0.8832 C   0  0  0  0  0  0  0  0  0  0  0  0
    6.5520   -5.1397   -0.2932 C   0  0  0  0  0  0  0  0  0  0  0  0
    5.1470   -5.0846   -0.3750 C   0  0  0  0  0  0  0  0  0  0  0  0
   -2.5194   -2.7578   -2.1324 H   0  0  0  0  0  0  0  0  0  0  0  0
   -1.8857   -3.1473   -0.5261 H   0  0  0  0  0  0  0  0  0  0  0  0
   -0.9959   -3.6225   -2.0062 H   0  0  0  0  0  0  0  0  0  0  0  0
   -2.5732   -0.4571   -2.2948 H   0  0  0  0  0  0  0  0  0  0  0  0
   -1.4793    1.7461   -2.2966 H   0  0  0  0  0  0  0  0  0  0  0  0
    0.8464    1.9706   -1.4580 H   0  0  0  0  0  0  0  0  0  0  0  0
    2.0407    0.0559   -0.6394 H   0  0  0  0  0  0  0  0  0  0  0  0
    0.7026   -3.4269   -0.5319 H   0  0  0  0  0  0  0  0  0  0  0  0
    2.5887   -4.6276   -0.4927 H   0  0  0  0  0  0  0  0  0  0  0  0
    4.6721   -2.1896    1.3297 H   0  0  0  0  0  0  0  0  0  0  0  0
    7.0891   -2.2009    1.3281 H   0  0  0  0  0  0  0  0  0  0  0  0
    8.0919   -3.4334    2.9790 H   0  0  0  0  0  0  0  0  0  0  0  0
    9.3603   -2.2002    2.8787 H   0  0  0  0  0  0  0  0  0  0  0  0
    9.7167   -3.8226    3.5014 H   0  0  0  0  0  0  0  0  0  0  0  0
   12.5620   -5.1853   -3.1804 H   0  0  0  0  0  0  0  0  0  0  0  0
    8.3637   -5.1109   -3.8447 H   0  0  0  0  0  0  0  0  0  0  0  0
    7.5372   -4.3079   -2.5835 H   0  0  0  0  0  0  0  0  0  0  0  0
    7.0592   -5.9904   -0.7452 H   0  0  0  0  0  0  0  0  0  0  0  0
    4.6243   -5.8600   -0.9282 H   0  0  0  0  0  0  0  0  0  0  0  0
  1  2  1  0  0  0  0
  1 29  1  0  0  0  0
  1 30  1  0  0  0  0
  1 31  1  0  0  0  0
  2  3  1  0  0  0  0
  2  7  2  0  0  0  0
  3  4  2  0  0  0  0
  3 32  1  0  0  0  0
  4  5  1  0  0  0  0
  4 33  1  0  0  0  0
  5  6  2  0  0  0  0
  5 34  1  0  0  0  0
  6  7  1  0  0  0  0
  6 35  1  0  0  0  0
  7  8  1  0  0  0  0
  8  9  1  0  0  0  0
  8 36  1  0  0  0  0
  9 10  2  0  0  0  0
  9 11  1  0  0  0  0
 11 12  1  0  0  0  0
 11 37  1  0  0  0  0
 12 13  1  0  0  0  0
 12 28  2  0  0  0  0
 13 14  2  0  0  0  0
 13 38  1  0  0  0  0
 14 15  1  0  0  0  0
 14 39  1  0  0  0  0
 15 16  1  0  0  0  0
 15 27  2  0  0  0  0
 16 17  2  0  0  0  0
 16 26  1  0  0  0  0
 17 18  1  0  0  0  0
 17 19  1  0  0  0  0
 18 40  1  0  0  0  0
 18 41  1  0  0  0  0
 18 42  1  0  0  0  0
 19 20  1  0  0  0  0
 20 21  1  0  0  0  0
 20 26  2  0  0  0  0
 21 22  2  0  0  0  0
 22 23  1  0  0  0  0
 22 43  1  0  0  0  0
 23 24  2  0  0  0  0
 24 25  1  0  0  0  0
 24 26  1  0  0  0  0
 25 44  1  0  0  0  0
 25 45  1  0  0  0  0
 27 28  1  0  0  0  0
 27 46  1  0  0  0  0
 28 47  1  0  0  0  0
M  END
$$$$
