CHEMBL482489
 OpenBabel04072215383D

 44 47  0  0  0  0  0  0  0  0999 V2000
    1.2167    0.2513   -0.1023 N   0  0  0  0  0  0  0  0  0  0  0  0
    2.5970    0.2085   -0.0583 C   0  0  0  0  0  0  0  0  0  0  0  0
    3.1423   -1.0111    0.0200 N   0  0  0  0  0  0  0  0  0  0  0  0
    4.4930   -1.1573    0.0002 C   0  0  0  0  0  0  0  0  0  0  0  0
    5.0665   -2.4346    0.0132 N   0  0  0  0  0  0  0  0  0  0  0  0
    4.5439   -3.6202    0.5540 C   0  0  0  0  0  0  0  0  0  0  0  0
    4.9493   -4.8551    0.0295 C   0  0  0  0  0  0  0  0  0  0  0  0
    4.4099   -6.0511    0.5126 C   0  0  0  0  0  0  0  0  0  0  0  0
    3.4596   -6.0265    1.5316 C   0  0  0  0  0  0  0  0  0  0  0  0
    3.0484   -4.8039    2.0541 C   0  0  0  0  0  0  0  0  0  0  0  0
    1.7667   -4.7579    3.4448 Br  0  0  0  0  0  0  0  0  0  0  0  0
    3.5727   -3.6122    1.5652 C   0  0  0  0  0  0  0  0  0  0  0  0
    5.2669    0.0068   -0.1035 C   0  0  0  0  0  0  0  0  0  0  0  0
    6.6489    0.3269   -0.1988 C   0  0  0  0  0  0  0  0  0  0  0  0
    6.7623    1.6969   -0.3705 C   0  0  0  0  0  0  0  0  0  0  0  0
    7.9518    2.5581   -0.6817 C   0  0  0  0  0  0  0  0  0  0  0  0
    8.9486    1.8236   -1.5913 C   0  0  0  0  0  0  0  0  0  0  0  0
   10.0833    2.6873   -2.0886 C   0  0  0  0  0  0  0  0  0  0  0  0
    9.9093    3.3950   -3.2915 C   0  0  0  0  0  0  0  0  0  0  0  0
   10.9444    4.1616   -3.8296 C   0  0  0  0  0  0  0  0  0  0  0  0
   12.1685    4.2392   -3.1719 C   0  0  0  0  0  0  0  0  0  0  0  0
   12.3526    3.5589   -1.9689 C   0  0  0  0  0  0  0  0  0  0  0  0
   11.3164    2.7918   -1.4255 C   0  0  0  0  0  0  0  0  0  0  0  0
   11.6232    1.9788    0.0677 Cl  0  0  0  0  0  0  0  0  0  0  0  0
    5.4945    2.2203   -0.2302 N   0  0  0  0  0  0  0  0  0  0  0  0
    4.5801    1.2070   -0.1285 C   0  0  0  0  0  0  0  0  0  0  0  0
    3.2517    1.3736   -0.0876 N   0  0  0  0  0  0  0  0  0  0  0  0
    0.8402   -0.6161    0.2527 H   0  0  0  0  0  0  0  0  0  0  0  0
    0.8793    1.1145    0.2982 H   0  0  0  0  0  0  0  0  0  0  0  0
    6.0466   -2.4657   -0.2226 H   0  0  0  0  0  0  0  0  0  0  0  0
    5.6706   -4.8922   -0.7829 H   0  0  0  0  0  0  0  0  0  0  0  0
    4.7234   -6.9995    0.0851 H   0  0  0  0  0  0  0  0  0  0  0  0
    3.0429   -6.9579    1.9051 H   0  0  0  0  0  0  0  0  0  0  0  0
    3.2408   -2.6665    1.9870 H   0  0  0  0  0  0  0  0  0  0  0  0
    7.4691   -0.3794   -0.2141 H   0  0  0  0  0  0  0  0  0  0  0  0
    8.4356    2.8676    0.2520 H   0  0  0  0  0  0  0  0  0  0  0  0
    7.6093    3.4738   -1.1816 H   0  0  0  0  0  0  0  0  0  0  0  0
    8.4185    1.4175   -2.4642 H   0  0  0  0  0  0  0  0  0  0  0  0
    9.3491    0.9386   -1.0824 H   0  0  0  0  0  0  0  0  0  0  0  0
    8.9646    3.3367   -3.8297 H   0  0  0  0  0  0  0  0  0  0  0  0
   10.7970    4.6897   -4.7689 H   0  0  0  0  0  0  0  0  0  0  0  0
   12.9791    4.8268   -3.5956 H   0  0  0  0  0  0  0  0  0  0  0  0
   13.3122    3.6236   -1.4617 H   0  0  0  0  0  0  0  0  0  0  0  0
    5.2406    3.1976   -0.2663 H   0  0  0  0  0  0  0  0  0  0  0  0
  1  2  1  0  0  0  0
  1 28  1  0  0  0  0
  1 29  1  0  0  0  0
  2  3  1  0  0  0  0
  2 27  2  0  0  0  0
  3  4  2  0  0  0  0
  4  5  1  0  0  0  0
  4 13  1  0  0  0  0
  5  6  1  0  0  0  0
  5 30  1  0  0  0  0
  6  7  1  0  0  0  0
  6 12  2  0  0  0  0
  7  8  2  0  0  0  0
  7 31  1  0  0  0  0
  8  9  1  0  0  0  0
  8 32  1  0  0  0  0
  9 10  2  0  0  0  0
  9 33  1  0  0  0  0
 10 11  1  0  0  0  0
 10 12  1  0  0  0  0
 12 34  1  0  0  0  0
 13 14  1  0  0  0  0
 13 26  2  0  0  0  0
 14 15  2  0  0  0  0
 14 35  1  0  0  0  0
 15 16  1  0  0  0  0
 15 25  1  0  0  0  0
 16 17  1  0  0  0  0
 16 36  1  0  0  0  0
 16 37  1  0  0  0  0
 17 18  1  0  0  0  0
 17 38  1  0  0  0  0
 17 39  1  0  0  0  0
 18 19  1  0  0  0  0
 18 23  2  0  0  0  0
 19 20  2  0  0  0  0
 19 40  1  0  0  0  0
 20 21  1  0  0  0  0
 20 41  1  0  0  0  0
 21 22  2  0  0  0  0
 21 42  1  0  0  0  0
 22 23  1  0  0  0  0
 22 43  1  0  0  0  0
 23 24  1  0  0  0  0
 25 26  1  0  0  0  0
 25 44  1  0  0  0  0
 26 27  1  0  0  0  0
M  END
$$$$
