CHEMBL3968499
 OpenBabel04072215373D

 60 63  0  0  0  0  0  0  0  0999 V2000
    4.1642   -1.6729    5.4878 C   0  0  0  0  0  0  0  0  0  0  0  0
    3.9280   -1.1285    4.1626 N   0  0  0  0  0  0  0  0  0  0  0  0
    4.6771    0.1127    3.9680 C   0  0  0  0  0  0  0  0  0  0  0  0
    4.4238    0.5634    2.5414 C   0  0  0  0  0  0  0  0  0  0  0  0
    5.1879    1.8373    2.1598 C   0  0  0  0  0  0  0  0  0  0  0  0
    6.6748    1.8179    2.4429 N   0  0  0  0  0  0  0  0  0  0  0  0
    7.4071    1.0869    1.4357 C   0  0  0  0  0  0  0  0  0  0  0  0
    6.7319    0.2644    0.4873 C   0  0  0  0  0  0  0  0  0  0  0  0
    7.3403   -0.6058   -0.4083 C   0  0  0  0  0  0  0  0  0  0  0  0
    6.6987   -1.4756   -1.2484 O   0  0  0  0  0  0  0  0  0  0  0  0
    5.2938   -1.6427   -1.0613 C   0  0  0  0  0  0  0  0  0  0  0  0
    8.7211   -0.5776   -0.4970 C   0  0  0  0  0  0  0  0  0  0  0  0
    9.4328    0.3576    0.2605 C   0  0  0  0  0  0  0  0  0  0  0  0
   10.7868    0.5608    0.1088 O   0  0  0  0  0  0  0  0  0  0  0  0
   11.2907    0.2587   -1.1861 C   0  0  0  0  0  0  0  0  0  0  0  0
    8.7877    1.1444    1.2535 C   0  0  0  0  0  0  0  0  0  0  0  0
    7.1081    2.6868    3.5144 C   0  0  0  0  0  0  0  0  0  0  0  0
    6.3169    3.8008    3.8145 C   0  0  0  0  0  0  0  0  0  0  0  0
    6.6520    4.7493    4.7523 C   0  0  0  0  0  0  0  0  0  0  0  0
    7.7713    4.6392    5.5006 C   0  0  0  0  0  0  0  0  0  0  0  0
    7.9118    5.7099    6.2717 N   0  0  0  0  0  0  0  0  0  0  0  0
    8.8397    5.6304    7.2138 C   0  0  0  0  0  0  0  0  0  0  0  0
    9.5986    4.4946    7.3970 C   0  0  0  0  0  0  0  0  0  0  0  0
   10.3364    4.4817    8.6580 C   0  0  0  0  0  0  0  0  0  0  0  0
   10.0167    3.8457    9.8862 C   0  0  0  0  0  0  0  0  0  0  0  0
   10.7257    4.3165   10.9221 N   0  0  0  0  0  0  0  0  0  0  0  0
   11.4906    5.2726   10.3694 N   0  0  0  0  0  0  0  0  0  0  0  0
   12.5697    5.8820   11.1113 C   0  0  0  0  0  0  0  0  0  0  0  0
   11.1784    5.5114    9.0608 C   0  0  0  0  0  0  0  0  0  0  0  0
    9.5241    3.4184    6.5194 N   0  0  0  0  0  0  0  0  0  0  0  0
    8.5800    3.4827    5.4735 C   0  0  0  0  0  0  0  0  0  0  0  0
    8.2532    2.5431    4.3747 C   0  0  0  0  0  0  0  0  0  0  0  0
    3.6189   -2.6149    5.5893 H   0  0  0  0  0  0  0  0  0  0  0  0
    3.8146   -0.9863    6.2636 H   0  0  0  0  0  0  0  0  0  0  0  0
    5.2267   -1.8858    5.6422 H   0  0  0  0  0  0  0  0  0  0  0  0
    2.9320   -0.9625    4.0277 H   0  0  0  0  0  0  0  0  0  0  0  0
    5.7470   -0.0692    4.1174 H   0  0  0  0  0  0  0  0  0  0  0  0
    4.3495    0.8863    4.6710 H   0  0  0  0  0  0  0  0  0  0  0  0
    3.3533    0.7723    2.4010 H   0  0  0  0  0  0  0  0  0  0  0  0
    4.6322   -0.2767    1.8779 H   0  0  0  0  0  0  0  0  0  0  0  0
    4.6216    2.6080    2.6737 H   0  0  0  0  0  0  0  0  0  0  0  0
    5.0127    2.1111    1.1076 H   0  0  0  0  0  0  0  0  0  0  0  0
    5.6628    0.3056    0.3927 H   0  0  0  0  0  0  0  0  0  0  0  0
    4.9581   -2.4737   -1.6906 H   0  0  0  0  0  0  0  0  0  0  0  0
    4.7567   -0.7447   -1.3833 H   0  0  0  0  0  0  0  0  0  0  0  0
    5.0440   -1.8952   -0.0248 H   0  0  0  0  0  0  0  0  0  0  0  0
    9.1994   -1.2410   -1.2006 H   0  0  0  0  0  0  0  0  0  0  0  0
   12.2840    0.7078   -1.2789 H   0  0  0  0  0  0  0  0  0  0  0  0
   10.6637    0.6803   -1.9829 H   0  0  0  0  0  0  0  0  0  0  0  0
   11.4016   -0.8236   -1.3159 H   0  0  0  0  0  0  0  0  0  0  0  0
    9.3912    1.8445    1.8276 H   0  0  0  0  0  0  0  0  0  0  0  0
    5.3924    4.0477    3.3181 H   0  0  0  0  0  0  0  0  0  0  0  0
    5.9936    5.5978    4.9065 H   0  0  0  0  0  0  0  0  0  0  0  0
    8.8938    6.4938    7.8676 H   0  0  0  0  0  0  0  0  0  0  0  0
    9.2569    3.0997   10.0822 H   0  0  0  0  0  0  0  0  0  0  0  0
   12.6406    5.4328   12.1051 H   0  0  0  0  0  0  0  0  0  0  0  0
   12.3971    6.9583   11.1918 H   0  0  0  0  0  0  0  0  0  0  0  0
   13.4915    5.6881   10.5556 H   0  0  0  0  0  0  0  0  0  0  0  0
   11.5727    6.3767    8.5443 H   0  0  0  0  0  0  0  0  0  0  0  0
    8.9021    1.6769    4.2537 H   0  0  0  0  0  0  0  0  0  0  0  0
  1  2  1  0  0  0  0
  1 33  1  0  0  0  0
  1 34  1  0  0  0  0
  1 35  1  0  0  0  0
  2  3  1  0  0  0  0
  2 36  1  0  0  0  0
  3  4  1  0  0  0  0
  3 37  1  0  0  0  0
  3 38  1  0  0  0  0
  4  5  1  0  0  0  0
  4 39  1  0  0  0  0
  4 40  1  0  0  0  0
  5  6  1  0  0  0  0
  5 41  1  0  0  0  0
  5 42  1  0  0  0  0
  6  7  1  0  0  0  0
  6 17  1  0  0  0  0
  7  8  1  0  0  0  0
  7 16  2  0  0  0  0
  8  9  2  0  0  0  0
  8 43  1  0  0  0  0
  9 10  1  0  0  0  0
  9 12  1  0  0  0  0
 10 11  1  0  0  0  0
 11 44  1  0  0  0  0
 11 45  1  0  0  0  0
 11 46  1  0  0  0  0
 12 13  2  0  0  0  0
 12 47  1  0  0  0  0
 13 14  1  0  0  0  0
 13 16  1  0  0  0  0
 14 15  1  0  0  0  0
 15 48  1  0  0  0  0
 15 49  1  0  0  0  0
 15 50  1  0  0  0  0
 16 51  1  0  0  0  0
 17 18  1  0  0  0  0
 17 32  2  0  0  0  0
 18 19  2  0  0  0  0
 18 52  1  0  0  0  0
 19 20  1  0  0  0  0
 19 53  1  0  0  0  0
 20 21  1  0  0  0  0
 20 31  2  0  0  0  0
 21 22  2  0  0  0  0
 22 23  1  0  0  0  0
 22 54  1  0  0  0  0
 23 24  1  0  0  0  0
 23 30  2  0  0  0  0
 24 25  1  0  0  0  0
 24 29  2  0  0  0  0
 25 26  2  0  0  0  0
 25 55  1  0  0  0  0
 26 27  1  0  0  0  0
 27 28  1  0  0  0  0
 27 29  1  0  0  0  0
 28 56  1  0  0  0  0
 28 57  1  0  0  0  0
 28 58  1  0  0  0  0
 29 59  1  0  0  0  0
 30 31  1  0  0  0  0
 31 32  1  0  0  0  0
 32 60  1  0  0  0  0
M  END
$$$$
