CHEMBL74034
 OpenBabel04072215383D

 42 45  0  0  0  0  0  0  0  0999 V2000
    2.9658   -2.6324   -5.1489 Cl  0  0  0  0  0  0  0  0  0  0  0  0
    3.1461   -1.8480   -3.6283 C   0  0  0  0  0  0  0  0  0  0  0  0
    3.1170   -2.5949   -2.4506 C   0  0  0  0  0  0  0  0  0  0  0  0
    3.3200   -1.9685   -1.2149 C   0  0  0  0  0  0  0  0  0  0  0  0
    3.5960   -0.5956   -1.1569 C   0  0  0  0  0  0  0  0  0  0  0  0
    3.8539    0.0354    0.0789 N   0  0  0  0  0  0  0  0  0  0  0  0
    4.6391    1.2099    0.2278 C   0  0  0  0  0  0  0  0  0  0  0  0
    5.5722    1.4921   -0.7056 N   0  0  0  0  0  0  0  0  0  0  0  0
    6.2491    2.6753   -0.6927 N   0  0  0  0  0  0  0  0  0  0  0  0
    6.0159    3.5987    0.2583 C   0  0  0  0  0  0  0  0  0  0  0  0
    6.6203    4.8562    0.1474 N   0  0  0  0  0  0  0  0  0  0  0  0
    7.2952    5.1955   -1.0977 C   0  0  0  0  0  0  0  0  0  0  0  0
    6.4082    6.1671   -1.8335 C   0  0  0  0  0  0  0  0  0  0  0  0
    6.5422    7.5476   -1.6575 C   0  0  0  0  0  0  0  0  0  0  0  0
    5.6338    8.3863   -2.2849 C   0  0  0  0  0  0  0  0  0  0  0  0
    4.6158    7.9519   -3.0584 N   0  0  0  0  0  0  0  0  0  0  0  0
    4.4997    6.6151   -3.2092 C   0  0  0  0  0  0  0  0  0  0  0  0
    5.3583    5.6963   -2.6293 C   0  0  0  0  0  0  0  0  0  0  0  0
    5.0886    3.3349    1.2954 C   0  0  0  0  0  0  0  0  0  0  0  0
    4.7605    4.2723    2.3078 C   0  0  0  0  0  0  0  0  0  0  0  0
    3.7999    3.9960    3.2857 C   0  0  0  0  0  0  0  0  0  0  0  0
    3.1479    2.7738    3.2884 C   0  0  0  0  0  0  0  0  0  0  0  0
    3.4423    1.8345    2.3029 C   0  0  0  0  0  0  0  0  0  0  0  0
    4.4002    2.0953    1.2895 C   0  0  0  0  0  0  0  0  0  0  0  0
    3.5210    0.1515   -2.3470 C   0  0  0  0  0  0  0  0  0  0  0  0
    3.3226   -0.4740   -3.5784 C   0  0  0  0  0  0  0  0  0  0  0  0
    2.9513   -3.6718   -2.4885 H   0  0  0  0  0  0  0  0  0  0  0  0
    3.2885   -2.5687   -0.3097 H   0  0  0  0  0  0  0  0  0  0  0  0
    4.0414   -0.6069    0.8422 H   0  0  0  0  0  0  0  0  0  0  0  0
    7.0944    5.1543    0.9905 H   0  0  0  0  0  0  0  0  0  0  0  0
    7.5387    4.3448   -1.7469 H   0  0  0  0  0  0  0  0  0  0  0  0
    8.2583    5.6722   -0.8754 H   0  0  0  0  0  0  0  0  0  0  0  0
    7.3213    7.9646   -1.0297 H   0  0  0  0  0  0  0  0  0  0  0  0
    5.6962    9.4642   -2.1683 H   0  0  0  0  0  0  0  0  0  0  0  0
    3.6624    6.2874   -3.8189 H   0  0  0  0  0  0  0  0  0  0  0  0
    5.1962    4.6319   -2.7689 H   0  0  0  0  0  0  0  0  0  0  0  0
    5.2324    5.2517    2.3211 H   0  0  0  0  0  0  0  0  0  0  0  0
    3.5522    4.7472    4.0322 H   0  0  0  0  0  0  0  0  0  0  0  0
    2.3916    2.5563    4.0392 H   0  0  0  0  0  0  0  0  0  0  0  0
    2.8909    0.8973    2.3120 H   0  0  0  0  0  0  0  0  0  0  0  0
    3.6476    1.2252   -2.3304 H   0  0  0  0  0  0  0  0  0  0  0  0
    3.3216    0.1226   -4.4844 H   0  0  0  0  0  0  0  0  0  0  0  0
  1  2  1  0  0  0  0
  2  3  1  0  0  0  0
  2 26  2  0  0  0  0
  3  4  2  0  0  0  0
  3 27  1  0  0  0  0
  4  5  1  0  0  0  0
  4 28  1  0  0  0  0
  5  6  1  0  0  0  0
  5 25  2  0  0  0  0
  6  7  1  0  0  0  0
  6 29  1  0  0  0  0
  7  8  1  0  0  0  0
  7 24  2  0  0  0  0
  8  9  2  0  0  0  0
  9 10  1  0  0  0  0
 10 11  1  0  0  0  0
 10 19  2  0  0  0  0
 11 12  1  0  0  0  0
 11 30  1  0  0  0  0
 12 13  1  0  0  0  0
 12 31  1  0  0  0  0
 12 32  1  0  0  0  0
 13 14  1  0  0  0  0
 13 18  2  0  0  0  0
 14 15  2  0  0  0  0
 14 33  1  0  0  0  0
 15 16  1  0  0  0  0
 15 34  1  0  0  0  0
 16 17  2  0  0  0  0
 17 18  1  0  0  0  0
 17 35  1  0  0  0  0
 18 36  1  0  0  0  0
 19 20  1  0  0  0  0
 19 24  1  0  0  0  0
 20 21  2  0  0  0  0
 20 37  1  0  0  0  0
 21 22  1  0  0  0  0
 21 38  1  0  0  0  0
 22 23  2  0  0  0  0
 22 39  1  0  0  0  0
 23 24  1  0  0  0  0
 23 40  1  0  0  0  0
 25 26  1  0  0  0  0
 25 41  1  0  0  0  0
 26 42  1  0  0  0  0
M  END
$$$$
