CHEMBL2206662
 OpenBabel04072215363D

 41 44  0  0  0  0  0  0  0  0999 V2000
    2.6333    1.1420    0.8955 O   0  0  0  0  0  0  0  0  0  0  0  0
    2.2771    0.0093    0.5974 C   0  0  0  0  0  0  0  0  0  0  0  0
    0.9495   -0.3751    0.4734 N   0  0  0  0  0  0  0  0  0  0  0  0
   -0.1799    0.4493    0.7091 C   0  0  0  0  0  0  0  0  0  0  0  0
   -0.1186    1.8406    0.8401 C   0  0  0  0  0  0  0  0  0  0  0  0
   -1.2644    2.5854    1.1367 C   0  0  0  0  0  0  0  0  0  0  0  0
   -2.4883    1.9481    1.3010 C   0  0  0  0  0  0  0  0  0  0  0  0
   -2.5717    0.5673    1.1417 C   0  0  0  0  0  0  0  0  0  0  0  0
   -1.4258   -0.1773    0.8385 C   0  0  0  0  0  0  0  0  0  0  0  0
    3.1461   -1.0534    0.3692 N   0  0  0  0  0  0  0  0  0  0  0  0
    4.5579   -1.0288    0.5214 C   0  0  0  0  0  0  0  0  0  0  0  0
    5.2525    0.0861    1.0080 C   0  0  0  0  0  0  0  0  0  0  0  0
    6.6448    0.0899    1.1024 C   0  0  0  0  0  0  0  0  0  0  0  0
    7.3677   -1.0320    0.7278 C   0  0  0  0  0  0  0  0  0  0  0  0
    6.6893   -2.1724    0.3011 C   0  0  0  0  0  0  0  0  0  0  0  0
    7.3994   -3.3215   -0.1184 O   0  0  0  0  0  0  0  0  0  0  0  0
    8.5236   -3.7293    0.5955 C   0  0  0  0  0  0  0  0  0  0  0  0
    9.3432   -4.6028   -0.2763 C   0  0  0  0  0  0  0  0  0  0  0  0
   10.4959   -5.0519    0.2405 C   0  0  0  0  0  0  0  0  0  0  0  0
   10.8480   -4.6935    1.5625 C   0  0  0  0  0  0  0  0  0  0  0  0
   11.9011   -4.9942    2.2959 N   0  0  0  0  0  0  0  0  0  0  0  0
   11.6996   -4.3478    3.4916 C   0  0  0  0  0  0  0  0  0  0  0  0
   10.5168   -3.6469    3.4824 C   0  0  0  0  0  0  0  0  0  0  0  0
    9.9648   -3.8786    2.2535 N   0  0  0  0  0  0  0  0  0  0  0  0
    8.7824   -3.3728    1.8119 N   0  0  0  0  0  0  0  0  0  0  0  0
    5.2933   -2.1738    0.1724 C   0  0  0  0  0  0  0  0  0  0  0  0
    0.7675   -1.3618    0.3880 H   0  0  0  0  0  0  0  0  0  0  0  0
    0.8107    2.3878    0.7155 H   0  0  0  0  0  0  0  0  0  0  0  0
   -1.1882    3.6648    1.2535 H   0  0  0  0  0  0  0  0  0  0  0  0
   -3.3739    2.5270    1.5500 H   0  0  0  0  0  0  0  0  0  0  0  0
   -3.5287    0.0665    1.2665 H   0  0  0  0  0  0  0  0  0  0  0  0
   -1.5219   -1.2540    0.7335 H   0  0  0  0  0  0  0  0  0  0  0  0
    2.7508   -1.8967   -0.0160 H   0  0  0  0  0  0  0  0  0  0  0  0
    4.7457    0.9909    1.3246 H   0  0  0  0  0  0  0  0  0  0  0  0
    7.1583    0.9747    1.4687 H   0  0  0  0  0  0  0  0  0  0  0  0
    8.4509   -1.0046    0.7851 H   0  0  0  0  0  0  0  0  0  0  0  0
    9.0162   -4.8240   -1.2824 H   0  0  0  0  0  0  0  0  0  0  0  0
   11.1746   -5.6792   -0.3261 H   0  0  0  0  0  0  0  0  0  0  0  0
   12.4209   -4.4184    4.2964 H   0  0  0  0  0  0  0  0  0  0  0  0
   10.0281   -3.0211    4.2134 H   0  0  0  0  0  0  0  0  0  0  0  0
    4.7981   -3.0649   -0.2008 H   0  0  0  0  0  0  0  0  0  0  0  0
  1  2  2  0  0  0  0
  2  3  1  0  0  0  0
  2 10  1  0  0  0  0
  3  4  1  0  0  0  0
  3 27  1  0  0  0  0
  4  5  1  0  0  0  0
  4  9  2  0  0  0  0
  5  6  2  0  0  0  0
  5 28  1  0  0  0  0
  6  7  1  0  0  0  0
  6 29  1  0  0  0  0
  7  8  2  0  0  0  0
  7 30  1  0  0  0  0
  8  9  1  0  0  0  0
  8 31  1  0  0  0  0
  9 32  1  0  0  0  0
 10 11  1  0  0  0  0
 10 33  1  0  0  0  0
 11 12  1  0  0  0  0
 11 26  2  0  0  0  0
 12 13  2  0  0  0  0
 12 34  1  0  0  0  0
 13 14  1  0  0  0  0
 13 35  1  0  0  0  0
 14 15  2  0  0  0  0
 14 36  1  0  0  0  0
 15 16  1  0  0  0  0
 15 26  1  0  0  0  0
 16 17  1  0  0  0  0
 17 18  1  0  0  0  0
 17 25  2  0  0  0  0
 18 19  2  0  0  0  0
 18 37  1  0  0  0  0
 19 20  1  0  0  0  0
 19 38  1  0  0  0  0
 20 21  2  0  0  0  0
 20 24  1  0  0  0  0
 21 22  1  0  0  0  0
 22 23  2  0  0  0  0
 22 39  1  0  0  0  0
 23 24  1  0  0  0  0
 23 40  1  0  0  0  0
 24 25  1  0  0  0  0
 26 41  1  0  0  0  0
M  END
$$$$
