CHEMBL3219513
 OpenBabel04072215363D

 47 49  0  0  0  0  0  0  0  0999 V2000
    1.0567    1.9311    0.4820 C   0  0  0  0  0  0  0  0  0  0  0  0
    2.4174    2.1893    0.2300 O   0  0  0  0  0  0  0  0  0  0  0  0
    2.5239    3.0787   -0.8581 C   0  0  0  0  0  0  0  0  0  0  0  0
    3.9742    3.5055   -1.0118 C   0  0  0  0  0  0  0  0  0  0  0  0
    4.8254    2.4258   -1.2353 O   0  0  0  0  0  0  0  0  0  0  0  0
    6.1762    2.5452   -1.4099 C   0  0  0  0  0  0  0  0  0  0  0  0
    6.7713    3.8239   -1.3410 C   0  0  0  0  0  0  0  0  0  0  0  0
    8.1356    4.0073   -1.5096 C   0  0  0  0  0  0  0  0  0  0  0  0
    8.6390    5.2635   -1.4299 N   0  0  0  0  0  0  0  0  0  0  0  0
    9.9584    5.4899   -1.6065 C   0  0  0  0  0  0  0  0  0  0  0  0
   10.7839    4.4581   -1.8863 N   0  0  0  0  0  0  0  0  0  0  0  0
   10.3461    3.1710   -1.9858 C   0  0  0  0  0  0  0  0  0  0  0  0
   11.2999    2.1454   -2.2843 N   0  0  0  0  0  0  0  0  0  0  0  0
   12.5503    2.4422   -2.9090 C   0  0  0  0  0  0  0  0  0  0  0  0
   13.6630    1.6160   -2.6915 C   0  0  0  0  0  0  0  0  0  0  0  0
   14.8991    1.9299   -3.2711 C   0  0  0  0  0  0  0  0  0  0  0  0
   15.0314    3.0649   -4.0903 C   0  0  0  0  0  0  0  0  0  0  0  0
   16.4152    3.4590   -4.7281 B   0  0  0  0  0  0  0  0  0  0  0  0
   17.5989    2.6320   -4.5002 O   0  0  0  0  0  0  0  0  0  0  0  0
   16.5346    4.6930   -5.5075 O   0  0  0  0  0  0  0  0  0  0  0  0
   13.9128    3.8642   -4.3412 C   0  0  0  0  0  0  0  0  0  0  0  0
   12.6895    3.5560   -3.7623 C   0  0  0  0  0  0  0  0  0  0  0  0
    8.9728    2.9080   -1.7701 C   0  0  0  0  0  0  0  0  0  0  0  0
    8.4045    1.6263   -1.8318 C   0  0  0  0  0  0  0  0  0  0  0  0
    7.0263    1.4197   -1.6481 C   0  0  0  0  0  0  0  0  0  0  0  0
    6.6430    0.1133   -1.7124 O   0  0  0  0  0  0  0  0  0  0  0  0
    5.4131   -0.5066   -1.6931 C   0  0  0  0  0  0  0  0  0  0  0  0
    0.9933    1.1549    1.2705 H   0  0  0  0  0  0  0  0  0  0  0  0
    0.5450    1.5232   -0.4183 H   0  0  0  0  0  0  0  0  0  0  0  0
    0.5421    2.8399    0.8663 H   0  0  0  0  0  0  0  0  0  0  0  0
    1.9358    4.0114   -0.6715 H   0  0  0  0  0  0  0  0  0  0  0  0
    2.1865    2.5973   -1.8029 H   0  0  0  0  0  0  0  0  0  0  0  0
    4.2790    4.0300   -0.0783 H   0  0  0  0  0  0  0  0  0  0  0  0
    4.0339    4.2160   -1.8680 H   0  0  0  0  0  0  0  0  0  0  0  0
    6.1847    4.7127   -1.1561 H   0  0  0  0  0  0  0  0  0  0  0  0
   10.3536    6.4924   -1.5281 H   0  0  0  0  0  0  0  0  0  0  0  0
   11.1277    1.1792   -1.9729 H   0  0  0  0  0  0  0  0  0  0  0  0
   13.5819    0.7475   -2.0496 H   0  0  0  0  0  0  0  0  0  0  0  0
   15.7494    1.2922   -3.0656 H   0  0  0  0  0  0  0  0  0  0  0  0
   17.7246    2.6261   -3.5172 H   0  0  0  0  0  0  0  0  0  0  0  0
   16.0531    4.5111   -6.3545 H   0  0  0  0  0  0  0  0  0  0  0  0
   13.9744    4.7344   -4.9833 H   0  0  0  0  0  0  0  0  0  0  0  0
   11.8521    4.1941   -4.0032 H   0  0  0  0  0  0  0  0  0  0  0  0
    9.0158    0.7573   -2.0280 H   0  0  0  0  0  0  0  0  0  0  0  0
    5.3474   -1.1743   -2.5785 H   0  0  0  0  0  0  0  0  0  0  0  0
    4.5589    0.1851   -1.7165 H   0  0  0  0  0  0  0  0  0  0  0  0
    5.3537   -1.1490   -0.7890 H   0  0  0  0  0  0  0  0  0  0  0  0
  1  2  1  0  0  0  0
  1 28  1  0  0  0  0
  1 29  1  0  0  0  0
  1 30  1  0  0  0  0
  2  3  1  0  0  0  0
  3  4  1  0  0  0  0
  3 31  1  0  0  0  0
  3 32  1  0  0  0  0
  4  5  1  0  0  0  0
  4 33  1  0  0  0  0
  4 34  1  0  0  0  0
  5  6  1  0  0  0  0
  6  7  1  0  0  0  0
  6 25  2  0  0  0  0
  7  8  2  0  0  0  0
  7 35  1  0  0  0  0
  8  9  1  0  0  0  0
  8 23  1  0  0  0  0
  9 10  2  0  0  0  0
 10 11  1  0  0  0  0
 10 36  1  0  0  0  0
 11 12  2  0  0  0  0
 12 13  1  0  0  0  0
 12 23  1  0  0  0  0
 13 14  1  0  0  0  0
 13 37  1  0  0  0  0
 14 15  1  0  0  0  0
 14 22  2  0  0  0  0
 15 16  2  0  0  0  0
 15 38  1  0  0  0  0
 16 17  1  0  0  0  0
 16 39  1  0  0  0  0
 17 18  1  0  0  0  0
 17 21  2  0  0  0  0
 18 19  1  0  0  0  0
 18 20  1  0  0  0  0
 19 40  1  0  0  0  0
 20 41  1  0  0  0  0
 21 22  1  0  0  0  0
 21 42  1  0  0  0  0
 22 43  1  0  0  0  0
 23 24  2  0  0  0  0
 24 25  1  0  0  0  0
 24 44  1  0  0  0  0
 25 26  1  0  0  0  0
 26 27  1  0  0  0  0
 27 45  1  0  0  0  0
 27 46  1  0  0  0  0
 27 47  1  0  0  0  0
M  END
$$$$
