CHEMBL3899440
 OpenBabel04072215373D

 63 66  0  0  1  0  0  0  0  0999 V2000
   12.4891    2.9710    9.6443 C   0  0  0  0  0  0  0  0  0  0  0  0
   11.1389    3.2075    9.2465 O   0  0  0  0  0  0  0  0  0  0  0  0
   10.8936    2.9156    7.9399 C   0  0  0  0  0  0  0  0  0  0  0  0
   11.7195    2.4849    7.1466 O   0  0  0  0  0  0  0  0  0  0  0  0
    9.4521    3.1993    7.6177 C   0  0  0  0  0  0  0  0  0  0  0  0
    9.1414    2.7906    6.1828 C   0  0  0  0  0  0  0  0  0  0  0  0
    7.7138    3.1182    5.8165 C   0  0  0  0  0  0  0  0  0  0  0  0
    7.1110    4.0139    6.4080 O   0  0  0  0  0  0  0  0  0  0  0  0
    7.1590    2.4629    4.7327 N   0  0  0  0  0  0  0  0  0  0  0  0
    7.7448    1.3749    3.9374 C   0  0  0  0  0  0  0  0  0  0  0  0
    7.9761    1.7971    2.4767 C   0  0  0  0  0  0  0  0  0  0  0  0
    6.8344    2.4562    1.9092 O   0  0  0  0  0  0  0  0  0  0  0  0
    6.3553    3.5601    2.7164 C   0  0  3  0  0  0  0  0  0  0  0  0
    7.3832    4.7145    2.8029 C   0  0  0  0  0  0  0  0  0  0  0  0
    7.6502    5.3125    1.5325 O   0  0  0  0  0  0  0  0  0  0  0  0
    6.6135    5.9307    0.8868 C   0  0  0  0  0  0  0  0  0  0  0  0
    6.7465    5.9066   -0.5112 C   0  0  0  0  0  0  0  0  0  0  0  0
    5.8233    6.5104   -1.3506 C   0  0  0  0  0  0  0  0  0  0  0  0
    6.0051    6.4813   -2.6749 N   0  0  0  0  0  0  0  0  0  0  0  0
    5.0941    7.1201   -3.4179 C   0  0  0  0  0  0  0  0  0  0  0  0
    4.0370    7.7990   -2.9633 N   0  0  0  0  0  0  0  0  0  0  0  0
    3.8648    7.8280   -1.6323 C   0  0  0  0  0  0  0  0  0  0  0  0
    2.8033    8.5880   -1.0555 N   0  0  0  0  0  0  0  0  0  0  0  0
    1.7326    9.2407   -1.6928 C   0  0  0  0  0  0  0  0  0  0  0  0
    1.2269    8.8257   -2.9262 C   0  0  0  0  0  0  0  0  0  0  0  0
    0.1562    9.4930   -3.5219 C   0  0  0  0  0  0  0  0  0  0  0  0
   -0.4577   10.5572   -2.8644 C   0  0  0  0  0  0  0  0  0  0  0  0
   -1.7555   11.3601   -3.6705 Cl  0  0  0  0  0  0  0  0  0  0  0  0
   -0.0154   10.9326   -1.5925 C   0  0  0  0  0  0  0  0  0  0  0  0
   -0.7522   12.2110   -0.6920 Cl  0  0  0  0  0  0  0  0  0  0  0  0
    1.0649   10.2644   -1.0086 C   0  0  0  0  0  0  0  0  0  0  0  0
    4.7319    7.1510   -0.7634 C   0  0  0  0  0  0  0  0  0  0  0  0
    4.5569    7.1214    0.6371 C   0  0  0  0  0  0  0  0  0  0  0  0
    5.5047    6.5503    1.4745 C   0  0  0  0  0  0  0  0  0  0  0  0
    5.4165    6.6274    2.8349 O   0  0  0  0  0  0  0  0  0  0  0  0
    4.1507    6.9243    3.4144 C   0  0  0  0  0  0  0  0  0  0  0  0
    5.9723    3.0458    4.1099 C   0  0  0  0  0  0  0  0  0  0  0  0
   12.5740    3.2019   10.7094 H   0  0  0  0  0  0  0  0  0  0  0  0
   13.1685    3.6261    9.0903 H   0  0  0  0  0  0  0  0  0  0  0  0
   12.7555    1.9198    9.4949 H   0  0  0  0  0  0  0  0  0  0  0  0
    9.2654    4.2675    7.7737 H   0  0  0  0  0  0  0  0  0  0  0  0
    8.8186    2.6250    8.3036 H   0  0  0  0  0  0  0  0  0  0  0  0
    9.3476    1.7255    6.0739 H   0  0  0  0  0  0  0  0  0  0  0  0
    9.7840    3.3427    5.4845 H   0  0  0  0  0  0  0  0  0  0  0  0
    7.0094    0.5614    3.9580 H   0  0  0  0  0  0  0  0  0  0  0  0
    8.6714    0.9911    4.3611 H   0  0  0  0  0  0  0  0  0  0  0  0
    8.1782    0.9119    1.8651 H   0  0  0  0  0  0  0  0  0  0  0  0
    8.8518    2.4466    2.3835 H   0  0  0  0  0  0  0  0  0  0  0  0
    5.4404    3.8992    2.2220 H   0  0  0  0  0  0  0  0  0  0  0  0
    8.3542    4.3387    3.1389 H   0  0  0  0  0  0  0  0  0  0  0  0
    7.1293    5.4658    3.5548 H   0  0  0  0  0  0  0  0  0  0  0  0
    7.6029    5.3998   -0.9529 H   0  0  0  0  0  0  0  0  0  0  0  0
    5.2313    7.0923   -4.4939 H   0  0  0  0  0  0  0  0  0  0  0  0
    3.1966    9.1690   -0.3184 H   0  0  0  0  0  0  0  0  0  0  0  0
    1.6690    7.9829   -3.4493 H   0  0  0  0  0  0  0  0  0  0  0  0
   -0.1864    9.1697   -4.5023 H   0  0  0  0  0  0  0  0  0  0  0  0
    1.3934   10.5615   -0.0117 H   0  0  0  0  0  0  0  0  0  0  0  0
    3.6662    7.5748    1.0537 H   0  0  0  0  0  0  0  0  0  0  0  0
    4.2791    6.9570    4.4999 H   0  0  0  0  0  0  0  0  0  0  0  0
    3.4285    6.1357    3.1790 H   0  0  0  0  0  0  0  0  0  0  0  0
    3.7799    7.9074    3.1083 H   0  0  0  0  0  0  0  0  0  0  0  0
    5.2248    2.2478    4.0289 H   0  0  0  0  0  0  0  0  0  0  0  0
    5.5396    3.8523    4.7107 H   0  0  0  0  0  0  0  0  0  0  0  0
  1  2  1  0  0  0  0
  1 38  1  0  0  0  0
  1 39  1  0  0  0  0
  1 40  1  0  0  0  0
  2  3  1  0  0  0  0
  3  4  2  0  0  0  0
  3  5  1  0  0  0  0
  5  6  1  0  0  0  0
  5 41  1  0  0  0  0
  5 42  1  0  0  0  0
  6  7  1  0  0  0  0
  6 43  1  0  0  0  0
  6 44  1  0  0  0  0
  7  8  2  0  0  0  0
  7  9  1  0  0  0  0
  9 10  1  0  0  0  0
  9 37  1  0  0  0  0
 10 11  1  0  0  0  0
 10 45  1  0  0  0  0
 10 46  1  0  0  0  0
 11 12  1  0  0  0  0
 11 47  1  0  0  0  0
 11 48  1  0  0  0  0
 12 13  1  0  0  0  0
 13 14  1  0  0  0  0
 13 37  1  0  0  0  0
 13 49  1  0  0  0  0
 14 15  1  0  0  0  0
 14 50  1  0  0  0  0
 14 51  1  0  0  0  0
 15 16  1  0  0  0  0
 16 17  1  0  0  0  0
 16 34  2  0  0  0  0
 17 18  2  0  0  0  0
 17 52  1  0  0  0  0
 18 19  1  0  0  0  0
 18 32  1  0  0  0  0
 19 20  2  0  0  0  0
 20 21  1  0  0  0  0
 20 53  1  0  0  0  0
 21 22  2  0  0  0  0
 22 23  1  0  0  0  0
 22 32  1  0  0  0  0
 23 24  1  0  0  0  0
 23 54  1  0  0  0  0
 24 25  1  0  0  0  0
 24 31  2  0  0  0  0
 25 26  2  0  0  0  0
 25 55  1  0  0  0  0
 26 27  1  0  0  0  0
 26 56  1  0  0  0  0
 27 28  1  0  0  0  0
 27 29  2  0  0  0  0
 29 30  1  0  0  0  0
 29 31  1  0  0  0  0
 31 57  1  0  0  0  0
 32 33  2  0  0  0  0
 33 34  1  0  0  0  0
 33 58  1  0  0  0  0
 34 35  1  0  0  0  0
 35 36  1  0  0  0  0
 36 59  1  0  0  0  0
 36 60  1  0  0  0  0
 36 61  1  0  0  0  0
 37 62  1  0  0  0  0
 37 63  1  0  0  0  0
M  END
$$$$
