CHEMBL4218369
 OpenBabel04072215383D

 66 71  0  0  0  0  0  0  0  0999 V2000
    1.2284    0.2285    0.2428 C   0  0  0  0  0  0  0  0  0  0  0  0
    2.6043   -0.0554   -0.1153 N   0  0  0  0  0  0  0  0  0  0  0  0
    3.1134    0.8098   -1.0781 C   0  0  0  0  0  0  0  0  0  0  0  0
    2.6360    2.0657   -1.1101 N   0  0  0  0  0  0  0  0  0  0  0  0
    3.1017    2.9320   -2.0260 C   0  0  0  0  0  0  0  0  0  0  0  0
    4.0607    2.5138   -2.9328 C   0  0  0  0  0  0  0  0  0  0  0  0
    4.8172    3.0706   -3.9938 C   0  0  0  0  0  0  0  0  0  0  0  0
    4.8221    4.4530   -4.4593 C   0  0  0  0  0  0  0  0  0  0  0  0
    5.9802    5.0114   -4.9850 C   0  0  0  0  0  0  0  0  0  0  0  0
    6.0022    6.3620   -5.3072 C   0  0  0  0  0  0  0  0  0  0  0  0
    4.8659    7.1511   -5.1143 C   0  0  0  0  0  0  0  0  0  0  0  0
    4.9374    8.4836   -5.4675 N   0  0  0  0  0  0  0  0  0  0  0  0
    3.7055    9.1963   -5.8095 C   0  0  0  0  0  0  0  0  0  0  0  0
    4.1113   10.3889   -6.7160 C   0  0  0  0  0  0  0  0  0  0  0  0
    5.1045   11.2938   -6.0764 N   0  0  0  0  0  0  0  0  0  0  0  0
    5.5332   12.3263   -7.0178 C   0  0  0  0  0  0  0  0  0  0  0  0
    6.2761   10.5125   -5.6100 C   0  0  0  0  0  0  0  0  0  0  0  0
    5.8790    9.3200   -4.7121 C   0  0  0  0  0  0  0  0  0  0  0  0
    3.7143    6.6164   -4.6677 N   0  0  0  0  0  0  0  0  0  0  0  0
    3.7199    5.2951   -4.3528 C   0  0  0  0  0  0  0  0  0  0  0  0
    5.6505    2.1523   -4.5206 N   0  0  0  0  0  0  0  0  0  0  0  0
    5.4681    1.0477   -3.7556 N   0  0  0  0  0  0  0  0  0  0  0  0
    6.2672   -0.1464   -4.0037 C   0  0  0  0  0  0  0  0  0  0  0  0
    7.5202   -0.1358   -3.2058 C   0  0  0  0  0  0  0  0  0  0  0  0
    7.7021   -0.1020   -1.8422 C   0  0  0  0  0  0  0  0  0  0  0  0
    9.0596   -0.0850   -1.6863 N   0  0  0  0  0  0  0  0  0  0  0  0
    9.8115    0.0215   -0.4516 C   0  0  0  0  0  0  0  0  0  0  0  0
   10.0022    1.4721   -0.0754 C   0  0  0  0  0  0  0  0  0  0  0  0
    9.0559    2.1364    0.7195 C   0  0  0  0  0  0  0  0  0  0  0  0
    9.1613    3.5098    0.9426 C   0  0  0  0  0  0  0  0  0  0  0  0
   10.2178    4.2286    0.3867 C   0  0  0  0  0  0  0  0  0  0  0  0
   11.1848    3.5722   -0.3720 C   0  0  0  0  0  0  0  0  0  0  0  0
   11.0792    2.2003   -0.6024 C   0  0  0  0  0  0  0  0  0  0  0  0
    9.6857   -0.1887   -2.8731 N   0  0  0  0  0  0  0  0  0  0  0  0
    8.7484   -0.2091   -3.8147 N   0  0  0  0  0  0  0  0  0  0  0  0
    4.4912    1.2042   -2.8049 C   0  0  0  0  0  0  0  0  0  0  0  0
    4.0503    0.3054   -1.9034 N   0  0  0  0  0  0  0  0  0  0  0  0
    0.8906   -0.4966    0.9925 H   0  0  0  0  0  0  0  0  0  0  0  0
    0.5660    0.1458   -0.6258 H   0  0  0  0  0  0  0  0  0  0  0  0
    1.1156    1.2215    0.6882 H   0  0  0  0  0  0  0  0  0  0  0  0
    2.7894   -0.9969   -0.4381 H   0  0  0  0  0  0  0  0  0  0  0  0
    2.6849    3.9305   -1.9857 H   0  0  0  0  0  0  0  0  0  0  0  0
    6.8740    4.4103   -5.1344 H   0  0  0  0  0  0  0  0  0  0  0  0
    6.8968    6.7963   -5.7362 H   0  0  0  0  0  0  0  0  0  0  0  0
    3.1908    9.5574   -4.9094 H   0  0  0  0  0  0  0  0  0  0  0  0
    3.0116    8.5560   -6.3669 H   0  0  0  0  0  0  0  0  0  0  0  0
    3.2120   10.9548   -6.9812 H   0  0  0  0  0  0  0  0  0  0  0  0
    4.5313    9.9801   -7.6468 H   0  0  0  0  0  0  0  0  0  0  0  0
    4.6788   12.9290   -7.3402 H   0  0  0  0  0  0  0  0  0  0  0  0
    6.0143   11.9033   -7.9076 H   0  0  0  0  0  0  0  0  0  0  0  0
    6.2423   13.0092   -6.5369 H   0  0  0  0  0  0  0  0  0  0  0  0
    6.9544   11.1634   -5.0462 H   0  0  0  0  0  0  0  0  0  0  0  0
    6.8343   10.1194   -6.4712 H   0  0  0  0  0  0  0  0  0  0  0  0
    5.4128    9.6798   -3.7861 H   0  0  0  0  0  0  0  0  0  0  0  0
    6.7881    8.7776   -4.4269 H   0  0  0  0  0  0  0  0  0  0  0  0
    2.7561    4.9394   -4.0017 H   0  0  0  0  0  0  0  0  0  0  0  0
    6.4791   -0.1799   -5.0768 H   0  0  0  0  0  0  0  0  0  0  0  0
    5.6544   -1.0209   -3.7536 H   0  0  0  0  0  0  0  0  0  0  0  0
    7.0168   -0.0545   -1.0101 H   0  0  0  0  0  0  0  0  0  0  0  0
   10.7699   -0.4911   -0.5770 H   0  0  0  0  0  0  0  0  0  0  0  0
    9.2521   -0.5136    0.3275 H   0  0  0  0  0  0  0  0  0  0  0  0
    8.2125    1.5976    1.1460 H   0  0  0  0  0  0  0  0  0  0  0  0
    8.4065    4.0237    1.5324 H   0  0  0  0  0  0  0  0  0  0  0  0
   10.2820    5.3032    0.5356 H   0  0  0  0  0  0  0  0  0  0  0  0
   12.0084    4.1326   -0.8067 H   0  0  0  0  0  0  0  0  0  0  0  0
   11.8237    1.7090   -1.2268 H   0  0  0  0  0  0  0  0  0  0  0  0
  1  2  1  0  0  0  0
  1 38  1  0  0  0  0
  1 39  1  0  0  0  0
  1 40  1  0  0  0  0
  2  3  1  0  0  0  0
  2 41  1  0  0  0  0
  3  4  1  0  0  0  0
  3 37  2  0  0  0  0
  4  5  2  0  0  0  0
  5  6  1  0  0  0  0
  5 42  1  0  0  0  0
  6  7  1  0  0  0  0
  6 36  2  0  0  0  0
  7  8  1  0  0  0  0
  7 21  2  0  0  0  0
  8  9  1  0  0  0  0
  8 20  2  0  0  0  0
  9 10  2  0  0  0  0
  9 43  1  0  0  0  0
 10 11  1  0  0  0  0
 10 44  1  0  0  0  0
 11 12  1  0  0  0  0
 11 19  2  0  0  0  0
 12 13  1  0  0  0  0
 12 18  1  0  0  0  0
 13 14  1  0  0  0  0
 13 45  1  0  0  0  0
 13 46  1  0  0  0  0
 14 15  1  0  0  0  0
 14 47  1  0  0  0  0
 14 48  1  0  0  0  0
 15 16  1  0  0  0  0
 15 17  1  0  0  0  0
 16 49  1  0  0  0  0
 16 50  1  0  0  0  0
 16 51  1  0  0  0  0
 17 18  1  0  0  0  0
 17 52  1  0  0  0  0
 17 53  1  0  0  0  0
 18 54  1  0  0  0  0
 18 55  1  0  0  0  0
 19 20  1  0  0  0  0
 20 56  1  0  0  0  0
 21 22  1  0  0  0  0
 22 23  1  0  0  0  0
 22 36  1  0  0  0  0
 23 24  1  0  0  0  0
 23 57  1  0  0  0  0
 23 58  1  0  0  0  0
 24 25  2  0  0  0  0
 24 35  1  0  0  0  0
 25 26  1  0  0  0  0
 25 59  1  0  0  0  0
 26 27  1  0  0  0  0
 26 34  1  0  0  0  0
 27 28  1  0  0  0  0
 27 60  1  0  0  0  0
 27 61  1  0  0  0  0
 28 29  1  0  0  0  0
 28 33  2  0  0  0  0
 29 30  2  0  0  0  0
 29 62  1  0  0  0  0
 30 31  1  0  0  0  0
 30 63  1  0  0  0  0
 31 32  2  0  0  0  0
 31 64  1  0  0  0  0
 32 33  1  0  0  0  0
 32 65  1  0  0  0  0
 33 66  1  0  0  0  0
 34 35  2  0  0  0  0
 36 37  1  0  0  0  0
M  END
$$$$
