CHEMBL2002202
 OpenBabel04072215363D

 27 29  0  0  0  0  0  0  0  0999 V2000
   -2.2895    1.2983   -0.0683 O   0  0  0  0  0  0  0  0  0  0  0  0
   -1.5547    0.3334   -0.0493 C   0  0  0  0  0  0  0  0  0  0  0  0
   -1.9196   -0.9959   -0.0332 N   0  0  0  0  0  0  0  0  0  0  0  0
   -0.7898   -1.8931   -0.0052 C   0  0  0  0  0  0  0  0  0  0  0  0
    0.3671   -0.9534    0.0038 C   0  0  0  0  0  0  0  0  0  0  0  0
    1.7198   -1.2113    0.0450 C   0  0  0  0  0  0  0  0  0  0  0  0
    2.5993   -0.1176    0.0550 C   0  0  0  0  0  0  0  0  0  0  0  0
    2.1482    1.2313    0.0057 C   0  0  0  0  0  0  0  0  0  0  0  0
    3.1082    2.3633    0.0114 C   0  0  0  0  0  0  0  0  0  0  0  0
    4.3846    2.2490   -0.5714 C   0  0  0  0  0  0  0  0  0  0  0  0
    5.2960    3.3111   -0.5571 C   0  0  0  0  0  0  0  0  0  0  0  0
    4.9392    4.5191    0.0313 C   0  0  0  0  0  0  0  0  0  0  0  0
    6.0549    5.8278    0.0466 Cl  0  0  0  0  0  0  0  0  0  0  0  0
    3.6831    4.6712    0.6070 C   0  0  0  0  0  0  0  0  0  0  0  0
    2.7816    3.6006    0.6009 C   0  0  0  0  0  0  0  0  0  0  0  0
    0.7599    1.4545   -0.0435 C   0  0  0  0  0  0  0  0  0  0  0  0
   -0.0875    0.3615   -0.0337 C   0  0  0  0  0  0  0  0  0  0  0  0
   -2.8917   -1.2697   -0.0326 H   0  0  0  0  0  0  0  0  0  0  0  0
   -0.8109   -2.5158   -0.9035 H   0  0  0  0  0  0  0  0  0  0  0  0
   -0.8398   -2.5002    0.9028 H   0  0  0  0  0  0  0  0  0  0  0  0
    2.1041   -2.2261    0.0785 H   0  0  0  0  0  0  0  0  0  0  0  0
    3.6653   -0.3326    0.1174 H   0  0  0  0  0  0  0  0  0  0  0  0
    4.6901    1.3274   -1.0624 H   0  0  0  0  0  0  0  0  0  0  0  0
    6.2756    3.1857   -1.0088 H   0  0  0  0  0  0  0  0  0  0  0  0
    3.3957    5.6134    1.0649 H   0  0  0  0  0  0  0  0  0  0  0  0
    1.8156    3.7503    1.0800 H   0  0  0  0  0  0  0  0  0  0  0  0
    0.3312    2.4500   -0.0959 H   0  0  0  0  0  0  0  0  0  0  0  0
  1  2  2  0  0  0  0
  2  3  1  0  0  0  0
  2 17  1  0  0  0  0
  3  4  1  0  0  0  0
  3 18  1  0  0  0  0
  4  5  1  0  0  0  0
  4 19  1  0  0  0  0
  4 20  1  0  0  0  0
  5  6  1  0  0  0  0
  5 17  2  0  0  0  0
  6  7  2  0  0  0  0
  6 21  1  0  0  0  0
  7  8  1  0  0  0  0
  7 22  1  0  0  0  0
  8  9  1  0  0  0  0
  8 16  2  0  0  0  0
  9 10  1  0  0  0  0
  9 15  2  0  0  0  0
 10 11  2  0  0  0  0
 10 23  1  0  0  0  0
 11 12  1  0  0  0  0
 11 24  1  0  0  0  0
 12 13  1  0  0  0  0
 12 14  2  0  0  0  0
 14 15  1  0  0  0  0
 14 25  1  0  0  0  0
 15 26  1  0  0  0  0
 16 17  1  0  0  0  0
 16 27  1  0  0  0  0
M  END
$$$$
