CHEMBL205647
 OpenBabel04072215363D

 52 56  0  0  0  0  0  0  0  0999 V2000
    4.3078   -7.2408    4.4483 F   0  0  0  0  0  0  0  0  0  0  0  0
    3.5161   -7.2410    3.3396 C   0  0  0  0  0  0  0  0  0  0  0  0
    3.0489   -8.5143    3.2168 F   0  0  0  0  0  0  0  0  0  0  0  0
    2.4349   -6.4752    3.6543 F   0  0  0  0  0  0  0  0  0  0  0  0
    4.2200   -6.7625    2.0932 C   0  0  0  0  0  0  0  0  0  0  0  0
    5.5490   -6.3290    2.1395 C   0  0  0  0  0  0  0  0  0  0  0  0
    6.1820   -5.8943    0.9784 C   0  0  0  0  0  0  0  0  0  0  0  0
    5.4988   -5.8956   -0.2419 C   0  0  0  0  0  0  0  0  0  0  0  0
    4.1675   -6.3148   -0.3303 C   0  0  0  0  0  0  0  0  0  0  0  0
    3.4451   -6.3899   -1.5380 N   0  0  0  0  0  0  0  0  0  0  0  0
    3.8461   -6.1538   -2.8032 C   0  0  0  0  0  0  0  0  0  0  0  0
    3.1027   -5.8155   -3.8383 N   0  0  0  0  0  0  0  0  0  0  0  0
    3.9416   -5.7421   -4.9360 N   0  0  0  0  0  0  0  0  0  0  0  0
    5.1413   -6.0851   -4.5168 C   0  0  0  0  0  0  0  0  0  0  0  0
    6.4054   -6.2759   -5.2367 C   0  0  0  0  0  0  0  0  0  0  0  0
    7.5272   -6.7307   -4.5159 C   0  0  0  0  0  0  0  0  0  0  0  0
    8.7408   -6.9775   -5.1397 C   0  0  0  0  0  0  0  0  0  0  0  0
    8.8179   -6.7504   -6.4959 C   0  0  0  0  0  0  0  0  0  0  0  0
    7.7834   -6.2908   -7.2329 N   0  0  0  0  0  0  0  0  0  0  0  0
    6.5825   -6.0610   -6.6247 C   0  0  0  0  0  0  0  0  0  0  0  0
    5.5148   -5.4778   -7.5451 C   0  0  0  0  0  0  0  0  0  0  0  0
    5.6842   -5.8449   -9.0439 C   0  0  0  0  0  0  0  0  0  0  0  0
    4.5164   -5.3875   -9.9142 C   0  0  0  0  0  0  0  0  0  0  0  0
    3.3927   -6.2334   -9.9570 C   0  0  0  0  0  0  0  0  0  0  0  0
    2.2489   -5.8670  -10.6559 C   0  0  0  0  0  0  0  0  0  0  0  0
    2.2031   -4.6375  -11.3044 C   0  0  0  0  0  0  0  0  0  0  0  0
    3.2879   -3.7838  -11.3237 C   0  0  0  0  0  0  0  0  0  0  0  0
    3.1353   -2.6341  -12.0017 N   0  0  0  0  0  0  0  0  0  0  0  0
    4.1884   -1.8038  -12.0954 C   0  0  0  0  0  0  0  0  0  0  0  0
    5.4209   -2.0820  -11.5448 C   0  0  0  0  0  0  0  0  0  0  0  0
    5.5662   -3.2626  -10.8105 C   0  0  0  0  0  0  0  0  0  0  0  0
    4.4843   -4.1590  -10.6544 C   0  0  0  0  0  0  0  0  0  0  0  0
    5.1530   -6.3510   -3.1649 O   0  0  0  0  0  0  0  0  0  0  0  0
    3.5446   -6.7515    0.8551 C   0  0  0  0  0  0  0  0  0  0  0  0
    6.0996   -6.3302    3.0793 H   0  0  0  0  0  0  0  0  0  0  0  0
    7.2136   -5.5522    1.0184 H   0  0  0  0  0  0  0  0  0  0  0  0
    6.0323   -5.5332   -1.1151 H   0  0  0  0  0  0  0  0  0  0  0  0
    2.4393   -6.3676   -1.4085 H   0  0  0  0  0  0  0  0  0  0  0  0
    7.4642   -6.9129   -3.4401 H   0  0  0  0  0  0  0  0  0  0  0  0
    9.6017   -7.3366   -4.5838 H   0  0  0  0  0  0  0  0  0  0  0  0
    9.7372   -6.9343   -7.0456 H   0  0  0  0  0  0  0  0  0  0  0  0
    5.5353   -4.3869   -7.4355 H   0  0  0  0  0  0  0  0  0  0  0  0
    4.5270   -5.8250   -7.2333 H   0  0  0  0  0  0  0  0  0  0  0  0
    5.7630   -6.9380   -9.1314 H   0  0  0  0  0  0  0  0  0  0  0  0
    6.6301   -5.4633   -9.4413 H   0  0  0  0  0  0  0  0  0  0  0  0
    3.4038   -7.1912   -9.4399 H   0  0  0  0  0  0  0  0  0  0  0  0
    1.3873   -6.5280  -10.6894 H   0  0  0  0  0  0  0  0  0  0  0  0
    1.2959   -4.3427  -11.8283 H   0  0  0  0  0  0  0  0  0  0  0  0
    4.0055   -0.8888  -12.6508 H   0  0  0  0  0  0  0  0  0  0  0  0
    6.2489   -1.3958  -11.6839 H   0  0  0  0  0  0  0  0  0  0  0  0
    6.5420   -3.4842  -10.3907 H   0  0  0  0  0  0  0  0  0  0  0  0
    2.5107   -7.0971    0.8269 H   0  0  0  0  0  0  0  0  0  0  0  0
  1  2  1  0  0  0  0
  2  3  1  0  0  0  0
  2  4  1  0  0  0  0
  2  5  1  0  0  0  0
  5  6  1  0  0  0  0
  5 34  2  0  0  0  0
  6  7  2  0  0  0  0
  6 35  1  0  0  0  0
  7  8  1  0  0  0  0
  7 36  1  0  0  0  0
  8  9  2  0  0  0  0
  8 37  1  0  0  0  0
  9 10  1  0  0  0  0
  9 34  1  0  0  0  0
 10 11  1  0  0  0  0
 10 38  1  0  0  0  0
 11 12  2  0  0  0  0
 11 33  1  0  0  0  0
 12 13  1  0  0  0  0
 13 14  2  0  0  0  0
 14 15  1  0  0  0  0
 14 33  1  0  0  0  0
 15 16  1  0  0  0  0
 15 20  2  0  0  0  0
 16 17  2  0  0  0  0
 16 39  1  0  0  0  0
 17 18  1  0  0  0  0
 17 40  1  0  0  0  0
 18 19  2  0  0  0  0
 18 41  1  0  0  0  0
 19 20  1  0  0  0  0
 20 21  1  0  0  0  0
 21 22  1  0  0  0  0
 21 42  1  0  0  0  0
 21 43  1  0  0  0  0
 22 23  1  0  0  0  0
 22 44  1  0  0  0  0
 22 45  1  0  0  0  0
 23 24  1  0  0  0  0
 23 32  2  0  0  0  0
 24 25  2  0  0  0  0
 24 46  1  0  0  0  0
 25 26  1  0  0  0  0
 25 47  1  0  0  0  0
 26 27  2  0  0  0  0
 26 48  1  0  0  0  0
 27 28  1  0  0  0  0
 27 32  1  0  0  0  0
 28 29  2  0  0  0  0
 29 30  1  0  0  0  0
 29 49  1  0  0  0  0
 30 31  2  0  0  0  0
 30 50  1  0  0  0  0
 31 32  1  0  0  0  0
 31 51  1  0  0  0  0
 34 52  1  0  0  0  0
M  END
$$$$
