CHEMBL2088100
 OpenBabel04072215363D

 49 52  0  0  0  0  0  0  0  0999 V2000
   -3.0328  -12.3746    3.5938 C   0  0  0  0  0  0  0  0  0  0  0  0
   -2.9422  -11.4107    2.4736 C   0  0  0  0  0  0  0  0  0  0  0  0
   -3.7506  -10.2808    2.2296 C   0  0  0  0  0  0  0  0  0  0  0  0
   -3.2319   -9.7292    1.0840 C   0  0  0  0  0  0  0  0  0  0  0  0
   -3.5605   -8.5058    0.3032 C   0  0  0  0  0  0  0  0  0  0  0  0
   -3.4234   -7.3096    1.1130 N   0  0  0  0  0  0  0  0  0  0  0  0
   -3.7955   -6.1204    0.5215 C   0  0  0  0  0  0  0  0  0  0  0  0
   -3.1170   -5.0414    0.9222 N   0  0  0  0  0  0  0  0  0  0  0  0
   -3.5045   -3.8589    0.4155 C   0  0  0  0  0  0  0  0  0  0  0  0
   -4.5288   -3.7203   -0.4871 C   0  0  0  0  0  0  0  0  0  0  0  0
   -5.1776   -4.8809   -0.8444 C   0  0  0  0  0  0  0  0  0  0  0  0
   -6.2945   -4.7884   -1.7022 N   0  0  0  0  0  0  0  0  0  0  0  0
   -7.2810   -5.7018   -1.8052 C   0  0  0  0  0  0  0  0  0  0  0  0
   -7.7658   -6.4797   -0.7292 C   0  0  0  0  0  0  0  0  0  0  0  0
   -8.7300   -7.2995   -1.2664 C   0  0  0  0  0  0  0  0  0  0  0  0
   -9.5553   -8.3676   -0.6301 C   0  0  0  0  0  0  0  0  0  0  0  0
   -9.8581   -9.5249   -1.5845 C   0  0  0  0  0  0  0  0  0  0  0  0
  -10.6536  -10.6505   -0.9727 C   0  0  0  0  0  0  0  0  0  0  0  0
  -11.9209  -10.4241   -0.4188 C   0  0  0  0  0  0  0  0  0  0  0  0
  -12.6836  -11.4901    0.0608 C   0  0  0  0  0  0  0  0  0  0  0  0
  -12.1890  -12.7909   -0.0124 C   0  0  0  0  0  0  0  0  0  0  0  0
  -10.9294  -13.0294   -0.5528 C   0  0  0  0  0  0  0  0  0  0  0  0
  -10.1650  -11.9650   -1.0332 C   0  0  0  0  0  0  0  0  0  0  0  0
   -8.8061   -6.9329   -2.5833 N   0  0  0  0  0  0  0  0  0  0  0  0
   -7.9608   -5.9473   -2.9262 N   0  0  0  0  0  0  0  0  0  0  0  0
   -4.8091   -6.0773   -0.3442 N   0  0  0  0  0  0  0  0  0  0  0  0
   -2.1852  -10.4855    0.6580 O   0  0  0  0  0  0  0  0  0  0  0  0
   -2.0002  -11.5466    1.5308 N   0  0  0  0  0  0  0  0  0  0  0  0
   -3.8498  -12.1083    4.2724 H   0  0  0  0  0  0  0  0  0  0  0  0
   -2.1042  -12.3837    4.1719 H   0  0  0  0  0  0  0  0  0  0  0  0
   -3.2215  -13.3840    3.2173 H   0  0  0  0  0  0  0  0  0  0  0  0
   -4.5767   -9.9008    2.8116 H   0  0  0  0  0  0  0  0  0  0  0  0
   -4.5892   -8.6199   -0.0638 H   0  0  0  0  0  0  0  0  0  0  0  0
   -2.9065   -8.4432   -0.5766 H   0  0  0  0  0  0  0  0  0  0  0  0
   -2.4991   -7.1667    1.5027 H   0  0  0  0  0  0  0  0  0  0  0  0
   -2.9637   -2.9951    0.7903 H   0  0  0  0  0  0  0  0  0  0  0  0
   -4.8386   -2.7490   -0.8470 H   0  0  0  0  0  0  0  0  0  0  0  0
   -6.0706   -4.3073   -2.5651 H   0  0  0  0  0  0  0  0  0  0  0  0
   -7.4283   -6.4595    0.2984 H   0  0  0  0  0  0  0  0  0  0  0  0
  -10.4791   -7.9139   -0.2531 H   0  0  0  0  0  0  0  0  0  0  0  0
   -9.0188   -8.7544    0.2469 H   0  0  0  0  0  0  0  0  0  0  0  0
   -8.9106   -9.9145   -1.9793 H   0  0  0  0  0  0  0  0  0  0  0  0
  -10.4230   -9.1642   -2.4534 H   0  0  0  0  0  0  0  0  0  0  0  0
  -12.3362   -9.4203   -0.3740 H   0  0  0  0  0  0  0  0  0  0  0  0
  -13.6699  -11.3066    0.4789 H   0  0  0  0  0  0  0  0  0  0  0  0
  -12.7909  -13.6221    0.3459 H   0  0  0  0  0  0  0  0  0  0  0  0
  -10.5451  -14.0417   -0.6203 H   0  0  0  0  0  0  0  0  0  0  0  0
   -9.1875  -12.1680   -1.4662 H   0  0  0  0  0  0  0  0  0  0  0  0
   -9.3992   -7.3195   -3.3098 H   0  0  0  0  0  0  0  0  0  0  0  0
  1  2  1  0  0  0  0
  1 29  1  0  0  0  0
  1 30  1  0  0  0  0
  1 31  1  0  0  0  0
  2  3  1  0  0  0  0
  2 28  2  0  0  0  0
  3  4  2  0  0  0  0
  3 32  1  0  0  0  0
  4  5  1  0  0  0  0
  4 27  1  0  0  0  0
  5  6  1  0  0  0  0
  5 33  1  0  0  0  0
  5 34  1  0  0  0  0
  6  7  1  0  0  0  0
  6 35  1  0  0  0  0
  7  8  1  0  0  0  0
  7 26  2  0  0  0  0
  8  9  2  0  0  0  0
  9 10  1  0  0  0  0
  9 36  1  0  0  0  0
 10 11  2  0  0  0  0
 10 37  1  0  0  0  0
 11 12  1  0  0  0  0
 11 26  1  0  0  0  0
 12 13  1  0  0  0  0
 12 38  1  0  0  0  0
 13 14  1  0  0  0  0
 13 25  2  0  0  0  0
 14 15  2  0  0  0  0
 14 39  1  0  0  0  0
 15 16  1  0  0  0  0
 15 24  1  0  0  0  0
 16 17  1  0  0  0  0
 16 40  1  0  0  0  0
 16 41  1  0  0  0  0
 17 18  1  0  0  0  0
 17 42  1  0  0  0  0
 17 43  1  0  0  0  0
 18 19  1  0  0  0  0
 18 23  2  0  0  0  0
 19 20  2  0  0  0  0
 19 44  1  0  0  0  0
 20 21  1  0  0  0  0
 20 45  1  0  0  0  0
 21 22  2  0  0  0  0
 21 46  1  0  0  0  0
 22 23  1  0  0  0  0
 22 47  1  0  0  0  0
 23 48  1  0  0  0  0
 24 25  1  0  0  0  0
 24 49  1  0  0  0  0
 27 28  1  0  0  0  0
M  END
$$$$
