CHEMBL3633767
 OpenBabel04072215373D

 47 49  0  0  0  0  0  0  0  0999 V2000
    2.5399    0.4999   -1.4260 C   0  0  0  0  0  0  0  0  0  0  0  0
    2.5779   -0.0602   -0.1153 O   0  0  0  0  0  0  0  0  0  0  0  0
    3.1791    0.6420    0.8928 C   0  0  0  0  0  0  0  0  0  0  0  0
    4.2169    1.5537    0.6717 C   0  0  0  0  0  0  0  0  0  0  0  0
    4.8015    2.2813    1.6960 C   0  0  0  0  0  0  0  0  0  0  0  0
    5.7698    3.1410    1.3706 N   0  0  0  0  0  0  0  0  0  0  0  0
    6.3112    3.8393    2.3700 C   0  0  0  0  0  0  0  0  0  0  0  0
    5.9781    3.7433    3.6564 N   0  0  0  0  0  0  0  0  0  0  0  0
    5.0126    2.8587    3.9789 C   0  0  0  0  0  0  0  0  0  0  0  0
    4.6700    2.7078    5.3514 N   0  0  0  0  0  0  0  0  0  0  0  0
    5.1258    3.5940    6.3645 C   0  0  0  0  0  0  0  0  0  0  0  0
    4.9779    4.9804    6.1953 C   0  0  0  0  0  0  0  0  0  0  0  0
    5.4848    5.8770    7.1338 C   0  0  0  0  0  0  0  0  0  0  0  0
    6.1333    5.3921    8.2663 C   0  0  0  0  0  0  0  0  0  0  0  0
    6.7996    6.5007    9.3998 Cl  0  0  0  0  0  0  0  0  0  0  0  0
    6.2542    4.0211    8.4832 C   0  0  0  0  0  0  0  0  0  0  0  0
    5.7447    3.1269    7.5373 C   0  0  0  0  0  0  0  0  0  0  0  0
    5.9294    1.4312    7.8204 Cl  0  0  0  0  0  0  0  0  0  0  0  0
    4.3574    2.0855    3.0072 C   0  0  0  0  0  0  0  0  0  0  0  0
    3.3237    1.1522    3.2546 C   0  0  0  0  0  0  0  0  0  0  0  0
    2.7736    0.3980    2.2145 C   0  0  0  0  0  0  0  0  0  0  0  0
    1.8471   -0.5268    2.6314 O   0  0  0  0  0  0  0  0  0  0  0  0
    1.9004   -1.7792    1.9463 C   0  0  0  0  0  0  0  0  0  0  0  0
    1.6344   -2.9258    2.9250 C   0  0  0  0  0  0  0  0  0  0  0  0
    1.6689   -4.2520    2.1711 C   0  0  0  0  0  0  0  0  0  0  0  0
    1.4596   -5.4681    3.0435 C   0  0  0  0  0  0  0  0  0  0  0  0
    1.3120   -5.4503    4.2602 O   0  0  0  0  0  0  0  0  0  0  0  0
    1.4685   -6.6392    2.3150 N   0  0  0  0  0  0  0  0  0  0  0  0
    1.1827   -7.8232    3.0356 O   0  0  0  0  0  0  0  0  0  0  0  0
    2.8589   -0.2718   -2.1332 H   0  0  0  0  0  0  0  0  0  0  0  0
    3.1553    1.3858   -1.5933 H   0  0  0  0  0  0  0  0  0  0  0  0
    1.5056    0.7701   -1.6574 H   0  0  0  0  0  0  0  0  0  0  0  0
    4.6312    1.7093   -0.3189 H   0  0  0  0  0  0  0  0  0  0  0  0
    7.0927    4.5458    2.1148 H   0  0  0  0  0  0  0  0  0  0  0  0
    4.8287    1.7386    5.6248 H   0  0  0  0  0  0  0  0  0  0  0  0
    4.4841    5.3653    5.3056 H   0  0  0  0  0  0  0  0  0  0  0  0
    5.3850    6.9444    6.9619 H   0  0  0  0  0  0  0  0  0  0  0  0
    6.7554    3.6524    9.3731 H   0  0  0  0  0  0  0  0  0  0  0  0
    2.9507    0.9978    4.2649 H   0  0  0  0  0  0  0  0  0  0  0  0
    2.8823   -1.9540    1.4894 H   0  0  0  0  0  0  0  0  0  0  0  0
    1.1289   -1.7765    1.1682 H   0  0  0  0  0  0  0  0  0  0  0  0
    0.6694   -2.7841    3.4266 H   0  0  0  0  0  0  0  0  0  0  0  0
    2.3884   -2.9133    3.7227 H   0  0  0  0  0  0  0  0  0  0  0  0
    2.6403   -4.3659    1.6746 H   0  0  0  0  0  0  0  0  0  0  0  0
    0.8916   -4.2519    1.3981 H   0  0  0  0  0  0  0  0  0  0  0  0
    1.2949   -6.6706    1.3156 H   0  0  0  0  0  0  0  0  0  0  0  0
    1.0807   -7.4911    3.9542 H   0  0  0  0  0  0  0  0  0  0  0  0
  1  2  1  0  0  0  0
  1 30  1  0  0  0  0
  1 31  1  0  0  0  0
  1 32  1  0  0  0  0
  2  3  1  0  0  0  0
  3  4  1  0  0  0  0
  3 21  2  0  0  0  0
  4  5  2  0  0  0  0
  4 33  1  0  0  0  0
  5  6  1  0  0  0  0
  5 19  1  0  0  0  0
  6  7  2  0  0  0  0
  7  8  1  0  0  0  0
  7 34  1  0  0  0  0
  8  9  2  0  0  0  0
  9 10  1  0  0  0  0
  9 19  1  0  0  0  0
 10 11  1  0  0  0  0
 10 35  1  0  0  0  0
 11 12  1  0  0  0  0
 11 17  2  0  0  0  0
 12 13  2  0  0  0  0
 12 36  1  0  0  0  0
 13 14  1  0  0  0  0
 13 37  1  0  0  0  0
 14 15  1  0  0  0  0
 14 16  2  0  0  0  0
 16 17  1  0  0  0  0
 16 38  1  0  0  0  0
 17 18  1  0  0  0  0
 19 20  2  0  0  0  0
 20 21  1  0  0  0  0
 20 39  1  0  0  0  0
 21 22  1  0  0  0  0
 22 23  1  0  0  0  0
 23 24  1  0  0  0  0
 23 40  1  0  0  0  0
 23 41  1  0  0  0  0
 24 25  1  0  0  0  0
 24 42  1  0  0  0  0
 24 43  1  0  0  0  0
 25 26  1  0  0  0  0
 25 44  1  0  0  0  0
 25 45  1  0  0  0  0
 26 27  2  0  0  0  0
 26 28  1  0  0  0  0
 28 29  1  0  0  0  0
 28 46  1  0  0  0  0
 29 47  1  0  0  0  0
M  END
$$$$
