CHEMBL3921652
 OpenBabel04072215373D

 60 63  0  0  1  0  0  0  0  0999 V2000
    1.3319    2.9945   -0.9309 C   0  0  0  0  0  0  0  0  0  0  0  0
    1.8877    1.6796   -0.3687 C   0  0  1  0  0  0  0  0  0  0  0  0
    2.9926    1.1782   -1.1902 N   0  0  0  0  0  0  0  0  0  0  0  0
    2.6880    0.7948   -2.4968 C   0  0  0  0  0  0  0  0  0  0  0  0
    1.4375    0.4265   -2.8567 N   0  0  0  0  0  0  0  0  0  0  0  0
    1.2060    0.1209   -4.1513 C   0  0  0  0  0  0  0  0  0  0  0  0
    2.0711    0.1317   -5.1825 N   0  0  0  0  0  0  0  0  0  0  0  0
    3.2970    0.4941   -4.7776 C   0  0  0  0  0  0  0  0  0  0  0  0
    4.3870    0.6380   -5.5939 N   0  0  0  0  0  0  0  0  0  0  0  0
    5.4843    1.0553   -4.8678 C   0  0  0  0  0  0  0  0  0  0  0  0
    6.7847    1.3897   -5.4540 C   0  0  0  0  0  0  0  0  0  0  0  0
    7.5829    2.3490   -4.8273 C   0  0  0  0  0  0  0  0  0  0  0  0
    8.8337    2.7005   -5.3413 C   0  0  0  0  0  0  0  0  0  0  0  0
    9.3278    2.0982   -6.4957 C   0  0  0  0  0  0  0  0  0  0  0  0
   10.5910    2.4076   -7.0500 N   0  0  0  0  0  0  0  0  0  0  0  0
   11.4744    3.3685   -6.5894 C   0  0  0  0  0  0  0  0  0  0  0  0
   11.3094    4.1223   -5.6339 O   0  0  0  0  0  0  0  0  0  0  0  0
   12.7745    3.4319   -7.3650 C   0  0  0  0  0  0  0  0  0  0  0  0
   13.9623    3.1115   -6.4519 C   0  0  0  0  0  0  0  0  0  0  0  0
   13.9432    1.6828   -5.9076 C   0  0  0  0  0  0  0  0  0  0  0  0
   14.0393    0.6809   -7.0322 C   0  0  0  0  0  0  0  0  0  0  0  0
   13.0501    0.2200   -7.6009 O   0  0  0  0  0  0  0  0  0  0  0  0
   15.3194    0.4031   -7.4363 N   0  0  0  0  0  0  0  0  0  0  0  0
   15.4527   -0.5556   -8.4646 O   0  0  0  0  0  0  0  0  0  0  0  0
    8.5361    1.1331   -7.1330 C   0  0  0  0  0  0  0  0  0  0  0  0
    7.2728    0.7846   -6.6176 C   0  0  0  0  0  0  0  0  0  0  0  0
    5.0582    1.1476   -3.5486 C   0  0  0  0  0  0  0  0  0  0  0  0
    3.6800    0.8150   -3.4894 C   0  0  0  0  0  0  0  0  0  0  0  0
    2.4331    1.9071    1.0388 C   0  0  0  0  0  0  0  0  0  0  0  0
    1.8417    1.2777    2.1442 C   0  0  0  0  0  0  0  0  0  0  0  0
    2.3602    1.4646    3.4285 C   0  0  0  0  0  0  0  0  0  0  0  0
    3.4719    2.2827    3.6247 C   0  0  0  0  0  0  0  0  0  0  0  0
    4.0637    2.9229    2.5393 C   0  0  0  0  0  0  0  0  0  0  0  0
    3.5477    2.7375    1.2565 C   0  0  0  0  0  0  0  0  0  0  0  0
    0.8296    2.8394   -1.8913 H   0  0  0  0  0  0  0  0  0  0  0  0
    2.1248    3.7322   -1.1015 H   0  0  0  0  0  0  0  0  0  0  0  0
    0.6001    3.4384   -0.2474 H   0  0  0  0  0  0  0  0  0  0  0  0
    1.0833    0.9343   -0.3183 H   0  0  0  0  0  0  0  0  0  0  0  0
    3.4377    0.3837   -0.7354 H   0  0  0  0  0  0  0  0  0  0  0  0
    0.1862   -0.1654   -4.3911 H   0  0  0  0  0  0  0  0  0  0  0  0
    4.3516    0.5138   -6.5937 H   0  0  0  0  0  0  0  0  0  0  0  0
    7.2463    2.8534   -3.9245 H   0  0  0  0  0  0  0  0  0  0  0  0
    9.3971    3.4463   -4.7923 H   0  0  0  0  0  0  0  0  0  0  0  0
   10.8852    1.8390   -7.8382 H   0  0  0  0  0  0  0  0  0  0  0  0
   12.8701    4.4571   -7.7422 H   0  0  0  0  0  0  0  0  0  0  0  0
   12.7555    2.7805   -8.2437 H   0  0  0  0  0  0  0  0  0  0  0  0
   13.9734    3.8057   -5.6025 H   0  0  0  0  0  0  0  0  0  0  0  0
   14.8899    3.2826   -7.0110 H   0  0  0  0  0  0  0  0  0  0  0  0
   13.0365    1.4770   -5.3284 H   0  0  0  0  0  0  0  0  0  0  0  0
   14.7874    1.5382   -5.2227 H   0  0  0  0  0  0  0  0  0  0  0  0
   16.1444    0.5920   -6.8766 H   0  0  0  0  0  0  0  0  0  0  0  0
   14.5188   -0.7834   -8.6658 H   0  0  0  0  0  0  0  0  0  0  0  0
    8.8855    0.6345   -8.0321 H   0  0  0  0  0  0  0  0  0  0  0  0
    6.6948    0.0222   -7.1329 H   0  0  0  0  0  0  0  0  0  0  0  0
    5.6623    1.4628   -2.7070 H   0  0  0  0  0  0  0  0  0  0  0  0
    0.9752    0.6334    2.0141 H   0  0  0  0  0  0  0  0  0  0  0  0
    1.8985    0.9678    4.2780 H   0  0  0  0  0  0  0  0  0  0  0  0
    3.8789    2.4196    4.6231 H   0  0  0  0  0  0  0  0  0  0  0  0
    4.9302    3.5619    2.6873 H   0  0  0  0  0  0  0  0  0  0  0  0
    4.0267    3.2345    0.4145 H   0  0  0  0  0  0  0  0  0  0  0  0
  1  2  1  0  0  0  0
  1 35  1  0  0  0  0
  1 36  1  0  0  0  0
  1 37  1  0  0  0  0
  2  3  1  0  0  0  0
  2 29  1  0  0  0  0
  2 38  1  1  0  0  0
  3  4  1  0  0  0  0
  3 39  1  0  0  0  0
  4  5  1  0  0  0  0
  4 28  2  0  0  0  0
  5  6  2  0  0  0  0
  6  7  1  0  0  0  0
  6 40  1  0  0  0  0
  7  8  2  0  0  0  0
  8  9  1  0  0  0  0
  8 28  1  0  0  0  0
  9 10  1  0  0  0  0
  9 41  1  0  0  0  0
 10 11  1  0  0  0  0
 10 27  2  0  0  0  0
 11 12  1  0  0  0  0
 11 26  2  0  0  0  0
 12 13  2  0  0  0  0
 12 42  1  0  0  0  0
 13 14  1  0  0  0  0
 13 43  1  0  0  0  0
 14 15  1  0  0  0  0
 14 25  2  0  0  0  0
 15 16  1  0  0  0  0
 15 44  1  0  0  0  0
 16 17  2  0  0  0  0
 16 18  1  0  0  0  0
 18 19  1  0  0  0  0
 18 45  1  0  0  0  0
 18 46  1  0  0  0  0
 19 20  1  0  0  0  0
 19 47  1  0  0  0  0
 19 48  1  0  0  0  0
 20 21  1  0  0  0  0
 20 49  1  0  0  0  0
 20 50  1  0  0  0  0
 21 22  2  0  0  0  0
 21 23  1  0  0  0  0
 23 24  1  0  0  0  0
 23 51  1  0  0  0  0
 24 52  1  0  0  0  0
 25 26  1  0  0  0  0
 25 53  1  0  0  0  0
 26 54  1  0  0  0  0
 27 28  1  0  0  0  0
 27 55  1  0  0  0  0
 29 30  1  0  0  0  0
 29 34  2  0  0  0  0
 30 31  2  0  0  0  0
 30 56  1  0  0  0  0
 31 32  1  0  0  0  0
 31 57  1  0  0  0  0
 32 33  2  0  0  0  0
 32 58  1  0  0  0  0
 33 34  1  0  0  0  0
 33 59  1  0  0  0  0
 34 60  1  0  0  0  0
M  END
$$$$
