CHEMBL248393
 OpenBabel04072215363D

 68 72  0  0  1  0  0  0  0  0999 V2000
    1.3788    1.1252    0.5736 C   0  0  0  0  0  0  0  0  0  0  0  0
    2.4201    0.2394    0.1784 O   0  0  0  0  0  0  0  0  0  0  0  0
    3.0874    0.5118   -0.9868 C   0  0  0  0  0  0  0  0  0  0  0  0
    2.7431    1.5634   -1.8438 C   0  0  0  0  0  0  0  0  0  0  0  0
    3.4477    1.8360   -3.0509 C   0  0  0  0  0  0  0  0  0  0  0  0
    3.0827    2.8674   -3.9918 C   0  0  0  0  0  0  0  0  0  0  0  0
    1.9717    3.7046   -3.6845 N   0  0  0  0  0  0  0  0  0  0  0  0
    1.6855    5.0250   -4.2835 C   0  0  2  0  0  0  0  0  0  0  0  0
    0.4316    5.6783   -3.7598 C   0  0  0  0  0  0  0  0  0  0  0  0
    0.5017    5.2193   -5.1962 C   0  0  1  0  0  0  0  0  0  0  0  0
    0.2495    6.2949   -6.2251 C   0  0  0  0  0  0  0  0  0  0  0  0
    1.1971    6.7763   -7.1358 C   0  0  0  0  0  0  0  0  0  0  0  0
    0.8277    7.6257   -8.1876 C   0  0  0  0  0  0  0  0  0  0  0  0
   -0.4961    8.0341   -8.3303 C   0  0  0  0  0  0  0  0  0  0  0  0
   -1.4440    7.6244   -7.4020 C   0  0  0  0  0  0  0  0  0  0  0  0
   -1.0695    6.7724   -6.3644 C   0  0  0  0  0  0  0  0  0  0  0  0
    3.7711    2.8938   -5.2070 C   0  0  0  0  0  0  0  0  0  0  0  0
    3.3730    3.6221   -6.3681 C   0  0  0  0  0  0  0  0  0  0  0  0
    3.1188    4.1276   -7.3803 N   0  0  0  0  0  0  0  0  0  0  0  0
    4.8755    2.0682   -5.3688 C   0  0  0  0  0  0  0  0  0  0  0  0
    5.2910    1.1657   -4.4549 N   0  0  0  0  0  0  0  0  0  0  0  0
    4.5579    1.0203   -3.3454 C   0  0  0  0  0  0  0  0  0  0  0  0
    4.9070   -0.0085   -2.4883 C   0  0  0  0  0  0  0  0  0  0  0  0
    4.1675   -0.2997   -1.3381 C   0  0  0  0  0  0  0  0  0  0  0  0
    4.6385   -1.3842   -0.6484 O   0  0  0  0  0  0  0  0  0  0  0  0
    3.6532   -2.2052   -0.0187 C   0  0  0  0  0  0  0  0  0  0  0  0
    4.1593   -3.6439   -0.0399 C   0  0  0  0  0  0  0  0  0  0  0  0
    3.2064   -4.5645    0.7267 C   0  0  0  0  0  0  0  0  0  0  0  0
    3.6029   -5.9766    0.6749 N   0  0  0  0  0  0  0  0  0  0  0  0
    4.9151   -6.2313    1.2994 C   0  0  0  0  0  0  0  0  0  0  0  0
    5.2930   -7.7293    1.2469 C   0  0  0  0  0  0  0  0  0  0  0  0
    4.3028   -8.6398    1.8533 N   0  0  0  0  0  0  0  0  0  0  0  0
    4.3193   -8.5521    3.3107 C   0  0  0  0  0  0  0  0  0  0  0  0
    2.9684   -8.3296    1.3004 C   0  0  0  0  0  0  0  0  0  0  0  0
    2.5811   -6.8302    1.3171 C   0  0  0  0  0  0  0  0  0  0  0  0
    0.9055    0.7125    1.4695 H   0  0  0  0  0  0  0  0  0  0  0  0
    0.5997    1.2030   -0.1919 H   0  0  0  0  0  0  0  0  0  0  0  0
    1.7844    2.1105    0.8258 H   0  0  0  0  0  0  0  0  0  0  0  0
    1.8811    2.1651   -1.5980 H   0  0  0  0  0  0  0  0  0  0  0  0
    1.7501    3.6951   -2.6949 H   0  0  0  0  0  0  0  0  0  0  0  0
    2.5502    5.6792   -4.3487 H   0  0  0  0  0  0  0  0  0  0  0  0
    0.4819    6.7384   -3.5358 H   0  0  0  0  0  0  0  0  0  0  0  0
   -0.2460    5.1275   -3.1176 H   0  0  0  0  0  0  0  0  0  0  0  0
    0.0135    4.2799   -5.4487 H   0  0  0  0  0  0  0  0  0  0  0  0
    2.2338    6.4603   -7.0712 H   0  0  0  0  0  0  0  0  0  0  0  0
    1.5716    7.9406   -8.9156 H   0  0  0  0  0  0  0  0  0  0  0  0
   -0.7905    8.6600   -9.1679 H   0  0  0  0  0  0  0  0  0  0  0  0
   -2.4800    7.9361   -7.4976 H   0  0  0  0  0  0  0  0  0  0  0  0
   -1.8293    6.4326   -5.6631 H   0  0  0  0  0  0  0  0  0  0  0  0
    5.4617    2.0774   -6.2799 H   0  0  0  0  0  0  0  0  0  0  0  0
    5.7583   -0.6363   -2.7419 H   0  0  0  0  0  0  0  0  0  0  0  0
    2.6876   -2.1667   -0.5375 H   0  0  0  0  0  0  0  0  0  0  0  0
    3.5374   -1.8733    1.0189 H   0  0  0  0  0  0  0  0  0  0  0  0
    5.1675   -3.6607    0.3885 H   0  0  0  0  0  0  0  0  0  0  0  0
    4.2633   -3.9788   -1.0800 H   0  0  0  0  0  0  0  0  0  0  0  0
    2.2120   -4.4668    0.2702 H   0  0  0  0  0  0  0  0  0  0  0  0
    3.1158   -4.2233    1.7655 H   0  0  0  0  0  0  0  0  0  0  0  0
    4.9242   -5.8771    2.3380 H   0  0  0  0  0  0  0  0  0  0  0  0
    5.7036   -5.6903    0.7664 H   0  0  0  0  0  0  0  0  0  0  0  0
    6.2769   -7.8757    1.7092 H   0  0  0  0  0  0  0  0  0  0  0  0
    5.4186   -8.0166    0.1940 H   0  0  0  0  0  0  0  0  0  0  0  0
    5.3182   -8.7883    3.6951 H   0  0  0  0  0  0  0  0  0  0  0  0
    3.6372   -9.2928    3.7421 H   0  0  0  0  0  0  0  0  0  0  0  0
    4.0351   -7.5661    3.6921 H   0  0  0  0  0  0  0  0  0  0  0  0
    2.1993   -8.9138    1.8209 H   0  0  0  0  0  0  0  0  0  0  0  0
    2.9475   -8.6782    0.2591 H   0  0  0  0  0  0  0  0  0  0  0  0
    2.4086   -6.5094    2.3528 H   0  0  0  0  0  0  0  0  0  0  0  0
    1.6279   -6.7217    0.7848 H   0  0  0  0  0  0  0  0  0  0  0  0
  1  2  1  0  0  0  0
  1 36  1  0  0  0  0
  1 37  1  0  0  0  0
  1 38  1  0  0  0  0
  2  3  1  0  0  0  0
  3  4  1  0  0  0  0
  3 24  2  0  0  0  0
  4  5  2  0  0  0  0
  4 39  1  0  0  0  0
  5  6  1  0  0  0  0
  5 22  1  0  0  0  0
  6  7  1  0  0  0  0
  6 17  2  0  0  0  0
  7  8  1  0  0  0  0
  7 40  1  0  0  0  0
  8  9  1  0  0  0  0
  8 10  1  0  0  0  0
  8 41  1  6  0  0  0
  9 10  1  0  0  0  0
  9 42  1  0  0  0  0
  9 43  1  0  0  0  0
 10 11  1  0  0  0  0
 10 44  1  6  0  0  0
 11 12  1  0  0  0  0
 11 16  2  0  0  0  0
 12 13  2  0  0  0  0
 12 45  1  0  0  0  0
 13 14  1  0  0  0  0
 13 46  1  0  0  0  0
 14 15  2  0  0  0  0
 14 47  1  0  0  0  0
 15 16  1  0  0  0  0
 15 48  1  0  0  0  0
 16 49  1  0  0  0  0
 17 18  1  0  0  0  0
 17 20  1  0  0  0  0
 18 19  3  0  0  0  0
 20 21  2  0  0  0  0
 20 50  1  0  0  0  0
 21 22  1  0  0  0  0
 22 23  2  0  0  0  0
 23 24  1  0  0  0  0
 23 51  1  0  0  0  0
 24 25  1  0  0  0  0
 25 26  1  0  0  0  0
 26 27  1  0  0  0  0
 26 52  1  0  0  0  0
 26 53  1  0  0  0  0
 27 28  1  0  0  0  0
 27 54  1  0  0  0  0
 27 55  1  0  0  0  0
 28 29  1  0  0  0  0
 28 56  1  0  0  0  0
 28 57  1  0  0  0  0
 29 30  1  0  0  0  0
 29 35  1  0  0  0  0
 30 31  1  0  0  0  0
 30 58  1  0  0  0  0
 30 59  1  0  0  0  0
 31 32  1  0  0  0  0
 31 60  1  0  0  0  0
 31 61  1  0  0  0  0
 32 33  1  0  0  0  0
 32 34  1  0  0  0  0
 33 62  1  0  0  0  0
 33 63  1  0  0  0  0
 33 64  1  0  0  0  0
 34 35  1  0  0  0  0
 34 65  1  0  0  0  0
 34 66  1  0  0  0  0
 35 67  1  0  0  0  0
 35 68  1  0  0  0  0
M  END
$$$$
