CHEMBL2036343
 OpenBabel04072215363D

 35 37  0  0  0  0  0  0  0  0999 V2000
    1.4639   -0.0603    0.7634 O   0  0  0  0  0  0  0  0  0  0  0  0
    2.5725   -0.0786    0.2455 C   0  0  0  0  0  0  0  0  0  0  0  0
    3.3454    1.1699   -0.0445 C   0  0  0  0  0  0  0  0  0  0  0  0
    3.2284    2.1416    0.8799 C   0  0  0  0  0  0  0  0  0  0  0  0
    3.9548    3.4073    0.8516 C   0  0  0  0  0  0  0  0  0  0  0  0
    5.2012    3.5201    1.4588 C   0  0  0  0  0  0  0  0  0  0  0  0
    5.8323    4.7610    1.4559 C   0  0  0  0  0  0  0  0  0  0  0  0
    5.2041    5.8396    0.8452 C   0  0  0  0  0  0  0  0  0  0  0  0
    3.9711    5.6278    0.2493 C   0  0  0  0  0  0  0  0  0  0  0  0
    3.3343    4.4351    0.2353 N   0  0  0  0  0  0  0  0  0  0  0  0
    4.1681    1.2334   -1.2912 C   0  0  0  0  0  0  0  0  0  0  0  0
    5.3148   -0.1635   -1.3792 S   0  0  0  0  0  0  0  0  0  0  0  0
    4.0575   -1.4622   -1.3037 C   0  0  0  0  0  0  0  0  0  0  0  0
    3.3028   -1.3498   -0.0198 C   0  0  0  0  0  0  0  0  0  0  0  0
    3.2639   -2.2635    0.9684 C   0  0  0  0  0  0  0  0  0  0  0  0
    4.1223   -3.4445    0.9643 C   0  0  0  0  0  0  0  0  0  0  0  0
    5.3724   -3.3766    1.5741 C   0  0  0  0  0  0  0  0  0  0  0  0
    6.2306   -4.4620    1.4540 C   0  0  0  0  0  0  0  0  0  0  0  0
    5.8135   -5.5787    0.7407 C   0  0  0  0  0  0  0  0  0  0  0  0
    4.5467   -5.5601    0.1752 C   0  0  0  0  0  0  0  0  0  0  0  0
    3.6944   -4.5137    0.2619 N   0  0  0  0  0  0  0  0  0  0  0  0
    2.5737    2.0281    1.7407 H   0  0  0  0  0  0  0  0  0  0  0  0
    5.6707    2.6667    1.9370 H   0  0  0  0  0  0  0  0  0  0  0  0
    6.7999    4.8862    1.9337 H   0  0  0  0  0  0  0  0  0  0  0  0
    5.6617    6.8229    0.8364 H   0  0  0  0  0  0  0  0  0  0  0  0
    3.4423    6.4390   -0.2430 H   0  0  0  0  0  0  0  0  0  0  0  0
    4.7651    2.1467   -1.3557 H   0  0  0  0  0  0  0  0  0  0  0  0
    3.5176    1.2178   -2.1725 H   0  0  0  0  0  0  0  0  0  0  0  0
    4.5604   -2.4253   -1.4230 H   0  0  0  0  0  0  0  0  0  0  0  0
    3.3737   -1.3634   -2.1543 H   0  0  0  0  0  0  0  0  0  0  0  0
    2.6780   -2.1148    1.8712 H   0  0  0  0  0  0  0  0  0  0  0  0
    5.6853   -2.4837    2.1052 H   0  0  0  0  0  0  0  0  0  0  0  0
    7.2196   -4.4293    1.9015 H   0  0  0  0  0  0  0  0  0  0  0  0
    6.4617   -6.4397    0.6217 H   0  0  0  0  0  0  0  0  0  0  0  0
    4.1779   -6.4118   -0.3900 H   0  0  0  0  0  0  0  0  0  0  0  0
  1  2  2  0  0  0  0
  2  3  1  0  0  0  0
  2 14  1  0  0  0  0
  3  4  2  0  0  0  0
  3 11  1  0  0  0  0
  4  5  1  0  0  0  0
  4 22  1  0  0  0  0
  5  6  1  0  0  0  0
  5 10  2  0  0  0  0
  6  7  2  0  0  0  0
  6 23  1  0  0  0  0
  7  8  1  0  0  0  0
  7 24  1  0  0  0  0
  8  9  2  0  0  0  0
  8 25  1  0  0  0  0
  9 10  1  0  0  0  0
  9 26  1  0  0  0  0
 11 12  1  0  0  0  0
 11 27  1  0  0  0  0
 11 28  1  0  0  0  0
 12 13  1  0  0  0  0
 13 14  1  0  0  0  0
 13 29  1  0  0  0  0
 13 30  1  0  0  0  0
 14 15  2  0  0  0  0
 15 16  1  0  0  0  0
 15 31  1  0  0  0  0
 16 17  1  0  0  0  0
 16 21  2  0  0  0  0
 17 18  2  0  0  0  0
 17 32  1  0  0  0  0
 18 19  1  0  0  0  0
 18 33  1  0  0  0  0
 19 20  2  0  0  0  0
 19 34  1  0  0  0  0
 20 21  1  0  0  0  0
 20 35  1  0  0  0  0
M  END
$$$$
