CHEMBL3759565
 OpenBabel04072215373D

 53 55  0  0  0  0  0  0  0  0999 V2000
    3.3917   -0.6410   -1.1669 C   0  0  0  0  0  0  0  0  0  0  0  0
    2.5340   -0.1671   -0.1299 O   0  0  0  0  0  0  0  0  0  0  0  0
    3.0613    0.7969    0.6876 C   0  0  0  0  0  0  0  0  0  0  0  0
    3.9999    1.7173    0.2099 C   0  0  0  0  0  0  0  0  0  0  0  0
    4.5867    2.6636    1.0270 C   0  0  0  0  0  0  0  0  0  0  0  0
    5.5428    3.4196    0.4876 N   0  0  0  0  0  0  0  0  0  0  0  0
    6.1304    4.2969    1.2994 C   0  0  0  0  0  0  0  0  0  0  0  0
    5.8335    4.4887    2.5825 N   0  0  0  0  0  0  0  0  0  0  0  0
    4.8476    3.7404    3.1176 C   0  0  0  0  0  0  0  0  0  0  0  0
    4.4899    3.9477    4.4776 N   0  0  0  0  0  0  0  0  0  0  0  0
    4.9585    4.9720    5.3340 C   0  0  0  0  0  0  0  0  0  0  0  0
    5.3688    6.2258    4.8584 C   0  0  0  0  0  0  0  0  0  0  0  0
    5.8465    7.2110    5.7240 C   0  0  0  0  0  0  0  0  0  0  0  0
    5.8632    6.9649    7.0863 C   0  0  0  0  0  0  0  0  0  0  0  0
    6.3311    7.9022    7.9205 F   0  0  0  0  0  0  0  0  0  0  0  0
    5.3895    5.7638    7.5984 C   0  0  0  0  0  0  0  0  0  0  0  0
    4.9266    4.7741    6.7251 C   0  0  0  0  0  0  0  0  0  0  0  0
    4.1694    2.7670    2.3599 C   0  0  0  0  0  0  0  0  0  0  0  0
    3.1446    1.9046    2.8294 C   0  0  0  0  0  0  0  0  0  0  0  0
    2.6210    0.8954    2.0154 C   0  0  0  0  0  0  0  0  0  0  0  0
    1.7003    0.0860    2.6400 O   0  0  0  0  0  0  0  0  0  0  0  0
    1.7921   -1.2910    2.2753 C   0  0  0  0  0  0  0  0  0  0  0  0
    0.9941   -2.1674    3.2393 C   0  0  0  0  0  0  0  0  0  0  0  0
    1.1061   -3.6251    2.7860 C   0  0  0  0  0  0  0  0  0  0  0  0
    0.2625   -4.5773    3.6255 C   0  0  0  0  0  0  0  0  0  0  0  0
    0.3992   -6.0120    3.1121 C   0  0  0  0  0  0  0  0  0  0  0  0
   -0.4563   -6.9808    3.9011 C   0  0  0  0  0  0  0  0  0  0  0  0
   -1.1909   -6.6607    4.8341 O   0  0  0  0  0  0  0  0  0  0  0  0
   -0.3524   -8.2777    3.4705 N   0  0  0  0  0  0  0  0  0  0  0  0
   -1.0568   -9.2241    4.2578 O   0  0  0  0  0  0  0  0  0  0  0  0
    3.0948   -1.6659   -1.4075 H   0  0  0  0  0  0  0  0  0  0  0  0
    4.4446   -0.6713   -0.8622 H   0  0  0  0  0  0  0  0  0  0  0  0
    3.2644   -0.0271   -2.0635 H   0  0  0  0  0  0  0  0  0  0  0  0
    4.3087    1.7041   -0.8317 H   0  0  0  0  0  0  0  0  0  0  0  0
    6.9225    4.9060    0.8787 H   0  0  0  0  0  0  0  0  0  0  0  0
    4.4523    3.0538    4.9569 H   0  0  0  0  0  0  0  0  0  0  0  0
    5.3356    6.4539    3.7972 H   0  0  0  0  0  0  0  0  0  0  0  0
    6.2022    8.1581    5.3337 H   0  0  0  0  0  0  0  0  0  0  0  0
    5.3870    5.6033    8.6709 H   0  0  0  0  0  0  0  0  0  0  0  0
    4.5551    3.8422    7.1432 H   0  0  0  0  0  0  0  0  0  0  0  0
    2.7725    1.9932    3.8471 H   0  0  0  0  0  0  0  0  0  0  0  0
    2.8413   -1.6137    2.2840 H   0  0  0  0  0  0  0  0  0  0  0  0
    1.3551   -1.4409    1.2847 H   0  0  0  0  0  0  0  0  0  0  0  0
   -0.0539   -1.8433    3.2487 H   0  0  0  0  0  0  0  0  0  0  0  0
    1.3645   -2.0447    4.2640 H   0  0  0  0  0  0  0  0  0  0  0  0
    2.1576   -3.9358    2.8261 H   0  0  0  0  0  0  0  0  0  0  0  0
    0.7921   -3.7018    1.7371 H   0  0  0  0  0  0  0  0  0  0  0  0
   -0.7894   -4.2698    3.5880 H   0  0  0  0  0  0  0  0  0  0  0  0
    0.5741   -4.5262    4.6753 H   0  0  0  0  0  0  0  0  0  0  0  0
    1.4444   -6.3367    3.1796 H   0  0  0  0  0  0  0  0  0  0  0  0
    0.0932   -6.0652    2.0603 H   0  0  0  0  0  0  0  0  0  0  0  0
    0.4525   -8.6295    2.9644 H   0  0  0  0  0  0  0  0  0  0  0  0
   -1.5095   -8.6507    4.9163 H   0  0  0  0  0  0  0  0  0  0  0  0
  1  2  1  0  0  0  0
  1 31  1  0  0  0  0
  1 32  1  0  0  0  0
  1 33  1  0  0  0  0
  2  3  1  0  0  0  0
  3  4  1  0  0  0  0
  3 20  2  0  0  0  0
  4  5  2  0  0  0  0
  4 34  1  0  0  0  0
  5  6  1  0  0  0  0
  5 18  1  0  0  0  0
  6  7  2  0  0  0  0
  7  8  1  0  0  0  0
  7 35  1  0  0  0  0
  8  9  2  0  0  0  0
  9 10  1  0  0  0  0
  9 18  1  0  0  0  0
 10 11  1  0  0  0  0
 10 36  1  0  0  0  0
 11 12  1  0  0  0  0
 11 17  2  0  0  0  0
 12 13  2  0  0  0  0
 12 37  1  0  0  0  0
 13 14  1  0  0  0  0
 13 38  1  0  0  0  0
 14 15  1  0  0  0  0
 14 16  2  0  0  0  0
 16 17  1  0  0  0  0
 16 39  1  0  0  0  0
 17 40  1  0  0  0  0
 18 19  2  0  0  0  0
 19 20  1  0  0  0  0
 19 41  1  0  0  0  0
 20 21  1  0  0  0  0
 21 22  1  0  0  0  0
 22 23  1  0  0  0  0
 22 42  1  0  0  0  0
 22 43  1  0  0  0  0
 23 24  1  0  0  0  0
 23 44  1  0  0  0  0
 23 45  1  0  0  0  0
 24 25  1  0  0  0  0
 24 46  1  0  0  0  0
 24 47  1  0  0  0  0
 25 26  1  0  0  0  0
 25 48  1  0  0  0  0
 25 49  1  0  0  0  0
 26 27  1  0  0  0  0
 26 50  1  0  0  0  0
 26 51  1  0  0  0  0
 27 28  2  0  0  0  0
 27 29  1  0  0  0  0
 29 30  1  0  0  0  0
 29 52  1  0  0  0  0
 30 53  1  0  0  0  0
M  END
$$$$
