CHEMBL2088106
 OpenBabel04072215363D

 39 41  0  0  0  0  0  0  0  0999 V2000
    5.8208    0.1447   -3.1660 C   0  0  0  0  0  0  0  0  0  0  0  0
    4.8894    0.3092   -2.0322 C   0  0  0  0  0  0  0  0  0  0  0  0
    4.0939    1.3684   -1.6641 C   0  0  0  0  0  0  0  0  0  0  0  0
    3.4494    0.9715   -0.4674 C   0  0  0  0  0  0  0  0  0  0  0  0
    2.6181    1.7241    0.2837 N   0  0  0  0  0  0  0  0  0  0  0  0
    2.3646    3.1116    0.2322 C   0  0  0  0  0  0  0  0  0  0  0  0
    2.8147    3.8227   -0.8192 N   0  0  0  0  0  0  0  0  0  0  0  0
    2.6193    5.1421   -0.8699 C   0  0  0  0  0  0  0  0  0  0  0  0
    3.0542    5.7487   -2.0347 N   0  0  0  0  0  0  0  0  0  0  0  0
    3.5205    7.1232   -1.9345 C   0  0  0  0  0  0  0  0  0  0  0  0
    5.0226    7.2052   -1.6818 C   0  0  0  0  0  0  0  0  0  0  0  0
    5.7651    6.1331   -2.0901 N   0  0  0  0  0  0  0  0  0  0  0  0
    7.1046    6.1977   -1.9349 C   0  0  0  0  0  0  0  0  0  0  0  0
    7.7639    7.2882   -1.4018 C   0  0  0  0  0  0  0  0  0  0  0  0
    7.0053    8.3836   -1.0084 C   0  0  0  0  0  0  0  0  0  0  0  0
    5.6120    8.3631   -1.1514 C   0  0  0  0  0  0  0  0  0  0  0  0
    4.8101    9.5674   -0.7552 C   0  0  0  0  0  0  0  0  0  0  0  0
    1.9963    5.8268    0.0939 N   0  0  0  0  0  0  0  0  0  0  0  0
    1.5438    5.1075    1.1432 C   0  0  0  0  0  0  0  0  0  0  0  0
    1.6879    3.7430    1.2625 C   0  0  0  0  0  0  0  0  0  0  0  0
    1.0097    2.8406    2.7753 Br  0  0  0  0  0  0  0  0  0  0  0  0
    3.7876   -0.2789   -0.1374 N   0  0  0  0  0  0  0  0  0  0  0  0
    4.6712   -0.6463   -1.0825 N   0  0  0  0  0  0  0  0  0  0  0  0
    5.7871    1.0208   -3.8235 H   0  0  0  0  0  0  0  0  0  0  0  0
    5.5582   -0.7343   -3.7617 H   0  0  0  0  0  0  0  0  0  0  0  0
    6.8491    0.0344   -2.8083 H   0  0  0  0  0  0  0  0  0  0  0  0
    4.0115    2.3052   -2.1909 H   0  0  0  0  0  0  0  0  0  0  0  0
    2.2301    1.2663    1.0986 H   0  0  0  0  0  0  0  0  0  0  0  0
    3.7880    5.1403   -2.3977 H   0  0  0  0  0  0  0  0  0  0  0  0
    2.9507    7.6980   -1.1991 H   0  0  0  0  0  0  0  0  0  0  0  0
    3.3437    7.5950   -2.9087 H   0  0  0  0  0  0  0  0  0  0  0  0
    7.6536    5.3212   -2.2668 H   0  0  0  0  0  0  0  0  0  0  0  0
    8.8433    7.2899   -1.3000 H   0  0  0  0  0  0  0  0  0  0  0  0
    7.5072    9.2561   -0.5961 H   0  0  0  0  0  0  0  0  0  0  0  0
    5.4506   10.3620   -0.3574 H   0  0  0  0  0  0  0  0  0  0  0  0
    4.0890    9.3091    0.0263 H   0  0  0  0  0  0  0  0  0  0  0  0
    4.2825    9.9744   -1.6239 H   0  0  0  0  0  0  0  0  0  0  0  0
    1.0448    5.6922    1.9106 H   0  0  0  0  0  0  0  0  0  0  0  0
    5.0964   -1.5640   -1.0097 H   0  0  0  0  0  0  0  0  0  0  0  0
  1  2  1  0  0  0  0
  1 24  1  0  0  0  0
  1 25  1  0  0  0  0
  1 26  1  0  0  0  0
  2  3  2  0  0  0  0
  2 23  1  0  0  0  0
  3  4  1  0  0  0  0
  3 27  1  0  0  0  0
  4  5  1  0  0  0  0
  4 22  2  0  0  0  0
  5  6  1  0  0  0  0
  5 28  1  0  0  0  0
  6  7  1  0  0  0  0
  6 20  2  0  0  0  0
  7  8  2  0  0  0  0
  8  9  1  0  0  0  0
  8 18  1  0  0  0  0
  9 10  1  0  0  0  0
  9 29  1  0  0  0  0
 10 11  1  0  0  0  0
 10 30  1  0  0  0  0
 10 31  1  0  0  0  0
 11 12  1  0  0  0  0
 11 16  2  0  0  0  0
 12 13  2  0  0  0  0
 13 14  1  0  0  0  0
 13 32  1  0  0  0  0
 14 15  2  0  0  0  0
 14 33  1  0  0  0  0
 15 16  1  0  0  0  0
 15 34  1  0  0  0  0
 16 17  1  0  0  0  0
 17 35  1  0  0  0  0
 17 36  1  0  0  0  0
 17 37  1  0  0  0  0
 18 19  2  0  0  0  0
 19 20  1  0  0  0  0
 19 38  1  0  0  0  0
 20 21  1  0  0  0  0
 22 23  1  0  0  0  0
 23 39  1  0  0  0  0
M  END
$$$$
