CHEMBL330042
 OpenBabel04072215363D

 37 40  0  0  0  0  0  0  0  0999 V2000
   -0.6690    0.0004   -0.8524 C   0  0  0  0  0  0  0  0  0  0  0  0
    0.3940   -0.8559   -1.0508 C   0  0  0  0  0  0  0  0  0  0  0  0
    1.3777   -0.7505   -0.0187 C   0  0  0  0  0  0  0  0  0  0  0  0
    2.6090   -1.5473    0.0125 C   0  0  0  0  0  0  0  0  0  0  0  0
    3.0175   -2.4911   -0.9485 C   0  0  0  0  0  0  0  0  0  0  0  0
    4.1914   -3.0572   -0.6611 N   0  0  0  0  0  0  0  0  0  0  0  0
    4.5649   -2.4734    0.5041 N   0  0  0  0  0  0  0  0  0  0  0  0
    5.7368   -2.6986    1.2199 C   0  0  0  0  0  0  0  0  0  0  0  0
    5.9866   -2.0364    2.3624 C   0  0  0  0  0  0  0  0  0  0  0  0
    7.2316   -2.1730    3.1971 C   0  0  0  0  0  0  0  0  0  0  0  0
    6.9185   -2.6530    4.6250 C   0  0  0  0  0  0  0  0  0  0  0  0
    8.1798   -2.7418    5.4819 C   0  0  0  0  0  0  0  0  0  0  0  0
    8.9426   -1.4210    5.4926 C   0  0  0  0  0  0  0  0  0  0  0  0
    9.2841   -0.9644    4.0783 C   0  0  0  0  0  0  0  0  0  0  0  0
    8.0350   -0.8608    3.2068 C   0  0  0  0  0  0  0  0  0  0  0  0
    4.9008   -1.0871    2.7656 C   0  0  0  0  0  0  0  0  0  0  0  0
    3.7973   -0.8510    2.1233 N   0  0  0  0  0  0  0  0  0  0  0  0
    3.6172   -1.5481    0.9569 C   0  0  0  0  0  0  0  0  0  0  0  0
    1.0137    0.1911    0.9228 C   0  0  0  0  0  0  0  0  0  0  0  0
   -0.4877    0.9317    0.5684 S   0  0  0  0  0  0  0  0  0  0  0  0
   -1.5441    0.1242   -1.4748 H   0  0  0  0  0  0  0  0  0  0  0  0
    0.4450   -1.5203   -1.9037 H   0  0  0  0  0  0  0  0  0  0  0  0
    2.5135   -2.7969   -1.8557 H   0  0  0  0  0  0  0  0  0  0  0  0
    6.4156   -3.4193    0.7836 H   0  0  0  0  0  0  0  0  0  0  0  0
    7.8722   -2.9392    2.7355 H   0  0  0  0  0  0  0  0  0  0  0  0
    6.4339   -3.6367    4.5920 H   0  0  0  0  0  0  0  0  0  0  0  0
    6.2125   -1.9722    5.1164 H   0  0  0  0  0  0  0  0  0  0  0  0
    8.8289   -3.5375    5.0966 H   0  0  0  0  0  0  0  0  0  0  0  0
    7.9084   -3.0187    6.5068 H   0  0  0  0  0  0  0  0  0  0  0  0
    9.8627   -1.5301    6.0775 H   0  0  0  0  0  0  0  0  0  0  0  0
    8.3368   -0.6525    5.9886 H   0  0  0  0  0  0  0  0  0  0  0  0
    9.9893   -1.6713    3.6245 H   0  0  0  0  0  0  0  0  0  0  0  0
    9.7864    0.0088    4.1157 H   0  0  0  0  0  0  0  0  0  0  0  0
    8.3311   -0.5958    2.1839 H   0  0  0  0  0  0  0  0  0  0  0  0
    7.4165   -0.0339    3.5781 H   0  0  0  0  0  0  0  0  0  0  0  0
    5.0709   -0.5389    3.7067 H   0  0  0  0  0  0  0  0  0  0  0  0
    1.5555    0.4889    1.8103 H   0  0  0  0  0  0  0  0  0  0  0  0
  1  2  2  0  0  0  0
  1 20  1  0  0  0  0
  1 21  1  0  0  0  0
  2  3  1  0  0  0  0
  2 22  1  0  0  0  0
  3  4  1  0  0  0  0
  3 19  2  0  0  0  0
  4  5  1  0  0  0  0
  4 18  2  0  0  0  0
  5  6  2  0  0  0  0
  5 23  1  0  0  0  0
  6  7  1  0  0  0  0
  7  8  1  0  0  0  0
  7 18  1  0  0  0  0
  8  9  2  0  0  0  0
  8 24  1  0  0  0  0
  9 10  1  0  0  0  0
  9 16  1  0  0  0  0
 10 11  1  0  0  0  0
 10 15  1  0  0  0  0
 10 25  1  0  0  0  0
 11 12  1  0  0  0  0
 11 26  1  0  0  0  0
 11 27  1  0  0  0  0
 12 13  1  0  0  0  0
 12 28  1  0  0  0  0
 12 29  1  0  0  0  0
 13 14  1  0  0  0  0
 13 30  1  0  0  0  0
 13 31  1  0  0  0  0
 14 15  1  0  0  0  0
 14 32  1  0  0  0  0
 14 33  1  0  0  0  0
 15 34  1  0  0  0  0
 15 35  1  0  0  0  0
 16 17  2  0  0  0  0
 16 36  1  0  0  0  0
 17 18  1  0  0  0  0
 19 20  1  0  0  0  0
 19 37  1  0  0  0  0
M  END
$$$$
