CHEMBL241667
 OpenBabel04072215363D

 43 45  0  0  0  0  0  0  0  0999 V2000
    2.1588    0.0723   -0.0420 C   0  0  0  0  0  0  0  0  0  0  0  0
    0.7310   -0.0582    0.0826 N   0  0  0  0  0  0  0  0  0  0  0  0
   -0.1321    1.0041    0.1598 C   0  0  0  0  0  0  0  0  0  0  0  0
   -1.3819    0.6115    0.2330 N   0  0  0  0  0  0  0  0  0  0  0  0
   -1.3217   -0.7404    0.1190 C   0  0  0  0  0  0  0  0  0  0  0  0
   -2.4148   -1.5132    0.0608 N   0  0  0  0  0  0  0  0  0  0  0  0
   -3.6865   -1.1408    0.6323 C   0  0  0  0  0  0  0  0  0  0  0  0
   -4.0947   -2.0698    1.7613 C   0  0  0  0  0  0  0  0  0  0  0  0
   -4.8867   -1.5721    2.8047 C   0  0  0  0  0  0  0  0  0  0  0  0
   -5.3031   -2.4344    3.8084 C   0  0  0  0  0  0  0  0  0  0  0  0
   -4.9968   -3.7472    3.8482 N   0  0  0  0  0  0  0  0  0  0  0  0
   -4.2417   -4.2183    2.8323 C   0  0  0  0  0  0  0  0  0  0  0  0
   -3.7831   -3.4363    1.7820 C   0  0  0  0  0  0  0  0  0  0  0  0
   -0.0228   -1.2105    0.0447 C   0  0  0  0  0  0  0  0  0  0  0  0
    0.3664   -2.5949   -0.1013 C   0  0  0  0  0  0  0  0  0  0  0  0
   -0.3300   -3.3657   -0.7594 O   0  0  0  0  0  0  0  0  0  0  0  0
    1.4869   -2.9944    0.6210 N   0  0  0  0  0  0  0  0  0  0  0  0
    2.0017   -4.3184    0.6792 C   0  0  0  0  0  0  0  0  0  0  0  0
    1.6041   -5.3361   -0.1906 C   0  0  0  0  0  0  0  0  0  0  0  0
    2.0985   -6.6354   -0.0577 C   0  0  0  0  0  0  0  0  0  0  0  0
    3.0186   -6.9335    0.9365 C   0  0  0  0  0  0  0  0  0  0  0  0
    3.4676   -5.9284    1.8051 C   0  0  0  0  0  0  0  0  0  0  0  0
    4.4838   -6.2418    2.8742 C   0  0  0  0  0  0  0  0  0  0  0  0
    4.8889   -7.5431    2.8803 F   0  0  0  0  0  0  0  0  0  0  0  0
    5.6175   -5.4995    2.7433 F   0  0  0  0  0  0  0  0  0  0  0  0
    4.0160   -5.9913    4.1282 F   0  0  0  0  0  0  0  0  0  0  0  0
    2.9519   -4.6189    1.6664 C   0  0  0  0  0  0  0  0  0  0  0  0
    2.4206    1.1264   -0.1735 H   0  0  0  0  0  0  0  0  0  0  0  0
    2.4952   -0.4991   -0.9122 H   0  0  0  0  0  0  0  0  0  0  0  0
    2.6213   -0.3008    0.8747 H   0  0  0  0  0  0  0  0  0  0  0  0
    0.1971    2.0355    0.1469 H   0  0  0  0  0  0  0  0  0  0  0  0
   -2.3234   -2.4718   -0.2619 H   0  0  0  0  0  0  0  0  0  0  0  0
   -4.4571   -1.1898   -0.1453 H   0  0  0  0  0  0  0  0  0  0  0  0
   -3.6692   -0.1089    1.0049 H   0  0  0  0  0  0  0  0  0  0  0  0
   -5.1794   -0.5274    2.8381 H   0  0  0  0  0  0  0  0  0  0  0  0
   -5.9184   -2.0796    4.6297 H   0  0  0  0  0  0  0  0  0  0  0  0
   -4.0102   -5.2782    2.8812 H   0  0  0  0  0  0  0  0  0  0  0  0
   -3.1915   -3.9049    1.0039 H   0  0  0  0  0  0  0  0  0  0  0  0
    1.8392   -2.3423    1.3047 H   0  0  0  0  0  0  0  0  0  0  0  0
    0.9019   -5.1611   -0.9988 H   0  0  0  0  0  0  0  0  0  0  0  0
    1.7525   -7.4127   -0.7371 H   0  0  0  0  0  0  0  0  0  0  0  0
    3.3885   -7.9550    1.0313 H   0  0  0  0  0  0  0  0  0  0  0  0
    3.2942   -3.8491    2.3555 H   0  0  0  0  0  0  0  0  0  0  0  0
  1  2  1  0  0  0  0
  1 28  1  0  0  0  0
  1 29  1  0  0  0  0
  1 30  1  0  0  0  0
  2  3  1  0  0  0  0
  2 14  1  0  0  0  0
  3  4  2  0  0  0  0
  3 31  1  0  0  0  0
  4  5  1  0  0  0  0
  5  6  1  0  0  0  0
  5 14  2  0  0  0  0
  6  7  1  0  0  0  0
  6 32  1  0  0  0  0
  7  8  1  0  0  0  0
  7 33  1  0  0  0  0
  7 34  1  0  0  0  0
  8  9  1  0  0  0  0
  8 13  2  0  0  0  0
  9 10  2  0  0  0  0
  9 35  1  0  0  0  0
 10 11  1  0  0  0  0
 10 36  1  0  0  0  0
 11 12  2  0  0  0  0
 12 13  1  0  0  0  0
 12 37  1  0  0  0  0
 13 38  1  0  0  0  0
 14 15  1  0  0  0  0
 15 16  2  0  0  0  0
 15 17  1  0  0  0  0
 17 18  1  0  0  0  0
 17 39  1  0  0  0  0
 18 19  1  0  0  0  0
 18 27  2  0  0  0  0
 19 20  2  0  0  0  0
 19 40  1  0  0  0  0
 20 21  1  0  0  0  0
 20 41  1  0  0  0  0
 21 22  2  0  0  0  0
 21 42  1  0  0  0  0
 22 23  1  0  0  0  0
 22 27  1  0  0  0  0
 23 24  1  0  0  0  0
 23 25  1  0  0  0  0
 23 26  1  0  0  0  0
 27 43  1  0  0  0  0
M  END
$$$$
