CHEMBL190783
 OpenBabel04072215363D

 73 75  0  0  0  0  0  0  0  0999 V2000
    2.4984   -0.6455    1.1875 C   0  0  0  0  0  0  0  0  0  0  0  0
    2.6098    0.6588    1.9676 C   0  0  0  0  0  0  0  0  0  0  0  0
    3.2578    1.7426    1.2317 N   0  0  0  0  0  0  0  0  0  0  0  0
    4.6244    1.8766    1.2038 C   0  0  0  0  0  0  0  0  0  0  0  0
    5.3713    1.0768    1.7704 O   0  0  0  0  0  0  0  0  0  0  0  0
    5.0544    2.9823    0.4992 N   0  0  0  0  0  0  0  0  0  0  0  0
    6.4585    3.2533    0.4690 C   0  0  0  0  0  0  0  0  0  0  0  0
    6.9270    4.1158    1.4143 N   0  0  0  0  0  0  0  0  0  0  0  0
    8.2541    4.3616    1.5120 C   0  0  0  0  0  0  0  0  0  0  0  0
    8.7560    5.1265    2.4927 N   0  0  0  0  0  0  0  0  0  0  0  0
   10.0824    5.3456    2.5473 C   0  0  0  0  0  0  0  0  0  0  0  0
   10.5777    6.0333    3.6366 N   0  0  0  0  0  0  0  0  0  0  0  0
   11.7922    6.8158    3.4583 C   0  0  0  0  0  0  0  0  0  0  0  0
   12.1802    7.5229    4.7690 C   0  0  0  0  0  0  0  0  0  0  0  0
   12.4299    6.5014    5.8838 C   0  0  0  0  0  0  0  0  0  0  0  0
   12.8154    7.0935    7.2472 C   0  0  0  0  0  0  0  0  0  0  0  0
   11.8304    7.9836    7.9000 N   0  0  0  0  0  0  0  0  0  0  0  0
   10.4984    7.3737    8.0557 C   0  0  0  0  0  0  0  0  0  0  0  0
   10.3905    6.1832    9.0071 C   0  0  0  0  0  0  0  0  0  0  0  0
   12.3955    8.4778    9.1721 C   0  0  0  0  0  0  0  0  0  0  0  0
   11.5127    9.4637    9.9332 C   0  0  0  0  0  0  0  0  0  0  0  0
   10.9540    4.8767    1.6478 N   0  0  0  0  0  0  0  0  0  0  0  0
   10.4527    4.1074    0.6811 C   0  0  0  0  0  0  0  0  0  0  0  0
    9.1144    3.8111    0.5696 C   0  0  0  0  0  0  0  0  0  0  0  0
    8.6212    2.9998   -0.4530 C   0  0  0  0  0  0  0  0  0  0  0  0
    7.2622    2.6779   -0.5325 C   0  0  0  0  0  0  0  0  0  0  0  0
    6.7803    1.8680   -1.6804 C   0  0  0  0  0  0  0  0  0  0  0  0
    7.6046    0.9030   -2.2980 C   0  0  0  0  0  0  0  0  0  0  0  0
    7.1731    0.1826   -3.4123 C   0  0  0  0  0  0  0  0  0  0  0  0
    7.9032   -0.7515   -4.0966 O   0  0  0  0  0  0  0  0  0  0  0  0
    9.2309   -0.9913   -3.6490 C   0  0  0  0  0  0  0  0  0  0  0  0
    5.8886    0.3974   -3.9140 C   0  0  0  0  0  0  0  0  0  0  0  0
    5.0527    1.3402   -3.3289 C   0  0  0  0  0  0  0  0  0  0  0  0
    3.7747    1.6475   -3.7046 O   0  0  0  0  0  0  0  0  0  0  0  0
    3.2498    0.9327   -4.8115 C   0  0  0  0  0  0  0  0  0  0  0  0
    5.5147    2.0783   -2.2453 C   0  0  0  0  0  0  0  0  0  0  0  0
    2.0041   -1.4092    1.7978 H   0  0  0  0  0  0  0  0  0  0  0  0
    3.4817   -1.0330    0.9028 H   0  0  0  0  0  0  0  0  0  0  0  0
    1.9085   -0.5170    0.2738 H   0  0  0  0  0  0  0  0  0  0  0  0
    3.1762    0.4742    2.8879 H   0  0  0  0  0  0  0  0  0  0  0  0
    1.6086    1.0014    2.2524 H   0  0  0  0  0  0  0  0  0  0  0  0
    2.7184    2.2095    0.5071 H   0  0  0  0  0  0  0  0  0  0  0  0
    4.5131    3.7965    0.7477 H   0  0  0  0  0  0  0  0  0  0  0  0
    9.8305    6.4204    4.1955 H   0  0  0  0  0  0  0  0  0  0  0  0
   11.6572    7.5698    2.6732 H   0  0  0  0  0  0  0  0  0  0  0  0
   12.6253    6.1684    3.1546 H   0  0  0  0  0  0  0  0  0  0  0  0
   11.3971    8.2336    5.0555 H   0  0  0  0  0  0  0  0  0  0  0  0
   13.0941    8.1061    4.5987 H   0  0  0  0  0  0  0  0  0  0  0  0
   13.2474    5.8443    5.5608 H   0  0  0  0  0  0  0  0  0  0  0  0
   11.5581    5.8507    6.0034 H   0  0  0  0  0  0  0  0  0  0  0  0
   13.7543    7.6455    7.1093 H   0  0  0  0  0  0  0  0  0  0  0  0
   13.0567    6.2523    7.9099 H   0  0  0  0  0  0  0  0  0  0  0  0
   10.1189    7.0731    7.0739 H   0  0  0  0  0  0  0  0  0  0  0  0
    9.7836    8.1426    8.3752 H   0  0  0  0  0  0  0  0  0  0  0  0
   11.2437    5.5042    8.9319 H   0  0  0  0  0  0  0  0  0  0  0  0
    9.4940    5.6023    8.7660 H   0  0  0  0  0  0  0  0  0  0  0  0
   10.3044    6.5093   10.0488 H   0  0  0  0  0  0  0  0  0  0  0  0
   13.3381    8.9977    8.9561 H   0  0  0  0  0  0  0  0  0  0  0  0
   12.6429    7.6411    9.8372 H   0  0  0  0  0  0  0  0  0  0  0  0
   11.2520   10.3272    9.3135 H   0  0  0  0  0  0  0  0  0  0  0  0
   12.0468    9.8311   10.8162 H   0  0  0  0  0  0  0  0  0  0  0  0
   10.5894    8.9984   10.2910 H   0  0  0  0  0  0  0  0  0  0  0  0
   11.1888    3.7062   -0.0105 H   0  0  0  0  0  0  0  0  0  0  0  0
    9.3234    2.6344   -1.2018 H   0  0  0  0  0  0  0  0  0  0  0  0
    8.5957    0.7189   -1.8978 H   0  0  0  0  0  0  0  0  0  0  0  0
    9.6675   -1.7605   -4.2933 H   0  0  0  0  0  0  0  0  0  0  0  0
    9.2383   -1.3741   -2.6232 H   0  0  0  0  0  0  0  0  0  0  0  0
    9.8479   -0.0908   -3.7401 H   0  0  0  0  0  0  0  0  0  0  0  0
    5.5733   -0.1887   -4.7680 H   0  0  0  0  0  0  0  0  0  0  0  0
    2.2257    1.2801   -4.9752 H   0  0  0  0  0  0  0  0  0  0  0  0
    3.2105   -0.1416   -4.6050 H   0  0  0  0  0  0  0  0  0  0  0  0
    3.8267    1.1454   -5.7167 H   0  0  0  0  0  0  0  0  0  0  0  0
    4.8470    2.8417   -1.8549 H   0  0  0  0  0  0  0  0  0  0  0  0
  1  2  1  0  0  0  0
  1 37  1  0  0  0  0
  1 38  1  0  0  0  0
  1 39  1  0  0  0  0
  2  3  1  0  0  0  0
  2 40  1  0  0  0  0
  2 41  1  0  0  0  0
  3  4  1  0  0  0  0
  3 42  1  0  0  0  0
  4  5  2  0  0  0  0
  4  6  1  0  0  0  0
  6  7  1  0  0  0  0
  6 43  1  0  0  0  0
  7  8  1  0  0  0  0
  7 26  2  0  0  0  0
  8  9  2  0  0  0  0
  9 10  1  0  0  0  0
  9 24  1  0  0  0  0
 10 11  2  0  0  0  0
 11 12  1  0  0  0  0
 11 22  1  0  0  0  0
 12 13  1  0  0  0  0
 12 44  1  0  0  0  0
 13 14  1  0  0  0  0
 13 45  1  0  0  0  0
 13 46  1  0  0  0  0
 14 15  1  0  0  0  0
 14 47  1  0  0  0  0
 14 48  1  0  0  0  0
 15 16  1  0  0  0  0
 15 49  1  0  0  0  0
 15 50  1  0  0  0  0
 16 17  1  0  0  0  0
 16 51  1  0  0  0  0
 16 52  1  0  0  0  0
 17 18  1  0  0  0  0
 17 20  1  0  0  0  0
 18 19  1  0  0  0  0
 18 53  1  0  0  0  0
 18 54  1  0  0  0  0
 19 55  1  0  0  0  0
 19 56  1  0  0  0  0
 19 57  1  0  0  0  0
 20 21  1  0  0  0  0
 20 58  1  0  0  0  0
 20 59  1  0  0  0  0
 21 60  1  0  0  0  0
 21 61  1  0  0  0  0
 21 62  1  0  0  0  0
 22 23  2  0  0  0  0
 23 24  1  0  0  0  0
 23 63  1  0  0  0  0
 24 25  2  0  0  0  0
 25 26  1  0  0  0  0
 25 64  1  0  0  0  0
 26 27  1  0  0  0  0
 27 28  1  0  0  0  0
 27 36  2  0  0  0  0
 28 29  2  0  0  0  0
 28 65  1  0  0  0  0
 29 30  1  0  0  0  0
 29 32  1  0  0  0  0
 30 31  1  0  0  0  0
 31 66  1  0  0  0  0
 31 67  1  0  0  0  0
 31 68  1  0  0  0  0
 32 33  2  0  0  0  0
 32 69  1  0  0  0  0
 33 34  1  0  0  0  0
 33 36  1  0  0  0  0
 34 35  1  0  0  0  0
 35 70  1  0  0  0  0
 35 71  1  0  0  0  0
 35 72  1  0  0  0  0
 36 73  1  0  0  0  0
M  END
$$$$
