CHEMBL4080640
 OpenBabel04072215383D

 41 44  0  0  0  0  0  0  0  0999 V2000
    2.3791   -0.0806    1.1470 C   0  0  0  0  0  0  0  0  0  0  0  0
    0.8863   -0.0142    1.0097 C   0  0  0  0  0  0  0  0  0  0  0  0
    0.1252    0.8577    1.7950 C   0  0  0  0  0  0  0  0  0  0  0  0
   -1.2672    0.9023    1.6595 C   0  0  0  0  0  0  0  0  0  0  0  0
   -1.9265    0.0770    0.7359 C   0  0  0  0  0  0  0  0  0  0  0  0
   -3.4367    0.1138    0.6029 C   0  0  0  0  0  0  0  0  0  0  0  0
   -3.8433    1.4260    0.1377 N   0  0  0  0  0  0  0  0  0  0  0  0
   -5.2112    1.6352   -0.0346 C   0  0  0  0  0  0  0  0  0  0  0  0
   -6.1091    0.9190    0.6902 N   0  0  0  0  0  0  0  0  0  0  0  0
   -7.4236    1.1568    0.5547 C   0  0  0  0  0  0  0  0  0  0  0  0
   -8.2785    0.3837    1.3202 N   0  0  0  0  0  0  0  0  0  0  0  0
   -7.9902    2.0910   -0.2137 N   0  0  0  0  0  0  0  0  0  0  0  0
   -7.0894    2.7725   -0.9302 C   0  0  0  0  0  0  0  0  0  0  0  0
   -7.4002    3.7706   -1.8071 N   0  0  0  0  0  0  0  0  0  0  0  0
   -6.2624    4.2434   -2.4197 C   0  0  0  0  0  0  0  0  0  0  0  0
   -6.1096    5.2340   -3.3981 C   0  0  0  0  0  0  0  0  0  0  0  0
   -4.8181    5.4966   -3.8633 C   0  0  0  0  0  0  0  0  0  0  0  0
   -3.7340    4.7944   -3.3536 C   0  0  0  0  0  0  0  0  0  0  0  0
   -2.4642    5.0227   -3.8034 O   0  0  0  0  0  0  0  0  0  0  0  0
   -3.8909    3.8219   -2.3673 C   0  0  0  0  0  0  0  0  0  0  0  0
   -5.1838    3.5297   -1.8831 C   0  0  0  0  0  0  0  0  0  0  0  0
   -5.7151    2.6065   -0.9208 C   0  0  0  0  0  0  0  0  0  0  0  0
   -1.1586   -0.7894   -0.0531 C   0  0  0  0  0  0  0  0  0  0  0  0
    0.2328   -0.8360    0.0839 C   0  0  0  0  0  0  0  0  0  0  0  0
    2.7455    0.6159    1.9086 H   0  0  0  0  0  0  0  0  0  0  0  0
    2.8587    0.1779    0.1977 H   0  0  0  0  0  0  0  0  0  0  0  0
    2.6866   -1.0897    1.4412 H   0  0  0  0  0  0  0  0  0  0  0  0
    0.6080    1.5098    2.5193 H   0  0  0  0  0  0  0  0  0  0  0  0
   -1.8412    1.5903    2.2779 H   0  0  0  0  0  0  0  0  0  0  0  0
   -3.8763   -0.1295    1.5774 H   0  0  0  0  0  0  0  0  0  0  0  0
   -3.7621   -0.6501   -0.1142 H   0  0  0  0  0  0  0  0  0  0  0  0
   -3.2968    1.7602   -0.6444 H   0  0  0  0  0  0  0  0  0  0  0  0
   -7.7744    0.0298    2.1229 H   0  0  0  0  0  0  0  0  0  0  0  0
   -9.1282    0.8987    1.4978 H   0  0  0  0  0  0  0  0  0  0  0  0
   -8.3408    4.0891   -1.9831 H   0  0  0  0  0  0  0  0  0  0  0  0
   -6.9620    5.7780   -3.7931 H   0  0  0  0  0  0  0  0  0  0  0  0
   -4.6799    6.2540   -4.6288 H   0  0  0  0  0  0  0  0  0  0  0  0
   -2.4943    5.7132   -4.4845 H   0  0  0  0  0  0  0  0  0  0  0  0
   -3.0135    3.3024   -1.9994 H   0  0  0  0  0  0  0  0  0  0  0  0
   -1.6373   -1.4407   -0.7813 H   0  0  0  0  0  0  0  0  0  0  0  0
    0.8056   -1.5198   -0.5382 H   0  0  0  0  0  0  0  0  0  0  0  0
  1  2  1  0  0  0  0
  1 25  1  0  0  0  0
  1 26  1  0  0  0  0
  1 27  1  0  0  0  0
  2  3  1  0  0  0  0
  2 24  2  0  0  0  0
  3  4  2  0  0  0  0
  3 28  1  0  0  0  0
  4  5  1  0  0  0  0
  4 29  1  0  0  0  0
  5  6  1  0  0  0  0
  5 23  2  0  0  0  0
  6  7  1  0  0  0  0
  6 30  1  0  0  0  0
  6 31  1  0  0  0  0
  7  8  1  0  0  0  0
  7 32  1  0  0  0  0
  8  9  1  0  0  0  0
  8 22  2  0  0  0  0
  9 10  2  0  0  0  0
 10 11  1  0  0  0  0
 10 12  1  0  0  0  0
 11 33  1  0  0  0  0
 11 34  1  0  0  0  0
 12 13  2  0  0  0  0
 13 14  1  0  0  0  0
 13 22  1  0  0  0  0
 14 15  1  0  0  0  0
 14 35  1  0  0  0  0
 15 16  1  0  0  0  0
 15 21  2  0  0  0  0
 16 17  2  0  0  0  0
 16 36  1  0  0  0  0
 17 18  1  0  0  0  0
 17 37  1  0  0  0  0
 18 19  1  0  0  0  0
 18 20  2  0  0  0  0
 19 38  1  0  0  0  0
 20 21  1  0  0  0  0
 20 39  1  0  0  0  0
 21 22  1  0  0  0  0
 23 24  1  0  0  0  0
 23 40  1  0  0  0  0
 24 41  1  0  0  0  0
M  END
$$$$
