CHEMBL445404
 OpenBabel04072215383D

 52 56  0  0  0  0  0  0  0  0999 V2000
   19.0401    3.3600   -4.3137 C   0  0  0  0  0  0  0  0  0  0  0  0
   17.8481    2.6059   -4.4914 O   0  0  0  0  0  0  0  0  0  0  0  0
   16.6936    3.4454   -4.4784 C   0  0  0  0  0  0  0  0  0  0  0  0
   15.4507    2.5875   -4.6785 C   0  0  0  0  0  0  0  0  0  0  0  0
   14.2878    3.4154   -4.6695 O   0  0  0  0  0  0  0  0  0  0  0  0
   13.1108    2.6348   -4.8408 C   0  0  0  0  0  0  0  0  0  0  0  0
   11.8904    3.5407   -4.8163 C   0  0  0  0  0  0  0  0  0  0  0  0
   10.8437    4.3178   -4.7953 C   0  0  0  0  0  0  0  0  0  0  0  0
    9.6065    5.0511   -4.8743 C   0  0  0  0  0  0  0  0  0  0  0  0
    9.4058    6.0961   -5.7417 C   0  0  0  0  0  0  0  0  0  0  0  0
    8.1573    6.8184   -5.5574 C   0  0  0  0  0  0  0  0  0  0  0  0
    7.9262    8.0885   -6.3691 C   0  0  0  0  0  0  0  0  0  0  0  0
    9.0564    8.5845   -6.9238 N   0  0  0  0  0  0  0  0  0  0  0  0
    8.9427    8.0844   -8.1976 N   0  0  0  0  0  0  0  0  0  0  0  0
    7.6725    7.6512   -8.4546 C   0  0  0  0  0  0  0  0  0  0  0  0
    6.9638    8.3220   -7.4272 C   0  0  0  0  0  0  0  0  0  0  0  0
    5.5049    8.0960   -7.6532 C   0  0  0  0  0  0  0  0  0  0  0  0
    5.6471    6.6307   -7.9881 C   0  0  0  0  0  0  0  0  0  0  0  0
    4.8672    5.6880   -7.3521 C   0  0  0  0  0  0  0  0  0  0  0  0
    5.4396    4.4657   -7.0650 C   0  0  0  0  0  0  0  0  0  0  0  0
    4.8887    3.7149   -5.8707 C   0  0  0  0  0  0  0  0  0  0  0  0
    3.6946    2.9600   -6.1715 N   0  0  0  0  0  0  0  0  0  0  0  0
    3.6243    1.7666   -6.8167 C   0  0  0  0  0  0  0  0  0  0  0  0
    2.3884    1.3280   -6.7911 N   0  0  0  0  0  0  0  0  0  0  0  0
    1.7319    2.2998   -6.0898 C   0  0  0  0  0  0  0  0  0  0  0  0
    2.4928    3.3175   -5.6766 N   0  0  0  0  0  0  0  0  0  0  0  0
    6.6569    4.1061   -7.7077 C   0  0  0  0  0  0  0  0  0  0  0  0
    7.4190    5.0440   -8.4534 C   0  0  0  0  0  0  0  0  0  0  0  0
    6.9439    6.3437   -8.5427 C   0  0  0  0  0  0  0  0  0  0  0  0
    7.3594    6.1337   -4.6701 C   0  0  0  0  0  0  0  0  0  0  0  0
    8.1725    4.7434   -3.9963 S   0  0  0  0  0  0  0  0  0  0  0  0
   19.8878    2.6695   -4.3136 H   0  0  0  0  0  0  0  0  0  0  0  0
   19.0202    3.8892   -3.3562 H   0  0  0  0  0  0  0  0  0  0  0  0
   19.1682    4.0708   -5.1357 H   0  0  0  0  0  0  0  0  0  0  0  0
   16.7623    4.1934   -5.2771 H   0  0  0  0  0  0  0  0  0  0  0  0
   16.6270    3.9785   -3.5226 H   0  0  0  0  0  0  0  0  0  0  0  0
   15.3864    1.8386   -3.8796 H   0  0  0  0  0  0  0  0  0  0  0  0
   15.5214    2.0502   -5.6323 H   0  0  0  0  0  0  0  0  0  0  0  0
   13.0239    1.9015   -4.0312 H   0  0  0  0  0  0  0  0  0  0  0  0
   13.1448    2.1115   -5.8029 H   0  0  0  0  0  0  0  0  0  0  0  0
   10.1636    6.3790   -6.4588 H   0  0  0  0  0  0  0  0  0  0  0  0
    9.5835    8.4995   -8.8572 H   0  0  0  0  0  0  0  0  0  0  0  0
    5.1720    8.6307   -8.5599 H   0  0  0  0  0  0  0  0  0  0  0  0
    4.8557    8.3294   -6.8135 H   0  0  0  0  0  0  0  0  0  0  0  0
    3.9596    6.0183   -6.8248 H   0  0  0  0  0  0  0  0  0  0  0  0
    4.6247    4.4405   -5.0846 H   0  0  0  0  0  0  0  0  0  0  0  0
    5.6243    3.0422   -5.4213 H   0  0  0  0  0  0  0  0  0  0  0  0
    4.4820    1.2816   -7.2610 H   0  0  0  0  0  0  0  0  0  0  0  0
    0.6723    2.2595   -5.8690 H   0  0  0  0  0  0  0  0  0  0  0  0
    7.1161    3.1369   -7.4768 H   0  0  0  0  0  0  0  0  0  0  0  0
    8.4280    4.7840   -8.7624 H   0  0  0  0  0  0  0  0  0  0  0  0
    6.3476    6.3376   -4.3438 H   0  0  0  0  0  0  0  0  0  0  0  0
  1  2  1  0  0  0  0
  1 32  1  0  0  0  0
  1 33  1  0  0  0  0
  1 34  1  0  0  0  0
  2  3  1  0  0  0  0
  3  4  1  0  0  0  0
  3 35  1  0  0  0  0
  3 36  1  0  0  0  0
  4  5  1  0  0  0  0
  4 37  1  0  0  0  0
  4 38  1  0  0  0  0
  5  6  1  0  0  0  0
  6  7  1  0  0  0  0
  6 39  1  0  0  0  0
  6 40  1  0  0  0  0
  7  8  3  0  0  0  0
  8  9  1  0  0  0  0
  9 10  2  0  0  0  0
  9 31  1  0  0  0  0
 10 11  1  0  0  0  0
 10 41  1  0  0  0  0
 11 12  1  0  0  0  0
 11 30  2  0  0  0  0
 12 13  2  0  0  0  0
 12 16  1  0  0  0  0
 13 14  1  0  0  0  0
 14 15  1  0  0  0  0
 14 42  1  0  0  0  0
 15 16  2  0  0  0  0
 15 29  1  0  0  0  0
 16 17  1  0  0  0  0
 17 18  1  0  0  0  0
 17 43  1  0  0  0  0
 17 44  1  0  0  0  0
 18 19  1  0  0  0  0
 18 29  2  0  0  0  0
 19 20  2  0  0  0  0
 19 45  1  0  0  0  0
 20 21  1  0  0  0  0
 20 27  1  0  0  0  0
 21 22  1  0  0  0  0
 21 46  1  0  0  0  0
 21 47  1  0  0  0  0
 22 23  1  0  0  0  0
 22 26  1  0  0  0  0
 23 24  2  0  0  0  0
 23 48  1  0  0  0  0
 24 25  1  0  0  0  0
 25 26  2  0  0  0  0
 25 49  1  0  0  0  0
 27 28  2  0  0  0  0
 27 50  1  0  0  0  0
 28 29  1  0  0  0  0
 28 51  1  0  0  0  0
 30 31  1  0  0  0  0
 30 52  1  0  0  0  0
M  END
$$$$
