CHEMBL3955873
 OpenBabel04072215373D

 64 69  0  0  0  0  0  0  0  0999 V2000
    3.9816   -0.3236   -1.6151 C   0  0  0  0  0  0  0  0  0  0  0  0
    2.9678   -0.7809   -0.7192 O   0  0  0  0  0  0  0  0  0  0  0  0
    3.3783   -1.1437    0.5333 C   0  0  0  0  0  0  0  0  0  0  0  0
    4.4299   -0.4879    1.1763 C   0  0  0  0  0  0  0  0  0  0  0  0
    4.9501   -0.9665    2.4003 C   0  0  0  0  0  0  0  0  0  0  0  0
    6.0579   -0.4125    3.0631 C   0  0  0  0  0  0  0  0  0  0  0  0
    6.6549    0.7810    2.5629 N   0  0  0  0  0  0  0  0  0  0  0  0
    7.9480    1.2182    2.9274 C   0  0  0  0  0  0  0  0  0  0  0  0
    9.0331    0.3318    2.8821 C   0  0  0  0  0  0  0  0  0  0  0  0
   10.2992    0.7205    3.3200 C   0  0  0  0  0  0  0  0  0  0  0  0
   10.5001    2.0124    3.8042 C   0  0  0  0  0  0  0  0  0  0  0  0
   12.0736    2.4127    4.3930 Cl  0  0  0  0  0  0  0  0  0  0  0  0
    9.4372    2.9230    3.8108 C   0  0  0  0  0  0  0  0  0  0  0  0
    9.6174    4.5448    4.3834 Cl  0  0  0  0  0  0  0  0  0  0  0  0
    8.1690    2.5299    3.3613 C   0  0  0  0  0  0  0  0  0  0  0  0
    6.5732   -0.9720    4.1681 N   0  0  0  0  0  0  0  0  0  0  0  0
    5.9679   -2.0692    4.6298 C   0  0  0  0  0  0  0  0  0  0  0  0
    4.8838   -2.6500    4.1062 N   0  0  0  0  0  0  0  0  0  0  0  0
    4.3883   -2.1035    2.9914 C   0  0  0  0  0  0  0  0  0  0  0  0
    3.2715   -2.6769    2.3945 C   0  0  0  0  0  0  0  0  0  0  0  0
    2.7291   -2.1944    1.1945 C   0  0  0  0  0  0  0  0  0  0  0  0
    1.5958   -2.8622    0.7914 O   0  0  0  0  0  0  0  0  0  0  0  0
    0.7415   -2.1538   -0.1137 C   0  0  0  0  0  0  0  0  0  0  0  0
   -0.6716   -2.6641   -0.0256 C   0  0  0  0  0  0  0  0  0  0  0  0
   -1.7156   -1.8621   -0.1103 N   0  0  0  0  0  0  0  0  0  0  0  0
   -2.8944   -2.5882   -0.1252 C   0  0  0  0  0  0  0  0  0  0  0  0
   -4.1832   -1.9101   -0.1938 C   0  0  0  0  0  0  0  0  0  0  0  0
   -5.3170   -2.4951   -0.7593 C   0  0  0  0  0  0  0  0  0  0  0  0
   -6.5498   -1.8171   -0.7563 C   0  0  0  0  0  0  0  0  0  0  0  0
   -6.6963   -0.5302   -0.2182 C   0  0  0  0  0  0  0  0  0  0  0  0
   -7.8965    0.1477   -0.2032 N   0  0  0  0  0  0  0  0  0  0  0  0
   -9.1826   -0.3832   -0.6452 C   0  0  0  0  0  0  0  0  0  0  0  0
   -9.8503    0.8133   -1.3120 C   0  0  0  0  0  0  0  0  0  0  0  0
   -9.3764    1.9865   -0.4709 C   0  0  0  0  0  0  0  0  0  0  0  0
   -7.9468    1.6088   -0.0913 C   0  0  0  0  0  0  0  0  0  0  0  0
   -5.5339    0.0438    0.3215 C   0  0  0  0  0  0  0  0  0  0  0  0
   -4.3023   -0.6231    0.3303 C   0  0  0  0  0  0  0  0  0  0  0  0
   -2.7265   -3.9546   -0.0205 C   0  0  0  0  0  0  0  0  0  0  0  0
   -1.0531   -4.3379    0.0658 S   0  0  0  0  0  0  0  0  0  0  0  0
    3.8051   -0.7882   -2.5898 H   0  0  0  0  0  0  0  0  0  0  0  0
    5.0011   -0.5896   -1.3140 H   0  0  0  0  0  0  0  0  0  0  0  0
    3.8942    0.7610   -1.7274 H   0  0  0  0  0  0  0  0  0  0  0  0
    4.8857    0.3834    0.7140 H   0  0  0  0  0  0  0  0  0  0  0  0
    5.9645    1.5260    2.5908 H   0  0  0  0  0  0  0  0  0  0  0  0
    8.8866   -0.6845    2.5211 H   0  0  0  0  0  0  0  0  0  0  0  0
   11.1137    0.0012    3.2976 H   0  0  0  0  0  0  0  0  0  0  0  0
    7.3496    3.2431    3.3892 H   0  0  0  0  0  0  0  0  0  0  0  0
    6.3945   -2.5282    5.5161 H   0  0  0  0  0  0  0  0  0  0  0  0
    2.8086   -3.5364    2.8763 H   0  0  0  0  0  0  0  0  0  0  0  0
    1.0950   -2.2935   -1.1406 H   0  0  0  0  0  0  0  0  0  0  0  0
    0.7025   -1.0876    0.1414 H   0  0  0  0  0  0  0  0  0  0  0  0
   -5.2682   -3.4763   -1.2235 H   0  0  0  0  0  0  0  0  0  0  0  0
   -7.3915   -2.3298   -1.2104 H   0  0  0  0  0  0  0  0  0  0  0  0
   -9.7581   -0.7069    0.2309 H   0  0  0  0  0  0  0  0  0  0  0  0
   -9.1283   -1.2139   -1.3511 H   0  0  0  0  0  0  0  0  0  0  0  0
  -10.9394    0.7241   -1.3426 H   0  0  0  0  0  0  0  0  0  0  0  0
   -9.4825    0.9173   -2.3405 H   0  0  0  0  0  0  0  0  0  0  0  0
   -9.9959    2.0849    0.4256 H   0  0  0  0  0  0  0  0  0  0  0  0
   -9.4170    2.9340   -1.0190 H   0  0  0  0  0  0  0  0  0  0  0  0
   -7.7243    1.9454    0.9275 H   0  0  0  0  0  0  0  0  0  0  0  0
   -7.2406    2.0754   -0.7878 H   0  0  0  0  0  0  0  0  0  0  0  0
   -5.5647    1.0304    0.7747 H   0  0  0  0  0  0  0  0  0  0  0  0
   -3.4377   -0.1280    0.7671 H   0  0  0  0  0  0  0  0  0  0  0  0
   -3.4764   -4.7314    0.0247 H   0  0  0  0  0  0  0  0  0  0  0  0
  1  2  1  0  0  0  0
  1 40  1  0  0  0  0
  1 41  1  0  0  0  0
  1 42  1  0  0  0  0
  2  3  1  0  0  0  0
  3  4  1  0  0  0  0
  3 21  2  0  0  0  0
  4  5  2  0  0  0  0
  4 43  1  0  0  0  0
  5  6  1  0  0  0  0
  5 19  1  0  0  0  0
  6  7  1  0  0  0  0
  6 16  2  0  0  0  0
  7  8  1  0  0  0  0
  7 44  1  0  0  0  0
  8  9  1  0  0  0  0
  8 15  2  0  0  0  0
  9 10  2  0  0  0  0
  9 45  1  0  0  0  0
 10 11  1  0  0  0  0
 10 46  1  0  0  0  0
 11 12  1  0  0  0  0
 11 13  2  0  0  0  0
 13 14  1  0  0  0  0
 13 15  1  0  0  0  0
 15 47  1  0  0  0  0
 16 17  1  0  0  0  0
 17 18  2  0  0  0  0
 17 48  1  0  0  0  0
 18 19  1  0  0  0  0
 19 20  2  0  0  0  0
 20 21  1  0  0  0  0
 20 49  1  0  0  0  0
 21 22  1  0  0  0  0
 22 23  1  0  0  0  0
 23 24  1  0  0  0  0
 23 50  1  0  0  0  0
 23 51  1  0  0  0  0
 24 25  2  0  0  0  0
 24 39  1  0  0  0  0
 25 26  1  0  0  0  0
 26 27  1  0  0  0  0
 26 38  2  0  0  0  0
 27 28  1  0  0  0  0
 27 37  2  0  0  0  0
 28 29  2  0  0  0  0
 28 52  1  0  0  0  0
 29 30  1  0  0  0  0
 29 53  1  0  0  0  0
 30 31  1  0  0  0  0
 30 36  2  0  0  0  0
 31 32  1  0  0  0  0
 31 35  1  0  0  0  0
 32 33  1  0  0  0  0
 32 54  1  0  0  0  0
 32 55  1  0  0  0  0
 33 34  1  0  0  0  0
 33 56  1  0  0  0  0
 33 57  1  0  0  0  0
 34 35  1  0  0  0  0
 34 58  1  0  0  0  0
 34 59  1  0  0  0  0
 35 60  1  0  0  0  0
 35 61  1  0  0  0  0
 36 37  1  0  0  0  0
 36 62  1  0  0  0  0
 37 63  1  0  0  0  0
 38 39  1  0  0  0  0
 38 64  1  0  0  0  0
M  END
$$$$
