CHEMBL496862
 OpenBabel04072215383D

 71 75  0  0  0  0  0  0  0  0999 V2000
    2.1054   -0.8323   -0.7496 C   0  0  0  0  0  0  0  0  0  0  0  0
    2.6322    0.1443    0.2918 C   0  0  0  0  0  0  0  0  0  0  0  0
    3.0364    1.4135   -0.3082 N   0  0  0  0  0  0  0  0  0  0  0  0
    1.9833    2.4117   -0.4666 C   0  0  0  0  0  0  0  0  0  0  0  0
    4.3412    1.5177   -0.8064 C   0  0  0  0  0  0  0  0  0  0  0  0
    5.1162    0.5606   -0.8179 O   0  0  0  0  0  0  0  0  0  0  0  0
    4.8539    2.8077   -1.3543 C   0  0  0  0  0  0  0  0  0  0  0  0
    4.4811    4.0506   -0.8085 C   0  0  0  0  0  0  0  0  0  0  0  0
    4.9339    5.2562   -1.3519 C   0  0  0  0  0  0  0  0  0  0  0  0
    5.8539    5.2127   -2.3793 C   0  0  0  0  0  0  0  0  0  0  0  0
    6.2948    3.9713   -2.8521 C   0  0  0  0  0  0  0  0  0  0  0  0
    5.8047    2.7653   -2.3834 C   0  0  0  0  0  0  0  0  0  0  0  0
    7.3097    4.1373   -3.7835 N   0  0  0  0  0  0  0  0  0  0  0  0
    7.6302    5.4705   -3.9423 C   0  0  0  0  0  0  0  0  0  0  0  0
    8.6105    5.8914   -4.5381 O   0  0  0  0  0  0  0  0  0  0  0  0
    6.5891    6.2370   -3.1445 C   0  0  0  0  0  0  0  0  0  0  0  0
    6.4088    7.5771   -3.2218 C   0  0  0  0  0  0  0  0  0  0  0  0
    7.0125    8.4540   -4.1106 N   0  0  0  0  0  0  0  0  0  0  0  0
    7.0238    8.3265   -5.5188 C   0  0  0  0  0  0  0  0  0  0  0  0
    6.2968    7.3412   -6.1952 C   0  0  0  0  0  0  0  0  0  0  0  0
    6.5164    7.0759   -7.5483 C   0  0  0  0  0  0  0  0  0  0  0  0
    7.4578    7.8144   -8.2666 C   0  0  0  0  0  0  0  0  0  0  0  0
    7.8427    7.3972   -9.6667 C   0  0  0  0  0  0  0  0  0  0  0  0
    6.7195    7.3084  -10.6266 N   0  0  0  0  0  0  0  0  0  0  0  0
    6.1591    8.6463  -10.8759 C   0  0  0  0  0  0  0  0  0  0  0  0
    5.1367    8.6666  -12.0119 C   0  0  0  0  0  0  0  0  0  0  0  0
    5.7385    8.0976  -13.2870 C   0  0  0  0  0  0  0  0  0  0  0  0
    6.2268    6.6828  -13.0196 C   0  0  0  0  0  0  0  0  0  0  0  0
    7.2117    6.6524  -11.8512 C   0  0  0  0  0  0  0  0  0  0  0  0
    8.1132    8.8739   -7.6251 C   0  0  0  0  0  0  0  0  0  0  0  0
    7.9002    9.1234   -6.2645 C   0  0  0  0  0  0  0  0  0  0  0  0
    5.5133    8.2676   -2.2670 C   0  0  0  0  0  0  0  0  0  0  0  0
    6.0258    8.6976   -1.0341 C   0  0  0  0  0  0  0  0  0  0  0  0
    5.1975    9.3338   -0.1084 C   0  0  0  0  0  0  0  0  0  0  0  0
    3.8541    9.5523   -0.4110 C   0  0  0  0  0  0  0  0  0  0  0  0
    3.3393    9.1445   -1.6421 C   0  0  0  0  0  0  0  0  0  0  0  0
    4.1673    8.5098   -2.5733 C   0  0  0  0  0  0  0  0  0  0  0  0
    1.7532   -1.7487   -0.2668 H   0  0  0  0  0  0  0  0  0  0  0  0
    2.8876   -1.1029   -1.4663 H   0  0  0  0  0  0  0  0  0  0  0  0
    1.2727   -0.4015   -1.3153 H   0  0  0  0  0  0  0  0  0  0  0  0
    3.4870   -0.3029    0.8100 H   0  0  0  0  0  0  0  0  0  0  0  0
    1.8659    0.3461    1.0495 H   0  0  0  0  0  0  0  0  0  0  0  0
    0.9979    1.9396   -0.4382 H   0  0  0  0  0  0  0  0  0  0  0  0
    2.0893    2.9425   -1.4151 H   0  0  0  0  0  0  0  0  0  0  0  0
    2.0400    3.1097    0.3740 H   0  0  0  0  0  0  0  0  0  0  0  0
    3.8527    4.1038    0.0727 H   0  0  0  0  0  0  0  0  0  0  0  0
    4.5797    6.1855   -0.9254 H   0  0  0  0  0  0  0  0  0  0  0  0
    6.1619    1.8186   -2.7774 H   0  0  0  0  0  0  0  0  0  0  0  0
    7.8739    3.4036   -4.1838 H   0  0  0  0  0  0  0  0  0  0  0  0
    7.0790    9.4173   -3.7970 H   0  0  0  0  0  0  0  0  0  0  0  0
    5.5748    6.7203   -5.6749 H   0  0  0  0  0  0  0  0  0  0  0  0
    5.9905    6.2529   -8.0276 H   0  0  0  0  0  0  0  0  0  0  0  0
    8.3168    6.4111   -9.5659 H   0  0  0  0  0  0  0  0  0  0  0  0
    8.6209    8.0686  -10.0556 H   0  0  0  0  0  0  0  0  0  0  0  0
    6.9562    9.3643  -11.1071 H   0  0  0  0  0  0  0  0  0  0  0  0
    5.6508    9.0039   -9.9723 H   0  0  0  0  0  0  0  0  0  0  0  0
    4.8026    9.6954  -12.1863 H   0  0  0  0  0  0  0  0  0  0  0  0
    4.2509    8.0842  -11.7285 H   0  0  0  0  0  0  0  0  0  0  0  0
    6.5761    8.7257  -13.6161 H   0  0  0  0  0  0  0  0  0  0  0  0
    4.9964    8.0977  -14.0919 H   0  0  0  0  0  0  0  0  0  0  0  0
    6.7138    6.2851  -13.9176 H   0  0  0  0  0  0  0  0  0  0  0  0
    5.3709    6.0316  -12.8041 H   0  0  0  0  0  0  0  0  0  0  0  0
    8.1549    7.1075  -12.1806 H   0  0  0  0  0  0  0  0  0  0  0  0
    7.4258    5.5998  -11.6238 H   0  0  0  0  0  0  0  0  0  0  0  0
    8.8438    9.4759   -8.1606 H   0  0  0  0  0  0  0  0  0  0  0  0
    8.4810    9.8989   -5.7736 H   0  0  0  0  0  0  0  0  0  0  0  0
    7.0718    8.5277   -0.7888 H   0  0  0  0  0  0  0  0  0  0  0  0
    5.5991    9.6534    0.8500 H   0  0  0  0  0  0  0  0  0  0  0  0
    3.2075   10.0471    0.3101 H   0  0  0  0  0  0  0  0  0  0  0  0
    2.2923    9.3208   -1.8750 H   0  0  0  0  0  0  0  0  0  0  0  0
    3.7557    8.1954   -3.5300 H   0  0  0  0  0  0  0  0  0  0  0  0
  1  2  1  0  0  0  0
  1 38  1  0  0  0  0
  1 39  1  0  0  0  0
  1 40  1  0  0  0  0
  2  3  1  0  0  0  0
  2 41  1  0  0  0  0
  2 42  1  0  0  0  0
  3  4  1  0  0  0  0
  3  5  1  0  0  0  0
  4 43  1  0  0  0  0
  4 44  1  0  0  0  0
  4 45  1  0  0  0  0
  5  6  2  0  0  0  0
  5  7  1  0  0  0  0
  7  8  1  0  0  0  0
  7 12  2  0  0  0  0
  8  9  2  0  0  0  0
  8 46  1  0  0  0  0
  9 10  1  0  0  0  0
  9 47  1  0  0  0  0
 10 11  2  0  0  0  0
 10 16  1  0  0  0  0
 11 12  1  0  0  0  0
 11 13  1  0  0  0  0
 12 48  1  0  0  0  0
 13 14  1  0  0  0  0
 13 49  1  0  0  0  0
 14 15  2  0  0  0  0
 14 16  1  0  0  0  0
 16 17  2  0  0  0  0
 17 18  1  0  0  0  0
 17 32  1  0  0  0  0
 18 19  1  0  0  0  0
 18 50  1  0  0  0  0
 19 20  1  0  0  0  0
 19 31  2  0  0  0  0
 20 21  2  0  0  0  0
 20 51  1  0  0  0  0
 21 22  1  0  0  0  0
 21 52  1  0  0  0  0
 22 23  1  0  0  0  0
 22 30  2  0  0  0  0
 23 24  1  0  0  0  0
 23 53  1  0  0  0  0
 23 54  1  0  0  0  0
 24 25  1  0  0  0  0
 24 29  1  0  0  0  0
 25 26  1  0  0  0  0
 25 55  1  0  0  0  0
 25 56  1  0  0  0  0
 26 27  1  0  0  0  0
 26 57  1  0  0  0  0
 26 58  1  0  0  0  0
 27 28  1  0  0  0  0
 27 59  1  0  0  0  0
 27 60  1  0  0  0  0
 28 29  1  0  0  0  0
 28 61  1  0  0  0  0
 28 62  1  0  0  0  0
 29 63  1  0  0  0  0
 29 64  1  0  0  0  0
 30 31  1  0  0  0  0
 30 65  1  0  0  0  0
 31 66  1  0  0  0  0
 32 33  1  0  0  0  0
 32 37  2  0  0  0  0
 33 34  2  0  0  0  0
 33 67  1  0  0  0  0
 34 35  1  0  0  0  0
 34 68  1  0  0  0  0
 35 36  2  0  0  0  0
 35 69  1  0  0  0  0
 36 37  1  0  0  0  0
 36 70  1  0  0  0  0
 37 71  1  0  0  0  0
M  END
$$$$
