CHEMBL4079087
 OpenBabel04072215383D

 74 79  0  0  0  0  0  0  0  0999 V2000
    1.1309   -1.1568    0.8458 C   0  0  0  0  0  0  0  0  0  0  0  0
    2.5423   -0.9906    0.7354 O   0  0  0  0  0  0  0  0  0  0  0  0
    3.0289   -1.3568   -0.4658 C   0  0  0  0  0  0  0  0  0  0  0  0
    2.3783   -1.8484   -1.3896 O   0  0  0  0  0  0  0  0  0  0  0  0
    4.4863   -1.1094   -0.5478 C   0  0  0  0  0  0  0  0  0  0  0  0
    5.2460   -0.5862    0.5239 C   0  0  0  0  0  0  0  0  0  0  0  0
    6.6519   -0.4667    0.4363 C   0  0  0  0  0  0  0  0  0  0  0  0
    7.2833   -0.8989   -0.7212 C   0  0  0  0  0  0  0  0  0  0  0  0
    6.4834   -1.3503   -1.7806 C   0  0  0  0  0  0  0  0  0  0  0  0
    5.1135   -1.4660   -1.7378 C   0  0  0  0  0  0  0  0  0  0  0  0
    7.2587   -1.8136   -2.8297 N   0  0  0  0  0  0  0  0  0  0  0  0
    8.5829   -1.8736   -2.4527 C   0  0  0  0  0  0  0  0  0  0  0  0
    9.4121   -2.6483   -2.9304 O   0  0  0  0  0  0  0  0  0  0  0  0
    8.6903   -1.0614   -1.1829 C   0  0  0  0  0  0  0  0  0  0  0  0
    9.8915   -0.6813   -0.6824 C   0  0  0  0  0  0  0  0  0  0  0  0
   11.1284   -0.6586   -1.3383 N   0  0  0  0  0  0  0  0  0  0  0  0
   11.4301    0.0293   -2.5360 C   0  0  0  0  0  0  0  0  0  0  0  0
   10.8408    1.2618   -2.8422 C   0  0  0  0  0  0  0  0  0  0  0  0
   10.9554    1.8205   -4.1227 C   0  0  0  0  0  0  0  0  0  0  0  0
   11.6663    1.1506   -5.1247 C   0  0  0  0  0  0  0  0  0  0  0  0
   11.6439    1.6549   -6.4590 N   0  0  0  0  0  0  0  0  0  0  0  0
   11.5161    3.0040   -6.7592 C   0  0  0  0  0  0  0  0  0  0  0  0
   11.5844    3.1870   -8.1183 C   0  0  0  0  0  0  0  0  0  0  0  0
   11.6938    1.9104   -8.6923 C   0  0  0  0  0  0  0  0  0  0  0  0
   11.7098    0.9668   -7.6725 C   0  0  0  0  0  0  0  0  0  0  0  0
   11.7390   -0.5214   -7.8666 C   0  0  0  0  0  0  0  0  0  0  0  0
   10.6129   -1.2431   -7.2670 N   0  0  0  0  0  0  0  0  0  0  0  0
    9.2981   -0.8506   -7.8048 C   0  0  0  0  0  0  0  0  0  0  0  0
    8.1558   -1.6752   -7.1576 C   0  0  0  0  0  0  0  0  0  0  0  0
    8.2884   -3.1426   -7.2664 N   0  0  0  0  0  0  0  0  0  0  0  0
    8.0057   -3.6097   -8.6199 C   0  0  0  0  0  0  0  0  0  0  0  0
    9.6438   -3.5301   -6.8226 C   0  0  0  0  0  0  0  0  0  0  0  0
   10.7945   -2.6992   -7.4395 C   0  0  0  0  0  0  0  0  0  0  0  0
   12.3590   -0.0136   -4.7943 C   0  0  0  0  0  0  0  0  0  0  0  0
   12.2461   -0.5614   -3.5063 C   0  0  0  0  0  0  0  0  0  0  0  0
   10.0084   -0.2832    0.7416 C   0  0  0  0  0  0  0  0  0  0  0  0
   10.2811   -1.2616    1.7129 C   0  0  0  0  0  0  0  0  0  0  0  0
   10.4072   -0.9175    3.0633 C   0  0  0  0  0  0  0  0  0  0  0  0
   10.2899    0.4129    3.4554 C   0  0  0  0  0  0  0  0  0  0  0  0
   10.0421    1.3966    2.4970 C   0  0  0  0  0  0  0  0  0  0  0  0
    9.8980    1.0514    1.1471 C   0  0  0  0  0  0  0  0  0  0  0  0
    0.7992   -0.6474    1.7517 H   0  0  0  0  0  0  0  0  0  0  0  0
    0.8862   -2.2210    0.9238 H   0  0  0  0  0  0  0  0  0  0  0  0
    0.6160   -0.7052   -0.0108 H   0  0  0  0  0  0  0  0  0  0  0  0
    4.7521   -0.3019    1.4510 H   0  0  0  0  0  0  0  0  0  0  0  0
    7.2034   -0.0796    1.2861 H   0  0  0  0  0  0  0  0  0  0  0  0
    4.5545   -1.8813   -2.5708 H   0  0  0  0  0  0  0  0  0  0  0  0
    6.8980   -2.3218   -3.6260 H   0  0  0  0  0  0  0  0  0  0  0  0
   11.7307   -1.4507   -1.1333 H   0  0  0  0  0  0  0  0  0  0  0  0
   10.2388    1.7774   -2.1031 H   0  0  0  0  0  0  0  0  0  0  0  0
   10.3849    2.7212   -4.3379 H   0  0  0  0  0  0  0  0  0  0  0  0
   11.4490    3.7404   -5.9709 H   0  0  0  0  0  0  0  0  0  0  0  0
   11.5527    4.1385   -8.6319 H   0  0  0  0  0  0  0  0  0  0  0  0
   11.7365    1.6835   -9.7501 H   0  0  0  0  0  0  0  0  0  0  0  0
   12.6861   -0.9019   -7.4680 H   0  0  0  0  0  0  0  0  0  0  0  0
   11.7825   -0.7364   -8.9415 H   0  0  0  0  0  0  0  0  0  0  0  0
    9.2699   -0.9658   -8.8957 H   0  0  0  0  0  0  0  0  0  0  0  0
    9.0968    0.2037   -7.5840 H   0  0  0  0  0  0  0  0  0  0  0  0
    7.1890   -1.3549   -7.5642 H   0  0  0  0  0  0  0  0  0  0  0  0
    8.1221   -1.4276   -6.0885 H   0  0  0  0  0  0  0  0  0  0  0  0
    6.9846   -3.3360   -8.9086 H   0  0  0  0  0  0  0  0  0  0  0  0
    8.0571   -4.7034   -8.6653 H   0  0  0  0  0  0  0  0  0  0  0  0
    8.6912   -3.2050   -9.3710 H   0  0  0  0  0  0  0  0  0  0  0  0
    9.8161   -4.5953   -7.0225 H   0  0  0  0  0  0  0  0  0  0  0  0
    9.6860   -3.4270   -5.7299 H   0  0  0  0  0  0  0  0  0  0  0  0
   10.8821   -2.9460   -8.5063 H   0  0  0  0  0  0  0  0  0  0  0  0
   11.7308   -3.0106   -6.9605 H   0  0  0  0  0  0  0  0  0  0  0  0
   12.9734   -0.5325   -5.5139 H   0  0  0  0  0  0  0  0  0  0  0  0
   12.7513   -1.5046   -3.3061 H   0  0  0  0  0  0  0  0  0  0  0  0
   10.4064   -2.3030    1.4247 H   0  0  0  0  0  0  0  0  0  0  0  0
   10.6093   -1.6865    3.8057 H   0  0  0  0  0  0  0  0  0  0  0  0
   10.3970    0.6847    4.5026 H   0  0  0  0  0  0  0  0  0  0  0  0
    9.9703    2.4374    2.8023 H   0  0  0  0  0  0  0  0  0  0  0  0
    9.7083    1.8320    0.4167 H   0  0  0  0  0  0  0  0  0  0  0  0
  1  2  1  0  0  0  0
  1 42  1  0  0  0  0
  1 43  1  0  0  0  0
  1 44  1  0  0  0  0
  2  3  1  0  0  0  0
  3  4  2  0  0  0  0
  3  5  1  0  0  0  0
  5  6  1  0  0  0  0
  5 10  2  0  0  0  0
  6  7  2  0  0  0  0
  6 45  1  0  0  0  0
  7  8  1  0  0  0  0
  7 46  1  0  0  0  0
  8  9  2  0  0  0  0
  8 14  1  0  0  0  0
  9 10  1  0  0  0  0
  9 11  1  0  0  0  0
 10 47  1  0  0  0  0
 11 12  1  0  0  0  0
 11 48  1  0  0  0  0
 12 13  2  0  0  0  0
 12 14  1  0  0  0  0
 14 15  2  0  0  0  0
 15 16  1  0  0  0  0
 15 36  1  0  0  0  0
 16 17  1  0  0  0  0
 16 49  1  0  0  0  0
 17 18  1  0  0  0  0
 17 35  2  0  0  0  0
 18 19  2  0  0  0  0
 18 50  1  0  0  0  0
 19 20  1  0  0  0  0
 19 51  1  0  0  0  0
 20 21  1  0  0  0  0
 20 34  2  0  0  0  0
 21 22  1  0  0  0  0
 21 25  1  0  0  0  0
 22 23  2  0  0  0  0
 22 52  1  0  0  0  0
 23 24  1  0  0  0  0
 23 53  1  0  0  0  0
 24 25  2  0  0  0  0
 24 54  1  0  0  0  0
 25 26  1  0  0  0  0
 26 27  1  0  0  0  0
 26 55  1  0  0  0  0
 26 56  1  0  0  0  0
 27 28  1  0  0  0  0
 27 33  1  0  0  0  0
 28 29  1  0  0  0  0
 28 57  1  0  0  0  0
 28 58  1  0  0  0  0
 29 30  1  0  0  0  0
 29 59  1  0  0  0  0
 29 60  1  0  0  0  0
 30 31  1  0  0  0  0
 30 32  1  0  0  0  0
 31 61  1  0  0  0  0
 31 62  1  0  0  0  0
 31 63  1  0  0  0  0
 32 33  1  0  0  0  0
 32 64  1  0  0  0  0
 32 65  1  0  0  0  0
 33 66  1  0  0  0  0
 33 67  1  0  0  0  0
 34 35  1  0  0  0  0
 34 68  1  0  0  0  0
 35 69  1  0  0  0  0
 36 37  1  0  0  0  0
 36 41  2  0  0  0  0
 37 38  2  0  0  0  0
 37 70  1  0  0  0  0
 38 39  1  0  0  0  0
 38 71  1  0  0  0  0
 39 40  2  0  0  0  0
 39 72  1  0  0  0  0
 40 41  1  0  0  0  0
 40 73  1  0  0  0  0
 41 74  1  0  0  0  0
M  END
$$$$
