CHEMBL2381858
 OpenBabel04072215363D

 43 46  0  0  0  0  0  0  0  0999 V2000
    1.2191    0.1186   -0.9702 O   0  0  0  0  0  0  0  0  0  0  0  0
    2.3785   -0.0764   -0.6272 C   0  0  0  0  0  0  0  0  0  0  0  0
    3.0953   -1.1498   -1.1265 N   0  0  0  0  0  0  0  0  0  0  0  0
    2.3781   -2.1141   -1.9385 C   0  0  0  0  0  0  0  0  0  0  0  0
    3.2911   -2.8475   -2.8483 C   0  0  0  0  0  0  0  0  0  0  0  0
    3.3448   -2.8049   -4.2245 C   0  0  0  0  0  0  0  0  0  0  0  0
    4.2724   -3.7547   -4.5839 N   0  0  0  0  0  0  0  0  0  0  0  0
    4.6839   -4.1352   -5.8915 C   0  0  0  0  0  0  0  0  0  0  0  0
    4.2399   -3.4076   -7.0079 C   0  0  0  0  0  0  0  0  0  0  0  0
    4.6366   -3.7574   -8.3065 C   0  0  0  0  0  0  0  0  0  0  0  0
    5.4372   -4.8948   -8.4855 C   0  0  0  0  0  0  0  0  0  0  0  0
    5.9789   -5.5914   -9.5863 C   0  0  0  0  0  0  0  0  0  0  0  0
    6.6803   -6.6665   -9.2214 N   0  0  0  0  0  0  0  0  0  0  0  0
    6.5978   -6.6501   -7.8780 N   0  0  0  0  0  0  0  0  0  0  0  0
    5.8614   -5.6099   -7.3721 C   0  0  0  0  0  0  0  0  0  0  0  0
    5.5316   -5.2483   -6.0569 C   0  0  0  0  0  0  0  0  0  0  0  0
    4.7626   -4.3401   -3.4610 N   0  0  0  0  0  0  0  0  0  0  0  0
    4.1800   -3.7856   -2.4024 N   0  0  0  0  0  0  0  0  0  0  0  0
    3.1219    0.7092    0.2264 N   0  0  0  0  0  0  0  0  0  0  0  0
    2.7011    1.9152    0.8425 C   0  0  0  0  0  0  0  0  0  0  0  0
    1.4415    2.4874    0.6424 C   0  0  0  0  0  0  0  0  0  0  0  0
    1.1029    3.7050    1.2353 C   0  0  0  0  0  0  0  0  0  0  0  0
    2.0116    4.3615    2.0581 C   0  0  0  0  0  0  0  0  0  0  0  0
    3.2665    3.7950    2.3104 C   0  0  0  0  0  0  0  0  0  0  0  0
    4.2344    4.4964    3.2220 C   0  0  0  0  0  0  0  0  0  0  0  0
    5.3757    5.4838    2.2903 Cl  0  0  0  0  0  0  0  0  0  0  0  0
    3.6068    2.5764    1.6843 C   0  0  0  0  0  0  0  0  0  0  0  0
    3.8413   -1.5222   -0.5560 H   0  0  0  0  0  0  0  0  0  0  0  0
    1.6085   -1.6060   -2.5322 H   0  0  0  0  0  0  0  0  0  0  0  0
    1.8675   -2.8103   -1.2641 H   0  0  0  0  0  0  0  0  0  0  0  0
    2.7759   -2.2310   -4.9379 H   0  0  0  0  0  0  0  0  0  0  0  0
    3.5861   -2.5455   -6.9097 H   0  0  0  0  0  0  0  0  0  0  0  0
    4.3118   -3.1662   -9.1581 H   0  0  0  0  0  0  0  0  0  0  0  0
    5.8751   -5.3641  -10.6408 H   0  0  0  0  0  0  0  0  0  0  0  0
    7.0548   -7.3945   -7.3621 H   0  0  0  0  0  0  0  0  0  0  0  0
    5.8947   -5.8296   -5.2137 H   0  0  0  0  0  0  0  0  0  0  0  0
    4.0775    0.4289    0.3829 H   0  0  0  0  0  0  0  0  0  0  0  0
    0.6916    2.0223    0.0119 H   0  0  0  0  0  0  0  0  0  0  0  0
    0.1241    4.1422    1.0444 H   0  0  0  0  0  0  0  0  0  0  0  0
    1.7335    5.3166    2.4983 H   0  0  0  0  0  0  0  0  0  0  0  0
    4.8026    3.7740    3.8169 H   0  0  0  0  0  0  0  0  0  0  0  0
    3.7095    5.1546    3.9238 H   0  0  0  0  0  0  0  0  0  0  0  0
    4.5932    2.1553    1.8630 H   0  0  0  0  0  0  0  0  0  0  0  0
  1  2  2  0  0  0  0
  2  3  1  0  0  0  0
  2 19  1  0  0  0  0
  3  4  1  0  0  0  0
  3 28  1  0  0  0  0
  4  5  1  0  0  0  0
  4 29  1  0  0  0  0
  4 30  1  0  0  0  0
  5  6  2  0  0  0  0
  5 18  1  0  0  0  0
  6  7  1  0  0  0  0
  6 31  1  0  0  0  0
  7  8  1  0  0  0  0
  7 17  1  0  0  0  0
  8  9  1  0  0  0  0
  8 16  2  0  0  0  0
  9 10  2  0  0  0  0
  9 32  1  0  0  0  0
 10 11  1  0  0  0  0
 10 33  1  0  0  0  0
 11 12  1  0  0  0  0
 11 15  2  0  0  0  0
 12 13  2  0  0  0  0
 12 34  1  0  0  0  0
 13 14  1  0  0  0  0
 14 15  1  0  0  0  0
 14 35  1  0  0  0  0
 15 16  1  0  0  0  0
 16 36  1  0  0  0  0
 17 18  2  0  0  0  0
 19 20  1  0  0  0  0
 19 37  1  0  0  0  0
 20 21  1  0  0  0  0
 20 27  2  0  0  0  0
 21 22  2  0  0  0  0
 21 38  1  0  0  0  0
 22 23  1  0  0  0  0
 22 39  1  0  0  0  0
 23 24  2  0  0  0  0
 23 40  1  0  0  0  0
 24 25  1  0  0  0  0
 24 27  1  0  0  0  0
 25 26  1  0  0  0  0
 25 41  1  0  0  0  0
 25 42  1  0  0  0  0
 27 43  1  0  0  0  0
M  END
$$$$
