CHEMBL3706839
 OpenBabel04072215373D

 55 58  0  0  1  0  0  0  0  0999 V2000
    1.0489   -0.7250    0.2909 C   0  0  0  0  0  0  0  0  0  0  0  0
    2.2937   -0.0574    0.2094 O   0  0  0  0  0  0  0  0  0  0  0  0
    2.7809    0.3894    1.4791 C   0  0  0  0  0  0  0  0  0  0  0  0
    4.0934    1.0980    1.1778 C   0  0  0  0  0  0  0  0  0  0  0  0
    4.7624    1.5686    2.3294 O   0  0  0  0  0  0  0  0  0  0  0  0
    6.1152    1.7857    2.2399 C   0  0  0  0  0  0  0  0  0  0  0  0
    6.7068    1.7627    3.5270 C   0  0  0  0  0  0  0  0  0  0  0  0
    8.0791    1.8751    3.7544 C   0  0  0  0  0  0  0  0  0  0  0  0
    8.5662    1.7687    5.0015 N   0  0  0  0  0  0  0  0  0  0  0  0
    9.8983    1.8513    5.1380 C   0  0  0  0  0  0  0  0  0  0  0  0
   10.7783    2.0721    4.1586 N   0  0  0  0  0  0  0  0  0  0  0  0
   10.2702    2.2144    2.9225 C   0  0  0  0  0  0  0  0  0  0  0  0
   11.1539    2.5005    1.8431 N   0  0  0  0  0  0  0  0  0  0  0  0
   12.5367    2.4198    1.9437 C   0  0  0  0  0  0  0  0  0  0  0  0
   13.2171    1.3983    2.4714 C   0  0  0  0  0  0  0  0  0  0  0  0
   14.6821    1.3548    2.5578 C   0  0  0  0  0  0  0  0  0  0  0  0
   15.1918    0.3635    3.0686 O   0  0  0  0  0  0  0  0  0  0  0  0
   15.4745    2.5219    2.0218 C   0  0  0  0  0  0  0  0  0  0  0  0
   16.8700    2.4962    2.0979 N   0  0  0  0  0  0  0  0  0  0  0  0
   17.6256    1.4343    2.7073 C   0  0  0  0  0  0  0  0  0  0  0  0
   19.0554    1.7269    2.3157 C   0  0  3  0  0  0  0  0  0  0  0  0
   19.5236    0.8529    1.1585 C   0  0  0  0  0  0  0  0  0  0  0  0
   19.0485    3.0989    1.9179 O   0  0  0  0  0  0  0  0  0  0  0  0
   17.7530    3.5025    1.7246 C   0  0  0  0  0  0  0  0  0  0  0  0
   17.4858    4.6101    1.2880 O   0  0  0  0  0  0  0  0  0  0  0  0
   14.7779    3.5350    1.4769 C   0  0  0  0  0  0  0  0  0  0  0  0
   13.3066    3.5572    1.3685 C   0  0  0  0  0  0  0  0  0  0  0  0
   12.7201    4.4924    0.8202 O   0  0  0  0  0  0  0  0  0  0  0  0
    8.9014    2.0819    2.6512 C   0  0  0  0  0  0  0  0  0  0  0  0
    8.3324    2.1106    1.3562 C   0  0  0  0  0  0  0  0  0  0  0  0
    6.9515    1.9585    1.1305 C   0  0  0  0  0  0  0  0  0  0  0  0
    6.7012    1.8551   -0.2078 O   0  0  0  0  0  0  0  0  0  0  0  0
    5.6564    2.5923   -0.8185 C   0  0  0  0  0  0  0  0  0  0  0  0
    0.7739   -1.0415   -0.7202 H   0  0  0  0  0  0  0  0  0  0  0  0
    0.2767   -0.0486    0.6662 H   0  0  0  0  0  0  0  0  0  0  0  0
    1.1302   -1.6111    0.9250 H   0  0  0  0  0  0  0  0  0  0  0  0
    2.9327   -0.4545    2.1597 H   0  0  0  0  0  0  0  0  0  0  0  0
    2.0673    1.0856    1.9365 H   0  0  0  0  0  0  0  0  0  0  0  0
    3.8034    1.9622    0.5802 H   0  0  0  0  0  0  0  0  0  0  0  0
    4.7237    0.4135    0.6009 H   0  0  0  0  0  0  0  0  0  0  0  0
    6.0624    1.5961    4.3924 H   0  0  0  0  0  0  0  0  0  0  0  0
   10.2951    1.7339    6.1419 H   0  0  0  0  0  0  0  0  0  0  0  0
   10.8774    3.3795    1.3968 H   0  0  0  0  0  0  0  0  0  0  0  0
   12.7037    0.5345    2.8763 H   0  0  0  0  0  0  0  0  0  0  0  0
   17.3266    0.4453    2.3522 H   0  0  0  0  0  0  0  0  0  0  0  0
   17.5014    1.5028    3.7944 H   0  0  0  0  0  0  0  0  0  0  0  0
   19.7342    1.6056    3.1651 H   0  0  0  0  0  0  0  0  0  0  0  0
   18.8429    0.9259    0.3026 H   0  0  0  0  0  0  0  0  0  0  0  0
   19.5786   -0.1972    1.4655 H   0  0  0  0  0  0  0  0  0  0  0  0
   20.5107    1.1689    0.8089 H   0  0  0  0  0  0  0  0  0  0  0  0
   15.2402    4.4227    1.0635 H   0  0  0  0  0  0  0  0  0  0  0  0
    8.9837    2.1831    0.4903 H   0  0  0  0  0  0  0  0  0  0  0  0
    6.0444    3.1057   -1.7034 H   0  0  0  0  0  0  0  0  0  0  0  0
    5.1921    3.3375   -0.1667 H   0  0  0  0  0  0  0  0  0  0  0  0
    4.9240    1.8711   -1.1975 H   0  0  0  0  0  0  0  0  0  0  0  0
  1  2  1  0  0  0  0
  1 34  1  0  0  0  0
  1 35  1  0  0  0  0
  1 36  1  0  0  0  0
  2  3  1  0  0  0  0
  3  4  1  0  0  0  0
  3 37  1  0  0  0  0
  3 38  1  0  0  0  0
  4  5  1  0  0  0  0
  4 39  1  0  0  0  0
  4 40  1  0  0  0  0
  5  6  1  0  0  0  0
  6  7  1  0  0  0  0
  6 31  2  0  0  0  0
  7  8  2  0  0  0  0
  7 41  1  0  0  0  0
  8  9  1  0  0  0  0
  8 29  1  0  0  0  0
  9 10  2  0  0  0  0
 10 11  1  0  0  0  0
 10 42  1  0  0  0  0
 11 12  2  0  0  0  0
 12 13  1  0  0  0  0
 12 29  1  0  0  0  0
 13 14  1  0  0  0  0
 13 43  1  0  0  0  0
 14 15  2  0  0  0  0
 14 27  1  0  0  0  0
 15 16  1  0  0  0  0
 15 44  1  0  0  0  0
 16 17  2  0  0  0  0
 16 18  1  0  0  0  0
 18 19  1  0  0  0  0
 18 26  2  0  0  0  0
 19 20  1  0  0  0  0
 19 24  1  0  0  0  0
 20 21  1  0  0  0  0
 20 45  1  0  0  0  0
 20 46  1  0  0  0  0
 21 22  1  0  0  0  0
 21 23  1  0  0  0  0
 21 47  1  0  0  0  0
 22 48  1  0  0  0  0
 22 49  1  0  0  0  0
 22 50  1  0  0  0  0
 23 24  1  0  0  0  0
 24 25  2  0  0  0  0
 26 27  1  0  0  0  0
 26 51  1  0  0  0  0
 27 28  2  0  0  0  0
 29 30  2  0  0  0  0
 30 31  1  0  0  0  0
 30 52  1  0  0  0  0
 31 32  1  0  0  0  0
 32 33  1  0  0  0  0
 33 53  1  0  0  0  0
 33 54  1  0  0  0  0
 33 55  1  0  0  0  0
M  END
$$$$
