CHEMBL593275
 OpenBabel04072215383D

 71 76  0  0  0  0  0  0  0  0999 V2000
    2.6585   -1.0491   -0.6662 C   0  0  0  0  0  0  0  0  0  0  0  0
    2.4027   -0.1139    0.3804 O   0  0  0  0  0  0  0  0  0  0  0  0
    3.1352    1.0405    0.4098 C   0  0  0  0  0  0  0  0  0  0  0  0
    4.2923    1.1897   -0.3531 C   0  0  0  0  0  0  0  0  0  0  0  0
    4.9523    2.4192   -0.4830 C   0  0  0  0  0  0  0  0  0  0  0  0
    6.0229    2.6398   -1.3699 C   0  0  0  0  0  0  0  0  0  0  0  0
    6.4306    1.5959   -2.2641 N   0  0  0  0  0  0  0  0  0  0  0  0
    7.2249    1.7515   -3.4236 C   0  0  0  0  0  0  0  0  0  0  0  0
    8.1518    0.7753   -3.8151 C   0  0  0  0  0  0  0  0  0  0  0  0
    9.0250    0.9853   -4.9100 C   0  0  0  0  0  0  0  0  0  0  0  0
    8.9619    2.1572   -5.6781 C   0  0  0  0  0  0  0  0  0  0  0  0
    9.9525    2.4676   -6.7504 C   0  0  0  0  0  0  0  0  0  0  0  0
   10.9534    1.7008   -7.1832 N   0  0  0  0  0  0  0  0  0  0  0  0
   11.7735    2.4157   -8.0724 C   0  0  0  0  0  0  0  0  0  0  0  0
   12.9592    1.9777   -8.7194 C   0  0  0  0  0  0  0  0  0  0  0  0
   13.7143    2.8809   -9.4954 C   0  0  0  0  0  0  0  0  0  0  0  0
   13.3034    4.1992   -9.6424 C   0  0  0  0  0  0  0  0  0  0  0  0
   14.2740    5.3241  -10.5154 Cl  0  0  0  0  0  0  0  0  0  0  0  0
   12.1125    4.6390   -9.0801 C   0  0  0  0  0  0  0  0  0  0  0  0
   11.3748    3.7291   -8.3045 C   0  0  0  0  0  0  0  0  0  0  0  0
    9.8950    4.0161   -7.5156 S   0  0  0  0  0  0  0  0  0  0  0  0
    7.9388    3.0654   -5.3413 C   0  0  0  0  0  0  0  0  0  0  0  0
    7.0867    2.8637   -4.2483 C   0  0  0  0  0  0  0  0  0  0  0  0
    6.6316    3.8303   -1.4274 N   0  0  0  0  0  0  0  0  0  0  0  0
    6.1739    4.7867   -0.6091 C   0  0  0  0  0  0  0  0  0  0  0  0
    5.1322    4.6931    0.2282 N   0  0  0  0  0  0  0  0  0  0  0  0
    4.5099    3.5119    0.2794 C   0  0  0  0  0  0  0  0  0  0  0  0
    3.4016    3.3468    1.1154 C   0  0  0  0  0  0  0  0  0  0  0  0
    2.7263    2.1197    1.2149 C   0  0  0  0  0  0  0  0  0  0  0  0
    1.7077    2.1186    2.1507 O   0  0  0  0  0  0  0  0  0  0  0  0
    1.4420    0.8355    2.7233 C   0  0  0  0  0  0  0  0  0  0  0  0
    0.9193    0.9126    4.1574 C   0  0  0  0  0  0  0  0  0  0  0  0
    0.7648   -0.5104    4.7340 C   0  0  0  0  0  0  0  0  0  0  0  0
    2.0051   -1.3081    4.7251 N   0  0  0  0  0  0  0  0  0  0  0  0
    3.0632   -0.7295    5.5706 C   0  0  0  0  0  0  0  0  0  0  0  0
    4.3388   -1.6030    5.6063 C   0  0  0  0  0  0  0  0  0  0  0  0
    4.1202   -3.0013    6.0206 N   0  0  0  0  0  0  0  0  0  0  0  0
    3.8330   -3.0995    7.4499 C   0  0  0  0  0  0  0  0  0  0  0  0
    3.0309   -3.5726    5.2038 C   0  0  0  0  0  0  0  0  0  0  0  0
    1.7450   -2.7094    5.1168 C   0  0  0  0  0  0  0  0  0  0  0  0
    3.3223   -1.8379   -0.2972 H   0  0  0  0  0  0  0  0  0  0  0  0
    3.0773   -0.6046   -1.5783 H   0  0  0  0  0  0  0  0  0  0  0  0
    1.7097   -1.4945   -0.9652 H   0  0  0  0  0  0  0  0  0  0  0  0
    4.7042    0.3376   -0.8852 H   0  0  0  0  0  0  0  0  0  0  0  0
    6.6853    0.7742   -1.7295 H   0  0  0  0  0  0  0  0  0  0  0  0
    8.2392   -0.1502   -3.2500 H   0  0  0  0  0  0  0  0  0  0  0  0
    9.7762    0.2295   -5.1321 H   0  0  0  0  0  0  0  0  0  0  0  0
   13.3010    0.9528   -8.6058 H   0  0  0  0  0  0  0  0  0  0  0  0
   14.6344    2.5466   -9.9706 H   0  0  0  0  0  0  0  0  0  0  0  0
   11.7667    5.6603   -9.2077 H   0  0  0  0  0  0  0  0  0  0  0  0
    7.7873    3.9876   -5.8934 H   0  0  0  0  0  0  0  0  0  0  0  0
    6.3280    3.6139   -4.0354 H   0  0  0  0  0  0  0  0  0  0  0  0
    6.7116    5.7284   -0.6169 H   0  0  0  0  0  0  0  0  0  0  0  0
    3.0697    4.1887    1.7243 H   0  0  0  0  0  0  0  0  0  0  0  0
    2.3661    0.2509    2.7545 H   0  0  0  0  0  0  0  0  0  0  0  0
    0.6892    0.3336    2.1056 H   0  0  0  0  0  0  0  0  0  0  0  0
   -0.0541    1.4227    4.1766 H   0  0  0  0  0  0  0  0  0  0  0  0
    1.5768    1.5290    4.7819 H   0  0  0  0  0  0  0  0  0  0  0  0
    0.0192   -1.0262    4.1145 H   0  0  0  0  0  0  0  0  0  0  0  0
    0.3476   -0.4560    5.7470 H   0  0  0  0  0  0  0  0  0  0  0  0
    2.6926   -0.5737    6.5911 H   0  0  0  0  0  0  0  0  0  0  0  0
    3.3602    0.2496    5.1796 H   0  0  0  0  0  0  0  0  0  0  0  0
    5.0880   -1.1307    6.2537 H   0  0  0  0  0  0  0  0  0  0  0  0
    4.7855   -1.6130    4.6026 H   0  0  0  0  0  0  0  0  0  0  0  0
    4.6503   -2.6625    8.0350 H   0  0  0  0  0  0  0  0  0  0  0  0
    3.7649   -4.1508    7.7500 H   0  0  0  0  0  0  0  0  0  0  0  0
    2.9035   -2.6019    7.7438 H   0  0  0  0  0  0  0  0  0  0  0  0
    2.7751   -4.5753    5.5688 H   0  0  0  0  0  0  0  0  0  0  0  0
    3.4204   -3.7224    4.1877 H   0  0  0  0  0  0  0  0  0  0  0  0
    1.2250   -2.7421    6.0816 H   0  0  0  0  0  0  0  0  0  0  0  0
    1.0817   -3.1730    4.3756 H   0  0  0  0  0  0  0  0  0  0  0  0
  1  2  1  0  0  0  0
  1 41  1  0  0  0  0
  1 42  1  0  0  0  0
  1 43  1  0  0  0  0
  2  3  1  0  0  0  0
  3  4  1  0  0  0  0
  3 29  2  0  0  0  0
  4  5  2  0  0  0  0
  4 44  1  0  0  0  0
  5  6  1  0  0  0  0
  5 27  1  0  0  0  0
  6  7  1  0  0  0  0
  6 24  2  0  0  0  0
  7  8  1  0  0  0  0
  7 45  1  0  0  0  0
  8  9  1  0  0  0  0
  8 23  2  0  0  0  0
  9 10  2  0  0  0  0
  9 46  1  0  0  0  0
 10 11  1  0  0  0  0
 10 47  1  0  0  0  0
 11 12  1  0  0  0  0
 11 22  2  0  0  0  0
 12 13  2  0  0  0  0
 12 21  1  0  0  0  0
 13 14  1  0  0  0  0
 14 15  1  0  0  0  0
 14 20  2  0  0  0  0
 15 16  2  0  0  0  0
 15 48  1  0  0  0  0
 16 17  1  0  0  0  0
 16 49  1  0  0  0  0
 17 18  1  0  0  0  0
 17 19  2  0  0  0  0
 19 20  1  0  0  0  0
 19 50  1  0  0  0  0
 20 21  1  0  0  0  0
 22 23  1  0  0  0  0
 22 51  1  0  0  0  0
 23 52  1  0  0  0  0
 24 25  1  0  0  0  0
 25 26  2  0  0  0  0
 25 53  1  0  0  0  0
 26 27  1  0  0  0  0
 27 28  2  0  0  0  0
 28 29  1  0  0  0  0
 28 54  1  0  0  0  0
 29 30  1  0  0  0  0
 30 31  1  0  0  0  0
 31 32  1  0  0  0  0
 31 55  1  0  0  0  0
 31 56  1  0  0  0  0
 32 33  1  0  0  0  0
 32 57  1  0  0  0  0
 32 58  1  0  0  0  0
 33 34  1  0  0  0  0
 33 59  1  0  0  0  0
 33 60  1  0  0  0  0
 34 35  1  0  0  0  0
 34 40  1  0  0  0  0
 35 36  1  0  0  0  0
 35 61  1  0  0  0  0
 35 62  1  0  0  0  0
 36 37  1  0  0  0  0
 36 63  1  0  0  0  0
 36 64  1  0  0  0  0
 37 38  1  0  0  0  0
 37 39  1  0  0  0  0
 38 65  1  0  0  0  0
 38 66  1  0  0  0  0
 38 67  1  0  0  0  0
 39 40  1  0  0  0  0
 39 68  1  0  0  0  0
 39 69  1  0  0  0  0
 40 70  1  0  0  0  0
 40 71  1  0  0  0  0
M  END
$$$$
