CHEMBL57143
 OpenBabel04072215383D

 75 79  0  0  0  0  0  0  0  0999 V2000
    0.7112    2.2822    0.3707 C   0  0  0  0  0  0  0  0  0  0  0  0
    2.2120    2.4001    0.5770 C   0  0  0  0  0  0  0  0  0  0  0  0
    3.1083    1.8413   -0.8577 S   0  0  0  0  0  0  0  0  0  0  0  0
    2.7886    0.4403   -1.0838 O   0  0  0  0  0  0  0  0  0  0  0  0
    2.9510    2.8095   -1.9083 O   0  0  0  0  0  0  0  0  0  0  0  0
    4.8378    1.8875   -0.3629 C   0  0  0  0  0  0  0  0  0  0  0  0
    5.3991    0.7213    0.1997 C   0  0  0  0  0  0  0  0  0  0  0  0
    6.7597    0.6767    0.5000 C   0  0  0  0  0  0  0  0  0  0  0  0
    7.5152    1.8000    0.2151 C   0  0  0  0  0  0  0  0  0  0  0  0
    6.9843    2.9718   -0.3486 C   0  0  0  0  0  0  0  0  0  0  0  0
    5.6315    3.0310   -0.6551 C   0  0  0  0  0  0  0  0  0  0  0  0
    8.1413    3.9062   -0.4869 C   0  0  0  0  0  0  0  0  0  0  0  0
    8.1181    5.1722   -0.9377 C   0  0  0  0  0  0  0  0  0  0  0  0
    9.2733    6.0082   -0.9504 C   0  0  0  0  0  0  0  0  0  0  0  0
   10.0986    5.9862   -2.0561 N   0  0  0  0  0  0  0  0  0  0  0  0
   11.1690    6.8021   -1.8453 C   0  0  0  0  0  0  0  0  0  0  0  0
   11.0245    7.4134   -0.6244 C   0  0  0  0  0  0  0  0  0  0  0  0
    9.8236    6.8876   -0.0127 C   0  0  0  0  0  0  0  0  0  0  0  0
    9.2406    7.0916    1.3653 C   0  0  0  0  0  0  0  0  0  0  0  0
    9.3797    8.4607    2.0228 C   0  0  0  0  0  0  0  0  0  0  0  0
   10.7712    8.7637    2.5562 C   0  0  0  0  0  0  0  0  0  0  0  0
   10.9417   10.1877    2.8750 N   0  0  0  0  0  0  0  0  0  0  0  0
   12.3752   10.5460    3.0510 C   0  0  0  0  0  0  0  0  0  0  0  0
   13.0283    9.9401    4.3215 C   0  0  0  0  0  0  0  0  0  0  0  0
   12.2346   10.1158    5.5715 N   0  0  0  0  0  0  0  0  0  0  0  0
   12.2875   11.5275    6.0188 C   0  0  0  0  0  0  0  0  0  0  0  0
   11.4941   11.7643    7.3165 C   0  0  0  0  0  0  0  0  0  0  0  0
   11.9753   10.9278    8.3620 O   0  0  0  0  0  0  0  0  0  0  0  0
   10.8374    9.7087    5.3028 C   0  0  0  0  0  0  0  0  0  0  0  0
   10.2113   10.4656    4.1111 C   0  0  0  0  0  0  0  0  0  0  0  0
   12.0972    8.3363   -0.1444 C   0  0  0  0  0  0  0  0  0  0  0  0
   13.1795    8.7289   -1.1213 C   0  0  0  0  0  0  0  0  0  0  0  0
   13.5613    7.5388   -1.9978 C   0  0  0  0  0  0  0  0  0  0  0  0
   12.3309    7.0162   -2.7707 C   0  0  0  0  0  0  0  0  0  0  0  0
    9.3586    3.1531   -0.0075 C   0  0  0  0  0  0  0  0  0  0  0  0
   10.5217    3.4991    0.0081 O   0  0  0  0  0  0  0  0  0  0  0  0
    8.8839    1.9228    0.4130 N   0  0  0  0  0  0  0  0  0  0  0  0
    0.1718    2.6505    1.2489 H   0  0  0  0  0  0  0  0  0  0  0  0
    0.4142    1.2404    0.2066 H   0  0  0  0  0  0  0  0  0  0  0  0
    0.3816    2.8604   -0.4989 H   0  0  0  0  0  0  0  0  0  0  0  0
    2.5190    1.7926    1.4326 H   0  0  0  0  0  0  0  0  0  0  0  0
    2.4901    3.4433    0.7539 H   0  0  0  0  0  0  0  0  0  0  0  0
    4.7875   -0.1633    0.3719 H   0  0  0  0  0  0  0  0  0  0  0  0
    7.2113   -0.2180    0.9191 H   0  0  0  0  0  0  0  0  0  0  0  0
    5.1943    3.9041   -1.1270 H   0  0  0  0  0  0  0  0  0  0  0  0
    7.1804    5.6328   -1.2365 H   0  0  0  0  0  0  0  0  0  0  0  0
    9.9627    5.3981   -2.8641 H   0  0  0  0  0  0  0  0  0  0  0  0
    9.5859    6.3044    2.0425 H   0  0  0  0  0  0  0  0  0  0  0  0
    8.1463    6.9360    1.2771 H   0  0  0  0  0  0  0  0  0  0  0  0
    8.6947    8.4623    2.8819 H   0  0  0  0  0  0  0  0  0  0  0  0
    9.0381    9.2394    1.3362 H   0  0  0  0  0  0  0  0  0  0  0  0
   11.5027    8.5621    1.8302 H   0  0  0  0  0  0  0  0  0  0  0  0
   11.0787    8.0468    3.3203 H   0  0  0  0  0  0  0  0  0  0  0  0
   12.4516   11.6404    3.0970 H   0  0  0  0  0  0  0  0  0  0  0  0
   12.9617   10.2715    2.1632 H   0  0  0  0  0  0  0  0  0  0  0  0
   14.0419   10.3461    4.4463 H   0  0  0  0  0  0  0  0  0  0  0  0
   13.1756    8.8647    4.1505 H   0  0  0  0  0  0  0  0  0  0  0  0
   11.9213   12.2209    5.2555 H   0  0  0  0  0  0  0  0  0  0  0  0
   13.3359   11.7882    6.2044 H   0  0  0  0  0  0  0  0  0  0  0  0
   10.4249   11.5631    7.1900 H   0  0  0  0  0  0  0  0  0  0  0  0
   11.5813   12.8071    7.6253 H   0  0  0  0  0  0  0  0  0  0  0  0
   12.0563   10.0380    7.9657 H   0  0  0  0  0  0  0  0  0  0  0  0
   10.1966    9.8126    6.1780 H   0  0  0  0  0  0  0  0  0  0  0  0
   10.8300    8.6254    5.1375 H   0  0  0  0  0  0  0  0  0  0  0  0
   10.1938   11.5484    4.2727 H   0  0  0  0  0  0  0  0  0  0  0  0
    9.1559   10.1991    4.0009 H   0  0  0  0  0  0  0  0  0  0  0  0
   12.6335    7.8213    0.6663 H   0  0  0  0  0  0  0  0  0  0  0  0
   11.6456    9.2920    0.1489 H   0  0  0  0  0  0  0  0  0  0  0  0
   14.0457    9.0941   -0.5559 H   0  0  0  0  0  0  0  0  0  0  0  0
   12.8295    9.5664   -1.7360 H   0  0  0  0  0  0  0  0  0  0  0  0
   13.9752    6.7495   -1.3552 H   0  0  0  0  0  0  0  0  0  0  0  0
   14.3513    7.8499   -2.6866 H   0  0  0  0  0  0  0  0  0  0  0  0
   12.5963    6.0916   -3.2926 H   0  0  0  0  0  0  0  0  0  0  0  0
   12.0391    7.7710   -3.5109 H   0  0  0  0  0  0  0  0  0  0  0  0
    9.4989    1.2124    0.7798 H   0  0  0  0  0  0  0  0  0  0  0  0
  1  2  1  0  0  0  0
  1 38  1  0  0  0  0
  1 39  1  0  0  0  0
  1 40  1  0  0  0  0
  2  3  1  0  0  0  0
  2 41  1  0  0  0  0
  2 42  1  0  0  0  0
  3  4  2  0  0  0  0
  3  5  2  0  0  0  0
  3  6  1  0  0  0  0
  6  7  1  0  0  0  0
  6 11  2  0  0  0  0
  7  8  2  0  0  0  0
  7 43  1  0  0  0  0
  8  9  1  0  0  0  0
  8 44  1  0  0  0  0
  9 10  2  0  0  0  0
  9 37  1  0  0  0  0
 10 11  1  0  0  0  0
 10 12  1  0  0  0  0
 11 45  1  0  0  0  0
 12 13  2  0  0  0  0
 12 35  1  0  0  0  0
 13 14  1  0  0  0  0
 13 46  1  0  0  0  0
 14 15  1  0  0  0  0
 14 18  2  0  0  0  0
 15 16  1  0  0  0  0
 15 47  1  0  0  0  0
 16 17  2  0  0  0  0
 16 34  1  0  0  0  0
 17 18  1  0  0  0  0
 17 31  1  0  0  0  0
 18 19  1  0  0  0  0
 19 20  1  0  0  0  0
 19 48  1  0  0  0  0
 19 49  1  0  0  0  0
 20 21  1  0  0  0  0
 20 50  1  0  0  0  0
 20 51  1  0  0  0  0
 21 22  1  0  0  0  0
 21 52  1  0  0  0  0
 21 53  1  0  0  0  0
 22 23  1  0  0  0  0
 22 30  1  0  0  0  0
 23 24  1  0  0  0  0
 23 54  1  0  0  0  0
 23 55  1  0  0  0  0
 24 25  1  0  0  0  0
 24 56  1  0  0  0  0
 24 57  1  0  0  0  0
 25 26  1  0  0  0  0
 25 29  1  0  0  0  0
 26 27  1  0  0  0  0
 26 58  1  0  0  0  0
 26 59  1  0  0  0  0
 27 28  1  0  0  0  0
 27 60  1  0  0  0  0
 27 61  1  0  0  0  0
 28 62  1  0  0  0  0
 29 30  1  0  0  0  0
 29 63  1  0  0  0  0
 29 64  1  0  0  0  0
 30 65  1  0  0  0  0
 30 66  1  0  0  0  0
 31 32  1  0  0  0  0
 31 67  1  0  0  0  0
 31 68  1  0  0  0  0
 32 33  1  0  0  0  0
 32 69  1  0  0  0  0
 32 70  1  0  0  0  0
 33 34  1  0  0  0  0
 33 71  1  0  0  0  0
 33 72  1  0  0  0  0
 34 73  1  0  0  0  0
 34 74  1  0  0  0  0
 35 36  2  0  0  0  0
 35 37  1  0  0  0  0
 37 75  1  0  0  0  0
M  END
$$$$
