CHEMBL490968
 OpenBabel04072215383D

 45 48  0  0  0  0  0  0  0  0999 V2000
    1.1641   -1.5320   -1.4429 F   0  0  0  0  0  0  0  0  0  0  0  0
    1.9194   -0.7092   -2.2227 C   0  0  0  0  0  0  0  0  0  0  0  0
    2.5072   -1.5152   -3.1501 F   0  0  0  0  0  0  0  0  0  0  0  0
    1.0399    0.0721   -2.9064 F   0  0  0  0  0  0  0  0  0  0  0  0
    2.9299    0.0963   -1.4426 C   0  0  0  0  0  0  0  0  0  0  0  0
    2.9756    0.0495   -0.0419 C   0  0  0  0  0  0  0  0  0  0  0  0
    3.9472    0.7605    0.6619 C   0  0  0  0  0  0  0  0  0  0  0  0
    4.9027    1.5101   -0.0257 C   0  0  0  0  0  0  0  0  0  0  0  0
    4.8826    1.5524   -1.4259 C   0  0  0  0  0  0  0  0  0  0  0  0
    5.9138    2.2034   -2.1466 N   0  0  0  0  0  0  0  0  0  0  0  0
    7.0193    2.8527   -1.6555 C   0  0  0  0  0  0  0  0  0  0  0  0
    7.7671    3.1703   -2.7675 C   0  0  0  0  0  0  0  0  0  0  0  0
    9.0466    3.8612   -2.7543 C   0  0  0  0  0  0  0  0  0  0  0  0
    9.9276    3.5448   -1.6912 C   0  0  0  0  0  0  0  0  0  0  0  0
   11.2075    4.0854   -1.6141 C   0  0  0  0  0  0  0  0  0  0  0  0
   11.6436    4.9365   -2.6151 C   0  0  0  0  0  0  0  0  0  0  0  0
   10.7847    5.2672   -3.6663 C   0  0  0  0  0  0  0  0  0  0  0  0
    9.4574    4.7841   -3.7471 C   0  0  0  0  0  0  0  0  0  0  0  0
    8.7149    5.2299   -4.8452 N   0  0  0  0  0  0  0  0  0  0  0  0
    7.2727    5.4286   -4.8032 C   0  0  0  0  0  0  0  0  0  0  0  0
    6.9357    6.8577   -5.1480 C   0  0  0  0  0  0  0  0  0  0  0  0
    6.6618    7.2409   -6.4621 C   0  0  0  0  0  0  0  0  0  0  0  0
    6.3373    8.5653   -6.7071 C   0  0  0  0  0  0  0  0  0  0  0  0
    6.2762    9.5162   -5.7494 N   0  0  0  0  0  0  0  0  0  0  0  0
    6.5574    9.1263   -4.4887 C   0  0  0  0  0  0  0  0  0  0  0  0
    6.8944    7.8292   -4.1432 C   0  0  0  0  0  0  0  0  0  0  0  0
    7.1132    2.7256   -3.8807 N   0  0  0  0  0  0  0  0  0  0  0  0
    5.9615    2.1902   -3.4996 N   0  0  0  0  0  0  0  0  0  0  0  0
    3.8739    0.8770   -2.1289 C   0  0  0  0  0  0  0  0  0  0  0  0
    2.2607   -0.5579    0.5111 H   0  0  0  0  0  0  0  0  0  0  0  0
    3.9777    0.7117    1.7486 H   0  0  0  0  0  0  0  0  0  0  0  0
    5.6584    2.0253    0.5604 H   0  0  0  0  0  0  0  0  0  0  0  0
    7.1941    3.0072   -0.6036 H   0  0  0  0  0  0  0  0  0  0  0  0
    9.6297    2.8415   -0.9148 H   0  0  0  0  0  0  0  0  0  0  0  0
   11.8640    3.8226   -0.7900 H   0  0  0  0  0  0  0  0  0  0  0  0
   12.6499    5.3415   -2.5881 H   0  0  0  0  0  0  0  0  0  0  0  0
   11.1631    5.9370   -4.4373 H   0  0  0  0  0  0  0  0  0  0  0  0
    9.1858    5.9347   -5.4041 H   0  0  0  0  0  0  0  0  0  0  0  0
    6.8263    5.2343   -3.8249 H   0  0  0  0  0  0  0  0  0  0  0  0
    6.7948    4.7573   -5.5261 H   0  0  0  0  0  0  0  0  0  0  0  0
    6.6878    6.5239   -7.2766 H   0  0  0  0  0  0  0  0  0  0  0  0
    6.1066    8.9069   -7.7118 H   0  0  0  0  0  0  0  0  0  0  0  0
    6.4990    9.9066   -3.7359 H   0  0  0  0  0  0  0  0  0  0  0  0
    7.1099    7.5761   -3.1103 H   0  0  0  0  0  0  0  0  0  0  0  0
    3.8326    0.9138   -3.2189 H   0  0  0  0  0  0  0  0  0  0  0  0
  1  2  1  0  0  0  0
  2  3  1  0  0  0  0
  2  4  1  0  0  0  0
  2  5  1  0  0  0  0
  5  6  1  0  0  0  0
  5 29  2  0  0  0  0
  6  7  2  0  0  0  0
  6 30  1  0  0  0  0
  7  8  1  0  0  0  0
  7 31  1  0  0  0  0
  8  9  2  0  0  0  0
  8 32  1  0  0  0  0
  9 10  1  0  0  0  0
  9 29  1  0  0  0  0
 10 11  1  0  0  0  0
 10 28  1  0  0  0  0
 11 12  2  0  0  0  0
 11 33  1  0  0  0  0
 12 13  1  0  0  0  0
 12 27  1  0  0  0  0
 13 14  1  0  0  0  0
 13 18  2  0  0  0  0
 14 15  2  0  0  0  0
 14 34  1  0  0  0  0
 15 16  1  0  0  0  0
 15 35  1  0  0  0  0
 16 17  2  0  0  0  0
 16 36  1  0  0  0  0
 17 18  1  0  0  0  0
 17 37  1  0  0  0  0
 18 19  1  0  0  0  0
 19 20  1  0  0  0  0
 19 38  1  0  0  0  0
 20 21  1  0  0  0  0
 20 39  1  0  0  0  0
 20 40  1  0  0  0  0
 21 22  1  0  0  0  0
 21 26  2  0  0  0  0
 22 23  2  0  0  0  0
 22 41  1  0  0  0  0
 23 24  1  0  0  0  0
 23 42  1  0  0  0  0
 24 25  2  0  0  0  0
 25 26  1  0  0  0  0
 25 43  1  0  0  0  0
 26 44  1  0  0  0  0
 27 28  2  0  0  0  0
 29 45  1  0  0  0  0
M  END
$$$$
