CHEMBL3941705
 OpenBabel04072215373D

 59 63  0  0  0  0  0  0  0  0999 V2000
    1.8280    0.9244   -5.6599 C   0  0  0  0  0  0  0  0  0  0  0  0
    1.4047    1.3065   -4.3658 O   0  0  0  0  0  0  0  0  0  0  0  0
    2.3982    1.3131   -3.4236 C   0  0  0  0  0  0  0  0  0  0  0  0
    2.0748    1.0528   -2.1366 C   0  0  0  0  0  0  0  0  0  0  0  0
    3.0786    0.8217   -1.2175 C   0  0  0  0  0  0  0  0  0  0  0  0
    2.8446    0.7423    0.1205 O   0  0  0  0  0  0  0  0  0  0  0  0
    1.4778    0.9185    0.4806 C   0  0  0  0  0  0  0  0  0  0  0  0
    4.3990    0.6581   -1.6356 C   0  0  0  0  0  0  0  0  0  0  0  0
    4.7527    0.7381   -2.9684 C   0  0  0  0  0  0  0  0  0  0  0  0
    6.0249    0.2490   -3.4250 N   0  0  0  0  0  0  0  0  0  0  0  0
    6.6956   -0.9013   -2.7194 C   0  0  0  0  0  0  0  0  0  0  0  0
    6.3997   -2.3145   -3.1872 C   0  0  0  0  0  0  0  0  0  0  0  0
    7.3723   -3.2978   -3.0498 C   0  0  0  0  0  0  0  0  0  0  0  0
    7.1737   -4.5634   -3.6009 C   0  0  0  0  0  0  0  0  0  0  0  0
    6.0860   -4.8281   -4.4170 C   0  0  0  0  0  0  0  0  0  0  0  0
    5.0748   -3.8984   -4.4780 C   0  0  0  0  0  0  0  0  0  0  0  0
    5.1876   -2.6806   -3.8032 C   0  0  0  0  0  0  0  0  0  0  0  0
    7.0179    1.0817   -4.1414 C   0  0  0  0  0  0  0  0  0  0  0  0
    7.7809    0.4112   -4.9956 C   0  0  0  0  0  0  0  0  0  0  0  0
    8.7998    1.0826   -5.5909 C   0  0  0  0  0  0  0  0  0  0  0  0
    9.2844    2.3586   -5.2049 C   0  0  0  0  0  0  0  0  0  0  0  0
   10.5476    2.2116   -5.1405 N   0  0  0  0  0  0  0  0  0  0  0  0
   11.1190    2.5705   -6.2286 C   0  0  0  0  0  0  0  0  0  0  0  0
   11.4476    3.8478   -6.2497 C   0  0  0  0  0  0  0  0  0  0  0  0
   12.9501    3.2011   -7.1643 C   0  0  0  0  0  0  0  0  0  0  0  0
   13.4132    2.0095   -8.1496 C   0  0  0  0  0  0  0  0  0  0  0  0
   14.7018    1.9902   -8.6337 N   0  0  0  0  0  0  0  0  0  0  0  0
   15.2765    3.1001   -8.1520 N   0  0  0  0  0  0  0  0  0  0  0  0
   16.6922    3.4651   -8.5311 C   0  0  0  0  0  0  0  0  0  0  0  0
   14.2900    3.8072   -7.3273 C   0  0  0  0  0  0  0  0  0  0  0  0
   10.0475    4.2435   -5.4623 N   0  0  0  0  0  0  0  0  0  0  0  0
    8.7232    3.3607   -4.7071 C   0  0  0  0  0  0  0  0  0  0  0  0
    7.3859    2.5042   -3.9378 C   0  0  0  0  0  0  0  0  0  0  0  0
    3.7615    1.3770   -3.7441 C   0  0  0  0  0  0  0  0  0  0  0  0
    0.9761    0.9211   -6.3510 H   0  0  0  0  0  0  0  0  0  0  0  0
    2.2241   -0.0850   -5.5802 H   0  0  0  0  0  0  0  0  0  0  0  0
    2.5657    1.6187   -6.0652 H   0  0  0  0  0  0  0  0  0  0  0  0
    1.0437    1.1611   -1.8645 H   0  0  0  0  0  0  0  0  0  0  0  0
    1.4152    0.8483    1.5628 H   0  0  0  0  0  0  0  0  0  0  0  0
    0.8474    0.1295    0.0485 H   0  0  0  0  0  0  0  0  0  0  0  0
    1.1090    1.9083    0.1788 H   0  0  0  0  0  0  0  0  0  0  0  0
    5.1832    0.5117   -0.9075 H   0  0  0  0  0  0  0  0  0  0  0  0
    6.5048   -0.9771   -1.6372 H   0  0  0  0  0  0  0  0  0  0  0  0
    7.7639   -0.6841   -2.8386 H   0  0  0  0  0  0  0  0  0  0  0  0
    8.2769   -3.0841   -2.4937 H   0  0  0  0  0  0  0  0  0  0  0  0
    7.8449   -5.3685   -3.3426 H   0  0  0  0  0  0  0  0  0  0  0  0
    5.9720   -5.7653   -4.9473 H   0  0  0  0  0  0  0  0  0  0  0  0
    4.2311   -4.0685   -5.1389 H   0  0  0  0  0  0  0  0  0  0  0  0
    4.4641   -1.9097   -4.0958 H   0  0  0  0  0  0  0  0  0  0  0  0
    7.8371   -0.6533   -5.1891 H   0  0  0  0  0  0  0  0  0  0  0  0
    9.6300    0.5227   -6.1020 H   0  0  0  0  0  0  0  0  0  0  0  0
   11.4894    1.6574   -6.6797 H   0  0  0  0  0  0  0  0  0  0  0  0
   12.8927    1.1443   -8.5659 H   0  0  0  0  0  0  0  0  0  0  0  0
   17.2399    2.6830   -9.1073 H   0  0  0  0  0  0  0  0  0  0  0  0
   17.3073    3.6681   -7.6408 H   0  0  0  0  0  0  0  0  0  0  0  0
   16.7011    4.3643   -9.1656 H   0  0  0  0  0  0  0  0  0  0  0  0
   14.7170    4.7150   -6.9621 H   0  0  0  0  0  0  0  0  0  0  0  0
    6.7823    2.9113   -3.0454 H   0  0  0  0  0  0  0  0  0  0  0  0
    3.9999    1.7411   -4.7321 H   0  0  0  0  0  0  0  0  0  0  0  0
  1  2  1  0  0  0  0
  1 35  1  0  0  0  0
  1 36  1  0  0  0  0
  1 37  1  0  0  0  0
  2  3  1  0  0  0  0
  3  4  1  0  0  0  0
  3 34  2  0  0  0  0
  4  5  2  0  0  0  0
  4 38  1  0  0  0  0
  5  6  1  0  0  0  0
  5  8  1  0  0  0  0
  6  7  1  0  0  0  0
  7 39  1  0  0  0  0
  7 40  1  0  0  0  0
  7 41  1  0  0  0  0
  8  9  2  0  0  0  0
  8 42  1  0  0  0  0
  9 10  1  0  0  0  0
  9 34  1  0  0  0  0
 10 11  1  0  0  0  0
 10 18  1  0  0  0  0
 11 12  1  0  0  0  0
 11 43  1  0  0  0  0
 11 44  1  0  0  0  0
 12 13  1  0  0  0  0
 12 17  2  0  0  0  0
 13 14  2  0  0  0  0
 13 45  1  0  0  0  0
 14 15  1  0  0  0  0
 14 46  1  0  0  0  0
 15 16  2  0  0  0  0
 15 47  1  0  0  0  0
 16 17  1  0  0  0  0
 16 48  1  0  0  0  0
 17 49  1  0  0  0  0
 18 19  1  0  0  0  0
 18 33  2  0  0  0  0
 19 20  2  0  0  0  0
 19 50  1  0  0  0  0
 20 21  1  0  0  0  0
 20 51  1  0  0  0  0
 21 22  1  0  0  0  0
 21 32  2  0  0  0  0
 22 23  2  0  0  0  0
 23 24  1  0  0  0  0
 23 52  1  0  0  0  0
 24 25  1  0  0  0  0
 24 31  2  0  0  0  0
 25 26  1  0  0  0  0
 25 30  2  0  0  0  0
 26 27  2  0  0  0  0
 26 53  1  0  0  0  0
 27 28  1  0  0  0  0
 28 29  1  0  0  0  0
 28 30  1  0  0  0  0
 29 54  1  0  0  0  0
 29 55  1  0  0  0  0
 29 56  1  0  0  0  0
 30 57  1  0  0  0  0
 31 32  1  0  0  0  0
 32 33  1  0  0  0  0
 33 58  1  0  0  0  0
 34 59  1  0  0  0  0
M  END
$$$$
