CHEMBL399692
 OpenBabel04072215373D

 33 36  0  0  0  0  0  0  0  0999 V2000
    1.0380    0.0259    0.0095 C   0  0  0  0  0  0  0  0  0  0  0  0
    2.4845    0.0799   -0.0483 N   0  0  0  0  0  0  0  0  0  0  0  0
    3.3007   -1.0168   -0.0023 C   0  0  0  0  0  0  0  0  0  0  0  0
    4.5991   -0.6050   -0.2102 C   0  0  0  0  0  0  0  0  0  0  0  0
    5.7575   -1.4550   -0.1702 C   0  0  0  0  0  0  0  0  0  0  0  0
    5.8294   -2.7735   -0.4349 C   0  0  0  0  0  0  0  0  0  0  0  0
    4.7713   -3.6867   -0.9135 C   0  0  0  0  0  0  0  0  0  0  0  0
    3.7750   -3.4482   -1.5679 O   0  0  0  0  0  0  0  0  0  0  0  0
    5.2268   -4.9256   -0.5067 N   0  0  0  0  0  0  0  0  0  0  0  0
    6.5369   -4.9451   -0.0950 N   0  0  0  0  0  0  0  0  0  0  0  0
    6.9494   -3.6966   -0.1020 C   0  0  0  0  0  0  0  0  0  0  0  0
    8.3188   -3.3569    0.1027 C   0  0  0  0  0  0  0  0  0  0  0  0
    9.1025   -2.3397   -0.4077 C   0  0  0  0  0  0  0  0  0  0  0  0
   10.4430   -2.3852   -0.0589 N   0  0  0  0  0  0  0  0  0  0  0  0
   10.7096   -3.4260    0.7113 N   0  0  0  0  0  0  0  0  0  0  0  0
    9.3607   -4.3649    1.0240 S   0  0  0  0  0  0  0  0  0  0  0  0
    4.5706    0.8231   -0.3130 C   0  0  0  0  0  0  0  0  0  0  0  0
    5.5492    1.8241   -0.5067 C   0  0  0  0  0  0  0  0  0  0  0  0
    5.1814    3.1759   -0.4561 C   0  0  0  0  0  0  0  0  0  0  0  0
    3.8597    3.5386   -0.2190 C   0  0  0  0  0  0  0  0  0  0  0  0
    3.4456    5.2056   -0.0882 Cl  0  0  0  0  0  0  0  0  0  0  0  0
    2.8588    2.5743   -0.0786 C   0  0  0  0  0  0  0  0  0  0  0  0
    3.2409    1.2258   -0.1388 C   0  0  0  0  0  0  0  0  0  0  0  0
    0.7102   -1.0139    0.0193 H   0  0  0  0  0  0  0  0  0  0  0  0
    0.6410    0.5277   -0.8778 H   0  0  0  0  0  0  0  0  0  0  0  0
    0.7092    0.5317    0.9209 H   0  0  0  0  0  0  0  0  0  0  0  0
    2.8726   -1.9957    0.1669 H   0  0  0  0  0  0  0  0  0  0  0  0
    6.6446   -0.9658    0.2300 H   0  0  0  0  0  0  0  0  0  0  0  0
    4.7487   -5.7910   -0.7364 H   0  0  0  0  0  0  0  0  0  0  0  0
    8.7743   -1.5552   -1.0750 H   0  0  0  0  0  0  0  0  0  0  0  0
    6.5871    1.5562   -0.6827 H   0  0  0  0  0  0  0  0  0  0  0  0
    5.9421    3.9417   -0.5895 H   0  0  0  0  0  0  0  0  0  0  0  0
    1.8272    2.8657    0.0996 H   0  0  0  0  0  0  0  0  0  0  0  0
  1  2  1  0  0  0  0
  1 24  1  0  0  0  0
  1 25  1  0  0  0  0
  1 26  1  0  0  0  0
  2  3  1  0  0  0  0
  2 23  1  0  0  0  0
  3  4  2  0  0  0  0
  3 27  1  0  0  0  0
  4  5  1  0  0  0  0
  4 17  1  0  0  0  0
  5  6  2  0  0  0  0
  5 28  1  0  0  0  0
  6  7  1  0  0  0  0
  6 11  1  0  0  0  0
  7  8  2  0  0  0  0
  7  9  1  0  0  0  0
  9 10  1  0  0  0  0
  9 29  1  0  0  0  0
 10 11  2  0  0  0  0
 11 12  1  0  0  0  0
 12 13  2  0  0  0  0
 12 16  1  0  0  0  0
 13 14  1  0  0  0  0
 13 30  1  0  0  0  0
 14 15  2  0  0  0  0
 15 16  1  0  0  0  0
 17 18  1  0  0  0  0
 17 23  2  0  0  0  0
 18 19  2  0  0  0  0
 18 31  1  0  0  0  0
 19 20  1  0  0  0  0
 19 32  1  0  0  0  0
 20 21  1  0  0  0  0
 20 22  2  0  0  0  0
 22 23  1  0  0  0  0
 22 33  1  0  0  0  0
M  END
$$$$
