CHEMBL3958756
 OpenBabel04072215373D

 59 63  0  0  0  0  0  0  0  0999 V2000
    0.9280    0.0830   -0.3142 C   0  0  0  0  0  0  0  0  0  0  0  0
    1.8990   -0.8127    0.2120 O   0  0  0  0  0  0  0  0  0  0  0  0
    2.7364   -1.3767   -0.7114 C   0  0  0  0  0  0  0  0  0  0  0  0
    2.6301   -1.2515   -2.0716 C   0  0  0  0  0  0  0  0  0  0  0  0
    3.6011   -1.8238   -2.8814 C   0  0  0  0  0  0  0  0  0  0  0  0
    3.6104   -1.7303   -4.2449 O   0  0  0  0  0  0  0  0  0  0  0  0
    2.5144   -0.9930   -4.7703 C   0  0  0  0  0  0  0  0  0  0  0  0
    4.6796   -2.5094   -2.3222 C   0  0  0  0  0  0  0  0  0  0  0  0
    4.9005   -2.5632   -0.9529 C   0  0  0  0  0  0  0  0  0  0  0  0
    6.1046   -3.1239   -0.4507 N   0  0  0  0  0  0  0  0  0  0  0  0
    6.6174   -2.6243    0.9085 C   0  0  0  0  0  0  0  0  0  0  0  0
    6.0539   -3.2271    2.1946 C   0  0  0  0  0  0  0  0  0  0  0  0
    5.1284   -4.2776    2.1506 C   0  0  0  0  0  0  0  0  0  0  0  0
    4.5099   -4.7562    3.3061 C   0  0  0  0  0  0  0  0  0  0  0  0
    4.8445   -4.2174    4.5439 C   0  0  0  0  0  0  0  0  0  0  0  0
    5.8048   -3.2105    4.6304 C   0  0  0  0  0  0  0  0  0  0  0  0
    6.3508   -2.6665    3.4612 C   0  0  0  0  0  0  0  0  0  0  0  0
    7.1629   -1.1377    3.6256 Cl  0  0  0  0  0  0  0  0  0  0  0  0
    7.1687   -3.7770   -1.2114 C   0  0  0  0  0  0  0  0  0  0  0  0
    7.7543   -4.8260   -0.5752 C   0  0  0  0  0  0  0  0  0  0  0  0
    8.7655   -5.4015   -1.2498 C   0  0  0  0  0  0  0  0  0  0  0  0
    9.3095   -4.9628   -2.4379 C   0  0  0  0  0  0  0  0  0  0  0  0
   10.5501   -4.8755   -2.1454 N   0  0  0  0  0  0  0  0  0  0  0  0
   11.1633   -5.9713   -2.4471 C   0  0  0  0  0  0  0  0  0  0  0  0
   11.3787   -6.0971   -3.7197 C   0  0  0  0  0  0  0  0  0  0  0  0
   12.7599   -7.1785   -3.7643 C   0  0  0  0  0  0  0  0  0  0  0  0
   13.5003   -8.0915   -2.6795 C   0  0  0  0  0  0  0  0  0  0  0  0
   14.4302   -8.9566   -3.1696 N   0  0  0  0  0  0  0  0  0  0  0  0
   14.4193   -8.7357   -4.4986 N   0  0  0  0  0  0  0  0  0  0  0  0
   15.2201   -9.5978   -5.4061 C   0  0  0  0  0  0  0  0  0  0  0  0
   13.5048   -7.6870   -4.8305 C   0  0  0  0  0  0  0  0  0  0  0  0
   10.2826   -5.1569   -4.3948 N   0  0  0  0  0  0  0  0  0  0  0  0
    9.0071   -4.2999   -3.5100 C   0  0  0  0  0  0  0  0  0  0  0  0
    7.7572   -3.4754   -2.6159 C   0  0  0  0  0  0  0  0  0  0  0  0
    3.8239   -2.0773   -0.1825 C   0  0  0  0  0  0  0  0  0  0  0  0
    0.3660    0.5183    0.5156 H   0  0  0  0  0  0  0  0  0  0  0  0
    0.2290   -0.4703   -0.9477 H   0  0  0  0  0  0  0  0  0  0  0  0
    1.4029    0.9029   -0.8673 H   0  0  0  0  0  0  0  0  0  0  0  0
    1.7983   -0.7018   -2.4824 H   0  0  0  0  0  0  0  0  0  0  0  0
    2.6141   -0.9690   -5.8526 H   0  0  0  0  0  0  0  0  0  0  0  0
    2.5189    0.0428   -4.4042 H   0  0  0  0  0  0  0  0  0  0  0  0
    1.5679   -1.4885   -4.5218 H   0  0  0  0  0  0  0  0  0  0  0  0
    5.3507   -3.0146   -2.9967 H   0  0  0  0  0  0  0  0  0  0  0  0
    6.4839   -1.5400    0.9938 H   0  0  0  0  0  0  0  0  0  0  0  0
    7.7023   -2.7970    0.9443 H   0  0  0  0  0  0  0  0  0  0  0  0
    4.7591   -4.6135    1.1859 H   0  0  0  0  0  0  0  0  0  0  0  0
    3.7272   -5.5080    3.2272 H   0  0  0  0  0  0  0  0  0  0  0  0
    4.3231   -4.5470    5.4387 H   0  0  0  0  0  0  0  0  0  0  0  0
    6.0865   -2.8287    5.6095 H   0  0  0  0  0  0  0  0  0  0  0  0
    7.6458   -5.1400    0.4557 H   0  0  0  0  0  0  0  0  0  0  0  0
    9.4529   -6.0155   -0.6889 H   0  0  0  0  0  0  0  0  0  0  0  0
   11.4826   -6.6011   -1.6632 H   0  0  0  0  0  0  0  0  0  0  0  0
   13.3927   -8.2607   -1.5939 H   0  0  0  0  0  0  0  0  0  0  0  0
   15.8932  -10.3110   -4.8899 H   0  0  0  0  0  0  0  0  0  0  0  0
   15.8579   -8.9883   -6.0583 H   0  0  0  0  0  0  0  0  0  0  0  0
   14.5580  -10.2073   -6.0364 H   0  0  0  0  0  0  0  0  0  0  0  0
   13.4169   -7.4594   -5.8599 H   0  0  0  0  0  0  0  0  0  0  0  0
    7.2307   -2.5838   -2.9981 H   0  0  0  0  0  0  0  0  0  0  0  0
    3.7162   -2.2344    0.8777 H   0  0  0  0  0  0  0  0  0  0  0  0
  1  2  1  0  0  0  0
  1 36  1  0  0  0  0
  1 37  1  0  0  0  0
  1 38  1  0  0  0  0
  2  3  1  0  0  0  0
  3  4  1  0  0  0  0
  3 35  2  0  0  0  0
  4  5  2  0  0  0  0
  4 39  1  0  0  0  0
  5  6  1  0  0  0  0
  5  8  1  0  0  0  0
  6  7  1  0  0  0  0
  7 40  1  0  0  0  0
  7 41  1  0  0  0  0
  7 42  1  0  0  0  0
  8  9  2  0  0  0  0
  8 43  1  0  0  0  0
  9 10  1  0  0  0  0
  9 35  1  0  0  0  0
 10 11  1  0  0  0  0
 10 19  1  0  0  0  0
 11 12  1  0  0  0  0
 11 44  1  0  0  0  0
 11 45  1  0  0  0  0
 12 13  1  0  0  0  0
 12 17  2  0  0  0  0
 13 14  2  0  0  0  0
 13 46  1  0  0  0  0
 14 15  1  0  0  0  0
 14 47  1  0  0  0  0
 15 16  2  0  0  0  0
 15 48  1  0  0  0  0
 16 17  1  0  0  0  0
 16 49  1  0  0  0  0
 17 18  1  0  0  0  0
 19 20  1  0  0  0  0
 19 34  2  0  0  0  0
 20 21  2  0  0  0  0
 20 50  1  0  0  0  0
 21 22  1  0  0  0  0
 21 51  1  0  0  0  0
 22 23  1  0  0  0  0
 22 33  2  0  0  0  0
 23 24  2  0  0  0  0
 24 25  1  0  0  0  0
 24 52  1  0  0  0  0
 25 26  1  0  0  0  0
 25 32  2  0  0  0  0
 26 27  1  0  0  0  0
 26 31  2  0  0  0  0
 27 28  2  0  0  0  0
 27 53  1  0  0  0  0
 28 29  1  0  0  0  0
 29 30  1  0  0  0  0
 29 31  1  0  0  0  0
 30 54  1  0  0  0  0
 30 55  1  0  0  0  0
 30 56  1  0  0  0  0
 31 57  1  0  0  0  0
 32 33  1  0  0  0  0
 33 34  1  0  0  0  0
 34 58  1  0  0  0  0
 35 59  1  0  0  0  0
M  END
$$$$
