CHEMBL395334
 OpenBabel04072215373D

 67 71  0  0  0  0  0  0  0  0999 V2000
    5.4861   -1.1522   -6.2498 C   0  0  0  0  0  0  0  0  0  0  0  0
    6.2760   -0.9999   -5.0593 N   0  0  0  0  0  0  0  0  0  0  0  0
    5.9193   -0.1165   -4.0635 C   0  0  0  0  0  0  0  0  0  0  0  0
    4.9172    0.5884   -4.1085 O   0  0  0  0  0  0  0  0  0  0  0  0
    6.8586   -0.0697   -2.8960 C   0  0  0  0  0  0  0  0  0  0  0  0
    6.5601    0.7528   -1.8211 C   0  0  0  0  0  0  0  0  0  0  0  0
    7.4962    0.8505   -0.7940 C   0  0  0  0  0  0  0  0  0  0  0  0
    7.3517    1.6739    0.3049 O   0  0  0  0  0  0  0  0  0  0  0  0
    6.7450    2.9021    0.1279 C   0  0  0  0  0  0  0  0  0  0  0  0
    5.9574    3.3795    1.1799 C   0  0  0  0  0  0  0  0  0  0  0  0
    5.2285    4.5748    1.0651 C   0  0  0  0  0  0  0  0  0  0  0  0
    5.3257    5.2583   -0.1534 C   0  0  0  0  0  0  0  0  0  0  0  0
    6.1669    4.8328   -1.1703 C   0  0  0  0  0  0  0  0  0  0  0  0
    6.9190    3.6656   -1.0289 C   0  0  0  0  0  0  0  0  0  0  0  0
    6.1266    5.6836   -2.2265 N   0  0  0  0  0  0  0  0  0  0  0  0
    5.2920    6.6480   -1.9102 C   0  0  0  0  0  0  0  0  0  0  0  0
    5.0034    7.7520   -2.6432 N   0  0  0  0  0  0  0  0  0  0  0  0
    5.6899    8.1722   -3.8093 C   0  0  0  0  0  0  0  0  0  0  0  0
    5.1420    9.1860   -4.6001 C   0  0  0  0  0  0  0  0  0  0  0  0
    5.7669    9.5873   -5.7879 C   0  0  0  0  0  0  0  0  0  0  0  0
    6.9570    8.9902   -6.2056 C   0  0  0  0  0  0  0  0  0  0  0  0
    7.6281    9.5056   -7.7099 Cl  0  0  0  0  0  0  0  0  0  0  0  0
    7.5677    8.0202   -5.4044 C   0  0  0  0  0  0  0  0  0  0  0  0
    8.9324    7.4260   -5.7053 C   0  0  0  0  0  0  0  0  0  0  0  0
    9.9898    8.4412   -5.7177 N   0  0  0  0  0  0  0  0  0  0  0  0
   10.1610    9.1280   -4.4272 C   0  0  0  0  0  0  0  0  0  0  0  0
   11.2122   10.2541   -4.5458 C   0  0  0  0  0  0  0  0  0  0  0  0
   12.5364    9.8153   -5.0307 N   0  0  0  0  0  0  0  0  0  0  0  0
   13.2615    9.0788   -4.0002 C   0  0  0  0  0  0  0  0  0  0  0  0
   12.3576    9.0086   -6.2576 C   0  0  0  0  0  0  0  0  0  0  0  0
   11.2778    7.8996   -6.1738 C   0  0  0  0  0  0  0  0  0  0  0  0
    6.9146    7.6190   -4.2250 C   0  0  0  0  0  0  0  0  0  0  0  0
    4.7258    6.3885   -0.6747 N   0  0  0  0  0  0  0  0  0  0  0  0
    3.7002    7.1450   -0.0011 C   0  0  0  0  0  0  0  0  0  0  0  0
    8.6414    0.0620   -0.8329 C   0  0  0  0  0  0  0  0  0  0  0  0
    8.8381   -0.7545   -1.9346 C   0  0  0  0  0  0  0  0  0  0  0  0
    7.9832   -0.8365   -2.9783 N   0  0  0  0  0  0  0  0  0  0  0  0
    5.9397   -1.9194   -6.8802 H   0  0  0  0  0  0  0  0  0  0  0  0
    5.4499   -0.1987   -6.7842 H   0  0  0  0  0  0  0  0  0  0  0  0
    4.4700   -1.4464   -5.9721 H   0  0  0  0  0  0  0  0  0  0  0  0
    7.1367   -1.5233   -4.9247 H   0  0  0  0  0  0  0  0  0  0  0  0
    5.6372    1.3231   -1.8162 H   0  0  0  0  0  0  0  0  0  0  0  0
    5.8908    2.8041    2.1009 H   0  0  0  0  0  0  0  0  0  0  0  0
    4.6078    4.9316    1.8796 H   0  0  0  0  0  0  0  0  0  0  0  0
    7.5709    3.3635   -1.8392 H   0  0  0  0  0  0  0  0  0  0  0  0
    4.1893    8.3129   -2.4338 H   0  0  0  0  0  0  0  0  0  0  0  0
    4.2157    9.6754   -4.3115 H   0  0  0  0  0  0  0  0  0  0  0  0
    5.3174   10.3758   -6.3868 H   0  0  0  0  0  0  0  0  0  0  0  0
    8.8668    6.9262   -6.6807 H   0  0  0  0  0  0  0  0  0  0  0  0
    9.1774    6.6365   -4.9823 H   0  0  0  0  0  0  0  0  0  0  0  0
   10.4465    8.4177   -3.6408 H   0  0  0  0  0  0  0  0  0  0  0  0
    9.2250    9.5995   -4.1085 H   0  0  0  0  0  0  0  0  0  0  0  0
   11.3105   10.7699   -3.5827 H   0  0  0  0  0  0  0  0  0  0  0  0
   10.8300   11.0114   -5.2445 H   0  0  0  0  0  0  0  0  0  0  0  0
   13.3844    9.6995   -3.1052 H   0  0  0  0  0  0  0  0  0  0  0  0
   14.2704    8.8353   -4.3498 H   0  0  0  0  0  0  0  0  0  0  0  0
   12.7697    8.1476   -3.7025 H   0  0  0  0  0  0  0  0  0  0  0  0
   13.3148    8.5689   -6.5634 H   0  0  0  0  0  0  0  0  0  0  0  0
   12.0785    9.6957   -7.0682 H   0  0  0  0  0  0  0  0  0  0  0  0
   11.6200    7.0969   -5.5080 H   0  0  0  0  0  0  0  0  0  0  0  0
   11.1631    7.4635   -7.1737 H   0  0  0  0  0  0  0  0  0  0  0  0
    7.4073    6.8696   -3.6121 H   0  0  0  0  0  0  0  0  0  0  0  0
    3.1085    7.7104   -0.7224 H   0  0  0  0  0  0  0  0  0  0  0  0
    4.1829    7.8181    0.7115 H   0  0  0  0  0  0  0  0  0  0  0  0
    3.0341    6.4532    0.5235 H   0  0  0  0  0  0  0  0  0  0  0  0
    9.3709    0.0974   -0.0311 H   0  0  0  0  0  0  0  0  0  0  0  0
    9.7248   -1.3804   -2.0112 H   0  0  0  0  0  0  0  0  0  0  0  0
  1  2  1  0  0  0  0
  1 38  1  0  0  0  0
  1 39  1  0  0  0  0
  1 40  1  0  0  0  0
  2  3  1  0  0  0  0
  2 41  1  0  0  0  0
  3  4  2  0  0  0  0
  3  5  1  0  0  0  0
  5  6  1  0  0  0  0
  5 37  2  0  0  0  0
  6  7  2  0  0  0  0
  6 42  1  0  0  0  0
  7  8  1  0  0  0  0
  7 35  1  0  0  0  0
  8  9  1  0  0  0  0
  9 10  1  0  0  0  0
  9 14  2  0  0  0  0
 10 11  2  0  0  0  0
 10 43  1  0  0  0  0
 11 12  1  0  0  0  0
 11 44  1  0  0  0  0
 12 13  2  0  0  0  0
 12 33  1  0  0  0  0
 13 14  1  0  0  0  0
 13 15  1  0  0  0  0
 14 45  1  0  0  0  0
 15 16  2  0  0  0  0
 16 17  1  0  0  0  0
 16 33  1  0  0  0  0
 17 18  1  0  0  0  0
 17 46  1  0  0  0  0
 18 19  1  0  0  0  0
 18 32  2  0  0  0  0
 19 20  2  0  0  0  0
 19 47  1  0  0  0  0
 20 21  1  0  0  0  0
 20 48  1  0  0  0  0
 21 22  1  0  0  0  0
 21 23  2  0  0  0  0
 23 24  1  0  0  0  0
 23 32  1  0  0  0  0
 24 25  1  0  0  0  0
 24 49  1  0  0  0  0
 24 50  1  0  0  0  0
 25 26  1  0  0  0  0
 25 31  1  0  0  0  0
 26 27  1  0  0  0  0
 26 51  1  0  0  0  0
 26 52  1  0  0  0  0
 27 28  1  0  0  0  0
 27 53  1  0  0  0  0
 27 54  1  0  0  0  0
 28 29  1  0  0  0  0
 28 30  1  0  0  0  0
 29 55  1  0  0  0  0
 29 56  1  0  0  0  0
 29 57  1  0  0  0  0
 30 31  1  0  0  0  0
 30 58  1  0  0  0  0
 30 59  1  0  0  0  0
 31 60  1  0  0  0  0
 31 61  1  0  0  0  0
 32 62  1  0  0  0  0
 33 34  1  0  0  0  0
 34 63  1  0  0  0  0
 34 64  1  0  0  0  0
 34 65  1  0  0  0  0
 35 36  2  0  0  0  0
 35 66  1  0  0  0  0
 36 37  1  0  0  0  0
 36 67  1  0  0  0  0
M  END
$$$$
