CHEMBL3221261
 OpenBabel04072215363D

 50 51  0  0  0  0  0  0  0  0999 V2000
    1.1107   -1.1251   -0.8908 C   0  0  0  0  0  0  0  0  0  0  0  0
    2.6312   -1.0351   -0.8321 C   0  0  0  0  0  0  0  0  0  0  0  0
    3.1328   -1.4943    0.4486 N   0  0  0  0  0  0  0  0  0  0  0  0
    4.4636   -1.4796    0.7318 C   0  0  0  0  0  0  0  0  0  0  0  0
    5.2542   -1.0010   -0.0694 O   0  0  0  0  0  0  0  0  0  0  0  0
    4.9126   -2.0741    1.8710 N   0  0  0  0  0  0  0  0  0  0  0  0
    6.2959   -2.1857    2.1857 C   0  0  0  0  0  0  0  0  0  0  0  0
    7.1611   -1.0829    2.0991 C   0  0  0  0  0  0  0  0  0  0  0  0
    8.5194   -1.2117    2.4161 C   0  0  0  0  0  0  0  0  0  0  0  0
    9.5205    0.2360    2.3271 Cl  0  0  0  0  0  0  0  0  0  0  0  0
    9.0427   -2.4663    2.8110 C   0  0  0  0  0  0  0  0  0  0  0  0
   10.4394   -2.6004    3.1221 N   0  0  0  0  0  0  0  0  0  0  0  0
   11.0194   -3.6977    3.8467 C   0  0  0  0  0  0  0  0  0  0  0  0
   10.2115   -4.5435    4.5390 N   0  0  0  0  0  0  0  0  0  0  0  0
   10.6779   -5.6017    5.2377 C   0  0  0  0  0  0  0  0  0  0  0  0
   12.0049   -5.8523    5.2700 N   0  0  0  0  0  0  0  0  0  0  0  0
   12.8814   -5.0437    4.6220 C   0  0  0  0  0  0  0  0  0  0  0  0
   14.2406   -5.3373    4.6780 C   0  0  0  0  0  0  0  0  0  0  0  0
   15.1958   -4.5245    4.0242 C   0  0  0  0  0  0  0  0  0  0  0  0
   16.5204   -4.8383    4.0829 O   0  0  0  0  0  0  0  0  0  0  0  0
   17.0397   -5.9579    4.7190 C   0  0  0  0  0  0  0  0  0  0  0  0
   14.7362   -3.3836    3.3058 C   0  0  0  0  0  0  0  0  0  0  0  0
   15.5199   -2.4923    2.6373 O   0  0  0  0  0  0  0  0  0  0  0  0
   16.8829   -2.4395    2.4835 C   0  0  0  0  0  0  0  0  0  0  0  0
   13.3658   -3.1115    3.2487 C   0  0  0  0  0  0  0  0  0  0  0  0
   12.4201   -3.9255    3.8949 C   0  0  0  0  0  0  0  0  0  0  0  0
    8.1599   -3.5679    2.8538 C   0  0  0  0  0  0  0  0  0  0  0  0
    6.8076   -3.4282    2.5717 C   0  0  0  0  0  0  0  0  0  0  0  0
    5.7843   -4.8604    2.6384 Cl  0  0  0  0  0  0  0  0  0  0  0  0
    1.5978    2.2524    1.6553 Cl  0  0  0  0  0  0  0  0  0  0  0  0
    0.7609   -0.7941   -1.8907 H   0  0  0  0  0  0  0  0  0  0  0  0
    0.6651   -0.4659   -0.1164 H   0  0  0  0  0  0  0  0  0  0  0  0
    0.7759   -2.1705   -0.7205 H   0  0  0  0  0  0  0  0  0  0  0  0
    2.9390    0.0167   -1.0035 H   0  0  0  0  0  0  0  0  0  0  0  0
    3.0602   -1.6768   -1.6358 H   0  0  0  0  0  0  0  0  0  0  0  0
    2.4749   -1.8832    1.1419 H   0  0  0  0  0  0  0  0  0  0  0  0
    4.2380   -2.5952    2.4500 H   0  0  0  0  0  0  0  0  0  0  0  0
    6.7739   -0.1123    1.8141 H   0  0  0  0  0  0  0  0  0  0  0  0
   11.0514   -1.8340    2.8242 H   0  0  0  0  0  0  0  0  0  0  0  0
    9.9858   -6.2466    5.7607 H   0  0  0  0  0  0  0  0  0  0  0  0
   14.5372   -6.2140    5.2394 H   0  0  0  0  0  0  0  0  0  0  0  0
   18.1404   -5.9871    4.6027 H   0  0  0  0  0  0  0  0  0  0  0  0
   16.6199   -6.8882    4.2728 H   0  0  0  0  0  0  0  0  0  0  0  0
   16.8035   -5.9363    5.8072 H   0  0  0  0  0  0  0  0  0  0  0  0
   17.1130   -1.5335    1.8795 H   0  0  0  0  0  0  0  0  0  0  0  0
   17.2475   -3.3253    1.9268 H   0  0  0  0  0  0  0  0  0  0  0  0
   17.3865   -2.3319    3.4653 H   0  0  0  0  0  0  0  0  0  0  0  0
   13.0753   -2.2447    2.6807 H   0  0  0  0  0  0  0  0  0  0  0  0
    8.4847   -4.5661    3.0759 H   0  0  0  0  0  0  0  0  0  0  0  0
    1.6515    0.9154    1.9731 H   0  0  0  0  0  0  0  0  0  0  0  0
  1  2  1  0  0  0  0
  1 31  1  0  0  0  0
  1 32  1  0  0  0  0
  1 33  1  0  0  0  0
  2  3  1  0  0  0  0
  2 34  1  0  0  0  0
  2 35  1  0  0  0  0
  3  4  1  0  0  0  0
  3 36  1  0  0  0  0
  4  5  2  0  0  0  0
  4  6  1  0  0  0  0
  6  7  1  0  0  0  0
  6 37  1  0  0  0  0
  7  8  1  0  0  0  0
  7 28  2  0  0  0  0
  8  9  2  0  0  0  0
  8 38  1  0  0  0  0
  9 10  1  0  0  0  0
  9 11  1  0  0  0  0
 11 12  1  0  0  0  0
 11 27  2  0  0  0  0
 12 13  1  0  0  0  0
 12 39  1  0  0  0  0
 13 14  1  0  0  0  0
 13 26  2  0  0  0  0
 14 15  2  0  0  0  0
 15 16  1  0  0  0  0
 15 40  1  0  0  0  0
 16 17  2  0  0  0  0
 17 18  1  0  0  0  0
 17 26  1  0  0  0  0
 18 19  2  0  0  0  0
 18 41  1  0  0  0  0
 19 20  1  0  0  0  0
 19 22  1  0  0  0  0
 20 21  1  0  0  0  0
 21 42  1  0  0  0  0
 21 43  1  0  0  0  0
 21 44  1  0  0  0  0
 22 23  1  0  0  0  0
 22 25  2  0  0  0  0
 23 24  1  0  0  0  0
 24 45  1  0  0  0  0
 24 46  1  0  0  0  0
 24 47  1  0  0  0  0
 25 26  1  0  0  0  0
 25 48  1  0  0  0  0
 27 28  1  0  0  0  0
 27 49  1  0  0  0  0
 28 29  1  0  0  0  0
 30 50  1  0  0  0  0
M  END
$$$$
