CHEMBL180978
 OpenBabel04072215363D

 59 62  0  0  0  0  0  0  0  0999 V2000
   -1.1285   -1.1275   -3.0433 C   0  0  0  0  0  0  0  0  0  0  0  0
   -0.0453   -0.4505   -2.2560 C   0  0  0  0  0  0  0  0  0  0  0  0
    0.9013   -1.2124   -1.5660 C   0  0  0  0  0  0  0  0  0  0  0  0
    1.9330   -0.5897   -0.8599 C   0  0  0  0  0  0  0  0  0  0  0  0
    2.0445    0.8065   -0.8187 C   0  0  0  0  0  0  0  0  0  0  0  0
    3.0971    1.4511   -0.1273 N   0  0  0  0  0  0  0  0  0  0  0  0
    4.3710    0.9219    0.0172 C   0  0  0  0  0  0  0  0  0  0  0  0
    4.8495    0.1554   -0.9252 N   0  0  0  0  0  0  0  0  0  0  0  0
    6.0994   -0.3772   -0.8184 C   0  0  0  0  0  0  0  0  0  0  0  0
    6.9258   -0.2116    0.1612 N   0  0  0  0  0  0  0  0  0  0  0  0
    6.4562    0.5843    1.1280 N   0  0  0  0  0  0  0  0  0  0  0  0
    7.1450    0.8944    2.2592 C   0  0  0  0  0  0  0  0  0  0  0  0
    6.3714    1.7215    3.0554 C   0  0  0  0  0  0  0  0  0  0  0  0
    6.7959    2.2440    4.3641 C   0  0  0  0  0  0  0  0  0  0  0  0
    6.3094    3.2509    4.8661 O   0  0  0  0  0  0  0  0  0  0  0  0
    7.7580    1.4716    4.9960 N   0  0  0  0  0  0  0  0  0  0  0  0
    8.1477    1.6810    6.3841 C   0  0  0  0  0  0  0  0  0  0  0  0
    7.0767    1.1087    7.3058 C   0  0  0  0  0  0  0  0  0  0  0  0
    7.3440    1.2653    8.8091 C   0  0  0  0  0  0  0  0  0  0  0  0
    6.2741    0.6089    9.5871 N   0  0  0  0  0  0  0  0  0  0  0  0
    4.9340    1.2179    9.4132 C   0  0  0  0  0  0  0  0  0  0  0  0
    4.7459    2.5489   10.1559 C   0  0  0  0  0  0  0  0  0  0  0  0
    5.0105    2.4011   11.5555 O   0  0  0  0  0  0  0  0  0  0  0  0
    6.3330    1.8944   11.7724 C   0  0  0  0  0  0  0  0  0  0  0  0
    6.5582    0.5608   11.0381 C   0  0  0  0  0  0  0  0  0  0  0  0
    5.1366    1.9330    2.3207 C   0  0  0  0  0  0  0  0  0  0  0  0
    3.9753    2.7616    2.7548 C   0  0  0  0  0  0  0  0  0  0  0  0
    5.2346    1.1896    1.1429 C   0  0  0  0  0  0  0  0  0  0  0  0
    1.0815    1.5714   -1.4902 C   0  0  0  0  0  0  0  0  0  0  0  0
    0.0584    0.9424   -2.2088 C   0  0  0  0  0  0  0  0  0  0  0  0
   -0.8628    1.6842   -2.8960 O   0  0  0  0  0  0  0  0  0  0  0  0
   -1.0669   -2.2179   -2.9527 H   0  0  0  0  0  0  0  0  0  0  0  0
   -1.0360   -0.8797   -4.1059 H   0  0  0  0  0  0  0  0  0  0  0  0
   -2.1140   -0.8205   -2.6810 H   0  0  0  0  0  0  0  0  0  0  0  0
    0.8520   -2.2985   -1.5774 H   0  0  0  0  0  0  0  0  0  0  0  0
    2.6524   -1.2160   -0.3382 H   0  0  0  0  0  0  0  0  0  0  0  0
    2.7667    2.0897    0.5783 H   0  0  0  0  0  0  0  0  0  0  0  0
    6.4165   -1.0170   -1.6585 H   0  0  0  0  0  0  0  0  0  0  0  0
    8.1447    0.5047    2.3904 H   0  0  0  0  0  0  0  0  0  0  0  0
    7.9242    0.5514    4.6125 H   0  0  0  0  0  0  0  0  0  0  0  0
    8.2896    2.7529    6.5562 H   0  0  0  0  0  0  0  0  0  0  0  0
    9.1057    1.1706    6.5296 H   0  0  0  0  0  0  0  0  0  0  0  0
    6.9445    0.0438    7.0746 H   0  0  0  0  0  0  0  0  0  0  0  0
    6.1399    1.6062    7.0435 H   0  0  0  0  0  0  0  0  0  0  0  0
    7.4604    2.3219    9.0748 H   0  0  0  0  0  0  0  0  0  0  0  0
    8.2998    0.7724    9.0350 H   0  0  0  0  0  0  0  0  0  0  0  0
    4.2052    0.4977    9.8066 H   0  0  0  0  0  0  0  0  0  0  0  0
    4.6642    1.3392    8.3613 H   0  0  0  0  0  0  0  0  0  0  0  0
    3.7066    2.8774   10.0525 H   0  0  0  0  0  0  0  0  0  0  0  0
    5.3839    3.3402    9.7467 H   0  0  0  0  0  0  0  0  0  0  0  0
    6.4453    1.7409   12.8509 H   0  0  0  0  0  0  0  0  0  0  0  0
    7.0631    2.6513   11.4669 H   0  0  0  0  0  0  0  0  0  0  0  0
    5.8733   -0.1817   11.4708 H   0  0  0  0  0  0  0  0  0  0  0  0
    7.5693    0.1843   11.2290 H   0  0  0  0  0  0  0  0  0  0  0  0
    4.1198    3.2156    3.7369 H   0  0  0  0  0  0  0  0  0  0  0  0
    3.0704    2.1471    2.8122 H   0  0  0  0  0  0  0  0  0  0  0  0
    3.7992    3.5706    2.0376 H   0  0  0  0  0  0  0  0  0  0  0  0
    1.1594    2.6542   -1.4841 H   0  0  0  0  0  0  0  0  0  0  0  0
   -0.6173    2.6216   -2.8415 H   0  0  0  0  0  0  0  0  0  0  0  0
  1  2  1  0  0  0  0
  1 32  1  0  0  0  0
  1 33  1  0  0  0  0
  1 34  1  0  0  0  0
  2  3  1  0  0  0  0
  2 30  2  0  0  0  0
  3  4  2  0  0  0  0
  3 35  1  0  0  0  0
  4  5  1  0  0  0  0
  4 36  1  0  0  0  0
  5  6  1  0  0  0  0
  5 29  2  0  0  0  0
  6  7  1  0  0  0  0
  6 37  1  0  0  0  0
  7  8  2  0  0  0  0
  7 28  1  0  0  0  0
  8  9  1  0  0  0  0
  9 10  2  0  0  0  0
  9 38  1  0  0  0  0
 10 11  1  0  0  0  0
 11 12  1  0  0  0  0
 11 28  1  0  0  0  0
 12 13  2  0  0  0  0
 12 39  1  0  0  0  0
 13 14  1  0  0  0  0
 13 26  1  0  0  0  0
 14 15  2  0  0  0  0
 14 16  1  0  0  0  0
 16 17  1  0  0  0  0
 16 40  1  0  0  0  0
 17 18  1  0  0  0  0
 17 41  1  0  0  0  0
 17 42  1  0  0  0  0
 18 19  1  0  0  0  0
 18 43  1  0  0  0  0
 18 44  1  0  0  0  0
 19 20  1  0  0  0  0
 19 45  1  0  0  0  0
 19 46  1  0  0  0  0
 20 21  1  0  0  0  0
 20 25  1  0  0  0  0
 21 22  1  0  0  0  0
 21 47  1  0  0  0  0
 21 48  1  0  0  0  0
 22 23  1  0  0  0  0
 22 49  1  0  0  0  0
 22 50  1  0  0  0  0
 23 24  1  0  0  0  0
 24 25  1  0  0  0  0
 24 51  1  0  0  0  0
 24 52  1  0  0  0  0
 25 53  1  0  0  0  0
 25 54  1  0  0  0  0
 26 27  1  0  0  0  0
 26 28  2  0  0  0  0
 27 55  1  0  0  0  0
 27 56  1  0  0  0  0
 27 57  1  0  0  0  0
 29 30  1  0  0  0  0
 29 58  1  0  0  0  0
 30 31  1  0  0  0  0
 31 59  1  0  0  0  0
M  END
$$$$
