CHEMBL3656086
 OpenBabel04072215373D

 66 70  0  0  1  0  0  0  0  0999 V2000
   -7.5675   16.1873    1.7042 C   0  0  0  0  0  0  0  0  0  0  0  0
   -7.3629   14.9142    0.9289 C   0  0  0  0  0  0  0  0  0  0  0  0
   -6.9998   14.9791   -0.4188 C   0  0  0  0  0  0  0  0  0  0  0  0
   -6.7735   13.8081   -1.1301 C   0  0  0  0  0  0  0  0  0  0  0  0
   -6.9209   12.5700   -0.5089 C   0  0  0  0  0  0  0  0  0  0  0  0
   -6.5591   11.5073   -1.2362 F   0  0  0  0  0  0  0  0  0  0  0  0
   -7.3447   12.4651    0.8233 C   0  0  0  0  0  0  0  0  0  0  0  0
   -7.6033   11.2434    1.5017 N   0  0  0  0  0  0  0  0  0  0  0  0
   -7.7987   10.0083    0.9073 C   0  0  0  0  0  0  0  0  0  0  0  0
   -7.7800    9.7711   -0.2932 O   0  0  0  0  0  0  0  0  0  0  0  0
   -8.1115    9.0272    1.8423 N   0  0  0  0  0  0  0  0  0  0  0  0
   -8.3380    7.6960    1.4044 C   0  0  0  0  0  0  0  0  0  0  0  0
   -7.4381    7.0261    0.5696 C   0  0  0  0  0  0  0  0  0  0  0  0
   -7.7117    5.7190    0.1546 C   0  0  0  0  0  0  0  0  0  0  0  0
   -8.8904    5.0862    0.5577 C   0  0  0  0  0  0  0  0  0  0  0  0
   -9.0794    3.8059    0.0938 O   0  0  0  0  0  0  0  0  0  0  0  0
   -9.7273    2.8808    0.8811 C   0  0  0  0  0  0  0  0  0  0  0  0
   -9.7028    2.8619    2.2726 C   0  0  0  0  0  0  0  0  0  0  0  0
  -10.4195    1.8737    2.9228 C   0  0  0  0  0  0  0  0  0  0  0  0
  -11.0934    0.8921    2.2874 N   0  0  0  0  0  0  0  0  0  0  0  0
  -11.0526    0.9003    0.9320 C   0  0  0  0  0  0  0  0  0  0  0  0
  -11.7565   -0.2076    0.3011 C   0  0  0  0  0  0  0  0  0  0  0  0
  -11.9440   -0.5535   -1.0260 C   0  0  0  0  0  0  0  0  0  0  0  0
  -12.7089   -1.7569   -1.0874 C   0  0  0  0  0  0  0  0  0  0  0  0
  -13.1247   -2.4501   -2.3063 C   0  0  0  0  0  0  0  0  0  0  0  0
  -13.3986   -1.8198   -3.3279 O   0  0  0  0  0  0  0  0  0  0  0  0
  -13.1499   -3.8350   -2.2883 N   0  0  0  0  0  0  0  0  0  0  0  0
  -12.6466   -4.7183   -1.2538 C   0  0  0  0  0  0  0  0  0  0  0  0
  -12.1843   -5.9421   -2.0240 C   0  0  0  0  0  0  0  0  0  0  0  0
  -13.1708   -6.0321   -3.1912 C   0  0  3  0  0  0  0  0  0  0  0  0
  -14.3575   -6.9022   -2.8479 C   0  0  0  0  0  0  0  0  0  0  0  0
  -14.8098   -7.0493   -1.7228 O   0  0  0  0  0  0  0  0  0  0  0  0
  -14.8911   -7.5252   -3.9221 O   0  0  0  0  0  0  0  0  0  0  0  0
  -13.6087   -4.5908   -3.4402 C   0  0  0  0  0  0  0  0  0  0  0  0
  -13.0084   -2.0781    0.2253 C   0  0  0  0  0  0  0  0  0  0  0  0
  -12.4006   -1.1680    1.0463 N   0  0  0  0  0  0  0  0  0  0  0  0
  -10.3920    1.8708    0.1959 C   0  0  0  0  0  0  0  0  0  0  0  0
   -9.8210    5.7789    1.3342 C   0  0  0  0  0  0  0  0  0  0  0  0
   -9.5131    7.0534    1.7928 C   0  0  0  0  0  0  0  0  0  0  0  0
  -10.3906    7.6956    2.5796 F   0  0  0  0  0  0  0  0  0  0  0  0
   -7.5347   13.6588    1.5439 C   0  0  0  0  0  0  0  0  0  0  0  0
   -7.3765   17.0677    1.0795 H   0  0  0  0  0  0  0  0  0  0  0  0
   -6.8780   16.2305    2.5529 H   0  0  0  0  0  0  0  0  0  0  0  0
   -8.5984   16.2531    2.0644 H   0  0  0  0  0  0  0  0  0  0  0  0
   -6.8729   15.9346   -0.9203 H   0  0  0  0  0  0  0  0  0  0  0  0
   -6.4631   13.8380   -2.1702 H   0  0  0  0  0  0  0  0  0  0  0  0
   -7.7765   11.2974    2.4957 H   0  0  0  0  0  0  0  0  0  0  0  0
   -8.7512    9.3384    2.5621 H   0  0  0  0  0  0  0  0  0  0  0  0
   -6.5244    7.5119    0.2334 H   0  0  0  0  0  0  0  0  0  0  0  0
   -7.0081    5.2007   -0.4938 H   0  0  0  0  0  0  0  0  0  0  0  0
   -9.1557    3.5960    2.8513 H   0  0  0  0  0  0  0  0  0  0  0  0
  -10.4689    1.8456    4.0077 H   0  0  0  0  0  0  0  0  0  0  0  0
  -11.5651   -0.0126   -1.8844 H   0  0  0  0  0  0  0  0  0  0  0  0
  -13.4817   -4.9582   -0.5872 H   0  0  0  0  0  0  0  0  0  0  0  0
  -11.8293   -4.2756   -0.6803 H   0  0  0  0  0  0  0  0  0  0  0  0
  -12.1469   -6.8336   -1.3913 H   0  0  0  0  0  0  0  0  0  0  0  0
  -11.1752   -5.7597   -2.4151 H   0  0  0  0  0  0  0  0  0  0  0  0
  -12.6623   -6.4622   -4.0615 H   0  0  0  0  0  0  0  0  0  0  0  0
  -14.4396   -7.3521   -4.7696 H   0  0  0  0  0  0  0  0  0  0  0  0
  -14.6951   -4.4732   -3.5220 H   0  0  0  0  0  0  0  0  0  0  0  0
  -13.1487   -4.1823   -4.3468 H   0  0  0  0  0  0  0  0  0  0  0  0
  -13.6004   -2.8777    0.6480 H   0  0  0  0  0  0  0  0  0  0  0  0
  -12.4204   -1.1609    2.0592 H   0  0  0  0  0  0  0  0  0  0  0  0
  -10.3858    1.8510   -0.8875 H   0  0  0  0  0  0  0  0  0  0  0  0
  -10.7815    5.3470    1.5921 H   0  0  0  0  0  0  0  0  0  0  0  0
   -7.8373   13.6269    2.5889 H   0  0  0  0  0  0  0  0  0  0  0  0
  1  2  1  0  0  0  0
  1 42  1  0  0  0  0
  1 43  1  0  0  0  0
  1 44  1  0  0  0  0
  2  3  1  0  0  0  0
  2 41  2  0  0  0  0
  3  4  2  0  0  0  0
  3 45  1  0  0  0  0
  4  5  1  0  0  0  0
  4 46  1  0  0  0  0
  5  6  1  0  0  0  0
  5  7  2  0  0  0  0
  7  8  1  0  0  0  0
  7 41  1  0  0  0  0
  8  9  1  0  0  0  0
  8 47  1  0  0  0  0
  9 10  2  0  0  0  0
  9 11  1  0  0  0  0
 11 12  1  0  0  0  0
 11 48  1  0  0  0  0
 12 13  1  0  0  0  0
 12 39  2  0  0  0  0
 13 14  2  0  0  0  0
 13 49  1  0  0  0  0
 14 15  1  0  0  0  0
 14 50  1  0  0  0  0
 15 16  1  0  0  0  0
 15 38  2  0  0  0  0
 16 17  1  0  0  0  0
 17 18  1  0  0  0  0
 17 37  2  0  0  0  0
 18 19  2  0  0  0  0
 18 51  1  0  0  0  0
 19 20  1  0  0  0  0
 19 52  1  0  0  0  0
 20 21  2  0  0  0  0
 21 22  1  0  0  0  0
 21 37  1  0  0  0  0
 22 23  2  0  0  0  0
 22 36  1  0  0  0  0
 23 24  1  0  0  0  0
 23 53  1  0  0  0  0
 24 25  1  0  0  0  0
 24 35  2  0  0  0  0
 25 26  2  0  0  0  0
 25 27  1  0  0  0  0
 27 28  1  0  0  0  0
 27 34  1  0  0  0  0
 28 29  1  0  0  0  0
 28 54  1  0  0  0  0
 28 55  1  0  0  0  0
 29 30  1  0  0  0  0
 29 56  1  0  0  0  0
 29 57  1  0  0  0  0
 30 31  1  0  0  0  0
 30 34  1  0  0  0  0
 30 58  1  0  0  0  0
 31 32  2  0  0  0  0
 31 33  1  0  0  0  0
 33 59  1  0  0  0  0
 34 60  1  0  0  0  0
 34 61  1  0  0  0  0
 35 36  1  0  0  0  0
 35 62  1  0  0  0  0
 36 63  1  0  0  0  0
 37 64  1  0  0  0  0
 38 39  1  0  0  0  0
 38 65  1  0  0  0  0
 39 40  1  0  0  0  0
 41 66  1  0  0  0  0
M  END
$$$$
