CHEMBL1934333
 OpenBabel04072215363D

 70 74  0  0  0  0  0  0  0  0999 V2000
    2.9283   -1.3419    0.3098 C   0  0  0  0  0  0  0  0  0  0  0  0
    2.4305   -0.0114    0.0753 O   0  0  0  0  0  0  0  0  0  0  0  0
    3.0911    0.6953   -0.9012 C   0  0  0  0  0  0  0  0  0  0  0  0
    4.2188    0.1585   -1.5254 C   0  0  0  0  0  0  0  0  0  0  0  0
    4.7424    0.7106   -2.6960 C   0  0  0  0  0  0  0  0  0  0  0  0
    5.7298    0.0831   -3.4617 C   0  0  0  0  0  0  0  0  0  0  0  0
    6.1239   -1.2414   -3.1434 N   0  0  0  0  0  0  0  0  0  0  0  0
    7.3611   -1.8573   -3.3645 C   0  0  0  0  0  0  0  0  0  0  0  0
    7.4867   -3.2375   -3.1256 C   0  0  0  0  0  0  0  0  0  0  0  0
    8.7473   -3.8459   -3.1023 C   0  0  0  0  0  0  0  0  0  0  0  0
    9.9175   -3.1190   -3.2870 C   0  0  0  0  0  0  0  0  0  0  0  0
   11.2074   -3.6939   -3.1470 N   0  0  0  0  0  0  0  0  0  0  0  0
   11.4674   -4.9053   -2.5052 C   0  0  0  0  0  0  0  0  0  0  0  0
   10.6078   -5.6165   -2.0023 O   0  0  0  0  0  0  0  0  0  0  0  0
   12.8178   -5.2004   -2.4131 N   0  0  0  0  0  0  0  0  0  0  0  0
   13.2208   -6.3962   -1.7609 C   0  0  0  0  0  0  0  0  0  0  0  0
   14.1351   -6.3222   -0.7048 C   0  0  0  0  0  0  0  0  0  0  0  0
   14.5384   -7.4851   -0.0371 C   0  0  0  0  0  0  0  0  0  0  0  0
   14.0623   -8.7271   -0.4511 C   0  0  0  0  0  0  0  0  0  0  0  0
   13.1593   -8.7966   -1.5045 C   0  0  0  0  0  0  0  0  0  0  0  0
   12.7140   -9.9930   -1.9092 F   0  0  0  0  0  0  0  0  0  0  0  0
   12.7211   -7.6424   -2.1522 C   0  0  0  0  0  0  0  0  0  0  0  0
    9.7896   -1.7544   -3.5766 C   0  0  0  0  0  0  0  0  0  0  0  0
   10.8803   -0.9987   -3.7560 F   0  0  0  0  0  0  0  0  0  0  0  0
    8.5332   -1.1412   -3.6175 C   0  0  0  0  0  0  0  0  0  0  0  0
    6.2869    0.7012   -4.5194 N   0  0  0  0  0  0  0  0  0  0  0  0
    5.8007    1.9040   -4.8219 C   0  0  0  0  0  0  0  0  0  0  0  0
    4.8086    2.5533   -4.2081 N   0  0  0  0  0  0  0  0  0  0  0  0
    4.2762    1.9372   -3.1510 C   0  0  0  0  0  0  0  0  0  0  0  0
    3.2395    2.5398   -2.4607 C   0  0  0  0  0  0  0  0  0  0  0  0
    2.6412    1.9568   -1.3260 C   0  0  0  0  0  0  0  0  0  0  0  0
    1.6464    2.6122   -0.6186 O   0  0  0  0  0  0  0  0  0  0  0  0
    1.7060    4.0471   -0.7587 C   0  0  0  0  0  0  0  0  0  0  0  0
    0.9671    4.8016    0.3580 C   0  0  0  0  0  0  0  0  0  0  0  0
   -0.5358    4.5173    0.3802 C   0  0  0  0  0  0  0  0  0  0  0  0
   -1.2530    5.1115   -0.8347 C   0  0  0  0  0  0  0  0  0  0  0  0
   -1.0014    6.5534   -0.9768 N   0  0  0  0  0  0  0  0  0  0  0  0
   -1.6733    7.0662   -2.1726 C   0  0  0  0  0  0  0  0  0  0  0  0
    0.4289    6.8821   -1.0174 C   0  0  0  0  0  0  0  0  0  0  0  0
    1.1692    6.3209    0.2024 C   0  0  0  0  0  0  0  0  0  0  0  0
    2.1631   -1.9540    0.7887 H   0  0  0  0  0  0  0  0  0  0  0  0
    3.8019   -1.2828    0.9683 H   0  0  0  0  0  0  0  0  0  0  0  0
    3.1871   -1.8809   -0.6145 H   0  0  0  0  0  0  0  0  0  0  0  0
    4.7345   -0.7029   -1.1172 H   0  0  0  0  0  0  0  0  0  0  0  0
    5.3313   -1.8730   -3.1801 H   0  0  0  0  0  0  0  0  0  0  0  0
    6.6173   -3.8507   -2.9247 H   0  0  0  0  0  0  0  0  0  0  0  0
    8.7641   -4.9156   -2.9126 H   0  0  0  0  0  0  0  0  0  0  0  0
   11.9919   -3.1222   -3.4381 H   0  0  0  0  0  0  0  0  0  0  0  0
   13.4119   -4.3971   -2.2719 H   0  0  0  0  0  0  0  0  0  0  0  0
   14.4934   -5.3609   -0.3480 H   0  0  0  0  0  0  0  0  0  0  0  0
   15.2188   -7.4205    0.8083 H   0  0  0  0  0  0  0  0  0  0  0  0
   14.3837   -9.6412    0.0420 H   0  0  0  0  0  0  0  0  0  0  0  0
   12.0060   -7.7368   -2.9636 H   0  0  0  0  0  0  0  0  0  0  0  0
    8.4951   -0.0717   -3.7995 H   0  0  0  0  0  0  0  0  0  0  0  0
    6.2697    2.4085   -5.6658 H   0  0  0  0  0  0  0  0  0  0  0  0
    2.9032    3.4952   -2.8536 H   0  0  0  0  0  0  0  0  0  0  0  0
    1.2921    4.3233   -1.7359 H   0  0  0  0  0  0  0  0  0  0  0  0
    2.7538    4.3734   -0.7132 H   0  0  0  0  0  0  0  0  0  0  0  0
    1.3933    4.4790    1.3155 H   0  0  0  0  0  0  0  0  0  0  0  0
   -0.9650    4.9539    1.2925 H   0  0  0  0  0  0  0  0  0  0  0  0
   -0.7221    3.4392    0.4321 H   0  0  0  0  0  0  0  0  0  0  0  0
   -2.3289    4.9439   -0.7014 H   0  0  0  0  0  0  0  0  0  0  0  0
   -0.9576    4.5710   -1.7418 H   0  0  0  0  0  0  0  0  0  0  0  0
   -2.7512    6.8787   -2.1188 H   0  0  0  0  0  0  0  0  0  0  0  0
   -1.2888    6.6041   -3.0896 H   0  0  0  0  0  0  0  0  0  0  0  0
   -1.5446    8.1511   -2.2549 H   0  0  0  0  0  0  0  0  0  0  0  0
    0.5542    7.9722   -1.0211 H   0  0  0  0  0  0  0  0  0  0  0  0
    0.8922    6.5136   -1.9410 H   0  0  0  0  0  0  0  0  0  0  0  0
    0.8039    6.8276    1.1056 H   0  0  0  0  0  0  0  0  0  0  0  0
    2.2368    6.5610    0.1239 H   0  0  0  0  0  0  0  0  0  0  0  0
  1  2  1  0  0  0  0
  1 41  1  0  0  0  0
  1 42  1  0  0  0  0
  1 43  1  0  0  0  0
  2  3  1  0  0  0  0
  3  4  1  0  0  0  0
  3 31  2  0  0  0  0
  4  5  2  0  0  0  0
  4 44  1  0  0  0  0
  5  6  1  0  0  0  0
  5 29  1  0  0  0  0
  6  7  1  0  0  0  0
  6 26  2  0  0  0  0
  7  8  1  0  0  0  0
  7 45  1  0  0  0  0
  8  9  1  0  0  0  0
  8 25  2  0  0  0  0
  9 10  2  0  0  0  0
  9 46  1  0  0  0  0
 10 11  1  0  0  0  0
 10 47  1  0  0  0  0
 11 12  1  0  0  0  0
 11 23  2  0  0  0  0
 12 13  1  0  0  0  0
 12 48  1  0  0  0  0
 13 14  2  0  0  0  0
 13 15  1  0  0  0  0
 15 16  1  0  0  0  0
 15 49  1  0  0  0  0
 16 17  1  0  0  0  0
 16 22  2  0  0  0  0
 17 18  2  0  0  0  0
 17 50  1  0  0  0  0
 18 19  1  0  0  0  0
 18 51  1  0  0  0  0
 19 20  2  0  0  0  0
 19 52  1  0  0  0  0
 20 21  1  0  0  0  0
 20 22  1  0  0  0  0
 22 53  1  0  0  0  0
 23 24  1  0  0  0  0
 23 25  1  0  0  0  0
 25 54  1  0  0  0  0
 26 27  1  0  0  0  0
 27 28  2  0  0  0  0
 27 55  1  0  0  0  0
 28 29  1  0  0  0  0
 29 30  2  0  0  0  0
 30 31  1  0  0  0  0
 30 56  1  0  0  0  0
 31 32  1  0  0  0  0
 32 33  1  0  0  0  0
 33 34  1  0  0  0  0
 33 57  1  0  0  0  0
 33 58  1  0  0  0  0
 34 35  1  0  0  0  0
 34 40  1  0  0  0  0
 34 59  1  0  0  0  0
 35 36  1  0  0  0  0
 35 60  1  0  0  0  0
 35 61  1  0  0  0  0
 36 37  1  0  0  0  0
 36 62  1  0  0  0  0
 36 63  1  0  0  0  0
 37 38  1  0  0  0  0
 37 39  1  0  0  0  0
 38 64  1  0  0  0  0
 38 65  1  0  0  0  0
 38 66  1  0  0  0  0
 39 40  1  0  0  0  0
 39 67  1  0  0  0  0
 39 68  1  0  0  0  0
 40 69  1  0  0  0  0
 40 70  1  0  0  0  0
M  END
$$$$
