CHEMBL3909992
 OpenBabel04072215373D

 55 58  0  0  0  0  0  0  0  0999 V2000
    2.6281    0.2102    0.1363 C   0  0  0  0  0  0  0  0  0  0  0  0
    1.1292    0.0717    0.1436 C   0  0  0  0  0  0  0  0  0  0  0  0
    0.3849    1.2714    0.1511 C   0  0  0  0  0  0  0  0  0  0  0  0
   -1.0029    1.2785   -0.0051 C   0  0  0  0  0  0  0  0  0  0  0  0
   -1.7667    2.4196   -0.0915 O   0  0  0  0  0  0  0  0  0  0  0  0
   -1.2351    3.5229   -0.7382 C   0  0  0  0  0  0  0  0  0  0  0  0
   -0.3666    3.4276   -1.8216 C   0  0  0  0  0  0  0  0  0  0  0  0
    0.1827    4.5927   -2.3015 C   0  0  0  0  0  0  0  0  0  0  0  0
   -0.1404    5.8091   -1.8317 N   0  0  0  0  0  0  0  0  0  0  0  0
   -1.0557    5.9095   -0.8526 C   0  0  0  0  0  0  0  0  0  0  0  0
   -1.4357    7.1834   -0.3923 N   0  0  0  0  0  0  0  0  0  0  0  0
   -0.8958    8.3624   -0.8673 C   0  0  0  0  0  0  0  0  0  0  0  0
   -0.0241    8.4928   -1.7163 O   0  0  0  0  0  0  0  0  0  0  0  0
   -1.4139    9.6283   -0.2666 C   0  0  0  0  0  0  0  0  0  0  0  0
   -1.1988    9.8899    1.2059 C   0  0  0  0  0  0  0  0  0  0  0  0
   -2.5913    9.7848    0.6554 C   0  0  0  0  0  0  0  0  0  0  0  0
   -1.6299    4.7811   -0.2772 C   0  0  0  0  0  0  0  0  0  0  0  0
   -1.6723    0.0690   -0.0575 C   0  0  0  0  0  0  0  0  0  0  0  0
   -0.9575   -1.1299    0.0017 C   0  0  0  0  0  0  0  0  0  0  0  0
    0.4452   -1.1613    0.0979 C   0  0  0  0  0  0  0  0  0  0  0  0
    1.1640   -2.3892    0.1648 N   0  0  0  0  0  0  0  0  0  0  0  0
    0.6057   -3.6470    0.3727 C   0  0  0  0  0  0  0  0  0  0  0  0
   -0.5914   -3.8809    0.4761 O   0  0  0  0  0  0  0  0  0  0  0  0
    1.5685   -4.6369    0.5378 N   0  0  0  0  0  0  0  0  0  0  0  0
    1.1781   -5.9703    0.8341 C   0  0  0  0  0  0  0  0  0  0  0  0
    1.8160   -6.6362    1.8844 C   0  0  0  0  0  0  0  0  0  0  0  0
    1.3962   -7.9130    2.2650 C   0  0  0  0  0  0  0  0  0  0  0  0
    0.3795   -8.5587    1.5607 C   0  0  0  0  0  0  0  0  0  0  0  0
   -0.2342   -7.9337    0.4665 C   0  0  0  0  0  0  0  0  0  0  0  0
   -1.2966   -8.6459   -0.3355 C   0  0  0  0  0  0  0  0  0  0  0  0
   -1.5351   -9.9191    0.0947 F   0  0  0  0  0  0  0  0  0  0  0  0
   -2.5022   -8.0160   -0.3080 F   0  0  0  0  0  0  0  0  0  0  0  0
   -0.9629   -8.7638   -1.6517 F   0  0  0  0  0  0  0  0  0  0  0  0
    0.1629   -6.6276    0.1216 C   0  0  0  0  0  0  0  0  0  0  0  0
    2.9313    1.2448    0.3397 H   0  0  0  0  0  0  0  0  0  0  0  0
    3.0189   -0.0482   -0.8547 H   0  0  0  0  0  0  0  0  0  0  0  0
    3.0947   -0.4146    0.8993 H   0  0  0  0  0  0  0  0  0  0  0  0
    0.9108    2.2200    0.2480 H   0  0  0  0  0  0  0  0  0  0  0  0
   -0.0791    2.4784   -2.2558 H   0  0  0  0  0  0  0  0  0  0  0  0
    0.9279    4.5859   -3.0906 H   0  0  0  0  0  0  0  0  0  0  0  0
   -2.1284    7.2263    0.3335 H   0  0  0  0  0  0  0  0  0  0  0  0
   -1.2386   10.4746   -0.9296 H   0  0  0  0  0  0  0  0  0  0  0  0
   -0.8147   10.8668    1.4795 H   0  0  0  0  0  0  0  0  0  0  0  0
   -0.8284    9.0833    1.8283 H   0  0  0  0  0  0  0  0  0  0  0  0
   -3.1645   10.7061    0.5682 H   0  0  0  0  0  0  0  0  0  0  0  0
   -3.1968    8.9339    0.9306 H   0  0  0  0  0  0  0  0  0  0  0  0
   -2.3584    4.8579    0.5232 H   0  0  0  0  0  0  0  0  0  0  0  0
   -2.7564    0.0360   -0.1498 H   0  0  0  0  0  0  0  0  0  0  0  0
   -1.5445   -2.0402   -0.0680 H   0  0  0  0  0  0  0  0  0  0  0  0
    2.1681   -2.3408    0.0901 H   0  0  0  0  0  0  0  0  0  0  0  0
    2.4224   -4.3233    0.9741 H   0  0  0  0  0  0  0  0  0  0  0  0
    2.5938   -6.1473    2.4630 H   0  0  0  0  0  0  0  0  0  0  0  0
    1.8527   -8.4020    3.1225 H   0  0  0  0  0  0  0  0  0  0  0  0
    0.0672   -9.5559    1.8702 H   0  0  0  0  0  0  0  0  0  0  0  0
   -0.3271   -6.1265   -0.7124 H   0  0  0  0  0  0  0  0  0  0  0  0
  1  2  1  0  0  0  0
  1 35  1  0  0  0  0
  1 36  1  0  0  0  0
  1 37  1  0  0  0  0
  2  3  1  0  0  0  0
  2 20  2  0  0  0  0
  3  4  2  0  0  0  0
  3 38  1  0  0  0  0
  4  5  1  0  0  0  0
  4 18  1  0  0  0  0
  5  6  1  0  0  0  0
  6  7  1  0  0  0  0
  6 17  2  0  0  0  0
  7  8  2  0  0  0  0
  7 39  1  0  0  0  0
  8  9  1  0  0  0  0
  8 40  1  0  0  0  0
  9 10  2  0  0  0  0
 10 11  1  0  0  0  0
 10 17  1  0  0  0  0
 11 12  1  0  0  0  0
 11 41  1  0  0  0  0
 12 13  2  0  0  0  0
 12 14  1  0  0  0  0
 14 15  1  0  0  0  0
 14 16  1  0  0  0  0
 14 42  1  0  0  0  0
 15 16  1  0  0  0  0
 15 43  1  0  0  0  0
 15 44  1  0  0  0  0
 16 45  1  0  0  0  0
 16 46  1  0  0  0  0
 17 47  1  0  0  0  0
 18 19  2  0  0  0  0
 18 48  1  0  0  0  0
 19 20  1  0  0  0  0
 19 49  1  0  0  0  0
 20 21  1  0  0  0  0
 21 22  1  0  0  0  0
 21 50  1  0  0  0  0
 22 23  2  0  0  0  0
 22 24  1  0  0  0  0
 24 25  1  0  0  0  0
 24 51  1  0  0  0  0
 25 26  1  0  0  0  0
 25 34  2  0  0  0  0
 26 27  2  0  0  0  0
 26 52  1  0  0  0  0
 27 28  1  0  0  0  0
 27 53  1  0  0  0  0
 28 29  2  0  0  0  0
 28 54  1  0  0  0  0
 29 30  1  0  0  0  0
 29 34  1  0  0  0  0
 30 31  1  0  0  0  0
 30 32  1  0  0  0  0
 30 33  1  0  0  0  0
 34 55  1  0  0  0  0
M  END
$$$$
