CHEMBL607707
 OpenBabel04072215383D

 56 58  0  0  0  0  0  0  0  0999 V2000
    1.0015   -2.5205   -0.6156 C   0  0  0  0  0  0  0  0  0  0  0  0
    2.3006   -2.1434   -1.2968 C   0  0  0  0  0  0  0  0  0  0  0  0
    3.1284   -1.4155   -0.3723 O   0  0  0  0  0  0  0  0  0  0  0  0
    4.4740   -1.4622   -0.6667 C   0  0  0  0  0  0  0  0  0  0  0  0
    4.9516   -1.6673   -1.9682 C   0  0  0  0  0  0  0  0  0  0  0  0
    6.2917   -1.8759   -2.2335 C   0  0  0  0  0  0  0  0  0  0  0  0
    6.6258   -2.1856   -3.4898 N   0  0  0  0  0  0  0  0  0  0  0  0
    7.9141   -2.4758   -3.7475 C   0  0  0  0  0  0  0  0  0  0  0  0
    8.9273   -2.4317   -2.8051 C   0  0  0  0  0  0  0  0  0  0  0  0
   10.2171   -2.8702   -3.2068 C   0  0  0  0  0  0  0  0  0  0  0  0
   11.2547   -3.2458   -3.5807 N   0  0  0  0  0  0  0  0  0  0  0  0
    8.6053   -2.0666   -1.4916 C   0  0  0  0  0  0  0  0  0  0  0  0
    9.5916   -1.9727   -0.4737 N   0  0  0  0  0  0  0  0  0  0  0  0
   10.8661   -1.3728   -0.4627 C   0  0  0  0  0  0  0  0  0  0  0  0
   11.8019   -1.7915    0.4983 C   0  0  0  0  0  0  0  0  0  0  0  0
   13.0892   -1.2461    0.5399 C   0  0  0  0  0  0  0  0  0  0  0  0
   13.4578   -0.2842   -0.3916 C   0  0  0  0  0  0  0  0  0  0  0  0
   14.6880    0.2459   -0.3215 F   0  0  0  0  0  0  0  0  0  0  0  0
   12.5577    0.1246   -1.3703 C   0  0  0  0  0  0  0  0  0  0  0  0
   13.0101    1.3102   -2.5357 Cl  0  0  0  0  0  0  0  0  0  0  0  0
   11.2688   -0.4185   -1.4077 C   0  0  0  0  0  0  0  0  0  0  0  0
    7.2329   -1.7896   -1.1915 C   0  0  0  0  0  0  0  0  0  0  0  0
    6.7562   -1.4570    0.0937 C   0  0  0  0  0  0  0  0  0  0  0  0
    5.3918   -1.3292    0.3848 C   0  0  0  0  0  0  0  0  0  0  0  0
    4.9154   -1.1078    1.7097 N   0  0  0  0  0  0  0  0  0  0  0  0
    5.6996   -1.0880    2.8453 C   0  0  0  0  0  0  0  0  0  0  0  0
    6.9100   -1.2914    2.8946 O   0  0  0  0  0  0  0  0  0  0  0  0
    4.9607   -0.7847    4.1014 C   0  0  0  0  0  0  0  0  0  0  0  0
    5.6879   -0.6003    5.2186 C   0  0  0  0  0  0  0  0  0  0  0  0
    5.1586   -0.1783    6.5519 C   0  0  0  0  0  0  0  0  0  0  0  0
    5.7735    1.0805    6.9996 N   0  0  0  0  0  0  0  0  0  0  0  0
    5.4920    2.1936    6.0888 C   0  0  0  0  0  0  0  0  0  0  0  0
    5.3058    1.4147    8.3457 C   0  0  0  0  0  0  0  0  0  0  0  0
    0.3293   -3.0183   -1.3216 H   0  0  0  0  0  0  0  0  0  0  0  0
    0.5021   -1.6388   -0.2052 H   0  0  0  0  0  0  0  0  0  0  0  0
    1.1994   -3.2037    0.2163 H   0  0  0  0  0  0  0  0  0  0  0  0
    2.0870   -1.5189   -2.1730 H   0  0  0  0  0  0  0  0  0  0  0  0
    2.7879   -3.0733   -1.6174 H   0  0  0  0  0  0  0  0  0  0  0  0
    4.2722   -1.7185   -2.8140 H   0  0  0  0  0  0  0  0  0  0  0  0
    8.1080   -2.7773   -4.7701 H   0  0  0  0  0  0  0  0  0  0  0  0
    9.2967   -2.3333    0.4309 H   0  0  0  0  0  0  0  0  0  0  0  0
   11.5374   -2.5557    1.2264 H   0  0  0  0  0  0  0  0  0  0  0  0
   13.8042   -1.5658    1.2919 H   0  0  0  0  0  0  0  0  0  0  0  0
   10.5770   -0.0687   -2.1682 H   0  0  0  0  0  0  0  0  0  0  0  0
    7.4919   -1.3125    0.8721 H   0  0  0  0  0  0  0  0  0  0  0  0
    3.9117   -0.9927    1.7868 H   0  0  0  0  0  0  0  0  0  0  0  0
    3.8862   -0.6722    4.0832 H   0  0  0  0  0  0  0  0  0  0  0  0
    6.7731   -0.7110    5.1847 H   0  0  0  0  0  0  0  0  0  0  0  0
    5.4214   -0.9735    7.2627 H   0  0  0  0  0  0  0  0  0  0  0  0
    4.0646   -0.1058    6.5379 H   0  0  0  0  0  0  0  0  0  0  0  0
    5.9323    2.0233    5.1001 H   0  0  0  0  0  0  0  0  0  0  0  0
    5.9485    3.1183    6.4597 H   0  0  0  0  0  0  0  0  0  0  0  0
    4.4167    2.3634    5.9658 H   0  0  0  0  0  0  0  0  0  0  0  0
    5.5620    0.6193    9.0539 H   0  0  0  0  0  0  0  0  0  0  0  0
    4.2212    1.5698    8.3752 H   0  0  0  0  0  0  0  0  0  0  0  0
    5.7939    2.3263    8.7085 H   0  0  0  0  0  0  0  0  0  0  0  0
  1  2  1  0  0  0  0
  1 34  1  0  0  0  0
  1 35  1  0  0  0  0
  1 36  1  0  0  0  0
  2  3  1  0  0  0  0
  2 37  1  0  0  0  0
  2 38  1  0  0  0  0
  3  4  1  0  0  0  0
  4  5  1  0  0  0  0
  4 24  2  0  0  0  0
  5  6  2  0  0  0  0
  5 39  1  0  0  0  0
  6  7  1  0  0  0  0
  6 22  1  0  0  0  0
  7  8  2  0  0  0  0
  8  9  1  0  0  0  0
  8 40  1  0  0  0  0
  9 10  1  0  0  0  0
  9 12  2  0  0  0  0
 10 11  3  0  0  0  0
 12 13  1  0  0  0  0
 12 22  1  0  0  0  0
 13 14  1  0  0  0  0
 13 41  1  0  0  0  0
 14 15  1  0  0  0  0
 14 21  2  0  0  0  0
 15 16  2  0  0  0  0
 15 42  1  0  0  0  0
 16 17  1  0  0  0  0
 16 43  1  0  0  0  0
 17 18  1  0  0  0  0
 17 19  2  0  0  0  0
 19 20  1  0  0  0  0
 19 21  1  0  0  0  0
 21 44  1  0  0  0  0
 22 23  2  0  0  0  0
 23 24  1  0  0  0  0
 23 45  1  0  0  0  0
 24 25  1  0  0  0  0
 25 26  1  0  0  0  0
 25 46  1  0  0  0  0
 26 27  2  0  0  0  0
 26 28  1  0  0  0  0
 28 29  2  0  0  0  0
 28 47  1  0  0  0  0
 29 30  1  0  0  0  0
 29 48  1  0  0  0  0
 30 31  1  0  0  0  0
 30 49  1  0  0  0  0
 30 50  1  0  0  0  0
 31 32  1  0  0  0  0
 31 33  1  0  0  0  0
 32 51  1  0  0  0  0
 32 52  1  0  0  0  0
 32 53  1  0  0  0  0
 33 54  1  0  0  0  0
 33 55  1  0  0  0  0
 33 56  1  0  0  0  0
M  END
$$$$
