CHEMBL1094825
 OpenBabel04072215363D

 76 79  0  0  1  0  0  0  0  0999 V2000
   -0.4633    0.1644    2.3911 Cl  0  0  0  0  0  0  0  0  0  0  0  0
    1.2265    0.1135   -0.8581 N   0  0  0  0  0  0  0  0  0  0  0  0
    2.6406    0.1091   -0.4834 C   0  0  3  0  0  0  0  0  0  0  0  0
    3.0314   -1.0573    0.4522 C   0  0  0  0  0  0  0  0  0  0  0  0
    4.5756   -1.1387    0.5769 C   0  0  0  0  0  0  0  0  0  0  0  0
    5.1915    0.2322    0.7482 C   0  0  0  0  0  0  0  0  0  0  0  0
    4.4562    1.3964    0.6150 C   0  0  0  0  0  0  0  0  0  0  0  0
    5.3138    2.4343    0.8525 C   0  0  0  0  0  0  0  0  0  0  0  0
    5.0734    3.8146    0.8586 C   0  0  0  0  0  0  0  0  0  0  0  0
    6.1591    4.6780    1.0994 C   0  0  0  0  0  0  0  0  0  0  0  0
    5.9638    6.0254    1.1226 O   0  0  0  0  0  0  0  0  0  0  0  0
    6.9992    6.9222    1.3293 C   0  0  0  0  0  0  0  0  0  0  0  0
    6.5060    8.3673    1.3367 C   0  0  0  0  0  0  0  0  0  0  0  0
    7.6902    9.2950    1.5061 C   0  0  0  0  0  0  0  0  0  0  0  0
    8.0261   10.2129    0.4968 C   0  0  0  0  0  0  0  0  0  0  0  0
    9.1344   11.0481    0.6410 C   0  0  0  0  0  0  0  0  0  0  0  0
    9.9272   10.9804    1.7984 C   0  0  0  0  0  0  0  0  0  0  0  0
   11.0069   11.7733    1.9468 O   0  0  0  0  0  0  0  0  0  0  0  0
    9.5992   10.0718    2.8068 C   0  0  0  0  0  0  0  0  0  0  0  0
    8.4866    9.2372    2.6674 C   0  0  0  0  0  0  0  0  0  0  0  0
    7.4437    4.1173    1.2975 C   0  0  0  0  0  0  0  0  0  0  0  0
    7.6522    2.7435    1.2855 C   0  0  0  0  0  0  0  0  0  0  0  0
    6.5617    1.8829    1.0714 C   0  0  0  0  0  0  0  0  0  0  0  0
    6.4997    0.5116    1.0077 N   0  0  0  0  0  0  0  0  0  0  0  0
    7.5436   -0.5380    1.1335 C   0  0  0  0  0  0  0  0  0  0  0  0
    8.6900   -0.1545    2.0600 C   0  0  0  0  0  0  0  0  0  0  0  0
    9.7410   -1.2360    2.2961 C   0  0  0  0  0  0  0  0  0  0  0  0
   10.8178   -0.6242    3.2060 C   0  0  0  0  0  0  0  0  0  0  0  0
   11.9874   -1.5670    3.4787 C   0  0  0  0  0  0  0  0  0  0  0  0
   13.0063   -0.8667    4.3485 C   0  0  0  0  0  0  0  0  0  0  0  0
   12.6636   -0.4387    5.6431 C   0  0  0  0  0  0  0  0  0  0  0  0
   13.5945    0.2339    6.4381 C   0  0  0  0  0  0  0  0  0  0  0  0
   14.8901    0.4871    5.9554 C   0  0  0  0  0  0  0  0  0  0  0  0
   15.9146    1.2180    6.7857 C   0  0  0  0  0  0  0  0  0  0  0  0
   15.4037    1.5858    8.0204 F   0  0  0  0  0  0  0  0  0  0  0  0
   17.0110    0.4014    6.9886 F   0  0  0  0  0  0  0  0  0  0  0  0
   16.3164    2.3603    6.1196 F   0  0  0  0  0  0  0  0  0  0  0  0
   15.2347    0.0499    4.6661 C   0  0  0  0  0  0  0  0  0  0  0  0
   14.3020   -0.6200    3.8691 C   0  0  0  0  0  0  0  0  0  0  0  0
    3.0195    1.4469    0.2033 C   0  0  0  0  0  0  0  0  0  0  0  0
    0.2445   -0.7346    1.6295 H   0  0  0  0  0  0  0  0  0  0  0  0
    0.8838   -0.8583   -1.0370 H   0  0  0  0  0  0  0  0  0  0  0  0
    0.6245    0.5952   -0.1569 H   0  0  0  0  0  0  0  0  0  0  0  0
    3.2272   -0.0166   -1.4198 H   0  0  0  0  0  0  0  0  0  0  0  0
    2.6621   -2.0377    0.0812 H   0  0  0  0  0  0  0  0  0  0  0  0
    2.5807   -0.8746    1.4525 H   0  0  0  0  0  0  0  0  0  0  0  0
    5.0147   -1.5809   -0.3419 H   0  0  0  0  0  0  0  0  0  0  0  0
    4.8074   -1.8013    1.4387 H   0  0  0  0  0  0  0  0  0  0  0  0
    4.0809    4.2085    0.6893 H   0  0  0  0  0  0  0  0  0  0  0  0
    7.7440    6.8085    0.5116 H   0  0  0  0  0  0  0  0  0  0  0  0
    7.4763    6.7021    2.3068 H   0  0  0  0  0  0  0  0  0  0  0  0
    5.7804    8.5221    2.1628 H   0  0  0  0  0  0  0  0  0  0  0  0
    5.9898    8.5682    0.3726 H   0  0  0  0  0  0  0  0  0  0  0  0
    7.4293   10.2775   -0.4055 H   0  0  0  0  0  0  0  0  0  0  0  0
    9.3812   11.7493   -0.1462 H   0  0  0  0  0  0  0  0  0  0  0  0
   11.2713   12.4123    1.2705 H   0  0  0  0  0  0  0  0  0  0  0  0
   10.2061   10.0086    3.7020 H   0  0  0  0  0  0  0  0  0  0  0  0
    8.2541    8.5393    3.4636 H   0  0  0  0  0  0  0  0  0  0  0  0
    8.3101    4.7391    1.4729 H   0  0  0  0  0  0  0  0  0  0  0  0
    8.6617    2.4642    1.4390 H   0  0  0  0  0  0  0  0  0  0  0  0
    7.9285   -0.7986    0.1243 H   0  0  0  0  0  0  0  0  0  0  0  0
    7.0850   -1.4535    1.5614 H   0  0  0  0  0  0  0  0  0  0  0  0
    8.2651    0.1708    3.0365 H   0  0  0  0  0  0  0  0  0  0  0  0
    9.2681    0.6256    1.5703 H   0  0  0  0  0  0  0  0  0  0  0  0
   10.1932   -1.5289    1.3217 H   0  0  0  0  0  0  0  0  0  0  0  0
    9.2892   -2.1301    2.7746 H   0  0  0  0  0  0  0  0  0  0  0  0
   10.3380   -0.3303    4.1650 H   0  0  0  0  0  0  0  0  0  0  0  0
   11.2252    0.2958    2.7253 H   0  0  0  0  0  0  0  0  0  0  0  0
   12.4421   -1.8489    2.5029 H   0  0  0  0  0  0  0  0  0  0  0  0
   11.6304   -2.4879    3.9815 H   0  0  0  0  0  0  0  0  0  0  0  0
   11.6715   -0.6177    6.0380 H   0  0  0  0  0  0  0  0  0  0  0  0
   13.2942    0.5561    7.4269 H   0  0  0  0  0  0  0  0  0  0  0  0
   16.2275    0.2343    4.2745 H   0  0  0  0  0  0  0  0  0  0  0  0
   14.5899   -0.9367    2.8745 H   0  0  0  0  0  0  0  0  0  0  0  0
    2.8672    2.2589   -0.5376 H   0  0  0  0  0  0  0  0  0  0  0  0
    2.3975    1.6554    1.1021 H   0  0  0  0  0  0  0  0  0  0  0  0
  1 41  1  0  0  0  0
  2  3  1  0  0  0  0
  2 42  1  0  0  0  0
  2 43  1  0  0  0  0
  3  4  1  0  0  0  0
  3 40  1  0  0  0  0
  3 44  1  0  0  0  0
  4  5  1  0  0  0  0
  4 45  1  0  0  0  0
  4 46  1  0  0  0  0
  5  6  1  0  0  0  0
  5 47  1  0  0  0  0
  5 48  1  0  0  0  0
  6  7  2  0  0  0  0
  6 24  1  0  0  0  0
  7  8  1  0  0  0  0
  7 40  1  0  0  0  0
  8  9  1  0  0  0  0
  8 23  2  0  0  0  0
  9 10  2  0  0  0  0
  9 49  1  0  0  0  0
 10 11  1  0  0  0  0
 10 21  1  0  0  0  0
 11 12  1  0  0  0  0
 12 13  1  0  0  0  0
 12 50  1  0  0  0  0
 12 51  1  0  0  0  0
 13 14  1  0  0  0  0
 13 52  1  0  0  0  0
 13 53  1  0  0  0  0
 14 15  1  0  0  0  0
 14 20  2  0  0  0  0
 15 16  2  0  0  0  0
 15 54  1  0  0  0  0
 16 17  1  0  0  0  0
 16 55  1  0  0  0  0
 17 18  1  0  0  0  0
 17 19  2  0  0  0  0
 18 56  1  0  0  0  0
 19 20  1  0  0  0  0
 19 57  1  0  0  0  0
 20 58  1  0  0  0  0
 21 22  2  0  0  0  0
 21 59  1  0  0  0  0
 22 23  1  0  0  0  0
 22 60  1  0  0  0  0
 23 24  1  0  0  0  0
 24 25  1  0  0  0  0
 25 26  1  0  0  0  0
 25 61  1  0  0  0  0
 25 62  1  0  0  0  0
 26 27  1  0  0  0  0
 26 63  1  0  0  0  0
 26 64  1  0  0  0  0
 27 28  1  0  0  0  0
 27 65  1  0  0  0  0
 27 66  1  0  0  0  0
 28 29  1  0  0  0  0
 28 67  1  0  0  0  0
 28 68  1  0  0  0  0
 29 30  1  0  0  0  0
 29 69  1  0  0  0  0
 29 70  1  0  0  0  0
 30 31  1  0  0  0  0
 30 39  2  0  0  0  0
 31 32  2  0  0  0  0
 31 71  1  0  0  0  0
 32 33  1  0  0  0  0
 32 72  1  0  0  0  0
 33 34  1  0  0  0  0
 33 38  2  0  0  0  0
 34 35  1  0  0  0  0
 34 36  1  0  0  0  0
 34 37  1  0  0  0  0
 38 39  1  0  0  0  0
 38 73  1  0  0  0  0
 39 74  1  0  0  0  0
 40 75  1  0  0  0  0
 40 76  1  0  0  0  0
M  END
$$$$
