CHEMBL3690532
 OpenBabel04072215373D

 54 58  0  0  0  0  0  0  0  0999 V2000
    5.4347   -3.1793   -1.1880 O   0  0  0  0  0  0  0  0  0  0  0  0
    6.3629   -2.7612   -1.8619 C   0  0  0  0  0  0  0  0  0  0  0  0
    7.0882   -3.5988   -2.6876 N   0  0  0  0  0  0  0  0  0  0  0  0
    6.8372   -5.0431   -2.6102 C   0  0  0  0  0  0  0  0  0  0  0  0
    7.5547   -5.7599   -1.4582 C   0  0  0  0  0  0  0  0  0  0  0  0
    8.3757   -4.9240   -0.7792 F   0  0  0  0  0  0  0  0  0  0  0  0
    6.6958   -6.3133   -0.5796 F   0  0  0  0  0  0  0  0  0  0  0  0
    8.3348   -6.7554   -1.9488 F   0  0  0  0  0  0  0  0  0  0  0  0
    6.8222   -1.4669   -1.9387 N   0  0  0  0  0  0  0  0  0  0  0  0
    6.3110   -0.3379   -1.2664 C   0  0  0  0  0  0  0  0  0  0  0  0
    5.1880   -0.3590   -0.4439 C   0  0  0  0  0  0  0  0  0  0  0  0
    4.7212    0.8191    0.1417 C   0  0  0  0  0  0  0  0  0  0  0  0
    5.3689    2.0316   -0.0975 C   0  0  0  0  0  0  0  0  0  0  0  0
    6.5102    2.0794   -0.9055 C   0  0  0  0  0  0  0  0  0  0  0  0
    7.2096    3.3520   -1.1169 C   0  0  0  0  0  0  0  0  0  0  0  0
    7.3869    4.4160   -0.2429 C   0  0  0  0  0  0  0  0  0  0  0  0
    8.1533    5.4117   -0.7889 N   0  0  0  0  0  0  0  0  0  0  0  0
    8.4381    5.0012   -2.0003 C   0  0  0  0  0  0  0  0  0  0  0  0
    9.1875    5.6270   -3.0397 C   0  0  0  0  0  0  0  0  0  0  0  0
    9.3232    5.0441   -4.2566 C   0  0  0  0  0  0  0  0  0  0  0  0
   10.0119    5.7640   -5.3588 C   0  0  0  0  0  0  0  0  0  0  0  0
   10.1370    5.1110   -6.5311 N   0  0  0  0  0  0  0  0  0  0  0  0
   10.5930    5.8378   -7.5688 C   0  0  0  0  0  0  0  0  0  0  0  0
   10.9327    7.1667   -7.4748 C   0  0  0  0  0  0  0  0  0  0  0  0
   11.3189    7.8388   -8.5640 F   0  0  0  0  0  0  0  0  0  0  0  0
   10.7977    7.7483   -6.2267 C   0  0  0  0  0  0  0  0  0  0  0  0
   11.0333    9.1036   -5.9593 N   0  0  0  0  0  0  0  0  0  0  0  0
   12.1459    9.8328   -6.5535 C   0  0  0  0  0  0  0  0  0  0  0  0
   12.0552   11.3368   -6.5593 C   0  0  0  0  0  0  0  0  0  0  0  0
   12.0457   10.5781   -7.8514 C   0  0  0  0  0  0  0  0  0  0  0  0
   10.3411    7.0535   -5.1653 N   0  0  0  0  0  0  0  0  0  0  0  0
    8.6954    3.7339   -4.4876 C   0  0  0  0  0  0  0  0  0  0  0  0
    7.9634    3.1560   -3.5257 C   0  0  0  0  0  0  0  0  0  0  0  0
    7.8538    3.7646   -2.2785 N   0  0  0  0  0  0  0  0  0  0  0  0
    6.9814    0.8775   -1.4597 C   0  0  0  0  0  0  0  0  0  0  0  0
    8.0469   -3.3292   -2.8552 H   0  0  0  0  0  0  0  0  0  0  0  0
    7.1629   -5.4611   -3.5675 H   0  0  0  0  0  0  0  0  0  0  0  0
    5.7574   -5.2125   -2.5314 H   0  0  0  0  0  0  0  0  0  0  0  0
    7.5754   -1.3022   -2.5868 H   0  0  0  0  0  0  0  0  0  0  0  0
    4.6447   -1.2763   -0.2401 H   0  0  0  0  0  0  0  0  0  0  0  0
    3.8434    0.7888    0.7836 H   0  0  0  0  0  0  0  0  0  0  0  0
    4.9698    2.9346    0.3587 H   0  0  0  0  0  0  0  0  0  0  0  0
    7.0158    4.5005    0.7697 H   0  0  0  0  0  0  0  0  0  0  0  0
    9.6059    6.6042   -2.8158 H   0  0  0  0  0  0  0  0  0  0  0  0
   10.6536    5.3167   -8.5193 H   0  0  0  0  0  0  0  0  0  0  0  0
   10.8960    9.2225   -4.9565 H   0  0  0  0  0  0  0  0  0  0  0  0
   13.1144    9.4090   -6.2970 H   0  0  0  0  0  0  0  0  0  0  0  0
   12.9412   11.8989   -6.2933 H   0  0  0  0  0  0  0  0  0  0  0  0
   11.1239   11.7930   -6.2417 H   0  0  0  0  0  0  0  0  0  0  0  0
   12.9314   10.6376   -8.4733 H   0  0  0  0  0  0  0  0  0  0  0  0
   11.1171   10.5144   -8.4055 H   0  0  0  0  0  0  0  0  0  0  0  0
    8.8055    3.2659   -5.4604 H   0  0  0  0  0  0  0  0  0  0  0  0
    7.4444    2.2254   -3.6990 H   0  0  0  0  0  0  0  0  0  0  0  0
    7.9035    0.8769   -2.0337 H   0  0  0  0  0  0  0  0  0  0  0  0
  1  2  2  0  0  0  0
  2  3  1  0  0  0  0
  2  9  1  0  0  0  0
  3  4  1  0  0  0  0
  3 36  1  0  0  0  0
  4  5  1  0  0  0  0
  4 37  1  0  0  0  0
  4 38  1  0  0  0  0
  5  6  1  0  0  0  0
  5  7  1  0  0  0  0
  5  8  1  0  0  0  0
  9 10  1  0  0  0  0
  9 39  1  0  0  0  0
 10 11  1  0  0  0  0
 10 35  2  0  0  0  0
 11 12  2  0  0  0  0
 11 40  1  0  0  0  0
 12 13  1  0  0  0  0
 12 41  1  0  0  0  0
 13 14  2  0  0  0  0
 13 42  1  0  0  0  0
 14 15  1  0  0  0  0
 14 35  1  0  0  0  0
 15 16  2  0  0  0  0
 15 34  1  0  0  0  0
 16 17  1  0  0  0  0
 16 43  1  0  0  0  0
 17 18  2  0  0  0  0
 18 19  1  0  0  0  0
 18 34  1  0  0  0  0
 19 20  2  0  0  0  0
 19 44  1  0  0  0  0
 20 21  1  0  0  0  0
 20 32  1  0  0  0  0
 21 22  1  0  0  0  0
 21 31  2  0  0  0  0
 22 23  2  0  0  0  0
 23 24  1  0  0  0  0
 23 45  1  0  0  0  0
 24 25  1  0  0  0  0
 24 26  2  0  0  0  0
 26 27  1  0  0  0  0
 26 31  1  0  0  0  0
 27 28  1  0  0  0  0
 27 46  1  0  0  0  0
 28 29  1  0  0  0  0
 28 30  1  0  0  0  0
 28 47  1  0  0  0  0
 29 30  1  0  0  0  0
 29 48  1  0  0  0  0
 29 49  1  0  0  0  0
 30 50  1  0  0  0  0
 30 51  1  0  0  0  0
 32 33  2  0  0  0  0
 32 52  1  0  0  0  0
 33 34  1  0  0  0  0
 33 53  1  0  0  0  0
 35 54  1  0  0  0  0
M  END
$$$$
