CHEMBL3671559
 OpenBabel04072215373D

 57 60  0  0  1  0  0  0  0  0999 V2000
    5.1022   -0.5777    1.9920 C   0  0  0  0  0  0  0  0  0  0  0  0
    4.3652    0.4839    1.6395 C   0  0  0  0  0  0  0  0  0  0  0  0
    4.0421    0.7486    0.2218 C   0  0  0  0  0  0  0  0  0  0  0  0
    3.5019   -0.0948   -0.4987 O   0  0  0  0  0  0  0  0  0  0  0  0
    4.1805    2.0560   -0.0746 N   0  0  0  0  0  0  0  0  0  0  0  0
    5.0460    2.7450   -0.9411 C   0  0  0  0  0  0  0  0  0  0  0  0
    6.0069    2.1922   -1.8129 C   0  0  0  0  0  0  0  0  0  0  0  0
    6.7447    3.0348   -2.7316 C   0  0  0  0  0  0  0  0  0  0  0  0
    7.6854    2.6725   -3.7558 C   0  0  0  0  0  0  0  0  0  0  0  0
    8.1060    1.3256   -3.9706 N   0  0  0  0  0  0  0  0  0  0  0  0
    8.7604    0.8763   -5.1528 C   0  0  0  0  0  0  0  0  0  0  0  0
    8.2797    1.2328   -6.4382 C   0  0  0  0  0  0  0  0  0  0  0  0
    8.9132    0.7776   -7.6114 C   0  0  0  0  0  0  0  0  0  0  0  0
   10.0181   -0.0637   -7.5147 C   0  0  0  0  0  0  0  0  0  0  0  0
   10.8890   -0.6338   -9.0962 Br  0  0  0  0  0  0  0  0  0  0  0  0
   10.4754   -0.4870   -6.2746 C   0  0  0  0  0  0  0  0  0  0  0  0
    9.8408   -0.0252   -5.1165 C   0  0  0  0  0  0  0  0  0  0  0  0
   10.3143   -0.4050   -3.9214 F   0  0  0  0  0  0  0  0  0  0  0  0
    8.2416    3.5926   -4.5716 N   0  0  0  0  0  0  0  0  0  0  0  0
    7.9035    4.8656   -4.4004 C   0  0  0  0  0  0  0  0  0  0  0  0
    7.0599    5.3223   -3.4780 N   0  0  0  0  0  0  0  0  0  0  0  0
    6.4867    4.4238   -2.6756 C   0  0  0  0  0  0  0  0  0  0  0  0
    5.5939    4.9495   -1.7488 C   0  0  0  0  0  0  0  0  0  0  0  0
    4.8712    4.1380   -0.8847 C   0  0  0  0  0  0  0  0  0  0  0  0
    4.0549    4.6167    0.1284 O   0  0  0  0  0  0  0  0  0  0  0  0
    3.1784    5.7193   -0.1808 C   0  0  3  0  0  0  0  0  0  0  0  0
    3.7595    7.0254    0.3622 C   0  0  0  0  0  0  0  0  0  0  0  0
    3.1918    7.5657    1.6706 C   0  0  0  0  0  0  0  0  0  0  0  0
    1.7552    7.2076    2.0164 C   0  0  0  0  0  0  0  0  0  0  0  0
    1.3645    5.8549    1.6561 N   0  0  0  0  0  0  0  0  0  0  0  0
    0.1708    5.2953    2.1386 C   0  0  0  0  0  0  0  0  0  0  0  0
   -0.5139    5.9011    3.3458 C   0  0  0  0  0  0  0  0  0  0  0  0
   -0.3654    4.3316    1.5822 O   0  0  0  0  0  0  0  0  0  0  0  0
    1.7564    5.3890    0.3201 C   0  0  0  0  0  0  0  0  0  0  0  0
    5.3549   -0.7517    3.0325 H   0  0  0  0  0  0  0  0  0  0  0  0
    5.4759   -1.2779    1.2519 H   0  0  0  0  0  0  0  0  0  0  0  0
    4.0104    1.1985    2.3734 H   0  0  0  0  0  0  0  0  0  0  0  0
    3.4165    2.6242    0.2816 H   0  0  0  0  0  0  0  0  0  0  0  0
    6.1747    1.1170   -1.8306 H   0  0  0  0  0  0  0  0  0  0  0  0
    8.6399    1.0224   -3.1560 H   0  0  0  0  0  0  0  0  0  0  0  0
    7.4094    1.8896   -6.5408 H   0  0  0  0  0  0  0  0  0  0  0  0
    8.5367    1.0967   -8.5755 H   0  0  0  0  0  0  0  0  0  0  0  0
   11.3277   -1.1541   -6.1895 H   0  0  0  0  0  0  0  0  0  0  0  0
    8.3513    5.5950   -5.0671 H   0  0  0  0  0  0  0  0  0  0  0  0
    5.4774    6.0266   -1.7134 H   0  0  0  0  0  0  0  0  0  0  0  0
    3.1014    5.7939   -1.2730 H   0  0  0  0  0  0  0  0  0  0  0  0
    3.6234    7.7973   -0.4050 H   0  0  0  0  0  0  0  0  0  0  0  0
    4.8450    6.9249    0.4964 H   0  0  0  0  0  0  0  0  0  0  0  0
    3.2754    8.6614    1.6584 H   0  0  0  0  0  0  0  0  0  0  0  0
    3.8389    7.2374    2.4933 H   0  0  0  0  0  0  0  0  0  0  0  0
    1.0484    7.8987    1.5422 H   0  0  0  0  0  0  0  0  0  0  0  0
    1.6485    7.3454    3.0953 H   0  0  0  0  0  0  0  0  0  0  0  0
    0.1543    6.4326    4.0205 H   0  0  0  0  0  0  0  0  0  0  0  0
   -0.9654    5.0913    3.9307 H   0  0  0  0  0  0  0  0  0  0  0  0
   -1.3114    6.5719    3.0106 H   0  0  0  0  0  0  0  0  0  0  0  0
    1.0295    5.8330   -0.3721 H   0  0  0  0  0  0  0  0  0  0  0  0
    1.6136    4.3021    0.2828 H   0  0  0  0  0  0  0  0  0  0  0  0
  1  2  2  0  0  0  0
  1 35  1  0  0  0  0
  1 36  1  0  0  0  0
  2  3  1  0  0  0  0
  2 37  1  0  0  0  0
  3  4  2  0  0  0  0
  3  5  1  0  0  0  0
  5  6  1  0  0  0  0
  5 38  1  0  0  0  0
  6  7  1  0  0  0  0
  6 24  2  0  0  0  0
  7  8  2  0  0  0  0
  7 39  1  0  0  0  0
  8  9  1  0  0  0  0
  8 22  1  0  0  0  0
  9 10  1  0  0  0  0
  9 19  2  0  0  0  0
 10 11  1  0  0  0  0
 10 40  1  0  0  0  0
 11 12  1  0  0  0  0
 11 17  2  0  0  0  0
 12 13  2  0  0  0  0
 12 41  1  0  0  0  0
 13 14  1  0  0  0  0
 13 42  1  0  0  0  0
 14 15  1  0  0  0  0
 14 16  2  0  0  0  0
 16 17  1  0  0  0  0
 16 43  1  0  0  0  0
 17 18  1  0  0  0  0
 19 20  1  0  0  0  0
 20 21  2  0  0  0  0
 20 44  1  0  0  0  0
 21 22  1  0  0  0  0
 22 23  2  0  0  0  0
 23 24  1  0  0  0  0
 23 45  1  0  0  0  0
 24 25  1  0  0  0  0
 25 26  1  0  0  0  0
 26 27  1  0  0  0  0
 26 34  1  0  0  0  0
 26 46  1  0  0  0  0
 27 28  1  0  0  0  0
 27 47  1  0  0  0  0
 27 48  1  0  0  0  0
 28 29  1  0  0  0  0
 28 49  1  0  0  0  0
 28 50  1  0  0  0  0
 29 30  1  0  0  0  0
 29 51  1  0  0  0  0
 29 52  1  0  0  0  0
 30 31  1  0  0  0  0
 30 34  1  0  0  0  0
 31 32  1  0  0  0  0
 31 33  2  0  0  0  0
 32 53  1  0  0  0  0
 32 54  1  0  0  0  0
 32 55  1  0  0  0  0
 34 56  1  0  0  0  0
 34 57  1  0  0  0  0
M  END
$$$$
