CHEMBL1242110
 OpenBabel04072215363D

 35 37  0  0  0  0  0  0  0  0999 V2000
    3.6572    0.7552    0.5281 C   0  0  0  0  0  0  0  0  0  0  0  0
    2.4668   -0.0512    0.0114 C   0  0  0  0  0  0  0  0  0  0  0  0
    1.3865    0.8641   -0.5678 C   0  0  0  0  0  0  0  0  0  0  0  0
    2.8780   -1.0706   -0.9468 N   0  0  0  0  0  0  0  0  0  0  0  0
    3.5167   -0.7220   -2.0863 N   0  0  0  0  0  0  0  0  0  0  0  0
    3.6616   -1.8723   -2.7642 C   0  0  0  0  0  0  0  0  0  0  0  0
    4.2198   -1.8726   -4.1220 C   0  0  0  0  0  0  0  0  0  0  0  0
    5.0332   -2.9234   -4.5669 C   0  0  0  0  0  0  0  0  0  0  0  0
    5.4026   -3.0322   -5.9120 C   0  0  0  0  0  0  0  0  0  0  0  0
    5.0309   -2.0452   -6.8215 C   0  0  0  0  0  0  0  0  0  0  0  0
    4.3069   -0.9447   -6.3711 C   0  0  0  0  0  0  0  0  0  0  0  0
    3.9612    0.0555   -7.2384 O   0  0  0  0  0  0  0  0  0  0  0  0
    3.8966   -0.8580   -5.0363 C   0  0  0  0  0  0  0  0  0  0  0  0
    3.1502    0.1963   -4.6660 F   0  0  0  0  0  0  0  0  0  0  0  0
    3.1496   -2.9809   -2.0063 C   0  0  0  0  0  0  0  0  0  0  0  0
    3.0058   -4.3743   -2.1208 C   0  0  0  0  0  0  0  0  0  0  0  0
    3.4090   -5.1533   -3.2006 N   0  0  0  0  0  0  0  0  0  0  0  0
    2.4141   -5.0566   -1.1185 N   0  0  0  0  0  0  0  0  0  0  0  0
    1.9690   -4.3696   -0.0465 C   0  0  0  0  0  0  0  0  0  0  0  0
    2.0429   -3.0533    0.1727 N   0  0  0  0  0  0  0  0  0  0  0  0
    2.6501   -2.4116   -0.8439 C   0  0  0  0  0  0  0  0  0  0  0  0
    3.3372    1.4722    1.2930 H   0  0  0  0  0  0  0  0  0  0  0  0
    4.1461    1.3179   -0.2750 H   0  0  0  0  0  0  0  0  0  0  0  0
    4.4071    0.0959    0.9790 H   0  0  0  0  0  0  0  0  0  0  0  0
    2.0300   -0.5785    0.8693 H   0  0  0  0  0  0  0  0  0  0  0  0
    1.7563    1.4309   -1.4284 H   0  0  0  0  0  0  0  0  0  0  0  0
    1.0416    1.5806    0.1852 H   0  0  0  0  0  0  0  0  0  0  0  0
    0.5200    0.2824   -0.9003 H   0  0  0  0  0  0  0  0  0  0  0  0
    5.3741   -3.6903   -3.8736 H   0  0  0  0  0  0  0  0  0  0  0  0
    5.9733   -3.8962   -6.2467 H   0  0  0  0  0  0  0  0  0  0  0  0
    5.3142   -2.1473   -7.8641 H   0  0  0  0  0  0  0  0  0  0  0  0
    4.3450   -0.1276   -8.1107 H   0  0  0  0  0  0  0  0  0  0  0  0
    3.2722   -4.7153   -4.1021 H   0  0  0  0  0  0  0  0  0  0  0  0
    3.0147   -6.0840   -3.1158 H   0  0  0  0  0  0  0  0  0  0  0  0
    1.4886   -4.9618    0.7281 H   0  0  0  0  0  0  0  0  0  0  0  0
  1  2  1  0  0  0  0
  1 22  1  0  0  0  0
  1 23  1  0  0  0  0
  1 24  1  0  0  0  0
  2  3  1  0  0  0  0
  2  4  1  0  0  0  0
  2 25  1  0  0  0  0
  3 26  1  0  0  0  0
  3 27  1  0  0  0  0
  3 28  1  0  0  0  0
  4  5  1  0  0  0  0
  4 21  1  0  0  0  0
  5  6  2  0  0  0  0
  6  7  1  0  0  0  0
  6 15  1  0  0  0  0
  7  8  1  0  0  0  0
  7 13  2  0  0  0  0
  8  9  2  0  0  0  0
  8 29  1  0  0  0  0
  9 10  1  0  0  0  0
  9 30  1  0  0  0  0
 10 11  2  0  0  0  0
 10 31  1  0  0  0  0
 11 12  1  0  0  0  0
 11 13  1  0  0  0  0
 12 32  1  0  0  0  0
 13 14  1  0  0  0  0
 15 16  1  0  0  0  0
 15 21  2  0  0  0  0
 16 17  1  0  0  0  0
 16 18  2  0  0  0  0
 17 33  1  0  0  0  0
 17 34  1  0  0  0  0
 18 19  1  0  0  0  0
 19 20  2  0  0  0  0
 19 35  1  0  0  0  0
 20 21  1  0  0  0  0
M  END
$$$$
