CHEMBL211845
 OpenBabel04072215363D

 78 82  0  0  0  0  0  0  0  0999 V2000
    1.2133    0.2744    0.2284 C   0  0  0  0  0  0  0  0  0  0  0  0
    2.6314    0.2253    0.2302 O   0  0  0  0  0  0  0  0  0  0  0  0
    3.2342   -0.9281    0.6516 C   0  0  0  0  0  0  0  0  0  0  0  0
    2.6103   -2.0877    1.0940 C   0  0  0  0  0  0  0  0  0  0  0  0
    3.3834   -3.1991    1.4823 C   0  0  0  0  0  0  0  0  0  0  0  0
    4.7907   -3.1449    1.4606 C   0  0  0  0  0  0  0  0  0  0  0  0
    5.5854   -4.2614    1.8738 N   0  0  0  0  0  0  0  0  0  0  0  0
    6.4483   -4.1988    2.9806 C   0  0  0  0  0  0  0  0  0  0  0  0
    7.3856   -4.9684    3.1672 O   0  0  0  0  0  0  0  0  0  0  0  0
    6.0812   -3.1993    3.8949 O   0  0  0  0  0  0  0  0  0  0  0  0
    6.4106   -3.2061    5.2895 C   0  0  0  0  0  0  0  0  0  0  0  0
    6.1498   -4.3013    6.1378 C   0  0  0  0  0  0  0  0  0  0  0  0
    5.7789   -5.6955    5.7229 C   0  0  0  0  0  0  0  0  0  0  0  0
    6.2007   -4.0887    7.5311 C   0  0  0  0  0  0  0  0  0  0  0  0
    6.5233   -2.8475    8.0703 C   0  0  0  0  0  0  0  0  0  0  0  0
    6.8363   -1.7915    7.2209 C   0  0  0  0  0  0  0  0  0  0  0  0
    6.7818   -1.9531    5.8292 C   0  0  0  0  0  0  0  0  0  0  0  0
    7.1582   -0.7922    4.9521 C   0  0  0  0  0  0  0  0  0  0  0  0
    5.1688   -5.5479    1.4484 C   0  0  0  0  0  0  0  0  0  0  0  0
    5.2902   -5.8878    0.1199 C   0  0  0  0  0  0  0  0  0  0  0  0
    4.9056   -7.1647   -0.2053 C   0  0  0  0  0  0  0  0  0  0  0  0
    4.3837   -8.0401    0.6752 N   0  0  0  0  0  0  0  0  0  0  0  0
    4.2558   -7.6155    1.9391 C   0  0  0  0  0  0  0  0  0  0  0  0
    3.6611   -8.4955    2.8448 N   0  0  0  0  0  0  0  0  0  0  0  0
    2.8721   -8.1378    3.9529 C   0  0  0  0  0  0  0  0  0  0  0  0
    2.1540   -6.9392    3.9806 C   0  0  0  0  0  0  0  0  0  0  0  0
    1.4837   -6.5290    5.1315 C   0  0  0  0  0  0  0  0  0  0  0  0
    1.4970   -7.2932    6.3047 C   0  0  0  0  0  0  0  0  0  0  0  0
    0.8277   -6.7923    7.4120 N   0  0  0  0  0  0  0  0  0  0  0  0
    0.3618   -7.6718    8.4906 C   0  0  0  0  0  0  0  0  0  0  0  0
   -0.8546   -6.9928    9.1716 C   0  0  0  0  0  0  0  0  0  0  0  0
   -0.5508   -5.6350    9.6892 N   0  0  0  0  0  0  0  0  0  0  0  0
   -1.7564   -5.0160   10.2349 C   0  0  0  0  0  0  0  0  0  0  0  0
    0.0074   -4.7997    8.5992 C   0  0  0  0  0  0  0  0  0  0  0  0
    1.2220   -5.4554    7.9032 C   0  0  0  0  0  0  0  0  0  0  0  0
    2.1490   -8.5344    6.2338 C   0  0  0  0  0  0  0  0  0  0  0  0
    2.1961   -9.3429    7.3077 F   0  0  0  0  0  0  0  0  0  0  0  0
    2.8178   -8.9602    5.0783 C   0  0  0  0  0  0  0  0  0  0  0  0
    4.6524   -6.4006    2.3537 N   0  0  0  0  0  0  0  0  0  0  0  0
    5.4154   -1.9680    1.0079 C   0  0  0  0  0  0  0  0  0  0  0  0
    6.7839   -1.9896    0.9042 O   0  0  0  0  0  0  0  0  0  0  0  0
    7.4205   -0.7434    0.6394 C   0  0  0  0  0  0  0  0  0  0  0  0
    4.6280   -0.8796    0.6023 C   0  0  0  0  0  0  0  0  0  0  0  0
    0.9200    1.2618   -0.1418 H   0  0  0  0  0  0  0  0  0  0  0  0
    0.8126    0.1659    1.2406 H   0  0  0  0  0  0  0  0  0  0  0  0
    0.7927   -0.4738   -0.4503 H   0  0  0  0  0  0  0  0  0  0  0  0
    1.5293   -2.1641    1.1568 H   0  0  0  0  0  0  0  0  0  0  0  0
    2.8699   -4.0821    1.8503 H   0  0  0  0  0  0  0  0  0  0  0  0
    5.8896   -5.9010    4.6658 H   0  0  0  0  0  0  0  0  0  0  0  0
    4.7421   -5.9076    5.9967 H   0  0  0  0  0  0  0  0  0  0  0  0
    6.4318   -6.4107    6.2400 H   0  0  0  0  0  0  0  0  0  0  0  0
    5.9663   -4.9080    8.2102 H   0  0  0  0  0  0  0  0  0  0  0  0
    6.5346   -2.7095    9.1480 H   0  0  0  0  0  0  0  0  0  0  0  0
    7.1070   -0.8324    7.6596 H   0  0  0  0  0  0  0  0  0  0  0  0
    7.3009    0.1203    5.5426 H   0  0  0  0  0  0  0  0  0  0  0  0
    6.3789   -0.5851    4.2144 H   0  0  0  0  0  0  0  0  0  0  0  0
    8.1040   -1.0041    4.4425 H   0  0  0  0  0  0  0  0  0  0  0  0
    5.7188   -5.2158   -0.6109 H   0  0  0  0  0  0  0  0  0  0  0  0
    5.0131   -7.5408   -1.2196 H   0  0  0  0  0  0  0  0  0  0  0  0
    3.4149   -9.3629    2.3902 H   0  0  0  0  0  0  0  0  0  0  0  0
    2.1097   -6.2989    3.1052 H   0  0  0  0  0  0  0  0  0  0  0  0
    0.9312   -5.5938    5.0988 H   0  0  0  0  0  0  0  0  0  0  0  0
    1.1611   -7.8455    9.2225 H   0  0  0  0  0  0  0  0  0  0  0  0
    0.0313   -8.6408    8.1003 H   0  0  0  0  0  0  0  0  0  0  0  0
   -1.1971   -7.6323    9.9924 H   0  0  0  0  0  0  0  0  0  0  0  0
   -1.6695   -6.9349    8.4355 H   0  0  0  0  0  0  0  0  0  0  0  0
   -2.1570   -5.6184   11.0570 H   0  0  0  0  0  0  0  0  0  0  0  0
   -2.5423   -4.8975    9.4797 H   0  0  0  0  0  0  0  0  0  0  0  0
   -1.5253   -4.0282   10.6482 H   0  0  0  0  0  0  0  0  0  0  0  0
    0.3197   -3.8293    9.0031 H   0  0  0  0  0  0  0  0  0  0  0  0
   -0.7624   -4.6071    7.8387 H   0  0  0  0  0  0  0  0  0  0  0  0
    2.0568   -5.5498    8.6108 H   0  0  0  0  0  0  0  0  0  0  0  0
    1.5597   -4.7891    7.1014 H   0  0  0  0  0  0  0  0  0  0  0  0
    3.3417   -9.9102    5.0983 H   0  0  0  0  0  0  0  0  0  0  0  0
    8.5018   -0.9103    0.6197 H   0  0  0  0  0  0  0  0  0  0  0  0
    7.2027   -0.0243    1.4368 H   0  0  0  0  0  0  0  0  0  0  0  0
    7.1375   -0.3443   -0.3404 H   0  0  0  0  0  0  0  0  0  0  0  0
    5.0727    0.0338    0.2190 H   0  0  0  0  0  0  0  0  0  0  0  0
  1  2  1  0  0  0  0
  1 44  1  0  0  0  0
  1 45  1  0  0  0  0
  1 46  1  0  0  0  0
  2  3  1  0  0  0  0
  3  4  1  0  0  0  0
  3 43  2  0  0  0  0
  4  5  2  0  0  0  0
  4 47  1  0  0  0  0
  5  6  1  0  0  0  0
  5 48  1  0  0  0  0
  6  7  1  0  0  0  0
  6 40  2  0  0  0  0
  7  8  1  0  0  0  0
  7 19  1  0  0  0  0
  8  9  2  0  0  0  0
  8 10  1  0  0  0  0
 10 11  1  0  0  0  0
 11 12  1  0  0  0  0
 11 17  2  0  0  0  0
 12 13  1  0  0  0  0
 12 14  2  0  0  0  0
 13 49  1  0  0  0  0
 13 50  1  0  0  0  0
 13 51  1  0  0  0  0
 14 15  1  0  0  0  0
 14 52  1  0  0  0  0
 15 16  2  0  0  0  0
 15 53  1  0  0  0  0
 16 17  1  0  0  0  0
 16 54  1  0  0  0  0
 17 18  1  0  0  0  0
 18 55  1  0  0  0  0
 18 56  1  0  0  0  0
 18 57  1  0  0  0  0
 19 20  1  0  0  0  0
 19 39  2  0  0  0  0
 20 21  2  0  0  0  0
 20 58  1  0  0  0  0
 21 22  1  0  0  0  0
 21 59  1  0  0  0  0
 22 23  2  0  0  0  0
 23 24  1  0  0  0  0
 23 39  1  0  0  0  0
 24 25  1  0  0  0  0
 24 60  1  0  0  0  0
 25 26  1  0  0  0  0
 25 38  2  0  0  0  0
 26 27  2  0  0  0  0
 26 61  1  0  0  0  0
 27 28  1  0  0  0  0
 27 62  1  0  0  0  0
 28 29  1  0  0  0  0
 28 36  2  0  0  0  0
 29 30  1  0  0  0  0
 29 35  1  0  0  0  0
 30 31  1  0  0  0  0
 30 63  1  0  0  0  0
 30 64  1  0  0  0  0
 31 32  1  0  0  0  0
 31 65  1  0  0  0  0
 31 66  1  0  0  0  0
 32 33  1  0  0  0  0
 32 34  1  0  0  0  0
 33 67  1  0  0  0  0
 33 68  1  0  0  0  0
 33 69  1  0  0  0  0
 34 35  1  0  0  0  0
 34 70  1  0  0  0  0
 34 71  1  0  0  0  0
 35 72  1  0  0  0  0
 35 73  1  0  0  0  0
 36 37  1  0  0  0  0
 36 38  1  0  0  0  0
 38 74  1  0  0  0  0
 40 41  1  0  0  0  0
 40 43  1  0  0  0  0
 41 42  1  0  0  0  0
 42 75  1  0  0  0  0
 42 76  1  0  0  0  0
 42 77  1  0  0  0  0
 43 78  1  0  0  0  0
M  END
$$$$
