CHEMBL3927849
 OpenBabel04072215373D

 64 69  0  0  1  0  0  0  0  0999 V2000
   -2.1546   -3.3795   -5.0646 C   0  0  0  0  0  0  0  0  0  0  0  0
   -1.4009   -2.4906   -4.2359 O   0  0  0  0  0  0  0  0  0  0  0  0
   -0.2476   -1.9908   -4.7883 C   0  0  0  0  0  0  0  0  0  0  0  0
    0.1403   -2.2699   -6.1036 C   0  0  0  0  0  0  0  0  0  0  0  0
    1.3248   -1.7442   -6.6481 C   0  0  0  0  0  0  0  0  0  0  0  0
    1.7498   -1.9504   -7.9677 C   0  0  0  0  0  0  0  0  0  0  0  0
    0.9178   -2.6716   -8.8796 N   0  0  0  0  0  0  0  0  0  0  0  0
    1.4174   -3.2227  -10.0786 C   0  0  0  0  0  0  0  0  0  0  0  0
    2.5992   -3.9758  -10.0569 C   0  0  0  0  0  0  0  0  0  0  0  0
    3.2124   -4.3883  -11.2389 C   0  0  0  0  0  0  0  0  0  0  0  0
    2.6328   -4.0686  -12.4645 C   0  0  0  0  0  0  0  0  0  0  0  0
    3.6047   -4.5309  -14.0289 Br  0  0  0  0  0  0  0  0  0  0  0  0
    1.4058   -3.3961  -12.4996 C   0  0  0  0  0  0  0  0  0  0  0  0
    0.6147   -2.9890  -13.9823 Cl  0  0  0  0  0  0  0  0  0  0  0  0
    0.7900   -2.9887  -11.3063 C   0  0  0  0  0  0  0  0  0  0  0  0
    2.9234   -1.4696   -8.4119 N   0  0  0  0  0  0  0  0  0  0  0  0
    3.6610   -0.7715   -7.5494 C   0  0  0  0  0  0  0  0  0  0  0  0
    3.3372   -0.4951   -6.2816 N   0  0  0  0  0  0  0  0  0  0  0  0
    2.1721   -0.9827   -5.8484 C   0  0  0  0  0  0  0  0  0  0  0  0
    1.7960   -0.7183   -4.5404 C   0  0  0  0  0  0  0  0  0  0  0  0
    0.5863   -1.1845   -3.9893 C   0  0  0  0  0  0  0  0  0  0  0  0
    0.1658   -0.8372   -2.7273 O   0  0  0  0  0  0  0  0  0  0  0  0
    1.1990   -0.5338   -1.7624 C   0  0  1  0  0  0  0  0  0  0  0  0
    1.6095    0.9401   -1.7796 C   0  0  0  0  0  0  0  0  0  0  0  0
    0.7609    1.6386   -0.8587 O   0  0  0  0  0  0  0  0  0  0  0  0
    0.4569    0.7193    0.2001 C   0  0  1  0  0  0  0  0  0  0  0  0
    0.6540   -0.6934   -0.3447 C   0  0  2  0  0  0  0  0  0  0  0  0
    1.6258   -1.3463    0.4939 O   0  0  0  0  0  0  0  0  0  0  0  0
    1.7068   -0.6027    1.7162 C   0  0  0  0  0  0  0  0  0  0  0  0
    1.4790    0.8617    1.3445 C   0  0  2  0  0  0  0  0  0  0  0  0
    1.0807    1.7315    2.4806 N   0  0  0  0  0  0  0  0  0  0  0  0
    2.1649    1.8061    3.4795 C   0  0  0  0  0  0  0  0  0  0  0  0
    1.7689    2.6548    4.6876 C   0  0  0  0  0  0  0  0  0  0  0  0
    1.3505    4.0555    4.2650 C   0  0  0  0  0  0  0  0  0  0  0  0
    0.2808    3.9788    3.1843 C   0  0  0  0  0  0  0  0  0  0  0  0
    0.7242    3.0889    2.0194 C   0  0  0  0  0  0  0  0  0  0  0  0
   -2.9688   -3.8104   -4.4783 H   0  0  0  0  0  0  0  0  0  0  0  0
   -1.5392   -4.2162   -5.4197 H   0  0  0  0  0  0  0  0  0  0  0  0
   -2.5960   -2.8365   -5.9097 H   0  0  0  0  0  0  0  0  0  0  0  0
   -0.4510   -2.9203   -6.7382 H   0  0  0  0  0  0  0  0  0  0  0  0
    0.0493   -2.1572   -9.0009 H   0  0  0  0  0  0  0  0  0  0  0  0
    3.0792   -4.1995   -9.1061 H   0  0  0  0  0  0  0  0  0  0  0  0
    4.1596   -4.9182  -11.1823 H   0  0  0  0  0  0  0  0  0  0  0  0
   -0.1476   -2.4439  -11.3498 H   0  0  0  0  0  0  0  0  0  0  0  0
    4.6088   -0.3880   -7.9078 H   0  0  0  0  0  0  0  0  0  0  0  0
    2.4832   -0.1173   -3.9655 H   0  0  0  0  0  0  0  0  0  0  0  0
    2.0529   -1.2014   -1.9229 H   0  0  0  0  0  0  0  0  0  0  0  0
    1.5213    1.4311   -2.7496 H   0  0  0  0  0  0  0  0  0  0  0  0
    2.6440    1.0460   -1.4266 H   0  0  0  0  0  0  0  0  0  0  0  0
   -0.5759    0.8838    0.5246 H   0  0  0  0  0  0  0  0  0  0  0  0
   -0.2737   -1.2743   -0.3054 H   0  0  0  0  0  0  0  0  0  0  0  0
    2.6926   -0.7709    2.1599 H   0  0  0  0  0  0  0  0  0  0  0  0
    0.9413   -0.9830    2.4025 H   0  0  0  0  0  0  0  0  0  0  0  0
    2.4138    1.2579    0.9237 H   0  0  0  0  0  0  0  0  0  0  0  0
    3.0779    2.2167    3.0280 H   0  0  0  0  0  0  0  0  0  0  0  0
    2.4088    0.8053    3.8525 H   0  0  0  0  0  0  0  0  0  0  0  0
    2.6105    2.7160    5.3870 H   0  0  0  0  0  0  0  0  0  0  0  0
    0.9430    2.1690    5.2221 H   0  0  0  0  0  0  0  0  0  0  0  0
    2.2220    4.5999    3.8812 H   0  0  0  0  0  0  0  0  0  0  0  0
    0.9759    4.6139    5.1298 H   0  0  0  0  0  0  0  0  0  0  0  0
    0.0559    4.9866    2.8166 H   0  0  0  0  0  0  0  0  0  0  0  0
   -0.6472    3.5823    3.6157 H   0  0  0  0  0  0  0  0  0  0  0  0
    1.5708    3.5574    1.5004 H   0  0  0  0  0  0  0  0  0  0  0  0
   -0.1115    3.0494    1.3127 H   0  0  0  0  0  0  0  0  0  0  0  0
  1  2  1  0  0  0  0
  1 37  1  0  0  0  0
  1 38  1  0  0  0  0
  1 39  1  0  0  0  0
  2  3  1  0  0  0  0
  3  4  1  0  0  0  0
  3 21  2  0  0  0  0
  4  5  2  0  0  0  0
  4 40  1  0  0  0  0
  5  6  1  0  0  0  0
  5 19  1  0  0  0  0
  6  7  1  0  0  0  0
  6 16  2  0  0  0  0
  7  8  1  0  0  0  0
  7 41  1  0  0  0  0
  8  9  1  0  0  0  0
  8 15  2  0  0  0  0
  9 10  2  0  0  0  0
  9 42  1  0  0  0  0
 10 11  1  0  0  0  0
 10 43  1  0  0  0  0
 11 12  1  0  0  0  0
 11 13  2  0  0  0  0
 13 14  1  0  0  0  0
 13 15  1  0  0  0  0
 15 44  1  0  0  0  0
 16 17  1  0  0  0  0
 17 18  2  0  0  0  0
 17 45  1  0  0  0  0
 18 19  1  0  0  0  0
 19 20  2  0  0  0  0
 20 21  1  0  0  0  0
 20 46  1  0  0  0  0
 21 22  1  0  0  0  0
 23 24  1  0  0  0  0
 23 27  1  0  0  0  0
 23 22  1  0  0  0  0
 23 47  1  6  0  0  0
 24 25  1  0  0  0  0
 24 48  1  0  0  0  0
 24 49  1  0  0  0  0
 25 26  1  0  0  0  0
 26 27  1  0  0  0  0
 26 30  1  0  0  0  0
 26 50  1  1  0  0  0
 27 28  1  0  0  0  0
 27 51  1  6  0  0  0
 28 29  1  0  0  0  0
 29 30  1  0  0  0  0
 29 52  1  0  0  0  0
 29 53  1  0  0  0  0
 30 31  1  0  0  0  0
 30 54  1  6  0  0  0
 31 32  1  0  0  0  0
 31 36  1  0  0  0  0
 32 33  1  0  0  0  0
 32 55  1  0  0  0  0
 32 56  1  0  0  0  0
 33 34  1  0  0  0  0
 33 57  1  0  0  0  0
 33 58  1  0  0  0  0
 34 35  1  0  0  0  0
 34 59  1  0  0  0  0
 34 60  1  0  0  0  0
 35 36  1  0  0  0  0
 35 61  1  0  0  0  0
 35 62  1  0  0  0  0
 36 63  1  0  0  0  0
 36 64  1  0  0  0  0
M  END
$$$$
