CHEMBL3694710
 OpenBabel04072215373D

 57 60  0  0  0  0  0  0  0  0999 V2000
    1.1228   -0.1802   -0.4996 C   0  0  0  0  0  0  0  0  0  0  0  0
    2.6358   -0.2758   -0.2692 C   0  0  0  0  0  0  0  0  0  0  0  0
    3.2920   -1.1783   -1.3224 C   0  0  0  0  0  0  0  0  0  0  0  0
    3.1714    1.0423   -0.4470 O   0  0  0  0  0  0  0  0  0  0  0  0
    2.9412   -0.7793    1.1391 C   0  0  0  0  0  0  0  0  0  0  0  0
    2.4342   -2.0125    1.5884 C   0  0  0  0  0  0  0  0  0  0  0  0
    2.7310   -2.4972    2.8645 C   0  0  0  0  0  0  0  0  0  0  0  0
    3.5522   -1.7599    3.7178 C   0  0  0  0  0  0  0  0  0  0  0  0
    3.8927   -2.2690    5.0521 C   0  0  0  0  0  0  0  0  0  0  0  0
    3.1014   -1.9377    6.2324 C   0  0  0  0  0  0  0  0  0  0  0  0
    3.4912   -2.3773    7.4382 C   0  0  0  0  0  0  0  0  0  0  0  0
    4.6602   -3.1336    7.5576 N   0  0  0  0  0  0  0  0  0  0  0  0
    5.3045   -3.6587    8.6731 C   0  0  0  0  0  0  0  0  0  0  0  0
    4.9122   -3.5429   10.0863 C   0  0  0  0  0  0  0  0  0  0  0  0
    5.2315   -4.6000   10.9521 C   0  0  0  0  0  0  0  0  0  0  0  0
    4.9038   -4.5416   12.3004 C   0  0  0  0  0  0  0  0  0  0  0  0
    4.2667   -3.4188   12.8110 C   0  0  0  0  0  0  0  0  0  0  0  0
    3.9753   -2.3202   11.9976 C   0  0  0  0  0  0  0  0  0  0  0  0
    3.3938   -1.1219   12.4997 N   0  0  0  0  0  0  0  0  0  0  0  0
    3.1185   -0.8689   13.8156 C   0  0  0  0  0  0  0  0  0  0  0  0
    3.3184   -1.6072   14.7735 O   0  0  0  0  0  0  0  0  0  0  0  0
    2.5035    0.3472   14.0275 N   0  0  0  0  0  0  0  0  0  0  0  0
    2.1880    0.7208   15.4180 C   0  0  0  0  0  0  0  0  0  0  0  0
    3.3319    1.3249   16.2482 C   0  0  0  0  0  0  0  0  0  0  0  0
    4.4496    1.5289   15.5148 F   0  0  0  0  0  0  0  0  0  0  0  0
    2.9549    2.5366   16.7308 F   0  0  0  0  0  0  0  0  0  0  0  0
    3.6584    0.5587   17.3100 F   0  0  0  0  0  0  0  0  0  0  0  0
    4.2913   -2.4008   10.6301 C   0  0  0  0  0  0  0  0  0  0  0  0
    6.3852   -4.3471    8.1337 C   0  0  0  0  0  0  0  0  0  0  0  0
    6.4443   -4.2530    6.7736 N   0  0  0  0  0  0  0  0  0  0  0  0
    5.4136   -3.5104    6.4438 C   0  0  0  0  0  0  0  0  0  0  0  0
    4.9887   -3.0507    5.1654 C   0  0  0  0  0  0  0  0  0  0  0  0
    4.0497   -0.5236    3.2968 C   0  0  0  0  0  0  0  0  0  0  0  0
    3.7460   -0.0393    2.0224 C   0  0  0  0  0  0  0  0  0  0  0  0
    0.9030    0.2105   -1.4994 H   0  0  0  0  0  0  0  0  0  0  0  0
    0.6666    0.5146    0.2156 H   0  0  0  0  0  0  0  0  0  0  0  0
    0.6212   -1.1481   -0.4004 H   0  0  0  0  0  0  0  0  0  0  0  0
    3.1394   -0.7758   -2.3308 H   0  0  0  0  0  0  0  0  0  0  0  0
    2.8965   -2.1992   -1.3007 H   0  0  0  0  0  0  0  0  0  0  0  0
    4.3772   -1.2305   -1.1721 H   0  0  0  0  0  0  0  0  0  0  0  0
    2.9651    1.3253   -1.3531 H   0  0  0  0  0  0  0  0  0  0  0  0
    1.8008   -2.6176    0.9440 H   0  0  0  0  0  0  0  0  0  0  0  0
    2.3253   -3.4549    3.1817 H   0  0  0  0  0  0  0  0  0  0  0  0
    2.2000   -1.3431    6.1081 H   0  0  0  0  0  0  0  0  0  0  0  0
    2.9153   -2.1662    8.3255 H   0  0  0  0  0  0  0  0  0  0  0  0
    5.7462   -5.4874   10.5912 H   0  0  0  0  0  0  0  0  0  0  0  0
    5.1566   -5.3634   12.9651 H   0  0  0  0  0  0  0  0  0  0  0  0
    4.0265   -3.4340   13.8678 H   0  0  0  0  0  0  0  0  0  0  0  0
    3.2164   -0.3874   11.8314 H   0  0  0  0  0  0  0  0  0  0  0  0
    2.6844    1.0946   13.3705 H   0  0  0  0  0  0  0  0  0  0  0  0
    1.8223   -0.1741   15.9380 H   0  0  0  0  0  0  0  0  0  0  0  0
    1.3498    1.4189   15.3704 H   0  0  0  0  0  0  0  0  0  0  0  0
    4.0843   -1.5437    9.9988 H   0  0  0  0  0  0  0  0  0  0  0  0
    7.1391   -4.9088    8.6726 H   0  0  0  0  0  0  0  0  0  0  0  0
    5.5906   -3.3309    4.3069 H   0  0  0  0  0  0  0  0  0  0  0  0
    4.6836    0.0681    3.9535 H   0  0  0  0  0  0  0  0  0  0  0  0
    4.1507    0.9255    1.7223 H   0  0  0  0  0  0  0  0  0  0  0  0
  1  2  1  0  0  0  0
  1 35  1  0  0  0  0
  1 36  1  0  0  0  0
  1 37  1  0  0  0  0
  2  3  1  0  0  0  0
  2  4  1  0  0  0  0
  2  5  1  0  0  0  0
  3 38  1  0  0  0  0
  3 39  1  0  0  0  0
  3 40  1  0  0  0  0
  4 41  1  0  0  0  0
  5  6  1  0  0  0  0
  5 34  2  0  0  0  0
  6  7  2  0  0  0  0
  6 42  1  0  0  0  0
  7  8  1  0  0  0  0
  7 43  1  0  0  0  0
  8  9  1  0  0  0  0
  8 33  2  0  0  0  0
  9 10  1  0  0  0  0
  9 32  2  0  0  0  0
 10 11  2  0  0  0  0
 10 44  1  0  0  0  0
 11 12  1  0  0  0  0
 11 45  1  0  0  0  0
 12 13  1  0  0  0  0
 12 31  1  0  0  0  0
 13 14  1  0  0  0  0
 13 29  2  0  0  0  0
 14 15  1  0  0  0  0
 14 28  2  0  0  0  0
 15 16  2  0  0  0  0
 15 46  1  0  0  0  0
 16 17  1  0  0  0  0
 16 47  1  0  0  0  0
 17 18  2  0  0  0  0
 17 48  1  0  0  0  0
 18 19  1  0  0  0  0
 18 28  1  0  0  0  0
 19 20  1  0  0  0  0
 19 49  1  0  0  0  0
 20 21  2  0  0  0  0
 20 22  1  0  0  0  0
 22 23  1  0  0  0  0
 22 50  1  0  0  0  0
 23 24  1  0  0  0  0
 23 51  1  0  0  0  0
 23 52  1  0  0  0  0
 24 25  1  0  0  0  0
 24 26  1  0  0  0  0
 24 27  1  0  0  0  0
 28 53  1  0  0  0  0
 29 30  1  0  0  0  0
 29 54  1  0  0  0  0
 30 31  2  0  0  0  0
 31 32  1  0  0  0  0
 32 55  1  0  0  0  0
 33 34  1  0  0  0  0
 33 56  1  0  0  0  0
 34 57  1  0  0  0  0
M  END
$$$$
