CHEMBL3660275
 OpenBabel04072215373D

 52 55  0  0  0  0  0  0  0  0999 V2000
    2.3635   -0.4650    1.6269 C   0  0  0  0  0  0  0  0  0  0  0  0
    0.8688   -0.3525    1.5808 C   0  0  0  0  0  0  0  0  0  0  0  0
    0.2561    0.8361    1.9936 C   0  0  0  0  0  0  0  0  0  0  0  0
   -1.1231    0.9571    1.9594 C   0  0  0  0  0  0  0  0  0  0  0  0
   -1.9045   -0.1069    1.5138 C   0  0  0  0  0  0  0  0  0  0  0  0
   -1.3285   -1.3087    1.0833 C   0  0  0  0  0  0  0  0  0  0  0  0
   -2.0993   -2.4149    0.6289 N   0  0  0  0  0  0  0  0  0  0  0  0
   -3.4725   -2.3918    0.4279 C   0  0  0  0  0  0  0  0  0  0  0  0
   -4.1765   -1.3924    0.5301 O   0  0  0  0  0  0  0  0  0  0  0  0
   -4.0033   -3.6453    0.1299 N   0  0  0  0  0  0  0  0  0  0  0  0
   -5.4058   -3.7557   -0.0790 C   0  0  0  0  0  0  0  0  0  0  0  0
   -6.0831   -2.8248   -0.8765 C   0  0  0  0  0  0  0  0  0  0  0  0
   -7.4769   -2.8137   -0.9397 C   0  0  0  0  0  0  0  0  0  0  0  0
   -8.2134   -3.7840   -0.2621 C   0  0  0  0  0  0  0  0  0  0  0  0
   -9.5922   -3.8305   -0.2353 O   0  0  0  0  0  0  0  0  0  0  0  0
  -10.3208   -3.4198   -1.3318 C   0  0  0  0  0  0  0  0  0  0  0  0
   -9.9073   -3.5862   -2.6484 C   0  0  0  0  0  0  0  0  0  0  0  0
  -10.7342   -3.1239   -3.6569 C   0  0  0  0  0  0  0  0  0  0  0  0
  -11.9412   -2.5640   -3.4408 N   0  0  0  0  0  0  0  0  0  0  0  0
  -12.3515   -2.4570   -2.1510 C   0  0  0  0  0  0  0  0  0  0  0  0
  -13.6825   -1.8755   -2.0031 C   0  0  0  0  0  0  0  0  0  0  0  0
  -14.4853   -1.6360   -0.9003 C   0  0  0  0  0  0  0  0  0  0  0  0
  -15.7163   -1.0494   -1.3383 C   0  0  0  0  0  0  0  0  0  0  0  0
  -16.8881   -0.6060   -0.5802 C   0  0  0  0  0  0  0  0  0  0  0  0
  -17.8884   -0.1302   -1.0998 O   0  0  0  0  0  0  0  0  0  0  0  0
  -16.7978   -0.7566    0.7655 O   0  0  0  0  0  0  0  0  0  0  0  0
  -15.6159   -0.9617   -2.7144 C   0  0  0  0  0  0  0  0  0  0  0  0
  -14.4041   -1.4591   -3.1012 N   0  0  0  0  0  0  0  0  0  0  0  0
  -11.5739   -2.8739   -1.0741 C   0  0  0  0  0  0  0  0  0  0  0  0
   -7.5391   -4.7330    0.5160 C   0  0  0  0  0  0  0  0  0  0  0  0
   -6.1370   -4.7360    0.5917 C   0  0  0  0  0  0  0  0  0  0  0  0
    0.0677   -1.4218    1.1239 C   0  0  0  0  0  0  0  0  0  0  0  0
    2.8178    0.4478    2.0301 H   0  0  0  0  0  0  0  0  0  0  0  0
    2.7656   -0.6168    0.6203 H   0  0  0  0  0  0  0  0  0  0  0  0
    2.6639   -1.2948    2.2736 H   0  0  0  0  0  0  0  0  0  0  0  0
    0.8501    1.6766    2.3460 H   0  0  0  0  0  0  0  0  0  0  0  0
   -1.6057    1.8787    2.2768 H   0  0  0  0  0  0  0  0  0  0  0  0
   -2.9765    0.0530    1.5246 H   0  0  0  0  0  0  0  0  0  0  0  0
   -1.6005   -3.2289    0.3072 H   0  0  0  0  0  0  0  0  0  0  0  0
   -3.5548   -4.4166    0.6032 H   0  0  0  0  0  0  0  0  0  0  0  0
   -5.5316   -2.0605   -1.4204 H   0  0  0  0  0  0  0  0  0  0  0  0
   -7.9614   -2.0216   -1.5027 H   0  0  0  0  0  0  0  0  0  0  0  0
   -8.9620   -4.0516   -2.9010 H   0  0  0  0  0  0  0  0  0  0  0  0
  -10.4347   -3.1919   -4.6966 H   0  0  0  0  0  0  0  0  0  0  0  0
  -14.2015   -1.8692    0.1159 H   0  0  0  0  0  0  0  0  0  0  0  0
  -15.9506   -1.1367    1.0469 H   0  0  0  0  0  0  0  0  0  0  0  0
  -16.3179   -0.5836   -3.4489 H   0  0  0  0  0  0  0  0  0  0  0  0
  -14.0550   -1.5286   -4.0507 H   0  0  0  0  0  0  0  0  0  0  0  0
  -11.9316   -2.7794   -0.0556 H   0  0  0  0  0  0  0  0  0  0  0  0
   -8.1093   -5.4538    1.0971 H   0  0  0  0  0  0  0  0  0  0  0  0
   -5.6460   -5.4537    1.2422 H   0  0  0  0  0  0  0  0  0  0  0  0
    0.5562   -2.3401    0.8036 H   0  0  0  0  0  0  0  0  0  0  0  0
  1  2  1  0  0  0  0
  1 33  1  0  0  0  0
  1 34  1  0  0  0  0
  1 35  1  0  0  0  0
  2  3  1  0  0  0  0
  2 32  2  0  0  0  0
  3  4  2  0  0  0  0
  3 36  1  0  0  0  0
  4  5  1  0  0  0  0
  4 37  1  0  0  0  0
  5  6  2  0  0  0  0
  5 38  1  0  0  0  0
  6  7  1  0  0  0  0
  6 32  1  0  0  0  0
  7  8  1  0  0  0  0
  7 39  1  0  0  0  0
  8  9  2  0  0  0  0
  8 10  1  0  0  0  0
 10 11  1  0  0  0  0
 10 40  1  0  0  0  0
 11 12  1  0  0  0  0
 11 31  2  0  0  0  0
 12 13  2  0  0  0  0
 12 41  1  0  0  0  0
 13 14  1  0  0  0  0
 13 42  1  0  0  0  0
 14 15  1  0  0  0  0
 14 30  2  0  0  0  0
 15 16  1  0  0  0  0
 16 17  1  0  0  0  0
 16 29  2  0  0  0  0
 17 18  2  0  0  0  0
 17 43  1  0  0  0  0
 18 19  1  0  0  0  0
 18 44  1  0  0  0  0
 19 20  2  0  0  0  0
 20 21  1  0  0  0  0
 20 29  1  0  0  0  0
 21 22  2  0  0  0  0
 21 28  1  0  0  0  0
 22 23  1  0  0  0  0
 22 45  1  0  0  0  0
 23 24  1  0  0  0  0
 23 27  2  0  0  0  0
 24 25  2  0  0  0  0
 24 26  1  0  0  0  0
 26 46  1  0  0  0  0
 27 28  1  0  0  0  0
 27 47  1  0  0  0  0
 28 48  1  0  0  0  0
 29 49  1  0  0  0  0
 30 31  1  0  0  0  0
 30 50  1  0  0  0  0
 31 51  1  0  0  0  0
 32 52  1  0  0  0  0
M  END
$$$$
