CHEMBL3690385
 OpenBabel04072215373D

 44 47  0  0  0  0  0  0  0  0999 V2000
    2.8164    3.2696    0.2549 O   0  0  0  0  0  0  0  0  0  0  0  0
    2.4374    2.1355    0.0015 C   0  0  0  0  0  0  0  0  0  0  0  0
    1.0995    1.8040   -0.0181 N   0  0  0  0  0  0  0  0  0  0  0  0
    0.1193    2.8031    0.4211 C   0  0  0  0  0  0  0  0  0  0  0  0
   -0.0780    2.8979    1.9409 C   0  0  0  0  0  0  0  0  0  0  0  0
    0.6811    1.9950    2.6055 F   0  0  0  0  0  0  0  0  0  0  0  0
    0.2085    4.1242    2.4215 F   0  0  0  0  0  0  0  0  0  0  0  0
   -1.3690    2.6273    2.2567 F   0  0  0  0  0  0  0  0  0  0  0  0
    3.2254    1.0498   -0.2987 N   0  0  0  0  0  0  0  0  0  0  0  0
    4.6347    1.0164   -0.3187 C   0  0  0  0  0  0  0  0  0  0  0  0
    5.4547    2.1226   -0.1194 C   0  0  0  0  0  0  0  0  0  0  0  0
    6.8066    2.0749   -0.1507 N   0  0  0  0  0  0  0  0  0  0  0  0
    7.3637    0.8661   -0.3789 C   0  0  0  0  0  0  0  0  0  0  0  0
    6.6546   -0.3229   -0.5468 C   0  0  0  0  0  0  0  0  0  0  0  0
    7.3284   -1.6018   -0.7997 C   0  0  0  0  0  0  0  0  0  0  0  0
    6.9184   -2.6910   -1.5555 C   0  0  0  0  0  0  0  0  0  0  0  0
    7.9351   -3.5843   -1.7615 N   0  0  0  0  0  0  0  0  0  0  0  0
    8.9641   -3.0834   -1.1151 C   0  0  0  0  0  0  0  0  0  0  0  0
   10.3319   -3.4852   -1.0765 C   0  0  0  0  0  0  0  0  0  0  0  0
   11.2246   -2.8486   -0.2811 C   0  0  0  0  0  0  0  0  0  0  0  0
   12.6598   -3.2129   -0.4026 C   0  0  0  0  0  0  0  0  0  0  0  0
   13.6750   -2.2897   -0.1789 C   0  0  0  0  0  0  0  0  0  0  0  0
   14.9950   -2.6737   -0.3908 C   0  0  0  0  0  0  0  0  0  0  0  0
   15.2385   -3.9608   -0.8229 C   0  0  0  0  0  0  0  0  0  0  0  0
   14.2491   -4.8470   -1.0319 N   0  0  0  0  0  0  0  0  0  0  0  0
   12.9514   -4.4673   -0.8194 N   0  0  0  0  0  0  0  0  0  0  0  0
   10.7354   -1.8107    0.6404 C   0  0  0  0  0  0  0  0  0  0  0  0
    9.4649   -1.3820    0.5526 C   0  0  0  0  0  0  0  0  0  0  0  0
    8.6062   -1.9591   -0.3819 N   0  0  0  0  0  0  0  0  0  0  0  0
    5.2581   -0.2184   -0.5452 C   0  0  0  0  0  0  0  0  0  0  0  0
    0.8839    0.8457    0.2176 H   0  0  0  0  0  0  0  0  0  0  0  0
   -0.8266    2.5294   -0.0566 H   0  0  0  0  0  0  0  0  0  0  0  0
    0.4114    3.7838    0.0283 H   0  0  0  0  0  0  0  0  0  0  0  0
    2.7451    0.1971   -0.5418 H   0  0  0  0  0  0  0  0  0  0  0  0
    5.0651    3.1188    0.0592 H   0  0  0  0  0  0  0  0  0  0  0  0
    8.4468    0.9043   -0.4443 H   0  0  0  0  0  0  0  0  0  0  0  0
    5.9584   -2.8428   -2.0329 H   0  0  0  0  0  0  0  0  0  0  0  0
   10.6245   -4.2721   -1.7676 H   0  0  0  0  0  0  0  0  0  0  0  0
   13.4602   -1.2722    0.1285 H   0  0  0  0  0  0  0  0  0  0  0  0
   15.8115   -1.9778   -0.2356 H   0  0  0  0  0  0  0  0  0  0  0  0
   16.2402   -4.3219   -1.0224 H   0  0  0  0  0  0  0  0  0  0  0  0
   11.4069   -1.3966    1.3838 H   0  0  0  0  0  0  0  0  0  0  0  0
    9.0688   -0.6142    1.2064 H   0  0  0  0  0  0  0  0  0  0  0  0
    4.6530   -1.1054   -0.7120 H   0  0  0  0  0  0  0  0  0  0  0  0
  1  2  2  0  0  0  0
  2  3  1  0  0  0  0
  2  9  1  0  0  0  0
  3  4  1  0  0  0  0
  3 31  1  0  0  0  0
  4  5  1  0  0  0  0
  4 32  1  0  0  0  0
  4 33  1  0  0  0  0
  5  6  1  0  0  0  0
  5  7  1  0  0  0  0
  5  8  1  0  0  0  0
  9 10  1  0  0  0  0
  9 34  1  0  0  0  0
 10 11  1  0  0  0  0
 10 30  2  0  0  0  0
 11 12  2  0  0  0  0
 11 35  1  0  0  0  0
 12 13  1  0  0  0  0
 13 14  2  0  0  0  0
 13 36  1  0  0  0  0
 14 15  1  0  0  0  0
 14 30  1  0  0  0  0
 15 16  2  0  0  0  0
 15 29  1  0  0  0  0
 16 17  1  0  0  0  0
 16 37  1  0  0  0  0
 17 18  2  0  0  0  0
 18 19  1  0  0  0  0
 18 29  1  0  0  0  0
 19 20  2  0  0  0  0
 19 38  1  0  0  0  0
 20 21  1  0  0  0  0
 20 27  1  0  0  0  0
 21 22  1  0  0  0  0
 21 26  2  0  0  0  0
 22 23  2  0  0  0  0
 22 39  1  0  0  0  0
 23 24  1  0  0  0  0
 23 40  1  0  0  0  0
 24 25  2  0  0  0  0
 24 41  1  0  0  0  0
 25 26  1  0  0  0  0
 27 28  2  0  0  0  0
 27 42  1  0  0  0  0
 28 29  1  0  0  0  0
 28 43  1  0  0  0  0
 30 44  1  0  0  0  0
M  END
$$$$
