CHEMBL3297998
 OpenBabel04072215363D

 47 49  0  0  0  0  0  0  0  0999 V2000
    2.6349    2.4340    2.5584 C   0  0  0  0  0  0  0  0  0  0  0  0
    3.7625    1.4238    2.4271 C   0  0  0  0  0  0  0  0  0  0  0  0
    3.3243    0.2572    1.5457 C   0  0  0  0  0  0  0  0  0  0  0  0
    4.4341   -0.7665    1.3132 C   0  0  0  0  0  0  0  0  0  0  0  0
    4.9421   -1.4322    2.5282 N   0  0  0  0  0  0  0  0  0  0  0  0
    4.0424   -2.1792    3.3272 C   0  0  0  0  0  0  0  0  0  0  0  0
    2.8819   -2.7727    2.8059 C   0  0  0  0  0  0  0  0  0  0  0  0
    2.0118   -3.5302    3.6050 C   0  0  0  0  0  0  0  0  0  0  0  0
    2.2880   -3.7262    4.9541 C   0  0  0  0  0  0  0  0  0  0  0  0
    1.5235   -4.4307    5.8403 O   0  0  0  0  0  0  0  0  0  0  0  0
    0.2905   -4.9417    5.3512 C   0  0  0  0  0  0  0  0  0  0  0  0
    3.4445   -3.1687    5.4886 C   0  0  0  0  0  0  0  0  0  0  0  0
    4.3003   -2.4023    4.6893 C   0  0  0  0  0  0  0  0  0  0  0  0
    6.3384   -1.7107    2.5082 C   0  0  0  0  0  0  0  0  0  0  0  0
    7.0248   -1.7866    3.6847 N   0  0  0  0  0  0  0  0  0  0  0  0
    8.3432   -2.0714    3.7125 C   0  0  0  0  0  0  0  0  0  0  0  0
    8.9777   -2.1665    5.0683 C   0  0  0  0  0  0  0  0  0  0  0  0
    9.1309   -2.2897    2.6495 N   0  0  0  0  0  0  0  0  0  0  0  0
    8.4460   -2.2219    1.4985 C   0  0  0  0  0  0  0  0  0  0  0  0
    9.0305   -2.4162    0.2737 O   0  0  0  0  0  0  0  0  0  0  0  0
    8.0468   -2.3108   -0.6640 C   0  0  0  0  0  0  0  0  0  0  0  0
    8.3992   -2.4542   -2.0828 C   0  0  0  0  0  0  0  0  0  0  0  0
    6.8418   -2.0605   -0.0506 C   0  0  0  0  0  0  0  0  0  0  0  0
    7.0906   -1.9606    1.3431 C   0  0  0  0  0  0  0  0  0  0  0  0
    2.9353    3.2605    3.2082 H   0  0  0  0  0  0  0  0  0  0  0  0
    1.7432    1.9654    2.9872 H   0  0  0  0  0  0  0  0  0  0  0  0
    2.3663    2.8469    1.5803 H   0  0  0  0  0  0  0  0  0  0  0  0
    4.0458    1.0642    3.4219 H   0  0  0  0  0  0  0  0  0  0  0  0
    4.6421    1.9155    1.9943 H   0  0  0  0  0  0  0  0  0  0  0  0
    3.0362    0.6531    0.5619 H   0  0  0  0  0  0  0  0  0  0  0  0
    2.4272   -0.2111    1.9603 H   0  0  0  0  0  0  0  0  0  0  0  0
    5.2348   -0.1911    0.8301 H   0  0  0  0  0  0  0  0  0  0  0  0
    4.0884   -1.5109    0.5864 H   0  0  0  0  0  0  0  0  0  0  0  0
    2.6337   -2.6836    1.7531 H   0  0  0  0  0  0  0  0  0  0  0  0
    1.1347   -3.9585    3.1328 H   0  0  0  0  0  0  0  0  0  0  0  0
   -0.2371   -5.4042    6.1906 H   0  0  0  0  0  0  0  0  0  0  0  0
    0.4625   -5.7147    4.5953 H   0  0  0  0  0  0  0  0  0  0  0  0
   -0.3462   -4.1407    4.9604 H   0  0  0  0  0  0  0  0  0  0  0  0
    3.6880   -3.3224    6.5366 H   0  0  0  0  0  0  0  0  0  0  0  0
    5.1742   -1.9640    5.1632 H   0  0  0  0  0  0  0  0  0  0  0  0
    8.2487   -1.9521    5.8580 H   0  0  0  0  0  0  0  0  0  0  0  0
    9.7974   -1.4481    5.1538 H   0  0  0  0  0  0  0  0  0  0  0  0
    9.3677   -3.1758    5.2297 H   0  0  0  0  0  0  0  0  0  0  0  0
    9.4504   -2.7103   -2.2227 H   0  0  0  0  0  0  0  0  0  0  0  0
    8.1919   -1.5182   -2.6128 H   0  0  0  0  0  0  0  0  0  0  0  0
    7.7827   -3.2365   -2.5376 H   0  0  0  0  0  0  0  0  0  0  0  0
    5.9076   -1.9496   -0.5787 H   0  0  0  0  0  0  0  0  0  0  0  0
  1  2  1  0  0  0  0
  1 25  1  0  0  0  0
  1 26  1  0  0  0  0
  1 27  1  0  0  0  0
  2  3  1  0  0  0  0
  2 28  1  0  0  0  0
  2 29  1  0  0  0  0
  3  4  1  0  0  0  0
  3 30  1  0  0  0  0
  3 31  1  0  0  0  0
  4  5  1  0  0  0  0
  4 32  1  0  0  0  0
  4 33  1  0  0  0  0
  5  6  1  0  0  0  0
  5 14  1  0  0  0  0
  6  7  1  0  0  0  0
  6 13  2  0  0  0  0
  7  8  2  0  0  0  0
  7 34  1  0  0  0  0
  8  9  1  0  0  0  0
  8 35  1  0  0  0  0
  9 10  1  0  0  0  0
  9 12  2  0  0  0  0
 10 11  1  0  0  0  0
 11 36  1  0  0  0  0
 11 37  1  0  0  0  0
 11 38  1  0  0  0  0
 12 13  1  0  0  0  0
 12 39  1  0  0  0  0
 13 40  1  0  0  0  0
 14 15  1  0  0  0  0
 14 24  2  0  0  0  0
 15 16  2  0  0  0  0
 16 17  1  0  0  0  0
 16 18  1  0  0  0  0
 17 41  1  0  0  0  0
 17 42  1  0  0  0  0
 17 43  1  0  0  0  0
 18 19  2  0  0  0  0
 19 20  1  0  0  0  0
 19 24  1  0  0  0  0
 20 21  1  0  0  0  0
 21 22  1  0  0  0  0
 21 23  2  0  0  0  0
 22 44  1  0  0  0  0
 22 45  1  0  0  0  0
 22 46  1  0  0  0  0
 23 24  1  0  0  0  0
 23 47  1  0  0  0  0
M  END
$$$$
