CHEMBL3690426
 OpenBabel04072215373D

 64 68  0  0  0  0  0  0  0  0999 V2000
    9.0375   -0.4259    3.6124 C   0  0  0  0  0  0  0  0  0  0  0  0
    9.0668    0.5511    2.4635 C   0  0  0  0  0  0  0  0  0  0  0  0
    9.6243    0.2415    1.4098 O   0  0  0  0  0  0  0  0  0  0  0  0
    8.4509    1.7827    2.6561 N   0  0  0  0  0  0  0  0  0  0  0  0
    8.2700    2.6534    1.4986 C   0  0  0  0  0  0  0  0  0  0  0  0
    8.5221    4.1117    1.8563 C   0  0  0  0  0  0  0  0  0  0  0  0
    7.7153    4.5635    3.0797 C   0  0  0  0  0  0  0  0  0  0  0  0
    6.3264    4.8741    2.7498 N   0  0  0  0  0  0  0  0  0  0  0  0
    5.8557    6.0908    2.3433 C   0  0  0  0  0  0  0  0  0  0  0  0
    4.4942    5.9530    2.1582 C   0  0  0  0  0  0  0  0  0  0  0  0
    3.5882    6.9595    1.6701 C   0  0  0  0  0  0  0  0  0  0  0  0
    4.1375    8.2172    1.1355 C   0  0  0  0  0  0  0  0  0  0  0  0
    3.3574    9.0736    0.4622 C   0  0  0  0  0  0  0  0  0  0  0  0
    1.9808    8.8875    0.4809 N   0  0  0  0  0  0  0  0  0  0  0  0
    0.9602    9.7663    0.1532 C   0  0  0  0  0  0  0  0  0  0  0  0
    1.0945   11.1826   -0.2087 C   0  0  0  0  0  0  0  0  0  0  0  0
    0.2209   11.7283   -1.1532 C   0  0  0  0  0  0  0  0  0  0  0  0
    0.2402   13.0922   -1.4292 C   0  0  0  0  0  0  0  0  0  0  0  0
    1.1320   13.9331   -0.7619 C   0  0  0  0  0  0  0  0  0  0  0  0
    2.0200   13.4301    0.1908 C   0  0  0  0  0  0  0  0  0  0  0  0
    2.9287   14.2553    0.9190 N   0  0  0  0  0  0  0  0  0  0  0  0
    3.0153   15.6184    0.8474 C   0  0  0  0  0  0  0  0  0  0  0  0
    2.3395   16.3724    0.1493 O   0  0  0  0  0  0  0  0  0  0  0  0
    4.0277   16.1397    1.6209 N   0  0  0  0  0  0  0  0  0  0  0  0
    4.2076   17.5998    1.6464 C   0  0  0  0  0  0  0  0  0  0  0  0
    3.2323   18.3866    2.5364 C   0  0  0  0  0  0  0  0  0  0  0  0
    2.4930   17.5715    3.3239 F   0  0  0  0  0  0  0  0  0  0  0  0
    3.9275   19.2041    3.3678 F   0  0  0  0  0  0  0  0  0  0  0  0
    2.3916   19.1640    1.8245 F   0  0  0  0  0  0  0  0  0  0  0  0
    1.9915   12.0477    0.4533 C   0  0  0  0  0  0  0  0  0  0  0  0
   -0.1940    9.0312    0.3849 C   0  0  0  0  0  0  0  0  0  0  0  0
    0.0782    7.7953    0.9146 N   0  0  0  0  0  0  0  0  0  0  0  0
    1.3877    7.7513    1.0233 C   0  0  0  0  0  0  0  0  0  0  0  0
    2.2468    6.7645    1.5959 C   0  0  0  0  0  0  0  0  0  0  0  0
    4.2478    4.6043    2.4963 C   0  0  0  0  0  0  0  0  0  0  0  0
    5.3560    3.9528    2.8566 N   0  0  0  0  0  0  0  0  0  0  0  0
    7.8721    3.5781    4.2451 C   0  0  0  0  0  0  0  0  0  0  0  0
    7.6486    2.1258    3.8295 C   0  0  0  0  0  0  0  0  0  0  0  0
    9.6692   -1.2871    3.3726 H   0  0  0  0  0  0  0  0  0  0  0  0
    8.0150   -0.7806    3.7692 H   0  0  0  0  0  0  0  0  0  0  0  0
    9.4348    0.0278    4.5233 H   0  0  0  0  0  0  0  0  0  0  0  0
    7.2456    2.5136    1.1319 H   0  0  0  0  0  0  0  0  0  0  0  0
    8.9406    2.3659    0.6816 H   0  0  0  0  0  0  0  0  0  0  0  0
    8.3162    4.7505    0.9886 H   0  0  0  0  0  0  0  0  0  0  0  0
    9.5906    4.2291    2.0856 H   0  0  0  0  0  0  0  0  0  0  0  0
    8.1357    5.5209    3.4170 H   0  0  0  0  0  0  0  0  0  0  0  0
    6.5336    6.9237    2.2138 H   0  0  0  0  0  0  0  0  0  0  0  0
    5.1793    8.4642    1.2974 H   0  0  0  0  0  0  0  0  0  0  0  0
    3.7472    9.9541   -0.0294 H   0  0  0  0  0  0  0  0  0  0  0  0
   -0.5014   11.1019   -1.6716 H   0  0  0  0  0  0  0  0  0  0  0  0
   -0.4525   13.5139   -2.1526 H   0  0  0  0  0  0  0  0  0  0  0  0
    1.0958   14.9859   -1.0154 H   0  0  0  0  0  0  0  0  0  0  0  0
    3.5495   13.7822    1.5554 H   0  0  0  0  0  0  0  0  0  0  0  0
    4.2351   15.6433    2.4733 H   0  0  0  0  0  0  0  0  0  0  0  0
    4.1327   17.9773    0.6190 H   0  0  0  0  0  0  0  0  0  0  0  0
    5.2351   17.7779    1.9772 H   0  0  0  0  0  0  0  0  0  0  0  0
    2.6555   11.6479    1.2200 H   0  0  0  0  0  0  0  0  0  0  0  0
   -1.2194    9.3667    0.2689 H   0  0  0  0  0  0  0  0  0  0  0  0
    1.7686    5.8591    1.9525 H   0  0  0  0  0  0  0  0  0  0  0  0
    3.3165    4.0581    2.4779 H   0  0  0  0  0  0  0  0  0  0  0  0
    7.2039    3.8403    5.0732 H   0  0  0  0  0  0  0  0  0  0  0  0
    8.8986    3.6668    4.6282 H   0  0  0  0  0  0  0  0  0  0  0  0
    6.6029    1.9185    3.5829 H   0  0  0  0  0  0  0  0  0  0  0  0
    7.8927    1.4861    4.6798 H   0  0  0  0  0  0  0  0  0  0  0  0
  1  2  1  0  0  0  0
  1 39  1  0  0  0  0
  1 40  1  0  0  0  0
  1 41  1  0  0  0  0
  2  3  2  0  0  0  0
  2  4  1  0  0  0  0
  4  5  1  0  0  0  0
  4 38  1  0  0  0  0
  5  6  1  0  0  0  0
  5 42  1  0  0  0  0
  5 43  1  0  0  0  0
  6  7  1  0  0  0  0
  6 44  1  0  0  0  0
  6 45  1  0  0  0  0
  7  8  1  0  0  0  0
  7 37  1  0  0  0  0
  7 46  1  0  0  0  0
  8  9  1  0  0  0  0
  8 36  1  0  0  0  0
  9 10  2  0  0  0  0
  9 47  1  0  0  0  0
 10 11  1  0  0  0  0
 10 35  1  0  0  0  0
 11 12  1  0  0  0  0
 11 34  2  0  0  0  0
 12 13  2  0  0  0  0
 12 48  1  0  0  0  0
 13 14  1  0  0  0  0
 13 49  1  0  0  0  0
 14 15  1  0  0  0  0
 14 33  1  0  0  0  0
 15 16  1  0  0  0  0
 15 31  2  0  0  0  0
 16 17  1  0  0  0  0
 16 30  2  0  0  0  0
 17 18  2  0  0  0  0
 17 50  1  0  0  0  0
 18 19  1  0  0  0  0
 18 51  1  0  0  0  0
 19 20  2  0  0  0  0
 19 52  1  0  0  0  0
 20 21  1  0  0  0  0
 20 30  1  0  0  0  0
 21 22  1  0  0  0  0
 21 53  1  0  0  0  0
 22 23  2  0  0  0  0
 22 24  1  0  0  0  0
 24 25  1  0  0  0  0
 24 54  1  0  0  0  0
 25 26  1  0  0  0  0
 25 55  1  0  0  0  0
 25 56  1  0  0  0  0
 26 27  1  0  0  0  0
 26 28  1  0  0  0  0
 26 29  1  0  0  0  0
 30 57  1  0  0  0  0
 31 32  1  0  0  0  0
 31 58  1  0  0  0  0
 32 33  2  0  0  0  0
 33 34  1  0  0  0  0
 34 59  1  0  0  0  0
 35 36  2  0  0  0  0
 35 60  1  0  0  0  0
 37 38  1  0  0  0  0
 37 61  1  0  0  0  0
 37 62  1  0  0  0  0
 38 63  1  0  0  0  0
 38 64  1  0  0  0  0
M  END
$$$$
