CHEMBL3628818
 OpenBabel04072215373D

 34 37  0  0  0  0  0  0  0  0999 V2000
    5.3445   -5.6258   -1.1962 Cl  0  0  0  0  0  0  0  0  0  0  0  0
    5.0159   -4.0001   -0.7433 C   0  0  0  0  0  0  0  0  0  0  0  0
    6.0626   -3.0926   -0.6230 C   0  0  0  0  0  0  0  0  0  0  0  0
    5.8029   -1.7827   -0.2310 C   0  0  0  0  0  0  0  0  0  0  0  0
    4.5029   -1.3564    0.0793 C   0  0  0  0  0  0  0  0  0  0  0  0
    4.2295   -0.0539    0.5031 N   0  0  0  0  0  0  0  0  0  0  0  0
    4.9370    1.1505    0.4169 C   0  0  0  0  0  0  0  0  0  0  0  0
    4.3551    2.1568    1.0946 N   0  0  0  0  0  0  0  0  0  0  0  0
    4.7532    3.4035    0.8097 C   0  0  0  0  0  0  0  0  0  0  0  0
    5.6835    3.6798   -0.1617 C   0  0  0  0  0  0  0  0  0  0  0  0
    6.3432    2.5882   -0.6994 C   0  0  0  0  0  0  0  0  0  0  0  0
    5.9875    1.3120   -0.4078 N   0  0  0  0  0  0  0  0  0  0  0  0
    7.2652    2.8218   -1.8306 C   0  0  0  0  0  0  0  0  0  0  0  0
    8.6118    2.4428   -1.8194 C   0  0  0  0  0  0  0  0  0  0  0  0
    9.4471    2.7897   -2.8938 C   0  0  0  0  0  0  0  0  0  0  0  0
    8.9248    3.4121   -4.0243 C   0  0  0  0  0  0  0  0  0  0  0  0
    9.9470    3.8014   -5.3526 Cl  0  0  0  0  0  0  0  0  0  0  0  0
    7.5967    3.8292   -4.0491 C   0  0  0  0  0  0  0  0  0  0  0  0
    6.8262    3.6390   -2.9008 C   0  0  0  0  0  0  0  0  0  0  0  0
    5.4793    4.8104   -2.5979 S   0  0  0  0  0  0  0  0  0  0  0  0
    5.8531    5.0151   -0.7966 C   0  0  0  0  0  0  0  0  0  0  0  0
    3.4547   -2.2809   -0.0840 C   0  0  0  0  0  0  0  0  0  0  0  0
    3.7071   -3.5953   -0.4904 C   0  0  0  0  0  0  0  0  0  0  0  0
    7.0859   -3.3943   -0.8229 H   0  0  0  0  0  0  0  0  0  0  0  0
    6.6361   -1.0891   -0.1360 H   0  0  0  0  0  0  0  0  0  0  0  0
    3.3613    0.0982    0.9930 H   0  0  0  0  0  0  0  0  0  0  0  0
    4.2251    4.1921    1.3363 H   0  0  0  0  0  0  0  0  0  0  0  0
    9.0384    1.9576   -0.9450 H   0  0  0  0  0  0  0  0  0  0  0  0
   10.5154    2.5900   -2.8329 H   0  0  0  0  0  0  0  0  0  0  0  0
    7.2026    4.3828   -4.8939 H   0  0  0  0  0  0  0  0  0  0  0  0
    5.1801    5.7624   -0.3690 H   0  0  0  0  0  0  0  0  0  0  0  0
    6.8773    5.3758   -0.6670 H   0  0  0  0  0  0  0  0  0  0  0  0
    2.4233   -1.9772    0.0877 H   0  0  0  0  0  0  0  0  0  0  0  0
    2.8854   -4.2954   -0.6024 H   0  0  0  0  0  0  0  0  0  0  0  0
  1  2  1  0  0  0  0
  2  3  1  0  0  0  0
  2 23  2  0  0  0  0
  3  4  2  0  0  0  0
  3 24  1  0  0  0  0
  4  5  1  0  0  0  0
  4 25  1  0  0  0  0
  5  6  1  0  0  0  0
  5 22  2  0  0  0  0
  6  7  1  0  0  0  0
  6 26  1  0  0  0  0
  7  8  1  0  0  0  0
  7 12  2  0  0  0  0
  8  9  2  0  0  0  0
  9 10  1  0  0  0  0
  9 27  1  0  0  0  0
 10 11  2  0  0  0  0
 10 21  1  0  0  0  0
 11 12  1  0  0  0  0
 11 13  1  0  0  0  0
 13 14  1  0  0  0  0
 13 19  2  0  0  0  0
 14 15  2  0  0  0  0
 14 28  1  0  0  0  0
 15 16  1  0  0  0  0
 15 29  1  0  0  0  0
 16 17  1  0  0  0  0
 16 18  2  0  0  0  0
 18 19  1  0  0  0  0
 18 30  1  0  0  0  0
 19 20  1  0  0  0  0
 20 21  1  0  0  0  0
 21 31  1  0  0  0  0
 21 32  1  0  0  0  0
 22 23  1  0  0  0  0
 22 33  1  0  0  0  0
 23 34  1  0  0  0  0
M  END
$$$$
