CHEMBL3690425
 OpenBabel04072215373D

 49 52  0  0  0  0  0  0  0  0999 V2000
    1.0350   -0.0343    0.6453 C   0  0  0  0  0  0  0  0  0  0  0  0
    2.4510   -0.0337    0.3436 N   0  0  0  0  0  0  0  0  0  0  0  0
    3.0905    1.1877    0.3767 N   0  0  0  0  0  0  0  0  0  0  0  0
    4.3384    1.2132    0.0203 C   0  0  0  0  0  0  0  0  0  0  0  0
    5.1011    2.4919   -0.0372 C   0  0  0  0  0  0  0  0  0  0  0  0
    5.6638    2.9427   -1.3018 C   0  0  0  0  0  0  0  0  0  0  0  0
    6.3389    4.1006   -1.3391 C   0  0  0  0  0  0  0  0  0  0  0  0
    6.4651    4.8734   -0.1780 N   0  0  0  0  0  0  0  0  0  0  0  0
    7.0215    6.1363    0.0224 C   0  0  0  0  0  0  0  0  0  0  0  0
    7.4867    7.0638   -1.0201 C   0  0  0  0  0  0  0  0  0  0  0  0
    6.8335    7.1229   -2.2595 C   0  0  0  0  0  0  0  0  0  0  0  0
    7.2579    7.9910   -3.2581 C   0  0  0  0  0  0  0  0  0  0  0  0
    8.3155    8.8571   -3.0141 C   0  0  0  0  0  0  0  0  0  0  0  0
    8.9772    8.8543   -1.7842 C   0  0  0  0  0  0  0  0  0  0  0  0
   10.0619    9.7222   -1.5114 N   0  0  0  0  0  0  0  0  0  0  0  0
   10.7694   10.4327   -2.4546 C   0  0  0  0  0  0  0  0  0  0  0  0
   10.6226   10.4016   -3.6657 O   0  0  0  0  0  0  0  0  0  0  0  0
   11.7831   11.1814   -1.9011 N   0  0  0  0  0  0  0  0  0  0  0  0
   12.6177   11.9794   -2.8094 C   0  0  0  0  0  0  0  0  0  0  0  0
   12.0162   13.3116   -3.2827 C   0  0  0  0  0  0  0  0  0  0  0  0
   10.8821   13.6218   -2.6132 F   0  0  0  0  0  0  0  0  0  0  0  0
   12.8949   14.3194   -3.0492 F   0  0  0  0  0  0  0  0  0  0  0  0
   11.7425   13.3176   -4.6032 F   0  0  0  0  0  0  0  0  0  0  0  0
    8.5505    7.9568   -0.7877 C   0  0  0  0  0  0  0  0  0  0  0  0
    6.9646    6.3015    1.3984 C   0  0  0  0  0  0  0  0  0  0  0  0
    6.3251    5.2629    2.0233 N   0  0  0  0  0  0  0  0  0  0  0  0
    5.9847    4.4371    1.0593 C   0  0  0  0  0  0  0  0  0  0  0  0
    5.2512    3.2117    1.0959 C   0  0  0  0  0  0  0  0  0  0  0  0
    5.1169    0.0318   -0.4000 C   0  0  0  0  0  0  0  0  0  0  0  0
    4.4802   -1.1375   -0.4108 C   0  0  0  0  0  0  0  0  0  0  0  0
    3.0584   -1.2268   -0.0185 C   0  0  0  0  0  0  0  0  0  0  0  0
    2.4994   -2.3228   -0.0531 O   0  0  0  0  0  0  0  0  0  0  0  0
    0.6933    0.9748    0.8962 H   0  0  0  0  0  0  0  0  0  0  0  0
    0.8455   -0.7096    1.4843 H   0  0  0  0  0  0  0  0  0  0  0  0
    0.4882   -0.3976   -0.2304 H   0  0  0  0  0  0  0  0  0  0  0  0
    5.5124    2.3500   -2.1985 H   0  0  0  0  0  0  0  0  0  0  0  0
    6.7881    4.4661   -2.2521 H   0  0  0  0  0  0  0  0  0  0  0  0
    5.9620    6.5089   -2.4727 H   0  0  0  0  0  0  0  0  0  0  0  0
    6.7567    8.0093   -4.2213 H   0  0  0  0  0  0  0  0  0  0  0  0
    8.5819    9.5459   -3.8091 H   0  0  0  0  0  0  0  0  0  0  0  0
   10.4597    9.6861   -0.5849 H   0  0  0  0  0  0  0  0  0  0  0  0
   11.5846   11.5831   -0.9948 H   0  0  0  0  0  0  0  0  0  0  0  0
   12.8592   11.3680   -3.6882 H   0  0  0  0  0  0  0  0  0  0  0  0
   13.5568   12.1632   -2.2804 H   0  0  0  0  0  0  0  0  0  0  0  0
    9.0606    7.9409    0.1738 H   0  0  0  0  0  0  0  0  0  0  0  0
    7.3130    7.1523    1.9710 H   0  0  0  0  0  0  0  0  0  0  0  0
    4.8348    2.8906    2.0433 H   0  0  0  0  0  0  0  0  0  0  0  0
    6.1522    0.1294   -0.6952 H   0  0  0  0  0  0  0  0  0  0  0  0
    4.9584   -2.0605   -0.7090 H   0  0  0  0  0  0  0  0  0  0  0  0
  1  2  1  0  0  0  0
  1 33  1  0  0  0  0
  1 34  1  0  0  0  0
  1 35  1  0  0  0  0
  2  3  1  0  0  0  0
  2 31  1  0  0  0  0
  3  4  2  0  0  0  0
  4  5  1  0  0  0  0
  4 29  1  0  0  0  0
  5  6  1  0  0  0  0
  5 28  2  0  0  0  0
  6  7  2  0  0  0  0
  6 36  1  0  0  0  0
  7  8  1  0  0  0  0
  7 37  1  0  0  0  0
  8  9  1  0  0  0  0
  8 27  1  0  0  0  0
  9 10  1  0  0  0  0
  9 25  2  0  0  0  0
 10 11  1  0  0  0  0
 10 24  2  0  0  0  0
 11 12  2  0  0  0  0
 11 38  1  0  0  0  0
 12 13  1  0  0  0  0
 12 39  1  0  0  0  0
 13 14  2  0  0  0  0
 13 40  1  0  0  0  0
 14 15  1  0  0  0  0
 14 24  1  0  0  0  0
 15 16  1  0  0  0  0
 15 41  1  0  0  0  0
 16 17  2  0  0  0  0
 16 18  1  0  0  0  0
 18 19  1  0  0  0  0
 18 42  1  0  0  0  0
 19 20  1  0  0  0  0
 19 43  1  0  0  0  0
 19 44  1  0  0  0  0
 20 21  1  0  0  0  0
 20 22  1  0  0  0  0
 20 23  1  0  0  0  0
 24 45  1  0  0  0  0
 25 26  1  0  0  0  0
 25 46  1  0  0  0  0
 26 27  2  0  0  0  0
 27 28  1  0  0  0  0
 28 47  1  0  0  0  0
 29 30  2  0  0  0  0
 29 48  1  0  0  0  0
 30 31  1  0  0  0  0
 30 49  1  0  0  0  0
 31 32  2  0  0  0  0
M  END
$$$$
