CHEMBL217090
 OpenBabel04072215363D

 68 73  0  0  0  0  0  0  0  0999 V2000
   -2.5206    0.9869   -2.6268 Cl  0  0  0  0  0  0  0  0  0  0  0  0
   -0.8362    1.3516   -2.4363 C   0  0  0  0  0  0  0  0  0  0  0  0
   -0.0173    0.9563   -3.5215 C   0  0  0  0  0  0  0  0  0  0  0  0
    1.3674    1.1045   -3.4716 C   0  0  0  0  0  0  0  0  0  0  0  0
    1.8957    1.6864   -2.3447 C   0  0  0  0  0  0  0  0  0  0  0  0
    1.1051    2.0727   -1.2820 C   0  0  0  0  0  0  0  0  0  0  0  0
   -0.2778    1.9018   -1.2594 C   0  0  0  0  0  0  0  0  0  0  0  0
   -0.9765    2.2485   -0.0891 N   0  0  0  0  0  0  0  0  0  0  0  0
   -2.2815    2.7431    0.0652 C   0  0  0  0  0  0  0  0  0  0  0  0
   -2.7537    3.5355   -0.9206 N   0  0  0  0  0  0  0  0  0  0  0  0
   -4.0410    3.8631   -0.8693 C   0  0  0  0  0  0  0  0  0  0  0  0
   -4.8981    3.4823    0.0709 N   0  0  0  0  0  0  0  0  0  0  0  0
   -4.4094    2.7304    1.0576 C   0  0  0  0  0  0  0  0  0  0  0  0
   -5.3294    2.3187    1.9931 C   0  0  0  0  0  0  0  0  0  0  0  0
   -4.9838    1.5334    3.0931 C   0  0  0  0  0  0  0  0  0  0  0  0
   -5.8852    1.0820    4.0295 O   0  0  0  0  0  0  0  0  0  0  0  0
   -7.2442    1.4634    3.7757 C   0  0  0  0  0  0  0  0  0  0  0  0
   -8.1808    0.9556    4.8620 C   0  0  0  0  0  0  0  0  0  0  0  0
   -9.6004    1.4801    4.5854 C   0  0  0  0  0  0  0  0  0  0  0  0
  -10.5896    1.0306    5.5736 N   0  0  0  0  0  0  0  0  0  0  0  0
  -11.9488    1.4734    5.2106 C   0  0  0  0  0  0  0  0  0  0  0  0
  -12.1143    2.8265    5.8735 C   0  0  0  0  0  0  0  0  0  0  0  0
  -11.3969    2.6409    7.1934 C   0  0  0  0  0  0  0  0  0  0  0  0
  -10.3384    1.5803    6.9182 C   0  0  0  0  0  0  0  0  0  0  0  0
   -3.6521    1.1756    3.2668 C   0  0  0  0  0  0  0  0  0  0  0  0
   -2.6835    1.5744    2.3350 C   0  0  0  0  0  0  0  0  0  0  0  0
   -1.3530    1.2648    2.4515 O   0  0  0  0  0  0  0  0  0  0  0  0
   -0.7756    1.0135    3.7494 C   0  0  0  0  0  0  0  0  0  0  0  0
   -0.6906    2.3063    4.5680 C   0  0  0  0  0  0  0  0  0  0  0  0
    0.2400    2.1638    5.7620 C   0  0  0  0  0  0  0  0  0  0  0  0
    1.5241    1.7047    5.3498 O   0  0  0  0  0  0  0  0  0  0  0  0
    1.4584    0.4053    4.7690 C   0  0  0  0  0  0  0  0  0  0  0  0
    0.6249    0.4371    3.4979 C   0  0  0  0  0  0  0  0  0  0  0  0
   -3.0713    2.3389    1.1714 C   0  0  0  0  0  0  0  0  0  0  0  0
    1.8511    2.6222   -0.2740 O   0  0  0  0  0  0  0  0  0  0  0  0
    3.1549    2.6585   -0.8903 C   0  0  0  0  0  0  0  0  0  0  0  0
    3.2157    1.9371   -2.1356 O   0  0  0  0  0  0  0  0  0  0  0  0
   -0.4695    0.5056   -4.4033 H   0  0  0  0  0  0  0  0  0  0  0  0
    2.0003    0.7754   -4.2876 H   0  0  0  0  0  0  0  0  0  0  0  0
   -0.3923    2.4281    0.7204 H   0  0  0  0  0  0  0  0  0  0  0  0
   -4.4296    4.4776   -1.6748 H   0  0  0  0  0  0  0  0  0  0  0  0
   -6.3564    2.6284    1.8121 H   0  0  0  0  0  0  0  0  0  0  0  0
   -7.5707    1.0470    2.8132 H   0  0  0  0  0  0  0  0  0  0  0  0
   -7.3128    2.5596    3.7590 H   0  0  0  0  0  0  0  0  0  0  0  0
   -7.7984    1.2910    5.8311 H   0  0  0  0  0  0  0  0  0  0  0  0
   -8.1678   -0.1400    4.8874 H   0  0  0  0  0  0  0  0  0  0  0  0
   -9.9025    1.1068    3.5968 H   0  0  0  0  0  0  0  0  0  0  0  0
   -9.5849    2.5757    4.5143 H   0  0  0  0  0  0  0  0  0  0  0  0
  -12.6709    0.7639    5.6337 H   0  0  0  0  0  0  0  0  0  0  0  0
  -12.1321    1.5110    4.1309 H   0  0  0  0  0  0  0  0  0  0  0  0
  -13.1630    3.1057    6.0107 H   0  0  0  0  0  0  0  0  0  0  0  0
  -11.6268    3.6117    5.2835 H   0  0  0  0  0  0  0  0  0  0  0  0
  -12.0953    2.2796    7.9566 H   0  0  0  0  0  0  0  0  0  0  0  0
  -10.9576    3.5785    7.5480 H   0  0  0  0  0  0  0  0  0  0  0  0
  -10.4164    0.7708    7.6522 H   0  0  0  0  0  0  0  0  0  0  0  0
   -9.3434    2.0182    7.0386 H   0  0  0  0  0  0  0  0  0  0  0  0
   -3.4021    0.5629    4.1275 H   0  0  0  0  0  0  0  0  0  0  0  0
   -1.3415    0.2481    4.2917 H   0  0  0  0  0  0  0  0  0  0  0  0
   -1.6857    2.6062    4.9148 H   0  0  0  0  0  0  0  0  0  0  0  0
   -0.3330    3.1166    3.9198 H   0  0  0  0  0  0  0  0  0  0  0  0
   -0.1687    1.4772    6.5124 H   0  0  0  0  0  0  0  0  0  0  0  0
    0.3744    3.1364    6.2468 H   0  0  0  0  0  0  0  0  0  0  0  0
    1.0539   -0.3030    5.5017 H   0  0  0  0  0  0  0  0  0  0  0  0
    2.4814    0.0907    4.5384 H   0  0  0  0  0  0  0  0  0  0  0  0
    0.5437   -0.5715    3.0758 H   0  0  0  0  0  0  0  0  0  0  0  0
    1.1365    1.0459    2.7419 H   0  0  0  0  0  0  0  0  0  0  0  0
    3.8855    2.2294   -0.1968 H   0  0  0  0  0  0  0  0  0  0  0  0
    3.4251    3.7044   -1.0831 H   0  0  0  0  0  0  0  0  0  0  0  0
  1  2  1  0  0  0  0
  2  3  1  0  0  0  0
  2  7  2  0  0  0  0
  3  4  2  0  0  0  0
  3 38  1  0  0  0  0
  4  5  1  0  0  0  0
  4 39  1  0  0  0  0
  5  6  2  0  0  0  0
  5 37  1  0  0  0  0
  6  7  1  0  0  0  0
  6 35  1  0  0  0  0
  7  8  1  0  0  0  0
  8  9  1  0  0  0  0
  8 40  1  0  0  0  0
  9 10  1  0  0  0  0
  9 34  2  0  0  0  0
 10 11  2  0  0  0  0
 11 12  1  0  0  0  0
 11 41  1  0  0  0  0
 12 13  2  0  0  0  0
 13 14  1  0  0  0  0
 13 34  1  0  0  0  0
 14 15  2  0  0  0  0
 14 42  1  0  0  0  0
 15 16  1  0  0  0  0
 15 25  1  0  0  0  0
 16 17  1  0  0  0  0
 17 18  1  0  0  0  0
 17 43  1  0  0  0  0
 17 44  1  0  0  0  0
 18 19  1  0  0  0  0
 18 45  1  0  0  0  0
 18 46  1  0  0  0  0
 19 20  1  0  0  0  0
 19 47  1  0  0  0  0
 19 48  1  0  0  0  0
 20 21  1  0  0  0  0
 20 24  1  0  0  0  0
 21 22  1  0  0  0  0
 21 49  1  0  0  0  0
 21 50  1  0  0  0  0
 22 23  1  0  0  0  0
 22 51  1  0  0  0  0
 22 52  1  0  0  0  0
 23 24  1  0  0  0  0
 23 53  1  0  0  0  0
 23 54  1  0  0  0  0
 24 55  1  0  0  0  0
 24 56  1  0  0  0  0
 25 26  2  0  0  0  0
 25 57  1  0  0  0  0
 26 27  1  0  0  0  0
 26 34  1  0  0  0  0
 27 28  1  0  0  0  0
 28 29  1  0  0  0  0
 28 33  1  0  0  0  0
 28 58  1  0  0  0  0
 29 30  1  0  0  0  0
 29 59  1  0  0  0  0
 29 60  1  0  0  0  0
 30 31  1  0  0  0  0
 30 61  1  0  0  0  0
 30 62  1  0  0  0  0
 31 32  1  0  0  0  0
 32 33  1  0  0  0  0
 32 63  1  0  0  0  0
 32 64  1  0  0  0  0
 33 65  1  0  0  0  0
 33 66  1  0  0  0  0
 35 36  1  0  0  0  0
 36 37  1  0  0  0  0
 36 67  1  0  0  0  0
 36 68  1  0  0  0  0
M  END
$$$$
