CHEMBL127907
 OpenBabel04072215363D

 37 39  0  0  0  0  0  0  0  0999 V2000
    3.5127   -0.2406    1.1255 C   0  0  0  0  0  0  0  0  0  0  0  0
    2.6155    0.1857    0.0974 O   0  0  0  0  0  0  0  0  0  0  0  0
    3.1709    0.3549   -1.1431 C   0  0  0  0  0  0  0  0  0  0  0  0
    4.2565   -0.4333   -1.5709 C   0  0  0  0  0  0  0  0  0  0  0  0
    4.9165   -0.2087   -2.7722 C   0  0  0  0  0  0  0  0  0  0  0  0
    5.9890   -0.9487   -3.0661 N   0  0  0  0  0  0  0  0  0  0  0  0
    6.6122   -0.6641   -4.2107 C   0  0  0  0  0  0  0  0  0  0  0  0
    6.2678    0.2869   -5.0815 N   0  0  0  0  0  0  0  0  0  0  0  0
    5.1857    1.0276   -4.7764 C   0  0  0  0  0  0  0  0  0  0  0  0
    4.8132    2.1023   -5.6316 N   0  0  0  0  0  0  0  0  0  0  0  0
    5.3320    2.2987   -6.9288 C   0  0  0  0  0  0  0  0  0  0  0  0
    5.3894    1.2348   -7.8402 C   0  0  0  0  0  0  0  0  0  0  0  0
    5.9495    1.4043   -9.1057 C   0  0  0  0  0  0  0  0  0  0  0  0
    6.4565    2.6467   -9.4785 C   0  0  0  0  0  0  0  0  0  0  0  0
    6.3732    3.7120   -8.5878 C   0  0  0  0  0  0  0  0  0  0  0  0
    6.8630    4.9436   -8.9132 O   0  0  0  0  0  0  0  0  0  0  0  0
    5.8030    3.5537   -7.3272 C   0  0  0  0  0  0  0  0  0  0  0  0
    4.4409    0.7997   -3.6111 C   0  0  0  0  0  0  0  0  0  0  0  0
    3.2746    1.5095   -3.2476 C   0  0  0  0  0  0  0  0  0  0  0  0
    2.6437    1.3094   -2.0163 C   0  0  0  0  0  0  0  0  0  0  0  0
    1.5749    2.1439   -1.8695 O   0  0  0  0  0  0  0  0  0  0  0  0
    0.9112    2.2322   -0.6224 C   0  0  0  0  0  0  0  0  0  0  0  0
    3.2245    0.2541    2.0562 H   0  0  0  0  0  0  0  0  0  0  0  0
    4.5605    0.0287    0.9360 H   0  0  0  0  0  0  0  0  0  0  0  0
    3.4214   -1.3227    1.2644 H   0  0  0  0  0  0  0  0  0  0  0  0
    4.6286   -1.2438   -0.9507 H   0  0  0  0  0  0  0  0  0  0  0  0
    7.4965   -1.2465   -4.4565 H   0  0  0  0  0  0  0  0  0  0  0  0
    4.7948    2.9641   -5.0935 H   0  0  0  0  0  0  0  0  0  0  0  0
    4.9974    0.2611   -7.5559 H   0  0  0  0  0  0  0  0  0  0  0  0
    5.9969    0.5609   -9.7880 H   0  0  0  0  0  0  0  0  0  0  0  0
    6.9110    2.7610  -10.4572 H   0  0  0  0  0  0  0  0  0  0  0  0
    7.2934    4.8833   -9.7822 H   0  0  0  0  0  0  0  0  0  0  0  0
    5.7677    4.4044   -6.6535 H   0  0  0  0  0  0  0  0  0  0  0  0
    2.8562    2.2469   -3.9274 H   0  0  0  0  0  0  0  0  0  0  0  0
    0.2671    3.1177   -0.6696 H   0  0  0  0  0  0  0  0  0  0  0  0
    1.6058    2.3904    0.2068 H   0  0  0  0  0  0  0  0  0  0  0  0
    0.2666    1.3632   -0.4647 H   0  0  0  0  0  0  0  0  0  0  0  0
  1  2  1  0  0  0  0
  1 23  1  0  0  0  0
  1 24  1  0  0  0  0
  1 25  1  0  0  0  0
  2  3  1  0  0  0  0
  3  4  1  0  0  0  0
  3 20  2  0  0  0  0
  4  5  2  0  0  0  0
  4 26  1  0  0  0  0
  5  6  1  0  0  0  0
  5 18  1  0  0  0  0
  6  7  2  0  0  0  0
  7  8  1  0  0  0  0
  7 27  1  0  0  0  0
  8  9  2  0  0  0  0
  9 10  1  0  0  0  0
  9 18  1  0  0  0  0
 10 11  1  0  0  0  0
 10 28  1  0  0  0  0
 11 12  1  0  0  0  0
 11 17  2  0  0  0  0
 12 13  2  0  0  0  0
 12 29  1  0  0  0  0
 13 14  1  0  0  0  0
 13 30  1  0  0  0  0
 14 15  2  0  0  0  0
 14 31  1  0  0  0  0
 15 16  1  0  0  0  0
 15 17  1  0  0  0  0
 16 32  1  0  0  0  0
 17 33  1  0  0  0  0
 18 19  2  0  0  0  0
 19 20  1  0  0  0  0
 19 34  1  0  0  0  0
 20 21  1  0  0  0  0
 21 22  1  0  0  0  0
 22 35  1  0  0  0  0
 22 36  1  0  0  0  0
 22 37  1  0  0  0  0
M  END
$$$$
