CHEMBL3973263
 OpenBabel04072215373D

 69 73  0  0  0  0  0  0  0  0999 V2000
    2.0378    4.4029    3.2788 C   0  0  0  0  0  0  0  0  0  0  0  0
    2.0081    2.9950    3.4744 O   0  0  0  0  0  0  0  0  0  0  0  0
    2.9881    2.2877    2.8300 C   0  0  0  0  0  0  0  0  0  0  0  0
    2.5755    1.0442    2.3555 C   0  0  0  0  0  0  0  0  0  0  0  0
    3.4688    0.2367    1.6632 C   0  0  0  0  0  0  0  0  0  0  0  0
    3.1498   -0.9709    1.0993 O   0  0  0  0  0  0  0  0  0  0  0  0
    1.7888   -1.1100    0.6939 C   0  0  0  0  0  0  0  0  0  0  0  0
    4.7994    0.6488    1.5104 C   0  0  0  0  0  0  0  0  0  0  0  0
    5.2461    1.9014    1.9553 C   0  0  0  0  0  0  0  0  0  0  0  0
    6.5133    2.4139    1.6294 N   0  0  0  0  0  0  0  0  0  0  0  0
    7.0566    2.2813    0.2219 C   0  0  0  0  0  0  0  0  0  0  0  0
    6.2354    1.8714   -1.0106 C   0  0  0  0  0  0  0  0  0  0  0  0
    5.2719    2.8744   -1.6768 C   0  0  0  0  0  0  0  0  0  0  0  0
    4.5593    2.2277   -2.8051 N   0  0  0  0  0  0  0  0  0  0  0  0
    5.4041    1.8421   -3.9571 C   0  0  0  0  0  0  0  0  0  0  0  0
    5.7626    2.9809   -4.9396 C   0  0  0  0  0  0  0  0  0  0  0  0
    4.5956    3.7290   -5.4309 N   0  0  0  0  0  0  0  0  0  0  0  0
    3.7460    4.1368   -4.2990 C   0  0  0  0  0  0  0  0  0  0  0  0
    3.4054    3.0022   -3.3041 C   0  0  0  0  0  0  0  0  0  0  0  0
    7.6391    2.7018    2.5079 C   0  0  0  0  0  0  0  0  0  0  0  0
    8.4027    3.8113    2.1507 C   0  0  0  0  0  0  0  0  0  0  0  0
    9.7581    3.8446    2.4353 C   0  0  0  0  0  0  0  0  0  0  0  0
   10.3389    2.9013    3.2351 C   0  0  0  0  0  0  0  0  0  0  0  0
   11.6836    2.9604    3.2548 N   0  0  0  0  0  0  0  0  0  0  0  0
   12.2986    2.2060    4.1716 C   0  0  0  0  0  0  0  0  0  0  0  0
   11.5989    1.4794    5.1121 C   0  0  0  0  0  0  0  0  0  0  0  0
   12.3559    1.1067    6.3074 C   0  0  0  0  0  0  0  0  0  0  0  0
   12.4183    1.7670    7.5655 C   0  0  0  0  0  0  0  0  0  0  0  0
   13.4178    1.3277    8.3412 N   0  0  0  0  0  0  0  0  0  0  0  0
   14.0136    0.3909    7.5851 N   0  0  0  0  0  0  0  0  0  0  0  0
   15.0218   -0.4741    8.1537 C   0  0  0  0  0  0  0  0  0  0  0  0
   13.5065    0.3312    6.3135 C   0  0  0  0  0  0  0  0  0  0  0  0
   10.2267    1.3000    4.9980 N   0  0  0  0  0  0  0  0  0  0  0  0
    9.5692    1.9772    3.9773 C   0  0  0  0  0  0  0  0  0  0  0  0
    8.1890    1.8596    3.5212 C   0  0  0  0  0  0  0  0  0  0  0  0
    4.3158    2.7084    2.6444 C   0  0  0  0  0  0  0  0  0  0  0  0
    1.0509    4.7960    3.5372 H   0  0  0  0  0  0  0  0  0  0  0  0
    2.2294    4.6683    2.2328 H   0  0  0  0  0  0  0  0  0  0  0  0
    2.7687    4.8677    3.9460 H   0  0  0  0  0  0  0  0  0  0  0  0
    1.5504    0.7360    2.5347 H   0  0  0  0  0  0  0  0  0  0  0  0
    1.7096   -2.0141    0.0823 H   0  0  0  0  0  0  0  0  0  0  0  0
    1.4623   -0.2632    0.0783 H   0  0  0  0  0  0  0  0  0  0  0  0
    1.1324   -1.2394    1.5602 H   0  0  0  0  0  0  0  0  0  0  0  0
    5.4838   -0.0220    1.0001 H   0  0  0  0  0  0  0  0  0  0  0  0
    7.8688    1.5418    0.2811 H   0  0  0  0  0  0  0  0  0  0  0  0
    7.5230    3.2302   -0.0704 H   0  0  0  0  0  0  0  0  0  0  0  0
    5.7333    0.9153   -0.8673 H   0  0  0  0  0  0  0  0  0  0  0  0
    7.0135    1.6670   -1.7579 H   0  0  0  0  0  0  0  0  0  0  0  0
    5.8088    3.7695   -2.0118 H   0  0  0  0  0  0  0  0  0  0  0  0
    4.5420    3.1906   -0.9222 H   0  0  0  0  0  0  0  0  0  0  0  0
    4.8496    1.0802   -4.5221 H   0  0  0  0  0  0  0  0  0  0  0  0
    6.3216    1.3325   -3.6477 H   0  0  0  0  0  0  0  0  0  0  0  0
    6.2758    2.5481   -5.8075 H   0  0  0  0  0  0  0  0  0  0  0  0
    6.4719    3.6754   -4.4742 H   0  0  0  0  0  0  0  0  0  0  0  0
    4.0530    3.1132   -6.0368 H   0  0  0  0  0  0  0  0  0  0  0  0
    2.8140    4.5417   -4.7112 H   0  0  0  0  0  0  0  0  0  0  0  0
    4.2352    4.9572   -3.7681 H   0  0  0  0  0  0  0  0  0  0  0  0
    2.7472    2.2965   -3.8270 H   0  0  0  0  0  0  0  0  0  0  0  0
    2.8077    3.4019   -2.4721 H   0  0  0  0  0  0  0  0  0  0  0  0
    7.9901    4.5801    1.5029 H   0  0  0  0  0  0  0  0  0  0  0  0
   10.3743    4.6120    1.9790 H   0  0  0  0  0  0  0  0  0  0  0  0
   13.3807    2.2769    4.1779 H   0  0  0  0  0  0  0  0  0  0  0  0
   11.8087    2.5833    7.9312 H   0  0  0  0  0  0  0  0  0  0  0  0
   15.2027   -0.2032    9.1983 H   0  0  0  0  0  0  0  0  0  0  0  0
   15.9467   -0.3862    7.5782 H   0  0  0  0  0  0  0  0  0  0  0  0
   14.6385   -1.4970    8.1045 H   0  0  0  0  0  0  0  0  0  0  0  0
   13.9967   -0.2558    5.5488 H   0  0  0  0  0  0  0  0  0  0  0  0
    7.5919    1.0443    3.9282 H   0  0  0  0  0  0  0  0  0  0  0  0
    4.6308    3.6839    3.0016 H   0  0  0  0  0  0  0  0  0  0  0  0
  1  2  1  0  0  0  0
  1 37  1  0  0  0  0
  1 38  1  0  0  0  0
  1 39  1  0  0  0  0
  2  3  1  0  0  0  0
  3  4  1  0  0  0  0
  3 36  2  0  0  0  0
  4  5  2  0  0  0  0
  4 40  1  0  0  0  0
  5  6  1  0  0  0  0
  5  8  1  0  0  0  0
  6  7  1  0  0  0  0
  7 41  1  0  0  0  0
  7 42  1  0  0  0  0
  7 43  1  0  0  0  0
  8  9  2  0  0  0  0
  8 44  1  0  0  0  0
  9 10  1  0  0  0  0
  9 36  1  0  0  0  0
 10 11  1  0  0  0  0
 10 20  1  0  0  0  0
 11 12  1  0  0  0  0
 11 45  1  0  0  0  0
 11 46  1  0  0  0  0
 12 13  1  0  0  0  0
 12 47  1  0  0  0  0
 12 48  1  0  0  0  0
 13 14  1  0  0  0  0
 13 49  1  0  0  0  0
 13 50  1  0  0  0  0
 14 15  1  0  0  0  0
 14 19  1  0  0  0  0
 15 16  1  0  0  0  0
 15 51  1  0  0  0  0
 15 52  1  0  0  0  0
 16 17  1  0  0  0  0
 16 53  1  0  0  0  0
 16 54  1  0  0  0  0
 17 18  1  0  0  0  0
 17 55  1  0  0  0  0
 18 19  1  0  0  0  0
 18 56  1  0  0  0  0
 18 57  1  0  0  0  0
 19 58  1  0  0  0  0
 19 59  1  0  0  0  0
 20 21  1  0  0  0  0
 20 35  2  0  0  0  0
 21 22  2  0  0  0  0
 21 60  1  0  0  0  0
 22 23  1  0  0  0  0
 22 61  1  0  0  0  0
 23 24  1  0  0  0  0
 23 34  2  0  0  0  0
 24 25  2  0  0  0  0
 25 26  1  0  0  0  0
 25 62  1  0  0  0  0
 26 27  1  0  0  0  0
 26 33  2  0  0  0  0
 27 28  1  0  0  0  0
 27 32  2  0  0  0  0
 28 29  2  0  0  0  0
 28 63  1  0  0  0  0
 29 30  1  0  0  0  0
 30 31  1  0  0  0  0
 30 32  1  0  0  0  0
 31 64  1  0  0  0  0
 31 65  1  0  0  0  0
 31 66  1  0  0  0  0
 32 67  1  0  0  0  0
 33 34  1  0  0  0  0
 34 35  1  0  0  0  0
 35 68  1  0  0  0  0
 36 69  1  0  0  0  0
M  END
$$$$
