CHEMBL380508
 OpenBabel04072215373D

 46 50  0  0  0  0  0  0  0  0999 V2000
   -2.0437    1.1191   -4.6203 C   0  0  0  0  0  0  0  0  0  0  0  0
   -2.1573    0.2704   -3.3884 C   0  0  0  0  0  0  0  0  0  0  0  0
   -1.7568   -1.0702   -3.3996 C   0  0  0  0  0  0  0  0  0  0  0  0
   -1.8140   -1.8421   -2.2318 C   0  0  0  0  0  0  0  0  0  0  0  0
   -2.2808   -1.3011   -1.0265 C   0  0  0  0  0  0  0  0  0  0  0  0
   -2.2091   -2.0081    0.1956 N   0  0  0  0  0  0  0  0  0  0  0  0
   -2.2474   -3.4108    0.3654 C   0  0  0  0  0  0  0  0  0  0  0  0
   -2.9878   -4.1460   -0.4824 N   0  0  0  0  0  0  0  0  0  0  0  0
   -3.0218   -5.5067   -0.3819 N   0  0  0  0  0  0  0  0  0  0  0  0
   -2.2197   -6.1690    0.4782 C   0  0  0  0  0  0  0  0  0  0  0  0
   -2.3175   -7.6620    0.3791 C   0  0  0  0  0  0  0  0  0  0  0  0
   -2.2880   -8.4333    1.5622 C   0  0  0  0  0  0  0  0  0  0  0  0
   -2.2332   -9.8234    1.5466 C   0  0  0  0  0  0  0  0  0  0  0  0
   -2.3093  -10.4945    0.3380 C   0  0  0  0  0  0  0  0  0  0  0  0
   -2.4715   -9.7864   -0.8572 C   0  0  0  0  0  0  0  0  0  0  0  0
   -2.6471  -10.4767   -2.0610 C   0  0  0  0  0  0  0  0  0  0  0  0
   -2.8321   -9.9010   -3.2655 N   0  0  0  0  0  0  0  0  0  0  0  0
   -2.8357   -8.5601   -3.2796 C   0  0  0  0  0  0  0  0  0  0  0  0
   -2.6372   -7.7758   -2.1517 C   0  0  0  0  0  0  0  0  0  0  0  0
   -2.4702   -8.3670   -0.8730 C   0  0  0  0  0  0  0  0  0  0  0  0
   -1.4092   -5.4451    1.3947 C   0  0  0  0  0  0  0  0  0  0  0  0
   -0.4940   -6.0293    2.3175 C   0  0  0  0  0  0  0  0  0  0  0  0
    0.1795   -5.2840    3.2868 C   0  0  0  0  0  0  0  0  0  0  0  0
    0.0170   -3.9126    3.3246 C   0  0  0  0  0  0  0  0  0  0  0  0
   -0.7790   -3.2888    2.3630 C   0  0  0  0  0  0  0  0  0  0  0  0
   -1.4941   -4.0294    1.3855 C   0  0  0  0  0  0  0  0  0  0  0  0
   -2.6881    0.0410   -1.0379 C   0  0  0  0  0  0  0  0  0  0  0  0
   -3.1240    0.6032    0.1019 F   0  0  0  0  0  0  0  0  0  0  0  0
   -2.6421    0.8175   -2.1961 C   0  0  0  0  0  0  0  0  0  0  0  0
   -1.6258    0.5547   -5.4602 H   0  0  0  0  0  0  0  0  0  0  0  0
   -1.3804    1.9685   -4.4284 H   0  0  0  0  0  0  0  0  0  0  0  0
   -3.0291    1.4906   -4.9196 H   0  0  0  0  0  0  0  0  0  0  0  0
   -1.3752   -1.5244   -4.3130 H   0  0  0  0  0  0  0  0  0  0  0  0
   -1.4598   -2.8693   -2.2742 H   0  0  0  0  0  0  0  0  0  0  0  0
   -2.6827   -1.5302    0.9565 H   0  0  0  0  0  0  0  0  0  0  0  0
   -2.2973   -7.9509    2.5366 H   0  0  0  0  0  0  0  0  0  0  0  0
   -2.1333  -10.3765    2.4772 H   0  0  0  0  0  0  0  0  0  0  0  0
   -2.2742  -11.5835    0.3386 H   0  0  0  0  0  0  0  0  0  0  0  0
   -2.6541  -11.5646   -2.0853 H   0  0  0  0  0  0  0  0  0  0  0  0
   -3.0079   -8.1034   -4.2497 H   0  0  0  0  0  0  0  0  0  0  0  0
   -2.6525   -6.7018   -2.2949 H   0  0  0  0  0  0  0  0  0  0  0  0
   -0.2796   -7.0946    2.2961 H   0  0  0  0  0  0  0  0  0  0  0  0
    0.8277   -5.7835    4.0026 H   0  0  0  0  0  0  0  0  0  0  0  0
    0.5325   -3.3224    4.0774 H   0  0  0  0  0  0  0  0  0  0  0  0
   -0.8370   -2.2036    2.3830 H   0  0  0  0  0  0  0  0  0  0  0  0
   -2.9677    1.8527   -2.1500 H   0  0  0  0  0  0  0  0  0  0  0  0
  1  2  1  0  0  0  0
  1 30  1  0  0  0  0
  1 31  1  0  0  0  0
  1 32  1  0  0  0  0
  2  3  1  0  0  0  0
  2 29  2  0  0  0  0
  3  4  2  0  0  0  0
  3 33  1  0  0  0  0
  4  5  1  0  0  0  0
  4 34  1  0  0  0  0
  5  6  1  0  0  0  0
  5 27  2  0  0  0  0
  6  7  1  0  0  0  0
  6 35  1  0  0  0  0
  7  8  1  0  0  0  0
  7 26  2  0  0  0  0
  8  9  2  0  0  0  0
  9 10  1  0  0  0  0
 10 11  1  0  0  0  0
 10 21  2  0  0  0  0
 11 12  1  0  0  0  0
 11 20  2  0  0  0  0
 12 13  2  0  0  0  0
 12 36  1  0  0  0  0
 13 14  1  0  0  0  0
 13 37  1  0  0  0  0
 14 15  2  0  0  0  0
 14 38  1  0  0  0  0
 15 16  1  0  0  0  0
 15 20  1  0  0  0  0
 16 17  2  0  0  0  0
 16 39  1  0  0  0  0
 17 18  1  0  0  0  0
 18 19  2  0  0  0  0
 18 40  1  0  0  0  0
 19 20  1  0  0  0  0
 19 41  1  0  0  0  0
 21 22  1  0  0  0  0
 21 26  1  0  0  0  0
 22 23  2  0  0  0  0
 22 42  1  0  0  0  0
 23 24  1  0  0  0  0
 23 43  1  0  0  0  0
 24 25  2  0  0  0  0
 24 44  1  0  0  0  0
 25 26  1  0  0  0  0
 25 45  1  0  0  0  0
 27 28  1  0  0  0  0
 27 29  1  0  0  0  0
 29 46  1  0  0  0  0
M  END
$$$$
