CHEMBL3706841
 OpenBabel04072215373D

 68 72  0  0  0  0  0  0  0  0999 V2000
    2.5740    0.6523    0.8964 C   0  0  0  0  0  0  0  0  0  0  0  0
    2.4124   -0.0091   -0.3598 O   0  0  0  0  0  0  0  0  0  0  0  0
    3.1325   -1.1450   -0.6002 C   0  0  0  0  0  0  0  0  0  0  0  0
    4.2535   -1.4847    0.1585 C   0  0  0  0  0  0  0  0  0  0  0  0
    4.9000   -2.7354    0.0220 C   0  0  0  0  0  0  0  0  0  0  0  0
    5.9677   -3.1624    0.8409 C   0  0  0  0  0  0  0  0  0  0  0  0
    6.3921   -2.3148    1.8838 N   0  0  0  0  0  0  0  0  0  0  0  0
    7.5499   -2.3435    2.6338 C   0  0  0  0  0  0  0  0  0  0  0  0
    8.2284   -3.4085    3.0758 C   0  0  0  0  0  0  0  0  0  0  0  0
    9.4045   -3.3244    3.9665 C   0  0  0  0  0  0  0  0  0  0  0  0
    9.9153   -4.3497    4.3926 O   0  0  0  0  0  0  0  0  0  0  0  0
    9.8979   -1.9608    4.3367 C   0  0  0  0  0  0  0  0  0  0  0  0
   10.9649   -1.7407    5.1997 O   0  0  0  0  0  0  0  0  0  0  0  0
   11.9858   -2.7406    5.2565 C   0  0  0  0  0  0  0  0  0  0  0  0
   13.2799   -2.0637    5.6299 C   0  0  0  0  0  0  0  0  0  0  0  0
   13.9771   -2.3914    6.7984 C   0  0  0  0  0  0  0  0  0  0  0  0
   13.4925   -3.3312    7.6204 F   0  0  0  0  0  0  0  0  0  0  0  0
   15.1794   -1.7635    7.1140 C   0  0  0  0  0  0  0  0  0  0  0  0
   15.8354   -2.1006    8.2378 F   0  0  0  0  0  0  0  0  0  0  0  0
   15.7087   -0.8000    6.2683 C   0  0  0  0  0  0  0  0  0  0  0  0
   16.8662   -0.2014    6.5658 F   0  0  0  0  0  0  0  0  0  0  0  0
   15.0356   -0.4631    5.1004 C   0  0  0  0  0  0  0  0  0  0  0  0
   15.5435    0.4528    4.2720 F   0  0  0  0  0  0  0  0  0  0  0  0
   13.8319   -1.0958    4.7889 C   0  0  0  0  0  0  0  0  0  0  0  0
   13.2083   -0.7714    3.6459 F   0  0  0  0  0  0  0  0  0  0  0  0
    9.2561   -0.8908    3.8611 C   0  0  0  0  0  0  0  0  0  0  0  0
    8.0697   -0.9827    3.0007 C   0  0  0  0  0  0  0  0  0  0  0  0
    7.5204    0.0442    2.6045 O   0  0  0  0  0  0  0  0  0  0  0  0
    6.6305   -4.3043    0.6008 N   0  0  0  0  0  0  0  0  0  0  0  0
    6.1695   -5.0458   -0.4130 C   0  0  0  0  0  0  0  0  0  0  0  0
    5.1146   -4.7738   -1.1945 N   0  0  0  0  0  0  0  0  0  0  0  0
    4.4885   -3.6147   -0.9788 C   0  0  0  0  0  0  0  0  0  0  0  0
    3.4181   -3.2382   -1.7903 C   0  0  0  0  0  0  0  0  0  0  0  0
    2.7548   -2.0112   -1.6399 C   0  0  0  0  0  0  0  0  0  0  0  0
    1.7833   -1.7949   -2.5939 O   0  0  0  0  0  0  0  0  0  0  0  0
    1.5459   -0.4232   -2.9009 C   0  0  0  0  0  0  0  0  0  0  0  0
    1.1018   -0.2182   -4.3472 C   0  0  0  0  0  0  0  0  0  0  0  0
    0.9079    1.2945   -4.5578 C   0  0  0  0  0  0  0  0  0  0  0  0
    0.4834    1.6782   -5.9092 N   0  0  0  0  0  0  0  0  0  0  0  0
    0.3877    3.1465   -6.0321 C   0  0  0  0  0  0  0  0  0  0  0  0
   -1.0419    3.4839   -5.6573 C   0  0  0  0  0  0  0  0  0  0  0  0
   -1.8203    2.3353   -6.2611 C   0  0  0  0  0  0  0  0  0  0  0  0
   -0.8542    1.1581   -6.2437 C   0  0  0  0  0  0  0  0  0  0  0  0
    3.1425    1.5756    0.7482 H   0  0  0  0  0  0  0  0  0  0  0  0
    3.0444    0.0518    1.6809 H   0  0  0  0  0  0  0  0  0  0  0  0
    1.5808    0.9107    1.2735 H   0  0  0  0  0  0  0  0  0  0  0  0
    4.6799   -0.7596    0.8434 H   0  0  0  0  0  0  0  0  0  0  0  0
    5.6135   -1.9234    2.4088 H   0  0  0  0  0  0  0  0  0  0  0  0
    7.8982   -4.4220    2.8473 H   0  0  0  0  0  0  0  0  0  0  0  0
   12.1369   -3.2294    4.2820 H   0  0  0  0  0  0  0  0  0  0  0  0
   11.7061   -3.4884    6.0032 H   0  0  0  0  0  0  0  0  0  0  0  0
    9.5781    0.1146    4.1075 H   0  0  0  0  0  0  0  0  0  0  0  0
    6.7088   -5.9632   -0.6281 H   0  0  0  0  0  0  0  0  0  0  0  0
    3.1070   -3.9121   -2.5861 H   0  0  0  0  0  0  0  0  0  0  0  0
    2.4585    0.1713   -2.7688 H   0  0  0  0  0  0  0  0  0  0  0  0
    0.7540   -0.0597   -2.2361 H   0  0  0  0  0  0  0  0  0  0  0  0
    0.1865   -0.7910   -4.5319 H   0  0  0  0  0  0  0  0  0  0  0  0
    1.8534   -0.6146   -5.0418 H   0  0  0  0  0  0  0  0  0  0  0  0
    1.8761    1.7750   -4.3579 H   0  0  0  0  0  0  0  0  0  0  0  0
    0.2068    1.6778   -3.8052 H   0  0  0  0  0  0  0  0  0  0  0  0
    0.5708    3.4234   -7.0776 H   0  0  0  0  0  0  0  0  0  0  0  0
    1.1177    3.6938   -5.4243 H   0  0  0  0  0  0  0  0  0  0  0  0
   -1.3659    4.4524   -6.0490 H   0  0  0  0  0  0  0  0  0  0  0  0
   -1.1669    3.4978   -4.5679 H   0  0  0  0  0  0  0  0  0  0  0  0
   -2.1009    2.5705   -7.2938 H   0  0  0  0  0  0  0  0  0  0  0  0
   -2.7335    2.1252   -5.6961 H   0  0  0  0  0  0  0  0  0  0  0  0
   -0.8163    0.6809   -7.2288 H   0  0  0  0  0  0  0  0  0  0  0  0
   -1.2193    0.4037   -5.5408 H   0  0  0  0  0  0  0  0  0  0  0  0
  1  2  1  0  0  0  0
  1 44  1  0  0  0  0
  1 45  1  0  0  0  0
  1 46  1  0  0  0  0
  2  3  1  0  0  0  0
  3  4  1  0  0  0  0
  3 34  2  0  0  0  0
  4  5  2  0  0  0  0
  4 47  1  0  0  0  0
  5  6  1  0  0  0  0
  5 32  1  0  0  0  0
  6  7  1  0  0  0  0
  6 29  2  0  0  0  0
  7  8  1  0  0  0  0
  7 48  1  0  0  0  0
  8  9  2  0  0  0  0
  8 27  1  0  0  0  0
  9 10  1  0  0  0  0
  9 49  1  0  0  0  0
 10 11  2  0  0  0  0
 10 12  1  0  0  0  0
 12 13  1  0  0  0  0
 12 26  2  0  0  0  0
 13 14  1  0  0  0  0
 14 15  1  0  0  0  0
 14 50  1  0  0  0  0
 14 51  1  0  0  0  0
 15 16  1  0  0  0  0
 15 24  2  0  0  0  0
 16 17  1  0  0  0  0
 16 18  2  0  0  0  0
 18 19  1  0  0  0  0
 18 20  1  0  0  0  0
 20 21  1  0  0  0  0
 20 22  2  0  0  0  0
 22 23  1  0  0  0  0
 22 24  1  0  0  0  0
 24 25  1  0  0  0  0
 26 27  1  0  0  0  0
 26 52  1  0  0  0  0
 27 28  2  0  0  0  0
 29 30  1  0  0  0  0
 30 31  2  0  0  0  0
 30 53  1  0  0  0  0
 31 32  1  0  0  0  0
 32 33  2  0  0  0  0
 33 34  1  0  0  0  0
 33 54  1  0  0  0  0
 34 35  1  0  0  0  0
 35 36  1  0  0  0  0
 36 37  1  0  0  0  0
 36 55  1  0  0  0  0
 36 56  1  0  0  0  0
 37 38  1  0  0  0  0
 37 57  1  0  0  0  0
 37 58  1  0  0  0  0
 38 39  1  0  0  0  0
 38 59  1  0  0  0  0
 38 60  1  0  0  0  0
 39 40  1  0  0  0  0
 39 43  1  0  0  0  0
 40 41  1  0  0  0  0
 40 61  1  0  0  0  0
 40 62  1  0  0  0  0
 41 42  1  0  0  0  0
 41 63  1  0  0  0  0
 41 64  1  0  0  0  0
 42 43  1  0  0  0  0
 42 65  1  0  0  0  0
 42 66  1  0  0  0  0
 43 67  1  0  0  0  0
 43 68  1  0  0  0  0
M  END
$$$$
