CHEMBL3913556
 OpenBabel04072215373D

 49 52  0  0  0  0  0  0  0  0999 V2000
    0.8411    3.6225    0.5062 N   0  0  0  0  0  0  0  0  0  0  0  0
    2.1720    3.5035    0.2119 C   0  0  0  0  0  0  0  0  0  0  0  0
    2.6898    4.2900   -0.5709 O   0  0  0  0  0  0  0  0  0  0  0  0
    2.8652    2.3985    0.8665 C   0  0  0  0  0  0  0  0  0  0  0  0
    3.9558    1.7072    0.3324 C   0  0  0  0  0  0  0  0  0  0  0  0
    4.6464    1.7696   -0.9633 C   0  0  0  0  0  0  0  0  0  0  0  0
    6.0337    1.5983   -1.0322 C   0  0  0  0  0  0  0  0  0  0  0  0
    6.6970    1.5830   -2.2568 C   0  0  0  0  0  0  0  0  0  0  0  0
    6.0039    1.7430   -3.4591 C   0  0  0  0  0  0  0  0  0  0  0  0
    6.6364    1.7372   -4.7237 N   0  0  0  0  0  0  0  0  0  0  0  0
    7.9618    1.4182   -4.9565 C   0  0  0  0  0  0  0  0  0  0  0  0
    8.7471    0.9910   -4.1208 O   0  0  0  0  0  0  0  0  0  0  0  0
    8.3326    1.6845   -6.2728 N   0  0  0  0  0  0  0  0  0  0  0  0
    9.6624    1.4567   -6.6986 C   0  0  0  0  0  0  0  0  0  0  0  0
   10.3083    2.4457   -7.4374 C   0  0  0  0  0  0  0  0  0  0  0  0
   11.6548    2.2906   -7.7806 C   0  0  0  0  0  0  0  0  0  0  0  0
   12.3425    1.1324   -7.4194 C   0  0  0  0  0  0  0  0  0  0  0  0
   11.6962    0.1114   -6.7107 C   0  0  0  0  0  0  0  0  0  0  0  0
   12.4217   -1.1527   -6.3190 C   0  0  0  0  0  0  0  0  0  0  0  0
   13.7212   -1.1812   -6.7322 F   0  0  0  0  0  0  0  0  0  0  0  0
   12.4585   -1.3500   -4.9728 F   0  0  0  0  0  0  0  0  0  0  0  0
   11.8452   -2.2697   -6.8460 F   0  0  0  0  0  0  0  0  0  0  0  0
   10.3495    0.2862   -6.3522 C   0  0  0  0  0  0  0  0  0  0  0  0
    4.6221    1.9403   -3.4022 C   0  0  0  0  0  0  0  0  0  0  0  0
    3.9493    1.9448   -2.1673 C   0  0  0  0  0  0  0  0  0  0  0  0
    4.3515    0.7926    1.2871 N   0  0  0  0  0  0  0  0  0  0  0  0
    3.5320    0.8184    2.3842 C   0  0  0  0  0  0  0  0  0  0  0  0
    3.5690    0.0390    3.5480 C   0  0  0  0  0  0  0  0  0  0  0  0
    2.5873    0.2667    4.5142 C   0  0  0  0  0  0  0  0  0  0  0  0
    1.6296    1.2576    4.3330 C   0  0  0  0  0  0  0  0  0  0  0  0
    1.6326    2.0500    3.1781 C   0  0  0  0  0  0  0  0  0  0  0  0
    2.5861    1.8156    2.1613 C   0  0  0  0  0  0  0  0  0  0  0  0
    0.3255    4.3287    0.0020 H   0  0  0  0  0  0  0  0  0  0  0  0
    0.3346    2.8839    0.9684 H   0  0  0  0  0  0  0  0  0  0  0  0
    6.6271    1.4795   -0.1274 H   0  0  0  0  0  0  0  0  0  0  0  0
    7.7738    1.4494   -2.2264 H   0  0  0  0  0  0  0  0  0  0  0  0
    6.0443    1.8432   -5.5334 H   0  0  0  0  0  0  0  0  0  0  0  0
    7.8587    2.4738   -6.6862 H   0  0  0  0  0  0  0  0  0  0  0  0
    9.8015    3.3712   -7.6968 H   0  0  0  0  0  0  0  0  0  0  0  0
   12.1726    3.0881   -8.3059 H   0  0  0  0  0  0  0  0  0  0  0  0
   13.3944    1.0335   -7.6881 H   0  0  0  0  0  0  0  0  0  0  0  0
    9.8439   -0.5006   -5.7854 H   0  0  0  0  0  0  0  0  0  0  0  0
    4.0388    2.0898   -4.3056 H   0  0  0  0  0  0  0  0  0  0  0  0
    2.8728    2.0863   -2.1621 H   0  0  0  0  0  0  0  0  0  0  0  0
    5.1253    0.1531    1.1755 H   0  0  0  0  0  0  0  0  0  0  0  0
    4.3285   -0.7231    3.6969 H   0  0  0  0  0  0  0  0  0  0  0  0
    2.5790   -0.3332    5.4223 H   0  0  0  0  0  0  0  0  0  0  0  0
    0.8745    1.4255    5.0971 H   0  0  0  0  0  0  0  0  0  0  0  0
    0.8943    2.8393    3.0858 H   0  0  0  0  0  0  0  0  0  0  0  0
  1  2  1  0  0  0  0
  1 33  1  0  0  0  0
  1 34  1  0  0  0  0
  2  3  2  0  0  0  0
  2  4  1  0  0  0  0
  4  5  2  0  0  0  0
  4 32  1  0  0  0  0
  5  6  1  0  0  0  0
  5 26  1  0  0  0  0
  6  7  1  0  0  0  0
  6 25  2  0  0  0  0
  7  8  2  0  0  0  0
  7 35  1  0  0  0  0
  8  9  1  0  0  0  0
  8 36  1  0  0  0  0
  9 10  1  0  0  0  0
  9 24  2  0  0  0  0
 10 11  1  0  0  0  0
 10 37  1  0  0  0  0
 11 12  2  0  0  0  0
 11 13  1  0  0  0  0
 13 14  1  0  0  0  0
 13 38  1  0  0  0  0
 14 15  1  0  0  0  0
 14 23  2  0  0  0  0
 15 16  2  0  0  0  0
 15 39  1  0  0  0  0
 16 17  1  0  0  0  0
 16 40  1  0  0  0  0
 17 18  2  0  0  0  0
 17 41  1  0  0  0  0
 18 19  1  0  0  0  0
 18 23  1  0  0  0  0
 19 20  1  0  0  0  0
 19 21  1  0  0  0  0
 19 22  1  0  0  0  0
 23 42  1  0  0  0  0
 24 25  1  0  0  0  0
 24 43  1  0  0  0  0
 25 44  1  0  0  0  0
 26 27  1  0  0  0  0
 26 45  1  0  0  0  0
 27 28  1  0  0  0  0
 27 32  2  0  0  0  0
 28 29  2  0  0  0  0
 28 46  1  0  0  0  0
 29 30  1  0  0  0  0
 29 47  1  0  0  0  0
 30 31  2  0  0  0  0
 30 48  1  0  0  0  0
 31 32  1  0  0  0  0
 31 49  1  0  0  0  0
M  END
$$$$
