CHEMBL3758229
 OpenBabel04072215373D

 47 49  0  0  0  0  0  0  0  0999 V2000
    2.5049    0.7204   -1.3040 C   0  0  0  0  0  0  0  0  0  0  0  0
    2.3867    0.0091   -0.0758 O   0  0  0  0  0  0  0  0  0  0  0  0
    3.0183    0.4968    1.0334 C   0  0  0  0  0  0  0  0  0  0  0  0
    4.1103    1.3678    0.9665 C   0  0  0  0  0  0  0  0  0  0  0  0
    4.6922    1.9170    2.0978 C   0  0  0  0  0  0  0  0  0  0  0  0
    5.7007    2.7731    1.9207 N   0  0  0  0  0  0  0  0  0  0  0  0
    6.2321    3.3064    3.0218 C   0  0  0  0  0  0  0  0  0  0  0  0
    5.8621    3.0397    4.2731 N   0  0  0  0  0  0  0  0  0  0  0  0
    4.8572    2.1581    4.4458 C   0  0  0  0  0  0  0  0  0  0  0  0
    4.4781    1.8193    5.7756 N   0  0  0  0  0  0  0  0  0  0  0  0
    4.9306    2.5219    6.9163 C   0  0  0  0  0  0  0  0  0  0  0  0
    4.8460    3.9219    6.9681 C   0  0  0  0  0  0  0  0  0  0  0  0
    5.3712    4.6337    8.0464 C   0  0  0  0  0  0  0  0  0  0  0  0
    5.9744    3.9445    9.0925 C   0  0  0  0  0  0  0  0  0  0  0  0
    6.6707    4.8194   10.3996 Cl  0  0  0  0  0  0  0  0  0  0  0  0
    6.0299    2.5518    9.0804 C   0  0  0  0  0  0  0  0  0  0  0  0
    5.4994    1.8421    7.9976 C   0  0  0  0  0  0  0  0  0  0  0  0
    4.1979    1.5606    3.3580 C   0  0  0  0  0  0  0  0  0  0  0  0
    3.1104    0.6565    3.4449 C   0  0  0  0  0  0  0  0  0  0  0  0
    2.5486    0.0967    2.2949 C   0  0  0  0  0  0  0  0  0  0  0  0
    1.5255   -0.7935    2.5318 O   0  0  0  0  0  0  0  0  0  0  0  0
    1.6198   -1.9854    1.7499 C   0  0  0  0  0  0  0  0  0  0  0  0
    0.7331   -3.0889    2.3314 C   0  0  0  0  0  0  0  0  0  0  0  0
    0.8071   -4.3121    1.4188 C   0  0  0  0  0  0  0  0  0  0  0  0
   -0.1132   -5.4441    1.8083 C   0  0  0  0  0  0  0  0  0  0  0  0
   -0.8633   -5.4422    2.7813 O   0  0  0  0  0  0  0  0  0  0  0  0
   -0.0366   -6.5056    0.9342 N   0  0  0  0  0  0  0  0  0  0  0  0
   -0.7989   -7.6452    1.2696 O   0  0  0  0  0  0  0  0  0  0  0  0
    3.1637    0.1633   -1.9768 H   0  0  0  0  0  0  0  0  0  0  0  0
    2.8510    1.7532   -1.2075 H   0  0  0  0  0  0  0  0  0  0  0  0
    1.5104    0.7643   -1.7579 H   0  0  0  0  0  0  0  0  0  0  0  0
    4.5472    1.6458    0.0116 H   0  0  0  0  0  0  0  0  0  0  0  0
    7.0398    4.0174    2.8884 H   0  0  0  0  0  0  0  0  0  0  0  0
    4.5465    0.8136    5.8920 H   0  0  0  0  0  0  0  0  0  0  0  0
    4.3898    4.4663    6.1443 H   0  0  0  0  0  0  0  0  0  0  0  0
    5.3192    5.7186    8.0485 H   0  0  0  0  0  0  0  0  0  0  0  0
    6.4992    2.0150    9.8999 H   0  0  0  0  0  0  0  0  0  0  0  0
    5.5739    0.7573    7.9952 H   0  0  0  0  0  0  0  0  0  0  0  0
    2.6940    0.3873    4.4132 H   0  0  0  0  0  0  0  0  0  0  0  0
    2.6582   -2.3408    1.7191 H   0  0  0  0  0  0  0  0  0  0  0  0
    1.2634   -1.7894    0.7354 H   0  0  0  0  0  0  0  0  0  0  0  0
   -0.2994   -2.7304    2.4215 H   0  0  0  0  0  0  0  0  0  0  0  0
    1.0541   -3.3409    3.3495 H   0  0  0  0  0  0  0  0  0  0  0  0
    1.8330   -4.6968    1.4061 H   0  0  0  0  0  0  0  0  0  0  0  0
    0.5463   -4.0181    0.3940 H   0  0  0  0  0  0  0  0  0  0  0  0
    0.7474   -6.6549    0.3086 H   0  0  0  0  0  0  0  0  0  0  0  0
   -1.2670   -7.3555    2.0812 H   0  0  0  0  0  0  0  0  0  0  0  0
  1  2  1  0  0  0  0
  1 29  1  0  0  0  0
  1 30  1  0  0  0  0
  1 31  1  0  0  0  0
  2  3  1  0  0  0  0
  3  4  1  0  0  0  0
  3 20  2  0  0  0  0
  4  5  2  0  0  0  0
  4 32  1  0  0  0  0
  5  6  1  0  0  0  0
  5 18  1  0  0  0  0
  6  7  2  0  0  0  0
  7  8  1  0  0  0  0
  7 33  1  0  0  0  0
  8  9  2  0  0  0  0
  9 10  1  0  0  0  0
  9 18  1  0  0  0  0
 10 11  1  0  0  0  0
 10 34  1  0  0  0  0
 11 12  1  0  0  0  0
 11 17  2  0  0  0  0
 12 13  2  0  0  0  0
 12 35  1  0  0  0  0
 13 14  1  0  0  0  0
 13 36  1  0  0  0  0
 14 15  1  0  0  0  0
 14 16  2  0  0  0  0
 16 17  1  0  0  0  0
 16 37  1  0  0  0  0
 17 38  1  0  0  0  0
 18 19  2  0  0  0  0
 19 20  1  0  0  0  0
 19 39  1  0  0  0  0
 20 21  1  0  0  0  0
 21 22  1  0  0  0  0
 22 23  1  0  0  0  0
 22 40  1  0  0  0  0
 22 41  1  0  0  0  0
 23 24  1  0  0  0  0
 23 42  1  0  0  0  0
 23 43  1  0  0  0  0
 24 25  1  0  0  0  0
 24 44  1  0  0  0  0
 24 45  1  0  0  0  0
 25 26  2  0  0  0  0
 25 27  1  0  0  0  0
 27 28  1  0  0  0  0
 27 46  1  0  0  0  0
 28 47  1  0  0  0  0
M  END
$$$$
