CHEMBL3982107
 OpenBabel04072215373D

 77 80  0  0  0  0  0  0  0  0999 V2000
    4.4921   -6.3026   -2.8794 C   0  0  0  0  0  0  0  0  0  0  0  0
    3.5630   -4.9579   -2.9421 O   0  0  0  0  0  0  0  0  0  0  0  0
    3.6988   -3.7795   -2.1250 C   0  0  0  0  0  0  0  0  0  0  0  0
    3.0173   -2.5312   -1.9668 C   0  0  0  0  0  0  0  0  0  0  0  0
    3.6430   -1.5099   -1.0307 C   0  0  0  0  0  0  0  0  0  0  0  0
    3.2995   -0.2600   -0.6697 O   0  0  0  0  0  0  0  0  0  0  0  0
    3.5948    1.0544   -0.1866 C   0  0  0  0  0  0  0  0  0  0  0  0
    4.6627   -1.6974   -0.2018 C   0  0  0  0  0  0  0  0  0  0  0  0
    5.3254   -2.8240   -0.4345 C   0  0  0  0  0  0  0  0  0  0  0  0
    6.5038   -2.9935    0.2037 N   0  0  0  0  0  0  0  0  0  0  0  0
    6.9158   -2.0980    1.3756 C   0  0  0  0  0  0  0  0  0  0  0  0
    5.9364   -1.8422    2.5553 C   0  0  0  0  0  0  0  0  0  0  0  0
    6.3118   -0.8646    3.6005 N   0  0  0  0  0  0  0  0  0  0  0  0
    7.4697   -1.3853    4.3431 C   0  0  0  0  0  0  0  0  0  0  0  0
    8.2656   -0.2867    5.0017 C   0  0  0  0  0  0  0  0  0  0  0  0
    7.5235    0.6121    5.9740 C   0  0  0  0  0  0  0  0  0  0  0  0
    6.2700    0.1041    6.5272 N   0  0  0  0  0  0  0  0  0  0  0  0
    5.1906    0.2864    5.5536 C   0  0  0  0  0  0  0  0  0  0  0  0
    5.1379   -0.8322    4.5275 C   0  0  0  0  0  0  0  0  0  0  0  0
    7.4804   -3.8848   -0.2708 C   0  0  0  0  0  0  0  0  0  0  0  0
    7.9981   -4.7074    0.6751 C   0  0  0  0  0  0  0  0  0  0  0  0
    9.0109   -5.4687    0.2234 C   0  0  0  0  0  0  0  0  0  0  0  0
    9.5279   -5.5176   -1.0457 C   0  0  0  0  0  0  0  0  0  0  0  0
   10.7827   -5.3895   -0.6796 N   0  0  0  0  0  0  0  0  0  0  0  0
   11.3479   -6.5397   -0.7359 C   0  0  0  0  0  0  0  0  0  0  0  0
   11.4992   -7.0162   -1.9378 C   0  0  0  0  0  0  0  0  0  0  0  0
   12.8119   -8.1645   -1.7686 C   0  0  0  0  0  0  0  0  0  0  0  0
   13.4475   -8.8397   -0.4930 C   0  0  0  0  0  0  0  0  0  0  0  0
   14.3942   -9.7859   -0.7214 N   0  0  0  0  0  0  0  0  0  0  0  0
   14.4990   -9.8357   -2.0621 N   0  0  0  0  0  0  0  0  0  0  0  0
   15.3539  -10.8713   -2.6989 C   0  0  0  0  0  0  0  0  0  0  0  0
   13.6227   -8.8744   -2.6673 C   0  0  0  0  0  0  0  0  0  0  0  0
   10.4898   -6.2369   -2.8478 N   0  0  0  0  0  0  0  0  0  0  0  0
    9.2270   -5.1636   -2.2897 C   0  0  0  0  0  0  0  0  0  0  0  0
    7.9840   -4.1086   -1.7130 C   0  0  0  0  0  0  0  0  0  0  0  0
    4.8750   -3.7184   -1.4440 C   0  0  0  0  0  0  0  0  0  0  0  0
    0.5787   -1.6638    0.0362 O   0  0  0  0  0  0  0  0  0  0  0  0
    1.3639   -0.7095   -0.0367 C   0  0  0  0  0  0  0  0  0  0  0  0
    2.1860   -0.6895    1.1988 O   0  0  0  0  0  0  0  0  0  0  0  0
    1.6761    0.3147   -1.6781 C   0  0  0  0  0  0  0  0  0  0  0  0
    2.4915    0.1576   -2.6065 O   0  0  0  0  0  0  0  0  0  0  0  0
    1.3566    1.6292   -1.6712 O   0  0  0  0  0  0  0  0  0  0  0  0
    4.3806   -6.9578   -3.8001 H   0  0  0  0  0  0  0  0  0  0  0  0
    4.2465   -7.0784   -2.1193 H   0  0  0  0  0  0  0  0  0  0  0  0
    5.5368   -6.0842   -2.6161 H   0  0  0  0  0  0  0  0  0  0  0  0
    2.1214   -2.2258   -2.5485 H   0  0  0  0  0  0  0  0  0  0  0  0
    2.6458    1.6324    0.0501 H   0  0  0  0  0  0  0  0  0  0  0  0
    4.0910    1.4598   -1.0385 H   0  0  0  0  0  0  0  0  0  0  0  0
    4.0998    0.9885    0.7565 H   0  0  0  0  0  0  0  0  0  0  0  0
    4.9802   -0.9050    0.4337 H   0  0  0  0  0  0  0  0  0  0  0  0
    7.2209   -1.1373    0.9593 H   0  0  0  0  0  0  0  0  0  0  0  0
    7.7760   -2.5658    1.8417 H   0  0  0  0  0  0  0  0  0  0  0  0
    5.7723   -2.7765    3.0896 H   0  0  0  0  0  0  0  0  0  0  0  0
    4.9983   -1.4416    2.1884 H   0  0  0  0  0  0  0  0  0  0  0  0
    8.1736   -1.8765    3.6664 H   0  0  0  0  0  0  0  0  0  0  0  0
    7.1840   -2.1504    5.0780 H   0  0  0  0  0  0  0  0  0  0  0  0
    8.7144    0.3415    4.2202 H   0  0  0  0  0  0  0  0  0  0  0  0
    9.0836   -0.7778    5.5390 H   0  0  0  0  0  0  0  0  0  0  0  0
    7.3669    1.5916    5.5072 H   0  0  0  0  0  0  0  0  0  0  0  0
    8.2039    0.7741    6.8140 H   0  0  0  0  0  0  0  0  0  0  0  0
    6.0400    0.6606    7.3479 H   0  0  0  0  0  0  0  0  0  0  0  0
    5.2605    1.2495    5.0329 H   0  0  0  0  0  0  0  0  0  0  0  0
    4.2334    0.2815    6.0866 H   0  0  0  0  0  0  0  0  0  0  0  0
    4.2203   -0.6613    3.9481 H   0  0  0  0  0  0  0  0  0  0  0  0
    5.0046   -1.7997    5.0377 H   0  0  0  0  0  0  0  0  0  0  0  0
    7.9106   -4.6195    1.7440 H   0  0  0  0  0  0  0  0  0  0  0  0
    9.5910   -5.9462    0.9758 H   0  0  0  0  0  0  0  0  0  0  0  0
   11.6103   -7.0327    0.1852 H   0  0  0  0  0  0  0  0  0  0  0  0
   13.2397   -8.7771    0.5858 H   0  0  0  0  0  0  0  0  0  0  0  0
   15.9700  -11.4530   -1.9844 H   0  0  0  0  0  0  0  0  0  0  0  0
   16.0540  -10.4172   -3.4102 H   0  0  0  0  0  0  0  0  0  0  0  0
   14.7376  -11.6059   -3.2351 H   0  0  0  0  0  0  0  0  0  0  0  0
   13.6147   -8.8788   -3.7286 H   0  0  0  0  0  0  0  0  0  0  0  0
    7.4674   -3.3711   -2.3591 H   0  0  0  0  0  0  0  0  0  0  0  0
    5.6574   -4.0765   -2.0514 H   0  0  0  0  0  0  0  0  0  0  0  0
    3.1270   -0.3853    1.3532 H   0  0  0  0  0  0  0  0  0  0  0  0
    0.8393    1.9634   -0.9470 H   0  0  0  0  0  0  0  0  0  0  0  0
  1  2  1  0  0  0  0
  1 43  1  0  0  0  0
  1 44  1  0  0  0  0
  1 45  1  0  0  0  0
  2  3  1  0  0  0  0
  3  4  1  0  0  0  0
  3 36  2  0  0  0  0
  4  5  2  0  0  0  0
  4 46  1  0  0  0  0
  5  6  1  0  0  0  0
  5  8  1  0  0  0  0
  6  7  1  0  0  0  0
  7 47  1  0  0  0  0
  7 48  1  0  0  0  0
  7 49  1  0  0  0  0
  8  9  2  0  0  0  0
  8 50  1  0  0  0  0
  9 10  1  0  0  0  0
  9 36  1  0  0  0  0
 10 11  1  0  0  0  0
 10 20  1  0  0  0  0
 11 12  1  0  0  0  0
 11 51  1  0  0  0  0
 11 52  1  0  0  0  0
 12 13  1  0  0  0  0
 12 53  1  0  0  0  0
 12 54  1  0  0  0  0
 13 14  1  0  0  0  0
 13 19  1  0  0  0  0
 14 15  1  0  0  0  0
 14 55  1  0  0  0  0
 14 56  1  0  0  0  0
 15 16  1  0  0  0  0
 15 57  1  0  0  0  0
 15 58  1  0  0  0  0
 16 17  1  0  0  0  0
 16 59  1  0  0  0  0
 16 60  1  0  0  0  0
 17 18  1  0  0  0  0
 17 61  1  0  0  0  0
 18 19  1  0  0  0  0
 18 62  1  0  0  0  0
 18 63  1  0  0  0  0
 19 64  1  0  0  0  0
 19 65  1  0  0  0  0
 20 21  1  0  0  0  0
 20 35  2  0  0  0  0
 21 22  2  0  0  0  0
 21 66  1  0  0  0  0
 22 23  1  0  0  0  0
 22 67  1  0  0  0  0
 23 24  1  0  0  0  0
 23 34  2  0  0  0  0
 24 25  2  0  0  0  0
 25 26  1  0  0  0  0
 25 68  1  0  0  0  0
 26 27  1  0  0  0  0
 26 33  2  0  0  0  0
 27 28  1  0  0  0  0
 27 32  2  0  0  0  0
 28 29  2  0  0  0  0
 28 69  1  0  0  0  0
 29 30  1  0  0  0  0
 30 31  1  0  0  0  0
 30 32  1  0  0  0  0
 31 70  1  0  0  0  0
 31 71  1  0  0  0  0
 31 72  1  0  0  0  0
 32 73  1  0  0  0  0
 33 34  1  0  0  0  0
 34 35  1  0  0  0  0
 35 74  1  0  0  0  0
 36 75  1  0  0  0  0
 37 38  2  0  0  0  0
 38 39  1  0  0  0  0
 38 40  1  0  0  0  0
 39 76  1  0  0  0  0
 40 41  2  0  0  0  0
 40 42  1  0  0  0  0
 42 77  1  0  0  0  0
M  END
$$$$
