CHEMBL2063335
 OpenBabel04072215363D

 70 74  0  0  0  0  0  0  0  0999 V2000
    1.9337    2.9978   -4.9895 C   0  0  0  0  0  0  0  0  0  0  0  0
    2.2983    2.2290   -3.7573 C   0  0  0  0  0  0  0  0  0  0  0  0
    1.7880    2.6823   -2.6031 N   0  0  0  0  0  0  0  0  0  0  0  0
    2.0871    2.0115   -1.4796 C   0  0  0  0  0  0  0  0  0  0  0  0
    1.6066    2.4735   -0.2318 N   0  0  0  0  0  0  0  0  0  0  0  0
    0.9538    3.6496   -0.0736 C   0  0  0  0  0  0  0  0  0  0  0  0
    0.1293    4.1270    0.9128 C   0  0  0  0  0  0  0  0  0  0  0  0
   -0.2640    5.4330    0.4905 C   0  0  0  0  0  0  0  0  0  0  0  0
   -1.1750    6.3685    1.1555 C   0  0  0  0  0  0  0  0  0  0  0  0
   -1.7622    6.0539    2.3874 C   0  0  0  0  0  0  0  0  0  0  0  0
   -2.6392    6.9462    3.0090 C   0  0  0  0  0  0  0  0  0  0  0  0
   -2.9581    8.1698    2.4077 C   0  0  0  0  0  0  0  0  0  0  0  0
   -3.9201    9.1148    3.0683 C   0  0  0  0  0  0  0  0  0  0  0  0
   -3.2634    9.9980    3.9984 N   0  0  0  0  0  0  0  0  0  0  0  0
   -3.9479   11.0365    4.5560 C   0  0  0  0  0  0  0  0  0  0  0  0
   -5.1447   11.2337    4.4137 O   0  0  0  0  0  0  0  0  0  0  0  0
   -3.0901   11.8521    5.2178 O   0  0  0  0  0  0  0  0  0  0  0  0
   -3.5847   13.1744    5.4754 C   0  0  0  0  0  0  0  0  0  0  0  0
   -3.7439   13.4792    6.9457 C   0  0  0  0  0  0  0  0  0  0  0  0
   -2.9892   14.5016    7.5425 C   0  0  0  0  0  0  0  0  0  0  0  0
   -3.2163   14.8754    8.8690 C   0  0  0  0  0  0  0  0  0  0  0  0
   -4.1968   14.2286    9.6164 C   0  0  0  0  0  0  0  0  0  0  0  0
   -4.9426   13.2010    9.0418 C   0  0  0  0  0  0  0  0  0  0  0  0
   -4.7175   12.8257    7.7135 C   0  0  0  0  0  0  0  0  0  0  0  0
   -2.3650    8.4934    1.1798 C   0  0  0  0  0  0  0  0  0  0  0  0
   -1.4877    7.5998    0.5601 C   0  0  0  0  0  0  0  0  0  0  0  0
    0.3217    5.7476   -0.6777 N   0  0  0  0  0  0  0  0  0  0  0  0
    1.0350    4.6599   -0.9916 N   0  0  0  0  0  0  0  0  0  0  0  0
    2.9491    0.9448   -1.5043 C   0  0  0  0  0  0  0  0  0  0  0  0
    3.4791    0.5673   -2.7273 C   0  0  0  0  0  0  0  0  0  0  0  0
    4.3979   -0.4862   -2.7161 N   0  0  0  0  0  0  0  0  0  0  0  0
    4.5559   -1.2486   -3.9633 C   0  0  0  0  0  0  0  0  0  0  0  0
    5.3618   -2.5347   -3.6296 C   0  0  0  0  0  0  0  0  0  0  0  0
    6.6803   -2.2562   -3.0014 N   0  0  0  0  0  0  0  0  0  0  0  0
    7.3256   -3.4996   -2.5836 C   0  0  0  0  0  0  0  0  0  0  0  0
    6.5091   -1.3601   -1.8342 C   0  0  0  0  0  0  0  0  0  0  0  0
    5.7111   -0.0847   -2.1732 C   0  0  0  0  0  0  0  0  0  0  0  0
    3.1345    1.1830   -3.8688 N   0  0  0  0  0  0  0  0  0  0  0  0
    1.2368    3.8085   -4.7427 H   0  0  0  0  0  0  0  0  0  0  0  0
    1.4506    2.3441   -5.7189 H   0  0  0  0  0  0  0  0  0  0  0  0
    2.8285    3.4440   -5.4296 H   0  0  0  0  0  0  0  0  0  0  0  0
    1.3990    1.7121    0.4070 H   0  0  0  0  0  0  0  0  0  0  0  0
   -0.1707    3.5981    1.8038 H   0  0  0  0  0  0  0  0  0  0  0  0
   -1.5553    5.1091    2.8821 H   0  0  0  0  0  0  0  0  0  0  0  0
   -3.0830    6.6748    3.9644 H   0  0  0  0  0  0  0  0  0  0  0  0
   -4.6951    8.5577    3.6100 H   0  0  0  0  0  0  0  0  0  0  0  0
   -4.4412    9.7158    2.3129 H   0  0  0  0  0  0  0  0  0  0  0  0
   -2.2579   10.0214    4.0615 H   0  0  0  0  0  0  0  0  0  0  0  0
   -4.5262   13.3949    4.9581 H   0  0  0  0  0  0  0  0  0  0  0  0
   -2.8435   13.8549    5.0410 H   0  0  0  0  0  0  0  0  0  0  0  0
   -2.2324   15.0332    6.9696 H   0  0  0  0  0  0  0  0  0  0  0  0
   -2.6390   15.6827    9.3124 H   0  0  0  0  0  0  0  0  0  0  0  0
   -4.3874   14.5326   10.6432 H   0  0  0  0  0  0  0  0  0  0  0  0
   -5.7145   12.7021    9.6225 H   0  0  0  0  0  0  0  0  0  0  0  0
   -5.3267   12.0397    7.2711 H   0  0  0  0  0  0  0  0  0  0  0  0
   -2.5913    9.4361    0.6874 H   0  0  0  0  0  0  0  0  0  0  0  0
   -1.0521    7.8680   -0.4017 H   0  0  0  0  0  0  0  0  0  0  0  0
    1.5372    4.6210   -1.8718 H   0  0  0  0  0  0  0  0  0  0  0  0
    3.2234    0.4162   -0.6013 H   0  0  0  0  0  0  0  0  0  0  0  0
    5.0828   -0.6613   -4.7272 H   0  0  0  0  0  0  0  0  0  0  0  0
    3.5791   -1.5417   -4.3674 H   0  0  0  0  0  0  0  0  0  0  0  0
    5.5114   -3.1056   -4.5533 H   0  0  0  0  0  0  0  0  0  0  0  0
    4.7539   -3.1526   -2.9540 H   0  0  0  0  0  0  0  0  0  0  0  0
    7.4931   -4.1552   -3.4443 H   0  0  0  0  0  0  0  0  0  0  0  0
    6.7315   -4.0470   -1.8421 H   0  0  0  0  0  0  0  0  0  0  0  0
    8.3082   -3.2909   -2.1458 H   0  0  0  0  0  0  0  0  0  0  0  0
    7.4923   -1.0633   -1.4508 H   0  0  0  0  0  0  0  0  0  0  0  0
    5.9842   -1.8878   -1.0256 H   0  0  0  0  0  0  0  0  0  0  0  0
    6.2601    0.5226   -2.9072 H   0  0  0  0  0  0  0  0  0  0  0  0
    5.6124    0.5146   -1.2601 H   0  0  0  0  0  0  0  0  0  0  0  0
  1  2  1  0  0  0  0
  1 39  1  0  0  0  0
  1 40  1  0  0  0  0
  1 41  1  0  0  0  0
  2  3  1  0  0  0  0
  2 38  2  0  0  0  0
  3  4  2  0  0  0  0
  4  5  1  0  0  0  0
  4 29  1  0  0  0  0
  5  6  1  0  0  0  0
  5 42  1  0  0  0  0
  6  7  2  0  0  0  0
  6 28  1  0  0  0  0
  7  8  1  0  0  0  0
  7 43  1  0  0  0  0
  8  9  1  0  0  0  0
  8 27  2  0  0  0  0
  9 10  1  0  0  0  0
  9 26  2  0  0  0  0
 10 11  2  0  0  0  0
 10 44  1  0  0  0  0
 11 12  1  0  0  0  0
 11 45  1  0  0  0  0
 12 13  1  0  0  0  0
 12 25  2  0  0  0  0
 13 14  1  0  0  0  0
 13 46  1  0  0  0  0
 13 47  1  0  0  0  0
 14 15  1  0  0  0  0
 14 48  1  0  0  0  0
 15 16  2  0  0  0  0
 15 17  1  0  0  0  0
 17 18  1  0  0  0  0
 18 19  1  0  0  0  0
 18 49  1  0  0  0  0
 18 50  1  0  0  0  0
 19 20  1  0  0  0  0
 19 24  2  0  0  0  0
 20 21  2  0  0  0  0
 20 51  1  0  0  0  0
 21 22  1  0  0  0  0
 21 52  1  0  0  0  0
 22 23  2  0  0  0  0
 22 53  1  0  0  0  0
 23 24  1  0  0  0  0
 23 54  1  0  0  0  0
 24 55  1  0  0  0  0
 25 26  1  0  0  0  0
 25 56  1  0  0  0  0
 26 57  1  0  0  0  0
 27 28  1  0  0  0  0
 28 58  1  0  0  0  0
 29 30  2  0  0  0  0
 29 59  1  0  0  0  0
 30 31  1  0  0  0  0
 30 38  1  0  0  0  0
 31 32  1  0  0  0  0
 31 37  1  0  0  0  0
 32 33  1  0  0  0  0
 32 60  1  0  0  0  0
 32 61  1  0  0  0  0
 33 34  1  0  0  0  0
 33 62  1  0  0  0  0
 33 63  1  0  0  0  0
 34 35  1  0  0  0  0
 34 36  1  0  0  0  0
 35 64  1  0  0  0  0
 35 65  1  0  0  0  0
 35 66  1  0  0  0  0
 36 37  1  0  0  0  0
 36 67  1  0  0  0  0
 36 68  1  0  0  0  0
 37 69  1  0  0  0  0
 37 70  1  0  0  0  0
M  END
$$$$
