CHEMBL231612
 OpenBabel04072215363D

 62 66  0  0  0  0  0  0  0  0999 V2000
    6.8175    3.6390   -2.9268 C   0  0  0  0  0  0  0  0  0  0  0  0
    6.3151    2.7289   -1.9312 N   0  0  0  0  0  0  0  0  0  0  0  0
    7.1580    2.2152   -0.9687 C   0  0  0  0  0  0  0  0  0  0  0  0
    8.3434    2.5177   -0.8835 O   0  0  0  0  0  0  0  0  0  0  0  0
    6.5526    1.2763    0.0138 C   0  0  0  0  0  0  0  0  0  0  0  0
    5.4219    0.5140   -0.2893 C   0  0  0  0  0  0  0  0  0  0  0  0
    4.8835   -0.3299    0.6756 C   0  0  0  0  0  0  0  0  0  0  0  0
    5.4831   -0.4243    1.9340 C   0  0  0  0  0  0  0  0  0  0  0  0
    6.6755    0.2560    2.2421 C   0  0  0  0  0  0  0  0  0  0  0  0
    7.3846    0.0721    3.5267 C   0  0  0  0  0  0  0  0  0  0  0  0
    7.9945    1.1294    4.1899 C   0  0  0  0  0  0  0  0  0  0  0  0
    8.6586    1.0506    5.3545 N   0  0  0  0  0  0  0  0  0  0  0  0
    8.7591   -0.1278    5.9967 C   0  0  0  0  0  0  0  0  0  0  0  0
    9.3917   -0.0201    7.2182 N   0  0  0  0  0  0  0  0  0  0  0  0
    8.2365   -1.3151    5.4085 C   0  0  0  0  0  0  0  0  0  0  0  0
    8.2398   -2.7149    5.8420 C   0  0  0  0  0  0  0  0  0  0  0  0
    8.8455   -3.3461    7.0126 C   0  0  0  0  0  0  0  0  0  0  0  0
    8.1052   -4.2751    7.7557 C   0  0  0  0  0  0  0  0  0  0  0  0
    8.6929   -4.9643    8.8148 C   0  0  0  0  0  0  0  0  0  0  0  0
   10.0205   -4.7236    9.1782 C   0  0  0  0  0  0  0  0  0  0  0  0
   10.6552   -5.3995   10.2468 N   0  0  0  0  0  0  0  0  0  0  0  0
   10.1433   -6.5086   10.8966 C   0  0  0  0  0  0  0  0  0  0  0  0
    9.1229   -7.1030   10.5774 O   0  0  0  0  0  0  0  0  0  0  0  0
   10.9186   -6.8584   11.9957 N   0  0  0  0  0  0  0  0  0  0  0  0
   10.5260   -7.9513   12.8009 C   0  0  0  0  0  0  0  0  0  0  0  0
   10.4878   -7.7796   14.1849 C   0  0  0  0  0  0  0  0  0  0  0  0
    9.9865   -8.8008   14.9940 C   0  0  0  0  0  0  0  0  0  0  0  0
    9.5629  -10.0052   14.4280 C   0  0  0  0  0  0  0  0  0  0  0  0
    9.6301  -10.2016   13.0453 C   0  0  0  0  0  0  0  0  0  0  0  0
    9.1679  -11.4822   12.4168 C   0  0  0  0  0  0  0  0  0  0  0  0
   10.1219   -9.1665   12.2361 C   0  0  0  0  0  0  0  0  0  0  0  0
   10.7553   -3.7918    8.4560 C   0  0  0  0  0  0  0  0  0  0  0  0
   10.1812   -3.1333    7.3529 C   0  0  0  0  0  0  0  0  0  0  0  0
    7.5698   -3.5352    4.9581 C   0  0  0  0  0  0  0  0  0  0  0  0
    7.0455   -2.7277    3.5820 S   0  0  0  0  0  0  0  0  0  0  0  0
    7.5611   -1.1801    4.1739 C   0  0  0  0  0  0  0  0  0  0  0  0
    7.1800    1.1284    1.2609 C   0  0  0  0  0  0  0  0  0  0  0  0
    5.9886    3.9582   -3.5620 H   0  0  0  0  0  0  0  0  0  0  0  0
    7.5724    3.1241   -3.5273 H   0  0  0  0  0  0  0  0  0  0  0  0
    7.2718    4.5039   -2.4361 H   0  0  0  0  0  0  0  0  0  0  0  0
    5.3154    2.6062   -1.8489 H   0  0  0  0  0  0  0  0  0  0  0  0
    4.9642    0.5445   -1.2728 H   0  0  0  0  0  0  0  0  0  0  0  0
    4.0053   -0.9306    0.4510 H   0  0  0  0  0  0  0  0  0  0  0  0
    5.0053   -1.0683    2.6697 H   0  0  0  0  0  0  0  0  0  0  0  0
    7.9612    2.1384    3.7843 H   0  0  0  0  0  0  0  0  0  0  0  0
    9.9228    0.8399    7.2836 H   0  0  0  0  0  0  0  0  0  0  0  0
    9.7485   -0.8352    7.6789 H   0  0  0  0  0  0  0  0  0  0  0  0
    7.0697   -4.5026    7.5112 H   0  0  0  0  0  0  0  0  0  0  0  0
    8.0702   -5.6902    9.3246 H   0  0  0  0  0  0  0  0  0  0  0  0
   11.6209   -5.1768   10.4288 H   0  0  0  0  0  0  0  0  0  0  0  0
   11.3303   -6.0748   12.4758 H   0  0  0  0  0  0  0  0  0  0  0  0
   10.7667   -6.8346   14.6375 H   0  0  0  0  0  0  0  0  0  0  0  0
    9.8997   -8.6467   16.0660 H   0  0  0  0  0  0  0  0  0  0  0  0
    9.1667  -10.7858   15.0733 H   0  0  0  0  0  0  0  0  0  0  0  0
    8.7464  -12.1650   13.1613 H   0  0  0  0  0  0  0  0  0  0  0  0
   10.0081  -11.9874   11.9309 H   0  0  0  0  0  0  0  0  0  0  0  0
    8.3908  -11.2789   11.6736 H   0  0  0  0  0  0  0  0  0  0  0  0
   10.1572   -9.3105   11.1598 H   0  0  0  0  0  0  0  0  0  0  0  0
   11.7858   -3.5577    8.7141 H   0  0  0  0  0  0  0  0  0  0  0  0
   10.8009   -2.4678    6.7532 H   0  0  0  0  0  0  0  0  0  0  0  0
    7.3982   -4.6012    5.0368 H   0  0  0  0  0  0  0  0  0  0  0  0
    8.0895    1.6984    1.4492 H   0  0  0  0  0  0  0  0  0  0  0  0
  1  2  1  0  0  0  0
  1 38  1  0  0  0  0
  1 39  1  0  0  0  0
  1 40  1  0  0  0  0
  2  3  1  0  0  0  0
  2 41  1  0  0  0  0
  3  4  2  0  0  0  0
  3  5  1  0  0  0  0
  5  6  1  0  0  0  0
  5 37  2  0  0  0  0
  6  7  2  0  0  0  0
  6 42  1  0  0  0  0
  7  8  1  0  0  0  0
  7 43  1  0  0  0  0
  8  9  2  0  0  0  0
  8 44  1  0  0  0  0
  9 10  1  0  0  0  0
  9 37  1  0  0  0  0
 10 11  1  0  0  0  0
 10 36  2  0  0  0  0
 11 12  2  0  0  0  0
 11 45  1  0  0  0  0
 12 13  1  0  0  0  0
 13 14  1  0  0  0  0
 13 15  2  0  0  0  0
 14 46  1  0  0  0  0
 14 47  1  0  0  0  0
 15 16  1  0  0  0  0
 15 36  1  0  0  0  0
 16 17  1  0  0  0  0
 16 34  2  0  0  0  0
 17 18  1  0  0  0  0
 17 33  2  0  0  0  0
 18 19  2  0  0  0  0
 18 48  1  0  0  0  0
 19 20  1  0  0  0  0
 19 49  1  0  0  0  0
 20 21  1  0  0  0  0
 20 32  2  0  0  0  0
 21 22  1  0  0  0  0
 21 50  1  0  0  0  0
 22 23  2  0  0  0  0
 22 24  1  0  0  0  0
 24 25  1  0  0  0  0
 24 51  1  0  0  0  0
 25 26  1  0  0  0  0
 25 31  2  0  0  0  0
 26 27  2  0  0  0  0
 26 52  1  0  0  0  0
 27 28  1  0  0  0  0
 27 53  1  0  0  0  0
 28 29  2  0  0  0  0
 28 54  1  0  0  0  0
 29 30  1  0  0  0  0
 29 31  1  0  0  0  0
 30 55  1  0  0  0  0
 30 56  1  0  0  0  0
 30 57  1  0  0  0  0
 31 58  1  0  0  0  0
 32 33  1  0  0  0  0
 32 59  1  0  0  0  0
 33 60  1  0  0  0  0
 34 35  1  0  0  0  0
 34 61  1  0  0  0  0
 35 36  1  0  0  0  0
 37 62  1  0  0  0  0
M  END
$$$$
