CHEMBL3898627
 OpenBabel04072215373D

 59 63  0  0  1  0  0  0  0  0999 V2000
    1.6240    0.0091    0.1784 C   0  0  0  0  0  0  0  0  0  0  0  0
    2.8955    0.1181   -0.6566 C   0  0  0  0  0  0  0  0  0  0  0  0
    3.6186    1.3552   -0.3824 N   0  0  0  0  0  0  0  0  0  0  0  0
    2.9761    2.5846   -0.8524 C   0  0  0  0  0  0  0  0  0  0  0  0
    3.5600    2.8443   -2.2241 C   0  0  0  0  0  0  0  0  0  0  0  0
    4.9960    2.3716   -2.1016 C   0  0  0  0  0  0  0  0  0  0  0  0
    4.9881    1.3461   -0.9590 C   0  0  1  0  0  0  0  0  0  0  0  0
    5.9397    1.7185    0.1351 C   0  0  0  0  0  0  0  0  0  0  0  0
    6.9457    0.9320    0.5473 N   0  0  0  0  0  0  0  0  0  0  0  0
    7.4958    1.6567    1.6120 O   0  0  0  0  0  0  0  0  0  0  0  0
    6.7650    2.8028    1.7093 C   0  0  0  0  0  0  0  0  0  0  0  0
    7.2047    3.8218    2.6746 C   0  0  0  0  0  0  0  0  0  0  0  0
    6.7222    3.4741    3.9648 O   0  0  0  0  0  0  0  0  0  0  0  0
    7.3889    4.0172    5.0310 C   0  0  0  0  0  0  0  0  0  0  0  0
    7.2209    3.2749    6.2056 C   0  0  0  0  0  0  0  0  0  0  0  0
    7.8957    3.5635    7.3850 C   0  0  0  0  0  0  0  0  0  0  0  0
    7.7379    2.7575    8.4376 N   0  0  0  0  0  0  0  0  0  0  0  0
    8.4547    3.0395    9.5294 C   0  0  0  0  0  0  0  0  0  0  0  0
    9.2917    4.0688    9.6685 N   0  0  0  0  0  0  0  0  0  0  0  0
    9.4238    4.8929    8.6117 C   0  0  0  0  0  0  0  0  0  0  0  0
   10.2692    6.0318    8.7313 N   0  0  0  0  0  0  0  0  0  0  0  0
   11.1691    6.2476    9.7962 C   0  0  0  0  0  0  0  0  0  0  0  0
   12.0630    5.2449   10.1936 C   0  0  0  0  0  0  0  0  0  0  0  0
   12.9114    5.4335   11.2853 C   0  0  0  0  0  0  0  0  0  0  0  0
   12.8783    6.6365   11.9906 C   0  0  0  0  0  0  0  0  0  0  0  0
   13.9112    6.7865   13.3657 Cl  0  0  0  0  0  0  0  0  0  0  0  0
   12.0150    7.6595   11.5825 C   0  0  0  0  0  0  0  0  0  0  0  0
   11.9195    9.1745   12.4112 Cl  0  0  0  0  0  0  0  0  0  0  0  0
   11.1732    7.4679   10.4811 C   0  0  0  0  0  0  0  0  0  0  0  0
    8.7468    4.6724    7.3995 C   0  0  0  0  0  0  0  0  0  0  0  0
    8.8968    5.4584    6.2287 C   0  0  0  0  0  0  0  0  0  0  0  0
    8.2091    5.1481    5.0537 C   0  0  0  0  0  0  0  0  0  0  0  0
    8.5439    5.9028    3.9631 O   0  0  0  0  0  0  0  0  0  0  0  0
    7.5228    6.7996    3.5223 C   0  0  0  0  0  0  0  0  0  0  0  0
    5.8225    2.9085    0.8067 N   0  0  0  0  0  0  0  0  0  0  0  0
    1.1587   -0.9699    0.0255 H   0  0  0  0  0  0  0  0  0  0  0  0
    0.8867    0.7701   -0.0919 H   0  0  0  0  0  0  0  0  0  0  0  0
    1.8453    0.1091    1.2470 H   0  0  0  0  0  0  0  0  0  0  0  0
    2.6669    0.0082   -1.7222 H   0  0  0  0  0  0  0  0  0  0  0  0
    3.5278   -0.7329   -0.3708 H   0  0  0  0  0  0  0  0  0  0  0  0
    3.2503    3.4038   -0.1754 H   0  0  0  0  0  0  0  0  0  0  0  0
    1.8838    2.5520   -0.8724 H   0  0  0  0  0  0  0  0  0  0  0  0
    3.4993    3.9000   -2.5071 H   0  0  0  0  0  0  0  0  0  0  0  0
    3.0336    2.2555   -2.9838 H   0  0  0  0  0  0  0  0  0  0  0  0
    5.6517    3.2266   -1.8937 H   0  0  0  0  0  0  0  0  0  0  0  0
    5.3303    1.9245   -3.0442 H   0  0  0  0  0  0  0  0  0  0  0  0
    5.2661    0.3604   -1.3538 H   0  0  0  0  0  0  0  0  0  0  0  0
    6.7170    4.7477    2.3677 H   0  0  0  0  0  0  0  0  0  0  0  0
    8.2941    3.9032    2.6314 H   0  0  0  0  0  0  0  0  0  0  0  0
    6.5747    2.3942    6.1896 H   0  0  0  0  0  0  0  0  0  0  0  0
    8.3474    2.3731   10.3783 H   0  0  0  0  0  0  0  0  0  0  0  0
    9.7268    6.8604    8.5101 H   0  0  0  0  0  0  0  0  0  0  0  0
   12.0871    4.2968    9.6606 H   0  0  0  0  0  0  0  0  0  0  0  0
   13.5837    4.6325   11.5818 H   0  0  0  0  0  0  0  0  0  0  0  0
   10.4943    8.2632   10.1858 H   0  0  0  0  0  0  0  0  0  0  0  0
    9.6000    6.2883    6.2151 H   0  0  0  0  0  0  0  0  0  0  0  0
    7.8346    7.8288    3.7136 H   0  0  0  0  0  0  0  0  0  0  0  0
    6.5422    6.6132    3.9724 H   0  0  0  0  0  0  0  0  0  0  0  0
    7.4403    6.6962    2.4338 H   0  0  0  0  0  0  0  0  0  0  0  0
  1  2  1  0  0  0  0
  1 36  1  0  0  0  0
  1 37  1  0  0  0  0
  1 38  1  0  0  0  0
  2  3  1  0  0  0  0
  2 39  1  0  0  0  0
  2 40  1  0  0  0  0
  3  4  1  0  0  0  0
  3  7  1  0  0  0  0
  4  5  1  0  0  0  0
  4 41  1  0  0  0  0
  4 42  1  0  0  0  0
  5  6  1  0  0  0  0
  5 43  1  0  0  0  0
  5 44  1  0  0  0  0
  6  7  1  0  0  0  0
  6 45  1  0  0  0  0
  6 46  1  0  0  0  0
  7  8  1  0  0  0  0
  7 47  1  6  0  0  0
  8  9  2  0  0  0  0
  8 35  1  0  0  0  0
  9 10  1  0  0  0  0
 10 11  1  0  0  0  0
 11 12  1  0  0  0  0
 11 35  2  0  0  0  0
 12 13  1  0  0  0  0
 12 48  1  0  0  0  0
 12 49  1  0  0  0  0
 13 14  1  0  0  0  0
 14 15  1  0  0  0  0
 14 32  2  0  0  0  0
 15 16  2  0  0  0  0
 15 50  1  0  0  0  0
 16 17  1  0  0  0  0
 16 30  1  0  0  0  0
 17 18  2  0  0  0  0
 18 19  1  0  0  0  0
 18 51  1  0  0  0  0
 19 20  2  0  0  0  0
 20 21  1  0  0  0  0
 20 30  1  0  0  0  0
 21 22  1  0  0  0  0
 21 52  1  0  0  0  0
 22 23  1  0  0  0  0
 22 29  2  0  0  0  0
 23 24  2  0  0  0  0
 23 53  1  0  0  0  0
 24 25  1  0  0  0  0
 24 54  1  0  0  0  0
 25 26  1  0  0  0  0
 25 27  2  0  0  0  0
 27 28  1  0  0  0  0
 27 29  1  0  0  0  0
 29 55  1  0  0  0  0
 30 31  2  0  0  0  0
 31 32  1  0  0  0  0
 31 56  1  0  0  0  0
 32 33  1  0  0  0  0
 33 34  1  0  0  0  0
 34 57  1  0  0  0  0
 34 58  1  0  0  0  0
 34 59  1  0  0  0  0
M  END
$$$$
