CHEMBL255743
 OpenBabel04072215363D

 45 48  0  0  0  0  0  0  0  0999 V2000
    2.8081    0.7816   -2.3295 C   0  0  0  0  0  0  0  0  0  0  0  0
    1.3975    0.4970   -1.8969 C   0  0  0  0  0  0  0  0  0  0  0  0
    0.8892   -0.8004   -1.9971 C   0  0  0  0  0  0  0  0  0  0  0  0
   -0.4065   -1.0711   -1.5703 C   0  0  0  0  0  0  0  0  0  0  0  0
   -1.2044   -0.0503   -1.0585 C   0  0  0  0  0  0  0  0  0  0  0  0
   -2.3835   -0.4311   -0.5534 F   0  0  0  0  0  0  0  0  0  0  0  0
   -0.7495    1.2760   -0.9948 C   0  0  0  0  0  0  0  0  0  0  0  0
   -1.5228    2.3877   -0.5668 N   0  0  0  0  0  0  0  0  0  0  0  0
   -2.9016    2.4271   -0.4638 C   0  0  0  0  0  0  0  0  0  0  0  0
   -3.6616    1.5082   -0.7430 O   0  0  0  0  0  0  0  0  0  0  0  0
   -3.3670    3.6820   -0.0675 N   0  0  0  0  0  0  0  0  0  0  0  0
   -4.7579    3.8741    0.1344 C   0  0  0  0  0  0  0  0  0  0  0  0
   -5.5131    2.9515    0.8581 C   0  0  0  0  0  0  0  0  0  0  0  0
   -6.9090    3.0392    0.8803 C   0  0  0  0  0  0  0  0  0  0  0  0
   -7.5933    4.0600    0.1968 C   0  0  0  0  0  0  0  0  0  0  0  0
   -9.0706    4.0506    0.1137 C   0  0  0  0  0  0  0  0  0  0  0  0
   -9.8641    3.6500    1.2127 C   0  0  0  0  0  0  0  0  0  0  0  0
  -11.2482    3.6013    1.1107 C   0  0  0  0  0  0  0  0  0  0  0  0
  -11.9587    3.9311    0.0172 N   0  0  0  0  0  0  0  0  0  0  0  0
  -11.1796    4.3079   -1.0123 C   0  0  0  0  0  0  0  0  0  0  0  0
  -11.6430    4.6893   -2.2339 N   0  0  0  0  0  0  0  0  0  0  0  0
  -10.6778    4.9920   -3.1136 N   0  0  0  0  0  0  0  0  0  0  0  0
   -9.5558    4.7818   -2.4263 C   0  0  0  0  0  0  0  0  0  0  0  0
   -8.3606    4.9269   -3.0222 N   0  0  0  0  0  0  0  0  0  0  0  0
   -9.7894    4.3835   -1.0696 C   0  0  0  0  0  0  0  0  0  0  0  0
   -6.8011    5.0561   -0.4003 C   0  0  0  0  0  0  0  0  0  0  0  0
   -5.3997    4.9629   -0.4470 C   0  0  0  0  0  0  0  0  0  0  0  0
    0.5772    1.5263   -1.3947 C   0  0  0  0  0  0  0  0  0  0  0  0
    3.3108   -0.1288   -2.6732 H   0  0  0  0  0  0  0  0  0  0  0  0
    3.3874    1.1822   -1.4925 H   0  0  0  0  0  0  0  0  0  0  0  0
    2.8151    1.4982   -3.1565 H   0  0  0  0  0  0  0  0  0  0  0  0
    1.4968   -1.6111   -2.3895 H   0  0  0  0  0  0  0  0  0  0  0  0
   -0.8068   -2.0796   -1.6138 H   0  0  0  0  0  0  0  0  0  0  0  0
   -1.0323    3.2594   -0.4254 H   0  0  0  0  0  0  0  0  0  0  0  0
   -2.8715    4.4583   -0.4818 H   0  0  0  0  0  0  0  0  0  0  0  0
   -5.0291    2.1224    1.3705 H   0  0  0  0  0  0  0  0  0  0  0  0
   -7.4518    2.2557    1.4051 H   0  0  0  0  0  0  0  0  0  0  0  0
   -9.4068    3.3700    2.1574 H   0  0  0  0  0  0  0  0  0  0  0  0
  -11.8472    3.2751    1.9581 H   0  0  0  0  0  0  0  0  0  0  0  0
  -12.6113    4.7477   -2.5209 H   0  0  0  0  0  0  0  0  0  0  0  0
   -8.4022    5.0422   -4.0298 H   0  0  0  0  0  0  0  0  0  0  0  0
   -7.6017    4.3164   -2.7368 H   0  0  0  0  0  0  0  0  0  0  0  0
   -7.2732    5.9049   -0.8926 H   0  0  0  0  0  0  0  0  0  0  0  0
   -4.8453    5.7042   -1.0146 H   0  0  0  0  0  0  0  0  0  0  0  0
    0.9813    2.5348   -1.3420 H   0  0  0  0  0  0  0  0  0  0  0  0
  1  2  1  0  0  0  0
  1 29  1  0  0  0  0
  1 30  1  0  0  0  0
  1 31  1  0  0  0  0
  2  3  1  0  0  0  0
  2 28  2  0  0  0  0
  3  4  2  0  0  0  0
  3 32  1  0  0  0  0
  4  5  1  0  0  0  0
  4 33  1  0  0  0  0
  5  6  1  0  0  0  0
  5  7  2  0  0  0  0
  7  8  1  0  0  0  0
  7 28  1  0  0  0  0
  8  9  1  0  0  0  0
  8 34  1  0  0  0  0
  9 10  2  0  0  0  0
  9 11  1  0  0  0  0
 11 12  1  0  0  0  0
 11 35  1  0  0  0  0
 12 13  1  0  0  0  0
 12 27  2  0  0  0  0
 13 14  2  0  0  0  0
 13 36  1  0  0  0  0
 14 15  1  0  0  0  0
 14 37  1  0  0  0  0
 15 16  1  0  0  0  0
 15 26  2  0  0  0  0
 16 17  1  0  0  0  0
 16 25  2  0  0  0  0
 17 18  2  0  0  0  0
 17 38  1  0  0  0  0
 18 19  1  0  0  0  0
 18 39  1  0  0  0  0
 19 20  2  0  0  0  0
 20 21  1  0  0  0  0
 20 25  1  0  0  0  0
 21 22  1  0  0  0  0
 21 40  1  0  0  0  0
 22 23  2  0  0  0  0
 23 24  1  0  0  0  0
 23 25  1  0  0  0  0
 24 41  1  0  0  0  0
 24 42  1  0  0  0  0
 26 27  1  0  0  0  0
 26 43  1  0  0  0  0
 27 44  1  0  0  0  0
 28 45  1  0  0  0  0
M  END
$$$$
