CHEMBL3941695
 OpenBabel04072215373D

 69 71  0  0  1  0  0  0  0  0999 V2000
    3.8671    2.8926   -3.6346 C   0  0  0  0  0  0  0  0  0  0  0  0
    3.2996    1.9617   -2.7753 O   0  0  0  0  0  0  0  0  0  0  0  0
    3.9305    0.8681   -2.2591 C   0  0  0  0  0  0  0  0  0  0  0  0
    5.2875    0.6250   -2.5242 C   0  0  0  0  0  0  0  0  0  0  0  0
    5.9344   -0.4732   -1.9569 C   0  0  0  0  0  0  0  0  0  0  0  0
    7.2456   -0.7483   -2.2041 O   0  0  0  0  0  0  0  0  0  0  0  0
    8.0607   -0.0559   -3.0787 C   0  0  0  0  0  0  0  0  0  0  0  0
    5.2227   -1.3141   -1.0987 C   0  0  0  0  0  0  0  0  0  0  0  0
    3.8407   -1.1231   -0.7978 C   0  0  0  0  0  0  0  0  0  0  0  0
    3.1959   -1.9607    0.2155 N   0  0  0  0  0  0  0  0  0  0  0  0
    4.0921   -2.5412    1.2774 C   0  0  0  0  0  0  0  0  0  0  0  0
    4.8758   -1.5246    2.1735 C   0  0  2  0  0  0  0  0  0  0  0  0
    5.8051   -2.2442    2.9508 O   0  0  0  0  0  0  0  0  0  0  0  0
    4.1189   -0.5315    3.1130 C   0  0  0  0  0  0  0  0  0  0  0  0
    5.1290    0.3951    3.6729 N   0  0  0  0  0  0  0  0  0  0  0  0
    4.6293    1.5106    4.5000 C   0  0  0  0  0  0  0  0  0  0  0  0
    4.0509    1.0243    5.8353 C   0  0  0  0  0  0  0  0  0  0  0  0
    5.8039    2.4674    4.7891 C   0  0  0  0  0  0  0  0  0  0  0  0
    1.8063   -2.4499    0.3208 C   0  0  0  0  0  0  0  0  0  0  0  0
    1.3566   -2.5389    1.6323 C   0  0  0  0  0  0  0  0  0  0  0  0
    0.3760   -3.3597    2.0238 C   0  0  0  0  0  0  0  0  0  0  0  0
   -0.3089   -4.0992    1.1208 C   0  0  0  0  0  0  0  0  0  0  0  0
   -1.0841   -5.0512    1.6341 N   0  0  0  0  0  0  0  0  0  0  0  0
   -1.8927   -5.7683    0.8809 C   0  0  0  0  0  0  0  0  0  0  0  0
   -2.1081   -5.4056   -0.4434 C   0  0  0  0  0  0  0  0  0  0  0  0
   -3.5465   -5.7323   -0.8554 C   0  0  0  0  0  0  0  0  0  0  0  0
   -4.4953   -6.2201    0.0612 C   0  0  0  0  0  0  0  0  0  0  0  0
   -5.7275   -6.1550   -0.4501 N   0  0  0  0  0  0  0  0  0  0  0  0
   -5.6187   -5.6739   -1.6681 N   0  0  0  0  0  0  0  0  0  0  0  0
   -6.8128   -5.3322   -2.4200 C   0  0  0  0  0  0  0  0  0  0  0  0
   -4.3096   -5.4407   -1.9857 C   0  0  0  0  0  0  0  0  0  0  0  0
   -1.1844   -4.5356   -1.0562 N   0  0  0  0  0  0  0  0  0  0  0  0
   -0.1954   -3.9039   -0.2721 C   0  0  0  0  0  0  0  0  0  0  0  0
    0.9499   -3.0721   -0.7162 C   0  0  0  0  0  0  0  0  0  0  0  0
    3.2083   -0.0202   -1.4176 C   0  0  0  0  0  0  0  0  0  0  0  0
    0.1451    0.6018    0.4769 Cl  0  0  0  0  0  0  0  0  0  0  0  0
    3.1268    3.6858   -3.8636 H   0  0  0  0  0  0  0  0  0  0  0  0
    4.1633    2.4018   -4.5864 H   0  0  0  0  0  0  0  0  0  0  0  0
    4.7578    3.3797   -3.1763 H   0  0  0  0  0  0  0  0  0  0  0  0
    5.8463    1.2960   -3.1636 H   0  0  0  0  0  0  0  0  0  0  0  0
    9.0660   -0.5317   -3.1003 H   0  0  0  0  0  0  0  0  0  0  0  0
    8.1805    0.9986   -2.7449 H   0  0  0  0  0  0  0  0  0  0  0  0
    7.6353   -0.0887   -4.1011 H   0  0  0  0  0  0  0  0  0  0  0  0
    5.7926   -2.1209   -0.6709 H   0  0  0  0  0  0  0  0  0  0  0  0
    4.8230   -3.2138    0.7967 H   0  0  0  0  0  0  0  0  0  0  0  0
    3.5871   -3.2568    1.9595 H   0  0  0  0  0  0  0  0  0  0  0  0
    5.4563   -0.8998    1.4737 H   0  0  0  0  0  0  0  0  0  0  0  0
    5.3069   -2.6836    3.6930 H   0  0  0  0  0  0  0  0  0  0  0  0
    3.6157   -1.0900    3.9368 H   0  0  0  0  0  0  0  0  0  0  0  0
    3.3483    0.0382    2.5537 H   0  0  0  0  0  0  0  0  0  0  0  0
    5.6101    0.8353    2.8534 H   0  0  0  0  0  0  0  0  0  0  0  0
    3.8504    2.0796    3.9449 H   0  0  0  0  0  0  0  0  0  0  0  0
    4.8154    0.4558    6.4077 H   0  0  0  0  0  0  0  0  0  0  0  0
    3.1617    0.3846    5.6743 H   0  0  0  0  0  0  0  0  0  0  0  0
    3.7312    1.8970    6.4479 H   0  0  0  0  0  0  0  0  0  0  0  0
    6.6088    1.9395    5.3473 H   0  0  0  0  0  0  0  0  0  0  0  0
    5.4709    3.3433    5.3851 H   0  0  0  0  0  0  0  0  0  0  0  0
    6.2373    2.8482    3.8389 H   0  0  0  0  0  0  0  0  0  0  0  0
    1.8817   -2.0236    2.4294 H   0  0  0  0  0  0  0  0  0  0  0  0
    0.1788   -3.4776    3.0763 H   0  0  0  0  0  0  0  0  0  0  0  0
   -2.4573   -6.4847    1.4373 H   0  0  0  0  0  0  0  0  0  0  0  0
   -4.4062   -6.5004    1.1000 H   0  0  0  0  0  0  0  0  0  0  0  0
   -7.7105   -5.4500   -1.7602 H   0  0  0  0  0  0  0  0  0  0  0  0
   -6.9321   -5.9817   -3.3030 H   0  0  0  0  0  0  0  0  0  0  0  0
   -6.7680   -4.2595   -2.6973 H   0  0  0  0  0  0  0  0  0  0  0  0
   -3.9818   -5.0006   -2.9132 H   0  0  0  0  0  0  0  0  0  0  0  0
    1.2125   -3.0146   -1.7715 H   0  0  0  0  0  0  0  0  0  0  0  0
    2.1806    0.2038   -1.2161 H   0  0  0  0  0  0  0  0  0  0  0  0
    1.4441    0.4843    0.9242 H   0  0  0  0  0  0  0  0  0  0  0  0
  1  2  1  0  0  0  0
  1 37  1  0  0  0  0
  1 38  1  0  0  0  0
  1 39  1  0  0  0  0
  2  3  1  0  0  0  0
  3  4  1  0  0  0  0
  3 35  2  0  0  0  0
  4  5  2  0  0  0  0
  4 40  1  0  0  0  0
  5  6  1  0  0  0  0
  5  8  1  0  0  0  0
  6  7  1  0  0  0  0
  7 41  1  0  0  0  0
  7 42  1  0  0  0  0
  7 43  1  0  0  0  0
  8  9  2  0  0  0  0
  8 44  1  0  0  0  0
  9 10  1  0  0  0  0
  9 35  1  0  0  0  0
 10 11  1  0  0  0  0
 10 19  1  0  0  0  0
 11 45  1  0  0  0  0
 11 46  1  0  0  0  0
 12 14  1  0  0  0  0
 12 13  1  0  0  0  0
 12 11  1  0  0  0  0
 12 47  1  6  0  0  0
 13 48  1  0  0  0  0
 14 15  1  0  0  0  0
 14 49  1  0  0  0  0
 14 50  1  0  0  0  0
 15 16  1  0  0  0  0
 15 51  1  0  0  0  0
 16 17  1  0  0  0  0
 16 18  1  0  0  0  0
 16 52  1  0  0  0  0
 17 53  1  0  0  0  0
 17 54  1  0  0  0  0
 17 55  1  0  0  0  0
 18 56  1  0  0  0  0
 18 57  1  0  0  0  0
 18 58  1  0  0  0  0
 19 20  1  0  0  0  0
 19 34  2  0  0  0  0
 20 21  2  0  0  0  0
 20 59  1  0  0  0  0
 21 22  1  0  0  0  0
 21 60  1  0  0  0  0
 22 23  1  0  0  0  0
 22 33  2  0  0  0  0
 23 24  2  0  0  0  0
 24 25  1  0  0  0  0
 24 61  1  0  0  0  0
 25 26  1  0  0  0  0
 25 32  2  0  0  0  0
 26 27  1  0  0  0  0
 26 31  2  0  0  0  0
 27 28  2  0  0  0  0
 27 62  1  0  0  0  0
 28 29  1  0  0  0  0
 29 30  1  0  0  0  0
 29 31  1  0  0  0  0
 30 63  1  0  0  0  0
 30 64  1  0  0  0  0
 30 65  1  0  0  0  0
 31 66  1  0  0  0  0
 32 33  1  0  0  0  0
 33 34  1  0  0  0  0
 34 67  1  0  0  0  0
 35 68  1  0  0  0  0
 36 69  1  0  0  0  0
M  END
$$$$
