CHEMBL1910892
 OpenBabel04072215363D

 50 54  0  0  0  0  0  0  0  0999 V2000
    2.2436   -0.1750   -0.0842 O   0  0  0  0  0  0  0  0  0  0  0  0
    0.8848   -0.1012   -0.0968 C   0  0  0  0  0  0  0  0  0  0  0  0
    0.1710   -0.0446   -1.2890 C   0  0  0  0  0  0  0  0  0  0  0  0
   -1.2223    0.0250   -1.2527 C   0  0  0  0  0  0  0  0  0  0  0  0
   -1.9255    0.0325   -0.0316 C   0  0  0  0  0  0  0  0  0  0  0  0
   -3.3982    0.0577    0.0079 C   0  0  0  0  0  0  0  0  0  0  0  0
   -4.0980   -0.5289    1.0680 C   0  0  0  0  0  0  0  0  0  0  0  0
   -5.4858   -0.5056    1.0952 C   0  0  0  0  0  0  0  0  0  0  0  0
   -6.1502    0.1178    0.0278 C   0  0  0  0  0  0  0  0  0  0  0  0
   -7.5097    0.3665   -0.3372 C   0  0  0  0  0  0  0  0  0  0  0  0
   -8.7423    0.0706    0.3750 C   0  0  0  0  0  0  0  0  0  0  0  0
   -8.7726    0.0546    1.7725 C   0  0  0  0  0  0  0  0  0  0  0  0
   -9.9634   -0.1887    2.4640 C   0  0  0  0  0  0  0  0  0  0  0  0
  -11.1618   -0.4489    1.7867 C   0  0  0  0  0  0  0  0  0  0  0  0
  -12.3494   -0.7008    2.4381 N   0  0  0  0  0  0  0  0  0  0  0  0
  -12.6756   -0.1340    3.7517 C   0  0  0  0  0  0  0  0  0  0  0  0
  -12.9016   -1.2388    4.8060 C   0  0  0  0  0  0  0  0  0  0  0  0
  -13.8582   -2.2844    4.3809 N   0  0  0  0  0  0  0  0  0  0  0  0
  -13.3907   -2.8539    3.0984 C   0  0  0  0  0  0  0  0  0  0  0  0
  -13.2067   -1.8030    1.9790 C   0  0  0  0  0  0  0  0  0  0  0  0
  -11.1116   -0.4371    0.3839 C   0  0  0  0  0  0  0  0  0  0  0  0
   -9.9338   -0.1778   -0.3133 C   0  0  0  0  0  0  0  0  0  0  0  0
   -7.4810    1.0178   -1.5603 C   0  0  0  0  0  0  0  0  0  0  0  0
   -6.1742    1.1901   -1.9261 N   0  0  0  0  0  0  0  0  0  0  0  0
   -5.3490    0.6555   -0.9745 C   0  0  0  0  0  0  0  0  0  0  0  0
   -4.0088    0.6646   -1.0450 N   0  0  0  0  0  0  0  0  0  0  0  0
   -1.1671   -0.0090    1.1542 C   0  0  0  0  0  0  0  0  0  0  0  0
    0.2239   -0.0815    1.1241 C   0  0  0  0  0  0  0  0  0  0  0  0
    2.5644   -0.1365   -1.0003 H   0  0  0  0  0  0  0  0  0  0  0  0
    0.6760   -0.0560   -2.2505 H   0  0  0  0  0  0  0  0  0  0  0  0
   -1.7758    0.0645   -2.1904 H   0  0  0  0  0  0  0  0  0  0  0  0
   -3.5661   -1.0175    1.8793 H   0  0  0  0  0  0  0  0  0  0  0  0
   -6.0303   -0.9631    1.9140 H   0  0  0  0  0  0  0  0  0  0  0  0
   -7.8712    0.2475    2.3460 H   0  0  0  0  0  0  0  0  0  0  0  0
   -9.9355   -0.2016    3.5501 H   0  0  0  0  0  0  0  0  0  0  0  0
  -13.6006    0.4462    3.6447 H   0  0  0  0  0  0  0  0  0  0  0  0
  -11.9169    0.5712    4.1063 H   0  0  0  0  0  0  0  0  0  0  0  0
  -13.2805   -0.7800    5.7261 H   0  0  0  0  0  0  0  0  0  0  0  0
  -11.9460   -1.7124    5.0606 H   0  0  0  0  0  0  0  0  0  0  0  0
  -14.7597   -1.8374    4.2145 H   0  0  0  0  0  0  0  0  0  0  0  0
  -14.1157   -3.6056    2.7675 H   0  0  0  0  0  0  0  0  0  0  0  0
  -12.4449   -3.3830    3.2695 H   0  0  0  0  0  0  0  0  0  0  0  0
  -14.1839   -1.3916    1.6960 H   0  0  0  0  0  0  0  0  0  0  0  0
  -12.8020   -2.3086    1.0966 H   0  0  0  0  0  0  0  0  0  0  0  0
  -12.0255   -0.6039   -0.1839 H   0  0  0  0  0  0  0  0  0  0  0  0
   -9.9567   -0.1695   -1.4003 H   0  0  0  0  0  0  0  0  0  0  0  0
   -8.2784    1.3910   -2.1895 H   0  0  0  0  0  0  0  0  0  0  0  0
   -5.8378    1.6442   -2.7617 H   0  0  0  0  0  0  0  0  0  0  0  0
   -1.6589    0.0182    2.1230 H   0  0  0  0  0  0  0  0  0  0  0  0
    0.7916   -0.1258    2.0504 H   0  0  0  0  0  0  0  0  0  0  0  0
  1  2  1  0  0  0  0
  1 29  1  0  0  0  0
  2  3  1  0  0  0  0
  2 28  2  0  0  0  0
  3  4  2  0  0  0  0
  3 30  1  0  0  0  0
  4  5  1  0  0  0  0
  4 31  1  0  0  0  0
  5  6  1  0  0  0  0
  5 27  2  0  0  0  0
  6  7  1  0  0  0  0
  6 26  2  0  0  0  0
  7  8  2  0  0  0  0
  7 32  1  0  0  0  0
  8  9  1  0  0  0  0
  8 33  1  0  0  0  0
  9 10  1  0  0  0  0
  9 25  2  0  0  0  0
 10 11  1  0  0  0  0
 10 23  2  0  0  0  0
 11 12  1  0  0  0  0
 11 22  2  0  0  0  0
 12 13  2  0  0  0  0
 12 34  1  0  0  0  0
 13 14  1  0  0  0  0
 13 35  1  0  0  0  0
 14 15  1  0  0  0  0
 14 21  2  0  0  0  0
 15 16  1  0  0  0  0
 15 20  1  0  0  0  0
 16 17  1  0  0  0  0
 16 36  1  0  0  0  0
 16 37  1  0  0  0  0
 17 18  1  0  0  0  0
 17 38  1  0  0  0  0
 17 39  1  0  0  0  0
 18 19  1  0  0  0  0
 18 40  1  0  0  0  0
 19 20  1  0  0  0  0
 19 41  1  0  0  0  0
 19 42  1  0  0  0  0
 20 43  1  0  0  0  0
 20 44  1  0  0  0  0
 21 22  1  0  0  0  0
 21 45  1  0  0  0  0
 22 46  1  0  0  0  0
 23 24  1  0  0  0  0
 23 47  1  0  0  0  0
 24 25  1  0  0  0  0
 24 48  1  0  0  0  0
 25 26  1  0  0  0  0
 27 28  1  0  0  0  0
 27 49  1  0  0  0  0
 28 50  1  0  0  0  0
M  END
$$$$
