CHEMBL3955460
 OpenBabel04072215373D

 53 56  0  0  0  0  0  0  0  0999 V2000
   -2.6298   -0.2252    0.0817 C   0  0  0  0  0  0  0  0  0  0  0  0
   -1.1362   -0.0504    0.0898 C   0  0  0  0  0  0  0  0  0  0  0  0
   -0.3492   -1.2245    0.1512 C   0  0  0  0  0  0  0  0  0  0  0  0
    1.0316   -1.1206    0.1447 C   0  0  0  0  0  0  0  0  0  0  0  0
    1.7804   -2.2744    0.3200 O   0  0  0  0  0  0  0  0  0  0  0  0
    3.0789   -2.1093    0.7736 C   0  0  0  0  0  0  0  0  0  0  0  0
    3.3948   -1.2158    1.7804 C   0  0  0  0  0  0  0  0  0  0  0  0
    4.7229   -1.1019    2.1146 C   0  0  0  0  0  0  0  0  0  0  0  0
    5.0608   -0.1071    3.0471 N   0  0  0  0  0  0  0  0  0  0  0  0
    6.3131    0.0863    3.5724 C   0  0  0  0  0  0  0  0  0  0  0  0
    7.3153   -0.5892    3.3924 O   0  0  0  0  0  0  0  0  0  0  0  0
    6.3672    1.2448    4.5185 C   0  0  0  0  0  0  0  0  0  0  0  0
    7.6536    1.5897    5.2354 C   0  0  0  0  0  0  0  0  0  0  0  0
    6.5177    0.9733    5.9975 C   0  0  0  0  0  0  0  0  0  0  0  0
    5.6577   -1.8792    1.5598 N   0  0  0  0  0  0  0  0  0  0  0  0
    5.2437   -2.7591    0.6387 C   0  0  0  0  0  0  0  0  0  0  0  0
    3.9855   -2.9263    0.2124 N   0  0  0  0  0  0  0  0  0  0  0  0
    1.6656    0.0532    0.0166 N   0  0  0  0  0  0  0  0  0  0  0  0
    0.9067    1.1675   -0.0309 C   0  0  0  0  0  0  0  0  0  0  0  0
   -0.4889    1.2022    0.0208 C   0  0  0  0  0  0  0  0  0  0  0  0
   -1.2096    2.4374    0.0368 N   0  0  0  0  0  0  0  0  0  0  0  0
   -0.6268    3.6946   -0.0729 C   0  0  0  0  0  0  0  0  0  0  0  0
    0.5637    3.9011   -0.2927 O   0  0  0  0  0  0  0  0  0  0  0  0
   -1.5139    4.7355    0.1603 N   0  0  0  0  0  0  0  0  0  0  0  0
   -1.0605    6.0833    0.0950 C   0  0  0  0  0  0  0  0  0  0  0  0
   -1.3768    6.9519    1.1381 C   0  0  0  0  0  0  0  0  0  0  0  0
   -0.8671    8.2547    1.1364 C   0  0  0  0  0  0  0  0  0  0  0  0
   -0.0807    8.7249    0.0751 C   0  0  0  0  0  0  0  0  0  0  0  0
    0.4763   10.3537    0.2022 Cl  0  0  0  0  0  0  0  0  0  0  0  0
    0.2162    7.8890   -1.0044 C   0  0  0  0  0  0  0  0  0  0  0  0
    1.0225    8.3081   -2.2097 C   0  0  0  0  0  0  0  0  0  0  0  0
    1.3925    9.6148   -2.2662 F   0  0  0  0  0  0  0  0  0  0  0  0
    2.1797    7.5975   -2.3294 F   0  0  0  0  0  0  0  0  0  0  0  0
    0.3384    8.0855   -3.3711 F   0  0  0  0  0  0  0  0  0  0  0  0
   -0.2725    6.5570   -0.9620 C   0  0  0  0  0  0  0  0  0  0  0  0
   -2.9070   -1.2706    0.2667 H   0  0  0  0  0  0  0  0  0  0  0  0
   -3.0356    0.0499   -0.8960 H   0  0  0  0  0  0  0  0  0  0  0  0
   -3.1036    0.3717    0.8664 H   0  0  0  0  0  0  0  0  0  0  0  0
   -0.8031   -2.2079    0.2252 H   0  0  0  0  0  0  0  0  0  0  0  0
    2.6385   -0.6024    2.2478 H   0  0  0  0  0  0  0  0  0  0  0  0
    4.3243    0.5173    3.3389 H   0  0  0  0  0  0  0  0  0  0  0  0
    5.7572    2.0960    4.2305 H   0  0  0  0  0  0  0  0  0  0  0  0
    7.8788    2.6351    5.4076 H   0  0  0  0  0  0  0  0  0  0  0  0
    8.5294    0.9787    5.0395 H   0  0  0  0  0  0  0  0  0  0  0  0
    5.9750    1.6015    6.6929 H   0  0  0  0  0  0  0  0  0  0  0  0
    6.6334   -0.0559    6.3196 H   0  0  0  0  0  0  0  0  0  0  0  0
    6.0058   -3.3907    0.1954 H   0  0  0  0  0  0  0  0  0  0  0  0
    1.5255    2.0529   -0.0921 H   0  0  0  0  0  0  0  0  0  0  0  0
   -2.2182    2.3918    0.0412 H   0  0  0  0  0  0  0  0  0  0  0  0
   -2.2099    4.5377    0.8623 H   0  0  0  0  0  0  0  0  0  0  0  0
   -1.9593    6.6176    1.9902 H   0  0  0  0  0  0  0  0  0  0  0  0
   -1.0773    8.9044    1.9842 H   0  0  0  0  0  0  0  0  0  0  0  0
   -0.0230    5.8872   -1.7912 H   0  0  0  0  0  0  0  0  0  0  0  0
  1  2  1  0  0  0  0
  1 36  1  0  0  0  0
  1 37  1  0  0  0  0
  1 38  1  0  0  0  0
  2  3  1  0  0  0  0
  2 20  2  0  0  0  0
  3  4  2  0  0  0  0
  3 39  1  0  0  0  0
  4  5  1  0  0  0  0
  4 18  1  0  0  0  0
  5  6  1  0  0  0  0
  6  7  1  0  0  0  0
  6 17  2  0  0  0  0
  7  8  2  0  0  0  0
  7 40  1  0  0  0  0
  8  9  1  0  0  0  0
  8 15  1  0  0  0  0
  9 10  1  0  0  0  0
  9 41  1  0  0  0  0
 10 11  2  0  0  0  0
 10 12  1  0  0  0  0
 12 13  1  0  0  0  0
 12 14  1  0  0  0  0
 12 42  1  0  0  0  0
 13 14  1  0  0  0  0
 13 43  1  0  0  0  0
 13 44  1  0  0  0  0
 14 45  1  0  0  0  0
 14 46  1  0  0  0  0
 15 16  2  0  0  0  0
 16 17  1  0  0  0  0
 16 47  1  0  0  0  0
 18 19  2  0  0  0  0
 19 20  1  0  0  0  0
 19 48  1  0  0  0  0
 20 21  1  0  0  0  0
 21 22  1  0  0  0  0
 21 49  1  0  0  0  0
 22 23  2  0  0  0  0
 22 24  1  0  0  0  0
 24 25  1  0  0  0  0
 24 50  1  0  0  0  0
 25 26  1  0  0  0  0
 25 35  2  0  0  0  0
 26 27  2  0  0  0  0
 26 51  1  0  0  0  0
 27 28  1  0  0  0  0
 27 52  1  0  0  0  0
 28 29  1  0  0  0  0
 28 30  2  0  0  0  0
 30 31  1  0  0  0  0
 30 35  1  0  0  0  0
 31 32  1  0  0  0  0
 31 33  1  0  0  0  0
 31 34  1  0  0  0  0
 35 53  1  0  0  0  0
M  END
$$$$
