CHEMBL461605
 OpenBabel04072215383D

 47 51  0  0  0  0  0  0  0  0999 V2000
    1.1490   -0.3337   -0.0218 C   0  0  0  0  0  0  0  0  0  0  0  0
    0.2946   -1.4194   -0.0926 C   0  0  0  0  0  0  0  0  0  0  0  0
   -1.0777   -1.2023   -0.1695 C   0  0  0  0  0  0  0  0  0  0  0  0
   -1.6305    0.0988   -0.1711 C   0  0  0  0  0  0  0  0  0  0  0  0
   -3.0737    0.2218   -0.3754 C   0  0  0  0  0  0  0  0  0  0  0  0
   -3.8584   -0.7185   -1.0157 C   0  0  0  0  0  0  0  0  0  0  0  0
   -5.1149   -0.1619   -1.0760 N   0  0  0  0  0  0  0  0  0  0  0  0
   -6.2840   -0.7260   -1.6616 C   0  0  0  0  0  0  0  0  0  0  0  0
   -6.4272   -2.1122   -1.6585 C   0  0  0  0  0  0  0  0  0  0  0  0
   -7.5571   -2.6592   -2.2661 C   0  0  0  0  0  0  0  0  0  0  0  0
   -8.3998   -1.8292   -3.0066 C   0  0  0  0  0  0  0  0  0  0  0  0
   -9.3939   -2.3739   -3.8437 C   0  0  0  0  0  0  0  0  0  0  0  0
  -10.1382   -1.5370   -4.6684 C   0  0  0  0  0  0  0  0  0  0  0  0
   -9.9530   -0.1621   -4.6033 C   0  0  0  0  0  0  0  0  0  0  0  0
   -8.9998    0.3759   -3.7274 C   0  0  0  0  0  0  0  0  0  0  0  0
   -8.1892   -0.4408   -2.9515 C   0  0  0  0  0  0  0  0  0  0  0  0
   -7.1863    0.1043   -2.2314 N   0  0  0  0  0  0  0  0  0  0  0  0
   -5.0883    1.0707   -0.5199 N   0  0  0  0  0  0  0  0  0  0  0  0
   -3.8635    1.2884   -0.0481 N   0  0  0  0  0  0  0  0  0  0  0  0
   -0.7665    1.2060    0.0160 C   0  0  0  0  0  0  0  0  0  0  0  0
   -1.2495    2.5253    0.1203 N   0  0  0  0  0  0  0  0  0  0  0  0
   -0.4285    3.4913    0.8457 C   0  0  0  0  0  0  0  0  0  0  0  0
   -1.2301    4.6363    1.4165 C   0  0  0  0  0  0  0  0  0  0  0  0
   -2.5764    4.5068    1.7661 C   0  0  0  0  0  0  0  0  0  0  0  0
   -3.2121    5.5711    2.3842 C   0  0  0  0  0  0  0  0  0  0  0  0
   -2.6059    6.7396    2.6887 N   0  0  0  0  0  0  0  0  0  0  0  0
   -1.3021    6.8456    2.3589 C   0  0  0  0  0  0  0  0  0  0  0  0
   -0.5818    5.8377    1.7361 C   0  0  0  0  0  0  0  0  0  0  0  0
    0.6247    0.9579    0.0248 C   0  0  0  0  0  0  0  0  0  0  0  0
    2.2242   -0.4814    0.0044 H   0  0  0  0  0  0  0  0  0  0  0  0
    0.6910   -2.4280   -0.0992 H   0  0  0  0  0  0  0  0  0  0  0  0
   -1.7141   -2.0814   -0.2325 H   0  0  0  0  0  0  0  0  0  0  0  0
   -3.6234   -1.6553   -1.5047 H   0  0  0  0  0  0  0  0  0  0  0  0
   -5.7138   -2.7721   -1.1792 H   0  0  0  0  0  0  0  0  0  0  0  0
   -7.7335   -3.7295   -2.2033 H   0  0  0  0  0  0  0  0  0  0  0  0
   -9.5375   -3.4485   -3.9058 H   0  0  0  0  0  0  0  0  0  0  0  0
  -10.8474   -1.9608   -5.3789 H   0  0  0  0  0  0  0  0  0  0  0  0
  -10.5297    0.5008   -5.2437 H   0  0  0  0  0  0  0  0  0  0  0  0
   -8.8552    1.4515   -3.6880 H   0  0  0  0  0  0  0  0  0  0  0  0
   -1.5962    2.8729   -0.7692 H   0  0  0  0  0  0  0  0  0  0  0  0
    0.3433    3.8879    0.1753 H   0  0  0  0  0  0  0  0  0  0  0  0
    0.0629    3.0138    1.7038 H   0  0  0  0  0  0  0  0  0  0  0  0
   -3.1226    3.5862    1.5749 H   0  0  0  0  0  0  0  0  0  0  0  0
   -4.2567    5.5022    2.6711 H   0  0  0  0  0  0  0  0  0  0  0  0
   -0.8317    7.7865    2.6284 H   0  0  0  0  0  0  0  0  0  0  0  0
    0.4724    5.9849    1.5238 H   0  0  0  0  0  0  0  0  0  0  0  0
    1.3333    1.7728    0.0749 H   0  0  0  0  0  0  0  0  0  0  0  0
  1  2  1  0  0  0  0
  1 29  2  0  0  0  0
  1 30  1  0  0  0  0
  2  3  2  0  0  0  0
  2 31  1  0  0  0  0
  3  4  1  0  0  0  0
  3 32  1  0  0  0  0
  4  5  1  0  0  0  0
  4 20  2  0  0  0  0
  5  6  2  0  0  0  0
  5 19  1  0  0  0  0
  6  7  1  0  0  0  0
  6 33  1  0  0  0  0
  7  8  1  0  0  0  0
  7 18  1  0  0  0  0
  8  9  1  0  0  0  0
  8 17  2  0  0  0  0
  9 10  2  0  0  0  0
  9 34  1  0  0  0  0
 10 11  1  0  0  0  0
 10 35  1  0  0  0  0
 11 12  1  0  0  0  0
 11 16  2  0  0  0  0
 12 13  2  0  0  0  0
 12 36  1  0  0  0  0
 13 14  1  0  0  0  0
 13 37  1  0  0  0  0
 14 15  2  0  0  0  0
 14 38  1  0  0  0  0
 15 16  1  0  0  0  0
 15 39  1  0  0  0  0
 16 17  1  0  0  0  0
 18 19  2  0  0  0  0
 20 21  1  0  0  0  0
 20 29  1  0  0  0  0
 21 22  1  0  0  0  0
 21 40  1  0  0  0  0
 22 23  1  0  0  0  0
 22 41  1  0  0  0  0
 22 42  1  0  0  0  0
 23 24  1  0  0  0  0
 23 28  2  0  0  0  0
 24 25  2  0  0  0  0
 24 43  1  0  0  0  0
 25 26  1  0  0  0  0
 25 44  1  0  0  0  0
 26 27  2  0  0  0  0
 27 28  1  0  0  0  0
 27 45  1  0  0  0  0
 28 46  1  0  0  0  0
 29 47  1  0  0  0  0
M  END
$$$$
