CHEMBL3656125
 OpenBabel04072215373D

 68 72  0  0  0  0  0  0  0  0999 V2000
    2.9799    6.8351    2.4996 C   0  0  0  0  0  0  0  0  0  0  0  0
    1.7947    5.9298    2.3080 C   0  0  0  0  0  0  0  0  0  0  0  0
    2.0133    4.6098    1.8964 C   0  0  0  0  0  0  0  0  0  0  0  0
    0.9359    3.7515    1.7306 C   0  0  0  0  0  0  0  0  0  0  0  0
   -0.3622    4.2033    1.9589 C   0  0  0  0  0  0  0  0  0  0  0  0
   -1.3192    3.2687    1.9096 F   0  0  0  0  0  0  0  0  0  0  0  0
   -0.6311    5.5354    2.3199 C   0  0  0  0  0  0  0  0  0  0  0  0
   -1.9459    6.0695    2.4973 N   0  0  0  0  0  0  0  0  0  0  0  0
   -3.0936    5.5229    1.9383 C   0  0  0  0  0  0  0  0  0  0  0  0
   -3.1143    4.5693    1.1769 O   0  0  0  0  0  0  0  0  0  0  0  0
   -4.2608    6.2208    2.2706 N   0  0  0  0  0  0  0  0  0  0  0  0
   -5.5007    5.6753    1.8294 C   0  0  0  0  0  0  0  0  0  0  0  0
   -5.8328    4.3551    2.1520 C   0  0  0  0  0  0  0  0  0  0  0  0
   -6.9881    3.7627    1.6390 C   0  0  0  0  0  0  0  0  0  0  0  0
   -7.8660    4.5034    0.8456 C   0  0  0  0  0  0  0  0  0  0  0  0
   -9.0396    3.9996    0.3190 O   0  0  0  0  0  0  0  0  0  0  0  0
   -9.7336    3.0308    1.0155 C   0  0  0  0  0  0  0  0  0  0  0  0
   -9.8273    2.9974    2.4043 C   0  0  0  0  0  0  0  0  0  0  0  0
  -10.5033    1.9427    2.9871 C   0  0  0  0  0  0  0  0  0  0  0  0
  -11.1308    0.9705    2.2915 N   0  0  0  0  0  0  0  0  0  0  0  0
  -11.0901    1.0650    0.9404 C   0  0  0  0  0  0  0  0  0  0  0  0
  -11.8328    0.0198    0.2459 C   0  0  0  0  0  0  0  0  0  0  0  0
  -12.0503   -0.2169   -1.1006 C   0  0  0  0  0  0  0  0  0  0  0  0
  -12.8831   -1.3646   -1.2392 C   0  0  0  0  0  0  0  0  0  0  0  0
  -13.3739   -1.9308   -2.4947 C   0  0  0  0  0  0  0  0  0  0  0  0
  -13.6616   -1.1949   -3.4371 O   0  0  0  0  0  0  0  0  0  0  0  0
  -13.4899   -3.3246   -2.5768 N   0  0  0  0  0  0  0  0  0  0  0  0
  -14.0135   -3.8532   -3.8378 C   0  0  0  0  0  0  0  0  0  0  0  0
  -14.4238   -5.3349   -3.7362 C   0  0  0  0  0  0  0  0  0  0  0  0
  -13.4072   -6.2258   -3.1375 N   0  0  0  0  0  0  0  0  0  0  0  0
  -12.2729   -6.4346   -4.0363 C   0  0  0  0  0  0  0  0  0  0  0  0
  -12.9718   -5.6598   -1.8464 C   0  0  0  0  0  0  0  0  0  0  0  0
  -12.5130   -4.1938   -1.9116 C   0  0  0  0  0  0  0  0  0  0  0  0
  -13.1784   -1.7778    0.0488 C   0  0  0  0  0  0  0  0  0  0  0  0
  -12.5031   -0.9732    0.9260 N   0  0  0  0  0  0  0  0  0  0  0  0
  -10.4116    2.0740    0.2665 C   0  0  0  0  0  0  0  0  0  0  0  0
   -7.5307    5.8188    0.5066 C   0  0  0  0  0  0  0  0  0  0  0  0
   -6.3620    6.4142    1.0145 C   0  0  0  0  0  0  0  0  0  0  0  0
    0.4749    6.3843    2.5227 C   0  0  0  0  0  0  0  0  0  0  0  0
    3.9196    6.3083    2.3039 H   0  0  0  0  0  0  0  0  0  0  0  0
    3.0199    7.2022    3.5311 H   0  0  0  0  0  0  0  0  0  0  0  0
    2.9315    7.6815    1.8071 H   0  0  0  0  0  0  0  0  0  0  0  0
    3.0194    4.2354    1.7201 H   0  0  0  0  0  0  0  0  0  0  0  0
    1.0890    2.7165    1.4399 H   0  0  0  0  0  0  0  0  0  0  0  0
   -2.0249    6.9756    2.9342 H   0  0  0  0  0  0  0  0  0  0  0  0
   -4.1730    7.2241    2.2093 H   0  0  0  0  0  0  0  0  0  0  0  0
   -5.1782    3.7642    2.7886 H   0  0  0  0  0  0  0  0  0  0  0  0
   -7.1783    2.7184    1.8677 H   0  0  0  0  0  0  0  0  0  0  0  0
   -9.3628    3.7524    3.0269 H   0  0  0  0  0  0  0  0  0  0  0  0
  -10.5499    1.8482    4.0680 H   0  0  0  0  0  0  0  0  0  0  0  0
  -11.6582    0.3711   -1.9204 H   0  0  0  0  0  0  0  0  0  0  0  0
  -13.2387   -3.7190   -4.6027 H   0  0  0  0  0  0  0  0  0  0  0  0
  -14.8806   -3.2579   -4.1488 H   0  0  0  0  0  0  0  0  0  0  0  0
  -14.7169   -5.7078   -4.7247 H   0  0  0  0  0  0  0  0  0  0  0  0
  -15.3281   -5.4012   -3.1162 H   0  0  0  0  0  0  0  0  0  0  0  0
  -12.6081   -6.8884   -4.9748 H   0  0  0  0  0  0  0  0  0  0  0  0
  -11.5592   -7.1341   -3.5873 H   0  0  0  0  0  0  0  0  0  0  0  0
  -11.7336   -5.5130   -4.2786 H   0  0  0  0  0  0  0  0  0  0  0  0
  -12.1736   -6.2730   -1.4121 H   0  0  0  0  0  0  0  0  0  0  0  0
  -13.8148   -5.7289   -1.1457 H   0  0  0  0  0  0  0  0  0  0  0  0
  -11.5735   -4.1007   -2.4688 H   0  0  0  0  0  0  0  0  0  0  0  0
  -12.2944   -3.8624   -0.8971 H   0  0  0  0  0  0  0  0  0  0  0  0
  -13.8042   -2.5835    0.4100 H   0  0  0  0  0  0  0  0  0  0  0  0
  -12.5025   -1.0517    1.9369 H   0  0  0  0  0  0  0  0  0  0  0  0
  -10.4055    2.1199   -0.8162 H   0  0  0  0  0  0  0  0  0  0  0  0
   -8.1687    6.3768   -0.1751 H   0  0  0  0  0  0  0  0  0  0  0  0
   -6.1066    7.4215    0.6993 H   0  0  0  0  0  0  0  0  0  0  0  0
    0.3241    7.4193    2.8223 H   0  0  0  0  0  0  0  0  0  0  0  0
  1  2  1  0  0  0  0
  1 40  1  0  0  0  0
  1 41  1  0  0  0  0
  1 42  1  0  0  0  0
  2  3  1  0  0  0  0
  2 39  2  0  0  0  0
  3  4  2  0  0  0  0
  3 43  1  0  0  0  0
  4  5  1  0  0  0  0
  4 44  1  0  0  0  0
  5  6  1  0  0  0  0
  5  7  2  0  0  0  0
  7  8  1  0  0  0  0
  7 39  1  0  0  0  0
  8  9  1  0  0  0  0
  8 45  1  0  0  0  0
  9 10  2  0  0  0  0
  9 11  1  0  0  0  0
 11 12  1  0  0  0  0
 11 46  1  0  0  0  0
 12 13  1  0  0  0  0
 12 38  2  0  0  0  0
 13 14  2  0  0  0  0
 13 47  1  0  0  0  0
 14 15  1  0  0  0  0
 14 48  1  0  0  0  0
 15 16  1  0  0  0  0
 15 37  2  0  0  0  0
 16 17  1  0  0  0  0
 17 18  1  0  0  0  0
 17 36  2  0  0  0  0
 18 19  2  0  0  0  0
 18 49  1  0  0  0  0
 19 20  1  0  0  0  0
 19 50  1  0  0  0  0
 20 21  2  0  0  0  0
 21 22  1  0  0  0  0
 21 36  1  0  0  0  0
 22 23  2  0  0  0  0
 22 35  1  0  0  0  0
 23 24  1  0  0  0  0
 23 51  1  0  0  0  0
 24 25  1  0  0  0  0
 24 34  2  0  0  0  0
 25 26  2  0  0  0  0
 25 27  1  0  0  0  0
 27 28  1  0  0  0  0
 27 33  1  0  0  0  0
 28 29  1  0  0  0  0
 28 52  1  0  0  0  0
 28 53  1  0  0  0  0
 29 30  1  0  0  0  0
 29 54  1  0  0  0  0
 29 55  1  0  0  0  0
 30 31  1  0  0  0  0
 30 32  1  0  0  0  0
 31 56  1  0  0  0  0
 31 57  1  0  0  0  0
 31 58  1  0  0  0  0
 32 33  1  0  0  0  0
 32 59  1  0  0  0  0
 32 60  1  0  0  0  0
 33 61  1  0  0  0  0
 33 62  1  0  0  0  0
 34 35  1  0  0  0  0
 34 63  1  0  0  0  0
 35 64  1  0  0  0  0
 36 65  1  0  0  0  0
 37 38  1  0  0  0  0
 37 66  1  0  0  0  0
 38 67  1  0  0  0  0
 39 68  1  0  0  0  0
M  END
$$$$
