CHEMBL3943860
 OpenBabel04072215373D

 69 72  0  0  1  0  0  0  0  0999 V2000
    1.8785   -1.0797    5.5673 C   0  0  0  0  0  0  0  0  0  0  0  0
    1.8477   -1.3008    4.1960 O   0  0  0  0  0  0  0  0  0  0  0  0
    2.8320   -1.0799    3.2769 C   0  0  0  0  0  0  0  0  0  0  0  0
    2.4710   -1.1280    1.9300 C   0  0  0  0  0  0  0  0  0  0  0  0
    3.3552   -0.7103    0.9337 C   0  0  0  0  0  0  0  0  0  0  0  0
    2.9363   -0.7034   -0.3598 O   0  0  0  0  0  0  0  0  0  0  0  0
    3.6599   -0.1469   -1.3975 C   0  0  0  0  0  0  0  0  0  0  0  0
    4.6103   -0.1972    1.2953 C   0  0  0  0  0  0  0  0  0  0  0  0
    5.0622   -0.1668    2.6203 C   0  0  0  0  0  0  0  0  0  0  0  0
    6.3763    0.4913    2.9398 N   0  0  0  0  0  0  0  0  0  0  0  0
    6.6352    1.6907    2.1726 C   0  0  0  0  0  0  0  0  0  0  0  0
    7.7951    1.4557    1.2023 C   0  0  0  0  0  0  0  0  0  0  0  0
    8.1822    2.6118    0.3740 N   0  0  0  0  0  0  0  0  0  0  0  0
    8.3933    3.8567    1.1454 C   0  0  0  0  0  0  0  0  0  0  0  0
    9.8653    4.1654    1.0622 C   0  0  0  0  0  0  0  0  0  0  0  0
   10.2420    3.6524   -0.3130 C   0  0  0  0  0  0  0  0  0  0  0  0
    9.4358    2.3658   -0.4249 C   0  0  1  0  0  0  0  0  0  0  0  0
   10.3126    1.1779    0.0576 C   0  0  0  0  0  0  0  0  0  0  0  0
    7.4172   -0.1081    3.8197 C   0  0  0  0  0  0  0  0  0  0  0  0
    7.3047   -1.4281    3.6950 C   0  0  0  0  0  0  0  0  0  0  0  0
    8.0121   -2.1890    4.4052 C   0  0  0  0  0  0  0  0  0  0  0  0
    8.8443   -1.7941    5.2733 C   0  0  0  0  0  0  0  0  0  0  0  0
    9.0052   -2.8471    5.9469 N   0  0  0  0  0  0  0  0  0  0  0  0
    9.9712   -3.2790    6.5102 C   0  0  0  0  0  0  0  0  0  0  0  0
   10.9564   -2.6228    6.9445 C   0  0  0  0  0  0  0  0  0  0  0  0
   11.7694   -3.9525    7.7720 C   0  0  0  0  0  0  0  0  0  0  0  0
   11.4118   -5.3670    7.3601 C   0  0  0  0  0  0  0  0  0  0  0  0
   12.0881   -6.2680    8.1716 N   0  0  0  0  0  0  0  0  0  0  0  0
   12.7961   -5.6378    9.0281 N   0  0  0  0  0  0  0  0  0  0  0  0
   13.6670   -6.4285   10.0469 C   0  0  0  0  0  0  0  0  0  0  0  0
   12.5894   -4.2469    8.8945 C   0  0  0  0  0  0  0  0  0  0  0  0
   10.6427   -1.1205    6.5753 N   0  0  0  0  0  0  0  0  0  0  0  0
    9.4935   -0.6808    5.5985 C   0  0  0  0  0  0  0  0  0  0  0  0
    8.6214    0.3976    4.7273 C   0  0  0  0  0  0  0  0  0  0  0  0
    4.1726   -0.7028    3.6239 C   0  0  0  0  0  0  0  0  0  0  0  0
    1.7750    2.2108   -0.0295 Cl  0  0  0  0  0  0  0  0  0  0  0  0
    0.8352   -0.9174    5.9514 H   0  0  0  0  0  0  0  0  0  0  0  0
    2.4272   -0.1703    5.8808 H   0  0  0  0  0  0  0  0  0  0  0  0
    2.4176   -1.9137    6.0382 H   0  0  0  0  0  0  0  0  0  0  0  0
    1.4653   -1.4390    1.6589 H   0  0  0  0  0  0  0  0  0  0  0  0
    3.0548   -0.1600   -2.3224 H   0  0  0  0  0  0  0  0  0  0  0  0
    4.5999   -0.7174   -1.5344 H   0  0  0  0  0  0  0  0  0  0  0  0
    3.9155    0.9153   -1.1704 H   0  0  0  0  0  0  0  0  0  0  0  0
    5.2477    0.1763    0.5193 H   0  0  0  0  0  0  0  0  0  0  0  0
    6.7951    2.4572    2.9209 H   0  0  0  0  0  0  0  0  0  0  0  0
    5.7576    2.0155    1.5588 H   0  0  0  0  0  0  0  0  0  0  0  0
    7.5091    0.6458    0.4900 H   0  0  0  0  0  0  0  0  0  0  0  0
    8.6370    1.1674    1.8469 H   0  0  0  0  0  0  0  0  0  0  0  0
    8.1024    3.8276    2.2107 H   0  0  0  0  0  0  0  0  0  0  0  0
    7.7811    4.6596    0.6807 H   0  0  0  0  0  0  0  0  0  0  0  0
   10.3668    3.5516    1.8402 H   0  0  0  0  0  0  0  0  0  0  0  0
   10.0959    5.2360    1.2428 H   0  0  0  0  0  0  0  0  0  0  0  0
   11.3385    3.5067   -0.4354 H   0  0  0  0  0  0  0  0  0  0  0  0
    9.8671    4.3584   -1.0810 H   0  0  0  0  0  0  0  0  0  0  0  0
    9.1932    2.1180   -1.4855 H   0  0  0  0  0  0  0  0  0  0  0  0
   10.6331    1.3659    1.1002 H   0  0  0  0  0  0  0  0  0  0  0  0
   11.2598    1.0161   -0.4963 H   0  0  0  0  0  0  0  0  0  0  0  0
    9.7323    0.2402   -0.0893 H   0  0  0  0  0  0  0  0  0  0  0  0
    6.5930   -1.9856    3.1294 H   0  0  0  0  0  0  0  0  0  0  0  0
    7.8265   -3.2587    4.2860 H   0  0  0  0  0  0  0  0  0  0  0  0
    9.7984   -4.2512    6.4538 H   0  0  0  0  0  0  0  0  0  0  0  0
   10.7885   -5.9270    6.6253 H   0  0  0  0  0  0  0  0  0  0  0  0
   13.6491   -7.5657    9.9554 H   0  0  0  0  0  0  0  0  0  0  0  0
   13.4453   -6.2425   11.1203 H   0  0  0  0  0  0  0  0  0  0  0  0
   14.7291   -6.1808    9.8824 H   0  0  0  0  0  0  0  0  0  0  0  0
   13.0527   -3.6081    9.5881 H   0  0  0  0  0  0  0  0  0  0  0  0
    8.6465    1.5204    4.6801 H   0  0  0  0  0  0  0  0  0  0  0  0
    4.4373   -0.7598    4.6631 H   0  0  0  0  0  0  0  0  0  0  0  0
    1.6436    1.0699    0.7101 H   0  0  0  0  0  0  0  0  0  0  0  0
  1  2  1  0  0  0  0
  1 37  1  0  0  0  0
  1 38  1  0  0  0  0
  1 39  1  0  0  0  0
  2  3  1  0  0  0  0
  3  4  1  0  0  0  0
  3 35  2  0  0  0  0
  4  5  2  0  0  0  0
  4 40  1  0  0  0  0
  5  6  1  0  0  0  0
  5  8  1  0  0  0  0
  6  7  1  0  0  0  0
  7 41  1  0  0  0  0
  7 42  1  0  0  0  0
  7 43  1  0  0  0  0
  8  9  2  0  0  0  0
  8 44  1  0  0  0  0
  9 10  1  0  0  0  0
  9 35  1  0  0  0  0
 10 11  1  0  0  0  0
 10 19  1  0  0  0  0
 11 12  1  0  0  0  0
 11 45  1  0  0  0  0
 11 46  1  0  0  0  0
 12 13  1  0  0  0  0
 12 47  1  0  0  0  0
 12 48  1  0  0  0  0
 13 14  1  0  0  0  0
 13 17  1  0  0  0  0
 14 15  1  0  0  0  0
 14 49  1  0  0  0  0
 14 50  1  0  0  0  0
 15 16  1  0  0  0  0
 15 51  1  0  0  0  0
 15 52  1  0  0  0  0
 16 17  1  0  0  0  0
 16 53  1  0  0  0  0
 16 54  1  0  0  0  0
 17 18  1  0  0  0  0
 17 55  1  6  0  0  0
 18 56  1  0  0  0  0
 18 57  1  0  0  0  0
 18 58  1  0  0  0  0
 19 20  1  0  0  0  0
 19 34  2  0  0  0  0
 20 21  2  0  0  0  0
 20 59  1  0  0  0  0
 21 22  1  0  0  0  0
 21 60  1  0  0  0  0
 22 23  1  0  0  0  0
 22 33  2  0  0  0  0
 23 24  2  0  0  0  0
 24 25  1  0  0  0  0
 24 61  1  0  0  0  0
 25 26  1  0  0  0  0
 25 32  2  0  0  0  0
 26 27  1  0  0  0  0
 26 31  2  0  0  0  0
 27 28  2  0  0  0  0
 27 62  1  0  0  0  0
 28 29  1  0  0  0  0
 29 30  1  0  0  0  0
 29 31  1  0  0  0  0
 30 63  1  0  0  0  0
 30 64  1  0  0  0  0
 30 65  1  0  0  0  0
 31 66  1  0  0  0  0
 32 33  1  0  0  0  0
 33 34  1  0  0  0  0
 34 67  1  0  0  0  0
 35 68  1  0  0  0  0
 36 69  1  0  0  0  0
M  END
$$$$
