CHEMBL3676357
 OpenBabel04072215373D

 53 55  0  0  0  0  0  0  0  0999 V2000
    3.2994    3.0635    2.5168 C   0  0  0  0  0  0  0  0  0  0  0  0
    3.3879    1.7303    2.5352 C   0  0  0  0  0  0  0  0  0  0  0  0
    3.5986    0.9917    1.2600 C   0  0  0  0  0  0  0  0  0  0  0  0
    3.1908    1.4158    0.1840 O   0  0  0  0  0  0  0  0  0  0  0  0
    4.3378   -0.1717    1.3189 N   0  0  0  0  0  0  0  0  0  0  0  0
    5.1689   -0.4808    2.4110 C   0  0  0  0  0  0  0  0  0  0  0  0
    6.2920    0.3197    2.6100 C   0  0  0  0  0  0  0  0  0  0  0  0
    7.0047    0.2532    3.8285 C   0  0  0  0  0  0  0  0  0  0  0  0
    8.0959    1.0754    4.1457 C   0  0  0  0  0  0  0  0  0  0  0  0
    8.5028    2.0968    3.2419 N   0  0  0  0  0  0  0  0  0  0  0  0
    9.7547    2.7494    3.3425 C   0  0  0  0  0  0  0  0  0  0  0  0
   10.9353    2.0043    3.4486 C   0  0  0  0  0  0  0  0  0  0  0  0
   12.1619    2.6331    3.6706 C   0  0  0  0  0  0  0  0  0  0  0  0
   13.5546    1.6277    3.8392 Cl  0  0  0  0  0  0  0  0  0  0  0  0
   12.2182    4.0275    3.7682 C   0  0  0  0  0  0  0  0  0  0  0  0
   13.6858    4.8650    4.1315 Cl  0  0  0  0  0  0  0  0  0  0  0  0
   11.0602    4.7891    3.5943 C   0  0  0  0  0  0  0  0  0  0  0  0
    9.8453    4.1469    3.3746 C   0  0  0  0  0  0  0  0  0  0  0  0
    8.7325    4.8839    3.2329 F   0  0  0  0  0  0  0  0  0  0  0  0
    8.7534    0.9520    5.3142 N   0  0  0  0  0  0  0  0  0  0  0  0
    8.3018    0.0351    6.1705 C   0  0  0  0  0  0  0  0  0  0  0  0
    7.2543   -0.7744    5.9769 N   0  0  0  0  0  0  0  0  0  0  0  0
    6.6177   -0.6651    4.8097 C   0  0  0  0  0  0  0  0  0  0  0  0
    5.5287   -1.4966    4.5613 C   0  0  0  0  0  0  0  0  0  0  0  0
    4.8089   -1.4439    3.3635 C   0  0  0  0  0  0  0  0  0  0  0  0
    3.7860   -2.3574    3.2685 O   0  0  0  0  0  0  0  0  0  0  0  0
    3.4587   -2.7682    1.9376 C   0  0  0  0  0  0  0  0  0  0  0  0
    2.9404   -4.2148    1.8969 C   0  0  0  0  0  0  0  0  0  0  0  0
    2.7631   -4.6046    0.4899 N   0  0  0  0  0  0  0  0  0  0  0  0
    2.2487   -5.9699    0.3499 C   0  0  0  0  0  0  0  0  0  0  0  0
    2.1549   -6.3167   -1.1343 C   0  0  0  0  0  0  0  0  0  0  0  0
    1.1931   -5.5307   -1.9908 C   0  0  0  0  0  0  0  0  0  0  0  0
    2.8227   -7.2333   -1.6200 O   0  0  0  0  0  0  0  0  0  0  0  0
    3.2073    3.6277    3.4383 H   0  0  0  0  0  0  0  0  0  0  0  0
    3.3294    3.6203    1.5838 H   0  0  0  0  0  0  0  0  0  0  0  0
    3.3716    1.1785    3.4686 H   0  0  0  0  0  0  0  0  0  0  0  0
    4.7102   -0.3588    0.3957 H   0  0  0  0  0  0  0  0  0  0  0  0
    6.5919    1.0280    1.8415 H   0  0  0  0  0  0  0  0  0  0  0  0
    7.7448    2.7737    3.1485 H   0  0  0  0  0  0  0  0  0  0  0  0
   10.8847    0.9173    3.3914 H   0  0  0  0  0  0  0  0  0  0  0  0
   11.0871    5.8725    3.6528 H   0  0  0  0  0  0  0  0  0  0  0  0
    8.8289   -0.0575    7.1140 H   0  0  0  0  0  0  0  0  0  0  0  0
    5.2293   -2.2045    5.3304 H   0  0  0  0  0  0  0  0  0  0  0  0
    4.3454   -2.7282    1.2928 H   0  0  0  0  0  0  0  0  0  0  0  0
    2.6781   -2.1045    1.5471 H   0  0  0  0  0  0  0  0  0  0  0  0
    1.9967   -4.2820    2.4505 H   0  0  0  0  0  0  0  0  0  0  0  0
    3.6585   -4.8753    2.3976 H   0  0  0  0  0  0  0  0  0  0  0  0
    3.6695   -4.5549    0.0188 H   0  0  0  0  0  0  0  0  0  0  0  0
    1.2536   -6.0797    0.7942 H   0  0  0  0  0  0  0  0  0  0  0  0
    2.9284   -6.6873    0.8231 H   0  0  0  0  0  0  0  0  0  0  0  0
    0.8425   -4.6355   -1.4727 H   0  0  0  0  0  0  0  0  0  0  0  0
    0.3333   -6.1585   -2.2370 H   0  0  0  0  0  0  0  0  0  0  0  0
    1.7024   -5.2190   -2.9068 H   0  0  0  0  0  0  0  0  0  0  0  0
  1  2  2  0  0  0  0
  1 34  1  0  0  0  0
  1 35  1  0  0  0  0
  2  3  1  0  0  0  0
  2 36  1  0  0  0  0
  3  4  2  0  0  0  0
  3  5  1  0  0  0  0
  5  6  1  0  0  0  0
  5 37  1  0  0  0  0
  6  7  1  0  0  0  0
  6 25  2  0  0  0  0
  7  8  2  0  0  0  0
  7 38  1  0  0  0  0
  8  9  1  0  0  0  0
  8 23  1  0  0  0  0
  9 10  1  0  0  0  0
  9 20  2  0  0  0  0
 10 11  1  0  0  0  0
 10 39  1  0  0  0  0
 11 12  1  0  0  0  0
 11 18  2  0  0  0  0
 12 13  2  0  0  0  0
 12 40  1  0  0  0  0
 13 14  1  0  0  0  0
 13 15  1  0  0  0  0
 15 16  1  0  0  0  0
 15 17  2  0  0  0  0
 17 18  1  0  0  0  0
 17 41  1  0  0  0  0
 18 19  1  0  0  0  0
 20 21  1  0  0  0  0
 21 22  2  0  0  0  0
 21 42  1  0  0  0  0
 22 23  1  0  0  0  0
 23 24  2  0  0  0  0
 24 25  1  0  0  0  0
 24 43  1  0  0  0  0
 25 26  1  0  0  0  0
 26 27  1  0  0  0  0
 27 28  1  0  0  0  0
 27 44  1  0  0  0  0
 27 45  1  0  0  0  0
 28 29  1  0  0  0  0
 28 46  1  0  0  0  0
 28 47  1  0  0  0  0
 29 30  1  0  0  0  0
 29 48  1  0  0  0  0
 30 31  1  0  0  0  0
 30 49  1  0  0  0  0
 30 50  1  0  0  0  0
 31 32  1  0  0  0  0
 31 33  2  0  0  0  0
 32 51  1  0  0  0  0
 32 52  1  0  0  0  0
 32 53  1  0  0  0  0
M  END
$$$$
