CHEMBL2088111
 OpenBabel04072215363D

 39 41  0  0  0  0  0  0  0  0999 V2000
   -0.3782    2.3030   -3.0610 C   0  0  0  0  0  0  0  0  0  0  0  0
    0.5780    2.8562   -4.1099 C   0  0  0  0  0  0  0  0  0  0  0  0
    1.5203    1.8028   -4.5765 C   0  0  0  0  0  0  0  0  0  0  0  0
    2.7321    1.3735   -4.0813 C   0  0  0  0  0  0  0  0  0  0  0  0
    3.0349    0.1967   -4.8028 C   0  0  0  0  0  0  0  0  0  0  0  0
    4.0618   -0.6084   -4.4529 N   0  0  0  0  0  0  0  0  0  0  0  0
    4.2534   -1.9687   -4.7520 C   0  0  0  0  0  0  0  0  0  0  0  0
    5.5389   -2.3138   -5.0222 N   0  0  0  0  0  0  0  0  0  0  0  0
    5.8084   -3.5966   -5.3123 C   0  0  0  0  0  0  0  0  0  0  0  0
    7.1024   -4.0098   -5.6055 N   0  0  0  0  0  0  0  0  0  0  0  0
    7.8407   -3.0606   -6.4243 C   0  0  0  0  0  0  0  0  0  0  0  0
    9.2108   -3.6114   -6.7949 C   0  0  0  0  0  0  0  0  0  0  0  0
   10.1316   -3.9363   -5.7977 C   0  0  0  0  0  0  0  0  0  0  0  0
   11.3921   -4.4018   -6.1641 C   0  0  0  0  0  0  0  0  0  0  0  0
   11.7034   -4.5320   -7.5117 C   0  0  0  0  0  0  0  0  0  0  0  0
   10.7334   -4.1944   -8.4400 C   0  0  0  0  0  0  0  0  0  0  0  0
    9.5019   -3.7426   -8.1155 N   0  0  0  0  0  0  0  0  0  0  0  0
    4.8942   -4.5694   -5.3189 N   0  0  0  0  0  0  0  0  0  0  0  0
    3.6356   -4.2129   -5.0107 C   0  0  0  0  0  0  0  0  0  0  0  0
    3.2455   -2.9241   -4.7136 C   0  0  0  0  0  0  0  0  0  0  0  0
    1.4685   -2.6713   -4.1097 Br  0  0  0  0  0  0  0  0  0  0  0  0
    2.1635    0.0106   -5.7987 N   0  0  0  0  0  0  0  0  0  0  0  0
    1.2510    0.9782   -5.6302 N   0  0  0  0  0  0  0  0  0  0  0  0
   -1.0237    3.0976   -2.6766 H   0  0  0  0  0  0  0  0  0  0  0  0
    0.1653    1.8671   -2.2144 H   0  0  0  0  0  0  0  0  0  0  0  0
   -1.0174    1.5191   -3.4829 H   0  0  0  0  0  0  0  0  0  0  0  0
    1.1460    3.6886   -3.6795 H   0  0  0  0  0  0  0  0  0  0  0  0
    0.0060    3.2581   -4.9545 H   0  0  0  0  0  0  0  0  0  0  0  0
    3.2592    1.7758   -3.2280 H   0  0  0  0  0  0  0  0  0  0  0  0
    4.9726   -0.1748   -4.3410 H   0  0  0  0  0  0  0  0  0  0  0  0
    7.0030   -4.9200   -6.0422 H   0  0  0  0  0  0  0  0  0  0  0  0
    7.9972   -2.1147   -5.8935 H   0  0  0  0  0  0  0  0  0  0  0  0
    7.2897   -2.8454   -7.3496 H   0  0  0  0  0  0  0  0  0  0  0  0
    9.8681   -3.8298   -4.7494 H   0  0  0  0  0  0  0  0  0  0  0  0
   12.1234   -4.6584   -5.4032 H   0  0  0  0  0  0  0  0  0  0  0  0
   12.6775   -4.8852   -7.8301 H   0  0  0  0  0  0  0  0  0  0  0  0
   10.9287   -4.2810   -9.5058 H   0  0  0  0  0  0  0  0  0  0  0  0
    2.9271   -5.0351   -4.9693 H   0  0  0  0  0  0  0  0  0  0  0  0
    0.4454    0.9877   -6.2463 H   0  0  0  0  0  0  0  0  0  0  0  0
  1  2  1  0  0  0  0
  1 24  1  0  0  0  0
  1 25  1  0  0  0  0
  1 26  1  0  0  0  0
  2  3  1  0  0  0  0
  2 27  1  0  0  0  0
  2 28  1  0  0  0  0
  3  4  2  0  0  0  0
  3 23  1  0  0  0  0
  4  5  1  0  0  0  0
  4 29  1  0  0  0  0
  5  6  1  0  0  0  0
  5 22  2  0  0  0  0
  6  7  1  0  0  0  0
  6 30  1  0  0  0  0
  7  8  1  0  0  0  0
  7 20  2  0  0  0  0
  8  9  2  0  0  0  0
  9 10  1  0  0  0  0
  9 18  1  0  0  0  0
 10 11  1  0  0  0  0
 10 31  1  0  0  0  0
 11 12  1  0  0  0  0
 11 32  1  0  0  0  0
 11 33  1  0  0  0  0
 12 13  1  0  0  0  0
 12 17  2  0  0  0  0
 13 14  2  0  0  0  0
 13 34  1  0  0  0  0
 14 15  1  0  0  0  0
 14 35  1  0  0  0  0
 15 16  2  0  0  0  0
 15 36  1  0  0  0  0
 16 17  1  0  0  0  0
 16 37  1  0  0  0  0
 18 19  2  0  0  0  0
 19 20  1  0  0  0  0
 19 38  1  0  0  0  0
 20 21  1  0  0  0  0
 22 23  1  0  0  0  0
 23 39  1  0  0  0  0
M  END
$$$$
