CHEMBL4226340
 OpenBabel04072215383D

 51 53  0  0  0  0  0  0  0  0999 V2000
    2.6545    3.5617    1.3048 C   0  0  0  0  0  0  0  0  0  0  0  0
    3.7845    2.7037    1.0570 N   0  0  0  0  0  0  0  0  0  0  0  0
    4.2262    2.4739   -0.2330 C   0  0  0  0  0  0  0  0  0  0  0  0
    3.6848    2.9438   -1.2248 O   0  0  0  0  0  0  0  0  0  0  0  0
    5.4452    1.6469   -0.3696 C   0  0  0  0  0  0  0  0  0  0  0  0
    5.7990    0.6448    0.5322 C   0  0  0  0  0  0  0  0  0  0  0  0
    6.9815   -0.0749    0.3287 C   0  0  0  0  0  0  0  0  0  0  0  0
    7.7893    0.2298   -0.7657 C   0  0  0  0  0  0  0  0  0  0  0  0
    9.3074   -0.6273   -1.1427 S   0  0  0  0  0  0  0  0  0  0  0  0
    9.9649   -1.0449    0.4529 C   0  0  0  0  0  0  0  0  0  0  0  0
    9.6898   -2.2968    1.0053 C   0  0  0  0  0  0  0  0  0  0  0  0
   10.1723   -2.6396    2.2714 C   0  0  0  0  0  0  0  0  0  0  0  0
   10.9300   -1.7367    3.0085 C   0  0  0  0  0  0  0  0  0  0  0  0
   11.4592   -2.0078    4.2826 N   0  0  0  0  0  0  0  0  0  0  0  0
   11.2479   -3.0375    5.1759 C   0  0  0  0  0  0  0  0  0  0  0  0
    9.8869   -3.9845    5.3712 S   0  0  0  0  0  0  0  0  0  0  0  0
   12.2685   -3.1998    6.0931 N   0  0  0  0  0  0  0  0  0  0  0  0
   13.6163   -2.8263    5.9443 C   0  0  0  0  0  0  0  0  0  0  0  0
   14.3463   -2.4920    7.0829 C   0  0  0  0  0  0  0  0  0  0  0  0
   15.6691   -2.0362    6.9642 C   0  0  0  0  0  0  0  0  0  0  0  0
   16.4461   -1.5770    8.1750 C   0  0  0  0  0  0  0  0  0  0  0  0
   15.7512   -1.6858    9.3402 F   0  0  0  0  0  0  0  0  0  0  0  0
   17.5940   -2.2846    8.3515 F   0  0  0  0  0  0  0  0  0  0  0  0
   16.8176   -0.2709    8.0807 F   0  0  0  0  0  0  0  0  0  0  0  0
   16.2692   -1.9911    5.6921 C   0  0  0  0  0  0  0  0  0  0  0  0
   15.5684   -2.4003    4.5499 C   0  0  0  0  0  0  0  0  0  0  0  0
   16.2126   -2.4374    3.1851 C   0  0  0  0  0  0  0  0  0  0  0  0
   17.5047   -2.0116    3.1857 F   0  0  0  0  0  0  0  0  0  0  0  0
   16.2292   -3.6917    2.6577 F   0  0  0  0  0  0  0  0  0  0  0  0
   15.5583   -1.6562    2.2832 F   0  0  0  0  0  0  0  0  0  0  0  0
   14.2352   -2.8036    4.6904 C   0  0  0  0  0  0  0  0  0  0  0  0
   11.2696   -0.5063    2.4233 C   0  0  0  0  0  0  0  0  0  0  0  0
   10.7904   -0.1637    1.1504 C   0  0  0  0  0  0  0  0  0  0  0  0
    7.4396    1.1823   -1.6625 N   0  0  0  0  0  0  0  0  0  0  0  0
    6.2796    1.8572   -1.4560 C   0  0  0  0  0  0  0  0  0  0  0  0
    2.5493    3.6987    2.3834 H   0  0  0  0  0  0  0  0  0  0  0  0
    1.7536    3.0930    0.8995 H   0  0  0  0  0  0  0  0  0  0  0  0
    2.8112    4.5291    0.8200 H   0  0  0  0  0  0  0  0  0  0  0  0
    4.3600    2.4405    1.8457 H   0  0  0  0  0  0  0  0  0  0  0  0
    5.1592    0.3897    1.3718 H   0  0  0  0  0  0  0  0  0  0  0  0
    7.2394   -0.8673    1.0225 H   0  0  0  0  0  0  0  0  0  0  0  0
    9.0957   -3.0243    0.4566 H   0  0  0  0  0  0  0  0  0  0  0  0
    9.9565   -3.6365    2.6341 H   0  0  0  0  0  0  0  0  0  0  0  0
   12.0714   -1.2894    4.6517 H   0  0  0  0  0  0  0  0  0  0  0  0
   12.0149   -3.7169    6.9299 H   0  0  0  0  0  0  0  0  0  0  0  0
   13.8712   -2.5230    8.0627 H   0  0  0  0  0  0  0  0  0  0  0  0
   17.2992   -1.6424    5.5974 H   0  0  0  0  0  0  0  0  0  0  0  0
   13.6978   -3.1446    3.8047 H   0  0  0  0  0  0  0  0  0  0  0  0
   11.9203    0.1982    2.9350 H   0  0  0  0  0  0  0  0  0  0  0  0
   11.0788    0.7903    0.7103 H   0  0  0  0  0  0  0  0  0  0  0  0
    6.0439    2.6019   -2.2129 H   0  0  0  0  0  0  0  0  0  0  0  0
  1  2  1  0  0  0  0
  1 36  1  0  0  0  0
  1 37  1  0  0  0  0
  1 38  1  0  0  0  0
  2  3  1  0  0  0  0
  2 39  1  0  0  0  0
  3  4  2  0  0  0  0
  3  5  1  0  0  0  0
  5  6  1  0  0  0  0
  5 35  2  0  0  0  0
  6  7  2  0  0  0  0
  6 40  1  0  0  0  0
  7  8  1  0  0  0  0
  7 41  1  0  0  0  0
  8  9  1  0  0  0  0
  8 34  2  0  0  0  0
  9 10  1  0  0  0  0
 10 11  1  0  0  0  0
 10 33  2  0  0  0  0
 11 12  2  0  0  0  0
 11 42  1  0  0  0  0
 12 13  1  0  0  0  0
 12 43  1  0  0  0  0
 13 14  1  0  0  0  0
 13 32  2  0  0  0  0
 14 15  1  0  0  0  0
 14 44  1  0  0  0  0
 15 16  2  0  0  0  0
 15 17  1  0  0  0  0
 17 18  1  0  0  0  0
 17 45  1  0  0  0  0
 18 19  1  0  0  0  0
 18 31  2  0  0  0  0
 19 20  2  0  0  0  0
 19 46  1  0  0  0  0
 20 21  1  0  0  0  0
 20 25  1  0  0  0  0
 21 22  1  0  0  0  0
 21 23  1  0  0  0  0
 21 24  1  0  0  0  0
 25 26  2  0  0  0  0
 25 47  1  0  0  0  0
 26 27  1  0  0  0  0
 26 31  1  0  0  0  0
 27 28  1  0  0  0  0
 27 29  1  0  0  0  0
 27 30  1  0  0  0  0
 31 48  1  0  0  0  0
 32 33  1  0  0  0  0
 32 49  1  0  0  0  0
 33 50  1  0  0  0  0
 34 35  1  0  0  0  0
 35 51  1  0  0  0  0
M  END
$$$$
