CHEMBL270545
 OpenBabel04072215363D

 56 59  0  0  0  0  0  0  0  0999 V2000
   11.1267    0.5866   -4.9561 C   0  0  0  0  0  0  0  0  0  0  0  0
    9.8573    0.0298   -4.6025 O   0  0  0  0  0  0  0  0  0  0  0  0
    8.8341    0.9415   -4.5115 C   0  0  0  0  0  0  0  0  0  0  0  0
    9.0703    2.2652   -4.1287 C   0  0  0  0  0  0  0  0  0  0  0  0
    8.0906    3.2376   -4.1688 C   0  0  0  0  0  0  0  0  0  0  0  0
    8.4787    4.4842   -3.8694 N   0  0  0  0  0  0  0  0  0  0  0  0
    7.5783    5.4728   -3.9930 C   0  0  0  0  0  0  0  0  0  0  0  0
    6.2745    5.2716   -4.3686 C   0  0  0  0  0  0  0  0  0  0  0  0
    5.8385    3.9573   -4.5760 C   0  0  0  0  0  0  0  0  0  0  0  0
    4.5054    3.6903   -4.8532 O   0  0  0  0  0  0  0  0  0  0  0  0
    3.5359    4.4576   -4.2301 C   0  0  0  0  0  0  0  0  0  0  0  0
    2.3947    4.7776   -4.9617 C   0  0  0  0  0  0  0  0  0  0  0  0
    1.3670    5.5527   -4.3881 C   0  0  0  0  0  0  0  0  0  0  0  0
    1.4498    6.0201   -3.0677 C   0  0  0  0  0  0  0  0  0  0  0  0
    2.6153    5.6827   -2.3457 C   0  0  0  0  0  0  0  0  0  0  0  0
    3.6290    4.8956   -2.9090 C   0  0  0  0  0  0  0  0  0  0  0  0
    2.8707    6.0781   -1.0525 O   0  0  0  0  0  0  0  0  0  0  0  0
    1.6871    6.4579   -0.3569 C   0  0  0  0  0  0  0  0  0  0  0  0
    0.8716    7.4404   -1.1747 C   0  0  0  0  0  0  0  0  0  0  0  0
    0.4177    6.8116   -2.4255 N   0  0  0  0  0  0  0  0  0  0  0  0
   -0.8980    6.8761   -2.9012 C   0  0  0  0  0  0  0  0  0  0  0  0
   -1.3133    6.2963   -3.9020 O   0  0  0  0  0  0  0  0  0  0  0  0
   -1.7828    7.5891   -2.1099 N   0  0  0  0  0  0  0  0  0  0  0  0
   -3.2003    7.6777   -2.4631 C   0  0  0  0  0  0  0  0  0  0  0  0
   -4.0603    7.7925   -1.2069 C   0  0  0  0  0  0  0  0  0  0  0  0
   -3.4454    8.8656   -3.3903 C   0  0  0  0  0  0  0  0  0  0  0  0
    6.7761    2.8927   -4.5451 C   0  0  0  0  0  0  0  0  0  0  0  0
    6.5109    1.5320   -4.8569 C   0  0  0  0  0  0  0  0  0  0  0  0
    7.5282    0.5546   -4.8194 C   0  0  0  0  0  0  0  0  0  0  0  0
    7.1158   -0.7026   -5.1787 O   0  0  0  0  0  0  0  0  0  0  0  0
    7.7709   -1.7895   -4.5264 C   0  0  0  0  0  0  0  0  0  0  0  0
   11.7611   -0.2196   -5.3353 H   0  0  0  0  0  0  0  0  0  0  0  0
   11.6192    1.0119   -4.0749 H   0  0  0  0  0  0  0  0  0  0  0  0
   11.0378    1.3377   -5.7505 H   0  0  0  0  0  0  0  0  0  0  0  0
   10.0614    2.5860   -3.8101 H   0  0  0  0  0  0  0  0  0  0  0  0
    7.9489    6.4695   -3.7637 H   0  0  0  0  0  0  0  0  0  0  0  0
    5.6089    6.1213   -4.4590 H   0  0  0  0  0  0  0  0  0  0  0  0
    2.2932    4.4382   -5.9900 H   0  0  0  0  0  0  0  0  0  0  0  0
    0.5208    5.7933   -5.0249 H   0  0  0  0  0  0  0  0  0  0  0  0
    4.4888    4.6379   -2.2965 H   0  0  0  0  0  0  0  0  0  0  0  0
    1.9961    6.9267    0.5830 H   0  0  0  0  0  0  0  0  0  0  0  0
    1.1094    5.5596   -0.1070 H   0  0  0  0  0  0  0  0  0  0  0  0
    1.4799    8.3080   -1.4630 H   0  0  0  0  0  0  0  0  0  0  0  0
    0.0469    7.7986   -0.5575 H   0  0  0  0  0  0  0  0  0  0  0  0
   -1.4159    8.3903   -1.6243 H   0  0  0  0  0  0  0  0  0  0  0  0
   -3.4900    6.7596   -2.9878 H   0  0  0  0  0  0  0  0  0  0  0  0
   -3.8061    8.6837   -0.6242 H   0  0  0  0  0  0  0  0  0  0  0  0
   -3.9192    6.9202   -0.5594 H   0  0  0  0  0  0  0  0  0  0  0  0
   -5.1239    7.8472   -1.4671 H   0  0  0  0  0  0  0  0  0  0  0  0
   -3.1749    9.8086   -2.9020 H   0  0  0  0  0  0  0  0  0  0  0  0
   -4.5000    8.9233   -3.6804 H   0  0  0  0  0  0  0  0  0  0  0  0
   -2.8464    8.7825   -4.3030 H   0  0  0  0  0  0  0  0  0  0  0  0
    5.5100    1.2302   -5.1577 H   0  0  0  0  0  0  0  0  0  0  0  0
    7.0724   -2.6331   -4.5090 H   0  0  0  0  0  0  0  0  0  0  0  0
    8.0331   -1.5645   -3.4866 H   0  0  0  0  0  0  0  0  0  0  0  0
    8.6495   -2.1091   -5.0958 H   0  0  0  0  0  0  0  0  0  0  0  0
  1  2  1  0  0  0  0
  1 32  1  0  0  0  0
  1 33  1  0  0  0  0
  1 34  1  0  0  0  0
  2  3  1  0  0  0  0
  3  4  1  0  0  0  0
  3 29  2  0  0  0  0
  4  5  2  0  0  0  0
  4 35  1  0  0  0  0
  5  6  1  0  0  0  0
  5 27  1  0  0  0  0
  6  7  2  0  0  0  0
  7  8  1  0  0  0  0
  7 36  1  0  0  0  0
  8  9  2  0  0  0  0
  8 37  1  0  0  0  0
  9 10  1  0  0  0  0
  9 27  1  0  0  0  0
 10 11  1  0  0  0  0
 11 12  1  0  0  0  0
 11 16  2  0  0  0  0
 12 13  2  0  0  0  0
 12 38  1  0  0  0  0
 13 14  1  0  0  0  0
 13 39  1  0  0  0  0
 14 15  2  0  0  0  0
 14 20  1  0  0  0  0
 15 16  1  0  0  0  0
 15 17  1  0  0  0  0
 16 40  1  0  0  0  0
 17 18  1  0  0  0  0
 18 19  1  0  0  0  0
 18 41  1  0  0  0  0
 18 42  1  0  0  0  0
 19 20  1  0  0  0  0
 19 43  1  0  0  0  0
 19 44  1  0  0  0  0
 20 21  1  0  0  0  0
 21 22  2  0  0  0  0
 21 23  1  0  0  0  0
 23 24  1  0  0  0  0
 23 45  1  0  0  0  0
 24 25  1  0  0  0  0
 24 26  1  0  0  0  0
 24 46  1  0  0  0  0
 25 47  1  0  0  0  0
 25 48  1  0  0  0  0
 25 49  1  0  0  0  0
 26 50  1  0  0  0  0
 26 51  1  0  0  0  0
 26 52  1  0  0  0  0
 27 28  2  0  0  0  0
 28 29  1  0  0  0  0
 28 53  1  0  0  0  0
 29 30  1  0  0  0  0
 30 31  1  0  0  0  0
 31 54  1  0  0  0  0
 31 55  1  0  0  0  0
 31 56  1  0  0  0  0
M  END
$$$$
