CHEMBL3934772
 OpenBabel04072215373D

 63 67  0  0  0  0  0  0  0  0999 V2000
    0.8238   -0.3160    0.1313 C   0  0  0  0  0  0  0  0  0  0  0  0
    1.9091   -0.9826    0.7954 O   0  0  0  0  0  0  0  0  0  0  0  0
    2.8418   -1.5904   -0.0181 C   0  0  0  0  0  0  0  0  0  0  0  0
    2.6338   -1.7836   -1.3819 C   0  0  0  0  0  0  0  0  0  0  0  0
    3.6257   -2.3574   -2.1588 C   0  0  0  0  0  0  0  0  0  0  0  0
    3.5153   -2.6225   -3.4992 O   0  0  0  0  0  0  0  0  0  0  0  0
    2.3563   -2.1062   -4.1504 C   0  0  0  0  0  0  0  0  0  0  0  0
    4.8551   -2.6833   -1.5705 C   0  0  0  0  0  0  0  0  0  0  0  0
    5.1446   -2.4960   -0.1913 C   0  0  0  0  0  0  0  0  0  0  0  0
    6.4991   -2.8332    0.3071 N   0  0  0  0  0  0  0  0  0  0  0  0
    6.9127   -2.0659    1.4936 C   0  0  0  0  0  0  0  0  0  0  0  0
    7.1302   -2.8948    2.6947 C   0  0  0  0  0  0  0  0  0  0  0  0
    7.3092   -3.5469    3.6920 C   0  0  0  0  0  0  0  0  0  0  0  0
    7.5402   -4.2817    4.9064 C   0  0  0  0  0  0  0  0  0  0  0  0
    8.6544   -5.0473    4.8894 N   0  0  0  0  0  0  0  0  0  0  0  0
    8.9950   -5.6565    6.0469 C   0  0  0  0  0  0  0  0  0  0  0  0
    8.3332   -5.4597    7.2462 C   0  0  0  0  0  0  0  0  0  0  0  0
    7.1543   -4.7249    7.2243 C   0  0  0  0  0  0  0  0  0  0  0  0
    6.7097   -4.1615    6.0220 C   0  0  0  0  0  0  0  0  0  0  0  0
    5.3634   -3.5136    5.9400 C   0  0  0  0  0  0  0  0  0  0  0  0
    7.2736   -3.9310   -0.2057 C   0  0  0  0  0  0  0  0  0  0  0  0
    6.4378   -4.9170   -0.6847 C   0  0  0  0  0  0  0  0  0  0  0  0
    6.9323   -6.0246   -1.2427 C   0  0  0  0  0  0  0  0  0  0  0  0
    8.2145   -6.3409   -0.9329 C   0  0  0  0  0  0  0  0  0  0  0  0
    8.2274   -7.5370   -0.5139 N   0  0  0  0  0  0  0  0  0  0  0  0
    8.6891   -8.3229   -1.4435 C   0  0  0  0  0  0  0  0  0  0  0  0
    9.8417   -8.1233   -2.1216 C   0  0  0  0  0  0  0  0  0  0  0  0
    9.9955   -9.4667   -2.9839 C   0  0  0  0  0  0  0  0  0  0  0  0
    8.8843  -10.4529   -2.9845 C   0  0  0  0  0  0  0  0  0  0  0  0
    9.0453  -11.5748   -3.6485 N   0  0  0  0  0  0  0  0  0  0  0  0
   10.2711  -11.4604   -4.1284 N   0  0  0  0  0  0  0  0  0  0  0  0
   10.6575  -12.5741   -4.9786 C   0  0  0  0  0  0  0  0  0  0  0  0
   10.9096  -10.2563   -3.7183 C   0  0  0  0  0  0  0  0  0  0  0  0
   10.3134   -6.7807   -1.8609 N   0  0  0  0  0  0  0  0  0  0  0  0
    9.3270   -5.6307   -1.1378 C   0  0  0  0  0  0  0  0  0  0  0  0
    8.7266   -4.2547   -0.4177 C   0  0  0  0  0  0  0  0  0  0  0  0
    4.0615   -2.0078    0.5836 C   0  0  0  0  0  0  0  0  0  0  0  0
    0.2608    0.2633    0.8695 H   0  0  0  0  0  0  0  0  0  0  0  0
    0.1319   -1.0418   -0.3130 H   0  0  0  0  0  0  0  0  0  0  0  0
    1.1793    0.3915   -0.6299 H   0  0  0  0  0  0  0  0  0  0  0  0
    1.6989   -1.4905   -1.8398 H   0  0  0  0  0  0  0  0  0  0  0  0
    2.4419   -2.3115   -5.2209 H   0  0  0  0  0  0  0  0  0  0  0  0
    2.2875   -1.0192   -4.0262 H   0  0  0  0  0  0  0  0  0  0  0  0
    1.4472   -2.6000   -3.7885 H   0  0  0  0  0  0  0  0  0  0  0  0
    5.6047   -3.1174   -2.2275 H   0  0  0  0  0  0  0  0  0  0  0  0
    6.1643   -1.3032    1.7645 H   0  0  0  0  0  0  0  0  0  0  0  0
    7.7958   -1.4741    1.2410 H   0  0  0  0  0  0  0  0  0  0  0  0
    9.8396   -6.3369    5.9844 H   0  0  0  0  0  0  0  0  0  0  0  0
    8.7062   -5.8951    8.1669 H   0  0  0  0  0  0  0  0  0  0  0  0
    6.5759   -4.6156    8.1385 H   0  0  0  0  0  0  0  0  0  0  0  0
    4.8337   -3.5730    6.8966 H   0  0  0  0  0  0  0  0  0  0  0  0
    4.7514   -4.0457    5.2021 H   0  0  0  0  0  0  0  0  0  0  0  0
    5.4467   -2.4614    5.6581 H   0  0  0  0  0  0  0  0  0  0  0  0
    5.3527   -4.9013   -0.5668 H   0  0  0  0  0  0  0  0  0  0  0  0
    6.2538   -6.8153   -1.5409 H   0  0  0  0  0  0  0  0  0  0  0  0
    7.8419   -8.7743   -1.9244 H   0  0  0  0  0  0  0  0  0  0  0  0
    7.9185  -10.4249   -2.5016 H   0  0  0  0  0  0  0  0  0  0  0  0
    9.8362  -13.3185   -5.0062 H   0  0  0  0  0  0  0  0  0  0  0  0
   11.5354  -13.0791   -4.5792 H   0  0  0  0  0  0  0  0  0  0  0  0
   10.7920  -12.2161   -5.9986 H   0  0  0  0  0  0  0  0  0  0  0  0
   11.9483  -10.1596   -3.9954 H   0  0  0  0  0  0  0  0  0  0  0  0
    9.4634   -3.5191   -0.0516 H   0  0  0  0  0  0  0  0  0  0  0  0
    4.1121   -1.9502    1.6683 H   0  0  0  0  0  0  0  0  0  0  0  0
  1  2  1  0  0  0  0
  1 38  1  0  0  0  0
  1 39  1  0  0  0  0
  1 40  1  0  0  0  0
  2  3  1  0  0  0  0
  3  4  1  0  0  0  0
  3 37  2  0  0  0  0
  4  5  2  0  0  0  0
  4 41  1  0  0  0  0
  5  6  1  0  0  0  0
  5  8  1  0  0  0  0
  6  7  1  0  0  0  0
  7 42  1  0  0  0  0
  7 43  1  0  0  0  0
  7 44  1  0  0  0  0
  8  9  2  0  0  0  0
  8 45  1  0  0  0  0
  9 10  1  0  0  0  0
  9 37  1  0  0  0  0
 10 11  1  0  0  0  0
 10 21  1  0  0  0  0
 11 12  1  0  0  0  0
 11 46  1  0  0  0  0
 11 47  1  0  0  0  0
 12 13  3  0  0  0  0
 13 14  1  0  0  0  0
 14 15  1  0  0  0  0
 14 19  2  0  0  0  0
 15 16  2  0  0  0  0
 16 17  1  0  0  0  0
 16 48  1  0  0  0  0
 17 18  2  0  0  0  0
 17 49  1  0  0  0  0
 18 19  1  0  0  0  0
 18 50  1  0  0  0  0
 19 20  1  0  0  0  0
 20 51  1  0  0  0  0
 20 52  1  0  0  0  0
 20 53  1  0  0  0  0
 21 22  1  0  0  0  0
 21 36  2  0  0  0  0
 22 23  2  0  0  0  0
 22 54  1  0  0  0  0
 23 24  1  0  0  0  0
 23 55  1  0  0  0  0
 24 25  1  0  0  0  0
 24 35  2  0  0  0  0
 25 26  2  0  0  0  0
 26 27  1  0  0  0  0
 26 56  1  0  0  0  0
 27 28  1  0  0  0  0
 27 34  2  0  0  0  0
 28 29  1  0  0  0  0
 28 33  2  0  0  0  0
 29 30  2  0  0  0  0
 29 57  1  0  0  0  0
 30 31  1  0  0  0  0
 31 32  1  0  0  0  0
 31 33  1  0  0  0  0
 32 58  1  0  0  0  0
 32 59  1  0  0  0  0
 32 60  1  0  0  0  0
 33 61  1  0  0  0  0
 34 35  1  0  0  0  0
 35 36  1  0  0  0  0
 36 62  1  0  0  0  0
 37 63  1  0  0  0  0
M  END
$$$$
