CHEMBL598201
 OpenBabel04072215383D

 41 44  0  0  0  0  0  0  0  0999 V2000
   -0.0481   -2.1375   -1.0479 C   0  0  0  0  0  0  0  0  0  0  0  0
    1.0549   -3.1598   -1.0905 C   0  0  0  0  0  0  0  0  0  0  0  0
    0.7778   -4.4330   -1.6216 C   0  0  0  0  0  0  0  0  0  0  0  0
    1.7728   -5.4029   -1.6708 C   0  0  0  0  0  0  0  0  0  0  0  0
    1.5377   -6.6409   -2.1936 O   0  0  0  0  0  0  0  0  0  0  0  0
    3.0419   -5.1397   -1.1837 C   0  0  0  0  0  0  0  0  0  0  0  0
    3.3238   -3.8834   -0.6467 C   0  0  0  0  0  0  0  0  0  0  0  0
    2.3514   -2.8693   -0.6136 C   0  0  0  0  0  0  0  0  0  0  0  0
    2.6269   -1.6182   -0.0189 N   0  0  0  0  0  0  0  0  0  0  0  0
    3.8742   -0.9835    0.0422 C   0  0  0  0  0  0  0  0  0  0  0  0
    4.1120   -0.2555    1.1414 N   0  0  0  0  0  0  0  0  0  0  0  0
    5.2920    0.3885    1.1974 C   0  0  0  0  0  0  0  0  0  0  0  0
    6.2382    0.3399    0.1996 C   0  0  0  0  0  0  0  0  0  0  0  0
    5.9350   -0.4580   -0.8819 C   0  0  0  0  0  0  0  0  0  0  0  0
    4.7472   -1.1016   -0.9723 N   0  0  0  0  0  0  0  0  0  0  0  0
    6.8744   -0.6571   -2.0074 C   0  0  0  0  0  0  0  0  0  0  0  0
    6.3685   -0.7058   -3.3233 C   0  0  0  0  0  0  0  0  0  0  0  0
    7.2005   -0.9221   -4.4251 C   0  0  0  0  0  0  0  0  0  0  0  0
    8.5558   -1.1545   -4.2340 C   0  0  0  0  0  0  0  0  0  0  0  0
    9.0817   -1.1458   -2.9454 C   0  0  0  0  0  0  0  0  0  0  0  0
    8.2685   -0.8430   -1.8409 C   0  0  0  0  0  0  0  0  0  0  0  0
    8.9540   -0.7300   -0.6145 N   0  0  0  0  0  0  0  0  0  0  0  0
    8.6913    0.1390    0.4099 C   0  0  0  0  0  0  0  0  0  0  0  0
    9.4529    0.1958    1.3746 O   0  0  0  0  0  0  0  0  0  0  0  0
    7.5246    1.0835    0.2692 C   0  0  0  0  0  0  0  0  0  0  0  0
   -0.8816   -2.4290   -1.6971 H   0  0  0  0  0  0  0  0  0  0  0  0
    0.3052   -1.1650   -1.4049 H   0  0  0  0  0  0  0  0  0  0  0  0
   -0.4317   -2.0370   -0.0281 H   0  0  0  0  0  0  0  0  0  0  0  0
   -0.2171   -4.6517   -1.9991 H   0  0  0  0  0  0  0  0  0  0  0  0
    0.6247   -6.6682   -2.5221 H   0  0  0  0  0  0  0  0  0  0  0  0
    3.8118   -5.9047   -1.2158 H   0  0  0  0  0  0  0  0  0  0  0  0
    4.3214   -3.7048   -0.2524 H   0  0  0  0  0  0  0  0  0  0  0  0
    2.2196   -1.5350    0.9059 H   0  0  0  0  0  0  0  0  0  0  0  0
    5.4572    0.9621    2.1058 H   0  0  0  0  0  0  0  0  0  0  0  0
    5.3010   -0.5664   -3.4936 H   0  0  0  0  0  0  0  0  0  0  0  0
    6.7833   -0.9169   -5.4288 H   0  0  0  0  0  0  0  0  0  0  0  0
    9.2073   -1.3276   -5.0866 H   0  0  0  0  0  0  0  0  0  0  0  0
   10.1490   -1.3132   -2.8194 H   0  0  0  0  0  0  0  0  0  0  0  0
    9.8670   -1.1630   -0.5314 H   0  0  0  0  0  0  0  0  0  0  0  0
    7.6630    1.7015   -0.6277 H   0  0  0  0  0  0  0  0  0  0  0  0
    7.5301    1.7801    1.1148 H   0  0  0  0  0  0  0  0  0  0  0  0
  1  2  1  0  0  0  0
  1 26  1  0  0  0  0
  1 27  1  0  0  0  0
  1 28  1  0  0  0  0
  2  3  1  0  0  0  0
  2  8  2  0  0  0  0
  3  4  2  0  0  0  0
  3 29  1  0  0  0  0
  4  5  1  0  0  0  0
  4  6  1  0  0  0  0
  5 30  1  0  0  0  0
  6  7  2  0  0  0  0
  6 31  1  0  0  0  0
  7  8  1  0  0  0  0
  7 32  1  0  0  0  0
  8  9  1  0  0  0  0
  9 10  1  0  0  0  0
  9 33  1  0  0  0  0
 10 11  1  0  0  0  0
 10 15  2  0  0  0  0
 11 12  2  0  0  0  0
 12 13  1  0  0  0  0
 12 34  1  0  0  0  0
 13 14  2  0  0  0  0
 13 25  1  0  0  0  0
 14 15  1  0  0  0  0
 14 16  1  0  0  0  0
 16 17  1  0  0  0  0
 16 21  2  0  0  0  0
 17 18  2  0  0  0  0
 17 35  1  0  0  0  0
 18 19  1  0  0  0  0
 18 36  1  0  0  0  0
 19 20  2  0  0  0  0
 19 37  1  0  0  0  0
 20 21  1  0  0  0  0
 20 38  1  0  0  0  0
 21 22  1  0  0  0  0
 22 23  1  0  0  0  0
 22 39  1  0  0  0  0
 23 24  2  0  0  0  0
 23 25  1  0  0  0  0
 25 40  1  0  0  0  0
 25 41  1  0  0  0  0
M  END
$$$$
