CHEMBL3586058
 OpenBabel04072215363D

 56 58  0  0  0  0  0  0  0  0999 V2000
    1.1789    0.3981   -0.4460 C   0  0  0  0  0  0  0  0  0  0  0  0
    2.7165    0.4089   -0.3368 C   0  0  0  0  0  0  0  0  0  0  0  0
    3.1995   -1.0257   -0.0828 C   0  0  0  0  0  0  0  0  0  0  0  0
    3.2905    0.9263   -1.6649 C   0  0  0  0  0  0  0  0  0  0  0  0
    3.1241    1.3003    0.8645 C   0  0  0  0  0  0  0  0  0  0  0  0
    2.2779    1.8557    1.5587 O   0  0  0  0  0  0  0  0  0  0  0  0
    4.4832    1.4033    1.0882 N   0  0  0  0  0  0  0  0  0  0  0  0
    4.9647    2.2343    2.1059 C   0  0  0  0  0  0  0  0  0  0  0  0
    4.6265    1.9744    3.4282 C   0  0  0  0  0  0  0  0  0  0  0  0
    5.1626    2.7861    4.4245 C   0  0  0  0  0  0  0  0  0  0  0  0
    6.0192    3.8526    4.1049 C   0  0  0  0  0  0  0  0  0  0  0  0
    6.6923    4.6375    5.1634 C   0  0  0  0  0  0  0  0  0  0  0  0
    7.0552    3.9901    6.3465 C   0  0  0  0  0  0  0  0  0  0  0  0
    7.7422    4.6387    7.3631 C   0  0  0  0  0  0  0  0  0  0  0  0
    8.1101    5.9800    7.2601 C   0  0  0  0  0  0  0  0  0  0  0  0
    8.8272    6.6470    8.2982 N   0  0  0  0  0  0  0  0  0  0  0  0
    9.2578    6.0557    9.4725 C   0  0  0  0  0  0  0  0  0  0  0  0
    9.0790    4.8793    9.7930 O   0  0  0  0  0  0  0  0  0  0  0  0
    9.9161    6.9362   10.3334 N   0  0  0  0  0  0  0  0  0  0  0  0
   10.3755    6.4476   11.5879 C   0  0  0  0  0  0  0  0  0  0  0  0
    9.9414    7.0475   12.7689 C   0  0  0  0  0  0  0  0  0  0  0  0
   10.3616    6.5297   13.9962 C   0  0  0  0  0  0  0  0  0  0  0  0
    9.7277    7.2915   15.6097 Br  0  0  0  0  0  0  0  0  0  0  0  0
   11.2208    5.4328   14.0599 C   0  0  0  0  0  0  0  0  0  0  0  0
   11.6537    4.8132   12.8835 C   0  0  0  0  0  0  0  0  0  0  0  0
   12.5299    3.5892   12.9322 C   0  0  0  0  0  0  0  0  0  0  0  0
   12.8204    3.1902   14.2012 F   0  0  0  0  0  0  0  0  0  0  0  0
   11.9651    2.5103   12.3239 F   0  0  0  0  0  0  0  0  0  0  0  0
   13.7291    3.7803   12.3181 F   0  0  0  0  0  0  0  0  0  0  0  0
   11.2303    5.3427   11.6458 C   0  0  0  0  0  0  0  0  0  0  0  0
    7.7499    6.6564    6.0874 C   0  0  0  0  0  0  0  0  0  0  0  0
    7.0484    5.9941    5.0498 C   0  0  0  0  0  0  0  0  0  0  0  0
    6.2821    4.0213    2.7467 C   0  0  0  0  0  0  0  0  0  0  0  0
    5.8147    3.2179    1.7507 N   0  0  0  0  0  0  0  0  0  0  0  0
    0.8352   -0.2517   -1.2588 H   0  0  0  0  0  0  0  0  0  0  0  0
    0.7887    1.4052   -0.6358 H   0  0  0  0  0  0  0  0  0  0  0  0
    0.7194    0.0399    0.4827 H   0  0  0  0  0  0  0  0  0  0  0  0
    2.8500   -1.7081   -0.8658 H   0  0  0  0  0  0  0  0  0  0  0  0
    2.8260   -1.3973    0.8787 H   0  0  0  0  0  0  0  0  0  0  0  0
    4.2932   -1.0860   -0.0538 H   0  0  0  0  0  0  0  0  0  0  0  0
    2.9347    0.3205   -2.5083 H   0  0  0  0  0  0  0  0  0  0  0  0
    4.3849    0.8935   -1.6845 H   0  0  0  0  0  0  0  0  0  0  0  0
    2.9889    1.9640   -1.8500 H   0  0  0  0  0  0  0  0  0  0  0  0
    5.0911    1.3714    0.2867 H   0  0  0  0  0  0  0  0  0  0  0  0
    4.0084    1.1248    3.6916 H   0  0  0  0  0  0  0  0  0  0  0  0
    4.9169    2.5499    5.4562 H   0  0  0  0  0  0  0  0  0  0  0  0
    6.8356    2.9367    6.5028 H   0  0  0  0  0  0  0  0  0  0  0  0
    7.9847    4.0256    8.2243 H   0  0  0  0  0  0  0  0  0  0  0  0
    9.0786    7.6082    8.1265 H   0  0  0  0  0  0  0  0  0  0  0  0
    9.5578    7.8835   10.3117 H   0  0  0  0  0  0  0  0  0  0  0  0
    9.2275    7.8661   12.7491 H   0  0  0  0  0  0  0  0  0  0  0  0
   11.5433    5.0427   15.0253 H   0  0  0  0  0  0  0  0  0  0  0  0
   11.5634    4.8661   10.7244 H   0  0  0  0  0  0  0  0  0  0  0  0
    8.0172    7.7019    5.9412 H   0  0  0  0  0  0  0  0  0  0  0  0
    6.7858    6.5580    4.1600 H   0  0  0  0  0  0  0  0  0  0  0  0
    6.9350    4.8167    2.4004 H   0  0  0  0  0  0  0  0  0  0  0  0
  1  2  1  0  0  0  0
  1 35  1  0  0  0  0
  1 36  1  0  0  0  0
  1 37  1  0  0  0  0
  2  3  1  0  0  0  0
  2  4  1  0  0  0  0
  2  5  1  0  0  0  0
  3 38  1  0  0  0  0
  3 39  1  0  0  0  0
  3 40  1  0  0  0  0
  4 41  1  0  0  0  0
  4 42  1  0  0  0  0
  4 43  1  0  0  0  0
  5  6  2  0  0  0  0
  5  7  1  0  0  0  0
  7  8  1  0  0  0  0
  7 44  1  0  0  0  0
  8  9  1  0  0  0  0
  8 34  2  0  0  0  0
  9 10  2  0  0  0  0
  9 45  1  0  0  0  0
 10 11  1  0  0  0  0
 10 46  1  0  0  0  0
 11 12  1  0  0  0  0
 11 33  2  0  0  0  0
 12 13  1  0  0  0  0
 12 32  2  0  0  0  0
 13 14  2  0  0  0  0
 13 47  1  0  0  0  0
 14 15  1  0  0  0  0
 14 48  1  0  0  0  0
 15 16  1  0  0  0  0
 15 31  2  0  0  0  0
 16 17  1  0  0  0  0
 16 49  1  0  0  0  0
 17 18  2  0  0  0  0
 17 19  1  0  0  0  0
 19 20  1  0  0  0  0
 19 50  1  0  0  0  0
 20 21  1  0  0  0  0
 20 30  2  0  0  0  0
 21 22  2  0  0  0  0
 21 51  1  0  0  0  0
 22 23  1  0  0  0  0
 22 24  1  0  0  0  0
 24 25  2  0  0  0  0
 24 52  1  0  0  0  0
 25 26  1  0  0  0  0
 25 30  1  0  0  0  0
 26 27  1  0  0  0  0
 26 28  1  0  0  0  0
 26 29  1  0  0  0  0
 30 53  1  0  0  0  0
 31 32  1  0  0  0  0
 31 54  1  0  0  0  0
 32 55  1  0  0  0  0
 33 34  1  0  0  0  0
 33 56  1  0  0  0  0
M  END
$$$$
