CHEMBL3648108
 OpenBabel04072215373D

 51 52  0  0  1  0  0  0  0  0999 V2000
    2.0901    2.0623   -1.3398 C   0  0  0  0  0  0  0  0  0  0  0  0
    2.3418    0.9125   -0.3531 C   0  0  2  0  0  0  0  0  0  0  0  0
    1.0885    0.1993   -0.0993 N   0  0  0  0  0  0  0  0  0  0  0  0
    0.3452   -0.3682   -1.1284 C   0  0  0  0  0  0  0  0  0  0  0  0
    0.9662   -0.7314   -2.2726 N   0  0  0  0  0  0  0  0  0  0  0  0
    0.2052   -1.1532   -3.2969 C   0  0  0  0  0  0  0  0  0  0  0  0
    0.8593   -1.5505   -4.4667 N   0  0  0  0  0  0  0  0  0  0  0  0
    0.3107   -1.8773   -5.7133 C   0  0  0  0  0  0  0  0  0  0  0  0
   -0.9027   -1.3232   -6.1495 C   0  0  0  0  0  0  0  0  0  0  0  0
   -1.5391   -1.7666   -7.3074 C   0  0  0  0  0  0  0  0  0  0  0  0
   -0.9554   -2.7847   -8.0569 C   0  0  0  0  0  0  0  0  0  0  0  0
   -1.8021   -3.4128   -9.4965 S   0  0  3  0  0  0  0  0  0  0  0  0
   -2.6435   -2.2518  -10.0592 N   0  0  0  0  0  0  0  0  0  0  0  0
   -0.8113   -4.1312  -10.2784 O   0  0  0  0  0  0  0  0  0  0  0  0
   -2.9063   -4.6204   -8.8009 C   0  0  0  0  0  0  0  0  0  0  0  0
   -3.7158   -5.2988   -9.8871 C   0  0  0  0  0  0  0  0  0  0  0  0
   -4.5670   -6.2889   -9.3118 O   0  0  0  0  0  0  0  0  0  0  0  0
    0.2783   -3.3210   -7.6778 C   0  0  0  0  0  0  0  0  0  0  0  0
    0.9033   -2.8701   -6.5065 C   0  0  0  0  0  0  0  0  0  0  0  0
   -1.1358   -1.2371   -3.2302 N   0  0  0  0  0  0  0  0  0  0  0  0
   -1.7266   -0.8964   -2.0773 C   0  0  0  0  0  0  0  0  0  0  0  0
   -1.0311   -0.4779   -0.9762 C   0  0  0  0  0  0  0  0  0  0  0  0
   -1.9624    0.0260    0.5874 Br  0  0  0  0  0  0  0  0  0  0  0  0
    2.8944    1.4181    1.0323 C   0  0  0  0  0  0  0  0  0  0  0  0
    4.2167    2.1818    0.8918 C   0  0  0  0  0  0  0  0  0  0  0  0
    1.8858    2.2890    1.7962 C   0  0  0  0  0  0  0  0  0  0  0  0
    3.1465    0.2685    1.8682 O   0  0  0  0  0  0  0  0  0  0  0  0
    2.9651    2.7030   -1.4610 H   0  0  0  0  0  0  0  0  0  0  0  0
    1.2438    2.6824   -1.0240 H   0  0  0  0  0  0  0  0  0  0  0  0
    1.8490    1.6830   -2.3382 H   0  0  0  0  0  0  0  0  0  0  0  0
    3.0722    0.2103   -0.7781 H   0  0  0  0  0  0  0  0  0  0  0  0
    1.0871   -0.3592    0.7532 H   0  0  0  0  0  0  0  0  0  0  0  0
    1.8462   -1.6804   -4.3158 H   0  0  0  0  0  0  0  0  0  0  0  0
   -1.3792   -0.5299   -5.5777 H   0  0  0  0  0  0  0  0  0  0  0  0
   -2.4872   -1.3216   -7.5943 H   0  0  0  0  0  0  0  0  0  0  0  0
   -2.0432   -1.5130  -10.4291 H   0  0  0  0  0  0  0  0  0  0  0  0
   -3.5627   -4.1292   -8.0762 H   0  0  0  0  0  0  0  0  0  0  0  0
   -2.3058   -5.3575   -8.2565 H   0  0  0  0  0  0  0  0  0  0  0  0
   -3.0761   -5.7822  -10.6328 H   0  0  0  0  0  0  0  0  0  0  0  0
   -4.3513   -4.5786  -10.4121 H   0  0  0  0  0  0  0  0  0  0  0  0
   -4.0172   -7.0596   -9.0882 H   0  0  0  0  0  0  0  0  0  0  0  0
    0.7475   -4.1076   -8.2656 H   0  0  0  0  0  0  0  0  0  0  0  0
    1.8373   -3.3320   -6.1987 H   0  0  0  0  0  0  0  0  0  0  0  0
   -2.8099   -0.9546   -2.0865 H   0  0  0  0  0  0  0  0  0  0  0  0
    4.0974    3.1218    0.3447 H   0  0  0  0  0  0  0  0  0  0  0  0
    4.9685    1.5717    0.3802 H   0  0  0  0  0  0  0  0  0  0  0  0
    4.6301    2.4236    1.8776 H   0  0  0  0  0  0  0  0  0  0  0  0
    1.6290    3.1998    1.2483 H   0  0  0  0  0  0  0  0  0  0  0  0
    2.2894    2.5803    2.7728 H   0  0  0  0  0  0  0  0  0  0  0  0
    0.9621    1.7394    2.0123 H   0  0  0  0  0  0  0  0  0  0  0  0
    3.9153   -0.2028    1.5028 H   0  0  0  0  0  0  0  0  0  0  0  0
  1 28  1  0  0  0  0
  1 29  1  0  0  0  0
  1 30  1  0  0  0  0
  2 24  1  0  0  0  0
  2  3  1  0  0  0  0
  2  1  1  0  0  0  0
  2 31  1  6  0  0  0
  3  4  1  0  0  0  0
  3 32  1  0  0  0  0
  4  5  1  0  0  0  0
  4 22  2  0  0  0  0
  5  6  2  0  0  0  0
  6  7  1  0  0  0  0
  6 20  1  0  0  0  0
  7  8  1  0  0  0  0
  7 33  1  0  0  0  0
  8  9  1  0  0  0  0
  8 19  2  0  0  0  0
  9 10  2  0  0  0  0
  9 34  1  0  0  0  0
 10 11  1  0  0  0  0
 10 35  1  0  0  0  0
 11 12  1  0  0  0  0
 11 18  2  0  0  0  0
 12 13  2  0  0  0  0
 12 14  2  0  0  0  0
 12 15  1  0  0  0  0
 13 36  1  0  0  0  0
 15 16  1  0  0  0  0
 15 37  1  0  0  0  0
 15 38  1  0  0  0  0
 16 17  1  0  0  0  0
 16 39  1  0  0  0  0
 16 40  1  0  0  0  0
 17 41  1  0  0  0  0
 18 19  1  0  0  0  0
 18 42  1  0  0  0  0
 19 43  1  0  0  0  0
 20 21  2  0  0  0  0
 21 22  1  0  0  0  0
 21 44  1  0  0  0  0
 22 23  1  0  0  0  0
 24 25  1  0  0  0  0
 24 26  1  0  0  0  0
 24 27  1  0  0  0  0
 25 45  1  0  0  0  0
 25 46  1  0  0  0  0
 25 47  1  0  0  0  0
 26 48  1  0  0  0  0
 26 49  1  0  0  0  0
 26 50  1  0  0  0  0
 27 51  1  0  0  0  0
M  END
$$$$
