CHEMBL3913166
 OpenBabel04072215373D

 54 57  0  0  0  0  0  0  0  0999 V2000
    2.6043    0.2279    0.1046 C   0  0  0  0  0  0  0  0  0  0  0  0
    1.1087    0.0741    0.1578 C   0  0  0  0  0  0  0  0  0  0  0  0
    0.3606    1.2719    0.2323 C   0  0  0  0  0  0  0  0  0  0  0  0
   -1.0338    1.2764    0.1698 C   0  0  0  0  0  0  0  0  0  0  0  0
   -1.7965    2.4205    0.2496 O   0  0  0  0  0  0  0  0  0  0  0  0
   -1.3526    3.5497   -0.4341 C   0  0  0  0  0  0  0  0  0  0  0  0
   -1.8009    4.7731    0.0210 C   0  0  0  0  0  0  0  0  0  0  0  0
   -1.3600    5.8688   -0.6896 C   0  0  0  0  0  0  0  0  0  0  0  0
   -1.8020    7.1514   -0.3117 N   0  0  0  0  0  0  0  0  0  0  0  0
   -1.5135    8.3008   -1.0136 C   0  0  0  0  0  0  0  0  0  0  0  0
   -0.8481    8.4109   -2.0384 O   0  0  0  0  0  0  0  0  0  0  0  0
   -2.0868    9.5390   -0.4005 C   0  0  0  0  0  0  0  0  0  0  0  0
   -1.9833   10.8649   -1.1248 C   0  0  0  0  0  0  0  0  0  0  0  0
   -1.1414   10.6124    0.0905 C   0  0  0  0  0  0  0  0  0  0  0  0
   -0.5255    5.7523   -1.7281 N   0  0  0  0  0  0  0  0  0  0  0  0
   -0.1618    4.5230   -2.0939 C   0  0  0  0  0  0  0  0  0  0  0  0
   -0.5537    3.3962   -1.5049 N   0  0  0  0  0  0  0  0  0  0  0  0
   -1.7004    0.0642    0.0998 C   0  0  0  0  0  0  0  0  0  0  0  0
   -0.9755   -1.1342    0.0653 C   0  0  0  0  0  0  0  0  0  0  0  0
    0.4297   -1.1630    0.0825 C   0  0  0  0  0  0  0  0  0  0  0  0
    1.1486   -2.3975    0.0640 N   0  0  0  0  0  0  0  0  0  0  0  0
    0.5990   -3.6674   -0.0712 C   0  0  0  0  0  0  0  0  0  0  0  0
   -0.5759   -3.9102   -0.3265 O   0  0  0  0  0  0  0  0  0  0  0  0
    1.5220   -4.6814    0.1740 N   0  0  0  0  0  0  0  0  0  0  0  0
    1.1220   -6.0467    0.1164 C   0  0  0  0  0  0  0  0  0  0  0  0
    1.4658   -6.8924    1.1736 C   0  0  0  0  0  0  0  0  0  0  0  0
    1.0125   -8.2156    1.1825 C   0  0  0  0  0  0  0  0  0  0  0  0
    0.2696   -8.7115    0.1145 C   0  0  0  0  0  0  0  0  0  0  0  0
   -0.1390   -9.9848    0.1632 F   0  0  0  0  0  0  0  0  0  0  0  0
   -0.0440   -7.9071   -0.9783 C   0  0  0  0  0  0  0  0  0  0  0  0
   -0.8085   -8.4584   -2.1455 C   0  0  0  0  0  0  0  0  0  0  0  0
   -1.0959   -9.7873   -2.0711 F   0  0  0  0  0  0  0  0  0  0  0  0
   -2.0051   -7.8348   -2.3317 F   0  0  0  0  0  0  0  0  0  0  0  0
   -0.1273   -8.3037   -3.3190 F   0  0  0  0  0  0  0  0  0  0  0  0
    0.3779   -6.5604   -0.9573 C   0  0  0  0  0  0  0  0  0  0  0  0
    2.9003    1.2689    0.2913 H   0  0  0  0  0  0  0  0  0  0  0  0
    2.9749   -0.0342   -0.8909 H   0  0  0  0  0  0  0  0  0  0  0  0
    3.0963   -0.3809    0.8666 H   0  0  0  0  0  0  0  0  0  0  0  0
    0.8844    2.2217    0.3116 H   0  0  0  0  0  0  0  0  0  0  0  0
   -2.4613    4.8432    0.8718 H   0  0  0  0  0  0  0  0  0  0  0  0
   -2.3865    7.2239    0.5095 H   0  0  0  0  0  0  0  0  0  0  0  0
   -3.0031    9.3928    0.1634 H   0  0  0  0  0  0  0  0  0  0  0  0
   -2.8050   11.5666   -1.0384 H   0  0  0  0  0  0  0  0  0  0  0  0
   -1.4867   10.8929   -2.0899 H   0  0  0  0  0  0  0  0  0  0  0  0
   -1.3918   11.1408    1.0001 H   0  0  0  0  0  0  0  0  0  0  0  0
   -0.0759   10.4709   -0.0666 H   0  0  0  0  0  0  0  0  0  0  0  0
    0.5144    4.4410   -2.9362 H   0  0  0  0  0  0  0  0  0  0  0  0
   -2.7861    0.0291    0.0626 H   0  0  0  0  0  0  0  0  0  0  0  0
   -1.5681   -2.0413    0.0165 H   0  0  0  0  0  0  0  0  0  0  0  0
    2.1614   -2.3385    0.0570 H   0  0  0  0  0  0  0  0  0  0  0  0
    2.2044   -4.4506    0.8816 H   0  0  0  0  0  0  0  0  0  0  0  0
    2.0232   -6.5246    2.0280 H   0  0  0  0  0  0  0  0  0  0  0  0
    1.2226   -8.8676    2.0277 H   0  0  0  0  0  0  0  0  0  0  0  0
    0.1155   -5.9136   -1.7970 H   0  0  0  0  0  0  0  0  0  0  0  0
  1  2  1  0  0  0  0
  1 36  1  0  0  0  0
  1 37  1  0  0  0  0
  1 38  1  0  0  0  0
  2  3  1  0  0  0  0
  2 20  2  0  0  0  0
  3  4  2  0  0  0  0
  3 39  1  0  0  0  0
  4  5  1  0  0  0  0
  4 18  1  0  0  0  0
  5  6  1  0  0  0  0
  6  7  1  0  0  0  0
  6 17  2  0  0  0  0
  7  8  2  0  0  0  0
  7 40  1  0  0  0  0
  8  9  1  0  0  0  0
  8 15  1  0  0  0  0
  9 10  1  0  0  0  0
  9 41  1  0  0  0  0
 10 11  2  0  0  0  0
 10 12  1  0  0  0  0
 12 13  1  0  0  0  0
 12 14  1  0  0  0  0
 12 42  1  0  0  0  0
 13 14  1  0  0  0  0
 13 43  1  0  0  0  0
 13 44  1  0  0  0  0
 14 45  1  0  0  0  0
 14 46  1  0  0  0  0
 15 16  2  0  0  0  0
 16 17  1  0  0  0  0
 16 47  1  0  0  0  0
 18 19  2  0  0  0  0
 18 48  1  0  0  0  0
 19 20  1  0  0  0  0
 19 49  1  0  0  0  0
 20 21  1  0  0  0  0
 21 22  1  0  0  0  0
 21 50  1  0  0  0  0
 22 23  2  0  0  0  0
 22 24  1  0  0  0  0
 24 25  1  0  0  0  0
 24 51  1  0  0  0  0
 25 26  1  0  0  0  0
 25 35  2  0  0  0  0
 26 27  2  0  0  0  0
 26 52  1  0  0  0  0
 27 28  1  0  0  0  0
 27 53  1  0  0  0  0
 28 29  1  0  0  0  0
 28 30  2  0  0  0  0
 30 31  1  0  0  0  0
 30 35  1  0  0  0  0
 31 32  1  0  0  0  0
 31 33  1  0  0  0  0
 31 34  1  0  0  0  0
 35 54  1  0  0  0  0
M  END
$$$$
