CHEMBL3827870
 OpenBabel04072215373D

 61 65  0  0  0  0  0  0  0  0999 V2000
    1.6191   -0.0594   -0.5752 C   0  0  0  0  0  0  0  0  0  0  0  0
    2.7434    0.0927    0.2877 O   0  0  0  0  0  0  0  0  0  0  0  0
    3.2415   -1.0504    0.8504 C   0  0  0  0  0  0  0  0  0  0  0  0
    2.6454   -2.3173    0.7483 C   0  0  0  0  0  0  0  0  0  0  0  0
    3.2088   -3.4329    1.3797 C   0  0  0  0  0  0  0  0  0  0  0  0
    4.4095   -3.2976    2.0585 C   0  0  0  0  0  0  0  0  0  0  0  0
    4.9915   -2.0324    2.1353 C   0  0  0  0  0  0  0  0  0  0  0  0
    4.4224   -0.8959    1.5822 C   0  0  0  0  0  0  0  0  0  0  0  0
    6.2324   -2.1644    2.8964 C   0  0  0  0  0  0  0  0  0  0  0  0
    6.9990   -1.2668    3.2076 O   0  0  0  0  0  0  0  0  0  0  0  0
    6.3246   -3.5950    3.2670 C   0  0  0  0  0  0  0  0  0  0  0  0
    5.2328   -4.2336    2.8280 C   0  0  0  0  0  0  0  0  0  0  0  0
    4.9058   -5.5061    3.2657 N   0  0  0  0  0  0  0  0  0  0  0  0
    3.9659   -6.3376    2.6061 C   0  0  0  0  0  0  0  0  0  0  0  0
    2.9375   -6.9094    3.3290 C   0  0  0  0  0  0  0  0  0  0  0  0
    2.0433   -7.7524    2.6992 C   0  0  0  0  0  0  0  0  0  0  0  0
    2.1705   -8.0641    1.3363 C   0  0  0  0  0  0  0  0  0  0  0  0
    1.3475   -8.9413    0.6565 O   0  0  0  0  0  0  0  0  0  0  0  0
    0.3809   -9.5363    1.5083 C   0  0  0  0  0  0  0  0  0  0  0  0
   -0.5006  -10.5492    0.7848 C   0  0  0  0  0  0  0  0  0  0  0  0
   -1.4545  -11.1877    1.7180 N   0  0  0  0  0  0  0  0  0  0  0  0
   -2.3762  -10.2262    2.3301 C   0  0  0  0  0  0  0  0  0  0  0  0
   -2.2074  -12.2348    1.0329 C   0  0  0  0  0  0  0  0  0  0  0  0
    3.1937   -7.4729    0.5988 C   0  0  0  0  0  0  0  0  0  0  0  0
    4.0919   -6.6100    1.2329 C   0  0  0  0  0  0  0  0  0  0  0  0
    5.5204   -6.0356    4.4382 C   0  0  0  0  0  0  0  0  0  0  0  0
    5.2381   -7.0997    4.9872 O   0  0  0  0  0  0  0  0  0  0  0  0
    6.6686   -5.2731    4.9817 C   0  0  0  0  0  0  0  0  0  0  0  0
    7.2133   -5.5397    6.2288 C   0  0  0  0  0  0  0  0  0  0  0  0
    8.3160   -4.7773    6.5770 C   0  0  0  0  0  0  0  0  0  0  0  0
    8.3148   -4.2114    7.8353 O   0  0  0  0  0  0  0  0  0  0  0  0
    8.8112   -2.8540    7.8152 C   0  0  0  0  0  0  0  0  0  0  0  0
    9.1420   -4.2792    5.5768 C   0  0  0  0  0  0  0  0  0  0  0  0
    8.5231   -3.8657    4.4139 C   0  0  0  0  0  0  0  0  0  0  0  0
    7.2111   -4.2497    4.1980 C   0  0  0  0  0  0  0  0  0  0  0  0
    1.3844    0.9205   -0.9998 H   0  0  0  0  0  0  0  0  0  0  0  0
    0.7379   -0.4007   -0.0179 H   0  0  0  0  0  0  0  0  0  0  0  0
    1.8458   -0.7367   -1.4089 H   0  0  0  0  0  0  0  0  0  0  0  0
    1.7196   -2.4729    0.1999 H   0  0  0  0  0  0  0  0  0  0  0  0
    2.6830   -4.3769    1.3161 H   0  0  0  0  0  0  0  0  0  0  0  0
    4.8815    0.0790    1.7132 H   0  0  0  0  0  0  0  0  0  0  0  0
    2.8141   -6.7084    4.3925 H   0  0  0  0  0  0  0  0  0  0  0  0
    1.2591   -8.1708    3.3265 H   0  0  0  0  0  0  0  0  0  0  0  0
   -0.2568   -8.7333    1.8937 H   0  0  0  0  0  0  0  0  0  0  0  0
    0.8873  -10.0638    2.3281 H   0  0  0  0  0  0  0  0  0  0  0  0
    0.1556  -11.3125    0.3465 H   0  0  0  0  0  0  0  0  0  0  0  0
   -1.0162  -10.0661   -0.0538 H   0  0  0  0  0  0  0  0  0  0  0  0
   -1.8508   -9.5401    3.0038 H   0  0  0  0  0  0  0  0  0  0  0  0
   -3.1104  -10.7376    2.9616 H   0  0  0  0  0  0  0  0  0  0  0  0
   -2.9148   -9.6365    1.5810 H   0  0  0  0  0  0  0  0  0  0  0  0
   -1.5304  -13.0000    0.6395 H   0  0  0  0  0  0  0  0  0  0  0  0
   -2.8060  -11.8357    0.2073 H   0  0  0  0  0  0  0  0  0  0  0  0
   -2.8792  -12.7416    1.7346 H   0  0  0  0  0  0  0  0  0  0  0  0
    3.3149   -7.6923   -0.4569 H   0  0  0  0  0  0  0  0  0  0  0  0
    4.9117   -6.1838    0.6620 H   0  0  0  0  0  0  0  0  0  0  0  0
    6.7204   -6.1994    6.9369 H   0  0  0  0  0  0  0  0  0  0  0  0
    8.5385   -2.3481    8.7442 H   0  0  0  0  0  0  0  0  0  0  0  0
    8.3998   -2.2429    6.9922 H   0  0  0  0  0  0  0  0  0  0  0  0
    9.9022   -2.8825    7.7484 H   0  0  0  0  0  0  0  0  0  0  0  0
   10.1605   -3.9806    5.7931 H   0  0  0  0  0  0  0  0  0  0  0  0
    9.0336   -3.1861    3.7400 H   0  0  0  0  0  0  0  0  0  0  0  0
  1  2  1  0  0  0  0
  1 36  1  0  0  0  0
  1 37  1  0  0  0  0
  1 38  1  0  0  0  0
  2  3  1  0  0  0  0
  3  4  1  0  0  0  0
  3  8  2  0  0  0  0
  4  5  2  0  0  0  0
  4 39  1  0  0  0  0
  5  6  1  0  0  0  0
  5 40  1  0  0  0  0
  6  7  2  0  0  0  0
  6 12  1  0  0  0  0
  7  8  1  0  0  0  0
  7  9  1  0  0  0  0
  8 41  1  0  0  0  0
  9 10  2  0  0  0  0
  9 11  1  0  0  0  0
 11 12  2  0  0  0  0
 11 35  1  0  0  0  0
 12 13  1  0  0  0  0
 13 14  1  0  0  0  0
 13 26  1  0  0  0  0
 14 15  1  0  0  0  0
 14 25  2  0  0  0  0
 15 16  2  0  0  0  0
 15 42  1  0  0  0  0
 16 17  1  0  0  0  0
 16 43  1  0  0  0  0
 17 18  1  0  0  0  0
 17 24  2  0  0  0  0
 18 19  1  0  0  0  0
 19 20  1  0  0  0  0
 19 44  1  0  0  0  0
 19 45  1  0  0  0  0
 20 21  1  0  0  0  0
 20 46  1  0  0  0  0
 20 47  1  0  0  0  0
 21 22  1  0  0  0  0
 21 23  1  0  0  0  0
 22 48  1  0  0  0  0
 22 49  1  0  0  0  0
 22 50  1  0  0  0  0
 23 51  1  0  0  0  0
 23 52  1  0  0  0  0
 23 53  1  0  0  0  0
 24 25  1  0  0  0  0
 24 54  1  0  0  0  0
 25 55  1  0  0  0  0
 26 27  2  0  0  0  0
 26 28  1  0  0  0  0
 28 29  1  0  0  0  0
 28 35  2  0  0  0  0
 29 30  2  0  0  0  0
 29 56  1  0  0  0  0
 30 31  1  0  0  0  0
 30 33  1  0  0  0  0
 31 32  1  0  0  0  0
 32 57  1  0  0  0  0
 32 58  1  0  0  0  0
 32 59  1  0  0  0  0
 33 34  2  0  0  0  0
 33 60  1  0  0  0  0
 34 35  1  0  0  0  0
 34 61  1  0  0  0  0
M  END
$$$$
