CHEMBL324489
 OpenBabel04072215363D

 51 55  0  0  0  0  0  0  0  0999 V2000
   -0.8507    3.3696    4.7398 C   0  0  0  0  0  0  0  0  0  0  0  0
   -0.9186    2.2777    3.7719 N   0  0  0  0  0  0  0  0  0  0  0  0
   -1.9657    1.3213    4.1657 C   0  0  0  0  0  0  0  0  0  0  0  0
   -2.0644    0.1495    3.1813 C   0  0  0  0  0  0  0  0  0  0  0  0
   -2.2291    0.5838    1.7910 N   0  0  0  0  0  0  0  0  0  0  0  0
   -2.9854   -0.0560    0.8089 C   0  0  0  0  0  0  0  0  0  0  0  0
   -3.1273    0.4150   -0.3204 O   0  0  0  0  0  0  0  0  0  0  0  0
   -3.6846   -1.3378    1.1028 C   0  0  0  0  0  0  0  0  0  0  0  0
   -3.1042   -2.3523    1.8735 C   0  0  0  0  0  0  0  0  0  0  0  0
   -3.8043   -3.5165    2.1987 C   0  0  0  0  0  0  0  0  0  0  0  0
   -5.0666   -3.6755    1.6294 C   0  0  0  0  0  0  0  0  0  0  0  0
   -5.9635   -4.7075    1.7455 N   0  0  0  0  0  0  0  0  0  0  0  0
   -7.0873   -4.4769    0.9839 C   0  0  0  0  0  0  0  0  0  0  0  0
   -8.2384   -5.3825    0.9701 C   0  0  0  0  0  0  0  0  0  0  0  0
   -9.3260   -5.1207    0.1424 C   0  0  0  0  0  0  0  0  0  0  0  0
  -10.4853   -5.9004    0.2213 C   0  0  0  0  0  0  0  0  0  0  0  0
  -11.6126   -5.5979   -0.5587 C   0  0  0  0  0  0  0  0  0  0  0  0
  -12.7775   -6.3433   -0.4179 C   0  0  0  0  0  0  0  0  0  0  0  0
  -12.8117   -7.3994    0.4851 C   0  0  0  0  0  0  0  0  0  0  0  0
  -11.6775   -7.7124    1.2393 C   0  0  0  0  0  0  0  0  0  0  0  0
  -10.5023   -6.9789    1.1319 C   0  0  0  0  0  0  0  0  0  0  0  0
   -9.4443   -7.2931    1.8932 N   0  0  0  0  0  0  0  0  0  0  0  0
   -8.3628   -6.4971    1.7961 C   0  0  0  0  0  0  0  0  0  0  0  0
   -7.3702   -6.8868    2.6442 O   0  0  0  0  0  0  0  0  0  0  0  0
   -6.8864   -3.2564    0.3604 C   0  0  0  0  0  0  0  0  0  0  0  0
   -5.6376   -2.7324    0.7812 C   0  0  0  0  0  0  0  0  0  0  0  0
   -4.9460   -1.5366    0.5210 C   0  0  0  0  0  0  0  0  0  0  0  0
   -1.3200    1.6556    1.3744 C   0  0  0  0  0  0  0  0  0  0  0  0
   -1.2153    2.7872    2.4160 C   0  0  0  0  0  0  0  0  0  0  0  0
   -0.6131    2.9774    5.7355 H   0  0  0  0  0  0  0  0  0  0  0  0
   -1.7931    3.9245    4.8058 H   0  0  0  0  0  0  0  0  0  0  0  0
   -0.0508    4.0678    4.4757 H   0  0  0  0  0  0  0  0  0  0  0  0
   -2.9426    1.8194    4.2224 H   0  0  0  0  0  0  0  0  0  0  0  0
   -1.7461    0.9115    5.1587 H   0  0  0  0  0  0  0  0  0  0  0  0
   -2.9059   -0.4701    3.4976 H   0  0  0  0  0  0  0  0  0  0  0  0
   -1.1449   -0.4472    3.2248 H   0  0  0  0  0  0  0  0  0  0  0  0
   -2.0895   -2.2522    2.2445 H   0  0  0  0  0  0  0  0  0  0  0  0
   -3.3714   -4.2690    2.8491 H   0  0  0  0  0  0  0  0  0  0  0  0
   -5.8367   -5.5286    2.3247 H   0  0  0  0  0  0  0  0  0  0  0  0
   -9.2973   -4.2831   -0.5499 H   0  0  0  0  0  0  0  0  0  0  0  0
  -11.5910   -4.7687   -1.2600 H   0  0  0  0  0  0  0  0  0  0  0  0
  -13.6574   -6.0903   -1.0041 H   0  0  0  0  0  0  0  0  0  0  0  0
  -13.7238   -7.9782    0.6112 H   0  0  0  0  0  0  0  0  0  0  0  0
  -11.7156   -8.5416    1.9421 H   0  0  0  0  0  0  0  0  0  0  0  0
   -7.8129   -7.6555    3.0510 H   0  0  0  0  0  0  0  0  0  0  0  0
   -7.5763   -2.7617   -0.3103 H   0  0  0  0  0  0  0  0  0  0  0  0
   -5.3825   -0.7806   -0.1267 H   0  0  0  0  0  0  0  0  0  0  0  0
   -1.6268    2.0771    0.4113 H   0  0  0  0  0  0  0  0  0  0  0  0
   -0.3365    1.1926    1.2251 H   0  0  0  0  0  0  0  0  0  0  0  0
   -2.1582    3.3501    2.4210 H   0  0  0  0  0  0  0  0  0  0  0  0
   -0.4226    3.4745    2.0980 H   0  0  0  0  0  0  0  0  0  0  0  0
  1  2  1  0  0  0  0
  1 30  1  0  0  0  0
  1 31  1  0  0  0  0
  1 32  1  0  0  0  0
  2  3  1  0  0  0  0
  2 29  1  0  0  0  0
  3  4  1  0  0  0  0
  3 33  1  0  0  0  0
  3 34  1  0  0  0  0
  4  5  1  0  0  0  0
  4 35  1  0  0  0  0
  4 36  1  0  0  0  0
  5  6  1  0  0  0  0
  5 28  1  0  0  0  0
  6  7  2  0  0  0  0
  6  8  1  0  0  0  0
  8  9  1  0  0  0  0
  8 27  2  0  0  0  0
  9 10  2  0  0  0  0
  9 37  1  0  0  0  0
 10 11  1  0  0  0  0
 10 38  1  0  0  0  0
 11 12  1  0  0  0  0
 11 26  2  0  0  0  0
 12 13  1  0  0  0  0
 12 39  1  0  0  0  0
 13 14  1  0  0  0  0
 13 25  2  0  0  0  0
 14 15  1  0  0  0  0
 14 23  2  0  0  0  0
 15 16  2  0  0  0  0
 15 40  1  0  0  0  0
 16 17  1  0  0  0  0
 16 21  1  0  0  0  0
 17 18  2  0  0  0  0
 17 41  1  0  0  0  0
 18 19  1  0  0  0  0
 18 42  1  0  0  0  0
 19 20  2  0  0  0  0
 19 43  1  0  0  0  0
 20 21  1  0  0  0  0
 20 44  1  0  0  0  0
 21 22  2  0  0  0  0
 22 23  1  0  0  0  0
 23 24  1  0  0  0  0
 24 45  1  0  0  0  0
 25 26  1  0  0  0  0
 25 46  1  0  0  0  0
 26 27  1  0  0  0  0
 27 47  1  0  0  0  0
 28 29  1  0  0  0  0
 28 48  1  0  0  0  0
 28 49  1  0  0  0  0
 29 50  1  0  0  0  0
 29 51  1  0  0  0  0
M  END
$$$$
