CHEMBL4105491
 OpenBabel04072215383D

 69 73  0  0  0  0  0  0  0  0999 V2000
    1.0215   -0.3288    0.0177 C   0  0  0  0  0  0  0  0  0  0  0  0
    2.5244   -0.2839   -0.0455 C   0  0  0  0  0  0  0  0  0  0  0  0
    3.1455    0.8193   -0.6433 C   0  0  0  0  0  0  0  0  0  0  0  0
    4.5334    0.8760   -0.7453 C   0  0  0  0  0  0  0  0  0  0  0  0
    5.3302   -0.1668   -0.2523 C   0  0  0  0  0  0  0  0  0  0  0  0
    6.8033   -0.0098   -0.3953 C   0  0  0  0  0  0  0  0  0  0  0  0
    7.2426    1.1344   -0.3378 O   0  0  0  0  0  0  0  0  0  0  0  0
    7.5363   -1.1566   -0.6796 N   0  0  0  0  0  0  0  0  0  0  0  0
    8.9178   -1.1603   -1.0063 C   0  0  0  0  0  0  0  0  0  0  0  0
    9.7617   -0.0902   -0.7211 C   0  0  0  0  0  0  0  0  0  0  0  0
   11.0785   -0.0720   -1.1824 C   0  0  0  0  0  0  0  0  0  0  0  0
   11.5973   -1.1333   -1.9397 C   0  0  0  0  0  0  0  0  0  0  0  0
   12.9900   -0.9605   -2.5189 C   0  0  0  0  0  0  0  0  0  0  0  0
   12.9972   -0.9874   -3.9813 N   0  0  0  0  0  0  0  0  0  0  0  0
   12.1978    0.0751   -4.6140 C   0  0  0  0  0  0  0  0  0  0  0  0
   12.2212   -0.0656   -6.1549 C   0  0  0  0  0  0  0  0  0  0  0  0
   13.5702   -0.0705   -6.7560 N   0  0  0  0  0  0  0  0  0  0  0  0
   14.1677    1.2616   -6.7347 C   0  0  0  0  0  0  0  0  0  0  0  0
   14.4103   -1.0574   -6.0463 C   0  0  0  0  0  0  0  0  0  0  0  0
   14.3760   -0.9572   -4.5029 C   0  0  0  0  0  0  0  0  0  0  0  0
   10.7868   -2.2640   -2.1753 C   0  0  0  0  0  0  0  0  0  0  0  0
   11.2240   -3.4783   -2.9763 C   0  0  0  0  0  0  0  0  0  0  0  0
   12.5195   -3.5230   -3.3804 F   0  0  0  0  0  0  0  0  0  0  0  0
   11.0524   -4.6288   -2.2562 F   0  0  0  0  0  0  0  0  0  0  0  0
   10.4673   -3.6475   -4.0995 F   0  0  0  0  0  0  0  0  0  0  0  0
    9.4523   -2.2622   -1.6851 C   0  0  0  0  0  0  0  0  0  0  0  0
    4.7263   -1.2627    0.3711 C   0  0  0  0  0  0  0  0  0  0  0  0
    3.3248   -1.3248    0.4675 C   0  0  0  0  0  0  0  0  0  0  0  0
    2.7201   -2.4699    1.0822 C   0  0  0  0  0  0  0  0  0  0  0  0
    2.1971   -3.4368    1.5740 C   0  0  0  0  0  0  0  0  0  0  0  0
    1.6076   -4.6146    2.1366 C   0  0  0  0  0  0  0  0  0  0  0  0
    0.2465   -4.8503    1.9623 C   0  0  0  0  0  0  0  0  0  0  0  0
   -0.4030   -5.9422    2.4264 N   0  0  0  0  0  0  0  0  0  0  0  0
    0.3497   -6.8505    3.0846 C   0  0  0  0  0  0  0  0  0  0  0  0
    1.7238   -6.7322    3.3126 C   0  0  0  0  0  0  0  0  0  0  0  0
    2.4573   -7.7292    3.9781 C   0  0  0  0  0  0  0  0  0  0  0  0
    3.8309   -7.5891    4.1736 C   0  0  0  0  0  0  0  0  0  0  0  0
    4.4803   -6.4431    3.7315 C   0  0  0  0  0  0  0  0  0  0  0  0
    3.7617   -5.4413    3.0784 C   0  0  0  0  0  0  0  0  0  0  0  0
    2.3735   -5.5713    2.8357 C   0  0  0  0  0  0  0  0  0  0  0  0
    0.5763    0.5770   -0.4091 H   0  0  0  0  0  0  0  0  0  0  0  0
    0.6798   -0.4035    1.0549 H   0  0  0  0  0  0  0  0  0  0  0  0
    0.6454   -1.1809   -0.5573 H   0  0  0  0  0  0  0  0  0  0  0  0
    2.5551    1.6440   -1.0375 H   0  0  0  0  0  0  0  0  0  0  0  0
    4.9971    1.7427   -1.2150 H   0  0  0  0  0  0  0  0  0  0  0  0
    7.0203   -2.0026   -0.8845 H   0  0  0  0  0  0  0  0  0  0  0  0
    9.4242    0.7697   -0.1536 H   0  0  0  0  0  0  0  0  0  0  0  0
   11.6836    0.8069   -0.9716 H   0  0  0  0  0  0  0  0  0  0  0  0
   13.6104   -1.7709   -2.1146 H   0  0  0  0  0  0  0  0  0  0  0  0
   13.4426   -0.0279   -2.1549 H   0  0  0  0  0  0  0  0  0  0  0  0
   12.5579    1.0679   -4.3162 H   0  0  0  0  0  0  0  0  0  0  0  0
   11.1495    0.0062   -4.3031 H   0  0  0  0  0  0  0  0  0  0  0  0
   11.6064    0.7215   -6.6080 H   0  0  0  0  0  0  0  0  0  0  0  0
   11.7291   -1.0111   -6.4230 H   0  0  0  0  0  0  0  0  0  0  0  0
   13.5347    1.9702   -7.2804 H   0  0  0  0  0  0  0  0  0  0  0  0
   15.1360    1.2508   -7.2465 H   0  0  0  0  0  0  0  0  0  0  0  0
   14.3219    1.6535   -5.7245 H   0  0  0  0  0  0  0  0  0  0  0  0
   15.4480   -0.9935   -6.3963 H   0  0  0  0  0  0  0  0  0  0  0  0
   14.0651   -2.0602   -6.3325 H   0  0  0  0  0  0  0  0  0  0  0  0
   14.8906   -0.0425   -4.1802 H   0  0  0  0  0  0  0  0  0  0  0  0
   14.9420   -1.8044   -4.0966 H   0  0  0  0  0  0  0  0  0  0  0  0
    8.8221   -3.1248   -1.8998 H   0  0  0  0  0  0  0  0  0  0  0  0
    5.3327   -2.0525    0.8062 H   0  0  0  0  0  0  0  0  0  0  0  0
   -0.3821   -4.1488    1.4187 H   0  0  0  0  0  0  0  0  0  0  0  0
   -0.2061   -7.7180    3.4390 H   0  0  0  0  0  0  0  0  0  0  0  0
    1.9636   -8.6295    4.3406 H   0  0  0  0  0  0  0  0  0  0  0  0
    4.3939   -8.3742    4.6719 H   0  0  0  0  0  0  0  0  0  0  0  0
    5.5491   -6.3240    3.8890 H   0  0  0  0  0  0  0  0  0  0  0  0
    4.2966   -4.5532    2.7532 H   0  0  0  0  0  0  0  0  0  0  0  0
  1  2  1  0  0  0  0
  1 41  1  0  0  0  0
  1 42  1  0  0  0  0
  1 43  1  0  0  0  0
  2  3  1  0  0  0  0
  2 28  2  0  0  0  0
  3  4  2  0  0  0  0
  3 44  1  0  0  0  0
  4  5  1  0  0  0  0
  4 45  1  0  0  0  0
  5  6  1  0  0  0  0
  5 27  2  0  0  0  0
  6  7  2  0  0  0  0
  6  8  1  0  0  0  0
  8  9  1  0  0  0  0
  8 46  1  0  0  0  0
  9 10  1  0  0  0  0
  9 26  2  0  0  0  0
 10 11  2  0  0  0  0
 10 47  1  0  0  0  0
 11 12  1  0  0  0  0
 11 48  1  0  0  0  0
 12 13  1  0  0  0  0
 12 21  2  0  0  0  0
 13 14  1  0  0  0  0
 13 49  1  0  0  0  0
 13 50  1  0  0  0  0
 14 15  1  0  0  0  0
 14 20  1  0  0  0  0
 15 16  1  0  0  0  0
 15 51  1  0  0  0  0
 15 52  1  0  0  0  0
 16 17  1  0  0  0  0
 16 53  1  0  0  0  0
 16 54  1  0  0  0  0
 17 18  1  0  0  0  0
 17 19  1  0  0  0  0
 18 55  1  0  0  0  0
 18 56  1  0  0  0  0
 18 57  1  0  0  0  0
 19 20  1  0  0  0  0
 19 58  1  0  0  0  0
 19 59  1  0  0  0  0
 20 60  1  0  0  0  0
 20 61  1  0  0  0  0
 21 22  1  0  0  0  0
 21 26  1  0  0  0  0
 22 23  1  0  0  0  0
 22 24  1  0  0  0  0
 22 25  1  0  0  0  0
 26 62  1  0  0  0  0
 27 28  1  0  0  0  0
 27 63  1  0  0  0  0
 28 29  1  0  0  0  0
 29 30  3  0  0  0  0
 30 31  1  0  0  0  0
 31 32  1  0  0  0  0
 31 40  2  0  0  0  0
 32 33  2  0  0  0  0
 32 64  1  0  0  0  0
 33 34  1  0  0  0  0
 34 35  2  0  0  0  0
 34 65  1  0  0  0  0
 35 36  1  0  0  0  0
 35 40  1  0  0  0  0
 36 37  2  0  0  0  0
 36 66  1  0  0  0  0
 37 38  1  0  0  0  0
 37 67  1  0  0  0  0
 38 39  2  0  0  0  0
 38 68  1  0  0  0  0
 39 40  1  0  0  0  0
 39 69  1  0  0  0  0
M  END
$$$$
