CHEMBL1974870
 OpenBabel04072215363D

 49 52  0  0  1  0  0  0  0  0999 V2000
    0.1638   -1.0707    3.6163 C   0  0  0  0  0  0  0  0  0  0  0  0
    0.0536   -1.1800    2.1416 C   0  0  0  0  0  0  0  0  0  0  0  0
   -0.7825   -2.0654    1.5842 N   0  0  0  0  0  0  0  0  0  0  0  0
   -0.6188   -1.8722    0.2634 N   0  0  0  0  0  0  0  0  0  0  0  0
    0.2810   -0.8913   -0.0541 C   0  0  0  0  0  0  0  0  0  0  0  0
    0.7168   -0.3849   -1.2782 C   0  0  0  0  0  0  0  0  0  0  0  0
    1.6639    0.6509   -1.2397 C   0  0  0  0  0  0  0  0  0  0  0  0
    2.1848    1.1628   -0.0352 C   0  0  0  0  0  0  0  0  0  0  0  0
    3.1906    2.2511   -0.0244 C   0  0  0  0  0  0  0  0  0  0  0  0
    4.1491    2.3995   -1.0304 C   0  0  0  0  0  0  0  0  0  0  0  0
    5.0962    3.3679   -1.0689 N   0  0  0  0  0  0  0  0  0  0  0  0
    5.1081    4.2381   -0.0351 C   0  0  0  0  0  0  0  0  0  0  0  0
    4.2196    4.1980    1.0298 C   0  0  0  0  0  0  0  0  0  0  0  0
    4.3875    5.1478    1.9954 O   0  0  0  0  0  0  0  0  0  0  0  0
    3.4952    5.0969    3.1152 C   0  0  0  0  0  0  0  0  0  0  0  0
    3.8349    6.2555    4.0799 C   0  0  3  0  0  0  0  0  0  0  0  0
    3.7050    7.5477    3.3771 N   0  0  0  0  0  0  0  0  0  0  0  0
    2.9301    6.1686    5.3278 C   0  0  0  0  0  0  0  0  0  0  0  0
    3.1851    7.2341    6.3684 C   0  0  0  0  0  0  0  0  0  0  0  0
    4.1303    7.0388    7.3859 C   0  0  0  0  0  0  0  0  0  0  0  0
    4.3569    8.0334    8.3413 C   0  0  0  0  0  0  0  0  0  0  0  0
    3.6487    9.2337    8.2840 C   0  0  0  0  0  0  0  0  0  0  0  0
    2.7148    9.4358    7.2722 C   0  0  0  0  0  0  0  0  0  0  0  0
    1.8419   10.9173    7.1948 Cl  0  0  0  0  0  0  0  0  0  0  0  0
    2.4809    8.4451    6.3210 C   0  0  0  0  0  0  0  0  0  0  0  0
    3.2473    3.1985    1.0149 C   0  0  0  0  0  0  0  0  0  0  0  0
    1.7153    0.6026    1.1737 C   0  0  0  0  0  0  0  0  0  0  0  0
    0.7496   -0.4218    1.1632 C   0  0  0  0  0  0  0  0  0  0  0  0
   -0.5016   -1.7750    4.1257 H   0  0  0  0  0  0  0  0  0  0  0  0
   -0.1007   -0.0597    3.9431 H   0  0  0  0  0  0  0  0  0  0  0  0
    1.1893   -1.2786    3.9380 H   0  0  0  0  0  0  0  0  0  0  0  0
   -1.1590   -2.4448   -0.3744 H   0  0  0  0  0  0  0  0  0  0  0  0
    0.3397   -0.7621   -2.2233 H   0  0  0  0  0  0  0  0  0  0  0  0
    1.9835    1.0654   -2.1953 H   0  0  0  0  0  0  0  0  0  0  0  0
    4.2018    1.7101   -1.8693 H   0  0  0  0  0  0  0  0  0  0  0  0
    5.8823    4.9988   -0.0836 H   0  0  0  0  0  0  0  0  0  0  0  0
    3.6136    4.1405    3.6397 H   0  0  0  0  0  0  0  0  0  0  0  0
    2.4582    5.2041    2.7702 H   0  0  0  0  0  0  0  0  0  0  0  0
    4.8858    6.1642    4.3827 H   0  0  0  0  0  0  0  0  0  0  0  0
    2.7543    7.6652    3.0304 H   0  0  0  0  0  0  0  0  0  0  0  0
    4.2945    7.5112    2.5422 H   0  0  0  0  0  0  0  0  0  0  0  0
    3.0598    5.1855    5.8010 H   0  0  0  0  0  0  0  0  0  0  0  0
    1.8724    6.2072    5.0309 H   0  0  0  0  0  0  0  0  0  0  0  0
    4.6966    6.1123    7.4420 H   0  0  0  0  0  0  0  0  0  0  0  0
    5.0908    7.8742    9.1274 H   0  0  0  0  0  0  0  0  0  0  0  0
    3.8318   10.0057    9.0263 H   0  0  0  0  0  0  0  0  0  0  0  0
    1.7563    8.6213    5.5289 H   0  0  0  0  0  0  0  0  0  0  0  0
    2.5107    3.1444    1.8085 H   0  0  0  0  0  0  0  0  0  0  0  0
    2.0946    0.9402    2.1332 H   0  0  0  0  0  0  0  0  0  0  0  0
  1  2  1  0  0  0  0
  1 29  1  0  0  0  0
  1 30  1  0  0  0  0
  1 31  1  0  0  0  0
  2  3  2  0  0  0  0
  2 28  1  0  0  0  0
  3  4  1  0  0  0  0
  4  5  1  0  0  0  0
  4 32  1  0  0  0  0
  5  6  1  0  0  0  0
  5 28  2  0  0  0  0
  6  7  2  0  0  0  0
  6 33  1  0  0  0  0
  7  8  1  0  0  0  0
  7 34  1  0  0  0  0
  8  9  1  0  0  0  0
  8 27  2  0  0  0  0
  9 10  1  0  0  0  0
  9 26  2  0  0  0  0
 10 11  2  0  0  0  0
 10 35  1  0  0  0  0
 11 12  1  0  0  0  0
 12 13  2  0  0  0  0
 12 36  1  0  0  0  0
 13 14  1  0  0  0  0
 13 26  1  0  0  0  0
 14 15  1  0  0  0  0
 15 16  1  0  0  0  0
 15 37  1  0  0  0  0
 15 38  1  0  0  0  0
 16 17  1  0  0  0  0
 16 18  1  0  0  0  0
 16 39  1  0  0  0  0
 17 40  1  0  0  0  0
 17 41  1  0  0  0  0
 18 19  1  0  0  0  0
 18 42  1  0  0  0  0
 18 43  1  0  0  0  0
 19 20  1  0  0  0  0
 19 25  2  0  0  0  0
 20 21  2  0  0  0  0
 20 44  1  0  0  0  0
 21 22  1  0  0  0  0
 21 45  1  0  0  0  0
 22 23  2  0  0  0  0
 22 46  1  0  0  0  0
 23 24  1  0  0  0  0
 23 25  1  0  0  0  0
 25 47  1  0  0  0  0
 26 48  1  0  0  0  0
 27 28  1  0  0  0  0
 27 49  1  0  0  0  0
M  END
$$$$
