CHEMBL3397933
 OpenBabel04072215363D

 52 54  0  0  0  0  0  0  0  0999 V2000
    0.2815   -0.9869   -3.7042 C   0  0  0  0  0  0  0  0  0  0  0  0
    1.6615   -1.0199   -4.1886 N   0  0  0  0  0  0  0  0  0  0  0  0
    1.9229    0.1530   -5.0262 C   0  0  0  0  0  0  0  0  0  0  0  0
    2.5998   -1.1166   -3.0507 C   0  0  0  0  0  0  0  0  0  0  0  0
    4.0679   -1.2050   -3.4897 C   0  0  0  0  0  0  0  0  0  0  0  0
    4.9187   -1.3511   -2.3529 O   0  0  0  0  0  0  0  0  0  0  0  0
    6.2609   -1.3910   -2.6313 C   0  0  0  0  0  0  0  0  0  0  0  0
    7.0733   -1.5265   -1.5093 C   0  0  0  0  0  0  0  0  0  0  0  0
    8.4611   -1.6106   -1.6468 C   0  0  0  0  0  0  0  0  0  0  0  0
    9.0678   -1.5725   -2.9078 C   0  0  0  0  0  0  0  0  0  0  0  0
   10.4598   -1.7051   -3.1015 N   0  0  0  0  0  0  0  0  0  0  0  0
   11.3368   -2.2013   -2.1485 C   0  0  0  0  0  0  0  0  0  0  0  0
   11.0018   -2.6778   -1.0639 O   0  0  0  0  0  0  0  0  0  0  0  0
   12.7827   -2.2024   -2.4736 C   0  0  0  0  0  0  0  0  0  0  0  0
   13.3788   -1.3271   -3.3808 C   0  0  0  0  0  0  0  0  0  0  0  0
   14.7667   -1.3428   -3.5328 C   0  0  0  0  0  0  0  0  0  0  0  0
   15.5533   -2.2238   -2.7785 C   0  0  0  0  0  0  0  0  0  0  0  0
   14.9833   -3.1129   -1.8517 C   0  0  0  0  0  0  0  0  0  0  0  0
   15.8006   -4.0138   -1.0063 C   0  0  0  0  0  0  0  0  0  0  0  0
   15.3336   -5.2846   -0.6116 C   0  0  0  0  0  0  0  0  0  0  0  0
   16.0993   -6.1287    0.2005 C   0  0  0  0  0  0  0  0  0  0  0  0
   17.3645   -5.7316    0.6203 C   0  0  0  0  0  0  0  0  0  0  0  0
   17.8411   -4.4848    0.2376 C   0  0  0  0  0  0  0  0  0  0  0  0
   19.0828   -4.0566    0.6048 O   0  0  0  0  0  0  0  0  0  0  0  0
   17.0695   -3.6277   -0.5439 C   0  0  0  0  0  0  0  0  0  0  0  0
   13.5871   -3.0877   -1.7305 C   0  0  0  0  0  0  0  0  0  0  0  0
    8.2620   -1.3918   -4.0291 C   0  0  0  0  0  0  0  0  0  0  0  0
    6.8757   -1.3122   -3.8873 C   0  0  0  0  0  0  0  0  0  0  0  0
    6.1629   -1.1649   -5.0139 F   0  0  0  0  0  0  0  0  0  0  0  0
   -0.4182   -0.9709   -4.5477 H   0  0  0  0  0  0  0  0  0  0  0  0
    0.0854   -0.1098   -3.0773 H   0  0  0  0  0  0  0  0  0  0  0  0
    0.0523   -1.8881   -3.1256 H   0  0  0  0  0  0  0  0  0  0  0  0
    1.1790    0.2323   -5.8263 H   0  0  0  0  0  0  0  0  0  0  0  0
    2.8886    0.0687   -5.5356 H   0  0  0  0  0  0  0  0  0  0  0  0
    1.9114    1.0835   -4.4479 H   0  0  0  0  0  0  0  0  0  0  0  0
    2.3704   -2.0178   -2.4656 H   0  0  0  0  0  0  0  0  0  0  0  0
    2.4770   -0.2719   -2.3597 H   0  0  0  0  0  0  0  0  0  0  0  0
    4.3398   -0.2765   -4.0008 H   0  0  0  0  0  0  0  0  0  0  0  0
    4.1870   -2.0704   -4.1524 H   0  0  0  0  0  0  0  0  0  0  0  0
    6.6328   -1.5753   -0.5159 H   0  0  0  0  0  0  0  0  0  0  0  0
    9.0446   -1.6999   -0.7351 H   0  0  0  0  0  0  0  0  0  0  0  0
   10.8095   -1.5732   -4.0396 H   0  0  0  0  0  0  0  0  0  0  0  0
   12.7986   -0.5980   -3.9378 H   0  0  0  0  0  0  0  0  0  0  0  0
   15.2478   -0.6509   -4.2200 H   0  0  0  0  0  0  0  0  0  0  0  0
   16.6324   -2.1973   -2.9194 H   0  0  0  0  0  0  0  0  0  0  0  0
   14.3574   -5.6417   -0.9351 H   0  0  0  0  0  0  0  0  0  0  0  0
   15.7033   -7.0965    0.4979 H   0  0  0  0  0  0  0  0  0  0  0  0
   17.9535   -6.3964    1.2433 H   0  0  0  0  0  0  0  0  0  0  0  0
   19.5559   -4.8023    1.0083 H   0  0  0  0  0  0  0  0  0  0  0  0
   17.4723   -2.6462   -0.7791 H   0  0  0  0  0  0  0  0  0  0  0  0
   13.1006   -3.7394   -1.0071 H   0  0  0  0  0  0  0  0  0  0  0  0
    8.6776   -1.3416   -5.0294 H   0  0  0  0  0  0  0  0  0  0  0  0
  1  2  1  0  0  0  0
  1 30  1  0  0  0  0
  1 31  1  0  0  0  0
  1 32  1  0  0  0  0
  2  3  1  0  0  0  0
  2  4  1  0  0  0  0
  3 33  1  0  0  0  0
  3 34  1  0  0  0  0
  3 35  1  0  0  0  0
  4  5  1  0  0  0  0
  4 36  1  0  0  0  0
  4 37  1  0  0  0  0
  5  6  1  0  0  0  0
  5 38  1  0  0  0  0
  5 39  1  0  0  0  0
  6  7  1  0  0  0  0
  7  8  1  0  0  0  0
  7 28  2  0  0  0  0
  8  9  2  0  0  0  0
  8 40  1  0  0  0  0
  9 10  1  0  0  0  0
  9 41  1  0  0  0  0
 10 11  1  0  0  0  0
 10 27  2  0  0  0  0
 11 12  1  0  0  0  0
 11 42  1  0  0  0  0
 12 13  2  0  0  0  0
 12 14  1  0  0  0  0
 14 15  1  0  0  0  0
 14 26  2  0  0  0  0
 15 16  2  0  0  0  0
 15 43  1  0  0  0  0
 16 17  1  0  0  0  0
 16 44  1  0  0  0  0
 17 18  2  0  0  0  0
 17 45  1  0  0  0  0
 18 19  1  0  0  0  0
 18 26  1  0  0  0  0
 19 20  1  0  0  0  0
 19 25  2  0  0  0  0
 20 21  2  0  0  0  0
 20 46  1  0  0  0  0
 21 22  1  0  0  0  0
 21 47  1  0  0  0  0
 22 23  2  0  0  0  0
 22 48  1  0  0  0  0
 23 24  1  0  0  0  0
 23 25  1  0  0  0  0
 24 49  1  0  0  0  0
 25 50  1  0  0  0  0
 26 51  1  0  0  0  0
 27 28  1  0  0  0  0
 27 52  1  0  0  0  0
 28 29  1  0  0  0  0
M  END
$$$$
