CHEMBL373001
 OpenBabel04072215373D

 32 34  0  0  0  0  0  0  0  0999 V2000
    1.0955   -0.0327   -0.0619 C   0  0  0  0  0  0  0  0  0  0  0  0
    2.5753   -0.0378   -0.0449 C   0  0  0  0  0  0  0  0  0  0  0  0
    3.2605   -1.2055   -0.0259 N   0  0  0  0  0  0  0  0  0  0  0  0
    4.5721   -0.8302   -0.0177 N   0  0  0  0  0  0  0  0  0  0  0  0
    4.7049    0.5111   -0.0292 C   0  0  0  0  0  0  0  0  0  0  0  0
    5.9224    1.6295   -0.0315 S   0  0  0  0  0  0  0  0  0  0  0  0
    4.7286    2.9203   -0.0618 C   0  0  0  0  0  0  0  0  0  0  0  0
    5.1254    4.3246   -0.0817 C   0  0  0  0  0  0  0  0  0  0  0  0
    4.3085    5.2406   -0.0998 O   0  0  0  0  0  0  0  0  0  0  0  0
    6.4849    4.5606   -0.0789 N   0  0  0  0  0  0  0  0  0  0  0  0
    7.0614    5.8845   -0.0741 C   0  0  0  0  0  0  0  0  0  0  0  0
    7.9212    6.1299   -1.2895 C   0  0  0  0  0  0  0  0  0  0  0  0
    7.3607    6.0762   -2.5743 C   0  0  0  0  0  0  0  0  0  0  0  0
    8.1293    6.3752   -3.7007 C   0  0  0  0  0  0  0  0  0  0  0  0
    9.4673    6.7351   -3.5571 C   0  0  0  0  0  0  0  0  0  0  0  0
   10.0408    6.7844   -2.2882 C   0  0  0  0  0  0  0  0  0  0  0  0
    9.2735    6.4818   -1.1598 C   0  0  0  0  0  0  0  0  0  0  0  0
    3.4204    2.4119   -0.0622 C   0  0  0  0  0  0  0  0  0  0  0  0
    3.4744    1.0225   -0.0464 C   0  0  0  0  0  0  0  0  0  0  0  0
    0.6919   -1.0515   -0.0633 H   0  0  0  0  0  0  0  0  0  0  0  0
    0.7238    0.4762   -0.9564 H   0  0  0  0  0  0  0  0  0  0  0  0
    0.7029    0.4823    0.8203 H   0  0  0  0  0  0  0  0  0  0  0  0
    5.2878   -1.5482   -0.0060 H   0  0  0  0  0  0  0  0  0  0  0  0
    7.1087    3.7657   -0.0709 H   0  0  0  0  0  0  0  0  0  0  0  0
    7.6621    5.9538    0.8396 H   0  0  0  0  0  0  0  0  0  0  0  0
    6.2868    6.6565   -0.0168 H   0  0  0  0  0  0  0  0  0  0  0  0
    6.3107    5.8164   -2.7000 H   0  0  0  0  0  0  0  0  0  0  0  0
    7.6783    6.3405   -4.6891 H   0  0  0  0  0  0  0  0  0  0  0  0
   10.0601    6.9850   -4.4337 H   0  0  0  0  0  0  0  0  0  0  0  0
   11.0834    7.0724   -2.1770 H   0  0  0  0  0  0  0  0  0  0  0  0
    9.7385    6.5420   -0.1781 H   0  0  0  0  0  0  0  0  0  0  0  0
    2.5350    3.0357   -0.0757 H   0  0  0  0  0  0  0  0  0  0  0  0
  1  2  1  0  0  0  0
  1 20  1  0  0  0  0
  1 21  1  0  0  0  0
  1 22  1  0  0  0  0
  2  3  2  0  0  0  0
  2 19  1  0  0  0  0
  3  4  1  0  0  0  0
  4  5  1  0  0  0  0
  4 23  1  0  0  0  0
  5  6  1  0  0  0  0
  5 19  2  0  0  0  0
  6  7  1  0  0  0  0
  7  8  1  0  0  0  0
  7 18  2  0  0  0  0
  8  9  2  0  0  0  0
  8 10  1  0  0  0  0
 10 11  1  0  0  0  0
 10 24  1  0  0  0  0
 11 12  1  0  0  0  0
 11 25  1  0  0  0  0
 11 26  1  0  0  0  0
 12 13  1  0  0  0  0
 12 17  2  0  0  0  0
 13 14  2  0  0  0  0
 13 27  1  0  0  0  0
 14 15  1  0  0  0  0
 14 28  1  0  0  0  0
 15 16  2  0  0  0  0
 15 29  1  0  0  0  0
 16 17  1  0  0  0  0
 16 30  1  0  0  0  0
 17 31  1  0  0  0  0
 18 19  1  0  0  0  0
 18 32  1  0  0  0  0
M  END
$$$$
