CHEMBL1242748
 OpenBabel04072215363D

 37 40  0  0  1  0  0  0  0  0999 V2000
    5.8123   -9.0126   -0.8497 N   0  0  0  0  0  0  0  0  0  0  0  0
    6.1726   -7.7332   -1.1809 C   0  0  0  0  0  0  0  0  0  0  0  0
    6.6564   -7.5797   -2.4312 N   0  0  0  0  0  0  0  0  0  0  0  0
    6.9595   -6.3473   -2.8629 C   0  0  0  0  0  0  0  0  0  0  0  0
    6.8503   -5.1906   -2.1922 N   0  0  0  0  0  0  0  0  0  0  0  0
    6.4158   -5.3779   -0.9354 C   0  0  0  0  0  0  0  0  0  0  0  0
    6.0796   -6.5940   -0.3585 C   0  0  0  0  0  0  0  0  0  0  0  0
    5.7346   -6.2641    0.9941 C   0  0  0  0  0  0  0  0  0  0  0  0
    5.3704   -7.1681    2.0884 C   0  0  0  0  0  0  0  0  0  0  0  0
    4.4306   -6.7866    3.0552 C   0  0  0  0  0  0  0  0  0  0  0  0
    3.9968   -7.7045    4.0188 C   0  0  0  0  0  0  0  0  0  0  0  0
    4.4834   -9.0004    3.9926 C   0  0  0  0  0  0  0  0  0  0  0  0
    4.0255   -9.9081    4.8720 F   0  0  0  0  0  0  0  0  0  0  0  0
    5.4451   -9.3744    3.0687 C   0  0  0  0  0  0  0  0  0  0  0  0
    5.9138  -10.6572    2.9843 O   0  0  0  0  0  0  0  0  0  0  0  0
    5.9405   -8.4448    2.1671 C   0  0  0  0  0  0  0  0  0  0  0  0
    5.7679   -4.9372    1.1950 N   0  0  0  0  0  0  0  0  0  0  0  0
    6.2260   -4.4231    0.0280 N   0  0  0  0  0  0  0  0  0  0  0  0
    6.4646   -2.9970   -0.0154 C   0  0  1  0  0  0  0  0  0  0  0  0
    7.4860   -2.5518    1.0186 C   0  0  0  0  0  0  0  0  0  0  0  0
    7.8799   -1.1762    0.5354 C   0  0  0  0  0  0  0  0  0  0  0  0
    7.6855   -1.1486   -0.8832 O   0  0  0  0  0  0  0  0  0  0  0  0
    7.0378   -2.3745   -1.2796 C   0  0  0  0  0  0  0  0  0  0  0  0
    6.1398   -9.7383   -1.4742 H   0  0  0  0  0  0  0  0  0  0  0  0
    5.3998   -9.2798    0.0292 H   0  0  0  0  0  0  0  0  0  0  0  0
    7.3331   -6.2830   -3.8813 H   0  0  0  0  0  0  0  0  0  0  0  0
    4.0215   -5.7764    3.0569 H   0  0  0  0  0  0  0  0  0  0  0  0
    3.2710   -7.4142    4.7720 H   0  0  0  0  0  0  0  0  0  0  0  0
    5.4444  -11.1767    3.6642 H   0  0  0  0  0  0  0  0  0  0  0  0
    6.7520   -8.7402    1.5075 H   0  0  0  0  0  0  0  0  0  0  0  0
    5.5010   -2.5152    0.2027 H   0  0  0  0  0  0  0  0  0  0  0  0
    8.3578   -3.2176    1.0072 H   0  0  0  0  0  0  0  0  0  0  0  0
    7.0952   -2.5358    2.0406 H   0  0  0  0  0  0  0  0  0  0  0  0
    8.9225   -0.9412    0.7699 H   0  0  0  0  0  0  0  0  0  0  0  0
    7.2436   -0.4018    0.9752 H   0  0  0  0  0  0  0  0  0  0  0  0
    7.8078   -2.9828   -1.7598 H   0  0  0  0  0  0  0  0  0  0  0  0
    6.2634   -2.1397   -2.0171 H   0  0  0  0  0  0  0  0  0  0  0  0
  1  2  1  0  0  0  0
  1 24  1  0  0  0  0
  1 25  1  0  0  0  0
  2  3  1  0  0  0  0
  2  7  2  0  0  0  0
  3  4  2  0  0  0  0
  4  5  1  0  0  0  0
  4 26  1  0  0  0  0
  5  6  2  0  0  0  0
  6  7  1  0  0  0  0
  6 18  1  0  0  0  0
  7  8  1  0  0  0  0
  8  9  1  0  0  0  0
  8 17  2  0  0  0  0
  9 10  1  0  0  0  0
  9 16  2  0  0  0  0
 10 11  2  0  0  0  0
 10 27  1  0  0  0  0
 11 12  1  0  0  0  0
 11 28  1  0  0  0  0
 12 13  1  0  0  0  0
 12 14  2  0  0  0  0
 14 15  1  0  0  0  0
 14 16  1  0  0  0  0
 15 29  1  0  0  0  0
 16 30  1  0  0  0  0
 17 18  1  0  0  0  0
 19 20  1  0  0  0  0
 19 23  1  0  0  0  0
 19 18  1  0  0  0  0
 19 31  1  1  0  0  0
 20 21  1  0  0  0  0
 20 32  1  0  0  0  0
 20 33  1  0  0  0  0
 21 22  1  0  0  0  0
 21 34  1  0  0  0  0
 21 35  1  0  0  0  0
 22 23  1  0  0  0  0
 23 36  1  0  0  0  0
 23 37  1  0  0  0  0
M  END
$$$$
