CHEMBL220391
 OpenBabel04072215363D

 53 56  0  0  0  0  0  0  0  0999 V2000
    4.2048   -0.6942    4.4478 C   0  0  0  0  0  0  0  0  0  0  0  0
    5.1343   -0.6581    3.2927 C   0  0  0  0  0  0  0  0  0  0  0  0
    5.6955   -1.6749    2.5460 C   0  0  0  0  0  0  0  0  0  0  0  0
    6.4088   -1.0854    1.4625 C   0  0  0  0  0  0  0  0  0  0  0  0
    7.1117   -1.5887    0.3524 C   0  0  0  0  0  0  0  0  0  0  0  0
    7.2223   -2.9148    0.1712 F   0  0  0  0  0  0  0  0  0  0  0  0
    7.6615   -0.7109   -0.5911 C   0  0  0  0  0  0  0  0  0  0  0  0
    8.2485   -1.2928   -1.7027 O   0  0  0  0  0  0  0  0  0  0  0  0
    9.3614   -0.6862   -2.2765 C   0  0  0  0  0  0  0  0  0  0  0  0
   10.1392    0.0941   -1.4947 N   0  0  0  0  0  0  0  0  0  0  0  0
   11.1702    0.6826   -2.1039 C   0  0  0  0  0  0  0  0  0  0  0  0
   11.5012    0.5425   -3.3922 N   0  0  0  0  0  0  0  0  0  0  0  0
   10.7279   -0.2687   -4.1369 C   0  0  0  0  0  0  0  0  0  0  0  0
   11.0862   -0.3070   -5.4787 N   0  0  0  0  0  0  0  0  0  0  0  0
    9.6217   -0.9271   -3.6160 C   0  0  0  0  0  0  0  0  0  0  0  0
    8.7643   -1.8331   -4.4036 C   0  0  0  0  0  0  0  0  0  0  0  0
    8.7720   -1.8370   -5.7003 N   0  0  0  0  0  0  0  0  0  0  0  0
    7.8271   -2.7573   -6.1823 O   0  0  0  0  0  0  0  0  0  0  0  0
    7.2942   -2.2538   -7.4183 C   0  0  0  0  0  0  0  0  0  0  0  0
    8.2646   -2.5066   -8.5854 C   0  0  0  0  0  0  0  0  0  0  0  0
    7.8200   -1.9817   -9.8972 N   0  0  0  0  0  0  0  0  0  0  0  0
    8.7942   -2.3344  -10.9606 C   0  0  0  0  0  0  0  0  0  0  0  0
   10.1166   -1.5454  -10.8873 C   0  0  0  0  0  0  0  0  0  0  0  0
    9.8925   -0.1297  -10.8826 O   0  0  0  0  0  0  0  0  0  0  0  0
    9.0091    0.2489   -9.8184 C   0  0  0  0  0  0  0  0  0  0  0  0
    7.6738   -0.5068   -9.9176 C   0  0  0  0  0  0  0  0  0  0  0  0
    7.4983    0.6679   -0.4311 C   0  0  0  0  0  0  0  0  0  0  0  0
    6.8439    1.1970    0.6881 C   0  0  0  0  0  0  0  0  0  0  0  0
    6.2974    0.2972    1.6094 C   0  0  0  0  0  0  0  0  0  0  0  0
    5.5728    0.5284    2.7571 N   0  0  0  0  0  0  0  0  0  0  0  0
    3.9327   -1.7232    4.7025 H   0  0  0  0  0  0  0  0  0  0  0  0
    3.2828   -0.1542    4.2060 H   0  0  0  0  0  0  0  0  0  0  0  0
    4.6555   -0.2286    5.3292 H   0  0  0  0  0  0  0  0  0  0  0  0
    5.5632   -2.7361    2.7200 H   0  0  0  0  0  0  0  0  0  0  0  0
   11.7874    1.3438   -1.5055 H   0  0  0  0  0  0  0  0  0  0  0  0
   11.9870    0.1368   -5.6175 H   0  0  0  0  0  0  0  0  0  0  0  0
   10.9867   -1.2266   -5.9002 H   0  0  0  0  0  0  0  0  0  0  0  0
    8.0912   -2.5127   -3.8498 H   0  0  0  0  0  0  0  0  0  0  0  0
    7.0685   -1.1909   -7.2881 H   0  0  0  0  0  0  0  0  0  0  0  0
    6.3462   -2.7707   -7.6012 H   0  0  0  0  0  0  0  0  0  0  0  0
    8.3817   -3.5957   -8.6695 H   0  0  0  0  0  0  0  0  0  0  0  0
    9.2566   -2.1330   -8.3133 H   0  0  0  0  0  0  0  0  0  0  0  0
    8.3179   -2.1168  -11.9264 H   0  0  0  0  0  0  0  0  0  0  0  0
    8.9941   -3.4123  -10.9586 H   0  0  0  0  0  0  0  0  0  0  0  0
   10.7288   -1.7750  -11.7655 H   0  0  0  0  0  0  0  0  0  0  0  0
   10.7038   -1.8187  -10.0037 H   0  0  0  0  0  0  0  0  0  0  0  0
    8.8292    1.3248   -9.9099 H   0  0  0  0  0  0  0  0  0  0  0  0
    9.5039    0.0814   -8.8550 H   0  0  0  0  0  0  0  0  0  0  0  0
    7.1999   -0.2412  -10.8728 H   0  0  0  0  0  0  0  0  0  0  0  0
    6.9785   -0.1624   -9.1470 H   0  0  0  0  0  0  0  0  0  0  0  0
    7.8820    1.3609   -1.1766 H   0  0  0  0  0  0  0  0  0  0  0  0
    6.7432    2.2708    0.8154 H   0  0  0  0  0  0  0  0  0  0  0  0
    5.3417    1.4468    3.1116 H   0  0  0  0  0  0  0  0  0  0  0  0
  1  2  1  0  0  0  0
  1 31  1  0  0  0  0
  1 32  1  0  0  0  0
  1 33  1  0  0  0  0
  2  3  2  0  0  0  0
  2 30  1  0  0  0  0
  3  4  1  0  0  0  0
  3 34  1  0  0  0  0
  4  5  1  0  0  0  0
  4 29  2  0  0  0  0
  5  6  1  0  0  0  0
  5  7  2  0  0  0  0
  7  8  1  0  0  0  0
  7 27  1  0  0  0  0
  8  9  1  0  0  0  0
  9 10  1  0  0  0  0
  9 15  2  0  0  0  0
 10 11  2  0  0  0  0
 11 12  1  0  0  0  0
 11 35  1  0  0  0  0
 12 13  2  0  0  0  0
 13 14  1  0  0  0  0
 13 15  1  0  0  0  0
 14 36  1  0  0  0  0
 14 37  1  0  0  0  0
 15 16  1  0  0  0  0
 16 17  2  0  0  0  0
 16 38  1  0  0  0  0
 17 18  1  0  0  0  0
 18 19  1  0  0  0  0
 19 20  1  0  0  0  0
 19 39  1  0  0  0  0
 19 40  1  0  0  0  0
 20 21  1  0  0  0  0
 20 41  1  0  0  0  0
 20 42  1  0  0  0  0
 21 22  1  0  0  0  0
 21 26  1  0  0  0  0
 22 23  1  0  0  0  0
 22 43  1  0  0  0  0
 22 44  1  0  0  0  0
 23 24  1  0  0  0  0
 23 45  1  0  0  0  0
 23 46  1  0  0  0  0
 24 25  1  0  0  0  0
 25 26  1  0  0  0  0
 25 47  1  0  0  0  0
 25 48  1  0  0  0  0
 26 49  1  0  0  0  0
 26 50  1  0  0  0  0
 27 28  2  0  0  0  0
 27 51  1  0  0  0  0
 28 29  1  0  0  0  0
 28 52  1  0  0  0  0
 29 30  1  0  0  0  0
 30 53  1  0  0  0  0
M  END
$$$$
