CHEMBL3892155
 OpenBabel04072215373D

 73 75  0  0  0  0  0  0  0  0999 V2000
    0.6530   -0.1078   -4.2831 C   0  0  0  0  0  0  0  0  0  0  0  0
    1.9533   -0.5977   -4.3846 O   0  0  0  0  0  0  0  0  0  0  0  0
    2.9373   -0.4078   -3.4571 C   0  0  0  0  0  0  0  0  0  0  0  0
    2.6793    0.3181   -2.2786 C   0  0  0  0  0  0  0  0  0  0  0  0
    3.6573    0.4781   -1.3114 C   0  0  0  0  0  0  0  0  0  0  0  0
    3.3598    1.1951   -0.1961 O   0  0  0  0  0  0  0  0  0  0  0  0
    4.2363    1.4595    0.8372 C   0  0  0  0  0  0  0  0  0  0  0  0
    4.9116   -0.1050   -1.5063 C   0  0  0  0  0  0  0  0  0  0  0  0
    5.2397   -0.8288   -2.6688 C   0  0  0  0  0  0  0  0  0  0  0  0
    6.5190   -1.5105   -2.7129 N   0  0  0  0  0  0  0  0  0  0  0  0
    6.9943   -2.1352   -1.4213 C   0  0  0  0  0  0  0  0  0  0  0  0
    6.0252   -3.2011   -0.7923 C   0  0  0  0  0  0  0  0  0  0  0  0
    6.5744   -3.8441    0.5168 C   0  0  0  0  0  0  0  0  0  0  0  0
    5.5821   -4.7529    1.1354 N   0  0  0  0  0  0  0  0  0  0  0  0
    6.0402   -5.3315    2.4197 C   0  0  0  0  0  0  0  0  0  0  0  0
    4.9528   -6.2118    3.0895 C   0  0  0  0  0  0  0  0  0  0  0  0
    3.7847   -6.2423    2.3477 F   0  0  0  0  0  0  0  0  0  0  0  0
    5.4115   -7.5115    3.2348 F   0  0  0  0  0  0  0  0  0  0  0  0
    4.6514   -5.7237    4.3511 F   0  0  0  0  0  0  0  0  0  0  0  0
    7.4215   -1.6897   -3.8627 C   0  0  0  0  0  0  0  0  0  0  0  0
    7.9143   -2.9867   -3.9384 C   0  0  0  0  0  0  0  0  0  0  0  0
    9.0192   -3.2929   -4.6396 C   0  0  0  0  0  0  0  0  0  0  0  0
    9.6824   -2.3480   -5.3529 C   0  0  0  0  0  0  0  0  0  0  0  0
   10.8480   -2.7586   -5.8225 N   0  0  0  0  0  0  0  0  0  0  0  0
   11.6120   -2.0249   -6.5955 C   0  0  0  0  0  0  0  0  0  0  0  0
   11.1472   -0.8135   -7.1005 C   0  0  0  0  0  0  0  0  0  0  0  0
   11.9257   -0.4505   -8.3991 C   0  0  0  0  0  0  0  0  0  0  0  0
   11.7486    0.5142   -9.3952 C   0  0  0  0  0  0  0  0  0  0  0  0
   12.5052    0.1808  -10.4857 N   0  0  0  0  0  0  0  0  0  0  0  0
   13.1935   -0.9186  -10.2136 N   0  0  0  0  0  0  0  0  0  0  0  0
   13.9718   -1.7360  -11.1744 C   0  0  0  0  0  0  0  0  0  0  0  0
   13.4991   -3.2310  -11.2456 C   0  0  0  0  0  0  0  0  0  0  0  0
   12.0024   -3.4498  -11.5394 C   0  0  0  0  0  0  0  0  0  0  0  0
   11.1683   -2.9310  -10.4600 N   0  0  0  0  0  0  0  0  0  0  0  0
   12.9265   -1.2808   -8.9668 C   0  0  0  0  0  0  0  0  0  0  0  0
    9.9530   -0.2919   -6.5382 N   0  0  0  0  0  0  0  0  0  0  0  0
    9.2094   -1.0485   -5.5890 C   0  0  0  0  0  0  0  0  0  0  0  0
    8.0166   -0.6745   -4.7751 C   0  0  0  0  0  0  0  0  0  0  0  0
    4.2325   -0.9695   -3.6599 C   0  0  0  0  0  0  0  0  0  0  0  0
   -0.2243   -1.8436    1.1200 Cl  0  0  0  0  0  0  0  0  0  0  0  0
    0.0538   -0.4267   -5.1599 H   0  0  0  0  0  0  0  0  0  0  0  0
    0.6604    1.0039   -4.2530 H   0  0  0  0  0  0  0  0  0  0  0  0
    0.1476   -0.4938   -3.3681 H   0  0  0  0  0  0  0  0  0  0  0  0
    1.7093    0.7596   -2.0886 H   0  0  0  0  0  0  0  0  0  0  0  0
    3.7375    2.1071    1.5845 H   0  0  0  0  0  0  0  0  0  0  0  0
    5.1302    1.9941    0.4473 H   0  0  0  0  0  0  0  0  0  0  0  0
    4.5462    0.5122    1.3290 H   0  0  0  0  0  0  0  0  0  0  0  0
    5.6436    0.0111   -0.7320 H   0  0  0  0  0  0  0  0  0  0  0  0
    7.2079   -1.3580   -0.6687 H   0  0  0  0  0  0  0  0  0  0  0  0
    7.9814   -2.6288   -1.5380 H   0  0  0  0  0  0  0  0  0  0  0  0
    5.8224   -4.0163   -1.5206 H   0  0  0  0  0  0  0  0  0  0  0  0
    5.0634   -2.7103   -0.5414 H   0  0  0  0  0  0  0  0  0  0  0  0
    6.8310   -3.0490    1.2448 H   0  0  0  0  0  0  0  0  0  0  0  0
    7.5106   -4.4232    0.2977 H   0  0  0  0  0  0  0  0  0  0  0  0
    5.3848   -5.5442    0.4739 H   0  0  0  0  0  0  0  0  0  0  0  0
    6.3153   -4.5181    3.1261 H   0  0  0  0  0  0  0  0  0  0  0  0
    6.9564   -5.9445    2.2652 H   0  0  0  0  0  0  0  0  0  0  0  0
    7.4925   -3.7834   -3.3516 H   0  0  0  0  0  0  0  0  0  0  0  0
    9.4187   -4.2964   -4.5817 H   0  0  0  0  0  0  0  0  0  0  0  0
   12.5082   -2.5086   -6.8698 H   0  0  0  0  0  0  0  0  0  0  0  0
   11.0563    1.3408   -9.4018 H   0  0  0  0  0  0  0  0  0  0  0  0
   15.0458   -1.7620  -10.8787 H   0  0  0  0  0  0  0  0  0  0  0  0
   13.9025   -1.2933  -12.1884 H   0  0  0  0  0  0  0  0  0  0  0  0
   13.7427   -3.7620  -10.2991 H   0  0  0  0  0  0  0  0  0  0  0  0
   14.0788   -3.7485  -12.0470 H   0  0  0  0  0  0  0  0  0  0  0  0
   11.8070   -4.5437  -11.6350 H   0  0  0  0  0  0  0  0  0  0  0  0
   11.7256   -2.9656  -12.4985 H   0  0  0  0  0  0  0  0  0  0  0  0
   11.3959   -3.4416   -9.5747 H   0  0  0  0  0  0  0  0  0  0  0  0
   10.1624   -3.1025  -10.6794 H   0  0  0  0  0  0  0  0  0  0  0  0
   13.3788   -2.1883   -8.5886 H   0  0  0  0  0  0  0  0  0  0  0  0
    7.6583    0.3508   -4.7706 H   0  0  0  0  0  0  0  0  0  0  0  0
    4.4149   -1.5659   -4.5479 H   0  0  0  0  0  0  0  0  0  0  0  0
    1.1372   -1.7803    0.9348 H   0  0  0  0  0  0  0  0  0  0  0  0
  1  2  1  0  0  0  0
  1 41  1  0  0  0  0
  1 42  1  0  0  0  0
  1 43  1  0  0  0  0
  2  3  1  0  0  0  0
  3  4  1  0  0  0  0
  3 39  2  0  0  0  0
  4  5  2  0  0  0  0
  4 44  1  0  0  0  0
  5  6  1  0  0  0  0
  5  8  1  0  0  0  0
  6  7  1  0  0  0  0
  7 45  1  0  0  0  0
  7 46  1  0  0  0  0
  7 47  1  0  0  0  0
  8  9  2  0  0  0  0
  8 48  1  0  0  0  0
  9 10  1  0  0  0  0
  9 39  1  0  0  0  0
 10 11  1  0  0  0  0
 10 20  1  0  0  0  0
 11 12  1  0  0  0  0
 11 49  1  0  0  0  0
 11 50  1  0  0  0  0
 12 13  1  0  0  0  0
 12 51  1  0  0  0  0
 12 52  1  0  0  0  0
 13 14  1  0  0  0  0
 13 53  1  0  0  0  0
 13 54  1  0  0  0  0
 14 15  1  0  0  0  0
 14 55  1  0  0  0  0
 15 16  1  0  0  0  0
 15 56  1  0  0  0  0
 15 57  1  0  0  0  0
 16 17  1  0  0  0  0
 16 18  1  0  0  0  0
 16 19  1  0  0  0  0
 20 21  1  0  0  0  0
 20 38  2  0  0  0  0
 21 22  2  0  0  0  0
 21 58  1  0  0  0  0
 22 23  1  0  0  0  0
 22 59  1  0  0  0  0
 23 24  1  0  0  0  0
 23 37  2  0  0  0  0
 24 25  2  0  0  0  0
 25 26  1  0  0  0  0
 25 60  1  0  0  0  0
 26 27  1  0  0  0  0
 26 36  2  0  0  0  0
 27 28  1  0  0  0  0
 27 35  2  0  0  0  0
 28 29  2  0  0  0  0
 28 61  1  0  0  0  0
 29 30  1  0  0  0  0
 30 31  1  0  0  0  0
 30 35  1  0  0  0  0
 31 32  1  0  0  0  0
 31 62  1  0  0  0  0
 31 63  1  0  0  0  0
 32 33  1  0  0  0  0
 32 64  1  0  0  0  0
 32 65  1  0  0  0  0
 33 34  1  0  0  0  0
 33 66  1  0  0  0  0
 33 67  1  0  0  0  0
 34 68  1  0  0  0  0
 34 69  1  0  0  0  0
 35 70  1  0  0  0  0
 36 37  1  0  0  0  0
 37 38  1  0  0  0  0
 38 71  1  0  0  0  0
 39 72  1  0  0  0  0
 40 73  1  0  0  0  0
M  END
$$$$
