CHEMBL1242569
 OpenBabel04072215363D

 43 45  0  0  0  0  0  0  0  0999 V2000
    3.4699   -2.1729   -3.4052 C   0  0  0  0  0  0  0  0  0  0  0  0
    4.6651   -1.7431   -2.9767 C   0  0  0  0  0  0  0  0  0  0  0  0
    5.1132   -1.7628   -1.5412 C   0  0  0  0  0  0  0  0  0  0  0  0
    5.4712   -0.4382   -1.0515 N   0  0  0  0  0  0  0  0  0  0  0  0
    6.7466   -0.0028   -1.1444 N   0  0  0  0  0  0  0  0  0  0  0  0
    6.7388    1.1937   -0.5246 C   0  0  0  0  0  0  0  0  0  0  0  0
    7.9924    1.9381   -0.3570 C   0  0  0  0  0  0  0  0  0  0  0  0
    8.2200    2.7211    0.7741 C   0  0  0  0  0  0  0  0  0  0  0  0
    9.3922    3.4700    0.9070 C   0  0  0  0  0  0  0  0  0  0  0  0
   10.4048    3.3992   -0.0557 C   0  0  0  0  0  0  0  0  0  0  0  0
   11.5667    4.1120    0.0393 O   0  0  0  0  0  0  0  0  0  0  0  0
   11.7917    4.9130    1.1958 C   0  0  0  0  0  0  0  0  0  0  0  0
   13.2036    5.4607    1.0996 C   0  0  0  0  0  0  0  0  0  0  0  0
   10.2198    2.5621   -1.1707 C   0  0  0  0  0  0  0  0  0  0  0  0
   11.0881    2.3243   -2.2068 O   0  0  0  0  0  0  0  0  0  0  0  0
   12.4134    2.8272   -2.1166 C   0  0  0  0  0  0  0  0  0  0  0  0
    9.0113    1.8555   -1.3144 C   0  0  0  0  0  0  0  0  0  0  0  0
    5.4148    1.5410   -0.0908 C   0  0  0  0  0  0  0  0  0  0  0  0
    4.7452    2.6004    0.5422 C   0  0  0  0  0  0  0  0  0  0  0  0
    5.3167    3.8163    0.9088 N   0  0  0  0  0  0  0  0  0  0  0  0
    3.4296    2.4695    0.8168 N   0  0  0  0  0  0  0  0  0  0  0  0
    2.8075    1.3305    0.4634 C   0  0  0  0  0  0  0  0  0  0  0  0
    3.3291    0.2684   -0.1662 N   0  0  0  0  0  0  0  0  0  0  0  0
    4.6383    0.4415   -0.4208 C   0  0  0  0  0  0  0  0  0  0  0  0
    3.2112   -2.1361   -4.4594 H   0  0  0  0  0  0  0  0  0  0  0  0
    2.7219   -2.5634   -2.7211 H   0  0  0  0  0  0  0  0  0  0  0  0
    5.3823   -1.3602   -3.7001 H   0  0  0  0  0  0  0  0  0  0  0  0
    6.0001   -2.3987   -1.4391 H   0  0  0  0  0  0  0  0  0  0  0  0
    4.3425   -2.1661   -0.8749 H   0  0  0  0  0  0  0  0  0  0  0  0
    7.4943    2.7603    1.5828 H   0  0  0  0  0  0  0  0  0  0  0  0
    9.4792    4.0970    1.7883 H   0  0  0  0  0  0  0  0  0  0  0  0
   11.7071    4.3129    2.1090 H   0  0  0  0  0  0  0  0  0  0  0  0
   11.0788    5.7450    1.2206 H   0  0  0  0  0  0  0  0  0  0  0  0
   13.9288    4.6404    1.0690 H   0  0  0  0  0  0  0  0  0  0  0  0
   13.4331    6.1046    1.9528 H   0  0  0  0  0  0  0  0  0  0  0  0
   13.3328    6.0328    0.1750 H   0  0  0  0  0  0  0  0  0  0  0  0
   12.9764    2.4363   -2.9700 H   0  0  0  0  0  0  0  0  0  0  0  0
   12.9195    2.4773   -1.2106 H   0  0  0  0  0  0  0  0  0  0  0  0
   12.4243    3.9183   -2.2000 H   0  0  0  0  0  0  0  0  0  0  0  0
    8.8786    1.2205   -2.1898 H   0  0  0  0  0  0  0  0  0  0  0  0
    6.0337    4.1491    0.2775 H   0  0  0  0  0  0  0  0  0  0  0  0
    4.5905    4.4861    1.1358 H   0  0  0  0  0  0  0  0  0  0  0  0
    1.7545    1.2660    0.7203 H   0  0  0  0  0  0  0  0  0  0  0  0
  1  2  2  0  0  0  0
  1 25  1  0  0  0  0
  1 26  1  0  0  0  0
  2  3  1  0  0  0  0
  2 27  1  0  0  0  0
  3  4  1  0  0  0  0
  3 28  1  0  0  0  0
  3 29  1  0  0  0  0
  4  5  1  0  0  0  0
  4 24  1  0  0  0  0
  5  6  2  0  0  0  0
  6  7  1  0  0  0  0
  6 18  1  0  0  0  0
  7  8  1  0  0  0  0
  7 17  2  0  0  0  0
  8  9  2  0  0  0  0
  8 30  1  0  0  0  0
  9 10  1  0  0  0  0
  9 31  1  0  0  0  0
 10 11  1  0  0  0  0
 10 14  2  0  0  0  0
 11 12  1  0  0  0  0
 12 13  1  0  0  0  0
 12 32  1  0  0  0  0
 12 33  1  0  0  0  0
 13 34  1  0  0  0  0
 13 35  1  0  0  0  0
 13 36  1  0  0  0  0
 14 15  1  0  0  0  0
 14 17  1  0  0  0  0
 15 16  1  0  0  0  0
 16 37  1  0  0  0  0
 16 38  1  0  0  0  0
 16 39  1  0  0  0  0
 17 40  1  0  0  0  0
 18 19  1  0  0  0  0
 18 24  2  0  0  0  0
 19 20  1  0  0  0  0
 19 21  2  0  0  0  0
 20 41  1  0  0  0  0
 20 42  1  0  0  0  0
 21 22  1  0  0  0  0
 22 23  2  0  0  0  0
 22 43  1  0  0  0  0
 23 24  1  0  0  0  0
M  END
$$$$
