CHEMBL47962
 OpenBabel04072215383D

 43 46  0  0  0  0  0  0  0  0999 V2000
   -2.5015   -5.2701   -3.6936 C   0  0  0  0  0  0  0  0  0  0  0  0
   -2.5143   -4.4968   -2.4132 C   0  0  0  0  0  0  0  0  0  0  0  0
   -3.6947   -4.0361   -1.8326 C   0  0  0  0  0  0  0  0  0  0  0  0
   -3.6587   -3.3288   -0.6240 C   0  0  0  0  0  0  0  0  0  0  0  0
   -4.9251   -2.8359    0.0123 C   0  0  0  0  0  0  0  0  0  0  0  0
   -2.4235   -3.1029    0.0084 C   0  0  0  0  0  0  0  0  0  0  0  0
   -1.2254   -3.5828   -0.5393 C   0  0  0  0  0  0  0  0  0  0  0  0
   -0.0308   -3.4398    0.1777 N   0  0  0  0  0  0  0  0  0  0  0  0
    1.1855   -4.1094    0.0746 C   0  0  0  0  0  0  0  0  0  0  0  0
    1.4736   -4.8991   -0.9673 N   0  0  0  0  0  0  0  0  0  0  0  0
    2.6613   -5.5192   -0.9887 C   0  0  0  0  0  0  0  0  0  0  0  0
    3.5897   -5.3965    0.0096 C   0  0  0  0  0  0  0  0  0  0  0  0
    3.2350   -4.5530    1.0386 C   0  0  0  0  0  0  0  0  0  0  0  0
    4.1595   -4.3028    2.0911 N   0  0  0  0  0  0  0  0  0  0  0  0
    5.1603   -5.1658    2.4944 C   0  0  0  0  0  0  0  0  0  0  0  0
    5.7416   -4.5874    3.5910 C   0  0  0  0  0  0  0  0  0  0  0  0
    5.1586   -3.3832    3.8622 N   0  0  0  0  0  0  0  0  0  0  0  0
    4.2213   -3.1926    2.9433 C   0  0  0  0  0  0  0  0  0  0  0  0
    3.4254   -1.9642    2.8669 C   0  0  0  0  0  0  0  0  0  0  0  0
    3.0132   -1.3450    1.7011 C   0  0  0  0  0  0  0  0  0  0  0  0
    2.2335   -0.2400    1.6497 N   0  0  0  0  0  0  0  0  0  0  0  0
    1.8976    0.2841    2.8353 C   0  0  0  0  0  0  0  0  0  0  0  0
    2.2846   -0.1749    4.0335 N   0  0  0  0  0  0  0  0  0  0  0  0
    3.0548   -1.2889    4.0140 C   0  0  0  0  0  0  0  0  0  0  0  0
    2.0455   -3.9160    1.0816 N   0  0  0  0  0  0  0  0  0  0  0  0
   -1.2993   -4.2520   -1.7659 C   0  0  0  0  0  0  0  0  0  0  0  0
   -3.5115   -5.4163   -4.0891 H   0  0  0  0  0  0  0  0  0  0  0  0
   -2.0571   -6.2580   -3.5293 H   0  0  0  0  0  0  0  0  0  0  0  0
   -1.9122   -4.7384   -4.4488 H   0  0  0  0  0  0  0  0  0  0  0  0
   -4.6468   -4.2347   -2.3171 H   0  0  0  0  0  0  0  0  0  0  0  0
   -5.8012   -3.0801   -0.5978 H   0  0  0  0  0  0  0  0  0  0  0  0
   -4.8916   -1.7482    0.1307 H   0  0  0  0  0  0  0  0  0  0  0  0
   -5.0600   -3.3027    0.9934 H   0  0  0  0  0  0  0  0  0  0  0  0
   -2.4067   -2.5675    0.9558 H   0  0  0  0  0  0  0  0  0  0  0  0
   -0.0608   -2.8894    1.0237 H   0  0  0  0  0  0  0  0  0  0  0  0
    2.8496   -6.1235   -1.8714 H   0  0  0  0  0  0  0  0  0  0  0  0
    4.5460   -5.8919   -0.0740 H   0  0  0  0  0  0  0  0  0  0  0  0
    5.3263   -6.1303    2.0354 H   0  0  0  0  0  0  0  0  0  0  0  0
    6.5389   -4.9839    4.2073 H   0  0  0  0  0  0  0  0  0  0  0  0
    3.2881   -1.7256    0.7213 H   0  0  0  0  0  0  0  0  0  0  0  0
    1.2558    1.1578    2.8220 H   0  0  0  0  0  0  0  0  0  0  0  0
    3.3754   -1.6358    4.9937 H   0  0  0  0  0  0  0  0  0  0  0  0
   -0.3932   -4.6077   -2.2489 H   0  0  0  0  0  0  0  0  0  0  0  0
  1  2  1  0  0  0  0
  1 27  1  0  0  0  0
  1 28  1  0  0  0  0
  1 29  1  0  0  0  0
  2  3  1  0  0  0  0
  2 26  2  0  0  0  0
  3  4  2  0  0  0  0
  3 30  1  0  0  0  0
  4  5  1  0  0  0  0
  4  6  1  0  0  0  0
  5 31  1  0  0  0  0
  5 32  1  0  0  0  0
  5 33  1  0  0  0  0
  6  7  2  0  0  0  0
  6 34  1  0  0  0  0
  7  8  1  0  0  0  0
  7 26  1  0  0  0  0
  8  9  1  0  0  0  0
  8 35  1  0  0  0  0
  9 10  1  0  0  0  0
  9 25  2  0  0  0  0
 10 11  2  0  0  0  0
 11 12  1  0  0  0  0
 11 36  1  0  0  0  0
 12 13  2  0  0  0  0
 12 37  1  0  0  0  0
 13 14  1  0  0  0  0
 13 25  1  0  0  0  0
 14 15  1  0  0  0  0
 14 18  1  0  0  0  0
 15 16  2  0  0  0  0
 15 38  1  0  0  0  0
 16 17  1  0  0  0  0
 16 39  1  0  0  0  0
 17 18  2  0  0  0  0
 18 19  1  0  0  0  0
 19 20  1  0  0  0  0
 19 24  2  0  0  0  0
 20 21  2  0  0  0  0
 20 40  1  0  0  0  0
 21 22  1  0  0  0  0
 22 23  2  0  0  0  0
 22 41  1  0  0  0  0
 23 24  1  0  0  0  0
 24 42  1  0  0  0  0
 26 43  1  0  0  0  0
M  END
$$$$
