CHEMBL3955447
 OpenBabel04072215373D

 55 58  0  0  1  0  0  0  0  0999 V2000
    0.9828   -0.7243   -0.7779 C   0  0  0  0  0  0  0  0  0  0  0  0
    2.3178   -0.4491   -0.3229 O   0  0  0  0  0  0  0  0  0  0  0  0
    2.8849    0.6503   -0.9042 C   0  0  0  0  0  0  0  0  0  0  0  0
    4.0472    0.3489   -1.6110 C   0  0  0  0  0  0  0  0  0  0  0  0
    4.6774    1.3066   -2.4300 C   0  0  0  0  0  0  0  0  0  0  0  0
    5.7840    1.0483   -3.2637 C   0  0  0  0  0  0  0  0  0  0  0  0
    6.3821   -0.2449   -3.2317 N   0  0  0  0  0  0  0  0  0  0  0  0
    7.5511   -0.6923   -3.8865 C   0  0  0  0  0  0  0  0  0  0  0  0
    8.6042    0.1614   -4.2284 C   0  0  0  0  0  0  0  0  0  0  0  0
    9.7469   -0.3185   -4.8760 C   0  0  0  0  0  0  0  0  0  0  0  0
    9.8766   -1.6774   -5.1533 C   0  0  0  0  0  0  0  0  0  0  0  0
   11.2984   -2.1994   -5.9815 Cl  0  0  0  0  0  0  0  0  0  0  0  0
    8.8663   -2.5528   -4.7559 C   0  0  0  0  0  0  0  0  0  0  0  0
    8.9707   -4.2619   -5.0209 Cl  0  0  0  0  0  0  0  0  0  0  0  0
    7.7209   -2.0666   -4.1145 C   0  0  0  0  0  0  0  0  0  0  0  0
    6.2807    1.9909   -4.0825 N   0  0  0  0  0  0  0  0  0  0  0  0
    5.6918    3.1835   -4.0640 C   0  0  0  0  0  0  0  0  0  0  0  0
    4.6643    3.5463   -3.2800 N   0  0  0  0  0  0  0  0  0  0  0  0
    4.1623    2.6073   -2.4709 C   0  0  0  0  0  0  0  0  0  0  0  0
    3.0933    2.9278   -1.6350 C   0  0  0  0  0  0  0  0  0  0  0  0
    2.4572    1.9777   -0.8179 C   0  0  0  0  0  0  0  0  0  0  0  0
    1.4908    2.5203   -0.0088 O   0  0  0  0  0  0  0  0  0  0  0  0
    0.8449    1.7141    0.9668 C   0  0  0  0  0  0  0  0  0  0  0  0
    1.0306    2.1655    2.4009 C   0  0  3  0  0  0  0  0  0  0  0  0
    2.5340    2.2098    2.7399 C   0  0  0  0  0  0  0  0  0  0  0  0
    2.7677    2.5509    4.1573 N   0  0  0  0  0  0  0  0  0  0  0  0
    2.2817    3.9070    4.4919 C   0  0  0  0  0  0  0  0  0  0  0  0
    2.8677    5.0360    3.6356 C   0  0  0  0  0  0  0  0  0  0  0  0
    2.3240    6.2163    4.0434 F   0  0  0  0  0  0  0  0  0  0  0  0
    2.0755    1.5151    4.9608 C   0  0  0  0  0  0  0  0  0  0  0  0
    0.5867    1.3303    4.6062 C   0  0  0  0  0  0  0  0  0  0  0  0
    0.3654    1.1651    3.2053 O   0  0  0  0  0  0  0  0  0  0  0  0
    0.4442   -1.1697    0.0676 H   0  0  0  0  0  0  0  0  0  0  0  0
    1.0048   -1.4462   -1.5954 H   0  0  0  0  0  0  0  0  0  0  0  0
    0.4322    0.1675   -1.0975 H   0  0  0  0  0  0  0  0  0  0  0  0
    4.4464   -0.6571   -1.5257 H   0  0  0  0  0  0  0  0  0  0  0  0
    5.6541   -0.9508   -3.2595 H   0  0  0  0  0  0  0  0  0  0  0  0
    8.5517    1.2232   -4.0032 H   0  0  0  0  0  0  0  0  0  0  0  0
   10.5266    0.3842   -5.1590 H   0  0  0  0  0  0  0  0  0  0  0  0
    6.9506   -2.7693   -3.8050 H   0  0  0  0  0  0  0  0  0  0  0  0
    6.0708    3.9310   -4.7518 H   0  0  0  0  0  0  0  0  0  0  0  0
    2.7401    3.9584   -1.6291 H   0  0  0  0  0  0  0  0  0  0  0  0
    1.1955    0.6975    1.0125 H   0  0  0  0  0  0  0  0  0  0  0  0
   -0.2207    1.6675    0.7185 H   0  0  0  0  0  0  0  0  0  0  0  0
    0.5443    3.1355    2.5406 H   0  0  0  0  0  0  0  0  0  0  0  0
    3.0820    2.8908    2.0807 H   0  0  0  0  0  0  0  0  0  0  0  0
    2.9785    1.2196    2.5582 H   0  0  0  0  0  0  0  0  0  0  0  0
    2.5250    4.1219    5.5382 H   0  0  0  0  0  0  0  0  0  0  0  0
    1.1886    3.9831    4.4324 H   0  0  0  0  0  0  0  0  0  0  0  0
    2.6229    4.9272    2.5750 H   0  0  0  0  0  0  0  0  0  0  0  0
    3.9524    5.1020    3.7481 H   0  0  0  0  0  0  0  0  0  0  0  0
    2.1840    1.7263    6.0291 H   0  0  0  0  0  0  0  0  0  0  0  0
    2.5936    0.5578    4.7915 H   0  0  0  0  0  0  0  0  0  0  0  0
   -0.0232    2.1673    4.9596 H   0  0  0  0  0  0  0  0  0  0  0  0
    0.2110    0.4235    5.0926 H   0  0  0  0  0  0  0  0  0  0  0  0
  1  2  1  0  0  0  0
  1 33  1  0  0  0  0
  1 34  1  0  0  0  0
  1 35  1  0  0  0  0
  2  3  1  0  0  0  0
  3  4  1  0  0  0  0
  3 21  2  0  0  0  0
  4  5  2  0  0  0  0
  4 36  1  0  0  0  0
  5  6  1  0  0  0  0
  5 19  1  0  0  0  0
  6  7  1  0  0  0  0
  6 16  2  0  0  0  0
  7  8  1  0  0  0  0
  7 37  1  0  0  0  0
  8  9  1  0  0  0  0
  8 15  2  0  0  0  0
  9 10  2  0  0  0  0
  9 38  1  0  0  0  0
 10 11  1  0  0  0  0
 10 39  1  0  0  0  0
 11 12  1  0  0  0  0
 11 13  2  0  0  0  0
 13 14  1  0  0  0  0
 13 15  1  0  0  0  0
 15 40  1  0  0  0  0
 16 17  1  0  0  0  0
 17 18  2  0  0  0  0
 17 41  1  0  0  0  0
 18 19  1  0  0  0  0
 19 20  2  0  0  0  0
 20 21  1  0  0  0  0
 20 42  1  0  0  0  0
 21 22  1  0  0  0  0
 22 23  1  0  0  0  0
 23 24  1  0  0  0  0
 23 43  1  0  0  0  0
 23 44  1  0  0  0  0
 24 25  1  0  0  0  0
 24 32  1  0  0  0  0
 24 45  1  0  0  0  0
 25 26  1  0  0  0  0
 25 46  1  0  0  0  0
 25 47  1  0  0  0  0
 26 27  1  0  0  0  0
 26 30  1  0  0  0  0
 27 28  1  0  0  0  0
 27 48  1  0  0  0  0
 27 49  1  0  0  0  0
 28 29  1  0  0  0  0
 28 50  1  0  0  0  0
 28 51  1  0  0  0  0
 30 31  1  0  0  0  0
 30 52  1  0  0  0  0
 30 53  1  0  0  0  0
 31 32  1  0  0  0  0
 31 54  1  0  0  0  0
 31 55  1  0  0  0  0
M  END
$$$$
