CHEMBL3945521
 OpenBabel04072215373D

 46 49  0  0  0  0  0  0  0  0999 V2000
    1.0261   -2.2461    2.3329 N   0  0  0  0  0  0  0  0  0  0  0  0
    2.3702   -2.2646    2.5865 C   0  0  0  0  0  0  0  0  0  0  0  0
    2.8844   -2.2039    3.6906 O   0  0  0  0  0  0  0  0  0  0  0  0
    3.1456   -2.2753    1.4074 N   0  0  0  0  0  0  0  0  0  0  0  0
    4.2786   -1.4920    1.1445 C   0  0  0  0  0  0  0  0  0  0  0  0
    4.7992   -0.4511    2.0041 C   0  0  0  0  0  0  0  0  0  0  0  0
    4.0996    0.3632    2.8739 C   0  0  0  0  0  0  0  0  0  0  0  0
    4.9287    1.2064    3.6722 C   0  0  0  0  0  0  0  0  0  0  0  0
    4.5253    2.0460    4.7073 N   0  0  0  0  0  0  0  0  0  0  0  0
    3.2484    2.0618    5.2460 C   0  0  0  0  0  0  0  0  0  0  0  0
    2.3256    1.3180    4.9350 O   0  0  0  0  0  0  0  0  0  0  0  0
    3.1122    3.0978    6.1631 N   0  0  0  0  0  0  0  0  0  0  0  0
    1.8996    3.3058    6.8534 C   0  0  0  0  0  0  0  0  0  0  0  0
    1.3644    4.5937    6.8766 C   0  0  0  0  0  0  0  0  0  0  0  0
    0.1580    4.8367    7.5312 C   0  0  0  0  0  0  0  0  0  0  0  0
   -0.4823    3.8081    8.2224 C   0  0  0  0  0  0  0  0  0  0  0  0
    0.0674    2.5171    8.2497 C   0  0  0  0  0  0  0  0  0  0  0  0
   -0.5722    1.4205    9.0655 C   0  0  0  0  0  0  0  0  0  0  0  0
   -1.6490    1.8450    9.7884 F   0  0  0  0  0  0  0  0  0  0  0  0
   -1.0200    0.3811    8.3110 F   0  0  0  0  0  0  0  0  0  0  0  0
    0.2876    0.8838    9.9768 F   0  0  0  0  0  0  0  0  0  0  0  0
    1.2477    2.2669    7.5277 C   0  0  0  0  0  0  0  0  0  0  0  0
    6.2446    1.1056    3.2768 C   0  0  0  0  0  0  0  0  0  0  0  0
    6.4666   -0.0450    2.0277 S   0  0  0  0  0  0  0  0  0  0  0  0
    4.7548   -1.8651   -0.1023 C   0  0  0  0  0  0  0  0  0  0  0  0
    3.9462   -2.9052   -0.6124 C   0  0  0  0  0  0  0  0  0  0  0  0
    3.9926   -3.6836   -1.7857 C   0  0  0  0  0  0  0  0  0  0  0  0
    3.0535   -4.7004   -1.9803 C   0  0  0  0  0  0  0  0  0  0  0  0
    2.0688   -4.9431   -1.0257 C   0  0  0  0  0  0  0  0  0  0  0  0
    1.9995   -4.1768    0.1390 C   0  0  0  0  0  0  0  0  0  0  0  0
    2.9413   -3.1447    0.3274 C   0  0  0  0  0  0  0  0  0  0  0  0
    0.4310   -2.0322    3.1233 H   0  0  0  0  0  0  0  0  0  0  0  0
    0.6654   -2.0410    1.4090 H   0  0  0  0  0  0  0  0  0  0  0  0
    3.0252    0.3090    2.9820 H   0  0  0  0  0  0  0  0  0  0  0  0
    5.2523    2.5237    5.2193 H   0  0  0  0  0  0  0  0  0  0  0  0
    3.6215    3.9289    5.9008 H   0  0  0  0  0  0  0  0  0  0  0  0
    1.8472    5.4053    6.3403 H   0  0  0  0  0  0  0  0  0  0  0  0
   -0.2823    5.8302    7.5045 H   0  0  0  0  0  0  0  0  0  0  0  0
   -1.4110    4.0211    8.7501 H   0  0  0  0  0  0  0  0  0  0  0  0
    1.6705    1.2620    7.5235 H   0  0  0  0  0  0  0  0  0  0  0  0
    7.1052    1.6338    3.6611 H   0  0  0  0  0  0  0  0  0  0  0  0
    5.6160   -1.4347   -0.5982 H   0  0  0  0  0  0  0  0  0  0  0  0
    4.7726   -3.5157   -2.5220 H   0  0  0  0  0  0  0  0  0  0  0  0
    3.1064   -5.3177   -2.8733 H   0  0  0  0  0  0  0  0  0  0  0  0
    1.3598   -5.7531   -1.1814 H   0  0  0  0  0  0  0  0  0  0  0  0
    1.2465   -4.4101    0.8868 H   0  0  0  0  0  0  0  0  0  0  0  0
  1  2  1  0  0  0  0
  1 32  1  0  0  0  0
  1 33  1  0  0  0  0
  2  3  2  0  0  0  0
  2  4  1  0  0  0  0
  4  5  1  0  0  0  0
  4 31  1  0  0  0  0
  5  6  1  0  0  0  0
  5 25  2  0  0  0  0
  6  7  2  0  0  0  0
  6 24  1  0  0  0  0
  7  8  1  0  0  0  0
  7 34  1  0  0  0  0
  8  9  1  0  0  0  0
  8 23  2  0  0  0  0
  9 10  1  0  0  0  0
  9 35  1  0  0  0  0
 10 11  2  0  0  0  0
 10 12  1  0  0  0  0
 12 13  1  0  0  0  0
 12 36  1  0  0  0  0
 13 14  1  0  0  0  0
 13 22  2  0  0  0  0
 14 15  2  0  0  0  0
 14 37  1  0  0  0  0
 15 16  1  0  0  0  0
 15 38  1  0  0  0  0
 16 17  2  0  0  0  0
 16 39  1  0  0  0  0
 17 18  1  0  0  0  0
 17 22  1  0  0  0  0
 18 19  1  0  0  0  0
 18 20  1  0  0  0  0
 18 21  1  0  0  0  0
 22 40  1  0  0  0  0
 23 24  1  0  0  0  0
 23 41  1  0  0  0  0
 25 26  1  0  0  0  0
 25 42  1  0  0  0  0
 26 27  1  0  0  0  0
 26 31  2  0  0  0  0
 27 28  2  0  0  0  0
 27 43  1  0  0  0  0
 28 29  1  0  0  0  0
 28 44  1  0  0  0  0
 29 30  2  0  0  0  0
 29 45  1  0  0  0  0
 30 31  1  0  0  0  0
 30 46  1  0  0  0  0
M  END
$$$$
