CHEMBL212932
 OpenBabel04072215363D

 73 78  0  0  0  0  0  0  0  0999 V2000
    2.0000   -0.1703   -0.9951 C   0  0  0  0  0  0  0  0  0  0  0  0
    0.5668    0.0995   -1.0684 N   0  0  0  0  0  0  0  0  0  0  0  0
   -0.2107   -1.1016   -0.7233 C   0  0  0  0  0  0  0  0  0  0  0  0
   -1.7290   -0.8181   -0.7205 C   0  0  0  0  0  0  0  0  0  0  0  0
   -2.1469    0.2563    0.2065 N   0  0  0  0  0  0  0  0  0  0  0  0
   -1.9899   -0.0806    1.6341 C   0  0  0  0  0  0  0  0  0  0  0  0
   -2.7771   -1.2939    2.0875 C   0  0  0  0  0  0  0  0  0  0  0  0
   -2.1844   -2.5845    2.0042 C   0  0  0  0  0  0  0  0  0  0  0  0
   -2.8822   -3.7458    2.3340 C   0  0  0  0  0  0  0  0  0  0  0  0
   -4.1756   -3.6054    2.7978 C   0  0  0  0  0  0  0  0  0  0  0  0
   -4.7434   -2.3101    2.9418 C   0  0  0  0  0  0  0  0  0  0  0  0
   -4.0830   -1.1576    2.5789 C   0  0  0  0  0  0  0  0  0  0  0  0
   -6.0316   -2.5186    3.5083 C   0  0  0  0  0  0  0  0  0  0  0  0
   -7.0114   -1.7698    3.9941 N   0  0  0  0  0  0  0  0  0  0  0  0
   -7.8849   -2.7118    4.4435 N   0  0  0  0  0  0  0  0  0  0  0  0
   -7.4722   -4.0164    4.2445 C   0  0  0  0  0  0  0  0  0  0  0  0
   -8.1868   -5.1817    4.6496 C   0  0  0  0  0  0  0  0  0  0  0  0
   -7.9512   -6.4793    4.2402 C   0  0  0  0  0  0  0  0  0  0  0  0
   -8.7343   -7.4226    4.9591 C   0  0  0  0  0  0  0  0  0  0  0  0
   -9.5353   -6.8140    5.9036 C   0  0  0  0  0  0  0  0  0  0  0  0
  -10.4371   -7.4720    6.8906 C   0  0  0  0  0  0  0  0  0  0  0  0
  -10.1042   -7.2833    8.3089 N   0  0  0  0  0  0  0  0  0  0  0  0
   -8.9138   -6.5475    8.7304 C   0  0  0  0  0  0  0  0  0  0  0  0
  -11.0797   -7.7692    9.1771 C   0  0  0  0  0  0  0  0  0  0  0  0
  -12.0258   -8.4217    8.7343 O   0  0  0  0  0  0  0  0  0  0  0  0
  -10.9182   -7.4323   10.4992 N   0  0  0  0  0  0  0  0  0  0  0  0
  -11.7882   -7.7731   11.5558 C   0  0  0  0  0  0  0  0  0  0  0  0
  -12.8056   -8.7196   11.4451 C   0  0  0  0  0  0  0  0  0  0  0  0
  -13.6842   -8.9402   12.5047 C   0  0  0  0  0  0  0  0  0  0  0  0
  -13.5443   -8.2388   13.7004 C   0  0  0  0  0  0  0  0  0  0  0  0
  -14.5037   -8.5292   14.6220 O   0  0  0  0  0  0  0  0  0  0  0  0
  -14.2341   -8.3729   16.0062 C   0  0  0  0  0  0  0  0  0  0  0  0
  -12.9353   -8.1619   16.2961 F   0  0  0  0  0  0  0  0  0  0  0  0
  -14.9659   -7.3462   16.4890 F   0  0  0  0  0  0  0  0  0  0  0  0
  -14.6226   -9.5021   16.6380 F   0  0  0  0  0  0  0  0  0  0  0  0
  -12.5233   -7.3041   13.8275 C   0  0  0  0  0  0  0  0  0  0  0  0
  -11.6336   -7.0889   12.7672 C   0  0  0  0  0  0  0  0  0  0  0  0
   -9.4801   -5.1078    5.7613 S   0  0  0  0  0  0  0  0  0  0  0  0
   -6.2449   -3.8942    3.6541 C   0  0  0  0  0  0  0  0  0  0  0  0
   -5.1147   -4.7405    3.1973 C   0  0  0  0  0  0  0  0  0  0  0  0
   -1.3453    1.4583   -0.1296 C   0  0  0  0  0  0  0  0  0  0  0  0
    0.1890    1.2253   -0.1931 C   0  0  0  0  0  0  0  0  0  0  0  0
    2.2697   -0.9997   -1.6587 H   0  0  0  0  0  0  0  0  0  0  0  0
    2.3234   -0.4264    0.0205 H   0  0  0  0  0  0  0  0  0  0  0  0
    2.5709    0.7019   -1.3303 H   0  0  0  0  0  0  0  0  0  0  0  0
    0.1054   -1.4878    0.2535 H   0  0  0  0  0  0  0  0  0  0  0  0
   -0.0100   -1.8931   -1.4553 H   0  0  0  0  0  0  0  0  0  0  0  0
   -2.2872   -1.7413   -0.5383 H   0  0  0  0  0  0  0  0  0  0  0  0
   -2.0259   -0.5223   -1.7370 H   0  0  0  0  0  0  0  0  0  0  0  0
   -2.3379    0.7734    2.2315 H   0  0  0  0  0  0  0  0  0  0  0  0
   -0.9409   -0.2241    1.9179 H   0  0  0  0  0  0  0  0  0  0  0  0
   -1.1628   -2.6874    1.6489 H   0  0  0  0  0  0  0  0  0  0  0  0
   -2.4218   -4.7210    2.2280 H   0  0  0  0  0  0  0  0  0  0  0  0
   -4.5635   -0.1891    2.6717 H   0  0  0  0  0  0  0  0  0  0  0  0
   -8.7377   -2.4036    4.8970 H   0  0  0  0  0  0  0  0  0  0  0  0
   -7.2271   -6.7541    3.4836 H   0  0  0  0  0  0  0  0  0  0  0  0
   -8.6859   -8.4957    4.8133 H   0  0  0  0  0  0  0  0  0  0  0  0
  -10.4345   -8.5565    6.7139 H   0  0  0  0  0  0  0  0  0  0  0  0
  -11.4661   -7.1297    6.7212 H   0  0  0  0  0  0  0  0  0  0  0  0
   -8.0952   -6.6568    8.0171 H   0  0  0  0  0  0  0  0  0  0  0  0
   -8.5471   -6.9243    9.6894 H   0  0  0  0  0  0  0  0  0  0  0  0
   -9.1843   -5.4935    8.8519 H   0  0  0  0  0  0  0  0  0  0  0  0
  -10.2529   -6.7064   10.7039 H   0  0  0  0  0  0  0  0  0  0  0  0
  -12.9528   -9.3041   10.5434 H   0  0  0  0  0  0  0  0  0  0  0  0
  -14.4858   -9.6660   12.3835 H   0  0  0  0  0  0  0  0  0  0  0  0
  -12.4006   -6.7037   14.7223 H   0  0  0  0  0  0  0  0  0  0  0  0
  -10.8360   -6.3602   12.8944 H   0  0  0  0  0  0  0  0  0  0  0  0
   -5.3817   -5.3493    2.3297 H   0  0  0  0  0  0  0  0  0  0  0  0
   -4.6895   -5.3403    4.0058 H   0  0  0  0  0  0  0  0  0  0  0  0
   -1.5649    2.2676    0.5773 H   0  0  0  0  0  0  0  0  0  0  0  0
   -1.6811    1.8259   -1.1088 H   0  0  0  0  0  0  0  0  0  0  0  0
    0.5691    1.0631    0.8234 H   0  0  0  0  0  0  0  0  0  0  0  0
    0.6587    2.1430   -0.5661 H   0  0  0  0  0  0  0  0  0  0  0  0
  1  2  1  0  0  0  0
  1 43  1  0  0  0  0
  1 44  1  0  0  0  0
  1 45  1  0  0  0  0
  2  3  1  0  0  0  0
  2 42  1  0  0  0  0
  3  4  1  0  0  0  0
  3 46  1  0  0  0  0
  3 47  1  0  0  0  0
  4  5  1  0  0  0  0
  4 48  1  0  0  0  0
  4 49  1  0  0  0  0
  5  6  1  0  0  0  0
  5 41  1  0  0  0  0
  6  7  1  0  0  0  0
  6 50  1  0  0  0  0
  6 51  1  0  0  0  0
  7  8  1  0  0  0  0
  7 12  2  0  0  0  0
  8  9  2  0  0  0  0
  8 52  1  0  0  0  0
  9 10  1  0  0  0  0
  9 53  1  0  0  0  0
 10 11  2  0  0  0  0
 10 40  1  0  0  0  0
 11 12  1  0  0  0  0
 11 13  1  0  0  0  0
 12 54  1  0  0  0  0
 13 14  2  0  0  0  0
 13 39  1  0  0  0  0
 14 15  1  0  0  0  0
 15 16  1  0  0  0  0
 15 55  1  0  0  0  0
 16 17  1  0  0  0  0
 16 39  2  0  0  0  0
 17 18  2  0  0  0  0
 17 38  1  0  0  0  0
 18 19  1  0  0  0  0
 18 56  1  0  0  0  0
 19 20  2  0  0  0  0
 19 57  1  0  0  0  0
 20 21  1  0  0  0  0
 20 38  1  0  0  0  0
 21 22  1  0  0  0  0
 21 58  1  0  0  0  0
 21 59  1  0  0  0  0
 22 23  1  0  0  0  0
 22 24  1  0  0  0  0
 23 60  1  0  0  0  0
 23 61  1  0  0  0  0
 23 62  1  0  0  0  0
 24 25  2  0  0  0  0
 24 26  1  0  0  0  0
 26 27  1  0  0  0  0
 26 63  1  0  0  0  0
 27 28  1  0  0  0  0
 27 37  2  0  0  0  0
 28 29  2  0  0  0  0
 28 64  1  0  0  0  0
 29 30  1  0  0  0  0
 29 65  1  0  0  0  0
 30 31  1  0  0  0  0
 30 36  2  0  0  0  0
 31 32  1  0  0  0  0
 32 33  1  0  0  0  0
 32 34  1  0  0  0  0
 32 35  1  0  0  0  0
 36 37  1  0  0  0  0
 36 66  1  0  0  0  0
 37 67  1  0  0  0  0
 39 40  1  0  0  0  0
 40 68  1  0  0  0  0
 40 69  1  0  0  0  0
 41 42  1  0  0  0  0
 41 70  1  0  0  0  0
 41 71  1  0  0  0  0
 42 72  1  0  0  0  0
 42 73  1  0  0  0  0
M  END
$$$$
