CHEMBL3904460
 OpenBabel04072215373D

 61 64  0  0  1  0  0  0  0  0999 V2000
    4.2493    8.4749   -1.1033 C   0  0  0  0  0  0  0  0  0  0  0  0
    4.3686    7.2892   -1.9219 N   0  0  0  0  0  0  0  0  0  0  0  0
    5.4519    6.4500   -2.0071 C   0  0  0  0  0  0  0  0  0  0  0  0
    6.6282    6.5105   -1.4669 N   0  0  0  0  0  0  0  0  0  0  0  0
    6.9817    7.5076   -0.6671 C   0  0  0  0  0  0  0  0  0  0  0  0
    7.3008    8.3670    0.0482 N   0  0  0  0  0  0  0  0  0  0  0  0
    5.1533    5.3432   -2.7774 N   0  0  0  0  0  0  0  0  0  0  0  0
    4.2813    5.3031   -3.9583 C   0  0  0  0  0  0  0  0  0  0  0  0
    3.2422    4.1752   -3.8123 C   0  0  0  0  0  0  0  0  0  0  0  0
    3.8255    2.9146   -3.4186 O   0  0  0  0  0  0  0  0  0  0  0  0
    4.6807    3.0181   -2.2463 C   0  0  3  0  0  0  0  0  0  0  0  0
    3.8457    3.3831   -1.0168 C   0  0  0  0  0  0  0  0  0  0  0  0
    4.5713    3.4871    0.2159 O   0  0  0  0  0  0  0  0  0  0  0  0
    3.8291    4.0314    1.2487 C   0  0  0  0  0  0  0  0  0  0  0  0
    2.4650    4.3649    1.0709 C   0  0  0  0  0  0  0  0  0  0  0  0
    1.6634    4.8862    2.0589 C   0  0  0  0  0  0  0  0  0  0  0  0
    0.3930    5.1507    1.7485 N   0  0  0  0  0  0  0  0  0  0  0  0
   -0.3682    5.6204    2.7343 C   0  0  0  0  0  0  0  0  0  0  0  0
    0.0451    5.8613    3.9754 N   0  0  0  0  0  0  0  0  0  0  0  0
    1.3355    5.5967    4.2671 C   0  0  0  0  0  0  0  0  0  0  0  0
    1.8094    5.8380    5.5852 N   0  0  0  0  0  0  0  0  0  0  0  0
    0.9780    6.1226    6.6842 C   0  0  0  0  0  0  0  0  0  0  0  0
    1.3629    7.0685    7.6325 C   0  0  0  0  0  0  0  0  0  0  0  0
    0.4959    7.4036    8.6743 C   0  0  0  0  0  0  0  0  0  0  0  0
   -0.7596    6.7933    8.7801 C   0  0  0  0  0  0  0  0  0  0  0  0
   -1.7958    7.3185   10.0553 Cl  0  0  0  0  0  0  0  0  0  0  0  0
   -1.1435    5.8030    7.8705 C   0  0  0  0  0  0  0  0  0  0  0  0
   -2.4813    5.1229    7.8501 C   0  0  0  0  0  0  0  0  0  0  0  0
   -0.2441    5.4587    6.8528 C   0  0  0  0  0  0  0  0  0  0  0  0
    2.2151    5.0777    3.3156 C   0  0  0  0  0  0  0  0  0  0  0  0
    3.5762    4.7388    3.5316 C   0  0  0  0  0  0  0  0  0  0  0  0
    4.3969    4.2397    2.5089 C   0  0  0  0  0  0  0  0  0  0  0  0
    5.6604    4.0305    2.9710 O   0  0  0  0  0  0  0  0  0  0  0  0
    6.7343    3.6954    2.1138 C   0  0  0  0  0  0  0  0  0  0  0  0
    5.7921    4.0428   -2.5059 C   0  0  0  0  0  0  0  0  0  0  0  0
    3.2350    8.8773   -1.1924 H   0  0  0  0  0  0  0  0  0  0  0  0
    4.9393    9.2530   -1.4416 H   0  0  0  0  0  0  0  0  0  0  0  0
    4.4164    8.2505   -0.0456 H   0  0  0  0  0  0  0  0  0  0  0  0
    3.4921    6.7874   -1.9813 H   0  0  0  0  0  0  0  0  0  0  0  0
    4.9040    5.0992   -4.8368 H   0  0  0  0  0  0  0  0  0  0  0  0
    3.7723    6.2548   -4.1433 H   0  0  0  0  0  0  0  0  0  0  0  0
    2.7337    4.0157   -4.7689 H   0  0  0  0  0  0  0  0  0  0  0  0
    2.4595    4.4519   -3.0961 H   0  0  0  0  0  0  0  0  0  0  0  0
    5.1334    2.0335   -2.0892 H   0  0  0  0  0  0  0  0  0  0  0  0
    3.0497    2.6348   -0.9114 H   0  0  0  0  0  0  0  0  0  0  0  0
    3.3860    4.3539   -1.2264 H   0  0  0  0  0  0  0  0  0  0  0  0
    1.9471    4.2242    0.1281 H   0  0  0  0  0  0  0  0  0  0  0  0
   -1.4096    5.8174    2.5080 H   0  0  0  0  0  0  0  0  0  0  0  0
    2.6289    6.4314    5.5449 H   0  0  0  0  0  0  0  0  0  0  0  0
    2.3183    7.5792    7.5521 H   0  0  0  0  0  0  0  0  0  0  0  0
    0.7967    8.1662    9.3882 H   0  0  0  0  0  0  0  0  0  0  0  0
   -3.1125    5.3772    8.7029 H   0  0  0  0  0  0  0  0  0  0  0  0
   -2.3497    4.0352    7.8495 H   0  0  0  0  0  0  0  0  0  0  0  0
   -3.0192    5.4087    6.9383 H   0  0  0  0  0  0  0  0  0  0  0  0
   -0.5266    4.6800    6.1451 H   0  0  0  0  0  0  0  0  0  0  0  0
    4.0063    4.8486    4.5268 H   0  0  0  0  0  0  0  0  0  0  0  0
    7.6327    4.1650    2.5321 H   0  0  0  0  0  0  0  0  0  0  0  0
    6.6373    4.0632    1.0930 H   0  0  0  0  0  0  0  0  0  0  0  0
    6.8913    2.6136    2.1393 H   0  0  0  0  0  0  0  0  0  0  0  0
    6.3738    3.7446   -3.3862 H   0  0  0  0  0  0  0  0  0  0  0  0
    6.4744    4.0733   -1.6505 H   0  0  0  0  0  0  0  0  0  0  0  0
  1  2  1  0  0  0  0
  1 36  1  0  0  0  0
  1 37  1  0  0  0  0
  1 38  1  0  0  0  0
  2  3  1  0  0  0  0
  2 39  1  0  0  0  0
  3  4  2  0  0  0  0
  3  7  1  0  0  0  0
  4  5  1  0  0  0  0
  5  6  3  0  0  0  0
  7  8  1  0  0  0  0
  7 35  1  0  0  0  0
  8  9  1  0  0  0  0
  8 40  1  0  0  0  0
  8 41  1  0  0  0  0
  9 10  1  0  0  0  0
  9 42  1  0  0  0  0
  9 43  1  0  0  0  0
 10 11  1  0  0  0  0
 11 12  1  0  0  0  0
 11 35  1  0  0  0  0
 11 44  1  0  0  0  0
 12 13  1  0  0  0  0
 12 45  1  0  0  0  0
 12 46  1  0  0  0  0
 13 14  1  0  0  0  0
 14 15  1  0  0  0  0
 14 32  2  0  0  0  0
 15 16  2  0  0  0  0
 15 47  1  0  0  0  0
 16 17  1  0  0  0  0
 16 30  1  0  0  0  0
 17 18  2  0  0  0  0
 18 19  1  0  0  0  0
 18 48  1  0  0  0  0
 19 20  2  0  0  0  0
 20 21  1  0  0  0  0
 20 30  1  0  0  0  0
 21 22  1  0  0  0  0
 21 49  1  0  0  0  0
 22 23  1  0  0  0  0
 22 29  2  0  0  0  0
 23 24  2  0  0  0  0
 23 50  1  0  0  0  0
 24 25  1  0  0  0  0
 24 51  1  0  0  0  0
 25 26  1  0  0  0  0
 25 27  2  0  0  0  0
 27 28  1  0  0  0  0
 27 29  1  0  0  0  0
 28 52  1  0  0  0  0
 28 53  1  0  0  0  0
 28 54  1  0  0  0  0
 29 55  1  0  0  0  0
 30 31  2  0  0  0  0
 31 32  1  0  0  0  0
 31 56  1  0  0  0  0
 32 33  1  0  0  0  0
 33 34  1  0  0  0  0
 34 57  1  0  0  0  0
 34 58  1  0  0  0  0
 34 59  1  0  0  0  0
 35 60  1  0  0  0  0
 35 61  1  0  0  0  0
M  END
$$$$
