CHEMBL3403512
 OpenBabel04072215363D

 37 40  0  0  0  0  0  0  0  0999 V2000
    1.5527    0.2371   -1.3280 C   0  0  0  0  0  0  0  0  0  0  0  0
    2.9069    0.1654   -0.6894 C   0  0  0  0  0  0  0  0  0  0  0  0
    3.5012   -1.0439   -0.6486 N   0  0  0  0  0  0  0  0  0  0  0  0
    4.7368   -1.2112   -0.0867 C   0  0  0  0  0  0  0  0  0  0  0  0
    5.2947   -2.5070   -0.1035 N   0  0  0  0  0  0  0  0  0  0  0  0
    6.7486   -2.6382   -0.1478 C   0  0  0  0  0  0  0  0  0  0  0  0
    4.5630   -3.7140    0.0551 C   0  0  0  0  0  0  0  0  0  0  0  0
    4.9934   -4.9372   -0.5216 C   0  0  0  0  0  0  0  0  0  0  0  0
    4.2996   -6.1395   -0.3256 C   0  0  0  0  0  0  0  0  0  0  0  0
    3.1682   -6.1037    0.4512 C   0  0  0  0  0  0  0  0  0  0  0  0
    2.7169   -4.9327    1.0050 C   0  0  0  0  0  0  0  0  0  0  0  0
    3.3802   -3.7356    0.8208 C   0  0  0  0  0  0  0  0  0  0  0  0
    1.5844   -5.1091    1.7385 O   0  0  0  0  0  0  0  0  0  0  0  0
    1.3671   -6.5239    1.5635 C   0  0  0  0  0  0  0  0  0  0  0  0
    2.3795   -7.1661    0.7612 O   0  0  0  0  0  0  0  0  0  0  0  0
    5.3245   -0.0558    0.4695 C   0  0  0  0  0  0  0  0  0  0  0  0
    6.5025    0.2855    1.1970 C   0  0  0  0  0  0  0  0  0  0  0  0
    6.4437    1.6388    1.4430 C   0  0  0  0  0  0  0  0  0  0  0  0
    7.3423    2.5871    2.1295 C   0  0  0  0  0  0  0  0  0  0  0  0
    5.2930    2.1544    0.9355 O   0  0  0  0  0  0  0  0  0  0  0  0
    4.6064    1.1280    0.3573 C   0  0  0  0  0  0  0  0  0  0  0  0
    3.4100    1.3070   -0.2114 N   0  0  0  0  0  0  0  0  0  0  0  0
    1.2366   -0.7455   -1.6912 H   0  0  0  0  0  0  0  0  0  0  0  0
    1.5751    0.9284   -2.1756 H   0  0  0  0  0  0  0  0  0  0  0  0
    0.8155    0.5903   -0.6010 H   0  0  0  0  0  0  0  0  0  0  0  0
    7.2678   -1.6983   -0.3525 H   0  0  0  0  0  0  0  0  0  0  0  0
    7.0759   -3.2987   -0.9567 H   0  0  0  0  0  0  0  0  0  0  0  0
    7.1229   -3.0376    0.8024 H   0  0  0  0  0  0  0  0  0  0  0  0
    5.8664   -4.9722   -1.1661 H   0  0  0  0  0  0  0  0  0  0  0  0
    4.6413   -7.0643   -0.7759 H   0  0  0  0  0  0  0  0  0  0  0  0
    2.9934   -2.8372    1.2896 H   0  0  0  0  0  0  0  0  0  0  0  0
    0.3941   -6.6722    1.0815 H   0  0  0  0  0  0  0  0  0  0  0  0
    1.3468   -7.0006    2.5502 H   0  0  0  0  0  0  0  0  0  0  0  0
    7.3007   -0.3695    1.5130 H   0  0  0  0  0  0  0  0  0  0  0  0
    8.2468    2.0808    2.4814 H   0  0  0  0  0  0  0  0  0  0  0  0
    6.8427    3.0323    2.9952 H   0  0  0  0  0  0  0  0  0  0  0  0
    7.6453    3.3903    1.4510 H   0  0  0  0  0  0  0  0  0  0  0  0
  1  2  1  0  0  0  0
  1 23  1  0  0  0  0
  1 24  1  0  0  0  0
  1 25  1  0  0  0  0
  2  3  1  0  0  0  0
  2 22  2  0  0  0  0
  3  4  2  0  0  0  0
  4  5  1  0  0  0  0
  4 16  1  0  0  0  0
  5  6  1  0  0  0  0
  5  7  1  0  0  0  0
  6 26  1  0  0  0  0
  6 27  1  0  0  0  0
  6 28  1  0  0  0  0
  7  8  1  0  0  0  0
  7 12  2  0  0  0  0
  8  9  2  0  0  0  0
  8 29  1  0  0  0  0
  9 10  1  0  0  0  0
  9 30  1  0  0  0  0
 10 11  2  0  0  0  0
 10 15  1  0  0  0  0
 11 12  1  0  0  0  0
 11 13  1  0  0  0  0
 12 31  1  0  0  0  0
 13 14  1  0  0  0  0
 14 15  1  0  0  0  0
 14 32  1  0  0  0  0
 14 33  1  0  0  0  0
 16 17  1  0  0  0  0
 16 21  2  0  0  0  0
 17 18  2  0  0  0  0
 17 34  1  0  0  0  0
 18 19  1  0  0  0  0
 18 20  1  0  0  0  0
 19 35  1  0  0  0  0
 19 36  1  0  0  0  0
 19 37  1  0  0  0  0
 20 21  1  0  0  0  0
 21 22  1  0  0  0  0
M  END
$$$$
