CHEMBL26050
 OpenBabel04072215363D

 51 54  0  0  0  0  0  0  0  0999 V2000
    0.9224   -0.4620    1.0108 C   0  0  0  0  0  0  0  0  0  0  0  0
    2.1431    0.0837    0.5474 O   0  0  0  0  0  0  0  0  0  0  0  0
    2.7617    1.1123    1.1964 C   0  0  0  0  0  0  0  0  0  0  0  0
    3.8510    1.5730    0.4172 C   0  0  0  0  0  0  0  0  0  0  0  0
    4.6722    2.6502    0.8148 C   0  0  0  0  0  0  0  0  0  0  0  0
    5.7552    3.2086    0.0691 C   0  0  0  0  0  0  0  0  0  0  0  0
    6.1647    2.6087   -1.1615 N   0  0  0  0  0  0  0  0  0  0  0  0
    6.9972    3.2100   -2.1477 C   0  0  0  0  0  0  0  0  0  0  0  0
    6.8142    4.5371   -2.5569 C   0  0  0  0  0  0  0  0  0  0  0  0
    7.6306    5.1045   -3.5447 C   0  0  0  0  0  0  0  0  0  0  0  0
    8.6456    4.3472   -4.1333 C   0  0  0  0  0  0  0  0  0  0  0  0
    9.6710    5.0659   -5.3172 Cl  0  0  0  0  0  0  0  0  0  0  0  0
    8.8267    3.0230   -3.7682 C   0  0  0  0  0  0  0  0  0  0  0  0
    8.0033    2.4627   -2.7910 C   0  0  0  0  0  0  0  0  0  0  0  0
    8.1856    1.1794   -2.4490 F   0  0  0  0  0  0  0  0  0  0  0  0
    6.4542    4.2668    0.5185 N   0  0  0  0  0  0  0  0  0  0  0  0
    6.0983    4.7504    1.7120 C   0  0  0  0  0  0  0  0  0  0  0  0
    5.1113    4.3019    2.4954 N   0  0  0  0  0  0  0  0  0  0  0  0
    4.3879    3.2669    2.0341 C   0  0  0  0  0  0  0  0  0  0  0  0
    3.3261    2.7832    2.8119 C   0  0  0  0  0  0  0  0  0  0  0  0
    2.4773    1.7211    2.4283 C   0  0  0  0  0  0  0  0  0  0  0  0
    1.4550    1.2616    3.2430 O   0  0  0  0  0  0  0  0  0  0  0  0
    0.8006    2.2246    4.1207 C   0  0  0  0  0  0  0  0  0  0  0  0
    1.3514    2.2154    5.5507 C   0  0  0  0  0  0  0  0  0  0  0  0
    0.7630    1.1556    6.4771 C   0  0  0  0  0  0  0  0  0  0  0  0
   -0.6941    1.0536    6.4820 N   0  0  0  0  0  0  0  0  0  0  0  0
   -1.0882   -0.1814    7.1873 C   0  0  0  0  0  0  0  0  0  0  0  0
   -1.3261    1.0995    5.1661 C   0  0  0  0  0  0  0  0  0  0  0  0
   -0.7248    2.0411    4.1173 C   0  0  0  0  0  0  0  0  0  0  0  0
    0.4391   -0.9288    0.1426 H   0  0  0  0  0  0  0  0  0  0  0  0
    0.2243    0.2821    1.3939 H   0  0  0  0  0  0  0  0  0  0  0  0
    1.1185   -1.2545    1.7372 H   0  0  0  0  0  0  0  0  0  0  0  0
    4.0381    1.0916   -0.5397 H   0  0  0  0  0  0  0  0  0  0  0  0
    6.4884    1.6616   -0.9585 H   0  0  0  0  0  0  0  0  0  0  0  0
    6.0222    5.1362   -2.1190 H   0  0  0  0  0  0  0  0  0  0  0  0
    7.4677    6.1340   -3.8500 H   0  0  0  0  0  0  0  0  0  0  0  0
    9.6015    2.4156   -4.2296 H   0  0  0  0  0  0  0  0  0  0  0  0
    6.6751    5.5913    2.0843 H   0  0  0  0  0  0  0  0  0  0  0  0
    3.1792    3.2860    3.7654 H   0  0  0  0  0  0  0  0  0  0  0  0
    0.9575    3.2254    3.6999 H   0  0  0  0  0  0  0  0  0  0  0  0
    1.1664    3.2010    5.9985 H   0  0  0  0  0  0  0  0  0  0  0  0
    2.4367    2.0682    5.5400 H   0  0  0  0  0  0  0  0  0  0  0  0
    1.0685    1.4190    7.5013 H   0  0  0  0  0  0  0  0  0  0  0  0
    1.2340    0.1923    6.2520 H   0  0  0  0  0  0  0  0  0  0  0  0
   -0.8925   -0.0940    8.2613 H   0  0  0  0  0  0  0  0  0  0  0  0
   -0.5394   -1.0566    6.8125 H   0  0  0  0  0  0  0  0  0  0  0  0
   -2.1568   -0.3981    7.0722 H   0  0  0  0  0  0  0  0  0  0  0  0
   -2.3571    1.4482    5.3394 H   0  0  0  0  0  0  0  0  0  0  0  0
   -1.4249    0.0985    4.7312 H   0  0  0  0  0  0  0  0  0  0  0  0
   -1.1786    3.0302    4.2716 H   0  0  0  0  0  0  0  0  0  0  0  0
   -1.0554    1.6990    3.1294 H   0  0  0  0  0  0  0  0  0  0  0  0
  1  2  1  0  0  0  0
  1 30  1  0  0  0  0
  1 31  1  0  0  0  0
  1 32  1  0  0  0  0
  2  3  1  0  0  0  0
  3  4  1  0  0  0  0
  3 21  2  0  0  0  0
  4  5  2  0  0  0  0
  4 33  1  0  0  0  0
  5  6  1  0  0  0  0
  5 19  1  0  0  0  0
  6  7  1  0  0  0  0
  6 16  2  0  0  0  0
  7  8  1  0  0  0  0
  7 34  1  0  0  0  0
  8  9  1  0  0  0  0
  8 14  2  0  0  0  0
  9 10  2  0  0  0  0
  9 35  1  0  0  0  0
 10 11  1  0  0  0  0
 10 36  1  0  0  0  0
 11 12  1  0  0  0  0
 11 13  2  0  0  0  0
 13 14  1  0  0  0  0
 13 37  1  0  0  0  0
 14 15  1  0  0  0  0
 16 17  1  0  0  0  0
 17 18  2  0  0  0  0
 17 38  1  0  0  0  0
 18 19  1  0  0  0  0
 19 20  2  0  0  0  0
 20 21  1  0  0  0  0
 20 39  1  0  0  0  0
 21 22  1  0  0  0  0
 22 23  1  0  0  0  0
 23 24  1  0  0  0  0
 23 29  1  0  0  0  0
 23 40  1  0  0  0  0
 24 25  1  0  0  0  0
 24 41  1  0  0  0  0
 24 42  1  0  0  0  0
 25 26  1  0  0  0  0
 25 43  1  0  0  0  0
 25 44  1  0  0  0  0
 26 27  1  0  0  0  0
 26 28  1  0  0  0  0
 27 45  1  0  0  0  0
 27 46  1  0  0  0  0
 27 47  1  0  0  0  0
 28 29  1  0  0  0  0
 28 48  1  0  0  0  0
 28 49  1  0  0  0  0
 29 50  1  0  0  0  0
 29 51  1  0  0  0  0
M  END
$$$$
