CHEMBL591457
 OpenBabel04072215383D

 44 46  0  0  1  0  0  0  0  0999 V2000
    4.3445    0.8130    0.9746 C   0  0  0  0  0  0  0  0  0  0  0  0
    4.1644   -0.6203    0.4597 C   0  0  3  0  0  0  0  0  0  0  0  0
    2.9000   -1.1822    0.8437 O   0  0  0  0  0  0  0  0  0  0  0  0
    2.6573   -1.3722    2.1745 C   0  0  0  0  0  0  0  0  0  0  0  0
    1.3250   -1.2651    2.5661 C   0  0  0  0  0  0  0  0  0  0  0  0
    0.9723   -1.4064    3.9127 C   0  0  0  0  0  0  0  0  0  0  0  0
    1.9210   -1.6794    4.8852 C   0  0  0  0  0  0  0  0  0  0  0  0
    1.5469   -1.7817    6.1703 N   0  0  0  0  0  0  0  0  0  0  0  0
    2.4974   -2.0726    7.0885 C   0  0  0  0  0  0  0  0  0  0  0  0
    3.8344   -2.3088    6.7958 C   0  0  0  0  0  0  0  0  0  0  0  0
    4.8664   -2.6520    7.8417 C   0  0  0  0  0  0  0  0  0  0  0  0
    4.3253   -3.4618    9.0212 C   0  0  0  0  0  0  0  0  0  0  0  0
    5.4123   -3.8352   10.0009 C   0  0  0  0  0  0  0  0  0  0  0  0
    4.9612   -4.5317   11.0844 N   0  0  0  0  0  0  0  0  0  0  0  0
    6.5958   -3.5524    9.8740 O   0  0  0  0  0  0  0  0  0  0  0  0
    4.2129   -2.1605    5.4602 C   0  0  0  0  0  0  0  0  0  0  0  0
    3.2618   -1.8410    4.4810 C   0  0  0  0  0  0  0  0  0  0  0  0
    3.6207   -1.6886    3.1298 C   0  0  0  0  0  0  0  0  0  0  0  0
    4.3216   -0.6212   -1.0617 C   0  0  0  0  0  0  0  0  0  0  0  0
    5.5936   -0.8766   -1.6327 C   0  0  0  0  0  0  0  0  0  0  0  0
    6.9957   -1.2253   -0.6736 Cl  0  0  0  0  0  0  0  0  0  0  0  0
    5.8027   -0.8220   -3.0169 C   0  0  0  0  0  0  0  0  0  0  0  0
    4.7515   -0.5122   -3.8693 C   0  0  0  0  0  0  0  0  0  0  0  0
    3.4992   -0.2470   -3.3329 C   0  0  0  0  0  0  0  0  0  0  0  0
    2.5064    0.0756   -4.1773 F   0  0  0  0  0  0  0  0  0  0  0  0
    3.2742   -0.2846   -1.9490 C   0  0  0  0  0  0  0  0  0  0  0  0
    1.6868    0.1609   -1.4163 Cl  0  0  0  0  0  0  0  0  0  0  0  0
    4.4665    0.8288    2.0621 H   0  0  0  0  0  0  0  0  0  0  0  0
    3.4708    1.4330    0.7484 H   0  0  0  0  0  0  0  0  0  0  0  0
    5.2288    1.2914    0.5393 H   0  0  0  0  0  0  0  0  0  0  0  0
    4.9390   -1.2676    0.8742 H   0  0  0  0  0  0  0  0  0  0  0  0
    0.5553   -1.0512    1.8285 H   0  0  0  0  0  0  0  0  0  0  0  0
   -0.0687   -1.3003    4.2088 H   0  0  0  0  0  0  0  0  0  0  0  0
    2.1157   -2.1081    8.1042 H   0  0  0  0  0  0  0  0  0  0  0  0
    5.3215   -1.7206    8.2012 H   0  0  0  0  0  0  0  0  0  0  0  0
    5.6704   -3.2303    7.3658 H   0  0  0  0  0  0  0  0  0  0  0  0
    3.8548   -4.3850    8.6610 H   0  0  0  0  0  0  0  0  0  0  0  0
    3.5746   -2.8851    9.5734 H   0  0  0  0  0  0  0  0  0  0  0  0
    3.9907   -4.7764   11.2224 H   0  0  0  0  0  0  0  0  0  0  0  0
    5.6359   -4.8021   11.7887 H   0  0  0  0  0  0  0  0  0  0  0  0
    5.2551   -2.2984    5.1781 H   0  0  0  0  0  0  0  0  0  0  0  0
    4.6601   -1.8284    2.8522 H   0  0  0  0  0  0  0  0  0  0  0  0
    6.7911   -1.0076   -3.4327 H   0  0  0  0  0  0  0  0  0  0  0  0
    4.9011   -0.4578   -4.9431 H   0  0  0  0  0  0  0  0  0  0  0  0
  1  2  1  0  0  0  0
  1 28  1  0  0  0  0
  1 29  1  0  0  0  0
  1 30  1  0  0  0  0
  2  3  1  0  0  0  0
  2 19  1  0  0  0  0
  2 31  1  0  0  0  0
  3  4  1  0  0  0  0
  4  5  1  0  0  0  0
  4 18  2  0  0  0  0
  5  6  2  0  0  0  0
  5 32  1  0  0  0  0
  6  7  1  0  0  0  0
  6 33  1  0  0  0  0
  7  8  1  0  0  0  0
  7 17  2  0  0  0  0
  8  9  2  0  0  0  0
  9 10  1  0  0  0  0
  9 34  1  0  0  0  0
 10 11  1  0  0  0  0
 10 16  2  0  0  0  0
 11 12  1  0  0  0  0
 11 35  1  0  0  0  0
 11 36  1  0  0  0  0
 12 13  1  0  0  0  0
 12 37  1  0  0  0  0
 12 38  1  0  0  0  0
 13 14  1  0  0  0  0
 13 15  2  0  0  0  0
 14 39  1  0  0  0  0
 14 40  1  0  0  0  0
 16 17  1  0  0  0  0
 16 41  1  0  0  0  0
 17 18  1  0  0  0  0
 18 42  1  0  0  0  0
 19 20  1  0  0  0  0
 19 26  2  0  0  0  0
 20 21  1  0  0  0  0
 20 22  2  0  0  0  0
 22 23  1  0  0  0  0
 22 43  1  0  0  0  0
 23 24  2  0  0  0  0
 23 44  1  0  0  0  0
 24 25  1  0  0  0  0
 24 26  1  0  0  0  0
 26 27  1  0  0  0  0
M  END
$$$$
