CHEMBL598377
 OpenBabel04072215383D

 56 58  0  0  0  0  0  0  0  0999 V2000
    2.4575    1.7207    0.7542 C   0  0  0  0  0  0  0  0  0  0  0  0
    2.4412    0.4149    0.1730 O   0  0  0  0  0  0  0  0  0  0  0  0
    3.0495   -0.5547    0.9266 C   0  0  0  0  0  0  0  0  0  0  0  0
    4.1678   -0.2592    1.7196 C   0  0  0  0  0  0  0  0  0  0  0  0
    4.7108   -1.1713    2.6065 C   0  0  0  0  0  0  0  0  0  0  0  0
    5.7205   -0.7552    3.3764 N   0  0  0  0  0  0  0  0  0  0  0  0
    6.1799   -1.6245    4.2768 C   0  0  0  0  0  0  0  0  0  0  0  0
    5.7332   -2.8665    4.4587 N   0  0  0  0  0  0  0  0  0  0  0  0
    4.7304   -3.2849    3.6595 C   0  0  0  0  0  0  0  0  0  0  0  0
    4.2403   -4.6079    3.8407 N   0  0  0  0  0  0  0  0  0  0  0  0
    4.5335   -5.4041    4.9715 C   0  0  0  0  0  0  0  0  0  0  0  0
    4.3969   -4.8788    6.2684 C   0  0  0  0  0  0  0  0  0  0  0  0
    4.7479   -5.6289    7.3905 C   0  0  0  0  0  0  0  0  0  0  0  0
    5.2328   -6.9184    7.2217 C   0  0  0  0  0  0  0  0  0  0  0  0
    5.5916   -7.6185    8.3079 F   0  0  0  0  0  0  0  0  0  0  0  0
    5.3483   -7.4684    5.9463 C   0  0  0  0  0  0  0  0  0  0  0  0
    5.9531   -9.0680    5.7368 Cl  0  0  0  0  0  0  0  0  0  0  0  0
    4.9909   -6.7187    4.8216 C   0  0  0  0  0  0  0  0  0  0  0  0
    4.1553   -2.4513    2.6834 C   0  0  0  0  0  0  0  0  0  0  0  0
    3.0727   -2.7866    1.8275 C   0  0  0  0  0  0  0  0  0  0  0  0
    2.5354   -1.8544    0.9299 C   0  0  0  0  0  0  0  0  0  0  0  0
    1.4647   -2.3218    0.2116 O   0  0  0  0  0  0  0  0  0  0  0  0
    1.3548   -1.8568   -1.1383 C   0  0  0  0  0  0  0  0  0  0  0  0
    0.2883   -2.6947   -1.8547 C   0  0  0  0  0  0  0  0  0  0  0  0
    0.0548   -2.1952   -3.2820 C   0  0  0  0  0  0  0  0  0  0  0  0
   -1.0610   -2.9622   -3.9990 C   0  0  0  0  0  0  0  0  0  0  0  0
   -1.2630   -2.4172   -5.4154 C   0  0  0  0  0  0  0  0  0  0  0  0
   -2.3760   -3.1519   -6.1652 C   0  0  0  0  0  0  0  0  0  0  0  0
   -2.5550   -2.6178   -7.5733 C   0  0  0  0  0  0  0  0  0  0  0  0
   -1.9137   -1.6868   -8.0542 O   0  0  0  0  0  0  0  0  0  0  0  0
   -3.5165   -3.2842   -8.2954 N   0  0  0  0  0  0  0  0  0  0  0  0
   -3.7881   -2.7682   -9.5832 O   0  0  0  0  0  0  0  0  0  0  0  0
    1.6411    2.3000    0.3150 H   0  0  0  0  0  0  0  0  0  0  0  0
    3.3980    2.2282    0.5162 H   0  0  0  0  0  0  0  0  0  0  0  0
    2.2966    1.6940    1.8394 H   0  0  0  0  0  0  0  0  0  0  0  0
    4.6227    0.7260    1.6850 H   0  0  0  0  0  0  0  0  0  0  0  0
    6.9812   -1.2876    4.9251 H   0  0  0  0  0  0  0  0  0  0  0  0
    4.3134   -5.1155    2.9642 H   0  0  0  0  0  0  0  0  0  0  0  0
    4.0286   -3.8637    6.4048 H   0  0  0  0  0  0  0  0  0  0  0  0
    4.6586   -5.2073    8.3865 H   0  0  0  0  0  0  0  0  0  0  0  0
    5.1041   -7.1524    3.8325 H   0  0  0  0  0  0  0  0  0  0  0  0
    2.6187   -3.7739    1.8814 H   0  0  0  0  0  0  0  0  0  0  0  0
    2.3166   -1.9585   -1.6566 H   0  0  0  0  0  0  0  0  0  0  0  0
    1.0254   -0.8149   -1.1557 H   0  0  0  0  0  0  0  0  0  0  0  0
   -0.6467   -2.6517   -1.2823 H   0  0  0  0  0  0  0  0  0  0  0  0
    0.5898   -3.7494   -1.8625 H   0  0  0  0  0  0  0  0  0  0  0  0
    0.9857   -2.2847   -3.8549 H   0  0  0  0  0  0  0  0  0  0  0  0
   -0.2044   -1.1296   -3.2549 H   0  0  0  0  0  0  0  0  0  0  0  0
   -1.9954   -2.8730   -3.4318 H   0  0  0  0  0  0  0  0  0  0  0  0
   -0.8086   -4.0282   -4.0454 H   0  0  0  0  0  0  0  0  0  0  0  0
   -0.3285   -2.5005   -5.9791 H   0  0  0  0  0  0  0  0  0  0  0  0
   -1.5078   -1.3478   -5.3659 H   0  0  0  0  0  0  0  0  0  0  0  0
   -3.3274   -3.0405   -5.6325 H   0  0  0  0  0  0  0  0  0  0  0  0
   -2.1405   -4.2206   -6.2305 H   0  0  0  0  0  0  0  0  0  0  0  0
   -4.2287   -3.8743   -7.8802 H   0  0  0  0  0  0  0  0  0  0  0  0
   -3.1361   -2.0361   -9.6584 H   0  0  0  0  0  0  0  0  0  0  0  0
  1  2  1  0  0  0  0
  1 33  1  0  0  0  0
  1 34  1  0  0  0  0
  1 35  1  0  0  0  0
  2  3  1  0  0  0  0
  3  4  1  0  0  0  0
  3 21  2  0  0  0  0
  4  5  2  0  0  0  0
  4 36  1  0  0  0  0
  5  6  1  0  0  0  0
  5 19  1  0  0  0  0
  6  7  2  0  0  0  0
  7  8  1  0  0  0  0
  7 37  1  0  0  0  0
  8  9  2  0  0  0  0
  9 10  1  0  0  0  0
  9 19  1  0  0  0  0
 10 11  1  0  0  0  0
 10 38  1  0  0  0  0
 11 12  1  0  0  0  0
 11 18  2  0  0  0  0
 12 13  2  0  0  0  0
 12 39  1  0  0  0  0
 13 14  1  0  0  0  0
 13 40  1  0  0  0  0
 14 15  1  0  0  0  0
 14 16  2  0  0  0  0
 16 17  1  0  0  0  0
 16 18  1  0  0  0  0
 18 41  1  0  0  0  0
 19 20  2  0  0  0  0
 20 21  1  0  0  0  0
 20 42  1  0  0  0  0
 21 22  1  0  0  0  0
 22 23  1  0  0  0  0
 23 24  1  0  0  0  0
 23 43  1  0  0  0  0
 23 44  1  0  0  0  0
 24 25  1  0  0  0  0
 24 45  1  0  0  0  0
 24 46  1  0  0  0  0
 25 26  1  0  0  0  0
 25 47  1  0  0  0  0
 25 48  1  0  0  0  0
 26 27  1  0  0  0  0
 26 49  1  0  0  0  0
 26 50  1  0  0  0  0
 27 28  1  0  0  0  0
 27 51  1  0  0  0  0
 27 52  1  0  0  0  0
 28 29  1  0  0  0  0
 28 53  1  0  0  0  0
 28 54  1  0  0  0  0
 29 30  2  0  0  0  0
 29 31  1  0  0  0  0
 31 32  1  0  0  0  0
 31 55  1  0  0  0  0
 32 56  1  0  0  0  0
M  END
$$$$
