CHEMBL249096
 OpenBabel04072215363D

 43 47  0  0  0  0  0  0  0  0999 V2000
    8.1213   -2.7973   -1.2303 C   0  0  0  0  0  0  0  0  0  0  0  0
    7.2287   -1.9636   -0.5057 O   0  0  0  0  0  0  0  0  0  0  0  0
    7.7473   -0.6404   -0.3718 C   0  0  0  0  0  0  0  0  0  0  0  0
    6.7567    0.2136    0.3675 C   0  0  0  0  0  0  0  0  0  0  0  0
    6.3214   -0.1481    1.6603 C   0  0  0  0  0  0  0  0  0  0  0  0
    5.4231    0.6435    2.3821 C   0  0  0  0  0  0  0  0  0  0  0  0
    4.9321    1.8431    1.8595 C   0  0  0  0  0  0  0  0  0  0  0  0
    5.3798    2.1973    0.5864 C   0  0  0  0  0  0  0  0  0  0  0  0
    5.1397    3.2896   -0.2066 N   0  0  0  0  0  0  0  0  0  0  0  0
    5.8282    3.1301   -1.3803 C   0  0  0  0  0  0  0  0  0  0  0  0
    5.8113    4.1300   -2.4849 C   0  0  0  0  0  0  0  0  0  0  0  0
    5.1822    5.3127   -2.3621 N   0  0  0  0  0  0  0  0  0  0  0  0
    5.4352    5.9141   -3.5461 N   0  0  0  0  0  0  0  0  0  0  0  0
    6.1706    5.1572   -4.4113 C   0  0  0  0  0  0  0  0  0  0  0  0
    6.5519    5.5059   -5.6511 N   0  0  0  0  0  0  0  0  0  0  0  0
    7.2653    4.5223   -6.2657 C   0  0  0  0  0  0  0  0  0  0  0  0
    7.6049    3.2617   -5.7471 C   0  0  0  0  0  0  0  0  0  0  0  0
    8.3722    2.2638   -6.5254 C   0  0  0  0  0  0  0  0  0  0  0  0
    9.2264    1.3443   -5.8972 C   0  0  0  0  0  0  0  0  0  0  0  0
    9.9144    0.4144   -6.6589 C   0  0  0  0  0  0  0  0  0  0  0  0
    9.8296    0.3335   -8.0007 N   0  0  0  0  0  0  0  0  0  0  0  0
    9.0122    1.2191   -8.6026 C   0  0  0  0  0  0  0  0  0  0  0  0
    8.2771    2.1794   -7.9225 C   0  0  0  0  0  0  0  0  0  0  0  0
    7.1660    2.9930   -4.4374 C   0  0  0  0  0  0  0  0  0  0  0  0
    6.4317    3.9728   -3.7491 C   0  0  0  0  0  0  0  0  0  0  0  0
    6.5071    2.0015   -1.3836 N   0  0  0  0  0  0  0  0  0  0  0  0
    6.2533    1.4158   -0.1643 C   0  0  0  0  0  0  0  0  0  0  0  0
    7.6959   -3.8034   -1.2705 H   0  0  0  0  0  0  0  0  0  0  0  0
    9.0915   -2.8479   -0.7267 H   0  0  0  0  0  0  0  0  0  0  0  0
    8.2469   -2.4296   -2.2535 H   0  0  0  0  0  0  0  0  0  0  0  0
    7.9544   -0.2239   -1.3644 H   0  0  0  0  0  0  0  0  0  0  0  0
    8.6861   -0.6682    0.1947 H   0  0  0  0  0  0  0  0  0  0  0  0
    6.6897   -1.0722    2.1041 H   0  0  0  0  0  0  0  0  0  0  0  0
    5.1038    0.3191    3.3706 H   0  0  0  0  0  0  0  0  0  0  0  0
    4.2412    2.4614    2.4218 H   0  0  0  0  0  0  0  0  0  0  0  0
    4.5661    4.0917    0.0104 H   0  0  0  0  0  0  0  0  0  0  0  0
    5.0778    6.8459   -3.7183 H   0  0  0  0  0  0  0  0  0  0  0  0
    7.5847    4.8071   -7.2671 H   0  0  0  0  0  0  0  0  0  0  0  0
    9.3687    1.3422   -4.8201 H   0  0  0  0  0  0  0  0  0  0  0  0
   10.5740   -0.3117   -6.1908 H   0  0  0  0  0  0  0  0  0  0  0  0
    8.9553    1.1362   -9.6844 H   0  0  0  0  0  0  0  0  0  0  0  0
    7.6281    2.8356   -8.4939 H   0  0  0  0  0  0  0  0  0  0  0  0
    7.3589    2.0426   -3.9491 H   0  0  0  0  0  0  0  0  0  0  0  0
  1  2  1  0  0  0  0
  1 28  1  0  0  0  0
  1 29  1  0  0  0  0
  1 30  1  0  0  0  0
  2  3  1  0  0  0  0
  3  4  1  0  0  0  0
  3 31  1  0  0  0  0
  3 32  1  0  0  0  0
  4  5  1  0  0  0  0
  4 27  2  0  0  0  0
  5  6  2  0  0  0  0
  5 33  1  0  0  0  0
  6  7  1  0  0  0  0
  6 34  1  0  0  0  0
  7  8  2  0  0  0  0
  7 35  1  0  0  0  0
  8  9  1  0  0  0  0
  8 27  1  0  0  0  0
  9 10  1  0  0  0  0
  9 36  1  0  0  0  0
 10 11  1  0  0  0  0
 10 26  2  0  0  0  0
 11 12  2  0  0  0  0
 11 25  1  0  0  0  0
 12 13  1  0  0  0  0
 13 14  1  0  0  0  0
 13 37  1  0  0  0  0
 14 15  1  0  0  0  0
 14 25  2  0  0  0  0
 15 16  2  0  0  0  0
 16 17  1  0  0  0  0
 16 38  1  0  0  0  0
 17 18  1  0  0  0  0
 17 24  2  0  0  0  0
 18 19  1  0  0  0  0
 18 23  2  0  0  0  0
 19 20  2  0  0  0  0
 19 39  1  0  0  0  0
 20 21  1  0  0  0  0
 20 40  1  0  0  0  0
 21 22  2  0  0  0  0
 22 23  1  0  0  0  0
 22 41  1  0  0  0  0
 23 42  1  0  0  0  0
 24 25  1  0  0  0  0
 24 43  1  0  0  0  0
 26 27  1  0  0  0  0
M  END
$$$$
