CHEMBL3941227
 OpenBabel04072215373D

 64 68  0  0  1  0  0  0  0  0999 V2000
    2.6254    0.5056    1.3056 C   0  0  0  0  0  0  0  0  0  0  0  0
    2.0519   -0.4651    0.4294 O   0  0  0  0  0  0  0  0  0  0  0  0
    2.9452   -1.4180    0.0077 C   0  0  0  0  0  0  0  0  0  0  0  0
    2.7003   -1.9564   -1.2416 C   0  0  0  0  0  0  0  0  0  0  0  0
    3.6255   -2.8368   -1.7829 C   0  0  0  0  0  0  0  0  0  0  0  0
    3.5330   -3.3906   -3.0304 O   0  0  0  0  0  0  0  0  0  0  0  0
    2.2010   -3.5209   -3.5080 C   0  0  0  0  0  0  0  0  0  0  0  0
    4.7994   -3.1413   -1.0866 C   0  0  0  0  0  0  0  0  0  0  0  0
    5.1236   -2.5665    0.1364 C   0  0  0  0  0  0  0  0  0  0  0  0
    6.4360   -2.7282    0.6745 N   0  0  0  0  0  0  0  0  0  0  0  0
    6.8836   -1.6433    1.6754 C   0  0  0  0  0  0  0  0  0  0  0  0
    8.2338   -1.0537    1.3625 C   0  0  0  0  0  0  0  0  0  0  0  0
    9.3229   -0.6368    1.0170 C   0  0  0  0  0  0  0  0  0  0  0  0
   10.6275   -0.2243    0.4290 C   0  0  3  0  0  0  0  0  0  0  0  0
   11.0168   -1.1710   -0.5746 O   0  0  0  0  0  0  0  0  0  0  0  0
   11.7863   -0.1010    1.4130 C   0  0  0  0  0  0  0  0  0  0  0  0
   12.6249    1.0761    0.9056 C   0  0  0  0  0  0  0  0  0  0  0  0
   12.0016    1.6078   -0.3137 N   0  0  0  0  0  0  0  0  0  0  0  0
   10.5942    1.1422   -0.2660 C   0  0  0  0  0  0  0  0  0  0  0  0
    7.4508   -3.6974    0.3064 C   0  0  0  0  0  0  0  0  0  0  0  0
    8.1224   -4.2569    1.3659 C   0  0  0  0  0  0  0  0  0  0  0  0
    9.2042   -4.9993    1.0465 C   0  0  0  0  0  0  0  0  0  0  0  0
    9.7363   -5.1585   -0.1969 C   0  0  0  0  0  0  0  0  0  0  0  0
   10.9896   -4.9912    0.0178 N   0  0  0  0  0  0  0  0  0  0  0  0
   11.6046   -6.1369    0.0499 C   0  0  0  0  0  0  0  0  0  0  0  0
   11.6190   -6.8877   -1.0482 C   0  0  0  0  0  0  0  0  0  0  0  0
   12.9695   -7.9147   -0.7513 C   0  0  0  0  0  0  0  0  0  0  0  0
   13.7488   -8.1531    0.5675 C   0  0  0  0  0  0  0  0  0  0  0  0
   14.7566   -9.0478    0.5144 N   0  0  0  0  0  0  0  0  0  0  0  0
   14.7564   -9.4632   -0.7614 N   0  0  0  0  0  0  0  0  0  0  0  0
   15.6582  -10.5683   -1.1404 C   0  0  0  0  0  0  0  0  0  0  0  0
   13.7596   -8.7810   -1.5271 C   0  0  0  0  0  0  0  0  0  0  0  0
   10.4963   -6.4031   -1.9652 N   0  0  0  0  0  0  0  0  0  0  0  0
    9.2749   -5.2779   -1.3976 C   0  0  0  0  0  0  0  0  0  0  0  0
    7.9655   -4.2067   -1.0745 C   0  0  0  0  0  0  0  0  0  0  0  0
    4.0733   -1.8369    0.7364 C   0  0  0  0  0  0  0  0  0  0  0  0
    1.9146    1.3263    1.4354 H   0  0  0  0  0  0  0  0  0  0  0  0
    3.5551    0.9297    0.9027 H   0  0  0  0  0  0  0  0  0  0  0  0
    2.7970    0.0599    2.2885 H   0  0  0  0  0  0  0  0  0  0  0  0
    1.7967   -1.6682   -1.7643 H   0  0  0  0  0  0  0  0  0  0  0  0
    2.2481   -3.9360   -4.5144 H   0  0  0  0  0  0  0  0  0  0  0  0
    1.6882   -2.5575   -3.5858 H   0  0  0  0  0  0  0  0  0  0  0  0
    1.6462   -4.2118   -2.8668 H   0  0  0  0  0  0  0  0  0  0  0  0
    5.4644   -3.8633   -1.5311 H   0  0  0  0  0  0  0  0  0  0  0  0
    6.8686   -1.9986    2.7252 H   0  0  0  0  0  0  0  0  0  0  0  0
    6.1682   -0.8058    1.6717 H   0  0  0  0  0  0  0  0  0  0  0  0
   11.0614   -2.0417   -0.1452 H   0  0  0  0  0  0  0  0  0  0  0  0
   12.4048   -1.0079    1.4305 H   0  0  0  0  0  0  0  0  0  0  0  0
   11.4472    0.0961    2.4359 H   0  0  0  0  0  0  0  0  0  0  0  0
   13.6608    0.7726    0.7062 H   0  0  0  0  0  0  0  0  0  0  0  0
   12.6643    1.8623    1.6663 H   0  0  0  0  0  0  0  0  0  0  0  0
   12.4431    1.1506   -1.1180 H   0  0  0  0  0  0  0  0  0  0  0  0
   10.2051    1.0603   -1.2891 H   0  0  0  0  0  0  0  0  0  0  0  0
    9.9849    1.8711    0.2768 H   0  0  0  0  0  0  0  0  0  0  0  0
    7.9679   -4.0475    2.4136 H   0  0  0  0  0  0  0  0  0  0  0  0
    9.8399   -5.3408    1.8615 H   0  0  0  0  0  0  0  0  0  0  0  0
   11.9867   -6.4044    0.9915 H   0  0  0  0  0  0  0  0  0  0  0  0
   13.6237   -7.7701    1.5865 H   0  0  0  0  0  0  0  0  0  0  0  0
   16.3595  -10.8708   -0.3364 H   0  0  0  0  0  0  0  0  0  0  0  0
   16.2690  -10.2810   -2.0001 H   0  0  0  0  0  0  0  0  0  0  0  0
   15.0689  -11.4588   -1.3851 H   0  0  0  0  0  0  0  0  0  0  0  0
   13.6916   -9.0467   -2.5612 H   0  0  0  0  0  0  0  0  0  0  0  0
    7.4880   -3.6149   -1.8742 H   0  0  0  0  0  0  0  0  0  0  0  0
    4.0612   -1.6290    1.8016 H   0  0  0  0  0  0  0  0  0  0  0  0
  1  2  1  0  0  0  0
  1 37  1  0  0  0  0
  1 38  1  0  0  0  0
  1 39  1  0  0  0  0
  2  3  1  0  0  0  0
  3  4  1  0  0  0  0
  3 36  2  0  0  0  0
  4  5  2  0  0  0  0
  4 40  1  0  0  0  0
  5  6  1  0  0  0  0
  5  8  1  0  0  0  0
  6  7  1  0  0  0  0
  7 41  1  0  0  0  0
  7 42  1  0  0  0  0
  7 43  1  0  0  0  0
  8  9  2  0  0  0  0
  8 44  1  0  0  0  0
  9 10  1  0  0  0  0
  9 36  1  0  0  0  0
 10 11  1  0  0  0  0
 10 20  1  0  0  0  0
 11 12  1  0  0  0  0
 11 45  1  0  0  0  0
 11 46  1  0  0  0  0
 12 13  3  0  0  0  0
 13 14  1  0  0  0  0
 14 15  1  0  0  0  0
 14 16  1  0  0  0  0
 14 19  1  0  0  0  0
 15 47  1  0  0  0  0
 16 17  1  0  0  0  0
 16 48  1  0  0  0  0
 16 49  1  0  0  0  0
 17 18  1  0  0  0  0
 17 50  1  0  0  0  0
 17 51  1  0  0  0  0
 18 19  1  0  0  0  0
 18 52  1  0  0  0  0
 19 53  1  0  0  0  0
 19 54  1  0  0  0  0
 20 21  1  0  0  0  0
 20 35  2  0  0  0  0
 21 22  2  0  0  0  0
 21 55  1  0  0  0  0
 22 23  1  0  0  0  0
 22 56  1  0  0  0  0
 23 24  1  0  0  0  0
 23 34  2  0  0  0  0
 24 25  2  0  0  0  0
 25 26  1  0  0  0  0
 25 57  1  0  0  0  0
 26 27  1  0  0  0  0
 26 33  2  0  0  0  0
 27 28  1  0  0  0  0
 27 32  2  0  0  0  0
 28 29  2  0  0  0  0
 28 58  1  0  0  0  0
 29 30  1  0  0  0  0
 30 31  1  0  0  0  0
 30 32  1  0  0  0  0
 31 59  1  0  0  0  0
 31 60  1  0  0  0  0
 31 61  1  0  0  0  0
 32 62  1  0  0  0  0
 33 34  1  0  0  0  0
 34 35  1  0  0  0  0
 35 63  1  0  0  0  0
 36 64  1  0  0  0  0
M  END
$$$$
