CHEMBL1934325
 OpenBabel04072215363D

 72 76  0  0  0  0  0  0  0  0999 V2000
    7.4777   -3.7762   -1.1959 C   0  0  0  0  0  0  0  0  0  0  0  0
    6.3890   -3.1345   -0.4552 N   0  0  0  0  0  0  0  0  0  0  0  0
    5.9712   -1.9048   -1.1432 C   0  0  0  0  0  0  0  0  0  0  0  0
    4.8114   -1.2178   -0.4185 C   0  0  0  0  0  0  0  0  0  0  0  0
    3.6132   -2.1585   -0.2465 C   0  0  0  0  0  0  0  0  0  0  0  0
    2.9659   -2.5036   -1.5906 C   0  0  0  0  0  0  0  0  0  0  0  0
    2.5466   -1.3165   -2.2795 O   0  0  0  0  0  0  0  0  0  0  0  0
    2.5013   -1.4746   -3.6420 C   0  0  0  0  0  0  0  0  0  0  0  0
    2.6671   -0.3378   -4.4210 C   0  0  0  0  0  0  0  0  0  0  0  0
    2.6935   -0.4618   -5.8105 C   0  0  0  0  0  0  0  0  0  0  0  0
    2.6126   -1.7371   -6.4300 C   0  0  0  0  0  0  0  0  0  0  0  0
    2.7387   -2.0019   -7.8046 C   0  0  0  0  0  0  0  0  0  0  0  0
    2.9147   -0.9402   -8.7213 N   0  0  0  0  0  0  0  0  0  0  0  0
    2.7233   -0.9328  -10.1184 C   0  0  0  0  0  0  0  0  0  0  0  0
    2.0240   -1.9447  -10.7626 C   0  0  0  0  0  0  0  0  0  0  0  0
    1.9429   -2.0143  -12.1521 C   0  0  0  0  0  0  0  0  0  0  0  0
    2.5487   -1.0564  -12.9581 C   0  0  0  0  0  0  0  0  0  0  0  0
    2.5489   -1.1473  -14.3758 N   0  0  0  0  0  0  0  0  0  0  0  0
    1.7524   -2.0034  -15.1177 C   0  0  0  0  0  0  0  0  0  0  0  0
    0.8572   -2.7129  -14.6742 O   0  0  0  0  0  0  0  0  0  0  0  0
    2.0558   -2.0145  -16.4626 N   0  0  0  0  0  0  0  0  0  0  0  0
    1.2904   -2.9016  -17.3589 C   0  0  0  0  0  0  0  0  0  0  0  0
    2.1490   -3.3701  -18.5425 C   0  0  0  0  0  0  0  0  0  0  0  0
    1.3516   -4.2070  -19.5445 C   0  0  0  0  0  0  0  0  0  0  0  0
    0.1178   -3.4599  -20.0353 C   0  0  0  0  0  0  0  0  0  0  0  0
   -0.7682   -3.0552  -18.8633 C   0  0  0  0  0  0  0  0  0  0  0  0
   -0.0040   -2.2206  -17.8350 C   0  0  0  0  0  0  0  0  0  0  0  0
    3.2150    0.0022  -12.3268 C   0  0  0  0  0  0  0  0  0  0  0  0
    3.2978    0.0648  -10.9142 C   0  0  0  0  0  0  0  0  0  0  0  0
    2.6422   -3.2612   -8.2798 N   0  0  0  0  0  0  0  0  0  0  0  0
    2.3814   -4.2455   -7.4203 C   0  0  0  0  0  0  0  0  0  0  0  0
    2.2586   -4.1046   -6.1006 N   0  0  0  0  0  0  0  0  0  0  0  0
    2.3924   -2.8722   -5.6312 C   0  0  0  0  0  0  0  0  0  0  0  0
    2.3114   -2.7097   -4.2622 C   0  0  0  0  0  0  0  0  0  0  0  0
    4.0894   -3.4368    0.4588 C   0  0  0  0  0  0  0  0  0  0  0  0
    5.2869   -4.0838   -0.2519 C   0  0  0  0  0  0  0  0  0  0  0  0
    8.3253   -3.0911   -1.3059 H   0  0  0  0  0  0  0  0  0  0  0  0
    7.1622   -4.0947   -2.1970 H   0  0  0  0  0  0  0  0  0  0  0  0
    7.8476   -4.6544   -0.6560 H   0  0  0  0  0  0  0  0  0  0  0  0
    5.6973   -2.1104   -2.1855 H   0  0  0  0  0  0  0  0  0  0  0  0
    6.8122   -1.2012   -1.1744 H   0  0  0  0  0  0  0  0  0  0  0  0
    4.5185   -0.3138   -0.9647 H   0  0  0  0  0  0  0  0  0  0  0  0
    5.1483   -0.8867    0.5718 H   0  0  0  0  0  0  0  0  0  0  0  0
    2.8628   -1.6536    0.3735 H   0  0  0  0  0  0  0  0  0  0  0  0
    2.0942   -3.1481   -1.4236 H   0  0  0  0  0  0  0  0  0  0  0  0
    3.6921   -3.0540   -2.1981 H   0  0  0  0  0  0  0  0  0  0  0  0
    2.7965    0.6392   -3.9635 H   0  0  0  0  0  0  0  0  0  0  0  0
    2.7846    0.4443   -6.4012 H   0  0  0  0  0  0  0  0  0  0  0  0
    3.2187   -0.0662   -8.3272 H   0  0  0  0  0  0  0  0  0  0  0  0
    1.5259   -2.7300  -10.2017 H   0  0  0  0  0  0  0  0  0  0  0  0
    1.4319   -2.8804  -12.5578 H   0  0  0  0  0  0  0  0  0  0  0  0
    3.2126   -0.5730  -14.8701 H   0  0  0  0  0  0  0  0  0  0  0  0
    2.3659   -1.1366  -16.8512 H   0  0  0  0  0  0  0  0  0  0  0  0
    1.0102   -3.7973  -16.7873 H   0  0  0  0  0  0  0  0  0  0  0  0
    2.9934   -3.9664  -18.1745 H   0  0  0  0  0  0  0  0  0  0  0  0
    2.5779   -2.5013  -19.0575 H   0  0  0  0  0  0  0  0  0  0  0  0
    1.0425   -5.1517  -19.0789 H   0  0  0  0  0  0  0  0  0  0  0  0
    1.9872   -4.4677  -20.3979 H   0  0  0  0  0  0  0  0  0  0  0  0
   -0.4488   -4.0911  -20.7301 H   0  0  0  0  0  0  0  0  0  0  0  0
    0.4252   -2.5675  -20.5943 H   0  0  0  0  0  0  0  0  0  0  0  0
   -1.1667   -3.9570  -18.3819 H   0  0  0  0  0  0  0  0  0  0  0  0
   -1.6287   -2.4866  -19.2342 H   0  0  0  0  0  0  0  0  0  0  0  0
   -0.6596   -2.0194  -16.9795 H   0  0  0  0  0  0  0  0  0  0  0  0
    0.2373   -1.2444  -18.2751 H   0  0  0  0  0  0  0  0  0  0  0  0
    3.6721    0.7973  -12.9039 H   0  0  0  0  0  0  0  0  0  0  0  0
    3.8368    0.8868  -10.4615 H   0  0  0  0  0  0  0  0  0  0  0  0
    2.2473   -5.2355   -7.8308 H   0  0  0  0  0  0  0  0  0  0  0  0
    2.1235   -3.6034   -3.6772 H   0  0  0  0  0  0  0  0  0  0  0  0
    3.2695   -4.1624    0.5245 H   0  0  0  0  0  0  0  0  0  0  0  0
    4.3749   -3.1912    1.4896 H   0  0  0  0  0  0  0  0  0  0  0  0
    4.9628   -4.5191   -1.2061 H   0  0  0  0  0  0  0  0  0  0  0  0
    5.6349   -4.9191    0.3663 H   0  0  0  0  0  0  0  0  0  0  0  0
  1  2  1  0  0  0  0
  1 37  1  0  0  0  0
  1 38  1  0  0  0  0
  1 39  1  0  0  0  0
  2  3  1  0  0  0  0
  2 36  1  0  0  0  0
  3  4  1  0  0  0  0
  3 40  1  0  0  0  0
  3 41  1  0  0  0  0
  4  5  1  0  0  0  0
  4 42  1  0  0  0  0
  4 43  1  0  0  0  0
  5  6  1  0  0  0  0
  5 35  1  0  0  0  0
  5 44  1  0  0  0  0
  6  7  1  0  0  0  0
  6 45  1  0  0  0  0
  6 46  1  0  0  0  0
  7  8  1  0  0  0  0
  8  9  1  0  0  0  0
  8 34  2  0  0  0  0
  9 10  2  0  0  0  0
  9 47  1  0  0  0  0
 10 11  1  0  0  0  0
 10 48  1  0  0  0  0
 11 12  1  0  0  0  0
 11 33  2  0  0  0  0
 12 13  1  0  0  0  0
 12 30  2  0  0  0  0
 13 14  1  0  0  0  0
 13 49  1  0  0  0  0
 14 15  1  0  0  0  0
 14 29  2  0  0  0  0
 15 16  2  0  0  0  0
 15 50  1  0  0  0  0
 16 17  1  0  0  0  0
 16 51  1  0  0  0  0
 17 18  1  0  0  0  0
 17 28  2  0  0  0  0
 18 19  1  0  0  0  0
 18 52  1  0  0  0  0
 19 20  2  0  0  0  0
 19 21  1  0  0  0  0
 21 22  1  0  0  0  0
 21 53  1  0  0  0  0
 22 23  1  0  0  0  0
 22 27  1  0  0  0  0
 22 54  1  0  0  0  0
 23 24  1  0  0  0  0
 23 55  1  0  0  0  0
 23 56  1  0  0  0  0
 24 25  1  0  0  0  0
 24 57  1  0  0  0  0
 24 58  1  0  0  0  0
 25 26  1  0  0  0  0
 25 59  1  0  0  0  0
 25 60  1  0  0  0  0
 26 27  1  0  0  0  0
 26 61  1  0  0  0  0
 26 62  1  0  0  0  0
 27 63  1  0  0  0  0
 27 64  1  0  0  0  0
 28 29  1  0  0  0  0
 28 65  1  0  0  0  0
 29 66  1  0  0  0  0
 30 31  1  0  0  0  0
 31 32  2  0  0  0  0
 31 67  1  0  0  0  0
 32 33  1  0  0  0  0
 33 34  1  0  0  0  0
 34 68  1  0  0  0  0
 35 36  1  0  0  0  0
 35 69  1  0  0  0  0
 35 70  1  0  0  0  0
 36 71  1  0  0  0  0
 36 72  1  0  0  0  0
M  END
$$$$
