CHEMBL2348998
 OpenBabel04072215363D

 53 57  0  0  0  0  0  0  0  0999 V2000
    1.8805   -1.0803   -0.0717 C   0  0  0  0  0  0  0  0  0  0  0  0
    0.4673   -0.6334   -0.1235 C   0  0  0  0  0  0  0  0  0  0  0  0
   -0.6873   -1.3117    0.1764 C   0  0  0  0  0  0  0  0  0  0  0  0
   -1.7559   -0.3987   -0.0425 C   0  0  0  0  0  0  0  0  0  0  0  0
   -3.1627   -0.7441    0.1927 C   0  0  0  0  0  0  0  0  0  0  0  0
   -3.4186   -1.8663    0.6145 O   0  0  0  0  0  0  0  0  0  0  0  0
   -4.1196    0.2284   -0.1196 N   0  0  0  0  0  0  0  0  0  0  0  0
   -5.5238    0.0350    0.0420 C   0  0  0  0  0  0  0  0  0  0  0  0
   -6.0130   -0.9821    0.8770 C   0  0  0  0  0  0  0  0  0  0  0  0
   -7.3669   -1.2726    0.9709 C   0  0  0  0  0  0  0  0  0  0  0  0
   -8.2773   -0.5232    0.2422 C   0  0  0  0  0  0  0  0  0  0  0  0
   -7.8391    0.5581   -0.5212 C   0  0  0  0  0  0  0  0  0  0  0  0
   -8.7764    1.3078   -1.2992 O   0  0  0  0  0  0  0  0  0  0  0  0
  -10.0813    1.5334   -0.8423 C   0  0  0  0  0  0  0  0  0  0  0  0
  -11.0033    1.7864   -1.9796 C   0  0  0  0  0  0  0  0  0  0  0  0
  -12.2774    2.0956   -1.6761 C   0  0  0  0  0  0  0  0  0  0  0  0
  -12.6696    2.1359   -0.3192 C   0  0  0  0  0  0  0  0  0  0  0  0
  -13.8215    2.4123    0.2437 N   0  0  0  0  0  0  0  0  0  0  0  0
  -13.6265    2.2663    1.5909 C   0  0  0  0  0  0  0  0  0  0  0  0
  -14.6187    2.4523    2.5326 N   0  0  0  0  0  0  0  0  0  0  0  0
  -15.9152    2.8000    2.2077 C   0  0  0  0  0  0  0  0  0  0  0  0
  -16.3621    2.9972    1.0858 O   0  0  0  0  0  0  0  0  0  0  0  0
  -16.8794    2.9781    3.3412 C   0  0  0  0  0  0  0  0  0  0  0  0
  -16.4868    3.6018    4.6579 C   0  0  0  0  0  0  0  0  0  0  0  0
  -16.8880    2.1544    4.6043 C   0  0  0  0  0  0  0  0  0  0  0  0
  -12.3251    1.9059    1.8545 C   0  0  0  0  0  0  0  0  0  0  0  0
  -11.7089    1.8354    0.6290 N   0  0  0  0  0  0  0  0  0  0  0  0
  -10.3977    1.5381    0.4221 N   0  0  0  0  0  0  0  0  0  0  0  0
   -6.4594    0.8359   -0.6405 C   0  0  0  0  0  0  0  0  0  0  0  0
   -1.2930    0.7893   -0.4790 N   0  0  0  0  0  0  0  0  0  0  0  0
    0.0559    0.6225   -0.4914 N   0  0  0  0  0  0  0  0  0  0  0  0
    0.9239    1.7220   -0.8488 C   0  0  0  0  0  0  0  0  0  0  0  0
    1.9463   -2.1231    0.2593 H   0  0  0  0  0  0  0  0  0  0  0  0
    2.4600   -0.4730    0.6305 H   0  0  0  0  0  0  0  0  0  0  0  0
    2.3461   -1.0166   -1.0598 H   0  0  0  0  0  0  0  0  0  0  0  0
   -0.7747   -2.3342    0.5223 H   0  0  0  0  0  0  0  0  0  0  0  0
   -3.7712    1.0594   -0.5870 H   0  0  0  0  0  0  0  0  0  0  0  0
   -5.3477   -1.5869    1.4870 H   0  0  0  0  0  0  0  0  0  0  0  0
   -7.6990   -2.0877    1.6085 H   0  0  0  0  0  0  0  0  0  0  0  0
   -9.3264   -0.8074    0.2889 H   0  0  0  0  0  0  0  0  0  0  0  0
  -10.6702    1.6875   -3.0080 H   0  0  0  0  0  0  0  0  0  0  0  0
  -13.0272    2.3064   -2.4301 H   0  0  0  0  0  0  0  0  0  0  0  0
  -14.3701    2.3153    3.4987 H   0  0  0  0  0  0  0  0  0  0  0  0
  -17.8673    3.2528    2.9707 H   0  0  0  0  0  0  0  0  0  0  0  0
  -17.1849    4.3106    5.0938 H   0  0  0  0  0  0  0  0  0  0  0  0
  -15.4500    3.8454    4.8445 H   0  0  0  0  0  0  0  0  0  0  0  0
  -17.8588    1.8868    5.0136 H   0  0  0  0  0  0  0  0  0  0  0  0
  -16.1308    1.3994    4.7678 H   0  0  0  0  0  0  0  0  0  0  0  0
  -11.7753    1.6989    2.7593 H   0  0  0  0  0  0  0  0  0  0  0  0
   -6.1299    1.6359   -1.2969 H   0  0  0  0  0  0  0  0  0  0  0  0
    0.3265    2.6000   -1.0985 H   0  0  0  0  0  0  0  0  0  0  0  0
    1.5266    1.4185   -1.7092 H   0  0  0  0  0  0  0  0  0  0  0  0
    1.5708    1.9402    0.0067 H   0  0  0  0  0  0  0  0  0  0  0  0
  1  2  1  0  0  0  0
  1 33  1  0  0  0  0
  1 34  1  0  0  0  0
  1 35  1  0  0  0  0
  2  3  2  0  0  0  0
  2 31  1  0  0  0  0
  3  4  1  0  0  0  0
  3 36  1  0  0  0  0
  4  5  1  0  0  0  0
  4 30  2  0  0  0  0
  5  6  2  0  0  0  0
  5  7  1  0  0  0  0
  7  8  1  0  0  0  0
  7 37  1  0  0  0  0
  8  9  1  0  0  0  0
  8 29  2  0  0  0  0
  9 10  2  0  0  0  0
  9 38  1  0  0  0  0
 10 11  1  0  0  0  0
 10 39  1  0  0  0  0
 11 12  2  0  0  0  0
 11 40  1  0  0  0  0
 12 13  1  0  0  0  0
 12 29  1  0  0  0  0
 13 14  1  0  0  0  0
 14 15  1  0  0  0  0
 14 28  2  0  0  0  0
 15 16  2  0  0  0  0
 15 41  1  0  0  0  0
 16 17  1  0  0  0  0
 16 42  1  0  0  0  0
 17 18  2  0  0  0  0
 17 27  1  0  0  0  0
 18 19  1  0  0  0  0
 19 20  1  0  0  0  0
 19 26  2  0  0  0  0
 20 21  1  0  0  0  0
 20 43  1  0  0  0  0
 21 22  2  0  0  0  0
 21 23  1  0  0  0  0
 23 24  1  0  0  0  0
 23 25  1  0  0  0  0
 23 44  1  0  0  0  0
 24 25  1  0  0  0  0
 24 45  1  0  0  0  0
 24 46  1  0  0  0  0
 25 47  1  0  0  0  0
 25 48  1  0  0  0  0
 26 27  1  0  0  0  0
 26 49  1  0  0  0  0
 27 28  1  0  0  0  0
 29 50  1  0  0  0  0
 30 31  1  0  0  0  0
 31 32  1  0  0  0  0
 32 51  1  0  0  0  0
 32 52  1  0  0  0  0
 32 53  1  0  0  0  0
M  END
$$$$
