CHEMBL213504
 OpenBabel04072215363D

 43 46  0  0  0  0  0  0  0  0999 V2000
    1.1785    0.0398   -1.5892 N   0  0  0  0  0  0  0  0  0  0  0  0
    2.5389   -0.0620   -1.3235 C   0  0  0  0  0  0  0  0  0  0  0  0
    3.2663    1.0123   -1.6927 N   0  0  0  0  0  0  0  0  0  0  0  0
    4.5812    1.0290   -1.4335 C   0  0  0  0  0  0  0  0  0  0  0  0
    5.2956    0.0804   -0.8298 N   0  0  0  0  0  0  0  0  0  0  0  0
    4.5412   -0.9791   -0.4977 C   0  0  0  0  0  0  0  0  0  0  0  0
    5.1840   -2.3371    0.2876 S   0  0  0  0  0  0  0  0  0  0  0  0
    3.7702   -3.1801    0.3626 N   0  0  0  0  0  0  0  0  0  0  0  0
    2.7791   -2.4621   -0.1906 C   0  0  0  0  0  0  0  0  0  0  0  0
    1.4274   -3.0507   -0.1595 C   0  0  0  0  0  0  0  0  0  0  0  0
    1.0205   -3.7732    0.9703 C   0  0  0  0  0  0  0  0  0  0  0  0
   -0.2779   -4.2818    1.0712 C   0  0  0  0  0  0  0  0  0  0  0  0
   -1.2061   -4.0653    0.0535 C   0  0  0  0  0  0  0  0  0  0  0  0
   -2.5397   -4.5174    0.1361 N   0  0  0  0  0  0  0  0  0  0  0  0
   -3.2044   -4.8065    1.3143 C   0  0  0  0  0  0  0  0  0  0  0  0
   -2.8047   -4.5103    2.4365 O   0  0  0  0  0  0  0  0  0  0  0  0
   -4.3740   -5.5077    1.0682 N   0  0  0  0  0  0  0  0  0  0  0  0
   -5.2401   -5.9053    2.1090 C   0  0  0  0  0  0  0  0  0  0  0  0
   -5.7684   -7.1951    2.0790 C   0  0  0  0  0  0  0  0  0  0  0  0
   -6.5947   -7.6371    3.1122 C   0  0  0  0  0  0  0  0  0  0  0  0
   -6.9447   -6.7711    4.1495 C   0  0  0  0  0  0  0  0  0  0  0  0
   -6.4606   -5.4561    4.1671 C   0  0  0  0  0  0  0  0  0  0  0  0
   -6.8789   -4.4875    5.2481 C   0  0  0  0  0  0  0  0  0  0  0  0
   -7.7896   -5.0066    6.1201 F   0  0  0  0  0  0  0  0  0  0  0  0
   -5.8381   -4.0566    6.0121 F   0  0  0  0  0  0  0  0  0  0  0  0
   -7.4594   -3.3648    4.7405 F   0  0  0  0  0  0  0  0  0  0  0  0
   -5.5877   -5.0368    3.1511 C   0  0  0  0  0  0  0  0  0  0  0  0
   -0.7887   -3.4114   -1.1080 C   0  0  0  0  0  0  0  0  0  0  0  0
    0.5232   -2.9250   -1.2202 C   0  0  0  0  0  0  0  0  0  0  0  0
    3.1783   -1.1540   -0.7056 C   0  0  0  0  0  0  0  0  0  0  0  0
    0.9588    0.9950   -1.8560 H   0  0  0  0  0  0  0  0  0  0  0  0
    0.5846   -0.3379   -0.8606 H   0  0  0  0  0  0  0  0  0  0  0  0
    5.1209    1.9185   -1.7451 H   0  0  0  0  0  0  0  0  0  0  0  0
    1.7105   -3.9466    1.7954 H   0  0  0  0  0  0  0  0  0  0  0  0
   -0.5328   -4.8490    1.9624 H   0  0  0  0  0  0  0  0  0  0  0  0
   -3.1370   -4.3515   -0.6623 H   0  0  0  0  0  0  0  0  0  0  0  0
   -4.3046   -6.1334    0.2778 H   0  0  0  0  0  0  0  0  0  0  0  0
   -5.5002   -7.8888    1.2870 H   0  0  0  0  0  0  0  0  0  0  0  0
   -6.9626   -8.6608    3.1134 H   0  0  0  0  0  0  0  0  0  0  0  0
   -7.6011   -7.1282    4.9416 H   0  0  0  0  0  0  0  0  0  0  0  0
   -5.1971   -4.0199    3.1706 H   0  0  0  0  0  0  0  0  0  0  0  0
   -1.4760   -3.2494   -1.9350 H   0  0  0  0  0  0  0  0  0  0  0  0
    0.8178   -2.4366   -2.1466 H   0  0  0  0  0  0  0  0  0  0  0  0
  1  2  1  0  0  0  0
  1 31  1  0  0  0  0
  1 32  1  0  0  0  0
  2  3  1  0  0  0  0
  2 30  2  0  0  0  0
  3  4  2  0  0  0  0
  4  5  1  0  0  0  0
  4 33  1  0  0  0  0
  5  6  2  0  0  0  0
  6  7  1  0  0  0  0
  6 30  1  0  0  0  0
  7  8  1  0  0  0  0
  8  9  2  0  0  0  0
  9 10  1  0  0  0  0
  9 30  1  0  0  0  0
 10 11  1  0  0  0  0
 10 29  2  0  0  0  0
 11 12  2  0  0  0  0
 11 34  1  0  0  0  0
 12 13  1  0  0  0  0
 12 35  1  0  0  0  0
 13 14  1  0  0  0  0
 13 28  2  0  0  0  0
 14 15  1  0  0  0  0
 14 36  1  0  0  0  0
 15 16  2  0  0  0  0
 15 17  1  0  0  0  0
 17 18  1  0  0  0  0
 17 37  1  0  0  0  0
 18 19  1  0  0  0  0
 18 27  2  0  0  0  0
 19 20  2  0  0  0  0
 19 38  1  0  0  0  0
 20 21  1  0  0  0  0
 20 39  1  0  0  0  0
 21 22  2  0  0  0  0
 21 40  1  0  0  0  0
 22 23  1  0  0  0  0
 22 27  1  0  0  0  0
 23 24  1  0  0  0  0
 23 25  1  0  0  0  0
 23 26  1  0  0  0  0
 27 41  1  0  0  0  0
 28 29  1  0  0  0  0
 28 42  1  0  0  0  0
 29 43  1  0  0  0  0
M  END
$$$$
