CHEMBL4170680
 OpenBabel04072215383D

 77 82  0  0  1  0  0  0  0  0999 V2000
    1.1806   -1.1746   -0.8398 C   0  0  0  0  0  0  0  0  0  0  0  0
    2.5869   -0.9743   -0.6700 O   0  0  0  0  0  0  0  0  0  0  0  0
    3.0486    0.1534   -1.2670 C   0  0  0  0  0  0  0  0  0  0  0  0
    2.3690    0.9658   -1.8741 O   0  0  0  0  0  0  0  0  0  0  0  0
    4.5253    0.2658   -1.1390 C   0  0  0  0  0  0  0  0  0  0  0  0
    5.3199   -0.6749   -0.4447 C   0  0  0  0  0  0  0  0  0  0  0  0
    6.7265   -0.5604   -0.4138 C   0  0  0  0  0  0  0  0  0  0  0  0
    7.3295    0.4885   -1.0881 C   0  0  0  0  0  0  0  0  0  0  0  0
    6.5157    1.4190   -1.7497 C   0  0  0  0  0  0  0  0  0  0  0  0
    5.1380    1.3448   -1.7838 C   0  0  0  0  0  0  0  0  0  0  0  0
    7.2810    2.3758   -2.3993 N   0  0  0  0  0  0  0  0  0  0  0  0
    8.6313    2.1146   -2.2681 C   0  0  0  0  0  0  0  0  0  0  0  0
    9.5095    2.6459   -2.9215 O   0  0  0  0  0  0  0  0  0  0  0  0
    8.7225    0.9432   -1.3082 C   0  0  0  0  0  0  0  0  0  0  0  0
    9.9131    0.4972   -0.8443 C   0  0  0  0  0  0  0  0  0  0  0  0
   11.1575    1.1239   -0.9331 N   0  0  0  0  0  0  0  0  0  0  0  0
   11.3667    2.4768   -0.5769 C   0  0  0  0  0  0  0  0  0  0  0  0
   10.7809    3.0241    0.5668 C   0  0  0  0  0  0  0  0  0  0  0  0
   10.9213    4.3824    0.8754 C   0  0  0  0  0  0  0  0  0  0  0  0
   11.6257    5.2469    0.0362 C   0  0  0  0  0  0  0  0  0  0  0  0
   11.6750    6.6466    0.2901 N   0  0  0  0  0  0  0  0  0  0  0  0
   11.3583    7.2678    1.5104 C   0  0  0  0  0  0  0  0  0  0  0  0
   11.0641    6.7609    2.5814 O   0  0  0  0  0  0  0  0  0  0  0  0
   11.4322    8.7602    1.3080 C   0  0  0  0  0  0  0  0  0  0  0  0
   12.2418    8.9020    0.0356 C   0  0  0  0  0  0  0  0  0  0  0  0
   11.9208    7.6342   -0.7526 C   0  0  2  0  0  0  0  0  0  0  0  0
   10.6997    7.8245   -1.7039 C   0  0  0  0  0  0  0  0  0  0  0  0
   10.8743    8.9161   -2.6827 N   0  0  0  0  0  0  0  0  0  0  0  0
   11.9968    8.6757   -3.6083 C   0  0  0  0  0  0  0  0  0  0  0  0
   12.1728    9.8393   -4.6105 C   0  0  0  0  0  0  0  0  0  0  0  0
   10.9747   10.1528   -5.4094 N   0  0  0  0  0  0  0  0  0  0  0  0
   10.7391    9.1441   -6.4433 C   0  0  0  0  0  0  0  0  0  0  0  0
    9.8147   10.2918   -4.5039 C   0  0  0  0  0  0  0  0  0  0  0  0
    9.6406    9.1537   -3.4639 C   0  0  0  0  0  0  0  0  0  0  0  0
   12.2585    4.6855   -1.0853 C   0  0  0  0  0  0  0  0  0  0  0  0
   12.1490    3.3150   -1.3732 C   0  0  0  0  0  0  0  0  0  0  0  0
   10.0158   -0.8158   -0.1782 C   0  0  0  0  0  0  0  0  0  0  0  0
   10.2715   -1.9573   -0.9534 C   0  0  0  0  0  0  0  0  0  0  0  0
   10.4296   -3.2015   -0.3430 C   0  0  0  0  0  0  0  0  0  0  0  0
   10.3322   -3.3130    1.0413 C   0  0  0  0  0  0  0  0  0  0  0  0
   10.0805   -2.1821    1.8200 C   0  0  0  0  0  0  0  0  0  0  0  0
    9.9305   -0.9340    1.2138 C   0  0  0  0  0  0  0  0  0  0  0  0
    0.8759   -2.0072   -0.1986 H   0  0  0  0  0  0  0  0  0  0  0  0
    0.9626   -1.4354   -1.8780 H   0  0  0  0  0  0  0  0  0  0  0  0
    0.6150   -0.2866   -0.5370 H   0  0  0  0  0  0  0  0  0  0  0  0
    4.8556   -1.5134    0.0663 H   0  0  0  0  0  0  0  0  0  0  0  0
    7.3034   -1.3056    0.1247 H   0  0  0  0  0  0  0  0  0  0  0  0
    4.5505    2.0863   -2.3192 H   0  0  0  0  0  0  0  0  0  0  0  0
    6.9289    3.0854   -3.0239 H   0  0  0  0  0  0  0  0  0  0  0  0
   11.6627    0.8514   -1.7716 H   0  0  0  0  0  0  0  0  0  0  0  0
   10.1934    2.3995    1.2333 H   0  0  0  0  0  0  0  0  0  0  0  0
   10.4141    4.7412    1.7654 H   0  0  0  0  0  0  0  0  0  0  0  0
   11.9305    9.2422    2.1524 H   0  0  0  0  0  0  0  0  0  0  0  0
   10.4163    9.1524    1.1964 H   0  0  0  0  0  0  0  0  0  0  0  0
   13.3126    8.9121    0.2884 H   0  0  0  0  0  0  0  0  0  0  0  0
   12.0263    9.8362   -0.4905 H   0  0  0  0  0  0  0  0  0  0  0  0
   12.8109    7.3468   -1.3207 H   0  0  0  0  0  0  0  0  0  0  0  0
   10.4829    6.8827   -2.2192 H   0  0  0  0  0  0  0  0  0  0  0  0
    9.8162    8.0480   -1.0848 H   0  0  0  0  0  0  0  0  0  0  0  0
   11.8586    7.7302   -4.1469 H   0  0  0  0  0  0  0  0  0  0  0  0
   12.9368    8.5988   -3.0528 H   0  0  0  0  0  0  0  0  0  0  0  0
   13.0258    9.6307   -5.2681 H   0  0  0  0  0  0  0  0  0  0  0  0
   12.4510   10.7413   -4.0487 H   0  0  0  0  0  0  0  0  0  0  0  0
   11.6177    9.0577   -7.0937 H   0  0  0  0  0  0  0  0  0  0  0  0
    9.9072    9.4492   -7.0829 H   0  0  0  0  0  0  0  0  0  0  0  0
   10.5183    8.1532   -6.0384 H   0  0  0  0  0  0  0  0  0  0  0  0
    8.8926   10.4044   -5.0881 H   0  0  0  0  0  0  0  0  0  0  0  0
    9.9326   11.2391   -3.9595 H   0  0  0  0  0  0  0  0  0  0  0  0
    9.3261    8.2359   -3.9769 H   0  0  0  0  0  0  0  0  0  0  0  0
    8.8281    9.4399   -2.7852 H   0  0  0  0  0  0  0  0  0  0  0  0
   12.8589    5.2847   -1.7607 H   0  0  0  0  0  0  0  0  0  0  0  0
   12.6372    2.9254   -2.2633 H   0  0  0  0  0  0  0  0  0  0  0  0
   10.3669   -1.8762   -2.0338 H   0  0  0  0  0  0  0  0  0  0  0  0
   10.6446   -4.0793   -0.9484 H   0  0  0  0  0  0  0  0  0  0  0  0
   10.4632   -4.2820    1.5183 H   0  0  0  0  0  0  0  0  0  0  0  0
   10.0167   -2.2706    2.9018 H   0  0  0  0  0  0  0  0  0  0  0  0
    9.7577   -0.0550    1.8295 H   0  0  0  0  0  0  0  0  0  0  0  0
  1  2  1  0  0  0  0
  1 43  1  0  0  0  0
  1 44  1  0  0  0  0
  1 45  1  0  0  0  0
  2  3  1  0  0  0  0
  3  4  2  0  0  0  0
  3  5  1  0  0  0  0
  5  6  1  0  0  0  0
  5 10  2  0  0  0  0
  6  7  2  0  0  0  0
  6 46  1  0  0  0  0
  7  8  1  0  0  0  0
  7 47  1  0  0  0  0
  8  9  2  0  0  0  0
  8 14  1  0  0  0  0
  9 10  1  0  0  0  0
  9 11  1  0  0  0  0
 10 48  1  0  0  0  0
 11 12  1  0  0  0  0
 11 49  1  0  0  0  0
 12 13  2  0  0  0  0
 12 14  1  0  0  0  0
 14 15  2  0  0  0  0
 15 16  1  0  0  0  0
 15 37  1  0  0  0  0
 16 17  1  0  0  0  0
 16 50  1  0  0  0  0
 17 18  1  0  0  0  0
 17 36  2  0  0  0  0
 18 19  2  0  0  0  0
 18 51  1  0  0  0  0
 19 20  1  0  0  0  0
 19 52  1  0  0  0  0
 20 21  1  0  0  0  0
 20 35  2  0  0  0  0
 21 22  1  0  0  0  0
 21 26  1  0  0  0  0
 22 23  2  0  0  0  0
 22 24  1  0  0  0  0
 24 25  1  0  0  0  0
 24 53  1  0  0  0  0
 24 54  1  0  0  0  0
 25 26  1  0  0  0  0
 25 55  1  0  0  0  0
 25 56  1  0  0  0  0
 26 27  1  0  0  0  0
 26 57  1  6  0  0  0
 27 28  1  0  0  0  0
 27 58  1  0  0  0  0
 27 59  1  0  0  0  0
 28 29  1  0  0  0  0
 28 34  1  0  0  0  0
 29 30  1  0  0  0  0
 29 60  1  0  0  0  0
 29 61  1  0  0  0  0
 30 31  1  0  0  0  0
 30 62  1  0  0  0  0
 30 63  1  0  0  0  0
 31 32  1  0  0  0  0
 31 33  1  0  0  0  0
 32 64  1  0  0  0  0
 32 65  1  0  0  0  0
 32 66  1  0  0  0  0
 33 34  1  0  0  0  0
 33 67  1  0  0  0  0
 33 68  1  0  0  0  0
 34 69  1  0  0  0  0
 34 70  1  0  0  0  0
 35 36  1  0  0  0  0
 35 71  1  0  0  0  0
 36 72  1  0  0  0  0
 37 38  1  0  0  0  0
 37 42  2  0  0  0  0
 38 39  2  0  0  0  0
 38 73  1  0  0  0  0
 39 40  1  0  0  0  0
 39 74  1  0  0  0  0
 40 41  2  0  0  0  0
 40 75  1  0  0  0  0
 41 42  1  0  0  0  0
 41 76  1  0  0  0  0
 42 77  1  0  0  0  0
M  END
$$$$
