CHEMBL3754141
 OpenBabel04072215373D

 55 59  0  0  0  0  0  0  0  0999 V2000
    2.8459    0.9974    0.6396 O   0  0  0  0  0  0  0  0  0  0  0  0
    2.5255    0.2034   -0.2463 C   0  0  0  0  0  0  0  0  0  0  0  0
    2.9521   -1.2668   -0.1969 C   0  0  0  0  0  0  0  0  0  0  0  0
    1.8468   -2.0936    0.2796 N   0  0  0  0  0  0  0  0  0  0  0  0
    1.4887   -1.8722    1.7003 C   0  0  0  0  0  0  0  0  0  0  0  0
    1.9384   -2.9426    2.7219 C   0  0  0  0  0  0  0  0  0  0  0  0
    1.5702   -4.2508    2.1812 N   0  0  0  0  0  0  0  0  0  0  0  0
    0.8147   -5.1105    2.9491 C   0  0  0  0  0  0  0  0  0  0  0  0
    1.0259   -5.0767    4.2815 N   0  0  0  0  0  0  0  0  0  0  0  0
    0.3075   -5.8554    5.1572 N   0  0  0  0  0  0  0  0  0  0  0  0
   -0.6948   -6.6448    4.7187 C   0  0  0  0  0  0  0  0  0  0  0  0
   -1.3219   -7.4706    5.7897 C   0  0  0  0  0  0  0  0  0  0  0  0
   -1.4174   -6.9951    7.1129 C   0  0  0  0  0  0  0  0  0  0  0  0
   -2.0144   -7.7563    8.1261 C   0  0  0  0  0  0  0  0  0  0  0  0
   -2.5511   -9.0074    7.8375 C   0  0  0  0  0  0  0  0  0  0  0  0
   -2.4444   -9.5177    6.5506 C   0  0  0  0  0  0  0  0  0  0  0  0
   -1.8017   -8.7746    5.5565 C   0  0  0  0  0  0  0  0  0  0  0  0
   -1.0397   -6.6604    3.3481 C   0  0  0  0  0  0  0  0  0  0  0  0
   -2.1809   -7.3361    2.8308 C   0  0  0  0  0  0  0  0  0  0  0  0
   -2.4461   -7.4385    1.4688 C   0  0  0  0  0  0  0  0  0  0  0  0
   -1.6168   -6.8018    0.5731 C   0  0  0  0  0  0  0  0  0  0  0  0
   -0.5632   -6.0276    1.0558 C   0  0  0  0  0  0  0  0  0  0  0  0
   -0.2272   -5.9319    2.4344 C   0  0  0  0  0  0  0  0  0  0  0  0
    2.2861   -4.5679    0.9555 C   0  0  0  0  0  0  0  0  0  0  0  0
    1.9188   -3.5122   -0.1231 C   0  0  0  0  0  0  0  0  0  0  0  0
    1.7239    0.7006   -1.4052 C   0  0  0  0  0  0  0  0  0  0  0  0
    1.7421    2.0734   -1.6855 C   0  0  0  0  0  0  0  0  0  0  0  0
    1.0192    2.5898   -2.7659 C   0  0  0  0  0  0  0  0  0  0  0  0
    0.2590    1.7355   -3.5607 C   0  0  0  0  0  0  0  0  0  0  0  0
   -0.6379    2.3688   -4.8841 Cl  0  0  0  0  0  0  0  0  0  0  0  0
    0.2132    0.3710   -3.2810 C   0  0  0  0  0  0  0  0  0  0  0  0
    0.9451   -0.1480   -2.2048 C   0  0  0  0  0  0  0  0  0  0  0  0
    3.8446   -1.3654    0.4318 H   0  0  0  0  0  0  0  0  0  0  0  0
    3.2572   -1.5422   -1.2148 H   0  0  0  0  0  0  0  0  0  0  0  0
    0.3924   -1.8282    1.7331 H   0  0  0  0  0  0  0  0  0  0  0  0
    1.8294   -0.8942    2.0612 H   0  0  0  0  0  0  0  0  0  0  0  0
    1.4670   -2.7222    3.6864 H   0  0  0  0  0  0  0  0  0  0  0  0
    3.0246   -2.8890    2.8715 H   0  0  0  0  0  0  0  0  0  0  0  0
   -1.0099   -6.0182    7.3723 H   0  0  0  0  0  0  0  0  0  0  0  0
   -2.0566   -7.3691    9.1411 H   0  0  0  0  0  0  0  0  0  0  0  0
   -3.0349   -9.5895    8.6161 H   0  0  0  0  0  0  0  0  0  0  0  0
   -2.8487  -10.4987    6.3152 H   0  0  0  0  0  0  0  0  0  0  0  0
   -1.6797   -9.2447    4.5832 H   0  0  0  0  0  0  0  0  0  0  0  0
   -2.9125   -7.7856    3.4969 H   0  0  0  0  0  0  0  0  0  0  0  0
   -3.3043   -8.0056    1.1184 H   0  0  0  0  0  0  0  0  0  0  0  0
   -1.8017   -6.8704   -0.4954 H   0  0  0  0  0  0  0  0  0  0  0  0
   -0.0067   -5.4807    0.3105 H   0  0  0  0  0  0  0  0  0  0  0  0
    2.0933   -5.5819    0.5916 H   0  0  0  0  0  0  0  0  0  0  0  0
    3.3662   -4.5233    1.1469 H   0  0  0  0  0  0  0  0  0  0  0  0
    0.9156   -3.7479   -0.4951 H   0  0  0  0  0  0  0  0  0  0  0  0
    2.5764   -3.6516   -0.9899 H   0  0  0  0  0  0  0  0  0  0  0  0
    2.3296    2.7494   -1.0665 H   0  0  0  0  0  0  0  0  0  0  0  0
    1.0500    3.6561   -2.9738 H   0  0  0  0  0  0  0  0  0  0  0  0
   -0.3956   -0.2926   -3.8890 H   0  0  0  0  0  0  0  0  0  0  0  0
    0.8680   -1.2120   -1.9992 H   0  0  0  0  0  0  0  0  0  0  0  0
  1  2  2  0  0  0  0
  2  3  1  0  0  0  0
  2 26  1  0  0  0  0
  3  4  1  0  0  0  0
  3 33  1  0  0  0  0
  3 34  1  0  0  0  0
  4  5  1  0  0  0  0
  4 25  1  0  0  0  0
  5  6  1  0  0  0  0
  5 35  1  0  0  0  0
  5 36  1  0  0  0  0
  6  7  1  0  0  0  0
  6 37  1  0  0  0  0
  6 38  1  0  0  0  0
  7  8  1  0  0  0  0
  7 24  1  0  0  0  0
  8  9  1  0  0  0  0
  8 23  2  0  0  0  0
  9 10  2  0  0  0  0
 10 11  1  0  0  0  0
 11 12  1  0  0  0  0
 11 18  2  0  0  0  0
 12 13  1  0  0  0  0
 12 17  2  0  0  0  0
 13 14  2  0  0  0  0
 13 39  1  0  0  0  0
 14 15  1  0  0  0  0
 14 40  1  0  0  0  0
 15 16  2  0  0  0  0
 15 41  1  0  0  0  0
 16 17  1  0  0  0  0
 16 42  1  0  0  0  0
 17 43  1  0  0  0  0
 18 19  1  0  0  0  0
 18 23  1  0  0  0  0
 19 20  2  0  0  0  0
 19 44  1  0  0  0  0
 20 21  1  0  0  0  0
 20 45  1  0  0  0  0
 21 22  2  0  0  0  0
 21 46  1  0  0  0  0
 22 23  1  0  0  0  0
 22 47  1  0  0  0  0
 24 25  1  0  0  0  0
 24 48  1  0  0  0  0
 24 49  1  0  0  0  0
 25 50  1  0  0  0  0
 25 51  1  0  0  0  0
 26 27  1  0  0  0  0
 26 32  2  0  0  0  0
 27 28  2  0  0  0  0
 27 52  1  0  0  0  0
 28 29  1  0  0  0  0
 28 53  1  0  0  0  0
 29 30  1  0  0  0  0
 29 31  2  0  0  0  0
 31 32  1  0  0  0  0
 31 54  1  0  0  0  0
 32 55  1  0  0  0  0
M  END
$$$$
