CHEMBL3671527
 OpenBabel04072215373D

 61 63  0  0  0  0  0  0  0  0999 V2000
    3.3281   -3.4194    1.8912 C   0  0  0  0  0  0  0  0  0  0  0  0
    3.4568   -3.0149    0.6215 C   0  0  0  0  0  0  0  0  0  0  0  0
    3.6519   -1.5683    0.3327 C   0  0  0  0  0  0  0  0  0  0  0  0
    3.1801   -0.6896    1.0479 O   0  0  0  0  0  0  0  0  0  0  0  0
    4.4328   -1.2418   -0.7532 N   0  0  0  0  0  0  0  0  0  0  0  0
    5.2962   -2.1628   -1.3735 C   0  0  0  0  0  0  0  0  0  0  0  0
    6.3853   -2.6288   -0.6359 C   0  0  0  0  0  0  0  0  0  0  0  0
    7.0959   -3.7669   -1.0638 C   0  0  0  0  0  0  0  0  0  0  0  0
    8.0818   -4.4194   -0.3149 C   0  0  0  0  0  0  0  0  0  0  0  0
    8.3823   -3.9779    1.0036 N   0  0  0  0  0  0  0  0  0  0  0  0
    9.0620   -4.7876    1.9472 C   0  0  0  0  0  0  0  0  0  0  0  0
    8.7064   -6.1323    2.1141 C   0  0  0  0  0  0  0  0  0  0  0  0
    9.4750   -6.9814    2.9063 C   0  0  0  0  0  0  0  0  0  0  0  0
   10.5953   -6.4854    3.5759 C   0  0  0  0  0  0  0  0  0  0  0  0
   11.6551   -7.7419    4.5286 Br  0  0  0  0  0  0  0  0  0  0  0  0
   10.9116   -5.1238    3.4993 C   0  0  0  0  0  0  0  0  0  0  0  0
   12.2540   -4.4405    4.3473 Cl  0  0  0  0  0  0  0  0  0  0  0  0
   10.1346   -4.2860    2.6918 C   0  0  0  0  0  0  0  0  0  0  0  0
   10.4349   -2.9795    2.5824 F   0  0  0  0  0  0  0  0  0  0  0  0
    8.7081   -5.5188   -0.7729 N   0  0  0  0  0  0  0  0  0  0  0  0
    8.3227   -5.9952   -1.9578 C   0  0  0  0  0  0  0  0  0  0  0  0
    7.3586   -5.4848   -2.7280 N   0  0  0  0  0  0  0  0  0  0  0  0
    6.7447   -4.3870   -2.2772 C   0  0  0  0  0  0  0  0  0  0  0  0
    5.6967   -3.8647   -3.0269 C   0  0  0  0  0  0  0  0  0  0  0  0
    4.9743   -2.7451   -2.6064 C   0  0  0  0  0  0  0  0  0  0  0  0
    3.9590   -2.3600   -3.4501 O   0  0  0  0  0  0  0  0  0  0  0  0
    3.7021   -0.9513   -3.4707 C   0  0  0  0  0  0  0  0  0  0  0  0
    3.2182   -0.4912   -4.8483 C   0  0  0  0  0  0  0  0  0  0  0  0
    3.1615    0.9647   -4.9110 N   0  0  0  0  0  0  0  0  0  0  0  0
    4.3156    1.6669   -5.1415 C   0  0  0  0  0  0  0  0  0  0  0  0
    5.3933    1.1179   -5.3461 O   0  0  0  0  0  0  0  0  0  0  0  0
    4.1297    3.0222   -5.0733 N   0  0  0  0  0  0  0  0  0  0  0  0
    5.2244    3.9913   -5.2709 C   0  0  0  0  0  0  0  0  0  0  0  0
    5.7373    3.9053   -6.7180 C   0  0  0  0  0  0  0  0  0  0  0  0
    4.6883    5.4165   -5.0357 C   0  0  0  0  0  0  0  0  0  0  0  0
    6.3798    3.7588   -4.2795 C   0  0  0  0  0  0  0  0  0  0  0  0
    3.2439   -4.4737    2.1327 H   0  0  0  0  0  0  0  0  0  0  0  0
    3.3131   -2.7089    2.7120 H   0  0  0  0  0  0  0  0  0  0  0  0
    3.4854   -3.7265   -0.1940 H   0  0  0  0  0  0  0  0  0  0  0  0
    4.7849   -0.2963   -0.6406 H   0  0  0  0  0  0  0  0  0  0  0  0
    6.6250   -2.1614    0.3153 H   0  0  0  0  0  0  0  0  0  0  0  0
    8.7219   -3.0182    1.0004 H   0  0  0  0  0  0  0  0  0  0  0  0
    7.8484   -6.5371    1.5803 H   0  0  0  0  0  0  0  0  0  0  0  0
    9.2052   -8.0344    2.9623 H   0  0  0  0  0  0  0  0  0  0  0  0
    8.8302   -6.8847   -2.3166 H   0  0  0  0  0  0  0  0  0  0  0  0
    5.4170   -4.3622   -3.9529 H   0  0  0  0  0  0  0  0  0  0  0  0
    4.6046   -0.3818   -3.2167 H   0  0  0  0  0  0  0  0  0  0  0  0
    2.9164   -0.7262   -2.7402 H   0  0  0  0  0  0  0  0  0  0  0  0
    2.2208   -0.8881   -5.0628 H   0  0  0  0  0  0  0  0  0  0  0  0
    3.8885   -0.8656   -5.6314 H   0  0  0  0  0  0  0  0  0  0  0  0
    2.2938    1.4069   -5.1771 H   0  0  0  0  0  0  0  0  0  0  0  0
    3.3275    3.3250   -4.5403 H   0  0  0  0  0  0  0  0  0  0  0  0
    4.9250    4.0978   -7.4291 H   0  0  0  0  0  0  0  0  0  0  0  0
    6.1424    2.9159   -6.9519 H   0  0  0  0  0  0  0  0  0  0  0  0
    6.5299    4.6376   -6.9049 H   0  0  0  0  0  0  0  0  0  0  0  0
    3.8486    5.6454   -5.7008 H   0  0  0  0  0  0  0  0  0  0  0  0
    5.4692    6.1666   -5.2113 H   0  0  0  0  0  0  0  0  0  0  0  0
    4.3354    5.5420   -4.0054 H   0  0  0  0  0  0  0  0  0  0  0  0
    6.8438    2.7756   -4.3981 H   0  0  0  0  0  0  0  0  0  0  0  0
    6.0292    3.8300   -3.2434 H   0  0  0  0  0  0  0  0  0  0  0  0
    7.1733    4.5019   -4.4187 H   0  0  0  0  0  0  0  0  0  0  0  0
  1  2  2  0  0  0  0
  1 37  1  0  0  0  0
  1 38  1  0  0  0  0
  2  3  1  0  0  0  0
  2 39  1  0  0  0  0
  3  4  2  0  0  0  0
  3  5  1  0  0  0  0
  5  6  1  0  0  0  0
  5 40  1  0  0  0  0
  6  7  1  0  0  0  0
  6 25  2  0  0  0  0
  7  8  2  0  0  0  0
  7 41  1  0  0  0  0
  8  9  1  0  0  0  0
  8 23  1  0  0  0  0
  9 10  1  0  0  0  0
  9 20  2  0  0  0  0
 10 11  1  0  0  0  0
 10 42  1  0  0  0  0
 11 12  1  0  0  0  0
 11 18  2  0  0  0  0
 12 13  2  0  0  0  0
 12 43  1  0  0  0  0
 13 14  1  0  0  0  0
 13 44  1  0  0  0  0
 14 15  1  0  0  0  0
 14 16  2  0  0  0  0
 16 17  1  0  0  0  0
 16 18  1  0  0  0  0
 18 19  1  0  0  0  0
 20 21  1  0  0  0  0
 21 22  2  0  0  0  0
 21 45  1  0  0  0  0
 22 23  1  0  0  0  0
 23 24  2  0  0  0  0
 24 25  1  0  0  0  0
 24 46  1  0  0  0  0
 25 26  1  0  0  0  0
 26 27  1  0  0  0  0
 27 28  1  0  0  0  0
 27 47  1  0  0  0  0
 27 48  1  0  0  0  0
 28 29  1  0  0  0  0
 28 49  1  0  0  0  0
 28 50  1  0  0  0  0
 29 30  1  0  0  0  0
 29 51  1  0  0  0  0
 30 31  2  0  0  0  0
 30 32  1  0  0  0  0
 32 33  1  0  0  0  0
 32 52  1  0  0  0  0
 33 34  1  0  0  0  0
 33 35  1  0  0  0  0
 33 36  1  0  0  0  0
 34 53  1  0  0  0  0
 34 54  1  0  0  0  0
 34 55  1  0  0  0  0
 35 56  1  0  0  0  0
 35 57  1  0  0  0  0
 35 58  1  0  0  0  0
 36 59  1  0  0  0  0
 36 60  1  0  0  0  0
 36 61  1  0  0  0  0
M  END
$$$$
