CHEMBL329713
 OpenBabel04072215363D

 32 34  0  0  0  0  0  0  0  0999 V2000
    1.3972   -1.1077    2.7557 C   0  0  0  0  0  0  0  0  0  0  0  0
    0.1337   -1.5848    2.1045 C   0  0  0  0  0  0  0  0  0  0  0  0
   -1.0372   -1.4670    2.8756 C   0  0  0  0  0  0  0  0  0  0  0  0
   -2.2668   -1.8401    2.3618 C   0  0  0  0  0  0  0  0  0  0  0  0
   -2.2908   -2.3263    1.0757 C   0  0  0  0  0  0  0  0  0  0  0  0
   -1.1900   -2.4740    0.3106 N   0  0  0  0  0  0  0  0  0  0  0  0
    0.0274   -2.1338    0.8180 C   0  0  0  0  0  0  0  0  0  0  0  0
    1.0359   -2.4016   -0.0988 N   0  0  0  0  0  0  0  0  0  0  0  0
    2.3635   -2.5729    0.0363 C   0  0  0  0  0  0  0  0  0  0  0  0
    3.0944   -2.3033    1.0875 N   0  0  0  0  0  0  0  0  0  0  0  0
    4.4228   -2.5333    0.8528 C   0  0  0  0  0  0  0  0  0  0  0  0
    4.7369   -3.0494   -0.3865 C   0  0  0  0  0  0  0  0  0  0  0  0
    6.0565   -3.4138   -0.9084 C   0  0  0  0  0  0  0  0  0  0  0  0
    7.0724   -3.7945   -0.0157 C   0  0  0  0  0  0  0  0  0  0  0  0
    8.3575   -4.0989   -0.4704 C   0  0  0  0  0  0  0  0  0  0  0  0
    8.6408   -4.0320   -1.8288 C   0  0  0  0  0  0  0  0  0  0  0  0
    7.6446   -3.6605   -2.7324 C   0  0  0  0  0  0  0  0  0  0  0  0
    6.3622   -3.3498   -2.2731 C   0  0  0  0  0  0  0  0  0  0  0  0
    3.2796   -3.2245   -1.2829 S   0  0  0  0  0  0  0  0  0  0  0  0
    1.1877   -0.4868    3.6342 H   0  0  0  0  0  0  0  0  0  0  0  0
    1.9707   -0.4668    2.0801 H   0  0  0  0  0  0  0  0  0  0  0  0
    1.9834   -1.9579    3.1165 H   0  0  0  0  0  0  0  0  0  0  0  0
   -0.9862   -1.0700    3.8872 H   0  0  0  0  0  0  0  0  0  0  0  0
   -3.1722   -1.7452    2.9477 H   0  0  0  0  0  0  0  0  0  0  0  0
   -3.2240   -2.6263    0.6085 H   0  0  0  0  0  0  0  0  0  0  0  0
    0.5985   -2.7718   -0.9351 H   0  0  0  0  0  0  0  0  0  0  0  0
    5.1324   -2.2965    1.6351 H   0  0  0  0  0  0  0  0  0  0  0  0
    6.8823   -3.8600    1.0536 H   0  0  0  0  0  0  0  0  0  0  0  0
    9.1312   -4.3834    0.2336 H   0  0  0  0  0  0  0  0  0  0  0  0
    9.6398   -4.2664   -2.1903 H   0  0  0  0  0  0  0  0  0  0  0  0
    7.8697   -3.6026   -3.7951 H   0  0  0  0  0  0  0  0  0  0  0  0
    5.6157   -3.0412   -3.0018 H   0  0  0  0  0  0  0  0  0  0  0  0
  1  2  1  0  0  0  0
  1 20  1  0  0  0  0
  1 21  1  0  0  0  0
  1 22  1  0  0  0  0
  2  3  1  0  0  0  0
  2  7  2  0  0  0  0
  3  4  2  0  0  0  0
  3 23  1  0  0  0  0
  4  5  1  0  0  0  0
  4 24  1  0  0  0  0
  5  6  2  0  0  0  0
  5 25  1  0  0  0  0
  6  7  1  0  0  0  0
  7  8  1  0  0  0  0
  8  9  1  0  0  0  0
  8 26  1  0  0  0  0
  9 10  2  0  0  0  0
  9 19  1  0  0  0  0
 10 11  1  0  0  0  0
 11 12  2  0  0  0  0
 11 27  1  0  0  0  0
 12 13  1  0  0  0  0
 12 19  1  0  0  0  0
 13 14  1  0  0  0  0
 13 18  2  0  0  0  0
 14 15  2  0  0  0  0
 14 28  1  0  0  0  0
 15 16  1  0  0  0  0
 15 29  1  0  0  0  0
 16 17  2  0  0  0  0
 16 30  1  0  0  0  0
 17 18  1  0  0  0  0
 17 31  1  0  0  0  0
 18 32  1  0  0  0  0
M  END
$$$$
