CHEMBL193346
 OpenBabel04072215363D

 44 47  0  0  0  0  0  0  0  0999 V2000
    1.1883    1.1221   -2.2191 C   0  0  0  0  0  0  0  0  0  0  0  0
    2.6065    0.9504   -2.1884 O   0  0  0  0  0  0  0  0  0  0  0  0
    3.0247   -0.1188   -1.4704 C   0  0  0  0  0  0  0  0  0  0  0  0
    2.3063   -0.9069   -0.8711 O   0  0  0  0  0  0  0  0  0  0  0  0
    4.5116   -0.1979   -1.4667 C   0  0  0  0  0  0  0  0  0  0  0  0
    5.1143   -1.2590   -0.7915 C   0  0  0  0  0  0  0  0  0  0  0  0
    6.5112   -1.3592   -0.7329 C   0  0  0  0  0  0  0  0  0  0  0  0
    7.3591   -0.3681   -1.2656 C   0  0  0  0  0  0  0  0  0  0  0  0
    8.8465   -0.4077   -1.1154 C   0  0  0  0  0  0  0  0  0  0  0  0
    9.5221    0.1298   -2.1562 N   0  0  0  0  0  0  0  0  0  0  0  0
   10.8993    0.1098   -2.1980 N   0  0  0  0  0  0  0  0  0  0  0  0
   11.6197   -0.5000   -1.2370 C   0  0  0  0  0  0  0  0  0  0  0  0
   13.0477   -0.5308   -1.3157 N   0  0  0  0  0  0  0  0  0  0  0  0
   13.8553    0.3920   -2.0364 C   0  0  0  0  0  0  0  0  0  0  0  0
   13.5379    1.7533   -2.1349 C   0  0  0  0  0  0  0  0  0  0  0  0
   14.4288    2.6552   -2.7267 C   0  0  0  0  0  0  0  0  0  0  0  0
   15.6566    2.2046   -3.2034 C   0  0  0  0  0  0  0  0  0  0  0  0
   16.7471    3.3108   -3.9427 Cl  0  0  0  0  0  0  0  0  0  0  0  0
   16.0104    0.8646   -3.0722 C   0  0  0  0  0  0  0  0  0  0  0  0
   15.1188   -0.0324   -2.4748 C   0  0  0  0  0  0  0  0  0  0  0  0
   10.9618   -1.1401   -0.1576 C   0  0  0  0  0  0  0  0  0  0  0  0
   11.6453   -1.9050    0.8250 C   0  0  0  0  0  0  0  0  0  0  0  0
   10.9986   -2.4205    1.9463 C   0  0  0  0  0  0  0  0  0  0  0  0
    9.6600   -2.1418    2.1456 C   0  0  0  0  0  0  0  0  0  0  0  0
    8.9596   -1.4234    1.1784 C   0  0  0  0  0  0  0  0  0  0  0  0
    9.5563   -0.9896   -0.0359 C   0  0  0  0  0  0  0  0  0  0  0  0
    6.7266    0.6582   -1.9964 C   0  0  0  0  0  0  0  0  0  0  0  0
    5.3274    0.7419   -2.1042 C   0  0  0  0  0  0  0  0  0  0  0  0
    0.9594    1.8923   -2.9603 H   0  0  0  0  0  0  0  0  0  0  0  0
    0.8313    1.4619   -1.2418 H   0  0  0  0  0  0  0  0  0  0  0  0
    0.6830    0.1978   -2.5167 H   0  0  0  0  0  0  0  0  0  0  0  0
    4.5048   -2.0184   -0.3042 H   0  0  0  0  0  0  0  0  0  0  0  0
    6.9207   -2.2441   -0.2503 H   0  0  0  0  0  0  0  0  0  0  0  0
   13.4062   -0.5063   -0.3636 H   0  0  0  0  0  0  0  0  0  0  0  0
   12.5958    2.1320   -1.7461 H   0  0  0  0  0  0  0  0  0  0  0  0
   14.1579    3.7047   -2.8046 H   0  0  0  0  0  0  0  0  0  0  0  0
   16.9750    0.5121   -3.4270 H   0  0  0  0  0  0  0  0  0  0  0  0
   15.4095   -1.0745   -2.3636 H   0  0  0  0  0  0  0  0  0  0  0  0
   12.7047   -2.1314    0.7184 H   0  0  0  0  0  0  0  0  0  0  0  0
   11.5478   -3.0148    2.6722 H   0  0  0  0  0  0  0  0  0  0  0  0
    9.1511   -2.4900    3.0403 H   0  0  0  0  0  0  0  0  0  0  0  0
    7.9197   -1.1917    1.4012 H   0  0  0  0  0  0  0  0  0  0  0  0
    7.3268    1.4167   -2.5002 H   0  0  0  0  0  0  0  0  0  0  0  0
    4.8946    1.5562   -2.6802 H   0  0  0  0  0  0  0  0  0  0  0  0
  1  2  1  0  0  0  0
  1 29  1  0  0  0  0
  1 30  1  0  0  0  0
  1 31  1  0  0  0  0
  2  3  1  0  0  0  0
  3  4  2  0  0  0  0
  3  5  1  0  0  0  0
  5  6  1  0  0  0  0
  5 28  2  0  0  0  0
  6  7  2  0  0  0  0
  6 32  1  0  0  0  0
  7  8  1  0  0  0  0
  7 33  1  0  0  0  0
  8  9  1  0  0  0  0
  8 27  2  0  0  0  0
  9 10  1  0  0  0  0
  9 26  2  0  0  0  0
 10 11  2  0  0  0  0
 11 12  1  0  0  0  0
 12 13  1  0  0  0  0
 12 21  2  0  0  0  0
 13 14  1  0  0  0  0
 13 34  1  0  0  0  0
 14 15  1  0  0  0  0
 14 20  2  0  0  0  0
 15 16  2  0  0  0  0
 15 35  1  0  0  0  0
 16 17  1  0  0  0  0
 16 36  1  0  0  0  0
 17 18  1  0  0  0  0
 17 19  2  0  0  0  0
 19 20  1  0  0  0  0
 19 37  1  0  0  0  0
 20 38  1  0  0  0  0
 21 22  1  0  0  0  0
 21 26  1  0  0  0  0
 22 23  2  0  0  0  0
 22 39  1  0  0  0  0
 23 24  1  0  0  0  0
 23 40  1  0  0  0  0
 24 25  2  0  0  0  0
 24 41  1  0  0  0  0
 25 26  1  0  0  0  0
 25 42  1  0  0  0  0
 27 28  1  0  0  0  0
 27 43  1  0  0  0  0
 28 44  1  0  0  0  0
M  END
$$$$
