CHEMBL2022369
 OpenBabel04072215363D

 70 75  0  0  1  0  0  0  0  0999 V2000
    0.9681    0.1327    0.4709 C   0  0  0  0  0  0  0  0  0  0  0  0
    2.4629    0.1318    0.5208 C   0  0  0  0  0  0  0  0  0  0  0  0
    3.1570    1.2706    0.3575 C   0  0  0  0  0  0  0  0  0  0  0  0
    4.5319    1.2120    0.3167 N   0  0  0  0  0  0  0  0  0  0  0  0
    5.4869    2.1826    0.1305 C   0  0  0  0  0  0  0  0  0  0  0  0
    5.2441    3.6415    0.0509 C   0  0  0  0  0  0  0  0  0  0  0  0
    4.1976    4.3935    0.6274 C   0  0  0  0  0  0  0  0  0  0  0  0
    4.2078    5.6680    0.2328 N   0  0  0  0  0  0  0  0  0  0  0  0
    5.2801    5.7369   -0.5809 N   0  0  0  0  0  0  0  0  0  0  0  0
    5.5643    6.9842   -1.2598 C   0  0  0  0  0  0  0  0  0  0  0  0
    5.5834    6.8167   -2.7604 C   0  0  0  0  0  0  0  0  0  0  0  0
    6.6180    6.5327   -3.3619 O   0  0  0  0  0  0  0  0  0  0  0  0
    4.3827    7.0210   -3.4113 N   0  0  0  0  0  0  0  0  0  0  0  0
    4.3254    6.8468   -4.8470 C   0  0  0  0  0  0  0  0  0  0  0  0
    2.9443    7.1139   -5.3517 C   0  0  0  0  0  0  0  0  0  0  0  0
    2.4060    8.3038   -5.8022 C   0  0  0  0  0  0  0  0  0  0  0  0
    1.0721    8.1504   -6.2851 C   0  0  0  0  0  0  0  0  0  0  0  0
    0.6335    6.8500   -6.1795 C   0  0  0  0  0  0  0  0  0  0  0  0
    1.8170    5.8279   -5.4892 S   0  0  0  0  0  0  0  0  0  0  0  0
    5.9873    4.5639   -0.6459 C   0  0  0  0  0  0  0  0  0  0  0  0
    6.6676    1.4815   -0.0177 C   0  0  0  0  0  0  0  0  0  0  0  0
    6.4742    0.1158    0.1578 N   0  0  0  0  0  0  0  0  0  0  0  0
    5.1730    0.0049    0.3675 C   0  0  0  0  0  0  0  0  0  0  0  0
    4.3900   -1.1992    0.6352 C   0  0  0  0  0  0  0  0  0  0  0  0
    4.9752   -2.4419    0.8117 N   0  0  0  0  0  0  0  0  0  0  0  0
    4.5699   -3.4134    1.6756 C   0  0  0  0  0  0  0  0  0  0  0  0
    3.7944   -3.3056    2.8200 C   0  0  0  0  0  0  0  0  0  0  0  0
    3.7342   -4.5470    3.5412 C   0  0  0  0  0  0  0  0  0  0  0  0
    3.2007   -4.7407    4.9471 C   0  0  0  0  0  0  0  0  0  0  0  0
    1.7359   -4.9158    5.0510 N   0  0  0  0  0  0  0  0  0  0  0  0
    1.3340   -5.1300    6.4574 C   0  0  0  0  0  0  0  0  0  0  0  0
    1.7030   -6.5038    7.0368 C   0  0  0  0  0  0  0  0  0  0  0  0
    1.2849   -7.6615    6.1328 C   0  0  0  0  0  0  0  0  0  0  0  0
    1.6500   -7.4076    4.6656 C   0  0  3  0  0  0  0  0  0  0  0  0
    1.0320   -8.4778    3.7666 C   0  0  0  0  0  0  0  0  0  0  0  0
    1.1929   -6.0070    4.2274 C   0  0  0  0  0  0  0  0  0  0  0  0
    4.3352   -5.5781    2.9368 N   0  0  0  0  0  0  0  0  0  0  0  0
    5.0530   -5.0511    1.5412 S   0  0  0  0  0  0  0  0  0  0  0  0
    3.0752   -1.0927    0.7138 N   0  0  0  0  0  0  0  0  0  0  0  0
    0.5627    1.1112    0.7504 H   0  0  0  0  0  0  0  0  0  0  0  0
    0.5533   -0.6083    1.1604 H   0  0  0  0  0  0  0  0  0  0  0  0
    0.6270   -0.1024   -0.5429 H   0  0  0  0  0  0  0  0  0  0  0  0
    2.6689    2.2199    0.1943 H   0  0  0  0  0  0  0  0  0  0  0  0
    3.4247    4.0763    1.3149 H   0  0  0  0  0  0  0  0  0  0  0  0
    6.5416    7.3346   -0.9149 H   0  0  0  0  0  0  0  0  0  0  0  0
    4.8126    7.7273   -0.9711 H   0  0  0  0  0  0  0  0  0  0  0  0
    3.5163    6.9808   -2.8852 H   0  0  0  0  0  0  0  0  0  0  0  0
    4.6578    5.8317   -5.0921 H   0  0  0  0  0  0  0  0  0  0  0  0
    5.0391    7.5439   -5.3017 H   0  0  0  0  0  0  0  0  0  0  0  0
    2.9499    9.2416   -5.8113 H   0  0  0  0  0  0  0  0  0  0  0  0
    0.4697    8.9497   -6.6994 H   0  0  0  0  0  0  0  0  0  0  0  0
   -0.3257    6.4482   -6.4774 H   0  0  0  0  0  0  0  0  0  0  0  0
    6.8785    4.4752   -1.2521 H   0  0  0  0  0  0  0  0  0  0  0  0
    7.6569    1.8786   -0.2015 H   0  0  0  0  0  0  0  0  0  0  0  0
    5.8671   -2.5544    0.3386 H   0  0  0  0  0  0  0  0  0  0  0  0
    3.3774   -2.3740    3.1760 H   0  0  0  0  0  0  0  0  0  0  0  0
    3.4719   -3.8387    5.5133 H   0  0  0  0  0  0  0  0  0  0  0  0
    3.7453   -5.5675    5.4177 H   0  0  0  0  0  0  0  0  0  0  0  0
    0.2453   -5.0042    6.5277 H   0  0  0  0  0  0  0  0  0  0  0  0
    1.7555   -4.3436    7.0962 H   0  0  0  0  0  0  0  0  0  0  0  0
    1.2203   -6.6263    8.0150 H   0  0  0  0  0  0  0  0  0  0  0  0
    2.7821   -6.5573    7.2203 H   0  0  0  0  0  0  0  0  0  0  0  0
    0.2025   -7.8161    6.2278 H   0  0  0  0  0  0  0  0  0  0  0  0
    1.7630   -8.5860    6.4804 H   0  0  0  0  0  0  0  0  0  0  0  0
    2.7389   -7.4814    4.5604 H   0  0  0  0  0  0  0  0  0  0  0  0
   -0.0613   -8.4744    3.8344 H   0  0  0  0  0  0  0  0  0  0  0  0
    1.3863   -9.4739    4.0513 H   0  0  0  0  0  0  0  0  0  0  0  0
    1.3064   -8.3097    2.7199 H   0  0  0  0  0  0  0  0  0  0  0  0
    0.0956   -5.9566    4.2866 H   0  0  0  0  0  0  0  0  0  0  0  0
    1.4171   -5.8379    3.1683 H   0  0  0  0  0  0  0  0  0  0  0  0
  1  2  1  0  0  0  0
  1 40  1  0  0  0  0
  1 41  1  0  0  0  0
  1 42  1  0  0  0  0
  2  3  2  0  0  0  0
  2 39  1  0  0  0  0
  3  4  1  0  0  0  0
  3 43  1  0  0  0  0
  4  5  1  0  0  0  0
  4 23  1  0  0  0  0
  5  6  1  0  0  0  0
  5 21  2  0  0  0  0
  6  7  1  0  0  0  0
  6 20  2  0  0  0  0
  7  8  2  0  0  0  0
  7 44  1  0  0  0  0
  8  9  1  0  0  0  0
  9 10  1  0  0  0  0
  9 20  1  0  0  0  0
 10 11  1  0  0  0  0
 10 45  1  0  0  0  0
 10 46  1  0  0  0  0
 11 12  2  0  0  0  0
 11 13  1  0  0  0  0
 13 14  1  0  0  0  0
 13 47  1  0  0  0  0
 14 15  1  0  0  0  0
 14 48  1  0  0  0  0
 14 49  1  0  0  0  0
 15 16  2  0  0  0  0
 15 19  1  0  0  0  0
 16 17  1  0  0  0  0
 16 50  1  0  0  0  0
 17 18  2  0  0  0  0
 17 51  1  0  0  0  0
 18 19  1  0  0  0  0
 18 52  1  0  0  0  0
 20 53  1  0  0  0  0
 21 22  1  0  0  0  0
 21 54  1  0  0  0  0
 22 23  2  0  0  0  0
 23 24  1  0  0  0  0
 24 25  1  0  0  0  0
 24 39  2  0  0  0  0
 25 26  1  0  0  0  0
 25 55  1  0  0  0  0
 26 27  2  0  0  0  0
 26 38  1  0  0  0  0
 27 28  1  0  0  0  0
 27 56  1  0  0  0  0
 28 29  1  0  0  0  0
 28 37  2  0  0  0  0
 29 30  1  0  0  0  0
 29 57  1  0  0  0  0
 29 58  1  0  0  0  0
 30 31  1  0  0  0  0
 30 36  1  0  0  0  0
 31 32  1  0  0  0  0
 31 59  1  0  0  0  0
 31 60  1  0  0  0  0
 32 33  1  0  0  0  0
 32 61  1  0  0  0  0
 32 62  1  0  0  0  0
 33 34  1  0  0  0  0
 33 63  1  0  0  0  0
 33 64  1  0  0  0  0
 34 35  1  0  0  0  0
 34 36  1  0  0  0  0
 34 65  1  0  0  0  0
 35 66  1  0  0  0  0
 35 67  1  0  0  0  0
 35 68  1  0  0  0  0
 36 69  1  0  0  0  0
 36 70  1  0  0  0  0
 37 38  1  0  0  0  0
M  END
$$$$
