CHEMBL3676350
 OpenBabel04072215373D

 63 66  0  0  0  0  0  0  0  0999 V2000
    2.8932    1.6041    2.0051 C   0  0  0  0  0  0  0  0  0  0  0  0
    3.1276    0.6291    1.1182 C   0  0  0  0  0  0  0  0  0  0  0  0
    3.9919   -0.5160    1.5004 C   0  0  0  0  0  0  0  0  0  0  0  0
    4.2688   -0.7502    2.6714 O   0  0  0  0  0  0  0  0  0  0  0  0
    4.3824   -1.2694    0.4093 N   0  0  0  0  0  0  0  0  0  0  0  0
    5.1294   -2.4554    0.5583 C   0  0  0  0  0  0  0  0  0  0  0  0
    6.2502   -2.3882    1.3831 C   0  0  0  0  0  0  0  0  0  0  0  0
    6.9751   -3.5403    1.7333 C   0  0  0  0  0  0  0  0  0  0  0  0
    8.0690   -3.5298    2.6058 C   0  0  0  0  0  0  0  0  0  0  0  0
    8.5123   -2.2885    3.1570 N   0  0  0  0  0  0  0  0  0  0  0  0
    9.7132   -2.0693    3.8539 C   0  0  0  0  0  0  0  0  0  0  0  0
   10.8503   -2.8342    3.5990 C   0  0  0  0  0  0  0  0  0  0  0  0
   12.0244   -2.6539    4.3155 C   0  0  0  0  0  0  0  0  0  0  0  0
   12.1362   -1.6330    5.2550 C   0  0  0  0  0  0  0  0  0  0  0  0
   13.2795   -1.3883    5.9725 O   0  0  0  0  0  0  0  0  0  0  0  0
   14.4449   -2.0611    5.4841 C   0  0  0  0  0  0  0  0  0  0  0  0
   15.7100   -1.5264    6.0764 C   0  0  0  0  0  0  0  0  0  0  0  0
   15.8174   -0.2392    6.6066 C   0  0  0  0  0  0  0  0  0  0  0  0
   17.0550    0.2169    7.0476 C   0  0  0  0  0  0  0  0  0  0  0  0
   18.1470   -0.6269    6.9346 C   0  0  0  0  0  0  0  0  0  0  0  0
   18.0848   -1.8755    6.4213 N   0  0  0  0  0  0  0  0  0  0  0  0
   16.8727   -2.2956    6.0080 C   0  0  0  0  0  0  0  0  0  0  0  0
   11.0224   -0.8000    5.4730 C   0  0  0  0  0  0  0  0  0  0  0  0
   11.0828    0.5022    6.6024 Cl  0  0  0  0  0  0  0  0  0  0  0  0
    9.8272   -1.0087    4.7671 C   0  0  0  0  0  0  0  0  0  0  0  0
    8.7202   -4.6658    2.9191 N   0  0  0  0  0  0  0  0  0  0  0  0
    8.2763   -5.7977    2.3699 C   0  0  0  0  0  0  0  0  0  0  0  0
    7.2445   -5.9108    1.5254 N   0  0  0  0  0  0  0  0  0  0  0  0
    6.5980   -4.7807    1.2146 C   0  0  0  0  0  0  0  0  0  0  0  0
    5.5183   -4.8297    0.3400 C   0  0  0  0  0  0  0  0  0  0  0  0
    4.7949   -3.6849   -0.0300 C   0  0  0  0  0  0  0  0  0  0  0  0
    3.7486   -3.9578   -0.8727 O   0  0  0  0  0  0  0  0  0  0  0  0
    3.4457   -2.9300   -1.8080 C   0  0  0  0  0  0  0  0  0  0  0  0
    2.9793   -3.4968   -3.1466 C   0  0  0  0  0  0  0  0  0  0  0  0
    2.6950   -2.4366   -4.1058 N   0  0  0  0  0  0  0  0  0  0  0  0
    3.6806   -1.5803   -4.5482 C   0  0  0  0  0  0  0  0  0  0  0  0
    3.2080   -0.4983   -5.4766 C   0  0  0  0  0  0  0  0  0  0  0  0
    4.8532   -1.6474   -4.1906 O   0  0  0  0  0  0  0  0  0  0  0  0
    2.2593    2.4458    1.7611 H   0  0  0  0  0  0  0  0  0  0  0  0
    3.3343    1.5813    3.0014 H   0  0  0  0  0  0  0  0  0  0  0  0
    2.6810    0.6496    0.1352 H   0  0  0  0  0  0  0  0  0  0  0  0
    4.0098   -1.0340   -0.4942 H   0  0  0  0  0  0  0  0  0  0  0  0
    6.5638   -1.4149    1.7569 H   0  0  0  0  0  0  0  0  0  0  0  0
    7.7228   -1.8043    3.5735 H   0  0  0  0  0  0  0  0  0  0  0  0
   10.8358   -3.6127    2.8414 H   0  0  0  0  0  0  0  0  0  0  0  0
   12.8307   -3.3445    4.1014 H   0  0  0  0  0  0  0  0  0  0  0  0
   14.5300   -1.9242    4.3974 H   0  0  0  0  0  0  0  0  0  0  0  0
   14.3612   -3.1295    5.7304 H   0  0  0  0  0  0  0  0  0  0  0  0
   14.9469    0.4110    6.6702 H   0  0  0  0  0  0  0  0  0  0  0  0
   17.1654    1.2137    7.4611 H   0  0  0  0  0  0  0  0  0  0  0  0
   19.1352   -0.3080    7.2531 H   0  0  0  0  0  0  0  0  0  0  0  0
   16.8619   -3.2931    5.5751 H   0  0  0  0  0  0  0  0  0  0  0  0
    8.9852   -0.3472    4.9385 H   0  0  0  0  0  0  0  0  0  0  0  0
    8.8078   -6.7066    2.6243 H   0  0  0  0  0  0  0  0  0  0  0  0
    5.2223   -5.7980   -0.0565 H   0  0  0  0  0  0  0  0  0  0  0  0
    4.3313   -2.3159   -1.9945 H   0  0  0  0  0  0  0  0  0  0  0  0
    2.6456   -2.3055   -1.3951 H   0  0  0  0  0  0  0  0  0  0  0  0
    2.0656   -4.0872   -3.0152 H   0  0  0  0  0  0  0  0  0  0  0  0
    3.7420   -4.1611   -3.5695 H   0  0  0  0  0  0  0  0  0  0  0  0
    1.7897   -2.4256   -4.5586 H   0  0  0  0  0  0  0  0  0  0  0  0
    2.1219   -0.5097   -5.5955 H   0  0  0  0  0  0  0  0  0  0  0  0
    3.6799   -0.6340   -6.4525 H   0  0  0  0  0  0  0  0  0  0  0  0
    3.4972    0.4706   -5.0590 H   0  0  0  0  0  0  0  0  0  0  0  0
  1  2  2  0  0  0  0
  1 39  1  0  0  0  0
  1 40  1  0  0  0  0
  2  3  1  0  0  0  0
  2 41  1  0  0  0  0
  3  4  2  0  0  0  0
  3  5  1  0  0  0  0
  5  6  1  0  0  0  0
  5 42  1  0  0  0  0
  6  7  1  0  0  0  0
  6 31  2  0  0  0  0
  7  8  2  0  0  0  0
  7 43  1  0  0  0  0
  8  9  1  0  0  0  0
  8 29  1  0  0  0  0
  9 10  1  0  0  0  0
  9 26  2  0  0  0  0
 10 11  1  0  0  0  0
 10 44  1  0  0  0  0
 11 12  1  0  0  0  0
 11 25  2  0  0  0  0
 12 13  2  0  0  0  0
 12 45  1  0  0  0  0
 13 14  1  0  0  0  0
 13 46  1  0  0  0  0
 14 15  1  0  0  0  0
 14 23  2  0  0  0  0
 15 16  1  0  0  0  0
 16 17  1  0  0  0  0
 16 47  1  0  0  0  0
 16 48  1  0  0  0  0
 17 18  1  0  0  0  0
 17 22  2  0  0  0  0
 18 19  2  0  0  0  0
 18 49  1  0  0  0  0
 19 20  1  0  0  0  0
 19 50  1  0  0  0  0
 20 21  2  0  0  0  0
 20 51  1  0  0  0  0
 21 22  1  0  0  0  0
 22 52  1  0  0  0  0
 23 24  1  0  0  0  0
 23 25  1  0  0  0  0
 25 53  1  0  0  0  0
 26 27  1  0  0  0  0
 27 28  2  0  0  0  0
 27 54  1  0  0  0  0
 28 29  1  0  0  0  0
 29 30  2  0  0  0  0
 30 31  1  0  0  0  0
 30 55  1  0  0  0  0
 31 32  1  0  0  0  0
 32 33  1  0  0  0  0
 33 34  1  0  0  0  0
 33 56  1  0  0  0  0
 33 57  1  0  0  0  0
 34 35  1  0  0  0  0
 34 58  1  0  0  0  0
 34 59  1  0  0  0  0
 35 36  1  0  0  0  0
 35 60  1  0  0  0  0
 36 37  1  0  0  0  0
 36 38  2  0  0  0  0
 37 61  1  0  0  0  0
 37 62  1  0  0  0  0
 37 63  1  0  0  0  0
M  END
$$$$
