CHEMBL1241681
 OpenBabel04072215363D

 43 47  0  0  0  0  0  0  0  0999 V2000
    0.9985    0.1696    0.0297 N   0  0  0  0  0  0  0  0  0  0  0  0
    2.3691    0.1048    0.0284 C   0  0  0  0  0  0  0  0  0  0  0  0
    3.0595    1.2582    0.0507 N   0  0  0  0  0  0  0  0  0  0  0  0
    4.4079    1.1951    0.0484 C   0  0  0  0  0  0  0  0  0  0  0  0
    5.1941    0.1002    0.0489 N   0  0  0  0  0  0  0  0  0  0  0  0
    4.4617   -1.0265    0.0185 C   0  0  0  0  0  0  0  0  0  0  0  0
    3.0797   -1.0962   -0.0114 C   0  0  0  0  0  0  0  0  0  0  0  0
    2.7633   -2.4650   -0.0474 C   0  0  0  0  0  0  0  0  0  0  0  0
    1.4230   -3.0759   -0.0313 C   0  0  0  0  0  0  0  0  0  0  0  0
    1.3016   -4.2593   -0.7493 C   0  0  0  0  0  0  0  0  0  0  0  0
    0.1235   -4.9128   -0.7559 C   0  0  0  0  0  0  0  0  0  0  0  0
   -0.8838   -4.3625   -0.0803 C   0  0  0  0  0  0  0  0  0  0  0  0
   -1.9977   -5.0008   -0.1369 N   0  0  0  0  0  0  0  0  0  0  0  0
   -3.0810   -5.6619   -0.2311 C   0  0  0  0  0  0  0  0  0  0  0  0
   -3.4689   -4.7160    0.6450 C   0  0  0  0  0  0  0  0  0  0  0  0
   -2.5618   -3.4402    1.1962 C   0  0  0  0  0  0  0  0  0  0  0  0
   -1.0548   -3.2859    0.7307 C   0  0  0  0  0  0  0  0  0  0  0  0
    0.2731   -2.5951    0.7426 C   0  0  0  0  0  0  0  0  0  0  0  0
    3.8878   -3.2253    0.0018 N   0  0  0  0  0  0  0  0  0  0  0  0
    4.9094   -2.3274    0.0168 N   0  0  0  0  0  0  0  0  0  0  0  0
    6.3000   -2.7700    0.0431 C   0  0  0  0  0  0  0  0  0  0  0  0
    6.7002   -3.6441   -1.1544 C   0  0  0  0  0  0  0  0  0  0  0  0
    7.9149   -4.4574   -0.7034 C   0  0  0  0  0  0  0  0  0  0  0  0
    7.9603   -4.3659    0.8187 C   0  0  0  0  0  0  0  0  0  0  0  0
    6.6744   -3.6565    1.2392 C   0  0  0  0  0  0  0  0  0  0  0  0
    0.5437    1.0570    0.0702 H   0  0  0  0  0  0  0  0  0  0  0  0
    0.4430   -0.6435    0.0958 H   0  0  0  0  0  0  0  0  0  0  0  0
    4.9251    2.1501    0.0435 H   0  0  0  0  0  0  0  0  0  0  0  0
    2.1057   -4.7207   -1.3042 H   0  0  0  0  0  0  0  0  0  0  0  0
   -0.0909   -5.8413   -1.2612 H   0  0  0  0  0  0  0  0  0  0  0  0
   -2.6387   -6.3549   -0.9302 H   0  0  0  0  0  0  0  0  0  0  0  0
   -4.4925   -4.8988    0.9784 H   0  0  0  0  0  0  0  0  0  0  0  0
   -2.9962   -2.7093    1.8810 H   0  0  0  0  0  0  0  0  0  0  0  0
    0.4234   -1.6993    1.3719 H   0  0  0  0  0  0  0  0  0  0  0  0
    6.9357   -1.8736    0.0595 H   0  0  0  0  0  0  0  0  0  0  0  0
    6.9257   -3.0485   -2.0451 H   0  0  0  0  0  0  0  0  0  0  0  0
    5.8957   -4.3360   -1.4262 H   0  0  0  0  0  0  0  0  0  0  0  0
    8.8401   -4.0596   -1.1359 H   0  0  0  0  0  0  0  0  0  0  0  0
    7.8313   -5.4981   -1.0397 H   0  0  0  0  0  0  0  0  0  0  0  0
    8.8384   -3.7880    1.1294 H   0  0  0  0  0  0  0  0  0  0  0  0
    8.0477   -5.3549    1.2841 H   0  0  0  0  0  0  0  0  0  0  0  0
    6.8179   -3.0804    2.1593 H   0  0  0  0  0  0  0  0  0  0  0  0
    5.9035   -4.4073    1.4422 H   0  0  0  0  0  0  0  0  0  0  0  0
  1  2  1  0  0  0  0
  1 26  1  0  0  0  0
  1 27  1  0  0  0  0
  2  3  1  0  0  0  0
  2  7  2  0  0  0  0
  3  4  2  0  0  0  0
  4  5  1  0  0  0  0
  4 28  1  0  0  0  0
  5  6  2  0  0  0  0
  6  7  1  0  0  0  0
  6 20  1  0  0  0  0
  7  8  1  0  0  0  0
  8  9  1  0  0  0  0
  8 19  2  0  0  0  0
  9 10  1  0  0  0  0
  9 18  2  0  0  0  0
 10 11  2  0  0  0  0
 10 29  1  0  0  0  0
 11 12  1  0  0  0  0
 11 30  1  0  0  0  0
 12 13  1  0  0  0  0
 12 17  2  0  0  0  0
 13 14  2  0  0  0  0
 14 15  1  0  0  0  0
 14 31  1  0  0  0  0
 15 16  2  0  0  0  0
 15 32  1  0  0  0  0
 16 17  1  0  0  0  0
 16 33  1  0  0  0  0
 17 18  1  0  0  0  0
 18 34  1  0  0  0  0
 19 20  1  0  0  0  0
 20 21  1  0  0  0  0
 21 22  1  0  0  0  0
 21 25  1  0  0  0  0
 21 35  1  0  0  0  0
 22 23  1  0  0  0  0
 22 36  1  0  0  0  0
 22 37  1  0  0  0  0
 23 24  1  0  0  0  0
 23 38  1  0  0  0  0
 23 39  1  0  0  0  0
 24 25  1  0  0  0  0
 24 40  1  0  0  0  0
 24 41  1  0  0  0  0
 25 42  1  0  0  0  0
 25 43  1  0  0  0  0
M  END
$$$$
