CHEMBL375570
 OpenBabel04072215373D

 66 72  0  0  0  0  0  0  0  0999 V2000
    3.5149   -1.8275   -0.3341 C   0  0  0  0  0  0  0  0  0  0  0  0
    3.1888   -0.5200    0.3723 C   0  0  0  0  0  0  0  0  0  0  0  0
    3.7158   -0.4344    1.8152 C   0  0  0  0  0  0  0  0  0  0  0  0
    5.1638   -0.3055    1.9467 N   0  0  0  0  0  0  0  0  0  0  0  0
    5.8538    0.9231    1.8304 C   0  0  0  0  0  0  0  0  0  0  0  0
    5.3990    2.2356    1.6457 C   0  0  0  0  0  0  0  0  0  0  0  0
    6.3512    3.2682    1.5044 C   0  0  0  0  0  0  0  0  0  0  0  0
    7.7261    3.0315    1.5582 C   0  0  0  0  0  0  0  0  0  0  0  0
    8.7300    4.0253    1.4487 N   0  0  0  0  0  0  0  0  0  0  0  0
    8.5324    5.3733    1.1987 C   0  0  0  0  0  0  0  0  0  0  0  0
    7.4214    5.8666    0.9961 O   0  0  0  0  0  0  0  0  0  0  0  0
    9.7067    6.1016    1.1959 N   0  0  0  0  0  0  0  0  0  0  0  0
    9.7510    7.5218    1.0680 C   0  0  0  0  0  0  0  0  0  0  0  0
    8.6494    8.3201    1.4111 C   0  0  0  0  0  0  0  0  0  0  0  0
    8.6473    9.6971    1.1833 C   0  0  0  0  0  0  0  0  0  0  0  0
    9.7687   10.3107    0.6393 C   0  0  0  0  0  0  0  0  0  0  0  0
   10.9043    9.5512    0.3601 C   0  0  0  0  0  0  0  0  0  0  0  0
   10.9018    8.1659    0.5836 C   0  0  0  0  0  0  0  0  0  0  0  0
   12.4909    7.2022    0.1885 Br  0  0  0  0  0  0  0  0  0  0  0  0
    8.1605    1.7156    1.7244 C   0  0  0  0  0  0  0  0  0  0  0  0
    7.2326    0.6583    1.8244 C   0  0  0  0  0  0  0  0  0  0  0  0
    7.2575   -0.7188    1.8248 C   0  0  0  0  0  0  0  0  0  0  0  0
    8.3694   -1.4539    1.3923 C   0  0  0  0  0  0  0  0  0  0  0  0
    8.0932   -2.7657    0.9636 C   0  0  0  0  0  0  0  0  0  0  0  0
    6.8342   -3.3810    1.0882 C   0  0  0  0  0  0  0  0  0  0  0  0
    6.0141   -2.7699    2.0937 C   0  0  0  0  0  0  0  0  0  0  0  0
    6.0727   -1.3581    2.0647 C   0  0  0  0  0  0  0  0  0  0  0  0
    6.0255   -3.6120    3.4414 C   0  0  0  0  0  0  0  0  0  0  0  0
    7.0705   -4.8076    3.4606 C   0  0  0  0  0  0  0  0  0  0  0  0
    6.8729   -5.5636    2.1941 C   0  0  0  0  0  0  0  0  0  0  0  0
    6.4746   -6.8266    2.0513 N   0  0  0  0  0  0  0  0  0  0  0  0
    6.0189   -6.8466    0.7726 N   0  0  0  0  0  0  0  0  0  0  0  0
    5.3576   -8.0257    0.2691 C   0  0  0  0  0  0  0  0  0  0  0  0
    6.0405   -5.6160    0.1613 C   0  0  0  0  0  0  0  0  0  0  0  0
    6.7575   -4.8161    1.0120 C   0  0  0  0  0  0  0  0  0  0  0  0
    9.3481   -3.3544    0.5583 C   0  0  0  0  0  0  0  0  0  0  0  0
    9.6780   -4.4629    0.1625 O   0  0  0  0  0  0  0  0  0  0  0  0
   10.2837   -2.3482    0.7686 N   0  0  0  0  0  0  0  0  0  0  0  0
    9.7700   -1.0848    1.2403 C   0  0  0  0  0  0  0  0  0  0  0  0
    3.0814   -1.8325   -1.3405 H   0  0  0  0  0  0  0  0  0  0  0  0
    3.1021   -2.6820    0.2111 H   0  0  0  0  0  0  0  0  0  0  0  0
    4.5926   -1.9645   -0.4442 H   0  0  0  0  0  0  0  0  0  0  0  0
    2.0954   -0.4191    0.3961 H   0  0  0  0  0  0  0  0  0  0  0  0
    3.5644    0.3156   -0.2299 H   0  0  0  0  0  0  0  0  0  0  0  0
    3.3921   -1.2967    2.4062 H   0  0  0  0  0  0  0  0  0  0  0  0
    3.2772    0.4539    2.2879 H   0  0  0  0  0  0  0  0  0  0  0  0
    4.3410    2.4764    1.5781 H   0  0  0  0  0  0  0  0  0  0  0  0
    5.9588    4.2695    1.3501 H   0  0  0  0  0  0  0  0  0  0  0  0
    9.6859    3.7276    1.5730 H   0  0  0  0  0  0  0  0  0  0  0  0
   10.5596    5.6166    0.9536 H   0  0  0  0  0  0  0  0  0  0  0  0
    7.7579    7.8895    1.8600 H   0  0  0  0  0  0  0  0  0  0  0  0
    7.7571   10.2757    1.4195 H   0  0  0  0  0  0  0  0  0  0  0  0
    9.7540   11.3786    0.4367 H   0  0  0  0  0  0  0  0  0  0  0  0
   11.7822   10.0487   -0.0445 H   0  0  0  0  0  0  0  0  0  0  0  0
    9.2210    1.4986    1.7565 H   0  0  0  0  0  0  0  0  0  0  0  0
    5.0229   -4.0301    3.5810 H   0  0  0  0  0  0  0  0  0  0  0  0
    6.2535   -2.9487    4.2834 H   0  0  0  0  0  0  0  0  0  0  0  0
    6.9651   -5.4420    4.3435 H   0  0  0  0  0  0  0  0  0  0  0  0
    8.0954   -4.4031    3.4714 H   0  0  0  0  0  0  0  0  0  0  0  0
    5.6154   -8.8823    0.8966 H   0  0  0  0  0  0  0  0  0  0  0  0
    5.6895   -8.2007   -0.7569 H   0  0  0  0  0  0  0  0  0  0  0  0
    4.2794   -7.8475    0.2985 H   0  0  0  0  0  0  0  0  0  0  0  0
    5.5082   -5.4237   -0.7598 H   0  0  0  0  0  0  0  0  0  0  0  0
   11.2620   -2.5556    0.6442 H   0  0  0  0  0  0  0  0  0  0  0  0
    9.9292   -0.3283    0.4709 H   0  0  0  0  0  0  0  0  0  0  0  0
   10.2369   -0.8216    2.1922 H   0  0  0  0  0  0  0  0  0  0  0  0
  1  2  1  0  0  0  0
  1 40  1  0  0  0  0
  1 41  1  0  0  0  0
  1 42  1  0  0  0  0
  2  3  1  0  0  0  0
  2 43  1  0  0  0  0
  2 44  1  0  0  0  0
  3  4  1  0  0  0  0
  3 45  1  0  0  0  0
  3 46  1  0  0  0  0
  4  5  1  0  0  0  0
  4 27  1  0  0  0  0
  5  6  1  0  0  0  0
  5 21  2  0  0  0  0
  6  7  2  0  0  0  0
  6 47  1  0  0  0  0
  7  8  1  0  0  0  0
  7 48  1  0  0  0  0
  8  9  1  0  0  0  0
  8 20  2  0  0  0  0
  9 10  1  0  0  0  0
  9 49  1  0  0  0  0
 10 11  2  0  0  0  0
 10 12  1  0  0  0  0
 12 13  1  0  0  0  0
 12 50  1  0  0  0  0
 13 14  1  0  0  0  0
 13 18  2  0  0  0  0
 14 15  2  0  0  0  0
 14 51  1  0  0  0  0
 15 16  1  0  0  0  0
 15 52  1  0  0  0  0
 16 17  2  0  0  0  0
 16 53  1  0  0  0  0
 17 18  1  0  0  0  0
 17 54  1  0  0  0  0
 18 19  1  0  0  0  0
 20 21  1  0  0  0  0
 20 55  1  0  0  0  0
 21 22  1  0  0  0  0
 22 23  1  0  0  0  0
 22 27  2  0  0  0  0
 23 24  2  0  0  0  0
 23 39  1  0  0  0  0
 24 25  1  0  0  0  0
 24 36  1  0  0  0  0
 25 26  2  0  0  0  0
 25 35  1  0  0  0  0
 26 27  1  0  0  0  0
 26 28  1  0  0  0  0
 28 29  1  0  0  0  0
 28 56  1  0  0  0  0
 28 57  1  0  0  0  0
 29 30  1  0  0  0  0
 29 58  1  0  0  0  0
 29 59  1  0  0  0  0
 30 31  2  0  0  0  0
 30 35  1  0  0  0  0
 31 32  1  0  0  0  0
 32 33  1  0  0  0  0
 32 34  1  0  0  0  0
 33 60  1  0  0  0  0
 33 61  1  0  0  0  0
 33 62  1  0  0  0  0
 34 35  2  0  0  0  0
 34 63  1  0  0  0  0
 36 37  2  0  0  0  0
 36 38  1  0  0  0  0
 38 39  1  0  0  0  0
 38 64  1  0  0  0  0
 39 65  1  0  0  0  0
 39 66  1  0  0  0  0
M  END
$$$$
