CHEMBL1076475
 OpenBabel04072215353D

 72 77  0  0  0  0  0  0  0  0999 V2000
    0.0503   -1.6565    2.8906 C   0  0  0  0  0  0  0  0  0  0  0  0
    0.8005   -0.6687    2.0327 C   0  0  0  0  0  0  0  0  0  0  0  0
    0.8007    0.6779    2.4004 C   0  0  0  0  0  0  0  0  0  0  0  0
    1.4832    1.6191    1.6319 C   0  0  0  0  0  0  0  0  0  0  0  0
    2.1938    1.2372    0.4921 C   0  0  0  0  0  0  0  0  0  0  0  0
    2.9074    2.1497   -0.3219 N   0  0  0  0  0  0  0  0  0  0  0  0
    3.0065    3.5137   -0.1334 C   0  0  0  0  0  0  0  0  0  0  0  0
    2.4745    4.1755    0.7584 O   0  0  0  0  0  0  0  0  0  0  0  0
    3.8367    4.2706   -1.1155 C   0  0  0  0  0  0  0  0  0  0  0  0
    4.9630    3.7201   -1.7347 C   0  0  0  0  0  0  0  0  0  0  0  0
    5.7293    4.5018   -2.6049 C   0  0  0  0  0  0  0  0  0  0  0  0
    5.3718    5.8273   -2.8644 C   0  0  0  0  0  0  0  0  0  0  0  0
    4.2396    6.3930   -2.2628 C   0  0  0  0  0  0  0  0  0  0  0  0
    3.8176    7.8125   -2.5595 C   0  0  0  0  0  0  0  0  0  0  0  0
    4.6357    8.4453   -3.4473 F   0  0  0  0  0  0  0  0  0  0  0  0
    2.5683    7.8774   -3.0991 F   0  0  0  0  0  0  0  0  0  0  0  0
    3.7906    8.6000   -1.4511 F   0  0  0  0  0  0  0  0  0  0  0  0
    3.4867    5.6071   -1.3760 C   0  0  0  0  0  0  0  0  0  0  0  0
    2.1862   -0.1144    0.1106 C   0  0  0  0  0  0  0  0  0  0  0  0
    1.4897   -1.0709    0.8632 C   0  0  0  0  0  0  0  0  0  0  0  0
    1.2423   -2.3814    0.3935 N   0  0  0  0  0  0  0  0  0  0  0  0
    1.9497   -3.1582   -0.4791 C   0  0  0  0  0  0  0  0  0  0  0  0
    1.2537   -3.9566   -1.2822 N   0  0  0  0  0  0  0  0  0  0  0  0
    1.4118   -5.1816   -0.6812 C   0  0  0  0  0  0  0  0  0  0  0  0
    0.5971   -6.3182   -0.7224 C   0  0  0  0  0  0  0  0  0  0  0  0
    0.8842   -7.3674    0.1607 C   0  0  0  0  0  0  0  0  0  0  0  0
    1.9965   -7.3168    1.0086 C   0  0  0  0  0  0  0  0  0  0  0  0
    2.8815   -6.2310    0.9913 C   0  0  0  0  0  0  0  0  0  0  0  0
    2.5293   -5.1684    0.1458 C   0  0  0  0  0  0  0  0  0  0  0  0
    3.0673   -3.9081   -0.0875 N   0  0  0  0  0  0  0  0  0  0  0  0
    4.4447   -3.5637   -0.1941 C   0  0  0  0  0  0  0  0  0  0  0  0
    5.3477   -4.5443   -0.6040 C   0  0  0  0  0  0  0  0  0  0  0  0
    6.6842   -4.1908   -0.7208 C   0  0  0  0  0  0  0  0  0  0  0  0
    7.5974   -5.0998   -1.2954 N   0  0  0  0  0  0  0  0  0  0  0  0
    8.9895   -4.9275   -0.8338 C   0  0  0  0  0  0  0  0  0  0  0  0
    9.9010   -5.9934   -1.4570 C   0  0  0  0  0  0  0  0  0  0  0  0
   11.3408   -5.8564   -1.0124 C   0  0  0  0  0  0  0  0  0  0  0  0
   12.2390   -5.0829   -1.7377 C   0  0  0  0  0  0  0  0  0  0  0  0
   13.5659   -5.0074   -1.3127 C   0  0  0  0  0  0  0  0  0  0  0  0
   13.9578   -5.7025   -0.1783 C   0  0  0  0  0  0  0  0  0  0  0  0
   12.9976   -6.4406    0.4948 C   0  0  0  0  0  0  0  0  0  0  0  0
   11.7043   -6.5299    0.1093 N   0  0  0  0  0  0  0  0  0  0  0  0
    7.0877   -2.9496   -0.4201 N   0  0  0  0  0  0  0  0  0  0  0  0
    6.1405   -2.0665   -0.0573 C   0  0  0  0  0  0  0  0  0  0  0  0
    4.8223   -2.2946    0.0339 N   0  0  0  0  0  0  0  0  0  0  0  0
   -0.3841   -1.1714    3.7715 H   0  0  0  0  0  0  0  0  0  0  0  0
    0.7278   -2.4366    3.2524 H   0  0  0  0  0  0  0  0  0  0  0  0
   -0.7718   -2.1148    2.3317 H   0  0  0  0  0  0  0  0  0  0  0  0
    0.2546    1.0134    3.2795 H   0  0  0  0  0  0  0  0  0  0  0  0
    1.4245    2.6526    1.9556 H   0  0  0  0  0  0  0  0  0  0  0  0
    3.3409    1.7523   -1.1437 H   0  0  0  0  0  0  0  0  0  0  0  0
    5.2842    2.7037   -1.5258 H   0  0  0  0  0  0  0  0  0  0  0  0
    6.6163    4.0817   -3.0738 H   0  0  0  0  0  0  0  0  0  0  0  0
    5.9872    6.4219   -3.5395 H   0  0  0  0  0  0  0  0  0  0  0  0
    2.6168    6.0402   -0.8796 H   0  0  0  0  0  0  0  0  0  0  0  0
    2.6907   -0.4288   -0.7979 H   0  0  0  0  0  0  0  0  0  0  0  0
    0.2685   -2.3822    0.0932 H   0  0  0  0  0  0  0  0  0  0  0  0
   -0.2845   -6.3377   -1.3550 H   0  0  0  0  0  0  0  0  0  0  0  0
    0.2087   -8.2177    0.2116 H   0  0  0  0  0  0  0  0  0  0  0  0
    2.1679   -8.1298    1.7120 H   0  0  0  0  0  0  0  0  0  0  0  0
    3.7223   -6.1738    1.6710 H   0  0  0  0  0  0  0  0  0  0  0  0
    5.0231   -5.5397   -0.8825 H   0  0  0  0  0  0  0  0  0  0  0  0
    7.2831   -6.0603   -1.2060 H   0  0  0  0  0  0  0  0  0  0  0  0
    9.0255   -5.0165    0.2596 H   0  0  0  0  0  0  0  0  0  0  0  0
    9.3640   -3.9334   -1.1065 H   0  0  0  0  0  0  0  0  0  0  0  0
    9.8503   -5.9477   -2.5519 H   0  0  0  0  0  0  0  0  0  0  0  0
    9.5432   -6.9944   -1.1830 H   0  0  0  0  0  0  0  0  0  0  0  0
   11.9233   -4.5495   -2.6288 H   0  0  0  0  0  0  0  0  0  0  0  0
   14.2855   -4.4161   -1.8719 H   0  0  0  0  0  0  0  0  0  0  0  0
   14.9831   -5.6713    0.1726 H   0  0  0  0  0  0  0  0  0  0  0  0
   13.2563   -7.0007    1.3896 H   0  0  0  0  0  0  0  0  0  0  0  0
    6.4846   -1.0662    0.1826 H   0  0  0  0  0  0  0  0  0  0  0  0
  1  2  1  0  0  0  0
  1 46  1  0  0  0  0
  1 47  1  0  0  0  0
  1 48  1  0  0  0  0
  2  3  1  0  0  0  0
  2 20  2  0  0  0  0
  3  4  2  0  0  0  0
  3 49  1  0  0  0  0
  4  5  1  0  0  0  0
  4 50  1  0  0  0  0
  5  6  1  0  0  0  0
  5 19  2  0  0  0  0
  6  7  1  0  0  0  0
  6 51  1  0  0  0  0
  7  8  2  0  0  0  0
  7  9  1  0  0  0  0
  9 10  1  0  0  0  0
  9 18  2  0  0  0  0
 10 11  2  0  0  0  0
 10 52  1  0  0  0  0
 11 12  1  0  0  0  0
 11 53  1  0  0  0  0
 12 13  2  0  0  0  0
 12 54  1  0  0  0  0
 13 14  1  0  0  0  0
 13 18  1  0  0  0  0
 14 15  1  0  0  0  0
 14 16  1  0  0  0  0
 14 17  1  0  0  0  0
 18 55  1  0  0  0  0
 19 20  1  0  0  0  0
 19 56  1  0  0  0  0
 20 21  1  0  0  0  0
 21 22  1  0  0  0  0
 21 57  1  0  0  0  0
 22 23  2  0  0  0  0
 22 30  1  0  0  0  0
 23 24  1  0  0  0  0
 24 25  1  0  0  0  0
 24 29  2  0  0  0  0
 25 26  2  0  0  0  0
 25 58  1  0  0  0  0
 26 27  1  0  0  0  0
 26 59  1  0  0  0  0
 27 28  2  0  0  0  0
 27 60  1  0  0  0  0
 28 29  1  0  0  0  0
 28 61  1  0  0  0  0
 29 30  1  0  0  0  0
 30 31  1  0  0  0  0
 31 32  1  0  0  0  0
 31 45  2  0  0  0  0
 32 33  2  0  0  0  0
 32 62  1  0  0  0  0
 33 34  1  0  0  0  0
 33 43  1  0  0  0  0
 34 35  1  0  0  0  0
 34 63  1  0  0  0  0
 35 36  1  0  0  0  0
 35 64  1  0  0  0  0
 35 65  1  0  0  0  0
 36 37  1  0  0  0  0
 36 66  1  0  0  0  0
 36 67  1  0  0  0  0
 37 38  1  0  0  0  0
 37 42  2  0  0  0  0
 38 39  2  0  0  0  0
 38 68  1  0  0  0  0
 39 40  1  0  0  0  0
 39 69  1  0  0  0  0
 40 41  2  0  0  0  0
 40 70  1  0  0  0  0
 41 42  1  0  0  0  0
 41 71  1  0  0  0  0
 43 44  2  0  0  0  0
 44 45  1  0  0  0  0
 44 72  1  0  0  0  0
M  END
$$$$
