CHEMBL380915
 OpenBabel04072215373D

 36 39  0  0  0  0  0  0  0  0999 V2000
    1.1469   -0.3845    0.6282 C   0  0  0  0  0  0  0  0  0  0  0  0
    2.5263   -0.1788    0.2490 N   0  0  0  0  0  0  0  0  0  0  0  0
    3.2120    0.9860    0.4400 C   0  0  0  0  0  0  0  0  0  0  0  0
    4.4916    0.8187   -0.0293 C   0  0  0  0  0  0  0  0  0  0  0  0
    5.5309    1.7930    0.0799 C   0  0  0  0  0  0  0  0  0  0  0  0
    5.5027    3.1348    0.0505 C   0  0  0  0  0  0  0  0  0  0  0  0
    4.3883    4.0821   -0.1979 C   0  0  0  0  0  0  0  0  0  0  0  0
    3.1922    3.8901   -0.2705 O   0  0  0  0  0  0  0  0  0  0  0  0
    5.0394    5.3009   -0.3348 N   0  0  0  0  0  0  0  0  0  0  0  0
    6.3974    5.2789   -0.1202 N   0  0  0  0  0  0  0  0  0  0  0  0
    6.6969    4.0271    0.1454 C   0  0  0  0  0  0  0  0  0  0  0  0
    8.0466    3.5740    0.5042 C   0  0  0  0  0  0  0  0  0  0  0  0
    9.1636    4.2641    0.0593 C   0  0  0  0  0  0  0  0  0  0  0  0
   10.4276    3.8494    0.3383 N   0  0  0  0  0  0  0  0  0  0  0  0
   10.5203    2.7300    1.0933 C   0  0  0  0  0  0  0  0  0  0  0  0
    9.4059    2.0620    1.5680 C   0  0  0  0  0  0  0  0  0  0  0  0
    8.1494    2.4735    1.2918 N   0  0  0  0  0  0  0  0  0  0  0  0
    4.6035   -0.5375   -0.5201 C   0  0  0  0  0  0  0  0  0  0  0  0
    5.6131   -1.3510   -1.1063 C   0  0  0  0  0  0  0  0  0  0  0  0
    7.3603   -0.7133   -1.4968 Br  0  0  0  0  0  0  0  0  0  0  0  0
    5.3450   -2.6879   -1.4435 C   0  0  0  0  0  0  0  0  0  0  0  0
    4.0907   -3.2376   -1.2179 C   0  0  0  0  0  0  0  0  0  0  0  0
    3.0719   -2.4695   -0.6564 C   0  0  0  0  0  0  0  0  0  0  0  0
    3.3451   -1.1316   -0.3181 C   0  0  0  0  0  0  0  0  0  0  0  0
    0.7432    0.5370    1.0553 H   0  0  0  0  0  0  0  0  0  0  0  0
    1.1101   -1.1834    1.3733 H   0  0  0  0  0  0  0  0  0  0  0  0
    0.5797   -0.6582   -0.2650 H   0  0  0  0  0  0  0  0  0  0  0  0
    2.7289    1.8331    0.9099 H   0  0  0  0  0  0  0  0  0  0  0  0
    6.5022    1.3354    0.2057 H   0  0  0  0  0  0  0  0  0  0  0  0
    4.5530    6.1742   -0.5013 H   0  0  0  0  0  0  0  0  0  0  0  0
    9.0852    5.1600   -0.5472 H   0  0  0  0  0  0  0  0  0  0  0  0
   11.5232    2.3764    1.3054 H   0  0  0  0  0  0  0  0  0  0  0  0
    9.4896    1.1689    2.1773 H   0  0  0  0  0  0  0  0  0  0  0  0
    6.1192   -3.3081   -1.8901 H   0  0  0  0  0  0  0  0  0  0  0  0
    3.8981   -4.2740   -1.4853 H   0  0  0  0  0  0  0  0  0  0  0  0
    2.0931   -2.9058   -0.4835 H   0  0  0  0  0  0  0  0  0  0  0  0
  1  2  1  0  0  0  0
  1 25  1  0  0  0  0
  1 26  1  0  0  0  0
  1 27  1  0  0  0  0
  2  3  1  0  0  0  0
  2 24  1  0  0  0  0
  3  4  2  0  0  0  0
  3 28  1  0  0  0  0
  4  5  1  0  0  0  0
  4 18  1  0  0  0  0
  5  6  2  0  0  0  0
  5 29  1  0  0  0  0
  6  7  1  0  0  0  0
  6 11  1  0  0  0  0
  7  8  2  0  0  0  0
  7  9  1  0  0  0  0
  9 10  1  0  0  0  0
  9 30  1  0  0  0  0
 10 11  2  0  0  0  0
 11 12  1  0  0  0  0
 12 13  1  0  0  0  0
 12 17  2  0  0  0  0
 13 14  2  0  0  0  0
 13 31  1  0  0  0  0
 14 15  1  0  0  0  0
 15 16  2  0  0  0  0
 15 32  1  0  0  0  0
 16 17  1  0  0  0  0
 16 33  1  0  0  0  0
 18 19  1  0  0  0  0
 18 24  2  0  0  0  0
 19 20  1  0  0  0  0
 19 21  2  0  0  0  0
 21 22  1  0  0  0  0
 21 34  1  0  0  0  0
 22 23  2  0  0  0  0
 22 35  1  0  0  0  0
 23 24  1  0  0  0  0
 23 36  1  0  0  0  0
M  END
$$$$
