CHEMBL3984039
 OpenBabel04072215373D

 70 73  0  0  1  0  0  0  0  0999 V2000
    1.8065   -4.5887   -3.9773 C   0  0  0  0  0  0  0  0  0  0  0  0
    1.7104   -3.2256   -3.3895 O   0  0  0  0  0  0  0  0  0  0  0  0
    2.6592   -2.4286   -2.6162 C   0  0  0  0  0  0  0  0  0  0  0  0
    2.5052   -1.0966   -2.1392 C   0  0  0  0  0  0  0  0  0  0  0  0
    3.3732   -0.3881   -1.2784 C   0  0  0  0  0  0  0  0  0  0  0  0
    3.0187    0.8295   -0.7868 O   0  0  0  0  0  0  0  0  0  0  0  0
    3.8975    1.6011   -0.0536 C   0  0  0  0  0  0  0  0  0  0  0  0
    4.5675   -0.9618   -0.9781 C   0  0  0  0  0  0  0  0  0  0  0  0
    4.8855   -2.2176   -1.4842 C   0  0  0  0  0  0  0  0  0  0  0  0
    6.1200   -2.8551   -1.0669 N   0  0  0  0  0  0  0  0  0  0  0  0
    6.5947   -2.6900    0.3595 C   0  0  0  0  0  0  0  0  0  0  0  0
    5.5778   -2.3470    1.4477 C   0  0  0  0  0  0  0  0  0  0  0  0
    4.4801   -3.2913    1.7239 C   0  0  0  0  0  0  0  0  0  0  0  0
    3.5894   -2.7397    2.7763 N   0  0  0  0  0  0  0  0  0  0  0  0
    2.4846   -3.6690    3.0986 C   0  0  0  0  0  0  0  0  0  0  0  0
    1.2208   -2.8294    3.3093 C   0  0  0  0  0  0  0  0  0  0  0  0
    1.6737   -1.3838    3.1443 C   0  0  3  0  0  0  0  0  0  0  0  0
    1.9563   -0.8012    4.3936 O   0  0  0  0  0  0  0  0  0  0  0  0
    2.9348   -1.5000    2.3175 C   0  0  0  0  0  0  0  0  0  0  0  0
    7.0485   -3.5228   -2.0116 C   0  0  0  0  0  0  0  0  0  0  0  0
    7.6918   -4.6210   -1.4609 C   0  0  0  0  0  0  0  0  0  0  0  0
    8.5623   -5.2421   -2.1544 C   0  0  0  0  0  0  0  0  0  0  0  0
    8.8808   -4.8913   -3.3534 C   0  0  0  0  0  0  0  0  0  0  0  0
    9.7339   -5.5443   -3.6617 N   0  0  0  0  0  0  0  0  0  0  0  0
   10.5903   -6.2385   -3.9178 C   0  0  0  0  0  0  0  0  0  0  0  0
   10.8589   -6.0216   -5.1566 C   0  0  0  0  0  0  0  0  0  0  0  0
   12.1754   -7.4508   -5.3131 C   0  0  0  0  0  0  0  0  0  0  0  0
   12.5344   -8.6730   -4.4115 C   0  0  0  0  0  0  0  0  0  0  0  0
   13.3260   -9.5852   -5.1042 N   0  0  0  0  0  0  0  0  0  0  0  0
   13.5812   -9.0976   -6.3084 N   0  0  0  0  0  0  0  0  0  0  0  0
   14.2927   -9.8840   -7.4002 C   0  0  0  0  0  0  0  0  0  0  0  0
   12.9877   -7.8304   -6.4178 C   0  0  0  0  0  0  0  0  0  0  0  0
    9.7676   -4.6635   -5.5644 N   0  0  0  0  0  0  0  0  0  0  0  0
    8.6447   -4.0550   -4.3332 C   0  0  0  0  0  0  0  0  0  0  0  0
    7.4500   -3.1143   -3.4784 C   0  0  0  0  0  0  0  0  0  0  0  0
    3.9330   -2.8188   -2.3901 C   0  0  0  0  0  0  0  0  0  0  0  0
    0.2958   -1.9672   -0.8965 Cl  0  0  0  0  0  0  0  0  0  0  0  0
    0.9243   -5.2733   -4.2278 H   0  0  0  0  0  0  0  0  0  0  0  0
    1.6290   -5.5244   -3.3402 H   0  0  0  0  0  0  0  0  0  0  0  0
    2.7710   -4.7633   -4.5316 H   0  0  0  0  0  0  0  0  0  0  0  0
    1.6230   -0.5996   -2.3762 H   0  0  0  0  0  0  0  0  0  0  0  0
    3.5039    2.6126    0.1026 H   0  0  0  0  0  0  0  0  0  0  0  0
    4.8675    1.6929   -0.6042 H   0  0  0  0  0  0  0  0  0  0  0  0
    4.0952    1.1175    0.9225 H   0  0  0  0  0  0  0  0  0  0  0  0
    5.2871   -0.3986   -0.3917 H   0  0  0  0  0  0  0  0  0  0  0  0
    7.3300   -1.8461    0.4255 H   0  0  0  0  0  0  0  0  0  0  0  0
    7.0516   -3.6122    0.7219 H   0  0  0  0  0  0  0  0  0  0  0  0
    5.0345   -1.5239    1.1127 H   0  0  0  0  0  0  0  0  0  0  0  0
    6.1136   -2.2499    2.4189 H   0  0  0  0  0  0  0  0  0  0  0  0
    4.9732   -4.2143    2.0473 H   0  0  0  0  0  0  0  0  0  0  0  0
    3.9430   -3.3931    0.7696 H   0  0  0  0  0  0  0  0  0  0  0  0
    2.7005   -4.2781    4.0042 H   0  0  0  0  0  0  0  0  0  0  0  0
    2.2966   -4.4027    2.2820 H   0  0  0  0  0  0  0  0  0  0  0  0
    0.7672   -2.9994    4.3055 H   0  0  0  0  0  0  0  0  0  0  0  0
    0.4643   -3.0997    2.5407 H   0  0  0  0  0  0  0  0  0  0  0  0
    0.8992   -0.7482    2.6685 H   0  0  0  0  0  0  0  0  0  0  0  0
    2.6479   -1.3376    4.8557 H   0  0  0  0  0  0  0  0  0  0  0  0
    3.5860   -0.6044    2.4259 H   0  0  0  0  0  0  0  0  0  0  0  0
    2.7107   -1.5747    1.2384 H   0  0  0  0  0  0  0  0  0  0  0  0
    7.6283   -5.0954   -0.5077 H   0  0  0  0  0  0  0  0  0  0  0  0
    9.0780   -6.1309   -1.8051 H   0  0  0  0  0  0  0  0  0  0  0  0
   10.9089   -6.9147   -3.2159 H   0  0  0  0  0  0  0  0  0  0  0  0
   12.1927   -9.0979   -3.4644 H   0  0  0  0  0  0  0  0  0  0  0  0
   14.6867  -10.8898   -7.0728 H   0  0  0  0  0  0  0  0  0  0  0  0
   15.1683   -9.3388   -7.8241 H   0  0  0  0  0  0  0  0  0  0  0  0
   13.6137  -10.1179   -8.2671 H   0  0  0  0  0  0  0  0  0  0  0  0
   13.0501   -7.3115   -7.2946 H   0  0  0  0  0  0  0  0  0  0  0  0
    6.8132   -2.1569   -3.5879 H   0  0  0  0  0  0  0  0  0  0  0  0
    4.1061   -3.5230   -3.1070 H   0  0  0  0  0  0  0  0  0  0  0  0
    1.3854   -1.3271   -0.2607 H   0  0  0  0  0  0  0  0  0  0  0  0
  1  2  1  0  0  0  0
  1 38  1  0  0  0  0
  1 39  1  0  0  0  0
  1 40  1  0  0  0  0
  2  3  1  0  0  0  0
  3  4  1  0  0  0  0
  3 36  2  0  0  0  0
  4  5  2  0  0  0  0
  4 41  1  0  0  0  0
  5  6  1  0  0  0  0
  5  8  1  0  0  0  0
  6  7  1  0  0  0  0
  7 42  1  0  0  0  0
  7 43  1  0  0  0  0
  7 44  1  0  0  0  0
  8  9  2  0  0  0  0
  8 45  1  0  0  0  0
  9 10  1  0  0  0  0
  9 36  1  0  0  0  0
 10 11  1  0  0  0  0
 10 20  1  0  0  0  0
 11 12  1  0  0  0  0
 11 46  1  0  0  0  0
 11 47  1  0  0  0  0
 12 13  1  0  0  0  0
 12 48  1  0  0  0  0
 12 49  1  0  0  0  0
 13 14  1  0  0  0  0
 13 50  1  0  0  0  0
 13 51  1  0  0  0  0
 14 15  1  0  0  0  0
 14 19  1  0  0  0  0
 15 16  1  0  0  0  0
 15 52  1  0  0  0  0
 15 53  1  0  0  0  0
 16 17  1  0  0  0  0
 16 54  1  0  0  0  0
 16 55  1  0  0  0  0
 17 18  1  0  0  0  0
 17 19  1  0  0  0  0
 17 56  1  0  0  0  0
 18 57  1  0  0  0  0
 19 58  1  0  0  0  0
 19 59  1  0  0  0  0
 20 21  1  0  0  0  0
 20 35  2  0  0  0  0
 21 22  2  0  0  0  0
 21 60  1  0  0  0  0
 22 23  1  0  0  0  0
 22 61  1  0  0  0  0
 23 24  1  0  0  0  0
 23 34  2  0  0  0  0
 24 25  2  0  0  0  0
 25 26  1  0  0  0  0
 25 62  1  0  0  0  0
 26 27  1  0  0  0  0
 26 33  2  0  0  0  0
 27 28  1  0  0  0  0
 27 32  2  0  0  0  0
 28 29  2  0  0  0  0
 28 63  1  0  0  0  0
 29 30  1  0  0  0  0
 30 31  1  0  0  0  0
 30 32  1  0  0  0  0
 31 64  1  0  0  0  0
 31 65  1  0  0  0  0
 31 66  1  0  0  0  0
 32 67  1  0  0  0  0
 33 34  1  0  0  0  0
 34 35  1  0  0  0  0
 35 68  1  0  0  0  0
 36 69  1  0  0  0  0
 37 70  1  0  0  0  0
M  END
$$$$
