CHEMBL4087221
 OpenBabel04072215383D

 43 46  0  0  0  0  0  0  0  0999 V2000
   -1.4737    2.2161   -3.2616 C   0  0  0  0  0  0  0  0  0  0  0  0
   -1.6610    1.0351   -2.3785 C   0  0  0  0  0  0  0  0  0  0  0  0
   -2.1883   -0.0680   -2.9340 N   0  0  0  0  0  0  0  0  0  0  0  0
   -2.2758   -0.9296   -1.9120 N   0  0  0  0  0  0  0  0  0  0  0  0
   -1.8204   -0.4387   -0.7285 C   0  0  0  0  0  0  0  0  0  0  0  0
   -1.8372   -1.1116    0.4344 N   0  0  0  0  0  0  0  0  0  0  0  0
   -1.3457   -0.3965    1.4604 C   0  0  0  0  0  0  0  0  0  0  0  0
   -0.8507    0.8942    1.3657 C   0  0  0  0  0  0  0  0  0  0  0  0
   -0.8499    1.5744    0.1272 C   0  0  0  0  0  0  0  0  0  0  0  0
   -0.3927    2.9678    0.0393 C   0  0  0  0  0  0  0  0  0  0  0  0
    0.4411    3.4369   -0.9797 C   0  0  0  0  0  0  0  0  0  0  0  0
    0.7591    4.7995   -1.0956 C   0  0  0  0  0  0  0  0  0  0  0  0
    0.3099    5.7259   -0.1476 C   0  0  0  0  0  0  0  0  0  0  0  0
    0.5963    7.0897   -0.3943 N   0  0  0  0  0  0  0  0  0  0  0  0
    0.2372    8.2646    0.2666 C   0  0  0  0  0  0  0  0  0  0  0  0
   -0.5810    8.4417    1.7196 S   0  0  0  0  0  0  0  0  0  0  0  0
    0.5857    9.3563   -0.5457 N   0  0  0  0  0  0  0  0  0  0  0  0
    0.8347   10.6728   -0.1011 C   0  0  0  0  0  0  0  0  0  0  0  0
    0.4186   11.7444   -0.8966 C   0  0  0  0  0  0  0  0  0  0  0  0
    0.6375   13.0567   -0.4732 C   0  0  0  0  0  0  0  0  0  0  0  0
    1.2973   13.3008    0.7344 C   0  0  0  0  0  0  0  0  0  0  0  0
    1.7448   12.2322    1.5031 C   0  0  0  0  0  0  0  0  0  0  0  0
    2.6537   12.5536    3.1309 Br  0  0  0  0  0  0  0  0  0  0  0  0
    1.5278   10.9214    1.0849 C   0  0  0  0  0  0  0  0  0  0  0  0
   -0.4073    5.2416    0.9368 C   0  0  0  0  0  0  0  0  0  0  0  0
   -0.7718    3.8946    1.0181 C   0  0  0  0  0  0  0  0  0  0  0  0
   -1.3757    0.8596   -0.9811 C   0  0  0  0  0  0  0  0  0  0  0  0
   -1.8923    2.0340   -4.2587 H   0  0  0  0  0  0  0  0  0  0  0  0
   -0.4135    2.4288   -3.4147 H   0  0  0  0  0  0  0  0  0  0  0  0
   -1.9719    3.0990   -2.8509 H   0  0  0  0  0  0  0  0  0  0  0  0
   -2.6658   -1.8522   -2.0706 H   0  0  0  0  0  0  0  0  0  0  0  0
   -1.3618   -0.9058    2.4215 H   0  0  0  0  0  0  0  0  0  0  0  0
   -0.4741    1.3746    2.2646 H   0  0  0  0  0  0  0  0  0  0  0  0
    0.8467    2.7451   -1.7132 H   0  0  0  0  0  0  0  0  0  0  0  0
    1.3450    5.1166   -1.9549 H   0  0  0  0  0  0  0  0  0  0  0  0
    1.1978    7.2555   -1.1933 H   0  0  0  0  0  0  0  0  0  0  0  0
    0.2379    9.2696   -1.4946 H   0  0  0  0  0  0  0  0  0  0  0  0
   -0.1204   11.5749   -1.8253 H   0  0  0  0  0  0  0  0  0  0  0  0
    0.2878   13.8905   -1.0779 H   0  0  0  0  0  0  0  0  0  0  0  0
    1.4639   14.3248    1.0578 H   0  0  0  0  0  0  0  0  0  0  0  0
    1.9062   10.0990    1.6883 H   0  0  0  0  0  0  0  0  0  0  0  0
   -0.7272    5.8637    1.7590 H   0  0  0  0  0  0  0  0  0  0  0  0
   -1.3802    3.5910    1.8684 H   0  0  0  0  0  0  0  0  0  0  0  0
  1  2  1  0  0  0  0
  1 28  1  0  0  0  0
  1 29  1  0  0  0  0
  1 30  1  0  0  0  0
  2  3  2  0  0  0  0
  2 27  1  0  0  0  0
  3  4  1  0  0  0  0
  4  5  1  0  0  0  0
  4 31  1  0  0  0  0
  5  6  1  0  0  0  0
  5 27  2  0  0  0  0
  6  7  2  0  0  0  0
  7  8  1  0  0  0  0
  7 32  1  0  0  0  0
  8  9  2  0  0  0  0
  8 33  1  0  0  0  0
  9 10  1  0  0  0  0
  9 27  1  0  0  0  0
 10 11  1  0  0  0  0
 10 26  2  0  0  0  0
 11 12  2  0  0  0  0
 11 34  1  0  0  0  0
 12 13  1  0  0  0  0
 12 35  1  0  0  0  0
 13 14  1  0  0  0  0
 13 25  2  0  0  0  0
 14 15  1  0  0  0  0
 14 36  1  0  0  0  0
 15 16  2  0  0  0  0
 15 17  1  0  0  0  0
 17 18  1  0  0  0  0
 17 37  1  0  0  0  0
 18 19  1  0  0  0  0
 18 24  2  0  0  0  0
 19 20  2  0  0  0  0
 19 38  1  0  0  0  0
 20 21  1  0  0  0  0
 20 39  1  0  0  0  0
 21 22  2  0  0  0  0
 21 40  1  0  0  0  0
 22 23  1  0  0  0  0
 22 24  1  0  0  0  0
 24 41  1  0  0  0  0
 25 26  1  0  0  0  0
 25 42  1  0  0  0  0
 26 43  1  0  0  0  0
M  END
$$$$
