CHEMBL4088552
 OpenBabel04072215383D

 46 49  0  0  0  0  0  0  0  0999 V2000
    2.0327   -0.3038    2.4667 C   0  0  0  0  0  0  0  0  0  0  0  0
    0.6253   -0.1654    1.9659 C   0  0  0  0  0  0  0  0  0  0  0  0
    0.0273    1.0875    1.9417 C   0  0  0  0  0  0  0  0  0  0  0  0
   -1.2850    1.2359    1.4891 C   0  0  0  0  0  0  0  0  0  0  0  0
   -2.0225    0.1452    1.0267 C   0  0  0  0  0  0  0  0  0  0  0  0
   -3.3558    0.2642    0.5390 N   0  0  0  0  0  0  0  0  0  0  0  0
   -4.0225    1.4604    0.3618 C   0  0  0  0  0  0  0  0  0  0  0  0
   -3.5402    2.5745    0.5306 O   0  0  0  0  0  0  0  0  0  0  0  0
   -5.3441    1.2744   -0.0308 N   0  0  0  0  0  0  0  0  0  0  0  0
   -6.1581    2.4144   -0.2449 C   0  0  0  0  0  0  0  0  0  0  0  0
   -5.7004    3.5153   -0.9696 C   0  0  0  0  0  0  0  0  0  0  0  0
   -6.4417    4.6993   -1.0093 C   0  0  0  0  0  0  0  0  0  0  0  0
   -7.6864    4.8096   -0.3665 C   0  0  0  0  0  0  0  0  0  0  0  0
   -8.4425    6.0808   -0.3582 C   0  0  0  0  0  0  0  0  0  0  0  0
   -8.4108    6.9424   -1.4812 C   0  0  0  0  0  0  0  0  0  0  0  0
   -9.1185    8.1347   -1.4855 C   0  0  0  0  0  0  0  0  0  0  0  0
   -9.8860    8.5802   -0.4787 N   0  0  0  0  0  0  0  0  0  0  0  0
   -9.8931    7.7503    0.5790 C   0  0  0  0  0  0  0  0  0  0  0  0
  -10.5921    7.9796    1.7215 N   0  0  0  0  0  0  0  0  0  0  0  0
  -10.4439    7.0299    2.6521 N   0  0  0  0  0  0  0  0  0  0  0  0
   -9.5935    6.1560    2.0863 C   0  0  0  0  0  0  0  0  0  0  0  0
   -9.1924    4.9887    2.9161 C   0  0  0  0  0  0  0  0  0  0  0  0
   -9.2299    6.5350    0.7428 C   0  0  0  0  0  0  0  0  0  0  0  0
   -8.1787    3.6387    0.2322 C   0  0  0  0  0  0  0  0  0  0  0  0
   -7.4196    2.4649    0.3296 C   0  0  0  0  0  0  0  0  0  0  0  0
   -1.4228   -1.1181    1.0512 C   0  0  0  0  0  0  0  0  0  0  0  0
   -0.1033   -1.2728    1.5194 C   0  0  0  0  0  0  0  0  0  0  0  0
    2.4353    0.6653    2.7892 H   0  0  0  0  0  0  0  0  0  0  0  0
    2.6843   -0.6817    1.6719 H   0  0  0  0  0  0  0  0  0  0  0  0
    2.0673   -0.9775    3.3257 H   0  0  0  0  0  0  0  0  0  0  0  0
    0.5608    1.9710    2.2796 H   0  0  0  0  0  0  0  0  0  0  0  0
   -1.6824    2.2452    1.5149 H   0  0  0  0  0  0  0  0  0  0  0  0
   -3.7854   -0.5660    0.1690 H   0  0  0  0  0  0  0  0  0  0  0  0
   -5.7889    0.4709    0.3820 H   0  0  0  0  0  0  0  0  0  0  0  0
   -4.7366    3.4776   -1.4796 H   0  0  0  0  0  0  0  0  0  0  0  0
   -6.0025    5.5459   -1.5379 H   0  0  0  0  0  0  0  0  0  0  0  0
   -7.8377    6.6857   -2.3673 H   0  0  0  0  0  0  0  0  0  0  0  0
   -9.0840    8.7883   -2.3542 H   0  0  0  0  0  0  0  0  0  0  0  0
  -11.1850    8.7754    1.9163 H   0  0  0  0  0  0  0  0  0  0  0  0
   -9.4542    5.1432    3.9700 H   0  0  0  0  0  0  0  0  0  0  0  0
   -8.1129    4.8202    2.8706 H   0  0  0  0  0  0  0  0  0  0  0  0
   -9.7249    4.0879    2.6036 H   0  0  0  0  0  0  0  0  0  0  0  0
   -9.1778    3.6280    0.6536 H   0  0  0  0  0  0  0  0  0  0  0  0
   -7.8020    1.6377    0.9193 H   0  0  0  0  0  0  0  0  0  0  0  0
   -1.9528   -1.9983    0.7018 H   0  0  0  0  0  0  0  0  0  0  0  0
    0.3471   -2.2626    1.5268 H   0  0  0  0  0  0  0  0  0  0  0  0
  1  2  1  0  0  0  0
  1 28  1  0  0  0  0
  1 29  1  0  0  0  0
  1 30  1  0  0  0  0
  2  3  1  0  0  0  0
  2 27  2  0  0  0  0
  3  4  2  0  0  0  0
  3 31  1  0  0  0  0
  4  5  1  0  0  0  0
  4 32  1  0  0  0  0
  5  6  1  0  0  0  0
  5 26  2  0  0  0  0
  6  7  1  0  0  0  0
  6 33  1  0  0  0  0
  7  8  2  0  0  0  0
  7  9  1  0  0  0  0
  9 10  1  0  0  0  0
  9 34  1  0  0  0  0
 10 11  1  0  0  0  0
 10 25  2  0  0  0  0
 11 12  2  0  0  0  0
 11 35  1  0  0  0  0
 12 13  1  0  0  0  0
 12 36  1  0  0  0  0
 13 14  1  0  0  0  0
 13 24  2  0  0  0  0
 14 15  1  0  0  0  0
 14 23  2  0  0  0  0
 15 16  2  0  0  0  0
 15 37  1  0  0  0  0
 16 17  1  0  0  0  0
 16 38  1  0  0  0  0
 17 18  2  0  0  0  0
 18 19  1  0  0  0  0
 18 23  1  0  0  0  0
 19 20  1  0  0  0  0
 19 39  1  0  0  0  0
 20 21  2  0  0  0  0
 21 22  1  0  0  0  0
 21 23  1  0  0  0  0
 22 40  1  0  0  0  0
 22 41  1  0  0  0  0
 22 42  1  0  0  0  0
 24 25  1  0  0  0  0
 24 43  1  0  0  0  0
 25 44  1  0  0  0  0
 26 27  1  0  0  0  0
 26 45  1  0  0  0  0
 27 46  1  0  0  0  0
M  END
$$$$
