CHEMBL3657556
 OpenBabel04072215373D

 62 66  0  0  1  0  0  0  0  0999 V2000
    4.8683   -3.9397   -7.0064 C   0  0  0  0  0  0  0  0  0  0  0  0
    5.7322   -3.1240   -6.2218 O   0  0  0  0  0  0  0  0  0  0  0  0
    5.2099   -1.8099   -6.0836 C   0  0  2  0  0  0  0  0  0  0  0  0
    6.1211   -0.9037   -5.2571 C   0  0  0  0  0  0  0  0  0  0  0  0
    5.2383    0.1266   -4.6492 N   0  0  0  0  0  0  0  0  0  0  0  0
    5.5012    0.2828   -3.2115 C   0  0  0  0  0  0  0  0  0  0  0  0
    6.9169    0.7383   -2.9679 C   0  0  0  0  0  0  0  0  0  0  0  0
    7.8873    0.1100   -2.2137 C   0  0  0  0  0  0  0  0  0  0  0  0
    9.0047    0.9144   -2.1896 N   0  0  0  0  0  0  0  0  0  0  0  0
   10.2256    0.6598   -1.4971 C   0  0  0  0  0  0  0  0  0  0  0  0
   11.2177    1.6223   -1.5276 C   0  0  0  0  0  0  0  0  0  0  0  0
   12.3682    1.3400   -0.8518 C   0  0  0  0  0  0  0  0  0  0  0  0
   12.5773    0.1798   -0.1830 N   0  0  0  0  0  0  0  0  0  0  0  0
   11.5753   -0.7138   -0.2020 C   0  0  0  0  0  0  0  0  0  0  0  0
   11.8161   -1.9506    0.4206 N   0  0  0  0  0  0  0  0  0  0  0  0
   10.9197   -2.8318    1.0672 C   0  0  0  0  0  0  0  0  0  0  0  0
    9.5454   -2.6171    1.1704 C   0  0  0  0  0  0  0  0  0  0  0  0
    8.6785   -3.5028    1.8500 C   0  0  0  0  0  0  0  0  0  0  0  0
    9.2365   -4.6402    2.4588 C   0  0  0  0  0  0  0  0  0  0  0  0
   10.6037   -4.9097    2.3407 C   0  0  0  0  0  0  0  0  0  0  0  0
   11.4294   -4.0189    1.6104 C   0  0  0  0  0  0  0  0  0  0  0  0
   10.8637   -6.0974    3.0714 C   0  0  0  0  0  0  0  0  0  0  0  0
   12.4092   -6.8014    3.2370 Cl  0  0  0  0  0  0  0  0  0  0  0  0
    9.6888   -6.5316    3.6454 C   0  0  0  0  0  0  0  0  0  0  0  0
    9.4776   -7.6903    4.5605 C   0  0  0  0  0  0  0  0  0  0  0  0
    8.6895   -5.6640    3.2306 N   0  0  0  0  0  0  0  0  0  0  0  0
    7.2891   -5.7723    3.5867 C   0  0  0  0  0  0  0  0  0  0  0  0
   10.4047   -0.5068   -0.8216 N   0  0  0  0  0  0  0  0  0  0  0  0
    8.8166    2.0237   -2.9636 N   0  0  0  0  0  0  0  0  0  0  0  0
    7.6016    1.8583   -3.5119 C   0  0  0  0  0  0  0  0  0  0  0  0
    7.1163    2.7387   -4.6056 C   0  0  0  0  0  0  0  0  0  0  0  0
    3.8470   -0.2793   -4.9640 C   0  0  0  0  0  0  0  0  0  0  0  0
    3.8969   -1.7579   -5.3038 C   0  0  2  0  0  0  0  0  0  0  0  0
    3.8938   -2.5464   -4.1098 O   0  0  0  0  0  0  0  0  0  0  0  0
    5.2640   -4.9563   -7.0300 H   0  0  0  0  0  0  0  0  0  0  0  0
    4.8176   -3.5513   -8.0280 H   0  0  0  0  0  0  0  0  0  0  0  0
    3.8633   -3.9775   -6.5760 H   0  0  0  0  0  0  0  0  0  0  0  0
    5.0644   -1.3485   -7.0705 H   0  0  0  0  0  0  0  0  0  0  0  0
    6.8723   -0.4245   -5.8936 H   0  0  0  0  0  0  0  0  0  0  0  0
    6.6652   -1.4942   -4.5091 H   0  0  0  0  0  0  0  0  0  0  0  0
    5.3445   -0.6711   -2.6969 H   0  0  0  0  0  0  0  0  0  0  0  0
    4.8103    1.0037   -2.7502 H   0  0  0  0  0  0  0  0  0  0  0  0
    7.8810   -0.8310   -1.6760 H   0  0  0  0  0  0  0  0  0  0  0  0
   11.0873    2.5675   -2.0486 H   0  0  0  0  0  0  0  0  0  0  0  0
   13.1885    2.0591   -0.8208 H   0  0  0  0  0  0  0  0  0  0  0  0
   12.7739   -2.0031    0.7207 H   0  0  0  0  0  0  0  0  0  0  0  0
    9.1113   -1.7130    0.7464 H   0  0  0  0  0  0  0  0  0  0  0  0
    7.6166   -3.2872    1.9052 H   0  0  0  0  0  0  0  0  0  0  0  0
   12.4867   -4.2513    1.5291 H   0  0  0  0  0  0  0  0  0  0  0  0
   10.4245   -8.1957    4.7809 H   0  0  0  0  0  0  0  0  0  0  0  0
    8.8076   -8.4313    4.1182 H   0  0  0  0  0  0  0  0  0  0  0  0
    9.0657   -7.3589    5.5207 H   0  0  0  0  0  0  0  0  0  0  0  0
    7.1318   -6.6227    4.2554 H   0  0  0  0  0  0  0  0  0  0  0  0
    6.7071   -5.9254    2.6746 H   0  0  0  0  0  0  0  0  0  0  0  0
    6.9820   -4.8577    4.0980 H   0  0  0  0  0  0  0  0  0  0  0  0
    7.8972    3.4112   -4.9670 H   0  0  0  0  0  0  0  0  0  0  0  0
    6.2560    3.3283   -4.2804 H   0  0  0  0  0  0  0  0  0  0  0  0
    6.8033    2.1277   -5.4599 H   0  0  0  0  0  0  0  0  0  0  0  0
    3.5453    0.2778   -5.8607 H   0  0  0  0  0  0  0  0  0  0  0  0
    3.1100   -0.0838   -4.1812 H   0  0  0  0  0  0  0  0  0  0  0  0
    3.0463   -2.0831   -5.9079 H   0  0  0  0  0  0  0  0  0  0  0  0
    4.7698   -2.4691   -3.6959 H   0  0  0  0  0  0  0  0  0  0  0  0
  1  2  1  0  0  0  0
  1 35  1  0  0  0  0
  1 36  1  0  0  0  0
  1 37  1  0  0  0  0
  3  4  1  0  0  0  0
  3 33  1  0  0  0  0
  3  2  1  0  0  0  0
  3 38  1  6  0  0  0
  4  5  1  0  0  0  0
  4 39  1  0  0  0  0
  4 40  1  0  0  0  0
  5  6  1  0  0  0  0
  5 32  1  0  0  0  0
  6  7  1  0  0  0  0
  6 41  1  0  0  0  0
  6 42  1  0  0  0  0
  7  8  2  0  0  0  0
  7 30  1  0  0  0  0
  8  9  1  0  0  0  0
  8 43  1  0  0  0  0
  9 10  1  0  0  0  0
  9 29  1  0  0  0  0
 10 11  1  0  0  0  0
 10 28  2  0  0  0  0
 11 12  2  0  0  0  0
 11 44  1  0  0  0  0
 12 13  1  0  0  0  0
 12 45  1  0  0  0  0
 13 14  2  0  0  0  0
 14 15  1  0  0  0  0
 14 28  1  0  0  0  0
 15 16  1  0  0  0  0
 15 46  1  0  0  0  0
 16 17  1  0  0  0  0
 16 21  2  0  0  0  0
 17 18  2  0  0  0  0
 17 47  1  0  0  0  0
 18 19  1  0  0  0  0
 18 48  1  0  0  0  0
 19 20  2  0  0  0  0
 19 26  1  0  0  0  0
 20 21  1  0  0  0  0
 20 22  1  0  0  0  0
 21 49  1  0  0  0  0
 22 23  1  0  0  0  0
 22 24  2  0  0  0  0
 24 25  1  0  0  0  0
 24 26  1  0  0  0  0
 25 50  1  0  0  0  0
 25 51  1  0  0  0  0
 25 52  1  0  0  0  0
 26 27  1  0  0  0  0
 27 53  1  0  0  0  0
 27 54  1  0  0  0  0
 27 55  1  0  0  0  0
 29 30  2  0  0  0  0
 30 31  1  0  0  0  0
 31 56  1  0  0  0  0
 31 57  1  0  0  0  0
 31 58  1  0  0  0  0
 32 33  1  0  0  0  0
 32 59  1  0  0  0  0
 32 60  1  0  0  0  0
 33 34  1  0  0  0  0
 33 61  1  6  0  0  0
 34 62  1  0  0  0  0
M  END
$$$$
