CHEMBL4449612
 OpenBabel04072215383D

 54 58  0  0  0  0  0  0  0  0999 V2000
    0.8942   -0.1309    0.0919 C   0  0  0  0  0  0  0  0  0  0  0  0
    2.3959   -0.0649    0.1645 C   0  0  0  0  0  0  0  0  0  0  0  0
    3.0894   -1.2136    0.1730 C   0  0  0  0  0  0  0  0  0  0  0  0
    4.5421   -1.2101    0.1048 C   0  0  0  0  0  0  0  0  0  0  0  0
    5.2374   -2.4158    0.0084 C   0  0  0  0  0  0  0  0  0  0  0  0
    6.6062   -2.3646   -0.0803 C   0  0  0  0  0  0  0  0  0  0  0  0
    7.3005   -1.2151   -0.0326 N   0  0  0  0  0  0  0  0  0  0  0  0
    6.6344   -0.0405    0.1077 C   0  0  0  0  0  0  0  0  0  0  0  0
    7.4173    1.1203    0.2374 N   0  0  0  0  0  0  0  0  0  0  0  0
    8.7253    1.1941    0.7395 C   0  0  0  0  0  0  0  0  0  0  0  0
    9.5694    2.2150    0.2946 C   0  0  0  0  0  0  0  0  0  0  0  0
   10.9024    2.2599    0.7105 C   0  0  0  0  0  0  0  0  0  0  0  0
   11.4281    1.2503    1.5324 C   0  0  0  0  0  0  0  0  0  0  0  0
   12.7518    1.1567    1.8936 O   0  0  0  0  0  0  0  0  0  0  0  0
   13.7072    1.5969    1.0006 C   0  0  0  0  0  0  0  0  0  0  0  0
   13.5520    1.4148   -0.3747 C   0  0  0  0  0  0  0  0  0  0  0  0
   14.4606    2.0145   -1.2178 C   0  0  0  0  0  0  0  0  0  0  0  0
   15.5376    2.6989   -0.7861 N   0  0  0  0  0  0  0  0  0  0  0  0
   15.7397    2.7802    0.5459 C   0  0  0  0  0  0  0  0  0  0  0  0
   16.8616    3.5252    0.9047 N   0  0  0  0  0  0  0  0  0  0  0  0
   14.8533    2.2369    1.4814 C   0  0  0  0  0  0  0  0  0  0  0  0
   15.2578    2.3430    3.5401 I   0  0  0  0  0  0  0  0  0  0  0  0
   10.5688    0.2642    2.0121 C   0  0  0  0  0  0  0  0  0  0  0  0
   11.0264   -0.6980    2.8270 F   0  0  0  0  0  0  0  0  0  0  0  0
    9.2391    0.2361    1.6236 C   0  0  0  0  0  0  0  0  0  0  0  0
    5.2385   -0.0017    0.1178 C   0  0  0  0  0  0  0  0  0  0  0  0
    4.4709    1.2664    0.1450 C   0  0  0  0  0  0  0  0  0  0  0  0
    5.1021    2.3250    0.1861 O   0  0  0  0  0  0  0  0  0  0  0  0
    3.0535    1.1762    0.1269 N   0  0  0  0  0  0  0  0  0  0  0  0
    2.3525    2.4199    0.0867 C   0  0  0  0  0  0  0  0  0  0  0  0
    2.5659    3.2961   -0.9911 C   0  0  0  0  0  0  0  0  0  0  0  0
    1.9538    4.5491   -1.0087 C   0  0  0  0  0  0  0  0  0  0  0  0
    1.1402    4.9253    0.0530 C   0  0  0  0  0  0  0  0  0  0  0  0
    0.5844    6.1441    0.0563 F   0  0  0  0  0  0  0  0  0  0  0  0
    0.9049    4.0633    1.1183 C   0  0  0  0  0  0  0  0  0  0  0  0
    1.5093    2.8044    1.1342 C   0  0  0  0  0  0  0  0  0  0  0  0
    0.5415   -1.1641   -0.0157 H   0  0  0  0  0  0  0  0  0  0  0  0
    0.5231    0.4184   -0.7790 H   0  0  0  0  0  0  0  0  0  0  0  0
    0.4305    0.2625    1.0002 H   0  0  0  0  0  0  0  0  0  0  0  0
    2.5878   -2.1764    0.1917 H   0  0  0  0  0  0  0  0  0  0  0  0
    4.7275   -3.3739   -0.0161 H   0  0  0  0  0  0  0  0  0  0  0  0
    7.2057   -3.2617   -0.1955 H   0  0  0  0  0  0  0  0  0  0  0  0
    6.8767    1.9833    0.2973 H   0  0  0  0  0  0  0  0  0  0  0  0
    9.2084    2.9528   -0.4185 H   0  0  0  0  0  0  0  0  0  0  0  0
   11.5323    3.0613    0.3346 H   0  0  0  0  0  0  0  0  0  0  0  0
   12.7089    0.8727   -0.7903 H   0  0  0  0  0  0  0  0  0  0  0  0
   14.3240    1.9790   -2.2947 H   0  0  0  0  0  0  0  0  0  0  0  0
   17.3774    3.7266    0.0527 H   0  0  0  0  0  0  0  0  0  0  0  0
   17.4191    3.0650    1.6138 H   0  0  0  0  0  0  0  0  0  0  0  0
    8.6084   -0.5589    2.0075 H   0  0  0  0  0  0  0  0  0  0  0  0
    3.2094    3.0049   -1.8172 H   0  0  0  0  0  0  0  0  0  0  0  0
    2.1211    5.2354   -1.8322 H   0  0  0  0  0  0  0  0  0  0  0  0
    0.2737    4.3857    1.9401 H   0  0  0  0  0  0  0  0  0  0  0  0
    1.3613    2.1549    1.9921 H   0  0  0  0  0  0  0  0  0  0  0  0
  1  2  1  0  0  0  0
  1 37  1  0  0  0  0
  1 38  1  0  0  0  0
  1 39  1  0  0  0  0
  2  3  2  0  0  0  0
  2 29  1  0  0  0  0
  3  4  1  0  0  0  0
  3 40  1  0  0  0  0
  4  5  1  0  0  0  0
  4 26  2  0  0  0  0
  5  6  2  0  0  0  0
  5 41  1  0  0  0  0
  6  7  1  0  0  0  0
  6 42  1  0  0  0  0
  7  8  2  0  0  0  0
  8  9  1  0  0  0  0
  8 26  1  0  0  0  0
  9 10  1  0  0  0  0
  9 43  1  0  0  0  0
 10 11  1  0  0  0  0
 10 25  2  0  0  0  0
 11 12  2  0  0  0  0
 11 44  1  0  0  0  0
 12 13  1  0  0  0  0
 12 45  1  0  0  0  0
 13 14  1  0  0  0  0
 13 23  2  0  0  0  0
 14 15  1  0  0  0  0
 15 16  1  0  0  0  0
 15 21  2  0  0  0  0
 16 17  2  0  0  0  0
 16 46  1  0  0  0  0
 17 18  1  0  0  0  0
 17 47  1  0  0  0  0
 18 19  2  0  0  0  0
 19 20  1  0  0  0  0
 19 21  1  0  0  0  0
 20 48  1  0  0  0  0
 20 49  1  0  0  0  0
 21 22  1  0  0  0  0
 23 24  1  0  0  0  0
 23 25  1  0  0  0  0
 25 50  1  0  0  0  0
 26 27  1  0  0  0  0
 27 28  2  0  0  0  0
 27 29  1  0  0  0  0
 29 30  1  0  0  0  0
 30 31  1  0  0  0  0
 30 36  2  0  0  0  0
 31 32  2  0  0  0  0
 31 51  1  0  0  0  0
 32 33  1  0  0  0  0
 32 52  1  0  0  0  0
 33 34  1  0  0  0  0
 33 35  2  0  0  0  0
 35 36  1  0  0  0  0
 35 53  1  0  0  0  0
 36 54  1  0  0  0  0
M  END
$$$$
