CHEMBL3287591
 OpenBabel04072215363D

 58 62  0  0  0  0  0  0  0  0999 V2000
    3.0884    2.6376   -0.6578 O   0  0  0  0  0  0  0  0  0  0  0  0
    3.0225    1.5079   -0.2002 C   0  0  0  0  0  0  0  0  0  0  0  0
    2.9128    1.1336    1.1218 N   0  0  0  0  0  0  0  0  0  0  0  0
    2.8745    1.9844    2.2436 C   0  0  0  0  0  0  0  0  0  0  0  0
    2.8178    3.3790    2.1563 C   0  0  0  0  0  0  0  0  0  0  0  0
    2.7960    4.1625    3.3136 C   0  0  0  0  0  0  0  0  0  0  0  0
    2.8305    3.5509    4.5585 C   0  0  0  0  0  0  0  0  0  0  0  0
    2.8106    4.3028    5.6665 F   0  0  0  0  0  0  0  0  0  0  0  0
    2.8814    2.1675    4.6682 C   0  0  0  0  0  0  0  0  0  0  0  0
    2.9002    1.3835    3.5111 C   0  0  0  0  0  0  0  0  0  0  0  0
    3.1266    0.3470   -1.1479 C   0  0  0  0  0  0  0  0  0  0  0  0
    4.3074   -0.5457   -0.9284 C   0  0  0  0  0  0  0  0  0  0  0  0
    4.1242   -1.5367   -0.2320 O   0  0  0  0  0  0  0  0  0  0  0  0
    5.5157   -0.0958   -1.4348 N   0  0  0  0  0  0  0  0  0  0  0  0
    6.7636   -0.7149   -1.1736 C   0  0  0  0  0  0  0  0  0  0  0  0
    6.8644   -2.0262   -0.6914 C   0  0  0  0  0  0  0  0  0  0  0  0
    8.0944   -2.5676   -0.3142 C   0  0  0  0  0  0  0  0  0  0  0  0
    9.2543   -1.8102   -0.4327 C   0  0  0  0  0  0  0  0  0  0  0  0
   10.4115   -2.4365   -0.0429 O   0  0  0  0  0  0  0  0  0  0  0  0
   11.3626   -1.7028    0.6579 C   0  0  0  0  0  0  0  0  0  0  0  0
   12.6378   -2.2154    0.6255 C   0  0  0  0  0  0  0  0  0  0  0  0
   13.5802   -1.4589    1.2597 C   0  0  0  0  0  0  0  0  0  0  0  0
   13.2978   -0.2927    1.8577 N   0  0  0  0  0  0  0  0  0  0  0  0
   12.0097    0.1106    1.8742 C   0  0  0  0  0  0  0  0  0  0  0  0
   11.6804    1.3027    2.5125 N   0  0  0  0  0  0  0  0  0  0  0  0
   12.4572    2.4643    2.6324 C   0  0  0  0  0  0  0  0  0  0  0  0
   13.4801    2.7831    1.7277 C   0  0  0  0  0  0  0  0  0  0  0  0
   14.2913    3.9035    1.9203 C   0  0  0  0  0  0  0  0  0  0  0  0
   14.0994    4.7145    3.0344 C   0  0  0  0  0  0  0  0  0  0  0  0
   13.0799    4.4197    3.9374 C   0  0  0  0  0  0  0  0  0  0  0  0
   12.2556    3.3101    3.7286 C   0  0  0  0  0  0  0  0  0  0  0  0
   11.0090   -0.5898    1.3297 N   0  0  0  0  0  0  0  0  0  0  0  0
    9.1757   -0.5441   -1.0168 C   0  0  0  0  0  0  0  0  0  0  0  0
   10.2859    0.1689   -1.2616 F   0  0  0  0  0  0  0  0  0  0  0  0
    7.9409    0.0107   -1.3778 C   0  0  0  0  0  0  0  0  0  0  0  0
    2.4763    0.4858   -2.5200 C   0  0  0  0  0  0  0  0  0  0  0  0
    1.8318   -0.3989   -1.5043 C   0  0  0  0  0  0  0  0  0  0  0  0
    2.9392    0.1346    1.3098 H   0  0  0  0  0  0  0  0  0  0  0  0
    2.7835    3.8932    1.2010 H   0  0  0  0  0  0  0  0  0  0  0  0
    2.7506    5.2445    3.2437 H   0  0  0  0  0  0  0  0  0  0  0  0
    2.9090    1.7089    5.6511 H   0  0  0  0  0  0  0  0  0  0  0  0
    2.9479    0.3023    3.6159 H   0  0  0  0  0  0  0  0  0  0  0  0
    5.5314    0.8319   -1.8468 H   0  0  0  0  0  0  0  0  0  0  0  0
    5.9934   -2.6680   -0.5940 H   0  0  0  0  0  0  0  0  0  0  0  0
    8.1361   -3.5789    0.0813 H   0  0  0  0  0  0  0  0  0  0  0  0
   12.8773   -3.1406    0.1213 H   0  0  0  0  0  0  0  0  0  0  0  0
   14.6251   -1.7555    1.2908 H   0  0  0  0  0  0  0  0  0  0  0  0
   10.6806    1.4272    2.5626 H   0  0  0  0  0  0  0  0  0  0  0  0
   13.6535    2.1596    0.8536 H   0  0  0  0  0  0  0  0  0  0  0  0
   15.0798    4.1282    1.2072 H   0  0  0  0  0  0  0  0  0  0  0  0
   14.7488    5.5691    3.2027 H   0  0  0  0  0  0  0  0  0  0  0  0
   12.9376    5.0413    4.8169 H   0  0  0  0  0  0  0  0  0  0  0  0
   11.4831    3.0792    4.4573 H   0  0  0  0  0  0  0  0  0  0  0  0
    7.9314    1.0172   -1.7835 H   0  0  0  0  0  0  0  0  0  0  0  0
    2.9526    0.0240   -3.3755 H   0  0  0  0  0  0  0  0  0  0  0  0
    1.9542    1.4092   -2.7562 H   0  0  0  0  0  0  0  0  0  0  0  0
    1.8859   -1.4717   -1.6714 H   0  0  0  0  0  0  0  0  0  0  0  0
    0.9134   -0.0815   -1.0256 H   0  0  0  0  0  0  0  0  0  0  0  0
  1  2  2  0  0  0  0
  2  3  1  0  0  0  0
  2 11  1  0  0  0  0
  3  4  1  0  0  0  0
  3 38  1  0  0  0  0
  4  5  1  0  0  0  0
  4 10  2  0  0  0  0
  5  6  2  0  0  0  0
  5 39  1  0  0  0  0
  6  7  1  0  0  0  0
  6 40  1  0  0  0  0
  7  8  1  0  0  0  0
  7  9  2  0  0  0  0
  9 10  1  0  0  0  0
  9 41  1  0  0  0  0
 10 42  1  0  0  0  0
 11 12  1  0  0  0  0
 11 36  1  0  0  0  0
 11 37  1  0  0  0  0
 12 13  2  0  0  0  0
 12 14  1  0  0  0  0
 14 15  1  0  0  0  0
 14 43  1  0  0  0  0
 15 16  1  0  0  0  0
 15 35  2  0  0  0  0
 16 17  2  0  0  0  0
 16 44  1  0  0  0  0
 17 18  1  0  0  0  0
 17 45  1  0  0  0  0
 18 19  1  0  0  0  0
 18 33  2  0  0  0  0
 19 20  1  0  0  0  0
 20 21  1  0  0  0  0
 20 32  2  0  0  0  0
 21 22  2  0  0  0  0
 21 46  1  0  0  0  0
 22 23  1  0  0  0  0
 22 47  1  0  0  0  0
 23 24  2  0  0  0  0
 24 25  1  0  0  0  0
 24 32  1  0  0  0  0
 25 26  1  0  0  0  0
 25 48  1  0  0  0  0
 26 27  1  0  0  0  0
 26 31  2  0  0  0  0
 27 28  2  0  0  0  0
 27 49  1  0  0  0  0
 28 29  1  0  0  0  0
 28 50  1  0  0  0  0
 29 30  2  0  0  0  0
 29 51  1  0  0  0  0
 30 31  1  0  0  0  0
 30 52  1  0  0  0  0
 31 53  1  0  0  0  0
 33 34  1  0  0  0  0
 33 35  1  0  0  0  0
 35 54  1  0  0  0  0
 36 37  1  0  0  0  0
 36 55  1  0  0  0  0
 36 56  1  0  0  0  0
 37 57  1  0  0  0  0
 37 58  1  0  0  0  0
M  END
$$$$
