CHEMBL3628906
 OpenBabel04072215373D

 53 57  0  0  0  0  0  0  0  0999 V2000
    2.6060    0.2309    0.1733 C   0  0  0  0  0  0  0  0  0  0  0  0
    1.1127    0.0637    0.2640 C   0  0  0  0  0  0  0  0  0  0  0  0
    0.3561    1.2453    0.3704 C   0  0  0  0  0  0  0  0  0  0  0  0
   -1.0346    1.2451    0.2667 C   0  0  0  0  0  0  0  0  0  0  0  0
   -1.7806    2.4052    0.2666 O   0  0  0  0  0  0  0  0  0  0  0  0
   -1.3093    3.4535   -0.5279 C   0  0  0  0  0  0  0  0  0  0  0  0
   -0.4453    3.1744   -1.5360 N   0  0  0  0  0  0  0  0  0  0  0  0
    0.0572    4.1844   -2.2489 C   0  0  0  0  0  0  0  0  0  0  0  0
   -0.2344    5.4754   -2.1240 N   0  0  0  0  0  0  0  0  0  0  0  0
   -1.1404    5.7121   -1.1610 C   0  0  0  0  0  0  0  0  0  0  0  0
   -1.6851    7.2995   -0.8860 S   0  0  0  0  0  0  0  0  0  0  0  0
   -2.6881    6.7936    0.3849 C   0  0  0  0  0  0  0  0  0  0  0  0
   -2.6075    5.4321    0.6282 C   0  0  0  0  0  0  0  0  0  0  0  0
   -1.7214    4.7782   -0.3091 C   0  0  0  0  0  0  0  0  0  0  0  0
   -3.3632    4.8014    1.7639 C   0  0  0  0  0  0  0  0  0  0  0  0
   -4.4964    5.7100    2.2757 C   0  0  0  0  0  0  0  0  0  0  0  0
   -4.0336    7.1643    2.4446 C   0  0  0  0  0  0  0  0  0  0  0  0
   -3.5677    7.7620    1.1119 C   0  0  0  0  0  0  0  0  0  0  0  0
   -1.6991    0.0315    0.1687 C   0  0  0  0  0  0  0  0  0  0  0  0
   -0.9647   -1.1568    0.1390 C   0  0  0  0  0  0  0  0  0  0  0  0
    0.4417   -1.1752    0.1912 C   0  0  0  0  0  0  0  0  0  0  0  0
    1.1751   -2.3983    0.1839 N   0  0  0  0  0  0  0  0  0  0  0  0
    0.6426   -3.6616    0.3834 C   0  0  0  0  0  0  0  0  0  0  0  0
   -0.5503   -3.9138    0.5431 O   0  0  0  0  0  0  0  0  0  0  0  0
    1.6123   -4.6513    0.4512 N   0  0  0  0  0  0  0  0  0  0  0  0
    1.2431   -6.0070    0.6798 C   0  0  0  0  0  0  0  0  0  0  0  0
    1.9154   -6.7294    1.6745 C   0  0  0  0  0  0  0  0  0  0  0  0
    1.5273   -8.0381    1.9763 C   0  0  0  0  0  0  0  0  0  0  0  0
    0.5079   -8.6548    1.2512 C   0  0  0  0  0  0  0  0  0  0  0  0
   -0.1319   -7.9499    0.2377 C   0  0  0  0  0  0  0  0  0  0  0  0
   -1.4925   -8.8005   -0.7717 Br  0  0  0  0  0  0  0  0  0  0  0  0
    0.2196   -6.6284   -0.0462 C   0  0  0  0  0  0  0  0  0  0  0  0
    2.8942    1.2780    0.3484 H   0  0  0  0  0  0  0  0  0  0  0  0
    2.9455   -0.0206   -0.8368 H   0  0  0  0  0  0  0  0  0  0  0  0
    3.1286   -0.3729    0.9141 H   0  0  0  0  0  0  0  0  0  0  0  0
    0.8760    2.2019    0.4765 H   0  0  0  0  0  0  0  0  0  0  0  0
    0.7919    3.9208   -3.0031 H   0  0  0  0  0  0  0  0  0  0  0  0
   -2.6579    4.6157    2.5837 H   0  0  0  0  0  0  0  0  0  0  0  0
   -3.7837    3.8356    1.4650 H   0  0  0  0  0  0  0  0  0  0  0  0
   -4.8714    5.3267    3.2313 H   0  0  0  0  0  0  0  0  0  0  0  0
   -5.3346    5.6829    1.5677 H   0  0  0  0  0  0  0  0  0  0  0  0
   -3.2117    7.2005    3.1710 H   0  0  0  0  0  0  0  0  0  0  0  0
   -4.8478    7.7745    2.8513 H   0  0  0  0  0  0  0  0  0  0  0  0
   -3.0498    8.7102    1.2952 H   0  0  0  0  0  0  0  0  0  0  0  0
   -4.4426    7.9798    0.4861 H   0  0  0  0  0  0  0  0  0  0  0  0
   -2.7796   -0.0056    0.0935 H   0  0  0  0  0  0  0  0  0  0  0  0
   -1.5401   -2.0719    0.0313 H   0  0  0  0  0  0  0  0  0  0  0  0
    2.1748   -2.3307    0.0799 H   0  0  0  0  0  0  0  0  0  0  0  0
    2.4768   -4.3547    0.8830 H   0  0  0  0  0  0  0  0  0  0  0  0
    2.6933   -6.2619    2.2706 H   0  0  0  0  0  0  0  0  0  0  0  0
    2.0133   -8.5753    2.7891 H   0  0  0  0  0  0  0  0  0  0  0  0
    0.2196   -9.6734    1.4851 H   0  0  0  0  0  0  0  0  0  0  0  0
   -0.3018   -6.0833   -0.8300 H   0  0  0  0  0  0  0  0  0  0  0  0
  1  2  1  0  0  0  0
  1 33  1  0  0  0  0
  1 34  1  0  0  0  0
  1 35  1  0  0  0  0
  2  3  1  0  0  0  0
  2 21  2  0  0  0  0
  3  4  2  0  0  0  0
  3 36  1  0  0  0  0
  4  5  1  0  0  0  0
  4 19  1  0  0  0  0
  5  6  1  0  0  0  0
  6  7  1  0  0  0  0
  6 14  2  0  0  0  0
  7  8  2  0  0  0  0
  8  9  1  0  0  0  0
  8 37  1  0  0  0  0
  9 10  2  0  0  0  0
 10 11  1  0  0  0  0
 10 14  1  0  0  0  0
 11 12  1  0  0  0  0
 12 13  2  0  0  0  0
 12 18  1  0  0  0  0
 13 14  1  0  0  0  0
 13 15  1  0  0  0  0
 15 16  1  0  0  0  0
 15 38  1  0  0  0  0
 15 39  1  0  0  0  0
 16 17  1  0  0  0  0
 16 40  1  0  0  0  0
 16 41  1  0  0  0  0
 17 18  1  0  0  0  0
 17 42  1  0  0  0  0
 17 43  1  0  0  0  0
 18 44  1  0  0  0  0
 18 45  1  0  0  0  0
 19 20  2  0  0  0  0
 19 46  1  0  0  0  0
 20 21  1  0  0  0  0
 20 47  1  0  0  0  0
 21 22  1  0  0  0  0
 22 23  1  0  0  0  0
 22 48  1  0  0  0  0
 23 24  2  0  0  0  0
 23 25  1  0  0  0  0
 25 26  1  0  0  0  0
 25 49  1  0  0  0  0
 26 27  1  0  0  0  0
 26 32  2  0  0  0  0
 27 28  2  0  0  0  0
 27 50  1  0  0  0  0
 28 29  1  0  0  0  0
 28 51  1  0  0  0  0
 29 30  2  0  0  0  0
 29 52  1  0  0  0  0
 30 31  1  0  0  0  0
 30 32  1  0  0  0  0
 32 53  1  0  0  0  0
M  END
$$$$
