CHEMBL3939959
 OpenBabel04072215373D

 69 73  0  0  0  0  0  0  0  0999 V2000
    2.7243    7.4550    3.5607 C   0  0  0  0  0  0  0  0  0  0  0  0
    1.6229    6.4953    3.2017 C   0  0  0  0  0  0  0  0  0  0  0  0
    1.9742    5.2369    2.7067 C   0  0  0  0  0  0  0  0  0  0  0  0
    0.9838    4.3231    2.3916 C   0  0  0  0  0  0  0  0  0  0  0  0
   -0.3606    4.6542    2.5581 C   0  0  0  0  0  0  0  0  0  0  0  0
   -1.2146    3.6474    2.3387 F   0  0  0  0  0  0  0  0  0  0  0  0
   -0.7700    5.9200    3.0181 C   0  0  0  0  0  0  0  0  0  0  0  0
   -2.1388    6.3330    3.1789 N   0  0  0  0  0  0  0  0  0  0  0  0
   -3.2287    5.7161    2.5665 C   0  0  0  0  0  0  0  0  0  0  0  0
   -3.1569    4.7782    1.8073 O   0  0  0  0  0  0  0  0  0  0  0  0
   -4.4598    6.3277    2.8460 N   0  0  0  0  0  0  0  0  0  0  0  0
   -5.6235    5.7732    2.2323 C   0  0  0  0  0  0  0  0  0  0  0  0
   -5.9528    4.4361    2.4672 C   0  0  0  0  0  0  0  0  0  0  0  0
   -7.0357    3.8395    1.8229 C   0  0  0  0  0  0  0  0  0  0  0  0
   -7.8564    4.5910    0.9755 C   0  0  0  0  0  0  0  0  0  0  0  0
   -8.9805    4.0875    0.3444 O   0  0  0  0  0  0  0  0  0  0  0  0
   -9.7132    3.1087    0.9974 C   0  0  0  0  0  0  0  0  0  0  0  0
   -9.7672    3.0281    2.3889 C   0  0  0  0  0  0  0  0  0  0  0  0
  -10.4274    1.9767    2.9752 C   0  0  0  0  0  0  0  0  0  0  0  0
  -11.1068    1.0302    2.3123 N   0  0  0  0  0  0  0  0  0  0  0  0
  -11.1313    1.1492    0.9579 C   0  0  0  0  0  0  0  0  0  0  0  0
  -11.8204    0.2667    0.0779 C   0  0  0  0  0  0  0  0  0  0  0  0
  -11.6997    0.6302   -1.2474 C   0  0  0  0  0  0  0  0  0  0  0  0
  -12.3089   -0.0396   -2.3881 C   0  0  0  0  0  0  0  0  0  0  0  0
  -13.0117   -1.0357   -2.2872 O   0  0  0  0  0  0  0  0  0  0  0  0
  -12.0410    0.5326   -3.6104 N   0  0  0  0  0  0  0  0  0  0  0  0
  -12.5651    0.0124   -4.8564 C   0  0  0  0  0  0  0  0  0  0  0  0
  -12.0749    0.8890   -6.0030 C   0  0  0  0  0  0  0  0  0  0  0  0
  -12.5624    0.4204   -7.3857 C   0  0  0  0  0  0  0  0  0  0  0  0
  -12.1124    1.2681   -8.5039 N   0  0  0  0  0  0  0  0  0  0  0  0
  -12.6024    0.7849   -9.8099 C   0  0  0  0  0  0  0  0  0  0  0  0
  -11.5303   -0.1452  -10.3532 C   0  0  0  0  0  0  0  0  0  0  0  0
  -10.2409    0.4343   -9.8006 C   0  0  0  0  0  0  0  0  0  0  0  0
  -10.6529    1.3537   -8.6546 C   0  0  0  0  0  0  0  0  0  0  0  0
  -10.7104    2.0192   -1.4198 S   0  0  0  0  0  0  0  0  0  0  0  0
  -10.4615    2.1629    0.2727 C   0  0  0  0  0  0  0  0  0  0  0  0
   -7.5278    5.9215    0.7240 C   0  0  0  0  0  0  0  0  0  0  0  0
   -6.4235    6.5206    1.3618 C   0  0  0  0  0  0  0  0  0  0  0  0
    0.2536    6.8324    3.3575 C   0  0  0  0  0  0  0  0  0  0  0  0
    3.7104    7.0053    3.3855 H   0  0  0  0  0  0  0  0  0  0  0  0
    2.6739    7.7184    4.6210 H   0  0  0  0  0  0  0  0  0  0  0  0
    2.6652    8.3578    2.9468 H   0  0  0  0  0  0  0  0  0  0  0  0
    3.0158    4.9510    2.5784 H   0  0  0  0  0  0  0  0  0  0  0  0
    1.2366    3.3311    2.0282 H   0  0  0  0  0  0  0  0  0  0  0  0
   -2.3110    7.1554    3.7312 H   0  0  0  0  0  0  0  0  0  0  0  0
   -4.4402    7.3285    2.9641 H   0  0  0  0  0  0  0  0  0  0  0  0
   -5.3564    3.8291    3.1415 H   0  0  0  0  0  0  0  0  0  0  0  0
   -7.2255    2.7865    2.0312 H   0  0  0  0  0  0  0  0  0  0  0  0
   -9.2397    3.7478    3.0028 H   0  0  0  0  0  0  0  0  0  0  0  0
  -10.4162    1.8659    4.0544 H   0  0  0  0  0  0  0  0  0  0  0  0
  -12.3927   -0.5923    0.4067 H   0  0  0  0  0  0  0  0  0  0  0  0
  -11.4358    1.3444   -3.6247 H   0  0  0  0  0  0  0  0  0  0  0  0
  -13.6584   -0.0038   -4.7926 H   0  0  0  0  0  0  0  0  0  0  0  0
  -12.2110   -1.0190   -4.9688 H   0  0  0  0  0  0  0  0  0  0  0  0
  -10.9804    0.8707   -5.9510 H   0  0  0  0  0  0  0  0  0  0  0  0
  -12.3845    1.9255   -5.8060 H   0  0  0  0  0  0  0  0  0  0  0  0
  -13.6593    0.4336   -7.3712 H   0  0  0  0  0  0  0  0  0  0  0  0
  -12.2571   -0.6179   -7.5396 H   0  0  0  0  0  0  0  0  0  0  0  0
  -12.6927    1.6486  -10.4809 H   0  0  0  0  0  0  0  0  0  0  0  0
  -13.5913    0.3117   -9.7695 H   0  0  0  0  0  0  0  0  0  0  0  0
  -11.5277   -0.1843  -11.4494 H   0  0  0  0  0  0  0  0  0  0  0  0
  -11.6706   -1.1718   -9.9967 H   0  0  0  0  0  0  0  0  0  0  0  0
   -9.7236    1.0101  -10.5773 H   0  0  0  0  0  0  0  0  0  0  0  0
   -9.5664   -0.3602   -9.4649 H   0  0  0  0  0  0  0  0  0  0  0  0
  -10.3973    2.3881   -8.9140 H   0  0  0  0  0  0  0  0  0  0  0  0
  -10.0969    1.1336   -7.7421 H   0  0  0  0  0  0  0  0  0  0  0  0
   -8.1266    6.4946    0.0219 H   0  0  0  0  0  0  0  0  0  0  0  0
   -6.1685    7.5456    1.1077 H   0  0  0  0  0  0  0  0  0  0  0  0
    0.0053    7.8239    3.7288 H   0  0  0  0  0  0  0  0  0  0  0  0
  1  2  1  0  0  0  0
  1 40  1  0  0  0  0
  1 41  1  0  0  0  0
  1 42  1  0  0  0  0
  2  3  1  0  0  0  0
  2 39  2  0  0  0  0
  3  4  2  0  0  0  0
  3 43  1  0  0  0  0
  4  5  1  0  0  0  0
  4 44  1  0  0  0  0
  5  6  1  0  0  0  0
  5  7  2  0  0  0  0
  7  8  1  0  0  0  0
  7 39  1  0  0  0  0
  8  9  1  0  0  0  0
  8 45  1  0  0  0  0
  9 10  2  0  0  0  0
  9 11  1  0  0  0  0
 11 12  1  0  0  0  0
 11 46  1  0  0  0  0
 12 13  1  0  0  0  0
 12 38  2  0  0  0  0
 13 14  2  0  0  0  0
 13 47  1  0  0  0  0
 14 15  1  0  0  0  0
 14 48  1  0  0  0  0
 15 16  1  0  0  0  0
 15 37  2  0  0  0  0
 16 17  1  0  0  0  0
 17 18  1  0  0  0  0
 17 36  2  0  0  0  0
 18 19  2  0  0  0  0
 18 49  1  0  0  0  0
 19 20  1  0  0  0  0
 19 50  1  0  0  0  0
 20 21  2  0  0  0  0
 21 22  1  0  0  0  0
 21 36  1  0  0  0  0
 22 23  2  0  0  0  0
 22 51  1  0  0  0  0
 23 24  1  0  0  0  0
 23 35  1  0  0  0  0
 24 25  2  0  0  0  0
 24 26  1  0  0  0  0
 26 27  1  0  0  0  0
 26 52  1  0  0  0  0
 27 28  1  0  0  0  0
 27 53  1  0  0  0  0
 27 54  1  0  0  0  0
 28 29  1  0  0  0  0
 28 55  1  0  0  0  0
 28 56  1  0  0  0  0
 29 30  1  0  0  0  0
 29 57  1  0  0  0  0
 29 58  1  0  0  0  0
 30 31  1  0  0  0  0
 30 34  1  0  0  0  0
 31 32  1  0  0  0  0
 31 59  1  0  0  0  0
 31 60  1  0  0  0  0
 32 33  1  0  0  0  0
 32 61  1  0  0  0  0
 32 62  1  0  0  0  0
 33 34  1  0  0  0  0
 33 63  1  0  0  0  0
 33 64  1  0  0  0  0
 34 65  1  0  0  0  0
 34 66  1  0  0  0  0
 35 36  1  0  0  0  0
 37 38  1  0  0  0  0
 37 67  1  0  0  0  0
 38 68  1  0  0  0  0
 39 69  1  0  0  0  0
M  END
$$$$
