CHEMBL3348846
 OpenBabel04072215363D

 67 70  0  0  1  0  0  0  0  0999 V2000
    8.3733   -8.8367    4.1087 C   0  0  0  0  0  0  0  0  0  0  0  0
    8.9675   -8.1862    2.9934 O   0  0  0  0  0  0  0  0  0  0  0  0
    8.1529   -7.8882    1.9360 C   0  0  0  0  0  0  0  0  0  0  0  0
    6.7977   -8.2027    1.8300 C   0  0  0  0  0  0  0  0  0  0  0  0
    6.0683   -7.8222    0.6920 C   0  0  0  0  0  0  0  0  0  0  0  0
    4.5990   -8.1356    0.5859 C   0  0  0  0  0  0  0  0  0  0  0  0
    3.7425   -7.0050    1.1592 C   0  0  0  0  0  0  0  0  0  0  0  0
    2.2850   -7.2948    1.0694 C   0  0  0  0  0  0  0  0  0  0  0  0
    1.5484   -8.4619    1.0740 C   0  0  0  0  0  0  0  0  0  0  0  0
    0.1934   -8.0583    1.0223 C   0  0  0  0  0  0  0  0  0  0  0  0
   -0.8846   -8.9212    1.0470 N   0  0  0  0  0  0  0  0  0  0  0  0
   -2.1961   -8.4849    1.0410 C   0  0  0  0  0  0  0  0  0  0  0  0
   -2.5736   -7.3166    0.9923 O   0  0  0  0  0  0  0  0  0  0  0  0
   -3.2554   -9.5206    1.0788 C   0  0  0  0  0  0  0  0  0  0  0  0
   -3.1221  -10.7729    1.6803 C   0  0  0  0  0  0  0  0  0  0  0  0
   -4.2251  -11.6487    1.7240 C   0  0  0  0  0  0  0  0  0  0  0  0
   -5.4653  -11.3048    1.1646 C   0  0  0  0  0  0  0  0  0  0  0  0
   -6.5487  -12.1580    1.1469 N   0  0  0  0  0  0  0  0  0  0  0  0
   -6.8308  -13.1657    2.1750 C   0  0  0  0  0  0  0  0  0  0  0  0
   -6.9806  -14.5973    1.5834 C   0  0  2  0  0  0  0  0  0  0  0  0
   -5.6442  -15.3375    1.5109 C   0  0  0  0  0  0  0  0  0  0  0  0
   -7.7259  -14.6953    0.3033 N   0  0  0  0  0  0  0  0  0  0  0  0
   -7.3623  -13.6334   -0.6652 C   0  0  2  0  0  0  0  0  0  0  0  0
   -6.0267  -13.8952   -1.3698 C   0  0  0  0  0  0  0  0  0  0  0  0
   -7.4061  -12.2166   -0.0464 C   0  0  0  0  0  0  0  0  0  0  0  0
   -5.5697  -10.0316    0.5904 C   0  0  0  0  0  0  0  0  0  0  0  0
   -4.4896   -9.1577    0.5371 C   0  0  0  0  0  0  0  0  0  0  0  0
    0.1061   -6.7305    0.9591 N   0  0  0  0  0  0  0  0  0  0  0  0
    1.3619   -6.2903    0.9910 N   0  0  0  0  0  0  0  0  0  0  0  0
    6.7061   -7.1122   -0.3337 C   0  0  0  0  0  0  0  0  0  0  0  0
    8.0547   -6.7806   -0.2246 C   0  0  0  0  0  0  0  0  0  0  0  0
    8.7631   -6.0831   -1.1640 O   0  0  0  0  0  0  0  0  0  0  0  0
    7.9998   -5.1491   -1.9224 C   0  0  0  0  0  0  0  0  0  0  0  0
    8.7757   -7.1930    0.8967 C   0  0  0  0  0  0  0  0  0  0  0  0
    9.1220   -8.8820    4.9064 H   0  0  0  0  0  0  0  0  0  0  0  0
    8.0912   -9.8631    3.8529 H   0  0  0  0  0  0  0  0  0  0  0  0
    7.5164   -8.2758    4.4967 H   0  0  0  0  0  0  0  0  0  0  0  0
    6.2845   -8.7452    2.6177 H   0  0  0  0  0  0  0  0  0  0  0  0
    4.3939   -9.0796    1.1057 H   0  0  0  0  0  0  0  0  0  0  0  0
    4.3363   -8.3128   -0.4666 H   0  0  0  0  0  0  0  0  0  0  0  0
    3.9628   -6.0689    0.6301 H   0  0  0  0  0  0  0  0  0  0  0  0
    3.9993   -6.8329    2.2142 H   0  0  0  0  0  0  0  0  0  0  0  0
    1.9339   -9.4700    1.1324 H   0  0  0  0  0  0  0  0  0  0  0  0
   -0.6777   -9.9057    1.0421 H   0  0  0  0  0  0  0  0  0  0  0  0
   -2.1936  -11.0864    2.1448 H   0  0  0  0  0  0  0  0  0  0  0  0
   -4.0846  -12.6224    2.1841 H   0  0  0  0  0  0  0  0  0  0  0  0
   -7.7892  -12.8903    2.6359 H   0  0  0  0  0  0  0  0  0  0  0  0
   -6.1000  -13.1602    2.9915 H   0  0  0  0  0  0  0  0  0  0  0  0
   -7.5772  -15.1678    2.3089 H   0  0  0  0  0  0  0  0  0  0  0  0
   -4.8688  -14.7687    0.9959 H   0  0  0  0  0  0  0  0  0  0  0  0
   -5.7567  -16.3030    1.0048 H   0  0  0  0  0  0  0  0  0  0  0  0
   -5.2749  -15.5434    2.5216 H   0  0  0  0  0  0  0  0  0  0  0  0
   -8.7113  -14.5476    0.5296 H   0  0  0  0  0  0  0  0  0  0  0  0
   -8.1275  -13.6651   -1.4518 H   0  0  0  0  0  0  0  0  0  0  0  0
   -5.1627  -13.6322   -0.7549 H   0  0  0  0  0  0  0  0  0  0  0  0
   -5.9567  -13.2890   -2.2801 H   0  0  0  0  0  0  0  0  0  0  0  0
   -5.9322  -14.9448   -1.6657 H   0  0  0  0  0  0  0  0  0  0  0  0
   -8.4338  -11.9697    0.2484 H   0  0  0  0  0  0  0  0  0  0  0  0
   -7.1217  -11.4976   -0.8234 H   0  0  0  0  0  0  0  0  0  0  0  0
   -6.5194   -9.6788    0.1975 H   0  0  0  0  0  0  0  0  0  0  0  0
   -4.6256   -8.1764    0.0837 H   0  0  0  0  0  0  0  0  0  0  0  0
    1.5124   -5.2873    0.9659 H   0  0  0  0  0  0  0  0  0  0  0  0
    6.1342   -6.8364   -1.2150 H   0  0  0  0  0  0  0  0  0  0  0  0
    8.6996   -4.5002   -2.4567 H   0  0  0  0  0  0  0  0  0  0  0  0
    7.3844   -4.5150   -1.2734 H   0  0  0  0  0  0  0  0  0  0  0  0
    7.3832   -5.6603   -2.6686 H   0  0  0  0  0  0  0  0  0  0  0  0
    9.8323   -6.9487    0.9728 H   0  0  0  0  0  0  0  0  0  0  0  0
  1  2  1  0  0  0  0
  1 35  1  0  0  0  0
  1 36  1  0  0  0  0
  1 37  1  0  0  0  0
  2  3  1  0  0  0  0
  3  4  1  0  0  0  0
  3 34  2  0  0  0  0
  4  5  2  0  0  0  0
  4 38  1  0  0  0  0
  5  6  1  0  0  0  0
  5 30  1  0  0  0  0
  6  7  1  0  0  0  0
  6 39  1  0  0  0  0
  6 40  1  0  0  0  0
  7  8  1  0  0  0  0
  7 41  1  0  0  0  0
  7 42  1  0  0  0  0
  8  9  2  0  0  0  0
  8 29  1  0  0  0  0
  9 10  1  0  0  0  0
  9 43  1  0  0  0  0
 10 11  1  0  0  0  0
 10 28  2  0  0  0  0
 11 12  1  0  0  0  0
 11 44  1  0  0  0  0
 12 13  2  0  0  0  0
 12 14  1  0  0  0  0
 14 15  1  0  0  0  0
 14 27  2  0  0  0  0
 15 16  2  0  0  0  0
 15 45  1  0  0  0  0
 16 17  1  0  0  0  0
 16 46  1  0  0  0  0
 17 18  1  0  0  0  0
 17 26  2  0  0  0  0
 18 19  1  0  0  0  0
 18 25  1  0  0  0  0
 19 20  1  0  0  0  0
 19 47  1  0  0  0  0
 19 48  1  0  0  0  0
 20 22  1  0  0  0  0
 20 21  1  0  0  0  0
 20 49  1  1  0  0  0
 21 50  1  0  0  0  0
 21 51  1  0  0  0  0
 21 52  1  0  0  0  0
 22 23  1  0  0  0  0
 22 53  1  0  0  0  0
 23 25  1  0  0  0  0
 23 24  1  0  0  0  0
 23 54  1  6  0  0  0
 24 55  1  0  0  0  0
 24 56  1  0  0  0  0
 24 57  1  0  0  0  0
 25 58  1  0  0  0  0
 25 59  1  0  0  0  0
 26 27  1  0  0  0  0
 26 60  1  0  0  0  0
 27 61  1  0  0  0  0
 28 29  1  0  0  0  0
 29 62  1  0  0  0  0
 30 31  2  0  0  0  0
 30 63  1  0  0  0  0
 31 32  1  0  0  0  0
 31 34  1  0  0  0  0
 32 33  1  0  0  0  0
 33 64  1  0  0  0  0
 33 65  1  0  0  0  0
 33 66  1  0  0  0  0
 34 67  1  0  0  0  0
M  END
$$$$
