CHEMBL426602
 OpenBabel04072215383D

 52 55  0  0  0  0  0  0  0  0999 V2000
    5.4787   -1.6124   -1.0235 C   0  0  0  0  0  0  0  0  0  0  0  0
    4.3043   -1.2788   -0.2815 O   0  0  0  0  0  0  0  0  0  0  0  0
    4.5098   -0.6902    0.9373 C   0  0  0  0  0  0  0  0  0  0  0  0
    5.6691    0.0572    1.2190 C   0  0  0  0  0  0  0  0  0  0  0  0
    5.9632    0.5259    2.4958 C   0  0  0  0  0  0  0  0  0  0  0  0
    7.1551    1.1167    2.6826 N   0  0  0  0  0  0  0  0  0  0  0  0
    7.4936    1.4893    3.9319 C   0  0  0  0  0  0  0  0  0  0  0  0
    6.6961    1.2808    5.0346 C   0  0  0  0  0  0  0  0  0  0  0  0
    5.4518    0.6757    4.8427 C   0  0  0  0  0  0  0  0  0  0  0  0
    4.7501    0.4944    6.0260 O   0  0  0  0  0  0  0  0  0  0  0  0
    3.9331   -0.5984    6.2073 C   0  0  0  0  0  0  0  0  0  0  0  0
    4.1746   -1.8585    5.6710 C   0  0  0  0  0  0  0  0  0  0  0  0
    3.1563   -2.8184    5.6761 C   0  0  0  0  0  0  0  0  0  0  0  0
    1.9254   -2.5746    6.2965 C   0  0  0  0  0  0  0  0  0  0  0  0
    0.8199   -3.4614    6.2218 N   0  0  0  0  0  0  0  0  0  0  0  0
    0.8046   -4.6734    5.5577 C   0  0  0  0  0  0  0  0  0  0  0  0
    1.7832   -5.2071    5.0456 O   0  0  0  0  0  0  0  0  0  0  0  0
   -0.4739   -5.2240    5.4771 N   0  0  0  0  0  0  0  0  0  0  0  0
   -0.6567   -6.4696    4.8219 C   0  0  0  0  0  0  0  0  0  0  0  0
    0.2144   -7.5452    5.0547 C   0  0  0  0  0  0  0  0  0  0  0  0
    0.1032   -8.7278    4.3207 C   0  0  0  0  0  0  0  0  0  0  0  0
   -0.8827   -8.8402    3.3460 C   0  0  0  0  0  0  0  0  0  0  0  0
   -1.7654   -7.7836    3.1428 C   0  0  0  0  0  0  0  0  0  0  0  0
   -2.6963   -7.8857    2.1845 F   0  0  0  0  0  0  0  0  0  0  0  0
   -1.6816   -6.6089    3.8884 C   0  0  0  0  0  0  0  0  0  0  0  0
    1.7626   -1.3669    6.9840 C   0  0  0  0  0  0  0  0  0  0  0  0
    2.7619   -0.3830    6.9371 C   0  0  0  0  0  0  0  0  0  0  0  0
    5.0328    0.3330    3.5306 C   0  0  0  0  0  0  0  0  0  0  0  0
    3.7726   -0.2035    3.1684 C   0  0  0  0  0  0  0  0  0  0  0  0
    3.5325   -0.7935    1.9237 C   0  0  0  0  0  0  0  0  0  0  0  0
    2.3255   -1.4323    1.9133 O   0  0  0  0  0  0  0  0  0  0  0  0
    2.0138   -2.3539    0.8848 C   0  0  0  0  0  0  0  0  0  0  0  0
    5.2686   -2.5140   -1.6053 H   0  0  0  0  0  0  0  0  0  0  0  0
    6.3471   -1.8400   -0.3923 H   0  0  0  0  0  0  0  0  0  0  0  0
    5.7143   -0.8004   -1.7183 H   0  0  0  0  0  0  0  0  0  0  0  0
    6.3998    0.2554    0.4432 H   0  0  0  0  0  0  0  0  0  0  0  0
    8.4686    1.9604    4.0259 H   0  0  0  0  0  0  0  0  0  0  0  0
    7.0354    1.5697    6.0240 H   0  0  0  0  0  0  0  0  0  0  0  0
    5.0962   -2.0824    5.1405 H   0  0  0  0  0  0  0  0  0  0  0  0
    3.3555   -3.7325    5.1274 H   0  0  0  0  0  0  0  0  0  0  0  0
   -0.0164   -3.1982    6.7131 H   0  0  0  0  0  0  0  0  0  0  0  0
   -1.2193   -4.5499    5.3753 H   0  0  0  0  0  0  0  0  0  0  0  0
    1.0078   -7.4614    5.7954 H   0  0  0  0  0  0  0  0  0  0  0  0
    0.8031   -9.5410    4.4944 H   0  0  0  0  0  0  0  0  0  0  0  0
   -0.9606   -9.7358    2.7381 H   0  0  0  0  0  0  0  0  0  0  0  0
   -2.3688   -5.8007    3.6671 H   0  0  0  0  0  0  0  0  0  0  0  0
    0.8448   -1.1473    7.5221 H   0  0  0  0  0  0  0  0  0  0  0  0
    2.6012    0.5750    7.4246 H   0  0  0  0  0  0  0  0  0  0  0  0
    2.9731   -0.2510    3.8996 H   0  0  0  0  0  0  0  0  0  0  0  0
    1.2507   -3.0337    1.2820 H   0  0  0  0  0  0  0  0  0  0  0  0
    2.8578   -2.9785    0.5812 H   0  0  0  0  0  0  0  0  0  0  0  0
    1.5736   -1.8206    0.0387 H   0  0  0  0  0  0  0  0  0  0  0  0
  1  2  1  0  0  0  0
  1 33  1  0  0  0  0
  1 34  1  0  0  0  0
  1 35  1  0  0  0  0
  2  3  1  0  0  0  0
  3  4  1  0  0  0  0
  3 30  2  0  0  0  0
  4  5  2  0  0  0  0
  4 36  1  0  0  0  0
  5  6  1  0  0  0  0
  5 28  1  0  0  0  0
  6  7  2  0  0  0  0
  7  8  1  0  0  0  0
  7 37  1  0  0  0  0
  8  9  2  0  0  0  0
  8 38  1  0  0  0  0
  9 10  1  0  0  0  0
  9 28  1  0  0  0  0
 10 11  1  0  0  0  0
 11 12  1  0  0  0  0
 11 27  2  0  0  0  0
 12 13  2  0  0  0  0
 12 39  1  0  0  0  0
 13 14  1  0  0  0  0
 13 40  1  0  0  0  0
 14 15  1  0  0  0  0
 14 26  2  0  0  0  0
 15 16  1  0  0  0  0
 15 41  1  0  0  0  0
 16 17  2  0  0  0  0
 16 18  1  0  0  0  0
 18 19  1  0  0  0  0
 18 42  1  0  0  0  0
 19 20  1  0  0  0  0
 19 25  2  0  0  0  0
 20 21  2  0  0  0  0
 20 43  1  0  0  0  0
 21 22  1  0  0  0  0
 21 44  1  0  0  0  0
 22 23  2  0  0  0  0
 22 45  1  0  0  0  0
 23 24  1  0  0  0  0
 23 25  1  0  0  0  0
 25 46  1  0  0  0  0
 26 27  1  0  0  0  0
 26 47  1  0  0  0  0
 27 48  1  0  0  0  0
 28 29  2  0  0  0  0
 29 30  1  0  0  0  0
 29 49  1  0  0  0  0
 30 31  1  0  0  0  0
 31 32  1  0  0  0  0
 32 50  1  0  0  0  0
 32 51  1  0  0  0  0
 32 52  1  0  0  0  0
M  END
$$$$
