CHEMBL1990346
 OpenBabel04072215363D

 27 29  0  0  0  0  0  0  0  0999 V2000
    2.5161    1.2516    0.1360 N   0  0  0  0  0  0  0  0  0  0  0  0
    1.5816    0.2920    0.0489 C   0  0  0  0  0  0  0  0  0  0  0  0
    1.9465   -0.9843    0.0259 N   0  0  0  0  0  0  0  0  0  0  0  0
    0.7887   -1.6446   -0.0100 N   0  0  0  0  0  0  0  0  0  0  0  0
   -0.3203   -0.8434   -0.0114 C   0  0  0  0  0  0  0  0  0  0  0  0
   -1.6718   -1.1916   -0.0152 C   0  0  0  0  0  0  0  0  0  0  0  0
   -2.5931   -0.1533   -0.0324 C   0  0  0  0  0  0  0  0  0  0  0  0
   -2.1662    1.1738   -0.0602 C   0  0  0  0  0  0  0  0  0  0  0  0
   -0.7952    1.5431   -0.0483 C   0  0  0  0  0  0  0  0  0  0  0  0
   -0.4080    2.9752   -0.0706 C   0  0  0  0  0  0  0  0  0  0  0  0
   -1.1515    3.9413    0.6401 C   0  0  0  0  0  0  0  0  0  0  0  0
   -0.7906    5.2949    0.6456 C   0  0  0  0  0  0  0  0  0  0  0  0
    0.3474    5.7059   -0.0370 C   0  0  0  0  0  0  0  0  0  0  0  0
    0.8859    7.5154    0.0263 Br  0  0  0  0  0  0  0  0  0  0  0  0
    1.0881    4.7872   -0.7700 C   0  0  0  0  0  0  0  0  0  0  0  0
    0.6826    3.4478   -0.8189 C   0  0  0  0  0  0  0  0  0  0  0  0
    0.1563    0.4743   -0.0085 C   0  0  0  0  0  0  0  0  0  0  0  0
    3.4565    0.9169    0.3180 H   0  0  0  0  0  0  0  0  0  0  0  0
    2.2972    2.1023    0.6407 H   0  0  0  0  0  0  0  0  0  0  0  0
    0.8171   -2.6567   -0.0248 H   0  0  0  0  0  0  0  0  0  0  0  0
   -1.9954   -2.2275   -0.0053 H   0  0  0  0  0  0  0  0  0  0  0  0
   -3.6576   -0.3778   -0.0334 H   0  0  0  0  0  0  0  0  0  0  0  0
   -2.9341    1.9447   -0.1032 H   0  0  0  0  0  0  0  0  0  0  0  0
   -2.0320    3.6510    1.2110 H   0  0  0  0  0  0  0  0  0  0  0  0
   -1.3985    6.0104    1.1932 H   0  0  0  0  0  0  0  0  0  0  0  0
    1.9798    5.0934   -1.3104 H   0  0  0  0  0  0  0  0  0  0  0  0
    1.2517    2.7660   -1.4492 H   0  0  0  0  0  0  0  0  0  0  0  0
  1  2  1  0  0  0  0
  1 18  1  0  0  0  0
  1 19  1  0  0  0  0
  2  3  2  0  0  0  0
  2 17  1  0  0  0  0
  3  4  1  0  0  0  0
  4  5  1  0  0  0  0
  4 20  1  0  0  0  0
  5  6  1  0  0  0  0
  5 17  2  0  0  0  0
  6  7  2  0  0  0  0
  6 21  1  0  0  0  0
  7  8  1  0  0  0  0
  7 22  1  0  0  0  0
  8  9  2  0  0  0  0
  8 23  1  0  0  0  0
  9 10  1  0  0  0  0
  9 17  1  0  0  0  0
 10 11  1  0  0  0  0
 10 16  2  0  0  0  0
 11 12  2  0  0  0  0
 11 24  1  0  0  0  0
 12 13  1  0  0  0  0
 12 25  1  0  0  0  0
 13 14  1  0  0  0  0
 13 15  2  0  0  0  0
 15 16  1  0  0  0  0
 15 26  1  0  0  0  0
 16 27  1  0  0  0  0
M  END
$$$$
