CHEMBL1762534
 OpenBabel04072215363D

 66 70  0  0  0  0  0  0  0  0999 V2000
   -0.3942   -4.1508    5.1912 C   0  0  0  0  0  0  0  0  0  0  0  0
   -0.7169   -3.4242    4.0089 O   0  0  0  0  0  0  0  0  0  0  0  0
    0.1955   -3.6323    2.9925 C   0  0  0  0  0  0  0  0  0  0  0  0
   -0.0815   -3.0253    1.7821 C   0  0  0  0  0  0  0  0  0  0  0  0
    0.8226   -3.2011    0.7470 C   0  0  0  0  0  0  0  0  0  0  0  0
    1.9609   -3.9709    0.9752 C   0  0  0  0  0  0  0  0  0  0  0  0
    2.1781   -4.5659    2.2215 C   0  0  0  0  0  0  0  0  0  0  0  0
    3.3292   -5.3346    2.4482 N   0  0  0  0  0  0  0  0  0  0  0  0
    3.8164   -5.4017    3.8224 C   0  0  0  0  0  0  0  0  0  0  0  0
    3.9937   -6.2045    1.5574 C   0  0  0  0  0  0  0  0  0  0  0  0
    3.3115   -6.7823    0.4977 C   0  0  0  0  0  0  0  0  0  0  0  0
    4.0189   -7.6191   -0.3198 C   0  0  0  0  0  0  0  0  0  0  0  0
    5.3070   -7.9044   -0.1204 N   0  0  0  0  0  0  0  0  0  0  0  0
    5.9077   -7.3339    0.9333 C   0  0  0  0  0  0  0  0  0  0  0  0
    7.2470   -7.6187    1.1893 N   0  0  0  0  0  0  0  0  0  0  0  0
    7.8904   -8.8574    1.0146 C   0  0  0  0  0  0  0  0  0  0  0  0
    9.2813   -8.8826    0.8657 C   0  0  0  0  0  0  0  0  0  0  0  0
    9.9738  -10.0684    0.6044 C   0  0  0  0  0  0  0  0  0  0  0  0
   11.3435  -10.1023    0.4537 N   0  0  0  0  0  0  0  0  0  0  0  0
   12.2476   -9.1863    1.1566 C   0  0  0  0  0  0  0  0  0  0  0  0
   13.0689   -8.3844    0.1403 C   0  0  0  0  0  0  0  0  0  0  0  0
   13.7734   -9.2527   -0.7654 O   0  0  0  0  0  0  0  0  0  0  0  0
   12.8416  -10.0726   -1.4933 C   0  0  0  0  0  0  0  0  0  0  0  0
   11.9903  -10.9493   -0.5563 C   0  0  0  0  0  0  0  0  0  0  0  0
    9.2130  -11.2443    0.5165 C   0  0  0  0  0  0  0  0  0  0  0  0
    7.8219  -11.2816    0.7038 C   0  0  0  0  0  0  0  0  0  0  0  0
    7.1620  -12.4951    0.7087 N   0  0  0  0  0  0  0  0  0  0  0  0
    5.9135  -12.7080    1.4508 C   0  0  0  0  0  0  0  0  0  0  0  0
    5.8794  -14.1786    1.9107 C   0  0  0  0  0  0  0  0  0  0  0  0
    6.0231  -15.0934    0.8070 O   0  0  0  0  0  0  0  0  0  0  0  0
    7.2582  -14.8494    0.1068 C   0  0  0  0  0  0  0  0  0  0  0  0
    7.3208  -13.4117   -0.4299 C   0  0  0  0  0  0  0  0  0  0  0  0
    7.1843  -10.0679    0.9503 C   0  0  0  0  0  0  0  0  0  0  0  0
    5.2966   -6.4861    1.7735 N   0  0  0  0  0  0  0  0  0  0  0  0
    1.2925   -4.3828    3.2270 N   0  0  0  0  0  0  0  0  0  0  0  0
   -1.1150   -3.8704    5.9640 H   0  0  0  0  0  0  0  0  0  0  0  0
    0.6039   -3.8958    5.5652 H   0  0  0  0  0  0  0  0  0  0  0  0
   -0.4848   -5.2294    5.0205 H   0  0  0  0  0  0  0  0  0  0  0  0
   -0.9735   -2.4260    1.6531 H   0  0  0  0  0  0  0  0  0  0  0  0
    0.6573   -2.7372   -0.2175 H   0  0  0  0  0  0  0  0  0  0  0  0
    2.6912   -4.0781    0.1760 H   0  0  0  0  0  0  0  0  0  0  0  0
    3.2724   -4.7527    4.5188 H   0  0  0  0  0  0  0  0  0  0  0  0
    4.8641   -5.0809    3.8799 H   0  0  0  0  0  0  0  0  0  0  0  0
    3.7441   -6.4242    4.2151 H   0  0  0  0  0  0  0  0  0  0  0  0
    2.2567   -6.6188    0.3239 H   0  0  0  0  0  0  0  0  0  0  0  0
    3.5596   -8.1046   -1.1736 H   0  0  0  0  0  0  0  0  0  0  0  0
    7.5794   -7.0719    1.9698 H   0  0  0  0  0  0  0  0  0  0  0  0
    9.8154   -7.9378    0.8891 H   0  0  0  0  0  0  0  0  0  0  0  0
   12.9257   -9.7960    1.7667 H   0  0  0  0  0  0  0  0  0  0  0  0
   11.7300   -8.5114    1.8460 H   0  0  0  0  0  0  0  0  0  0  0  0
   13.8140   -7.7773    0.6638 H   0  0  0  0  0  0  0  0  0  0  0  0
   12.4294   -7.7075   -0.4389 H   0  0  0  0  0  0  0  0  0  0  0  0
   13.4193  -10.7080   -2.1719 H   0  0  0  0  0  0  0  0  0  0  0  0
   12.2045   -9.4230   -2.1060 H   0  0  0  0  0  0  0  0  0  0  0  0
   12.6344  -11.6707   -0.0405 H   0  0  0  0  0  0  0  0  0  0  0  0
   11.2751  -11.5125   -1.1663 H   0  0  0  0  0  0  0  0  0  0  0  0
    9.7333  -12.1885    0.3808 H   0  0  0  0  0  0  0  0  0  0  0  0
    5.0563  -12.4968    0.7999 H   0  0  0  0  0  0  0  0  0  0  0  0
    5.8486  -12.0664    2.3368 H   0  0  0  0  0  0  0  0  0  0  0  0
    4.9266  -14.3961    2.4021 H   0  0  0  0  0  0  0  0  0  0  0  0
    6.6813  -14.3734    2.6343 H   0  0  0  0  0  0  0  0  0  0  0  0
    7.3203  -15.5626   -0.7202 H   0  0  0  0  0  0  0  0  0  0  0  0
    8.0976  -15.0459    0.7856 H   0  0  0  0  0  0  0  0  0  0  0  0
    6.4966  -13.2444   -1.1356 H   0  0  0  0  0  0  0  0  0  0  0  0
    8.2576  -13.2641   -0.9766 H   0  0  0  0  0  0  0  0  0  0  0  0
    6.1071  -10.0562    1.0863 H   0  0  0  0  0  0  0  0  0  0  0  0
  1  2  1  0  0  0  0
  1 36  1  0  0  0  0
  1 37  1  0  0  0  0
  1 38  1  0  0  0  0
  2  3  1  0  0  0  0
  3  4  1  0  0  0  0
  3 35  2  0  0  0  0
  4  5  2  0  0  0  0
  4 39  1  0  0  0  0
  5  6  1  0  0  0  0
  5 40  1  0  0  0  0
  6  7  2  0  0  0  0
  6 41  1  0  0  0  0
  7  8  1  0  0  0  0
  7 35  1  0  0  0  0
  8  9  1  0  0  0  0
  8 10  1  0  0  0  0
  9 42  1  0  0  0  0
  9 43  1  0  0  0  0
  9 44  1  0  0  0  0
 10 11  1  0  0  0  0
 10 34  2  0  0  0  0
 11 12  2  0  0  0  0
 11 45  1  0  0  0  0
 12 13  1  0  0  0  0
 12 46  1  0  0  0  0
 13 14  2  0  0  0  0
 14 15  1  0  0  0  0
 14 34  1  0  0  0  0
 15 16  1  0  0  0  0
 15 47  1  0  0  0  0
 16 17  1  0  0  0  0
 16 33  2  0  0  0  0
 17 18  2  0  0  0  0
 17 48  1  0  0  0  0
 18 19  1  0  0  0  0
 18 25  1  0  0  0  0
 19 20  1  0  0  0  0
 19 24  1  0  0  0  0
 20 21  1  0  0  0  0
 20 49  1  0  0  0  0
 20 50  1  0  0  0  0
 21 22  1  0  0  0  0
 21 51  1  0  0  0  0
 21 52  1  0  0  0  0
 22 23  1  0  0  0  0
 23 24  1  0  0  0  0
 23 53  1  0  0  0  0
 23 54  1  0  0  0  0
 24 55  1  0  0  0  0
 24 56  1  0  0  0  0
 25 26  2  0  0  0  0
 25 57  1  0  0  0  0
 26 27  1  0  0  0  0
 26 33  1  0  0  0  0
 27 28  1  0  0  0  0
 27 32  1  0  0  0  0
 28 29  1  0  0  0  0
 28 58  1  0  0  0  0
 28 59  1  0  0  0  0
 29 30  1  0  0  0  0
 29 60  1  0  0  0  0
 29 61  1  0  0  0  0
 30 31  1  0  0  0  0
 31 32  1  0  0  0  0
 31 62  1  0  0  0  0
 31 63  1  0  0  0  0
 32 64  1  0  0  0  0
 32 65  1  0  0  0  0
 33 66  1  0  0  0  0
M  END
$$$$
