CHEMBL3671558
 OpenBabel04072215373D

 54 57  0  0  1  0  0  0  0  0999 V2000
    1.3233   -0.3502   -5.0552 C   0  0  0  0  0  0  0  0  0  0  0  0
    2.3162    0.1983   -4.3327 C   0  0  0  0  0  0  0  0  0  0  0  0
    2.6366   -0.2645   -2.9487 C   0  0  0  0  0  0  0  0  0  0  0  0
    2.0102   -1.1852   -2.4298 O   0  0  0  0  0  0  0  0  0  0  0  0
    3.6567    0.3373   -2.2237 N   0  0  0  0  0  0  0  0  0  0  0  0
    4.7001    1.0859   -2.8088 C   0  0  0  0  0  0  0  0  0  0  0  0
    5.8201    0.3843   -3.2829 C   0  0  0  0  0  0  0  0  0  0  0  0
    6.7338    0.9926   -4.1843 C   0  0  0  0  0  0  0  0  0  0  0  0
    7.8893    0.3921   -4.7393 C   0  0  0  0  0  0  0  0  0  0  0  0
    8.3138   -0.8780   -4.2820 N   0  0  0  0  0  0  0  0  0  0  0  0
    9.6360   -1.3926   -4.2695 C   0  0  0  0  0  0  0  0  0  0  0  0
   10.7631   -0.5717   -4.1213 C   0  0  0  0  0  0  0  0  0  0  0  0
   12.0430   -1.1227   -3.9674 C   0  0  0  0  0  0  0  0  0  0  0  0
   12.2076   -2.5065   -3.9507 C   0  0  0  0  0  0  0  0  0  0  0  0
   13.9276   -3.2441   -3.6813 Br  0  0  0  0  0  0  0  0  0  0  0  0
   11.1093   -3.3455   -4.1037 C   0  0  0  0  0  0  0  0  0  0  0  0
    9.8425   -2.7820   -4.2521 C   0  0  0  0  0  0  0  0  0  0  0  0
    8.7848   -3.6001   -4.3770 F   0  0  0  0  0  0  0  0  0  0  0  0
    8.6155    0.9938   -5.6992 N   0  0  0  0  0  0  0  0  0  0  0  0
    8.2133    2.2048   -6.0865 C   0  0  0  0  0  0  0  0  0  0  0  0
    7.2128    2.9089   -5.5466 N   0  0  0  0  0  0  0  0  0  0  0  0
    6.4979    2.3109   -4.5887 C   0  0  0  0  0  0  0  0  0  0  0  0
    5.4923    3.0347   -3.9504 C   0  0  0  0  0  0  0  0  0  0  0  0
    4.6247    2.4665   -3.0063 C   0  0  0  0  0  0  0  0  0  0  0  0
    3.7922    3.3758   -2.4003 O   0  0  0  0  0  0  0  0  0  0  0  0
    3.3215    3.1122   -1.0623 C   0  0  3  0  0  0  0  0  0  0  0  0
    1.8464    2.7367   -1.1557 C   0  0  0  0  0  0  0  0  0  0  0  0
    1.1615    4.0828   -1.3444 C   0  0  0  0  0  0  0  0  0  0  0  0
    1.9212    4.9891   -0.5115 N   0  0  0  0  0  0  0  0  0  0  0  0
    1.5207    6.2185   -0.0382 C   0  0  0  0  0  0  0  0  0  0  0  0
    0.1507    6.7266   -0.4406 C   0  0  0  0  0  0  0  0  0  0  0  0
    2.2419    6.9032    0.6886 O   0  0  0  0  0  0  0  0  0  0  0  0
    3.2322    4.4093   -0.2070 C   0  0  0  0  0  0  0  0  0  0  0  0
    1.1223   -0.0112   -6.0668 H   0  0  0  0  0  0  0  0  0  0  0  0
    0.6931   -1.1438   -4.6634 H   0  0  0  0  0  0  0  0  0  0  0  0
    2.9199    0.9805   -4.7759 H   0  0  0  0  0  0  0  0  0  0  0  0
    3.9364   -0.3394   -1.5206 H   0  0  0  0  0  0  0  0  0  0  0  0
    5.9574   -0.6587   -3.0065 H   0  0  0  0  0  0  0  0  0  0  0  0
    7.6342   -1.5958   -4.5185 H   0  0  0  0  0  0  0  0  0  0  0  0
   10.6582    0.5104   -4.1021 H   0  0  0  0  0  0  0  0  0  0  0  0
   12.8971   -0.4605   -3.8425 H   0  0  0  0  0  0  0  0  0  0  0  0
   11.2157   -4.4256   -4.0927 H   0  0  0  0  0  0  0  0  0  0  0  0
    8.7490    2.6580   -6.9144 H   0  0  0  0  0  0  0  0  0  0  0  0
    5.3826    4.0902   -4.1950 H   0  0  0  0  0  0  0  0  0  0  0  0
    3.9483    2.3778   -0.5440 H   0  0  0  0  0  0  0  0  0  0  0  0
    1.5182    2.2791   -0.2152 H   0  0  0  0  0  0  0  0  0  0  0  0
    1.6027    2.0756   -1.9860 H   0  0  0  0  0  0  0  0  0  0  0  0
    0.1107    4.0374   -1.0581 H   0  0  0  0  0  0  0  0  0  0  0  0
    1.2488    4.4424   -2.3759 H   0  0  0  0  0  0  0  0  0  0  0  0
   -0.4711    5.9881   -0.9450 H   0  0  0  0  0  0  0  0  0  0  0  0
    0.2672    7.5813   -1.1124 H   0  0  0  0  0  0  0  0  0  0  0  0
   -0.3898    7.0441    0.4568 H   0  0  0  0  0  0  0  0  0  0  0  0
    3.2164    4.1622    0.8635 H   0  0  0  0  0  0  0  0  0  0  0  0
    4.0297    5.1340   -0.3939 H   0  0  0  0  0  0  0  0  0  0  0  0
  1  2  2  0  0  0  0
  1 34  1  0  0  0  0
  1 35  1  0  0  0  0
  2  3  1  0  0  0  0
  2 36  1  0  0  0  0
  3  4  2  0  0  0  0
  3  5  1  0  0  0  0
  5  6  1  0  0  0  0
  5 37  1  0  0  0  0
  6  7  1  0  0  0  0
  6 24  2  0  0  0  0
  7  8  2  0  0  0  0
  7 38  1  0  0  0  0
  8  9  1  0  0  0  0
  8 22  1  0  0  0  0
  9 10  1  0  0  0  0
  9 19  2  0  0  0  0
 10 11  1  0  0  0  0
 10 39  1  0  0  0  0
 11 12  1  0  0  0  0
 11 17  2  0  0  0  0
 12 13  2  0  0  0  0
 12 40  1  0  0  0  0
 13 14  1  0  0  0  0
 13 41  1  0  0  0  0
 14 15  1  0  0  0  0
 14 16  2  0  0  0  0
 16 17  1  0  0  0  0
 16 42  1  0  0  0  0
 17 18  1  0  0  0  0
 19 20  1  0  0  0  0
 20 21  2  0  0  0  0
 20 43  1  0  0  0  0
 21 22  1  0  0  0  0
 22 23  2  0  0  0  0
 23 24  1  0  0  0  0
 23 44  1  0  0  0  0
 24 25  1  0  0  0  0
 25 26  1  0  0  0  0
 26 27  1  0  0  0  0
 26 33  1  0  0  0  0
 26 45  1  0  0  0  0
 27 28  1  0  0  0  0
 27 46  1  0  0  0  0
 27 47  1  0  0  0  0
 28 29  1  0  0  0  0
 28 48  1  0  0  0  0
 28 49  1  0  0  0  0
 29 30  1  0  0  0  0
 29 33  1  0  0  0  0
 30 31  1  0  0  0  0
 30 32  2  0  0  0  0
 31 50  1  0  0  0  0
 31 51  1  0  0  0  0
 31 52  1  0  0  0  0
 33 53  1  0  0  0  0
 33 54  1  0  0  0  0
M  END
$$$$
