CHEMBL354070
 OpenBabel04072215363D

 31 34  0  0  0  0  0  0  0  0999 V2000
    1.3500   -0.2177    0.2271 C   0  0  0  0  0  0  0  0  0  0  0  0
    0.7787    0.9420    0.7503 C   0  0  0  0  0  0  0  0  0  0  0  0
   -0.5904    1.1743    0.6051 C   0  0  0  0  0  0  0  0  0  0  0  0
   -1.3931    0.2467   -0.0692 C   0  0  0  0  0  0  0  0  0  0  0  0
   -2.8423    0.4682   -0.1981 C   0  0  0  0  0  0  0  0  0  0  0  0
   -3.7893   -0.0677    0.7778 C   0  0  0  0  0  0  0  0  0  0  0  0
   -5.1060    0.1264    0.6030 C   0  0  0  0  0  0  0  0  0  0  0  0
   -5.5598    0.8600   -0.4971 N   0  0  0  0  0  0  0  0  0  0  0  0
   -6.8428    1.2089   -0.8994 C   0  0  0  0  0  0  0  0  0  0  0  0
   -8.0706    0.9047   -0.2179 C   0  0  0  0  0  0  0  0  0  0  0  0
   -8.3236    0.7752    1.1371 C   0  0  0  0  0  0  0  0  0  0  0  0
   -9.6210    0.4594    1.4947 N   0  0  0  0  0  0  0  0  0  0  0  0
  -10.3582    0.3899    0.4099 C   0  0  0  0  0  0  0  0  0  0  0  0
   -9.5505    0.6751   -1.0721 S   0  0  0  0  0  0  0  0  0  0  0  0
   -6.6549    1.8929   -2.0892 C   0  0  0  0  0  0  0  0  0  0  0  0
   -5.3295    2.0039   -2.4153 N   0  0  0  0  0  0  0  0  0  0  0  0
   -4.6873    1.3823   -1.4525 C   0  0  0  0  0  0  0  0  0  0  0  0
   -3.2900    1.1636   -1.2664 C   0  0  0  0  0  0  0  0  0  0  0  0
   -0.8126   -0.9152   -0.5938 C   0  0  0  0  0  0  0  0  0  0  0  0
    0.5558   -1.1454   -0.4456 C   0  0  0  0  0  0  0  0  0  0  0  0
    2.4156   -0.3988    0.3438 H   0  0  0  0  0  0  0  0  0  0  0  0
    1.3994    1.6650    1.2734 H   0  0  0  0  0  0  0  0  0  0  0  0
   -1.0265    2.0790    1.0222 H   0  0  0  0  0  0  0  0  0  0  0  0
   -3.4061   -0.6265    1.6254 H   0  0  0  0  0  0  0  0  0  0  0  0
   -5.8308   -0.2829    1.2905 H   0  0  0  0  0  0  0  0  0  0  0  0
   -7.5988    0.9055    1.9302 H   0  0  0  0  0  0  0  0  0  0  0  0
  -11.4169    0.1696    0.4464 H   0  0  0  0  0  0  0  0  0  0  0  0
   -7.4139    2.3285   -2.7277 H   0  0  0  0  0  0  0  0  0  0  0  0
   -2.6159    1.5645   -2.0177 H   0  0  0  0  0  0  0  0  0  0  0  0
   -1.4239   -1.6465   -1.1178 H   0  0  0  0  0  0  0  0  0  0  0  0
    1.0015   -2.0488   -0.8538 H   0  0  0  0  0  0  0  0  0  0  0  0
  1  2  1  0  0  0  0
  1 20  2  0  0  0  0
  1 21  1  0  0  0  0
  2  3  2  0  0  0  0
  2 22  1  0  0  0  0
  3  4  1  0  0  0  0
  3 23  1  0  0  0  0
  4  5  1  0  0  0  0
  4 19  2  0  0  0  0
  5  6  1  0  0  0  0
  5 18  2  0  0  0  0
  6  7  2  0  0  0  0
  6 24  1  0  0  0  0
  7  8  1  0  0  0  0
  7 25  1  0  0  0  0
  8  9  1  0  0  0  0
  8 17  1  0  0  0  0
  9 10  1  0  0  0  0
  9 15  2  0  0  0  0
 10 11  2  0  0  0  0
 10 14  1  0  0  0  0
 11 12  1  0  0  0  0
 11 26  1  0  0  0  0
 12 13  2  0  0  0  0
 13 14  1  0  0  0  0
 13 27  1  0  0  0  0
 15 16  1  0  0  0  0
 15 28  1  0  0  0  0
 16 17  2  0  0  0  0
 17 18  1  0  0  0  0
 18 29  1  0  0  0  0
 19 20  1  0  0  0  0
 19 30  1  0  0  0  0
 20 31  1  0  0  0  0
M  END
$$$$
