CHEMBL2004771
 OpenBabel04072215363D

 41 45  0  0  0  0  0  0  0  0999 V2000
    0.7031    2.6432   -2.4165 O   0  0  0  0  0  0  0  0  0  0  0  0
    1.0708    1.5097   -2.1926 C   0  0  0  0  0  0  0  0  0  0  0  0
    1.4974    0.5796   -3.1090 N   0  0  0  0  0  0  0  0  0  0  0  0
    1.8047   -0.6948   -2.5129 C   0  0  0  0  0  0  0  0  0  0  0  0
    1.5821   -0.4569   -1.0523 C   0  0  0  0  0  0  0  0  0  0  0  0
    1.1447    0.8646   -0.8772 C   0  0  0  0  0  0  0  0  0  0  0  0
    0.8602    1.4195    0.3536 C   0  0  0  0  0  0  0  0  0  0  0  0
    1.0233    0.5999    1.4636 C   0  0  0  0  0  0  0  0  0  0  0  0
    1.4652   -0.7313    1.3102 C   0  0  0  0  0  0  0  0  0  0  0  0
    1.7715   -1.2990    0.0467 C   0  0  0  0  0  0  0  0  0  0  0  0
    2.3165   -2.6748   -0.0576 C   0  0  0  0  0  0  0  0  0  0  0  0
    1.9983   -3.5293   -1.1224 C   0  0  0  0  0  0  0  0  0  0  0  0
    2.6015   -4.7861   -1.2742 C   0  0  0  0  0  0  0  0  0  0  0  0
    3.4859   -5.2837   -0.3182 C   0  0  0  0  0  0  0  0  0  0  0  0
    4.1377   -6.5263   -0.4234 N   0  0  0  0  0  0  0  0  0  0  0  0
    4.0236   -7.4151   -1.4264 C   0  0  0  0  0  0  0  0  0  0  0  0
    3.8038   -7.2574   -2.7173 N   0  0  0  0  0  0  0  0  0  0  0  0
    3.6991   -8.5392   -3.1937 C   0  0  0  0  0  0  0  0  0  0  0  0
    3.4298   -9.0346   -4.4761 C   0  0  0  0  0  0  0  0  0  0  0  0
    3.2988  -10.4242   -4.6318 C   0  0  0  0  0  0  0  0  0  0  0  0
    3.4583  -11.2948   -3.5452 C   0  0  0  0  0  0  0  0  0  0  0  0
    3.7733  -10.8161   -2.2686 C   0  0  0  0  0  0  0  0  0  0  0  0
    3.8745   -9.4362   -2.1550 C   0  0  0  0  0  0  0  0  0  0  0  0
    4.1297   -8.7206   -1.0256 O   0  0  0  0  0  0  0  0  0  0  0  0
    3.7843   -4.4573    0.7714 C   0  0  0  0  0  0  0  0  0  0  0  0
    3.2160   -3.1800    0.8972 C   0  0  0  0  0  0  0  0  0  0  0  0
    1.4797    0.7743   -4.1004 H   0  0  0  0  0  0  0  0  0  0  0  0
    2.8386   -0.9577   -2.7479 H   0  0  0  0  0  0  0  0  0  0  0  0
    1.0997   -1.4170   -2.9304 H   0  0  0  0  0  0  0  0  0  0  0  0
    0.5331    2.4497    0.4413 H   0  0  0  0  0  0  0  0  0  0  0  0
    0.8180    0.9906    2.4581 H   0  0  0  0  0  0  0  0  0  0  0  0
    1.5704   -1.3280    2.2172 H   0  0  0  0  0  0  0  0  0  0  0  0
    1.2637   -3.2454   -1.8683 H   0  0  0  0  0  0  0  0  0  0  0  0
    2.3379   -5.3723   -2.1508 H   0  0  0  0  0  0  0  0  0  0  0  0
    4.3618   -6.9297    0.4774 H   0  0  0  0  0  0  0  0  0  0  0  0
    3.3018   -8.3596   -5.3152 H   0  0  0  0  0  0  0  0  0  0  0  0
    3.0574  -10.8306   -5.6123 H   0  0  0  0  0  0  0  0  0  0  0  0
    3.3302  -12.3656   -3.6941 H   0  0  0  0  0  0  0  0  0  0  0  0
    3.9008  -11.4699   -1.4156 H   0  0  0  0  0  0  0  0  0  0  0  0
    4.4832   -4.7910    1.5352 H   0  0  0  0  0  0  0  0  0  0  0  0
    3.5133   -2.5762    1.7525 H   0  0  0  0  0  0  0  0  0  0  0  0
  1  2  2  0  0  0  0
  2  3  1  0  0  0  0
  2  6  1  0  0  0  0
  3  4  1  0  0  0  0
  3 27  1  0  0  0  0
  4  5  1  0  0  0  0
  4 28  1  0  0  0  0
  4 29  1  0  0  0  0
  5  6  1  0  0  0  0
  5 10  2  0  0  0  0
  6  7  2  0  0  0  0
  7  8  1  0  0  0  0
  7 30  1  0  0  0  0
  8  9  2  0  0  0  0
  8 31  1  0  0  0  0
  9 10  1  0  0  0  0
  9 32  1  0  0  0  0
 10 11  1  0  0  0  0
 11 12  1  0  0  0  0
 11 26  2  0  0  0  0
 12 13  2  0  0  0  0
 12 33  1  0  0  0  0
 13 14  1  0  0  0  0
 13 34  1  0  0  0  0
 14 15  1  0  0  0  0
 14 25  2  0  0  0  0
 15 16  1  0  0  0  0
 15 35  1  0  0  0  0
 16 17  2  0  0  0  0
 16 24  1  0  0  0  0
 17 18  1  0  0  0  0
 18 19  1  0  0  0  0
 18 23  2  0  0  0  0
 19 20  2  0  0  0  0
 19 36  1  0  0  0  0
 20 21  1  0  0  0  0
 20 37  1  0  0  0  0
 21 22  2  0  0  0  0
 21 38  1  0  0  0  0
 22 23  1  0  0  0  0
 22 39  1  0  0  0  0
 23 24  1  0  0  0  0
 25 26  1  0  0  0  0
 25 40  1  0  0  0  0
 26 41  1  0  0  0  0
M  END
$$$$
