CHEMBL2018880
 OpenBabel04072215363D

 42 44  0  0  0  0  0  0  0  0999 V2000
    3.4009   -0.5153    1.1730 C   0  0  0  0  0  0  0  0  0  0  0  0
    2.5300    0.1356    0.2416 O   0  0  0  0  0  0  0  0  0  0  0  0
    3.1367    0.6495   -0.8760 C   0  0  0  0  0  0  0  0  0  0  0  0
    4.2645    0.0289   -1.4289 C   0  0  0  0  0  0  0  0  0  0  0  0
    4.9995    0.5988   -2.4518 C   0  0  0  0  0  0  0  0  0  0  0  0
    6.1326   -0.0086   -2.8100 N   0  0  0  0  0  0  0  0  0  0  0  0
    6.8861    0.6132   -3.7173 C   0  0  0  0  0  0  0  0  0  0  0  0
    6.5879    1.7638   -4.3157 N   0  0  0  0  0  0  0  0  0  0  0  0
    5.3939    2.3125   -4.0045 C   0  0  0  0  0  0  0  0  0  0  0  0
    5.0112    3.4836   -4.6783 O   0  0  0  0  0  0  0  0  0  0  0  0
    5.6773    3.7654   -5.8615 C   0  0  0  0  0  0  0  0  0  0  0  0
    5.9213    2.7718   -6.8136 C   0  0  0  0  0  0  0  0  0  0  0  0
    6.7455    3.0352   -7.8958 C   0  0  0  0  0  0  0  0  0  0  0  0
    7.2451    4.3199   -8.0914 C   0  0  0  0  0  0  0  0  0  0  0  0
    6.8850    5.3679   -7.2387 C   0  0  0  0  0  0  0  0  0  0  0  0
    7.2583    6.7088   -7.4882 N   0  0  0  0  0  0  0  0  0  0  0  0
    8.0243    7.1740   -8.5401 C   0  0  0  0  0  0  0  0  0  0  0  0
    8.1348    8.6790   -8.5957 C   0  0  0  0  0  0  0  0  0  0  0  0
    8.5618    6.5057   -9.4197 O   0  0  0  0  0  0  0  0  0  0  0  0
    6.1053    5.0831   -6.1018 C   0  0  0  0  0  0  0  0  0  0  0  0
    4.5440    1.7876   -3.0284 C   0  0  0  0  0  0  0  0  0  0  0  0
    3.3240    2.3452   -2.5832 C   0  0  0  0  0  0  0  0  0  0  0  0
    2.6275    1.8001   -1.4927 C   0  0  0  0  0  0  0  0  0  0  0  0
    1.5181    2.5326   -1.1744 O   0  0  0  0  0  0  0  0  0  0  0  0
    0.8375    2.2730    0.0436 C   0  0  0  0  0  0  0  0  0  0  0  0
    3.0646   -0.2726    2.1848 H   0  0  0  0  0  0  0  0  0  0  0  0
    4.4475   -0.1899    1.1040 H   0  0  0  0  0  0  0  0  0  0  0  0
    3.3363   -1.5993    1.0363 H   0  0  0  0  0  0  0  0  0  0  0  0
    4.6238   -0.9187   -1.0322 H   0  0  0  0  0  0  0  0  0  0  0  0
    7.8213    0.1419   -3.9953 H   0  0  0  0  0  0  0  0  0  0  0  0
    5.5352    1.7653   -6.6801 H   0  0  0  0  0  0  0  0  0  0  0  0
    7.0181    2.2368   -8.5808 H   0  0  0  0  0  0  0  0  0  0  0  0
    7.9072    4.4659   -8.9369 H   0  0  0  0  0  0  0  0  0  0  0  0
    6.8906    7.4004   -6.8437 H   0  0  0  0  0  0  0  0  0  0  0  0
    7.9686    9.1354   -7.6184 H   0  0  0  0  0  0  0  0  0  0  0  0
    7.4026    9.0657   -9.3110 H   0  0  0  0  0  0  0  0  0  0  0  0
    9.1418    8.9495   -8.9329 H   0  0  0  0  0  0  0  0  0  0  0  0
    5.8504    5.8567   -5.3881 H   0  0  0  0  0  0  0  0  0  0  0  0
    2.9348    3.2459   -3.0560 H   0  0  0  0  0  0  0  0  0  0  0  0
    0.1391    3.1004    0.2067 H   0  0  0  0  0  0  0  0  0  0  0  0
    1.5168    2.2580    0.9001 H   0  0  0  0  0  0  0  0  0  0  0  0
    0.2465    1.3542   -0.0283 H   0  0  0  0  0  0  0  0  0  0  0  0
  1  2  1  0  0  0  0
  1 26  1  0  0  0  0
  1 27  1  0  0  0  0
  1 28  1  0  0  0  0
  2  3  1  0  0  0  0
  3  4  1  0  0  0  0
  3 23  2  0  0  0  0
  4  5  2  0  0  0  0
  4 29  1  0  0  0  0
  5  6  1  0  0  0  0
  5 21  1  0  0  0  0
  6  7  2  0  0  0  0
  7  8  1  0  0  0  0
  7 30  1  0  0  0  0
  8  9  2  0  0  0  0
  9 10  1  0  0  0  0
  9 21  1  0  0  0  0
 10 11  1  0  0  0  0
 11 12  1  0  0  0  0
 11 20  2  0  0  0  0
 12 13  2  0  0  0  0
 12 31  1  0  0  0  0
 13 14  1  0  0  0  0
 13 32  1  0  0  0  0
 14 15  2  0  0  0  0
 14 33  1  0  0  0  0
 15 16  1  0  0  0  0
 15 20  1  0  0  0  0
 16 17  1  0  0  0  0
 16 34  1  0  0  0  0
 17 18  1  0  0  0  0
 17 19  2  0  0  0  0
 18 35  1  0  0  0  0
 18 36  1  0  0  0  0
 18 37  1  0  0  0  0
 20 38  1  0  0  0  0
 21 22  2  0  0  0  0
 22 23  1  0  0  0  0
 22 39  1  0  0  0  0
 23 24  1  0  0  0  0
 24 25  1  0  0  0  0
 25 40  1  0  0  0  0
 25 41  1  0  0  0  0
 25 42  1  0  0  0  0
M  END
$$$$
