CHEMBL3323600
 OpenBabel04072215363D

 42 46  0  0  0  0  0  0  0  0999 V2000
    1.9379    0.1642    1.0412 F   0  0  0  0  0  0  0  0  0  0  0  0
    0.7070    0.1117    0.5093 C   0  0  0  0  0  0  0  0  0  0  0  0
    0.1440    1.2662   -0.0174 C   0  0  0  0  0  0  0  0  0  0  0  0
   -1.1375    1.2166   -0.5646 C   0  0  0  0  0  0  0  0  0  0  0  0
   -1.8416    0.0084   -0.5879 C   0  0  0  0  0  0  0  0  0  0  0  0
   -1.2681   -1.1605   -0.0620 C   0  0  0  0  0  0  0  0  0  0  0  0
   -1.9806   -2.4359   -0.0522 C   0  0  0  0  0  0  0  0  0  0  0  0
   -1.8082   -3.3986    0.8324 N   0  0  0  0  0  0  0  0  0  0  0  0
   -2.6795   -4.3936    0.4834 C   0  0  0  0  0  0  0  0  0  0  0  0
   -2.9315   -5.6102    1.1184 C   0  0  0  0  0  0  0  0  0  0  0  0
   -3.8884   -6.4607    0.5566 C   0  0  0  0  0  0  0  0  0  0  0  0
   -4.5546   -6.1540   -0.6451 C   0  0  0  0  0  0  0  0  0  0  0  0
   -5.5242   -7.0403   -1.1783 N   0  0  0  0  0  0  0  0  0  0  0  0
   -5.5760   -8.4461   -0.9659 C   0  0  0  0  0  0  0  0  0  0  0  0
   -4.3971   -9.1966   -0.9538 C   0  0  0  0  0  0  0  0  0  0  0  0
   -4.4699  -10.5399   -0.6526 C   0  0  0  0  0  0  0  0  0  0  0  0
   -5.6231  -11.1850   -0.3993 N   0  0  0  0  0  0  0  0  0  0  0  0
   -6.7676  -10.4854   -0.4679 C   0  0  0  0  0  0  0  0  0  0  0  0
   -7.9557  -11.1501   -0.2006 C   0  0  0  0  0  0  0  0  0  0  0  0
   -9.1921  -10.5039   -0.2570 C   0  0  0  0  0  0  0  0  0  0  0  0
   -9.2514   -9.1587   -0.5943 C   0  0  0  0  0  0  0  0  0  0  0  0
   -8.0707   -8.4612   -0.8477 C   0  0  0  0  0  0  0  0  0  0  0  0
   -6.8135   -9.1080   -0.7800 C   0  0  0  0  0  0  0  0  0  0  0  0
   -4.3252   -4.9123   -1.2628 C   0  0  0  0  0  0  0  0  0  0  0  0
   -3.3804   -4.0652   -0.6688 C   0  0  0  0  0  0  0  0  0  0  0  0
   -2.9165   -2.8149   -0.9892 N   0  0  0  0  0  0  0  0  0  0  0  0
    0.0148   -1.0930    0.4989 C   0  0  0  0  0  0  0  0  0  0  0  0
    0.7012    2.1965    0.0097 H   0  0  0  0  0  0  0  0  0  0  0  0
   -1.5935    2.1201   -0.9619 H   0  0  0  0  0  0  0  0  0  0  0  0
   -2.8505    0.0031   -0.9905 H   0  0  0  0  0  0  0  0  0  0  0  0
   -2.4104   -5.8751    2.0311 H   0  0  0  0  0  0  0  0  0  0  0  0
   -4.1101   -7.3851    1.0855 H   0  0  0  0  0  0  0  0  0  0  0  0
   -5.8509   -6.7909   -2.1062 H   0  0  0  0  0  0  0  0  0  0  0  0
   -3.4325   -8.7390   -1.1425 H   0  0  0  0  0  0  0  0  0  0  0  0
   -3.5716  -11.1464   -0.5897 H   0  0  0  0  0  0  0  0  0  0  0  0
   -7.9141  -12.2025    0.0706 H   0  0  0  0  0  0  0  0  0  0  0  0
  -10.1007  -11.0562   -0.0328 H   0  0  0  0  0  0  0  0  0  0  0  0
  -10.2105   -8.6500   -0.6455 H   0  0  0  0  0  0  0  0  0  0  0  0
   -8.1320   -7.4029   -1.0893 H   0  0  0  0  0  0  0  0  0  0  0  0
   -4.8538   -4.6186   -2.1630 H   0  0  0  0  0  0  0  0  0  0  0  0
   -3.1989   -2.2665   -1.7868 H   0  0  0  0  0  0  0  0  0  0  0  0
    0.4807   -1.9761    0.9295 H   0  0  0  0  0  0  0  0  0  0  0  0
  1  2  1  0  0  0  0
  2  3  1  0  0  0  0
  2 27  2  0  0  0  0
  3  4  2  0  0  0  0
  3 28  1  0  0  0  0
  4  5  1  0  0  0  0
  4 29  1  0  0  0  0
  5  6  2  0  0  0  0
  5 30  1  0  0  0  0
  6  7  1  0  0  0  0
  6 27  1  0  0  0  0
  7  8  2  0  0  0  0
  7 26  1  0  0  0  0
  8  9  1  0  0  0  0
  9 10  1  0  0  0  0
  9 25  2  0  0  0  0
 10 11  2  0  0  0  0
 10 31  1  0  0  0  0
 11 12  1  0  0  0  0
 11 32  1  0  0  0  0
 12 13  1  0  0  0  0
 12 24  2  0  0  0  0
 13 14  1  0  0  0  0
 13 33  1  0  0  0  0
 14 15  1  0  0  0  0
 14 23  2  0  0  0  0
 15 16  2  0  0  0  0
 15 34  1  0  0  0  0
 16 17  1  0  0  0  0
 16 35  1  0  0  0  0
 17 18  2  0  0  0  0
 18 19  1  0  0  0  0
 18 23  1  0  0  0  0
 19 20  2  0  0  0  0
 19 36  1  0  0  0  0
 20 21  1  0  0  0  0
 20 37  1  0  0  0  0
 21 22  2  0  0  0  0
 21 38  1  0  0  0  0
 22 23  1  0  0  0  0
 22 39  1  0  0  0  0
 24 25  1  0  0  0  0
 24 40  1  0  0  0  0
 25 26  1  0  0  0  0
 26 41  1  0  0  0  0
 27 42  1  0  0  0  0
M  END
$$$$
