CHEMBL339856
 OpenBabel04072215363D

 76 79  0  0  0  0  0  0  0  0999 V2000
    1.3897    4.5433    2.6921 C   0  0  0  0  0  0  0  0  0  0  0  0
    2.7498    4.2397    2.4184 O   0  0  0  0  0  0  0  0  0  0  0  0
    3.0056    3.5744    1.2506 C   0  0  0  0  0  0  0  0  0  0  0  0
    2.0513    3.0462    0.3819 C   0  0  0  0  0  0  0  0  0  0  0  0
    2.4625    2.4140   -0.7871 C   0  0  0  0  0  0  0  0  0  0  0  0
    1.6203    1.9325   -1.7557 O   0  0  0  0  0  0  0  0  0  0  0  0
    0.3855    2.6338   -1.8828 C   0  0  0  0  0  0  0  0  0  0  0  0
    3.8265    2.2468   -1.0464 C   0  0  0  0  0  0  0  0  0  0  0  0
    4.8162    2.8047   -0.2101 C   0  0  0  0  0  0  0  0  0  0  0  0
    6.2436    2.8145   -0.6200 C   0  0  0  0  0  0  0  0  0  0  0  0
    6.5374    2.9810   -1.9889 C   0  0  0  0  0  0  0  0  0  0  0  0
    7.8546    3.0773   -2.4521 C   0  0  0  0  0  0  0  0  0  0  0  0
    8.1768    3.2126   -3.8034 C   0  0  0  0  0  0  0  0  0  0  0  0
    9.4385    3.2920   -4.2741 N   0  0  0  0  0  0  0  0  0  0  0  0
   10.4347    3.2044   -3.3767 C   0  0  0  0  0  0  0  0  0  0  0  0
   11.7634    3.1167   -3.8163 N   0  0  0  0  0  0  0  0  0  0  0  0
   12.0460    3.7248   -5.1178 C   0  0  0  0  0  0  0  0  0  0  0  0
   13.5531    3.5958   -5.3635 C   0  0  0  0  0  0  0  0  0  0  0  0
   14.0202    4.2818   -6.6519 C   0  0  0  0  0  0  0  0  0  0  0  0
   15.4546    4.0566   -6.9113 N   0  0  0  0  0  0  0  0  0  0  0  0
   16.3670    4.6520   -5.9097 C   0  0  0  0  0  0  0  0  0  0  0  0
   16.5292    6.1778   -6.0181 C   0  0  0  0  0  0  0  0  0  0  0  0
   16.9183    6.5781   -7.3372 O   0  0  0  0  0  0  0  0  0  0  0  0
   15.9897    6.0912   -8.3134 C   0  0  0  0  0  0  0  0  0  0  0  0
   15.8587    4.5604   -8.2436 C   0  0  0  0  0  0  0  0  0  0  0  0
   10.1810    3.0732   -2.0103 C   0  0  0  0  0  0  0  0  0  0  0  0
    8.8845    3.0374   -1.5209 C   0  0  0  0  0  0  0  0  0  0  0  0
    8.6447    2.9546   -0.1933 N   0  0  0  0  0  0  0  0  0  0  0  0
    7.3629    2.7921    0.2341 C   0  0  0  0  0  0  0  0  0  0  0  0
    7.2394    2.6782    1.6410 N   0  0  0  0  0  0  0  0  0  0  0  0
    7.1329    1.4045    2.1781 C   0  0  0  0  0  0  0  0  0  0  0  0
    7.1466    0.3714    1.5280 O   0  0  0  0  0  0  0  0  0  0  0  0
    7.0810    1.4538    3.5653 N   0  0  0  0  0  0  0  0  0  0  0  0
    7.1269    0.2523    4.4280 C   0  0  0  0  0  0  0  0  0  0  0  0
    8.5044   -0.4238    4.3137 C   0  0  0  0  0  0  0  0  0  0  0  0
    6.9330    0.6666    5.9027 C   0  0  0  0  0  0  0  0  0  0  0  0
    6.0157   -0.7509    4.0787 C   0  0  0  0  0  0  0  0  0  0  0  0
    4.3669    3.4647    0.9421 C   0  0  0  0  0  0  0  0  0  0  0  0
    1.3588    5.1323    3.6135 H   0  0  0  0  0  0  0  0  0  0  0  0
    0.8100    3.6296    2.8580 H   0  0  0  0  0  0  0  0  0  0  0  0
    0.9533    5.1509    1.8920 H   0  0  0  0  0  0  0  0  0  0  0  0
    0.9960    3.1211    0.6060 H   0  0  0  0  0  0  0  0  0  0  0  0
   -0.0037    2.4515   -2.8892 H   0  0  0  0  0  0  0  0  0  0  0  0
    0.5072    3.7183   -1.7717 H   0  0  0  0  0  0  0  0  0  0  0  0
   -0.3416    2.2494   -1.1613 H   0  0  0  0  0  0  0  0  0  0  0  0
    4.1055    1.7107   -1.9515 H   0  0  0  0  0  0  0  0  0  0  0  0
    5.7316    3.0603   -2.7161 H   0  0  0  0  0  0  0  0  0  0  0  0
    7.4064    3.2465   -4.5662 H   0  0  0  0  0  0  0  0  0  0  0  0
   12.3974    3.4342   -3.0976 H   0  0  0  0  0  0  0  0  0  0  0  0
   11.7681    4.7867   -5.0997 H   0  0  0  0  0  0  0  0  0  0  0  0
   11.4899    3.2334   -5.9254 H   0  0  0  0  0  0  0  0  0  0  0  0
   13.8222    2.5322   -5.3904 H   0  0  0  0  0  0  0  0  0  0  0  0
   14.0684    4.0324   -4.5010 H   0  0  0  0  0  0  0  0  0  0  0  0
   13.7754    5.3493   -6.6174 H   0  0  0  0  0  0  0  0  0  0  0  0
   13.4462    3.8492   -7.4821 H   0  0  0  0  0  0  0  0  0  0  0  0
   17.3528    4.1949   -6.0676 H   0  0  0  0  0  0  0  0  0  0  0  0
   16.0886    4.3790   -4.8879 H   0  0  0  0  0  0  0  0  0  0  0  0
   17.3193    6.5070   -5.3348 H   0  0  0  0  0  0  0  0  0  0  0  0
   15.6101    6.7038   -5.7370 H   0  0  0  0  0  0  0  0  0  0  0  0
   16.3687    6.3830   -9.2981 H   0  0  0  0  0  0  0  0  0  0  0  0
   15.0239    6.5892   -8.1726 H   0  0  0  0  0  0  0  0  0  0  0  0
   16.8390    4.1215   -8.4730 H   0  0  0  0  0  0  0  0  0  0  0  0
   15.1749    4.1994   -9.0201 H   0  0  0  0  0  0  0  0  0  0  0  0
   11.0032    2.9942   -1.3076 H   0  0  0  0  0  0  0  0  0  0  0  0
    8.0271    3.1275    2.0884 H   0  0  0  0  0  0  0  0  0  0  0  0
    6.5750    2.2526    3.9210 H   0  0  0  0  0  0  0  0  0  0  0  0
    9.3042    0.2663    4.6089 H   0  0  0  0  0  0  0  0  0  0  0  0
    8.7172   -0.7484    3.2906 H   0  0  0  0  0  0  0  0  0  0  0  0
    8.5698   -1.3056    4.9613 H   0  0  0  0  0  0  0  0  0  0  0  0
    7.7184    1.3528    6.2382 H   0  0  0  0  0  0  0  0  0  0  0  0
    6.9558   -0.2097    6.5640 H   0  0  0  0  0  0  0  0  0  0  0  0
    5.9697    1.1668    6.0542 H   0  0  0  0  0  0  0  0  0  0  0  0
    6.1412   -1.1769    3.0795 H   0  0  0  0  0  0  0  0  0  0  0  0
    5.0300   -0.2742    4.1156 H   0  0  0  0  0  0  0  0  0  0  0  0
    6.0100   -1.5923    4.7815 H   0  0  0  0  0  0  0  0  0  0  0  0
    5.0729    3.9476    1.6129 H   0  0  0  0  0  0  0  0  0  0  0  0
  1  2  1  0  0  0  0
  1 39  1  0  0  0  0
  1 40  1  0  0  0  0
  1 41  1  0  0  0  0
  2  3  1  0  0  0  0
  3  4  1  0  0  0  0
  3 38  2  0  0  0  0
  4  5  2  0  0  0  0
  4 42  1  0  0  0  0
  5  6  1  0  0  0  0
  5  8  1  0  0  0  0
  6  7  1  0  0  0  0
  7 43  1  0  0  0  0
  7 44  1  0  0  0  0
  7 45  1  0  0  0  0
  8  9  2  0  0  0  0
  8 46  1  0  0  0  0
  9 10  1  0  0  0  0
  9 38  1  0  0  0  0
 10 11  1  0  0  0  0
 10 29  2  0  0  0  0
 11 12  2  0  0  0  0
 11 47  1  0  0  0  0
 12 13  1  0  0  0  0
 12 27  1  0  0  0  0
 13 14  2  0  0  0  0
 13 48  1  0  0  0  0
 14 15  1  0  0  0  0
 15 16  1  0  0  0  0
 15 26  2  0  0  0  0
 16 17  1  0  0  0  0
 16 49  1  0  0  0  0
 17 18  1  0  0  0  0
 17 50  1  0  0  0  0
 17 51  1  0  0  0  0
 18 19  1  0  0  0  0
 18 52  1  0  0  0  0
 18 53  1  0  0  0  0
 19 20  1  0  0  0  0
 19 54  1  0  0  0  0
 19 55  1  0  0  0  0
 20 21  1  0  0  0  0
 20 25  1  0  0  0  0
 21 22  1  0  0  0  0
 21 56  1  0  0  0  0
 21 57  1  0  0  0  0
 22 23  1  0  0  0  0
 22 58  1  0  0  0  0
 22 59  1  0  0  0  0
 23 24  1  0  0  0  0
 24 25  1  0  0  0  0
 24 60  1  0  0  0  0
 24 61  1  0  0  0  0
 25 62  1  0  0  0  0
 25 63  1  0  0  0  0
 26 27  1  0  0  0  0
 26 64  1  0  0  0  0
 27 28  2  0  0  0  0
 28 29  1  0  0  0  0
 29 30  1  0  0  0  0
 30 31  1  0  0  0  0
 30 65  1  0  0  0  0
 31 32  2  0  0  0  0
 31 33  1  0  0  0  0
 33 34  1  0  0  0  0
 33 66  1  0  0  0  0
 34 35  1  0  0  0  0
 34 36  1  0  0  0  0
 34 37  1  0  0  0  0
 35 67  1  0  0  0  0
 35 68  1  0  0  0  0
 35 69  1  0  0  0  0
 36 70  1  0  0  0  0
 36 71  1  0  0  0  0
 36 72  1  0  0  0  0
 37 73  1  0  0  0  0
 37 74  1  0  0  0  0
 37 75  1  0  0  0  0
 38 76  1  0  0  0  0
M  END
$$$$
