CHEMBL3660297
 OpenBabel04072215373D

 61 64  0  0  0  0  0  0  0  0999 V2000
    7.3120    1.8226    2.7004 C   0  0  0  0  0  0  0  0  0  0  0  0
    7.3029    1.0424    4.2264 S   0  0  3  0  0  0  0  0  0  0  0  0
    8.4902    1.7455    5.2788 C   0  0  0  0  0  0  0  0  0  0  0  0
    6.0768    1.5350    4.8004 O   0  0  0  0  0  0  0  0  0  0  0  0
    7.2526   -0.5875    4.2288 N   0  0  0  0  0  0  0  0  0  0  0  0
    8.2066   -1.3288    3.6080 C   0  0  0  0  0  0  0  0  0  0  0  0
    9.1713   -0.8540    3.0312 O   0  0  0  0  0  0  0  0  0  0  0  0
    7.9695   -2.7689    3.6483 C   0  0  0  0  0  0  0  0  0  0  0  0
    6.9520   -3.5225    4.2149 C   0  0  0  0  0  0  0  0  0  0  0  0
    7.1351   -4.8795    3.8237 C   0  0  0  0  0  0  0  0  0  0  0  0
    6.2693   -6.0343    4.0257 C   0  0  0  0  0  0  0  0  0  0  0  0
    6.3074   -7.0945    3.1293 C   0  0  0  0  0  0  0  0  0  0  0  0
    5.4096   -8.1493    3.2763 C   0  0  0  0  0  0  0  0  0  0  0  0
    5.3443   -9.2235    2.4069 O   0  0  0  0  0  0  0  0  0  0  0  0
    5.5740   -8.9983    1.0640 C   0  0  0  0  0  0  0  0  0  0  0  0
    6.1260  -10.0269    0.3182 C   0  0  0  0  0  0  0  0  0  0  0  0
    6.4751   -9.7927   -1.0257 C   0  0  0  0  0  0  0  0  0  0  0  0
    6.2771   -8.5447   -1.6373 C   0  0  0  0  0  0  0  0  0  0  0  0
    6.7168   -8.2402   -2.9519 N   0  0  0  0  0  0  0  0  0  0  0  0
    7.3715   -9.1190   -3.7927 C   0  0  0  0  0  0  0  0  0  0  0  0
    7.6478  -10.2865   -3.5130 O   0  0  0  0  0  0  0  0  0  0  0  0
    7.7161   -8.5706   -5.0275 N   0  0  0  0  0  0  0  0  0  0  0  0
    8.4075   -9.4169   -5.9451 C   0  0  0  0  0  0  0  0  0  0  0  0
    7.8343  -10.6234   -6.3703 C   0  0  0  0  0  0  0  0  0  0  0  0
    8.5295  -11.4960   -7.2229 C   0  0  0  0  0  0  0  0  0  0  0  0
    7.8946  -12.7776   -7.6778 C   0  0  0  0  0  0  0  0  0  0  0  0
    9.8261  -11.1546   -7.6369 C   0  0  0  0  0  0  0  0  0  0  0  0
   10.4012   -9.9532   -7.2207 C   0  0  0  0  0  0  0  0  0  0  0  0
    9.6861   -9.0847   -6.3949 C   0  0  0  0  0  0  0  0  0  0  0  0
   10.2696   -7.9512   -5.9754 F   0  0  0  0  0  0  0  0  0  0  0  0
    5.6260   -7.5529   -0.8959 C   0  0  0  0  0  0  0  0  0  0  0  0
    5.2529   -7.7980    0.4339 C   0  0  0  0  0  0  0  0  0  0  0  0
    4.5405   -8.1427    4.3537 C   0  0  0  0  0  0  0  0  0  0  0  0
    4.5724   -7.0502    5.2092 C   0  0  0  0  0  0  0  0  0  0  0  0
    5.4014   -5.9883    5.0606 N   0  0  0  0  0  0  0  0  0  0  0  0
    8.3116   -4.9166    3.0940 C   0  0  0  0  0  0  0  0  0  0  0  0
    8.8033   -3.6489    3.0048 N   0  0  0  0  0  0  0  0  0  0  0  0
    7.2741    2.9184    2.6349 H   0  0  0  0  0  0  0  0  0  0  0  0
    7.3451    1.2477    1.7648 H   0  0  0  0  0  0  0  0  0  0  0  0
    8.3737    2.8303    5.2831 H   0  0  0  0  0  0  0  0  0  0  0  0
    9.4813    1.4778    4.9117 H   0  0  0  0  0  0  0  0  0  0  0  0
    8.3497    1.3513    6.2885 H   0  0  0  0  0  0  0  0  0  0  0  0
    6.5312   -1.0020    4.7955 H   0  0  0  0  0  0  0  0  0  0  0  0
    6.1125   -3.1524    4.7859 H   0  0  0  0  0  0  0  0  0  0  0  0
    6.9884   -7.0639    2.2867 H   0  0  0  0  0  0  0  0  0  0  0  0
    6.3232  -11.0046    0.7413 H   0  0  0  0  0  0  0  0  0  0  0  0
    6.9157  -10.6259   -1.5518 H   0  0  0  0  0  0  0  0  0  0  0  0
    6.5434   -7.3030   -3.2925 H   0  0  0  0  0  0  0  0  0  0  0  0
    8.0590   -7.6228   -4.9795 H   0  0  0  0  0  0  0  0  0  0  0  0
    6.8381  -10.8904   -6.0274 H   0  0  0  0  0  0  0  0  0  0  0  0
    6.8891  -12.8931   -7.2603 H   0  0  0  0  0  0  0  0  0  0  0  0
    8.4908  -13.6367   -7.3554 H   0  0  0  0  0  0  0  0  0  0  0  0
    7.8042  -12.7878   -8.7690 H   0  0  0  0  0  0  0  0  0  0  0  0
   10.3890  -11.8301   -8.2791 H   0  0  0  0  0  0  0  0  0  0  0  0
   11.4126   -9.6969   -7.5241 H   0  0  0  0  0  0  0  0  0  0  0  0
    5.4044   -6.5775   -1.3163 H   0  0  0  0  0  0  0  0  0  0  0  0
    4.7542   -7.0054    0.9842 H   0  0  0  0  0  0  0  0  0  0  0  0
    3.8417   -8.9553    4.5140 H   0  0  0  0  0  0  0  0  0  0  0  0
    3.9007   -6.9950    6.0626 H   0  0  0  0  0  0  0  0  0  0  0  0
    8.8230   -5.7349    2.6071 H   0  0  0  0  0  0  0  0  0  0  0  0
    9.6271   -3.3711    2.4789 H   0  0  0  0  0  0  0  0  0  0  0  0
  1  2  2  0  0  0  0
  1 38  1  0  0  0  0
  1 39  1  0  0  0  0
  2  3  1  0  0  0  0
  2  4  2  0  0  0  0
  2  5  1  0  0  0  0
  3 40  1  0  0  0  0
  3 41  1  0  0  0  0
  3 42  1  0  0  0  0
  5  6  1  0  0  0  0
  5 43  1  0  0  0  0
  6  7  2  0  0  0  0
  6  8  1  0  0  0  0
  8  9  2  0  0  0  0
  8 37  1  0  0  0  0
  9 10  1  0  0  0  0
  9 44  1  0  0  0  0
 10 11  1  0  0  0  0
 10 36  2  0  0  0  0
 11 12  1  0  0  0  0
 11 35  2  0  0  0  0
 12 13  2  0  0  0  0
 12 45  1  0  0  0  0
 13 14  1  0  0  0  0
 13 33  1  0  0  0  0
 14 15  1  0  0  0  0
 15 16  1  0  0  0  0
 15 32  2  0  0  0  0
 16 17  2  0  0  0  0
 16 46  1  0  0  0  0
 17 18  1  0  0  0  0
 17 47  1  0  0  0  0
 18 19  1  0  0  0  0
 18 31  2  0  0  0  0
 19 20  1  0  0  0  0
 19 48  1  0  0  0  0
 20 21  2  0  0  0  0
 20 22  1  0  0  0  0
 22 23  1  0  0  0  0
 22 49  1  0  0  0  0
 23 24  1  0  0  0  0
 23 29  2  0  0  0  0
 24 25  2  0  0  0  0
 24 50  1  0  0  0  0
 25 26  1  0  0  0  0
 25 27  1  0  0  0  0
 26 51  1  0  0  0  0
 26 52  1  0  0  0  0
 26 53  1  0  0  0  0
 27 28  2  0  0  0  0
 27 54  1  0  0  0  0
 28 29  1  0  0  0  0
 28 55  1  0  0  0  0
 29 30  1  0  0  0  0
 31 32  1  0  0  0  0
 31 56  1  0  0  0  0
 32 57  1  0  0  0  0
 33 34  2  0  0  0  0
 33 58  1  0  0  0  0
 34 35  1  0  0  0  0
 34 59  1  0  0  0  0
 36 37  1  0  0  0  0
 36 60  1  0  0  0  0
 37 61  1  0  0  0  0
M  END
$$$$
