CHEMBL4104515
 OpenBabel04072215383D

 58 61  0  0  0  0  0  0  0  0999 V2000
    4.2844   -0.0294   -2.0672 C   0  0  0  0  0  0  0  0  0  0  0  0
    3.8926   -0.1891   -0.7525 O   0  0  0  0  0  0  0  0  0  0  0  0
    4.2005    0.6543    0.2673 C   0  0  0  0  0  0  0  0  0  0  0  0
    3.7662    0.3347    1.5607 C   0  0  0  0  0  0  0  0  0  0  0  0
    4.0730    1.1584    2.6435 C   0  0  0  0  0  0  0  0  0  0  0  0
    4.8414    2.3170    2.4522 C   0  0  0  0  0  0  0  0  0  0  0  0
    5.2481    2.6725    1.1469 C   0  0  0  0  0  0  0  0  0  0  0  0
    4.9300    1.8398    0.0659 C   0  0  0  0  0  0  0  0  0  0  0  0
    6.0043    3.9578    0.8798 C   0  0  0  0  0  0  0  0  0  0  0  0
    6.4289    4.6937    2.1622 C   0  0  0  0  0  0  0  0  0  0  0  0
    5.3406    4.5889    3.2244 C   0  0  0  0  0  0  0  0  0  0  0  0
    5.1702    3.1743    3.5417 N   0  0  0  0  0  0  0  0  0  0  0  0
    5.3077    2.7247    4.9001 C   0  0  0  0  0  0  0  0  0  0  0  0
    4.8552    3.5530    5.8932 N   0  0  0  0  0  0  0  0  0  0  0  0
    4.9423    3.2455    7.2226 C   0  0  0  0  0  0  0  0  0  0  0  0
    4.4387    4.2035    8.2528 C   0  0  0  0  0  0  0  0  0  0  0  0
    5.5124    2.0753    7.6161 N   0  0  0  0  0  0  0  0  0  0  0  0
    6.0061    1.2490    6.6714 C   0  0  0  0  0  0  0  0  0  0  0  0
    6.6931    0.0721    6.8628 C   0  0  0  0  0  0  0  0  0  0  0  0
    7.0210   -0.6169    8.1551 C   0  0  0  0  0  0  0  0  0  0  0  0
    5.8622   -1.4711    8.5916 C   0  0  0  0  0  0  0  0  0  0  0  0
    5.4237   -2.5262    7.7694 C   0  0  0  0  0  0  0  0  0  0  0  0
    4.3479   -3.3245    8.1590 C   0  0  0  0  0  0  0  0  0  0  0  0
    3.7051   -3.0840    9.3757 C   0  0  0  0  0  0  0  0  0  0  0  0
    4.1411   -2.0438   10.2025 C   0  0  0  0  0  0  0  0  0  0  0  0
    5.2173   -1.2396    9.8164 C   0  0  0  0  0  0  0  0  0  0  0  0
    7.0650   -0.3482    5.6116 C   0  0  0  0  0  0  0  0  0  0  0  0
    6.6186    0.5089    4.6618 N   0  0  0  0  0  0  0  0  0  0  0  0
    6.9469    0.2833    3.2523 C   0  0  0  0  0  0  0  0  0  0  0  0
    5.9447    1.5102    5.3200 C   0  0  0  0  0  0  0  0  0  0  0  0
    1.5825   -2.6153    0.9728 Cl  0  0  0  0  0  0  0  0  0  0  0  0
    3.8739   -0.8602   -2.6758 H   0  0  0  0  0  0  0  0  0  0  0  0
    5.3936   -0.0479   -2.1440 H   0  0  0  0  0  0  0  0  0  0  0  0
    3.8937    0.9292   -2.4699 H   0  0  0  0  0  0  0  0  0  0  0  0
    3.2003   -0.5641    1.7356 H   0  0  0  0  0  0  0  0  0  0  0  0
    3.7237    0.8816    3.6312 H   0  0  0  0  0  0  0  0  0  0  0  0
    5.2659    2.1223   -0.9223 H   0  0  0  0  0  0  0  0  0  0  0  0
    5.3151    4.6008    0.2919 H   0  0  0  0  0  0  0  0  0  0  0  0
    6.9158    3.7747    0.2716 H   0  0  0  0  0  0  0  0  0  0  0  0
    6.6738    5.7498    1.9165 H   0  0  0  0  0  0  0  0  0  0  0  0
    7.3383    4.2121    2.5834 H   0  0  0  0  0  0  0  0  0  0  0  0
    4.3873    5.0096    2.8313 H   0  0  0  0  0  0  0  0  0  0  0  0
    5.6372    5.1785    4.1181 H   0  0  0  0  0  0  0  0  0  0  0  0
    4.0122    5.1100    7.7739 H   0  0  0  0  0  0  0  0  0  0  0  0
    5.2754    4.5124    8.9157 H   0  0  0  0  0  0  0  0  0  0  0  0
    3.6540    3.7137    8.8648 H   0  0  0  0  0  0  0  0  0  0  0  0
    7.3119    0.1419    8.9139 H   0  0  0  0  0  0  0  0  0  0  0  0
    7.8958   -1.2860    8.0051 H   0  0  0  0  0  0  0  0  0  0  0  0
    5.9148   -2.7292    6.8252 H   0  0  0  0  0  0  0  0  0  0  0  0
    4.0150   -4.1330    7.5203 H   0  0  0  0  0  0  0  0  0  0  0  0
    2.8704   -3.7036    9.6763 H   0  0  0  0  0  0  0  0  0  0  0  0
    3.6438   -1.8625   11.1469 H   0  0  0  0  0  0  0  0  0  0  0  0
    5.5444   -0.4384   10.4660 H   0  0  0  0  0  0  0  0  0  0  0  0
    7.6364   -1.2454    5.4060 H   0  0  0  0  0  0  0  0  0  0  0  0
    7.6761   -0.5487    3.1541 H   0  0  0  0  0  0  0  0  0  0  0  0
    7.3949    1.1886    2.7995 H   0  0  0  0  0  0  0  0  0  0  0  0
    6.0890   -0.1037    2.6950 H   0  0  0  0  0  0  0  0  0  0  0  0
    0.9582   -1.4717    1.4213 H   0  0  0  0  0  0  0  0  0  0  0  0
  1  2  1  0  0  0  0
  1 32  1  0  0  0  0
  1 33  1  0  0  0  0
  1 34  1  0  0  0  0
  2  3  1  0  0  0  0
  3  4  1  0  0  0  0
  3  8  2  0  0  0  0
  4  5  2  0  0  0  0
  4 35  1  0  0  0  0
  5  6  1  0  0  0  0
  5 36  1  0  0  0  0
  6  7  2  0  0  0  0
  6 12  1  0  0  0  0
  7  8  1  0  0  0  0
  7  9  1  0  0  0  0
  8 37  1  0  0  0  0
  9 10  1  0  0  0  0
  9 38  1  0  0  0  0
  9 39  1  0  0  0  0
 10 11  1  0  0  0  0
 10 40  1  0  0  0  0
 10 41  1  0  0  0  0
 11 12  1  0  0  0  0
 11 42  1  0  0  0  0
 11 43  1  0  0  0  0
 12 13  1  0  0  0  0
 13 14  1  0  0  0  0
 13 30  2  0  0  0  0
 14 15  2  0  0  0  0
 15 16  1  0  0  0  0
 15 17  1  0  0  0  0
 16 44  1  0  0  0  0
 16 45  1  0  0  0  0
 16 46  1  0  0  0  0
 17 18  2  0  0  0  0
 18 19  1  0  0  0  0
 18 30  1  0  0  0  0
 19 20  1  0  0  0  0
 19 27  2  0  0  0  0
 20 21  1  0  0  0  0
 20 47  1  0  0  0  0
 20 48  1  0  0  0  0
 21 22  1  0  0  0  0
 21 26  2  0  0  0  0
 22 23  2  0  0  0  0
 22 49  1  0  0  0  0
 23 24  1  0  0  0  0
 23 50  1  0  0  0  0
 24 25  2  0  0  0  0
 24 51  1  0  0  0  0
 25 26  1  0  0  0  0
 25 52  1  0  0  0  0
 26 53  1  0  0  0  0
 27 28  1  0  0  0  0
 27 54  1  0  0  0  0
 28 29  1  0  0  0  0
 28 30  1  0  0  0  0
 29 55  1  0  0  0  0
 29 56  1  0  0  0  0
 29 57  1  0  0  0  0
 31 58  1  0  0  0  0
M  END
$$$$
