CHEMBL2023225
 OpenBabel04072215363D

 55 59  0  0  0  0  0  0  0  0999 V2000
   -1.6416   -2.7910   -1.5621 C   0  0  0  0  0  0  0  0  0  0  0  0
   -0.8599   -1.5094   -1.4863 C   0  0  0  0  0  0  0  0  0  0  0  0
   -1.5145   -0.3362   -1.9306 C   0  0  0  0  0  0  0  0  0  0  0  0
   -0.8790    0.9037   -1.9203 C   0  0  0  0  0  0  0  0  0  0  0  0
    0.4165    1.0003   -1.4408 C   0  0  0  0  0  0  0  0  0  0  0  0
    1.0683   -0.1460   -0.9826 C   0  0  0  0  0  0  0  0  0  0  0  0
    0.4597   -1.4134   -1.0154 C   0  0  0  0  0  0  0  0  0  0  0  0
    1.1862   -2.5705   -0.5804 N   0  0  0  0  0  0  0  0  0  0  0  0
    2.5646   -2.6177   -0.4104 C   0  0  0  0  0  0  0  0  0  0  0  0
    3.3291   -1.6871   -0.6293 O   0  0  0  0  0  0  0  0  0  0  0  0
    3.0358   -3.8639   -0.0068 N   0  0  0  0  0  0  0  0  0  0  0  0
    4.4346   -4.0185    0.1949 C   0  0  0  0  0  0  0  0  0  0  0  0
    5.1516   -3.1057    0.9719 C   0  0  0  0  0  0  0  0  0  0  0  0
    6.5496   -3.1462    1.0016 C   0  0  0  0  0  0  0  0  0  0  0  0
    7.2625   -4.1236    0.2884 C   0  0  0  0  0  0  0  0  0  0  0  0
    8.7366   -4.0906    0.2542 C   0  0  0  0  0  0  0  0  0  0  0  0
    9.4090   -3.6979    1.3939 C   0  0  0  0  0  0  0  0  0  0  0  0
   11.0801   -3.6267    1.2015 S   0  0  0  0  0  0  0  0  0  0  0  0
   11.0176   -4.2227   -0.4197 C   0  0  0  0  0  0  0  0  0  0  0  0
   12.1107   -4.4941   -1.2758 C   0  0  0  0  0  0  0  0  0  0  0  0
   13.4964   -4.3655   -0.8578 C   0  0  0  0  0  0  0  0  0  0  0  0
   14.1314   -4.5672    0.3921 C   0  0  0  0  0  0  0  0  0  0  0  0
   15.4515   -4.3696    0.3458 N   0  0  0  0  0  0  0  0  0  0  0  0
   15.6748   -4.0484   -0.9371 N   0  0  0  0  0  0  0  0  0  0  0  0
   17.0190   -3.7952   -1.3949 C   0  0  0  0  0  0  0  0  0  0  0  0
   14.5414   -4.0343   -1.6994 C   0  0  0  0  0  0  0  0  0  0  0  0
   11.7724   -4.9022   -2.5533 C   0  0  0  0  0  0  0  0  0  0  0  0
   10.5171   -5.0405   -3.0096 N   0  0  0  0  0  0  0  0  0  0  0  0
    9.4725   -4.7877   -2.1973 C   0  0  0  0  0  0  0  0  0  0  0  0
    8.2410   -4.9324   -2.8219 N   0  0  0  0  0  0  0  0  0  0  0  0
    9.6773   -4.3873   -0.8431 C   0  0  0  0  0  0  0  0  0  0  0  0
    6.5220   -5.1059   -0.3822 C   0  0  0  0  0  0  0  0  0  0  0  0
    5.1198   -5.0438   -0.4513 C   0  0  0  0  0  0  0  0  0  0  0  0
   -2.5568   -2.6617   -2.1599 H   0  0  0  0  0  0  0  0  0  0  0  0
   -1.9465   -3.1126   -0.5618 H   0  0  0  0  0  0  0  0  0  0  0  0
   -1.0610   -3.5796   -2.0499 H   0  0  0  0  0  0  0  0  0  0  0  0
   -2.5351   -0.3845   -2.3067 H   0  0  0  0  0  0  0  0  0  0  0  0
   -1.3919    1.7885   -2.2815 H   0  0  0  0  0  0  0  0  0  0  0  0
    0.9328    1.9545   -1.4179 H   0  0  0  0  0  0  0  0  0  0  0  0
    2.0641    0.0139   -0.5855 H   0  0  0  0  0  0  0  0  0  0  0  0
    0.6678   -3.4249   -0.4526 H   0  0  0  0  0  0  0  0  0  0  0  0
    2.5599   -4.6439   -0.4341 H   0  0  0  0  0  0  0  0  0  0  0  0
    4.6378   -2.3227    1.5221 H   0  0  0  0  0  0  0  0  0  0  0  0
    7.0629   -2.3710    1.5666 H   0  0  0  0  0  0  0  0  0  0  0  0
    8.9942   -3.4185    2.3543 H   0  0  0  0  0  0  0  0  0  0  0  0
   13.6964   -4.8614    1.3391 H   0  0  0  0  0  0  0  0  0  0  0  0
   17.7128   -3.8673   -0.5534 H   0  0  0  0  0  0  0  0  0  0  0  0
   17.0536   -2.7912   -1.8239 H   0  0  0  0  0  0  0  0  0  0  0  0
   17.2682   -4.5453   -2.1494 H   0  0  0  0  0  0  0  0  0  0  0  0
   14.5832   -3.7935   -2.7529 H   0  0  0  0  0  0  0  0  0  0  0  0
   12.5347   -5.1460   -3.2891 H   0  0  0  0  0  0  0  0  0  0  0  0
    8.3878   -5.0122   -3.8225 H   0  0  0  0  0  0  0  0  0  0  0  0
    7.5635   -4.2331   -2.5445 H   0  0  0  0  0  0  0  0  0  0  0  0
    7.0263   -5.9141   -0.9074 H   0  0  0  0  0  0  0  0  0  0  0  0
    4.5972   -5.7540   -1.0862 H   0  0  0  0  0  0  0  0  0  0  0  0
  1  2  1  0  0  0  0
  1 34  1  0  0  0  0
  1 35  1  0  0  0  0
  1 36  1  0  0  0  0
  2  3  1  0  0  0  0
  2  7  2  0  0  0  0
  3  4  2  0  0  0  0
  3 37  1  0  0  0  0
  4  5  1  0  0  0  0
  4 38  1  0  0  0  0
  5  6  2  0  0  0  0
  5 39  1  0  0  0  0
  6  7  1  0  0  0  0
  6 40  1  0  0  0  0
  7  8  1  0  0  0  0
  8  9  1  0  0  0  0
  8 41  1  0  0  0  0
  9 10  2  0  0  0  0
  9 11  1  0  0  0  0
 11 12  1  0  0  0  0
 11 42  1  0  0  0  0
 12 13  1  0  0  0  0
 12 33  2  0  0  0  0
 13 14  2  0  0  0  0
 13 43  1  0  0  0  0
 14 15  1  0  0  0  0
 14 44  1  0  0  0  0
 15 16  1  0  0  0  0
 15 32  2  0  0  0  0
 16 17  2  0  0  0  0
 16 31  1  0  0  0  0
 17 18  1  0  0  0  0
 17 45  1  0  0  0  0
 18 19  1  0  0  0  0
 19 20  1  0  0  0  0
 19 31  2  0  0  0  0
 20 21  1  0  0  0  0
 20 27  2  0  0  0  0
 21 22  1  0  0  0  0
 21 26  2  0  0  0  0
 22 23  2  0  0  0  0
 22 46  1  0  0  0  0
 23 24  1  0  0  0  0
 24 25  1  0  0  0  0
 24 26  1  0  0  0  0
 25 47  1  0  0  0  0
 25 48  1  0  0  0  0
 25 49  1  0  0  0  0
 26 50  1  0  0  0  0
 27 28  1  0  0  0  0
 27 51  1  0  0  0  0
 28 29  2  0  0  0  0
 29 30  1  0  0  0  0
 29 31  1  0  0  0  0
 30 52  1  0  0  0  0
 30 53  1  0  0  0  0
 32 33  1  0  0  0  0
 32 54  1  0  0  0  0
 33 55  1  0  0  0  0
M  END
$$$$
