CHEMBL1681945
 OpenBabel04072215363D

 45 47  0  0  0  0  0  0  0  0999 V2000
    9.4046   -6.8683    3.6959 C   0  0  0  0  0  0  0  0  0  0  0  0
    8.8195   -5.5713    3.7731 O   0  0  0  0  0  0  0  0  0  0  0  0
    7.7720   -5.5181    2.8468 N   0  0  0  0  0  0  0  0  0  0  0  0
    7.1812   -4.3644    2.9058 C   0  0  0  0  0  0  0  0  0  0  0  0
    6.0294   -4.0686    2.0407 C   0  0  0  0  0  0  0  0  0  0  0  0
    5.2106   -5.0775    1.5405 C   0  0  0  0  0  0  0  0  0  0  0  0
    5.3388   -6.4133    1.9180 N   0  0  0  0  0  0  0  0  0  0  0  0
    4.1523   -4.8295    0.7509 N   0  0  0  0  0  0  0  0  0  0  0  0
    3.9274   -3.5509    0.4348 C   0  0  0  0  0  0  0  0  0  0  0  0
    4.6663   -2.5103    0.8269 N   0  0  0  0  0  0  0  0  0  0  0  0
    5.7005   -2.7817    1.6570 C   0  0  0  0  0  0  0  0  0  0  0  0
    6.4799   -1.7006    2.1041 O   0  0  0  0  0  0  0  0  0  0  0  0
    5.8783   -0.4605    2.0867 C   0  0  0  0  0  0  0  0  0  0  0  0
    4.6035   -0.2699    2.6107 C   0  0  0  0  0  0  0  0  0  0  0  0
    3.9726    0.9673    2.4950 C   0  0  0  0  0  0  0  0  0  0  0  0
    4.5956    2.0587    1.8797 C   0  0  0  0  0  0  0  0  0  0  0  0
    3.9048    3.2881    1.6499 N   0  0  0  0  0  0  0  0  0  0  0  0
    2.5293    3.4346    1.7228 C   0  0  0  0  0  0  0  0  0  0  0  0
    1.7586    2.5338    2.0411 O   0  0  0  0  0  0  0  0  0  0  0  0
    2.0760    4.6903    1.3694 N   0  0  0  0  0  0  0  0  0  0  0  0
    0.7030    4.9150    1.3880 C   0  0  0  0  0  0  0  0  0  0  0  0
   -0.2373    4.4150    2.3235 C   0  0  0  0  0  0  0  0  0  0  0  0
   -1.4578    4.7376    1.7934 C   0  0  0  0  0  0  0  0  0  0  0  0
   -2.8455    4.4222    2.1758 C   0  0  0  0  0  0  0  0  0  0  0  0
   -1.2691    5.4763    0.6661 O   0  0  0  0  0  0  0  0  0  0  0  0
    0.0938    5.6368    0.4403 N   0  0  0  0  0  0  0  0  0  0  0  0
    5.9317    1.8878    1.4668 C   0  0  0  0  0  0  0  0  0  0  0  0
    6.8128    3.2080    0.7736 Cl  0  0  0  0  0  0  0  0  0  0  0  0
    6.5677    0.6361    1.5638 C   0  0  0  0  0  0  0  0  0  0  0  0
   10.2739   -6.9035    4.3556 H   0  0  0  0  0  0  0  0  0  0  0  0
    9.7299   -7.0784    2.6712 H   0  0  0  0  0  0  0  0  0  0  0  0
    8.6838   -7.6290    4.0186 H   0  0  0  0  0  0  0  0  0  0  0  0
    7.5290   -3.5760    3.5959 H   0  0  0  0  0  0  0  0  0  0  0  0
    6.3196   -6.7038    1.9540 H   0  0  0  0  0  0  0  0  0  0  0  0
    4.7472   -6.9926    1.3355 H   0  0  0  0  0  0  0  0  0  0  0  0
    3.0607   -3.3391   -0.1821 H   0  0  0  0  0  0  0  0  0  0  0  0
    4.0517   -1.0903    3.0618 H   0  0  0  0  0  0  0  0  0  0  0  0
    2.9658    1.0214    2.8935 H   0  0  0  0  0  0  0  0  0  0  0  0
    4.4548    4.0503    1.2747 H   0  0  0  0  0  0  0  0  0  0  0  0
    2.5520    5.1819    0.6286 H   0  0  0  0  0  0  0  0  0  0  0  0
   -0.0488    3.8315    3.2119 H   0  0  0  0  0  0  0  0  0  0  0  0
   -2.8951    4.0801    3.2151 H   0  0  0  0  0  0  0  0  0  0  0  0
   -3.2454    3.6244    1.5417 H   0  0  0  0  0  0  0  0  0  0  0  0
   -3.4892    5.3007    2.0766 H   0  0  0  0  0  0  0  0  0  0  0  0
    7.5873    0.5092    1.2013 H   0  0  0  0  0  0  0  0  0  0  0  0
  1  2  1  0  0  0  0
  1 30  1  0  0  0  0
  1 31  1  0  0  0  0
  1 32  1  0  0  0  0
  2  3  1  0  0  0  0
  3  4  2  0  0  0  0
  4  5  1  0  0  0  0
  4 33  1  0  0  0  0
  5  6  1  0  0  0  0
  5 11  2  0  0  0  0
  6  7  1  0  0  0  0
  6  8  2  0  0  0  0
  7 34  1  0  0  0  0
  7 35  1  0  0  0  0
  8  9  1  0  0  0  0
  9 10  2  0  0  0  0
  9 36  1  0  0  0  0
 10 11  1  0  0  0  0
 11 12  1  0  0  0  0
 12 13  1  0  0  0  0
 13 14  1  0  0  0  0
 13 29  2  0  0  0  0
 14 15  2  0  0  0  0
 14 37  1  0  0  0  0
 15 16  1  0  0  0  0
 15 38  1  0  0  0  0
 16 17  1  0  0  0  0
 16 27  2  0  0  0  0
 17 18  1  0  0  0  0
 17 39  1  0  0  0  0
 18 19  2  0  0  0  0
 18 20  1  0  0  0  0
 20 21  1  0  0  0  0
 20 40  1  0  0  0  0
 21 22  1  0  0  0  0
 21 26  2  0  0  0  0
 22 23  2  0  0  0  0
 22 41  1  0  0  0  0
 23 24  1  0  0  0  0
 23 25  1  0  0  0  0
 24 42  1  0  0  0  0
 24 43  1  0  0  0  0
 24 44  1  0  0  0  0
 25 26  1  0  0  0  0
 27 28  1  0  0  0  0
 27 29  1  0  0  0  0
 29 45  1  0  0  0  0
M  END
$$$$
