CHEMBL1688346
 OpenBabel04072215363D

 48 52  0  0  0  0  0  0  0  0999 V2000
    0.4356   -8.0756   -2.0360 C   0  0  0  0  0  0  0  0  0  0  0  0
    0.2987   -8.9350   -0.9580 C   0  0  0  0  0  0  0  0  0  0  0  0
    0.6081   -8.5968    0.3102 N   0  0  0  0  0  0  0  0  0  0  0  0
    1.0636   -7.3384    0.5098 C   0  0  0  0  0  0  0  0  0  0  0  0
    1.2245   -6.3905   -0.4966 C   0  0  0  0  0  0  0  0  0  0  0  0
    1.7349   -5.0045   -0.1816 C   0  0  0  0  0  0  0  0  0  0  0  0
    3.2637   -4.9168   -0.2303 C   0  0  0  0  0  0  0  0  0  0  0  0
    3.7355   -3.5853    0.1901 N   0  0  0  0  0  0  0  0  0  0  0  0
    5.1489   -3.4953    0.1403 C   0  0  0  0  0  0  0  0  0  0  0  0
    5.7835   -4.2819   -0.7658 N   0  0  0  0  0  0  0  0  0  0  0  0
    7.1233   -4.2005   -0.8918 C   0  0  0  0  0  0  0  0  0  0  0  0
    7.9032   -3.3391   -0.1549 C   0  0  0  0  0  0  0  0  0  0  0  0
    7.2608   -2.5092    0.7556 C   0  0  0  0  0  0  0  0  0  0  0  0
    5.8638   -2.5728    0.9240 C   0  0  0  0  0  0  0  0  0  0  0  0
    5.2649   -1.7246    1.9433 C   0  0  0  0  0  0  0  0  0  0  0  0
    5.6752   -0.5628    2.4094 N   0  0  0  0  0  0  0  0  0  0  0  0
    4.8337   -0.2441    3.4514 N   0  0  0  0  0  0  0  0  0  0  0  0
    3.9889   -1.2416    3.5828 C   0  0  0  0  0  0  0  0  0  0  0  0
    3.0100   -1.4780    4.4800 N   0  0  0  0  0  0  0  0  0  0  0  0
    2.5381   -0.5892    5.4655 C   0  0  0  0  0  0  0  0  0  0  0  0
    2.6931    0.8133    5.3717 C   0  0  0  0  0  0  0  0  0  0  0  0
    2.2387    1.6763    6.3789 C   0  0  0  0  0  0  0  0  0  0  0  0
    1.6595    1.1083    7.4907 C   0  0  0  0  0  0  0  0  0  0  0  0
    1.5266   -0.2504    7.6121 C   0  0  0  0  0  0  0  0  0  0  0  0
    1.9473   -1.1196    6.6268 C   0  0  0  0  0  0  0  0  0  0  0  0
    0.9539   -0.6098    8.7952 O   0  0  0  0  0  0  0  0  0  0  0  0
    0.7740    0.6825    9.4111 C   0  0  0  0  0  0  0  0  0  0  0  0
    1.1754    1.7824    8.5678 O   0  0  0  0  0  0  0  0  0  0  0  0
    4.1990   -2.2280    2.6550 O   0  0  0  0  0  0  0  0  0  0  0  0
    0.9131   -6.7877   -1.8001 C   0  0  0  0  0  0  0  0  0  0  0  0
    0.1729   -8.4029   -3.0359 H   0  0  0  0  0  0  0  0  0  0  0  0
   -0.0746   -9.9475   -1.0909 H   0  0  0  0  0  0  0  0  0  0  0  0
    1.2974   -7.1076    1.5458 H   0  0  0  0  0  0  0  0  0  0  0  0
    1.3731   -4.7083    0.8114 H   0  0  0  0  0  0  0  0  0  0  0  0
    1.2961   -4.2834   -0.8828 H   0  0  0  0  0  0  0  0  0  0  0  0
    3.5869   -5.1456   -1.2534 H   0  0  0  0  0  0  0  0  0  0  0  0
    3.6935   -5.6705    0.4431 H   0  0  0  0  0  0  0  0  0  0  0  0
    3.4145   -3.3535    1.1264 H   0  0  0  0  0  0  0  0  0  0  0  0
    7.5587   -4.8751   -1.6233 H   0  0  0  0  0  0  0  0  0  0  0  0
    8.9798   -3.3179   -0.2799 H   0  0  0  0  0  0  0  0  0  0  0  0
    7.8573   -1.8231    1.3557 H   0  0  0  0  0  0  0  0  0  0  0  0
    2.5958   -2.3993    4.4979 H   0  0  0  0  0  0  0  0  0  0  0  0
    3.1543    1.2625    4.4941 H   0  0  0  0  0  0  0  0  0  0  0  0
    2.3464    2.7501    6.2869 H   0  0  0  0  0  0  0  0  0  0  0  0
    1.8364   -2.1883    6.7706 H   0  0  0  0  0  0  0  0  0  0  0  0
    1.3664    0.7186   10.3332 H   0  0  0  0  0  0  0  0  0  0  0  0
   -0.2843    0.8037    9.6687 H   0  0  0  0  0  0  0  0  0  0  0  0
    1.0310   -6.1007   -2.6351 H   0  0  0  0  0  0  0  0  0  0  0  0
  1  2  1  0  0  0  0
  1 30  2  0  0  0  0
  1 31  1  0  0  0  0
  2  3  2  0  0  0  0
  2 32  1  0  0  0  0
  3  4  1  0  0  0  0
  4  5  2  0  0  0  0
  4 33  1  0  0  0  0
  5  6  1  0  0  0  0
  5 30  1  0  0  0  0
  6  7  1  0  0  0  0
  6 34  1  0  0  0  0
  6 35  1  0  0  0  0
  7  8  1  0  0  0  0
  7 36  1  0  0  0  0
  7 37  1  0  0  0  0
  8  9  1  0  0  0  0
  8 38  1  0  0  0  0
  9 10  1  0  0  0  0
  9 14  2  0  0  0  0
 10 11  2  0  0  0  0
 11 12  1  0  0  0  0
 11 39  1  0  0  0  0
 12 13  2  0  0  0  0
 12 40  1  0  0  0  0
 13 14  1  0  0  0  0
 13 41  1  0  0  0  0
 14 15  1  0  0  0  0
 15 16  2  0  0  0  0
 15 29  1  0  0  0  0
 16 17  1  0  0  0  0
 17 18  2  0  0  0  0
 18 19  1  0  0  0  0
 18 29  1  0  0  0  0
 19 20  1  0  0  0  0
 19 42  1  0  0  0  0
 20 21  1  0  0  0  0
 20 25  2  0  0  0  0
 21 22  2  0  0  0  0
 21 43  1  0  0  0  0
 22 23  1  0  0  0  0
 22 44  1  0  0  0  0
 23 24  2  0  0  0  0
 23 28  1  0  0  0  0
 24 25  1  0  0  0  0
 24 26  1  0  0  0  0
 25 45  1  0  0  0  0
 26 27  1  0  0  0  0
 27 28  1  0  0  0  0
 27 46  1  0  0  0  0
 27 47  1  0  0  0  0
 30 48  1  0  0  0  0
M  END
$$$$
