CHEMBL425356
 OpenBabel04072215383D

 53 55  0  0  0  0  0  0  0  0999 V2000
    0.9865   -1.1831   -0.5432 C   0  0  0  0  0  0  0  0  0  0  0  0
    2.4793   -0.9018   -0.6712 C   0  0  0  0  0  0  0  0  0  0  0  0
    2.8604    0.2691   -1.4936 N   0  0  0  0  0  0  0  0  0  0  0  0
    2.2634    1.5326   -1.0462 C   0  0  0  0  0  0  0  0  0  0  0  0
    2.6839    2.0169    0.3364 C   0  0  0  0  0  0  0  0  0  0  0  0
    4.3367    0.3424   -1.5237 C   0  0  0  0  0  0  0  0  0  0  0  0
    4.9462    1.4682   -2.3762 C   0  0  0  0  0  0  0  0  0  0  0  0
    6.4468    1.4739   -2.3247 C   0  0  0  0  0  0  0  0  0  0  0  0
    7.2440    2.5044   -1.8613 C   0  0  0  0  0  0  0  0  0  0  0  0
    6.9355    3.8480   -1.3052 C   0  0  0  0  0  0  0  0  0  0  0  0
    8.5476    2.1077   -1.9909 N   0  0  0  0  0  0  0  0  0  0  0  0
    8.6357    0.8401   -2.5052 C   0  0  0  0  0  0  0  0  0  0  0  0
    9.8955    0.2109   -2.7254 C   0  0  0  0  0  0  0  0  0  0  0  0
   11.1307    0.6836   -2.4443 C   0  0  0  0  0  0  0  0  0  0  0  0
   11.5799    1.9706   -1.8560 C   0  0  0  0  0  0  0  0  0  0  0  0
   10.9196    2.8502   -1.3165 O   0  0  0  0  0  0  0  0  0  0  0  0
   12.9423    1.9715   -2.0660 N   0  0  0  0  0  0  0  0  0  0  0  0
   13.4544    0.8106   -2.5842 N   0  0  0  0  0  0  0  0  0  0  0  0
   12.4277    0.0230   -2.7872 C   0  0  0  0  0  0  0  0  0  0  0  0
   12.5632   -1.3632   -3.2467 C   0  0  0  0  0  0  0  0  0  0  0  0
   13.6333   -1.7601   -4.0266 C   0  0  0  0  0  0  0  0  0  0  0  0
   13.7998   -3.0507   -4.4100 N   0  0  0  0  0  0  0  0  0  0  0  0
   12.8666   -3.9273   -3.9512 C   0  0  0  0  0  0  0  0  0  0  0  0
   11.8117   -3.5282   -3.1552 C   0  0  0  0  0  0  0  0  0  0  0  0
   11.6314   -2.2433   -2.7898 N   0  0  0  0  0  0  0  0  0  0  0  0
    7.3304    0.4161   -2.7432 C   0  0  0  0  0  0  0  0  0  0  0  0
    6.8885   -0.8872   -3.3217 C   0  0  0  0  0  0  0  0  0  0  0  0
    0.8355   -2.2037   -0.1762 H   0  0  0  0  0  0  0  0  0  0  0  0
    0.4753   -1.0990   -1.5052 H   0  0  0  0  0  0  0  0  0  0  0  0
    0.5064   -0.5104    0.1772 H   0  0  0  0  0  0  0  0  0  0  0  0
    2.9228   -1.8002   -1.1208 H   0  0  0  0  0  0  0  0  0  0  0  0
    2.9094   -0.8249    0.3347 H   0  0  0  0  0  0  0  0  0  0  0  0
    1.1719    1.4339   -1.0490 H   0  0  0  0  0  0  0  0  0  0  0  0
    2.4561    2.3187   -1.7836 H   0  0  0  0  0  0  0  0  0  0  0  0
    2.7129    1.1979    1.0588 H   0  0  0  0  0  0  0  0  0  0  0  0
    1.9526    2.7433    0.7011 H   0  0  0  0  0  0  0  0  0  0  0  0
    3.6650    2.5040    0.3232 H   0  0  0  0  0  0  0  0  0  0  0  0
    4.6815   -0.6095   -1.9256 H   0  0  0  0  0  0  0  0  0  0  0  0
    4.7349    0.3988   -0.5025 H   0  0  0  0  0  0  0  0  0  0  0  0
    4.5929    2.4402   -2.0182 H   0  0  0  0  0  0  0  0  0  0  0  0
    4.6151    1.3823   -3.4168 H   0  0  0  0  0  0  0  0  0  0  0  0
    5.8610    4.0189   -1.2094 H   0  0  0  0  0  0  0  0  0  0  0  0
    7.3438    4.6295   -1.9544 H   0  0  0  0  0  0  0  0  0  0  0  0
    7.3802    3.9605   -0.3106 H   0  0  0  0  0  0  0  0  0  0  0  0
    9.3276    2.6884   -1.7120 H   0  0  0  0  0  0  0  0  0  0  0  0
    9.8195   -0.7634   -3.1965 H   0  0  0  0  0  0  0  0  0  0  0  0
   13.5530    2.7142   -1.7355 H   0  0  0  0  0  0  0  0  0  0  0  0
   14.3913   -1.0641   -4.3647 H   0  0  0  0  0  0  0  0  0  0  0  0
   13.0042   -4.9608   -4.2388 H   0  0  0  0  0  0  0  0  0  0  0  0
   11.0827   -4.2341   -2.7806 H   0  0  0  0  0  0  0  0  0  0  0  0
    7.7254   -1.5308   -3.6058 H   0  0  0  0  0  0  0  0  0  0  0  0
    6.2694   -0.7168   -4.2093 H   0  0  0  0  0  0  0  0  0  0  0  0
    6.3067   -1.4557   -2.5952 H   0  0  0  0  0  0  0  0  0  0  0  0
  1  2  1  0  0  0  0
  1 28  1  0  0  0  0
  1 29  1  0  0  0  0
  1 30  1  0  0  0  0
  2  3  1  0  0  0  0
  2 31  1  0  0  0  0
  2 32  1  0  0  0  0
  3  4  1  0  0  0  0
  3  6  1  0  0  0  0
  4  5  1  0  0  0  0
  4 33  1  0  0  0  0
  4 34  1  0  0  0  0
  5 35  1  0  0  0  0
  5 36  1  0  0  0  0
  5 37  1  0  0  0  0
  6  7  1  0  0  0  0
  6 38  1  0  0  0  0
  6 39  1  0  0  0  0
  7  8  1  0  0  0  0
  7 40  1  0  0  0  0
  7 41  1  0  0  0  0
  8  9  2  0  0  0  0
  8 26  1  0  0  0  0
  9 10  1  0  0  0  0
  9 11  1  0  0  0  0
 10 42  1  0  0  0  0
 10 43  1  0  0  0  0
 10 44  1  0  0  0  0
 11 12  1  0  0  0  0
 11 45  1  0  0  0  0
 12 13  1  0  0  0  0
 12 26  2  0  0  0  0
 13 14  2  0  0  0  0
 13 46  1  0  0  0  0
 14 15  1  0  0  0  0
 14 19  1  0  0  0  0
 15 16  2  0  0  0  0
 15 17  1  0  0  0  0
 17 18  1  0  0  0  0
 17 47  1  0  0  0  0
 18 19  2  0  0  0  0
 19 20  1  0  0  0  0
 20 21  1  0  0  0  0
 20 25  2  0  0  0  0
 21 22  2  0  0  0  0
 21 48  1  0  0  0  0
 22 23  1  0  0  0  0
 23 24  2  0  0  0  0
 23 49  1  0  0  0  0
 24 25  1  0  0  0  0
 24 50  1  0  0  0  0
 26 27  1  0  0  0  0
 27 51  1  0  0  0  0
 27 52  1  0  0  0  0
 27 53  1  0  0  0  0
M  END
$$$$
