CHEMBL2430198
 OpenBabel04072215363D

 55 59  0  0  0  0  0  0  0  0999 V2000
    0.8505    0.3257   -0.0737 C   0  0  0  0  0  0  0  0  0  0  0  0
    2.3031   -0.0015   -0.0610 C   0  0  0  0  0  0  0  0  0  0  0  0
    3.2374    1.0272   -0.0548 N   0  0  0  0  0  0  0  0  0  0  0  0
    4.5078    0.5202   -0.0391 C   0  0  0  0  0  0  0  0  0  0  0  0
    4.3851   -0.8515   -0.0367 C   0  0  0  0  0  0  0  0  0  0  0  0
    2.9953   -1.2106   -0.0533 C   0  0  0  0  0  0  0  0  0  0  0  0
    2.5278   -2.6084   -0.0561 C   0  0  0  0  0  0  0  0  0  0  0  0
    3.3132   -3.5566   -0.0503 O   0  0  0  0  0  0  0  0  0  0  0  0
    1.1726   -2.8346   -0.0585 N   0  0  0  0  0  0  0  0  0  0  0  0
    0.6777   -4.1962   -0.0988 C   0  0  0  0  0  0  0  0  0  0  0  0
   -0.8416   -4.2673   -0.1177 C   0  0  0  0  0  0  0  0  0  0  0  0
   -1.2900   -5.7027   -0.1374 C   0  0  0  0  0  0  0  0  0  0  0  0
   -1.4916   -6.3988    1.0520 C   0  0  0  0  0  0  0  0  0  0  0  0
   -1.8297   -7.7471    0.9897 C   0  0  0  0  0  0  0  0  0  0  0  0
   -1.9536   -8.3616   -0.2502 C   0  0  0  0  0  0  0  0  0  0  0  0
   -1.7395   -7.5961   -1.3832 C   0  0  0  0  0  0  0  0  0  0  0  0
   -1.4119   -6.2863   -1.3535 N   0  0  0  0  0  0  0  0  0  0  0  0
    5.5290   -1.7978   -0.0208 C   0  0  0  0  0  0  0  0  0  0  0  0
    6.9038   -1.1576   -0.0029 C   0  0  0  0  0  0  0  0  0  0  0  0
    7.0033    0.3695   -0.0172 C   0  0  0  0  0  0  0  0  0  0  0  0
    5.7469    1.2431   -0.0287 C   0  0  0  0  0  0  0  0  0  0  0  0
    5.9143    2.5947   -0.0300 C   0  0  0  0  0  0  0  0  0  0  0  0
    4.8582    3.6908   -0.0378 C   0  0  0  0  0  0  0  0  0  0  0  0
    3.6461    3.5852   -0.0411 O   0  0  0  0  0  0  0  0  0  0  0  0
    5.5522    4.8903   -0.0390 N   0  0  0  0  0  0  0  0  0  0  0  0
    6.9246    4.6947   -0.0323 C   0  0  0  0  0  0  0  0  0  0  0  0
    7.8931    5.6895   -0.0314 C   0  0  0  0  0  0  0  0  0  0  0  0
    9.2321    5.2962   -0.0244 C   0  0  0  0  0  0  0  0  0  0  0  0
    9.5531    3.9417   -0.0168 C   0  0  0  0  0  0  0  0  0  0  0  0
   10.8395    3.5666   -0.0107 F   0  0  0  0  0  0  0  0  0  0  0  0
    8.5665    2.9589   -0.0177 C   0  0  0  0  0  0  0  0  0  0  0  0
    7.2257    3.3298   -0.0253 C   0  0  0  0  0  0  0  0  0  0  0  0
    0.6710    1.4053   -0.0715 H   0  0  0  0  0  0  0  0  0  0  0  0
    0.3578   -0.0915    0.8112 H   0  0  0  0  0  0  0  0  0  0  0  0
    0.3721   -0.0850   -0.9693 H   0  0  0  0  0  0  0  0  0  0  0  0
    3.0012    2.0170   -0.0578 H   0  0  0  0  0  0  0  0  0  0  0  0
    0.5342   -2.0620   -0.1179 H   0  0  0  0  0  0  0  0  0  0  0  0
    1.0805   -4.7175    0.7794 H   0  0  0  0  0  0  0  0  0  0  0  0
    1.1043   -4.6871   -0.9830 H   0  0  0  0  0  0  0  0  0  0  0  0
   -1.2276   -3.7515   -1.0057 H   0  0  0  0  0  0  0  0  0  0  0  0
   -1.2645   -3.7464    0.7497 H   0  0  0  0  0  0  0  0  0  0  0  0
   -1.3737   -5.9086    2.0130 H   0  0  0  0  0  0  0  0  0  0  0  0
   -1.9848   -8.3154    1.9021 H   0  0  0  0  0  0  0  0  0  0  0  0
   -2.2059   -9.4124   -0.3325 H   0  0  0  0  0  0  0  0  0  0  0  0
   -1.8218   -8.0289   -2.3759 H   0  0  0  0  0  0  0  0  0  0  0  0
    5.4670   -2.4508   -0.9023 H   0  0  0  0  0  0  0  0  0  0  0  0
    5.4424   -2.4460    0.8609 H   0  0  0  0  0  0  0  0  0  0  0  0
    7.4815   -1.5465   -0.8527 H   0  0  0  0  0  0  0  0  0  0  0  0
    7.4494   -1.5285    0.8756 H   0  0  0  0  0  0  0  0  0  0  0  0
    7.5827    0.6150   -0.9158 H   0  0  0  0  0  0  0  0  0  0  0  0
    7.5765    0.6290    0.8813 H   0  0  0  0  0  0  0  0  0  0  0  0
    5.0865    5.7856   -0.0440 H   0  0  0  0  0  0  0  0  0  0  0  0
    7.6320    6.7415   -0.0375 H   0  0  0  0  0  0  0  0  0  0  0  0
   10.0348    6.0273   -0.0252 H   0  0  0  0  0  0  0  0  0  0  0  0
    8.9202    1.9390   -0.0119 H   0  0  0  0  0  0  0  0  0  0  0  0
  1  2  1  0  0  0  0
  1 33  1  0  0  0  0
  1 34  1  0  0  0  0
  1 35  1  0  0  0  0
  2  3  1  0  0  0  0
  2  6  2  0  0  0  0
  3  4  1  0  0  0  0
  3 36  1  0  0  0  0
  4  5  2  0  0  0  0
  4 21  1  0  0  0  0
  5  6  1  0  0  0  0
  5 18  1  0  0  0  0
  6  7  1  0  0  0  0
  7  8  2  0  0  0  0
  7  9  1  0  0  0  0
  9 10  1  0  0  0  0
  9 37  1  0  0  0  0
 10 11  1  0  0  0  0
 10 38  1  0  0  0  0
 10 39  1  0  0  0  0
 11 12  1  0  0  0  0
 11 40  1  0  0  0  0
 11 41  1  0  0  0  0
 12 13  1  0  0  0  0
 12 17  2  0  0  0  0
 13 14  2  0  0  0  0
 13 42  1  0  0  0  0
 14 15  1  0  0  0  0
 14 43  1  0  0  0  0
 15 16  2  0  0  0  0
 15 44  1  0  0  0  0
 16 17  1  0  0  0  0
 16 45  1  0  0  0  0
 18 19  1  0  0  0  0
 18 46  1  0  0  0  0
 18 47  1  0  0  0  0
 19 20  1  0  0  0  0
 19 48  1  0  0  0  0
 19 49  1  0  0  0  0
 20 21  1  0  0  0  0
 20 50  1  0  0  0  0
 20 51  1  0  0  0  0
 21 22  2  0  0  0  0
 22 23  1  0  0  0  0
 22 32  1  0  0  0  0
 23 24  2  0  0  0  0
 23 25  1  0  0  0  0
 25 26  1  0  0  0  0
 25 52  1  0  0  0  0
 26 27  1  0  0  0  0
 26 32  2  0  0  0  0
 27 28  2  0  0  0  0
 27 53  1  0  0  0  0
 28 29  1  0  0  0  0
 28 54  1  0  0  0  0
 29 30  1  0  0  0  0
 29 31  2  0  0  0  0
 31 32  1  0  0  0  0
 31 55  1  0  0  0  0
M  END
$$$$
