CHEMBL1761936
 OpenBabel04072215363D

 53 55  0  0  0  0  0  0  0  0999 V2000
    0.6992    1.3944    2.1362 C   0  0  0  0  0  0  0  0  0  0  0  0
    2.1801    1.7370    2.0918 C   0  0  0  0  0  0  0  0  0  0  0  0
    3.0020    0.5853    1.5148 C   0  0  0  0  0  0  0  0  0  0  0  0
    4.4784    0.9324    1.3633 C   0  0  0  0  0  0  0  0  0  0  0  0
    5.1975    1.1229    2.6142 N   0  0  0  0  0  0  0  0  0  0  0  0
    6.5541    1.3739    2.5056 C   0  0  0  0  0  0  0  0  0  0  0  0
    7.1267    1.3277    1.4224 O   0  0  0  0  0  0  0  0  0  0  0  0
    7.1441    1.6428    3.7229 N   0  0  0  0  0  0  0  0  0  0  0  0
    8.5024    2.0151    3.8926 C   0  0  0  0  0  0  0  0  0  0  0  0
    9.2817    2.5311    2.8544 C   0  0  0  0  0  0  0  0  0  0  0  0
   10.6446    2.8077    3.0348 C   0  0  0  0  0  0  0  0  0  0  0  0
   11.2419    2.6306    4.2785 C   0  0  0  0  0  0  0  0  0  0  0  0
   12.5775    2.7850    4.5735 O   0  0  0  0  0  0  0  0  0  0  0  0
   13.3955    3.7035    3.9127 C   0  0  0  0  0  0  0  0  0  0  0  0
   12.8628    4.5828    3.0446 N   0  0  0  0  0  0  0  0  0  0  0  0
   13.7235    5.4208    2.4643 C   0  0  0  0  0  0  0  0  0  0  0  0
   15.0395    5.4835    2.6938 N   0  0  0  0  0  0  0  0  0  0  0  0
   15.5428    4.6188    3.5805 C   0  0  0  0  0  0  0  0  0  0  0  0
   16.9056    4.6662    3.8433 C   0  0  0  0  0  0  0  0  0  0  0  0
   17.5407    3.7912    4.7395 C   0  0  0  0  0  0  0  0  0  0  0  0
   18.8874    3.8374    4.9853 O   0  0  0  0  0  0  0  0  0  0  0  0
   19.6855    4.7143    4.1974 C   0  0  0  0  0  0  0  0  0  0  0  0
   16.7612    2.8421    5.4157 C   0  0  0  0  0  0  0  0  0  0  0  0
   17.1568    1.9017    6.3299 O   0  0  0  0  0  0  0  0  0  0  0  0
   18.5415    1.7520    6.6094 C   0  0  0  0  0  0  0  0  0  0  0  0
   15.3796    2.7972    5.1680 C   0  0  0  0  0  0  0  0  0  0  0  0
   14.7605    3.6745    4.2444 C   0  0  0  0  0  0  0  0  0  0  0  0
   10.4577    2.1441    5.3314 C   0  0  0  0  0  0  0  0  0  0  0  0
    9.0964    1.8454    5.1468 C   0  0  0  0  0  0  0  0  0  0  0  0
    0.1331    2.2227    2.5734 H   0  0  0  0  0  0  0  0  0  0  0  0
    0.5212    0.5016    2.7439 H   0  0  0  0  0  0  0  0  0  0  0  0
    0.3077    1.2097    1.1305 H   0  0  0  0  0  0  0  0  0  0  0  0
    2.5206    1.9726    3.1054 H   0  0  0  0  0  0  0  0  0  0  0  0
    2.3206    2.6377    1.4824 H   0  0  0  0  0  0  0  0  0  0  0  0
    2.6109    0.3389    0.5187 H   0  0  0  0  0  0  0  0  0  0  0  0
    2.8856   -0.3106    2.1353 H   0  0  0  0  0  0  0  0  0  0  0  0
    4.5957    1.8434    0.7636 H   0  0  0  0  0  0  0  0  0  0  0  0
    4.9766    0.1200    0.8196 H   0  0  0  0  0  0  0  0  0  0  0  0
    4.7328    1.6493    3.3398 H   0  0  0  0  0  0  0  0  0  0  0  0
    6.6566    1.2865    4.5324 H   0  0  0  0  0  0  0  0  0  0  0  0
    8.8593    2.7217    1.8717 H   0  0  0  0  0  0  0  0  0  0  0  0
   11.2077    3.1432    2.1701 H   0  0  0  0  0  0  0  0  0  0  0  0
   13.3221    6.1140    1.7331 H   0  0  0  0  0  0  0  0  0  0  0  0
   17.4674    5.4289    3.3123 H   0  0  0  0  0  0  0  0  0  0  0  0
   20.7316    4.5604    4.4786 H   0  0  0  0  0  0  0  0  0  0  0  0
   19.4372    5.7603    4.4043 H   0  0  0  0  0  0  0  0  0  0  0  0
   19.5929    4.4863    3.1300 H   0  0  0  0  0  0  0  0  0  0  0  0
   18.6508    0.9081    7.2986 H   0  0  0  0  0  0  0  0  0  0  0  0
   18.9398    2.6356    7.1178 H   0  0  0  0  0  0  0  0  0  0  0  0
   19.1093    1.5035    5.7071 H   0  0  0  0  0  0  0  0  0  0  0  0
   14.7780    2.0612    5.6999 H   0  0  0  0  0  0  0  0  0  0  0  0
   10.9121    1.9690    6.3013 H   0  0  0  0  0  0  0  0  0  0  0  0
    8.5295    1.4545    5.9852 H   0  0  0  0  0  0  0  0  0  0  0  0
  1  2  1  0  0  0  0
  1 30  1  0  0  0  0
  1 31  1  0  0  0  0
  1 32  1  0  0  0  0
  2  3  1  0  0  0  0
  2 33  1  0  0  0  0
  2 34  1  0  0  0  0
  3  4  1  0  0  0  0
  3 35  1  0  0  0  0
  3 36  1  0  0  0  0
  4  5  1  0  0  0  0
  4 37  1  0  0  0  0
  4 38  1  0  0  0  0
  5  6  1  0  0  0  0
  5 39  1  0  0  0  0
  6  7  2  0  0  0  0
  6  8  1  0  0  0  0
  8  9  1  0  0  0  0
  8 40  1  0  0  0  0
  9 10  1  0  0  0  0
  9 29  2  0  0  0  0
 10 11  2  0  0  0  0
 10 41  1  0  0  0  0
 11 12  1  0  0  0  0
 11 42  1  0  0  0  0
 12 13  1  0  0  0  0
 12 28  2  0  0  0  0
 13 14  1  0  0  0  0
 14 15  1  0  0  0  0
 14 27  2  0  0  0  0
 15 16  2  0  0  0  0
 16 17  1  0  0  0  0
 16 43  1  0  0  0  0
 17 18  2  0  0  0  0
 18 19  1  0  0  0  0
 18 27  1  0  0  0  0
 19 20  2  0  0  0  0
 19 44  1  0  0  0  0
 20 21  1  0  0  0  0
 20 23  1  0  0  0  0
 21 22  1  0  0  0  0
 22 45  1  0  0  0  0
 22 46  1  0  0  0  0
 22 47  1  0  0  0  0
 23 24  1  0  0  0  0
 23 26  2  0  0  0  0
 24 25  1  0  0  0  0
 25 48  1  0  0  0  0
 25 49  1  0  0  0  0
 25 50  1  0  0  0  0
 26 27  1  0  0  0  0
 26 51  1  0  0  0  0
 28 29  1  0  0  0  0
 28 52  1  0  0  0  0
 29 53  1  0  0  0  0
M  END
$$$$
