CHEMBL3671568
 OpenBabel04072215373D

 62 65  0  0  1  0  0  0  0  0999 V2000
    3.3587   -2.9882   -2.5940 C   0  0  0  0  0  0  0  0  0  0  0  0
    3.4294   -1.6519   -2.6285 C   0  0  0  0  0  0  0  0  0  0  0  0
    3.6188   -0.8992   -1.3599 C   0  0  0  0  0  0  0  0  0  0  0  0
    3.1926   -1.3097   -0.2849 O   0  0  0  0  0  0  0  0  0  0  0  0
    4.3477    0.2694   -1.4206 N   0  0  0  0  0  0  0  0  0  0  0  0
    5.1809    0.5881   -2.5025 C   0  0  0  0  0  0  0  0  0  0  0  0
    6.3041   -0.2126   -2.7184 C   0  0  0  0  0  0  0  0  0  0  0  0
    7.0039   -0.1417   -3.9408 C   0  0  0  0  0  0  0  0  0  0  0  0
    8.0379   -1.0125   -4.3192 C   0  0  0  0  0  0  0  0  0  0  0  0
    8.3962   -2.1029   -3.4813 N   0  0  0  0  0  0  0  0  0  0  0  0
    9.1391   -3.2207   -3.9320 C   0  0  0  0  0  0  0  0  0  0  0  0
    8.8342   -3.8379   -5.1495 C   0  0  0  0  0  0  0  0  0  0  0  0
    9.6460   -4.8619   -5.6559 C   0  0  0  0  0  0  0  0  0  0  0  0
   10.7539   -5.2855   -4.9244 C   0  0  0  0  0  0  0  0  0  0  0  0
   11.8991   -6.5941   -5.6640 Br  0  0  0  0  0  0  0  0  0  0  0  0
   11.0320   -4.7366   -3.6756 C   0  0  0  0  0  0  0  0  0  0  0  0
   10.2184   -3.7173   -3.1876 C   0  0  0  0  0  0  0  0  0  0  0  0
   10.5046   -3.1707   -1.9982 F   0  0  0  0  0  0  0  0  0  0  0  0
    8.6566   -0.8962   -5.5095 N   0  0  0  0  0  0  0  0  0  0  0  0
    8.2265    0.0602   -6.3315 C   0  0  0  0  0  0  0  0  0  0  0  0
    7.2196    0.9032   -6.0935 N   0  0  0  0  0  0  0  0  0  0  0  0
    6.6109    0.7927   -4.9095 C   0  0  0  0  0  0  0  0  0  0  0  0
    5.5257    1.6207   -4.6475 C   0  0  0  0  0  0  0  0  0  0  0  0
    4.8123    1.5545   -3.4473 C   0  0  0  0  0  0  0  0  0  0  0  0
    3.7625    2.4362   -3.3501 O   0  0  0  0  0  0  0  0  0  0  0  0
    3.4845    2.9052   -2.0255 C   0  0  0  0  0  0  0  0  0  0  0  0
    2.9752    4.3493   -2.0513 C   0  0  0  0  0  0  0  0  0  0  0  0
    2.7865    4.8731   -0.7054 N   0  0  0  0  0  0  0  0  0  0  0  0
    3.8576    5.3069    0.0601 C   0  0  0  0  0  0  0  0  0  0  0  0
    4.9972    5.3849   -0.3933 O   0  0  0  0  0  0  0  0  0  0  0  0
    3.4896    5.6579    1.5238 C   0  0  3  0  0  0  0  0  0  0  0  0
    4.7140    5.6012    2.4419 C   0  0  0  0  0  0  0  0  0  0  0  0
    5.1923    7.0452    2.5874 C   0  0  0  0  0  0  0  0  0  0  0  0
    4.2425    7.8712    1.7339 C   0  0  0  0  0  0  0  0  0  0  0  0
    3.0344    7.0494    1.7088 N   0  0  0  0  0  0  0  0  0  0  0  0
    2.0356    7.5368    0.7756 C   0  0  0  0  0  0  0  0  0  0  0  0
    3.2886   -3.5649   -3.5095 H   0  0  0  0  0  0  0  0  0  0  0  0
    3.3914   -3.5320   -1.6540 H   0  0  0  0  0  0  0  0  0  0  0  0
    3.4181   -1.1140   -3.5682 H   0  0  0  0  0  0  0  0  0  0  0  0
    4.7116    0.4716   -0.4923 H   0  0  0  0  0  0  0  0  0  0  0  0
    6.5806   -0.9542   -1.9724 H   0  0  0  0  0  0  0  0  0  0  0  0
    8.7168   -1.7773   -2.5724 H   0  0  0  0  0  0  0  0  0  0  0  0
    7.9833   -3.5022   -5.7376 H   0  0  0  0  0  0  0  0  0  0  0  0
    9.4119   -5.2910   -6.6266 H   0  0  0  0  0  0  0  0  0  0  0  0
   11.8836   -5.0672   -3.0932 H   0  0  0  0  0  0  0  0  0  0  0  0
    8.7355    0.1498   -7.2845 H   0  0  0  0  0  0  0  0  0  0  0  0
    5.2100    2.3249   -5.4157 H   0  0  0  0  0  0  0  0  0  0  0  0
    4.3794    2.8732   -1.3931 H   0  0  0  0  0  0  0  0  0  0  0  0
    2.7072    2.2689   -1.5858 H   0  0  0  0  0  0  0  0  0  0  0  0
    2.0147    4.4093   -2.5743 H   0  0  0  0  0  0  0  0  0  0  0  0
    3.6811    4.9888   -2.5931 H   0  0  0  0  0  0  0  0  0  0  0  0
    1.8821    4.7680   -0.2625 H   0  0  0  0  0  0  0  0  0  0  0  0
    2.7324    4.9456    1.8726 H   0  0  0  0  0  0  0  0  0  0  0  0
    5.5145    4.9569    2.0639 H   0  0  0  0  0  0  0  0  0  0  0  0
    4.4305    5.2196    3.4310 H   0  0  0  0  0  0  0  0  0  0  0  0
    6.2307    7.1646    2.2630 H   0  0  0  0  0  0  0  0  0  0  0  0
    5.1354    7.3481    3.6404 H   0  0  0  0  0  0  0  0  0  0  0  0
    4.6631    8.0166    0.7288 H   0  0  0  0  0  0  0  0  0  0  0  0
    4.0633    8.8549    2.1809 H   0  0  0  0  0  0  0  0  0  0  0  0
    1.6826    8.5245    1.0888 H   0  0  0  0  0  0  0  0  0  0  0  0
    1.1598    6.8780    0.7744 H   0  0  0  0  0  0  0  0  0  0  0  0
    2.4090    7.6245   -0.2506 H   0  0  0  0  0  0  0  0  0  0  0  0
  1  2  2  0  0  0  0
  1 37  1  0  0  0  0
  1 38  1  0  0  0  0
  2  3  1  0  0  0  0
  2 39  1  0  0  0  0
  3  4  2  0  0  0  0
  3  5  1  0  0  0  0
  5  6  1  0  0  0  0
  5 40  1  0  0  0  0
  6  7  1  0  0  0  0
  6 24  2  0  0  0  0
  7  8  2  0  0  0  0
  7 41  1  0  0  0  0
  8  9  1  0  0  0  0
  8 22  1  0  0  0  0
  9 10  1  0  0  0  0
  9 19  2  0  0  0  0
 10 11  1  0  0  0  0
 10 42  1  0  0  0  0
 11 12  1  0  0  0  0
 11 17  2  0  0  0  0
 12 13  2  0  0  0  0
 12 43  1  0  0  0  0
 13 14  1  0  0  0  0
 13 44  1  0  0  0  0
 14 15  1  0  0  0  0
 14 16  2  0  0  0  0
 16 17  1  0  0  0  0
 16 45  1  0  0  0  0
 17 18  1  0  0  0  0
 19 20  1  0  0  0  0
 20 21  2  0  0  0  0
 20 46  1  0  0  0  0
 21 22  1  0  0  0  0
 22 23  2  0  0  0  0
 23 24  1  0  0  0  0
 23 47  1  0  0  0  0
 24 25  1  0  0  0  0
 25 26  1  0  0  0  0
 26 27  1  0  0  0  0
 26 48  1  0  0  0  0
 26 49  1  0  0  0  0
 27 28  1  0  0  0  0
 27 50  1  0  0  0  0
 27 51  1  0  0  0  0
 28 29  1  0  0  0  0
 28 52  1  0  0  0  0
 29 30  2  0  0  0  0
 29 31  1  0  0  0  0
 31 32  1  0  0  0  0
 31 35  1  0  0  0  0
 31 53  1  0  0  0  0
 32 33  1  0  0  0  0
 32 54  1  0  0  0  0
 32 55  1  0  0  0  0
 33 34  1  0  0  0  0
 33 56  1  0  0  0  0
 33 57  1  0  0  0  0
 34 35  1  0  0  0  0
 34 58  1  0  0  0  0
 34 59  1  0  0  0  0
 35 36  1  0  0  0  0
 36 60  1  0  0  0  0
 36 61  1  0  0  0  0
 36 62  1  0  0  0  0
M  END
$$$$
