CHEMBL3933848
 OpenBabel04072215373D

 55 59  0  0  0  0  0  0  0  0999 V2000
    3.2130    0.9051    0.6184 C   0  0  0  0  0  0  0  0  0  0  0  0
    2.4864    0.3525   -0.4825 O   0  0  0  0  0  0  0  0  0  0  0  0
    3.1133   -0.6695   -1.1451 C   0  0  0  0  0  0  0  0  0  0  0  0
    4.0485   -1.5000   -0.5243 C   0  0  0  0  0  0  0  0  0  0  0  0
    4.7252   -2.5078   -1.2487 C   0  0  0  0  0  0  0  0  0  0  0  0
    5.7090   -3.3513   -0.7238 C   0  0  0  0  0  0  0  0  0  0  0  0
    6.0694   -3.2235    0.6435 N   0  0  0  0  0  0  0  0  0  0  0  0
    7.2570   -3.7285    1.2045 C   0  0  0  0  0  0  0  0  0  0  0  0
    8.4863   -3.5433    0.5545 C   0  0  0  0  0  0  0  0  0  0  0  0
    9.6581   -4.0921    1.0703 C   0  0  0  0  0  0  0  0  0  0  0  0
    9.6194   -4.8323    2.2515 C   0  0  0  0  0  0  0  0  0  0  0  0
   11.0935   -5.5297    2.8115 Cl  0  0  0  0  0  0  0  0  0  0  0  0
    8.4018   -4.9948    2.9273 C   0  0  0  0  0  0  0  0  0  0  0  0
    8.2767   -5.8926    4.3986 Cl  0  0  0  0  0  0  0  0  0  0  0  0
    7.2286   -4.4340    2.4096 C   0  0  0  0  0  0  0  0  0  0  0  0
    6.3436   -4.2648   -1.4846 N   0  0  0  0  0  0  0  0  0  0  0  0
    5.9882   -4.3437   -2.7695 C   0  0  0  0  0  0  0  0  0  0  0  0
    5.0693   -3.5884   -3.3694 N   0  0  0  0  0  0  0  0  0  0  0  0
    4.4604   -2.6838   -2.6037 C   0  0  0  0  0  0  0  0  0  0  0  0
    3.5140   -1.8835   -3.1984 C   0  0  0  0  0  0  0  0  0  0  0  0
    2.7965   -0.9077   -2.4901 C   0  0  0  0  0  0  0  0  0  0  0  0
    1.7928   -0.1714   -3.0796 O   0  0  0  0  0  0  0  0  0  0  0  0
    1.3169   -0.7301   -4.3208 C   0  0  0  0  0  0  0  0  0  0  0  0
    0.0594   -0.1456   -4.8278 C   0  0  0  0  0  0  0  0  0  0  0  0
   -0.6388   -0.7571   -5.7978 N   0  0  0  0  0  0  0  0  0  0  0  0
   -1.7155    0.1018   -5.9939 O   0  0  0  0  0  0  0  0  0  0  0  0
   -1.5512    1.1411   -5.1159 C   0  0  0  0  0  0  0  0  0  0  0  0
   -2.6297    2.1095   -5.0724 C   0  0  0  0  0  0  0  0  0  0  0  0
   -3.9372    1.6626   -5.3469 C   0  0  0  0  0  0  0  0  0  0  0  0
   -5.0195    2.5286   -5.2624 C   0  0  0  0  0  0  0  0  0  0  0  0
   -4.8058    3.8572   -4.9155 C   0  0  0  0  0  0  0  0  0  0  0  0
   -3.5172    4.3195   -4.6476 C   0  0  0  0  0  0  0  0  0  0  0  0
   -2.4200    3.4531   -4.7057 C   0  0  0  0  0  0  0  0  0  0  0  0
   -1.1303    3.8720   -4.4630 O   0  0  0  0  0  0  0  0  0  0  0  0
   -0.9811    5.0345   -3.6643 C   0  0  0  0  0  0  0  0  0  0  0  0
   -0.4617    1.0393   -4.3927 N   0  0  0  0  0  0  0  0  0  0  0  0
    2.9141    1.9493    0.7420 H   0  0  0  0  0  0  0  0  0  0  0  0
    4.2981    0.9018    0.4546 H   0  0  0  0  0  0  0  0  0  0  0  0
    2.9691    0.3661    1.5413 H   0  0  0  0  0  0  0  0  0  0  0  0
    4.2776   -1.3706    0.5287 H   0  0  0  0  0  0  0  0  0  0  0  0
    5.2521   -3.3511    1.2300 H   0  0  0  0  0  0  0  0  0  0  0  0
    8.5288   -2.9763   -0.3727 H   0  0  0  0  0  0  0  0  0  0  0  0
   10.5921   -3.9485    0.5342 H   0  0  0  0  0  0  0  0  0  0  0  0
    6.2885   -4.5814    2.9344 H   0  0  0  0  0  0  0  0  0  0  0  0
    6.4887   -5.0855   -3.3779 H   0  0  0  0  0  0  0  0  0  0  0  0
    3.3602   -2.0530   -4.2593 H   0  0  0  0  0  0  0  0  0  0  0  0
    1.1331   -1.8063   -4.1897 H   0  0  0  0  0  0  0  0  0  0  0  0
    2.0760   -0.5702   -5.0974 H   0  0  0  0  0  0  0  0  0  0  0  0
   -4.1209    0.6202   -5.6049 H   0  0  0  0  0  0  0  0  0  0  0  0
   -6.0234    2.1651   -5.4626 H   0  0  0  0  0  0  0  0  0  0  0  0
   -5.6471    4.5414   -4.8549 H   0  0  0  0  0  0  0  0  0  0  0  0
   -3.3986    5.3701   -4.4017 H   0  0  0  0  0  0  0  0  0  0  0  0
    0.0704    5.1186   -3.3744 H   0  0  0  0  0  0  0  0  0  0  0  0
   -1.5757    4.9712   -2.7462 H   0  0  0  0  0  0  0  0  0  0  0  0
   -1.2374    5.9329   -4.2357 H   0  0  0  0  0  0  0  0  0  0  0  0
  1  2  1  0  0  0  0
  1 37  1  0  0  0  0
  1 38  1  0  0  0  0
  1 39  1  0  0  0  0
  2  3  1  0  0  0  0
  3  4  1  0  0  0  0
  3 21  2  0  0  0  0
  4  5  2  0  0  0  0
  4 40  1  0  0  0  0
  5  6  1  0  0  0  0
  5 19  1  0  0  0  0
  6  7  1  0  0  0  0
  6 16  2  0  0  0  0
  7  8  1  0  0  0  0
  7 41  1  0  0  0  0
  8  9  1  0  0  0  0
  8 15  2  0  0  0  0
  9 10  2  0  0  0  0
  9 42  1  0  0  0  0
 10 11  1  0  0  0  0
 10 43  1  0  0  0  0
 11 12  1  0  0  0  0
 11 13  2  0  0  0  0
 13 14  1  0  0  0  0
 13 15  1  0  0  0  0
 15 44  1  0  0  0  0
 16 17  1  0  0  0  0
 17 18  2  0  0  0  0
 17 45  1  0  0  0  0
 18 19  1  0  0  0  0
 19 20  2  0  0  0  0
 20 21  1  0  0  0  0
 20 46  1  0  0  0  0
 21 22  1  0  0  0  0
 22 23  1  0  0  0  0
 23 24  1  0  0  0  0
 23 47  1  0  0  0  0
 23 48  1  0  0  0  0
 24 25  2  0  0  0  0
 24 36  1  0  0  0  0
 25 26  1  0  0  0  0
 26 27  1  0  0  0  0
 27 28  1  0  0  0  0
 27 36  2  0  0  0  0
 28 29  1  0  0  0  0
 28 33  2  0  0  0  0
 29 30  2  0  0  0  0
 29 49  1  0  0  0  0
 30 31  1  0  0  0  0
 30 50  1  0  0  0  0
 31 32  2  0  0  0  0
 31 51  1  0  0  0  0
 32 33  1  0  0  0  0
 32 52  1  0  0  0  0
 33 34  1  0  0  0  0
 34 35  1  0  0  0  0
 35 53  1  0  0  0  0
 35 54  1  0  0  0  0
 35 55  1  0  0  0  0
M  END
$$$$
