CHEMBL3972140
 OpenBabel04072215373D

 53 57  0  0  0  0  0  0  0  0999 V2000
    6.1703   -0.0669   -2.8754 O   0  0  0  0  0  0  0  0  0  0  0  0
    6.2252    0.2871   -1.6958 C   0  0  0  0  0  0  0  0  0  0  0  0
    7.0920    1.2231   -1.1690 N   0  0  0  0  0  0  0  0  0  0  0  0
    8.1241    1.9081   -1.8761 C   0  0  0  0  0  0  0  0  0  0  0  0
    8.4379    1.6616   -3.2205 C   0  0  0  0  0  0  0  0  0  0  0  0
    9.4577    2.3715   -3.8665 C   0  0  0  0  0  0  0  0  0  0  0  0
   10.1807    3.3371   -3.1744 C   0  0  0  0  0  0  0  0  0  0  0  0
    9.8863    3.5756   -1.8309 C   0  0  0  0  0  0  0  0  0  0  0  0
   10.7906    4.7605   -0.9721 Cl  0  0  0  0  0  0  0  0  0  0  0  0
    8.8671    2.8639   -1.1847 C   0  0  0  0  0  0  0  0  0  0  0  0
    5.3256   -0.4235   -0.7412 C   0  0  0  0  0  0  0  0  0  0  0  0
    5.2054   -1.8100   -0.9786 C   0  0  0  0  0  0  0  0  0  0  0  0
    4.4108   -2.6177   -0.1665 C   0  0  0  0  0  0  0  0  0  0  0  0
    3.7236   -2.0496    0.8965 C   0  0  0  0  0  0  0  0  0  0  0  0
    3.8235   -0.6777    1.1371 C   0  0  0  0  0  0  0  0  0  0  0  0
    4.6076    0.1603    0.3196 C   0  0  0  0  0  0  0  0  0  0  0  0
    4.6495    1.8787    0.7999 S   0  0  0  0  0  0  0  0  0  0  0  0
    3.3890    2.6237   -0.2293 C   0  0  0  0  0  0  0  0  0  0  0  0
    2.0116    2.4883    0.0166 C   0  0  0  0  0  0  0  0  0  0  0  0
    1.0528    3.0936   -0.8286 C   0  0  0  0  0  0  0  0  0  0  0  0
    1.5065    3.9844   -1.8344 C   0  0  0  0  0  0  0  0  0  0  0  0
    1.0330    4.6737   -2.9984 C   0  0  0  0  0  0  0  0  0  0  0  0
    0.5490    4.0907   -4.2371 C   0  0  0  0  0  0  0  0  0  0  0  0
    0.8465    2.8290   -4.6085 C   0  0  0  0  0  0  0  0  0  0  0  0
    1.1234    2.4326   -6.0083 C   0  0  0  0  0  0  0  0  0  0  0  0
    1.4669    1.1126   -6.2855 C   0  0  0  0  0  0  0  0  0  0  0  0
    1.9039    0.7753   -7.5675 C   0  0  0  0  0  0  0  0  0  0  0  0
    2.0082    1.7661   -8.5339 C   0  0  0  0  0  0  0  0  0  0  0  0
    1.6609    3.0564   -8.1765 C   0  0  0  0  0  0  0  0  0  0  0  0
    1.2141    3.4082   -6.9458 N   0  0  0  0  0  0  0  0  0  0  0  0
    1.8005    5.7663   -3.1698 N   0  0  0  0  0  0  0  0  0  0  0  0
    2.9844    5.3254   -2.7170 N   0  0  0  0  0  0  0  0  0  0  0  0
    2.8748    4.2408   -1.8915 C   0  0  0  0  0  0  0  0  0  0  0  0
    3.8370    3.5032   -1.2155 C   0  0  0  0  0  0  0  0  0  0  0  0
    6.9980    1.4446   -0.1888 H   0  0  0  0  0  0  0  0  0  0  0  0
    7.9194    0.9089   -3.8032 H   0  0  0  0  0  0  0  0  0  0  0  0
    9.6786    2.1643   -4.9114 H   0  0  0  0  0  0  0  0  0  0  0  0
   10.9653    3.8912   -3.6821 H   0  0  0  0  0  0  0  0  0  0  0  0
    8.6711    3.0730   -0.1354 H   0  0  0  0  0  0  0  0  0  0  0  0
    5.7457   -2.2707   -1.8061 H   0  0  0  0  0  0  0  0  0  0  0  0
    4.3354   -3.6827   -0.3634 H   0  0  0  0  0  0  0  0  0  0  0  0
    3.1089   -2.6724    1.5427 H   0  0  0  0  0  0  0  0  0  0  0  0
    3.2787   -0.2637    1.9840 H   0  0  0  0  0  0  0  0  0  0  0  0
    1.6636    1.9177    0.8713 H   0  0  0  0  0  0  0  0  0  0  0  0
   -0.0131    2.9605   -0.6481 H   0  0  0  0  0  0  0  0  0  0  0  0
    0.3299    4.8214   -5.0180 H   0  0  0  0  0  0  0  0  0  0  0  0
    1.1539    2.1027   -3.8666 H   0  0  0  0  0  0  0  0  0  0  0  0
    1.4376    0.3538   -5.5106 H   0  0  0  0  0  0  0  0  0  0  0  0
    2.1844   -0.2481   -7.7961 H   0  0  0  0  0  0  0  0  0  0  0  0
    2.3624    1.5403   -9.5346 H   0  0  0  0  0  0  0  0  0  0  0  0
    1.7487    3.8728   -8.8896 H   0  0  0  0  0  0  0  0  0  0  0  0
    3.8181    5.8409   -2.9655 H   0  0  0  0  0  0  0  0  0  0  0  0
    4.8932    3.6531   -1.4142 H   0  0  0  0  0  0  0  0  0  0  0  0
  1  2  2  0  0  0  0
  2  3  1  0  0  0  0
  2 11  1  0  0  0  0
  3  4  1  0  0  0  0
  3 35  1  0  0  0  0
  4  5  1  0  0  0  0
  4 10  2  0  0  0  0
  5  6  2  0  0  0  0
  5 36  1  0  0  0  0
  6  7  1  0  0  0  0
  6 37  1  0  0  0  0
  7  8  2  0  0  0  0
  7 38  1  0  0  0  0
  8  9  1  0  0  0  0
  8 10  1  0  0  0  0
 10 39  1  0  0  0  0
 11 12  1  0  0  0  0
 11 16  2  0  0  0  0
 12 13  2  0  0  0  0
 12 40  1  0  0  0  0
 13 14  1  0  0  0  0
 13 41  1  0  0  0  0
 14 15  2  0  0  0  0
 14 42  1  0  0  0  0
 15 16  1  0  0  0  0
 15 43  1  0  0  0  0
 16 17  1  0  0  0  0
 17 18  1  0  0  0  0
 18 19  1  0  0  0  0
 18 34  2  0  0  0  0
 19 20  2  0  0  0  0
 19 44  1  0  0  0  0
 20 21  1  0  0  0  0
 20 45  1  0  0  0  0
 21 22  1  0  0  0  0
 21 33  2  0  0  0  0
 22 23  1  0  0  0  0
 22 31  2  0  0  0  0
 23 24  2  0  0  0  0
 23 46  1  0  0  0  0
 24 25  1  0  0  0  0
 24 47  1  0  0  0  0
 25 26  1  0  0  0  0
 25 30  2  0  0  0  0
 26 27  2  0  0  0  0
 26 48  1  0  0  0  0
 27 28  1  0  0  0  0
 27 49  1  0  0  0  0
 28 29  2  0  0  0  0
 28 50  1  0  0  0  0
 29 30  1  0  0  0  0
 29 51  1  0  0  0  0
 31 32  1  0  0  0  0
 32 33  1  0  0  0  0
 32 52  1  0  0  0  0
 33 34  1  0  0  0  0
 34 53  1  0  0  0  0
M  END
$$$$
