CHEMBL101464
 OpenBabel04072215353D

 29 31  0  0  0  0  0  0  0  0999 V2000
    1.5439   -0.2881   -0.0848 Br  0  0  0  0  0  0  0  0  0  0  0  0
   -0.3237   -0.1817   -0.4053 C   0  0  0  0  0  0  0  0  0  0  0  0
   -0.8276    0.9739   -0.9766 C   0  0  0  0  0  0  0  0  0  0  0  0
   -2.1903    1.0351   -1.2126 C   0  0  0  0  0  0  0  0  0  0  0  0
   -2.9784   -0.0590   -0.8766 C   0  0  0  0  0  0  0  0  0  0  0  0
   -2.4066   -1.1909   -0.2935 C   0  0  0  0  0  0  0  0  0  0  0  0
   -3.1470   -2.3028    0.1131 N   0  0  0  0  0  0  0  0  0  0  0  0
   -4.4817   -2.4668    0.0172 C   0  0  0  0  0  0  0  0  0  0  0  0
   -5.2494   -1.9285   -0.9037 N   0  0  0  0  0  0  0  0  0  0  0  0
   -6.5730   -2.1796   -0.6411 C   0  0  0  0  0  0  0  0  0  0  0  0
   -6.8350   -2.9333    0.4856 C   0  0  0  0  0  0  0  0  0  0  0  0
   -8.1325   -3.3114    1.0512 C   0  0  0  0  0  0  0  0  0  0  0  0
   -9.2271   -3.5208    0.1959 C   0  0  0  0  0  0  0  0  0  0  0  0
  -10.4858   -3.8434    0.7054 C   0  0  0  0  0  0  0  0  0  0  0  0
  -10.6691   -3.9591    2.0799 C   0  0  0  0  0  0  0  0  0  0  0  0
   -9.5985   -3.7440    2.9441 C   0  0  0  0  0  0  0  0  0  0  0  0
   -8.3382   -3.4188    2.4341 C   0  0  0  0  0  0  0  0  0  0  0  0
   -5.3355   -3.4309    1.1666 S   0  0  0  0  0  0  0  0  0  0  0  0
   -1.0796   -1.2501   -0.0527 N   0  0  0  0  0  0  0  0  0  0  0  0
   -0.1879    1.8122   -1.2291 H   0  0  0  0  0  0  0  0  0  0  0  0
   -2.6465    1.9191   -1.6453 H   0  0  0  0  0  0  0  0  0  0  0  0
   -4.0460    0.0104   -1.0536 H   0  0  0  0  0  0  0  0  0  0  0  0
   -2.5826   -2.9358    0.6629 H   0  0  0  0  0  0  0  0  0  0  0  0
   -7.3204   -1.7542   -1.2989 H   0  0  0  0  0  0  0  0  0  0  0  0
   -9.1121   -3.4394   -0.8826 H   0  0  0  0  0  0  0  0  0  0  0  0
  -11.3200   -4.0027    0.0274 H   0  0  0  0  0  0  0  0  0  0  0  0
  -11.6479   -4.2110    2.4789 H   0  0  0  0  0  0  0  0  0  0  0  0
   -9.7429   -3.8230    4.0183 H   0  0  0  0  0  0  0  0  0  0  0  0
   -7.5291   -3.2317    3.1363 H   0  0  0  0  0  0  0  0  0  0  0  0
  1  2  1  0  0  0  0
  2  3  1  0  0  0  0
  2 19  2  0  0  0  0
  3  4  2  0  0  0  0
  3 20  1  0  0  0  0
  4  5  1  0  0  0  0
  4 21  1  0  0  0  0
  5  6  2  0  0  0  0
  5 22  1  0  0  0  0
  6  7  1  0  0  0  0
  6 19  1  0  0  0  0
  7  8  1  0  0  0  0
  7 23  1  0  0  0  0
  8  9  2  0  0  0  0
  8 18  1  0  0  0  0
  9 10  1  0  0  0  0
 10 11  2  0  0  0  0
 10 24  1  0  0  0  0
 11 12  1  0  0  0  0
 11 18  1  0  0  0  0
 12 13  1  0  0  0  0
 12 17  2  0  0  0  0
 13 14  2  0  0  0  0
 13 25  1  0  0  0  0
 14 15  1  0  0  0  0
 14 26  1  0  0  0  0
 15 16  2  0  0  0  0
 15 27  1  0  0  0  0
 16 17  1  0  0  0  0
 16 28  1  0  0  0  0
 17 29  1  0  0  0  0
M  END
$$$$
