CHEMBL3960591
 OpenBabel04072215373D

 62 66  0  0  0  0  0  0  0  0999 V2000
    1.4901   -0.4656   -0.5004 C   0  0  0  0  0  0  0  0  0  0  0  0
    2.3364    0.0137    0.5406 O   0  0  0  0  0  0  0  0  0  0  0  0
    3.0839   -0.9316    1.1930 C   0  0  0  0  0  0  0  0  0  0  0  0
    2.7285   -2.2574    1.3613 C   0  0  0  0  0  0  0  0  0  0  0  0
    3.5959   -3.1191    2.0423 C   0  0  0  0  0  0  0  0  0  0  0  0
    3.3179   -4.4365    2.3054 O   0  0  0  0  0  0  0  0  0  0  0  0
    1.9438   -4.8065    2.2523 C   0  0  0  0  0  0  0  0  0  0  0  0
    4.8720   -2.6816    2.4506 C   0  0  0  0  0  0  0  0  0  0  0  0
    5.2970   -1.3736    2.2137 C   0  0  0  0  0  0  0  0  0  0  0  0
    6.6450   -0.9555    2.4108 N   0  0  0  0  0  0  0  0  0  0  0  0
    6.9971    0.4231    1.9108 C   0  0  0  0  0  0  0  0  0  0  0  0
    7.0862    0.5607    0.4017 C   0  0  0  0  0  0  0  0  0  0  0  0
    6.7389   -0.4882   -0.4592 C   0  0  0  0  0  0  0  0  0  0  0  0
    6.6601   -0.2567   -1.8266 C   0  0  0  0  0  0  0  0  0  0  0  0
    6.9967    0.9907   -2.3234 C   0  0  0  0  0  0  0  0  0  0  0  0
    7.4167    1.9501   -1.4243 C   0  0  0  0  0  0  0  0  0  0  0  0
    7.7922    3.1645   -1.9782 O   0  0  0  0  0  0  0  0  0  0  0  0
    8.5276    3.9878   -1.0817 C   0  0  0  0  0  0  0  0  0  0  0  0
    7.4498    1.7876   -0.0838 N   0  0  0  0  0  0  0  0  0  0  0  0
    7.8469   -1.6365    2.8204 C   0  0  0  0  0  0  0  0  0  0  0  0
    8.5436   -0.9979    3.8436 C   0  0  0  0  0  0  0  0  0  0  0  0
    9.9059   -1.1440    3.9539 C   0  0  0  0  0  0  0  0  0  0  0  0
   10.5983   -2.0316    3.1718 C   0  0  0  0  0  0  0  0  0  0  0  0
   11.9196   -1.9130    3.3102 N   0  0  0  0  0  0  0  0  0  0  0  0
   12.6679   -2.8283    2.7025 C   0  0  0  0  0  0  0  0  0  0  0  0
   12.1323   -3.9004    2.0233 C   0  0  0  0  0  0  0  0  0  0  0  0
   13.1013   -4.9487    1.6774 C   0  0  0  0  0  0  0  0  0  0  0  0
   13.5112   -6.0886    2.4247 C   0  0  0  0  0  0  0  0  0  0  0  0
   14.6519   -6.6369    1.9773 N   0  0  0  0  0  0  0  0  0  0  0  0
   15.0049   -5.8303    0.9614 N   0  0  0  0  0  0  0  0  0  0  0  0
   16.0852   -6.1930    0.0742 C   0  0  0  0  0  0  0  0  0  0  0  0
   14.1983   -4.7291    0.8546 C   0  0  0  0  0  0  0  0  0  0  0  0
   10.7644   -3.9671    1.7908 N   0  0  0  0  0  0  0  0  0  0  0  0
    9.9503   -2.9709    2.3348 C   0  0  0  0  0  0  0  0  0  0  0  0
    8.5247   -2.6909    2.1381 C   0  0  0  0  0  0  0  0  0  0  0  0
    4.3102   -0.4899    1.6975 C   0  0  0  0  0  0  0  0  0  0  0  0
    1.3420    0.3489   -1.2204 H   0  0  0  0  0  0  0  0  0  0  0  0
    0.5139   -0.7375   -0.0913 H   0  0  0  0  0  0  0  0  0  0  0  0
    1.9277   -1.3067   -1.0517 H   0  0  0  0  0  0  0  0  0  0  0  0
    1.7830   -2.6075    0.9673 H   0  0  0  0  0  0  0  0  0  0  0  0
    1.8632   -5.8471    2.5789 H   0  0  0  0  0  0  0  0  0  0  0  0
    1.5554   -4.7571    1.2283 H   0  0  0  0  0  0  0  0  0  0  0  0
    1.3408   -4.1917    2.9296 H   0  0  0  0  0  0  0  0  0  0  0  0
    5.5331   -3.3868    2.9432 H   0  0  0  0  0  0  0  0  0  0  0  0
    7.9551    0.7816    2.3069 H   0  0  0  0  0  0  0  0  0  0  0  0
    6.2823    1.1583    2.3105 H   0  0  0  0  0  0  0  0  0  0  0  0
    6.4765   -1.4637   -0.0894 H   0  0  0  0  0  0  0  0  0  0  0  0
    6.3282   -1.0525   -2.4871 H   0  0  0  0  0  0  0  0  0  0  0  0
    6.9422    1.2032   -3.3758 H   0  0  0  0  0  0  0  0  0  0  0  0
    8.8272    4.8850   -1.6334 H   0  0  0  0  0  0  0  0  0  0  0  0
    9.4415    3.4884   -0.7404 H   0  0  0  0  0  0  0  0  0  0  0  0
    7.9120    4.3078   -0.2352 H   0  0  0  0  0  0  0  0  0  0  0  0
    8.0508   -0.2378    4.4590 H   0  0  0  0  0  0  0  0  0  0  0  0
   10.4615   -0.5037    4.6342 H   0  0  0  0  0  0  0  0  0  0  0  0
   13.7484   -2.6985    2.8231 H   0  0  0  0  0  0  0  0  0  0  0  0
   13.0570   -6.5207    3.3109 H   0  0  0  0  0  0  0  0  0  0  0  0
   16.5026   -7.1605    0.3650 H   0  0  0  0  0  0  0  0  0  0  0  0
   16.8603   -5.4232    0.1042 H   0  0  0  0  0  0  0  0  0  0  0  0
   15.6634   -6.2665   -0.9319 H   0  0  0  0  0  0  0  0  0  0  0  0
   14.4745   -3.9016    0.2149 H   0  0  0  0  0  0  0  0  0  0  0  0
    7.9946   -3.2773    1.3864 H   0  0  0  0  0  0  0  0  0  0  0  0
    4.4888    0.5767    1.5851 H   0  0  0  0  0  0  0  0  0  0  0  0
  1  2  1  0  0  0  0
  1 37  1  0  0  0  0
  1 38  1  0  0  0  0
  1 39  1  0  0  0  0
  2  3  1  0  0  0  0
  3  4  1  0  0  0  0
  3 36  2  0  0  0  0
  4  5  2  0  0  0  0
  4 40  1  0  0  0  0
  5  6  1  0  0  0  0
  5  8  1  0  0  0  0
  6  7  1  0  0  0  0
  7 41  1  0  0  0  0
  7 42  1  0  0  0  0
  7 43  1  0  0  0  0
  8  9  2  0  0  0  0
  8 44  1  0  0  0  0
  9 10  1  0  0  0  0
  9 36  1  0  0  0  0
 10 11  1  0  0  0  0
 10 20  1  0  0  0  0
 11 12  1  0  0  0  0
 11 45  1  0  0  0  0
 11 46  1  0  0  0  0
 12 13  1  0  0  0  0
 12 19  2  0  0  0  0
 13 14  2  0  0  0  0
 13 47  1  0  0  0  0
 14 15  1  0  0  0  0
 14 48  1  0  0  0  0
 15 16  2  0  0  0  0
 15 49  1  0  0  0  0
 16 17  1  0  0  0  0
 16 19  1  0  0  0  0
 17 18  1  0  0  0  0
 18 50  1  0  0  0  0
 18 51  1  0  0  0  0
 18 52  1  0  0  0  0
 20 21  1  0  0  0  0
 20 35  2  0  0  0  0
 21 22  2  0  0  0  0
 21 53  1  0  0  0  0
 22 23  1  0  0  0  0
 22 54  1  0  0  0  0
 23 24  1  0  0  0  0
 23 34  2  0  0  0  0
 24 25  2  0  0  0  0
 25 26  1  0  0  0  0
 25 55  1  0  0  0  0
 26 27  1  0  0  0  0
 26 33  2  0  0  0  0
 27 28  1  0  0  0  0
 27 32  2  0  0  0  0
 28 29  2  0  0  0  0
 28 56  1  0  0  0  0
 29 30  1  0  0  0  0
 30 31  1  0  0  0  0
 30 32  1  0  0  0  0
 31 57  1  0  0  0  0
 31 58  1  0  0  0  0
 31 59  1  0  0  0  0
 32 60  1  0  0  0  0
 33 34  1  0  0  0  0
 34 35  1  0  0  0  0
 35 61  1  0  0  0  0
 36 62  1  0  0  0  0
M  END
$$$$
