CHEMBL495300
 OpenBabel04072215383D

 60 64  0  0  0  0  0  0  0  0999 V2000
   11.7824    3.4572   -5.7181 C   0  0  0  0  0  0  0  0  0  0  0  0
   11.0100    3.1181   -4.5659 O   0  0  0  0  0  0  0  0  0  0  0  0
    9.7122    3.5519   -4.5730 C   0  0  0  0  0  0  0  0  0  0  0  0
    9.3056    4.6990   -5.2634 C   0  0  0  0  0  0  0  0  0  0  0  0
    7.9748    5.0677   -5.3702 C   0  0  0  0  0  0  0  0  0  0  0  0
    7.7221    6.1518   -6.1153 N   0  0  0  0  0  0  0  0  0  0  0  0
    6.4412    6.5201   -6.2808 C   0  0  0  0  0  0  0  0  0  0  0  0
    5.3776    5.8515   -5.7122 C   0  0  0  0  0  0  0  0  0  0  0  0
    5.6217    4.7292   -4.9014 C   0  0  0  0  0  0  0  0  0  0  0  0
    4.4039    4.0386   -4.2914 C   0  0  0  0  0  0  0  0  0  0  0  0
    3.5495    4.9718   -3.5503 N   0  0  0  0  0  0  0  0  0  0  0  0
    4.0512    5.4071   -2.2525 C   0  0  0  0  0  0  0  0  0  0  0  0
    3.5369    4.6175   -1.0377 C   0  0  0  0  0  0  0  0  0  0  0  0
    2.0376    4.4249   -1.0418 C   0  0  0  0  0  0  0  0  0  0  0  0
    1.3836    4.4713   -2.2918 C   0  0  0  0  0  0  0  0  0  0  0  0
   -0.0106    4.2884   -2.3545 C   0  0  0  0  0  0  0  0  0  0  0  0
   -0.7577    4.0617   -1.2041 C   0  0  0  0  0  0  0  0  0  0  0  0
   -0.1186    3.9940    0.0295 C   0  0  0  0  0  0  0  0  0  0  0  0
    1.2796    4.1381    0.1265 C   0  0  0  0  0  0  0  0  0  0  0  0
    1.8956    3.9974    1.4942 C   0  0  0  0  0  0  0  0  0  0  0  0
    2.8118    4.7493    1.8071 O   0  0  0  0  0  0  0  0  0  0  0  0
    1.3393    3.0008    2.2833 N   0  0  0  0  0  0  0  0  0  0  0  0
    1.7373    2.6798    3.5950 C   0  0  0  0  0  0  0  0  0  0  0  0
    1.0936    1.6157    4.2263 C   0  0  0  0  0  0  0  0  0  0  0  0
    1.4955    1.2375    5.5088 C   0  0  0  0  0  0  0  0  0  0  0  0
    2.5198    1.9352    6.1332 C   0  0  0  0  0  0  0  0  0  0  0  0
    3.0882    2.9917    5.4473 C   0  0  0  0  0  0  0  0  0  0  0  0
    2.7153    3.3694    4.2057 N   0  0  0  0  0  0  0  0  0  0  0  0
    2.1169    4.6988   -3.6012 C   0  0  0  0  0  0  0  0  0  0  0  0
    6.9707    4.2962   -4.7352 C   0  0  0  0  0  0  0  0  0  0  0  0
    7.3927    3.1665   -3.9917 C   0  0  0  0  0  0  0  0  0  0  0  0
    8.7485    2.8184   -3.8760 C   0  0  0  0  0  0  0  0  0  0  0  0
    8.9863    1.7074   -3.1087 O   0  0  0  0  0  0  0  0  0  0  0  0
   10.1598    1.7570   -2.2989 C   0  0  0  0  0  0  0  0  0  0  0  0
   12.5713    2.7072   -5.8284 H   0  0  0  0  0  0  0  0  0  0  0  0
   12.2573    4.4331   -5.5773 H   0  0  0  0  0  0  0  0  0  0  0  0
   11.1913    3.4434   -6.6410 H   0  0  0  0  0  0  0  0  0  0  0  0
   10.0364    5.3352   -5.7527 H   0  0  0  0  0  0  0  0  0  0  0  0
    6.2877    7.3947   -6.9057 H   0  0  0  0  0  0  0  0  0  0  0  0
    4.3671    6.2068   -5.8870 H   0  0  0  0  0  0  0  0  0  0  0  0
    4.6588    3.1768   -3.6704 H   0  0  0  0  0  0  0  0  0  0  0  0
    3.8570    3.6329   -5.1550 H   0  0  0  0  0  0  0  0  0  0  0  0
    3.7599    6.4592   -2.1312 H   0  0  0  0  0  0  0  0  0  0  0  0
    5.1482    5.4125   -2.2308 H   0  0  0  0  0  0  0  0  0  0  0  0
    3.8518    5.1913   -0.1629 H   0  0  0  0  0  0  0  0  0  0  0  0
    4.0144    3.6326   -0.9949 H   0  0  0  0  0  0  0  0  0  0  0  0
   -0.5224    4.3316   -3.3145 H   0  0  0  0  0  0  0  0  0  0  0  0
   -1.8362    3.9392   -1.2699 H   0  0  0  0  0  0  0  0  0  0  0  0
   -0.7304    3.8521    0.9170 H   0  0  0  0  0  0  0  0  0  0  0  0
    0.6233    2.4152    1.8842 H   0  0  0  0  0  0  0  0  0  0  0  0
    0.2945    1.0680    3.7404 H   0  0  0  0  0  0  0  0  0  0  0  0
    1.0186    0.4010    6.0132 H   0  0  0  0  0  0  0  0  0  0  0  0
    2.8684    1.6657    7.1235 H   0  0  0  0  0  0  0  0  0  0  0  0
    3.8891    3.5823    5.8830 H   0  0  0  0  0  0  0  0  0  0  0  0
    1.6506    5.5651   -4.0883 H   0  0  0  0  0  0  0  0  0  0  0  0
    1.9052    3.8331   -4.2415 H   0  0  0  0  0  0  0  0  0  0  0  0
    6.6720    2.5306   -3.4870 H   0  0  0  0  0  0  0  0  0  0  0  0
    9.9232    1.2802   -1.3417 H   0  0  0  0  0  0  0  0  0  0  0  0
   10.4985    2.7749   -2.0748 H   0  0  0  0  0  0  0  0  0  0  0  0
   10.9594    1.1774   -2.7710 H   0  0  0  0  0  0  0  0  0  0  0  0
  1  2  1  0  0  0  0
  1 35  1  0  0  0  0
  1 36  1  0  0  0  0
  1 37  1  0  0  0  0
  2  3  1  0  0  0  0
  3  4  1  0  0  0  0
  3 32  2  0  0  0  0
  4  5  2  0  0  0  0
  4 38  1  0  0  0  0
  5  6  1  0  0  0  0
  5 30  1  0  0  0  0
  6  7  2  0  0  0  0
  7  8  1  0  0  0  0
  7 39  1  0  0  0  0
  8  9  2  0  0  0  0
  8 40  1  0  0  0  0
  9 10  1  0  0  0  0
  9 30  1  0  0  0  0
 10 11  1  0  0  0  0
 10 41  1  0  0  0  0
 10 42  1  0  0  0  0
 11 12  1  0  0  0  0
 11 29  1  0  0  0  0
 12 13  1  0  0  0  0
 12 43  1  0  0  0  0
 12 44  1  0  0  0  0
 13 14  1  0  0  0  0
 13 45  1  0  0  0  0
 13 46  1  0  0  0  0
 14 15  1  0  0  0  0
 14 19  2  0  0  0  0
 15 16  2  0  0  0  0
 15 29  1  0  0  0  0
 16 17  1  0  0  0  0
 16 47  1  0  0  0  0
 17 18  2  0  0  0  0
 17 48  1  0  0  0  0
 18 19  1  0  0  0  0
 18 49  1  0  0  0  0
 19 20  1  0  0  0  0
 20 21  2  0  0  0  0
 20 22  1  0  0  0  0
 22 23  1  0  0  0  0
 22 50  1  0  0  0  0
 23 24  1  0  0  0  0
 23 28  2  0  0  0  0
 24 25  2  0  0  0  0
 24 51  1  0  0  0  0
 25 26  1  0  0  0  0
 25 52  1  0  0  0  0
 26 27  2  0  0  0  0
 26 53  1  0  0  0  0
 27 28  1  0  0  0  0
 27 54  1  0  0  0  0
 29 55  1  0  0  0  0
 29 56  1  0  0  0  0
 30 31  2  0  0  0  0
 31 32  1  0  0  0  0
 31 57  1  0  0  0  0
 32 33  1  0  0  0  0
 33 34  1  0  0  0  0
 34 58  1  0  0  0  0
 34 59  1  0  0  0  0
 34 60  1  0  0  0  0
M  END
$$$$
