CHEMBL207842
 OpenBabel04072215363D

 41 44  0  0  0  0  0  0  0  0999 V2000
    6.3630   -0.5926   -0.4858 C   0  0  0  0  0  0  0  0  0  0  0  0
    5.2526    0.4385   -0.6039 C   0  0  0  0  0  0  0  0  0  0  0  0
    5.1407    1.1106    0.6542 O   0  0  0  0  0  0  0  0  0  0  0  0
    4.3652    0.4827    1.5851 C   0  0  0  0  0  0  0  0  0  0  0  0
    3.5320   -0.3773    1.3289 O   0  0  0  0  0  0  0  0  0  0  0  0
    4.7306    0.8715    2.9445 C   0  0  0  0  0  0  0  0  0  0  0  0
    5.6950    1.8097    3.2719 C   0  0  0  0  0  0  0  0  0  0  0  0
    5.8066    1.8686    4.6263 N   0  0  0  0  0  0  0  0  0  0  0  0
    6.6533    2.6676    5.2966 N   0  0  0  0  0  0  0  0  0  0  0  0
    6.6058    2.5378    6.5850 C   0  0  0  0  0  0  0  0  0  0  0  0
    5.8141    1.6735    7.2911 N   0  0  0  0  0  0  0  0  0  0  0  0
    5.0251    0.9084    6.6142 C   0  0  0  0  0  0  0  0  0  0  0  0
    4.2112   -0.0659    7.1679 O   0  0  0  0  0  0  0  0  0  0  0  0
    4.5473   -0.5816    8.4382 C   0  0  0  0  0  0  0  0  0  0  0  0
    5.8668   -0.8925    8.7610 C   0  0  0  0  0  0  0  0  0  0  0  0
    6.1836   -1.4492   10.0066 C   0  0  0  0  0  0  0  0  0  0  0  0
    5.1259   -1.7130   10.8790 C   0  0  0  0  0  0  0  0  0  0  0  0
    5.1439   -2.2590   12.1405 N   0  0  0  0  0  0  0  0  0  0  0  0
    3.8709   -2.3615   12.6279 C   0  0  0  0  0  0  0  0  0  0  0  0
    3.0143   -1.8693   11.6706 C   0  0  0  0  0  0  0  0  0  0  0  0
    3.7931   -1.4474   10.5585 C   0  0  0  0  0  0  0  0  0  0  0  0
    3.4914   -0.8705    9.3079 C   0  0  0  0  0  0  0  0  0  0  0  0
    4.9518    0.9739    5.1965 C   0  0  0  0  0  0  0  0  0  0  0  0
    4.2475    0.3267    4.1901 C   0  0  0  0  0  0  0  0  0  0  0  0
    3.2232   -0.7514    4.3062 C   0  0  0  0  0  0  0  0  0  0  0  0
    6.5333   -1.1043   -1.4352 H   0  0  0  0  0  0  0  0  0  0  0  0
    6.1226   -1.3375    0.2797 H   0  0  0  0  0  0  0  0  0  0  0  0
    7.2950   -0.1105   -0.1682 H   0  0  0  0  0  0  0  0  0  0  0  0
    4.3065   -0.0185   -0.9141 H   0  0  0  0  0  0  0  0  0  0  0  0
    5.5183    1.1881   -1.3552 H   0  0  0  0  0  0  0  0  0  0  0  0
    6.3271    2.4263    2.6476 H   0  0  0  0  0  0  0  0  0  0  0  0
    7.2782    3.1716    7.1883 H   0  0  0  0  0  0  0  0  0  0  0  0
    6.6752   -0.7077    8.0560 H   0  0  0  0  0  0  0  0  0  0  0  0
    7.2147   -1.6677   10.2653 H   0  0  0  0  0  0  0  0  0  0  0  0
    5.9806   -2.5459   12.6272 H   0  0  0  0  0  0  0  0  0  0  0  0
    3.6838   -2.7770   13.6120 H   0  0  0  0  0  0  0  0  0  0  0  0
    1.9344   -1.8160   11.7585 H   0  0  0  0  0  0  0  0  0  0  0  0
    2.4648   -0.6598    9.0270 H   0  0  0  0  0  0  0  0  0  0  0  0
    3.0134   -1.0336    5.3384 H   0  0  0  0  0  0  0  0  0  0  0  0
    3.5635   -1.6521    3.7836 H   0  0  0  0  0  0  0  0  0  0  0  0
    2.2795   -0.4264    3.8557 H   0  0  0  0  0  0  0  0  0  0  0  0
  1  2  1  0  0  0  0
  1 26  1  0  0  0  0
  1 27  1  0  0  0  0
  1 28  1  0  0  0  0
  2  3  1  0  0  0  0
  2 29  1  0  0  0  0
  2 30  1  0  0  0  0
  3  4  1  0  0  0  0
  4  5  2  0  0  0  0
  4  6  1  0  0  0  0
  6  7  2  0  0  0  0
  6 24  1  0  0  0  0
  7  8  1  0  0  0  0
  7 31  1  0  0  0  0
  8  9  1  0  0  0  0
  8 23  1  0  0  0  0
  9 10  2  0  0  0  0
 10 11  1  0  0  0  0
 10 32  1  0  0  0  0
 11 12  2  0  0  0  0
 12 13  1  0  0  0  0
 12 23  1  0  0  0  0
 13 14  1  0  0  0  0
 14 15  1  0  0  0  0
 14 22  2  0  0  0  0
 15 16  2  0  0  0  0
 15 33  1  0  0  0  0
 16 17  1  0  0  0  0
 16 34  1  0  0  0  0
 17 18  1  0  0  0  0
 17 21  2  0  0  0  0
 18 19  1  0  0  0  0
 18 35  1  0  0  0  0
 19 20  2  0  0  0  0
 19 36  1  0  0  0  0
 20 21  1  0  0  0  0
 20 37  1  0  0  0  0
 21 22  1  0  0  0  0
 22 38  1  0  0  0  0
 23 24  2  0  0  0  0
 24 25  1  0  0  0  0
 25 39  1  0  0  0  0
 25 40  1  0  0  0  0
 25 41  1  0  0  0  0
M  END
$$$$
