CHEMBL526639
 OpenBabel04072215383D

 41 44  0  0  0  0  0  0  0  0999 V2000
    2.4762    0.2083   -0.1167 C   0  0  0  0  0  0  0  0  0  0  0  0
    0.9771    0.0620   -0.0172 C   0  0  0  0  0  0  0  0  0  0  0  0
    0.2355    1.2642   -0.0075 C   0  0  0  0  0  0  0  0  0  0  0  0
   -1.1572    1.2619    0.0041 C   0  0  0  0  0  0  0  0  0  0  0  0
   -1.8363    0.0481    0.0337 C   0  0  0  0  0  0  0  0  0  0  0  0
   -3.3234   -0.0274   -0.0235 C   0  0  0  0  0  0  0  0  0  0  0  0
   -3.8620   -1.0088   -0.5236 O   0  0  0  0  0  0  0  0  0  0  0  0
   -4.0169    1.0342    0.5289 N   0  0  0  0  0  0  0  0  0  0  0  0
   -5.4455    1.0495    0.5783 C   0  0  0  0  0  0  0  0  0  0  0  0
   -6.2433    1.6966   -0.5194 C   0  0  0  0  0  0  0  0  0  0  0  0
   -6.1934    2.3280    0.8404 C   0  0  0  0  0  0  0  0  0  0  0  0
   -1.1082   -1.1528    0.0628 C   0  0  0  0  0  0  0  0  0  0  0  0
    0.3068   -1.1905    0.0414 C   0  0  0  0  0  0  0  0  0  0  0  0
    0.9934   -2.5207    0.0468 C   0  0  0  0  0  0  0  0  0  0  0  0
    2.1898   -2.7453    0.7466 C   0  0  0  0  0  0  0  0  0  0  0  0
    2.8670   -3.9701    0.6934 C   0  0  0  0  0  0  0  0  0  0  0  0
    2.3262   -5.0560    0.0020 C   0  0  0  0  0  0  0  0  0  0  0  0
    2.9714   -6.2953   -0.0478 C   0  0  0  0  0  0  0  0  0  0  0  0
    2.3495   -7.3433   -0.7065 C   0  0  0  0  0  0  0  0  0  0  0  0
    1.1499   -7.2407   -1.3099 N   0  0  0  0  0  0  0  0  0  0  0  0
    0.5526   -6.0268   -1.2677 C   0  0  0  0  0  0  0  0  0  0  0  0
    1.0881   -4.8939   -0.6447 C   0  0  0  0  0  0  0  0  0  0  0  0
    0.4533   -3.6316   -0.6359 C   0  0  0  0  0  0  0  0  0  0  0  0
    2.7601    1.2277   -0.4021 H   0  0  0  0  0  0  0  0  0  0  0  0
    2.8843   -0.4552   -0.8849 H   0  0  0  0  0  0  0  0  0  0  0  0
    2.9499    0.0179    0.8497 H   0  0  0  0  0  0  0  0  0  0  0  0
    0.7520    2.2227   -0.0450 H   0  0  0  0  0  0  0  0  0  0  0  0
   -1.6837    2.2095   -0.0551 H   0  0  0  0  0  0  0  0  0  0  0  0
   -3.5172    1.7238    1.0741 H   0  0  0  0  0  0  0  0  0  0  0  0
   -5.8629    0.1417    1.0107 H   0  0  0  0  0  0  0  0  0  0  0  0
   -7.1601    1.2051   -0.8258 H   0  0  0  0  0  0  0  0  0  0  0  0
   -5.7076    2.1754   -1.3302 H   0  0  0  0  0  0  0  0  0  0  0  0
   -7.0844    2.2737    1.4555 H   0  0  0  0  0  0  0  0  0  0  0  0
   -5.6373    3.2514    0.9441 H   0  0  0  0  0  0  0  0  0  0  0  0
   -1.6771   -2.0820    0.1018 H   0  0  0  0  0  0  0  0  0  0  0  0
    2.6242   -1.9695    1.3681 H   0  0  0  0  0  0  0  0  0  0  0  0
    3.8164   -4.0665    1.2170 H   0  0  0  0  0  0  0  0  0  0  0  0
    3.9388   -6.4504    0.4220 H   0  0  0  0  0  0  0  0  0  0  0  0
    2.8156   -8.3232   -0.7616 H   0  0  0  0  0  0  0  0  0  0  0  0
   -0.4177   -5.9876   -1.7586 H   0  0  0  0  0  0  0  0  0  0  0  0
   -0.4841   -3.5278   -1.1813 H   0  0  0  0  0  0  0  0  0  0  0  0
  1  2  1  0  0  0  0
  1 24  1  0  0  0  0
  1 25  1  0  0  0  0
  1 26  1  0  0  0  0
  2  3  1  0  0  0  0
  2 13  2  0  0  0  0
  3  4  2  0  0  0  0
  3 27  1  0  0  0  0
  4  5  1  0  0  0  0
  4 28  1  0  0  0  0
  5  6  1  0  0  0  0
  5 12  2  0  0  0  0
  6  7  2  0  0  0  0
  6  8  1  0  0  0  0
  8  9  1  0  0  0  0
  8 29  1  0  0  0  0
  9 10  1  0  0  0  0
  9 11  1  0  0  0  0
  9 30  1  0  0  0  0
 10 11  1  0  0  0  0
 10 31  1  0  0  0  0
 10 32  1  0  0  0  0
 11 33  1  0  0  0  0
 11 34  1  0  0  0  0
 12 13  1  0  0  0  0
 12 35  1  0  0  0  0
 13 14  1  0  0  0  0
 14 15  1  0  0  0  0
 14 23  2  0  0  0  0
 15 16  2  0  0  0  0
 15 36  1  0  0  0  0
 16 17  1  0  0  0  0
 16 37  1  0  0  0  0
 17 18  1  0  0  0  0
 17 22  2  0  0  0  0
 18 19  2  0  0  0  0
 18 38  1  0  0  0  0
 19 20  1  0  0  0  0
 19 39  1  0  0  0  0
 20 21  2  0  0  0  0
 21 22  1  0  0  0  0
 21 40  1  0  0  0  0
 22 23  1  0  0  0  0
 23 41  1  0  0  0  0
M  END
$$$$
