CHEMBL3933123
 OpenBabel04072215373D

 56 60  0  0  1  0  0  0  0  0999 V2000
   -7.7094    7.9386    5.3162 C   0  0  0  0  0  0  0  0  0  0  0  0
   -6.7693    8.4068    4.3438 O   0  0  0  0  0  0  0  0  0  0  0  0
   -6.8500    9.7226    3.9711 C   0  0  0  0  0  0  0  0  0  0  0  0
   -7.9748   10.5161    4.2244 C   0  0  0  0  0  0  0  0  0  0  0  0
   -7.9639   11.9107    3.9695 C   0  0  0  0  0  0  0  0  0  0  0  0
   -8.9661   12.8242    4.3411 C   0  0  0  0  0  0  0  0  0  0  0  0
  -10.0919   12.3396    5.0565 N   0  0  0  0  0  0  0  0  0  0  0  0
  -11.2868   13.0434    5.3227 C   0  0  0  0  0  0  0  0  0  0  0  0
  -11.7630   14.0464    4.4702 C   0  0  0  0  0  0  0  0  0  0  0  0
  -12.9477   14.7285    4.7438 C   0  0  0  0  0  0  0  0  0  0  0  0
  -13.7092   14.3792    5.8566 C   0  0  0  0  0  0  0  0  0  0  0  0
  -15.1499   15.2793    6.1555 Cl  0  0  0  0  0  0  0  0  0  0  0  0
  -13.2898   13.3279    6.6773 C   0  0  0  0  0  0  0  0  0  0  0  0
  -14.2045   12.8036    8.0460 Cl  0  0  0  0  0  0  0  0  0  0  0  0
  -12.0916   12.6571    6.4021 C   0  0  0  0  0  0  0  0  0  0  0  0
   -8.8648   14.1365    4.0624 N   0  0  0  0  0  0  0  0  0  0  0  0
   -7.7881   14.5453    3.4039 C   0  0  0  0  0  0  0  0  0  0  0  0
   -6.7804   13.7659    3.0012 N   0  0  0  0  0  0  0  0  0  0  0  0
   -6.8746   12.4688    3.3047 C   0  0  0  0  0  0  0  0  0  0  0  0
   -5.8213   11.6601    2.9538 C   0  0  0  0  0  0  0  0  0  0  0  0
   -5.7476   10.3075    3.3229 C   0  0  0  0  0  0  0  0  0  0  0  0
   -4.6116    9.5500    3.0894 O   0  0  0  0  0  0  0  0  0  0  0  0
   -3.4558   10.3394    2.7326 C   0  0  0  0  0  0  0  0  0  0  0  0
   -2.2303    9.5222    2.7607 C   0  0  0  0  0  0  0  0  0  0  0  0
   -1.4001    9.3080    3.7537 N   0  0  0  0  0  0  0  0  0  0  0  0
   -0.5085    8.4238    3.1927 C   0  0  0  0  0  0  0  0  0  0  0  0
    0.1185    7.3414    4.0118 C   0  0  2  0  0  0  0  0  0  0  0  0
   -1.0271    6.4995    4.5987 C   0  0  0  0  0  0  0  0  0  0  0  0
   -0.4868    5.9210    5.8887 C   0  0  0  0  0  0  0  0  0  0  0  0
    0.9064    6.5096    6.0222 C   0  0  0  0  0  0  0  0  0  0  0  0
    0.8439    7.7502    5.2356 N   0  0  0  0  0  0  0  0  0  0  0  0
    2.1811    8.2730    4.9818 C   0  0  0  0  0  0  0  0  0  0  0  0
   -0.6545    8.2585    1.8656 N   0  0  0  0  0  0  0  0  0  0  0  0
   -1.8179    8.9757    1.5809 O   0  0  0  0  0  0  0  0  0  0  0  0
   -8.5690    7.4804    4.8149 H   0  0  0  0  0  0  0  0  0  0  0  0
   -8.0497    8.7123    6.0146 H   0  0  0  0  0  0  0  0  0  0  0  0
   -7.2199    7.1740    5.9267 H   0  0  0  0  0  0  0  0  0  0  0  0
   -8.8789   10.0788    4.6361 H   0  0  0  0  0  0  0  0  0  0  0  0
   -9.7696   11.8261    5.8727 H   0  0  0  0  0  0  0  0  0  0  0  0
  -11.2065   14.3246    3.5783 H   0  0  0  0  0  0  0  0  0  0  0  0
  -13.2609   15.5297    4.0804 H   0  0  0  0  0  0  0  0  0  0  0  0
  -11.7822   11.8373    7.0452 H   0  0  0  0  0  0  0  0  0  0  0  0
   -7.7011   15.6042    3.1815 H   0  0  0  0  0  0  0  0  0  0  0  0
   -5.0242   12.1506    2.4051 H   0  0  0  0  0  0  0  0  0  0  0  0
   -3.3175   11.1438    3.4650 H   0  0  0  0  0  0  0  0  0  0  0  0
   -3.5833   10.7455    1.7234 H   0  0  0  0  0  0  0  0  0  0  0  0
    0.7591    6.7077    3.3825 H   0  0  0  0  0  0  0  0  0  0  0  0
   -1.3637    5.7355    3.8916 H   0  0  0  0  0  0  0  0  0  0  0  0
   -1.9077    7.1123    4.8420 H   0  0  0  0  0  0  0  0  0  0  0  0
   -0.4714    4.8284    5.8524 H   0  0  0  0  0  0  0  0  0  0  0  0
   -1.1247    6.2284    6.7256 H   0  0  0  0  0  0  0  0  0  0  0  0
    1.6362    5.8065    5.5983 H   0  0  0  0  0  0  0  0  0  0  0  0
    1.1667    6.6912    7.0688 H   0  0  0  0  0  0  0  0  0  0  0  0
    2.7138    8.4210    5.9296 H   0  0  0  0  0  0  0  0  0  0  0  0
    2.1347    9.2516    4.4942 H   0  0  0  0  0  0  0  0  0  0  0  0
    2.7867    7.6014    4.3628 H   0  0  0  0  0  0  0  0  0  0  0  0
  1  2  1  0  0  0  0
  1 35  1  0  0  0  0
  1 36  1  0  0  0  0
  1 37  1  0  0  0  0
  2  3  1  0  0  0  0
  3  4  1  0  0  0  0
  3 21  2  0  0  0  0
  4  5  2  0  0  0  0
  4 38  1  0  0  0  0
  5  6  1  0  0  0  0
  5 19  1  0  0  0  0
  6  7  1  0  0  0  0
  6 16  2  0  0  0  0
  7  8  1  0  0  0  0
  7 39  1  0  0  0  0
  8  9  1  0  0  0  0
  8 15  2  0  0  0  0
  9 10  2  0  0  0  0
  9 40  1  0  0  0  0
 10 11  1  0  0  0  0
 10 41  1  0  0  0  0
 11 12  1  0  0  0  0
 11 13  2  0  0  0  0
 13 14  1  0  0  0  0
 13 15  1  0  0  0  0
 15 42  1  0  0  0  0
 16 17  1  0  0  0  0
 17 18  2  0  0  0  0
 17 43  1  0  0  0  0
 18 19  1  0  0  0  0
 19 20  2  0  0  0  0
 20 21  1  0  0  0  0
 20 44  1  0  0  0  0
 21 22  1  0  0  0  0
 22 23  1  0  0  0  0
 23 24  1  0  0  0  0
 23 45  1  0  0  0  0
 23 46  1  0  0  0  0
 24 25  2  0  0  0  0
 24 34  1  0  0  0  0
 25 26  1  0  0  0  0
 26 33  2  0  0  0  0
 27 28  1  0  0  0  0
 27 31  1  0  0  0  0
 27 26  1  0  0  0  0
 27 47  1  6  0  0  0
 28 29  1  0  0  0  0
 28 48  1  0  0  0  0
 28 49  1  0  0  0  0
 29 30  1  0  0  0  0
 29 50  1  0  0  0  0
 29 51  1  0  0  0  0
 30 31  1  0  0  0  0
 30 52  1  0  0  0  0
 30 53  1  0  0  0  0
 31 32  1  0  0  0  0
 32 54  1  0  0  0  0
 32 55  1  0  0  0  0
 32 56  1  0  0  0  0
 33 34  1  0  0  0  0
M  END
$$$$
