CHEMBL4788768
 OpenBabel04072215383D

 53 56  0  0  0  0  0  0  0  0999 V2000
    8.1551    3.7157   -9.8192 C   0  0  0  0  0  0  0  0  0  0  0  0
    8.6821    3.4246   -8.5202 O   0  0  0  0  0  0  0  0  0  0  0  0
    7.7755    3.4912   -7.4956 C   0  0  0  0  0  0  0  0  0  0  0  0
    6.4315    3.1271   -7.6951 C   0  0  0  0  0  0  0  0  0  0  0  0
    5.4531    3.3289   -6.7355 C   0  0  0  0  0  0  0  0  0  0  0  0
    4.1837    3.0600   -7.0523 N   0  0  0  0  0  0  0  0  0  0  0  0
    3.2627    3.3702   -6.1369 C   0  0  0  0  0  0  0  0  0  0  0  0
    3.4966    3.9273   -4.9492 N   0  0  0  0  0  0  0  0  0  0  0  0
    4.7811    4.1780   -4.6313 C   0  0  0  0  0  0  0  0  0  0  0  0
    5.0634    4.8511   -3.4170 N   0  0  0  0  0  0  0  0  0  0  0  0
    4.1356    5.5948   -2.6613 C   0  0  0  0  0  0  0  0  0  0  0  0
    4.1985    5.5868   -1.2692 C   0  0  0  0  0  0  0  0  0  0  0  0
    3.2218    6.2451   -0.5113 C   0  0  0  0  0  0  0  0  0  0  0  0
    2.1761    6.9418   -1.1254 C   0  0  0  0  0  0  0  0  0  0  0  0
    1.0930    7.5204   -0.4158 N   0  0  0  0  0  0  0  0  0  0  0  0
    0.8836    7.4299    0.9490 C   0  0  0  0  0  0  0  0  0  0  0  0
    1.6504    6.9164    1.7613 O   0  0  0  0  0  0  0  0  0  0  0  0
   -0.3763    8.0115    1.4982 C   0  0  0  0  0  0  0  0  0  0  0  0
   -1.5745    8.1103    0.7814 C   0  0  0  0  0  0  0  0  0  0  0  0
   -2.7280    8.5823    1.4244 C   0  0  0  0  0  0  0  0  0  0  0  0
   -2.7010    8.9522    2.7768 C   0  0  0  0  0  0  0  0  0  0  0  0
   -3.9311    9.4193    3.4976 C   0  0  0  0  0  0  0  0  0  0  0  0
   -1.4997    8.8549    3.4816 C   0  0  0  0  0  0  0  0  0  0  0  0
   -0.3526    8.3887    2.8476 C   0  0  0  0  0  0  0  0  0  0  0  0
    2.1804    7.0481   -2.5148 C   0  0  0  0  0  0  0  0  0  0  0  0
    3.1560    6.3883   -3.2713 C   0  0  0  0  0  0  0  0  0  0  0  0
    5.8339    3.8592   -5.5019 C   0  0  0  0  0  0  0  0  0  0  0  0
    7.2028    4.0913   -5.2410 C   0  0  0  0  0  0  0  0  0  0  0  0
    8.1790    3.9209   -6.2272 C   0  0  0  0  0  0  0  0  0  0  0  0
    9.4184    4.2577   -5.7663 O   0  0  0  0  0  0  0  0  0  0  0  0
   10.5142    4.3190   -6.6614 C   0  0  0  0  0  0  0  0  0  0  0  0
    8.9146    4.2668  -10.3812 H   0  0  0  0  0  0  0  0  0  0  0  0
    7.2569    4.3461   -9.8000 H   0  0  0  0  0  0  0  0  0  0  0  0
    7.9463    2.7790  -10.3455 H   0  0  0  0  0  0  0  0  0  0  0  0
    6.1093    2.7098   -8.6468 H   0  0  0  0  0  0  0  0  0  0  0  0
    2.2270    3.1698   -6.3871 H   0  0  0  0  0  0  0  0  0  0  0  0
    5.6855    4.2871   -2.8402 H   0  0  0  0  0  0  0  0  0  0  0  0
    4.9755    5.0400   -0.7464 H   0  0  0  0  0  0  0  0  0  0  0  0
    3.3077    6.1682    0.5648 H   0  0  0  0  0  0  0  0  0  0  0  0
    0.4098    8.0111   -0.9718 H   0  0  0  0  0  0  0  0  0  0  0  0
   -1.6496    7.7852   -0.2497 H   0  0  0  0  0  0  0  0  0  0  0  0
   -3.6626    8.6354    0.8656 H   0  0  0  0  0  0  0  0  0  0  0  0
   -4.7989    9.4634    2.8332 H   0  0  0  0  0  0  0  0  0  0  0  0
   -3.7668   10.4202    3.9095 H   0  0  0  0  0  0  0  0  0  0  0  0
   -4.1675    8.7325    4.3180 H   0  0  0  0  0  0  0  0  0  0  0  0
   -1.4515    9.1198    4.5360 H   0  0  0  0  0  0  0  0  0  0  0  0
    0.5684    8.2967    3.4222 H   0  0  0  0  0  0  0  0  0  0  0  0
    1.4175    7.6136   -3.0434 H   0  0  0  0  0  0  0  0  0  0  0  0
    3.1293    6.4731   -4.3550 H   0  0  0  0  0  0  0  0  0  0  0  0
    7.5184    4.4636   -4.2685 H   0  0  0  0  0  0  0  0  0  0  0  0
   11.3362    4.8050   -6.1240 H   0  0  0  0  0  0  0  0  0  0  0  0
   10.2996    4.9397   -7.5350 H   0  0  0  0  0  0  0  0  0  0  0  0
   10.8485    3.3152   -6.9384 H   0  0  0  0  0  0  0  0  0  0  0  0
  1  2  1  0  0  0  0
  1 32  1  0  0  0  0
  1 33  1  0  0  0  0
  1 34  1  0  0  0  0
  2  3  1  0  0  0  0
  3  4  1  0  0  0  0
  3 29  2  0  0  0  0
  4  5  2  0  0  0  0
  4 35  1  0  0  0  0
  5  6  1  0  0  0  0
  5 27  1  0  0  0  0
  6  7  2  0  0  0  0
  7  8  1  0  0  0  0
  7 36  1  0  0  0  0
  8  9  2  0  0  0  0
  9 10  1  0  0  0  0
  9 27  1  0  0  0  0
 10 11  1  0  0  0  0
 10 37  1  0  0  0  0
 11 12  1  0  0  0  0
 11 26  2  0  0  0  0
 12 13  2  0  0  0  0
 12 38  1  0  0  0  0
 13 14  1  0  0  0  0
 13 39  1  0  0  0  0
 14 15  1  0  0  0  0
 14 25  2  0  0  0  0
 15 16  1  0  0  0  0
 15 40  1  0  0  0  0
 16 17  2  0  0  0  0
 16 18  1  0  0  0  0
 18 19  1  0  0  0  0
 18 24  2  0  0  0  0
 19 20  2  0  0  0  0
 19 41  1  0  0  0  0
 20 21  1  0  0  0  0
 20 42  1  0  0  0  0
 21 22  1  0  0  0  0
 21 23  2  0  0  0  0
 22 43  1  0  0  0  0
 22 44  1  0  0  0  0
 22 45  1  0  0  0  0
 23 24  1  0  0  0  0
 23 46  1  0  0  0  0
 24 47  1  0  0  0  0
 25 26  1  0  0  0  0
 25 48  1  0  0  0  0
 26 49  1  0  0  0  0
 27 28  2  0  0  0  0
 28 29  1  0  0  0  0
 28 50  1  0  0  0  0
 29 30  1  0  0  0  0
 30 31  1  0  0  0  0
 31 51  1  0  0  0  0
 31 52  1  0  0  0  0
 31 53  1  0  0  0  0
M  END
$$$$
