CHEMBL204427
 OpenBabel04072215363D

 50 54  0  0  0  0  0  0  0  0999 V2000
    2.0668   -1.1931   -1.1056 C   0  0  0  0  0  0  0  0  0  0  0  0
    0.9231   -0.3502   -0.7654 N   0  0  0  0  0  0  0  0  0  0  0  0
   -0.2775   -0.7775   -1.5247 C   0  0  0  0  0  0  0  0  0  0  0  0
   -1.5502    0.0199   -1.1456 C   0  0  0  0  0  0  0  0  0  0  0  0
   -1.7677   -0.1030    0.3025 N   0  0  0  0  0  0  0  0  0  0  0  0
   -3.0370   -0.0613    0.8578 C   0  0  0  0  0  0  0  0  0  0  0  0
   -3.2570   -0.6543    2.1162 C   0  0  0  0  0  0  0  0  0  0  0  0
   -4.5118   -0.7040    2.7358 C   0  0  0  0  0  0  0  0  0  0  0  0
   -5.5654   -0.1440    2.0265 C   0  0  0  0  0  0  0  0  0  0  0  0
   -6.8948   -0.0001    2.3139 N   0  0  0  0  0  0  0  0  0  0  0  0
   -7.5149    0.5999    1.2425 C   0  0  0  0  0  0  0  0  0  0  0  0
   -8.9204    0.8533    1.2885 C   0  0  0  0  0  0  0  0  0  0  0  0
   -9.6232    0.9528    0.1320 C   0  0  0  0  0  0  0  0  0  0  0  0
   -9.0903    0.7037   -1.1365 N   0  0  0  0  0  0  0  0  0  0  0  0
  -11.0496    1.3804    0.1918 C   0  0  0  0  0  0  0  0  0  0  0  0
  -11.8458    1.5448   -0.9526 C   0  0  0  0  0  0  0  0  0  0  0  0
  -13.1530    2.0306   -0.8575 C   0  0  0  0  0  0  0  0  0  0  0  0
  -13.6953    2.3372    0.3887 C   0  0  0  0  0  0  0  0  0  0  0  0
  -12.9387    2.1430    1.5408 C   0  0  0  0  0  0  0  0  0  0  0  0
  -11.6267    1.6717    1.4369 C   0  0  0  0  0  0  0  0  0  0  0  0
  -10.8871    1.4886    2.6042 N   0  0  0  0  0  0  0  0  0  0  0  0
   -9.5929    1.0588    2.6136 C   0  0  0  0  0  0  0  0  0  0  0  0
   -9.0173    0.8479    3.6819 O   0  0  0  0  0  0  0  0  0  0  0  0
   -6.6312    0.8580    0.2888 N   0  0  0  0  0  0  0  0  0  0  0  0
   -5.4188    0.4273    0.7720 C   0  0  0  0  0  0  0  0  0  0  0  0
   -4.1438    0.4841    0.1853 C   0  0  0  0  0  0  0  0  0  0  0  0
   -0.6197    0.3693    1.0973 C   0  0  0  0  0  0  0  0  0  0  0  0
    0.6405   -0.4278    0.6882 C   0  0  0  0  0  0  0  0  0  0  0  0
    2.2933   -1.1172   -2.1746 H   0  0  0  0  0  0  0  0  0  0  0  0
    1.8935   -2.2483   -0.8642 H   0  0  0  0  0  0  0  0  0  0  0  0
    2.9607   -0.8594   -0.5675 H   0  0  0  0  0  0  0  0  0  0  0  0
   -0.4737   -1.8440   -1.3439 H   0  0  0  0  0  0  0  0  0  0  0  0
   -0.0971   -0.6544   -2.5988 H   0  0  0  0  0  0  0  0  0  0  0  0
   -2.3880   -0.3986   -1.7151 H   0  0  0  0  0  0  0  0  0  0  0  0
   -1.4377    1.0748   -1.4271 H   0  0  0  0  0  0  0  0  0  0  0  0
   -2.4282   -1.1420    2.6259 H   0  0  0  0  0  0  0  0  0  0  0  0
   -4.6475   -1.1803    3.6995 H   0  0  0  0  0  0  0  0  0  0  0  0
   -7.3522   -0.2474    3.1834 H   0  0  0  0  0  0  0  0  0  0  0  0
   -8.0630    0.6434   -1.0887 H   0  0  0  0  0  0  0  0  0  0  0  0
   -9.3445    1.4144   -1.8148 H   0  0  0  0  0  0  0  0  0  0  0  0
  -11.4621    1.2966   -1.9398 H   0  0  0  0  0  0  0  0  0  0  0  0
  -13.7431    2.1749   -1.7589 H   0  0  0  0  0  0  0  0  0  0  0  0
  -14.7075    2.7254    0.4602 H   0  0  0  0  0  0  0  0  0  0  0  0
  -13.3737    2.3732    2.5087 H   0  0  0  0  0  0  0  0  0  0  0  0
  -11.3085    1.6506    3.5089 H   0  0  0  0  0  0  0  0  0  0  0  0
   -4.0452    0.9646   -0.7799 H   0  0  0  0  0  0  0  0  0  0  0  0
   -0.7693    0.2521    2.1760 H   0  0  0  0  0  0  0  0  0  0  0  0
   -0.4615    1.4405    0.9136 H   0  0  0  0  0  0  0  0  0  0  0  0
    0.5003   -1.4751    0.9903 H   0  0  0  0  0  0  0  0  0  0  0  0
    1.4965   -0.0350    1.2491 H   0  0  0  0  0  0  0  0  0  0  0  0
  1  2  1  0  0  0  0
  1 29  1  0  0  0  0
  1 30  1  0  0  0  0
  1 31  1  0  0  0  0
  2  3  1  0  0  0  0
  2 28  1  0  0  0  0
  3  4  1  0  0  0  0
  3 32  1  0  0  0  0
  3 33  1  0  0  0  0
  4  5  1  0  0  0  0
  4 34  1  0  0  0  0
  4 35  1  0  0  0  0
  5  6  1  0  0  0  0
  5 27  1  0  0  0  0
  6  7  1  0  0  0  0
  6 26  2  0  0  0  0
  7  8  2  0  0  0  0
  7 36  1  0  0  0  0
  8  9  1  0  0  0  0
  8 37  1  0  0  0  0
  9 10  1  0  0  0  0
  9 25  2  0  0  0  0
 10 11  1  0  0  0  0
 10 38  1  0  0  0  0
 11 12  1  0  0  0  0
 11 24  2  0  0  0  0
 12 13  2  0  0  0  0
 12 22  1  0  0  0  0
 13 14  1  0  0  0  0
 13 15  1  0  0  0  0
 14 39  1  0  0  0  0
 14 40  1  0  0  0  0
 15 16  1  0  0  0  0
 15 20  2  0  0  0  0
 16 17  2  0  0  0  0
 16 41  1  0  0  0  0
 17 18  1  0  0  0  0
 17 42  1  0  0  0  0
 18 19  2  0  0  0  0
 18 43  1  0  0  0  0
 19 20  1  0  0  0  0
 19 44  1  0  0  0  0
 20 21  1  0  0  0  0
 21 22  1  0  0  0  0
 21 45  1  0  0  0  0
 22 23  2  0  0  0  0
 24 25  1  0  0  0  0
 25 26  1  0  0  0  0
 26 46  1  0  0  0  0
 27 28  1  0  0  0  0
 27 47  1  0  0  0  0
 27 48  1  0  0  0  0
 28 49  1  0  0  0  0
 28 50  1  0  0  0  0
M  END
$$$$
