CHEMBL518203
 OpenBabel04072215383D

 59 63  0  0  0  0  0  0  0  0999 V2000
    9.9679    8.2536   -0.2051 C   0  0  0  0  0  0  0  0  0  0  0  0
    8.8755    8.8535   -0.9029 O   0  0  0  0  0  0  0  0  0  0  0  0
    8.0835    7.9700   -1.5905 C   0  0  0  0  0  0  0  0  0  0  0  0
    8.5853    6.7743   -2.1182 C   0  0  0  0  0  0  0  0  0  0  0  0
    7.7727    5.8139   -2.6890 C   0  0  0  0  0  0  0  0  0  0  0  0
    8.3598    4.6776   -3.0972 N   0  0  0  0  0  0  0  0  0  0  0  0
    7.5899    3.7175   -3.6415 C   0  0  0  0  0  0  0  0  0  0  0  0
    6.2272    3.8391   -3.7993 C   0  0  0  0  0  0  0  0  0  0  0  0
    5.6142    5.0173   -3.3715 C   0  0  0  0  0  0  0  0  0  0  0  0
    4.2751    5.0960   -3.7004 O   0  0  0  0  0  0  0  0  0  0  0  0
    3.3220    5.5060   -2.7950 C   0  0  0  0  0  0  0  0  0  0  0  0
    2.1446    5.9945   -3.3716 C   0  0  0  0  0  0  0  0  0  0  0  0
    1.0865    6.4771   -2.5850 C   0  0  0  0  0  0  0  0  0  0  0  0
    1.2156    6.4581   -1.1823 C   0  0  0  0  0  0  0  0  0  0  0  0
    0.4097    6.8370   -0.0577 C   0  0  0  0  0  0  0  0  0  0  0  0
   -0.8675    7.3815   -0.1323 N   0  0  0  0  0  0  0  0  0  0  0  0
   -1.6513    7.6681    0.9714 C   0  0  0  0  0  0  0  0  0  0  0  0
   -1.3577    7.5054    2.1550 O   0  0  0  0  0  0  0  0  0  0  0  0
   -3.0224    8.1930    0.6907 C   0  0  0  0  0  0  0  0  0  0  0  0
   -4.0354    7.8832    1.6107 C   0  0  0  0  0  0  0  0  0  0  0  0
   -5.3307    8.3646    1.4292 C   0  0  0  0  0  0  0  0  0  0  0  0
   -5.6218    9.1763    0.3351 C   0  0  0  0  0  0  0  0  0  0  0  0
   -4.6191    9.5188   -0.5823 C   0  0  0  0  0  0  0  0  0  0  0  0
   -4.9234   10.4459   -1.7235 C   0  0  0  0  0  0  0  0  0  0  0  0
   -3.3160    9.0196   -0.4021 C   0  0  0  0  0  0  0  0  0  0  0  0
    1.0492    6.5811    1.0836 N   0  0  0  0  0  0  0  0  0  0  0  0
    2.2123    6.0318    0.7190 N   0  0  0  0  0  0  0  0  0  0  0  0
    3.1165    5.5444    1.7325 C   0  0  0  0  0  0  0  0  0  0  0  0
    2.3880    5.9372   -0.6354 C   0  0  0  0  0  0  0  0  0  0  0  0
    3.4514    5.4366   -1.4067 C   0  0  0  0  0  0  0  0  0  0  0  0
    6.3897    6.0606   -2.8072 C   0  0  0  0  0  0  0  0  0  0  0  0
    5.9010    7.3141   -2.3651 C   0  0  0  0  0  0  0  0  0  0  0  0
    6.7304    8.2617   -1.7593 C   0  0  0  0  0  0  0  0  0  0  0  0
    6.0610    9.3641   -1.3057 O   0  0  0  0  0  0  0  0  0  0  0  0
    6.7395   10.6061   -1.4407 C   0  0  0  0  0  0  0  0  0  0  0  0
   10.3106    8.9542    0.5608 H   0  0  0  0  0  0  0  0  0  0  0  0
   10.8026    8.0678   -0.8893 H   0  0  0  0  0  0  0  0  0  0  0  0
    9.6692    7.3284    0.3028 H   0  0  0  0  0  0  0  0  0  0  0  0
    9.6491    6.5524   -2.0770 H   0  0  0  0  0  0  0  0  0  0  0  0
    8.1211    2.8266   -3.9648 H   0  0  0  0  0  0  0  0  0  0  0  0
    5.6564    3.0421   -4.2626 H   0  0  0  0  0  0  0  0  0  0  0  0
    2.0503    6.0079   -4.4554 H   0  0  0  0  0  0  0  0  0  0  0  0
    0.1896    6.8569   -3.0634 H   0  0  0  0  0  0  0  0  0  0  0  0
   -1.2490    7.4830   -1.0585 H   0  0  0  0  0  0  0  0  0  0  0  0
   -3.8104    7.2718    2.4838 H   0  0  0  0  0  0  0  0  0  0  0  0
   -6.1068    8.1197    2.1506 H   0  0  0  0  0  0  0  0  0  0  0  0
   -6.6346    9.5564    0.2151 H   0  0  0  0  0  0  0  0  0  0  0  0
   -5.9829   10.7245   -1.7435 H   0  0  0  0  0  0  0  0  0  0  0  0
   -4.6850    9.9665   -2.6774 H   0  0  0  0  0  0  0  0  0  0  0  0
   -4.3388   11.3661   -1.6230 H   0  0  0  0  0  0  0  0  0  0  0  0
   -2.5346    9.3241   -1.0924 H   0  0  0  0  0  0  0  0  0  0  0  0
    2.7362    5.8051    2.7232 H   0  0  0  0  0  0  0  0  0  0  0  0
    4.0964    6.0020    1.5765 H   0  0  0  0  0  0  0  0  0  0  0  0
    3.1791    4.4576    1.6318 H   0  0  0  0  0  0  0  0  0  0  0  0
    4.3450    5.0485   -0.9311 H   0  0  0  0  0  0  0  0  0  0  0  0
    4.8490    7.5662   -2.4618 H   0  0  0  0  0  0  0  0  0  0  0  0
    5.9782   11.3776   -1.5975 H   0  0  0  0  0  0  0  0  0  0  0  0
    7.4144   10.6324   -2.3028 H   0  0  0  0  0  0  0  0  0  0  0  0
    7.2684   10.8476   -0.5146 H   0  0  0  0  0  0  0  0  0  0  0  0
  1  2  1  0  0  0  0
  1 36  1  0  0  0  0
  1 37  1  0  0  0  0
  1 38  1  0  0  0  0
  2  3  1  0  0  0  0
  3  4  1  0  0  0  0
  3 33  2  0  0  0  0
  4  5  2  0  0  0  0
  4 39  1  0  0  0  0
  5  6  1  0  0  0  0
  5 31  1  0  0  0  0
  6  7  2  0  0  0  0
  7  8  1  0  0  0  0
  7 40  1  0  0  0  0
  8  9  2  0  0  0  0
  8 41  1  0  0  0  0
  9 10  1  0  0  0  0
  9 31  1  0  0  0  0
 10 11  1  0  0  0  0
 11 12  1  0  0  0  0
 11 30  2  0  0  0  0
 12 13  2  0  0  0  0
 12 42  1  0  0  0  0
 13 14  1  0  0  0  0
 13 43  1  0  0  0  0
 14 15  1  0  0  0  0
 14 29  2  0  0  0  0
 15 16  1  0  0  0  0
 15 26  2  0  0  0  0
 16 17  1  0  0  0  0
 16 44  1  0  0  0  0
 17 18  2  0  0  0  0
 17 19  1  0  0  0  0
 19 20  1  0  0  0  0
 19 25  2  0  0  0  0
 20 21  2  0  0  0  0
 20 45  1  0  0  0  0
 21 22  1  0  0  0  0
 21 46  1  0  0  0  0
 22 23  2  0  0  0  0
 22 47  1  0  0  0  0
 23 24  1  0  0  0  0
 23 25  1  0  0  0  0
 24 48  1  0  0  0  0
 24 49  1  0  0  0  0
 24 50  1  0  0  0  0
 25 51  1  0  0  0  0
 26 27  1  0  0  0  0
 27 28  1  0  0  0  0
 27 29  1  0  0  0  0
 28 52  1  0  0  0  0
 28 53  1  0  0  0  0
 28 54  1  0  0  0  0
 29 30  1  0  0  0  0
 30 55  1  0  0  0  0
 31 32  2  0  0  0  0
 32 33  1  0  0  0  0
 32 56  1  0  0  0  0
 33 34  1  0  0  0  0
 34 35  1  0  0  0  0
 35 57  1  0  0  0  0
 35 58  1  0  0  0  0
 35 59  1  0  0  0  0
M  END
$$$$
