CHEMBL400101
 OpenBabel04072215373D

 42 44  0  0  0  0  0  0  0  0999 V2000
    2.2858    3.2099    0.9936 C   0  0  0  0  0  0  0  0  0  0  0  0
    0.8296    2.9548    0.7488 C   0  0  0  0  0  0  0  0  0  0  0  0
    0.2659    1.7221    1.0792 C   0  0  0  0  0  0  0  0  0  0  0  0
   -1.0849    1.4730    0.8459 C   0  0  0  0  0  0  0  0  0  0  0  0
   -1.9039    2.4474    0.2722 C   0  0  0  0  0  0  0  0  0  0  0  0
   -3.2722    2.2482    0.0089 N   0  0  0  0  0  0  0  0  0  0  0  0
   -4.0209    1.1122    0.2708 C   0  0  0  0  0  0  0  0  0  0  0  0
   -3.6028    0.0600    0.7433 O   0  0  0  0  0  0  0  0  0  0  0  0
   -5.4802    1.2093    0.0022 C   0  0  0  0  0  0  0  0  0  0  0  0
   -6.3197    0.3923    0.7745 C   0  0  0  0  0  0  0  0  0  0  0  0
   -7.6949    0.4818    0.6288 C   0  0  0  0  0  0  0  0  0  0  0  0
   -8.1800    1.3910   -0.2900 C   0  0  0  0  0  0  0  0  0  0  0  0
   -7.3970    2.1931   -1.0543 N   0  0  0  0  0  0  0  0  0  0  0  0
   -6.0536    2.0980   -0.9201 C   0  0  0  0  0  0  0  0  0  0  0  0
   -5.2278    2.8806   -1.7535 N   0  0  0  0  0  0  0  0  0  0  0  0
   -5.8884    3.9713   -2.4596 C   0  0  0  0  0  0  0  0  0  0  0  0
   -4.9054    4.5605   -3.4450 C   0  0  0  0  0  0  0  0  0  0  0  0
   -4.9737    4.2338   -4.8032 C   0  0  0  0  0  0  0  0  0  0  0  0
   -4.0278    4.7669   -5.6660 C   0  0  0  0  0  0  0  0  0  0  0  0
   -3.0277    5.5836   -5.2725 N   0  0  0  0  0  0  0  0  0  0  0  0
   -2.9718    5.8809   -3.9583 C   0  0  0  0  0  0  0  0  0  0  0  0
   -3.8731    5.4025   -3.0188 C   0  0  0  0  0  0  0  0  0  0  0  0
   -1.3437    3.6892   -0.0510 C   0  0  0  0  0  0  0  0  0  0  0  0
    0.0135    3.9419    0.1857 C   0  0  0  0  0  0  0  0  0  0  0  0
    2.7755    2.3292    1.4238 H   0  0  0  0  0  0  0  0  0  0  0  0
    2.4130    4.0396    1.6952 H   0  0  0  0  0  0  0  0  0  0  0  0
    2.7911    3.4446    0.0520 H   0  0  0  0  0  0  0  0  0  0  0  0
    0.8709    0.9339    1.5210 H   0  0  0  0  0  0  0  0  0  0  0  0
   -1.4689    0.4980    1.1222 H   0  0  0  0  0  0  0  0  0  0  0  0
   -3.7720    3.0158   -0.4384 H   0  0  0  0  0  0  0  0  0  0  0  0
   -5.8968   -0.2975    1.5028 H   0  0  0  0  0  0  0  0  0  0  0  0
   -8.3608   -0.1326    1.2251 H   0  0  0  0  0  0  0  0  0  0  0  0
   -9.2496    1.5038   -0.4443 H   0  0  0  0  0  0  0  0  0  0  0  0
   -4.7596    2.2470   -2.4050 H   0  0  0  0  0  0  0  0  0  0  0  0
   -6.1840    4.7492   -1.7449 H   0  0  0  0  0  0  0  0  0  0  0  0
   -6.7889    3.6477   -2.9951 H   0  0  0  0  0  0  0  0  0  0  0  0
   -5.7456    3.5763   -5.1892 H   0  0  0  0  0  0  0  0  0  0  0  0
   -4.0469    4.5391   -6.7283 H   0  0  0  0  0  0  0  0  0  0  0  0
   -2.1527    6.5336   -3.6675 H   0  0  0  0  0  0  0  0  0  0  0  0
   -3.7664    5.6776   -1.9753 H   0  0  0  0  0  0  0  0  0  0  0  0
   -1.9513    4.4770   -0.4863 H   0  0  0  0  0  0  0  0  0  0  0  0
    0.4303    4.9124   -0.0738 H   0  0  0  0  0  0  0  0  0  0  0  0
  1  2  1  0  0  0  0
  1 25  1  0  0  0  0
  1 26  1  0  0  0  0
  1 27  1  0  0  0  0
  2  3  1  0  0  0  0
  2 24  2  0  0  0  0
  3  4  2  0  0  0  0
  3 28  1  0  0  0  0
  4  5  1  0  0  0  0
  4 29  1  0  0  0  0
  5  6  1  0  0  0  0
  5 23  2  0  0  0  0
  6  7  1  0  0  0  0
  6 30  1  0  0  0  0
  7  8  2  0  0  0  0
  7  9  1  0  0  0  0
  9 10  1  0  0  0  0
  9 14  2  0  0  0  0
 10 11  2  0  0  0  0
 10 31  1  0  0  0  0
 11 12  1  0  0  0  0
 11 32  1  0  0  0  0
 12 13  2  0  0  0  0
 12 33  1  0  0  0  0
 13 14  1  0  0  0  0
 14 15  1  0  0  0  0
 15 16  1  0  0  0  0
 15 34  1  0  0  0  0
 16 17  1  0  0  0  0
 16 35  1  0  0  0  0
 16 36  1  0  0  0  0
 17 18  1  0  0  0  0
 17 22  2  0  0  0  0
 18 19  2  0  0  0  0
 18 37  1  0  0  0  0
 19 20  1  0  0  0  0
 19 38  1  0  0  0  0
 20 21  2  0  0  0  0
 21 22  1  0  0  0  0
 21 39  1  0  0  0  0
 22 40  1  0  0  0  0
 23 24  1  0  0  0  0
 23 41  1  0  0  0  0
 24 42  1  0  0  0  0
M  END
$$$$
