CHEMBL465015
 OpenBabel04072215383D

 70 74  0  0  0  0  0  0  0  0999 V2000
    1.2659    0.6309    2.7053 C   0  0  0  0  0  0  0  0  0  0  0  0
    2.6357    0.5117    2.3120 O   0  0  0  0  0  0  0  0  0  0  0  0
    3.2638   -0.5559    2.8611 C   0  0  0  0  0  0  0  0  0  0  0  0
    2.7570   -1.3670    3.6220 O   0  0  0  0  0  0  0  0  0  0  0  0
    4.6962   -0.6079    2.4583 C   0  0  0  0  0  0  0  0  0  0  0  0
    5.3010    0.3412    1.6031 C   0  0  0  0  0  0  0  0  0  0  0  0
    6.6834    0.2977    1.3224 C   0  0  0  0  0  0  0  0  0  0  0  0
    7.4558   -0.6872    1.9178 C   0  0  0  0  0  0  0  0  0  0  0  0
    6.8229   -1.6329    2.7363 C   0  0  0  0  0  0  0  0  0  0  0  0
    5.4696   -1.6309    3.0119 C   0  0  0  0  0  0  0  0  0  0  0  0
    7.7408   -2.5109    3.2885 N   0  0  0  0  0  0  0  0  0  0  0  0
    9.0336   -2.1610    2.9505 C   0  0  0  0  0  0  0  0  0  0  0  0
   10.0313   -2.5810    3.5070 O   0  0  0  0  0  0  0  0  0  0  0  0
    8.8929   -1.0446    1.9321 C   0  0  0  0  0  0  0  0  0  0  0  0
    9.9801   -0.5552    1.2809 C   0  0  0  0  0  0  0  0  0  0  0  0
   11.2471   -1.1264    1.2336 N   0  0  0  0  0  0  0  0  0  0  0  0
   11.5198   -2.4552    0.8533 C   0  0  0  0  0  0  0  0  0  0  0  0
   10.7610   -3.0734   -0.1418 C   0  0  0  0  0  0  0  0  0  0  0  0
   10.8823   -4.4383   -0.4100 C   0  0  0  0  0  0  0  0  0  0  0  0
   11.7483   -5.2432    0.3264 C   0  0  0  0  0  0  0  0  0  0  0  0
   11.7934   -6.6523    0.1858 N   0  0  0  0  0  0  0  0  0  0  0  0
   10.9422   -7.4274   -0.5877 C   0  0  0  0  0  0  0  0  0  0  0  0
   10.1005   -7.0078   -1.3828 O   0  0  0  0  0  0  0  0  0  0  0  0
   11.1285   -8.9422   -0.4597 C   0  0  0  0  0  0  0  0  0  0  0  0
   11.6099   -9.4020    0.8642 N   0  0  0  0  0  0  0  0  0  0  0  0
   10.6406   -9.1034    1.9449 C   0  0  0  0  0  0  0  0  0  0  0  0
   11.1269   -9.6684    3.3024 C   0  0  0  0  0  0  0  0  0  0  0  0
   11.3830  -11.1217    3.3159 N   0  0  0  0  0  0  0  0  0  0  0  0
   10.1393  -11.8874    3.3450 C   0  0  0  0  0  0  0  0  0  0  0  0
   12.2269  -11.4824    2.1603 C   0  0  0  0  0  0  0  0  0  0  0  0
   11.7784  -10.8797    0.8080 C   0  0  0  0  0  0  0  0  0  0  0  0
   12.5680   -4.6236    1.2779 C   0  0  0  0  0  0  0  0  0  0  0  0
   12.4567   -3.2407    1.5352 C   0  0  0  0  0  0  0  0  0  0  0  0
    9.9015    0.7248    0.5452 C   0  0  0  0  0  0  0  0  0  0  0  0
   10.1782    1.9225    1.2165 C   0  0  0  0  0  0  0  0  0  0  0  0
   10.1527    3.1375    0.5309 C   0  0  0  0  0  0  0  0  0  0  0  0
    9.8491    3.1636   -0.8295 C   0  0  0  0  0  0  0  0  0  0  0  0
    9.5734    1.9750   -1.5063 C   0  0  0  0  0  0  0  0  0  0  0  0
    9.6005    0.7576   -0.8227 C   0  0  0  0  0  0  0  0  0  0  0  0
    0.8051    1.4165    2.1009 H   0  0  0  0  0  0  0  0  0  0  0  0
    1.2007    0.9182    3.7598 H   0  0  0  0  0  0  0  0  0  0  0  0
    0.7221   -0.3029    2.5269 H   0  0  0  0  0  0  0  0  0  0  0  0
    4.7034    1.1371    1.1615 H   0  0  0  0  0  0  0  0  0  0  0  0
    7.1155    1.0493    0.6706 H   0  0  0  0  0  0  0  0  0  0  0  0
    5.0312   -2.3773    3.6672 H   0  0  0  0  0  0  0  0  0  0  0  0
    7.5419   -3.1994    3.9976 H   0  0  0  0  0  0  0  0  0  0  0  0
   11.9837   -0.6193    1.7104 H   0  0  0  0  0  0  0  0  0  0  0  0
   10.0505   -2.4957   -0.7253 H   0  0  0  0  0  0  0  0  0  0  0  0
   10.2495   -4.8358   -1.1949 H   0  0  0  0  0  0  0  0  0  0  0  0
   12.4057   -7.1752    0.8052 H   0  0  0  0  0  0  0  0  0  0  0  0
   11.8525   -9.2244   -1.2341 H   0  0  0  0  0  0  0  0  0  0  0  0
   10.1674   -9.4143   -0.7033 H   0  0  0  0  0  0  0  0  0  0  0  0
    9.6484   -9.5071    1.7051 H   0  0  0  0  0  0  0  0  0  0  0  0
   10.5237   -8.0217    2.0654 H   0  0  0  0  0  0  0  0  0  0  0  0
   10.4119   -9.4019    4.0899 H   0  0  0  0  0  0  0  0  0  0  0  0
   12.0632   -9.1611    3.5723 H   0  0  0  0  0  0  0  0  0  0  0  0
    9.5452  -11.6147    4.2245 H   0  0  0  0  0  0  0  0  0  0  0  0
   10.3540  -12.9578    3.4387 H   0  0  0  0  0  0  0  0  0  0  0  0
    9.5176  -11.7408    2.4560 H   0  0  0  0  0  0  0  0  0  0  0  0
   12.3004  -12.5738    2.0697 H   0  0  0  0  0  0  0  0  0  0  0  0
   13.2475  -11.1353    2.3673 H   0  0  0  0  0  0  0  0  0  0  0  0
   10.8401  -11.3610    0.4966 H   0  0  0  0  0  0  0  0  0  0  0  0
   12.5318  -11.1344    0.0527 H   0  0  0  0  0  0  0  0  0  0  0  0
   13.2719   -5.2043    1.8691 H   0  0  0  0  0  0  0  0  0  0  0  0
   13.0596   -2.8021    2.3265 H   0  0  0  0  0  0  0  0  0  0  0  0
   10.4325    1.9118    2.2745 H   0  0  0  0  0  0  0  0  0  0  0  0
   10.3841    4.0618    1.0550 H   0  0  0  0  0  0  0  0  0  0  0  0
    9.8397    4.1092   -1.3642 H   0  0  0  0  0  0  0  0  0  0  0  0
    9.3465    1.9971   -2.5692 H   0  0  0  0  0  0  0  0  0  0  0  0
    9.4030   -0.1629   -1.3657 H   0  0  0  0  0  0  0  0  0  0  0  0
  1  2  1  0  0  0  0
  1 40  1  0  0  0  0
  1 41  1  0  0  0  0
  1 42  1  0  0  0  0
  2  3  1  0  0  0  0
  3  4  2  0  0  0  0
  3  5  1  0  0  0  0
  5  6  1  0  0  0  0
  5 10  2  0  0  0  0
  6  7  2  0  0  0  0
  6 43  1  0  0  0  0
  7  8  1  0  0  0  0
  7 44  1  0  0  0  0
  8  9  2  0  0  0  0
  8 14  1  0  0  0  0
  9 10  1  0  0  0  0
  9 11  1  0  0  0  0
 10 45  1  0  0  0  0
 11 12  1  0  0  0  0
 11 46  1  0  0  0  0
 12 13  2  0  0  0  0
 12 14  1  0  0  0  0
 14 15  2  0  0  0  0
 15 16  1  0  0  0  0
 15 34  1  0  0  0  0
 16 17  1  0  0  0  0
 16 47  1  0  0  0  0
 17 18  1  0  0  0  0
 17 33  2  0  0  0  0
 18 19  2  0  0  0  0
 18 48  1  0  0  0  0
 19 20  1  0  0  0  0
 19 49  1  0  0  0  0
 20 21  1  0  0  0  0
 20 32  2  0  0  0  0
 21 22  1  0  0  0  0
 21 50  1  0  0  0  0
 22 23  2  0  0  0  0
 22 24  1  0  0  0  0
 24 25  1  0  0  0  0
 24 51  1  0  0  0  0
 24 52  1  0  0  0  0
 25 26  1  0  0  0  0
 25 31  1  0  0  0  0
 26 27  1  0  0  0  0
 26 53  1  0  0  0  0
 26 54  1  0  0  0  0
 27 28  1  0  0  0  0
 27 55  1  0  0  0  0
 27 56  1  0  0  0  0
 28 29  1  0  0  0  0
 28 30  1  0  0  0  0
 29 57  1  0  0  0  0
 29 58  1  0  0  0  0
 29 59  1  0  0  0  0
 30 31  1  0  0  0  0
 30 60  1  0  0  0  0
 30 61  1  0  0  0  0
 31 62  1  0  0  0  0
 31 63  1  0  0  0  0
 32 33  1  0  0  0  0
 32 64  1  0  0  0  0
 33 65  1  0  0  0  0
 34 35  1  0  0  0  0
 34 39  2  0  0  0  0
 35 36  2  0  0  0  0
 35 66  1  0  0  0  0
 36 37  1  0  0  0  0
 36 67  1  0  0  0  0
 37 38  2  0  0  0  0
 37 68  1  0  0  0  0
 38 39  1  0  0  0  0
 38 69  1  0  0  0  0
 39 70  1  0  0  0  0
M  END
$$$$
