CHEMBL363764
 OpenBabel04072215373D

 45 47  0  0  0  0  0  0  0  0999 V2000
    3.2514   -1.2895   -1.8196 C   0  0  0  0  0  0  0  0  0  0  0  0
    4.4260   -0.9791   -1.0794 O   0  0  0  0  0  0  0  0  0  0  0  0
    5.0965    0.1569   -1.6222 C   0  0  0  0  0  0  0  0  0  0  0  0
    6.3296    0.4472   -0.7856 C   0  0  0  0  0  0  0  0  0  0  0  0
    7.1050    1.5971   -1.3820 C   0  0  0  0  0  0  0  0  0  0  0  0
    8.1948    1.3990   -1.9111 O   0  0  0  0  0  0  0  0  0  0  0  0
    6.4669    2.8249   -1.2827 N   0  0  0  0  0  0  0  0  0  0  0  0
    6.8923    4.0204   -1.9086 C   0  0  0  0  0  0  0  0  0  0  0  0
    7.8800    4.0722   -2.8897 C   0  0  0  0  0  0  0  0  0  0  0  0
    8.2876    5.2078   -3.5007 N   0  0  0  0  0  0  0  0  0  0  0  0
    7.6961    6.3553   -3.1055 C   0  0  0  0  0  0  0  0  0  0  0  0
    6.6824    6.4485   -2.1520 C   0  0  0  0  0  0  0  0  0  0  0  0
    6.1218    7.7534   -1.7635 C   0  0  0  0  0  0  0  0  0  0  0  0
    6.0381    8.8452   -2.6252 C   0  0  0  0  0  0  0  0  0  0  0  0
    5.6206   10.0704   -2.2346 N   0  0  0  0  0  0  0  0  0  0  0  0
    5.2694   10.1591   -0.9305 C   0  0  0  0  0  0  0  0  0  0  0  0
    5.3056    9.0857   -0.0348 C   0  0  0  0  0  0  0  0  0  0  0  0
    4.8073    9.2668    1.2701 N   0  0  0  0  0  0  0  0  0  0  0  0
    4.4590    8.3364    2.2620 C   0  0  0  0  0  0  0  0  0  0  0  0
    3.6408    8.7627    3.3216 C   0  0  0  0  0  0  0  0  0  0  0  0
    3.1263    7.8578    4.2539 C   0  0  0  0  0  0  0  0  0  0  0  0
    3.4235    6.5027    4.1438 C   0  0  0  0  0  0  0  0  0  0  0  0
    4.2586    6.0691    3.1194 C   0  0  0  0  0  0  0  0  0  0  0  0
    4.6268    4.3917    2.9626 Cl  0  0  0  0  0  0  0  0  0  0  0  0
    4.7761    6.9762    2.1950 C   0  0  0  0  0  0  0  0  0  0  0  0
    5.7275    7.8753   -0.4699 N   0  0  0  0  0  0  0  0  0  0  0  0
    6.2794    5.2336   -1.5594 C   0  0  0  0  0  0  0  0  0  0  0  0
    2.7852   -2.1725   -1.3752 H   0  0  0  0  0  0  0  0  0  0  0  0
    3.5005   -1.5106   -2.8621 H   0  0  0  0  0  0  0  0  0  0  0  0
    2.5429   -0.4570   -1.7708 H   0  0  0  0  0  0  0  0  0  0  0  0
    4.4149    1.0151   -1.6106 H   0  0  0  0  0  0  0  0  0  0  0  0
    5.3806   -0.0447   -2.6623 H   0  0  0  0  0  0  0  0  0  0  0  0
    6.9786   -0.4375   -0.7581 H   0  0  0  0  0  0  0  0  0  0  0  0
    6.0684    0.6649    0.2554 H   0  0  0  0  0  0  0  0  0  0  0  0
    5.6831    2.8965   -0.6427 H   0  0  0  0  0  0  0  0  0  0  0  0
    8.3914    3.1872   -3.2517 H   0  0  0  0  0  0  0  0  0  0  0  0
    8.1072    7.2357   -3.5916 H   0  0  0  0  0  0  0  0  0  0  0  0
    6.3078    8.7753   -3.6741 H   0  0  0  0  0  0  0  0  0  0  0  0
    4.9303   11.1419   -0.6200 H   0  0  0  0  0  0  0  0  0  0  0  0
    4.6912   10.2344    1.5407 H   0  0  0  0  0  0  0  0  0  0  0  0
    3.3674    9.8123    3.4121 H   0  0  0  0  0  0  0  0  0  0  0  0
    2.4742    8.2105    5.0501 H   0  0  0  0  0  0  0  0  0  0  0  0
    3.0029    5.7945    4.8517 H   0  0  0  0  0  0  0  0  0  0  0  0
    5.4324    6.5975    1.4194 H   0  0  0  0  0  0  0  0  0  0  0  0
    5.4976    5.2495   -0.8019 H   0  0  0  0  0  0  0  0  0  0  0  0
  1  2  1  0  0  0  0
  1 28  1  0  0  0  0
  1 29  1  0  0  0  0
  1 30  1  0  0  0  0
  2  3  1  0  0  0  0
  3  4  1  0  0  0  0
  3 31  1  0  0  0  0
  3 32  1  0  0  0  0
  4  5  1  0  0  0  0
  4 33  1  0  0  0  0
  4 34  1  0  0  0  0
  5  6  2  0  0  0  0
  5  7  1  0  0  0  0
  7  8  1  0  0  0  0
  7 35  1  0  0  0  0
  8  9  1  0  0  0  0
  8 27  2  0  0  0  0
  9 10  2  0  0  0  0
  9 36  1  0  0  0  0
 10 11  1  0  0  0  0
 11 12  2  0  0  0  0
 11 37  1  0  0  0  0
 12 13  1  0  0  0  0
 12 27  1  0  0  0  0
 13 14  1  0  0  0  0
 13 26  2  0  0  0  0
 14 15  2  0  0  0  0
 14 38  1  0  0  0  0
 15 16  1  0  0  0  0
 16 17  2  0  0  0  0
 16 39  1  0  0  0  0
 17 18  1  0  0  0  0
 17 26  1  0  0  0  0
 18 19  1  0  0  0  0
 18 40  1  0  0  0  0
 19 20  1  0  0  0  0
 19 25  2  0  0  0  0
 20 21  2  0  0  0  0
 20 41  1  0  0  0  0
 21 22  1  0  0  0  0
 21 42  1  0  0  0  0
 22 23  2  0  0  0  0
 22 43  1  0  0  0  0
 23 24  1  0  0  0  0
 23 25  1  0  0  0  0
 25 44  1  0  0  0  0
 27 45  1  0  0  0  0
M  END
$$$$
