CHEMBL318263
 OpenBabel04072215363D

 46 49  0  0  0  0  0  0  0  0999 V2000
    1.1439   -0.2855   -0.8230 C   0  0  0  0  0  0  0  0  0  0  0  0
    2.5693   -0.1973   -0.4810 N   0  0  0  0  0  0  0  0  0  0  0  0
    3.2926   -1.2944   -1.1273 C   0  0  0  0  0  0  0  0  0  0  0  0
    3.0960    1.1286   -0.8727 C   0  0  0  0  0  0  0  0  0  0  0  0
    4.5638    1.3816   -0.4788 C   0  0  0  0  0  0  0  0  0  0  0  0
    5.0278    2.7066   -0.8769 N   0  0  0  0  0  0  0  0  0  0  0  0
    4.4993    3.8729   -0.3842 C   0  0  0  0  0  0  0  0  0  0  0  0
    5.0927    4.9385   -1.0320 C   0  0  0  0  0  0  0  0  0  0  0  0
    4.6928    6.3196   -0.7972 C   0  0  0  0  0  0  0  0  0  0  0  0
    5.5941    7.3766   -0.8824 C   0  0  0  0  0  0  0  0  0  0  0  0
    5.2642    8.6810   -0.7182 N   0  0  0  0  0  0  0  0  0  0  0  0
    3.9676    8.9442   -0.4292 C   0  0  0  0  0  0  0  0  0  0  0  0
    2.9793    7.9740   -0.2848 C   0  0  0  0  0  0  0  0  0  0  0  0
    1.6106    8.3295    0.0826 C   0  0  0  0  0  0  0  0  0  0  0  0
    1.1930    9.4435    0.8852 C   0  0  0  0  0  0  0  0  0  0  0  0
   -0.1712    9.4842    1.0718 C   0  0  0  0  0  0  0  0  0  0  0  0
   -0.9650    8.1928    0.2846 S   0  0  0  0  0  0  0  0  0  0  0  0
    0.5164    7.5812   -0.3150 C   0  0  0  0  0  0  0  0  0  0  0  0
    3.3682    6.6426   -0.4831 C   0  0  0  0  0  0  0  0  0  0  0  0
    6.0902    4.3861   -1.9027 C   0  0  0  0  0  0  0  0  0  0  0  0
    7.0264    4.9404   -2.8072 C   0  0  0  0  0  0  0  0  0  0  0  0
    7.9052    4.1080   -3.5036 C   0  0  0  0  0  0  0  0  0  0  0  0
    7.8505    2.7319   -3.3385 C   0  0  0  0  0  0  0  0  0  0  0  0
    6.9136    2.1484   -2.4826 C   0  0  0  0  0  0  0  0  0  0  0  0
    6.0408    2.9904   -1.7701 C   0  0  0  0  0  0  0  0  0  0  0  0
    0.7279   -1.2474   -0.5019 H   0  0  0  0  0  0  0  0  0  0  0  0
    0.9708   -0.1790   -1.9005 H   0  0  0  0  0  0  0  0  0  0  0  0
    0.5714    0.4904   -0.3027 H   0  0  0  0  0  0  0  0  0  0  0  0
    2.8409   -2.2594   -0.8702 H   0  0  0  0  0  0  0  0  0  0  0  0
    4.3257   -1.3467   -0.7715 H   0  0  0  0  0  0  0  0  0  0  0  0
    3.3000   -1.1979   -2.2186 H   0  0  0  0  0  0  0  0  0  0  0  0
    2.4790    1.8894   -0.3754 H   0  0  0  0  0  0  0  0  0  0  0  0
    2.9711    1.2885   -1.9522 H   0  0  0  0  0  0  0  0  0  0  0  0
    5.2224    0.6465   -0.9466 H   0  0  0  0  0  0  0  0  0  0  0  0
    4.6991    1.3111    0.6063 H   0  0  0  0  0  0  0  0  0  0  0  0
    3.7248    3.8442    0.3717 H   0  0  0  0  0  0  0  0  0  0  0  0
    6.6488    7.2120   -1.0786 H   0  0  0  0  0  0  0  0  0  0  0  0
    3.7454   10.0014   -0.3180 H   0  0  0  0  0  0  0  0  0  0  0  0
    1.8593   10.1771    1.3230 H   0  0  0  0  0  0  0  0  0  0  0  0
   -0.7406   10.2073    1.6387 H   0  0  0  0  0  0  0  0  0  0  0  0
    0.4962    6.6933   -0.9320 H   0  0  0  0  0  0  0  0  0  0  0  0
    2.6341    5.8476   -0.3841 H   0  0  0  0  0  0  0  0  0  0  0  0
    7.0792    6.0120   -2.9688 H   0  0  0  0  0  0  0  0  0  0  0  0
    8.6377    4.5471   -4.1790 H   0  0  0  0  0  0  0  0  0  0  0  0
    8.5443    2.0975   -3.8870 H   0  0  0  0  0  0  0  0  0  0  0  0
    6.8811    1.0695   -2.3760 H   0  0  0  0  0  0  0  0  0  0  0  0
  1  2  1  0  0  0  0
  1 26  1  0  0  0  0
  1 27  1  0  0  0  0
  1 28  1  0  0  0  0
  2  3  1  0  0  0  0
  2  4  1  0  0  0  0
  3 29  1  0  0  0  0
  3 30  1  0  0  0  0
  3 31  1  0  0  0  0
  4  5  1  0  0  0  0
  4 32  1  0  0  0  0
  4 33  1  0  0  0  0
  5  6  1  0  0  0  0
  5 34  1  0  0  0  0
  5 35  1  0  0  0  0
  6  7  1  0  0  0  0
  6 25  1  0  0  0  0
  7  8  2  0  0  0  0
  7 36  1  0  0  0  0
  8  9  1  0  0  0  0
  8 20  1  0  0  0  0
  9 10  1  0  0  0  0
  9 19  2  0  0  0  0
 10 11  2  0  0  0  0
 10 37  1  0  0  0  0
 11 12  1  0  0  0  0
 12 13  2  0  0  0  0
 12 38  1  0  0  0  0
 13 14  1  0  0  0  0
 13 19  1  0  0  0  0
 14 15  1  0  0  0  0
 14 18  2  0  0  0  0
 15 16  2  0  0  0  0
 15 39  1  0  0  0  0
 16 17  1  0  0  0  0
 16 40  1  0  0  0  0
 17 18  1  0  0  0  0
 18 41  1  0  0  0  0
 19 42  1  0  0  0  0
 20 21  1  0  0  0  0
 20 25  2  0  0  0  0
 21 22  2  0  0  0  0
 21 43  1  0  0  0  0
 22 23  1  0  0  0  0
 22 44  1  0  0  0  0
 23 24  2  0  0  0  0
 23 45  1  0  0  0  0
 24 25  1  0  0  0  0
 24 46  1  0  0  0  0
M  END
$$$$
