CHEMBL185477
 OpenBabel04072215363D

 43 46  0  0  0  0  0  0  0  0999 V2000
    2.5599    0.2224    1.3520 O   0  0  0  0  0  0  0  0  0  0  0  0
    2.2039   -0.3555    0.3314 C   0  0  0  0  0  0  0  0  0  0  0  0
    0.8884   -0.5182   -0.0592 N   0  0  0  0  0  0  0  0  0  0  0  0
   -0.2550   -0.1020    0.6742 C   0  0  0  0  0  0  0  0  0  0  0  0
   -0.1987    0.7134    1.8037 C   0  0  0  0  0  0  0  0  0  0  0  0
   -1.3518    1.0201    2.5260 C   0  0  0  0  0  0  0  0  0  0  0  0
   -2.5830    0.5161    2.1144 C   0  0  0  0  0  0  0  0  0  0  0  0
   -2.6545   -0.2789    0.9734 C   0  0  0  0  0  0  0  0  0  0  0  0
   -1.4975   -0.5851    0.2498 C   0  0  0  0  0  0  0  0  0  0  0  0
    3.0798   -0.9617   -0.5529 N   0  0  0  0  0  0  0  0  0  0  0  0
    4.4708   -1.1155   -0.3708 C   0  0  0  0  0  0  0  0  0  0  0  0
    5.1216   -0.8543    0.8380 C   0  0  0  0  0  0  0  0  0  0  0  0
    6.5104   -0.9663    0.9544 C   0  0  0  0  0  0  0  0  0  0  0  0
    7.2974   -1.3028   -0.1487 C   0  0  0  0  0  0  0  0  0  0  0  0
    8.7601   -1.1160   -0.1491 C   0  0  0  0  0  0  0  0  0  0  0  0
    9.6269   -2.0348   -0.7795 C   0  0  0  0  0  0  0  0  0  0  0  0
   10.9566   -1.7006   -1.1122 C   0  0  0  0  0  0  0  0  0  0  0  0
   11.4277   -0.4085   -0.9000 C   0  0  0  0  0  0  0  0  0  0  0  0
   10.5707    0.4742   -0.2741 C   0  0  0  0  0  0  0  0  0  0  0  0
    9.3115    0.1127    0.2058 C   0  0  0  0  0  0  0  0  0  0  0  0
    8.7152    1.3102    0.8649 C   0  0  0  0  0  0  0  0  0  0  0  0
    9.4024    2.3973    0.2125 N   0  0  0  0  0  0  0  0  0  0  0  0
   10.5706    1.9435   -0.3797 C   0  0  0  0  0  0  0  0  0  0  0  0
   11.3605    2.5952   -1.0310 O   0  0  0  0  0  0  0  0  0  0  0  0
    6.6318   -1.6357   -1.3449 C   0  0  0  0  0  0  0  0  0  0  0  0
    5.2370   -1.5529   -1.4519 C   0  0  0  0  0  0  0  0  0  0  0  0
    0.7186   -1.1162   -0.8524 H   0  0  0  0  0  0  0  0  0  0  0  0
    0.7367    1.1418    2.1624 H   0  0  0  0  0  0  0  0  0  0  0  0
   -1.2859    1.6491    3.4096 H   0  0  0  0  0  0  0  0  0  0  0  0
   -3.4800    0.7399    2.6846 H   0  0  0  0  0  0  0  0  0  0  0  0
   -3.6147   -0.6756    0.6524 H   0  0  0  0  0  0  0  0  0  0  0  0
   -1.5839   -1.2191   -0.6264 H   0  0  0  0  0  0  0  0  0  0  0  0
    2.7212   -1.1751   -1.4764 H   0  0  0  0  0  0  0  0  0  0  0  0
    4.5811   -0.5279    1.7198 H   0  0  0  0  0  0  0  0  0  0  0  0
    6.9664   -0.7118    1.9084 H   0  0  0  0  0  0  0  0  0  0  0  0
    9.2466   -3.0038   -1.0991 H   0  0  0  0  0  0  0  0  0  0  0  0
   11.5770   -2.4208   -1.6415 H   0  0  0  0  0  0  0  0  0  0  0  0
   12.3843   -0.0755   -1.2875 H   0  0  0  0  0  0  0  0  0  0  0  0
    9.0065    1.3342    1.9209 H   0  0  0  0  0  0  0  0  0  0  0  0
    7.6357    1.4405    0.7741 H   0  0  0  0  0  0  0  0  0  0  0  0
    8.8760    3.0156   -0.3874 H   0  0  0  0  0  0  0  0  0  0  0  0
    7.2025   -1.8945   -2.2341 H   0  0  0  0  0  0  0  0  0  0  0  0
    4.7773   -1.7831   -2.4107 H   0  0  0  0  0  0  0  0  0  0  0  0
  1  2  2  0  0  0  0
  2  3  1  0  0  0  0
  2 10  1  0  0  0  0
  3  4  1  0  0  0  0
  3 27  1  0  0  0  0
  4  5  1  0  0  0  0
  4  9  2  0  0  0  0
  5  6  2  0  0  0  0
  5 28  1  0  0  0  0
  6  7  1  0  0  0  0
  6 29  1  0  0  0  0
  7  8  2  0  0  0  0
  7 30  1  0  0  0  0
  8  9  1  0  0  0  0
  8 31  1  0  0  0  0
  9 32  1  0  0  0  0
 10 11  1  0  0  0  0
 10 33  1  0  0  0  0
 11 12  1  0  0  0  0
 11 26  2  0  0  0  0
 12 13  2  0  0  0  0
 12 34  1  0  0  0  0
 13 14  1  0  0  0  0
 13 35  1  0  0  0  0
 14 15  1  0  0  0  0
 14 25  2  0  0  0  0
 15 16  1  0  0  0  0
 15 20  2  0  0  0  0
 16 17  2  0  0  0  0
 16 36  1  0  0  0  0
 17 18  1  0  0  0  0
 17 37  1  0  0  0  0
 18 19  2  0  0  0  0
 18 38  1  0  0  0  0
 19 20  1  0  0  0  0
 19 23  1  0  0  0  0
 20 21  1  0  0  0  0
 21 22  1  0  0  0  0
 21 39  1  0  0  0  0
 21 40  1  0  0  0  0
 22 23  1  0  0  0  0
 22 41  1  0  0  0  0
 23 24  2  0  0  0  0
 25 26  1  0  0  0  0
 25 42  1  0  0  0  0
 26 43  1  0  0  0  0
M  END
$$$$
