CHEMBL225319
 OpenBabel04072215363D

 63 68  0  0  0  0  0  0  0  0999 V2000
    1.8213    0.0660   -1.2148 C   0  0  0  0  0  0  0  0  0  0  0  0
    0.3752    0.2476   -1.1659 N   0  0  0  0  0  0  0  0  0  0  0  0
   -0.3047   -0.9969   -0.7748 C   0  0  0  0  0  0  0  0  0  0  0  0
   -1.8362   -0.7920   -0.7351 C   0  0  0  0  0  0  0  0  0  0  0  0
   -2.2814    0.2422    0.2255 N   0  0  0  0  0  0  0  0  0  0  0  0
   -2.0615   -0.1211    1.6388 C   0  0  0  0  0  0  0  0  0  0  0  0
   -2.7681   -1.3907    2.0836 C   0  0  0  0  0  0  0  0  0  0  0  0
   -2.1112   -2.6445    1.9560 C   0  0  0  0  0  0  0  0  0  0  0  0
   -2.7375   -3.8492    2.2799 C   0  0  0  0  0  0  0  0  0  0  0  0
   -4.0067   -3.7684    2.7897 C   0  0  0  0  0  0  0  0  0  0  0  0
   -4.6771   -2.5280    2.9867 C   0  0  0  0  0  0  0  0  0  0  0  0
   -4.0701   -1.3383    2.6123 C   0  0  0  0  0  0  0  0  0  0  0  0
   -6.0597   -2.6918    3.6452 C   0  0  0  0  0  0  0  0  0  0  0  0
   -6.0551   -4.1796    3.7348 C   0  0  0  0  0  0  0  0  0  0  0  0
   -6.8376   -5.2550    4.1617 C   0  0  0  0  0  0  0  0  0  0  0  0
   -8.1470   -5.1240    4.8025 C   0  0  0  0  0  0  0  0  0  0  0  0
   -8.5759   -4.0314    5.5251 C   0  0  0  0  0  0  0  0  0  0  0  0
  -10.1678   -4.2226    6.1094 S   0  0  0  0  0  0  0  0  0  0  0  0
  -10.2902   -5.7801    5.4151 C   0  0  0  0  0  0  0  0  0  0  0  0
  -11.4676   -6.5674    5.5322 C   0  0  0  0  0  0  0  0  0  0  0  0
  -12.5618   -7.2633    5.6681 C   0  0  0  0  0  0  0  0  0  0  0  0
  -13.8374   -8.0747    5.8264 C   0  0  0  0  0  0  0  0  0  0  0  0
  -13.6648   -9.0382    6.8622 O   0  0  0  0  0  0  0  0  0  0  0  0
  -14.7440   -9.8422    7.1170 C   0  0  0  0  0  0  0  0  0  0  0  0
  -15.9679   -9.7950    6.4410 C   0  0  0  0  0  0  0  0  0  0  0  0
  -17.0063  -10.6593    6.7971 C   0  0  0  0  0  0  0  0  0  0  0  0
  -16.8287  -11.5707    7.8331 C   0  0  0  0  0  0  0  0  0  0  0  0
  -15.6086  -11.6243    8.5041 C   0  0  0  0  0  0  0  0  0  0  0  0
  -15.3952  -12.7518    9.7870 Cl  0  0  0  0  0  0  0  0  0  0  0  0
  -14.5668  -10.7686    8.1468 C   0  0  0  0  0  0  0  0  0  0  0  0
   -9.1409   -6.1489    4.7539 C   0  0  0  0  0  0  0  0  0  0  0  0
   -6.2377   -6.4318    3.9067 N   0  0  0  0  0  0  0  0  0  0  0  0
   -5.0399   -6.0882    3.3536 N   0  0  0  0  0  0  0  0  0  0  0  0
   -4.9142   -4.7551    3.2485 C   0  0  0  0  0  0  0  0  0  0  0  0
   -1.5510    1.4911   -0.1128 C   0  0  0  0  0  0  0  0  0  0  0  0
   -0.0093    1.3407   -0.2522 C   0  0  0  0  0  0  0  0  0  0  0  0
    2.0824   -0.7438   -1.9058 H   0  0  0  0  0  0  0  0  0  0  0  0
    2.2468   -0.1711   -0.2334 H   0  0  0  0  0  0  0  0  0  0  0  0
    2.3063    0.9711   -1.5955 H   0  0  0  0  0  0  0  0  0  0  0  0
    0.0642   -1.3398    0.1994 H   0  0  0  0  0  0  0  0  0  0  0  0
   -0.0803   -1.7912   -1.4961 H   0  0  0  0  0  0  0  0  0  0  0  0
   -2.3463   -1.7439   -0.5627 H   0  0  0  0  0  0  0  0  0  0  0  0
   -2.1682   -0.4884   -1.7386 H   0  0  0  0  0  0  0  0  0  0  0  0
   -2.4405    0.6990    2.2671 H   0  0  0  0  0  0  0  0  0  0  0  0
   -0.9997   -0.2079    1.8906 H   0  0  0  0  0  0  0  0  0  0  0  0
   -1.0935   -2.6822    1.5772 H   0  0  0  0  0  0  0  0  0  0  0  0
   -2.2308   -4.7963    2.1421 H   0  0  0  0  0  0  0  0  0  0  0  0
   -4.5862   -0.3908    2.7328 H   0  0  0  0  0  0  0  0  0  0  0  0
   -6.8570   -2.3183    2.9982 H   0  0  0  0  0  0  0  0  0  0  0  0
   -6.0681   -2.2195    4.6319 H   0  0  0  0  0  0  0  0  0  0  0  0
   -8.0340   -3.1251    5.7525 H   0  0  0  0  0  0  0  0  0  0  0  0
  -14.0338   -8.5741    4.8701 H   0  0  0  0  0  0  0  0  0  0  0  0
  -14.6508   -7.3818    6.0723 H   0  0  0  0  0  0  0  0  0  0  0  0
  -16.1526   -9.0972    5.6309 H   0  0  0  0  0  0  0  0  0  0  0  0
  -17.9523  -10.6133    6.2641 H   0  0  0  0  0  0  0  0  0  0  0  0
  -17.6425  -12.2356    8.1120 H   0  0  0  0  0  0  0  0  0  0  0  0
  -13.6148  -10.8186    8.6709 H   0  0  0  0  0  0  0  0  0  0  0  0
   -9.0160   -7.1004    4.2477 H   0  0  0  0  0  0  0  0  0  0  0  0
   -4.3959   -6.8265    3.0825 H   0  0  0  0  0  0  0  0  0  0  0  0
   -1.7803    2.2759    0.6186 H   0  0  0  0  0  0  0  0  0  0  0  0
   -1.9456    1.8598   -1.0697 H   0  0  0  0  0  0  0  0  0  0  0  0
    0.4281    1.1804    0.7422 H   0  0  0  0  0  0  0  0  0  0  0  0
    0.3947    2.2863   -0.6322 H   0  0  0  0  0  0  0  0  0  0  0  0
  1  2  1  0  0  0  0
  1 37  1  0  0  0  0
  1 38  1  0  0  0  0
  1 39  1  0  0  0  0
  2  3  1  0  0  0  0
  2 36  1  0  0  0  0
  3  4  1  0  0  0  0
  3 40  1  0  0  0  0
  3 41  1  0  0  0  0
  4  5  1  0  0  0  0
  4 42  1  0  0  0  0
  4 43  1  0  0  0  0
  5  6  1  0  0  0  0
  5 35  1  0  0  0  0
  6  7  1  0  0  0  0
  6 44  1  0  0  0  0
  6 45  1  0  0  0  0
  7  8  1  0  0  0  0
  7 12  2  0  0  0  0
  8  9  2  0  0  0  0
  8 46  1  0  0  0  0
  9 10  1  0  0  0  0
  9 47  1  0  0  0  0
 10 11  2  0  0  0  0
 10 34  1  0  0  0  0
 11 12  1  0  0  0  0
 11 13  1  0  0  0  0
 12 48  1  0  0  0  0
 13 14  1  0  0  0  0
 13 49  1  0  0  0  0
 13 50  1  0  0  0  0
 14 15  1  0  0  0  0
 14 34  2  0  0  0  0
 15 16  1  0  0  0  0
 15 32  2  0  0  0  0
 16 17  2  0  0  0  0
 16 31  1  0  0  0  0
 17 18  1  0  0  0  0
 17 51  1  0  0  0  0
 18 19  1  0  0  0  0
 19 20  1  0  0  0  0
 19 31  2  0  0  0  0
 20 21  3  0  0  0  0
 21 22  1  0  0  0  0
 22 23  1  0  0  0  0
 22 52  1  0  0  0  0
 22 53  1  0  0  0  0
 23 24  1  0  0  0  0
 24 25  1  0  0  0  0
 24 30  2  0  0  0  0
 25 26  2  0  0  0  0
 25 54  1  0  0  0  0
 26 27  1  0  0  0  0
 26 55  1  0  0  0  0
 27 28  2  0  0  0  0
 27 56  1  0  0  0  0
 28 29  1  0  0  0  0
 28 30  1  0  0  0  0
 30 57  1  0  0  0  0
 31 58  1  0  0  0  0
 32 33  1  0  0  0  0
 33 34  1  0  0  0  0
 33 59  1  0  0  0  0
 35 36  1  0  0  0  0
 35 60  1  0  0  0  0
 35 61  1  0  0  0  0
 36 62  1  0  0  0  0
 36 63  1  0  0  0  0
M  END
$$$$
