CHEMBL3976053
 OpenBabel04072215373D

 61 64  0  0  0  0  0  0  0  0999 V2000
    5.3213   -1.1102    3.6051 C   0  0  0  0  0  0  0  0  0  0  0  0
    5.8789   -0.0495    2.8171 N   0  0  0  0  0  0  0  0  0  0  0  0
    7.1942    0.3334    2.9316 C   0  0  0  0  0  0  0  0  0  0  0  0
    8.0052   -0.2718    3.6300 O   0  0  0  0  0  0  0  0  0  0  0  0
    7.6242    1.5023    2.0693 C   0  0  0  0  0  0  0  0  0  0  0  0
    6.5933    2.5148    1.9320 N   0  0  0  0  0  0  0  0  0  0  0  0
    6.6673    3.8094    2.3490 C   0  0  0  0  0  0  0  0  0  0  0  0
    5.5322    4.4316    1.8769 C   0  0  0  0  0  0  0  0  0  0  0  0
    5.2715    5.8492    1.9906 C   0  0  0  0  0  0  0  0  0  0  0  0
    3.9687    6.3356    2.0621 C   0  0  0  0  0  0  0  0  0  0  0  0
    3.7489    7.7121    2.1313 C   0  0  0  0  0  0  0  0  0  0  0  0
    4.8091    8.6139    2.1314 C   0  0  0  0  0  0  0  0  0  0  0  0
    4.5726    9.9338    2.1966 N   0  0  0  0  0  0  0  0  0  0  0  0
    5.6708   10.7332    2.1946 C   0  0  0  0  0  0  0  0  0  0  0  0
    6.9958   10.2756    2.1373 C   0  0  0  0  0  0  0  0  0  0  0  0
    8.0656   11.1876    2.2118 N   0  0  0  0  0  0  0  0  0  0  0  0
    9.3998   10.8677    1.6161 C   0  0  0  0  0  0  0  0  0  0  0  0
    9.5525    9.5842    0.7773 C   0  0  0  0  0  0  0  0  0  0  0  0
   10.8851    9.4522    0.1609 N   0  0  0  0  0  0  0  0  0  0  0  0
    8.1578   12.2171    3.2064 C   0  0  0  0  0  0  0  0  0  0  0  0
    7.5204   12.0776    4.4564 C   0  0  0  0  0  0  0  0  0  0  0  0
    7.6223   13.0665    5.4385 C   0  0  0  0  0  0  0  0  0  0  0  0
    7.0627   13.0249    6.6873 O   0  0  0  0  0  0  0  0  0  0  0  0
    6.3144   11.8640    7.0242 C   0  0  0  0  0  0  0  0  0  0  0  0
    8.3681   14.2178    5.1841 C   0  0  0  0  0  0  0  0  0  0  0  0
    9.0226   14.3790    3.9667 C   0  0  0  0  0  0  0  0  0  0  0  0
    9.8146   15.4390    3.6169 O   0  0  0  0  0  0  0  0  0  0  0  0
    9.9792   16.4639    4.5902 C   0  0  0  0  0  0  0  0  0  0  0  0
    8.9025   13.3882    2.9862 C   0  0  0  0  0  0  0  0  0  0  0  0
    7.2004    8.9455    2.0556 N   0  0  0  0  0  0  0  0  0  0  0  0
    6.1300    8.1261    2.0576 C   0  0  0  0  0  0  0  0  0  0  0  0
    6.3388    6.7578    1.9866 C   0  0  0  0  0  0  0  0  0  0  0  0
    4.7916    3.3967    1.2673 C   0  0  0  0  0  0  0  0  0  0  0  0
    5.4357    2.2259    1.2922 N   0  0  0  0  0  0  0  0  0  0  0  0
    4.2541   -1.1811    3.3853 H   0  0  0  0  0  0  0  0  0  0  0  0
    5.4736   -0.8921    4.6655 H   0  0  0  0  0  0  0  0  0  0  0  0
    5.8242   -2.0454    3.3468 H   0  0  0  0  0  0  0  0  0  0  0  0
    5.2633    0.5254    2.2381 H   0  0  0  0  0  0  0  0  0  0  0  0
    7.8897    1.1577    1.0654 H   0  0  0  0  0  0  0  0  0  0  0  0
    8.4960    1.9782    2.5292 H   0  0  0  0  0  0  0  0  0  0  0  0
    7.5206    4.1776    2.9041 H   0  0  0  0  0  0  0  0  0  0  0  0
    3.1145    5.6645    2.0677 H   0  0  0  0  0  0  0  0  0  0  0  0
    2.7332    8.0948    2.1893 H   0  0  0  0  0  0  0  0  0  0  0  0
    5.4564   11.7942    2.2494 H   0  0  0  0  0  0  0  0  0  0  0  0
   10.1575   10.8398    2.4119 H   0  0  0  0  0  0  0  0  0  0  0  0
    9.6660   11.6994    0.9492 H   0  0  0  0  0  0  0  0  0  0  0  0
    8.8017    9.5532   -0.0194 H   0  0  0  0  0  0  0  0  0  0  0  0
    9.4331    8.7064    1.4165 H   0  0  0  0  0  0  0  0  0  0  0  0
   10.9880   10.1322   -0.5910 H   0  0  0  0  0  0  0  0  0  0  0  0
   10.9414    8.5348   -0.2829 H   0  0  0  0  0  0  0  0  0  0  0  0
    6.9747   11.1643    4.6668 H   0  0  0  0  0  0  0  0  0  0  0  0
    5.9836   11.9712    8.0618 H   0  0  0  0  0  0  0  0  0  0  0  0
    6.9312   10.9613    6.9657 H   0  0  0  0  0  0  0  0  0  0  0  0
    5.4231   11.7788    6.3945 H   0  0  0  0  0  0  0  0  0  0  0  0
    8.4261   14.9654    5.9680 H   0  0  0  0  0  0  0  0  0  0  0  0
   10.7417   17.1566    4.2220 H   0  0  0  0  0  0  0  0  0  0  0  0
   10.3363   16.0663    5.5463 H   0  0  0  0  0  0  0  0  0  0  0  0
    9.0462   17.0223    4.7176 H   0  0  0  0  0  0  0  0  0  0  0  0
    9.4016   13.5583    2.0362 H   0  0  0  0  0  0  0  0  0  0  0  0
    7.3654    6.4102    1.9114 H   0  0  0  0  0  0  0  0  0  0  0  0
    3.8263    3.4500    0.7803 H   0  0  0  0  0  0  0  0  0  0  0  0
  1  2  1  0  0  0  0
  1 35  1  0  0  0  0
  1 36  1  0  0  0  0
  1 37  1  0  0  0  0
  2  3  1  0  0  0  0
  2 38  1  0  0  0  0
  3  4  2  0  0  0  0
  3  5  1  0  0  0  0
  5  6  1  0  0  0  0
  5 39  1  0  0  0  0
  5 40  1  0  0  0  0
  6  7  1  0  0  0  0
  6 34  1  0  0  0  0
  7  8  2  0  0  0  0
  7 41  1  0  0  0  0
  8  9  1  0  0  0  0
  8 33  1  0  0  0  0
  9 10  1  0  0  0  0
  9 32  2  0  0  0  0
 10 11  2  0  0  0  0
 10 42  1  0  0  0  0
 11 12  1  0  0  0  0
 11 43  1  0  0  0  0
 12 13  1  0  0  0  0
 12 31  2  0  0  0  0
 13 14  2  0  0  0  0
 14 15  1  0  0  0  0
 14 44  1  0  0  0  0
 15 16  1  0  0  0  0
 15 30  2  0  0  0  0
 16 17  1  0  0  0  0
 16 20  1  0  0  0  0
 17 18  1  0  0  0  0
 17 45  1  0  0  0  0
 17 46  1  0  0  0  0
 18 19  1  0  0  0  0
 18 47  1  0  0  0  0
 18 48  1  0  0  0  0
 19 49  1  0  0  0  0
 19 50  1  0  0  0  0
 20 21  1  0  0  0  0
 20 29  2  0  0  0  0
 21 22  2  0  0  0  0
 21 51  1  0  0  0  0
 22 23  1  0  0  0  0
 22 25  1  0  0  0  0
 23 24  1  0  0  0  0
 24 52  1  0  0  0  0
 24 53  1  0  0  0  0
 24 54  1  0  0  0  0
 25 26  2  0  0  0  0
 25 55  1  0  0  0  0
 26 27  1  0  0  0  0
 26 29  1  0  0  0  0
 27 28  1  0  0  0  0
 28 56  1  0  0  0  0
 28 57  1  0  0  0  0
 28 58  1  0  0  0  0
 29 59  1  0  0  0  0
 30 31  1  0  0  0  0
 31 32  1  0  0  0  0
 32 60  1  0  0  0  0
 33 34  2  0  0  0  0
 33 61  1  0  0  0  0
M  END
$$$$
