CHEMBL3983434
 OpenBabel04072215373D

 54 57  0  0  0  0  0  0  0  0999 V2000
    3.0856    2.7799   -3.9200 C   0  0  0  0  0  0  0  0  0  0  0  0
    3.1379    1.7012   -2.9908 O   0  0  0  0  0  0  0  0  0  0  0  0
    3.3983    2.0062   -1.6800 C   0  0  0  0  0  0  0  0  0  0  0  0
    3.0934    3.2607   -1.1201 C   0  0  0  0  0  0  0  0  0  0  0  0
    3.3140    3.5505    0.2386 C   0  0  0  0  0  0  0  0  0  0  0  0
    3.0903    4.9049    0.7824 C   0  0  0  0  0  0  0  0  0  0  0  0
    2.6608    5.2989    1.9964 C   0  0  0  0  0  0  0  0  0  0  0  0
    2.0832    4.6395    3.1152 C   0  0  0  0  0  0  0  0  0  0  0  0
    0.7053    4.5614    3.1988 C   0  0  0  0  0  0  0  0  0  0  0  0
    0.3941    4.8782    4.5004 N   0  0  0  0  0  0  0  0  0  0  0  0
   -0.8926    5.4317    4.8982 C   0  0  0  0  0  0  0  0  0  0  0  0
   -0.9130    6.9602    4.7487 C   0  0  0  0  0  0  0  0  0  0  0  0
   -2.1972    7.5283    5.1673 N   0  0  0  0  0  0  0  0  0  0  0  0
    1.5229    4.8244    5.2919 C   0  0  0  0  0  0  0  0  0  0  0  0
    1.6988    5.1071    6.6565 C   0  0  0  0  0  0  0  0  0  0  0  0
    2.9768    4.9680    7.1984 C   0  0  0  0  0  0  0  0  0  0  0  0
    4.0449    4.5632    6.4044 C   0  0  0  0  0  0  0  0  0  0  0  0
    3.8803    4.3787    5.0232 C   0  0  0  0  0  0  0  0  0  0  0  0
    2.6003    4.5282    4.4448 C   0  0  0  0  0  0  0  0  0  0  0  0
    2.5928    6.7899    1.9858 C   0  0  0  0  0  0  0  0  0  0  0  0
    2.1162    7.5116    2.8498 O   0  0  0  0  0  0  0  0  0  0  0  0
    3.0529    7.2063    0.7970 N   0  0  0  0  0  0  0  0  0  0  0  0
    3.2365    6.1538   -0.0161 C   0  0  0  0  0  0  0  0  0  0  0  0
    3.4004    6.2326   -1.2206 O   0  0  0  0  0  0  0  0  0  0  0  0
    3.8340    2.5326    1.0455 C   0  0  0  0  0  0  0  0  0  0  0  0
    4.1021    1.2633    0.5221 C   0  0  0  0  0  0  0  0  0  0  0  0
    4.6145    0.2453    1.2941 O   0  0  0  0  0  0  0  0  0  0  0  0
    4.1796    0.2397    2.6506 C   0  0  0  0  0  0  0  0  0  0  0  0
    3.9197    0.9979   -0.8509 C   0  0  0  0  0  0  0  0  0  0  0  0
    4.2167   -0.2865   -1.2453 O   0  0  0  0  0  0  0  0  0  0  0  0
    4.7530   -0.4581   -2.5515 C   0  0  0  0  0  0  0  0  0  0  0  0
    2.9888    2.3499   -4.9226 H   0  0  0  0  0  0  0  0  0  0  0  0
    4.0082    3.3696   -3.8970 H   0  0  0  0  0  0  0  0  0  0  0  0
    2.2062    3.4091   -3.7550 H   0  0  0  0  0  0  0  0  0  0  0  0
    2.6596    4.0298   -1.7506 H   0  0  0  0  0  0  0  0  0  0  0  0
   -0.0544    4.6246    2.4312 H   0  0  0  0  0  0  0  0  0  0  0  0
   -1.0901    5.1231    5.9294 H   0  0  0  0  0  0  0  0  0  0  0  0
   -1.6559    4.9709    4.2601 H   0  0  0  0  0  0  0  0  0  0  0  0
   -0.7221    7.2431    3.7060 H   0  0  0  0  0  0  0  0  0  0  0  0
   -0.1152    7.4127    5.3491 H   0  0  0  0  0  0  0  0  0  0  0  0
   -2.9392    7.1902    4.5560 H   0  0  0  0  0  0  0  0  0  0  0  0
   -2.1649    8.5402    5.0350 H   0  0  0  0  0  0  0  0  0  0  0  0
    0.8756    5.4518    7.2755 H   0  0  0  0  0  0  0  0  0  0  0  0
    3.1351    5.1877    8.2522 H   0  0  0  0  0  0  0  0  0  0  0  0
    5.0244    4.4273    6.8572 H   0  0  0  0  0  0  0  0  0  0  0  0
    4.7382    4.1104    4.4143 H   0  0  0  0  0  0  0  0  0  0  0  0
    2.9588    8.1553    0.4834 H   0  0  0  0  0  0  0  0  0  0  0  0
    4.0559    2.7447    2.0861 H   0  0  0  0  0  0  0  0  0  0  0  0
    4.3925   -0.7485    3.0676 H   0  0  0  0  0  0  0  0  0  0  0  0
    3.1004    0.4133    2.7311 H   0  0  0  0  0  0  0  0  0  0  0  0
    4.7386    0.9753    3.2379 H   0  0  0  0  0  0  0  0  0  0  0  0
    5.2876   -1.4140   -2.5671 H   0  0  0  0  0  0  0  0  0  0  0  0
    5.4724    0.3248   -2.8153 H   0  0  0  0  0  0  0  0  0  0  0  0
    3.9523   -0.5333   -3.2930 H   0  0  0  0  0  0  0  0  0  0  0  0
  1  2  1  0  0  0  0
  1 32  1  0  0  0  0
  1 33  1  0  0  0  0
  1 34  1  0  0  0  0
  2  3  1  0  0  0  0
  3  4  1  0  0  0  0
  3 29  2  0  0  0  0
  4  5  2  0  0  0  0
  4 35  1  0  0  0  0
  5  6  1  0  0  0  0
  5 25  1  0  0  0  0
  6  7  2  0  0  0  0
  6 23  1  0  0  0  0
  7  8  1  0  0  0  0
  7 20  1  0  0  0  0
  8  9  2  0  0  0  0
  8 19  1  0  0  0  0
  9 10  1  0  0  0  0
  9 36  1  0  0  0  0
 10 11  1  0  0  0  0
 10 14  1  0  0  0  0
 11 12  1  0  0  0  0
 11 37  1  0  0  0  0
 11 38  1  0  0  0  0
 12 13  1  0  0  0  0
 12 39  1  0  0  0  0
 12 40  1  0  0  0  0
 13 41  1  0  0  0  0
 13 42  1  0  0  0  0
 14 15  1  0  0  0  0
 14 19  2  0  0  0  0
 15 16  2  0  0  0  0
 15 43  1  0  0  0  0
 16 17  1  0  0  0  0
 16 44  1  0  0  0  0
 17 18  2  0  0  0  0
 17 45  1  0  0  0  0
 18 19  1  0  0  0  0
 18 46  1  0  0  0  0
 20 21  2  0  0  0  0
 20 22  1  0  0  0  0
 22 23  1  0  0  0  0
 22 47  1  0  0  0  0
 23 24  2  0  0  0  0
 25 26  2  0  0  0  0
 25 48  1  0  0  0  0
 26 27  1  0  0  0  0
 26 29  1  0  0  0  0
 27 28  1  0  0  0  0
 28 49  1  0  0  0  0
 28 50  1  0  0  0  0
 28 51  1  0  0  0  0
 29 30  1  0  0  0  0
 30 31  1  0  0  0  0
 31 52  1  0  0  0  0
 31 53  1  0  0  0  0
 31 54  1  0  0  0  0
M  END
$$$$
