CHEMBL383077
 OpenBabel04072215373D

 51 54  0  0  0  0  0  0  0  0999 V2000
    2.3946   -0.7566    2.3991 C   0  0  0  0  0  0  0  0  0  0  0  0
    3.7248   -0.6613    1.7512 C   0  0  0  0  0  0  0  0  0  0  0  0
    4.6186   -1.6436    1.3758 C   0  0  0  0  0  0  0  0  0  0  0  0
    5.5927   -1.0401    0.5333 C   0  0  0  0  0  0  0  0  0  0  0  0
    6.6277   -1.5323   -0.2822 C   0  0  0  0  0  0  0  0  0  0  0  0
    6.8688   -2.8515   -0.3473 F   0  0  0  0  0  0  0  0  0  0  0  0
    7.3388   -0.6493   -1.0987 C   0  0  0  0  0  0  0  0  0  0  0  0
    8.1969   -1.2399   -2.0551 O   0  0  0  0  0  0  0  0  0  0  0  0
    9.3529   -0.6165   -2.4813 C   0  0  0  0  0  0  0  0  0  0  0  0
   10.0456    0.2056   -1.7744 N   0  0  0  0  0  0  0  0  0  0  0  0
   11.1548    0.7509   -2.3711 C   0  0  0  0  0  0  0  0  0  0  0  0
   11.5643    0.5445   -3.5888 N   0  0  0  0  0  0  0  0  0  0  0  0
   10.8105   -0.3113   -4.2891 N   0  0  0  0  0  0  0  0  0  0  0  0
   11.0037   -0.6637   -5.5734 C   0  0  0  0  0  0  0  0  0  0  0  0
   10.0316   -1.5536   -5.9553 C   0  0  0  0  0  0  0  0  0  0  0  0
    9.9582   -2.0892   -7.2194 O   0  0  0  0  0  0  0  0  0  0  0  0
   11.0266   -1.5957   -8.0652 C   0  0  0  0  0  0  0  0  0  0  0  0
   10.9548   -2.1847   -9.4647 C   0  0  0  0  0  0  0  0  0  0  0  0
   12.0984   -1.6304  -10.3133 C   0  0  0  0  0  0  0  0  0  0  0  0
   12.0944   -2.2605  -11.9782 S   0  0  0  0  0  0  0  0  0  0  0  0
   13.5034   -1.4774  -12.7314 C   0  0  0  0  0  0  0  0  0  0  0  0
   12.3621   -3.6861  -11.9232 O   0  0  0  0  0  0  0  0  0  0  0  0
   10.9142   -1.7467  -12.6388 O   0  0  0  0  0  0  0  0  0  0  0  0
    9.1713   -1.7612   -4.8143 C   0  0  0  0  0  0  0  0  0  0  0  0
    7.9500   -2.5990   -4.6139 C   0  0  0  0  0  0  0  0  0  0  0  0
    9.7061   -0.9505   -3.8175 C   0  0  0  0  0  0  0  0  0  0  0  0
    7.0583    0.7179   -1.0948 C   0  0  0  0  0  0  0  0  0  0  0  0
    6.0662    1.2363   -0.2515 C   0  0  0  0  0  0  0  0  0  0  0  0
    5.3334    0.3316    0.5255 C   0  0  0  0  0  0  0  0  0  0  0  0
    4.2549    0.5427    1.3557 N   0  0  0  0  0  0  0  0  0  0  0  0
    2.1284   -1.8009    2.5911 H   0  0  0  0  0  0  0  0  0  0  0  0
    1.6293   -0.3400    1.7336 H   0  0  0  0  0  0  0  0  0  0  0  0
    2.3675   -0.2090    3.3445 H   0  0  0  0  0  0  0  0  0  0  0  0
    4.5152   -2.7033    1.5731 H   0  0  0  0  0  0  0  0  0  0  0  0
   11.7402    1.4404   -1.7449 H   0  0  0  0  0  0  0  0  0  0  0  0
   11.8326   -0.2391   -6.1335 H   0  0  0  0  0  0  0  0  0  0  0  0
   12.0047   -1.8740   -7.6381 H   0  0  0  0  0  0  0  0  0  0  0  0
   10.9595   -0.4995   -8.1612 H   0  0  0  0  0  0  0  0  0  0  0  0
    9.9815   -1.9474   -9.9069 H   0  0  0  0  0  0  0  0  0  0  0  0
   11.0029   -3.2760   -9.3932 H   0  0  0  0  0  0  0  0  0  0  0  0
   13.0702   -1.8775   -9.8726 H   0  0  0  0  0  0  0  0  0  0  0  0
   12.0218   -0.5411  -10.3950 H   0  0  0  0  0  0  0  0  0  0  0  0
   14.4130   -1.7832  -12.2108 H   0  0  0  0  0  0  0  0  0  0  0  0
   13.3731   -0.3945  -12.6836 H   0  0  0  0  0  0  0  0  0  0  0  0
   13.5510   -1.7987  -13.7751 H   0  0  0  0  0  0  0  0  0  0  0  0
    7.6509   -3.1924   -5.4776 H   0  0  0  0  0  0  0  0  0  0  0  0
    7.0991   -1.9561   -4.3474 H   0  0  0  0  0  0  0  0  0  0  0  0
    8.1122   -3.2949   -3.7780 H   0  0  0  0  0  0  0  0  0  0  0  0
    7.5730    1.4049   -1.7607 H   0  0  0  0  0  0  0  0  0  0  0  0
    5.8371    2.2976   -0.2534 H   0  0  0  0  0  0  0  0  0  0  0  0
    3.8420    1.4479    1.5348 H   0  0  0  0  0  0  0  0  0  0  0  0
  1  2  1  0  0  0  0
  1 31  1  0  0  0  0
  1 32  1  0  0  0  0
  1 33  1  0  0  0  0
  2  3  2  0  0  0  0
  2 30  1  0  0  0  0
  3  4  1  0  0  0  0
  3 34  1  0  0  0  0
  4  5  1  0  0  0  0
  4 29  2  0  0  0  0
  5  6  1  0  0  0  0
  5  7  2  0  0  0  0
  7  8  1  0  0  0  0
  7 27  1  0  0  0  0
  8  9  1  0  0  0  0
  9 10  2  0  0  0  0
  9 26  1  0  0  0  0
 10 11  1  0  0  0  0
 11 12  2  0  0  0  0
 11 35  1  0  0  0  0
 12 13  1  0  0  0  0
 13 14  1  0  0  0  0
 13 26  1  0  0  0  0
 14 15  2  0  0  0  0
 14 36  1  0  0  0  0
 15 16  1  0  0  0  0
 15 24  1  0  0  0  0
 16 17  1  0  0  0  0
 17 18  1  0  0  0  0
 17 37  1  0  0  0  0
 17 38  1  0  0  0  0
 18 19  1  0  0  0  0
 18 39  1  0  0  0  0
 18 40  1  0  0  0  0
 19 20  1  0  0  0  0
 19 41  1  0  0  0  0
 19 42  1  0  0  0  0
 20 21  1  0  0  0  0
 20 22  2  0  0  0  0
 20 23  2  0  0  0  0
 21 43  1  0  0  0  0
 21 44  1  0  0  0  0
 21 45  1  0  0  0  0
 24 25  1  0  0  0  0
 24 26  2  0  0  0  0
 25 46  1  0  0  0  0
 25 47  1  0  0  0  0
 25 48  1  0  0  0  0
 27 28  2  0  0  0  0
 27 49  1  0  0  0  0
 28 29  1  0  0  0  0
 28 50  1  0  0  0  0
 29 30  1  0  0  0  0
 30 51  1  0  0  0  0
M  END
$$$$
