CHEMBL465465
 OpenBabel04072215383D

 51 53  0  0  0  0  0  0  0  0999 V2000
    6.2004   -1.1615    0.3157 C   0  0  0  0  0  0  0  0  0  0  0  0
    5.1652    0.0721   -0.4308 S   0  0  0  0  0  0  0  0  0  0  0  0
    5.8935    0.6596   -1.5379 O   0  0  0  0  0  0  0  0  0  0  0  0
    3.8515   -0.5096   -0.6295 O   0  0  0  0  0  0  0  0  0  0  0  0
    5.0200    1.3081    0.8378 C   0  0  0  0  0  0  0  0  0  0  0  0
    5.9407    2.3567    0.8883 C   0  0  0  0  0  0  0  0  0  0  0  0
    5.8048    3.3432    1.8684 C   0  0  0  0  0  0  0  0  0  0  0  0
    4.7458    3.2988    2.7917 C   0  0  0  0  0  0  0  0  0  0  0  0
    4.6001    4.3803    3.8422 C   0  0  0  0  0  0  0  0  0  0  0  0
    4.4512    5.6954    3.2168 N   0  0  0  0  0  0  0  0  0  0  0  0
    4.2789    6.7535    4.2175 C   0  0  0  0  0  0  0  0  0  0  0  0
    4.0875    8.0920    3.5521 C   0  0  0  0  0  0  0  0  0  0  0  0
    3.0315    8.2666    2.6538 C   0  0  0  0  0  0  0  0  0  0  0  0
    2.8414    9.4639    1.9354 C   0  0  0  0  0  0  0  0  0  0  0  0
    1.8858    9.3867    0.7972 C   0  0  0  0  0  0  0  0  0  0  0  0
    1.8902   10.0472   -0.2263 O   0  0  0  0  0  0  0  0  0  0  0  0
    1.0332    8.3477    0.9289 O   0  0  0  0  0  0  0  0  0  0  0  0
    3.6655   10.5788    2.2004 C   0  0  0  0  0  0  0  0  0  0  0  0
    3.5108   11.8672    1.6342 N   0  0  0  0  0  0  0  0  0  0  0  0
    2.3253   12.5492    1.2917 C   0  0  0  0  0  0  0  0  0  0  0  0
    1.1338   12.3503    1.9997 C   0  0  0  0  0  0  0  0  0  0  0  0
   -0.0613   12.9248    1.5596 C   0  0  0  0  0  0  0  0  0  0  0  0
   -0.0669   13.7320    0.4217 C   0  0  0  0  0  0  0  0  0  0  0  0
   -1.8658   14.4889   -0.2901 I   0  0  0  0  0  0  0  0  0  0  0  0
    1.1202   14.0117   -0.2494 C   0  0  0  0  0  0  0  0  0  0  0  0
    2.3023   13.4248    0.1953 C   0  0  0  0  0  0  0  0  0  0  0  0
    3.4418   13.6829   -0.4670 F   0  0  0  0  0  0  0  0  0  0  0  0
    4.7273   10.3903    3.1103 C   0  0  0  0  0  0  0  0  0  0  0  0
    5.5612   11.4133    3.3724 F   0  0  0  0  0  0  0  0  0  0  0  0
    4.9357    9.1743    3.7687 C   0  0  0  0  0  0  0  0  0  0  0  0
    5.9623    9.0557    4.6221 F   0  0  0  0  0  0  0  0  0  0  0  0
    3.8269    2.2394    2.7194 C   0  0  0  0  0  0  0  0  0  0  0  0
    3.9575    1.2477    1.7435 C   0  0  0  0  0  0  0  0  0  0  0  0
    6.3538   -1.9593   -0.4141 H   0  0  0  0  0  0  0  0  0  0  0  0
    5.6988   -1.5587    1.2004 H   0  0  0  0  0  0  0  0  0  0  0  0
    7.1590   -0.7112    0.5799 H   0  0  0  0  0  0  0  0  0  0  0  0
    6.7526    2.4252    0.1679 H   0  0  0  0  0  0  0  0  0  0  0  0
    6.5167    4.1670    1.9008 H   0  0  0  0  0  0  0  0  0  0  0  0
    5.4850    4.3566    4.4885 H   0  0  0  0  0  0  0  0  0  0  0  0
    3.7254    4.1663    4.4689 H   0  0  0  0  0  0  0  0  0  0  0  0
    3.6429    5.6531    2.6005 H   0  0  0  0  0  0  0  0  0  0  0  0
    5.1498    6.7825    4.8822 H   0  0  0  0  0  0  0  0  0  0  0  0
    3.3960    6.5554    4.8393 H   0  0  0  0  0  0  0  0  0  0  0  0
    2.3723    7.4202    2.4724 H   0  0  0  0  0  0  0  0  0  0  0  0
    0.6238    8.2560    0.0432 H   0  0  0  0  0  0  0  0  0  0  0  0
    4.3163   12.1626    1.0819 H   0  0  0  0  0  0  0  0  0  0  0  0
    1.1225   11.7283    2.8904 H   0  0  0  0  0  0  0  0  0  0  0  0
   -0.9788   12.7134    2.1028 H   0  0  0  0  0  0  0  0  0  0  0  0
    1.1455   14.6508   -1.1256 H   0  0  0  0  0  0  0  0  0  0  0  0
    2.9947    2.1836    3.4190 H   0  0  0  0  0  0  0  0  0  0  0  0
    3.2273    0.4424    1.6934 H   0  0  0  0  0  0  0  0  0  0  0  0
  1  2  1  0  0  0  0
  1 34  1  0  0  0  0
  1 35  1  0  0  0  0
  1 36  1  0  0  0  0
  2  3  2  0  0  0  0
  2  4  2  0  0  0  0
  2  5  1  0  0  0  0
  5  6  1  0  0  0  0
  5 33  2  0  0  0  0
  6  7  2  0  0  0  0
  6 37  1  0  0  0  0
  7  8  1  0  0  0  0
  7 38  1  0  0  0  0
  8  9  1  0  0  0  0
  8 32  2  0  0  0  0
  9 10  1  0  0  0  0
  9 39  1  0  0  0  0
  9 40  1  0  0  0  0
 10 11  1  0  0  0  0
 10 41  1  0  0  0  0
 11 12  1  0  0  0  0
 11 42  1  0  0  0  0
 11 43  1  0  0  0  0
 12 13  1  0  0  0  0
 12 30  2  0  0  0  0
 13 14  2  0  0  0  0
 13 44  1  0  0  0  0
 14 15  1  0  0  0  0
 14 18  1  0  0  0  0
 15 16  2  0  0  0  0
 15 17  1  0  0  0  0
 17 45  1  0  0  0  0
 18 19  1  0  0  0  0
 18 28  2  0  0  0  0
 19 20  1  0  0  0  0
 19 46  1  0  0  0  0
 20 21  1  0  0  0  0
 20 26  2  0  0  0  0
 21 22  2  0  0  0  0
 21 47  1  0  0  0  0
 22 23  1  0  0  0  0
 22 48  1  0  0  0  0
 23 24  1  0  0  0  0
 23 25  2  0  0  0  0
 25 26  1  0  0  0  0
 25 49  1  0  0  0  0
 26 27  1  0  0  0  0
 28 29  1  0  0  0  0
 28 30  1  0  0  0  0
 30 31  1  0  0  0  0
 32 33  1  0  0  0  0
 32 50  1  0  0  0  0
 33 51  1  0  0  0  0
M  END
$$$$
