CHEMBL68430
 OpenBabel04072215383D

 50 54  0  0  0  0  0  0  0  0999 V2000
    1.1269    0.2749    0.1106 N   0  0  0  0  0  0  0  0  0  0  0  0
    2.5005    0.0827    0.0941 C   0  0  0  0  0  0  0  0  0  0  0  0
    3.2320    1.2106    0.0936 N   0  0  0  0  0  0  0  0  0  0  0  0
    4.5692    1.1093    0.0895 C   0  0  0  0  0  0  0  0  0  0  0  0
    5.3055   -0.0071    0.0888 N   0  0  0  0  0  0  0  0  0  0  0  0
    4.5517   -1.1226    0.0791 C   0  0  0  0  0  0  0  0  0  0  0  0
    3.1590   -1.1714    0.0755 C   0  0  0  0  0  0  0  0  0  0  0  0
    2.7964   -2.5685    0.0436 C   0  0  0  0  0  0  0  0  0  0  0  0
    1.4743   -3.1928   -0.0107 C   0  0  0  0  0  0  0  0  0  0  0  0
    0.4232   -2.5503   -0.6697 C   0  0  0  0  0  0  0  0  0  0  0  0
   -0.8653   -3.0751   -0.6479 C   0  0  0  0  0  0  0  0  0  0  0  0
   -1.0786   -4.3620   -0.1687 C   0  0  0  0  0  0  0  0  0  0  0  0
   -2.2670   -5.0430   -0.3034 O   0  0  0  0  0  0  0  0  0  0  0  0
   -3.0469   -4.7858   -1.4083 C   0  0  0  0  0  0  0  0  0  0  0  0
   -2.5418   -4.4073   -2.6592 C   0  0  0  0  0  0  0  0  0  0  0  0
   -3.4090   -4.0194   -3.6773 C   0  0  0  0  0  0  0  0  0  0  0  0
   -4.7832   -4.1039   -3.4792 C   0  0  0  0  0  0  0  0  0  0  0  0
   -5.2865   -4.5783   -2.2655 C   0  0  0  0  0  0  0  0  0  0  0  0
   -4.4216   -4.9177   -1.2296 C   0  0  0  0  0  0  0  0  0  0  0  0
   -0.0472   -5.0343    0.4749 C   0  0  0  0  0  0  0  0  0  0  0  0
    1.2014   -4.4298    0.5966 C   0  0  0  0  0  0  0  0  0  0  0  0
    3.9876   -3.2763    0.0103 C   0  0  0  0  0  0  0  0  0  0  0  0
    4.2959   -4.9614   -0.1327 Cl  0  0  0  0  0  0  0  0  0  0  0  0
    5.0499   -2.4059    0.0710 N   0  0  0  0  0  0  0  0  0  0  0  0
    6.4531   -2.7641    0.1042 C   0  0  0  0  0  0  0  0  0  0  0  0
    7.2282   -2.2508    1.3161 C   0  0  0  0  0  0  0  0  0  0  0  0
    8.6974   -2.3399    0.8986 C   0  0  0  0  0  0  0  0  0  0  0  0
    8.7156   -2.4992   -0.6222 C   0  0  0  0  0  0  0  0  0  0  0  0
    7.2793   -2.2954   -1.0924 C   0  0  0  0  0  0  0  0  0  0  0  0
    0.8942    1.2385    0.3143 H   0  0  0  0  0  0  0  0  0  0  0  0
    0.6037   -0.4224    0.6237 H   0  0  0  0  0  0  0  0  0  0  0  0
    5.1153    2.0465    0.0927 H   0  0  0  0  0  0  0  0  0  0  0  0
    0.5828   -1.6296   -1.2249 H   0  0  0  0  0  0  0  0  0  0  0  0
   -1.6678   -2.4881   -1.0868 H   0  0  0  0  0  0  0  0  0  0  0  0
   -1.4707   -4.3544   -2.8410 H   0  0  0  0  0  0  0  0  0  0  0  0
   -3.0060   -3.6425   -4.6134 H   0  0  0  0  0  0  0  0  0  0  0  0
   -5.4615   -3.8042   -4.2723 H   0  0  0  0  0  0  0  0  0  0  0  0
   -6.3623   -4.6695   -2.1265 H   0  0  0  0  0  0  0  0  0  0  0  0
   -4.8158   -5.2612   -0.2782 H   0  0  0  0  0  0  0  0  0  0  0  0
   -0.2081   -6.0360    0.8762 H   0  0  0  0  0  0  0  0  0  0  0  0
    1.9680   -4.9666    1.1521 H   0  0  0  0  0  0  0  0  0  0  0  0
    6.5369   -3.8541    0.1327 H   0  0  0  0  0  0  0  0  0  0  0  0
    7.0231   -2.8538    2.2088 H   0  0  0  0  0  0  0  0  0  0  0  0
    6.9843   -1.2162    1.5682 H   0  0  0  0  0  0  0  0  0  0  0  0
    9.1825   -3.1992    1.3741 H   0  0  0  0  0  0  0  0  0  0  0  0
    9.2390   -1.4426    1.2129 H   0  0  0  0  0  0  0  0  0  0  0  0
    9.0535   -3.5098   -0.8811 H   0  0  0  0  0  0  0  0  0  0  0  0
    9.4012   -1.7921   -1.0994 H   0  0  0  0  0  0  0  0  0  0  0  0
    7.0616   -2.8763   -1.9945 H   0  0  0  0  0  0  0  0  0  0  0  0
    7.1111   -1.2410   -1.3303 H   0  0  0  0  0  0  0  0  0  0  0  0
  1  2  1  0  0  0  0
  1 30  1  0  0  0  0
  1 31  1  0  0  0  0
  2  3  1  0  0  0  0
  2  7  2  0  0  0  0
  3  4  2  0  0  0  0
  4  5  1  0  0  0  0
  4 32  1  0  0  0  0
  5  6  2  0  0  0  0
  6  7  1  0  0  0  0
  6 24  1  0  0  0  0
  7  8  1  0  0  0  0
  8  9  1  0  0  0  0
  8 22  2  0  0  0  0
  9 10  1  0  0  0  0
  9 21  2  0  0  0  0
 10 11  2  0  0  0  0
 10 33  1  0  0  0  0
 11 12  1  0  0  0  0
 11 34  1  0  0  0  0
 12 13  1  0  0  0  0
 12 20  2  0  0  0  0
 13 14  1  0  0  0  0
 14 15  1  0  0  0  0
 14 19  2  0  0  0  0
 15 16  2  0  0  0  0
 15 35  1  0  0  0  0
 16 17  1  0  0  0  0
 16 36  1  0  0  0  0
 17 18  2  0  0  0  0
 17 37  1  0  0  0  0
 18 19  1  0  0  0  0
 18 38  1  0  0  0  0
 19 39  1  0  0  0  0
 20 21  1  0  0  0  0
 20 40  1  0  0  0  0
 21 41  1  0  0  0  0
 22 23  1  0  0  0  0
 22 24  1  0  0  0  0
 24 25  1  0  0  0  0
 25 26  1  0  0  0  0
 25 29  1  0  0  0  0
 25 42  1  0  0  0  0
 26 27  1  0  0  0  0
 26 43  1  0  0  0  0
 26 44  1  0  0  0  0
 27 28  1  0  0  0  0
 27 45  1  0  0  0  0
 27 46  1  0  0  0  0
 28 29  1  0  0  0  0
 28 47  1  0  0  0  0
 28 48  1  0  0  0  0
 29 49  1  0  0  0  0
 29 50  1  0  0  0  0
M  END
$$$$
