CHEMBL1988537
 OpenBabel04072215363D

 38 41  0  0  0  0  0  0  0  0999 V2000
    2.0307   -0.4972    2.0132 C   0  0  0  0  0  0  0  0  0  0  0  0
    2.0208    0.7730    2.6456 O   0  0  0  0  0  0  0  0  0  0  0  0
    3.0852    1.6061    2.4528 C   0  0  0  0  0  0  0  0  0  0  0  0
    4.3206    1.2918    1.8879 C   0  0  0  0  0  0  0  0  0  0  0  0
    5.3031    2.3017    1.7414 C   0  0  0  0  0  0  0  0  0  0  0  0
    5.0721    3.6059    2.1867 C   0  0  0  0  0  0  0  0  0  0  0  0
    6.0866    4.7065    1.9487 C   0  0  0  0  0  0  0  0  0  0  0  0
    7.0134    4.4862    1.1708 O   0  0  0  0  0  0  0  0  0  0  0  0
    5.8012    5.9600    2.4984 N   0  0  0  0  0  0  0  0  0  0  0  0
    6.1418    7.1947    1.8106 C   0  0  0  0  0  0  0  0  0  0  0  0
    7.4574    7.5991    1.5593 C   0  0  0  0  0  0  0  0  0  0  0  0
    7.7196    8.9206    1.1447 C   0  0  0  0  0  0  0  0  0  0  0  0
    6.6756    9.8123    0.8745 C   0  0  0  0  0  0  0  0  0  0  0  0
    5.3730    9.4491    1.1759 C   0  0  0  0  0  0  0  0  0  0  0  0
    5.1593    8.2112    1.7788 C   0  0  0  0  0  0  0  0  0  0  0  0
    3.9836    8.2154    3.1576 S   0  0  0  0  0  0  0  0  0  0  0  0
    5.1823    7.4726    4.2995 C   0  0  0  0  0  0  0  0  0  0  0  0
    5.7651    8.1066    5.3875 C   0  0  0  0  0  0  0  0  0  0  0  0
    5.6864    9.8107    5.6186 Cl  0  0  0  0  0  0  0  0  0  0  0  0
    6.5826    7.3377    6.2029 C   0  0  0  0  0  0  0  0  0  0  0  0
    6.8057    6.0091    6.0239 N   0  0  0  0  0  0  0  0  0  0  0  0
    6.3704    5.4698    4.8612 C   0  0  0  0  0  0  0  0  0  0  0  0
    5.6902    6.2188    3.9126 C   0  0  0  0  0  0  0  0  0  0  0  0
    3.8186    3.9017    2.7425 C   0  0  0  0  0  0  0  0  0  0  0  0
    2.8497    2.9139    2.8776 C   0  0  0  0  0  0  0  0  0  0  0  0
    1.0657   -0.9729    2.2246 H   0  0  0  0  0  0  0  0  0  0  0  0
    2.8147   -1.1371    2.4264 H   0  0  0  0  0  0  0  0  0  0  0  0
    2.1211   -0.4024    0.9267 H   0  0  0  0  0  0  0  0  0  0  0  0
    4.5501    0.2920    1.5401 H   0  0  0  0  0  0  0  0  0  0  0  0
    6.2690    2.0375    1.2935 H   0  0  0  0  0  0  0  0  0  0  0  0
    8.2954    6.9521    1.8133 H   0  0  0  0  0  0  0  0  0  0  0  0
    8.7457    9.2785    1.0731 H   0  0  0  0  0  0  0  0  0  0  0  0
    6.8821   10.8271    0.5401 H   0  0  0  0  0  0  0  0  0  0  0  0
    4.5690   10.1779    1.1060 H   0  0  0  0  0  0  0  0  0  0  0  0
    7.1295    7.7841    7.0303 H   0  0  0  0  0  0  0  0  0  0  0  0
    6.6918    4.4483    4.6881 H   0  0  0  0  0  0  0  0  0  0  0  0
    3.5291    4.9174    3.0155 H   0  0  0  0  0  0  0  0  0  0  0  0
    1.8797    3.1729    3.2979 H   0  0  0  0  0  0  0  0  0  0  0  0
  1  2  1  0  0  0  0
  1 26  1  0  0  0  0
  1 27  1  0  0  0  0
  1 28  1  0  0  0  0
  2  3  1  0  0  0  0
  3  4  1  0  0  0  0
  3 25  2  0  0  0  0
  4  5  2  0  0  0  0
  4 29  1  0  0  0  0
  5  6  1  0  0  0  0
  5 30  1  0  0  0  0
  6  7  1  0  0  0  0
  6 24  2  0  0  0  0
  7  8  2  0  0  0  0
  7  9  1  0  0  0  0
  9 10  1  0  0  0  0
  9 23  1  0  0  0  0
 10 11  1  0  0  0  0
 10 15  2  0  0  0  0
 11 12  2  0  0  0  0
 11 31  1  0  0  0  0
 12 13  1  0  0  0  0
 12 32  1  0  0  0  0
 13 14  2  0  0  0  0
 13 33  1  0  0  0  0
 14 15  1  0  0  0  0
 14 34  1  0  0  0  0
 15 16  1  0  0  0  0
 16 17  1  0  0  0  0
 17 18  1  0  0  0  0
 17 23  2  0  0  0  0
 18 19  1  0  0  0  0
 18 20  2  0  0  0  0
 20 21  1  0  0  0  0
 20 35  1  0  0  0  0
 21 22  2  0  0  0  0
 22 23  1  0  0  0  0
 22 36  1  0  0  0  0
 24 25  1  0  0  0  0
 24 37  1  0  0  0  0
 25 38  1  0  0  0  0
M  END
$$$$
