CHEMBL2063321
 OpenBabel04072215363D

 68 72  0  0  0  0  0  0  0  0999 V2000
    2.4673   -0.3359   -0.0193 C   0  0  0  0  0  0  0  0  0  0  0  0
    1.0975    0.1112   -0.2609 N   0  0  0  0  0  0  0  0  0  0  0  0
    0.2045   -1.0485   -0.4914 C   0  0  0  0  0  0  0  0  0  0  0  0
   -1.2774   -0.6388   -0.6836 C   0  0  0  0  0  0  0  0  0  0  0  0
   -1.7077    0.1493    0.4826 N   0  0  0  0  0  0  0  0  0  0  0  0
   -2.9955    0.1083    0.9697 C   0  0  0  0  0  0  0  0  0  0  0  0
   -3.2445    0.4305    2.3147 C   0  0  0  0  0  0  0  0  0  0  0  0
   -4.5195    0.3438    2.8796 C   0  0  0  0  0  0  0  0  0  0  0  0
   -5.5871   -0.0779    2.0914 C   0  0  0  0  0  0  0  0  0  0  0  0
   -6.9642   -0.1899    2.6162 C   0  0  0  0  0  0  0  0  0  0  0  0
   -7.9248   -0.1259    1.8666 O   0  0  0  0  0  0  0  0  0  0  0  0
   -7.1279   -0.3804    4.0350 N   0  0  0  0  0  0  0  0  0  0  0  0
   -8.3774   -0.5254    4.6263 C   0  0  0  0  0  0  0  0  0  0  0  0
   -9.5901   -0.7447    4.0221 C   0  0  0  0  0  0  0  0  0  0  0  0
  -10.5512   -0.8182    5.0646 C   0  0  0  0  0  0  0  0  0  0  0  0
  -11.9932   -1.0470    4.9240 C   0  0  0  0  0  0  0  0  0  0  0  0
  -12.5577   -1.3207    3.6694 C   0  0  0  0  0  0  0  0  0  0  0  0
  -13.9279   -1.5445    3.5349 C   0  0  0  0  0  0  0  0  0  0  0  0
  -14.7692   -1.4871    4.6518 C   0  0  0  0  0  0  0  0  0  0  0  0
  -16.2437   -1.7329    4.4970 C   0  0  0  0  0  0  0  0  0  0  0  0
  -16.5665   -3.1315    4.6174 N   0  0  0  0  0  0  0  0  0  0  0  0
  -16.7903   -3.9156    3.5243 C   0  0  0  0  0  0  0  0  0  0  0  0
  -16.5961   -3.5604    2.3685 O   0  0  0  0  0  0  0  0  0  0  0  0
  -17.3191   -5.1314    3.9297 O   0  0  0  0  0  0  0  0  0  0  0  0
  -18.0643   -5.8540    2.9815 C   0  0  0  0  0  0  0  0  0  0  0  0
  -17.9620   -7.2441    3.0026 C   0  0  0  0  0  0  0  0  0  0  0  0
  -18.7488   -8.0026    2.1314 C   0  0  0  0  0  0  0  0  0  0  0  0
  -19.6355   -7.3721    1.2556 C   0  0  0  0  0  0  0  0  0  0  0  0
  -19.7450   -5.9820    1.2530 C   0  0  0  0  0  0  0  0  0  0  0  0
  -18.9711   -5.2223    2.1271 C   0  0  0  0  0  0  0  0  0  0  0  0
  -14.2114   -1.2230    5.9081 C   0  0  0  0  0  0  0  0  0  0  0  0
  -12.8372   -1.0028    6.0439 C   0  0  0  0  0  0  0  0  0  0  0  0
   -9.9537   -0.6511    6.2573 N   0  0  0  0  0  0  0  0  0  0  0  0
   -8.6530   -0.4997    5.9660 N   0  0  0  0  0  0  0  0  0  0  0  0
   -5.3689   -0.3903    0.7451 C   0  0  0  0  0  0  0  0  0  0  0  0
   -4.0868   -0.3041    0.1980 C   0  0  0  0  0  0  0  0  0  0  0  0
   -0.8689    1.3410    0.7107 C   0  0  0  0  0  0  0  0  0  0  0  0
    0.6010    0.8998    0.8899 C   0  0  0  0  0  0  0  0  0  0  0  0
    2.8470   -0.8895   -0.8846 H   0  0  0  0  0  0  0  0  0  0  0  0
    2.5455   -0.9796    0.8644 H   0  0  0  0  0  0  0  0  0  0  0  0
    3.1299    0.5248    0.1220 H   0  0  0  0  0  0  0  0  0  0  0  0
    0.2621   -1.7401    0.3611 H   0  0  0  0  0  0  0  0  0  0  0  0
    0.5317   -1.5968   -1.3820 H   0  0  0  0  0  0  0  0  0  0  0  0
   -1.8666   -1.5573   -0.7890 H   0  0  0  0  0  0  0  0  0  0  0  0
   -1.3955   -0.0512   -1.6033 H   0  0  0  0  0  0  0  0  0  0  0  0
   -2.4164    0.7225    2.9578 H   0  0  0  0  0  0  0  0  0  0  0  0
   -4.6342    0.6318    3.9182 H   0  0  0  0  0  0  0  0  0  0  0  0
   -6.3155   -0.4286    4.6327 H   0  0  0  0  0  0  0  0  0  0  0  0
   -9.7832   -0.8571    2.9671 H   0  0  0  0  0  0  0  0  0  0  0  0
  -11.9508   -1.3743    2.7699 H   0  0  0  0  0  0  0  0  0  0  0  0
  -14.3393   -1.7698    2.5509 H   0  0  0  0  0  0  0  0  0  0  0  0
  -16.5922   -1.3409    3.5334 H   0  0  0  0  0  0  0  0  0  0  0  0
  -16.8011   -1.1968    5.2737 H   0  0  0  0  0  0  0  0  0  0  0  0
  -16.7382   -3.5357    5.5249 H   0  0  0  0  0  0  0  0  0  0  0  0
  -17.2846   -7.7388    3.6920 H   0  0  0  0  0  0  0  0  0  0  0  0
  -18.6773   -9.0876    2.1368 H   0  0  0  0  0  0  0  0  0  0  0  0
  -20.2439   -7.9622    0.5748 H   0  0  0  0  0  0  0  0  0  0  0  0
  -20.4362   -5.4876    0.5765 H   0  0  0  0  0  0  0  0  0  0  0  0
  -19.0821   -4.1414    2.1283 H   0  0  0  0  0  0  0  0  0  0  0  0
  -14.8415   -1.1835    6.7933 H   0  0  0  0  0  0  0  0  0  0  0  0
  -12.4304   -0.7973    7.0297 H   0  0  0  0  0  0  0  0  0  0  0  0
   -8.0149   -0.3531    6.7392 H   0  0  0  0  0  0  0  0  0  0  0  0
   -6.1942   -0.7060    0.1065 H   0  0  0  0  0  0  0  0  0  0  0  0
   -3.9612   -0.5482   -0.8551 H   0  0  0  0  0  0  0  0  0  0  0  0
   -1.1724    1.9142    1.5930 H   0  0  0  0  0  0  0  0  0  0  0  0
   -0.9556    2.0181   -0.1495 H   0  0  0  0  0  0  0  0  0  0  0  0
    0.6771    0.3105    1.8144 H   0  0  0  0  0  0  0  0  0  0  0  0
    1.2184    1.7959    1.0176 H   0  0  0  0  0  0  0  0  0  0  0  0
  1  2  1  0  0  0  0
  1 39  1  0  0  0  0
  1 40  1  0  0  0  0
  1 41  1  0  0  0  0
  2  3  1  0  0  0  0
  2 38  1  0  0  0  0
  3  4  1  0  0  0  0
  3 42  1  0  0  0  0
  3 43  1  0  0  0  0
  4  5  1  0  0  0  0
  4 44  1  0  0  0  0
  4 45  1  0  0  0  0
  5  6  1  0  0  0  0
  5 37  1  0  0  0  0
  6  7  1  0  0  0  0
  6 36  2  0  0  0  0
  7  8  2  0  0  0  0
  7 46  1  0  0  0  0
  8  9  1  0  0  0  0
  8 47  1  0  0  0  0
  9 10  1  0  0  0  0
  9 35  2  0  0  0  0
 10 11  2  0  0  0  0
 10 12  1  0  0  0  0
 12 13  1  0  0  0  0
 12 48  1  0  0  0  0
 13 14  2  0  0  0  0
 13 34  1  0  0  0  0
 14 15  1  0  0  0  0
 14 49  1  0  0  0  0
 15 16  1  0  0  0  0
 15 33  2  0  0  0  0
 16 17  1  0  0  0  0
 16 32  2  0  0  0  0
 17 18  2  0  0  0  0
 17 50  1  0  0  0  0
 18 19  1  0  0  0  0
 18 51  1  0  0  0  0
 19 20  1  0  0  0  0
 19 31  2  0  0  0  0
 20 21  1  0  0  0  0
 20 52  1  0  0  0  0
 20 53  1  0  0  0  0
 21 22  1  0  0  0  0
 21 54  1  0  0  0  0
 22 23  2  0  0  0  0
 22 24  1  0  0  0  0
 24 25  1  0  0  0  0
 25 26  1  0  0  0  0
 25 30  2  0  0  0  0
 26 27  2  0  0  0  0
 26 55  1  0  0  0  0
 27 28  1  0  0  0  0
 27 56  1  0  0  0  0
 28 29  2  0  0  0  0
 28 57  1  0  0  0  0
 29 30  1  0  0  0  0
 29 58  1  0  0  0  0
 30 59  1  0  0  0  0
 31 32  1  0  0  0  0
 31 60  1  0  0  0  0
 32 61  1  0  0  0  0
 33 34  1  0  0  0  0
 34 62  1  0  0  0  0
 35 36  1  0  0  0  0
 35 63  1  0  0  0  0
 36 64  1  0  0  0  0
 37 38  1  0  0  0  0
 37 65  1  0  0  0  0
 37 66  1  0  0  0  0
 38 67  1  0  0  0  0
 38 68  1  0  0  0  0
M  END
$$$$
