CHEMBL603259
 OpenBabel04072215383D

 43 47  0  0  0  0  0  0  0  0999 V2000
    1.6134   -0.7471    0.6859 C   0  0  0  0  0  0  0  0  0  0  0  0
    2.7688    0.0251    0.3982 O   0  0  0  0  0  0  0  0  0  0  0  0
    3.2677    0.8248    1.3838 C   0  0  0  0  0  0  0  0  0  0  0  0
    2.8374    0.9358    2.7064 C   0  0  0  0  0  0  0  0  0  0  0  0
    3.4252    1.8655    3.5976 C   0  0  0  0  0  0  0  0  0  0  0  0
    4.4255    2.7538    3.1734 C   0  0  0  0  0  0  0  0  0  0  0  0
    4.8441    2.6199    1.8042 C   0  0  0  0  0  0  0  0  0  0  0  0
    4.3097    1.6368    0.9606 C   0  0  0  0  0  0  0  0  0  0  0  0
    5.7355    3.5007    1.1465 N   0  0  0  0  0  0  0  0  0  0  0  0
    5.6871    4.8587    1.2158 C   0  0  0  0  0  0  0  0  0  0  0  0
    6.3699    5.5518    0.4584 O   0  0  0  0  0  0  0  0  0  0  0  0
    4.7218    5.4720    2.2076 C   0  0  0  0  0  0  0  0  0  0  0  0
    5.2175    5.0084    3.5301 C   0  0  0  0  0  0  0  0  0  0  0  0
    6.2846    5.8708    4.1280 C   0  0  0  0  0  0  0  0  0  0  0  0
    7.2376    5.4406    4.8935 N   0  0  0  0  0  0  0  0  0  0  0  0
    7.0768    4.1527    5.3030 C   0  0  0  0  0  0  0  0  0  0  0  0
    7.7468    3.3930    6.2196 C   0  0  0  0  0  0  0  0  0  0  0  0
    6.7421    3.2749    7.2164 C   0  0  0  0  0  0  0  0  0  0  0  0
    7.0870    3.4153    8.6598 C   0  0  0  0  0  0  0  0  0  0  0  0
    8.4116    3.8210    8.9824 C   0  0  0  0  0  0  0  0  0  0  0  0
    8.8568    4.0044   10.2973 C   0  0  0  0  0  0  0  0  0  0  0  0
    7.9745    3.8003   11.3416 C   0  0  0  0  0  0  0  0  0  0  0  0
    6.6543    3.4420   11.0601 C   0  0  0  0  0  0  0  0  0  0  0  0
    6.2043    3.2569    9.7301 C   0  0  0  0  0  0  0  0  0  0  0  0
    5.5388    3.1339    6.5821 N   0  0  0  0  0  0  0  0  0  0  0  0
    5.8326    3.5060    5.2490 N   0  0  0  0  0  0  0  0  0  0  0  0
    5.0257    3.7960    4.0921 C   0  0  0  0  0  0  0  0  0  0  0  0
    1.3181   -1.2603   -0.2366 H   0  0  0  0  0  0  0  0  0  0  0  0
    0.7741   -0.1161    0.9945 H   0  0  0  0  0  0  0  0  0  0  0  0
    1.8390   -1.5102    1.4351 H   0  0  0  0  0  0  0  0  0  0  0  0
    2.0257    0.3130    3.0714 H   0  0  0  0  0  0  0  0  0  0  0  0
    3.0610    1.9094    4.6213 H   0  0  0  0  0  0  0  0  0  0  0  0
    4.6310    1.5664   -0.0781 H   0  0  0  0  0  0  0  0  0  0  0  0
    6.1970    3.1733    0.3006 H   0  0  0  0  0  0  0  0  0  0  0  0
    3.7000    5.1545    1.9864 H   0  0  0  0  0  0  0  0  0  0  0  0
    4.7493    6.5628    2.1168 H   0  0  0  0  0  0  0  0  0  0  0  0
    6.2802    6.9286    3.8216 H   0  0  0  0  0  0  0  0  0  0  0  0
    8.4748    2.6192    6.0259 H   0  0  0  0  0  0  0  0  0  0  0  0
    9.1362    4.0301    8.1977 H   0  0  0  0  0  0  0  0  0  0  0  0
    9.8841    4.3100   10.4850 H   0  0  0  0  0  0  0  0  0  0  0  0
    8.3134    3.9412   12.3684 H   0  0  0  0  0  0  0  0  0  0  0  0
    5.9638    3.3129   11.8936 H   0  0  0  0  0  0  0  0  0  0  0  0
    5.1627    3.0062    9.5581 H   0  0  0  0  0  0  0  0  0  0  0  0
  1  2  1  0  0  0  0
  1 28  1  0  0  0  0
  1 29  1  0  0  0  0
  1 30  1  0  0  0  0
  2  3  1  0  0  0  0
  3  4  1  0  0  0  0
  3  8  2  0  0  0  0
  4  5  2  0  0  0  0
  4 31  1  0  0  0  0
  5  6  1  0  0  0  0
  5 32  1  0  0  0  0
  6  7  2  0  0  0  0
  6 27  1  0  0  0  0
  7  8  1  0  0  0  0
  7  9  1  0  0  0  0
  8 33  1  0  0  0  0
  9 10  1  0  0  0  0
  9 34  1  0  0  0  0
 10 11  2  0  0  0  0
 10 12  1  0  0  0  0
 12 13  1  0  0  0  0
 12 35  1  0  0  0  0
 12 36  1  0  0  0  0
 13 14  1  0  0  0  0
 13 27  2  0  0  0  0
 14 15  2  0  0  0  0
 14 37  1  0  0  0  0
 15 16  1  0  0  0  0
 16 17  2  0  0  0  0
 16 26  1  0  0  0  0
 17 18  1  0  0  0  0
 17 38  1  0  0  0  0
 18 19  1  0  0  0  0
 18 25  2  0  0  0  0
 19 20  1  0  0  0  0
 19 24  2  0  0  0  0
 20 21  2  0  0  0  0
 20 39  1  0  0  0  0
 21 22  1  0  0  0  0
 21 40  1  0  0  0  0
 22 23  2  0  0  0  0
 22 41  1  0  0  0  0
 23 24  1  0  0  0  0
 23 42  1  0  0  0  0
 24 43  1  0  0  0  0
 25 26  1  0  0  0  0
 26 27  1  0  0  0  0
M  END
$$$$
