CHEMBL2031905
 OpenBabel04072215363D

 71 75  0  0  0  0  0  0  0  0999 V2000
    7.4936    0.5101    0.0635 C   0  0  0  0  0  0  0  0  0  0  0  0
    6.3985   -0.5424    0.2407 C   0  0  0  0  0  0  0  0  0  0  0  0
    5.2680   -0.0577    1.0589 N   0  0  0  0  0  0  0  0  0  0  0  0
    4.5957    1.0609    0.3785 C   0  0  0  0  0  0  0  0  0  0  0  0
    4.2795   -1.1340    1.3244 C   0  0  0  0  0  0  0  0  0  0  0  0
    4.7876   -2.3275    2.1253 C   0  0  0  0  0  0  0  0  0  0  0  0
    4.8111   -3.6127    1.7048 C   0  0  0  0  0  0  0  0  0  0  0  0
    4.3258   -4.2183    0.4428 C   0  0  0  0  0  0  0  0  0  0  0  0
    4.0434   -3.5088   -0.5170 O   0  0  0  0  0  0  0  0  0  0  0  0
    4.1810   -5.5958    0.4919 N   0  0  0  0  0  0  0  0  0  0  0  0
    3.6687   -6.4318   -0.5212 C   0  0  0  0  0  0  0  0  0  0  0  0
    3.4624   -6.0081   -1.8379 C   0  0  0  0  0  0  0  0  0  0  0  0
    2.8365   -6.8430   -2.7726 C   0  0  0  0  0  0  0  0  0  0  0  0
    2.4087   -8.1131   -2.3946 C   0  0  0  0  0  0  0  0  0  0  0  0
    1.6846   -8.8362   -3.3168 O   0  0  0  0  0  0  0  0  0  0  0  0
    0.5018   -9.4443   -2.9141 C   0  0  0  0  0  0  0  0  0  0  0  0
   -0.2113   -9.0509   -1.7808 C   0  0  0  0  0  0  0  0  0  0  0  0
   -1.3127   -9.7837   -1.4172 C   0  0  0  0  0  0  0  0  0  0  0  0
   -1.8003  -10.8084   -2.1372 N   0  0  0  0  0  0  0  0  0  0  0  0
   -1.1794  -11.1291   -3.2827 C   0  0  0  0  0  0  0  0  0  0  0  0
   -1.7336  -12.1349   -4.0571 C   0  0  0  0  0  0  0  0  0  0  0  0
   -1.1867  -12.5244   -5.2802 C   0  0  0  0  0  0  0  0  0  0  0  0
   -1.8833  -13.5130   -5.9180 O   0  0  0  0  0  0  0  0  0  0  0  0
   -1.4303  -13.9039   -7.2057 C   0  0  0  0  0  0  0  0  0  0  0  0
   -0.0298  -11.9015   -5.7322 C   0  0  0  0  0  0  0  0  0  0  0  0
    0.5611  -10.8926   -4.9609 C   0  0  0  0  0  0  0  0  0  0  0  0
   -0.0102  -10.4827   -3.7331 C   0  0  0  0  0  0  0  0  0  0  0  0
    2.7369   -8.5831   -1.1196 C   0  0  0  0  0  0  0  0  0  0  0  0
    2.4110   -9.8291   -0.7476 F   0  0  0  0  0  0  0  0  0  0  0  0
    3.3368   -7.7461   -0.1789 C   0  0  0  0  0  0  0  0  0  0  0  0
    5.4911   -4.3637    2.7861 C   0  0  0  0  0  0  0  0  0  0  0  0
    5.6061   -5.5838    2.7775 O   0  0  0  0  0  0  0  0  0  0  0  0
    5.8758   -3.4427    3.7528 N   0  0  0  0  0  0  0  0  0  0  0  0
    6.3473   -3.8332    5.0203 C   0  0  0  0  0  0  0  0  0  0  0  0
    7.4652   -4.6800    5.0673 C   0  0  0  0  0  0  0  0  0  0  0  0
    7.9886   -5.1086    6.2856 C   0  0  0  0  0  0  0  0  0  0  0  0
    7.3713   -4.7261    7.4722 C   0  0  0  0  0  0  0  0  0  0  0  0
    6.2442   -3.9020    7.4380 C   0  0  0  0  0  0  0  0  0  0  0  0
    5.7424   -3.4365    6.2156 C   0  0  0  0  0  0  0  0  0  0  0  0
    5.2802   -2.1985    3.4506 N   0  0  0  0  0  0  0  0  0  0  0  0
    6.0040   -0.9996    3.8834 C   0  0  0  0  0  0  0  0  0  0  0  0
    8.3840    0.0548   -0.3825 H   0  0  0  0  0  0  0  0  0  0  0  0
    7.7863    0.9439    1.0257 H   0  0  0  0  0  0  0  0  0  0  0  0
    7.1759    1.3212   -0.5997 H   0  0  0  0  0  0  0  0  0  0  0  0
    6.8698   -1.4003    0.7327 H   0  0  0  0  0  0  0  0  0  0  0  0
    6.0591   -0.8852   -0.7451 H   0  0  0  0  0  0  0  0  0  0  0  0
    5.2169    1.9625    0.4142 H   0  0  0  0  0  0  0  0  0  0  0  0
    3.6546    1.3258    0.8726 H   0  0  0  0  0  0  0  0  0  0  0  0
    4.3743    0.8344   -0.6718 H   0  0  0  0  0  0  0  0  0  0  0  0
    3.8309   -1.4405    0.3762 H   0  0  0  0  0  0  0  0  0  0  0  0
    3.4537   -0.7069    1.9095 H   0  0  0  0  0  0  0  0  0  0  0  0
    4.4064   -6.0509    1.3801 H   0  0  0  0  0  0  0  0  0  0  0  0
    3.7773   -5.0241   -2.1693 H   0  0  0  0  0  0  0  0  0  0  0  0
    2.6629   -6.4783   -3.7810 H   0  0  0  0  0  0  0  0  0  0  0  0
    0.0916   -8.2139   -1.1657 H   0  0  0  0  0  0  0  0  0  0  0  0
   -1.8497   -9.5621   -0.5001 H   0  0  0  0  0  0  0  0  0  0  0  0
   -2.6366  -12.6258   -3.7013 H   0  0  0  0  0  0  0  0  0  0  0  0
   -2.1103  -14.6785   -7.5754 H   0  0  0  0  0  0  0  0  0  0  0  0
   -0.4275  -14.3377   -7.1536 H   0  0  0  0  0  0  0  0  0  0  0  0
   -1.4665  -13.0662   -7.9100 H   0  0  0  0  0  0  0  0  0  0  0  0
    0.4364  -12.1737   -6.6738 H   0  0  0  0  0  0  0  0  0  0  0  0
    1.4626  -10.4111   -5.3333 H   0  0  0  0  0  0  0  0  0  0  0  0
    3.4893   -8.1305    0.8252 H   0  0  0  0  0  0  0  0  0  0  0  0
    7.9532   -4.9898    4.1456 H   0  0  0  0  0  0  0  0  0  0  0  0
    8.8700   -5.7440    6.3016 H   0  0  0  0  0  0  0  0  0  0  0  0
    7.7652   -5.0788    8.4225 H   0  0  0  0  0  0  0  0  0  0  0  0
    5.7500   -3.6333    8.3685 H   0  0  0  0  0  0  0  0  0  0  0  0
    4.8490   -2.8185    6.2056 H   0  0  0  0  0  0  0  0  0  0  0  0
    6.4129   -1.1063    4.8923 H   0  0  0  0  0  0  0  0  0  0  0  0
    5.3253   -0.1403    3.9127 H   0  0  0  0  0  0  0  0  0  0  0  0
    6.8419   -0.7782    3.2152 H   0  0  0  0  0  0  0  0  0  0  0  0
  1  2  1  0  0  0  0
  1 42  1  0  0  0  0
  1 43  1  0  0  0  0
  1 44  1  0  0  0  0
  2  3  1  0  0  0  0
  2 45  1  0  0  0  0
  2 46  1  0  0  0  0
  3  4  1  0  0  0  0
  3  5  1  0  0  0  0
  4 47  1  0  0  0  0
  4 48  1  0  0  0  0
  4 49  1  0  0  0  0
  5  6  1  0  0  0  0
  5 50  1  0  0  0  0
  5 51  1  0  0  0  0
  6  7  2  0  0  0  0
  6 40  1  0  0  0  0
  7  8  1  0  0  0  0
  7 31  1  0  0  0  0
  8  9  2  0  0  0  0
  8 10  1  0  0  0  0
 10 11  1  0  0  0  0
 10 52  1  0  0  0  0
 11 12  1  0  0  0  0
 11 30  2  0  0  0  0
 12 13  2  0  0  0  0
 12 53  1  0  0  0  0
 13 14  1  0  0  0  0
 13 54  1  0  0  0  0
 14 15  1  0  0  0  0
 14 28  2  0  0  0  0
 15 16  1  0  0  0  0
 16 17  1  0  0  0  0
 16 27  2  0  0  0  0
 17 18  2  0  0  0  0
 17 55  1  0  0  0  0
 18 19  1  0  0  0  0
 18 56  1  0  0  0  0
 19 20  2  0  0  0  0
 20 21  1  0  0  0  0
 20 27  1  0  0  0  0
 21 22  2  0  0  0  0
 21 57  1  0  0  0  0
 22 23  1  0  0  0  0
 22 25  1  0  0  0  0
 23 24  1  0  0  0  0
 24 58  1  0  0  0  0
 24 59  1  0  0  0  0
 24 60  1  0  0  0  0
 25 26  2  0  0  0  0
 25 61  1  0  0  0  0
 26 27  1  0  0  0  0
 26 62  1  0  0  0  0
 28 29  1  0  0  0  0
 28 30  1  0  0  0  0
 30 63  1  0  0  0  0
 31 32  2  0  0  0  0
 31 33  1  0  0  0  0
 33 34  1  0  0  0  0
 33 40  1  0  0  0  0
 34 35  1  0  0  0  0
 34 39  2  0  0  0  0
 35 36  2  0  0  0  0
 35 64  1  0  0  0  0
 36 37  1  0  0  0  0
 36 65  1  0  0  0  0
 37 38  2  0  0  0  0
 37 66  1  0  0  0  0
 38 39  1  0  0  0  0
 38 67  1  0  0  0  0
 39 68  1  0  0  0  0
 40 41  1  0  0  0  0
 41 69  1  0  0  0  0
 41 70  1  0  0  0  0
 41 71  1  0  0  0  0
M  END
$$$$
