CHEMBL176702
 OpenBabel04072215363D

 48 51  0  0  0  0  0  0  0  0999 V2000
    1.0369    0.2108    0.0892 N   0  0  0  0  0  0  0  0  0  0  0  0
    2.4123    0.0210    0.0749 C   0  0  0  0  0  0  0  0  0  0  0  0
    3.1446    1.1499    0.1141 N   0  0  0  0  0  0  0  0  0  0  0  0
    4.4798    1.0466    0.1239 C   0  0  0  0  0  0  0  0  0  0  0  0
    5.2115   -0.0694    0.1214 N   0  0  0  0  0  0  0  0  0  0  0  0
    4.4584   -1.1892    0.0747 C   0  0  0  0  0  0  0  0  0  0  0  0
    3.0629   -1.2293    0.0246 C   0  0  0  0  0  0  0  0  0  0  0  0
    2.6886   -2.6135   -0.0728 C   0  0  0  0  0  0  0  0  0  0  0  0
    1.3843   -3.2718   -0.1574 C   0  0  0  0  0  0  0  0  0  0  0  0
    0.3174   -2.6708   -0.8336 C   0  0  0  0  0  0  0  0  0  0  0  0
   -0.9434   -3.2729   -0.8718 C   0  0  0  0  0  0  0  0  0  0  0  0
   -1.1361   -4.5230   -0.2909 C   0  0  0  0  0  0  0  0  0  0  0  0
   -0.0735   -5.1630    0.3390 C   0  0  0  0  0  0  0  0  0  0  0  0
    1.1735   -4.5343    0.4211 C   0  0  0  0  0  0  0  0  0  0  0  0
    3.8665   -3.3388   -0.1147 C   0  0  0  0  0  0  0  0  0  0  0  0
    4.9476   -2.4864   -0.0016 N   0  0  0  0  0  0  0  0  0  0  0  0
    6.3120   -2.8994    0.0200 C   0  0  0  0  0  0  0  0  0  0  0  0
    6.7002   -4.0762   -0.6386 C   0  0  0  0  0  0  0  0  0  0  0  0
    8.0387   -4.4681   -0.6333 C   0  0  0  0  0  0  0  0  0  0  0  0
    8.9899   -3.7214    0.0601 C   0  0  0  0  0  0  0  0  0  0  0  0
    8.6132   -2.5593    0.7554 C   0  0  0  0  0  0  0  0  0  0  0  0
    9.6242   -1.7859    1.5636 C   0  0  0  0  0  0  0  0  0  0  0  0
   10.6908   -1.2517    0.7119 N   0  0  0  0  0  0  0  0  0  0  0  0
   11.6569   -0.4911    1.5188 C   0  0  0  0  0  0  0  0  0  0  0  0
   12.8025    0.0346    0.6478 C   0  0  0  0  0  0  0  0  0  0  0  0
   12.3013    0.8943   -0.3722 O   0  0  0  0  0  0  0  0  0  0  0  0
    7.2722   -2.1484    0.7132 C   0  0  0  0  0  0  0  0  0  0  0  0
    0.8231    1.1726    0.3280 H   0  0  0  0  0  0  0  0  0  0  0  0
    0.5322   -0.4926    0.6138 H   0  0  0  0  0  0  0  0  0  0  0  0
    5.0306    1.9819    0.1384 H   0  0  0  0  0  0  0  0  0  0  0  0
    0.4491   -1.7259   -1.3540 H   0  0  0  0  0  0  0  0  0  0  0  0
   -1.7674   -2.7668   -1.3663 H   0  0  0  0  0  0  0  0  0  0  0  0
   -2.1106   -5.0010   -0.3399 H   0  0  0  0  0  0  0  0  0  0  0  0
   -0.2130   -6.1512    0.7708 H   0  0  0  0  0  0  0  0  0  0  0  0
    1.9758   -5.0511    0.9435 H   0  0  0  0  0  0  0  0  0  0  0  0
    4.0203   -4.4076   -0.1743 H   0  0  0  0  0  0  0  0  0  0  0  0
    5.9941   -4.6713   -1.2083 H   0  0  0  0  0  0  0  0  0  0  0  0
    8.3461   -5.3596   -1.1791 H   0  0  0  0  0  0  0  0  0  0  0  0
   10.0287   -4.0373    0.0600 H   0  0  0  0  0  0  0  0  0  0  0  0
   10.0391   -2.4570    2.3286 H   0  0  0  0  0  0  0  0  0  0  0  0
    9.1275   -0.9652    2.0942 H   0  0  0  0  0  0  0  0  0  0  0  0
   10.2483   -0.6202    0.0433 H   0  0  0  0  0  0  0  0  0  0  0  0
   12.0771   -1.1250    2.3078 H   0  0  0  0  0  0  0  0  0  0  0  0
   11.1467    0.3588    1.9879 H   0  0  0  0  0  0  0  0  0  0  0  0
   13.3560   -0.7845    0.1757 H   0  0  0  0  0  0  0  0  0  0  0  0
   13.5037    0.6102    1.2599 H   0  0  0  0  0  0  0  0  0  0  0  0
   11.8007    0.3200   -0.9780 H   0  0  0  0  0  0  0  0  0  0  0  0
    6.9857   -1.2557    1.2646 H   0  0  0  0  0  0  0  0  0  0  0  0
  1  2  1  0  0  0  0
  1 28  1  0  0  0  0
  1 29  1  0  0  0  0
  2  3  1  0  0  0  0
  2  7  2  0  0  0  0
  3  4  2  0  0  0  0
  4  5  1  0  0  0  0
  4 30  1  0  0  0  0
  5  6  2  0  0  0  0
  6  7  1  0  0  0  0
  6 16  1  0  0  0  0
  7  8  1  0  0  0  0
  8  9  1  0  0  0  0
  8 15  2  0  0  0  0
  9 10  1  0  0  0  0
  9 14  2  0  0  0  0
 10 11  2  0  0  0  0
 10 31  1  0  0  0  0
 11 12  1  0  0  0  0
 11 32  1  0  0  0  0
 12 13  2  0  0  0  0
 12 33  1  0  0  0  0
 13 14  1  0  0  0  0
 13 34  1  0  0  0  0
 14 35  1  0  0  0  0
 15 16  1  0  0  0  0
 15 36  1  0  0  0  0
 16 17  1  0  0  0  0
 17 18  1  0  0  0  0
 17 27  2  0  0  0  0
 18 19  2  0  0  0  0
 18 37  1  0  0  0  0
 19 20  1  0  0  0  0
 19 38  1  0  0  0  0
 20 21  2  0  0  0  0
 20 39  1  0  0  0  0
 21 22  1  0  0  0  0
 21 27  1  0  0  0  0
 22 23  1  0  0  0  0
 22 40  1  0  0  0  0
 22 41  1  0  0  0  0
 23 24  1  0  0  0  0
 23 42  1  0  0  0  0
 24 25  1  0  0  0  0
 24 43  1  0  0  0  0
 24 44  1  0  0  0  0
 25 26  1  0  0  0  0
 25 45  1  0  0  0  0
 25 46  1  0  0  0  0
 26 47  1  0  0  0  0
 27 48  1  0  0  0  0
M  END
$$$$
