CHEMBL3987037
 OpenBabel04072215373D

 54 57  0  0  0  0  0  0  0  0999 V2000
    0.5892   -0.1361   -4.2608 C   0  0  0  0  0  0  0  0  0  0  0  0
    1.9204   -0.5916   -4.4443 O   0  0  0  0  0  0  0  0  0  0  0  0
    2.7449   -0.3646   -3.3833 C   0  0  0  0  0  0  0  0  0  0  0  0
    2.4273    0.2309   -2.2167 C   0  0  0  0  0  0  0  0  0  0  0  0
    3.3356    0.2821   -1.1617 C   0  0  0  0  0  0  0  0  0  0  0  0
    3.0273    0.8356    0.0477 O   0  0  0  0  0  0  0  0  0  0  0  0
    1.7016    1.3536    0.1353 C   0  0  0  0  0  0  0  0  0  0  0  0
    4.6041   -0.2798   -1.2889 C   0  0  0  0  0  0  0  0  0  0  0  0
    4.9560   -0.9864   -2.4324 C   0  0  0  0  0  0  0  0  0  0  0  0
    6.1976   -1.6854   -2.4873 N   0  0  0  0  0  0  0  0  0  0  0  0
    6.8139   -2.2472   -1.2461 C   0  0  0  0  0  0  0  0  0  0  0  0
    5.9550   -3.2680   -0.5321 C   0  0  0  0  0  0  0  0  0  0  0  0
    5.5558   -4.4757   -1.2036 N   0  0  0  0  0  0  0  0  0  0  0  0
    7.1795   -1.4602   -3.5118 C   0  0  0  0  0  0  0  0  0  0  0  0
    7.9834   -2.5023   -3.8735 C   0  0  0  0  0  0  0  0  0  0  0  0
    8.9565   -2.3135   -4.8017 C   0  0  0  0  0  0  0  0  0  0  0  0
    9.2862   -1.1013   -5.3182 C   0  0  0  0  0  0  0  0  0  0  0  0
   10.5420   -1.2093   -5.3196 N   0  0  0  0  0  0  0  0  0  0  0  0
   10.9879   -1.7203   -6.4404 C   0  0  0  0  0  0  0  0  0  0  0  0
   11.1906   -0.8061   -7.3010 C   0  0  0  0  0  0  0  0  0  0  0  0
   12.7934   -1.7003   -7.7054 C   0  0  0  0  0  0  0  0  0  0  0  0
   13.6093   -3.0626   -7.7902 C   0  0  0  0  0  0  0  0  0  0  0  0
   14.8069   -3.1459   -8.4817 N   0  0  0  0  0  0  0  0  0  0  0  0
   14.9927   -1.9441   -9.0358 N   0  0  0  0  0  0  0  0  0  0  0  0
   16.1447   -1.6910   -9.9892 C   0  0  0  0  0  0  0  0  0  0  0  0
   13.8775   -1.0842   -8.5891 C   0  0  0  0  0  0  0  0  0  0  0  0
   10.0340    0.3095   -6.7266 N   0  0  0  0  0  0  0  0  0  0  0  0
    8.8255    0.0872   -5.5212 C   0  0  0  0  0  0  0  0  0  0  0  0
    7.5399   -0.1862   -4.2250 C   0  0  0  0  0  0  0  0  0  0  0  0
    4.0135   -0.8565   -3.4695 C   0  0  0  0  0  0  0  0  0  0  0  0
   -0.0060   -0.4441   -5.1255 H   0  0  0  0  0  0  0  0  0  0  0  0
    0.5853    0.9553   -4.2098 H   0  0  0  0  0  0  0  0  0  0  0  0
    0.1179   -0.5643   -3.3739 H   0  0  0  0  0  0  0  0  0  0  0  0
    1.4595    0.6726   -2.1531 H   0  0  0  0  0  0  0  0  0  0  0  0
    1.5639    1.7591    1.1357 H   0  0  0  0  0  0  0  0  0  0  0  0
    0.9466    0.5700   -0.0193 H   0  0  0  0  0  0  0  0  0  0  0  0
    1.5556    2.1685   -0.5847 H   0  0  0  0  0  0  0  0  0  0  0  0
    5.3265   -0.1607   -0.4858 H   0  0  0  0  0  0  0  0  0  0  0  0
    7.0834   -1.4958   -0.4917 H   0  0  0  0  0  0  0  0  0  0  0  0
    7.7083   -2.7750   -1.5744 H   0  0  0  0  0  0  0  0  0  0  0  0
    4.9967   -2.7415   -0.3693 H   0  0  0  0  0  0  0  0  0  0  0  0
    6.5031   -3.6056    0.3663 H   0  0  0  0  0  0  0  0  0  0  0  0
    4.9755   -4.1625   -1.9743 H   0  0  0  0  0  0  0  0  0  0  0  0
    4.9387   -4.9727   -0.5535 H   0  0  0  0  0  0  0  0  0  0  0  0
    8.0294   -3.4529   -3.3800 H   0  0  0  0  0  0  0  0  0  0  0  0
    9.6861   -3.1132   -5.0002 H   0  0  0  0  0  0  0  0  0  0  0  0
   11.4209   -2.6614   -6.2300 H   0  0  0  0  0  0  0  0  0  0  0  0
   13.4331   -4.0367   -7.3525 H   0  0  0  0  0  0  0  0  0  0  0  0
   16.8624   -2.5400  -10.0960 H   0  0  0  0  0  0  0  0  0  0  0  0
   16.7494   -0.8216   -9.6852 H   0  0  0  0  0  0  0  0  0  0  0  0
   15.7576   -1.5001  -11.0011 H   0  0  0  0  0  0  0  0  0  0  0  0
   14.0372   -0.0991   -8.9933 H   0  0  0  0  0  0  0  0  0  0  0  0
    6.9363    0.6159   -3.7784 H   0  0  0  0  0  0  0  0  0  0  0  0
    4.1343   -1.0699   -4.5052 H   0  0  0  0  0  0  0  0  0  0  0  0
  1  2  1  0  0  0  0
  1 31  1  0  0  0  0
  1 32  1  0  0  0  0
  1 33  1  0  0  0  0
  2  3  1  0  0  0  0
  3  4  1  0  0  0  0
  3 30  2  0  0  0  0
  4  5  2  0  0  0  0
  4 34  1  0  0  0  0
  5  6  1  0  0  0  0
  5  8  1  0  0  0  0
  6  7  1  0  0  0  0
  7 35  1  0  0  0  0
  7 36  1  0  0  0  0
  7 37  1  0  0  0  0
  8  9  2  0  0  0  0
  8 38  1  0  0  0  0
  9 10  1  0  0  0  0
  9 30  1  0  0  0  0
 10 11  1  0  0  0  0
 10 14  1  0  0  0  0
 11 12  1  0  0  0  0
 11 39  1  0  0  0  0
 11 40  1  0  0  0  0
 12 13  1  0  0  0  0
 12 41  1  0  0  0  0
 12 42  1  0  0  0  0
 13 43  1  0  0  0  0
 13 44  1  0  0  0  0
 14 15  1  0  0  0  0
 14 29  2  0  0  0  0
 15 16  2  0  0  0  0
 15 45  1  0  0  0  0
 16 17  1  0  0  0  0
 16 46  1  0  0  0  0
 17 18  1  0  0  0  0
 17 28  2  0  0  0  0
 18 19  2  0  0  0  0
 19 20  1  0  0  0  0
 19 47  1  0  0  0  0
 20 21  1  0  0  0  0
 20 27  2  0  0  0  0
 21 22  1  0  0  0  0
 21 26  2  0  0  0  0
 22 23  2  0  0  0  0
 22 48  1  0  0  0  0
 23 24  1  0  0  0  0
 24 25  1  0  0  0  0
 24 26  1  0  0  0  0
 25 49  1  0  0  0  0
 25 50  1  0  0  0  0
 25 51  1  0  0  0  0
 26 52  1  0  0  0  0
 27 28  1  0  0  0  0
 28 29  1  0  0  0  0
 29 53  1  0  0  0  0
 30 54  1  0  0  0  0
M  END
$$$$
