CHEMBL1271719
 OpenBabel04072215363D

 34 36  0  0  0  0  0  0  0  0999 V2000
   -2.5301    1.6445    0.4757 C   0  0  0  0  0  0  0  0  0  0  0  0
   -1.5859    0.5399    0.0983 C   0  0  0  0  0  0  0  0  0  0  0  0
   -0.3041    0.8448   -0.3839 C   0  0  0  0  0  0  0  0  0  0  0  0
    0.5810   -0.1760   -0.7217 C   0  0  0  0  0  0  0  0  0  0  0  0
    2.1543    0.2099   -1.3006 Cl  0  0  0  0  0  0  0  0  0  0  0  0
    0.2032   -1.5055   -0.5835 C   0  0  0  0  0  0  0  0  0  0  0  0
   -1.0760   -1.8269   -0.1052 C   0  0  0  0  0  0  0  0  0  0  0  0
   -1.3735   -3.2673    0.1000 C   0  0  0  0  0  0  0  0  0  0  0  0
   -0.4286   -3.9878    0.4126 O   0  0  0  0  0  0  0  0  0  0  0  0
   -2.6675   -3.7008   -0.1443 N   0  0  0  0  0  0  0  0  0  0  0  0
   -3.0719   -5.0592   -0.0615 C   0  0  0  0  0  0  0  0  0  0  0  0
   -2.3464   -6.0499    0.5966 C   0  0  0  0  0  0  0  0  0  0  0  0
   -2.6898   -7.3618    0.6388 N   0  0  0  0  0  0  0  0  0  0  0  0
   -3.7913   -7.7426   -0.0177 C   0  0  0  0  0  0  0  0  0  0  0  0
   -4.1212   -9.0892   -0.0406 C   0  0  0  0  0  0  0  0  0  0  0  0
   -5.2408   -9.5571   -0.7305 C   0  0  0  0  0  0  0  0  0  0  0  0
   -6.0582   -8.6580   -1.4058 C   0  0  0  0  0  0  0  0  0  0  0  0
   -5.7544   -7.2960   -1.3868 C   0  0  0  0  0  0  0  0  0  0  0  0
   -4.6178   -6.8250   -0.7001 C   0  0  0  0  0  0  0  0  0  0  0  0
   -4.2516   -5.4624   -0.6870 C   0  0  0  0  0  0  0  0  0  0  0  0
   -1.9713   -0.8058    0.2362 C   0  0  0  0  0  0  0  0  0  0  0  0
   -2.0646    2.6286    0.3514 H   0  0  0  0  0  0  0  0  0  0  0  0
   -2.8285    1.5485    1.5242 H   0  0  0  0  0  0  0  0  0  0  0  0
   -3.4190    1.6118   -0.1615 H   0  0  0  0  0  0  0  0  0  0  0  0
    0.0128    1.8809   -0.4857 H   0  0  0  0  0  0  0  0  0  0  0  0
    0.9069   -2.2983   -0.8317 H   0  0  0  0  0  0  0  0  0  0  0  0
   -3.3127   -3.0535   -0.5800 H   0  0  0  0  0  0  0  0  0  0  0  0
   -1.4369   -5.8366    1.1478 H   0  0  0  0  0  0  0  0  0  0  0  0
   -3.4780   -9.7944    0.4812 H   0  0  0  0  0  0  0  0  0  0  0  0
   -5.4625  -10.6209   -0.7414 H   0  0  0  0  0  0  0  0  0  0  0  0
   -6.9259   -9.0191   -1.9518 H   0  0  0  0  0  0  0  0  0  0  0  0
   -6.3980   -6.6064   -1.9276 H   0  0  0  0  0  0  0  0  0  0  0  0
   -4.8715   -4.7394   -1.2094 H   0  0  0  0  0  0  0  0  0  0  0  0
   -2.9468   -1.0424    0.6538 H   0  0  0  0  0  0  0  0  0  0  0  0
  1  2  1  0  0  0  0
  1 22  1  0  0  0  0
  1 23  1  0  0  0  0
  1 24  1  0  0  0  0
  2  3  1  0  0  0  0
  2 21  2  0  0  0  0
  3  4  2  0  0  0  0
  3 25  1  0  0  0  0
  4  5  1  0  0  0  0
  4  6  1  0  0  0  0
  6  7  2  0  0  0  0
  6 26  1  0  0  0  0
  7  8  1  0  0  0  0
  7 21  1  0  0  0  0
  8  9  2  0  0  0  0
  8 10  1  0  0  0  0
 10 11  1  0  0  0  0
 10 27  1  0  0  0  0
 11 12  1  0  0  0  0
 11 20  2  0  0  0  0
 12 13  2  0  0  0  0
 12 28  1  0  0  0  0
 13 14  1  0  0  0  0
 14 15  1  0  0  0  0
 14 19  2  0  0  0  0
 15 16  2  0  0  0  0
 15 29  1  0  0  0  0
 16 17  1  0  0  0  0
 16 30  1  0  0  0  0
 17 18  2  0  0  0  0
 17 31  1  0  0  0  0
 18 19  1  0  0  0  0
 18 32  1  0  0  0  0
 19 20  1  0  0  0  0
 20 33  1  0  0  0  0
 21 34  1  0  0  0  0
M  END
$$$$
