CHEMBL3953630
 OpenBabel04072215373D

 63 67  0  0  0  0  0  0  0  0999 V2000
    2.4853   -1.2725    0.1433 O   0  0  0  0  0  0  0  0  0  0  0  0
    2.1221   -0.2771   -0.4699 C   0  0  0  0  0  0  0  0  0  0  0  0
    0.7931    0.0667   -0.6676 N   0  0  0  0  0  0  0  0  0  0  0  0
   -0.3294   -0.6697   -0.2101 C   0  0  0  0  0  0  0  0  0  0  0  0
   -0.2403   -1.7277    0.7032 C   0  0  0  0  0  0  0  0  0  0  0  0
   -1.3814   -2.3984    1.1538 C   0  0  0  0  0  0  0  0  0  0  0  0
   -1.2897   -3.4020    2.1398 N   0  0  0  0  0  0  0  0  0  0  0  0
   -0.1444   -4.2603    2.3076 C   0  0  0  0  0  0  0  0  0  0  0  0
   -0.6144   -5.2638    3.3454 C   0  0  0  0  0  0  0  0  0  0  0  0
   -1.5433   -4.4443    4.2260 C   0  0  0  0  0  0  0  0  0  0  0  0
   -2.1292   -3.4434    3.2606 C   0  0  0  0  0  0  0  0  0  0  0  0
   -3.1007   -2.7437    3.5037 O   0  0  0  0  0  0  0  0  0  0  0  0
   -2.6287   -2.0326    0.6478 C   0  0  0  0  0  0  0  0  0  0  0  0
   -2.7489   -0.9892   -0.2786 C   0  0  0  0  0  0  0  0  0  0  0  0
   -4.1016   -0.5961   -0.8138 C   0  0  0  0  0  0  0  0  0  0  0  0
   -5.1238   -1.3756   -0.3660 F   0  0  0  0  0  0  0  0  0  0  0  0
   -4.4327    0.6840   -0.4899 F   0  0  0  0  0  0  0  0  0  0  0  0
   -4.1555   -0.6597   -2.1740 F   0  0  0  0  0  0  0  0  0  0  0  0
   -1.5918   -0.3020   -0.6897 C   0  0  0  0  0  0  0  0  0  0  0  0
    2.9890    0.6204   -1.0810 N   0  0  0  0  0  0  0  0  0  0  0  0
    4.3952    0.4763   -1.1861 C   0  0  0  0  0  0  0  0  0  0  0  0
    5.0826   -0.6623   -0.7451 C   0  0  0  0  0  0  0  0  0  0  0  0
    6.4675   -0.7721   -0.8748 C   0  0  0  0  0  0  0  0  0  0  0  0
    7.2087    0.2781   -1.4085 C   0  0  0  0  0  0  0  0  0  0  0  0
    8.5829    0.2438   -1.5277 O   0  0  0  0  0  0  0  0  0  0  0  0
    9.3310   -0.3224   -0.5086 C   0  0  0  0  0  0  0  0  0  0  0  0
    8.9588   -0.2748    0.8305 C   0  0  0  0  0  0  0  0  0  0  0  0
    9.7694   -0.9060    1.7472 C   0  0  0  0  0  0  0  0  0  0  0  0
   10.9221   -1.5156    1.4161 N   0  0  0  0  0  0  0  0  0  0  0  0
   11.3186   -1.5079    0.1305 C   0  0  0  0  0  0  0  0  0  0  0  0
   12.5334   -2.1148   -0.2184 N   0  0  0  0  0  0  0  0  0  0  0  0
   13.3999   -2.6894    0.6883 C   0  0  0  0  0  0  0  0  0  0  0  0
   13.2982   -2.7342    1.9056 O   0  0  0  0  0  0  0  0  0  0  0  0
   14.5805   -3.3484    0.0434 C   0  0  0  0  0  0  0  0  0  0  0  0
   14.7396   -4.8456    0.1881 C   0  0  0  0  0  0  0  0  0  0  0  0
   15.6969   -3.9265    0.8873 C   0  0  0  0  0  0  0  0  0  0  0  0
   10.5410   -0.9227   -0.8662 C   0  0  0  0  0  0  0  0  0  0  0  0
    6.5269    1.3969   -1.8924 C   0  0  0  0  0  0  0  0  0  0  0  0
    7.2029    2.4006   -2.4637 F   0  0  0  0  0  0  0  0  0  0  0  0
    5.1356    1.5041   -1.7864 C   0  0  0  0  0  0  0  0  0  0  0  0
    0.6036    0.8365   -1.2904 H   0  0  0  0  0  0  0  0  0  0  0  0
    0.7113   -1.9888    1.1494 H   0  0  0  0  0  0  0  0  0  0  0  0
    0.7079   -3.6833    2.6804 H   0  0  0  0  0  0  0  0  0  0  0  0
    0.1132   -4.7521    1.3631 H   0  0  0  0  0  0  0  0  0  0  0  0
    0.2091   -5.7214    3.9005 H   0  0  0  0  0  0  0  0  0  0  0  0
   -1.1864   -6.0665    2.8634 H   0  0  0  0  0  0  0  0  0  0  0  0
   -0.9863   -3.9025    4.9974 H   0  0  0  0  0  0  0  0  0  0  0  0
   -2.3269   -5.0540    4.6803 H   0  0  0  0  0  0  0  0  0  0  0  0
   -3.5181   -2.5760    0.9662 H   0  0  0  0  0  0  0  0  0  0  0  0
   -1.6957    0.5196   -1.3961 H   0  0  0  0  0  0  0  0  0  0  0  0
    2.5947    1.4840   -1.4243 H   0  0  0  0  0  0  0  0  0  0  0  0
    4.5767   -1.4998   -0.2773 H   0  0  0  0  0  0  0  0  0  0  0  0
    6.9496   -1.6860   -0.5292 H   0  0  0  0  0  0  0  0  0  0  0  0
    8.0536    0.2162    1.1710 H   0  0  0  0  0  0  0  0  0  0  0  0
    9.5118   -0.9502    2.8006 H   0  0  0  0  0  0  0  0  0  0  0  0
   12.7771   -2.1358   -1.1953 H   0  0  0  0  0  0  0  0  0  0  0  0
   14.8956   -2.9096   -0.8985 H   0  0  0  0  0  0  0  0  0  0  0  0
   15.1022   -5.4081   -0.6617 H   0  0  0  0  0  0  0  0  0  0  0  0
   14.0248   -5.3805    0.8074 H   0  0  0  0  0  0  0  0  0  0  0  0
   16.7110   -3.8659    0.5117 H   0  0  0  0  0  0  0  0  0  0  0  0
   15.6242   -3.8438    1.9682 H   0  0  0  0  0  0  0  0  0  0  0  0
   10.8563   -0.9301   -1.9043 H   0  0  0  0  0  0  0  0  0  0  0  0
    4.6548    2.3979   -2.1700 H   0  0  0  0  0  0  0  0  0  0  0  0
  1  2  2  0  0  0  0
  2  3  1  0  0  0  0
  2 20  1  0  0  0  0
  3  4  1  0  0  0  0
  3 41  1  0  0  0  0
  4  5  1  0  0  0  0
  4 19  2  0  0  0  0
  5  6  2  0  0  0  0
  5 42  1  0  0  0  0
  6  7  1  0  0  0  0
  6 13  1  0  0  0  0
  7  8  1  0  0  0  0
  7 11  1  0  0  0  0
  8  9  1  0  0  0  0
  8 43  1  0  0  0  0
  8 44  1  0  0  0  0
  9 10  1  0  0  0  0
  9 45  1  0  0  0  0
  9 46  1  0  0  0  0
 10 11  1  0  0  0  0
 10 47  1  0  0  0  0
 10 48  1  0  0  0  0
 11 12  2  0  0  0  0
 13 14  2  0  0  0  0
 13 49  1  0  0  0  0
 14 15  1  0  0  0  0
 14 19  1  0  0  0  0
 15 16  1  0  0  0  0
 15 17  1  0  0  0  0
 15 18  1  0  0  0  0
 19 50  1  0  0  0  0
 20 21  1  0  0  0  0
 20 51  1  0  0  0  0
 21 22  1  0  0  0  0
 21 40  2  0  0  0  0
 22 23  2  0  0  0  0
 22 52  1  0  0  0  0
 23 24  1  0  0  0  0
 23 53  1  0  0  0  0
 24 25  1  0  0  0  0
 24 38  2  0  0  0  0
 25 26  1  0  0  0  0
 26 27  1  0  0  0  0
 26 37  2  0  0  0  0
 27 28  2  0  0  0  0
 27 54  1  0  0  0  0
 28 29  1  0  0  0  0
 28 55  1  0  0  0  0
 29 30  2  0  0  0  0
 30 31  1  0  0  0  0
 30 37  1  0  0  0  0
 31 32  1  0  0  0  0
 31 56  1  0  0  0  0
 32 33  2  0  0  0  0
 32 34  1  0  0  0  0
 34 35  1  0  0  0  0
 34 36  1  0  0  0  0
 34 57  1  0  0  0  0
 35 36  1  0  0  0  0
 35 58  1  0  0  0  0
 35 59  1  0  0  0  0
 36 60  1  0  0  0  0
 36 61  1  0  0  0  0
 37 62  1  0  0  0  0
 38 39  1  0  0  0  0
 38 40  1  0  0  0  0
 40 63  1  0  0  0  0
M  END
$$$$
