CHEMBL260199
 OpenBabel04072215363D

 45 48  0  0  1  0  0  0  0  0999 V2000
    2.2145   -0.7009    2.3798 C   0  0  0  0  0  0  0  0  0  0  0  0
    3.5328   -0.6491    1.7042 C   0  0  0  0  0  0  0  0  0  0  0  0
    4.4184   -1.6578    1.3720 C   0  0  0  0  0  0  0  0  0  0  0  0
    5.4378   -1.0891    0.5631 C   0  0  0  0  0  0  0  0  0  0  0  0
    6.5143   -1.5894   -0.1825 C   0  0  0  0  0  0  0  0  0  0  0  0
    7.2156   -0.6725   -0.9634 C   0  0  0  0  0  0  0  0  0  0  0  0
    8.0921   -1.2191   -1.9187 O   0  0  0  0  0  0  0  0  0  0  0  0
    9.2263   -0.5456   -2.3244 C   0  0  0  0  0  0  0  0  0  0  0  0
    9.8805    0.3038   -1.6097 N   0  0  0  0  0  0  0  0  0  0  0  0
   11.0069    0.8437   -2.1829 C   0  0  0  0  0  0  0  0  0  0  0  0
   11.4531    0.6263   -3.3824 N   0  0  0  0  0  0  0  0  0  0  0  0
   10.7266   -0.2471   -4.1003 N   0  0  0  0  0  0  0  0  0  0  0  0
   10.9784   -0.6372   -5.3812 C   0  0  0  0  0  0  0  0  0  0  0  0
   10.0450   -1.5901   -5.7229 C   0  0  0  0  0  0  0  0  0  0  0  0
    9.9754   -2.2677   -6.8956 O   0  0  0  0  0  0  0  0  0  0  0  0
   11.2051   -2.2523   -7.6413 C   0  0  0  0  0  0  0  0  0  0  0  0
   11.2154   -3.3837   -8.6762 C   0  0  1  0  0  0  0  0  0  0  0  0
   10.9486   -4.7431   -8.0465 C   0  0  0  0  0  0  0  0  0  0  0  0
   10.2382   -3.1437   -9.6889 O   0  0  0  0  0  0  0  0  0  0  0  0
    9.1382   -1.7332   -4.6316 C   0  0  0  0  0  0  0  0  0  0  0  0
    7.9387   -2.6089   -4.5555 C   0  0  0  0  0  0  0  0  0  0  0  0
    9.6206   -0.8915   -3.6408 C   0  0  0  0  0  0  0  0  0  0  0  0
    6.8753    0.6766   -0.9311 C   0  0  0  0  0  0  0  0  0  0  0  0
    5.8748    1.2099   -0.1882 N   0  0  0  0  0  0  0  0  0  0  0  0
    5.1892    0.2780    0.5020 C   0  0  0  0  0  0  0  0  0  0  0  0
    4.0650    0.5318    1.2389 N   0  0  0  0  0  0  0  0  0  0  0  0
    1.9430   -1.7325    2.6262 H   0  0  0  0  0  0  0  0  0  0  0  0
    1.4374   -0.3023    1.7183 H   0  0  0  0  0  0  0  0  0  0  0  0
    2.2211   -0.1150    3.3029 H   0  0  0  0  0  0  0  0  0  0  0  0
    4.2947   -2.7075    1.6060 H   0  0  0  0  0  0  0  0  0  0  0  0
    6.7350   -2.6496   -0.2181 H   0  0  0  0  0  0  0  0  0  0  0  0
   11.5855    1.5336   -1.5436 H   0  0  0  0  0  0  0  0  0  0  0  0
   11.8111   -0.2052   -5.9143 H   0  0  0  0  0  0  0  0  0  0  0  0
   12.0634   -2.4030   -6.9744 H   0  0  0  0  0  0  0  0  0  0  0  0
   11.2907   -1.2852   -8.1516 H   0  0  0  0  0  0  0  0  0  0  0  0
   12.1927   -3.3967   -9.1711 H   0  0  0  0  0  0  0  0  0  0  0  0
    9.9477   -4.7926   -7.6096 H   0  0  0  0  0  0  0  0  0  0  0  0
   11.6853   -4.9688   -7.2687 H   0  0  0  0  0  0  0  0  0  0  0  0
   10.9964   -5.5299   -8.8076 H   0  0  0  0  0  0  0  0  0  0  0  0
    9.3864   -3.0200   -9.2322 H   0  0  0  0  0  0  0  0  0  0  0  0
    7.7616   -3.1458   -5.4921 H   0  0  0  0  0  0  0  0  0  0  0  0
    7.0451   -2.0138   -4.3381 H   0  0  0  0  0  0  0  0  0  0  0  0
    8.0588   -3.3497   -3.7579 H   0  0  0  0  0  0  0  0  0  0  0  0
    7.3829    1.3993   -1.5635 H   0  0  0  0  0  0  0  0  0  0  0  0
    3.6573    1.4508    1.3284 H   0  0  0  0  0  0  0  0  0  0  0  0
  1  2  1  0  0  0  0
  1 27  1  0  0  0  0
  1 28  1  0  0  0  0
  1 29  1  0  0  0  0
  2  3  2  0  0  0  0
  2 26  1  0  0  0  0
  3  4  1  0  0  0  0
  3 30  1  0  0  0  0
  4  5  1  0  0  0  0
  4 25  2  0  0  0  0
  5  6  2  0  0  0  0
  5 31  1  0  0  0  0
  6  7  1  0  0  0  0
  6 23  1  0  0  0  0
  7  8  1  0  0  0  0
  8  9  2  0  0  0  0
  8 22  1  0  0  0  0
  9 10  1  0  0  0  0
 10 11  2  0  0  0  0
 10 32  1  0  0  0  0
 11 12  1  0  0  0  0
 12 13  1  0  0  0  0
 12 22  1  0  0  0  0
 13 14  2  0  0  0  0
 13 33  1  0  0  0  0
 14 15  1  0  0  0  0
 14 20  1  0  0  0  0
 15 16  1  0  0  0  0
 16 17  1  0  0  0  0
 16 34  1  0  0  0  0
 16 35  1  0  0  0  0
 17 18  1  0  0  0  0
 17 19  1  0  0  0  0
 17 36  1  6  0  0  0
 18 37  1  0  0  0  0
 18 38  1  0  0  0  0
 18 39  1  0  0  0  0
 19 40  1  0  0  0  0
 20 21  1  0  0  0  0
 20 22  2  0  0  0  0
 21 41  1  0  0  0  0
 21 42  1  0  0  0  0
 21 43  1  0  0  0  0
 23 24  2  0  0  0  0
 23 44  1  0  0  0  0
 24 25  1  0  0  0  0
 25 26  1  0  0  0  0
 26 45  1  0  0  0  0
M  END
$$$$
