CHEMBL3809588
 OpenBabel04072215373D

 54 57  0  0  0  0  0  0  0  0999 V2000
    5.8090   -6.4767    5.0720 C   0  0  0  0  0  0  0  0  0  0  0  0
    6.3083   -6.8126    3.6543 C   0  0  0  0  0  0  0  0  0  0  0  0
    7.4795   -5.8874    3.2797 C   0  0  0  0  0  0  0  0  0  0  0  0
    6.8047   -8.2689    3.6352 C   0  0  0  0  0  0  0  0  0  0  0  0
    5.1782   -6.5846    2.6959 C   0  0  0  0  0  0  0  0  0  0  0  0
    4.4494   -5.4684    2.3607 C   0  0  0  0  0  0  0  0  0  0  0  0
    3.4924   -5.9274    1.4377 C   0  0  0  0  0  0  0  0  0  0  0  0
    2.5494   -5.1170    0.8499 N   0  0  0  0  0  0  0  0  0  0  0  0
    1.6139   -5.4635   -0.0788 C   0  0  0  0  0  0  0  0  0  0  0  0
    0.9253   -4.5724   -0.5743 O   0  0  0  0  0  0  0  0  0  0  0  0
    1.4929   -6.7993   -0.3520 N   0  0  0  0  0  0  0  0  0  0  0  0
    0.5963   -7.3152   -1.2877 C   0  0  0  0  0  0  0  0  0  0  0  0
    0.4887   -6.7563   -2.5574 C   0  0  0  0  0  0  0  0  0  0  0  0
   -0.4179   -7.2873   -3.4702 C   0  0  0  0  0  0  0  0  0  0  0  0
   -1.2555   -8.3539   -3.1096 C   0  0  0  0  0  0  0  0  0  0  0  0
   -2.2438   -8.8718   -4.0489 C   0  0  0  0  0  0  0  0  0  0  0  0
   -2.8910  -10.0887   -4.1487 C   0  0  0  0  0  0  0  0  0  0  0  0
   -3.7063   -9.9968   -5.3062 C   0  0  0  0  0  0  0  0  0  0  0  0
   -4.5027  -11.0130   -5.7856 N   0  0  0  0  0  0  0  0  0  0  0  0
   -5.2540  -10.9126   -6.9334 C   0  0  0  0  0  0  0  0  0  0  0  0
   -5.3439   -9.9670   -7.7026 O   0  0  0  0  0  0  0  0  0  0  0  0
   -6.0663  -12.1396   -7.2092 C   0  0  0  0  0  0  0  0  0  0  0  0
   -6.8009  -12.2711   -8.5262 C   0  0  0  0  0  0  0  0  0  0  0  0
   -7.5722  -12.0178   -7.2643 C   0  0  0  0  0  0  0  0  0  0  0  0
   -3.6091   -8.7904   -5.8558 N   0  0  0  0  0  0  0  0  0  0  0  0
   -2.7496   -8.1329   -5.0823 N   0  0  0  0  0  0  0  0  0  0  0  0
   -1.1243   -8.9126   -1.8307 C   0  0  0  0  0  0  0  0  0  0  0  0
   -0.1768   -8.4179   -0.9335 C   0  0  0  0  0  0  0  0  0  0  0  0
    3.6286   -7.2416    1.2286 N   0  0  0  0  0  0  0  0  0  0  0  0
    4.6927   -7.6485    2.0045 O   0  0  0  0  0  0  0  0  0  0  0  0
    6.6035   -6.6089    5.8148 H   0  0  0  0  0  0  0  0  0  0  0  0
    4.9712   -7.1258    5.3553 H   0  0  0  0  0  0  0  0  0  0  0  0
    5.4561   -5.4428    5.1399 H   0  0  0  0  0  0  0  0  0  0  0  0
    8.3013   -5.9766    3.9980 H   0  0  0  0  0  0  0  0  0  0  0  0
    7.1725   -4.8354    3.2554 H   0  0  0  0  0  0  0  0  0  0  0  0
    7.8737   -6.1316    2.2858 H   0  0  0  0  0  0  0  0  0  0  0  0
    7.6150   -8.4167    4.3583 H   0  0  0  0  0  0  0  0  0  0  0  0
    7.1874   -8.5505    2.6470 H   0  0  0  0  0  0  0  0  0  0  0  0
    6.0027   -8.9718    3.8906 H   0  0  0  0  0  0  0  0  0  0  0  0
    4.5844   -4.4685    2.7446 H   0  0  0  0  0  0  0  0  0  0  0  0
    2.5611   -4.1324    1.0708 H   0  0  0  0  0  0  0  0  0  0  0  0
    1.8099   -7.4137    0.3903 H   0  0  0  0  0  0  0  0  0  0  0  0
    1.1299   -5.9308   -2.8566 H   0  0  0  0  0  0  0  0  0  0  0  0
   -0.4449   -6.8536   -4.4656 H   0  0  0  0  0  0  0  0  0  0  0  0
   -2.7575  -10.9440   -3.5020 H   0  0  0  0  0  0  0  0  0  0  0  0
   -4.5171  -11.8664   -5.2521 H   0  0  0  0  0  0  0  0  0  0  0  0
   -5.6665  -13.0639   -6.8040 H   0  0  0  0  0  0  0  0  0  0  0  0
   -6.8620  -13.2515   -8.9808 H   0  0  0  0  0  0  0  0  0  0  0  0
   -6.7163  -11.4579   -9.2416 H   0  0  0  0  0  0  0  0  0  0  0  0
   -8.1690  -12.8263   -6.8627 H   0  0  0  0  0  0  0  0  0  0  0  0
   -8.0082  -11.0318   -7.1336 H   0  0  0  0  0  0  0  0  0  0  0  0
   -2.5512   -7.1639   -5.3161 H   0  0  0  0  0  0  0  0  0  0  0  0
   -1.7731   -9.7219   -1.5065 H   0  0  0  0  0  0  0  0  0  0  0  0
   -0.1006   -8.8522    0.0594 H   0  0  0  0  0  0  0  0  0  0  0  0
  1  2  1  0  0  0  0
  1 31  1  0  0  0  0
  1 32  1  0  0  0  0
  1 33  1  0  0  0  0
  2  3  1  0  0  0  0
  2  4  1  0  0  0  0
  2  5  1  0  0  0  0
  3 34  1  0  0  0  0
  3 35  1  0  0  0  0
  3 36  1  0  0  0  0
  4 37  1  0  0  0  0
  4 38  1  0  0  0  0
  4 39  1  0  0  0  0
  5  6  2  0  0  0  0
  5 30  1  0  0  0  0
  6  7  1  0  0  0  0
  6 40  1  0  0  0  0
  7  8  1  0  0  0  0
  7 29  2  0  0  0  0
  8  9  1  0  0  0  0
  8 41  1  0  0  0  0
  9 10  2  0  0  0  0
  9 11  1  0  0  0  0
 11 12  1  0  0  0  0
 11 42  1  0  0  0  0
 12 13  1  0  0  0  0
 12 28  2  0  0  0  0
 13 14  2  0  0  0  0
 13 43  1  0  0  0  0
 14 15  1  0  0  0  0
 14 44  1  0  0  0  0
 15 16  1  0  0  0  0
 15 27  2  0  0  0  0
 16 17  2  0  0  0  0
 16 26  1  0  0  0  0
 17 18  1  0  0  0  0
 17 45  1  0  0  0  0
 18 19  1  0  0  0  0
 18 25  2  0  0  0  0
 19 20  1  0  0  0  0
 19 46  1  0  0  0  0
 20 21  2  0  0  0  0
 20 22  1  0  0  0  0
 22 23  1  0  0  0  0
 22 24  1  0  0  0  0
 22 47  1  0  0  0  0
 23 24  1  0  0  0  0
 23 48  1  0  0  0  0
 23 49  1  0  0  0  0
 24 50  1  0  0  0  0
 24 51  1  0  0  0  0
 25 26  1  0  0  0  0
 26 52  1  0  0  0  0
 27 28  1  0  0  0  0
 27 53  1  0  0  0  0
 28 54  1  0  0  0  0
 29 30  1  0  0  0  0
M  END
$$$$
