CHEMBL3671566
 OpenBabel04072215373D

 64 67  0  0  0  0  0  0  0  0999 V2000
    4.6625   -1.4089   -1.8060 C   0  0  0  0  0  0  0  0  0  0  0  0
    4.1741   -0.5232   -0.9291 C   0  0  0  0  0  0  0  0  0  0  0  0
    5.0465   -0.0253    0.1679 C   0  0  0  0  0  0  0  0  0  0  0  0
    6.2164   -0.3878    0.2572 O   0  0  0  0  0  0  0  0  0  0  0  0
    4.4214    0.8512    1.0362 N   0  0  0  0  0  0  0  0  0  0  0  0
    5.1544    1.6636    1.9312 C   0  0  0  0  0  0  0  0  0  0  0  0
    6.3745    2.2188    1.5080 C   0  0  0  0  0  0  0  0  0  0  0  0
    7.1300    3.0717    2.3487 C   0  0  0  0  0  0  0  0  0  0  0  0
    8.2617    3.8138    1.9758 C   0  0  0  0  0  0  0  0  0  0  0  0
    8.6827    3.8395    0.6207 N   0  0  0  0  0  0  0  0  0  0  0  0
    9.5092    4.8511    0.0762 C   0  0  0  0  0  0  0  0  0  0  0  0
    9.2794    6.2064    0.3674 C   0  0  0  0  0  0  0  0  0  0  0  0
   10.1489    7.1978   -0.0904 C   0  0  0  0  0  0  0  0  0  0  0  0
   11.2521    6.8421   -0.8618 C   0  0  0  0  0  0  0  0  0  0  0  0
   12.4715    8.1740   -1.4159 Br  0  0  0  0  0  0  0  0  0  0  0  0
   11.4720    5.5103   -1.2097 C   0  0  0  0  0  0  0  0  0  0  0  0
   10.5959    4.5315   -0.7456 C   0  0  0  0  0  0  0  0  0  0  0  0
   10.8224    3.2488   -1.0692 F   0  0  0  0  0  0  0  0  0  0  0  0
    8.9289    4.5886    2.8562 N   0  0  0  0  0  0  0  0  0  0  0  0
    8.4584    4.6404    4.1004 C   0  0  0  0  0  0  0  0  0  0  0  0
    7.3645    4.0200    4.5432 N   0  0  0  0  0  0  0  0  0  0  0  0
    6.7034    3.2668    3.6581 C   0  0  0  0  0  0  0  0  0  0  0  0
    5.5023    2.7233    4.0608 C   0  0  0  0  0  0  0  0  0  0  0  0
    4.6633    1.9950    3.1988 C   0  0  0  0  0  0  0  0  0  0  0  0
    3.4006    1.5671    3.5633 O   0  0  0  0  0  0  0  0  0  0  0  0
    2.9045    2.2193    4.7472 C   0  0  0  0  0  0  0  0  0  0  0  0
    1.4189    1.9768    5.0062 C   0  0  0  0  0  0  0  0  0  0  0  0
    0.9384    2.7977    6.1165 N   0  0  0  0  0  0  0  0  0  0  0  0
    0.6310    4.1252    5.9257 C   0  0  0  0  0  0  0  0  0  0  0  0
    0.7117    4.6628    4.8254 O   0  0  0  0  0  0  0  0  0  0  0  0
    0.2392    4.7983    7.0802 N   0  0  0  0  0  0  0  0  0  0  0  0
   -0.1264    6.2093    6.9044 C   0  0  0  0  0  0  0  0  0  0  0  0
   -0.2718    6.9805    8.2316 C   0  0  0  0  0  0  0  0  0  0  0  0
   -1.0967    6.3113    9.2576 N   0  0  0  0  0  0  0  0  0  0  0  0
   -2.5173    6.3359    8.9136 C   0  0  0  0  0  0  0  0  0  0  0  0
   -0.6017    4.9360    9.4465 C   0  0  0  0  0  0  0  0  0  0  0  0
   -0.4766    4.1031    8.1570 C   0  0  0  0  0  0  0  0  0  0  0  0
    4.0865   -1.7350   -2.6632 H   0  0  0  0  0  0  0  0  0  0  0  0
    5.6647   -1.8187   -1.6990 H   0  0  0  0  0  0  0  0  0  0  0  0
    3.1922   -0.0849   -1.0567 H   0  0  0  0  0  0  0  0  0  0  0  0
    3.4236    0.7771    1.1901 H   0  0  0  0  0  0  0  0  0  0  0  0
    6.7204    2.0380    0.4950 H   0  0  0  0  0  0  0  0  0  0  0  0
    8.9376    2.9086    0.2983 H   0  0  0  0  0  0  0  0  0  0  0  0
    8.4259    6.4922    0.9787 H   0  0  0  0  0  0  0  0  0  0  0  0
    9.9637    8.2337    0.1797 H   0  0  0  0  0  0  0  0  0  0  0  0
   12.3222    5.2174   -1.8167 H   0  0  0  0  0  0  0  0  0  0  0  0
    8.9974    5.2570    4.8064 H   0  0  0  0  0  0  0  0  0  0  0  0
    5.2196    2.9301    5.0910 H   0  0  0  0  0  0  0  0  0  0  0  0
    3.0579    3.3021    4.6625 H   0  0  0  0  0  0  0  0  0  0  0  0
    3.4539    1.8390    5.6194 H   0  0  0  0  0  0  0  0  0  0  0  0
    1.2471    0.9296    5.2759 H   0  0  0  0  0  0  0  0  0  0  0  0
    0.8290    2.1907    4.1089 H   0  0  0  0  0  0  0  0  0  0  0  0
    1.3589    2.6084    7.0147 H   0  0  0  0  0  0  0  0  0  0  0  0
   -1.0678    6.2390    6.3425 H   0  0  0  0  0  0  0  0  0  0  0  0
    0.6343    6.7014    6.2861 H   0  0  0  0  0  0  0  0  0  0  0  0
   -0.6594    7.9880    8.0349 H   0  0  0  0  0  0  0  0  0  0  0  0
    0.7289    7.1302    8.6586 H   0  0  0  0  0  0  0  0  0  0  0  0
   -2.8719    7.3696    8.8355 H   0  0  0  0  0  0  0  0  0  0  0  0
   -3.1084    5.8636    9.7063 H   0  0  0  0  0  0  0  0  0  0  0  0
   -2.7461    5.8266    7.9722 H   0  0  0  0  0  0  0  0  0  0  0  0
   -1.2333    4.4022   10.1672 H   0  0  0  0  0  0  0  0  0  0  0  0
    0.3894    5.0005    9.9150 H   0  0  0  0  0  0  0  0  0  0  0  0
   -1.4683    3.8462    7.7663 H   0  0  0  0  0  0  0  0  0  0  0  0
    0.0224    3.1616    8.4019 H   0  0  0  0  0  0  0  0  0  0  0  0
  1  2  2  0  0  0  0
  1 38  1  0  0  0  0
  1 39  1  0  0  0  0
  2  3  1  0  0  0  0
  2 40  1  0  0  0  0
  3  4  2  0  0  0  0
  3  5  1  0  0  0  0
  5  6  1  0  0  0  0
  5 41  1  0  0  0  0
  6  7  1  0  0  0  0
  6 24  2  0  0  0  0
  7  8  2  0  0  0  0
  7 42  1  0  0  0  0
  8  9  1  0  0  0  0
  8 22  1  0  0  0  0
  9 10  1  0  0  0  0
  9 19  2  0  0  0  0
 10 11  1  0  0  0  0
 10 43  1  0  0  0  0
 11 12  1  0  0  0  0
 11 17  2  0  0  0  0
 12 13  2  0  0  0  0
 12 44  1  0  0  0  0
 13 14  1  0  0  0  0
 13 45  1  0  0  0  0
 14 15  1  0  0  0  0
 14 16  2  0  0  0  0
 16 17  1  0  0  0  0
 16 46  1  0  0  0  0
 17 18  1  0  0  0  0
 19 20  1  0  0  0  0
 20 21  2  0  0  0  0
 20 47  1  0  0  0  0
 21 22  1  0  0  0  0
 22 23  2  0  0  0  0
 23 24  1  0  0  0  0
 23 48  1  0  0  0  0
 24 25  1  0  0  0  0
 25 26  1  0  0  0  0
 26 27  1  0  0  0  0
 26 49  1  0  0  0  0
 26 50  1  0  0  0  0
 27 28  1  0  0  0  0
 27 51  1  0  0  0  0
 27 52  1  0  0  0  0
 28 29  1  0  0  0  0
 28 53  1  0  0  0  0
 29 30  2  0  0  0  0
 29 31  1  0  0  0  0
 31 32  1  0  0  0  0
 31 37  1  0  0  0  0
 32 33  1  0  0  0  0
 32 54  1  0  0  0  0
 32 55  1  0  0  0  0
 33 34  1  0  0  0  0
 33 56  1  0  0  0  0
 33 57  1  0  0  0  0
 34 35  1  0  0  0  0
 34 36  1  0  0  0  0
 35 58  1  0  0  0  0
 35 59  1  0  0  0  0
 35 60  1  0  0  0  0
 36 37  1  0  0  0  0
 36 61  1  0  0  0  0
 36 62  1  0  0  0  0
 37 63  1  0  0  0  0
 37 64  1  0  0  0  0
M  END
$$$$
