CHEMBL453195
 OpenBabel04072215383D

 36 38  0  0  0  0  0  0  0  0999 V2000
    2.0959    0.1584   -0.0050 C   0  0  0  0  0  0  0  0  0  0  0  0
    0.6647   -0.0148   -0.0772 N   0  0  0  0  0  0  0  0  0  0  0  0
   -0.2105    1.0387   -0.0921 C   0  0  0  0  0  0  0  0  0  0  0  0
   -1.4556    0.6369   -0.1031 N   0  0  0  0  0  0  0  0  0  0  0  0
   -1.3773   -0.7291   -0.0731 C   0  0  0  0  0  0  0  0  0  0  0  0
   -2.5808   -1.4733    0.0136 C   0  0  0  0  0  0  0  0  0  0  0  0
   -3.2548   -1.9645   -1.0379 C   0  0  0  0  0  0  0  0  0  0  0  0
   -4.4840   -2.7586   -0.8995 C   0  0  0  0  0  0  0  0  0  0  0  0
   -5.1490   -3.2131   -2.0164 C   0  0  0  0  0  0  0  0  0  0  0  0
   -6.2715   -3.9665   -1.7728 C   0  0  0  0  0  0  0  0  0  0  0  0
   -6.7225   -4.2529   -0.5386 N   0  0  0  0  0  0  0  0  0  0  0  0
   -6.0226   -3.7467    0.4784 C   0  0  0  0  0  0  0  0  0  0  0  0
   -6.4553   -4.0263    1.7577 N   0  0  0  0  0  0  0  0  0  0  0  0
   -4.9049   -3.0311    0.3531 N   0  0  0  0  0  0  0  0  0  0  0  0
   -0.0627   -1.1980   -0.0583 C   0  0  0  0  0  0  0  0  0  0  0  0
    0.4861   -2.5605    0.0387 C   0  0  0  0  0  0  0  0  0  0  0  0
    1.6643   -2.9366   -0.6202 C   0  0  0  0  0  0  0  0  0  0  0  0
    2.2045   -4.2190   -0.4688 C   0  0  0  0  0  0  0  0  0  0  0  0
    1.5461   -5.1670    0.3065 C   0  0  0  0  0  0  0  0  0  0  0  0
    0.3485   -4.8326    0.9280 C   0  0  0  0  0  0  0  0  0  0  0  0
   -0.1694   -3.5390    0.8025 C   0  0  0  0  0  0  0  0  0  0  0  0
    2.3310    1.2167    0.1412 H   0  0  0  0  0  0  0  0  0  0  0  0
    2.5354   -0.1631   -0.9512 H   0  0  0  0  0  0  0  0  0  0  0  0
    2.4848   -0.4181    0.8369 H   0  0  0  0  0  0  0  0  0  0  0  0
    0.1119    2.0722   -0.0776 H   0  0  0  0  0  0  0  0  0  0  0  0
   -2.9583   -1.6297    1.0203 H   0  0  0  0  0  0  0  0  0  0  0  0
   -2.8929   -1.7784   -2.0440 H   0  0  0  0  0  0  0  0  0  0  0  0
   -4.8183   -3.0020   -3.0237 H   0  0  0  0  0  0  0  0  0  0  0  0
   -6.8615   -4.3760   -2.5871 H   0  0  0  0  0  0  0  0  0  0  0  0
   -7.0076   -4.8710    1.7538 H   0  0  0  0  0  0  0  0  0  0  0  0
   -5.6762   -3.9766    2.3985 H   0  0  0  0  0  0  0  0  0  0  0  0
    2.1845   -2.2488   -1.2773 H   0  0  0  0  0  0  0  0  0  0  0  0
    3.1370   -4.4763   -0.9647 H   0  0  0  0  0  0  0  0  0  0  0  0
    1.9602   -6.1653    0.4196 H   0  0  0  0  0  0  0  0  0  0  0  0
   -0.1857   -5.5729    1.5179 H   0  0  0  0  0  0  0  0  0  0  0  0
   -1.0959   -3.3120    1.3234 H   0  0  0  0  0  0  0  0  0  0  0  0
  1  2  1  0  0  0  0
  1 22  1  0  0  0  0
  1 23  1  0  0  0  0
  1 24  1  0  0  0  0
  2  3  1  0  0  0  0
  2 15  1  0  0  0  0
  3  4  2  0  0  0  0
  3 25  1  0  0  0  0
  4  5  1  0  0  0  0
  5  6  1  0  0  0  0
  5 15  2  0  0  0  0
  6  7  2  0  0  0  0
  6 26  1  0  0  0  0
  7  8  1  0  0  0  0
  7 27  1  0  0  0  0
  8  9  1  0  0  0  0
  8 14  2  0  0  0  0
  9 10  2  0  0  0  0
  9 28  1  0  0  0  0
 10 11  1  0  0  0  0
 10 29  1  0  0  0  0
 11 12  2  0  0  0  0
 12 13  1  0  0  0  0
 12 14  1  0  0  0  0
 13 30  1  0  0  0  0
 13 31  1  0  0  0  0
 15 16  1  0  0  0  0
 16 17  1  0  0  0  0
 16 21  2  0  0  0  0
 17 18  2  0  0  0  0
 17 32  1  0  0  0  0
 18 19  1  0  0  0  0
 18 33  1  0  0  0  0
 19 20  2  0  0  0  0
 19 34  1  0  0  0  0
 20 21  1  0  0  0  0
 20 35  1  0  0  0  0
 21 36  1  0  0  0  0
M  END
$$$$
