CHEMBL1966514
 OpenBabel04072215363D

 49 53  0  0  0  0  0  0  0  0999 V2000
    1.2082   -0.2538   -1.8288 N   0  0  0  0  0  0  0  0  0  0  0  0
    2.5658   -0.2843   -1.5457 C   0  0  0  0  0  0  0  0  0  0  0  0
    3.2426    0.7883   -1.9989 N   0  0  0  0  0  0  0  0  0  0  0  0
    4.5580    0.9113   -1.7517 C   0  0  0  0  0  0  0  0  0  0  0  0
    5.3163    0.0083   -1.0279 C   0  0  0  0  0  0  0  0  0  0  0  0
    6.7326    0.2238   -0.7710 C   0  0  0  0  0  0  0  0  0  0  0  0
    7.8211   -0.6862   -0.6671 C   0  0  0  0  0  0  0  0  0  0  0  0
    8.9444    0.0633   -0.3898 C   0  0  0  0  0  0  0  0  0  0  0  0
    8.6288    1.3798   -0.3408 O   0  0  0  0  0  0  0  0  0  0  0  0
    7.2930    1.4754   -0.5731 C   0  0  0  0  0  0  0  0  0  0  0  0
    4.6160   -1.1266   -0.5620 C   0  0  0  0  0  0  0  0  0  0  0  0
    5.2393   -2.4167    0.4048 S   0  0  0  0  0  0  0  0  0  0  0  0
    3.7870   -3.2653    0.3750 C   0  0  0  0  0  0  0  0  0  0  0  0
    2.7644   -2.5815   -0.2532 C   0  0  0  0  0  0  0  0  0  0  0  0
    1.4234   -3.1799   -0.2227 C   0  0  0  0  0  0  0  0  0  0  0  0
    0.9856   -3.7970    0.9560 C   0  0  0  0  0  0  0  0  0  0  0  0
   -0.2760   -4.3775    1.0391 C   0  0  0  0  0  0  0  0  0  0  0  0
   -1.1673   -4.3048   -0.0287 C   0  0  0  0  0  0  0  0  0  0  0  0
   -2.4800   -4.8122    0.0701 N   0  0  0  0  0  0  0  0  0  0  0  0
   -3.1414   -4.9930    1.2743 C   0  0  0  0  0  0  0  0  0  0  0  0
   -2.7465   -4.5788    2.3584 O   0  0  0  0  0  0  0  0  0  0  0  0
   -4.2975   -5.7425    1.1160 N   0  0  0  0  0  0  0  0  0  0  0  0
   -5.1685   -6.0018    2.2004 C   0  0  0  0  0  0  0  0  0  0  0  0
   -5.4303   -5.0319    3.1779 C   0  0  0  0  0  0  0  0  0  0  0  0
   -6.2634   -5.3204    4.2592 C   0  0  0  0  0  0  0  0  0  0  0  0
   -6.8395   -6.5834    4.3724 C   0  0  0  0  0  0  0  0  0  0  0  0
   -6.5811   -7.5354    3.3954 C   0  0  0  0  0  0  0  0  0  0  0  0
   -7.1147   -8.7591    3.5159 F   0  0  0  0  0  0  0  0  0  0  0  0
   -5.7692   -7.2535    2.2976 C   0  0  0  0  0  0  0  0  0  0  0  0
   -0.7323   -3.7296   -1.2257 C   0  0  0  0  0  0  0  0  0  0  0  0
    0.5645   -3.1925   -1.3271 C   0  0  0  0  0  0  0  0  0  0  0  0
    3.2370   -1.3112   -0.8243 C   0  0  0  0  0  0  0  0  0  0  0  0
    0.9690    0.6764   -2.1511 H   0  0  0  0  0  0  0  0  0  0  0  0
    0.6361   -0.5959   -1.0676 H   0  0  0  0  0  0  0  0  0  0  0  0
    5.0004    1.8088   -2.1765 H   0  0  0  0  0  0  0  0  0  0  0  0
    7.8102   -1.7574   -0.7717 H   0  0  0  0  0  0  0  0  0  0  0  0
    9.9814   -0.1800   -0.2154 H   0  0  0  0  0  0  0  0  0  0  0  0
    6.9021    2.4833   -0.5569 H   0  0  0  0  0  0  0  0  0  0  0  0
    3.7414   -4.2271    0.8678 H   0  0  0  0  0  0  0  0  0  0  0  0
    1.6166   -3.8385    1.8434 H   0  0  0  0  0  0  0  0  0  0  0  0
   -0.5349   -4.8811    1.9693 H   0  0  0  0  0  0  0  0  0  0  0  0
   -3.0677   -4.7537   -0.7493 H   0  0  0  0  0  0  0  0  0  0  0  0
   -4.2439   -6.4453    0.3918 H   0  0  0  0  0  0  0  0  0  0  0  0
   -4.9879   -4.0384    3.1148 H   0  0  0  0  0  0  0  0  0  0  0  0
   -6.4530   -4.5609    5.0163 H   0  0  0  0  0  0  0  0  0  0  0  0
   -7.4776   -6.8355    5.2129 H   0  0  0  0  0  0  0  0  0  0  0  0
   -5.5797   -8.0383    1.5741 H   0  0  0  0  0  0  0  0  0  0  0  0
   -1.3894   -3.6704   -2.0875 H   0  0  0  0  0  0  0  0  0  0  0  0
    0.8795   -2.7667   -2.2783 H   0  0  0  0  0  0  0  0  0  0  0  0
  1  2  1  0  0  0  0
  1 33  1  0  0  0  0
  1 34  1  0  0  0  0
  2  3  1  0  0  0  0
  2 32  2  0  0  0  0
  3  4  2  0  0  0  0
  4  5  1  0  0  0  0
  4 35  1  0  0  0  0
  5  6  1  0  0  0  0
  5 11  2  0  0  0  0
  6  7  1  0  0  0  0
  6 10  2  0  0  0  0
  7  8  2  0  0  0  0
  7 36  1  0  0  0  0
  8  9  1  0  0  0  0
  8 37  1  0  0  0  0
  9 10  1  0  0  0  0
 10 38  1  0  0  0  0
 11 12  1  0  0  0  0
 11 32  1  0  0  0  0
 12 13  1  0  0  0  0
 13 14  2  0  0  0  0
 13 39  1  0  0  0  0
 14 15  1  0  0  0  0
 14 32  1  0  0  0  0
 15 16  1  0  0  0  0
 15 31  2  0  0  0  0
 16 17  2  0  0  0  0
 16 40  1  0  0  0  0
 17 18  1  0  0  0  0
 17 41  1  0  0  0  0
 18 19  1  0  0  0  0
 18 30  2  0  0  0  0
 19 20  1  0  0  0  0
 19 42  1  0  0  0  0
 20 21  2  0  0  0  0
 20 22  1  0  0  0  0
 22 23  1  0  0  0  0
 22 43  1  0  0  0  0
 23 24  1  0  0  0  0
 23 29  2  0  0  0  0
 24 25  2  0  0  0  0
 24 44  1  0  0  0  0
 25 26  1  0  0  0  0
 25 45  1  0  0  0  0
 26 27  2  0  0  0  0
 26 46  1  0  0  0  0
 27 28  1  0  0  0  0
 27 29  1  0  0  0  0
 29 47  1  0  0  0  0
 30 31  1  0  0  0  0
 30 48  1  0  0  0  0
 31 49  1  0  0  0  0
M  END
$$$$
