CHEMBL218252
 OpenBabel04072215363D

 69 75  0  0  0  0  0  0  0  0999 V2000
    3.6431    2.6425   -1.4913 C   0  0  0  0  0  0  0  0  0  0  0  0
    3.2219    1.4764   -2.3792 C   0  0  0  0  0  0  0  0  0  0  0  0
    3.6833    0.0836   -1.9203 C   0  0  0  0  0  0  0  0  0  0  0  0
    5.1260   -0.0962   -1.8142 N   0  0  0  0  0  0  0  0  0  0  0  0
    5.8373    0.0719   -0.6058 C   0  0  0  0  0  0  0  0  0  0  0  0
    5.3971    0.3188    0.7027 C   0  0  0  0  0  0  0  0  0  0  0  0
    6.3589    0.5344    1.7039 C   0  0  0  0  0  0  0  0  0  0  0  0
    7.7296    0.4698    1.4474 C   0  0  0  0  0  0  0  0  0  0  0  0
    8.7376    0.6280    2.4304 N   0  0  0  0  0  0  0  0  0  0  0  0
    8.5246    0.6249    3.7938 C   0  0  0  0  0  0  0  0  0  0  0  0
    7.4233    0.4929    4.3109 O   0  0  0  0  0  0  0  0  0  0  0  0
    9.6994    0.7683    4.5165 N   0  0  0  0  0  0  0  0  0  0  0  0
    9.7421    0.6698    5.9330 C   0  0  0  0  0  0  0  0  0  0  0  0
    8.7691   -0.0209    6.6639 C   0  0  0  0  0  0  0  0  0  0  0  0
    8.7370    0.0177    8.0627 C   0  0  0  0  0  0  0  0  0  0  0  0
    7.5852   -0.6092    8.7924 C   0  0  0  0  0  0  0  0  0  0  0  0
    9.7421    0.7077    8.7456 C   0  0  0  0  0  0  0  0  0  0  0  0
   10.7720    1.3293    8.0341 C   0  0  0  0  0  0  0  0  0  0  0  0
   10.7669    1.3050    6.6389 C   0  0  0  0  0  0  0  0  0  0  0  0
   11.7426    1.9404    5.9713 F   0  0  0  0  0  0  0  0  0  0  0  0
    8.1525    0.2508    0.1366 C   0  0  0  0  0  0  0  0  0  0  0  0
    7.2062    0.0745   -0.8861 C   0  0  0  0  0  0  0  0  0  0  0  0
    7.2058    0.0001   -2.2681 C   0  0  0  0  0  0  0  0  0  0  0  0
    8.2872    0.4468   -3.0376 C   0  0  0  0  0  0  0  0  0  0  0  0
    7.9695    0.8468   -4.3517 C   0  0  0  0  0  0  0  0  0  0  0  0
    6.7024    0.6791   -4.9364 C   0  0  0  0  0  0  0  0  0  0  0  0
    5.9227   -0.3363   -4.2884 C   0  0  0  0  0  0  0  0  0  0  0  0
    6.0108   -0.2762   -2.8775 C   0  0  0  0  0  0  0  0  0  0  0  0
    5.9683   -1.7060   -5.1028 C   0  0  0  0  0  0  0  0  0  0  0  0
    6.9997   -1.7260   -6.3102 C   0  0  0  0  0  0  0  0  0  0  0  0
    6.7628   -0.4824   -7.0915 C   0  0  0  0  0  0  0  0  0  0  0  0
    6.3856   -0.3707   -8.3641 N   0  0  0  0  0  0  0  0  0  0  0  0
    5.9152    0.9024   -8.4184 N   0  0  0  0  0  0  0  0  0  0  0  0
    5.2888    1.3846   -9.6250 C   0  0  0  0  0  0  0  0  0  0  0  0
    5.9046    1.5390   -7.2006 C   0  0  0  0  0  0  0  0  0  0  0  0
    6.6114    0.7112   -6.3709 C   0  0  0  0  0  0  0  0  0  0  0  0
    9.1998    1.2819   -4.9734 C   0  0  0  0  0  0  0  0  0  0  0  0
    9.4878    1.6732   -6.0968 O   0  0  0  0  0  0  0  0  0  0  0  0
   10.1640    1.1160   -3.9844 N   0  0  0  0  0  0  0  0  0  0  0  0
    9.6905    0.6531   -2.7027 C   0  0  0  0  0  0  0  0  0  0  0  0
    3.3450    3.5890   -1.9579 H   0  0  0  0  0  0  0  0  0  0  0  0
    4.7258    2.6812   -1.3471 H   0  0  0  0  0  0  0  0  0  0  0  0
    3.1591    2.5944   -0.5104 H   0  0  0  0  0  0  0  0  0  0  0  0
    3.5781    1.6649   -3.3973 H   0  0  0  0  0  0  0  0  0  0  0  0
    2.1248    1.4761   -2.4260 H   0  0  0  0  0  0  0  0  0  0  0  0
    3.3161   -0.6752   -2.6200 H   0  0  0  0  0  0  0  0  0  0  0  0
    3.2358   -0.1526   -0.9481 H   0  0  0  0  0  0  0  0  0  0  0  0
    4.3436    0.3862    0.9555 H   0  0  0  0  0  0  0  0  0  0  0  0
    5.9802    0.7726    2.6940 H   0  0  0  0  0  0  0  0  0  0  0  0
    9.6962    0.5559    2.1242 H   0  0  0  0  0  0  0  0  0  0  0  0
   10.4540    1.2941    4.0912 H   0  0  0  0  0  0  0  0  0  0  0  0
    7.9958   -0.5898    6.1534 H   0  0  0  0  0  0  0  0  0  0  0  0
    6.9778   -1.2282    8.1216 H   0  0  0  0  0  0  0  0  0  0  0  0
    6.9366    0.1724    9.2011 H   0  0  0  0  0  0  0  0  0  0  0  0
    7.9419   -1.2512    9.6020 H   0  0  0  0  0  0  0  0  0  0  0  0
    9.7218    0.7685    9.8313 H   0  0  0  0  0  0  0  0  0  0  0  0
   11.5608    1.8572    8.5605 H   0  0  0  0  0  0  0  0  0  0  0  0
    9.2110    0.2126   -0.0888 H   0  0  0  0  0  0  0  0  0  0  0  0
    4.9660   -1.8830   -5.5083 H   0  0  0  0  0  0  0  0  0  0  0  0
    6.2234   -2.5278   -4.4239 H   0  0  0  0  0  0  0  0  0  0  0  0
    6.9081   -2.6253   -6.9241 H   0  0  0  0  0  0  0  0  0  0  0  0
    8.0288   -1.7043   -5.9177 H   0  0  0  0  0  0  0  0  0  0  0  0
    5.5307    0.7148  -10.4536 H   0  0  0  0  0  0  0  0  0  0  0  0
    5.6645    2.3890   -9.8339 H   0  0  0  0  0  0  0  0  0  0  0  0
    4.2084    1.4058   -9.4605 H   0  0  0  0  0  0  0  0  0  0  0  0
    5.3696    2.4645   -7.0403 H   0  0  0  0  0  0  0  0  0  0  0  0
   11.1333    1.2817   -4.2104 H   0  0  0  0  0  0  0  0  0  0  0  0
    9.8375    1.4434   -1.9654 H   0  0  0  0  0  0  0  0  0  0  0  0
   10.1954   -0.2760   -2.4273 H   0  0  0  0  0  0  0  0  0  0  0  0
  1  2  1  0  0  0  0
  1 41  1  0  0  0  0
  1 42  1  0  0  0  0
  1 43  1  0  0  0  0
  2  3  1  0  0  0  0
  2 44  1  0  0  0  0
  2 45  1  0  0  0  0
  3  4  1  0  0  0  0
  3 46  1  0  0  0  0
  3 47  1  0  0  0  0
  4  5  1  0  0  0  0
  4 28  1  0  0  0  0
  5  6  1  0  0  0  0
  5 22  2  0  0  0  0
  6  7  2  0  0  0  0
  6 48  1  0  0  0  0
  7  8  1  0  0  0  0
  7 49  1  0  0  0  0
  8  9  1  0  0  0  0
  8 21  2  0  0  0  0
  9 10  1  0  0  0  0
  9 50  1  0  0  0  0
 10 11  2  0  0  0  0
 10 12  1  0  0  0  0
 12 13  1  0  0  0  0
 12 51  1  0  0  0  0
 13 14  1  0  0  0  0
 13 19  2  0  0  0  0
 14 15  2  0  0  0  0
 14 52  1  0  0  0  0
 15 16  1  0  0  0  0
 15 17  1  0  0  0  0
 16 53  1  0  0  0  0
 16 54  1  0  0  0  0
 16 55  1  0  0  0  0
 17 18  2  0  0  0  0
 17 56  1  0  0  0  0
 18 19  1  0  0  0  0
 18 57  1  0  0  0  0
 19 20  1  0  0  0  0
 21 22  1  0  0  0  0
 21 58  1  0  0  0  0
 22 23  1  0  0  0  0
 23 24  1  0  0  0  0
 23 28  2  0  0  0  0
 24 25  2  0  0  0  0
 24 40  1  0  0  0  0
 25 26  1  0  0  0  0
 25 37  1  0  0  0  0
 26 27  2  0  0  0  0
 26 36  1  0  0  0  0
 27 28  1  0  0  0  0
 27 29  1  0  0  0  0
 29 30  1  0  0  0  0
 29 59  1  0  0  0  0
 29 60  1  0  0  0  0
 30 31  1  0  0  0  0
 30 61  1  0  0  0  0
 30 62  1  0  0  0  0
 31 32  2  0  0  0  0
 31 36  1  0  0  0  0
 32 33  1  0  0  0  0
 33 34  1  0  0  0  0
 33 35  1  0  0  0  0
 34 63  1  0  0  0  0
 34 64  1  0  0  0  0
 34 65  1  0  0  0  0
 35 36  2  0  0  0  0
 35 66  1  0  0  0  0
 37 38  2  0  0  0  0
 37 39  1  0  0  0  0
 39 40  1  0  0  0  0
 39 67  1  0  0  0  0
 40 68  1  0  0  0  0
 40 69  1  0  0  0  0
M  END
$$$$
