CHEMBL4173438
 OpenBabel04072215383D

 47 50  0  0  0  0  0  0  0  0999 V2000
    4.8907    2.8549    4.0905 C   0  0  0  0  0  0  0  0  0  0  0  0
    5.3456    2.1395    2.9219 N   0  0  0  0  0  0  0  0  0  0  0  0
    5.4353    2.6526    1.6527 C   0  0  0  0  0  0  0  0  0  0  0  0
    5.9501    1.6664    0.8359 C   0  0  0  0  0  0  0  0  0  0  0  0
    6.1740    0.5163    1.6410 C   0  0  0  0  0  0  0  0  0  0  0  0
    6.6884   -0.7680    1.4618 C   0  0  0  0  0  0  0  0  0  0  0  0
    7.1576   -1.1600    0.2169 O   0  0  0  0  0  0  0  0  0  0  0  0
    8.2092   -2.0454    0.1652 C   0  0  0  0  0  0  0  0  0  0  0  0
    8.2462   -2.8882   -0.9429 C   0  0  0  0  0  0  0  0  0  0  0  0
    9.2890   -3.8082   -1.0933 C   0  0  0  0  0  0  0  0  0  0  0  0
   10.3188   -3.8879   -0.1469 C   0  0  0  0  0  0  0  0  0  0  0  0
   11.3736   -4.8285   -0.2178 N   0  0  0  0  0  0  0  0  0  0  0  0
   11.6446   -5.6774   -1.2731 C   0  0  0  0  0  0  0  0  0  0  0  0
   11.0850   -5.6558   -2.3637 O   0  0  0  0  0  0  0  0  0  0  0  0
   12.6173   -6.6137   -0.9390 N   0  0  0  0  0  0  0  0  0  0  0  0
   13.0293   -7.5881   -1.8746 C   0  0  0  0  0  0  0  0  0  0  0  0
   13.1321   -8.9122   -1.4656 C   0  0  0  0  0  0  0  0  0  0  0  0
   13.4450   -9.9005   -2.4002 C   0  0  0  0  0  0  0  0  0  0  0  0
   13.7148   -9.5712   -3.7371 C   0  0  0  0  0  0  0  0  0  0  0  0
   14.0771  -10.8873   -4.7905 Cl  0  0  0  0  0  0  0  0  0  0  0  0
   13.6769   -8.2398   -4.1546 C   0  0  0  0  0  0  0  0  0  0  0  0
   13.9912   -7.7637   -5.5507 C   0  0  0  0  0  0  0  0  0  0  0  0
   14.4096   -8.7100   -6.4314 F   0  0  0  0  0  0  0  0  0  0  0  0
   12.9221   -7.1611   -6.1446 F   0  0  0  0  0  0  0  0  0  0  0  0
   14.9814   -6.8222   -5.5472 F   0  0  0  0  0  0  0  0  0  0  0  0
   13.3165   -7.2566   -3.2028 C   0  0  0  0  0  0  0  0  0  0  0  0
   10.2896   -3.0219    0.9435 C   0  0  0  0  0  0  0  0  0  0  0  0
    9.2502   -2.0919    1.0915 C   0  0  0  0  0  0  0  0  0  0  0  0
    6.6976   -1.6403    2.4989 N   0  0  0  0  0  0  0  0  0  0  0  0
    6.2649   -1.1959    3.6911 C   0  0  0  0  0  0  0  0  0  0  0  0
    5.8030    0.0266    4.0025 N   0  0  0  0  0  0  0  0  0  0  0  0
    5.7719    0.8364    2.9299 C   0  0  0  0  0  0  0  0  0  0  0  0
    4.6164    3.8750    3.8107 H   0  0  0  0  0  0  0  0  0  0  0  0
    5.7051    2.8785    4.8195 H   0  0  0  0  0  0  0  0  0  0  0  0
    4.0211    2.3349    4.4998 H   0  0  0  0  0  0  0  0  0  0  0  0
    5.1359    3.6693    1.4327 H   0  0  0  0  0  0  0  0  0  0  0  0
    6.1477    1.7609   -0.2245 H   0  0  0  0  0  0  0  0  0  0  0  0
    7.4624   -2.8416   -1.6935 H   0  0  0  0  0  0  0  0  0  0  0  0
    9.2568   -4.4535   -1.9664 H   0  0  0  0  0  0  0  0  0  0  0  0
   12.0726   -4.7816    0.5081 H   0  0  0  0  0  0  0  0  0  0  0  0
   12.5928   -6.9010    0.0294 H   0  0  0  0  0  0  0  0  0  0  0  0
   12.9030   -9.2037   -0.4444 H   0  0  0  0  0  0  0  0  0  0  0  0
   13.4605  -10.9414   -2.0825 H   0  0  0  0  0  0  0  0  0  0  0  0
   13.2602   -6.2127   -3.5230 H   0  0  0  0  0  0  0  0  0  0  0  0
   11.0645   -3.0492    1.7036 H   0  0  0  0  0  0  0  0  0  0  0  0
    9.2680   -1.4179    1.9440 H   0  0  0  0  0  0  0  0  0  0  0  0
    6.3038   -1.9128    4.5057 H   0  0  0  0  0  0  0  0  0  0  0  0
  1  2  1  0  0  0  0
  1 33  1  0  0  0  0
  1 34  1  0  0  0  0
  1 35  1  0  0  0  0
  2  3  1  0  0  0  0
  2 32  1  0  0  0  0
  3  4  2  0  0  0  0
  3 36  1  0  0  0  0
  4  5  1  0  0  0  0
  4 37  1  0  0  0  0
  5  6  1  0  0  0  0
  5 32  2  0  0  0  0
  6  7  1  0  0  0  0
  6 29  2  0  0  0  0
  7  8  1  0  0  0  0
  8  9  1  0  0  0  0
  8 28  2  0  0  0  0
  9 10  2  0  0  0  0
  9 38  1  0  0  0  0
 10 11  1  0  0  0  0
 10 39  1  0  0  0  0
 11 12  1  0  0  0  0
 11 27  2  0  0  0  0
 12 13  1  0  0  0  0
 12 40  1  0  0  0  0
 13 14  2  0  0  0  0
 13 15  1  0  0  0  0
 15 16  1  0  0  0  0
 15 41  1  0  0  0  0
 16 17  1  0  0  0  0
 16 26  2  0  0  0  0
 17 18  2  0  0  0  0
 17 42  1  0  0  0  0
 18 19  1  0  0  0  0
 18 43  1  0  0  0  0
 19 20  1  0  0  0  0
 19 21  2  0  0  0  0
 21 22  1  0  0  0  0
 21 26  1  0  0  0  0
 22 23  1  0  0  0  0
 22 24  1  0  0  0  0
 22 25  1  0  0  0  0
 26 44  1  0  0  0  0
 27 28  1  0  0  0  0
 27 45  1  0  0  0  0
 28 46  1  0  0  0  0
 29 30  1  0  0  0  0
 30 31  2  0  0  0  0
 30 47  1  0  0  0  0
 31 32  1  0  0  0  0
M  END
$$$$
