CHEMBL249381
 OpenBabel04072215363D

 39 42  0  0  0  0  0  0  0  0999 V2000
    1.2088    0.4119    0.6630 C   0  0  0  0  0  0  0  0  0  0  0  0
    2.6386    0.3972    0.6827 O   0  0  0  0  0  0  0  0  0  0  0  0
    3.1912   -0.7768    1.0792 C   0  0  0  0  0  0  0  0  0  0  0  0
    2.5836   -1.7811    1.4128 O   0  0  0  0  0  0  0  0  0  0  0  0
    4.6820   -0.6875    1.0481 C   0  0  0  0  0  0  0  0  0  0  0  0
    5.3291    0.4960    0.6831 C   0  0  0  0  0  0  0  0  0  0  0  0
    6.7213    0.5676    0.6336 C   0  0  0  0  0  0  0  0  0  0  0  0
    7.4542   -0.5829    0.9557 C   0  0  0  0  0  0  0  0  0  0  0  0
    6.8495   -1.7855    1.3458 C   0  0  0  0  0  0  0  0  0  0  0  0
    5.4344   -1.8309    1.3892 C   0  0  0  0  0  0  0  0  0  0  0  0
    7.9082   -2.7200    1.6178 C   0  0  0  0  0  0  0  0  0  0  0  0
    7.7952   -4.0896    2.0293 C   0  0  0  0  0  0  0  0  0  0  0  0
    8.6724   -4.8247    2.7359 C   0  0  0  0  0  0  0  0  0  0  0  0
    9.9766   -4.4311    3.3346 C   0  0  0  0  0  0  0  0  0  0  0  0
   10.4246   -3.3307    3.5759 O   0  0  0  0  0  0  0  0  0  0  0  0
   10.5701   -5.6472    3.6195 N   0  0  0  0  0  0  0  0  0  0  0  0
    9.7588   -6.7420    3.4599 N   0  0  0  0  0  0  0  0  0  0  0  0
    8.6187   -6.2948    2.9845 C   0  0  0  0  0  0  0  0  0  0  0  0
    7.4953   -7.1601    2.8021 C   0  0  0  0  0  0  0  0  0  0  0  0
    6.1341   -6.9514    2.9197 C   0  0  0  0  0  0  0  0  0  0  0  0
    5.3392   -8.0670    2.7126 N   0  0  0  0  0  0  0  0  0  0  0  0
    6.0654   -9.1397    2.4500 N   0  0  0  0  0  0  0  0  0  0  0  0
    7.7085   -8.8301    2.4598 S   0  0  0  0  0  0  0  0  0  0  0  0
    9.0905   -2.0884    1.2994 C   0  0  0  0  0  0  0  0  0  0  0  0
    8.8153   -0.7933    0.9610 N   0  0  0  0  0  0  0  0  0  0  0  0
    9.8131    0.2000    0.6316 C   0  0  0  0  0  0  0  0  0  0  0  0
    0.8896    1.3546    0.2084 H   0  0  0  0  0  0  0  0  0  0  0  0
    0.8188    0.3697    1.6837 H   0  0  0  0  0  0  0  0  0  0  0  0
    0.8168   -0.4114    0.0591 H   0  0  0  0  0  0  0  0  0  0  0  0
    4.7613    1.3877    0.4258 H   0  0  0  0  0  0  0  0  0  0  0  0
    7.2120    1.4912    0.3439 H   0  0  0  0  0  0  0  0  0  0  0  0
    4.9267   -2.7470    1.6773 H   0  0  0  0  0  0  0  0  0  0  0  0
    6.9026   -4.5812    1.6520 H   0  0  0  0  0  0  0  0  0  0  0  0
   11.4679   -5.7343    4.0818 H   0  0  0  0  0  0  0  0  0  0  0  0
    5.6501   -6.0211    3.1848 H   0  0  0  0  0  0  0  0  0  0  0  0
   10.1142   -2.4386    1.3034 H   0  0  0  0  0  0  0  0  0  0  0  0
   10.8116   -0.2305    0.7421 H   0  0  0  0  0  0  0  0  0  0  0  0
    9.6986    1.0448    1.3156 H   0  0  0  0  0  0  0  0  0  0  0  0
    9.6578    0.5151   -0.4038 H   0  0  0  0  0  0  0  0  0  0  0  0
  1  2  1  0  0  0  0
  1 27  1  0  0  0  0
  1 28  1  0  0  0  0
  1 29  1  0  0  0  0
  2  3  1  0  0  0  0
  3  4  2  0  0  0  0
  3  5  1  0  0  0  0
  5  6  1  0  0  0  0
  5 10  2  0  0  0  0
  6  7  2  0  0  0  0
  6 30  1  0  0  0  0
  7  8  1  0  0  0  0
  7 31  1  0  0  0  0
  8  9  2  0  0  0  0
  8 25  1  0  0  0  0
  9 10  1  0  0  0  0
  9 11  1  0  0  0  0
 10 32  1  0  0  0  0
 11 12  1  0  0  0  0
 11 24  2  0  0  0  0
 12 13  2  0  0  0  0
 12 33  1  0  0  0  0
 13 14  1  0  0  0  0
 13 18  1  0  0  0  0
 14 15  2  0  0  0  0
 14 16  1  0  0  0  0
 16 17  1  0  0  0  0
 16 34  1  0  0  0  0
 17 18  2  0  0  0  0
 18 19  1  0  0  0  0
 19 20  2  0  0  0  0
 19 23  1  0  0  0  0
 20 21  1  0  0  0  0
 20 35  1  0  0  0  0
 21 22  2  0  0  0  0
 22 23  1  0  0  0  0
 24 25  1  0  0  0  0
 24 36  1  0  0  0  0
 25 26  1  0  0  0  0
 26 37  1  0  0  0  0
 26 38  1  0  0  0  0
 26 39  1  0  0  0  0
M  END
$$$$
