CHEMBL598911
 OpenBabel04072215383D

 42 44  0  0  1  0  0  0  0  0999 V2000
    1.6751    1.7802    2.1856 C   0  0  0  0  0  0  0  0  0  0  0  0
    2.0983    0.7317    1.1437 C   0  0  3  0  0  0  0  0  0  0  0  0
    2.9353    1.3113    0.1273 O   0  0  0  0  0  0  0  0  0  0  0  0
    2.4440    2.3249   -0.6494 C   0  0  0  0  0  0  0  0  0  0  0  0
    1.1195    2.4579   -1.0449 C   0  0  0  0  0  0  0  0  0  0  0  0
    0.7414    3.5257   -1.8668 C   0  0  0  0  0  0  0  0  0  0  0  0
    1.6550    4.4845   -2.2955 C   0  0  0  0  0  0  0  0  0  0  0  0
    1.2099    5.4942   -3.0585 N   0  0  0  0  0  0  0  0  0  0  0  0
    2.1000    6.4451   -3.4277 C   0  0  0  0  0  0  0  0  0  0  0  0
    3.4470    6.4518   -3.0972 C   0  0  0  0  0  0  0  0  0  0  0  0
    4.3491    7.5480   -3.4884 C   0  0  0  0  0  0  0  0  0  0  0  0
    4.1968    8.2685   -4.6162 C   0  0  0  0  0  0  0  0  0  0  0  0
    5.1127    9.3798   -4.9570 C   0  0  0  0  0  0  0  0  0  0  0  0
    4.8077    9.9950   -6.1378 N   0  0  0  0  0  0  0  0  0  0  0  0
    6.0551    9.7278   -4.2617 O   0  0  0  0  0  0  0  0  0  0  0  0
    3.8936    5.3849   -2.3068 C   0  0  0  0  0  0  0  0  0  0  0  0
    2.9980    4.3713   -1.8960 C   0  0  0  0  0  0  0  0  0  0  0  0
    3.3839    3.2654   -1.0942 C   0  0  0  0  0  0  0  0  0  0  0  0
    2.8043   -0.4050    1.9050 C   0  0  0  0  0  0  0  0  0  0  0  0
    4.1920   -0.4287    2.1721 C   0  0  0  0  0  0  0  0  0  0  0  0
    5.3198    0.7200    1.5387 Cl  0  0  0  0  0  0  0  0  0  0  0  0
    4.7507   -1.3922    3.0353 C   0  0  0  0  0  0  0  0  0  0  0  0
    3.9509   -2.3346    3.6636 C   0  0  0  0  0  0  0  0  0  0  0  0
    2.5929   -2.3486    3.3951 C   0  0  0  0  0  0  0  0  0  0  0  0
    1.8312   -3.2574    4.0235 F   0  0  0  0  0  0  0  0  0  0  0  0
    2.0198   -1.4185    2.5175 C   0  0  0  0  0  0  0  0  0  0  0  0
    0.3083   -1.5449    2.2556 Cl  0  0  0  0  0  0  0  0  0  0  0  0
    0.8799    2.4216    1.7942 H   0  0  0  0  0  0  0  0  0  0  0  0
    2.5139    2.4330    2.4504 H   0  0  0  0  0  0  0  0  0  0  0  0
    1.2933    1.3258    3.1073 H   0  0  0  0  0  0  0  0  0  0  0  0
    1.2254    0.3086    0.6385 H   0  0  0  0  0  0  0  0  0  0  0  0
    0.3538    1.7504   -0.7451 H   0  0  0  0  0  0  0  0  0  0  0  0
   -0.2936    3.6222   -2.1792 H   0  0  0  0  0  0  0  0  0  0  0  0
    1.6493    7.2473   -4.0097 H   0  0  0  0  0  0  0  0  0  0  0  0
    5.1716    7.7691   -2.8100 H   0  0  0  0  0  0  0  0  0  0  0  0
    3.4020    8.0635   -5.3209 H   0  0  0  0  0  0  0  0  0  0  0  0
    4.0380    9.7270   -6.7304 H   0  0  0  0  0  0  0  0  0  0  0  0
    5.3997   10.7606   -6.4279 H   0  0  0  0  0  0  0  0  0  0  0  0
    4.9344    5.3414   -1.9945 H   0  0  0  0  0  0  0  0  0  0  0  0
    4.4225    3.1472   -0.7969 H   0  0  0  0  0  0  0  0  0  0  0  0
    5.8220   -1.3880    3.2342 H   0  0  0  0  0  0  0  0  0  0  0  0
    4.3735   -3.0507    4.3615 H   0  0  0  0  0  0  0  0  0  0  0  0
  1  2  1  0  0  0  0
  1 28  1  0  0  0  0
  1 29  1  0  0  0  0
  1 30  1  0  0  0  0
  2  3  1  0  0  0  0
  2 19  1  0  0  0  0
  2 31  1  0  0  0  0
  3  4  1  0  0  0  0
  4  5  1  0  0  0  0
  4 18  2  0  0  0  0
  5  6  2  0  0  0  0
  5 32  1  0  0  0  0
  6  7  1  0  0  0  0
  6 33  1  0  0  0  0
  7  8  1  0  0  0  0
  7 17  2  0  0  0  0
  8  9  2  0  0  0  0
  9 10  1  0  0  0  0
  9 34  1  0  0  0  0
 10 11  1  0  0  0  0
 10 16  2  0  0  0  0
 11 12  2  0  0  0  0
 11 35  1  0  0  0  0
 12 13  1  0  0  0  0
 12 36  1  0  0  0  0
 13 14  1  0  0  0  0
 13 15  2  0  0  0  0
 14 37  1  0  0  0  0
 14 38  1  0  0  0  0
 16 17  1  0  0  0  0
 16 39  1  0  0  0  0
 17 18  1  0  0  0  0
 18 40  1  0  0  0  0
 19 20  1  0  0  0  0
 19 26  2  0  0  0  0
 20 21  1  0  0  0  0
 20 22  2  0  0  0  0
 22 23  1  0  0  0  0
 22 41  1  0  0  0  0
 23 24  2  0  0  0  0
 23 42  1  0  0  0  0
 24 25  1  0  0  0  0
 24 26  1  0  0  0  0
 26 27  1  0  0  0  0
M  END
$$$$
