CHEMBL3913137
 OpenBabel04072215373D

 55 58  0  0  0  0  0  0  0  0999 V2000
    1.8787   -6.3816    3.1296 C   0  0  0  0  0  0  0  0  0  0  0  0
    3.3439   -6.0681    2.8664 C   0  0  0  0  0  0  0  0  0  0  0  0
    3.9152   -7.2014    2.3574 F   0  0  0  0  0  0  0  0  0  0  0  0
    3.4018   -5.1541    1.8544 F   0  0  0  0  0  0  0  0  0  0  0  0
    4.0631   -5.5880    4.1127 C   0  0  0  0  0  0  0  0  0  0  0  0
    4.6233   -6.5346    4.9814 C   0  0  0  0  0  0  0  0  0  0  0  0
    5.3541   -6.1190    6.0859 C   0  0  0  0  0  0  0  0  0  0  0  0
    5.5129   -4.7622    6.3504 C   0  0  0  0  0  0  0  0  0  0  0  0
    6.3596   -4.4580    7.3404 F   0  0  0  0  0  0  0  0  0  0  0  0
    4.8958   -3.7783    5.5623 C   0  0  0  0  0  0  0  0  0  0  0  0
    4.9299   -2.3824    5.8301 N   0  0  0  0  0  0  0  0  0  0  0  0
    5.2735   -1.8006    7.0410 C   0  0  0  0  0  0  0  0  0  0  0  0
    5.5796   -2.3975    8.0646 O   0  0  0  0  0  0  0  0  0  0  0  0
    5.1606   -0.4165    7.0183 N   0  0  0  0  0  0  0  0  0  0  0  0
    5.5416    0.3570    8.1529 C   0  0  0  0  0  0  0  0  0  0  0  0
    6.7432    0.1430    8.8367 C   0  0  0  0  0  0  0  0  0  0  0  0
    7.0653    0.9158    9.9648 C   0  0  0  0  0  0  0  0  0  0  0  0
    6.1838    1.8980   10.4319 C   0  0  0  0  0  0  0  0  0  0  0  0
    6.5854    2.6190   11.5432 O   0  0  0  0  0  0  0  0  0  0  0  0
    5.6471    3.0345   12.4711 C   0  0  0  0  0  0  0  0  0  0  0  0
    4.4993    2.3054   12.7611 C   0  0  0  0  0  0  0  0  0  0  0  0
    3.6129    2.8440   13.6633 C   0  0  0  0  0  0  0  0  0  0  0  0
    3.8340    3.9955   14.3193 N   0  0  0  0  0  0  0  0  0  0  0  0
    4.9800    4.6668   14.1156 C   0  0  0  0  0  0  0  0  0  0  0  0
    5.2243    5.8380   14.8726 N   0  0  0  0  0  0  0  0  0  0  0  0
    4.3282    6.3202   15.8170 C   0  0  0  0  0  0  0  0  0  0  0  0
    3.2304    5.8549   16.0930 O   0  0  0  0  0  0  0  0  0  0  0  0
    4.7209    7.5256   16.6107 C   0  0  0  0  0  0  0  0  0  0  0  0
    5.9181    8.4198   16.4642 C   0  0  0  0  0  0  0  0  0  0  0  0
    5.8803    7.4109   17.5756 C   0  0  0  0  0  0  0  0  0  0  0  0
    5.9170    4.2148   13.1864 C   0  0  0  0  0  0  0  0  0  0  0  0
    5.0005    2.1367    9.7267 C   0  0  0  0  0  0  0  0  0  0  0  0
    4.6908    1.3670    8.6036 C   0  0  0  0  0  0  0  0  0  0  0  0
    3.5184    1.5659    7.9810 F   0  0  0  0  0  0  0  0  0  0  0  0
    4.1991   -4.2088    4.4178 C   0  0  0  0  0  0  0  0  0  0  0  0
    1.4100   -6.7547    2.2134 H   0  0  0  0  0  0  0  0  0  0  0  0
    1.3312   -5.4871    3.4428 H   0  0  0  0  0  0  0  0  0  0  0  0
    1.7638   -7.1548    3.8956 H   0  0  0  0  0  0  0  0  0  0  0  0
    4.5266   -7.6001    4.7786 H   0  0  0  0  0  0  0  0  0  0  0  0
    5.8343   -6.8400    6.7407 H   0  0  0  0  0  0  0  0  0  0  0  0
    4.5792   -1.7639    5.1156 H   0  0  0  0  0  0  0  0  0  0  0  0
    4.3445   -0.0679    6.5322 H   0  0  0  0  0  0  0  0  0  0  0  0
    7.4424   -0.6184    8.4973 H   0  0  0  0  0  0  0  0  0  0  0  0
    8.0077    0.7375   10.4796 H   0  0  0  0  0  0  0  0  0  0  0  0
    4.2759    1.3535   12.2956 H   0  0  0  0  0  0  0  0  0  0  0  0
    2.6705    2.3586   13.8962 H   0  0  0  0  0  0  0  0  0  0  0  0
    6.1011    6.3143   14.7384 H   0  0  0  0  0  0  0  0  0  0  0  0
    3.8355    8.0344   16.9954 H   0  0  0  0  0  0  0  0  0  0  0  0
    5.7899    9.4626   16.7477 H   0  0  0  0  0  0  0  0  0  0  0  0
    6.6167    8.2785   15.6541 H   0  0  0  0  0  0  0  0  0  0  0  0
    5.6947    7.7397   18.5930 H   0  0  0  0  0  0  0  0  0  0  0  0
    6.5424    6.5561   17.5045 H   0  0  0  0  0  0  0  0  0  0  0  0
    6.8418    4.7517   13.0093 H   0  0  0  0  0  0  0  0  0  0  0  0
    4.2956    2.8980   10.0418 H   0  0  0  0  0  0  0  0  0  0  0  0
    3.7438   -3.4863    3.7411 H   0  0  0  0  0  0  0  0  0  0  0  0
  1  2  1  0  0  0  0
  1 36  1  0  0  0  0
  1 37  1  0  0  0  0
  1 38  1  0  0  0  0
  2  3  1  0  0  0  0
  2  4  1  0  0  0  0
  2  5  1  0  0  0  0
  5  6  1  0  0  0  0
  5 35  2  0  0  0  0
  6  7  2  0  0  0  0
  6 39  1  0  0  0  0
  7  8  1  0  0  0  0
  7 40  1  0  0  0  0
  8  9  1  0  0  0  0
  8 10  2  0  0  0  0
 10 11  1  0  0  0  0
 10 35  1  0  0  0  0
 11 12  1  0  0  0  0
 11 41  1  0  0  0  0
 12 13  2  0  0  0  0
 12 14  1  0  0  0  0
 14 15  1  0  0  0  0
 14 42  1  0  0  0  0
 15 16  1  0  0  0  0
 15 33  2  0  0  0  0
 16 17  2  0  0  0  0
 16 43  1  0  0  0  0
 17 18  1  0  0  0  0
 17 44  1  0  0  0  0
 18 19  1  0  0  0  0
 18 32  2  0  0  0  0
 19 20  1  0  0  0  0
 20 21  1  0  0  0  0
 20 31  2  0  0  0  0
 21 22  2  0  0  0  0
 21 45  1  0  0  0  0
 22 23  1  0  0  0  0
 22 46  1  0  0  0  0
 23 24  2  0  0  0  0
 24 25  1  0  0  0  0
 24 31  1  0  0  0  0
 25 26  1  0  0  0  0
 25 47  1  0  0  0  0
 26 27  2  0  0  0  0
 26 28  1  0  0  0  0
 28 29  1  0  0  0  0
 28 30  1  0  0  0  0
 28 48  1  0  0  0  0
 29 30  1  0  0  0  0
 29 49  1  0  0  0  0
 29 50  1  0  0  0  0
 30 51  1  0  0  0  0
 30 52  1  0  0  0  0
 31 53  1  0  0  0  0
 32 33  1  0  0  0  0
 32 54  1  0  0  0  0
 33 34  1  0  0  0  0
 35 55  1  0  0  0  0
M  END
$$$$
