CHEMBL379908
 OpenBabel04072215373D

 46 49  0  0  0  0  0  0  0  0999 V2000
   -6.4722   -0.2352   -4.1672 C   0  0  0  0  0  0  0  0  0  0  0  0
   -5.4220   -1.1371   -3.5911 C   0  0  0  0  0  0  0  0  0  0  0  0
   -5.6351   -1.8078   -2.3829 C   0  0  0  0  0  0  0  0  0  0  0  0
   -4.6517   -2.6509   -1.8548 C   0  0  0  0  0  0  0  0  0  0  0  0
   -3.4399   -2.8639   -2.5232 C   0  0  0  0  0  0  0  0  0  0  0  0
   -2.4076   -3.6788   -2.0159 N   0  0  0  0  0  0  0  0  0  0  0  0
   -2.2667   -4.0647   -0.7396 C   0  0  0  0  0  0  0  0  0  0  0  0
   -2.7852   -3.5785    0.3684 N   0  0  0  0  0  0  0  0  0  0  0  0
   -2.3656   -4.3876    1.3904 N   0  0  0  0  0  0  0  0  0  0  0  0
   -1.6303   -5.3412    0.8513 C   0  0  0  0  0  0  0  0  0  0  0  0
   -1.1184   -6.4467    1.5898 C   0  0  0  0  0  0  0  0  0  0  0  0
   -0.2275   -7.4384    1.2372 C   0  0  0  0  0  0  0  0  0  0  0  0
    0.4207   -7.5643    0.0673 N   0  0  0  0  0  0  0  0  0  0  0  0
    0.9235   -8.8589   -0.3550 C   0  0  0  0  0  0  0  0  0  0  0  0
    2.1356   -8.6693   -1.2315 C   0  0  0  0  0  0  0  0  0  0  0  0
    3.3055   -8.1168   -0.6993 C   0  0  0  0  0  0  0  0  0  0  0  0
    4.4127   -7.9818   -1.5199 C   0  0  0  0  0  0  0  0  0  0  0  0
    4.4344   -8.3541   -2.8178 N   0  0  0  0  0  0  0  0  0  0  0  0
    3.2962   -8.8845   -3.3133 C   0  0  0  0  0  0  0  0  0  0  0  0
    2.1363   -9.0596   -2.5729 C   0  0  0  0  0  0  0  0  0  0  0  0
   -0.0381   -8.3290    2.2554 N   0  0  0  0  0  0  0  0  0  0  0  0
   -0.7985   -7.9012    3.2333 C   0  0  0  0  0  0  0  0  0  0  0  0
   -1.4941   -6.7808    2.8747 N   0  0  0  0  0  0  0  0  0  0  0  0
   -2.4911   -6.1372    3.6974 C   0  0  0  0  0  0  0  0  0  0  0  0
   -1.4811   -5.1643   -0.5071 O   0  0  0  0  0  0  0  0  0  0  0  0
   -3.2435   -2.1803   -3.7315 C   0  0  0  0  0  0  0  0  0  0  0  0
   -2.0924   -2.3485   -4.4016 F   0  0  0  0  0  0  0  0  0  0  0  0
   -4.2109   -1.3269   -4.2629 C   0  0  0  0  0  0  0  0  0  0  0  0
   -7.3518   -0.1771   -3.5167 H   0  0  0  0  0  0  0  0  0  0  0  0
   -6.7997   -0.6150   -5.1399 H   0  0  0  0  0  0  0  0  0  0  0  0
   -6.0774    0.7779   -4.2877 H   0  0  0  0  0  0  0  0  0  0  0  0
   -6.5689   -1.6818   -1.8373 H   0  0  0  0  0  0  0  0  0  0  0  0
   -4.8700   -3.1592   -0.9168 H   0  0  0  0  0  0  0  0  0  0  0  0
   -1.7133   -3.9583   -2.6982 H   0  0  0  0  0  0  0  0  0  0  0  0
    0.1949   -6.9431   -0.7020 H   0  0  0  0  0  0  0  0  0  0  0  0
    0.1327   -9.3831   -0.9051 H   0  0  0  0  0  0  0  0  0  0  0  0
    1.2107   -9.5038    0.4846 H   0  0  0  0  0  0  0  0  0  0  0  0
    3.3478   -7.8003    0.3388 H   0  0  0  0  0  0  0  0  0  0  0  0
    5.3395   -7.5609   -1.1415 H   0  0  0  0  0  0  0  0  0  0  0  0
    3.3428   -9.1794   -4.3578 H   0  0  0  0  0  0  0  0  0  0  0  0
    1.2601   -9.4991   -3.0372 H   0  0  0  0  0  0  0  0  0  0  0  0
   -0.8915   -8.3656    4.2081 H   0  0  0  0  0  0  0  0  0  0  0  0
   -2.5400   -6.6346    4.6695 H   0  0  0  0  0  0  0  0  0  0  0  0
   -3.4601   -6.2252    3.1967 H   0  0  0  0  0  0  0  0  0  0  0  0
   -2.2147   -5.0912    3.8433 H   0  0  0  0  0  0  0  0  0  0  0  0
   -4.0060   -0.8184   -5.2003 H   0  0  0  0  0  0  0  0  0  0  0  0
  1  2  1  0  0  0  0
  1 29  1  0  0  0  0
  1 30  1  0  0  0  0
  1 31  1  0  0  0  0
  2  3  1  0  0  0  0
  2 28  2  0  0  0  0
  3  4  2  0  0  0  0
  3 32  1  0  0  0  0
  4  5  1  0  0  0  0
  4 33  1  0  0  0  0
  5  6  1  0  0  0  0
  5 26  2  0  0  0  0
  6  7  1  0  0  0  0
  6 34  1  0  0  0  0
  7  8  2  0  0  0  0
  7 25  1  0  0  0  0
  8  9  1  0  0  0  0
  9 10  2  0  0  0  0
 10 11  1  0  0  0  0
 10 25  1  0  0  0  0
 11 12  2  0  0  0  0
 11 23  1  0  0  0  0
 12 13  1  0  0  0  0
 12 21  1  0  0  0  0
 13 14  1  0  0  0  0
 13 35  1  0  0  0  0
 14 15  1  0  0  0  0
 14 36  1  0  0  0  0
 14 37  1  0  0  0  0
 15 16  1  0  0  0  0
 15 20  2  0  0  0  0
 16 17  2  0  0  0  0
 16 38  1  0  0  0  0
 17 18  1  0  0  0  0
 17 39  1  0  0  0  0
 18 19  2  0  0  0  0
 19 20  1  0  0  0  0
 19 40  1  0  0  0  0
 20 41  1  0  0  0  0
 21 22  2  0  0  0  0
 22 23  1  0  0  0  0
 22 42  1  0  0  0  0
 23 24  1  0  0  0  0
 24 43  1  0  0  0  0
 24 44  1  0  0  0  0
 24 45  1  0  0  0  0
 26 27  1  0  0  0  0
 26 28  1  0  0  0  0
 28 46  1  0  0  0  0
M  END
$$$$
