CHEMBL3937533
 OpenBabel04072215373D

 82 86  0  0  0  0  0  0  0  0999 V2000
    4.4660   -3.6873    5.2472 C   0  0  0  0  0  0  0  0  0  0  0  0
    4.4552   -3.3217    3.9031 O   0  0  0  0  0  0  0  0  0  0  0  0
    5.1984   -3.9116    2.9135 C   0  0  0  0  0  0  0  0  0  0  0  0
    6.0586   -4.9801    3.1927 C   0  0  0  0  0  0  0  0  0  0  0  0
    6.8290   -5.5621    2.1922 C   0  0  0  0  0  0  0  0  0  0  0  0
    7.6232   -6.6100    2.5032 O   0  0  0  0  0  0  0  0  0  0  0  0
    8.3472   -7.3220    1.5693 C   0  0  0  0  0  0  0  0  0  0  0  0
    6.7596   -5.0601    0.8830 C   0  0  0  0  0  0  0  0  0  0  0  0
    5.9127   -4.0316    0.5211 C   0  0  0  0  0  0  0  0  0  0  0  0
    5.8908   -3.5670   -0.8590 N   0  0  0  0  0  0  0  0  0  0  0  0
    4.8885   -2.5393   -1.2517 C   0  0  0  0  0  0  0  0  0  0  0  0
    3.4117   -2.9962   -1.1713 C   0  0  0  0  0  0  0  0  0  0  0  0
    2.9661   -4.1948   -1.9949 C   0  0  0  0  0  0  0  0  0  0  0  0
    2.7590   -2.8033   -2.5559 C   0  0  0  0  0  0  0  0  0  0  0  0
    6.9895   -3.7566   -1.8347 C   0  0  0  0  0  0  0  0  0  0  0  0
    7.4546   -2.5313   -2.3150 C   0  0  0  0  0  0  0  0  0  0  0  0
    8.3005   -2.4163   -3.3390 C   0  0  0  0  0  0  0  0  0  0  0  0
    8.8020   -3.5181   -3.9596 C   0  0  0  0  0  0  0  0  0  0  0  0
    9.5113   -3.2348   -5.0300 N   0  0  0  0  0  0  0  0  0  0  0  0
   10.0804   -4.1549   -5.7685 C   0  0  0  0  0  0  0  0  0  0  0  0
   10.0404   -5.5049   -5.4225 C   0  0  0  0  0  0  0  0  0  0  0  0
   10.9434   -6.3374   -6.3849 C   0  0  0  0  0  0  0  0  0  0  0  0
   11.1932   -7.6992   -6.6130 C   0  0  0  0  0  0  0  0  0  0  0  0
   12.1245   -7.8379   -7.6105 N   0  0  0  0  0  0  0  0  0  0  0  0
   12.4948   -6.6289   -8.0069 N   0  0  0  0  0  0  0  0  0  0  0  0
   13.5327   -6.2236   -8.9747 C   0  0  0  0  0  0  0  0  0  0  0  0
   14.1482   -7.3578   -9.7996 C   0  0  0  0  0  0  0  0  0  0  0  0
   13.2271   -7.9227  -10.8210 N   0  0  0  0  0  0  0  0  0  0  0  0
   13.8185   -9.1199  -11.4594 C   0  0  0  0  0  0  0  0  0  0  0  0
   14.9876   -8.7589  -12.4137 C   0  0  0  0  0  0  0  0  0  0  0  0
   14.5811   -7.7828  -13.4495 N   0  0  0  0  0  0  0  0  0  0  0  0
   13.7506   -8.4147  -14.5046 C   0  0  0  0  0  0  0  0  0  0  0  0
   13.4455   -7.4731  -15.6797 C   0  0  0  0  0  0  0  0  0  0  0  0
   14.6275   -7.0103  -16.2729 O   0  0  0  0  0  0  0  0  0  0  0  0
   13.9773   -6.5888  -12.8128 C   0  0  0  0  0  0  0  0  0  0  0  0
   12.8084   -6.9705  -11.8829 C   0  0  0  0  0  0  0  0  0  0  0  0
   11.8216   -5.7216   -7.3032 C   0  0  0  0  0  0  0  0  0  0  0  0
    9.2316   -5.8574   -4.3007 N   0  0  0  0  0  0  0  0  0  0  0  0
    8.5590   -4.8441   -3.5495 C   0  0  0  0  0  0  0  0  0  0  0  0
    7.6068   -4.9799   -2.4217 C   0  0  0  0  0  0  0  0  0  0  0  0
    5.1155   -3.4437    1.5702 C   0  0  0  0  0  0  0  0  0  0  0  0
    0.8413   -0.1813    2.4190 Cl  0  0  0  0  0  0  0  0  0  0  0  0
    3.7956   -3.0313    5.8417 H   0  0  0  0  0  0  0  0  0  0  0  0
    5.4899   -3.6037    5.6751 H   0  0  0  0  0  0  0  0  0  0  0  0
    4.1101   -4.7341    5.3627 H   0  0  0  0  0  0  0  0  0  0  0  0
    6.1400   -5.3766    4.2027 H   0  0  0  0  0  0  0  0  0  0  0  0
    8.8580   -8.1696    2.0573 H   0  0  0  0  0  0  0  0  0  0  0  0
    9.1027   -6.6602    1.0912 H   0  0  0  0  0  0  0  0  0  0  0  0
    7.6563   -7.7200    0.7913 H   0  0  0  0  0  0  0  0  0  0  0  0
    7.3722   -5.4999    0.1225 H   0  0  0  0  0  0  0  0  0  0  0  0
    5.0651   -2.2061   -2.2980 H   0  0  0  0  0  0  0  0  0  0  0  0
    5.0276   -1.6118   -0.6535 H   0  0  0  0  0  0  0  0  0  0  0  0
    2.7385   -2.3708   -0.5440 H   0  0  0  0  0  0  0  0  0  0  0  0
    2.0915   -4.6399   -1.4797 H   0  0  0  0  0  0  0  0  0  0  0  0
    3.8988   -4.7857   -2.1105 H   0  0  0  0  0  0  0  0  0  0  0  0
    1.6550   -2.6929   -2.6316 H   0  0  0  0  0  0  0  0  0  0  0  0
    3.3339   -2.8187   -3.5089 H   0  0  0  0  0  0  0  0  0  0  0  0
    7.1034   -1.5892   -1.9158 H   0  0  0  0  0  0  0  0  0  0  0  0
    8.5588   -1.4368   -3.7057 H   0  0  0  0  0  0  0  0  0  0  0  0
   10.5549   -3.7457   -6.6177 H   0  0  0  0  0  0  0  0  0  0  0  0
   10.7540   -8.5433   -6.1088 H   0  0  0  0  0  0  0  0  0  0  0  0
   14.3524   -5.7377   -8.3973 H   0  0  0  0  0  0  0  0  0  0  0  0
   13.1583   -5.4187   -9.6415 H   0  0  0  0  0  0  0  0  0  0  0  0
   14.4810   -8.1454   -9.0919 H   0  0  0  0  0  0  0  0  0  0  0  0
   15.0602   -6.9522  -10.2807 H   0  0  0  0  0  0  0  0  0  0  0  0
   13.0265   -9.6500  -12.0280 H   0  0  0  0  0  0  0  0  0  0  0  0
   14.1708   -9.8363  -10.6866 H   0  0  0  0  0  0  0  0  0  0  0  0
   15.3884   -9.6829  -12.8837 H   0  0  0  0  0  0  0  0  0  0  0  0
   15.8306   -8.3320  -11.8317 H   0  0  0  0  0  0  0  0  0  0  0  0
   12.7929   -8.7980  -14.1004 H   0  0  0  0  0  0  0  0  0  0  0  0
   14.3089   -9.2802  -14.9254 H   0  0  0  0  0  0  0  0  0  0  0  0
   12.7925   -6.6228  -15.3873 H   0  0  0  0  0  0  0  0  0  0  0  0
   12.8679   -8.0370  -16.4423 H   0  0  0  0  0  0  0  0  0  0  0  0
   15.0137   -6.3373  -15.6539 H   0  0  0  0  0  0  0  0  0  0  0  0
   13.6414   -5.8530  -13.5667 H   0  0  0  0  0  0  0  0  0  0  0  0
   14.7600   -6.0492  -12.2420 H   0  0  0  0  0  0  0  0  0  0  0  0
   12.0000   -7.4331  -12.4875 H   0  0  0  0  0  0  0  0  0  0  0  0
   12.3457   -6.0584  -11.4646 H   0  0  0  0  0  0  0  0  0  0  0  0
   12.0253   -4.6816   -7.4924 H   0  0  0  0  0  0  0  0  0  0  0  0
    7.3114   -5.9691   -2.0702 H   0  0  0  0  0  0  0  0  0  0  0  0
    4.4457   -2.6138    1.3765 H   0  0  0  0  0  0  0  0  0  0  0  0
    1.8485    0.4517    1.7284 H   0  0  0  0  0  0  0  0  0  0  0  0
  1  2  1  0  0  0  0
  1 43  1  0  0  0  0
  1 44  1  0  0  0  0
  1 45  1  0  0  0  0
  2  3  1  0  0  0  0
  3  4  1  0  0  0  0
  3 41  2  0  0  0  0
  4  5  2  0  0  0  0
  4 46  1  0  0  0  0
  5  6  1  0  0  0  0
  5  8  1  0  0  0  0
  6  7  1  0  0  0  0
  7 47  1  0  0  0  0
  7 48  1  0  0  0  0
  7 49  1  0  0  0  0
  8  9  2  0  0  0  0
  8 50  1  0  0  0  0
  9 10  1  0  0  0  0
  9 41  1  0  0  0  0
 10 11  1  0  0  0  0
 10 15  1  0  0  0  0
 11 12  1  0  0  0  0
 11 51  1  0  0  0  0
 11 52  1  0  0  0  0
 12 13  1  0  0  0  0
 12 14  1  0  0  0  0
 12 53  1  0  0  0  0
 13 14  1  0  0  0  0
 13 54  1  0  0  0  0
 13 55  1  0  0  0  0
 14 56  1  0  0  0  0
 14 57  1  0  0  0  0
 15 16  1  0  0  0  0
 15 40  2  0  0  0  0
 16 17  2  0  0  0  0
 16 58  1  0  0  0  0
 17 18  1  0  0  0  0
 17 59  1  0  0  0  0
 18 19  1  0  0  0  0
 18 39  2  0  0  0  0
 19 20  2  0  0  0  0
 20 21  1  0  0  0  0
 20 60  1  0  0  0  0
 21 22  1  0  0  0  0
 21 38  2  0  0  0  0
 22 23  1  0  0  0  0
 22 37  2  0  0  0  0
 23 24  2  0  0  0  0
 23 61  1  0  0  0  0
 24 25  1  0  0  0  0
 25 26  1  0  0  0  0
 25 37  1  0  0  0  0
 26 27  1  0  0  0  0
 26 62  1  0  0  0  0
 26 63  1  0  0  0  0
 27 28  1  0  0  0  0
 27 64  1  0  0  0  0
 27 65  1  0  0  0  0
 28 29  1  0  0  0  0
 28 36  1  0  0  0  0
 29 30  1  0  0  0  0
 29 66  1  0  0  0  0
 29 67  1  0  0  0  0
 30 31  1  0  0  0  0
 30 68  1  0  0  0  0
 30 69  1  0  0  0  0
 31 32  1  0  0  0  0
 31 35  1  0  0  0  0
 32 33  1  0  0  0  0
 32 70  1  0  0  0  0
 32 71  1  0  0  0  0
 33 34  1  0  0  0  0
 33 72  1  0  0  0  0
 33 73  1  0  0  0  0
 34 74  1  0  0  0  0
 35 36  1  0  0  0  0
 35 75  1  0  0  0  0
 35 76  1  0  0  0  0
 36 77  1  0  0  0  0
 36 78  1  0  0  0  0
 37 79  1  0  0  0  0
 38 39  1  0  0  0  0
 39 40  1  0  0  0  0
 40 80  1  0  0  0  0
 41 81  1  0  0  0  0
 42 82  1  0  0  0  0
M  END
$$$$
