CHEMBL3657555
 OpenBabel04072215373D

 61 65  0  0  1  0  0  0  0  0999 V2000
    3.2912   -2.3612   -0.6437 C   0  0  0  0  0  0  0  0  0  0  0  0
    3.6182   -1.0355   -0.0582 C   0  0  0  0  0  0  0  0  0  0  0  0
    4.6978   -0.3698   -0.4760 N   0  0  0  0  0  0  0  0  0  0  0  0
    4.7098    0.7800    0.2522 N   0  0  0  0  0  0  0  0  0  0  0  0
    5.7537    1.7490    0.0993 C   0  0  0  0  0  0  0  0  0  0  0  0
    6.7096    1.5130   -0.8681 C   0  0  0  0  0  0  0  0  0  0  0  0
    7.7160    2.4360   -0.9443 C   0  0  0  0  0  0  0  0  0  0  0  0
    7.8042    3.4965   -0.1281 N   0  0  0  0  0  0  0  0  0  0  0  0
    6.8401    3.6599    0.7921 C   0  0  0  0  0  0  0  0  0  0  0  0
    6.8979    4.7282    1.6909 N   0  0  0  0  0  0  0  0  0  0  0  0
    8.0070    5.3599    2.2948 C   0  0  0  0  0  0  0  0  0  0  0  0
    9.3366    5.0730    1.9746 C   0  0  0  0  0  0  0  0  0  0  0  0
   10.4173    5.6961    2.6179 C   0  0  0  0  0  0  0  0  0  0  0  0
   10.1376    6.6456    3.6101 C   0  0  0  0  0  0  0  0  0  0  0  0
    8.8280    7.0073    3.9229 C   0  0  0  0  0  0  0  0  0  0  0  0
    7.7639    6.3761    3.2360 C   0  0  0  0  0  0  0  0  0  0  0  0
    8.9058    7.9872    4.9494 C   0  0  0  0  0  0  0  0  0  0  0  0
    7.5548    8.7438    5.6636 Cl  0  0  0  0  0  0  0  0  0  0  0  0
   10.2324    8.1750    5.2825 C   0  0  0  0  0  0  0  0  0  0  0  0
   10.8379    9.0302    6.3402 C   0  0  0  0  0  0  0  0  0  0  0  0
   10.9754    7.3785    4.4328 N   0  0  0  0  0  0  0  0  0  0  0  0
   12.4205    7.2792    4.3967 C   0  0  0  0  0  0  0  0  0  0  0  0
    5.7864    2.8327    0.9168 N   0  0  0  0  0  0  0  0  0  0  0  0
    3.6346    0.8364    1.1133 C   0  0  0  0  0  0  0  0  0  0  0  0
    2.8943   -0.3142    0.9264 C   0  0  0  0  0  0  0  0  0  0  0  0
    1.5874   -0.6928    1.5423 C   0  0  0  0  0  0  0  0  0  0  0  0
    1.6939   -1.6087    2.7737 C   0  0  0  0  0  0  0  0  0  0  0  0
    0.3620   -1.9617    3.2846 N   0  0  0  0  0  0  0  0  0  0  0  0
   -0.4471   -2.7593    2.3572 C   0  0  0  0  0  0  0  0  0  0  0  0
   -1.4583   -3.4440    3.2577 C   0  0  0  0  0  0  0  0  0  0  0  0
   -0.6162   -3.8092    4.4679 C   0  0  1  0  0  0  0  0  0  0  0  0
    0.0625   -5.0430    4.2224 O   0  0  0  0  0  0  0  0  0  0  0  0
    0.3794   -2.6508    4.5875 C   0  0  0  0  0  0  0  0  0  0  0  0
    4.0757   -2.7067   -1.3250 H   0  0  0  0  0  0  0  0  0  0  0  0
    2.3520   -2.3120   -1.2034 H   0  0  0  0  0  0  0  0  0  0  0  0
    3.1828   -3.1091    0.1485 H   0  0  0  0  0  0  0  0  0  0  0  0
    6.6875    0.6580   -1.5326 H   0  0  0  0  0  0  0  0  0  0  0  0
    8.5142    2.3422   -1.6733 H   0  0  0  0  0  0  0  0  0  0  0  0
    6.0688    4.7077    2.2685 H   0  0  0  0  0  0  0  0  0  0  0  0
    9.5754    4.3242    1.2241 H   0  0  0  0  0  0  0  0  0  0  0  0
   11.4348    5.4229    2.3574 H   0  0  0  0  0  0  0  0  0  0  0  0
    6.7442    6.6684    3.4718 H   0  0  0  0  0  0  0  0  0  0  0  0
   10.0731    9.5464    6.9279 H   0  0  0  0  0  0  0  0  0  0  0  0
   11.4893    9.7915    5.9003 H   0  0  0  0  0  0  0  0  0  0  0  0
   11.4258    8.4216    7.0358 H   0  0  0  0  0  0  0  0  0  0  0  0
   12.8694    7.9053    5.1696 H   0  0  0  0  0  0  0  0  0  0  0  0
   12.7630    7.6146    3.4140 H   0  0  0  0  0  0  0  0  0  0  0  0
   12.7011    6.2367    4.5687 H   0  0  0  0  0  0  0  0  0  0  0  0
    3.4834    1.6973    1.7503 H   0  0  0  0  0  0  0  0  0  0  0  0
    0.9930   -1.1877    0.7641 H   0  0  0  0  0  0  0  0  0  0  0  0
    1.0382    0.2172    1.8141 H   0  0  0  0  0  0  0  0  0  0  0  0
    2.2521   -1.0758    3.5547 H   0  0  0  0  0  0  0  0  0  0  0  0
    2.2703   -2.5136    2.5387 H   0  0  0  0  0  0  0  0  0  0  0  0
    0.1578   -3.5107    1.8338 H   0  0  0  0  0  0  0  0  0  0  0  0
   -0.9474   -2.1339    1.6118 H   0  0  0  0  0  0  0  0  0  0  0  0
   -1.9136   -4.3095    2.7678 H   0  0  0  0  0  0  0  0  0  0  0  0
   -2.2467   -2.7353    3.5406 H   0  0  0  0  0  0  0  0  0  0  0  0
   -1.2292   -3.9373    5.3661 H   0  0  0  0  0  0  0  0  0  0  0  0
    0.7537   -4.8745    3.5565 H   0  0  0  0  0  0  0  0  0  0  0  0
    1.3728   -3.0061    4.8813 H   0  0  0  0  0  0  0  0  0  0  0  0
    0.0254   -1.9371    5.3403 H   0  0  0  0  0  0  0  0  0  0  0  0
  1  2  1  0  0  0  0
  1 34  1  0  0  0  0
  1 35  1  0  0  0  0
  1 36  1  0  0  0  0
  2  3  2  0  0  0  0
  2 25  1  0  0  0  0
  3  4  1  0  0  0  0
  4  5  1  0  0  0  0
  4 24  1  0  0  0  0
  5  6  1  0  0  0  0
  5 23  2  0  0  0  0
  6  7  2  0  0  0  0
  6 37  1  0  0  0  0
  7  8  1  0  0  0  0
  7 38  1  0  0  0  0
  8  9  2  0  0  0  0
  9 10  1  0  0  0  0
  9 23  1  0  0  0  0
 10 11  1  0  0  0  0
 10 39  1  0  0  0  0
 11 12  1  0  0  0  0
 11 16  2  0  0  0  0
 12 13  2  0  0  0  0
 12 40  1  0  0  0  0
 13 14  1  0  0  0  0
 13 41  1  0  0  0  0
 14 15  2  0  0  0  0
 14 21  1  0  0  0  0
 15 16  1  0  0  0  0
 15 17  1  0  0  0  0
 16 42  1  0  0  0  0
 17 18  1  0  0  0  0
 17 19  2  0  0  0  0
 19 20  1  0  0  0  0
 19 21  1  0  0  0  0
 20 43  1  0  0  0  0
 20 44  1  0  0  0  0
 20 45  1  0  0  0  0
 21 22  1  0  0  0  0
 22 46  1  0  0  0  0
 22 47  1  0  0  0  0
 22 48  1  0  0  0  0
 24 25  2  0  0  0  0
 24 49  1  0  0  0  0
 25 26  1  0  0  0  0
 26 27  1  0  0  0  0
 26 50  1  0  0  0  0
 26 51  1  0  0  0  0
 27 28  1  0  0  0  0
 27 52  1  0  0  0  0
 27 53  1  0  0  0  0
 28 29  1  0  0  0  0
 28 33  1  0  0  0  0
 29 30  1  0  0  0  0
 29 54  1  0  0  0  0
 29 55  1  0  0  0  0
 30 31  1  0  0  0  0
 30 56  1  0  0  0  0
 30 57  1  0  0  0  0
 31 32  1  0  0  0  0
 31 33  1  0  0  0  0
 31 58  1  1  0  0  0
 32 59  1  0  0  0  0
 33 60  1  0  0  0  0
 33 61  1  0  0  0  0
M  END
$$$$
