CHEMBL522304
 OpenBabel04072215383D

 45 48  0  0  0  0  0  0  0  0999 V2000
   -0.2463   -0.8994   -1.0378 F   0  0  0  0  0  0  0  0  0  0  0  0
    1.0122   -1.3557   -1.2840 C   0  0  0  0  0  0  0  0  0  0  0  0
    0.9573   -1.9673   -2.4995 F   0  0  0  0  0  0  0  0  0  0  0  0
    1.7858   -0.2490   -1.4554 F   0  0  0  0  0  0  0  0  0  0  0  0
    1.5411   -2.2696   -0.2087 C   0  0  0  0  0  0  0  0  0  0  0  0
    0.7850   -2.5826    0.9319 C   0  0  0  0  0  0  0  0  0  0  0  0
    1.2677   -3.4811    1.8901 C   0  0  0  0  0  0  0  0  0  0  0  0
    2.5219   -4.0739    1.7102 C   0  0  0  0  0  0  0  0  0  0  0  0
    3.0257   -5.0412    2.6065 N   0  0  0  0  0  0  0  0  0  0  0  0
    2.4587   -5.5598    3.7492 C   0  0  0  0  0  0  0  0  0  0  0  0
    3.3661   -6.5093    4.1775 C   0  0  0  0  0  0  0  0  0  0  0  0
    3.2571   -7.3792    5.3377 C   0  0  0  0  0  0  0  0  0  0  0  0
    1.9602   -7.8018    5.7063 C   0  0  0  0  0  0  0  0  0  0  0  0
    1.7657   -8.7960    6.6601 C   0  0  0  0  0  0  0  0  0  0  0  0
    2.8669   -9.3992    7.2460 C   0  0  0  0  0  0  0  0  0  0  0  0
    4.1536   -8.9571    6.9284 C   0  0  0  0  0  0  0  0  0  0  0  0
    4.3862   -7.9006    6.0224 C   0  0  0  0  0  0  0  0  0  0  0  0
    5.7260   -7.5275    5.8492 N   0  0  0  0  0  0  0  0  0  0  0  0
    6.1270   -6.1742    5.4801 C   0  0  0  0  0  0  0  0  0  0  0  0
    7.0806   -5.5846    6.4902 C   0  0  0  0  0  0  0  0  0  0  0  0
    8.3569   -5.1562    6.1163 C   0  0  0  0  0  0  0  0  0  0  0  0
    9.1460   -4.5184    7.0613 C   0  0  0  0  0  0  0  0  0  0  0  0
    8.7556   -4.2855    8.3320 N   0  0  0  0  0  0  0  0  0  0  0  0
    7.5202   -4.7100    8.6738 C   0  0  0  0  0  0  0  0  0  0  0  0
    6.6580   -5.3566    7.8046 C   0  0  0  0  0  0  0  0  0  0  0  0
    4.4023   -6.5685    3.2912 N   0  0  0  0  0  0  0  0  0  0  0  0
    4.2219   -5.6318    2.3798 N   0  0  0  0  0  0  0  0  0  0  0  0
    3.3003   -3.7310    0.5905 C   0  0  0  0  0  0  0  0  0  0  0  0
    2.8129   -2.8398   -0.3606 C   0  0  0  0  0  0  0  0  0  0  0  0
   -0.2000   -2.1366    1.0701 H   0  0  0  0  0  0  0  0  0  0  0  0
    0.6381   -3.7081    2.7448 H   0  0  0  0  0  0  0  0  0  0  0  0
    1.5073   -5.2380    4.1321 H   0  0  0  0  0  0  0  0  0  0  0  0
    1.0808   -7.3955    5.2117 H   0  0  0  0  0  0  0  0  0  0  0  0
    0.7602   -9.1264    6.9067 H   0  0  0  0  0  0  0  0  0  0  0  0
    2.7315  -10.2182    7.9469 H   0  0  0  0  0  0  0  0  0  0  0  0
    4.9951   -9.4567    7.4044 H   0  0  0  0  0  0  0  0  0  0  0  0
    6.3755   -7.9674    6.4928 H   0  0  0  0  0  0  0  0  0  0  0  0
    5.2916   -5.4698    5.4275 H   0  0  0  0  0  0  0  0  0  0  0  0
    6.6115   -6.2076    4.4983 H   0  0  0  0  0  0  0  0  0  0  0  0
    8.7260   -5.2909    5.1033 H   0  0  0  0  0  0  0  0  0  0  0  0
   10.1367   -4.1530    6.8079 H   0  0  0  0  0  0  0  0  0  0  0  0
    7.2216   -4.4960    9.6953 H   0  0  0  0  0  0  0  0  0  0  0  0
    5.6672   -5.6537    8.1316 H   0  0  0  0  0  0  0  0  0  0  0  0
    4.2861   -4.1674    0.4325 H   0  0  0  0  0  0  0  0  0  0  0  0
    3.4242   -2.6063   -1.2315 H   0  0  0  0  0  0  0  0  0  0  0  0
  1  2  1  0  0  0  0
  2  3  1  0  0  0  0
  2  4  1  0  0  0  0
  2  5  1  0  0  0  0
  5  6  1  0  0  0  0
  5 29  2  0  0  0  0
  6  7  2  0  0  0  0
  6 30  1  0  0  0  0
  7  8  1  0  0  0  0
  7 31  1  0  0  0  0
  8  9  1  0  0  0  0
  8 28  2  0  0  0  0
  9 10  1  0  0  0  0
  9 27  1  0  0  0  0
 10 11  2  0  0  0  0
 10 32  1  0  0  0  0
 11 12  1  0  0  0  0
 11 26  1  0  0  0  0
 12 13  1  0  0  0  0
 12 17  2  0  0  0  0
 13 14  2  0  0  0  0
 13 33  1  0  0  0  0
 14 15  1  0  0  0  0
 14 34  1  0  0  0  0
 15 16  2  0  0  0  0
 15 35  1  0  0  0  0
 16 17  1  0  0  0  0
 16 36  1  0  0  0  0
 17 18  1  0  0  0  0
 18 19  1  0  0  0  0
 18 37  1  0  0  0  0
 19 20  1  0  0  0  0
 19 38  1  0  0  0  0
 19 39  1  0  0  0  0
 20 21  1  0  0  0  0
 20 25  2  0  0  0  0
 21 22  2  0  0  0  0
 21 40  1  0  0  0  0
 22 23  1  0  0  0  0
 22 41  1  0  0  0  0
 23 24  2  0  0  0  0
 24 25  1  0  0  0  0
 24 42  1  0  0  0  0
 25 43  1  0  0  0  0
 26 27  2  0  0  0  0
 28 29  1  0  0  0  0
 28 44  1  0  0  0  0
 29 45  1  0  0  0  0
M  END
$$$$
