CHEMBL3656122
 OpenBabel04072215373D

 61 64  0  0  0  0  0  0  0  0999 V2000
    3.8904   -1.4480   -0.1717 C   0  0  0  0  0  0  0  0  0  0  0  0
    3.2974   -0.5399    1.1543 S   0  0  3  0  0  0  0  0  0  0  0  0
    1.6122   -0.1848    0.9450 C   0  0  0  0  0  0  0  0  0  0  0  0
    3.2597   -1.5258    2.2055 O   0  0  0  0  0  0  0  0  0  0  0  0
    4.2162    0.7008    1.6568 N   0  0  0  0  0  0  0  0  0  0  0  0
    4.5764    1.6967    0.7900 C   0  0  0  0  0  0  0  0  0  0  0  0
    4.2269    1.7216   -0.3868 O   0  0  0  0  0  0  0  0  0  0  0  0
    5.4177    2.7475    1.3602 C   0  0  0  0  0  0  0  0  0  0  0  0
    5.9397    2.8722    2.6374 C   0  0  0  0  0  0  0  0  0  0  0  0
    6.6842    4.0292    2.6940 N   0  0  0  0  0  0  0  0  0  0  0  0
    6.6641    4.6681    1.4762 C   0  0  0  0  0  0  0  0  0  0  0  0
    7.3453    5.9335    1.2237 C   0  0  0  0  0  0  0  0  0  0  0  0
    7.2749    6.5392   -0.0229 C   0  0  0  0  0  0  0  0  0  0  0  0
    7.8062    7.8147   -0.1876 C   0  0  0  0  0  0  0  0  0  0  0  0
    7.6968    8.5407   -1.3605 O   0  0  0  0  0  0  0  0  0  0  0  0
    6.5688    8.3659   -2.1399 C   0  0  0  0  0  0  0  0  0  0  0  0
    5.3014    8.1651   -1.6016 C   0  0  0  0  0  0  0  0  0  0  0  0
    4.2246    7.8600   -2.4336 C   0  0  0  0  0  0  0  0  0  0  0  0
    4.3648    7.8297   -3.8260 C   0  0  0  0  0  0  0  0  0  0  0  0
    3.3050    7.4638   -4.6936 N   0  0  0  0  0  0  0  0  0  0  0  0
    2.0222    7.1318   -4.3010 C   0  0  0  0  0  0  0  0  0  0  0  0
    1.5947    7.2055   -3.1517 O   0  0  0  0  0  0  0  0  0  0  0  0
    1.2435    6.6573   -5.3496 N   0  0  0  0  0  0  0  0  0  0  0  0
   -0.0953    6.2581   -5.0828 C   0  0  0  0  0  0  0  0  0  0  0  0
   -0.9648    7.0637   -4.3352 C   0  0  0  0  0  0  0  0  0  0  0  0
   -2.2428    6.6061   -3.9844 C   0  0  0  0  0  0  0  0  0  0  0  0
   -3.1670    7.4652   -3.1711 C   0  0  0  0  0  0  0  0  0  0  0  0
   -2.6415    5.3244   -4.3858 C   0  0  0  0  0  0  0  0  0  0  0  0
   -1.7895    4.5288   -5.1559 C   0  0  0  0  0  0  0  0  0  0  0  0
   -0.5344    5.0093   -5.5182 C   0  0  0  0  0  0  0  0  0  0  0  0
    0.2887    4.2251   -6.2315 F   0  0  0  0  0  0  0  0  0  0  0  0
    5.6176    8.1462   -4.3660 C   0  0  0  0  0  0  0  0  0  0  0  0
    6.7155    8.4085   -3.5277 C   0  0  0  0  0  0  0  0  0  0  0  0
    8.5027    8.3903    0.8658 C   0  0  0  0  0  0  0  0  0  0  0  0
    8.5698    7.6905    2.0636 C   0  0  0  0  0  0  0  0  0  0  0  0
    7.9894    6.4839    2.2774 N   0  0  0  0  0  0  0  0  0  0  0  0
    5.8748    3.8916    0.6467 C   0  0  0  0  0  0  0  0  0  0  0  0
    3.3676   -2.3521   -0.5145 H   0  0  0  0  0  0  0  0  0  0  0  0
    4.8020   -1.1434   -0.7055 H   0  0  0  0  0  0  0  0  0  0  0  0
    1.0750   -1.1065    0.7116 H   0  0  0  0  0  0  0  0  0  0  0  0
    1.4986    0.5282    0.1268 H   0  0  0  0  0  0  0  0  0  0  0  0
    1.2248    0.2479    1.8702 H   0  0  0  0  0  0  0  0  0  0  0  0
    4.4676    0.7222    2.6291 H   0  0  0  0  0  0  0  0  0  0  0  0
    5.8604    2.2490    3.5172 H   0  0  0  0  0  0  0  0  0  0  0  0
    7.1812    4.3867    3.5011 H   0  0  0  0  0  0  0  0  0  0  0  0
    6.7678    6.0413   -0.8396 H   0  0  0  0  0  0  0  0  0  0  0  0
    5.1295    8.1837   -0.5292 H   0  0  0  0  0  0  0  0  0  0  0  0
    3.2898    7.6332   -1.9368 H   0  0  0  0  0  0  0  0  0  0  0  0
    3.4851    7.4955   -5.6890 H   0  0  0  0  0  0  0  0  0  0  0  0
    1.7409    6.0562   -5.9954 H   0  0  0  0  0  0  0  0  0  0  0  0
   -0.6367    8.0465   -4.0011 H   0  0  0  0  0  0  0  0  0  0  0  0
   -2.7132    8.4336   -2.9343 H   0  0  0  0  0  0  0  0  0  0  0  0
   -3.4138    6.9711   -2.2260 H   0  0  0  0  0  0  0  0  0  0  0  0
   -4.0887    7.6570   -3.7296 H   0  0  0  0  0  0  0  0  0  0  0  0
   -3.6156    4.9388   -4.0917 H   0  0  0  0  0  0  0  0  0  0  0  0
   -2.0888    3.5291   -5.4533 H   0  0  0  0  0  0  0  0  0  0  0  0
    5.7669    8.1714   -5.4439 H   0  0  0  0  0  0  0  0  0  0  0  0
    7.6880    8.6235   -3.9618 H   0  0  0  0  0  0  0  0  0  0  0  0
    8.9704    9.3629    0.7642 H   0  0  0  0  0  0  0  0  0  0  0  0
    9.1024    8.1032    2.9167 H   0  0  0  0  0  0  0  0  0  0  0  0
    5.6308    4.1086   -0.3869 H   0  0  0  0  0  0  0  0  0  0  0  0
  1  2  2  0  0  0  0
  1 38  1  0  0  0  0
  1 39  1  0  0  0  0
  2  3  1  0  0  0  0
  2  4  2  0  0  0  0
  2  5  1  0  0  0  0
  3 40  1  0  0  0  0
  3 41  1  0  0  0  0
  3 42  1  0  0  0  0
  5  6  1  0  0  0  0
  5 43  1  0  0  0  0
  6  7  2  0  0  0  0
  6  8  1  0  0  0  0
  8  9  2  0  0  0  0
  8 37  1  0  0  0  0
  9 10  1  0  0  0  0
  9 44  1  0  0  0  0
 10 11  1  0  0  0  0
 10 45  1  0  0  0  0
 11 12  1  0  0  0  0
 11 37  2  0  0  0  0
 12 13  1  0  0  0  0
 12 36  2  0  0  0  0
 13 14  2  0  0  0  0
 13 46  1  0  0  0  0
 14 15  1  0  0  0  0
 14 34  1  0  0  0  0
 15 16  1  0  0  0  0
 16 17  1  0  0  0  0
 16 33  2  0  0  0  0
 17 18  2  0  0  0  0
 17 47  1  0  0  0  0
 18 19  1  0  0  0  0
 18 48  1  0  0  0  0
 19 20  1  0  0  0  0
 19 32  2  0  0  0  0
 20 21  1  0  0  0  0
 20 49  1  0  0  0  0
 21 22  2  0  0  0  0
 21 23  1  0  0  0  0
 23 24  1  0  0  0  0
 23 50  1  0  0  0  0
 24 25  1  0  0  0  0
 24 30  2  0  0  0  0
 25 26  2  0  0  0  0
 25 51  1  0  0  0  0
 26 27  1  0  0  0  0
 26 28  1  0  0  0  0
 27 52  1  0  0  0  0
 27 53  1  0  0  0  0
 27 54  1  0  0  0  0
 28 29  2  0  0  0  0
 28 55  1  0  0  0  0
 29 30  1  0  0  0  0
 29 56  1  0  0  0  0
 30 31  1  0  0  0  0
 32 33  1  0  0  0  0
 32 57  1  0  0  0  0
 33 58  1  0  0  0  0
 34 35  2  0  0  0  0
 34 59  1  0  0  0  0
 35 36  1  0  0  0  0
 35 60  1  0  0  0  0
 37 61  1  0  0  0  0
M  END
$$$$
