CHEMBL170984
 OpenBabel04072215363D

 57 61  0  0  0  0  0  0  0  0999 V2000
    3.3555    0.0925    1.3832 C   0  0  0  0  0  0  0  0  0  0  0  0
    2.8658    0.6560    0.1625 O   0  0  0  0  0  0  0  0  0  0  0  0
    3.4513    0.3068   -1.0249 C   0  0  0  0  0  0  0  0  0  0  0  0
    4.4241   -0.6939   -1.1383 C   0  0  0  0  0  0  0  0  0  0  0  0
    5.0543   -0.9889   -2.3693 C   0  0  0  0  0  0  0  0  0  0  0  0
    6.0459   -1.9611   -2.5422 C   0  0  0  0  0  0  0  0  0  0  0  0
    6.4671   -2.7235   -1.4190 N   0  0  0  0  0  0  0  0  0  0  0  0
    7.7064   -3.3936   -1.3646 C   0  0  0  0  0  0  0  0  0  0  0  0
    8.9462   -2.7738   -1.6579 C   0  0  0  0  0  0  0  0  0  0  0  0
    9.0906   -1.0626   -1.8824 Cl  0  0  0  0  0  0  0  0  0  0  0  0
   10.1317   -3.5253   -1.7059 C   0  0  0  0  0  0  0  0  0  0  0  0
   10.1279   -4.8915   -1.4162 C   0  0  0  0  0  0  0  0  0  0  0  0
    8.9270   -5.4612   -1.0506 C   0  0  0  0  0  0  0  0  0  0  0  0
    7.7573   -4.7387   -1.0181 C   0  0  0  0  0  0  0  0  0  0  0  0
    6.6946   -5.5005   -0.6217 O   0  0  0  0  0  0  0  0  0  0  0  0
    7.3519   -6.7561   -0.3397 C   0  0  0  0  0  0  0  0  0  0  0  0
    8.7501   -6.7592   -0.6858 O   0  0  0  0  0  0  0  0  0  0  0  0
    6.6197   -2.1995   -3.7428 N   0  0  0  0  0  0  0  0  0  0  0  0
    6.2219   -1.4251   -4.7528 C   0  0  0  0  0  0  0  0  0  0  0  0
    5.3016   -0.4583   -4.6930 N   0  0  0  0  0  0  0  0  0  0  0  0
    4.7323   -0.2543   -3.5034 C   0  0  0  0  0  0  0  0  0  0  0  0
    3.7647    0.7271   -3.3907 C   0  0  0  0  0  0  0  0  0  0  0  0
    3.0635    0.9801   -2.1976 C   0  0  0  0  0  0  0  0  0  0  0  0
    1.9789    1.8580   -2.1634 O   0  0  0  0  0  0  0  0  0  0  0  0
    1.4387    2.1420   -3.4694 C   0  0  0  0  0  0  0  0  0  0  0  0
   -0.0194    2.6423   -3.4985 C   0  0  0  0  0  0  0  0  0  0  0  0
   -0.9713    1.7722   -2.6874 C   0  0  0  0  0  0  0  0  0  0  0  0
   -1.0409    0.3506   -3.2495 C   0  0  0  0  0  0  0  0  0  0  0  0
   -1.3730    0.2863   -4.6805 N   0  0  0  0  0  0  0  0  0  0  0  0
   -1.1562   -1.0835   -5.1644 C   0  0  0  0  0  0  0  0  0  0  0  0
   -0.6464    1.2341   -5.5363 C   0  0  0  0  0  0  0  0  0  0  0  0
   -0.5446    2.6516   -4.9504 C   0  0  0  0  0  0  0  0  0  0  0  0
    3.4258    0.8898    2.1292 H   0  0  0  0  0  0  0  0  0  0  0  0
    4.3524   -0.3549    1.3464 H   0  0  0  0  0  0  0  0  0  0  0  0
    2.6418   -0.6551    1.7429 H   0  0  0  0  0  0  0  0  0  0  0  0
    4.7338   -1.2795   -0.2831 H   0  0  0  0  0  0  0  0  0  0  0  0
    5.7060   -3.3240   -1.1127 H   0  0  0  0  0  0  0  0  0  0  0  0
   11.0692   -3.0351   -1.9571 H   0  0  0  0  0  0  0  0  0  0  0  0
   11.0357   -5.4768   -1.4576 H   0  0  0  0  0  0  0  0  0  0  0  0
    6.8469   -7.5514   -0.8994 H   0  0  0  0  0  0  0  0  0  0  0  0
    7.2595   -6.9702    0.7327 H   0  0  0  0  0  0  0  0  0  0  0  0
    6.6944   -1.5905   -5.7130 H   0  0  0  0  0  0  0  0  0  0  0  0
    3.5662    1.2873   -4.2993 H   0  0  0  0  0  0  0  0  0  0  0  0
    1.4729    1.2260   -4.0633 H   0  0  0  0  0  0  0  0  0  0  0  0
    2.0715    2.8991   -3.9508 H   0  0  0  0  0  0  0  0  0  0  0  0
   -0.0454    3.6633   -3.0964 H   0  0  0  0  0  0  0  0  0  0  0  0
   -1.9761    2.2198   -2.7038 H   0  0  0  0  0  0  0  0  0  0  0  0
   -0.6625    1.7418   -1.6369 H   0  0  0  0  0  0  0  0  0  0  0  0
   -1.8109   -0.1923   -2.6889 H   0  0  0  0  0  0  0  0  0  0  0  0
   -0.0887   -0.1561   -3.0445 H   0  0  0  0  0  0  0  0  0  0  0  0
   -1.7169   -1.8052   -4.5605 H   0  0  0  0  0  0  0  0  0  0  0  0
   -0.0947   -1.3639   -5.1238 H   0  0  0  0  0  0  0  0  0  0  0  0
   -1.4977   -1.1932   -6.1986 H   0  0  0  0  0  0  0  0  0  0  0  0
   -1.1602    1.2986   -6.5047 H   0  0  0  0  0  0  0  0  0  0  0  0
    0.3616    0.8651   -5.7658 H   0  0  0  0  0  0  0  0  0  0  0  0
   -1.5373    3.1193   -4.9782 H   0  0  0  0  0  0  0  0  0  0  0  0
    0.1058    3.2618   -5.5900 H   0  0  0  0  0  0  0  0  0  0  0  0
  1  2  1  0  0  0  0
  1 33  1  0  0  0  0
  1 34  1  0  0  0  0
  1 35  1  0  0  0  0
  2  3  1  0  0  0  0
  3  4  1  0  0  0  0
  3 23  2  0  0  0  0
  4  5  2  0  0  0  0
  4 36  1  0  0  0  0
  5  6  1  0  0  0  0
  5 21  1  0  0  0  0
  6  7  1  0  0  0  0
  6 18  2  0  0  0  0
  7  8  1  0  0  0  0
  7 37  1  0  0  0  0
  8  9  1  0  0  0  0
  8 14  2  0  0  0  0
  9 10  1  0  0  0  0
  9 11  2  0  0  0  0
 11 12  1  0  0  0  0
 11 38  1  0  0  0  0
 12 13  2  0  0  0  0
 12 39  1  0  0  0  0
 13 14  1  0  0  0  0
 13 17  1  0  0  0  0
 14 15  1  0  0  0  0
 15 16  1  0  0  0  0
 16 17  1  0  0  0  0
 16 40  1  0  0  0  0
 16 41  1  0  0  0  0
 18 19  1  0  0  0  0
 19 20  2  0  0  0  0
 19 42  1  0  0  0  0
 20 21  1  0  0  0  0
 21 22  2  0  0  0  0
 22 23  1  0  0  0  0
 22 43  1  0  0  0  0
 23 24  1  0  0  0  0
 24 25  1  0  0  0  0
 25 26  1  0  0  0  0
 25 44  1  0  0  0  0
 25 45  1  0  0  0  0
 26 27  1  0  0  0  0
 26 32  1  0  0  0  0
 26 46  1  0  0  0  0
 27 28  1  0  0  0  0
 27 47  1  0  0  0  0
 27 48  1  0  0  0  0
 28 29  1  0  0  0  0
 28 49  1  0  0  0  0
 28 50  1  0  0  0  0
 29 30  1  0  0  0  0
 29 31  1  0  0  0  0
 30 51  1  0  0  0  0
 30 52  1  0  0  0  0
 30 53  1  0  0  0  0
 31 32  1  0  0  0  0
 31 54  1  0  0  0  0
 31 55  1  0  0  0  0
 32 56  1  0  0  0  0
 32 57  1  0  0  0  0
M  END
$$$$
