CHEMBL1271782
 OpenBabel04072215363D

 33 35  0  0  0  0  0  0  0  0999 V2000
   -3.4467   -0.0388    0.2785 C   0  0  0  0  0  0  0  0  0  0  0  0
   -1.9735    0.0198    0.0200 C   0  0  0  0  0  0  0  0  0  0  0  0
   -1.2519   -1.1080   -0.3354 C   0  0  0  0  0  0  0  0  0  0  0  0
    0.0771   -1.1034   -0.5741 N   0  0  0  0  0  0  0  0  0  0  0  0
    0.7317    0.0779   -0.4432 C   0  0  0  0  0  0  0  0  0  0  0  0
    2.4114   -0.1229   -0.7697 Cl  0  0  0  0  0  0  0  0  0  0  0  0
    0.1231    1.2746   -0.0878 C   0  0  0  0  0  0  0  0  0  0  0  0
    0.7838    2.5977    0.0968 C   0  0  0  0  0  0  0  0  0  0  0  0
    0.0649    3.5419    0.4147 O   0  0  0  0  0  0  0  0  0  0  0  0
    2.1434    2.7151   -0.1332 N   0  0  0  0  0  0  0  0  0  0  0  0
    2.8748    3.9187   -0.0295 C   0  0  0  0  0  0  0  0  0  0  0  0
    2.4348    5.0389    0.6721 C   0  0  0  0  0  0  0  0  0  0  0  0
    3.1063    6.2114    0.7496 N   0  0  0  0  0  0  0  0  0  0  0  0
    4.2588    6.3179    0.0766 C   0  0  0  0  0  0  0  0  0  0  0  0
    4.9375    7.5278    0.0918 C   0  0  0  0  0  0  0  0  0  0  0  0
    6.1202    7.7157   -0.6265 C   0  0  0  0  0  0  0  0  0  0  0  0
    6.6477    6.6667   -1.3728 C   0  0  0  0  0  0  0  0  0  0  0  0
    5.9965    5.4337   -1.3860 C   0  0  0  0  0  0  0  0  0  0  0  0
    4.8038    5.2455   -0.6640 C   0  0  0  0  0  0  0  0  0  0  0  0
    4.1029    4.0264   -0.6759 C   0  0  0  0  0  0  0  0  0  0  0  0
   -1.2667    1.2209    0.1354 C   0  0  0  0  0  0  0  0  0  0  0  0
   -3.8320   -1.0580    0.1684 H   0  0  0  0  0  0  0  0  0  0  0  0
   -3.9823    0.6006   -0.4302 H   0  0  0  0  0  0  0  0  0  0  0  0
   -3.6663    0.2918    1.2989 H   0  0  0  0  0  0  0  0  0  0  0  0
   -1.7299   -2.0790   -0.4393 H   0  0  0  0  0  0  0  0  0  0  0  0
    2.6444    1.9195   -0.5171 H   0  0  0  0  0  0  0  0  0  0  0  0
    1.5083    5.0344    1.2364 H   0  0  0  0  0  0  0  0  0  0  0  0
    4.5236    8.3527    0.6684 H   0  0  0  0  0  0  0  0  0  0  0  0
    6.6203    8.6801   -0.6058 H   0  0  0  0  0  0  0  0  0  0  0  0
    7.5579    6.8124   -1.9478 H   0  0  0  0  0  0  0  0  0  0  0  0
    6.4155    4.6232   -1.9799 H   0  0  0  0  0  0  0  0  0  0  0  0
    4.5035    3.1845   -1.2365 H   0  0  0  0  0  0  0  0  0  0  0  0
   -1.8084    2.1269    0.4146 H   0  0  0  0  0  0  0  0  0  0  0  0
  1  2  1  0  0  0  0
  1 22  1  0  0  0  0
  1 23  1  0  0  0  0
  1 24  1  0  0  0  0
  2  3  1  0  0  0  0
  2 21  2  0  0  0  0
  3  4  2  0  0  0  0
  3 25  1  0  0  0  0
  4  5  1  0  0  0  0
  5  6  1  0  0  0  0
  5  7  2  0  0  0  0
  7  8  1  0  0  0  0
  7 21  1  0  0  0  0
  8  9  2  0  0  0  0
  8 10  1  0  0  0  0
 10 11  1  0  0  0  0
 10 26  1  0  0  0  0
 11 12  1  0  0  0  0
 11 20  2  0  0  0  0
 12 13  2  0  0  0  0
 12 27  1  0  0  0  0
 13 14  1  0  0  0  0
 14 15  1  0  0  0  0
 14 19  2  0  0  0  0
 15 16  2  0  0  0  0
 15 28  1  0  0  0  0
 16 17  1  0  0  0  0
 16 29  1  0  0  0  0
 17 18  2  0  0  0  0
 17 30  1  0  0  0  0
 18 19  1  0  0  0  0
 18 31  1  0  0  0  0
 19 20  1  0  0  0  0
 20 32  1  0  0  0  0
 21 33  1  0  0  0  0
M  END
$$$$
