CHEMBL3912310
 OpenBabel04072215373D

 66 69  0  0  0  0  0  0  0  0999 V2000
    1.5383   -0.2164    3.0202 C   0  0  0  0  0  0  0  0  0  0  0  0
    2.6894   -0.2466    2.1461 N   0  0  0  0  0  0  0  0  0  0  0  0
    3.6235   -1.2476    2.2761 C   0  0  0  0  0  0  0  0  0  0  0  0
    3.4579   -2.2061    3.0197 O   0  0  0  0  0  0  0  0  0  0  0  0
    4.8778   -1.1679    1.4597 C   0  0  0  0  0  0  0  0  0  0  0  0
    5.3239    0.0357    0.9294 C   0  0  0  0  0  0  0  0  0  0  0  0
    6.5417    0.0680    0.2294 C   0  0  0  0  0  0  0  0  0  0  0  0
    7.0582    1.1877   -0.3737 O   0  0  0  0  0  0  0  0  0  0  0  0
    6.3906    2.4207   -0.1120 C   0  0  0  0  0  0  0  0  0  0  0  0
    7.3231   -1.0985    0.1149 C   0  0  0  0  0  0  0  0  0  0  0  0
    6.9225   -2.3156    0.6866 C   0  0  0  0  0  0  0  0  0  0  0  0
    7.7118   -3.4801    0.5559 N   0  0  0  0  0  0  0  0  0  0  0  0
    6.9572   -4.7921    0.3042 C   0  0  0  0  0  0  0  0  0  0  0  0
    5.8682   -4.8621   -0.8280 C   0  0  0  0  0  0  0  0  0  0  0  0
    6.2165   -4.8297   -2.2592 N   0  0  0  0  0  0  0  0  0  0  0  0
    7.0449   -5.9128   -2.8010 C   0  0  0  0  0  0  0  0  0  0  0  0
    6.5205   -7.3315   -2.5583 C   0  0  0  0  0  0  0  0  0  0  0  0
    7.1896   -5.7040   -4.3174 C   0  0  0  0  0  0  0  0  0  0  0  0
    9.1414   -3.6861    0.7146 C   0  0  0  0  0  0  0  0  0  0  0  0
    9.7029   -4.4066   -0.3063 C   0  0  0  0  0  0  0  0  0  0  0  0
   10.7036   -5.2868   -0.0084 C   0  0  0  0  0  0  0  0  0  0  0  0
   11.3319   -5.2860    1.1991 C   0  0  0  0  0  0  0  0  0  0  0  0
   11.9416   -6.4231    1.4210 N   0  0  0  0  0  0  0  0  0  0  0  0
   13.0044   -6.3895    2.2109 C   0  0  0  0  0  0  0  0  0  0  0  0
   13.5656   -5.2064    2.6413 C   0  0  0  0  0  0  0  0  0  0  0  0
   15.0806   -5.3182    2.5770 C   0  0  0  0  0  0  0  0  0  0  0  0
   15.7462   -6.3265    1.7728 C   0  0  0  0  0  0  0  0  0  0  0  0
   17.0613   -6.3817    1.9050 N   0  0  0  0  0  0  0  0  0  0  0  0
   17.3278   -5.3671    2.7307 N   0  0  0  0  0  0  0  0  0  0  0  0
   18.7345   -5.0914    2.9480 C   0  0  0  0  0  0  0  0  0  0  0  0
   16.1784   -4.7287    3.2020 C   0  0  0  0  0  0  0  0  0  0  0  0
   12.7163   -4.0831    2.6746 N   0  0  0  0  0  0  0  0  0  0  0  0
   11.3922   -4.1398    1.9838 C   0  0  0  0  0  0  0  0  0  0  0  0
   10.0445   -3.4142    1.8041 C   0  0  0  0  0  0  0  0  0  0  0  0
    5.6652   -2.3283    1.3243 C   0  0  0  0  0  0  0  0  0  0  0  0
    0.9180    0.6302    2.7509 H   0  0  0  0  0  0  0  0  0  0  0  0
    1.8762   -0.1155    4.0616 H   0  0  0  0  0  0  0  0  0  0  0  0
    0.9755   -1.1558    2.9082 H   0  0  0  0  0  0  0  0  0  0  0  0
    2.7609    0.4564    1.4222 H   0  0  0  0  0  0  0  0  0  0  0  0
    4.7578    0.9368    1.0766 H   0  0  0  0  0  0  0  0  0  0  0  0
    6.9639    3.2266   -0.5792 H   0  0  0  0  0  0  0  0  0  0  0  0
    6.3473    2.6261    0.9637 H   0  0  0  0  0  0  0  0  0  0  0  0
    5.3868    2.4287   -0.5521 H   0  0  0  0  0  0  0  0  0  0  0  0
    8.2419   -1.0567   -0.4650 H   0  0  0  0  0  0  0  0  0  0  0  0
    6.4697   -5.0751    1.2455 H   0  0  0  0  0  0  0  0  0  0  0  0
    7.6426   -5.6246    0.1063 H   0  0  0  0  0  0  0  0  0  0  0  0
    5.1236   -4.0737   -0.6788 H   0  0  0  0  0  0  0  0  0  0  0  0
    5.2974   -5.7873   -0.6627 H   0  0  0  0  0  0  0  0  0  0  0  0
    6.6189   -3.9217   -2.4892 H   0  0  0  0  0  0  0  0  0  0  0  0
    8.0441   -5.8477   -2.3681 H   0  0  0  0  0  0  0  0  0  0  0  0
    5.5294   -7.4830   -2.9995 H   0  0  0  0  0  0  0  0  0  0  0  0
    6.4690   -7.5703   -1.4926 H   0  0  0  0  0  0  0  0  0  0  0  0
    7.1972   -8.0657   -3.0150 H   0  0  0  0  0  0  0  0  0  0  0  0
    6.2329   -5.8325   -4.8384 H   0  0  0  0  0  0  0  0  0  0  0  0
    7.8948   -6.4293   -4.7414 H   0  0  0  0  0  0  0  0  0  0  0  0
    7.5714   -4.7046   -4.5518 H   0  0  0  0  0  0  0  0  0  0  0  0
    9.2057   -4.4795   -1.2679 H   0  0  0  0  0  0  0  0  0  0  0  0
   10.9855   -6.0492   -0.7270 H   0  0  0  0  0  0  0  0  0  0  0  0
   13.5126   -7.3444    2.2468 H   0  0  0  0  0  0  0  0  0  0  0  0
   15.3106   -7.0604    1.1059 H   0  0  0  0  0  0  0  0  0  0  0  0
   19.3372   -5.8475    2.4197 H   0  0  0  0  0  0  0  0  0  0  0  0
   18.9691   -5.1486    4.0110 H   0  0  0  0  0  0  0  0  0  0  0  0
   18.9715   -4.1154    2.5219 H   0  0  0  0  0  0  0  0  0  0  0  0
   16.2811   -3.9420    3.9344 H   0  0  0  0  0  0  0  0  0  0  0  0
    9.7464   -2.6939    2.5817 H   0  0  0  0  0  0  0  0  0  0  0  0
    5.2801   -3.2517    1.7529 H   0  0  0  0  0  0  0  0  0  0  0  0
  1  2  1  0  0  0  0
  1 36  1  0  0  0  0
  1 37  1  0  0  0  0
  1 38  1  0  0  0  0
  2  3  1  0  0  0  0
  2 39  1  0  0  0  0
  3  4  2  0  0  0  0
  3  5  1  0  0  0  0
  5  6  1  0  0  0  0
  5 35  2  0  0  0  0
  6  7  2  0  0  0  0
  6 40  1  0  0  0  0
  7  8  1  0  0  0  0
  7 10  1  0  0  0  0
  8  9  1  0  0  0  0
  9 41  1  0  0  0  0
  9 42  1  0  0  0  0
  9 43  1  0  0  0  0
 10 11  2  0  0  0  0
 10 44  1  0  0  0  0
 11 12  1  0  0  0  0
 11 35  1  0  0  0  0
 12 13  1  0  0  0  0
 12 19  1  0  0  0  0
 13 14  1  0  0  0  0
 13 45  1  0  0  0  0
 13 46  1  0  0  0  0
 14 15  1  0  0  0  0
 14 47  1  0  0  0  0
 14 48  1  0  0  0  0
 15 16  1  0  0  0  0
 15 49  1  0  0  0  0
 16 17  1  0  0  0  0
 16 18  1  0  0  0  0
 16 50  1  0  0  0  0
 17 51  1  0  0  0  0
 17 52  1  0  0  0  0
 17 53  1  0  0  0  0
 18 54  1  0  0  0  0
 18 55  1  0  0  0  0
 18 56  1  0  0  0  0
 19 20  1  0  0  0  0
 19 34  2  0  0  0  0
 20 21  2  0  0  0  0
 20 57  1  0  0  0  0
 21 22  1  0  0  0  0
 21 58  1  0  0  0  0
 22 23  1  0  0  0  0
 22 33  2  0  0  0  0
 23 24  2  0  0  0  0
 24 25  1  0  0  0  0
 24 59  1  0  0  0  0
 25 26  1  0  0  0  0
 25 32  2  0  0  0  0
 26 27  1  0  0  0  0
 26 31  2  0  0  0  0
 27 28  2  0  0  0  0
 27 60  1  0  0  0  0
 28 29  1  0  0  0  0
 29 30  1  0  0  0  0
 29 31  1  0  0  0  0
 30 61  1  0  0  0  0
 30 62  1  0  0  0  0
 30 63  1  0  0  0  0
 31 64  1  0  0  0  0
 32 33  1  0  0  0  0
 33 34  1  0  0  0  0
 34 65  1  0  0  0  0
 35 66  1  0  0  0  0
M  END
$$$$
