CHEMBL1082826
 OpenBabel04072215363D

 58 64  0  0  1  0  0  0  0  0999 V2000
    1.7062   -0.4516    1.1847 C   0  0  0  0  0  0  0  0  0  0  0  0
    2.6373   -1.4773    0.7643 N   0  0  0  0  0  0  0  0  0  0  0  0
    3.6471   -2.1252    1.4661 C   0  0  0  0  0  0  0  0  0  0  0  0
    4.3423   -2.9388    0.5562 C   0  0  0  0  0  0  0  0  0  0  0  0
    3.9068   -2.2731   -0.6676 C   0  0  0  0  0  0  0  0  0  0  0  0
    2.7587   -1.6204   -0.5599 N   0  0  0  0  0  0  0  0  0  0  0  0
    4.8397   -1.8954   -1.7754 C   0  0  0  0  0  0  0  0  0  0  0  0
    6.0347   -2.8040   -1.6870 C   0  0  0  0  0  0  0  0  0  0  0  0
    6.5311   -2.6480   -0.2453 C   0  0  0  0  0  0  0  0  0  0  0  0
    5.7677   -3.3742    0.6777 C   0  0  0  0  0  0  0  0  0  0  0  0
    6.4399   -4.6170    0.8887 C   0  0  0  0  0  0  0  0  0  0  0  0
    7.8935   -4.7640    0.7324 C   0  0  0  0  0  0  0  0  0  0  0  0
    8.6075   -3.5679    0.4858 C   0  0  0  0  0  0  0  0  0  0  0  0
    9.9733   -3.2803    0.3873 C   0  0  0  0  0  0  0  0  0  0  0  0
   11.2292   -3.9331    0.3851 C   0  0  0  0  0  0  0  0  0  0  0  0
   12.4247   -3.1691    0.2782 C   0  0  0  0  0  0  0  0  0  0  0  0
   13.7586   -3.8642    0.0128 C   0  0  3  0  0  0  0  0  0  0  0  0
   15.0205   -2.9822   -0.0815 C   0  0  0  0  0  0  0  0  0  0  0  0
   15.0938   -2.1683   -1.3765 C   0  0  0  0  0  0  0  0  0  0  0  0
   14.8305   -3.0428   -2.5908 C   0  0  0  0  0  0  0  0  0  0  0  0
   13.6204   -3.9468   -2.3920 C   0  0  0  0  0  0  0  0  0  0  0  0
   13.6819   -4.6840   -1.1685 O   0  0  0  0  0  0  0  0  0  0  0  0
   12.3505   -1.7748    0.3610 C   0  0  0  0  0  0  0  0  0  0  0  0
   11.1397   -1.1059    0.3111 C   0  0  0  0  0  0  0  0  0  0  0  0
    9.9825   -1.8650    0.2466 C   0  0  0  0  0  0  0  0  0  0  0  0
    8.6853   -1.4545    0.0278 N   0  0  0  0  0  0  0  0  0  0  0  0
    8.1786   -0.1065   -0.1251 C   0  0  0  0  0  0  0  0  0  0  0  0
    7.8625   -2.5135    0.0787 C   0  0  0  0  0  0  0  0  0  0  0  0
    8.3335   -6.1533    0.7220 C   0  0  0  0  0  0  0  0  0  0  0  0
    7.0379   -6.7963    0.8625 N   0  0  0  0  0  0  0  0  0  0  0  0
    5.9190   -5.9567    0.9860 C   0  0  0  0  0  0  0  0  0  0  0  0
    4.7869   -6.4019    1.0692 O   0  0  0  0  0  0  0  0  0  0  0  0
    2.2322    0.5074    1.2323 H   0  0  0  0  0  0  0  0  0  0  0  0
    1.2564   -0.7155    2.1394 H   0  0  0  0  0  0  0  0  0  0  0  0
    0.9186   -0.3706    0.4222 H   0  0  0  0  0  0  0  0  0  0  0  0
    3.8475   -1.8465    2.4933 H   0  0  0  0  0  0  0  0  0  0  0  0
    5.1887   -0.8664   -1.5841 H   0  0  0  0  0  0  0  0  0  0  0  0
    4.3633   -1.9124   -2.7524 H   0  0  0  0  0  0  0  0  0  0  0  0
    6.8125   -2.5863   -2.4204 H   0  0  0  0  0  0  0  0  0  0  0  0
    5.7220   -3.8485   -1.8538 H   0  0  0  0  0  0  0  0  0  0  0  0
   11.2843   -5.0184    0.3888 H   0  0  0  0  0  0  0  0  0  0  0  0
   13.9130   -4.5522    0.8537 H   0  0  0  0  0  0  0  0  0  0  0  0
   15.8962   -3.6446   -0.0700 H   0  0  0  0  0  0  0  0  0  0  0  0
   15.1166   -2.3260    0.7909 H   0  0  0  0  0  0  0  0  0  0  0  0
   16.0779   -1.6929   -1.4607 H   0  0  0  0  0  0  0  0  0  0  0  0
   14.3697   -1.3481   -1.3736 H   0  0  0  0  0  0  0  0  0  0  0  0
   15.7180   -3.6607   -2.7687 H   0  0  0  0  0  0  0  0  0  0  0  0
   14.6891   -2.4162   -3.4795 H   0  0  0  0  0  0  0  0  0  0  0  0
   13.5864   -4.6759   -3.2090 H   0  0  0  0  0  0  0  0  0  0  0  0
   12.6863   -3.3767   -2.4391 H   0  0  0  0  0  0  0  0  0  0  0  0
   13.2403   -1.1543    0.4021 H   0  0  0  0  0  0  0  0  0  0  0  0
   11.1158   -0.0206    0.2734 H   0  0  0  0  0  0  0  0  0  0  0  0
    8.9731    0.6236   -0.0009 H   0  0  0  0  0  0  0  0  0  0  0  0
    7.4128    0.0439    0.6453 H   0  0  0  0  0  0  0  0  0  0  0  0
    7.7273   -0.0231   -1.1183 H   0  0  0  0  0  0  0  0  0  0  0  0
    8.9778   -6.4311    1.5579 H   0  0  0  0  0  0  0  0  0  0  0  0
    8.7776   -6.4270   -0.2393 H   0  0  0  0  0  0  0  0  0  0  0  0
    6.8905   -7.7808    0.6818 H   0  0  0  0  0  0  0  0  0  0  0  0
  1  2  1  0  0  0  0
  1 33  1  0  0  0  0
  1 34  1  0  0  0  0
  1 35  1  0  0  0  0
  2  3  1  0  0  0  0
  2  6  1  0  0  0  0
  3  4  2  0  0  0  0
  3 36  1  0  0  0  0
  4  5  1  0  0  0  0
  4 10  1  0  0  0  0
  5  6  2  0  0  0  0
  5  7  1  0  0  0  0
  7  8  1  0  0  0  0
  7 37  1  0  0  0  0
  7 38  1  0  0  0  0
  8  9  1  0  0  0  0
  8 39  1  0  0  0  0
  8 40  1  0  0  0  0
  9 10  1  0  0  0  0
  9 28  2  0  0  0  0
 10 11  2  0  0  0  0
 11 12  1  0  0  0  0
 11 31  1  0  0  0  0
 12 13  2  0  0  0  0
 12 29  1  0  0  0  0
 13 14  1  0  0  0  0
 13 28  1  0  0  0  0
 14 15  1  0  0  0  0
 14 25  2  0  0  0  0
 15 16  2  0  0  0  0
 15 41  1  0  0  0  0
 16 17  1  0  0  0  0
 16 23  1  0  0  0  0
 17 18  1  0  0  0  0
 17 22  1  0  0  0  0
 17 42  1  0  0  0  0
 18 19  1  0  0  0  0
 18 43  1  0  0  0  0
 18 44  1  0  0  0  0
 19 20  1  0  0  0  0
 19 45  1  0  0  0  0
 19 46  1  0  0  0  0
 20 21  1  0  0  0  0
 20 47  1  0  0  0  0
 20 48  1  0  0  0  0
 21 22  1  0  0  0  0
 21 49  1  0  0  0  0
 21 50  1  0  0  0  0
 23 24  2  0  0  0  0
 23 51  1  0  0  0  0
 24 25  1  0  0  0  0
 24 52  1  0  0  0  0
 25 26  1  0  0  0  0
 26 27  1  0  0  0  0
 26 28  1  0  0  0  0
 27 53  1  0  0  0  0
 27 54  1  0  0  0  0
 27 55  1  0  0  0  0
 29 30  1  0  0  0  0
 29 56  1  0  0  0  0
 29 57  1  0  0  0  0
 30 31  1  0  0  0  0
 30 58  1  0  0  0  0
 31 32  2  0  0  0  0
M  END
$$$$
