CHEMBL3353355
 OpenBabel04072215363D

 68 74  0  0  1  0  0  0  0  0999 V2000
    7.9992   -4.4436   -4.1163 C   0  0  0  0  0  0  0  0  0  0  0  0
    8.3187   -5.7816   -3.7595 O   0  0  0  0  0  0  0  0  0  0  0  0
    7.5181   -6.3915   -2.8312 C   0  0  0  0  0  0  0  0  0  0  0  0
    7.9061   -7.7138   -2.5330 C   0  0  0  0  0  0  0  0  0  0  0  0
    7.2124   -8.4777   -1.5983 C   0  0  0  0  0  0  0  0  0  0  0  0
    6.1186   -7.8879   -1.0049 C   0  0  0  0  0  0  0  0  0  0  0  0
    5.6660   -6.5912   -1.3078 C   0  0  0  0  0  0  0  0  0  0  0  0
    6.4002   -5.8201   -2.2024 C   0  0  0  0  0  0  0  0  0  0  0  0
    4.4447   -6.3319   -0.4664 C   0  0  1  0  0  0  0  0  0  0  0  0
    4.0760   -4.9608    0.0153 C   0  0  0  0  0  0  0  0  0  0  0  0
    3.1347   -5.7078   -0.9134 C   0  0  1  0  0  0  0  0  0  0  0  0
    2.8361   -5.1386   -2.2816 C   0  0  0  0  0  0  0  0  0  0  0  0
    2.2169   -3.8795   -2.3923 C   0  0  0  0  0  0  0  0  0  0  0  0
    1.9101   -3.2892   -3.6290 C   0  0  0  0  0  0  0  0  0  0  0  0
    2.2202   -3.9851   -4.8093 C   0  0  0  0  0  0  0  0  0  0  0  0
    2.1718   -3.7196   -6.2153 C   0  0  0  0  0  0  0  0  0  0  0  0
    1.8637   -2.4382   -6.8078 C   0  0  0  0  0  0  0  0  0  0  0  0
    1.8998   -2.1917   -8.1312 C   0  0  0  0  0  0  0  0  0  0  0  0
    1.8161   -0.8777   -8.8008 C   0  0  0  0  0  0  0  0  0  0  0  0
    2.5277   -0.7314   -9.9988 C   0  0  0  0  0  0  0  0  0  0  0  0
    2.5640    0.4886  -10.6841 C   0  0  0  0  0  0  0  0  0  0  0  0
    1.8690    1.6036  -10.2053 C   0  0  0  0  0  0  0  0  0  0  0  0
    2.0455    2.9503  -10.8785 C   0  0  0  0  0  0  0  0  0  0  0  0
    1.1870    3.3372  -11.9954 N   0  0  0  0  0  0  0  0  0  0  0  0
   -0.2339    3.5327  -11.7063 C   0  0  0  0  0  0  0  0  0  0  0  0
   -1.1032    2.2828  -11.9101 C   0  0  0  0  0  0  0  0  0  0  0  0
   -0.9050    1.6955  -13.2025 O   0  0  0  0  0  0  0  0  0  0  0  0
    0.4751    1.3862  -13.4299 C   0  0  0  0  0  0  0  0  0  0  0  0
    1.3681    2.6241  -13.2624 C   0  0  0  0  0  0  0  0  0  0  0  0
    1.1205    1.4512   -9.0258 C   0  0  0  0  0  0  0  0  0  0  0  0
    1.0934    0.2251   -8.3310 C   0  0  0  0  0  0  0  0  0  0  0  0
    2.5571   -4.7992   -6.9173 N   0  0  0  0  0  0  0  0  0  0  0  0
    2.8805   -5.7073   -5.9817 N   0  0  0  0  0  0  0  0  0  0  0  0
    2.7565   -5.2623   -4.6949 C   0  0  0  0  0  0  0  0  0  0  0  0
    3.0682   -5.8634   -3.4644 C   0  0  0  0  0  0  0  0  0  0  0  0
    4.3479   -7.5632    0.4155 C   0  0  0  0  0  0  0  0  0  0  0  0
    3.5261   -7.7244    1.3083 O   0  0  0  0  0  0  0  0  0  0  0  0
    5.3247   -8.4395    0.0008 N   0  0  0  0  0  0  0  0  0  0  0  0
    8.6382   -4.1642   -4.9599 H   0  0  0  0  0  0  0  0  0  0  0  0
    8.2176   -3.7634   -3.2871 H   0  0  0  0  0  0  0  0  0  0  0  0
    6.9602   -4.3483   -4.4469 H   0  0  0  0  0  0  0  0  0  0  0  0
    8.7754   -8.1381   -3.0341 H   0  0  0  0  0  0  0  0  0  0  0  0
    7.5322   -9.4830   -1.3499 H   0  0  0  0  0  0  0  0  0  0  0  0
    6.0965   -4.7968   -2.3883 H   0  0  0  0  0  0  0  0  0  0  0  0
    4.6161   -4.1065   -0.3733 H   0  0  0  0  0  0  0  0  0  0  0  0
    3.7771   -4.8504    1.0523 H   0  0  0  0  0  0  0  0  0  0  0  0
    2.2471   -6.1191   -0.4281 H   0  0  0  0  0  0  0  0  0  0  0  0
    1.9574   -3.3369   -1.4839 H   0  0  0  0  0  0  0  0  0  0  0  0
    1.4398   -2.3117   -3.6636 H   0  0  0  0  0  0  0  0  0  0  0  0
    1.6871   -1.6181   -6.1200 H   0  0  0  0  0  0  0  0  0  0  0  0
    2.1151   -3.0269   -8.7989 H   0  0  0  0  0  0  0  0  0  0  0  0
    3.1011   -1.5662  -10.3998 H   0  0  0  0  0  0  0  0  0  0  0  0
    3.1697    0.5649  -11.5843 H   0  0  0  0  0  0  0  0  0  0  0  0
    3.0900    3.0153  -11.2167 H   0  0  0  0  0  0  0  0  0  0  0  0
    1.9836    3.7306  -10.1080 H   0  0  0  0  0  0  0  0  0  0  0  0
   -0.5903    4.2958  -12.4125 H   0  0  0  0  0  0  0  0  0  0  0  0
   -0.3881    3.9590  -10.7089 H   0  0  0  0  0  0  0  0  0  0  0  0
   -2.1580    2.5727  -11.8549 H   0  0  0  0  0  0  0  0  0  0  0  0
   -0.9299    1.5315  -11.1342 H   0  0  0  0  0  0  0  0  0  0  0  0
    0.5559    1.0251  -14.4610 H   0  0  0  0  0  0  0  0  0  0  0  0
    0.7784    0.5641  -12.7767 H   0  0  0  0  0  0  0  0  0  0  0  0
    1.0914    3.3312  -14.0574 H   0  0  0  0  0  0  0  0  0  0  0  0
    2.4203    2.3774  -13.4431 H   0  0  0  0  0  0  0  0  0  0  0  0
    0.5756    2.3014   -8.6140 H   0  0  0  0  0  0  0  0  0  0  0  0
    0.5143    0.1552   -7.4129 H   0  0  0  0  0  0  0  0  0  0  0  0
    3.2099   -6.6150   -6.2896 H   0  0  0  0  0  0  0  0  0  0  0  0
    3.4904   -6.8639   -3.4245 H   0  0  0  0  0  0  0  0  0  0  0  0
    5.4638   -9.3422    0.4290 H   0  0  0  0  0  0  0  0  0  0  0  0
  1  2  1  0  0  0  0
  1 39  1  0  0  0  0
  1 40  1  0  0  0  0
  1 41  1  0  0  0  0
  2  3  1  0  0  0  0
  3  4  1  0  0  0  0
  3  8  2  0  0  0  0
  4  5  2  0  0  0  0
  4 42  1  0  0  0  0
  5  6  1  0  0  0  0
  5 43  1  0  0  0  0
  6  7  2  0  0  0  0
  6 38  1  0  0  0  0
  7  8  1  0  0  0  0
  8 44  1  0  0  0  0
  9  7  1  6  0  0  0
  9 10  1  0  0  0  0
  9 11  1  0  0  0  0
  9 36  1  0  0  0  0
 10 11  1  0  0  0  0
 10 45  1  0  0  0  0
 10 46  1  0  0  0  0
 11 12  1  0  0  0  0
 11 47  1  1  0  0  0
 12 13  1  0  0  0  0
 12 35  2  0  0  0  0
 13 14  2  0  0  0  0
 13 48  1  0  0  0  0
 14 15  1  0  0  0  0
 14 49  1  0  0  0  0
 15 16  1  0  0  0  0
 15 34  2  0  0  0  0
 16 17  1  0  0  0  0
 16 32  2  0  0  0  0
 17 18  2  0  0  0  0
 17 50  1  0  0  0  0
 18 19  1  0  0  0  0
 18 51  1  0  0  0  0
 19 20  1  0  0  0  0
 19 31  2  0  0  0  0
 20 21  2  0  0  0  0
 20 52  1  0  0  0  0
 21 22  1  0  0  0  0
 21 53  1  0  0  0  0
 22 23  1  0  0  0  0
 22 30  2  0  0  0  0
 23 24  1  0  0  0  0
 23 54  1  0  0  0  0
 23 55  1  0  0  0  0
 24 25  1  0  0  0  0
 24 29  1  0  0  0  0
 25 26  1  0  0  0  0
 25 56  1  0  0  0  0
 25 57  1  0  0  0  0
 26 27  1  0  0  0  0
 26 58  1  0  0  0  0
 26 59  1  0  0  0  0
 27 28  1  0  0  0  0
 28 29  1  0  0  0  0
 28 60  1  0  0  0  0
 28 61  1  0  0  0  0
 29 62  1  0  0  0  0
 29 63  1  0  0  0  0
 30 31  1  0  0  0  0
 30 64  1  0  0  0  0
 31 65  1  0  0  0  0
 32 33  1  0  0  0  0
 33 34  1  0  0  0  0
 33 66  1  0  0  0  0
 34 35  1  0  0  0  0
 35 67  1  0  0  0  0
 36 37  2  0  0  0  0
 36 38  1  0  0  0  0
 38 68  1  0  0  0  0
M  END
$$$$
