CHEMBL2349002
 OpenBabel04072215363D

 49 53  0  0  0  0  0  0  0  0999 V2000
    1.4333    0.7809    0.2446 O   0  0  0  0  0  0  0  0  0  0  0  0
    2.6044    0.5305   -0.0209 C   0  0  0  0  0  0  0  0  0  0  0  0
    3.1145    0.2146   -1.2756 N   0  0  0  0  0  0  0  0  0  0  0  0
    2.3490    0.2049   -2.4730 C   0  0  0  0  0  0  0  0  0  0  0  0
    1.1117    0.8548   -2.5653 C   0  0  0  0  0  0  0  0  0  0  0  0
    0.3262    0.7605   -3.7138 C   0  0  0  0  0  0  0  0  0  0  0  0
    0.7750    0.0253   -4.8008 C   0  0  0  0  0  0  0  0  0  0  0  0
    2.0382   -0.5635   -4.7550 C   0  0  0  0  0  0  0  0  0  0  0  0
    2.4939   -1.3772   -5.8226 O   0  0  0  0  0  0  0  0  0  0  0  0
    2.2005   -1.0424   -7.1442 C   0  0  0  0  0  0  0  0  0  0  0  0
    2.2899   -2.2694   -7.9715 C   0  0  0  0  0  0  0  0  0  0  0  0
    2.0100   -2.1334   -9.2755 C   0  0  0  0  0  0  0  0  0  0  0  0
    1.6718   -0.8572   -9.7802 C   0  0  0  0  0  0  0  0  0  0  0  0
    1.3709   -0.4544  -10.9945 N   0  0  0  0  0  0  0  0  0  0  0  0
    1.1168    0.8824  -10.8862 C   0  0  0  0  0  0  0  0  0  0  0  0
    0.7647    1.6968  -11.9371 N   0  0  0  0  0  0  0  0  0  0  0  0
    0.6375    1.2726  -13.2413 C   0  0  0  0  0  0  0  0  0  0  0  0
    0.8001    0.1418  -13.6731 O   0  0  0  0  0  0  0  0  0  0  0  0
    0.2471    2.3282  -14.2312 C   0  0  0  0  0  0  0  0  0  0  0  0
    0.1652    3.8132  -13.9755 C   0  0  0  0  0  0  0  0  0  0  0  0
   -1.0966    3.0097  -14.1035 C   0  0  0  0  0  0  0  0  0  0  0  0
    1.2592    1.3055   -9.5846 C   0  0  0  0  0  0  0  0  0  0  0  0
    1.6322    0.1924   -8.8794 N   0  0  0  0  0  0  0  0  0  0  0  0
    1.8950    0.1511   -7.5430 N   0  0  0  0  0  0  0  0  0  0  0  0
    2.8300   -0.4850   -3.5971 C   0  0  0  0  0  0  0  0  0  0  0  0
    3.5469    0.5044    1.1242 C   0  0  0  0  0  0  0  0  0  0  0  0
    3.0437    0.1030    2.3658 C   0  0  0  0  0  0  0  0  0  0  0  0
    3.8826    0.1554    3.4607 C   0  0  0  0  0  0  0  0  0  0  0  0
    5.1616    0.5789    3.3937 N   0  0  0  0  0  0  0  0  0  0  0  0
    5.6162    0.9799    2.1855 C   0  0  0  0  0  0  0  0  0  0  0  0
    4.8588    0.9595    1.0250 C   0  0  0  0  0  0  0  0  0  0  0  0
    4.0384   -0.1967   -1.3210 H   0  0  0  0  0  0  0  0  0  0  0  0
    0.7191    1.4512   -1.7470 H   0  0  0  0  0  0  0  0  0  0  0  0
   -0.6444    1.2479   -3.7450 H   0  0  0  0  0  0  0  0  0  0  0  0
    0.1309   -0.0778   -5.6680 H   0  0  0  0  0  0  0  0  0  0  0  0
    2.5380   -3.2171   -7.5148 H   0  0  0  0  0  0  0  0  0  0  0  0
    2.0255   -2.9731   -9.9615 H   0  0  0  0  0  0  0  0  0  0  0  0
    0.5845    2.6604  -11.7132 H   0  0  0  0  0  0  0  0  0  0  0  0
    0.5478    2.0532  -15.2408 H   0  0  0  0  0  0  0  0  0  0  0  0
    0.4243    4.4737  -14.7983 H   0  0  0  0  0  0  0  0  0  0  0  0
    0.4126    4.2323  -13.0104 H   0  0  0  0  0  0  0  0  0  0  0  0
   -1.6879    3.1174  -15.0064 H   0  0  0  0  0  0  0  0  0  0  0  0
   -1.6869    2.8287  -13.2124 H   0  0  0  0  0  0  0  0  0  0  0  0
    1.1437    2.2612   -9.0982 H   0  0  0  0  0  0  0  0  0  0  0  0
    3.7870   -0.9966   -3.5745 H   0  0  0  0  0  0  0  0  0  0  0  0
    2.0141   -0.2237    2.4782 H   0  0  0  0  0  0  0  0  0  0  0  0
    3.5351   -0.1369    4.4478 H   0  0  0  0  0  0  0  0  0  0  0  0
    6.6386    1.3484    2.1841 H   0  0  0  0  0  0  0  0  0  0  0  0
    5.2727    1.3377    0.0987 H   0  0  0  0  0  0  0  0  0  0  0  0
  1  2  2  0  0  0  0
  2  3  1  0  0  0  0
  2 26  1  0  0  0  0
  3  4  1  0  0  0  0
  3 32  1  0  0  0  0
  4  5  1  0  0  0  0
  4 25  2  0  0  0  0
  5  6  2  0  0  0  0
  5 33  1  0  0  0  0
  6  7  1  0  0  0  0
  6 34  1  0  0  0  0
  7  8  2  0  0  0  0
  7 35  1  0  0  0  0
  8  9  1  0  0  0  0
  8 25  1  0  0  0  0
  9 10  1  0  0  0  0
 10 11  1  0  0  0  0
 10 24  2  0  0  0  0
 11 12  2  0  0  0  0
 11 36  1  0  0  0  0
 12 13  1  0  0  0  0
 12 37  1  0  0  0  0
 13 14  2  0  0  0  0
 13 23  1  0  0  0  0
 14 15  1  0  0  0  0
 15 16  1  0  0  0  0
 15 22  2  0  0  0  0
 16 17  1  0  0  0  0
 16 38  1  0  0  0  0
 17 18  2  0  0  0  0
 17 19  1  0  0  0  0
 19 20  1  0  0  0  0
 19 21  1  0  0  0  0
 19 39  1  0  0  0  0
 20 21  1  0  0  0  0
 20 40  1  0  0  0  0
 20 41  1  0  0  0  0
 21 42  1  0  0  0  0
 21 43  1  0  0  0  0
 22 23  1  0  0  0  0
 22 44  1  0  0  0  0
 23 24  1  0  0  0  0
 25 45  1  0  0  0  0
 26 27  1  0  0  0  0
 26 31  2  0  0  0  0
 27 28  2  0  0  0  0
 27 46  1  0  0  0  0
 28 29  1  0  0  0  0
 28 47  1  0  0  0  0
 29 30  2  0  0  0  0
 30 31  1  0  0  0  0
 30 48  1  0  0  0  0
 31 49  1  0  0  0  0
M  END
$$$$
