CHEMBL4466088
 OpenBabel04072215383D

 59 62  0  0  0  0  0  0  0  0999 V2000
    1.2458    0.4623    0.3370 O   0  0  0  0  0  0  0  0  0  0  0  0
    2.3372   -0.0475    0.0959 C   0  0  0  0  0  0  0  0  0  0  0  0
    3.0266   -0.9660    1.1099 C   0  0  0  0  0  0  0  0  0  0  0  0
    1.8136   -1.8749    2.1389 S   0  0  0  0  0  0  0  0  0  0  0  0
    2.8188   -2.6076    3.3994 C   0  0  0  0  0  0  0  0  0  0  0  0
    4.3632   -3.1926    3.0540 S   0  0  0  0  0  0  0  0  0  0  0  0
    2.2335   -2.6803    4.6696 N   0  0  0  0  0  0  0  0  0  0  0  0
    0.7775   -2.6954    4.9546 C   0  0  0  0  0  0  0  0  0  0  0  0
    0.3738   -1.6063    5.9656 C   0  0  0  0  0  0  0  0  0  0  0  0
    1.2335   -1.6412    7.1636 N   0  0  0  0  0  0  0  0  0  0  0  0
    0.7592   -1.8755    8.4406 C   0  0  0  0  0  0  0  0  0  0  0  0
   -0.3523   -2.6887    8.6977 C   0  0  0  0  0  0  0  0  0  0  0  0
   -0.7945   -2.9387   10.0041 C   0  0  0  0  0  0  0  0  0  0  0  0
   -0.1388   -2.3664   11.0887 C   0  0  0  0  0  0  0  0  0  0  0  0
    0.9537   -1.5383   10.8652 C   0  0  0  0  0  0  0  0  0  0  0  0
    1.3895   -1.2990    9.5573 C   0  0  0  0  0  0  0  0  0  0  0  0
    2.6839   -1.6753    6.9038 C   0  0  0  0  0  0  0  0  0  0  0  0
    3.0285   -2.8061    5.9104 C   0  0  0  0  0  0  0  0  0  0  0  0
    3.1046    0.1818   -1.0551 N   0  0  0  0  0  0  0  0  0  0  0  0
    2.7435    0.9922   -2.1705 C   0  0  0  0  0  0  0  0  0  0  0  0
    1.5138    1.6471   -2.2483 C   0  0  0  0  0  0  0  0  0  0  0  0
    1.1766    2.4038   -3.3651 C   0  0  0  0  0  0  0  0  0  0  0  0
    2.0847    2.5524   -4.4044 C   0  0  0  0  0  0  0  0  0  0  0  0
    3.3526    1.9730   -4.3407 C   0  0  0  0  0  0  0  0  0  0  0  0
    4.3266    2.2057   -5.3451 N   0  0  0  0  0  0  0  0  0  0  0  0
    4.2704    3.2114   -6.3049 C   0  0  0  0  0  0  0  0  0  0  0  0
    3.3742    4.0401   -6.4480 O   0  0  0  0  0  0  0  0  0  0  0  0
    5.4564    3.3060   -7.2154 C   0  0  0  0  0  0  0  0  0  0  0  0
    5.4941    4.3208   -8.1721 C   0  0  0  0  0  0  0  0  0  0  0  0
    6.6037    4.4137   -9.0033 C   0  0  0  0  0  0  0  0  0  0  0  0
    7.6339    3.4936   -8.8542 C   0  0  0  0  0  0  0  0  0  0  0  0
    7.5114    2.5137   -7.8767 C   0  0  0  0  0  0  0  0  0  0  0  0
    6.4506    2.3915   -7.0429 N   0  0  0  0  0  0  0  0  0  0  0  0
    3.6609    1.1515   -3.2351 C   0  0  0  0  0  0  0  0  0  0  0  0
    3.6581   -0.3344    1.7435 H   0  0  0  0  0  0  0  0  0  0  0  0
    3.6444   -1.6882    0.5693 H   0  0  0  0  0  0  0  0  0  0  0  0
    0.5627   -3.6838    5.3855 H   0  0  0  0  0  0  0  0  0  0  0  0
    0.1709   -2.6216    4.0500 H   0  0  0  0  0  0  0  0  0  0  0  0
   -0.6907   -1.6964    6.2092 H   0  0  0  0  0  0  0  0  0  0  0  0
    0.4986   -0.6247    5.4928 H   0  0  0  0  0  0  0  0  0  0  0  0
   -0.8768   -3.1793    7.8830 H   0  0  0  0  0  0  0  0  0  0  0  0
   -1.6484   -3.5905   10.1699 H   0  0  0  0  0  0  0  0  0  0  0  0
   -0.4781   -2.5621   12.1025 H   0  0  0  0  0  0  0  0  0  0  0  0
    1.4694   -1.0725   11.7003 H   0  0  0  0  0  0  0  0  0  0  0  0
    2.2265   -0.6191    9.4165 H   0  0  0  0  0  0  0  0  0  0  0  0
    3.2752   -1.8310    7.8116 H   0  0  0  0  0  0  0  0  0  0  0  0
    2.9817   -0.7100    6.4783 H   0  0  0  0  0  0  0  0  0  0  0  0
    2.7970   -3.7839    6.3507 H   0  0  0  0  0  0  0  0  0  0  0  0
    4.1026   -2.7708    5.7176 H   0  0  0  0  0  0  0  0  0  0  0  0
    4.0110   -0.2665   -1.1126 H   0  0  0  0  0  0  0  0  0  0  0  0
    0.7737    1.5935   -1.4578 H   0  0  0  0  0  0  0  0  0  0  0  0
    0.2056    2.8889   -3.4199 H   0  0  0  0  0  0  0  0  0  0  0  0
    1.7601    3.1334   -5.2636 H   0  0  0  0  0  0  0  0  0  0  0  0
    5.1999    1.6873   -5.3185 H   0  0  0  0  0  0  0  0  0  0  0  0
    4.6764    5.0296   -8.2644 H   0  0  0  0  0  0  0  0  0  0  0  0
    6.6622    5.1968   -9.7547 H   0  0  0  0  0  0  0  0  0  0  0  0
    8.5125    3.5369   -9.4902 H   0  0  0  0  0  0  0  0  0  0  0  0
    8.2971    1.7754   -7.7383 H   0  0  0  0  0  0  0  0  0  0  0  0
    4.6317    0.6686   -3.1896 H   0  0  0  0  0  0  0  0  0  0  0  0
  1  2  2  0  0  0  0
  2  3  1  0  0  0  0
  2 19  1  0  0  0  0
  3  4  1  0  0  0  0
  3 35  1  0  0  0  0
  3 36  1  0  0  0  0
  4  5  1  0  0  0  0
  5  6  2  0  0  0  0
  5  7  1  0  0  0  0
  7  8  1  0  0  0  0
  7 18  1  0  0  0  0
  8  9  1  0  0  0  0
  8 37  1  0  0  0  0
  8 38  1  0  0  0  0
  9 10  1  0  0  0  0
  9 39  1  0  0  0  0
  9 40  1  0  0  0  0
 10 11  1  0  0  0  0
 10 17  1  0  0  0  0
 11 12  1  0  0  0  0
 11 16  2  0  0  0  0
 12 13  2  0  0  0  0
 12 41  1  0  0  0  0
 13 14  1  0  0  0  0
 13 42  1  0  0  0  0
 14 15  2  0  0  0  0
 14 43  1  0  0  0  0
 15 16  1  0  0  0  0
 15 44  1  0  0  0  0
 16 45  1  0  0  0  0
 17 18  1  0  0  0  0
 17 46  1  0  0  0  0
 17 47  1  0  0  0  0
 18 48  1  0  0  0  0
 18 49  1  0  0  0  0
 19 20  1  0  0  0  0
 19 50  1  0  0  0  0
 20 21  1  0  0  0  0
 20 34  2  0  0  0  0
 21 22  2  0  0  0  0
 21 51  1  0  0  0  0
 22 23  1  0  0  0  0
 22 52  1  0  0  0  0
 23 24  2  0  0  0  0
 23 53  1  0  0  0  0
 24 25  1  0  0  0  0
 24 34  1  0  0  0  0
 25 26  1  0  0  0  0
 25 54  1  0  0  0  0
 26 27  2  0  0  0  0
 26 28  1  0  0  0  0
 28 29  1  0  0  0  0
 28 33  2  0  0  0  0
 29 30  2  0  0  0  0
 29 55  1  0  0  0  0
 30 31  1  0  0  0  0
 30 56  1  0  0  0  0
 31 32  2  0  0  0  0
 31 57  1  0  0  0  0
 32 33  1  0  0  0  0
 32 58  1  0  0  0  0
 34 59  1  0  0  0  0
M  END
$$$$
