CHEMBL169473
 OpenBabel04072215363D

 40 42  0  0  0  0  0  0  0  0999 V2000
    1.5679    0.6056    0.4490 C   0  0  0  0  0  0  0  0  0  0  0  0
    2.8493    0.4775   -0.1561 O   0  0  0  0  0  0  0  0  0  0  0  0
    3.2000    1.4323   -1.0716 C   0  0  0  0  0  0  0  0  0  0  0  0
    2.4065    2.5009   -1.4849 C   0  0  0  0  0  0  0  0  0  0  0  0
    2.8961    3.3981   -2.4319 C   0  0  0  0  0  0  0  0  0  0  0  0
    4.1823    3.2412   -2.9593 C   0  0  0  0  0  0  0  0  0  0  0  0
    5.0172    2.2051   -2.5304 C   0  0  0  0  0  0  0  0  0  0  0  0
    6.3164    1.9816   -3.0513 N   0  0  0  0  0  0  0  0  0  0  0  0
    7.2320    2.9238   -3.5971 C   0  0  0  0  0  0  0  0  0  0  0  0
    6.9265    4.2346   -3.5574 N   0  0  0  0  0  0  0  0  0  0  0  0
    7.8001    5.0844   -4.1001 C   0  0  0  0  0  0  0  0  0  0  0  0
    8.9569    4.7552   -4.6791 N   0  0  0  0  0  0  0  0  0  0  0  0
    9.2465    3.4541   -4.7310 C   0  0  0  0  0  0  0  0  0  0  0  0
   10.4255    3.0979   -5.3722 C   0  0  0  0  0  0  0  0  0  0  0  0
   10.8253    1.7658   -5.5430 C   0  0  0  0  0  0  0  0  0  0  0  0
   11.9636    1.4222   -6.2232 O   0  0  0  0  0  0  0  0  0  0  0  0
   12.6737    2.4552   -6.8991 C   0  0  0  0  0  0  0  0  0  0  0  0
   10.0262    0.7539   -4.9943 C   0  0  0  0  0  0  0  0  0  0  0  0
   10.2231   -0.6013   -5.0183 O   0  0  0  0  0  0  0  0  0  0  0  0
   11.3299   -1.1223   -5.7414 C   0  0  0  0  0  0  0  0  0  0  0  0
    8.8423    1.1091   -4.3261 C   0  0  0  0  0  0  0  0  0  0  0  0
    8.4252    2.4603   -4.2008 C   0  0  0  0  0  0  0  0  0  0  0  0
    4.4859    1.2832   -1.6124 C   0  0  0  0  0  0  0  0  0  0  0  0
    1.4899   -0.1561    1.2308 H   0  0  0  0  0  0  0  0  0  0  0  0
    0.7742    0.4206   -0.2820 H   0  0  0  0  0  0  0  0  0  0  0  0
    1.4433    1.5816    0.9300 H   0  0  0  0  0  0  0  0  0  0  0  0
    1.4062    2.6578   -1.0985 H   0  0  0  0  0  0  0  0  0  0  0  0
    2.2758    4.2255   -2.7675 H   0  0  0  0  0  0  0  0  0  0  0  0
    4.5179    3.9459   -3.7147 H   0  0  0  0  0  0  0  0  0  0  0  0
    6.8237    1.3127   -2.4813 H   0  0  0  0  0  0  0  0  0  0  0  0
    7.5473    6.1369   -4.0740 H   0  0  0  0  0  0  0  0  0  0  0  0
   11.0275    3.9176   -5.7553 H   0  0  0  0  0  0  0  0  0  0  0  0
   13.4759    1.9903   -7.4789 H   0  0  0  0  0  0  0  0  0  0  0  0
   13.1348    3.1398   -6.1798 H   0  0  0  0  0  0  0  0  0  0  0  0
   12.0290    2.9940   -7.6031 H   0  0  0  0  0  0  0  0  0  0  0  0
   11.2782   -2.2145   -5.6865 H   0  0  0  0  0  0  0  0  0  0  0  0
   12.2778   -0.8216   -5.2843 H   0  0  0  0  0  0  0  0  0  0  0  0
   11.2784   -0.8528   -6.8012 H   0  0  0  0  0  0  0  0  0  0  0  0
    8.2282    0.3093   -3.9167 H   0  0  0  0  0  0  0  0  0  0  0  0
    5.0799    0.4309   -1.2906 H   0  0  0  0  0  0  0  0  0  0  0  0
  1  2  1  0  0  0  0
  1 24  1  0  0  0  0
  1 25  1  0  0  0  0
  1 26  1  0  0  0  0
  2  3  1  0  0  0  0
  3  4  1  0  0  0  0
  3 23  2  0  0  0  0
  4  5  2  0  0  0  0
  4 27  1  0  0  0  0
  5  6  1  0  0  0  0
  5 28  1  0  0  0  0
  6  7  2  0  0  0  0
  6 29  1  0  0  0  0
  7  8  1  0  0  0  0
  7 23  1  0  0  0  0
  8  9  1  0  0  0  0
  8 30  1  0  0  0  0
  9 10  1  0  0  0  0
  9 22  2  0  0  0  0
 10 11  2  0  0  0  0
 11 12  1  0  0  0  0
 11 31  1  0  0  0  0
 12 13  2  0  0  0  0
 13 14  1  0  0  0  0
 13 22  1  0  0  0  0
 14 15  2  0  0  0  0
 14 32  1  0  0  0  0
 15 16  1  0  0  0  0
 15 18  1  0  0  0  0
 16 17  1  0  0  0  0
 17 33  1  0  0  0  0
 17 34  1  0  0  0  0
 17 35  1  0  0  0  0
 18 19  1  0  0  0  0
 18 21  2  0  0  0  0
 19 20  1  0  0  0  0
 20 36  1  0  0  0  0
 20 37  1  0  0  0  0
 20 38  1  0  0  0  0
 21 22  1  0  0  0  0
 21 39  1  0  0  0  0
 23 40  1  0  0  0  0
M  END
$$$$
