CHEMBL412102
 OpenBabel04072215383D

 50 53  0  0  0  0  0  0  0  0999 V2000
    4.1372    1.6026    3.1303 N   0  0  0  0  0  0  0  0  0  0  0  0
    4.6969    1.3771    1.8612 C   0  0  0  0  0  0  0  0  0  0  0  0
    5.5167    0.3200    1.7606 N   0  0  0  0  0  0  0  0  0  0  0  0
    5.9999    0.0808    0.5351 C   0  0  0  0  0  0  0  0  0  0  0  0
    5.7390    0.7811   -0.5772 N   0  0  0  0  0  0  0  0  0  0  0  0
    4.9009    1.8273   -0.4446 C   0  0  0  0  0  0  0  0  0  0  0  0
    4.3300    2.1880    0.7829 C   0  0  0  0  0  0  0  0  0  0  0  0
    3.5002    3.3224    1.0132 N   0  0  0  0  0  0  0  0  0  0  0  0
    2.5411    3.5777    0.1778 C   0  0  0  0  0  0  0  0  0  0  0  0
    1.6808    4.7770    0.3990 C   0  0  0  0  0  0  0  0  0  0  0  0
    1.1431    5.4539   -0.6910 C   0  0  0  0  0  0  0  0  0  0  0  0
    0.3115    6.5552   -0.4951 C   0  0  0  0  0  0  0  0  0  0  0  0
   -0.0051    7.0094    0.7865 C   0  0  0  0  0  0  0  0  0  0  0  0
   -0.8613    8.1167    1.0137 N   0  0  0  0  0  0  0  0  0  0  0  0
   -1.5988    8.7735    0.0397 C   0  0  0  0  0  0  0  0  0  0  0  0
   -1.6929    8.4314   -1.1328 O   0  0  0  0  0  0  0  0  0  0  0  0
   -2.2022    9.9247    0.5291 N   0  0  0  0  0  0  0  0  0  0  0  0
   -2.9730   10.7431   -0.3318 C   0  0  0  0  0  0  0  0  0  0  0  0
   -2.7463   12.1137   -0.3341 C   0  0  0  0  0  0  0  0  0  0  0  0
   -3.4269   12.9265   -1.2440 C   0  0  0  0  0  0  0  0  0  0  0  0
   -4.3839   12.3882   -2.1171 C   0  0  0  0  0  0  0  0  0  0  0  0
   -5.1552   13.5009   -3.1862 Cl  0  0  0  0  0  0  0  0  0  0  0  0
   -4.6670   11.0200   -2.0952 C   0  0  0  0  0  0  0  0  0  0  0  0
   -5.6981   10.3413   -2.9602 C   0  0  0  0  0  0  0  0  0  0  0  0
   -6.4485   11.1499   -3.7542 F   0  0  0  0  0  0  0  0  0  0  0  0
   -5.1455    9.4200   -3.7996 F   0  0  0  0  0  0  0  0  0  0  0  0
   -6.6036    9.6479   -2.2079 F   0  0  0  0  0  0  0  0  0  0  0  0
   -3.9338   10.2053   -1.2001 C   0  0  0  0  0  0  0  0  0  0  0  0
    0.5680    6.3537    1.8842 C   0  0  0  0  0  0  0  0  0  0  0  0
    1.4113    5.2430    1.6917 C   0  0  0  0  0  0  0  0  0  0  0  0
    2.2449    2.6913   -1.0210 C   0  0  0  0  0  0  0  0  0  0  0  0
    3.3383    2.8439   -2.0658 C   0  0  0  0  0  0  0  0  0  0  0  0
    4.6943    2.5284   -1.6299 N   0  0  0  0  0  0  0  0  0  0  0  0
    4.6387    1.0421    3.8097 H   0  0  0  0  0  0  0  0  0  0  0  0
    4.1257    2.6008    3.3177 H   0  0  0  0  0  0  0  0  0  0  0  0
    6.6717   -0.7644    0.4316 H   0  0  0  0  0  0  0  0  0  0  0  0
    1.3587    5.1607   -1.7128 H   0  0  0  0  0  0  0  0  0  0  0  0
   -0.0684    7.0356   -1.3906 H   0  0  0  0  0  0  0  0  0  0  0  0
   -1.0551    8.3596    1.9741 H   0  0  0  0  0  0  0  0  0  0  0  0
   -1.6653   10.4027    1.2384 H   0  0  0  0  0  0  0  0  0  0  0  0
   -1.9888   12.5603    0.3054 H   0  0  0  0  0  0  0  0  0  0  0  0
   -3.1952   13.9898   -1.2804 H   0  0  0  0  0  0  0  0  0  0  0  0
   -4.1271    9.1322   -1.1880 H   0  0  0  0  0  0  0  0  0  0  0  0
    0.3705    6.6845    2.9007 H   0  0  0  0  0  0  0  0  0  0  0  0
    1.8415    4.7388    2.5535 H   0  0  0  0  0  0  0  0  0  0  0  0
    1.2740    2.9371   -1.4630 H   0  0  0  0  0  0  0  0  0  0  0  0
    2.1523    1.6515   -0.6845 H   0  0  0  0  0  0  0  0  0  0  0  0
    3.3506    3.8716   -2.4468 H   0  0  0  0  0  0  0  0  0  0  0  0
    3.0920    2.2028   -2.9207 H   0  0  0  0  0  0  0  0  0  0  0  0
    5.2318    2.0360   -2.3415 H   0  0  0  0  0  0  0  0  0  0  0  0
  1  2  1  0  0  0  0
  1 34  1  0  0  0  0
  1 35  1  0  0  0  0
  2  3  1  0  0  0  0
  2  7  2  0  0  0  0
  3  4  2  0  0  0  0
  4  5  1  0  0  0  0
  4 36  1  0  0  0  0
  5  6  2  0  0  0  0
  6  7  1  0  0  0  0
  6 33  1  0  0  0  0
  7  8  1  0  0  0  0
  8  9  2  0  0  0  0
  9 10  1  0  0  0  0
  9 31  1  0  0  0  0
 10 11  1  0  0  0  0
 10 30  2  0  0  0  0
 11 12  2  0  0  0  0
 11 37  1  0  0  0  0
 12 13  1  0  0  0  0
 12 38  1  0  0  0  0
 13 14  1  0  0  0  0
 13 29  2  0  0  0  0
 14 15  1  0  0  0  0
 14 39  1  0  0  0  0
 15 16  2  0  0  0  0
 15 17  1  0  0  0  0
 17 18  1  0  0  0  0
 17 40  1  0  0  0  0
 18 19  1  0  0  0  0
 18 28  2  0  0  0  0
 19 20  2  0  0  0  0
 19 41  1  0  0  0  0
 20 21  1  0  0  0  0
 20 42  1  0  0  0  0
 21 22  1  0  0  0  0
 21 23  2  0  0  0  0
 23 24  1  0  0  0  0
 23 28  1  0  0  0  0
 24 25  1  0  0  0  0
 24 26  1  0  0  0  0
 24 27  1  0  0  0  0
 28 43  1  0  0  0  0
 29 30  1  0  0  0  0
 29 44  1  0  0  0  0
 30 45  1  0  0  0  0
 31 32  1  0  0  0  0
 31 46  1  0  0  0  0
 31 47  1  0  0  0  0
 32 33  1  0  0  0  0
 32 48  1  0  0  0  0
 32 49  1  0  0  0  0
 33 50  1  0  0  0  0
M  END
$$$$
