CHEMBL1650551
 OpenBabel04072215363D

 49 52  0  0  0  0  0  0  0  0999 V2000
    0.2899   -2.3484   -0.9988 Cl  0  0  0  0  0  0  0  0  0  0  0  0
    2.4373    3.5185   -1.9276 H   0  0  0  0  0  0  0  0  0  0  0  0
    1.7917    2.8992   -2.5876 C   0  0  0  0  0  0  0  0  0  0  0  0
    1.8236    3.3311   -3.6125 H   0  0  0  0  0  0  0  0  0  0  0  0
    2.3693    1.5041   -2.5893 C   0  0  0  0  0  0  0  0  0  0  0  0
    2.8779    0.8858   -3.7592 C   0  0  0  0  0  0  0  0  0  0  0  0
    3.3368   -0.4040   -3.5302 C   0  0  0  0  0  0  0  0  0  0  0  0
    3.8786   -1.2877   -4.5130 N   0  0  0  0  0  0  0  0  0  0  0  0
    3.9469   -2.7075   -4.3550 C   0  0  0  0  0  0  0  0  0  0  0  0
    3.4044   -3.3217   -3.2591 N   0  0  0  0  0  0  0  0  0  0  0  0
    3.4068   -4.6791   -3.1087 C   0  0  0  0  0  0  0  0  0  0  0  0
    2.8187   -5.3129   -1.8913 C   0  0  0  0  0  0  0  0  0  0  0  0
    3.9717   -5.4820   -4.1056 C   0  0  0  0  0  0  0  0  0  0  0  0
    4.5098   -4.8705   -5.1918 N   0  0  0  0  0  0  0  0  0  0  0  0
    5.1409   -5.3715   -6.2744 C   0  0  0  0  0  0  0  0  0  0  0  0
    5.3880   -6.7989   -6.5829 C   0  0  0  0  0  0  0  0  0  0  0  0
    4.6882   -7.9201   -6.1619 C   0  0  0  0  0  0  0  0  0  0  0  0
    5.2659   -9.0200   -6.6753 N   0  0  0  0  0  0  0  0  0  0  0  0
    6.3007   -8.6340   -7.4049 N   0  0  0  0  0  0  0  0  0  0  0  0
    6.3984   -7.2957   -7.3834 C   0  0  0  0  0  0  0  0  0  0  0  0
    5.5428   -4.2932   -7.0433 C   0  0  0  0  0  0  0  0  0  0  0  0
    5.1381   -3.1363   -6.4676 N   0  0  0  0  0  0  0  0  0  0  0  0
    4.5208   -3.5338   -5.3338 C   0  0  0  0  0  0  0  0  0  0  0  0
    3.1214   -0.6862   -1.9009 S   0  0  0  0  0  0  0  0  0  0  0  0
    2.4412    0.7636   -1.4506 N   0  0  0  0  0  0  0  0  0  0  0  0
    0.4151    2.9301   -2.0572 N   0  0  0  0  0  0  0  0  0  0  0  0
   -0.5934    2.1673   -2.8249 C   0  0  0  0  0  0  0  0  0  0  0  0
   -1.7936    3.1040   -3.0229 C   0  0  0  0  0  0  0  0  0  0  0  0
   -1.6216    4.0940   -1.8922 C   0  0  0  0  0  0  0  0  0  0  0  0
   -2.3320    5.2639   -2.0885 F   0  0  0  0  0  0  0  0  0  0  0  0
   -1.9758    3.5168   -0.6825 F   0  0  0  0  0  0  0  0  0  0  0  0
   -0.1190    4.2942   -1.9506 C   0  0  0  0  0  0  0  0  0  0  0  0
    1.5017   -2.4624   -0.3539 H   0  0  0  0  0  0  0  0  0  0  0  0
    2.8884    1.3570   -4.7324 H   0  0  0  0  0  0  0  0  0  0  0  0
    4.1381   -0.8864   -5.4256 H   0  0  0  0  0  0  0  0  0  0  0  0
    2.4313   -4.5433   -1.1954 H   0  0  0  0  0  0  0  0  0  0  0  0
    3.5996   -5.9065   -1.3680 H   0  0  0  0  0  0  0  0  0  0  0  0
    1.9875   -5.9870   -2.1860 H   0  0  0  0  0  0  0  0  0  0  0  0
    3.9911   -6.5498   -3.9775 H   0  0  0  0  0  0  0  0  0  0  0  0
    3.7987   -7.9542   -5.5499 H   0  0  0  0  0  0  0  0  0  0  0  0
    6.9366   -9.2897   -7.9121 H   0  0  0  0  0  0  0  0  0  0  0  0
    7.1630   -6.7250   -7.8959 H   0  0  0  0  0  0  0  0  0  0  0  0
    6.0819   -4.3414   -7.9875 H   0  0  0  0  0  0  0  0  0  0  0  0
   -0.8994    1.3106   -2.1892 H   0  0  0  0  0  0  0  0  0  0  0  0
   -0.2357    1.7826   -3.8058 H   0  0  0  0  0  0  0  0  0  0  0  0
   -2.7828    2.5981   -3.0738 H   0  0  0  0  0  0  0  0  0  0  0  0
   -1.6404    3.6659   -3.9707 H   0  0  0  0  0  0  0  0  0  0  0  0
    0.2755    4.8379   -1.0651 H   0  0  0  0  0  0  0  0  0  0  0  0
    0.1294    4.8752   -2.8708 H   0  0  0  0  0  0  0  0  0  0  0  0
  1 33  1  0  0  0  0
  2  3  1  0  0  0  0
  3  4  1  0  0  0  0
  3  5  1  0  0  0  0
  3 26  1  0  0  0  0
  5  6  1  0  0  0  0
  5 25  2  0  0  0  0
  6  7  2  0  0  0  0
  6 34  1  0  0  0  0
  7  8  1  0  0  0  0
  7 24  1  0  0  0  0
  8  9  1  0  0  0  0
  8 35  1  0  0  0  0
  9 10  2  0  0  0  0
  9 23  1  0  0  0  0
 10 11  1  0  0  0  0
 11 12  1  0  0  0  0
 11 13  2  0  0  0  0
 12 36  1  0  0  0  0
 12 37  1  0  0  0  0
 12 38  1  0  0  0  0
 13 14  1  0  0  0  0
 13 39  1  0  0  0  0
 14 15  1  0  0  0  0
 14 23  1  0  0  0  0
 15 16  1  0  0  0  0
 15 21  2  0  0  0  0
 16 17  1  0  0  0  0
 16 20  2  0  0  0  0
 17 18  2  0  0  0  0
 17 40  1  0  0  0  0
 18 19  1  0  0  0  0
 19 20  1  0  0  0  0
 19 41  1  0  0  0  0
 20 42  1  0  0  0  0
 21 22  1  0  0  0  0
 21 43  1  0  0  0  0
 22 23  2  0  0  0  0
 24 25  1  0  0  0  0
 26 27  1  0  0  0  0
 26 32  1  0  0  0  0
 27 28  1  0  0  0  0
 27 44  1  0  0  0  0
 27 45  1  0  0  0  0
 28 29  1  0  0  0  0
 28 46  1  0  0  0  0
 28 47  1  0  0  0  0
 29 30  1  0  0  0  0
 29 31  1  0  0  0  0
 29 32  1  0  0  0  0
 32 48  1  0  0  0  0
 32 49  1  0  0  0  0
M  ISO  2   2   2   4   2
M  END
$$$$
