CHEMBL3939419
 OpenBabel04072215373D

 66 70  0  0  0  0  0  0  0  0999 V2000
    0.9835    0.2485   -0.0310 O   0  0  0  0  0  0  0  0  0  0  0  0
    2.1727   -0.0432    0.0272 C   0  0  0  0  0  0  0  0  0  0  0  0
    2.7499   -1.0255   -0.7544 N   0  0  0  0  0  0  0  0  0  0  0  0
    2.0278   -1.8437   -1.6566 C   0  0  0  0  0  0  0  0  0  0  0  0
    0.7500   -1.5458   -2.1382 C   0  0  0  0  0  0  0  0  0  0  0  0
    0.0710   -2.4553   -2.9470 C   0  0  0  0  0  0  0  0  0  0  0  0
    0.7137   -3.6310   -3.2801 C   0  0  0  0  0  0  0  0  0  0  0  0
    0.0354   -4.5155   -4.1099 O   0  0  0  0  0  0  0  0  0  0  0  0
    0.8014   -5.2625   -4.9790 C   0  0  0  0  0  0  0  0  0  0  0  0
    1.9394   -4.7601   -5.6007 C   0  0  0  0  0  0  0  0  0  0  0  0
    2.6441   -5.5984   -6.4301 C   0  0  0  0  0  0  0  0  0  0  0  0
    2.2579   -6.8555   -6.7030 N   0  0  0  0  0  0  0  0  0  0  0  0
    1.1328   -7.3255   -6.1413 C   0  0  0  0  0  0  0  0  0  0  0  0
    0.7138   -8.6347   -6.4433 N   0  0  0  0  0  0  0  0  0  0  0  0
    1.3770   -9.4726   -7.3180 C   0  0  0  0  0  0  0  0  0  0  0  0
    2.3929   -9.2326   -7.9571 O   0  0  0  0  0  0  0  0  0  0  0  0
    0.7783  -10.8253   -7.5247 C   0  0  0  0  0  0  0  0  0  0  0  0
   -0.5980  -10.9438   -8.1367 C   0  0  0  0  0  0  0  0  0  0  0  0
   -0.3495  -11.4425   -6.7414 C   0  0  0  0  0  0  0  0  0  0  0  0
    0.3671   -6.5606   -5.2704 C   0  0  0  0  0  0  0  0  0  0  0  0
    1.9572   -3.9503   -2.8490 N   0  0  0  0  0  0  0  0  0  0  0  0
    2.5890   -3.0446   -2.0712 C   0  0  0  0  0  0  0  0  0  0  0  0
    3.0768    0.5294    0.9038 N   0  0  0  0  0  0  0  0  0  0  0  0
    2.7607    1.4602    1.9225 C   0  0  0  0  0  0  0  0  0  0  0  0
    1.4595    1.9156    2.1697 C   0  0  0  0  0  0  0  0  0  0  0  0
    1.1372    2.8241    3.1862 C   0  0  0  0  0  0  0  0  0  0  0  0
   -0.1726    3.2104    3.4055 N   0  0  0  0  0  0  0  0  0  0  0  0
   -1.2856    2.2698    3.1889 C   0  0  0  0  0  0  0  0  0  0  0  0
   -2.1404    2.7254    2.0277 C   0  0  0  0  0  0  0  0  0  0  0  0
   -2.7808    4.3401    2.3881 S   0  0  0  0  0  0  0  0  0  0  0  0
   -3.3364    4.8835    1.1617 O   0  0  0  0  0  0  0  0  0  0  0  0
   -3.6012    4.2562    3.5831 O   0  0  0  0  0  0  0  0  0  0  0  0
   -1.3211    5.2683    2.7770 C   0  0  0  0  0  0  0  0  0  0  0  0
   -0.5286    4.5585    3.8560 C   0  0  0  0  0  0  0  0  0  0  0  0
    2.1971    3.2836    3.9691 C   0  0  0  0  0  0  0  0  0  0  0  0
    3.5145    2.8275    3.7764 C   0  0  0  0  0  0  0  0  0  0  0  0
    4.6160    3.2581    4.7090 C   0  0  0  0  0  0  0  0  0  0  0  0
    4.2076    4.1231    5.6780 F   0  0  0  0  0  0  0  0  0  0  0  0
    5.1749    2.2019    5.3627 F   0  0  0  0  0  0  0  0  0  0  0  0
    5.6380    3.8778    4.0583 F   0  0  0  0  0  0  0  0  0  0  0  0
    3.7894    1.9227    2.7381 C   0  0  0  0  0  0  0  0  0  0  0  0
    3.6683   -1.3456   -0.4859 H   0  0  0  0  0  0  0  0  0  0  0  0
    0.2498   -0.6106   -1.9071 H   0  0  0  0  0  0  0  0  0  0  0  0
   -0.9268   -2.2326   -3.3082 H   0  0  0  0  0  0  0  0  0  0  0  0
    2.2991   -3.7545   -5.4247 H   0  0  0  0  0  0  0  0  0  0  0  0
    3.5639   -5.2806   -6.9088 H   0  0  0  0  0  0  0  0  0  0  0  0
   -0.1339   -8.9598   -6.0110 H   0  0  0  0  0  0  0  0  0  0  0  0
    1.5217  -11.5307   -7.8947 H   0  0  0  0  0  0  0  0  0  0  0  0
   -0.7225  -11.6686   -8.9340 H   0  0  0  0  0  0  0  0  0  0  0  0
   -1.1833  -10.0413   -8.2695 H   0  0  0  0  0  0  0  0  0  0  0  0
   -0.3103  -12.5175   -6.5911 H   0  0  0  0  0  0  0  0  0  0  0  0
   -0.8035  -10.9164   -5.9147 H   0  0  0  0  0  0  0  0  0  0  0  0
   -0.5331   -6.9474   -4.8064 H   0  0  0  0  0  0  0  0  0  0  0  0
    3.5876   -3.3445   -1.7684 H   0  0  0  0  0  0  0  0  0  0  0  0
    4.0496    0.2859    0.7956 H   0  0  0  0  0  0  0  0  0  0  0  0
    0.6440    1.5798    1.5444 H   0  0  0  0  0  0  0  0  0  0  0  0
   -1.8820    2.2168    4.1078 H   0  0  0  0  0  0  0  0  0  0  0  0
   -0.9399    1.2439    3.0146 H   0  0  0  0  0  0  0  0  0  0  0  0
   -2.9915    2.0568    1.8687 H   0  0  0  0  0  0  0  0  0  0  0  0
   -1.5674    2.7978    1.0976 H   0  0  0  0  0  0  0  0  0  0  0  0
   -1.6375    6.2621    3.1051 H   0  0  0  0  0  0  0  0  0  0  0  0
   -0.7428    5.3673    1.8524 H   0  0  0  0  0  0  0  0  0  0  0  0
   -1.1050    4.4865    4.7855 H   0  0  0  0  0  0  0  0  0  0  0  0
    0.3508    5.1717    4.0768 H   0  0  0  0  0  0  0  0  0  0  0  0
    2.0011    3.9664    4.7933 H   0  0  0  0  0  0  0  0  0  0  0  0
    4.8100    1.5723    2.5974 H   0  0  0  0  0  0  0  0  0  0  0  0
  1  2  2  0  0  0  0
  2  3  1  0  0  0  0
  2 23  1  0  0  0  0
  3  4  1  0  0  0  0
  3 42  1  0  0  0  0
  4  5  1  0  0  0  0
  4 22  2  0  0  0  0
  5  6  2  0  0  0  0
  5 43  1  0  0  0  0
  6  7  1  0  0  0  0
  6 44  1  0  0  0  0
  7  8  1  0  0  0  0
  7 21  2  0  0  0  0
  8  9  1  0  0  0  0
  9 10  1  0  0  0  0
  9 20  2  0  0  0  0
 10 11  2  0  0  0  0
 10 45  1  0  0  0  0
 11 12  1  0  0  0  0
 11 46  1  0  0  0  0
 12 13  2  0  0  0  0
 13 14  1  0  0  0  0
 13 20  1  0  0  0  0
 14 15  1  0  0  0  0
 14 47  1  0  0  0  0
 15 16  2  0  0  0  0
 15 17  1  0  0  0  0
 17 18  1  0  0  0  0
 17 19  1  0  0  0  0
 17 48  1  0  0  0  0
 18 19  1  0  0  0  0
 18 49  1  0  0  0  0
 18 50  1  0  0  0  0
 19 51  1  0  0  0  0
 19 52  1  0  0  0  0
 20 53  1  0  0  0  0
 21 22  1  0  0  0  0
 22 54  1  0  0  0  0
 23 24  1  0  0  0  0
 23 55  1  0  0  0  0
 24 25  1  0  0  0  0
 24 41  2  0  0  0  0
 25 26  2  0  0  0  0
 25 56  1  0  0  0  0
 26 27  1  0  0  0  0
 26 35  1  0  0  0  0
 27 28  1  0  0  0  0
 27 34  1  0  0  0  0
 28 29  1  0  0  0  0
 28 57  1  0  0  0  0
 28 58  1  0  0  0  0
 29 30  1  0  0  0  0
 29 59  1  0  0  0  0
 29 60  1  0  0  0  0
 30 31  2  0  0  0  0
 30 32  2  0  0  0  0
 30 33  1  0  0  0  0
 33 34  1  0  0  0  0
 33 61  1  0  0  0  0
 33 62  1  0  0  0  0
 34 63  1  0  0  0  0
 34 64  1  0  0  0  0
 35 36  2  0  0  0  0
 35 65  1  0  0  0  0
 36 37  1  0  0  0  0
 36 41  1  0  0  0  0
 37 38  1  0  0  0  0
 37 39  1  0  0  0  0
 37 40  1  0  0  0  0
 41 66  1  0  0  0  0
M  END
$$$$
