CHEMBL3690387
 OpenBabel04072215373D

 63 67  0  0  0  0  0  0  0  0999 V2000
    2.6022   -0.0399   -1.3764 O   0  0  0  0  0  0  0  0  0  0  0  0
    2.5246   -0.7832   -0.4078 C   0  0  0  0  0  0  0  0  0  0  0  0
    1.4994   -1.6989   -0.2943 N   0  0  0  0  0  0  0  0  0  0  0  0
    0.4115   -1.6550   -1.2781 C   0  0  0  0  0  0  0  0  0  0  0  0
   -0.6797   -0.6147   -0.9893 C   0  0  0  0  0  0  0  0  0  0  0  0
   -0.4669    0.0275    0.1835 F   0  0  0  0  0  0  0  0  0  0  0  0
   -0.7825    0.3111   -1.9636 F   0  0  0  0  0  0  0  0  0  0  0  0
   -1.8847   -1.2286   -0.8823 F   0  0  0  0  0  0  0  0  0  0  0  0
    3.3878   -0.8577    0.6634 N   0  0  0  0  0  0  0  0  0  0  0  0
    4.5601   -0.0970    0.8631 C   0  0  0  0  0  0  0  0  0  0  0  0
    5.0154    0.8510   -0.0534 C   0  0  0  0  0  0  0  0  0  0  0  0
    6.2260    1.5045    0.1486 C   0  0  0  0  0  0  0  0  0  0  0  0
    6.9740    1.2400    1.2896 C   0  0  0  0  0  0  0  0  0  0  0  0
    6.4853    0.3935    2.2926 C   0  0  0  0  0  0  0  0  0  0  0  0
    7.1871    0.2692    3.5792 C   0  0  0  0  0  0  0  0  0  0  0  0
    7.3487   -0.8240    4.4161 C   0  0  0  0  0  0  0  0  0  0  0  0
    8.1001   -0.5272    5.5215 N   0  0  0  0  0  0  0  0  0  0  0  0
    8.4011    0.7502    5.4005 C   0  0  0  0  0  0  0  0  0  0  0  0
    9.1783    1.6113    6.2412 C   0  0  0  0  0  0  0  0  0  0  0  0
    9.3760    2.9122    5.9191 C   0  0  0  0  0  0  0  0  0  0  0  0
   10.2070    3.6919    6.7976 C   0  0  0  0  0  0  0  0  0  0  0  0
   10.3890    3.5050    8.0939 N   0  0  0  0  0  0  0  0  0  0  0  0
   11.2462    4.4203    8.6659 N   0  0  0  0  0  0  0  0  0  0  0  0
   11.7180    5.2764    7.7876 C   0  0  0  0  0  0  0  0  0  0  0  0
   12.6669    6.3844    8.1125 C   0  0  0  0  0  0  0  0  0  0  0  0
   14.1260    5.9119    8.0094 C   0  0  0  0  0  0  0  0  0  0  0  0
   15.1259    6.9659    8.2899 N   0  0  0  0  0  0  0  0  0  0  0  0
   15.0461    7.4497    9.6794 C   0  0  0  0  0  0  0  0  0  0  0  0
   16.0733    8.5509    9.9502 C   0  0  0  0  0  0  0  0  0  0  0  0
   17.4872    8.0803    9.6417 C   0  0  0  0  0  0  0  0  0  0  0  0
   17.5558    7.5097    8.2317 C   0  0  0  0  0  0  0  0  0  0  0  0
   16.4792    6.4464    8.0082 C   0  0  0  0  0  0  0  0  0  0  0  0
   11.1414    5.0306    6.1951 S   0  0  0  0  0  0  0  0  0  0  0  0
    8.7190    3.4504    4.7189 C   0  0  0  0  0  0  0  0  0  0  0  0
    7.9660    2.6545    3.9466 C   0  0  0  0  0  0  0  0  0  0  0  0
    7.8351    1.3010    4.2549 N   0  0  0  0  0  0  0  0  0  0  0  0
    5.2955   -0.3127    2.0422 C   0  0  0  0  0  0  0  0  0  0  0  0
    1.2313   -1.9386    0.6493 H   0  0  0  0  0  0  0  0  0  0  0  0
   -0.0276   -2.6572   -1.2912 H   0  0  0  0  0  0  0  0  0  0  0  0
    0.8343   -1.4736   -2.2734 H   0  0  0  0  0  0  0  0  0  0  0  0
    3.2015   -1.5829    1.3390 H   0  0  0  0  0  0  0  0  0  0  0  0
    4.4647    1.0920   -0.9563 H   0  0  0  0  0  0  0  0  0  0  0  0
    6.5825    2.2214   -0.5862 H   0  0  0  0  0  0  0  0  0  0  0  0
    7.9401    1.7284    1.3866 H   0  0  0  0  0  0  0  0  0  0  0  0
    6.9753   -1.8303    4.2660 H   0  0  0  0  0  0  0  0  0  0  0  0
    9.6112    1.1647    7.1315 H   0  0  0  0  0  0  0  0  0  0  0  0
   12.4394    6.7167    9.1311 H   0  0  0  0  0  0  0  0  0  0  0  0
   12.4996    7.2449    7.4532 H   0  0  0  0  0  0  0  0  0  0  0  0
   14.2855    5.5580    6.9808 H   0  0  0  0  0  0  0  0  0  0  0  0
   14.2878    5.0452    8.6637 H   0  0  0  0  0  0  0  0  0  0  0  0
   15.1919    6.6240   10.3880 H   0  0  0  0  0  0  0  0  0  0  0  0
   14.0615    7.8825    9.8786 H   0  0  0  0  0  0  0  0  0  0  0  0
   16.0093    8.8666   10.9976 H   0  0  0  0  0  0  0  0  0  0  0  0
   15.8387    9.4308    9.3372 H   0  0  0  0  0  0  0  0  0  0  0  0
   17.7845    7.3117   10.3655 H   0  0  0  0  0  0  0  0  0  0  0  0
   18.1927    8.9117    9.7472 H   0  0  0  0  0  0  0  0  0  0  0  0
   18.5471    7.0751    8.0591 H   0  0  0  0  0  0  0  0  0  0  0  0
   17.4300    8.3195    7.5022 H   0  0  0  0  0  0  0  0  0  0  0  0
   16.6954    5.5717    8.6360 H   0  0  0  0  0  0  0  0  0  0  0  0
   16.5414    6.1199    6.9631 H   0  0  0  0  0  0  0  0  0  0  0  0
    8.8225    4.5027    4.4750 H   0  0  0  0  0  0  0  0  0  0  0  0
    7.4465    3.0431    3.0827 H   0  0  0  0  0  0  0  0  0  0  0  0
    4.9274   -1.0158    2.7852 H   0  0  0  0  0  0  0  0  0  0  0  0
  1  2  2  0  0  0  0
  2  3  1  0  0  0  0
  2  9  1  0  0  0  0
  3  4  1  0  0  0  0
  3 38  1  0  0  0  0
  4  5  1  0  0  0  0
  4 39  1  0  0  0  0
  4 40  1  0  0  0  0
  5  6  1  0  0  0  0
  5  7  1  0  0  0  0
  5  8  1  0  0  0  0
  9 10  1  0  0  0  0
  9 41  1  0  0  0  0
 10 11  1  0  0  0  0
 10 37  2  0  0  0  0
 11 12  2  0  0  0  0
 11 42  1  0  0  0  0
 12 13  1  0  0  0  0
 12 43  1  0  0  0  0
 13 14  2  0  0  0  0
 13 44  1  0  0  0  0
 14 15  1  0  0  0  0
 14 37  1  0  0  0  0
 15 16  2  0  0  0  0
 15 36  1  0  0  0  0
 16 17  1  0  0  0  0
 16 45  1  0  0  0  0
 17 18  2  0  0  0  0
 18 19  1  0  0  0  0
 18 36  1  0  0  0  0
 19 20  2  0  0  0  0
 19 46  1  0  0  0  0
 20 21  1  0  0  0  0
 20 34  1  0  0  0  0
 21 22  2  0  0  0  0
 21 33  1  0  0  0  0
 22 23  1  0  0  0  0
 23 24  2  0  0  0  0
 24 25  1  0  0  0  0
 24 33  1  0  0  0  0
 25 26  1  0  0  0  0
 25 47  1  0  0  0  0
 25 48  1  0  0  0  0
 26 27  1  0  0  0  0
 26 49  1  0  0  0  0
 26 50  1  0  0  0  0
 27 28  1  0  0  0  0
 27 32  1  0  0  0  0
 28 29  1  0  0  0  0
 28 51  1  0  0  0  0
 28 52  1  0  0  0  0
 29 30  1  0  0  0  0
 29 53  1  0  0  0  0
 29 54  1  0  0  0  0
 30 31  1  0  0  0  0
 30 55  1  0  0  0  0
 30 56  1  0  0  0  0
 31 32  1  0  0  0  0
 31 57  1  0  0  0  0
 31 58  1  0  0  0  0
 32 59  1  0  0  0  0
 32 60  1  0  0  0  0
 34 35  2  0  0  0  0
 34 61  1  0  0  0  0
 35 36  1  0  0  0  0
 35 62  1  0  0  0  0
 37 63  1  0  0  0  0
M  END
$$$$
