CHEMBL504950
 OpenBabel04072215383D

 26 28  0  0  0  0  0  0  0  0999 V2000
    1.0054    0.0499   -0.0374 C   0  0  0  0  0  0  0  0  0  0  0  0
    2.5069    0.0847   -0.0377 C   0  0  0  0  0  0  0  0  0  0  0  0
    3.1806    1.3006   -0.0393 C   0  0  0  0  0  0  0  0  0  0  0  0
    4.5846    1.3295   -0.0409 C   0  0  0  0  0  0  0  0  0  0  0  0
    5.3016    2.6508   -0.0420 C   0  0  0  0  0  0  0  0  0  0  0  0
    5.2588    0.0791   -0.0395 C   0  0  0  0  0  0  0  0  0  0  0  0
    4.4677   -1.0624   -0.0371 C   0  0  0  0  0  0  0  0  0  0  0  0
    3.1204   -1.1132   -0.0361 N   0  0  0  0  0  0  0  0  0  0  0  0
    5.3644   -2.5038   -0.0344 S   0  0  0  0  0  0  0  0  0  0  0  0
    6.8560   -1.6591   -0.0359 C   0  0  0  0  0  0  0  0  0  0  0  0
    8.1583   -2.1616   -0.0322 C   0  0  0  0  0  0  0  0  0  0  0  0
    8.4570   -3.5031   -0.0172 N   0  0  0  0  0  0  0  0  0  0  0  0
    9.1818   -1.2923   -0.0378 N   0  0  0  0  0  0  0  0  0  0  0  0
    8.9022    0.0184   -0.0423 C   0  0  0  0  0  0  0  0  0  0  0  0
    7.6967    0.5953   -0.0434 N   0  0  0  0  0  0  0  0  0  0  0  0
    6.6569   -0.2817   -0.0405 C   0  0  0  0  0  0  0  0  0  0  0  0
    0.5732    1.0554   -0.0383 H   0  0  0  0  0  0  0  0  0  0  0  0
    0.6470   -0.4745    0.8534 H   0  0  0  0  0  0  0  0  0  0  0  0
    0.6475   -0.4760   -0.9276 H   0  0  0  0  0  0  0  0  0  0  0  0
    2.6186    2.2309   -0.0400 H   0  0  0  0  0  0  0  0  0  0  0  0
    4.5995    3.4910   -0.0419 H   0  0  0  0  0  0  0  0  0  0  0  0
    5.9274    2.7386   -0.9357 H   0  0  0  0  0  0  0  0  0  0  0  0
    5.9291    2.7399    0.8503 H   0  0  0  0  0  0  0  0  0  0  0  0
    7.7290   -4.1996   -0.0511 H   0  0  0  0  0  0  0  0  0  0  0  0
    9.4316   -3.7619   -0.0512 H   0  0  0  0  0  0  0  0  0  0  0  0
    9.7564    0.6884   -0.0444 H   0  0  0  0  0  0  0  0  0  0  0  0
  1  2  1  0  0  0  0
  1 17  1  0  0  0  0
  1 18  1  0  0  0  0
  1 19  1  0  0  0  0
  2  3  1  0  0  0  0
  2  8  2  0  0  0  0
  3  4  2  0  0  0  0
  3 20  1  0  0  0  0
  4  5  1  0  0  0  0
  4  6  1  0  0  0  0
  5 21  1  0  0  0  0
  5 22  1  0  0  0  0
  5 23  1  0  0  0  0
  6  7  2  0  0  0  0
  6 16  1  0  0  0  0
  7  8  1  0  0  0  0
  7  9  1  0  0  0  0
  9 10  1  0  0  0  0
 10 11  1  0  0  0  0
 10 16  2  0  0  0  0
 11 12  1  0  0  0  0
 11 13  2  0  0  0  0
 12 24  1  0  0  0  0
 12 25  1  0  0  0  0
 13 14  1  0  0  0  0
 14 15  2  0  0  0  0
 14 26  1  0  0  0  0
 15 16  1  0  0  0  0
M  END
$$$$
