CHEMBL3775336
 OpenBabel04072215373D

 37 39  0  0  0  0  0  0  0  0999 V2000
    3.4471   -1.0745   -0.4240 C   0  0  0  0  0  0  0  0  0  0  0  0
    2.5711   -0.1495    0.2217 O   0  0  0  0  0  0  0  0  0  0  0  0
    3.1201    1.0639    0.5423 C   0  0  0  0  0  0  0  0  0  0  0  0
    4.1307    1.6367   -0.2505 C   0  0  0  0  0  0  0  0  0  0  0  0
    4.7788    2.8136    0.0966 C   0  0  0  0  0  0  0  0  0  0  0  0
    5.7837    3.2469   -0.6682 N   0  0  0  0  0  0  0  0  0  0  0  0
    6.4018    4.3634   -0.2693 C   0  0  0  0  0  0  0  0  0  0  0  0
    6.1055    5.0795    0.8170 N   0  0  0  0  0  0  0  0  0  0  0  0
    5.0945    4.6313    1.5835 C   0  0  0  0  0  0  0  0  0  0  0  0
    4.7829    5.3296    2.7822 N   0  0  0  0  0  0  0  0  0  0  0  0
    5.2866    6.6142    3.0998 C   0  0  0  0  0  0  0  0  0  0  0  0
    5.2241    7.6600    2.1634 C   0  0  0  0  0  0  0  0  0  0  0  0
    5.7598    8.9101    2.4613 C   0  0  0  0  0  0  0  0  0  0  0  0
    6.3526    9.1226    3.6986 C   0  0  0  0  0  0  0  0  0  0  0  0
    6.8939   10.3167    3.9782 F   0  0  0  0  0  0  0  0  0  0  0  0
    6.4020    8.1111    4.6521 C   0  0  0  0  0  0  0  0  0  0  0  0
    6.9941    8.3352    5.8656 O   0  0  0  0  0  0  0  0  0  0  0  0
    5.8605    6.8656    4.3554 C   0  0  0  0  0  0  0  0  0  0  0  0
    5.8986    5.8777    5.2638 F   0  0  0  0  0  0  0  0  0  0  0  0
    4.3699    3.4809    1.2549 C   0  0  0  0  0  0  0  0  0  0  0  0
    3.2768    2.9739    1.9932 C   0  0  0  0  0  0  0  0  0  0  0  0
    2.6566    1.7656    1.6601 C   0  0  0  0  0  0  0  0  0  0  0  0
    1.6676    1.4537    2.5466 O   0  0  0  0  0  0  0  0  0  0  0  0
    1.0294    0.1910    2.4840 C   0  0  0  0  0  0  0  0  0  0  0  0
    3.2044   -2.0796   -0.0666 H   0  0  0  0  0  0  0  0  0  0  0  0
    4.5074   -0.9066   -0.1989 H   0  0  0  0  0  0  0  0  0  0  0  0
    3.2797   -1.0414   -1.5049 H   0  0  0  0  0  0  0  0  0  0  0  0
    4.4503    1.1569   -1.1726 H   0  0  0  0  0  0  0  0  0  0  0  0
    7.2295    4.7125   -0.8749 H   0  0  0  0  0  0  0  0  0  0  0  0
    4.8912    4.6984    3.5765 H   0  0  0  0  0  0  0  0  0  0  0  0
    4.7644    7.4873    1.1937 H   0  0  0  0  0  0  0  0  0  0  0  0
    5.7267    9.7102    1.7274 H   0  0  0  0  0  0  0  0  0  0  0  0
    7.3474    9.2443    5.8486 H   0  0  0  0  0  0  0  0  0  0  0  0
    2.9048    3.5221    2.8578 H   0  0  0  0  0  0  0  0  0  0  0  0
    0.4964    0.0568    3.4317 H   0  0  0  0  0  0  0  0  0  0  0  0
    1.7402   -0.6356    2.4072 H   0  0  0  0  0  0  0  0  0  0  0  0
    0.2871    0.1738    1.6808 H   0  0  0  0  0  0  0  0  0  0  0  0
  1  2  1  0  0  0  0
  1 25  1  0  0  0  0
  1 26  1  0  0  0  0
  1 27  1  0  0  0  0
  2  3  1  0  0  0  0
  3  4  1  0  0  0  0
  3 22  2  0  0  0  0
  4  5  2  0  0  0  0
  4 28  1  0  0  0  0
  5  6  1  0  0  0  0
  5 20  1  0  0  0  0
  6  7  2  0  0  0  0
  7  8  1  0  0  0  0
  7 29  1  0  0  0  0
  8  9  2  0  0  0  0
  9 10  1  0  0  0  0
  9 20  1  0  0  0  0
 10 11  1  0  0  0  0
 10 30  1  0  0  0  0
 11 12  1  0  0  0  0
 11 18  2  0  0  0  0
 12 13  2  0  0  0  0
 12 31  1  0  0  0  0
 13 14  1  0  0  0  0
 13 32  1  0  0  0  0
 14 15  1  0  0  0  0
 14 16  2  0  0  0  0
 16 17  1  0  0  0  0
 16 18  1  0  0  0  0
 17 33  1  0  0  0  0
 18 19  1  0  0  0  0
 20 21  2  0  0  0  0
 21 22  1  0  0  0  0
 21 34  1  0  0  0  0
 22 23  1  0  0  0  0
 23 24  1  0  0  0  0
 24 35  1  0  0  0  0
 24 36  1  0  0  0  0
 24 37  1  0  0  0  0
M  END
$$$$
