CHEMBL3586049
 OpenBabel04072215363D

 40 42  0  0  0  0  0  0  0  0999 V2000
    1.0956   -0.3818    0.0547 O   0  0  0  0  0  0  0  0  0  0  0  0
    2.2358    0.0525   -0.0428 C   0  0  0  0  0  0  0  0  0  0  0  0
    2.8746    0.8038    0.9326 N   0  0  0  0  0  0  0  0  0  0  0  0
    2.3155    1.2092    2.1649 C   0  0  0  0  0  0  0  0  0  0  0  0
    1.1524    0.6672    2.7080 C   0  0  0  0  0  0  0  0  0  0  0  0
    0.6159    1.1695    3.9009 C   0  0  0  0  0  0  0  0  0  0  0  0
    1.2180    2.2352    4.5876 C   0  0  0  0  0  0  0  0  0  0  0  0
    0.6122    2.8123    5.8067 C   0  0  0  0  0  0  0  0  0  0  0  0
    1.3824    3.3643    6.8406 C   0  0  0  0  0  0  0  0  0  0  0  0
    0.7745    3.9311    7.9605 C   0  0  0  0  0  0  0  0  0  0  0  0
   -0.6057    3.9230    8.0331 C   0  0  0  0  0  0  0  0  0  0  0  0
   -1.3969    3.3993    7.0782 N   0  0  0  0  0  0  0  0  0  0  0  0
   -0.7731    2.8656    5.9975 C   0  0  0  0  0  0  0  0  0  0  0  0
    2.4125    2.7429    4.0471 C   0  0  0  0  0  0  0  0  0  0  0  0
    2.9614    2.2301    2.8636 C   0  0  0  0  0  0  0  0  0  0  0  0
    3.0462   -0.1034   -1.1603 N   0  0  0  0  0  0  0  0  0  0  0  0
    2.6772   -0.6966   -2.3914 C   0  0  0  0  0  0  0  0  0  0  0  0
    1.4026   -1.2015   -2.6637 C   0  0  0  0  0  0  0  0  0  0  0  0
    1.1144   -1.7625   -3.9089 C   0  0  0  0  0  0  0  0  0  0  0  0
   -0.6176   -2.4420   -4.2500 Br  0  0  0  0  0  0  0  0  0  0  0  0
    2.0832   -1.8178   -4.9044 C   0  0  0  0  0  0  0  0  0  0  0  0
    3.3623   -1.3019   -4.6618 C   0  0  0  0  0  0  0  0  0  0  0  0
    4.4158   -1.3094   -5.7401 C   0  0  0  0  0  0  0  0  0  0  0  0
    3.9974   -1.8636   -6.9107 F   0  0  0  0  0  0  0  0  0  0  0  0
    4.8406   -0.0535   -6.0511 F   0  0  0  0  0  0  0  0  0  0  0  0
    5.5300   -1.9999   -5.3734 F   0  0  0  0  0  0  0  0  0  0  0  0
    3.6512   -0.7525   -3.3973 C   0  0  0  0  0  0  0  0  0  0  0  0
    3.7296    1.2646    0.6642 H   0  0  0  0  0  0  0  0  0  0  0  0
    0.6255   -0.1537    2.2305 H   0  0  0  0  0  0  0  0  0  0  0  0
   -0.2936    0.7038    4.2767 H   0  0  0  0  0  0  0  0  0  0  0  0
    2.4681    3.3558    6.7909 H   0  0  0  0  0  0  0  0  0  0  0  0
    1.3678    4.3682    8.7557 H   0  0  0  0  0  0  0  0  0  0  0  0
   -1.1259    4.3505    8.8851 H   0  0  0  0  0  0  0  0  0  0  0  0
   -1.4626    2.4798    5.2506 H   0  0  0  0  0  0  0  0  0  0  0  0
    2.9240    3.5762    4.5240 H   0  0  0  0  0  0  0  0  0  0  0  0
    3.8778    2.6741    2.4844 H   0  0  0  0  0  0  0  0  0  0  0  0
    4.0016    0.2002   -1.0732 H   0  0  0  0  0  0  0  0  0  0  0  0
    0.6078   -1.1697   -1.9265 H   0  0  0  0  0  0  0  0  0  0  0  0
    1.8415   -2.2537   -5.8723 H   0  0  0  0  0  0  0  0  0  0  0  0
    4.6494   -0.3555   -3.2170 H   0  0  0  0  0  0  0  0  0  0  0  0
  1  2  2  0  0  0  0
  2  3  1  0  0  0  0
  2 16  1  0  0  0  0
  3  4  1  0  0  0  0
  3 28  1  0  0  0  0
  4  5  1  0  0  0  0
  4 15  2  0  0  0  0
  5  6  2  0  0  0  0
  5 29  1  0  0  0  0
  6  7  1  0  0  0  0
  6 30  1  0  0  0  0
  7  8  1  0  0  0  0
  7 14  2  0  0  0  0
  8  9  1  0  0  0  0
  8 13  2  0  0  0  0
  9 10  2  0  0  0  0
  9 31  1  0  0  0  0
 10 11  1  0  0  0  0
 10 32  1  0  0  0  0
 11 12  2  0  0  0  0
 11 33  1  0  0  0  0
 12 13  1  0  0  0  0
 13 34  1  0  0  0  0
 14 15  1  0  0  0  0
 14 35  1  0  0  0  0
 15 36  1  0  0  0  0
 16 17  1  0  0  0  0
 16 37  1  0  0  0  0
 17 18  1  0  0  0  0
 17 27  2  0  0  0  0
 18 19  2  0  0  0  0
 18 38  1  0  0  0  0
 19 20  1  0  0  0  0
 19 21  1  0  0  0  0
 21 22  2  0  0  0  0
 21 39  1  0  0  0  0
 22 23  1  0  0  0  0
 22 27  1  0  0  0  0
 23 24  1  0  0  0  0
 23 25  1  0  0  0  0
 23 26  1  0  0  0  0
 27 40  1  0  0  0  0
M  END
$$$$
