CHEMBL3961315
 OpenBabel04072215373D

 54 58  0  0  0  0  0  0  0  0999 V2000
    2.7443    1.8632    0.4365 O   0  0  0  0  0  0  0  0  0  0  0  0
    3.7398    1.3282   -0.0574 C   0  0  0  0  0  0  0  0  0  0  0  0
    3.9422    1.0358   -1.3964 N   0  0  0  0  0  0  0  0  0  0  0  0
    3.0189    1.3164   -2.4312 C   0  0  0  0  0  0  0  0  0  0  0  0
    1.9448    2.1933   -2.2584 C   0  0  0  0  0  0  0  0  0  0  0  0
    0.9631    2.3286   -3.2362 C   0  0  0  0  0  0  0  0  0  0  0  0
    1.0657    1.6157   -4.4218 C   0  0  0  0  0  0  0  0  0  0  0  0
    2.2220    0.8771   -4.6820 C   0  0  0  0  0  0  0  0  0  0  0  0
    2.4720    0.2492   -5.8808 O   0  0  0  0  0  0  0  0  0  0  0  0
    2.0364    0.8001   -7.0710 C   0  0  0  0  0  0  0  0  0  0  0  0
    1.7139    2.1502   -7.2803 C   0  0  0  0  0  0  0  0  0  0  0  0
    1.1409    2.5949   -8.4895 C   0  0  0  0  0  0  0  0  0  0  0  0
    1.1145    1.6950   -9.5665 C   0  0  0  0  0  0  0  0  0  0  0  0
    0.6918    1.6258  -10.9377 C   0  0  0  0  0  0  0  0  0  0  0  0
   -0.6097    1.1917  -11.4450 C   0  0  0  0  0  0  0  0  0  0  0  0
   -1.4922    0.4879  -10.7071 C   0  0  0  0  0  0  0  0  0  0  0  0
   -2.1249   -0.7551  -11.2146 C   0  0  0  0  0  0  0  0  0  0  0  0
   -1.3843   -1.6758  -11.9831 C   0  0  0  0  0  0  0  0  0  0  0  0
   -1.8793   -2.9553  -12.2586 C   0  0  0  0  0  0  0  0  0  0  0  0
   -3.1237   -3.3356  -11.7675 C   0  0  0  0  0  0  0  0  0  0  0  0
   -3.8725   -2.4361  -11.0115 C   0  0  0  0  0  0  0  0  0  0  0  0
   -3.3743   -1.1553  -10.7315 C   0  0  0  0  0  0  0  0  0  0  0  0
    1.7084    1.0167  -11.5875 N   0  0  0  0  0  0  0  0  0  0  0  0
    2.0812    0.1033  -10.6637 N   0  0  0  0  0  0  0  0  0  0  0  0
    1.7589    0.4735   -9.3927 C   0  0  0  0  0  0  0  0  0  0  0  0
    2.0598   -0.0817   -8.1523 C   0  0  0  0  0  0  0  0  0  0  0  0
    3.1771    0.6905   -3.6726 C   0  0  0  0  0  0  0  0  0  0  0  0
    4.8013    0.8909    0.8770 C   0  0  0  0  0  0  0  0  0  0  0  0
    4.4099    0.4456    2.1444 C   0  0  0  0  0  0  0  0  0  0  0  0
    5.3694    0.0808    3.0844 C   0  0  0  0  0  0  0  0  0  0  0  0
    6.7223    0.1716    2.7604 C   0  0  0  0  0  0  0  0  0  0  0  0
    7.1175    0.6266    1.5003 C   0  0  0  0  0  0  0  0  0  0  0  0
    6.1596    0.9897    0.5519 C   0  0  0  0  0  0  0  0  0  0  0  0
    4.7173    0.4256   -1.6253 H   0  0  0  0  0  0  0  0  0  0  0  0
    1.8350    2.7864   -1.3567 H   0  0  0  0  0  0  0  0  0  0  0  0
    0.1213    2.9925   -3.0653 H   0  0  0  0  0  0  0  0  0  0  0  0
    0.2541    1.6882   -5.1456 H   0  0  0  0  0  0  0  0  0  0  0  0
    1.8987    2.8869   -6.5021 H   0  0  0  0  0  0  0  0  0  0  0  0
    0.8492    3.6346   -8.6063 H   0  0  0  0  0  0  0  0  0  0  0  0
   -0.6026    1.0318  -12.5249 H   0  0  0  0  0  0  0  0  0  0  0  0
   -1.5120    0.5749   -9.6239 H   0  0  0  0  0  0  0  0  0  0  0  0
   -0.3840   -1.4293  -12.3347 H   0  0  0  0  0  0  0  0  0  0  0  0
   -1.2790   -3.6610  -12.8279 H   0  0  0  0  0  0  0  0  0  0  0  0
   -3.4986   -4.3404  -11.9544 H   0  0  0  0  0  0  0  0  0  0  0  0
   -4.8348   -2.7425  -10.6089 H   0  0  0  0  0  0  0  0  0  0  0  0
   -3.9574   -0.4899  -10.1015 H   0  0  0  0  0  0  0  0  0  0  0  0
    2.6651   -0.6707  -10.9650 H   0  0  0  0  0  0  0  0  0  0  0  0
    2.4057   -1.1035   -8.0477 H   0  0  0  0  0  0  0  0  0  0  0  0
    4.0253    0.0384   -3.8640 H   0  0  0  0  0  0  0  0  0  0  0  0
    3.3531    0.3963    2.4037 H   0  0  0  0  0  0  0  0  0  0  0  0
    5.0608   -0.2556    4.0712 H   0  0  0  0  0  0  0  0  0  0  0  0
    7.4716   -0.0970    3.5007 H   0  0  0  0  0  0  0  0  0  0  0  0
    8.1758    0.7181    1.2678 H   0  0  0  0  0  0  0  0  0  0  0  0
    6.4816    1.3841   -0.4076 H   0  0  0  0  0  0  0  0  0  0  0  0
  1  2  2  0  0  0  0
  2  3  1  0  0  0  0
  2 28  1  0  0  0  0
  3  4  1  0  0  0  0
  3 34  1  0  0  0  0
  4  5  1  0  0  0  0
  4 27  2  0  0  0  0
  5  6  2  0  0  0  0
  5 35  1  0  0  0  0
  6  7  1  0  0  0  0
  6 36  1  0  0  0  0
  7  8  2  0  0  0  0
  7 37  1  0  0  0  0
  8  9  1  0  0  0  0
  8 27  1  0  0  0  0
  9 10  1  0  0  0  0
 10 11  1  0  0  0  0
 10 26  2  0  0  0  0
 11 12  2  0  0  0  0
 11 38  1  0  0  0  0
 12 13  1  0  0  0  0
 12 39  1  0  0  0  0
 13 14  1  0  0  0  0
 13 25  2  0  0  0  0
 14 15  1  0  0  0  0
 14 23  2  0  0  0  0
 15 16  2  0  0  0  0
 15 40  1  0  0  0  0
 16 17  1  0  0  0  0
 16 41  1  0  0  0  0
 17 18  1  0  0  0  0
 17 22  2  0  0  0  0
 18 19  2  0  0  0  0
 18 42  1  0  0  0  0
 19 20  1  0  0  0  0
 19 43  1  0  0  0  0
 20 21  2  0  0  0  0
 20 44  1  0  0  0  0
 21 22  1  0  0  0  0
 21 45  1  0  0  0  0
 22 46  1  0  0  0  0
 23 24  1  0  0  0  0
 24 25  1  0  0  0  0
 24 47  1  0  0  0  0
 25 26  1  0  0  0  0
 26 48  1  0  0  0  0
 27 49  1  0  0  0  0
 28 29  1  0  0  0  0
 28 33  2  0  0  0  0
 29 30  2  0  0  0  0
 29 50  1  0  0  0  0
 30 31  1  0  0  0  0
 30 51  1  0  0  0  0
 31 32  2  0  0  0  0
 31 52  1  0  0  0  0
 32 33  1  0  0  0  0
 32 53  1  0  0  0  0
 33 54  1  0  0  0  0
M  END
$$$$
