CHEMBL54283
 OpenBabel04072215383D

 71 75  0  0  0  0  0  0  0  0999 V2000
    1.5485    0.4102    0.1814 C   0  0  0  0  0  0  0  0  0  0  0  0
    2.9743   -0.0540   -0.0600 C   0  0  0  0  0  0  0  0  0  0  0  0
    3.0920   -1.8335   -0.0533 S   0  0  0  0  0  0  0  0  0  0  0  0
    2.6781   -2.3206    1.2510 O   0  0  0  0  0  0  0  0  0  0  0  0
    2.4711   -2.3303   -1.2655 O   0  0  0  0  0  0  0  0  0  0  0  0
    4.8453   -2.1601   -0.1922 C   0  0  0  0  0  0  0  0  0  0  0  0
    5.3877   -2.2806   -1.4867 C   0  0  0  0  0  0  0  0  0  0  0  0
    6.7347   -2.5890   -1.6493 C   0  0  0  0  0  0  0  0  0  0  0  0
    7.4898   -2.7700   -0.5092 C   0  0  0  0  0  0  0  0  0  0  0  0
    6.9721   -2.6716    0.7958 C   0  0  0  0  0  0  0  0  0  0  0  0
    5.6259   -2.3725    0.9674 C   0  0  0  0  0  0  0  0  0  0  0  0
    8.1158   -2.9503    1.6991 C   0  0  0  0  0  0  0  0  0  0  0  0
    8.1099   -3.0507    3.0404 C   0  0  0  0  0  0  0  0  0  0  0  0
    9.2585   -3.4221    3.7976 C   0  0  0  0  0  0  0  0  0  0  0  0
   10.1179   -2.4443    4.2419 N   0  0  0  0  0  0  0  0  0  0  0  0
   11.1651   -3.0110    4.9115 C   0  0  0  0  0  0  0  0  0  0  0  0
   11.0005   -4.3825    4.9045 C   0  0  0  0  0  0  0  0  0  0  0  0
    9.7695   -4.6500    4.2111 C   0  0  0  0  0  0  0  0  0  0  0  0
    9.1439   -5.9797    3.9122 C   0  0  0  0  0  0  0  0  0  0  0  0
    8.8479   -6.8196    5.1484 C   0  0  0  0  0  0  0  0  0  0  0  0
    7.8775   -6.1546    6.1329 C   0  0  0  0  0  0  0  0  0  0  0  0
    7.6122   -7.0175    7.2983 N   0  0  0  0  0  0  0  0  0  0  0  0
    8.8348   -7.3298    8.0667 C   0  0  0  0  0  0  0  0  0  0  0  0
    8.5406   -8.1752    9.3255 C   0  0  0  0  0  0  0  0  0  0  0  0
    7.5395   -7.5940   10.2392 N   0  0  0  0  0  0  0  0  0  0  0  0
    8.0856   -6.4447   10.9567 C   0  0  0  0  0  0  0  0  0  0  0  0
    6.3412   -7.2294    9.4545 C   0  0  0  0  0  0  0  0  0  0  0  0
    6.6167   -6.3859    8.1867 C   0  0  0  0  0  0  0  0  0  0  0  0
   12.0466   -5.2974    5.4770 C   0  0  0  0  0  0  0  0  0  0  0  0
   13.0884   -4.5381    6.3266 C   0  0  0  0  0  0  0  0  0  0  0  0
   13.5137   -3.2116    5.6789 C   0  0  0  0  0  0  0  0  0  0  0  0
   12.3122   -2.2643    5.5016 C   0  0  0  0  0  0  0  0  0  0  0  0
    9.3294   -3.1550    0.8133 C   0  0  0  0  0  0  0  0  0  0  0  0
   10.4935   -3.3280    1.1149 O   0  0  0  0  0  0  0  0  0  0  0  0
    8.8458   -3.0606   -0.4804 N   0  0  0  0  0  0  0  0  0  0  0  0
    1.4979    1.5035    0.1923 H   0  0  0  0  0  0  0  0  0  0  0  0
    1.1719    0.0445    1.1422 H   0  0  0  0  0  0  0  0  0  0  0  0
    0.8737    0.0458   -0.6002 H   0  0  0  0  0  0  0  0  0  0  0  0
    3.6315    0.3250    0.7266 H   0  0  0  0  0  0  0  0  0  0  0  0
    3.3283    0.3036   -1.0319 H   0  0  0  0  0  0  0  0  0  0  0  0
    4.7600   -2.1525   -2.3700 H   0  0  0  0  0  0  0  0  0  0  0  0
    7.1682   -2.6916   -2.6386 H   0  0  0  0  0  0  0  0  0  0  0  0
    5.1834   -2.3164    1.9574 H   0  0  0  0  0  0  0  0  0  0  0  0
    7.1811   -2.9379    3.5931 H   0  0  0  0  0  0  0  0  0  0  0  0
   10.0153   -1.4561    4.0572 H   0  0  0  0  0  0  0  0  0  0  0  0
    9.8168   -6.5423    3.2544 H   0  0  0  0  0  0  0  0  0  0  0  0
    8.2115   -5.8421    3.3515 H   0  0  0  0  0  0  0  0  0  0  0  0
    9.7964   -7.0359    5.6391 H   0  0  0  0  0  0  0  0  0  0  0  0
    8.4349   -7.7850    4.8328 H   0  0  0  0  0  0  0  0  0  0  0  0
    6.9315   -5.9714    5.6062 H   0  0  0  0  0  0  0  0  0  0  0  0
    8.2565   -5.1784    6.4590 H   0  0  0  0  0  0  0  0  0  0  0  0
    9.3609   -6.4080    8.3469 H   0  0  0  0  0  0  0  0  0  0  0  0
    9.5251   -7.9254    7.4612 H   0  0  0  0  0  0  0  0  0  0  0  0
    9.4776   -8.3694    9.8622 H   0  0  0  0  0  0  0  0  0  0  0  0
    8.1791   -9.1615    9.0039 H   0  0  0  0  0  0  0  0  0  0  0  0
    8.9643   -6.7439   11.5392 H   0  0  0  0  0  0  0  0  0  0  0  0
    7.3511   -6.0625   11.6733 H   0  0  0  0  0  0  0  0  0  0  0  0
    8.3821   -5.6196   10.3014 H   0  0  0  0  0  0  0  0  0  0  0  0
    5.6195   -6.7059   10.0936 H   0  0  0  0  0  0  0  0  0  0  0  0
    5.8437   -8.1596    9.1482 H   0  0  0  0  0  0  0  0  0  0  0  0
    6.9459   -5.3809    8.4818 H   0  0  0  0  0  0  0  0  0  0  0  0
    5.6704   -6.2672    7.6450 H   0  0  0  0  0  0  0  0  0  0  0  0
   12.5639   -5.7960    4.6479 H   0  0  0  0  0  0  0  0  0  0  0  0
   11.6038   -6.0743    6.1048 H   0  0  0  0  0  0  0  0  0  0  0  0
   13.9683   -5.1756    6.4846 H   0  0  0  0  0  0  0  0  0  0  0  0
   12.6714   -4.3299    7.3210 H   0  0  0  0  0  0  0  0  0  0  0  0
   13.9678   -3.4222    4.7023 H   0  0  0  0  0  0  0  0  0  0  0  0
   14.2828   -2.7246    6.2898 H   0  0  0  0  0  0  0  0  0  0  0  0
   12.6007   -1.4169    4.8715 H   0  0  0  0  0  0  0  0  0  0  0  0
   12.0189   -1.8690    6.4822 H   0  0  0  0  0  0  0  0  0  0  0  0
    9.4473   -3.1658   -1.2833 H   0  0  0  0  0  0  0  0  0  0  0  0
  1  2  1  0  0  0  0
  1 36  1  0  0  0  0
  1 37  1  0  0  0  0
  1 38  1  0  0  0  0
  2  3  1  0  0  0  0
  2 39  1  0  0  0  0
  2 40  1  0  0  0  0
  3  4  2  0  0  0  0
  3  5  2  0  0  0  0
  3  6  1  0  0  0  0
  6  7  1  0  0  0  0
  6 11  2  0  0  0  0
  7  8  2  0  0  0  0
  7 41  1  0  0  0  0
  8  9  1  0  0  0  0
  8 42  1  0  0  0  0
  9 10  2  0  0  0  0
  9 35  1  0  0  0  0
 10 11  1  0  0  0  0
 10 12  1  0  0  0  0
 11 43  1  0  0  0  0
 12 13  2  0  0  0  0
 12 33  1  0  0  0  0
 13 14  1  0  0  0  0
 13 44  1  0  0  0  0
 14 15  1  0  0  0  0
 14 18  2  0  0  0  0
 15 16  1  0  0  0  0
 15 45  1  0  0  0  0
 16 17  2  0  0  0  0
 16 32  1  0  0  0  0
 17 18  1  0  0  0  0
 17 29  1  0  0  0  0
 18 19  1  0  0  0  0
 19 20  1  0  0  0  0
 19 46  1  0  0  0  0
 19 47  1  0  0  0  0
 20 21  1  0  0  0  0
 20 48  1  0  0  0  0
 20 49  1  0  0  0  0
 21 22  1  0  0  0  0
 21 50  1  0  0  0  0
 21 51  1  0  0  0  0
 22 23  1  0  0  0  0
 22 28  1  0  0  0  0
 23 24  1  0  0  0  0
 23 52  1  0  0  0  0
 23 53  1  0  0  0  0
 24 25  1  0  0  0  0
 24 54  1  0  0  0  0
 24 55  1  0  0  0  0
 25 26  1  0  0  0  0
 25 27  1  0  0  0  0
 26 56  1  0  0  0  0
 26 57  1  0  0  0  0
 26 58  1  0  0  0  0
 27 28  1  0  0  0  0
 27 59  1  0  0  0  0
 27 60  1  0  0  0  0
 28 61  1  0  0  0  0
 28 62  1  0  0  0  0
 29 30  1  0  0  0  0
 29 63  1  0  0  0  0
 29 64  1  0  0  0  0
 30 31  1  0  0  0  0
 30 65  1  0  0  0  0
 30 66  1  0  0  0  0
 31 32  1  0  0  0  0
 31 67  1  0  0  0  0
 31 68  1  0  0  0  0
 32 69  1  0  0  0  0
 32 70  1  0  0  0  0
 33 34  2  0  0  0  0
 33 35  1  0  0  0  0
 35 71  1  0  0  0  0
M  END
$$$$
