CHEMBL3975007
 OpenBabel04072215373D

 52 56  0  0  0  0  0  0  0  0999 V2000
    2.7098   -3.5145   -2.5352 O   0  0  0  0  0  0  0  0  0  0  0  0
    3.3270   -2.5089   -1.7350 C   0  0  0  0  0  0  0  0  0  0  0  0
    4.3349   -3.1492   -0.7944 C   0  0  0  0  0  0  0  0  0  0  0  0
    5.0141   -2.1616    0.0161 N   0  0  0  0  0  0  0  0  0  0  0  0
    6.1783   -1.5239   -0.2921 C   0  0  0  0  0  0  0  0  0  0  0  0
    6.4410   -0.6562    0.7453 C   0  0  0  0  0  0  0  0  0  0  0  0
    7.6031    0.2110    0.7934 C   0  0  0  0  0  0  0  0  0  0  0  0
    7.8612    1.0519    1.8682 C   0  0  0  0  0  0  0  0  0  0  0  0
    8.9629    1.8404    1.9268 N   0  0  0  0  0  0  0  0  0  0  0  0
    9.8134    1.7557    0.8837 C   0  0  0  0  0  0  0  0  0  0  0  0
   10.9870    2.4875    0.8919 C   0  0  0  0  0  0  0  0  0  0  0  0
   11.9150    2.3765   -0.1509 C   0  0  0  0  0  0  0  0  0  0  0  0
   11.6835    1.5680   -1.2751 C   0  0  0  0  0  0  0  0  0  0  0  0
   12.6397    1.4713   -2.3338 N   0  0  0  0  0  0  0  0  0  0  0  0
   12.6734    0.1756   -3.0681 C   0  0  0  0  0  0  0  0  0  0  0  0
   11.9609    0.2734   -4.3960 C   0  0  0  0  0  0  0  0  0  0  0  0
   11.9499   -0.8732   -5.3879 C   0  0  0  0  0  0  0  0  0  0  0  0
   12.7544    0.3601   -5.6783 C   0  0  0  0  0  0  0  0  0  0  0  0
   13.6407    2.4382   -2.6499 C   0  0  0  0  0  0  0  0  0  0  0  0
   14.9065    2.1023   -3.1618 C   0  0  0  0  0  0  0  0  0  0  0  0
   15.9003    3.0670   -3.3821 C   0  0  0  0  0  0  0  0  0  0  0  0
   15.6619    4.4024   -3.0859 C   0  0  0  0  0  0  0  0  0  0  0  0
   14.4154    4.7772   -2.6052 C   0  0  0  0  0  0  0  0  0  0  0  0
   13.4168    3.8117   -2.4201 C   0  0  0  0  0  0  0  0  0  0  0  0
   10.4709    0.8593   -1.2742 C   0  0  0  0  0  0  0  0  0  0  0  0
    9.5547    0.9153   -0.2196 C   0  0  0  0  0  0  0  0  0  0  0  0
    8.4459    0.1530   -0.2634 N   0  0  0  0  0  0  0  0  0  0  0  0
    5.3694   -0.8679    1.6427 C   0  0  0  0  0  0  0  0  0  0  0  0
    4.4919   -1.7715    1.1938 N   0  0  0  0  0  0  0  0  0  0  0  0
    2.0311   -3.0719   -3.0749 H   0  0  0  0  0  0  0  0  0  0  0  0
    2.5484   -1.9793   -1.1762 H   0  0  0  0  0  0  0  0  0  0  0  0
    3.8159   -1.7932   -2.4055 H   0  0  0  0  0  0  0  0  0  0  0  0
    5.0922   -3.7057   -1.3595 H   0  0  0  0  0  0  0  0  0  0  0  0
    3.8493   -3.8700   -0.1271 H   0  0  0  0  0  0  0  0  0  0  0  0
    6.7185   -1.7296   -1.2071 H   0  0  0  0  0  0  0  0  0  0  0  0
    7.2035    1.1231    2.7265 H   0  0  0  0  0  0  0  0  0  0  0  0
   11.1990    3.1400    1.7342 H   0  0  0  0  0  0  0  0  0  0  0  0
   12.8458    2.9324   -0.0460 H   0  0  0  0  0  0  0  0  0  0  0  0
   12.2223   -0.6295   -2.4733 H   0  0  0  0  0  0  0  0  0  0  0  0
   13.6932   -0.1894   -3.2161 H   0  0  0  0  0  0  0  0  0  0  0  0
   11.0340    0.8305   -4.3210 H   0  0  0  0  0  0  0  0  0  0  0  0
   11.0590   -1.0299   -5.9897 H   0  0  0  0  0  0  0  0  0  0  0  0
   12.4877   -1.7870   -5.1625 H   0  0  0  0  0  0  0  0  0  0  0  0
   12.3980    1.0477   -6.4367 H   0  0  0  0  0  0  0  0  0  0  0  0
   13.8332    0.2602   -5.6483 H   0  0  0  0  0  0  0  0  0  0  0  0
   15.1869    1.0773   -3.3716 H   0  0  0  0  0  0  0  0  0  0  0  0
   16.8694    2.7619   -3.7687 H   0  0  0  0  0  0  0  0  0  0  0  0
   16.4418    5.1445   -3.2314 H   0  0  0  0  0  0  0  0  0  0  0  0
   14.2138    5.8184   -2.3675 H   0  0  0  0  0  0  0  0  0  0  0  0
   12.4448    4.1579   -2.0750 H   0  0  0  0  0  0  0  0  0  0  0  0
   10.1966    0.2257   -2.1118 H   0  0  0  0  0  0  0  0  0  0  0  0
    5.1818   -0.4064    2.6033 H   0  0  0  0  0  0  0  0  0  0  0  0
  1  2  1  0  0  0  0
  1 30  1  0  0  0  0
  2  3  1  0  0  0  0
  2 31  1  0  0  0  0
  2 32  1  0  0  0  0
  3  4  1  0  0  0  0
  3 33  1  0  0  0  0
  3 34  1  0  0  0  0
  4  5  1  0  0  0  0
  4 29  1  0  0  0  0
  5  6  2  0  0  0  0
  5 35  1  0  0  0  0
  6  7  1  0  0  0  0
  6 28  1  0  0  0  0
  7  8  1  0  0  0  0
  7 27  2  0  0  0  0
  8  9  2  0  0  0  0
  8 36  1  0  0  0  0
  9 10  1  0  0  0  0
 10 11  1  0  0  0  0
 10 26  2  0  0  0  0
 11 12  2  0  0  0  0
 11 37  1  0  0  0  0
 12 13  1  0  0  0  0
 12 38  1  0  0  0  0
 13 14  1  0  0  0  0
 13 25  2  0  0  0  0
 14 15  1  0  0  0  0
 14 19  1  0  0  0  0
 15 16  1  0  0  0  0
 15 39  1  0  0  0  0
 15 40  1  0  0  0  0
 16 17  1  0  0  0  0
 16 18  1  0  0  0  0
 16 41  1  0  0  0  0
 17 18  1  0  0  0  0
 17 42  1  0  0  0  0
 17 43  1  0  0  0  0
 18 44  1  0  0  0  0
 18 45  1  0  0  0  0
 19 20  1  0  0  0  0
 19 24  2  0  0  0  0
 20 21  2  0  0  0  0
 20 46  1  0  0  0  0
 21 22  1  0  0  0  0
 21 47  1  0  0  0  0
 22 23  2  0  0  0  0
 22 48  1  0  0  0  0
 23 24  1  0  0  0  0
 23 49  1  0  0  0  0
 24 50  1  0  0  0  0
 25 26  1  0  0  0  0
 25 51  1  0  0  0  0
 26 27  1  0  0  0  0
 28 29  2  0  0  0  0
 28 52  1  0  0  0  0
M  END
$$$$
