CHEMBL3656104
 OpenBabel04072215373D

 66 70  0  0  1  0  0  0  0  0999 V2000
    2.8865    7.1276    2.4200 C   0  0  0  0  0  0  0  0  0  0  0  0
    1.7603    6.1537    2.2268 C   0  0  0  0  0  0  0  0  0  0  0  0
    2.0378    4.8459    1.8166 C   0  0  0  0  0  0  0  0  0  0  0  0
    1.0028    3.9318    1.6676 C   0  0  0  0  0  0  0  0  0  0  0  0
   -0.3118    4.3190    1.9074 C   0  0  0  0  0  0  0  0  0  0  0  0
   -1.2262    3.3422    1.8761 F   0  0  0  0  0  0  0  0  0  0  0  0
   -0.6349    5.6386    2.2568 C   0  0  0  0  0  0  0  0  0  0  0  0
   -1.9578    6.1310    2.4310 N   0  0  0  0  0  0  0  0  0  0  0  0
   -3.0996    5.5394    1.9132 C   0  0  0  0  0  0  0  0  0  0  0  0
   -3.1197    4.5392    1.2056 O   0  0  0  0  0  0  0  0  0  0  0  0
   -4.2593    6.2494    2.2182 N   0  0  0  0  0  0  0  0  0  0  0  0
   -5.5049    5.6948    1.8266 C   0  0  0  0  0  0  0  0  0  0  0  0
   -5.8204    4.3727    2.1589 C   0  0  0  0  0  0  0  0  0  0  0  0
   -6.9824    3.7777    1.6696 C   0  0  0  0  0  0  0  0  0  0  0  0
   -7.8692    4.5196    0.8882 C   0  0  0  0  0  0  0  0  0  0  0  0
   -9.0346    4.0154    0.3530 O   0  0  0  0  0  0  0  0  0  0  0  0
   -9.7314    3.0477    1.0422 C   0  0  0  0  0  0  0  0  0  0  0  0
   -9.8593    3.0209    2.4277 C   0  0  0  0  0  0  0  0  0  0  0  0
  -10.5591    1.9729    2.9957 C   0  0  0  0  0  0  0  0  0  0  0  0
  -11.1686    1.0025    2.2827 N   0  0  0  0  0  0  0  0  0  0  0  0
  -11.0848    1.0901    0.9314 C   0  0  0  0  0  0  0  0  0  0  0  0
  -11.8047    0.0418    0.2202 C   0  0  0  0  0  0  0  0  0  0  0  0
  -12.0047   -0.1996   -1.1277 C   0  0  0  0  0  0  0  0  0  0  0  0
  -12.7917   -1.3844   -1.2734 C   0  0  0  0  0  0  0  0  0  0  0  0
  -13.2229   -1.9772   -2.5380 C   0  0  0  0  0  0  0  0  0  0  0  0
  -13.4843   -1.2687   -3.5098 O   0  0  0  0  0  0  0  0  0  0  0  0
  -13.2746   -3.3628   -2.6199 N   0  0  0  0  0  0  0  0  0  0  0  0
  -12.7975   -4.3239   -1.6472 C   0  0  0  0  0  0  0  0  0  0  0  0
  -12.3610   -5.5043   -2.4963 C   0  0  0  0  0  0  0  0  0  0  0  0
  -13.3403   -5.4895   -3.6727 C   0  0  3  0  0  0  0  0  0  0  0  0
  -14.5503   -6.3531   -3.3981 C   0  0  0  0  0  0  0  0  0  0  0  0
  -15.0160   -6.5665   -2.2895 O   0  0  0  0  0  0  0  0  0  0  0  0
  -15.0915   -6.8843   -4.5178 O   0  0  0  0  0  0  0  0  0  0  0  0
  -13.7447   -4.0244   -3.8229 C   0  0  0  0  0  0  0  0  0  0  0  0
  -13.1008   -1.7897    0.0132 C   0  0  0  0  0  0  0  0  0  0  0  0
  -12.4719   -0.9549    0.8951 N   0  0  0  0  0  0  0  0  0  0  0  0
  -10.3824    2.0886    0.2744 C   0  0  0  0  0  0  0  0  0  0  0  0
   -7.5552    5.8406    0.5543 C   0  0  0  0  0  0  0  0  0  0  0  0
   -6.3871    6.4397    1.0432 C   0  0  0  0  0  0  0  0  0  0  0  0
    0.4221    6.5426    2.4468 C   0  0  0  0  0  0  0  0  0  0  0  0
    3.8563    6.6586    2.2174 H   0  0  0  0  0  0  0  0  0  0  0  0
    2.9032    7.4871    3.4534 H   0  0  0  0  0  0  0  0  0  0  0  0
    2.7785    7.9756    1.7374 H   0  0  0  0  0  0  0  0  0  0  0  0
    3.0589    4.5232    1.6284 H   0  0  0  0  0  0  0  0  0  0  0  0
    1.2034    2.9039    1.3815 H   0  0  0  0  0  0  0  0  0  0  0  0
   -2.0673    7.0473    2.8344 H   0  0  0  0  0  0  0  0  0  0  0  0
   -4.1681    7.2481    2.1074 H   0  0  0  0  0  0  0  0  0  0  0  0
   -5.1445    3.7831    2.7745 H   0  0  0  0  0  0  0  0  0  0  0  0
   -7.1644    2.7313    1.8969 H   0  0  0  0  0  0  0  0  0  0  0  0
   -9.4109    3.7789    3.0587 H   0  0  0  0  0  0  0  0  0  0  0  0
  -10.6475    1.8845    4.0746 H   0  0  0  0  0  0  0  0  0  0  0  0
  -11.6200    0.3960   -1.9458 H   0  0  0  0  0  0  0  0  0  0  0  0
  -13.6432   -4.5898   -1.0025 H   0  0  0  0  0  0  0  0  0  0  0  0
  -11.9747   -3.9430   -1.0415 H   0  0  0  0  0  0  0  0  0  0  0  0
  -12.3495   -6.4382   -1.9262 H   0  0  0  0  0  0  0  0  0  0  0  0
  -11.3451   -5.3212   -2.8686 H   0  0  0  0  0  0  0  0  0  0  0  0
  -12.8362   -5.8717   -4.5674 H   0  0  0  0  0  0  0  0  0  0  0  0
  -14.6281   -6.6627   -5.3474 H   0  0  0  0  0  0  0  0  0  0  0  0
  -14.8284   -3.8779   -3.9008 H   0  0  0  0  0  0  0  0  0  0  0  0
  -13.2717   -3.5661   -4.6989 H   0  0  0  0  0  0  0  0  0  0  0  0
  -13.7107   -2.6042    0.3774 H   0  0  0  0  0  0  0  0  0  0  0  0
  -12.4936   -1.0182    1.9059 H   0  0  0  0  0  0  0  0  0  0  0  0
  -10.3323    2.1262   -0.8072 H   0  0  0  0  0  0  0  0  0  0  0  0
   -8.2100    6.3968   -0.1120 H   0  0  0  0  0  0  0  0  0  0  0  0
   -6.1465    7.4529    0.7371 H   0  0  0  0  0  0  0  0  0  0  0  0
    0.2216    7.5699    2.7456 H   0  0  0  0  0  0  0  0  0  0  0  0
  1  2  1  0  0  0  0
  1 41  1  0  0  0  0
  1 42  1  0  0  0  0
  1 43  1  0  0  0  0
  2  3  1  0  0  0  0
  2 40  2  0  0  0  0
  3  4  2  0  0  0  0
  3 44  1  0  0  0  0
  4  5  1  0  0  0  0
  4 45  1  0  0  0  0
  5  6  1  0  0  0  0
  5  7  2  0  0  0  0
  7  8  1  0  0  0  0
  7 40  1  0  0  0  0
  8  9  1  0  0  0  0
  8 46  1  0  0  0  0
  9 10  2  0  0  0  0
  9 11  1  0  0  0  0
 11 12  1  0  0  0  0
 11 47  1  0  0  0  0
 12 13  1  0  0  0  0
 12 39  2  0  0  0  0
 13 14  2  0  0  0  0
 13 48  1  0  0  0  0
 14 15  1  0  0  0  0
 14 49  1  0  0  0  0
 15 16  1  0  0  0  0
 15 38  2  0  0  0  0
 16 17  1  0  0  0  0
 17 18  1  0  0  0  0
 17 37  2  0  0  0  0
 18 19  2  0  0  0  0
 18 50  1  0  0  0  0
 19 20  1  0  0  0  0
 19 51  1  0  0  0  0
 20 21  2  0  0  0  0
 21 22  1  0  0  0  0
 21 37  1  0  0  0  0
 22 23  2  0  0  0  0
 22 36  1  0  0  0  0
 23 24  1  0  0  0  0
 23 52  1  0  0  0  0
 24 25  1  0  0  0  0
 24 35  2  0  0  0  0
 25 26  2  0  0  0  0
 25 27  1  0  0  0  0
 27 28  1  0  0  0  0
 27 34  1  0  0  0  0
 28 29  1  0  0  0  0
 28 53  1  0  0  0  0
 28 54  1  0  0  0  0
 29 30  1  0  0  0  0
 29 55  1  0  0  0  0
 29 56  1  0  0  0  0
 30 31  1  0  0  0  0
 30 34  1  0  0  0  0
 30 57  1  0  0  0  0
 31 32  2  0  0  0  0
 31 33  1  0  0  0  0
 33 58  1  0  0  0  0
 34 59  1  0  0  0  0
 34 60  1  0  0  0  0
 35 36  1  0  0  0  0
 35 61  1  0  0  0  0
 36 62  1  0  0  0  0
 37 63  1  0  0  0  0
 38 39  1  0  0  0  0
 38 64  1  0  0  0  0
 39 65  1  0  0  0  0
 40 66  1  0  0  0  0
M  END
$$$$
