CHEMBL3353354
 OpenBabel04072215363D

 64 70  0  0  1  0  0  0  0  0999 V2000
   -3.6965    0.0864   -0.9961 O   0  0  0  0  0  0  0  0  0  0  0  0
   -3.7278    0.1510    0.2206 C   0  0  0  0  0  0  0  0  0  0  0  0
   -4.7459    0.6495    1.0094 N   0  0  0  0  0  0  0  0  0  0  0  0
   -4.3971    0.6426    2.3585 C   0  0  0  0  0  0  0  0  0  0  0  0
   -5.1522    1.1401    3.4018 C   0  0  0  0  0  0  0  0  0  0  0  0
   -4.5738    1.1209    4.6683 C   0  0  0  0  0  0  0  0  0  0  0  0
   -3.2681    0.6302    4.8493 C   0  0  0  0  0  0  0  0  0  0  0  0
   -2.5289    0.1181    3.7716 C   0  0  0  0  0  0  0  0  0  0  0  0
   -3.1090    0.0967    2.5125 C   0  0  0  0  0  0  0  0  0  0  0  0
   -2.6326   -0.3285    1.1531 C   0  0  2  0  0  0  0  0  0  0  0  0
   -1.1857   -0.3050    0.7624 C   0  0  0  0  0  0  0  0  0  0  0  0
   -1.9407   -1.6227    0.7802 C   0  0  1  0  0  0  0  0  0  0  0  0
   -1.4782   -2.7123    1.7203 C   0  0  0  0  0  0  0  0  0  0  0  0
   -0.1908   -3.2573    1.5542 C   0  0  0  0  0  0  0  0  0  0  0  0
    0.3107   -4.2852    2.3665 C   0  0  0  0  0  0  0  0  0  0  0  0
   -0.5038   -4.8028    3.3859 C   0  0  0  0  0  0  0  0  0  0  0  0
   -0.3571   -5.7526    4.4466 C   0  0  0  0  0  0  0  0  0  0  0  0
    0.8845   -6.3958    4.8099 C   0  0  0  0  0  0  0  0  0  0  0  0
    1.0255   -7.2427    5.8485 C   0  0  0  0  0  0  0  0  0  0  0  0
    2.2907   -7.7576    6.4117 C   0  0  0  0  0  0  0  0  0  0  0  0
    2.3232   -7.9857    7.7945 C   0  0  0  0  0  0  0  0  0  0  0  0
    3.4927   -8.4050    8.4388 C   0  0  0  0  0  0  0  0  0  0  0  0
    4.6695   -8.6317    7.7180 C   0  0  0  0  0  0  0  0  0  0  0  0
    5.9668   -8.9121    8.4510 C   0  0  0  0  0  0  0  0  0  0  0  0
    6.3232  -10.2782    8.8225 N   0  0  0  0  0  0  0  0  0  0  0  0
    6.6150  -11.2082    7.7306 C   0  0  0  0  0  0  0  0  0  0  0  0
    5.4074  -12.0311    7.2593 C   0  0  0  0  0  0  0  0  0  0  0  0
    4.7632  -12.6984    8.3524 O   0  0  0  0  0  0  0  0  0  0  0  0
    4.3458  -11.7582    9.3497 C   0  0  0  0  0  0  0  0  0  0  0  0
    5.5261  -10.9236    9.8689 C   0  0  0  0  0  0  0  0  0  0  0  0
    4.6298   -8.4544    6.3239 C   0  0  0  0  0  0  0  0  0  0  0  0
    3.4524   -8.0218    5.6774 C   0  0  0  0  0  0  0  0  0  0  0  0
   -1.5082   -5.8905    5.1238 N   0  0  0  0  0  0  0  0  0  0  0  0
   -2.3507   -5.0257    4.5332 N   0  0  0  0  0  0  0  0  0  0  0  0
   -1.7968   -4.3067    3.5092 C   0  0  0  0  0  0  0  0  0  0  0  0
   -2.3123   -3.2794    2.7008 C   0  0  0  0  0  0  0  0  0  0  0  0
   -5.5928    1.0400    0.6318 H   0  0  0  0  0  0  0  0  0  0  0  0
   -6.1464    1.5425    3.2453 H   0  0  0  0  0  0  0  0  0  0  0  0
   -5.1286    1.5069    5.5210 H   0  0  0  0  0  0  0  0  0  0  0  0
   -2.8226    0.6586    5.8421 H   0  0  0  0  0  0  0  0  0  0  0  0
   -1.5152   -0.2388    3.9261 H   0  0  0  0  0  0  0  0  0  0  0  0
   -0.4405   -0.1255    1.5311 H   0  0  0  0  0  0  0  0  0  0  0  0
   -0.9191    0.1109   -0.2030 H   0  0  0  0  0  0  0  0  0  0  0  0
   -2.2107   -2.0096   -0.2048 H   0  0  0  0  0  0  0  0  0  0  0  0
    0.4460   -2.8731    0.7580 H   0  0  0  0  0  0  0  0  0  0  0  0
    1.3119   -4.6691    2.2005 H   0  0  0  0  0  0  0  0  0  0  0  0
    1.7649   -6.0932    4.2521 H   0  0  0  0  0  0  0  0  0  0  0  0
    0.1332   -7.5073    6.4150 H   0  0  0  0  0  0  0  0  0  0  0  0
    1.4390   -7.7929    8.3986 H   0  0  0  0  0  0  0  0  0  0  0  0
    3.4834   -8.5105    9.5214 H   0  0  0  0  0  0  0  0  0  0  0  0
    5.9694   -8.2994    9.3641 H   0  0  0  0  0  0  0  0  0  0  0  0
    6.7920   -8.4879    7.8637 H   0  0  0  0  0  0  0  0  0  0  0  0
    7.3618  -11.9149    8.1182 H   0  0  0  0  0  0  0  0  0  0  0  0
    7.0958  -10.7017    6.8865 H   0  0  0  0  0  0  0  0  0  0  0  0
    5.7521  -12.8090    6.5698 H   0  0  0  0  0  0  0  0  0  0  0  0
    4.6770  -11.4174    6.7238 H   0  0  0  0  0  0  0  0  0  0  0  0
    3.9219  -12.3353   10.1786 H   0  0  0  0  0  0  0  0  0  0  0  0
    3.5439  -11.1344    8.9463 H   0  0  0  0  0  0  0  0  0  0  0  0
    6.2040  -11.6122   10.3926 H   0  0  0  0  0  0  0  0  0  0  0  0
    5.1939  -10.2059   10.6274 H   0  0  0  0  0  0  0  0  0  0  0  0
    5.5290   -8.6092    5.7301 H   0  0  0  0  0  0  0  0  0  0  0  0
    3.4706   -7.8774    4.5992 H   0  0  0  0  0  0  0  0  0  0  0  0
   -3.2920   -4.9541    4.8939 H   0  0  0  0  0  0  0  0  0  0  0  0
   -3.3308   -2.9249    2.8327 H   0  0  0  0  0  0  0  0  0  0  0  0
  1  2  2  0  0  0  0
  2  3  1  0  0  0  0
  2 10  1  0  0  0  0
  3  4  1  0  0  0  0
  3 37  1  0  0  0  0
  4  5  1  0  0  0  0
  4  9  2  0  0  0  0
  5  6  2  0  0  0  0
  5 38  1  0  0  0  0
  6  7  1  0  0  0  0
  6 39  1  0  0  0  0
  7  8  2  0  0  0  0
  7 40  1  0  0  0  0
  8  9  1  0  0  0  0
  8 41  1  0  0  0  0
 10  9  1  1  0  0  0
 10 11  1  0  0  0  0
 10 12  1  0  0  0  0
 11 12  1  0  0  0  0
 11 42  1  0  0  0  0
 11 43  1  0  0  0  0
 12 13  1  0  0  0  0
 12 44  1  6  0  0  0
 13 14  1  0  0  0  0
 13 36  2  0  0  0  0
 14 15  2  0  0  0  0
 14 45  1  0  0  0  0
 15 16  1  0  0  0  0
 15 46  1  0  0  0  0
 16 17  1  0  0  0  0
 16 35  2  0  0  0  0
 17 18  1  0  0  0  0
 17 33  2  0  0  0  0
 18 19  2  0  0  0  0
 18 47  1  0  0  0  0
 19 20  1  0  0  0  0
 19 48  1  0  0  0  0
 20 21  1  0  0  0  0
 20 32  2  0  0  0  0
 21 22  2  0  0  0  0
 21 49  1  0  0  0  0
 22 23  1  0  0  0  0
 22 50  1  0  0  0  0
 23 24  1  0  0  0  0
 23 31  2  0  0  0  0
 24 25  1  0  0  0  0
 24 51  1  0  0  0  0
 24 52  1  0  0  0  0
 25 26  1  0  0  0  0
 25 30  1  0  0  0  0
 26 27  1  0  0  0  0
 26 53  1  0  0  0  0
 26 54  1  0  0  0  0
 27 28  1  0  0  0  0
 27 55  1  0  0  0  0
 27 56  1  0  0  0  0
 28 29  1  0  0  0  0
 29 30  1  0  0  0  0
 29 57  1  0  0  0  0
 29 58  1  0  0  0  0
 30 59  1  0  0  0  0
 30 60  1  0  0  0  0
 31 32  1  0  0  0  0
 31 61  1  0  0  0  0
 32 62  1  0  0  0  0
 33 34  1  0  0  0  0
 34 35  1  0  0  0  0
 34 63  1  0  0  0  0
 35 36  1  0  0  0  0
 36 64  1  0  0  0  0
M  END
$$$$
