CHEMBL3660287
 OpenBabel04072215373D

 64 67  0  0  1  0  0  0  0  0999 V2000
    2.8420    7.2353    2.7171 C   0  0  0  0  0  0  0  0  0  0  0  0
    1.7186    6.2637    2.4882 C   0  0  0  0  0  0  0  0  0  0  0  0
    2.0149    4.9618    2.0744 C   0  0  0  0  0  0  0  0  0  0  0  0
    0.9899    4.0450    1.8894 C   0  0  0  0  0  0  0  0  0  0  0  0
   -0.3344    4.4207    2.1023 C   0  0  0  0  0  0  0  0  0  0  0  0
   -1.2337    3.4320    2.0361 F   0  0  0  0  0  0  0  0  0  0  0  0
   -0.6807    5.7343    2.4616 C   0  0  0  0  0  0  0  0  0  0  0  0
   -2.0197    6.2056    2.6211 N   0  0  0  0  0  0  0  0  0  0  0  0
   -3.1450    5.5980    2.0957 C   0  0  0  0  0  0  0  0  0  0  0  0
   -3.1392    4.5866    1.3930 O   0  0  0  0  0  0  0  0  0  0  0  0
   -4.3258    6.2873    2.3678 N   0  0  0  0  0  0  0  0  0  0  0  0
   -5.5500    5.7198    1.9174 C   0  0  0  0  0  0  0  0  0  0  0  0
   -5.8703    4.3981    2.2450 C   0  0  0  0  0  0  0  0  0  0  0  0
   -7.0025    3.7863    1.7061 C   0  0  0  0  0  0  0  0  0  0  0  0
   -7.8673    4.5104    0.8842 C   0  0  0  0  0  0  0  0  0  0  0  0
   -9.0172    3.9885    0.3273 O   0  0  0  0  0  0  0  0  0  0  0  0
   -9.7309    3.0336    1.0223 C   0  0  0  0  0  0  0  0  0  0  0  0
   -9.8508    3.0035    2.4056 C   0  0  0  0  0  0  0  0  0  0  0  0
  -10.5465    1.9549    2.9806 C   0  0  0  0  0  0  0  0  0  0  0  0
  -11.1632    0.9820    2.2754 N   0  0  0  0  0  0  0  0  0  0  0  0
  -11.0864    1.0676    0.9257 C   0  0  0  0  0  0  0  0  0  0  0  0
  -11.7809    0.0023    0.2060 C   0  0  0  0  0  0  0  0  0  0  0  0
  -11.9342   -0.2300   -1.1495 C   0  0  0  0  0  0  0  0  0  0  0  0
  -12.7410   -1.3898   -1.3380 C   0  0  0  0  0  0  0  0  0  0  0  0
  -13.2293   -1.9920   -2.5800 C   0  0  0  0  0  0  0  0  0  0  0  0
  -13.9670   -2.9733   -2.5998 O   0  0  0  0  0  0  0  0  0  0  0  0
  -12.8070   -1.3610   -3.7338 N   0  0  0  0  0  0  0  0  0  0  0  0
  -13.1994   -1.8550   -5.0388 C   0  0  0  0  0  0  0  0  0  0  0  0
  -12.6591   -0.9680   -6.1666 C   0  0  3  0  0  0  0  0  0  0  0  0
  -11.2255   -0.9448   -6.1030 O   0  0  0  0  0  0  0  0  0  0  0  0
  -13.1399   -1.4769   -7.5337 C   0  0  0  0  0  0  0  0  0  0  0  0
  -12.6311   -0.6810   -8.6011 O   0  0  0  0  0  0  0  0  0  0  0  0
  -13.0266   -1.8557   -0.0659 C   0  0  0  0  0  0  0  0  0  0  0  0
  -12.4458   -1.0186    0.8502 N   0  0  0  0  0  0  0  0  0  0  0  0
  -10.3956    2.0750    0.2631 C   0  0  0  0  0  0  0  0  0  0  0  0
   -7.5457    5.8288    0.5464 C   0  0  0  0  0  0  0  0  0  0  0  0
   -6.4016    6.4435    1.0802 C   0  0  0  0  0  0  0  0  0  0  0  0
    0.3713    6.6436    2.6798 C   0  0  0  0  0  0  0  0  0  0  0  0
    3.8162    6.7626    2.5427 H   0  0  0  0  0  0  0  0  0  0  0  0
    2.8322    7.5913    3.7515 H   0  0  0  0  0  0  0  0  0  0  0  0
    2.7604    8.0847    2.0328 H   0  0  0  0  0  0  0  0  0  0  0  0
    3.0430    4.6452    1.9122 H   0  0  0  0  0  0  0  0  0  0  0  0
    1.2049    3.0214    1.5975 H   0  0  0  0  0  0  0  0  0  0  0  0
   -2.1420    7.1153    3.0387 H   0  0  0  0  0  0  0  0  0  0  0  0
   -4.2463    7.2896    2.2793 H   0  0  0  0  0  0  0  0  0  0  0  0
   -5.2227    3.8208    2.9009 H   0  0  0  0  0  0  0  0  0  0  0  0
   -7.1844    2.7409    1.9378 H   0  0  0  0  0  0  0  0  0  0  0  0
   -9.3890    3.7552    3.0361 H   0  0  0  0  0  0  0  0  0  0  0  0
  -10.6155    1.8659    4.0608 H   0  0  0  0  0  0  0  0  0  0  0  0
  -11.5228    0.3971   -1.9270 H   0  0  0  0  0  0  0  0  0  0  0  0
  -12.0342   -0.7154   -3.6906 H   0  0  0  0  0  0  0  0  0  0  0  0
  -14.2934   -1.8985   -5.0691 H   0  0  0  0  0  0  0  0  0  0  0  0
  -12.8079   -2.8744   -5.1280 H   0  0  0  0  0  0  0  0  0  0  0  0
  -12.9808    0.0700   -6.0266 H   0  0  0  0  0  0  0  0  0  0  0  0
  -10.8971   -1.7826   -6.4770 H   0  0  0  0  0  0  0  0  0  0  0  0
  -14.2329   -1.4657   -7.5910 H   0  0  0  0  0  0  0  0  0  0  0  0
  -12.7932   -2.4999   -7.7105 H   0  0  0  0  0  0  0  0  0  0  0  0
  -12.7541    0.2553   -8.3667 H   0  0  0  0  0  0  0  0  0  0  0  0
  -13.6095   -2.7085    0.2564 H   0  0  0  0  0  0  0  0  0  0  0  0
  -12.4924   -1.1041    1.8584 H   0  0  0  0  0  0  0  0  0  0  0  0
  -10.3556    2.1153   -0.8188 H   0  0  0  0  0  0  0  0  0  0  0  0
   -8.1748    6.3735   -0.1539 H   0  0  0  0  0  0  0  0  0  0  0  0
   -6.1543    7.4541    0.7695 H   0  0  0  0  0  0  0  0  0  0  0  0
    0.1577    7.6673    2.9791 H   0  0  0  0  0  0  0  0  0  0  0  0
  1  2  1  0  0  0  0
  1 39  1  0  0  0  0
  1 40  1  0  0  0  0
  1 41  1  0  0  0  0
  2  3  1  0  0  0  0
  2 38  2  0  0  0  0
  3  4  2  0  0  0  0
  3 42  1  0  0  0  0
  4  5  1  0  0  0  0
  4 43  1  0  0  0  0
  5  6  1  0  0  0  0
  5  7  2  0  0  0  0
  7  8  1  0  0  0  0
  7 38  1  0  0  0  0
  8  9  1  0  0  0  0
  8 44  1  0  0  0  0
  9 10  2  0  0  0  0
  9 11  1  0  0  0  0
 11 12  1  0  0  0  0
 11 45  1  0  0  0  0
 12 13  1  0  0  0  0
 12 37  2  0  0  0  0
 13 14  2  0  0  0  0
 13 46  1  0  0  0  0
 14 15  1  0  0  0  0
 14 47  1  0  0  0  0
 15 16  1  0  0  0  0
 15 36  2  0  0  0  0
 16 17  1  0  0  0  0
 17 18  1  0  0  0  0
 17 35  2  0  0  0  0
 18 19  2  0  0  0  0
 18 48  1  0  0  0  0
 19 20  1  0  0  0  0
 19 49  1  0  0  0  0
 20 21  2  0  0  0  0
 21 22  1  0  0  0  0
 21 35  1  0  0  0  0
 22 23  2  0  0  0  0
 22 34  1  0  0  0  0
 23 24  1  0  0  0  0
 23 50  1  0  0  0  0
 24 25  1  0  0  0  0
 24 33  2  0  0  0  0
 25 26  2  0  0  0  0
 25 27  1  0  0  0  0
 27 28  1  0  0  0  0
 27 51  1  0  0  0  0
 28 29  1  0  0  0  0
 28 52  1  0  0  0  0
 28 53  1  0  0  0  0
 29 30  1  0  0  0  0
 29 31  1  0  0  0  0
 29 54  1  0  0  0  0
 30 55  1  0  0  0  0
 31 32  1  0  0  0  0
 31 56  1  0  0  0  0
 31 57  1  0  0  0  0
 32 58  1  0  0  0  0
 33 34  1  0  0  0  0
 33 59  1  0  0  0  0
 34 60  1  0  0  0  0
 35 61  1  0  0  0  0
 36 37  1  0  0  0  0
 36 62  1  0  0  0  0
 37 63  1  0  0  0  0
 38 64  1  0  0  0  0
M  END
$$$$
