CHEMBL2088260
 OpenBabel04072215363D

 57 60  0  0  0  0  0  0  0  0999 V2000
    0.7832   -4.0163    0.4103 C   0  0  0  0  0  0  0  0  0  0  0  0
    1.8868   -3.1876    0.7544 O   0  0  0  0  0  0  0  0  0  0  0  0
    2.6161   -2.6692   -0.2829 C   0  0  0  0  0  0  0  0  0  0  0  0
    2.4100   -2.9490   -1.6340 C   0  0  0  0  0  0  0  0  0  0  0  0
    3.2142   -2.3489   -2.6117 C   0  0  0  0  0  0  0  0  0  0  0  0
    2.9422   -2.5854   -4.0737 C   0  0  0  0  0  0  0  0  0  0  0  0
    1.9701   -1.5305   -4.6177 C   0  0  0  0  0  0  0  0  0  0  0  0
    1.6903   -1.6772   -6.0727 C   0  0  0  0  0  0  0  0  0  0  0  0
    1.4177   -0.7437   -7.0520 C   0  0  0  0  0  0  0  0  0  0  0  0
    1.3148   -1.4759   -8.2605 C   0  0  0  0  0  0  0  0  0  0  0  0
    1.1701   -0.8754   -9.4644 N   0  0  0  0  0  0  0  0  0  0  0  0
    1.5695   -1.3598  -10.7222 C   0  0  0  0  0  0  0  0  0  0  0  0
    1.6944   -2.7043  -10.9988 C   0  0  0  0  0  0  0  0  0  0  0  0
    2.2413   -3.0342  -12.2124 C   0  0  0  0  0  0  0  0  0  0  0  0
    2.6220   -2.1238  -13.1175 N   0  0  0  0  0  0  0  0  0  0  0  0
    2.4285   -0.8425  -12.7929 C   0  0  0  0  0  0  0  0  0  0  0  0
    2.8994    0.0641  -13.7214 N   0  0  0  0  0  0  0  0  0  0  0  0
    2.1349    1.2948  -13.8641 C   0  0  0  0  0  0  0  0  0  0  0  0
    2.6246    2.4649  -13.0679 C   0  0  0  0  0  0  0  0  0  0  0  0
    3.7019    2.4902  -12.1524 C   0  0  0  0  0  0  0  0  0  0  0  0
    3.7446    3.7850  -11.7106 C   0  0  0  0  0  0  0  0  0  0  0  0
    4.5976    4.5069  -10.7542 C   0  0  0  0  0  0  0  0  0  0  0  0
    2.7634    4.5008  -12.3225 O   0  0  0  0  0  0  0  0  0  0  0  0
    2.0573    3.6745  -13.1842 N   0  0  0  0  0  0  0  0  0  0  0  0
    1.8915   -0.4252  -11.6382 N   0  0  0  0  0  0  0  0  0  0  0  0
    1.4384   -2.7850   -8.0252 N   0  0  0  0  0  0  0  0  0  0  0  0
    1.6510   -2.8816   -6.7130 N   0  0  0  0  0  0  0  0  0  0  0  0
    4.2292   -1.4653   -2.2249 C   0  0  0  0  0  0  0  0  0  0  0  0
    4.4319   -1.1647   -0.8799 C   0  0  0  0  0  0  0  0  0  0  0  0
    5.3634   -0.2855   -0.3971 O   0  0  0  0  0  0  0  0  0  0  0  0
    6.1162    0.4384   -1.3649 C   0  0  0  0  0  0  0  0  0  0  0  0
    3.6289   -1.7821    0.0850 C   0  0  0  0  0  0  0  0  0  0  0  0
    0.2788   -4.3083    1.3361 H   0  0  0  0  0  0  0  0  0  0  0  0
    1.1177   -4.9317   -0.0895 H   0  0  0  0  0  0  0  0  0  0  0  0
    0.0572   -3.4742   -0.2056 H   0  0  0  0  0  0  0  0  0  0  0  0
    1.6226   -3.6256   -1.9542 H   0  0  0  0  0  0  0  0  0  0  0  0
    2.5363   -3.5970   -4.2003 H   0  0  0  0  0  0  0  0  0  0  0  0
    3.8872   -2.5705   -4.6329 H   0  0  0  0  0  0  0  0  0  0  0  0
    2.3857   -0.5293   -4.4405 H   0  0  0  0  0  0  0  0  0  0  0  0
    1.0210   -1.5743   -4.0689 H   0  0  0  0  0  0  0  0  0  0  0  0
    1.3595    0.3275   -6.9188 H   0  0  0  0  0  0  0  0  0  0  0  0
    1.1737    0.1374   -9.5149 H   0  0  0  0  0  0  0  0  0  0  0  0
    1.4177   -3.4775  -10.2977 H   0  0  0  0  0  0  0  0  0  0  0  0
    2.4146   -4.0704  -12.4784 H   0  0  0  0  0  0  0  0  0  0  0  0
    3.1046   -0.4371  -14.5760 H   0  0  0  0  0  0  0  0  0  0  0  0
    1.0662    1.1335  -13.6663 H   0  0  0  0  0  0  0  0  0  0  0  0
    2.1908    1.5816  -14.9237 H   0  0  0  0  0  0  0  0  0  0  0  0
    4.3422    1.6686  -11.8653 H   0  0  0  0  0  0  0  0  0  0  0  0
    5.3568    3.8413  -10.3307 H   0  0  0  0  0  0  0  0  0  0  0  0
    3.9957    4.9030   -9.9314 H   0  0  0  0  0  0  0  0  0  0  0  0
    5.1105    5.3384  -11.2461 H   0  0  0  0  0  0  0  0  0  0  0  0
    1.7942   -3.8085   -6.3268 H   0  0  0  0  0  0  0  0  0  0  0  0
    4.8393   -1.0145   -3.0030 H   0  0  0  0  0  0  0  0  0  0  0  0
    6.6971    1.2027   -0.8407 H   0  0  0  0  0  0  0  0  0  0  0  0
    5.4674    0.9568   -2.0801 H   0  0  0  0  0  0  0  0  0  0  0  0
    6.8176   -0.2255   -1.8813 H   0  0  0  0  0  0  0  0  0  0  0  0
    3.7874   -1.5513    1.1352 H   0  0  0  0  0  0  0  0  0  0  0  0
  1  2  1  0  0  0  0
  1 33  1  0  0  0  0
  1 34  1  0  0  0  0
  1 35  1  0  0  0  0
  2  3  1  0  0  0  0
  3  4  1  0  0  0  0
  3 32  2  0  0  0  0
  4  5  2  0  0  0  0
  4 36  1  0  0  0  0
  5  6  1  0  0  0  0
  5 28  1  0  0  0  0
  6  7  1  0  0  0  0
  6 37  1  0  0  0  0
  6 38  1  0  0  0  0
  7  8  1  0  0  0  0
  7 39  1  0  0  0  0
  7 40  1  0  0  0  0
  8  9  2  0  0  0  0
  8 27  1  0  0  0  0
  9 10  1  0  0  0  0
  9 41  1  0  0  0  0
 10 11  1  0  0  0  0
 10 26  2  0  0  0  0
 11 12  1  0  0  0  0
 11 42  1  0  0  0  0
 12 13  1  0  0  0  0
 12 25  2  0  0  0  0
 13 14  2  0  0  0  0
 13 43  1  0  0  0  0
 14 15  1  0  0  0  0
 14 44  1  0  0  0  0
 15 16  2  0  0  0  0
 16 17  1  0  0  0  0
 16 25  1  0  0  0  0
 17 18  1  0  0  0  0
 17 45  1  0  0  0  0
 18 19  1  0  0  0  0
 18 46  1  0  0  0  0
 18 47  1  0  0  0  0
 19 20  1  0  0  0  0
 19 24  2  0  0  0  0
 20 21  2  0  0  0  0
 20 48  1  0  0  0  0
 21 22  1  0  0  0  0
 21 23  1  0  0  0  0
 22 49  1  0  0  0  0
 22 50  1  0  0  0  0
 22 51  1  0  0  0  0
 23 24  1  0  0  0  0
 26 27  1  0  0  0  0
 27 52  1  0  0  0  0
 28 29  2  0  0  0  0
 28 53  1  0  0  0  0
 29 30  1  0  0  0  0
 29 32  1  0  0  0  0
 30 31  1  0  0  0  0
 31 54  1  0  0  0  0
 31 55  1  0  0  0  0
 31 56  1  0  0  0  0
 32 57  1  0  0  0  0
M  END
$$$$
