CHEMBL3919750
 OpenBabel04072215373D

 67 71  0  0  0  0  0  0  0  0999 V2000
    2.3046   -1.0747   -2.3717 C   0  0  0  0  0  0  0  0  0  0  0  0
    3.3611   -0.7963   -1.4578 O   0  0  0  0  0  0  0  0  0  0  0  0
    3.5473   -1.6994   -0.4433 C   0  0  0  0  0  0  0  0  0  0  0  0
    2.6432   -2.6951   -0.0783 C   0  0  0  0  0  0  0  0  0  0  0  0
    2.9253   -3.5486    0.9957 C   0  0  0  0  0  0  0  0  0  0  0  0
    1.9551   -4.6296    1.4089 C   0  0  0  0  0  0  0  0  0  0  0  0
    0.6086   -4.3152    1.0628 O   0  0  0  0  0  0  0  0  0  0  0  0
    4.1701   -3.4249    1.6475 C   0  0  0  0  0  0  0  0  0  0  0  0
    5.1109   -2.4380    1.2919 C   0  0  0  0  0  0  0  0  0  0  0  0
    6.3067   -2.3413    2.0401 N   0  0  0  0  0  0  0  0  0  0  0  0
    6.8806   -0.9711    2.2800 C   0  0  0  0  0  0  0  0  0  0  0  0
    5.9866    0.1563    2.8300 C   0  0  0  0  0  0  0  0  0  0  0  0
    5.6515    0.1927    4.3409 C   0  0  0  0  0  0  0  0  0  0  0  0
    4.9220    1.4458    4.6626 N   0  0  0  0  0  0  0  0  0  0  0  0
    5.7313    2.6760    4.5686 C   0  0  0  0  0  0  0  0  0  0  0  0
    6.1746    2.9854    5.9859 C   0  0  0  0  0  0  0  0  0  0  0  0
    4.9698    2.5906    6.8044 C   0  0  0  0  0  0  0  0  0  0  0  0
    4.3090    1.4702    6.0026 C   0  0  0  0  0  0  0  0  0  0  0  0
    7.4463   -3.2425    1.9271 C   0  0  0  0  0  0  0  0  0  0  0  0
    8.1816   -3.3861    3.1023 C   0  0  0  0  0  0  0  0  0  0  0  0
    9.5132   -3.7472    3.0644 C   0  0  0  0  0  0  0  0  0  0  0  0
   10.1094   -4.1340    1.8872 C   0  0  0  0  0  0  0  0  0  0  0  0
   11.4328   -4.2959    1.9832 N   0  0  0  0  0  0  0  0  0  0  0  0
   12.0522   -4.8305    0.9281 C   0  0  0  0  0  0  0  0  0  0  0  0
   11.3514   -5.2672   -0.1775 C   0  0  0  0  0  0  0  0  0  0  0  0
   12.0704   -6.1732   -1.0611 C   0  0  0  0  0  0  0  0  0  0  0  0
   12.0822   -7.5922   -1.0710 C   0  0  0  0  0  0  0  0  0  0  0  0
   13.0307   -8.0988   -1.8689 N   0  0  0  0  0  0  0  0  0  0  0  0
   13.6266   -7.0050   -2.3726 N   0  0  0  0  0  0  0  0  0  0  0  0
   14.4752   -7.1043   -3.5363 C   0  0  0  0  0  0  0  0  0  0  0  0
   13.2126   -5.8464   -1.7727 C   0  0  0  0  0  0  0  0  0  0  0  0
   10.0061   -4.9965   -0.3340 N   0  0  0  0  0  0  0  0  0  0  0  0
    9.3487   -4.3456    0.7055 C   0  0  0  0  0  0  0  0  0  0  0  0
    7.9964   -3.8164    0.7447 C   0  0  0  0  0  0  0  0  0  0  0  0
    4.7564   -1.5622    0.2566 C   0  0  0  0  0  0  0  0  0  0  0  0
    2.3926   -0.3743   -3.2083 H   0  0  0  0  0  0  0  0  0  0  0  0
    1.3285   -0.9145   -1.9032 H   0  0  0  0  0  0  0  0  0  0  0  0
    2.3845   -2.0884   -2.7810 H   0  0  0  0  0  0  0  0  0  0  0  0
    1.7049   -2.8237   -0.6121 H   0  0  0  0  0  0  0  0  0  0  0  0
    1.9803   -4.7802    2.4932 H   0  0  0  0  0  0  0  0  0  0  0  0
    2.2201   -5.5696    0.9161 H   0  0  0  0  0  0  0  0  0  0  0  0
    0.4117   -3.4480    1.4563 H   0  0  0  0  0  0  0  0  0  0  0  0
    4.4004   -4.0847    2.4828 H   0  0  0  0  0  0  0  0  0  0  0  0
    7.3046   -0.6201    1.3309 H   0  0  0  0  0  0  0  0  0  0  0  0
    7.7299   -1.0139    2.9748 H   0  0  0  0  0  0  0  0  0  0  0  0
    5.0720    0.2644    2.2572 H   0  0  0  0  0  0  0  0  0  0  0  0
    6.5814    1.0562    2.6243 H   0  0  0  0  0  0  0  0  0  0  0  0
    6.5501    0.0989    4.9660 H   0  0  0  0  0  0  0  0  0  0  0  0
    5.0050   -0.6639    4.5696 H   0  0  0  0  0  0  0  0  0  0  0  0
    5.0760    3.4765    4.2123 H   0  0  0  0  0  0  0  0  0  0  0  0
    6.5826    2.6391    3.8946 H   0  0  0  0  0  0  0  0  0  0  0  0
    6.4387    4.0389    6.1164 H   0  0  0  0  0  0  0  0  0  0  0  0
    7.0416    2.3750    6.2612 H   0  0  0  0  0  0  0  0  0  0  0  0
    4.2903    3.4474    6.9004 H   0  0  0  0  0  0  0  0  0  0  0  0
    5.2505    2.2699    7.8130 H   0  0  0  0  0  0  0  0  0  0  0  0
    3.2407    1.6952    5.9039 H   0  0  0  0  0  0  0  0  0  0  0  0
    4.3876    0.5176    6.5366 H   0  0  0  0  0  0  0  0  0  0  0  0
    7.7518   -3.0663    4.0631 H   0  0  0  0  0  0  0  0  0  0  0  0
   10.1105   -3.6913    3.9631 H   0  0  0  0  0  0  0  0  0  0  0  0
   13.1249   -4.9558    1.0252 H   0  0  0  0  0  0  0  0  0  0  0  0
   11.4658   -8.2783   -0.5035 H   0  0  0  0  0  0  0  0  0  0  0  0
   14.4785   -8.1337   -3.9045 H   0  0  0  0  0  0  0  0  0  0  0  0
   15.4873   -6.7851   -3.2797 H   0  0  0  0  0  0  0  0  0  0  0  0
   14.0492   -6.4483   -4.3009 H   0  0  0  0  0  0  0  0  0  0  0  0
   13.7309   -4.9124   -1.9411 H   0  0  0  0  0  0  0  0  0  0  0  0
    7.4259   -3.8214   -0.1823 H   0  0  0  0  0  0  0  0  0  0  0  0
    5.4224   -0.7579   -0.0386 H   0  0  0  0  0  0  0  0  0  0  0  0
  1  2  1  0  0  0  0
  1 36  1  0  0  0  0
  1 37  1  0  0  0  0
  1 38  1  0  0  0  0
  2  3  1  0  0  0  0
  3  4  1  0  0  0  0
  3 35  2  0  0  0  0
  4  5  2  0  0  0  0
  4 39  1  0  0  0  0
  5  6  1  0  0  0  0
  5  8  1  0  0  0  0
  6  7  1  0  0  0  0
  6 40  1  0  0  0  0
  6 41  1  0  0  0  0
  7 42  1  0  0  0  0
  8  9  2  0  0  0  0
  8 43  1  0  0  0  0
  9 10  1  0  0  0  0
  9 35  1  0  0  0  0
 10 11  1  0  0  0  0
 10 19  1  0  0  0  0
 11 12  1  0  0  0  0
 11 44  1  0  0  0  0
 11 45  1  0  0  0  0
 12 13  1  0  0  0  0
 12 46  1  0  0  0  0
 12 47  1  0  0  0  0
 13 14  1  0  0  0  0
 13 48  1  0  0  0  0
 13 49  1  0  0  0  0
 14 15  1  0  0  0  0
 14 18  1  0  0  0  0
 15 16  1  0  0  0  0
 15 50  1  0  0  0  0
 15 51  1  0  0  0  0
 16 17  1  0  0  0  0
 16 52  1  0  0  0  0
 16 53  1  0  0  0  0
 17 18  1  0  0  0  0
 17 54  1  0  0  0  0
 17 55  1  0  0  0  0
 18 56  1  0  0  0  0
 18 57  1  0  0  0  0
 19 20  1  0  0  0  0
 19 34  2  0  0  0  0
 20 21  2  0  0  0  0
 20 58  1  0  0  0  0
 21 22  1  0  0  0  0
 21 59  1  0  0  0  0
 22 23  1  0  0  0  0
 22 33  2  0  0  0  0
 23 24  2  0  0  0  0
 24 25  1  0  0  0  0
 24 60  1  0  0  0  0
 25 26  1  0  0  0  0
 25 32  2  0  0  0  0
 26 27  1  0  0  0  0
 26 31  2  0  0  0  0
 27 28  2  0  0  0  0
 27 61  1  0  0  0  0
 28 29  1  0  0  0  0
 29 30  1  0  0  0  0
 29 31  1  0  0  0  0
 30 62  1  0  0  0  0
 30 63  1  0  0  0  0
 30 64  1  0  0  0  0
 31 65  1  0  0  0  0
 32 33  1  0  0  0  0
 33 34  1  0  0  0  0
 34 66  1  0  0  0  0
 35 67  1  0  0  0  0
M  END
$$$$
