CHEMBL183504
 OpenBabel04072215363D

 34 37  0  0  0  0  0  0  0  0999 V2000
    1.3341   -1.1852    0.7407 O   0  0  0  0  0  0  0  0  0  0  0  0
    2.2801   -0.5108    0.3634 C   0  0  0  0  0  0  0  0  0  0  0  0
    2.7458    0.6547    0.9175 N   0  0  0  0  0  0  0  0  0  0  0  0
    2.2079    1.2765    2.0521 C   0  0  0  0  0  0  0  0  0  0  0  0
    1.1542    0.7705    2.7194 N   0  0  0  0  0  0  0  0  0  0  0  0
    0.6850    1.4294    3.7939 C   0  0  0  0  0  0  0  0  0  0  0  0
    1.1449    2.5726    4.3215 N   0  0  0  0  0  0  0  0  0  0  0  0
    2.1900    3.0408    3.6277 C   0  0  0  0  0  0  0  0  0  0  0  0
    2.8382    4.1980    3.9446 O   0  0  0  0  0  0  0  0  0  0  0  0
    3.8381    4.3760    3.0292 C   0  0  0  0  0  0  0  0  0  0  0  0
    4.6702    5.5660    3.1762 C   0  0  0  0  0  0  0  0  0  0  0  0
    4.4247    6.5205    4.1757 C   0  0  0  0  0  0  0  0  0  0  0  0
    5.2592    7.6336    4.3180 C   0  0  0  0  0  0  0  0  0  0  0  0
    6.3379    7.7985    3.4584 C   0  0  0  0  0  0  0  0  0  0  0  0
    7.1484    8.8540    3.6057 F   0  0  0  0  0  0  0  0  0  0  0  0
    6.5901    6.8813    2.4487 C   0  0  0  0  0  0  0  0  0  0  0  0
    5.7570    5.7706    2.3069 C   0  0  0  0  0  0  0  0  0  0  0  0
    3.8383    3.3242    2.1347 C   0  0  0  0  0  0  0  0  0  0  0  0
    2.7730    2.4681    2.5081 C   0  0  0  0  0  0  0  0  0  0  0  0
    3.0502   -0.9241   -0.8530 C   0  0  0  0  0  0  0  0  0  0  0  0
    2.3259   -1.0909   -2.1691 C   0  0  0  0  0  0  0  0  0  0  0  0
    2.8486   -2.2989   -1.4479 C   0  0  0  0  0  0  0  0  0  0  0  0
    3.5236    1.1123    0.4706 H   0  0  0  0  0  0  0  0  0  0  0  0
   -0.1722    0.9802    4.2873 H   0  0  0  0  0  0  0  0  0  0  0  0
    3.5839    6.4044    4.8578 H   0  0  0  0  0  0  0  0  0  0  0  0
    5.0759    8.3667    5.0969 H   0  0  0  0  0  0  0  0  0  0  0  0
    7.4340    7.0297    1.7825 H   0  0  0  0  0  0  0  0  0  0  0  0
    5.9764    5.0643    1.5106 H   0  0  0  0  0  0  0  0  0  0  0  0
    4.5213    3.1957    1.3086 H   0  0  0  0  0  0  0  0  0  0  0  0
    4.0651   -0.5403   -0.9096 H   0  0  0  0  0  0  0  0  0  0  0  0
    2.8311   -0.7886   -3.0783 H   0  0  0  0  0  0  0  0  0  0  0  0
    1.2508   -0.9428   -2.1860 H   0  0  0  0  0  0  0  0  0  0  0  0
    3.7120   -2.8091   -1.8553 H   0  0  0  0  0  0  0  0  0  0  0  0
    2.1267   -2.9604   -0.9772 H   0  0  0  0  0  0  0  0  0  0  0  0
  1  2  2  0  0  0  0
  2  3  1  0  0  0  0
  2 20  1  0  0  0  0
  3  4  1  0  0  0  0
  3 23  1  0  0  0  0
  4  5  1  0  0  0  0
  4 19  2  0  0  0  0
  5  6  2  0  0  0  0
  6  7  1  0  0  0  0
  6 24  1  0  0  0  0
  7  8  2  0  0  0  0
  8  9  1  0  0  0  0
  8 19  1  0  0  0  0
  9 10  1  0  0  0  0
 10 11  1  0  0  0  0
 10 18  2  0  0  0  0
 11 12  1  0  0  0  0
 11 17  2  0  0  0  0
 12 13  2  0  0  0  0
 12 25  1  0  0  0  0
 13 14  1  0  0  0  0
 13 26  1  0  0  0  0
 14 15  1  0  0  0  0
 14 16  2  0  0  0  0
 16 17  1  0  0  0  0
 16 27  1  0  0  0  0
 17 28  1  0  0  0  0
 18 19  1  0  0  0  0
 18 29  1  0  0  0  0
 20 21  1  0  0  0  0
 20 22  1  0  0  0  0
 20 30  1  0  0  0  0
 21 22  1  0  0  0  0
 21 31  1  0  0  0  0
 21 32  1  0  0  0  0
 22 33  1  0  0  0  0
 22 34  1  0  0  0  0
M  END
$$$$
