CHEMBL2386793
 OpenBabel04072215363D

 77 81  0  0  0  0  0  0  0  0999 V2000
    0.8634    3.5669    4.9272 C   0  0  0  0  0  0  0  0  0  0  0  0
    1.5269    3.3141    6.2926 C   0  0  0  0  0  0  0  0  0  0  0  0
    2.1924    4.6078    6.7951 C   0  0  0  0  0  0  0  0  0  0  0  0
    0.4460    2.8908    7.3031 C   0  0  0  0  0  0  0  0  0  0  0  0
    2.5759    2.2564    6.1198 C   0  0  0  0  0  0  0  0  0  0  0  0
    3.7387    2.1961    5.3912 C   0  0  0  0  0  0  0  0  0  0  0  0
    4.2440    0.9068    5.6379 C   0  0  0  0  0  0  0  0  0  0  0  0
    5.4028    0.4177    5.0880 N   0  0  0  0  0  0  0  0  0  0  0  0
    5.9605   -0.8128    5.2735 C   0  0  0  0  0  0  0  0  0  0  0  0
    7.0333   -1.0333    4.7116 O   0  0  0  0  0  0  0  0  0  0  0  0
    5.2587   -1.6926    6.0544 N   0  0  0  0  0  0  0  0  0  0  0  0
    5.6514   -2.9798    6.4398 C   0  0  0  0  0  0  0  0  0  0  0  0
    6.9673   -3.4064    6.3319 C   0  0  0  0  0  0  0  0  0  0  0  0
    7.3100   -4.7116    6.6587 C   0  0  0  0  0  0  0  0  0  0  0  0
    6.3443   -5.6221    7.1109 C   0  0  0  0  0  0  0  0  0  0  0  0
    6.7364   -7.0024    7.3909 C   0  0  0  0  0  0  0  0  0  0  0  0
    8.0466   -7.5414    7.2921 C   0  0  0  0  0  0  0  0  0  0  0  0
    7.9502   -8.8646    7.6308 C   0  0  0  0  0  0  0  0  0  0  0  0
    8.9599   -9.8115    7.7040 N   0  0  0  0  0  0  0  0  0  0  0  0
   10.3295   -9.5233    7.3765 C   0  0  0  0  0  0  0  0  0  0  0  0
   10.6724   -8.4593    6.8861 O   0  0  0  0  0  0  0  0  0  0  0  0
   11.3172  -10.5917    7.6406 C   0  0  0  0  0  0  0  0  0  0  0  0
   12.4756  -10.6429    6.8567 C   0  0  0  0  0  0  0  0  0  0  0  0
   13.4675  -11.5825    7.1373 C   0  0  0  0  0  0  0  0  0  0  0  0
   13.3207  -12.4477    8.2257 C   0  0  0  0  0  0  0  0  0  0  0  0
   14.2639  -13.3351    8.6685 O   0  0  0  0  0  0  0  0  0  0  0  0
   15.6055  -13.0102    8.2957 C   0  0  0  0  0  0  0  0  0  0  0  0
   16.5932  -13.6552    9.2821 C   0  0  0  0  0  0  0  0  0  0  0  0
   17.9911  -13.2808    9.0006 N   0  0  0  0  0  0  0  0  0  0  0  0
   18.4671  -13.7338    7.6733 C   0  0  0  0  0  0  0  0  0  0  0  0
   18.6495  -15.2539    7.5859 C   0  0  0  0  0  0  0  0  0  0  0  0
   19.6016  -15.7016    8.5589 O   0  0  0  0  0  0  0  0  0  0  0  0
   19.1937  -15.3360    9.8840 C   0  0  0  0  0  0  0  0  0  0  0  0
   18.9236  -13.8245   10.0149 C   0  0  0  0  0  0  0  0  0  0  0  0
   12.1406  -12.4288    8.9705 C   0  0  0  0  0  0  0  0  0  0  0  0
   11.1413  -11.4954    8.6948 C   0  0  0  0  0  0  0  0  0  0  0  0
    6.6220   -9.0591    7.9019 N   0  0  0  0  0  0  0  0  0  0  0  0
    5.8693   -7.9548    7.7737 N   0  0  0  0  0  0  0  0  0  0  0  0
    5.0264   -5.1728    7.2723 C   0  0  0  0  0  0  0  0  0  0  0  0
    4.6850   -3.8525    6.9480 C   0  0  0  0  0  0  0  0  0  0  0  0
    3.4398    0.2295    6.4656 N   0  0  0  0  0  0  0  0  0  0  0  0
    2.4011    1.0775    6.7724 O   0  0  0  0  0  0  0  0  0  0  0  0
    0.1238    4.3706    4.9851 H   0  0  0  0  0  0  0  0  0  0  0  0
    0.3564    2.6643    4.5634 H   0  0  0  0  0  0  0  0  0  0  0  0
    1.6030    3.8480    4.1671 H   0  0  0  0  0  0  0  0  0  0  0  0
    1.4575    5.4060    6.9293 H   0  0  0  0  0  0  0  0  0  0  0  0
    2.9524    4.9687    6.0920 H   0  0  0  0  0  0  0  0  0  0  0  0
    2.6934    4.4436    7.7578 H   0  0  0  0  0  0  0  0  0  0  0  0
   -0.3058    3.6771    7.4300 H   0  0  0  0  0  0  0  0  0  0  0  0
    0.8793    2.6826    8.2890 H   0  0  0  0  0  0  0  0  0  0  0  0
   -0.0763    1.9833    6.9762 H   0  0  0  0  0  0  0  0  0  0  0  0
    4.1491    2.9699    4.7616 H   0  0  0  0  0  0  0  0  0  0  0  0
    5.9402    1.0240    4.4868 H   0  0  0  0  0  0  0  0  0  0  0  0
    4.3105   -1.4106    6.2836 H   0  0  0  0  0  0  0  0  0  0  0  0
    7.7605   -2.7409    6.0011 H   0  0  0  0  0  0  0  0  0  0  0  0
    8.3519   -4.9871    6.5325 H   0  0  0  0  0  0  0  0  0  0  0  0
    8.9377   -7.0034    7.0080 H   0  0  0  0  0  0  0  0  0  0  0  0
    8.7086  -10.7517    7.9826 H   0  0  0  0  0  0  0  0  0  0  0  0
   12.6243   -9.9400    6.0374 H   0  0  0  0  0  0  0  0  0  0  0  0
   14.3537  -11.5996    6.5121 H   0  0  0  0  0  0  0  0  0  0  0  0
   15.7728  -11.9256    8.3167 H   0  0  0  0  0  0  0  0  0  0  0  0
   15.7629  -13.3920    7.2821 H   0  0  0  0  0  0  0  0  0  0  0  0
   16.4362  -14.7399    9.3035 H   0  0  0  0  0  0  0  0  0  0  0  0
   16.3257  -13.3028   10.2873 H   0  0  0  0  0  0  0  0  0  0  0  0
   19.4369  -13.2532    7.4922 H   0  0  0  0  0  0  0  0  0  0  0  0
   17.8171  -13.3787    6.8686 H   0  0  0  0  0  0  0  0  0  0  0  0
   19.0357  -15.5220    6.5958 H   0  0  0  0  0  0  0  0  0  0  0  0
   17.7065  -15.7918    7.7241 H   0  0  0  0  0  0  0  0  0  0  0  0
   20.0067  -15.6194   10.5607 H   0  0  0  0  0  0  0  0  0  0  0  0
   18.3135  -15.9260   10.1619 H   0  0  0  0  0  0  0  0  0  0  0  0
   19.8773  -13.2947    9.8905 H   0  0  0  0  0  0  0  0  0  0  0  0
   18.5777  -13.5867   11.0279 H   0  0  0  0  0  0  0  0  0  0  0  0
   12.0280  -13.1164    9.8093 H   0  0  0  0  0  0  0  0  0  0  0  0
   10.2785  -11.4573    9.3511 H   0  0  0  0  0  0  0  0  0  0  0  0
    6.1571   -9.9127    8.1844 H   0  0  0  0  0  0  0  0  0  0  0  0
    4.2555   -5.8503    7.6328 H   0  0  0  0  0  0  0  0  0  0  0  0
    3.6535   -3.5326    7.0705 H   0  0  0  0  0  0  0  0  0  0  0  0
  1  2  1  0  0  0  0
  1 43  1  0  0  0  0
  1 44  1  0  0  0  0
  1 45  1  0  0  0  0
  2  3  1  0  0  0  0
  2  4  1  0  0  0  0
  2  5  1  0  0  0  0
  3 46  1  0  0  0  0
  3 47  1  0  0  0  0
  3 48  1  0  0  0  0
  4 49  1  0  0  0  0
  4 50  1  0  0  0  0
  4 51  1  0  0  0  0
  5  6  2  0  0  0  0
  5 42  1  0  0  0  0
  6  7  1  0  0  0  0
  6 52  1  0  0  0  0
  7  8  1  0  0  0  0
  7 41  2  0  0  0  0
  8  9  1  0  0  0  0
  8 53  1  0  0  0  0
  9 10  2  0  0  0  0
  9 11  1  0  0  0  0
 11 12  1  0  0  0  0
 11 54  1  0  0  0  0
 12 13  1  0  0  0  0
 12 40  2  0  0  0  0
 13 14  2  0  0  0  0
 13 55  1  0  0  0  0
 14 15  1  0  0  0  0
 14 56  1  0  0  0  0
 15 16  1  0  0  0  0
 15 39  2  0  0  0  0
 16 17  1  0  0  0  0
 16 38  2  0  0  0  0
 17 18  2  0  0  0  0
 17 57  1  0  0  0  0
 18 19  1  0  0  0  0
 18 37  1  0  0  0  0
 19 20  1  0  0  0  0
 19 58  1  0  0  0  0
 20 21  2  0  0  0  0
 20 22  1  0  0  0  0
 22 23  1  0  0  0  0
 22 36  2  0  0  0  0
 23 24  2  0  0  0  0
 23 59  1  0  0  0  0
 24 25  1  0  0  0  0
 24 60  1  0  0  0  0
 25 26  1  0  0  0  0
 25 35  2  0  0  0  0
 26 27  1  0  0  0  0
 27 28  1  0  0  0  0
 27 61  1  0  0  0  0
 27 62  1  0  0  0  0
 28 29  1  0  0  0  0
 28 63  1  0  0  0  0
 28 64  1  0  0  0  0
 29 30  1  0  0  0  0
 29 34  1  0  0  0  0
 30 31  1  0  0  0  0
 30 65  1  0  0  0  0
 30 66  1  0  0  0  0
 31 32  1  0  0  0  0
 31 67  1  0  0  0  0
 31 68  1  0  0  0  0
 32 33  1  0  0  0  0
 33 34  1  0  0  0  0
 33 69  1  0  0  0  0
 33 70  1  0  0  0  0
 34 71  1  0  0  0  0
 34 72  1  0  0  0  0
 35 36  1  0  0  0  0
 35 73  1  0  0  0  0
 36 74  1  0  0  0  0
 37 38  1  0  0  0  0
 37 75  1  0  0  0  0
 39 40  1  0  0  0  0
 39 76  1  0  0  0  0
 40 77  1  0  0  0  0
 41 42  1  0  0  0  0
M  END
$$$$
