CHEMBL512840
 OpenBabel04072215383D

 44 46  0  0  0  0  0  0  0  0999 V2000
    2.5209    0.1930   -0.0891 C   0  0  0  0  0  0  0  0  0  0  0  0
    1.0249    0.0574   -0.0076 C   0  0  0  0  0  0  0  0  0  0  0  0
    0.2658    1.2384    0.0776 C   0  0  0  0  0  0  0  0  0  0  0  0
   -1.1303    1.2019    0.1075 C   0  0  0  0  0  0  0  0  0  0  0  0
   -1.8019   -0.0214    0.0764 C   0  0  0  0  0  0  0  0  0  0  0  0
   -3.2930   -0.0149    0.0794 C   0  0  0  0  0  0  0  0  0  0  0  0
   -3.8602    0.9282   -0.4581 O   0  0  0  0  0  0  0  0  0  0  0  0
   -3.8926   -1.0579    0.7673 N   0  0  0  0  0  0  0  0  0  0  0  0
   -5.2827   -1.2570    0.9238 C   0  0  0  0  0  0  0  0  0  0  0  0
   -6.2425   -0.6115    0.1432 C   0  0  0  0  0  0  0  0  0  0  0  0
   -7.6058   -0.8180    0.3732 C   0  0  0  0  0  0  0  0  0  0  0  0
   -8.0225   -1.6659    1.3941 C   0  0  0  0  0  0  0  0  0  0  0  0
   -7.0791   -2.3350    2.1843 C   0  0  0  0  0  0  0  0  0  0  0  0
   -7.5128   -3.2304    3.3176 C   0  0  0  0  0  0  0  0  0  0  0  0
   -8.8607   -3.2532    3.5140 F   0  0  0  0  0  0  0  0  0  0  0  0
   -7.1394   -4.5263    3.1314 F   0  0  0  0  0  0  0  0  0  0  0  0
   -6.9706   -2.8551    4.5103 F   0  0  0  0  0  0  0  0  0  0  0  0
   -5.7084   -2.1424    1.9227 C   0  0  0  0  0  0  0  0  0  0  0  0
   -1.0675   -1.2044   -0.0107 C   0  0  0  0  0  0  0  0  0  0  0  0
    0.3428   -1.1773   -0.0472 C   0  0  0  0  0  0  0  0  0  0  0  0
    0.9904   -2.5096   -0.2224 C   0  0  0  0  0  0  0  0  0  0  0  0
    0.4353   -3.3158   -0.9614 O   0  0  0  0  0  0  0  0  0  0  0  0
    2.1145   -2.7690    0.5370 N   0  0  0  0  0  0  0  0  0  0  0  0
    2.8187   -3.9973    0.5534 C   0  0  0  0  0  0  0  0  0  0  0  0
    2.6056   -5.0705   -0.2942 C   0  0  0  0  0  0  0  0  0  0  0  0
    3.2748   -6.2457   -0.2134 N   0  0  0  0  0  0  0  0  0  0  0  0
    4.1936   -6.3332    0.7570 C   0  0  0  0  0  0  0  0  0  0  0  0
    4.5128   -5.3598    1.6232 N   0  0  0  0  0  0  0  0  0  0  0  0
    3.8146   -4.2104    1.4912 C   0  0  0  0  0  0  0  0  0  0  0  0
    2.8135    1.2296   -0.2963 H   0  0  0  0  0  0  0  0  0  0  0  0
    2.9262   -0.4185   -0.9000 H   0  0  0  0  0  0  0  0  0  0  0  0
    2.9822   -0.0851    0.8619 H   0  0  0  0  0  0  0  0  0  0  0  0
    0.7552    2.2127    0.0878 H   0  0  0  0  0  0  0  0  0  0  0  0
   -1.6940    2.1341    0.1394 H   0  0  0  0  0  0  0  0  0  0  0  0
   -3.2936   -1.6525    1.3252 H   0  0  0  0  0  0  0  0  0  0  0  0
   -5.9602    0.0546   -0.6669 H   0  0  0  0  0  0  0  0  0  0  0  0
   -8.3405   -0.3014   -0.2440 H   0  0  0  0  0  0  0  0  0  0  0  0
   -9.0893   -1.7951    1.5755 H   0  0  0  0  0  0  0  0  0  0  0  0
   -4.9798   -2.6666    2.5392 H   0  0  0  0  0  0  0  0  0  0  0  0
   -1.5813   -2.1600   -0.1009 H   0  0  0  0  0  0  0  0  0  0  0  0
    2.3915   -2.0794    1.2229 H   0  0  0  0  0  0  0  0  0  0  0  0
    1.8803   -5.0453   -1.1004 H   0  0  0  0  0  0  0  0  0  0  0  0
    4.7228   -7.2743    0.8516 H   0  0  0  0  0  0  0  0  0  0  0  0
    4.0891   -3.4435    2.2099 H   0  0  0  0  0  0  0  0  0  0  0  0
  1  2  1  0  0  0  0
  1 30  1  0  0  0  0
  1 31  1  0  0  0  0
  1 32  1  0  0  0  0
  2  3  1  0  0  0  0
  2 20  2  0  0  0  0
  3  4  2  0  0  0  0
  3 33  1  0  0  0  0
  4  5  1  0  0  0  0
  4 34  1  0  0  0  0
  5  6  1  0  0  0  0
  5 19  2  0  0  0  0
  6  7  2  0  0  0  0
  6  8  1  0  0  0  0
  8  9  1  0  0  0  0
  8 35  1  0  0  0  0
  9 10  1  0  0  0  0
  9 18  2  0  0  0  0
 10 11  2  0  0  0  0
 10 36  1  0  0  0  0
 11 12  1  0  0  0  0
 11 37  1  0  0  0  0
 12 13  2  0  0  0  0
 12 38  1  0  0  0  0
 13 14  1  0  0  0  0
 13 18  1  0  0  0  0
 14 15  1  0  0  0  0
 14 16  1  0  0  0  0
 14 17  1  0  0  0  0
 18 39  1  0  0  0  0
 19 20  1  0  0  0  0
 19 40  1  0  0  0  0
 20 21  1  0  0  0  0
 21 22  2  0  0  0  0
 21 23  1  0  0  0  0
 23 24  1  0  0  0  0
 23 41  1  0  0  0  0
 24 25  1  0  0  0  0
 24 29  2  0  0  0  0
 25 26  2  0  0  0  0
 25 42  1  0  0  0  0
 26 27  1  0  0  0  0
 27 28  2  0  0  0  0
 27 43  1  0  0  0  0
 28 29  1  0  0  0  0
 29 44  1  0  0  0  0
M  END
$$$$
