CHEMBL3904153
 OpenBabel04072215373D

 57 60  0  0  0  0  0  0  0  0999 V2000
    2.6277    0.2179    0.1011 C   0  0  0  0  0  0  0  0  0  0  0  0
    1.1310    0.0733    0.1528 C   0  0  0  0  0  0  0  0  0  0  0  0
    0.3855    1.2720    0.2211 C   0  0  0  0  0  0  0  0  0  0  0  0
   -1.0079    1.2788    0.1708 C   0  0  0  0  0  0  0  0  0  0  0  0
   -1.7729    2.4208    0.2561 O   0  0  0  0  0  0  0  0  0  0  0  0
   -1.3330    3.5525   -0.4260 C   0  0  0  0  0  0  0  0  0  0  0  0
   -1.7880    4.7742    0.0269 C   0  0  0  0  0  0  0  0  0  0  0  0
   -1.3440    5.8747   -0.6711 C   0  0  0  0  0  0  0  0  0  0  0  0
   -1.7865    7.1489   -0.2848 N   0  0  0  0  0  0  0  0  0  0  0  0
   -1.4750    8.3117   -0.9754 C   0  0  0  0  0  0  0  0  0  0  0  0
   -0.7848    8.4205   -1.9797 O   0  0  0  0  0  0  0  0  0  0  0  0
   -2.0554    9.5464   -0.3627 C   0  0  0  0  0  0  0  0  0  0  0  0
   -1.9413   10.8779   -1.0733 C   0  0  0  0  0  0  0  0  0  0  0  0
   -1.1166   10.6157    0.1518 C   0  0  0  0  0  0  0  0  0  0  0  0
   -0.5012    5.7596   -1.7082 N   0  0  0  0  0  0  0  0  0  0  0  0
   -0.1359    4.5319   -2.0759 C   0  0  0  0  0  0  0  0  0  0  0  0
   -0.5313    3.4030   -1.4933 N   0  0  0  0  0  0  0  0  0  0  0  0
   -1.6792    0.0656    0.0981 C   0  0  0  0  0  0  0  0  0  0  0  0
   -0.9552   -1.1328    0.0647 C   0  0  0  0  0  0  0  0  0  0  0  0
    0.4489   -1.1618    0.1096 C   0  0  0  0  0  0  0  0  0  0  0  0
    1.1678   -2.3943    0.1337 N   0  0  0  0  0  0  0  0  0  0  0  0
    0.6142   -3.6524    0.3579 C   0  0  0  0  0  0  0  0  0  0  0  0
   -0.5787   -3.8891    0.5128 O   0  0  0  0  0  0  0  0  0  0  0  0
    1.5833   -4.6476    0.4689 N   0  0  0  0  0  0  0  0  0  0  0  0
    1.2096   -5.9896    0.7527 C   0  0  0  0  0  0  0  0  0  0  0  0
    1.8727   -6.6692    1.7700 C   0  0  0  0  0  0  0  0  0  0  0  0
    1.4783   -7.9636    2.1243 C   0  0  0  0  0  0  0  0  0  0  0  0
    0.4533   -8.6318    1.4320 C   0  0  0  0  0  0  0  0  0  0  0  0
    0.0931  -10.0309    1.8582 C   0  0  0  0  0  0  0  0  0  0  0  0
   -0.1919   -7.9736    0.3629 C   0  0  0  0  0  0  0  0  0  0  0  0
   -1.2740   -8.6085   -0.4894 C   0  0  0  0  0  0  0  0  0  0  0  0
   -1.5625   -9.9061   -0.1884 F   0  0  0  0  0  0  0  0  0  0  0  0
   -2.4625   -7.9472   -0.4113 F   0  0  0  0  0  0  0  0  0  0  0  0
   -0.9417   -8.6181   -1.8132 F   0  0  0  0  0  0  0  0  0  0  0  0
    0.1877   -6.6448    0.0536 C   0  0  0  0  0  0  0  0  0  0  0  0
    2.9318    1.2533    0.3018 H   0  0  0  0  0  0  0  0  0  0  0  0
    2.9943   -0.0351   -0.8996 H   0  0  0  0  0  0  0  0  0  0  0  0
    3.1156   -0.4071    0.8516 H   0  0  0  0  0  0  0  0  0  0  0  0
    0.9116    2.2211    0.2964 H   0  0  0  0  0  0  0  0  0  0  0  0
   -2.4521    4.8422    0.8766 H   0  0  0  0  0  0  0  0  0  0  0  0
   -2.3852    7.2229    0.5217 H   0  0  0  0  0  0  0  0  0  0  0  0
   -2.9819    9.3990    0.1902 H   0  0  0  0  0  0  0  0  0  0  0  0
   -2.7643   11.5776   -0.9977 H   0  0  0  0  0  0  0  0  0  0  0  0
   -1.4290   10.9090   -2.0315 H   0  0  0  0  0  0  0  0  0  0  0  0
   -1.3814   11.1358    1.0631 H   0  0  0  0  0  0  0  0  0  0  0  0
   -0.0504   10.4715    0.0109 H   0  0  0  0  0  0  0  0  0  0  0  0
    0.5445    4.4507   -2.9146 H   0  0  0  0  0  0  0  0  0  0  0  0
   -2.7633    0.0299    0.0594 H   0  0  0  0  0  0  0  0  0  0  0  0
   -1.5424   -2.0413   -0.0223 H   0  0  0  0  0  0  0  0  0  0  0  0
    2.1691   -2.3423    0.0286 H   0  0  0  0  0  0  0  0  0  0  0  0
    2.4494   -4.3382    0.8837 H   0  0  0  0  0  0  0  0  0  0  0  0
    2.6552   -6.1852    2.3467 H   0  0  0  0  0  0  0  0  0  0  0  0
    1.9749   -8.4482    2.9637 H   0  0  0  0  0  0  0  0  0  0  0  0
    0.6696  -10.3468    2.7344 H   0  0  0  0  0  0  0  0  0  0  0  0
    0.3104  -10.7406    1.0538 H   0  0  0  0  0  0  0  0  0  0  0  0
   -0.9653  -10.0896    2.1327 H   0  0  0  0  0  0  0  0  0  0  0  0
   -0.3250   -6.1269   -0.7580 H   0  0  0  0  0  0  0  0  0  0  0  0
  1  2  1  0  0  0  0
  1 36  1  0  0  0  0
  1 37  1  0  0  0  0
  1 38  1  0  0  0  0
  2  3  1  0  0  0  0
  2 20  2  0  0  0  0
  3  4  2  0  0  0  0
  3 39  1  0  0  0  0
  4  5  1  0  0  0  0
  4 18  1  0  0  0  0
  5  6  1  0  0  0  0
  6  7  1  0  0  0  0
  6 17  2  0  0  0  0
  7  8  2  0  0  0  0
  7 40  1  0  0  0  0
  8  9  1  0  0  0  0
  8 15  1  0  0  0  0
  9 10  1  0  0  0  0
  9 41  1  0  0  0  0
 10 11  2  0  0  0  0
 10 12  1  0  0  0  0
 12 13  1  0  0  0  0
 12 14  1  0  0  0  0
 12 42  1  0  0  0  0
 13 14  1  0  0  0  0
 13 43  1  0  0  0  0
 13 44  1  0  0  0  0
 14 45  1  0  0  0  0
 14 46  1  0  0  0  0
 15 16  2  0  0  0  0
 16 17  1  0  0  0  0
 16 47  1  0  0  0  0
 18 19  2  0  0  0  0
 18 48  1  0  0  0  0
 19 20  1  0  0  0  0
 19 49  1  0  0  0  0
 20 21  1  0  0  0  0
 21 22  1  0  0  0  0
 21 50  1  0  0  0  0
 22 23  2  0  0  0  0
 22 24  1  0  0  0  0
 24 25  1  0  0  0  0
 24 51  1  0  0  0  0
 25 26  1  0  0  0  0
 25 35  2  0  0  0  0
 26 27  2  0  0  0  0
 26 52  1  0  0  0  0
 27 28  1  0  0  0  0
 27 53  1  0  0  0  0
 28 29  1  0  0  0  0
 28 30  2  0  0  0  0
 29 54  1  0  0  0  0
 29 55  1  0  0  0  0
 29 56  1  0  0  0  0
 30 31  1  0  0  0  0
 30 35  1  0  0  0  0
 31 32  1  0  0  0  0
 31 33  1  0  0  0  0
 31 34  1  0  0  0  0
 35 57  1  0  0  0  0
M  END
$$$$
