CHEMBL452570
 OpenBabel04072215383D

 44 47  0  0  0  0  0  0  0  0999 V2000
    3.6423   -1.1276   -0.1338 C   0  0  0  0  0  0  0  0  0  0  0  0
    2.6842   -0.0816    0.0894 O   0  0  0  0  0  0  0  0  0  0  0  0
    3.1625    1.1916   -0.0662 C   0  0  0  0  0  0  0  0  0  0  0  0
    4.2412    1.4609   -0.9237 C   0  0  0  0  0  0  0  0  0  0  0  0
    4.8860    2.6959   -0.9672 C   0  0  0  0  0  0  0  0  0  0  0  0
    6.0099    2.7924   -1.7013 N   0  0  0  0  0  0  0  0  0  0  0  0
    6.6944    3.9489   -1.6638 C   0  0  0  0  0  0  0  0  0  0  0  0
    6.3077    5.0482   -0.9028 C   0  0  0  0  0  0  0  0  0  0  0  0
    5.1467    4.9405   -0.1390 C   0  0  0  0  0  0  0  0  0  0  0  0
    4.8990    6.0775    0.6222 O   0  0  0  0  0  0  0  0  0  0  0  0
    4.2788    5.9899    1.8461 C   0  0  0  0  0  0  0  0  0  0  0  0
    4.3710    4.8941    2.7059 C   0  0  0  0  0  0  0  0  0  0  0  0
    3.4738    4.7489    3.7729 C   0  0  0  0  0  0  0  0  0  0  0  0
    2.5581    5.7826    4.0443 C   0  0  0  0  0  0  0  0  0  0  0  0
    1.4859    5.9909    4.9509 C   0  0  0  0  0  0  0  0  0  0  0  0
    1.0519    5.0873    5.8349 N   0  0  0  0  0  0  0  0  0  0  0  0
    0.9442    7.1972    4.8233 N   0  0  0  0  0  0  0  0  0  0  0  0
    1.6399    7.7585    3.8171 N   0  0  0  0  0  0  0  0  0  0  0  0
    1.3111    9.0978    3.3923 C   0  0  0  0  0  0  0  0  0  0  0  0
    2.5990    6.9410    3.2722 C   0  0  0  0  0  0  0  0  0  0  0  0
    3.4545    7.0820    2.1689 C   0  0  0  0  0  0  0  0  0  0  0  0
    4.3629    3.7618   -0.2144 C   0  0  0  0  0  0  0  0  0  0  0  0
    3.1291    3.5371    0.4244 C   0  0  0  0  0  0  0  0  0  0  0  0
    2.5823    2.2599    0.6124 C   0  0  0  0  0  0  0  0  0  0  0  0
    1.5804    2.3220    1.5322 O   0  0  0  0  0  0  0  0  0  0  0  0
    0.9337    1.1741    2.0371 C   0  0  0  0  0  0  0  0  0  0  0  0
    3.4831   -1.8990    0.6248 H   0  0  0  0  0  0  0  0  0  0  0  0
    4.6853   -0.8082   -0.0252 H   0  0  0  0  0  0  0  0  0  0  0  0
    3.4913   -1.5714   -1.1234 H   0  0  0  0  0  0  0  0  0  0  0  0
    4.6655    0.6860   -1.5583 H   0  0  0  0  0  0  0  0  0  0  0  0
    7.5882    3.9850   -2.2680 H   0  0  0  0  0  0  0  0  0  0  0  0
    6.9076    5.9429   -0.8943 H   0  0  0  0  0  0  0  0  0  0  0  0
    5.0398    4.0673    2.4808 H   0  0  0  0  0  0  0  0  0  0  0  0
    3.4471    3.8226    4.3377 H   0  0  0  0  0  0  0  0  0  0  0  0
    1.4722    4.1781    5.9607 H   0  0  0  0  0  0  0  0  0  0  0  0
    0.3116    5.3418    6.4758 H   0  0  0  0  0  0  0  0  0  0  0  0
    0.5564    9.5197    4.0619 H   0  0  0  0  0  0  0  0  0  0  0  0
    0.9206    9.0503    2.3733 H   0  0  0  0  0  0  0  0  0  0  0  0
    2.2183    9.7060    3.4319 H   0  0  0  0  0  0  0  0  0  0  0  0
    3.4289    7.9659    1.5397 H   0  0  0  0  0  0  0  0  0  0  0  0
    2.6044    4.3584    0.9035 H   0  0  0  0  0  0  0  0  0  0  0  0
    0.4404    1.4775    2.9698 H   0  0  0  0  0  0  0  0  0  0  0  0
    1.6163    0.3603    2.2912 H   0  0  0  0  0  0  0  0  0  0  0  0
    0.1517    0.8610    1.3425 H   0  0  0  0  0  0  0  0  0  0  0  0
  1  2  1  0  0  0  0
  1 27  1  0  0  0  0
  1 28  1  0  0  0  0
  1 29  1  0  0  0  0
  2  3  1  0  0  0  0
  3  4  1  0  0  0  0
  3 24  2  0  0  0  0
  4  5  2  0  0  0  0
  4 30  1  0  0  0  0
  5  6  1  0  0  0  0
  5 22  1  0  0  0  0
  6  7  2  0  0  0  0
  7  8  1  0  0  0  0
  7 31  1  0  0  0  0
  8  9  2  0  0  0  0
  8 32  1  0  0  0  0
  9 10  1  0  0  0  0
  9 22  1  0  0  0  0
 10 11  1  0  0  0  0
 11 12  1  0  0  0  0
 11 21  2  0  0  0  0
 12 13  2  0  0  0  0
 12 33  1  0  0  0  0
 13 14  1  0  0  0  0
 13 34  1  0  0  0  0
 14 15  1  0  0  0  0
 14 20  2  0  0  0  0
 15 16  1  0  0  0  0
 15 17  2  0  0  0  0
 16 35  1  0  0  0  0
 16 36  1  0  0  0  0
 17 18  1  0  0  0  0
 18 19  1  0  0  0  0
 18 20  1  0  0  0  0
 19 37  1  0  0  0  0
 19 38  1  0  0  0  0
 19 39  1  0  0  0  0
 20 21  1  0  0  0  0
 21 40  1  0  0  0  0
 22 23  2  0  0  0  0
 23 24  1  0  0  0  0
 23 41  1  0  0  0  0
 24 25  1  0  0  0  0
 25 26  1  0  0  0  0
 26 42  1  0  0  0  0
 26 43  1  0  0  0  0
 26 44  1  0  0  0  0
M  END
$$$$
