CHEMBL3690579
 OpenBabel04072215373D

 51 54  0  0  0  0  0  0  0  0999 V2000
   -0.2171   -1.3651    2.2798 N   0  0  0  0  0  0  0  0  0  0  0  0
   -0.3430   -0.7344    1.0509 C   0  0  0  0  0  0  0  0  0  0  0  0
   -0.8007    0.5355    1.1175 N   0  0  0  0  0  0  0  0  0  0  0  0
   -1.0457    1.2123   -0.0348 C   0  0  0  0  0  0  0  0  0  0  0  0
   -1.6755    2.5578    0.0998 C   0  0  0  0  0  0  0  0  0  0  0  0
   -2.6071    2.8645    1.1936 C   0  0  0  0  0  0  0  0  0  0  0  0
   -3.2444    4.0482    1.2333 C   0  0  0  0  0  0  0  0  0  0  0  0
   -2.9801    5.0193    0.2615 N   0  0  0  0  0  0  0  0  0  0  0  0
   -3.4537    6.3245    0.0893 C   0  0  0  0  0  0  0  0  0  0  0  0
   -4.3125    7.1052    0.9994 C   0  0  0  0  0  0  0  0  0  0  0  0
   -4.2409    6.9174    2.3830 C   0  0  0  0  0  0  0  0  0  0  0  0
   -5.0283    7.6647    3.2507 C   0  0  0  0  0  0  0  0  0  0  0  0
   -5.8475    8.6732    2.7536 C   0  0  0  0  0  0  0  0  0  0  0  0
   -5.8914    8.9556    1.3887 C   0  0  0  0  0  0  0  0  0  0  0  0
   -6.6365   10.0436    0.8578 N   0  0  0  0  0  0  0  0  0  0  0  0
   -7.3035   11.0002    1.5951 C   0  0  0  0  0  0  0  0  0  0  0  0
   -7.3705   11.0842    2.8171 O   0  0  0  0  0  0  0  0  0  0  0  0
   -7.9809   11.9080    0.8118 N   0  0  0  0  0  0  0  0  0  0  0  0
   -8.7279   12.9814    1.4890 C   0  0  0  0  0  0  0  0  0  0  0  0
   -7.9029   14.1758    1.9925 C   0  0  0  0  0  0  0  0  0  0  0  0
   -6.6148   14.1177    1.5833 F   0  0  0  0  0  0  0  0  0  0  0  0
   -8.4170   15.3305    1.4952 F   0  0  0  0  0  0  0  0  0  0  0  0
   -7.9149   14.2831    3.3373 F   0  0  0  0  0  0  0  0  0  0  0  0
   -5.1511    8.1379    0.5135 C   0  0  0  0  0  0  0  0  0  0  0  0
   -2.8699    6.7278   -1.1032 C   0  0  0  0  0  0  0  0  0  0  0  0
   -2.0386    5.7799   -1.6304 N   0  0  0  0  0  0  0  0  0  0  0  0
   -2.0931    4.7732   -0.7850 C   0  0  0  0  0  0  0  0  0  0  0  0
   -1.4244    3.5158   -0.8260 C   0  0  0  0  0  0  0  0  0  0  0  0
   -0.8321    0.6317   -1.2785 C   0  0  0  0  0  0  0  0  0  0  0  0
   -0.3599   -0.6718   -1.3344 C   0  0  0  0  0  0  0  0  0  0  0  0
   -0.1223   -1.3878   -0.1539 C   0  0  0  0  0  0  0  0  0  0  0  0
    0.3298   -2.8122   -0.2571 C   0  0  0  0  0  0  0  0  0  0  0  0
    0.6277   -3.4268    0.9213 F   0  0  0  0  0  0  0  0  0  0  0  0
   -0.5928   -3.6056   -0.8727 F   0  0  0  0  0  0  0  0  0  0  0  0
    1.4631   -2.9269   -1.0115 F   0  0  0  0  0  0  0  0  0  0  0  0
   -0.3474   -0.6758    3.0160 H   0  0  0  0  0  0  0  0  0  0  0  0
    0.6301   -1.9106    2.3971 H   0  0  0  0  0  0  0  0  0  0  0  0
   -2.7785    2.1055    1.9520 H   0  0  0  0  0  0  0  0  0  0  0  0
   -3.9668    4.2686    2.0056 H   0  0  0  0  0  0  0  0  0  0  0  0
   -3.5472    6.2107    2.8263 H   0  0  0  0  0  0  0  0  0  0  0  0
   -4.9826    7.4884    4.3215 H   0  0  0  0  0  0  0  0  0  0  0  0
   -6.4246    9.2332    3.4817 H   0  0  0  0  0  0  0  0  0  0  0  0
   -6.6363   10.1511   -0.1452 H   0  0  0  0  0  0  0  0  0  0  0  0
   -7.5813   12.1238   -0.0902 H   0  0  0  0  0  0  0  0  0  0  0  0
   -9.2714   12.5455    2.3357 H   0  0  0  0  0  0  0  0  0  0  0  0
   -9.4789   13.3283    0.7737 H   0  0  0  0  0  0  0  0  0  0  0  0
   -5.2015    8.3215   -0.5578 H   0  0  0  0  0  0  0  0  0  0  0  0
   -2.9814    7.6846   -1.5968 H   0  0  0  0  0  0  0  0  0  0  0  0
   -0.7365    3.3709   -1.6483 H   0  0  0  0  0  0  0  0  0  0  0  0
   -1.0651    1.1510   -2.2025 H   0  0  0  0  0  0  0  0  0  0  0  0
   -0.2067   -1.1445   -2.3044 H   0  0  0  0  0  0  0  0  0  0  0  0
  1  2  1  0  0  0  0
  1 36  1  0  0  0  0
  1 37  1  0  0  0  0
  2  3  1  0  0  0  0
  2 31  2  0  0  0  0
  3  4  2  0  0  0  0
  4  5  1  0  0  0  0
  4 29  1  0  0  0  0
  5  6  1  0  0  0  0
  5 28  2  0  0  0  0
  6  7  2  0  0  0  0
  6 38  1  0  0  0  0
  7  8  1  0  0  0  0
  7 39  1  0  0  0  0
  8  9  1  0  0  0  0
  8 27  1  0  0  0  0
  9 10  1  0  0  0  0
  9 25  2  0  0  0  0
 10 11  1  0  0  0  0
 10 24  2  0  0  0  0
 11 12  2  0  0  0  0
 11 40  1  0  0  0  0
 12 13  1  0  0  0  0
 12 41  1  0  0  0  0
 13 14  2  0  0  0  0
 13 42  1  0  0  0  0
 14 15  1  0  0  0  0
 14 24  1  0  0  0  0
 15 16  1  0  0  0  0
 15 43  1  0  0  0  0
 16 17  2  0  0  0  0
 16 18  1  0  0  0  0
 18 19  1  0  0  0  0
 18 44  1  0  0  0  0
 19 20  1  0  0  0  0
 19 45  1  0  0  0  0
 19 46  1  0  0  0  0
 20 21  1  0  0  0  0
 20 22  1  0  0  0  0
 20 23  1  0  0  0  0
 24 47  1  0  0  0  0
 25 26  1  0  0  0  0
 25 48  1  0  0  0  0
 26 27  2  0  0  0  0
 27 28  1  0  0  0  0
 28 49  1  0  0  0  0
 29 30  2  0  0  0  0
 29 50  1  0  0  0  0
 30 31  1  0  0  0  0
 30 51  1  0  0  0  0
 31 32  1  0  0  0  0
 32 33  1  0  0  0  0
 32 34  1  0  0  0  0
 32 35  1  0  0  0  0
M  END
$$$$
