CHEMBL3901612
 OpenBabel04072215373D

 62 65  0  0  0  0  0  0  0  0999 V2000
    1.2776   -1.5285   -1.8780 C   0  0  0  0  0  0  0  0  0  0  0  0
    2.5743   -1.1187   -1.4064 N   0  0  0  0  0  0  0  0  0  0  0  0
    3.5180   -0.6152   -2.2820 C   0  0  0  0  0  0  0  0  0  0  0  0
    3.3200   -0.4864   -3.4847 O   0  0  0  0  0  0  0  0  0  0  0  0
    4.8151   -0.2023   -1.6893 C   0  0  0  0  0  0  0  0  0  0  0  0
    5.3269   -0.8531   -0.5692 C   0  0  0  0  0  0  0  0  0  0  0  0
    6.5545   -0.4498   -0.0779 C   0  0  0  0  0  0  0  0  0  0  0  0
    7.0569   -1.0590    1.0056 F   0  0  0  0  0  0  0  0  0  0  0  0
    7.2767    0.5851   -0.6738 C   0  0  0  0  0  0  0  0  0  0  0  0
    6.7870    1.2788   -1.7877 C   0  0  0  0  0  0  0  0  0  0  0  0
    7.4579    2.3857   -2.3614 N   0  0  0  0  0  0  0  0  0  0  0  0
    8.9487    2.3915   -2.4095 C   0  0  0  0  0  0  0  0  0  0  0  0
    9.5897    3.7186   -1.9028 C   0  0  0  0  0  0  0  0  0  0  0  0
    9.3742    4.0670   -0.4938 N   0  0  0  0  0  0  0  0  0  0  0  0
   10.0016    3.1621    0.4706 C   0  0  0  0  0  0  0  0  0  0  0  0
   11.5054    2.9952    0.2615 C   0  0  0  0  0  0  0  0  0  0  0  0
    9.7109    3.6825    1.8767 C   0  0  0  0  0  0  0  0  0  0  0  0
    6.8310    3.4974   -2.9907 C   0  0  0  0  0  0  0  0  0  0  0  0
    7.3560    4.1000   -4.1409 C   0  0  0  0  0  0  0  0  0  0  0  0
    6.8354    5.3022   -4.6196 C   0  0  0  0  0  0  0  0  0  0  0  0
    5.7497    5.8975   -4.0125 C   0  0  0  0  0  0  0  0  0  0  0  0
    5.2941    7.0635   -4.5014 N   0  0  0  0  0  0  0  0  0  0  0  0
    4.2067    7.5761   -3.8869 C   0  0  0  0  0  0  0  0  0  0  0  0
    3.5810    6.9601   -2.8130 C   0  0  0  0  0  0  0  0  0  0  0  0
    2.3605    7.4949   -2.2415 C   0  0  0  0  0  0  0  0  0  0  0  0
    1.5766    8.6114   -2.6085 C   0  0  0  0  0  0  0  0  0  0  0  0
    0.4748    8.7385   -1.8671 N   0  0  0  0  0  0  0  0  0  0  0  0
    0.5417    7.6910   -1.0263 N   0  0  0  0  0  0  0  0  0  0  0  0
   -0.5409    7.4335   -0.1073 C   0  0  0  0  0  0  0  0  0  0  0  0
    1.6632    6.9318   -1.1895 C   0  0  0  0  0  0  0  0  0  0  0  0
    4.0607    5.8002   -2.2972 N   0  0  0  0  0  0  0  0  0  0  0  0
    5.1433    5.2682   -2.8964 C   0  0  0  0  0  0  0  0  0  0  0  0
    5.6985    4.0883   -2.4096 C   0  0  0  0  0  0  0  0  0  0  0  0
    5.5456    0.8404   -2.2944 C   0  0  0  0  0  0  0  0  0  0  0  0
    0.6831   -1.8611   -1.0239 H   0  0  0  0  0  0  0  0  0  0  0  0
    1.3959   -2.3489   -2.5914 H   0  0  0  0  0  0  0  0  0  0  0  0
    0.7859   -0.6855   -2.3713 H   0  0  0  0  0  0  0  0  0  0  0  0
    2.7132   -1.0246   -0.4094 H   0  0  0  0  0  0  0  0  0  0  0  0
    4.8149   -1.6793   -0.0915 H   0  0  0  0  0  0  0  0  0  0  0  0
    8.2153    0.8376   -0.2090 H   0  0  0  0  0  0  0  0  0  0  0  0
    9.2727    2.2184   -3.4439 H   0  0  0  0  0  0  0  0  0  0  0  0
    9.3875    1.5557   -1.8551 H   0  0  0  0  0  0  0  0  0  0  0  0
    9.2152    4.5725   -2.4762 H   0  0  0  0  0  0  0  0  0  0  0  0
   10.6593    3.7121   -2.1363 H   0  0  0  0  0  0  0  0  0  0  0  0
    8.3659    4.1066   -0.3260 H   0  0  0  0  0  0  0  0  0  0  0  0
    9.5465    2.1767    0.3979 H   0  0  0  0  0  0  0  0  0  0  0  0
   12.0238    3.9592    0.2824 H   0  0  0  0  0  0  0  0  0  0  0  0
   11.7266    2.5056   -0.6929 H   0  0  0  0  0  0  0  0  0  0  0  0
   11.9317    2.3587    1.0436 H   0  0  0  0  0  0  0  0  0  0  0  0
   10.1601    4.6677    2.0423 H   0  0  0  0  0  0  0  0  0  0  0  0
   10.1130    2.9947    2.6285 H   0  0  0  0  0  0  0  0  0  0  0  0
    8.6321    3.7648    2.0522 H   0  0  0  0  0  0  0  0  0  0  0  0
    8.2067    3.6748   -4.6650 H   0  0  0  0  0  0  0  0  0  0  0  0
    7.2982    5.7863   -5.4760 H   0  0  0  0  0  0  0  0  0  0  0  0
    3.8475    8.5072   -4.3128 H   0  0  0  0  0  0  0  0  0  0  0  0
    1.7494    9.3342   -3.3956 H   0  0  0  0  0  0  0  0  0  0  0  0
   -1.2822    8.2328   -0.1837 H   0  0  0  0  0  0  0  0  0  0  0  0
   -0.1337    7.3948    0.9050 H   0  0  0  0  0  0  0  0  0  0  0  0
   -0.9954    6.4772   -0.3781 H   0  0  0  0  0  0  0  0  0  0  0  0
    1.8578    6.0585   -0.5839 H   0  0  0  0  0  0  0  0  0  0  0  0
    5.2568    3.6552   -1.5172 H   0  0  0  0  0  0  0  0  0  0  0  0
    5.1321    1.3083   -3.1893 H   0  0  0  0  0  0  0  0  0  0  0  0
  1  2  1  0  0  0  0
  1 35  1  0  0  0  0
  1 36  1  0  0  0  0
  1 37  1  0  0  0  0
  2  3  1  0  0  0  0
  2 38  1  0  0  0  0
  3  4  2  0  0  0  0
  3  5  1  0  0  0  0
  5  6  1  0  0  0  0
  5 34  2  0  0  0  0
  6  7  2  0  0  0  0
  6 39  1  0  0  0  0
  7  8  1  0  0  0  0
  7  9  1  0  0  0  0
  9 10  2  0  0  0  0
  9 40  1  0  0  0  0
 10 11  1  0  0  0  0
 10 34  1  0  0  0  0
 11 12  1  0  0  0  0
 11 18  1  0  0  0  0
 12 13  1  0  0  0  0
 12 41  1  0  0  0  0
 12 42  1  0  0  0  0
 13 14  1  0  0  0  0
 13 43  1  0  0  0  0
 13 44  1  0  0  0  0
 14 15  1  0  0  0  0
 14 45  1  0  0  0  0
 15 16  1  0  0  0  0
 15 17  1  0  0  0  0
 15 46  1  0  0  0  0
 16 47  1  0  0  0  0
 16 48  1  0  0  0  0
 16 49  1  0  0  0  0
 17 50  1  0  0  0  0
 17 51  1  0  0  0  0
 17 52  1  0  0  0  0
 18 19  1  0  0  0  0
 18 33  2  0  0  0  0
 19 20  2  0  0  0  0
 19 53  1  0  0  0  0
 20 21  1  0  0  0  0
 20 54  1  0  0  0  0
 21 22  1  0  0  0  0
 21 32  2  0  0  0  0
 22 23  2  0  0  0  0
 23 24  1  0  0  0  0
 23 55  1  0  0  0  0
 24 25  1  0  0  0  0
 24 31  2  0  0  0  0
 25 26  1  0  0  0  0
 25 30  2  0  0  0  0
 26 27  2  0  0  0  0
 26 56  1  0  0  0  0
 27 28  1  0  0  0  0
 28 29  1  0  0  0  0
 28 30  1  0  0  0  0
 29 57  1  0  0  0  0
 29 58  1  0  0  0  0
 29 59  1  0  0  0  0
 30 60  1  0  0  0  0
 31 32  1  0  0  0  0
 32 33  1  0  0  0  0
 33 61  1  0  0  0  0
 34 62  1  0  0  0  0
M  END
$$$$
