CHEMBL4227378
 OpenBabel04072215383D

 63 65  0  0  0  0  0  0  0  0999 V2000
    8.3098   -4.7292   -6.0011 C   0  0  0  0  0  0  0  0  0  0  0  0
    8.7198   -3.5987   -6.7712 O   0  0  0  0  0  0  0  0  0  0  0  0
    8.1313   -2.4421   -6.3772 C   0  0  0  0  0  0  0  0  0  0  0  0
    7.3391   -2.3088   -5.4576 O   0  0  0  0  0  0  0  0  0  0  0  0
    8.6164   -1.3490   -7.2465 C   0  0  0  0  0  0  0  0  0  0  0  0
    8.1782   -0.0786   -7.1305 C   0  0  0  0  0  0  0  0  0  0  0  0
    8.7842    0.9714   -8.0364 C   0  0  0  0  0  0  0  0  0  0  0  0
    7.2657    0.3285   -6.1661 N   0  0  0  0  0  0  0  0  0  0  0  0
    6.7044    1.5561   -5.9213 C   0  0  0  0  0  0  0  0  0  0  0  0
    6.0886    2.3566   -6.7938 C   0  0  0  0  0  0  0  0  0  0  0  0
    5.5222    3.6598   -6.3641 C   0  0  0  0  0  0  0  0  0  0  0  0
    5.5860    4.0574   -5.2063 O   0  0  0  0  0  0  0  0  0  0  0  0
    4.8194    4.4610   -7.3992 C   0  0  0  0  0  0  0  0  0  0  0  0
    3.7802    5.2991   -6.9937 C   0  0  0  0  0  0  0  0  0  0  0  0
    3.0591    6.0147   -7.9500 C   0  0  0  0  0  0  0  0  0  0  0  0
    3.3857    5.9363   -9.3155 C   0  0  0  0  0  0  0  0  0  0  0  0
    2.6312    6.7602  -10.1635 N   0  0  0  0  0  0  0  0  0  0  0  0
    2.8038    7.2298  -11.4497 C   0  0  0  0  0  0  0  0  0  0  0  0
    3.6419    6.5628  -12.7241 S   0  0  0  0  0  0  0  0  0  0  0  0
    2.1059    8.4099  -11.6814 N   0  0  0  0  0  0  0  0  0  0  0  0
    1.7973    9.4007  -10.7177 C   0  0  0  0  0  0  0  0  0  0  0  0
    2.5700    9.5524   -9.5589 C   0  0  0  0  0  0  0  0  0  0  0  0
    2.1669   10.4086   -8.5348 C   0  0  0  0  0  0  0  0  0  0  0  0
    1.0015   11.1530   -8.6993 C   0  0  0  0  0  0  0  0  0  0  0  0
    0.3844   12.1000   -7.3189 S   0  0  0  0  0  0  0  0  0  0  0  0
   -1.0365   12.2945   -7.5180 O   0  0  0  0  0  0  0  0  0  0  0  0
    0.8872   11.4643   -6.1184 O   0  0  0  0  0  0  0  0  0  0  0  0
    1.1761   13.5781   -7.4506 N   0  0  0  0  0  0  0  0  0  0  0  0
    0.9166   14.3093   -8.6219 C   0  0  0  0  0  0  0  0  0  0  0  0
   -0.2266   15.0722   -8.7827 C   0  0  0  0  0  0  0  0  0  0  0  0
   -0.3664   15.7814   -9.9713 C   0  0  0  0  0  0  0  0  0  0  0  0
    0.6184   15.6713  -10.9488 C   0  0  0  0  0  0  0  0  0  0  0  0
    1.7083   14.8524  -10.6950 C   0  0  0  0  0  0  0  0  0  0  0  0
    1.8832   14.1695   -9.5430 N   0  0  0  0  0  0  0  0  0  0  0  0
    0.2667   11.0743   -9.8903 C   0  0  0  0  0  0  0  0  0  0  0  0
    0.6799   10.2102  -10.9144 C   0  0  0  0  0  0  0  0  0  0  0  0
    4.4470    5.1316   -9.7077 C   0  0  0  0  0  0  0  0  0  0  0  0
    5.1604    4.3972   -8.7548 C   0  0  0  0  0  0  0  0  0  0  0  0
    8.8599   -5.6036   -6.3588 H   0  0  0  0  0  0  0  0  0  0  0  0
    7.2392   -4.9123   -6.1375 H   0  0  0  0  0  0  0  0  0  0  0  0
    8.5449   -4.5820   -4.9418 H   0  0  0  0  0  0  0  0  0  0  0  0
    9.3600   -1.6256   -7.9849 H   0  0  0  0  0  0  0  0  0  0  0  0
    9.5578    0.5574   -8.6929 H   0  0  0  0  0  0  0  0  0  0  0  0
    9.2581    1.7596   -7.4406 H   0  0  0  0  0  0  0  0  0  0  0  0
    8.0264    1.4226   -8.6831 H   0  0  0  0  0  0  0  0  0  0  0  0
    7.0817   -0.3744   -5.4392 H   0  0  0  0  0  0  0  0  0  0  0  0
    6.7512    1.8215   -4.8652 H   0  0  0  0  0  0  0  0  0  0  0  0
    5.9405    2.0268   -7.8119 H   0  0  0  0  0  0  0  0  0  0  0  0
    3.5251    5.3956   -5.9398 H   0  0  0  0  0  0  0  0  0  0  0  0
    2.2608    6.6694   -7.6033 H   0  0  0  0  0  0  0  0  0  0  0  0
    1.8388    7.1964   -9.7070 H   0  0  0  0  0  0  0  0  0  0  0  0
    1.8576    8.5922  -12.6477 H   0  0  0  0  0  0  0  0  0  0  0  0
    3.4976    8.9985   -9.4264 H   0  0  0  0  0  0  0  0  0  0  0  0
    2.7509   10.4572   -7.6216 H   0  0  0  0  0  0  0  0  0  0  0  0
    2.1804   13.4515   -7.3323 H   0  0  0  0  0  0  0  0  0  0  0  0
   -0.9744   15.1363   -7.9998 H   0  0  0  0  0  0  0  0  0  0  0  0
   -1.2310   16.4202  -10.1307 H   0  0  0  0  0  0  0  0  0  0  0  0
    0.5409   16.2137  -11.8850 H   0  0  0  0  0  0  0  0  0  0  0  0
    2.4958   14.7245  -11.4327 H   0  0  0  0  0  0  0  0  0  0  0  0
   -0.6436   11.6535  -10.0142 H   0  0  0  0  0  0  0  0  0  0  0  0
    0.0777   10.1299  -11.8152 H   0  0  0  0  0  0  0  0  0  0  0  0
    4.7457    5.0311  -10.7423 H   0  0  0  0  0  0  0  0  0  0  0  0
    5.9939    3.7928   -9.1028 H   0  0  0  0  0  0  0  0  0  0  0  0
  1  2  1  0  0  0  0
  1 39  1  0  0  0  0
  1 40  1  0  0  0  0
  1 41  1  0  0  0  0
  2  3  1  0  0  0  0
  3  4  2  0  0  0  0
  3  5  1  0  0  0  0
  5  6  2  0  0  0  0
  5 42  1  0  0  0  0
  6  7  1  0  0  0  0
  6  8  1  0  0  0  0
  7 43  1  0  0  0  0
  7 44  1  0  0  0  0
  7 45  1  0  0  0  0
  8  9  1  0  0  0  0
  8 46  1  0  0  0  0
  9 10  2  0  0  0  0
  9 47  1  0  0  0  0
 10 11  1  0  0  0  0
 10 48  1  0  0  0  0
 11 12  2  0  0  0  0
 11 13  1  0  0  0  0
 13 14  1  0  0  0  0
 13 38  2  0  0  0  0
 14 15  2  0  0  0  0
 14 49  1  0  0  0  0
 15 16  1  0  0  0  0
 15 50  1  0  0  0  0
 16 17  1  0  0  0  0
 16 37  2  0  0  0  0
 17 18  1  0  0  0  0
 17 51  1  0  0  0  0
 18 19  2  0  0  0  0
 18 20  1  0  0  0  0
 20 21  1  0  0  0  0
 20 52  1  0  0  0  0
 21 22  1  0  0  0  0
 21 36  2  0  0  0  0
 22 23  2  0  0  0  0
 22 53  1  0  0  0  0
 23 24  1  0  0  0  0
 23 54  1  0  0  0  0
 24 25  1  0  0  0  0
 24 35  2  0  0  0  0
 25 26  2  0  0  0  0
 25 27  2  0  0  0  0
 25 28  1  0  0  0  0
 28 29  1  0  0  0  0
 28 55  1  0  0  0  0
 29 30  1  0  0  0  0
 29 34  2  0  0  0  0
 30 31  2  0  0  0  0
 30 56  1  0  0  0  0
 31 32  1  0  0  0  0
 31 57  1  0  0  0  0
 32 33  2  0  0  0  0
 32 58  1  0  0  0  0
 33 34  1  0  0  0  0
 33 59  1  0  0  0  0
 35 36  1  0  0  0  0
 35 60  1  0  0  0  0
 36 61  1  0  0  0  0
 37 38  1  0  0  0  0
 37 62  1  0  0  0  0
 38 63  1  0  0  0  0
M  END
$$$$
