CHEMBL270745
 OpenBabel04072215363D

 55 59  0  0  0  0  0  0  0  0999 V2000
    5.1843   -0.0958   -2.1583 C   0  0  0  0  0  0  0  0  0  0  0  0
    4.0911   -0.5930   -1.3854 O   0  0  0  0  0  0  0  0  0  0  0  0
    4.4184   -1.2521   -0.2317 C   0  0  0  0  0  0  0  0  0  0  0  0
    5.6105   -0.9943    0.4659 C   0  0  0  0  0  0  0  0  0  0  0  0
    6.0432   -1.7793    1.5266 C   0  0  0  0  0  0  0  0  0  0  0  0
    7.2663   -1.5414    2.0289 N   0  0  0  0  0  0  0  0  0  0  0  0
    7.7406   -2.3687    2.9800 C   0  0  0  0  0  0  0  0  0  0  0  0
    7.0587   -3.4726    3.4396 C   0  0  0  0  0  0  0  0  0  0  0  0
    5.7867   -3.7306    2.9208 C   0  0  0  0  0  0  0  0  0  0  0  0
    5.2447   -4.9121    3.4009 O   0  0  0  0  0  0  0  0  0  0  0  0
    4.3424   -5.6377    2.6588 C   0  0  0  0  0  0  0  0  0  0  0  0
    4.3986   -5.7857    1.2816 C   0  0  0  0  0  0  0  0  0  0  0  0
    3.2522   -6.2222    0.6036 C   0  0  0  0  0  0  0  0  0  0  0  0
    2.0942   -6.6694    1.3021 C   0  0  0  0  0  0  0  0  0  0  0  0
    0.8375   -7.0313    0.7437 C   0  0  0  0  0  0  0  0  0  0  0  0
    0.4173   -6.8138   -0.6754 C   0  0  0  0  0  0  0  0  0  0  0  0
   -0.7259   -6.4040   -0.8586 O   0  0  0  0  0  0  0  0  0  0  0  0
    1.3118   -7.1661   -1.6670 N   0  0  0  0  0  0  0  0  0  0  0  0
    1.0909   -7.0825   -3.0632 C   0  0  0  0  0  0  0  0  0  0  0  0
   -0.0355   -6.4918   -3.6479 C   0  0  0  0  0  0  0  0  0  0  0  0
   -0.2217   -6.5227   -5.0348 C   0  0  0  0  0  0  0  0  0  0  0  0
    0.7267   -7.1339   -5.8478 C   0  0  0  0  0  0  0  0  0  0  0  0
    0.4789   -7.2167   -7.5479 Cl  0  0  0  0  0  0  0  0  0  0  0  0
    1.8746   -7.6873   -5.2867 C   0  0  0  0  0  0  0  0  0  0  0  0
    2.0585   -7.6548   -3.9002 C   0  0  0  0  0  0  0  0  0  0  0  0
   -0.1906   -7.5023    1.5712 C   0  0  0  0  0  0  0  0  0  0  0  0
    0.0381   -7.5831    2.9233 C   0  0  0  0  0  0  0  0  0  0  0  0
    1.1879   -7.1929    3.4973 N   0  0  0  0  0  0  0  0  0  0  0  0
    2.1731   -6.7226    2.7162 C   0  0  0  0  0  0  0  0  0  0  0  0
    3.2759   -6.1905    3.3635 C   0  0  0  0  0  0  0  0  0  0  0  0
    5.2137   -2.8181    1.9901 C   0  0  0  0  0  0  0  0  0  0  0  0
    3.9078   -2.8749    1.4558 C   0  0  0  0  0  0  0  0  0  0  0  0
    3.5365   -2.1914    0.2946 C   0  0  0  0  0  0  0  0  0  0  0  0
    2.3267   -2.6198   -0.1765 O   0  0  0  0  0  0  0  0  0  0  0  0
    1.9365   -2.3025   -1.5028 C   0  0  0  0  0  0  0  0  0  0  0  0
    4.9011   -0.1426   -3.2139 H   0  0  0  0  0  0  0  0  0  0  0  0
    6.1010   -0.6883   -2.0511 H   0  0  0  0  0  0  0  0  0  0  0  0
    5.3714    0.9491   -1.8944 H   0  0  0  0  0  0  0  0  0  0  0  0
    6.2688   -0.1876    0.1552 H   0  0  0  0  0  0  0  0  0  0  0  0
    8.7308   -2.1234    3.3533 H   0  0  0  0  0  0  0  0  0  0  0  0
    7.5081   -4.1323    4.1741 H   0  0  0  0  0  0  0  0  0  0  0  0
    5.2511   -5.4256    0.7104 H   0  0  0  0  0  0  0  0  0  0  0  0
    3.2668   -6.1278   -0.4792 H   0  0  0  0  0  0  0  0  0  0  0  0
    2.1559   -7.6421   -1.3803 H   0  0  0  0  0  0  0  0  0  0  0  0
   -0.8016   -6.0037   -3.0536 H   0  0  0  0  0  0  0  0  0  0  0  0
   -1.1170   -6.0800   -5.4668 H   0  0  0  0  0  0  0  0  0  0  0  0
    2.6225   -8.1594   -5.9194 H   0  0  0  0  0  0  0  0  0  0  0  0
    2.9573   -8.1031   -3.4862 H   0  0  0  0  0  0  0  0  0  0  0  0
   -1.1638   -7.7718    1.1704 H   0  0  0  0  0  0  0  0  0  0  0  0
   -0.7276   -7.9400    3.6055 H   0  0  0  0  0  0  0  0  0  0  0  0
    3.2689   -6.1385    4.4511 H   0  0  0  0  0  0  0  0  0  0  0  0
    3.1664   -3.5403    1.8895 H   0  0  0  0  0  0  0  0  0  0  0  0
    1.1237   -2.9864   -1.7742 H   0  0  0  0  0  0  0  0  0  0  0  0
    2.7368   -2.4623   -2.2319 H   0  0  0  0  0  0  0  0  0  0  0  0
    1.5413   -1.2846   -1.5440 H   0  0  0  0  0  0  0  0  0  0  0  0
  1  2  1  0  0  0  0
  1 36  1  0  0  0  0
  1 37  1  0  0  0  0
  1 38  1  0  0  0  0
  2  3  1  0  0  0  0
  3  4  1  0  0  0  0
  3 33  2  0  0  0  0
  4  5  2  0  0  0  0
  4 39  1  0  0  0  0
  5  6  1  0  0  0  0
  5 31  1  0  0  0  0
  6  7  2  0  0  0  0
  7  8  1  0  0  0  0
  7 40  1  0  0  0  0
  8  9  2  0  0  0  0
  8 41  1  0  0  0  0
  9 10  1  0  0  0  0
  9 31  1  0  0  0  0
 10 11  1  0  0  0  0
 11 12  1  0  0  0  0
 11 30  2  0  0  0  0
 12 13  2  0  0  0  0
 12 42  1  0  0  0  0
 13 14  1  0  0  0  0
 13 43  1  0  0  0  0
 14 15  1  0  0  0  0
 14 29  2  0  0  0  0
 15 16  1  0  0  0  0
 15 26  2  0  0  0  0
 16 17  2  0  0  0  0
 16 18  1  0  0  0  0
 18 19  1  0  0  0  0
 18 44  1  0  0  0  0
 19 20  1  0  0  0  0
 19 25  2  0  0  0  0
 20 21  2  0  0  0  0
 20 45  1  0  0  0  0
 21 22  1  0  0  0  0
 21 46  1  0  0  0  0
 22 23  1  0  0  0  0
 22 24  2  0  0  0  0
 24 25  1  0  0  0  0
 24 47  1  0  0  0  0
 25 48  1  0  0  0  0
 26 27  1  0  0  0  0
 26 49  1  0  0  0  0
 27 28  2  0  0  0  0
 27 50  1  0  0  0  0
 28 29  1  0  0  0  0
 29 30  1  0  0  0  0
 30 51  1  0  0  0  0
 31 32  2  0  0  0  0
 32 33  1  0  0  0  0
 32 52  1  0  0  0  0
 33 34  1  0  0  0  0
 34 35  1  0  0  0  0
 35 53  1  0  0  0  0
 35 54  1  0  0  0  0
 35 55  1  0  0  0  0
M  END
$$$$
