CHEMBL4225623
 OpenBabel04072215383D

 59 61  0  0  0  0  0  0  0  0999 V2000
    5.8909    2.5227    3.6965 C   0  0  0  0  0  0  0  0  0  0  0  0
    7.2938    1.9631    3.8573 C   0  0  0  0  0  0  0  0  0  0  0  0
    8.1661    2.6879    2.9761 O   0  0  0  0  0  0  0  0  0  0  0  0
    8.2643    2.1749    1.7216 C   0  0  0  0  0  0  0  0  0  0  0  0
    7.8826    1.0634    1.3863 O   0  0  0  0  0  0  0  0  0  0  0  0
    8.7654    3.1385    0.8848 N   0  0  0  0  0  0  0  0  0  0  0  0
    8.8421    2.9942   -0.4772 C   0  0  0  0  0  0  0  0  0  0  0  0
    9.1729    4.0002   -1.2949 C   0  0  0  0  0  0  0  0  0  0  0  0
    9.1985    3.7576   -2.7643 C   0  0  0  0  0  0  0  0  0  0  0  0
    9.2705    2.6295   -3.2376 O   0  0  0  0  0  0  0  0  0  0  0  0
    9.1898    4.9448   -3.6591 C   0  0  0  0  0  0  0  0  0  0  0  0
    9.8707    4.8679   -4.8785 C   0  0  0  0  0  0  0  0  0  0  0  0
    9.9232    5.9798   -5.7254 C   0  0  0  0  0  0  0  0  0  0  0  0
    9.2603    7.1647   -5.3831 C   0  0  0  0  0  0  0  0  0  0  0  0
    9.4549    8.2884   -6.2063 N   0  0  0  0  0  0  0  0  0  0  0  0
    8.7391    9.4637   -6.2950 C   0  0  0  0  0  0  0  0  0  0  0  0
    7.0773    9.6176   -6.2217 S   0  0  0  0  0  0  0  0  0  0  0  0
    9.4980   10.5688   -6.6266 N   0  0  0  0  0  0  0  0  0  0  0  0
   10.8524   10.7785   -6.2944 C   0  0  0  0  0  0  0  0  0  0  0  0
   11.6390   11.5990   -7.1057 C   0  0  0  0  0  0  0  0  0  0  0  0
   13.0104   11.7293   -6.8435 C   0  0  0  0  0  0  0  0  0  0  0  0
   13.5704   11.0892   -5.7290 C   0  0  0  0  0  0  0  0  0  0  0  0
   15.3328   11.1069   -5.4585 S   0  0  0  0  0  0  0  0  0  0  0  0
   15.6709    9.9462   -4.6604 O   0  0  0  0  0  0  0  0  0  0  0  0
   15.9539   11.3237   -6.7518 O   0  0  0  0  0  0  0  0  0  0  0  0
   15.6102   12.4992   -4.5590 N   0  0  0  0  0  0  0  0  0  0  0  0
   14.9758   12.5799   -3.3080 C   0  0  0  0  0  0  0  0  0  0  0  0
   15.4761   11.9686   -2.1704 C   0  0  0  0  0  0  0  0  0  0  0  0
   14.7896   12.1670   -0.9755 C   0  0  0  0  0  0  0  0  0  0  0  0
   13.6293   12.9354   -0.9796 C   0  0  0  0  0  0  0  0  0  0  0  0
   13.2008   13.4752   -2.1821 C   0  0  0  0  0  0  0  0  0  0  0  0
   13.8558   13.3200   -3.3522 N   0  0  0  0  0  0  0  0  0  0  0  0
   12.7687   10.3294   -4.8779 C   0  0  0  0  0  0  0  0  0  0  0  0
   11.4156   10.1849   -5.1587 C   0  0  0  0  0  0  0  0  0  0  0  0
    8.5490    7.2254   -4.1843 C   0  0  0  0  0  0  0  0  0  0  0  0
    8.5119    6.1223   -3.3235 C   0  0  0  0  0  0  0  0  0  0  0  0
    5.1770    1.9990    4.3367 H   0  0  0  0  0  0  0  0  0  0  0  0
    5.5565    2.4444    2.6563 H   0  0  0  0  0  0  0  0  0  0  0  0
    5.8785    3.5886    3.9491 H   0  0  0  0  0  0  0  0  0  0  0  0
    7.3166    0.8835    3.6691 H   0  0  0  0  0  0  0  0  0  0  0  0
    7.6459    2.1204    4.8818 H   0  0  0  0  0  0  0  0  0  0  0  0
    8.9781    4.0222    1.3273 H   0  0  0  0  0  0  0  0  0  0  0  0
    8.5830    2.0085   -0.8667 H   0  0  0  0  0  0  0  0  0  0  0  0
    9.4150    4.9888   -0.9292 H   0  0  0  0  0  0  0  0  0  0  0  0
   10.3752    3.9464   -5.1667 H   0  0  0  0  0  0  0  0  0  0  0  0
   10.4774    5.9004   -6.6579 H   0  0  0  0  0  0  0  0  0  0  0  0
   10.2369    8.2363   -6.8500 H   0  0  0  0  0  0  0  0  0  0  0  0
    8.9925   11.3422   -7.0465 H   0  0  0  0  0  0  0  0  0  0  0  0
   11.2167   12.0804   -7.9838 H   0  0  0  0  0  0  0  0  0  0  0  0
   13.6339   12.3006   -7.5283 H   0  0  0  0  0  0  0  0  0  0  0  0
   15.3932   13.3239   -5.1171 H   0  0  0  0  0  0  0  0  0  0  0  0
   16.3886   11.3830   -2.2024 H   0  0  0  0  0  0  0  0  0  0  0  0
   15.1649   11.7405   -0.0498 H   0  0  0  0  0  0  0  0  0  0  0  0
   13.0755   13.1166   -0.0636 H   0  0  0  0  0  0  0  0  0  0  0  0
   12.2936   14.0714   -2.2354 H   0  0  0  0  0  0  0  0  0  0  0  0
   13.1903    9.8402   -4.0032 H   0  0  0  0  0  0  0  0  0  0  0  0
   10.8036    9.6174   -4.4622 H   0  0  0  0  0  0  0  0  0  0  0  0
    8.0579    8.1407   -3.8682 H   0  0  0  0  0  0  0  0  0  0  0  0
    7.9441    6.2047   -2.4018 H   0  0  0  0  0  0  0  0  0  0  0  0
  1  2  1  0  0  0  0
  1 37  1  0  0  0  0
  1 38  1  0  0  0  0
  1 39  1  0  0  0  0
  2  3  1  0  0  0  0
  2 40  1  0  0  0  0
  2 41  1  0  0  0  0
  3  4  1  0  0  0  0
  4  5  2  0  0  0  0
  4  6  1  0  0  0  0
  6  7  1  0  0  0  0
  6 42  1  0  0  0  0
  7  8  2  0  0  0  0
  7 43  1  0  0  0  0
  8  9  1  0  0  0  0
  8 44  1  0  0  0  0
  9 10  2  0  0  0  0
  9 11  1  0  0  0  0
 11 12  1  0  0  0  0
 11 36  2  0  0  0  0
 12 13  2  0  0  0  0
 12 45  1  0  0  0  0
 13 14  1  0  0  0  0
 13 46  1  0  0  0  0
 14 15  1  0  0  0  0
 14 35  2  0  0  0  0
 15 16  1  0  0  0  0
 15 47  1  0  0  0  0
 16 17  2  0  0  0  0
 16 18  1  0  0  0  0
 18 19  1  0  0  0  0
 18 48  1  0  0  0  0
 19 20  1  0  0  0  0
 19 34  2  0  0  0  0
 20 21  2  0  0  0  0
 20 49  1  0  0  0  0
 21 22  1  0  0  0  0
 21 50  1  0  0  0  0
 22 23  1  0  0  0  0
 22 33  2  0  0  0  0
 23 24  2  0  0  0  0
 23 25  2  0  0  0  0
 23 26  1  0  0  0  0
 26 27  1  0  0  0  0
 26 51  1  0  0  0  0
 27 28  1  0  0  0  0
 27 32  2  0  0  0  0
 28 29  2  0  0  0  0
 28 52  1  0  0  0  0
 29 30  1  0  0  0  0
 29 53  1  0  0  0  0
 30 31  2  0  0  0  0
 30 54  1  0  0  0  0
 31 32  1  0  0  0  0
 31 55  1  0  0  0  0
 33 34  1  0  0  0  0
 33 56  1  0  0  0  0
 34 57  1  0  0  0  0
 35 36  1  0  0  0  0
 35 58  1  0  0  0  0
 36 59  1  0  0  0  0
M  END
$$$$
