CHEMBL2385195
 OpenBabel04072215363D

 86 92  0  0  0  0  0  0  0  0999 V2000
    3.4583    0.9809    1.0572 C   0  0  0  0  0  0  0  0  0  0  0  0
    3.2319    1.3141   -0.3093 O   0  0  0  0  0  0  0  0  0  0  0  0
    3.7948    0.5379   -1.2830 C   0  0  0  0  0  0  0  0  0  0  0  0
    4.8767   -0.2997   -1.0412 C   0  0  0  0  0  0  0  0  0  0  0  0
    5.2849   -1.2779   -1.9670 C   0  0  0  0  0  0  0  0  0  0  0  0
    6.2319   -2.2845   -1.6685 C   0  0  0  0  0  0  0  0  0  0  0  0
    6.8504   -2.4358   -0.4421 O   0  0  0  0  0  0  0  0  0  0  0  0
    6.0969   -2.5873    0.7086 C   0  0  0  0  0  0  0  0  0  0  0  0
    4.7296   -2.8656    0.7418 C   0  0  0  0  0  0  0  0  0  0  0  0
    4.0386   -2.8761    1.9607 C   0  0  0  0  0  0  0  0  0  0  0  0
    4.7079   -2.6872    3.1696 C   0  0  0  0  0  0  0  0  0  0  0  0
    4.0546   -2.7359    4.4165 N   0  0  0  0  0  0  0  0  0  0  0  0
    2.6881   -2.6673    4.6332 C   0  0  0  0  0  0  0  0  0  0  0  0
    1.8305   -2.3678    3.8018 O   0  0  0  0  0  0  0  0  0  0  0  0
    2.2335   -2.9987    6.0537 C   0  0  0  0  0  0  0  0  0  0  0  0
    1.0178   -3.4393    6.2101 N   0  0  0  0  0  0  0  0  0  0  0  0
    0.5650   -3.9268    7.4107 N   0  0  0  0  0  0  0  0  0  0  0  0
   -0.8325   -4.2699    7.3905 C   0  0  0  0  0  0  0  0  0  0  0  0
   -1.6357   -3.9513    8.5158 C   0  0  0  0  0  0  0  0  0  0  0  0
   -2.9918   -4.2786    8.5951 C   0  0  0  0  0  0  0  0  0  0  0  0
   -3.6158   -4.8726    7.5142 C   0  0  0  0  0  0  0  0  0  0  0  0
   -2.8726   -5.1496    6.3710 C   0  0  0  0  0  0  0  0  0  0  0  0
   -1.4777   -4.8853    6.2923 C   0  0  0  0  0  0  0  0  0  0  0  0
   -0.8241   -5.3415    5.0025 C   0  0  0  0  0  0  0  0  0  0  0  0
    0.5318   -5.4307    4.9592 F   0  0  0  0  0  0  0  0  0  0  0  0
   -1.2369   -6.6119    4.6813 F   0  0  0  0  0  0  0  0  0  0  0  0
   -1.2029   -4.5806    3.9347 F   0  0  0  0  0  0  0  0  0  0  0  0
    1.4455   -3.9876    8.5415 C   0  0  0  0  0  0  0  0  0  0  0  0
    1.1108   -4.6347    9.7439 C   0  0  0  0  0  0  0  0  0  0  0  0
    1.9636   -4.6136   10.8602 C   0  0  0  0  0  0  0  0  0  0  0  0
    3.1956   -3.9773   10.7839 C   0  0  0  0  0  0  0  0  0  0  0  0
    3.5907   -3.3932    9.5902 C   0  0  0  0  0  0  0  0  0  0  0  0
    2.7172   -3.4152    8.4892 C   0  0  0  0  0  0  0  0  0  0  0  0
    3.1649   -2.8770    7.2171 C   0  0  0  0  0  0  0  0  0  0  0  0
    4.2757   -2.3927    7.0471 O   0  0  0  0  0  0  0  0  0  0  0  0
    6.0924   -2.4834    3.1467 C   0  0  0  0  0  0  0  0  0  0  0  0
    6.7678   -2.4174    1.9229 C   0  0  0  0  0  0  0  0  0  0  0  0
    8.0849   -2.1575    1.9313 F   0  0  0  0  0  0  0  0  0  0  0  0
    6.6401   -3.1686   -2.6597 C   0  0  0  0  0  0  0  0  0  0  0  0
    6.0412   -3.0689   -3.8966 C   0  0  0  0  0  0  0  0  0  0  0  0
    5.0739   -2.1731   -4.1946 N   0  0  0  0  0  0  0  0  0  0  0  0
    4.6956   -1.2970   -3.2465 C   0  0  0  0  0  0  0  0  0  0  0  0
    3.7077   -0.3555   -3.5303 C   0  0  0  0  0  0  0  0  0  0  0  0
    3.2630    0.5715   -2.5768 C   0  0  0  0  0  0  0  0  0  0  0  0
    2.3253    1.4654   -3.0378 O   0  0  0  0  0  0  0  0  0  0  0  0
    2.3290    2.7386   -2.3810 C   0  0  0  0  0  0  0  0  0  0  0  0
    1.9215    3.8500   -3.3394 C   0  0  0  0  0  0  0  0  0  0  0  0
    0.5034    3.6615   -3.8809 C   0  0  0  0  0  0  0  0  0  0  0  0
    0.0464    4.8302   -4.6564 N   0  0  0  0  0  0  0  0  0  0  0  0
   -1.3573    4.6639   -5.0711 C   0  0  0  0  0  0  0  0  0  0  0  0
   -1.2861    3.9297   -6.3951 C   0  0  0  0  0  0  0  0  0  0  0  0
   -0.0724    4.5465   -7.0583 C   0  0  0  0  0  0  0  0  0  0  0  0
    0.8030    5.0263   -5.9067 C   0  0  0  0  0  0  0  0  0  0  0  0
    4.1769    1.6899    1.4778 H   0  0  0  0  0  0  0  0  0  0  0  0
    3.7989   -0.0413    1.2302 H   0  0  0  0  0  0  0  0  0  0  0  0
    2.5108    1.0871    1.5941 H   0  0  0  0  0  0  0  0  0  0  0  0
    5.4090   -0.2171   -0.1052 H   0  0  0  0  0  0  0  0  0  0  0  0
    4.1535   -3.0270   -0.1645 H   0  0  0  0  0  0  0  0  0  0  0  0
    2.9657   -3.0433    1.9255 H   0  0  0  0  0  0  0  0  0  0  0  0
    4.6446   -2.7403    5.2484 H   0  0  0  0  0  0  0  0  0  0  0  0
   -1.2084   -3.4167    9.3618 H   0  0  0  0  0  0  0  0  0  0  0  0
   -3.5560   -4.0536    9.4970 H   0  0  0  0  0  0  0  0  0  0  0  0
   -4.6751   -5.1137    7.5522 H   0  0  0  0  0  0  0  0  0  0  0  0
   -3.3823   -5.6023    5.5186 H   0  0  0  0  0  0  0  0  0  0  0  0
    0.1815   -5.1882    9.8480 H   0  0  0  0  0  0  0  0  0  0  0  0
    1.6574   -5.0940   11.7820 H   0  0  0  0  0  0  0  0  0  0  0  0
    3.8620   -3.9596   11.6488 H   0  0  0  0  0  0  0  0  0  0  0  0
    4.5684   -2.9290    9.5117 H   0  0  0  0  0  0  0  0  0  0  0  0
    6.6631   -2.3407    4.0605 H   0  0  0  0  0  0  0  0  0  0  0  0
    7.4009   -3.9175   -2.4672 H   0  0  0  0  0  0  0  0  0  0  0  0
    6.3253   -3.7300   -4.7124 H   0  0  0  0  0  0  0  0  0  0  0  0
    3.2645   -0.3517   -4.5243 H   0  0  0  0  0  0  0  0  0  0  0  0
    3.3335    3.0016   -2.0270 H   0  0  0  0  0  0  0  0  0  0  0  0
    1.6296    2.7054   -1.5385 H   0  0  0  0  0  0  0  0  0  0  0  0
    2.6467    3.8695   -4.1591 H   0  0  0  0  0  0  0  0  0  0  0  0
    1.9942    4.8083   -2.8104 H   0  0  0  0  0  0  0  0  0  0  0  0
   -0.1657    3.5410   -3.0184 H   0  0  0  0  0  0  0  0  0  0  0  0
    0.4426    2.7386   -4.4688 H   0  0  0  0  0  0  0  0  0  0  0  0
   -1.8003    5.6568   -5.2184 H   0  0  0  0  0  0  0  0  0  0  0  0
   -1.9763    4.1423   -4.3332 H   0  0  0  0  0  0  0  0  0  0  0  0
   -2.1921    4.0517   -6.9950 H   0  0  0  0  0  0  0  0  0  0  0  0
   -1.1248    2.8568   -6.2367 H   0  0  0  0  0  0  0  0  0  0  0  0
   -0.3722    5.3989   -7.6786 H   0  0  0  0  0  0  0  0  0  0  0  0
    0.4466    3.8252   -7.6970 H   0  0  0  0  0  0  0  0  0  0  0  0
    1.0175    6.0950   -6.0260 H   0  0  0  0  0  0  0  0  0  0  0  0
    1.7692    4.5149   -5.9323 H   0  0  0  0  0  0  0  0  0  0  0  0
  1  2  1  0  0  0  0
  1 54  1  0  0  0  0
  1 55  1  0  0  0  0
  1 56  1  0  0  0  0
  2  3  1  0  0  0  0
  3  4  1  0  0  0  0
  3 44  2  0  0  0  0
  4  5  2  0  0  0  0
  4 57  1  0  0  0  0
  5  6  1  0  0  0  0
  5 42  1  0  0  0  0
  6  7  1  0  0  0  0
  6 39  2  0  0  0  0
  7  8  1  0  0  0  0
  8  9  1  0  0  0  0
  8 37  2  0  0  0  0
  9 10  2  0  0  0  0
  9 58  1  0  0  0  0
 10 11  1  0  0  0  0
 10 59  1  0  0  0  0
 11 12  1  0  0  0  0
 11 36  2  0  0  0  0
 12 13  1  0  0  0  0
 12 60  1  0  0  0  0
 13 14  2  0  0  0  0
 13 15  1  0  0  0  0
 15 16  2  0  0  0  0
 15 34  1  0  0  0  0
 16 17  1  0  0  0  0
 17 18  1  0  0  0  0
 17 28  1  0  0  0  0
 18 19  1  0  0  0  0
 18 23  2  0  0  0  0
 19 20  2  0  0  0  0
 19 61  1  0  0  0  0
 20 21  1  0  0  0  0
 20 62  1  0  0  0  0
 21 22  2  0  0  0  0
 21 63  1  0  0  0  0
 22 23  1  0  0  0  0
 22 64  1  0  0  0  0
 23 24  1  0  0  0  0
 24 25  1  0  0  0  0
 24 26  1  0  0  0  0
 24 27  1  0  0  0  0
 28 29  1  0  0  0  0
 28 33  2  0  0  0  0
 29 30  2  0  0  0  0
 29 65  1  0  0  0  0
 30 31  1  0  0  0  0
 30 66  1  0  0  0  0
 31 32  2  0  0  0  0
 31 67  1  0  0  0  0
 32 33  1  0  0  0  0
 32 68  1  0  0  0  0
 33 34  1  0  0  0  0
 34 35  2  0  0  0  0
 36 37  1  0  0  0  0
 36 69  1  0  0  0  0
 37 38  1  0  0  0  0
 39 40  1  0  0  0  0
 39 70  1  0  0  0  0
 40 41  2  0  0  0  0
 40 71  1  0  0  0  0
 41 42  1  0  0  0  0
 42 43  2  0  0  0  0
 43 44  1  0  0  0  0
 43 72  1  0  0  0  0
 44 45  1  0  0  0  0
 45 46  1  0  0  0  0
 46 47  1  0  0  0  0
 46 73  1  0  0  0  0
 46 74  1  0  0  0  0
 47 48  1  0  0  0  0
 47 75  1  0  0  0  0
 47 76  1  0  0  0  0
 48 49  1  0  0  0  0
 48 77  1  0  0  0  0
 48 78  1  0  0  0  0
 49 50  1  0  0  0  0
 49 53  1  0  0  0  0
 50 51  1  0  0  0  0
 50 79  1  0  0  0  0
 50 80  1  0  0  0  0
 51 52  1  0  0  0  0
 51 81  1  0  0  0  0
 51 82  1  0  0  0  0
 52 53  1  0  0  0  0
 52 83  1  0  0  0  0
 52 84  1  0  0  0  0
 53 85  1  0  0  0  0
 53 86  1  0  0  0  0
M  END
$$$$
