CHEMBL3690443
 OpenBabel04072215373D

 57 60  0  0  0  0  0  0  0  0999 V2000
    4.1365   -2.5467   -1.6026 C   0  0  0  0  0  0  0  0  0  0  0  0
    3.9950   -1.1424   -1.7700 O   0  0  0  0  0  0  0  0  0  0  0  0
    4.6489   -0.6793   -2.9627 C   0  0  0  0  0  0  0  0  0  0  0  0
    4.4109    0.8346   -3.0894 C   0  0  0  0  0  0  0  0  0  0  0  0
    4.9528    1.5294   -1.9120 N   0  0  0  0  0  0  0  0  0  0  0  0
    6.3166    1.8511   -2.0048 C   0  0  0  0  0  0  0  0  0  0  0  0
    7.0362    2.0480   -0.8370 C   0  0  0  0  0  0  0  0  0  0  0  0
    8.3877    2.3838   -0.9033 C   0  0  0  0  0  0  0  0  0  0  0  0
    8.9822    2.5726   -2.1426 C   0  0  0  0  0  0  0  0  0  0  0  0
   10.4322    2.8448   -2.3161 C   0  0  0  0  0  0  0  0  0  0  0  0
   11.1658    2.3651   -3.4952 C   0  0  0  0  0  0  0  0  0  0  0  0
   12.4931    2.5472   -3.5891 C   0  0  0  0  0  0  0  0  0  0  0  0
   13.1766    3.2460   -2.5885 N   0  0  0  0  0  0  0  0  0  0  0  0
   14.5183    3.6148   -2.4607 C   0  0  0  0  0  0  0  0  0  0  0  0
   15.5890    3.4491   -3.4591 C   0  0  0  0  0  0  0  0  0  0  0  0
   15.3004    3.5367   -4.8257 C   0  0  0  0  0  0  0  0  0  0  0  0
   16.2941    3.3685   -5.7809 C   0  0  0  0  0  0  0  0  0  0  0  0
   17.6142    3.1923   -5.3851 C   0  0  0  0  0  0  0  0  0  0  0  0
   17.9666    3.1902   -4.0351 C   0  0  0  0  0  0  0  0  0  0  0  0
   19.3188    3.1120   -3.6038 N   0  0  0  0  0  0  0  0  0  0  0  0
   20.4344    3.1255   -4.4190 C   0  0  0  0  0  0  0  0  0  0  0  0
   20.4523    3.2109   -5.6426 O   0  0  0  0  0  0  0  0  0  0  0  0
   21.6113    2.9869   -3.7227 N   0  0  0  0  0  0  0  0  0  0  0  0
   22.8660    3.0004   -4.4906 C   0  0  0  0  0  0  0  0  0  0  0  0
   23.3753    4.3780   -4.9461 C   0  0  0  0  0  0  0  0  0  0  0  0
   22.6654    5.3914   -4.3995 F   0  0  0  0  0  0  0  0  0  0  0  0
   24.6623    4.5449   -4.5467 F   0  0  0  0  0  0  0  0  0  0  0  0
   23.3535    4.5207   -6.2873 F   0  0  0  0  0  0  0  0  0  0  0  0
   16.9398    3.2838   -3.0743 C   0  0  0  0  0  0  0  0  0  0  0  0
   14.5746    4.2136   -1.2100 C   0  0  0  0  0  0  0  0  0  0  0  0
   13.3498    4.2808   -0.6058 N   0  0  0  0  0  0  0  0  0  0  0  0
   12.5200    3.7258   -1.4585 C   0  0  0  0  0  0  0  0  0  0  0  0
   11.1127    3.5264   -1.3638 C   0  0  0  0  0  0  0  0  0  0  0  0
    8.2558    2.4102   -3.2670 N   0  0  0  0  0  0  0  0  0  0  0  0
    6.9216    2.0534   -3.1925 N   0  0  0  0  0  0  0  0  0  0  0  0
    3.5962   -2.8405   -0.6983 H   0  0  0  0  0  0  0  0  0  0  0  0
    5.1908   -2.8115   -1.4813 H   0  0  0  0  0  0  0  0  0  0  0  0
    3.7063   -3.0817   -2.4546 H   0  0  0  0  0  0  0  0  0  0  0  0
    4.2309   -1.1945   -3.8340 H   0  0  0  0  0  0  0  0  0  0  0  0
    5.7201   -0.9012   -2.8910 H   0  0  0  0  0  0  0  0  0  0  0  0
    3.3309    1.0198   -3.0995 H   0  0  0  0  0  0  0  0  0  0  0  0
    4.8080    1.2157   -4.0366 H   0  0  0  0  0  0  0  0  0  0  0  0
    4.7738    0.9511   -1.0905 H   0  0  0  0  0  0  0  0  0  0  0  0
    6.5658    1.9068    0.1303 H   0  0  0  0  0  0  0  0  0  0  0  0
    8.9545    2.4618    0.0176 H   0  0  0  0  0  0  0  0  0  0  0  0
   10.6147    1.8519   -4.2791 H   0  0  0  0  0  0  0  0  0  0  0  0
   13.0526    2.1617   -4.4288 H   0  0  0  0  0  0  0  0  0  0  0  0
   14.3000    3.7626   -5.1815 H   0  0  0  0  0  0  0  0  0  0  0  0
   16.0487    3.4002   -6.8388 H   0  0  0  0  0  0  0  0  0  0  0  0
   18.3476    3.0759   -6.1748 H   0  0  0  0  0  0  0  0  0  0  0  0
   19.4786    3.0820   -2.6085 H   0  0  0  0  0  0  0  0  0  0  0  0
   21.6375    3.3758   -2.7920 H   0  0  0  0  0  0  0  0  0  0  0  0
   22.7378    2.3627   -5.3744 H   0  0  0  0  0  0  0  0  0  0  0  0
   23.6174    2.5200   -3.8573 H   0  0  0  0  0  0  0  0  0  0  0  0
   17.1914    3.2482   -2.0170 H   0  0  0  0  0  0  0  0  0  0  0  0
   15.4442    4.6383   -0.7250 H   0  0  0  0  0  0  0  0  0  0  0  0
   10.6355    3.9373   -0.4788 H   0  0  0  0  0  0  0  0  0  0  0  0
  1  2  1  0  0  0  0
  1 36  1  0  0  0  0
  1 37  1  0  0  0  0
  1 38  1  0  0  0  0
  2  3  1  0  0  0  0
  3  4  1  0  0  0  0
  3 39  1  0  0  0  0
  3 40  1  0  0  0  0
  4  5  1  0  0  0  0
  4 41  1  0  0  0  0
  4 42  1  0  0  0  0
  5  6  1  0  0  0  0
  5 43  1  0  0  0  0
  6  7  1  0  0  0  0
  6 35  2  0  0  0  0
  7  8  2  0  0  0  0
  7 44  1  0  0  0  0
  8  9  1  0  0  0  0
  8 45  1  0  0  0  0
  9 10  1  0  0  0  0
  9 34  2  0  0  0  0
 10 11  1  0  0  0  0
 10 33  2  0  0  0  0
 11 12  2  0  0  0  0
 11 46  1  0  0  0  0
 12 13  1  0  0  0  0
 12 47  1  0  0  0  0
 13 14  1  0  0  0  0
 13 32  1  0  0  0  0
 14 15  1  0  0  0  0
 14 30  2  0  0  0  0
 15 16  1  0  0  0  0
 15 29  2  0  0  0  0
 16 17  2  0  0  0  0
 16 48  1  0  0  0  0
 17 18  1  0  0  0  0
 17 49  1  0  0  0  0
 18 19  2  0  0  0  0
 18 50  1  0  0  0  0
 19 20  1  0  0  0  0
 19 29  1  0  0  0  0
 20 21  1  0  0  0  0
 20 51  1  0  0  0  0
 21 22  2  0  0  0  0
 21 23  1  0  0  0  0
 23 24  1  0  0  0  0
 23 52  1  0  0  0  0
 24 25  1  0  0  0  0
 24 53  1  0  0  0  0
 24 54  1  0  0  0  0
 25 26  1  0  0  0  0
 25 27  1  0  0  0  0
 25 28  1  0  0  0  0
 29 55  1  0  0  0  0
 30 31  1  0  0  0  0
 30 56  1  0  0  0  0
 31 32  2  0  0  0  0
 32 33  1  0  0  0  0
 33 57  1  0  0  0  0
 34 35  1  0  0  0  0
M  END
$$$$
