CHEMBL1999931
 OpenBabel04072215363D

 48 52  0  0  0  0  0  0  0  0999 V2000
    4.9495   -0.8352   -2.0588 O   0  0  0  0  0  0  0  0  0  0  0  0
    4.2231   -0.3805   -1.1807 C   0  0  0  0  0  0  0  0  0  0  0  0
    2.9751    0.1920   -1.3286 N   0  0  0  0  0  0  0  0  0  0  0  0
    2.2912    0.2267   -2.5326 C   0  0  0  0  0  0  0  0  0  0  0  0
    2.6036   -0.5254   -3.5906 N   0  0  0  0  0  0  0  0  0  0  0  0
    1.7200   -0.1838   -4.5277 N   0  0  0  0  0  0  0  0  0  0  0  0
    0.8159    0.7561   -4.1260 C   0  0  0  0  0  0  0  0  0  0  0  0
   -0.2435    1.3605   -4.8021 C   0  0  0  0  0  0  0  0  0  0  0  0
   -0.9806    2.3193   -4.0985 C   0  0  0  0  0  0  0  0  0  0  0  0
   -0.6764    2.6626   -2.7721 C   0  0  0  0  0  0  0  0  0  0  0  0
   -1.4623    3.6487   -2.0471 C   0  0  0  0  0  0  0  0  0  0  0  0
   -2.5483    4.3570   -2.5137 C   0  0  0  0  0  0  0  0  0  0  0  0
   -2.9690    5.0723   -1.4290 N   0  0  0  0  0  0  0  0  0  0  0  0
   -4.1911    5.8438   -1.3007 C   0  0  0  0  0  0  0  0  0  0  0  0
   -3.9804    7.2911   -1.6581 C   0  0  0  0  0  0  0  0  0  0  0  0
   -4.1788    7.7440   -2.9710 C   0  0  0  0  0  0  0  0  0  0  0  0
   -3.9627    9.0841   -3.2958 C   0  0  0  0  0  0  0  0  0  0  0  0
   -3.5480    9.9828   -2.3148 C   0  0  0  0  0  0  0  0  0  0  0  0
   -3.3488    9.5441   -1.0076 C   0  0  0  0  0  0  0  0  0  0  0  0
   -3.5603    8.2047   -0.6804 C   0  0  0  0  0  0  0  0  0  0  0  0
   -2.1790    4.8520   -0.3622 N   0  0  0  0  0  0  0  0  0  0  0  0
   -1.2448    3.9859   -0.7334 N   0  0  0  0  0  0  0  0  0  0  0  0
    0.3991    2.0221   -2.1217 C   0  0  0  0  0  0  0  0  0  0  0  0
    1.1560    1.0503   -2.8107 C   0  0  0  0  0  0  0  0  0  0  0  0
    4.7684   -0.3581    0.2013 C   0  0  0  0  0  0  0  0  0  0  0  0
    6.1327   -0.0839    0.3657 C   0  0  0  0  0  0  0  0  0  0  0  0
    6.7041   -0.1027    1.6370 C   0  0  0  0  0  0  0  0  0  0  0  0
    5.9165   -0.4069    2.7461 C   0  0  0  0  0  0  0  0  0  0  0  0
    4.5581   -0.6915    2.5866 C   0  0  0  0  0  0  0  0  0  0  0  0
    3.9784   -0.6665    1.3150 C   0  0  0  0  0  0  0  0  0  0  0  0
    2.5778    0.7231   -0.5694 H   0  0  0  0  0  0  0  0  0  0  0  0
    1.7942   -0.6318   -5.4334 H   0  0  0  0  0  0  0  0  0  0  0  0
   -0.4874    1.1073   -5.8284 H   0  0  0  0  0  0  0  0  0  0  0  0
   -1.8067    2.7964   -4.6205 H   0  0  0  0  0  0  0  0  0  0  0  0
   -3.0613    4.3958   -3.4618 H   0  0  0  0  0  0  0  0  0  0  0  0
   -4.5558    5.7381   -0.2722 H   0  0  0  0  0  0  0  0  0  0  0  0
   -4.9440    5.3866   -1.9540 H   0  0  0  0  0  0  0  0  0  0  0  0
   -4.5003    7.0591   -3.7524 H   0  0  0  0  0  0  0  0  0  0  0  0
   -4.1131    9.4283   -4.3160 H   0  0  0  0  0  0  0  0  0  0  0  0
   -3.3745   11.0251   -2.5697 H   0  0  0  0  0  0  0  0  0  0  0  0
   -3.0209   10.2437   -0.2428 H   0  0  0  0  0  0  0  0  0  0  0  0
   -3.3868    7.8754    0.3430 H   0  0  0  0  0  0  0  0  0  0  0  0
    0.6518    2.2812   -1.0969 H   0  0  0  0  0  0  0  0  0  0  0  0
    6.7518    0.1324   -0.5031 H   0  0  0  0  0  0  0  0  0  0  0  0
    7.7643    0.1054    1.7574 H   0  0  0  0  0  0  0  0  0  0  0  0
    6.3667   -0.4385    3.7357 H   0  0  0  0  0  0  0  0  0  0  0  0
    3.9569   -0.9518    3.4547 H   0  0  0  0  0  0  0  0  0  0  0  0
    2.9312   -0.9328    1.2023 H   0  0  0  0  0  0  0  0  0  0  0  0
  1  2  2  0  0  0  0
  2  3  1  0  0  0  0
  2 25  1  0  0  0  0
  3  4  1  0  0  0  0
  3 31  1  0  0  0  0
  4  5  2  0  0  0  0
  4 24  1  0  0  0  0
  5  6  1  0  0  0  0
  6  7  1  0  0  0  0
  6 32  1  0  0  0  0
  7  8  1  0  0  0  0
  7 24  2  0  0  0  0
  8  9  2  0  0  0  0
  8 33  1  0  0  0  0
  9 10  1  0  0  0  0
  9 34  1  0  0  0  0
 10 11  1  0  0  0  0
 10 23  2  0  0  0  0
 11 12  2  0  0  0  0
 11 22  1  0  0  0  0
 12 13  1  0  0  0  0
 12 35  1  0  0  0  0
 13 14  1  0  0  0  0
 13 21  1  0  0  0  0
 14 15  1  0  0  0  0
 14 36  1  0  0  0  0
 14 37  1  0  0  0  0
 15 16  1  0  0  0  0
 15 20  2  0  0  0  0
 16 17  2  0  0  0  0
 16 38  1  0  0  0  0
 17 18  1  0  0  0  0
 17 39  1  0  0  0  0
 18 19  2  0  0  0  0
 18 40  1  0  0  0  0
 19 20  1  0  0  0  0
 19 41  1  0  0  0  0
 20 42  1  0  0  0  0
 21 22  2  0  0  0  0
 23 24  1  0  0  0  0
 23 43  1  0  0  0  0
 25 26  1  0  0  0  0
 25 30  2  0  0  0  0
 26 27  2  0  0  0  0
 26 44  1  0  0  0  0
 27 28  1  0  0  0  0
 27 45  1  0  0  0  0
 28 29  2  0  0  0  0
 28 46  1  0  0  0  0
 29 30  1  0  0  0  0
 29 47  1  0  0  0  0
 30 48  1  0  0  0  0
M  END
$$$$
