CHEMBL4079003
 OpenBabel04072215383D

 47 50  0  0  0  0  0  0  0  0999 V2000
    3.0209    1.2460    1.3228 C   0  0  0  0  0  0  0  0  0  0  0  0
    2.6332    1.9776    0.1186 N   0  0  0  0  0  0  0  0  0  0  0  0
    3.4514    3.1870   -0.0538 C   0  0  0  0  0  0  0  0  0  0  0  0
    4.9205    2.9046   -0.2934 C   0  0  0  0  0  0  0  0  0  0  0  0
    5.3019    2.1106   -1.3579 C   0  0  0  0  0  0  0  0  0  0  0  0
    6.6568    1.9729   -1.5722 C   0  0  0  0  0  0  0  0  0  0  0  0
    7.1897    1.2856   -2.6437 O   0  0  0  0  0  0  0  0  0  0  0  0
    6.5245    1.2700   -3.8521 C   0  0  0  0  0  0  0  0  0  0  0  0
    5.7626    2.3290   -4.3494 C   0  0  0  0  0  0  0  0  0  0  0  0
    5.0345    2.2092   -5.5426 C   0  0  0  0  0  0  0  0  0  0  0  0
    5.1546    1.0120   -6.2686 C   0  0  0  0  0  0  0  0  0  0  0  0
    5.9822   -0.0286   -5.8319 C   0  0  0  0  0  0  0  0  0  0  0  0
    5.8907   -1.0766   -6.7838 C   0  0  0  0  0  0  0  0  0  0  0  0
    4.9492   -0.7065   -7.7119 C   0  0  0  0  0  0  0  0  0  0  0  0
    4.4907    0.5647   -7.4118 N   0  0  0  0  0  0  0  0  0  0  0  0
    3.4239    1.1961   -8.0728 C   0  0  0  0  0  0  0  0  0  0  0  0
    2.3579    0.5968   -8.1735 O   0  0  0  0  0  0  0  0  0  0  0  0
    3.8297    2.3706   -8.6609 N   0  0  0  0  0  0  0  0  0  0  0  0
    2.9728    3.0088   -9.5306 C   0  0  0  0  0  0  0  0  0  0  0  0
    1.6051    3.3109   -9.3380 C   0  0  0  0  0  0  0  0  0  0  0  0
    1.2022    3.9139  -10.5111 C   0  0  0  0  0  0  0  0  0  0  0  0
   -0.0658    4.5015  -10.9653 C   0  0  0  0  0  0  0  0  0  0  0  0
   -0.9949    4.5554   -9.9829 F   0  0  0  0  0  0  0  0  0  0  0  0
    0.1159    5.7687  -11.4136 F   0  0  0  0  0  0  0  0  0  0  0  0
   -0.6012    3.7995  -11.9929 F   0  0  0  0  0  0  0  0  0  0  0  0
    2.2924    3.8804  -11.3291 N   0  0  0  0  0  0  0  0  0  0  0  0
    3.4090    3.4453  -10.7127 N   0  0  0  0  0  0  0  0  0  0  0  0
    6.6811    0.1078   -4.6129 C   0  0  0  0  0  0  0  0  0  0  0  0
    7.5781    2.4661   -0.7254 N   0  0  0  0  0  0  0  0  0  0  0  0
    7.1046    3.1655    0.3133 C   0  0  0  0  0  0  0  0  0  0  0  0
    5.8160    3.4408    0.5623 N   0  0  0  0  0  0  0  0  0  0  0  0
    2.3888    0.3592    1.4213 H   0  0  0  0  0  0  0  0  0  0  0  0
    2.8956    1.8587    2.2194 H   0  0  0  0  0  0  0  0  0  0  0  0
    4.0564    0.8933    1.2699 H   0  0  0  0  0  0  0  0  0  0  0  0
    1.6587    2.2619    0.2135 H   0  0  0  0  0  0  0  0  0  0  0  0
    3.3284    3.8594    0.8038 H   0  0  0  0  0  0  0  0  0  0  0  0
    3.0751    3.7348   -0.9287 H   0  0  0  0  0  0  0  0  0  0  0  0
    4.5583    1.6462   -1.9921 H   0  0  0  0  0  0  0  0  0  0  0  0
    5.6820    3.2617   -3.7949 H   0  0  0  0  0  0  0  0  0  0  0  0
    4.3800    3.0105   -5.8623 H   0  0  0  0  0  0  0  0  0  0  0  0
    6.4187   -2.0173   -6.7608 H   0  0  0  0  0  0  0  0  0  0  0  0
    4.5535   -1.2310   -8.5705 H   0  0  0  0  0  0  0  0  0  0  0  0
    4.8052    2.4562   -8.9132 H   0  0  0  0  0  0  0  0  0  0  0  0
    1.0028    3.1386   -8.4568 H   0  0  0  0  0  0  0  0  0  0  0  0
    2.3554    4.1590  -12.3062 H   0  0  0  0  0  0  0  0  0  0  0  0
    7.3057   -0.7029   -4.2481 H   0  0  0  0  0  0  0  0  0  0  0  0
    7.8324    3.5498    1.0198 H   0  0  0  0  0  0  0  0  0  0  0  0
  1  2  1  0  0  0  0
  1 32  1  0  0  0  0
  1 33  1  0  0  0  0
  1 34  1  0  0  0  0
  2  3  1  0  0  0  0
  2 35  1  0  0  0  0
  3  4  1  0  0  0  0
  3 36  1  0  0  0  0
  3 37  1  0  0  0  0
  4  5  1  0  0  0  0
  4 31  2  0  0  0  0
  5  6  2  0  0  0  0
  5 38  1  0  0  0  0
  6  7  1  0  0  0  0
  6 29  1  0  0  0  0
  7  8  1  0  0  0  0
  8  9  1  0  0  0  0
  8 28  2  0  0  0  0
  9 10  2  0  0  0  0
  9 39  1  0  0  0  0
 10 11  1  0  0  0  0
 10 40  1  0  0  0  0
 11 12  2  0  0  0  0
 11 15  1  0  0  0  0
 12 13  1  0  0  0  0
 12 28  1  0  0  0  0
 13 14  2  0  0  0  0
 13 41  1  0  0  0  0
 14 15  1  0  0  0  0
 14 42  1  0  0  0  0
 15 16  1  0  0  0  0
 16 17  2  0  0  0  0
 16 18  1  0  0  0  0
 18 19  1  0  0  0  0
 18 43  1  0  0  0  0
 19 20  1  0  0  0  0
 19 27  2  0  0  0  0
 20 21  2  0  0  0  0
 20 44  1  0  0  0  0
 21 22  1  0  0  0  0
 21 26  1  0  0  0  0
 22 23  1  0  0  0  0
 22 24  1  0  0  0  0
 22 25  1  0  0  0  0
 26 27  1  0  0  0  0
 26 45  1  0  0  0  0
 28 46  1  0  0  0  0
 29 30  2  0  0  0  0
 30 31  1  0  0  0  0
 30 47  1  0  0  0  0
M  END
$$$$
