CHEMBL2032021
 OpenBabel04072215363D

 62 66  0  0  0  0  0  0  0  0999 V2000
    3.4035    1.6265   -3.7731 C   0  0  0  0  0  0  0  0  0  0  0  0
    3.6568    0.7415   -2.5525 C   0  0  0  0  0  0  0  0  0  0  0  0
    2.9010   -0.5142   -2.6514 N   0  0  0  0  0  0  0  0  0  0  0  0
    3.4349   -1.7050   -3.1841 C   0  0  0  0  0  0  0  0  0  0  0  0
    4.5024   -1.7013   -4.2302 C   0  0  0  0  0  0  0  0  0  0  0  0
    2.9140   -2.8255   -2.6277 C   0  0  0  0  0  0  0  0  0  0  0  0
    3.1633   -4.2466   -3.0264 C   0  0  0  0  0  0  0  0  0  0  0  0
    3.9778   -4.4649   -3.9177 O   0  0  0  0  0  0  0  0  0  0  0  0
    2.4314   -5.2217   -2.3644 N   0  0  0  0  0  0  0  0  0  0  0  0
    2.4799   -6.6142   -2.6604 C   0  0  0  0  0  0  0  0  0  0  0  0
    1.7554   -7.5030   -1.8665 C   0  0  0  0  0  0  0  0  0  0  0  0
    1.7800   -8.8903   -2.1497 C   0  0  0  0  0  0  0  0  0  0  0  0
    2.4692   -9.3770   -3.2634 C   0  0  0  0  0  0  0  0  0  0  0  0
    2.5184  -10.6899   -3.7307 O   0  0  0  0  0  0  0  0  0  0  0  0
    1.5708  -11.5947   -3.2806 C   0  0  0  0  0  0  0  0  0  0  0  0
    0.2436  -11.2737   -3.2456 C   0  0  0  0  0  0  0  0  0  0  0  0
   -0.5794  -12.0019   -2.4102 C   0  0  0  0  0  0  0  0  0  0  0  0
   -0.1084  -12.9361   -1.5580 N   0  0  0  0  0  0  0  0  0  0  0  0
    1.1790  -13.3138   -1.6903 C   0  0  0  0  0  0  0  0  0  0  0  0
    1.8132  -14.0911   -0.7308 C   0  0  0  0  0  0  0  0  0  0  0  0
    3.1385  -14.4605   -0.9282 C   0  0  0  0  0  0  0  0  0  0  0  0
    3.9655  -14.5178    0.1664 O   0  0  0  0  0  0  0  0  0  0  0  0
    5.3145  -14.0922   -0.1200 C   0  0  0  0  0  0  0  0  0  0  0  0
    3.6390  -14.4989   -2.2134 C   0  0  0  0  0  0  0  0  0  0  0  0
    3.1496  -13.5369   -3.0726 C   0  0  0  0  0  0  0  0  0  0  0  0
    1.9921  -12.8148   -2.7152 C   0  0  0  0  0  0  0  0  0  0  0  0
    3.1891   -8.4238   -3.9681 C   0  0  0  0  0  0  0  0  0  0  0  0
    3.2054   -7.0837   -3.6933 N   0  0  0  0  0  0  0  0  0  0  0  0
    2.0538   -2.3224   -1.5160 C   0  0  0  0  0  0  0  0  0  0  0  0
    1.4016   -3.0676   -0.7949 O   0  0  0  0  0  0  0  0  0  0  0  0
    2.1397   -0.9187   -1.5272 N   0  0  0  0  0  0  0  0  0  0  0  0
    1.1740   -0.0677   -0.9351 C   0  0  0  0  0  0  0  0  0  0  0  0
    0.8669   -0.1900    0.4310 C   0  0  0  0  0  0  0  0  0  0  0  0
   -0.0435    0.6841    1.0388 C   0  0  0  0  0  0  0  0  0  0  0  0
   -0.6754    1.6744    0.2876 C   0  0  0  0  0  0  0  0  0  0  0  0
   -0.3927    1.7982   -1.0695 C   0  0  0  0  0  0  0  0  0  0  0  0
    0.5304    0.9388   -1.6698 C   0  0  0  0  0  0  0  0  0  0  0  0
    3.8744    2.6061   -3.6405 H   0  0  0  0  0  0  0  0  0  0  0  0
    2.3365    1.7920   -3.9425 H   0  0  0  0  0  0  0  0  0  0  0  0
    3.8057    1.1891   -4.6905 H   0  0  0  0  0  0  0  0  0  0  0  0
    3.3788    1.3101   -1.6586 H   0  0  0  0  0  0  0  0  0  0  0  0
    4.7348    0.5478   -2.4547 H   0  0  0  0  0  0  0  0  0  0  0  0
    4.8085   -0.6971   -4.5188 H   0  0  0  0  0  0  0  0  0  0  0  0
    4.1805   -2.2149   -5.1345 H   0  0  0  0  0  0  0  0  0  0  0  0
    5.4107   -2.1888   -3.8379 H   0  0  0  0  0  0  0  0  0  0  0  0
    1.8122   -4.9243   -1.6157 H   0  0  0  0  0  0  0  0  0  0  0  0
    1.1702   -7.1478   -1.0230 H   0  0  0  0  0  0  0  0  0  0  0  0
    1.2408   -9.5557   -1.4801 H   0  0  0  0  0  0  0  0  0  0  0  0
   -0.1557  -10.4199   -3.8003 H   0  0  0  0  0  0  0  0  0  0  0  0
   -1.6431  -11.7955   -2.3383 H   0  0  0  0  0  0  0  0  0  0  0  0
    1.3138  -14.2714    0.2180 H   0  0  0  0  0  0  0  0  0  0  0  0
    5.6797  -13.4276    0.6690 H   0  0  0  0  0  0  0  0  0  0  0  0
    5.4469  -13.5251   -1.0546 H   0  0  0  0  0  0  0  0  0  0  0  0
    5.9352  -14.9884   -0.1573 H   0  0  0  0  0  0  0  0  0  0  0  0
    4.5335  -15.0671   -2.4507 H   0  0  0  0  0  0  0  0  0  0  0  0
    3.6787  -13.3390   -3.9993 H   0  0  0  0  0  0  0  0  0  0  0  0
    3.8014   -8.7087   -4.8188 H   0  0  0  0  0  0  0  0  0  0  0  0
    1.3647   -0.9397    1.0404 H   0  0  0  0  0  0  0  0  0  0  0  0
   -0.2582    0.5933    2.1005 H   0  0  0  0  0  0  0  0  0  0  0  0
   -1.3935    2.3426    0.7567 H   0  0  0  0  0  0  0  0  0  0  0  0
   -0.8942    2.5565   -1.6643 H   0  0  0  0  0  0  0  0  0  0  0  0
    0.7071    1.0290   -2.7359 H   0  0  0  0  0  0  0  0  0  0  0  0
  1  2  1  0  0  0  0
  1 38  1  0  0  0  0
  1 39  1  0  0  0  0
  1 40  1  0  0  0  0
  2  3  1  0  0  0  0
  2 41  1  0  0  0  0
  2 42  1  0  0  0  0
  3  4  1  0  0  0  0
  3 31  1  0  0  0  0
  4  5  1  0  0  0  0
  4  6  2  0  0  0  0
  5 43  1  0  0  0  0
  5 44  1  0  0  0  0
  5 45  1  0  0  0  0
  6  7  1  0  0  0  0
  6 29  1  0  0  0  0
  7  8  2  0  0  0  0
  7  9  1  0  0  0  0
  9 10  1  0  0  0  0
  9 46  1  0  0  0  0
 10 11  1  0  0  0  0
 10 28  2  0  0  0  0
 11 12  2  0  0  0  0
 11 47  1  0  0  0  0
 12 13  1  0  0  0  0
 12 48  1  0  0  0  0
 13 14  1  0  0  0  0
 13 27  2  0  0  0  0
 14 15  1  0  0  0  0
 15 16  1  0  0  0  0
 15 26  2  0  0  0  0
 16 17  2  0  0  0  0
 16 49  1  0  0  0  0
 17 18  1  0  0  0  0
 17 50  1  0  0  0  0
 18 19  2  0  0  0  0
 19 20  1  0  0  0  0
 19 26  1  0  0  0  0
 20 21  2  0  0  0  0
 20 51  1  0  0  0  0
 21 22  1  0  0  0  0
 21 24  1  0  0  0  0
 22 23  1  0  0  0  0
 23 52  1  0  0  0  0
 23 53  1  0  0  0  0
 23 54  1  0  0  0  0
 24 25  2  0  0  0  0
 24 55  1  0  0  0  0
 25 26  1  0  0  0  0
 25 56  1  0  0  0  0
 27 28  1  0  0  0  0
 27 57  1  0  0  0  0
 29 30  2  0  0  0  0
 29 31  1  0  0  0  0
 31 32  1  0  0  0  0
 32 33  1  0  0  0  0
 32 37  2  0  0  0  0
 33 34  2  0  0  0  0
 33 58  1  0  0  0  0
 34 35  1  0  0  0  0
 34 59  1  0  0  0  0
 35 36  2  0  0  0  0
 35 60  1  0  0  0  0
 36 37  1  0  0  0  0
 36 61  1  0  0  0  0
 37 62  1  0  0  0  0
M  END
$$$$
