CHEMBL3955638
 OpenBabel04072215373D

 40 43  0  0  0  0  0  0  0  0999 V2000
    1.2079    0.7263    0.7988 O   0  0  0  0  0  0  0  0  0  0  0  0
    2.2940    0.4047    0.3298 C   0  0  0  0  0  0  0  0  0  0  0  0
    2.8086    0.8013   -0.8971 N   0  0  0  0  0  0  0  0  0  0  0  0
    2.1421    1.6653   -1.8008 C   0  0  0  0  0  0  0  0  0  0  0  0
    1.1138    2.5243   -1.3984 C   0  0  0  0  0  0  0  0  0  0  0  0
    0.4029    3.2793   -2.3306 C   0  0  0  0  0  0  0  0  0  0  0  0
    0.7141    3.1810   -3.6839 C   0  0  0  0  0  0  0  0  0  0  0  0
    1.7608    2.3528   -4.0986 C   0  0  0  0  0  0  0  0  0  0  0  0
    2.0202    2.2049   -5.5008 C   0  0  0  0  0  0  0  0  0  0  0  0
    2.1644    2.0913   -6.6877 C   0  0  0  0  0  0  0  0  0  0  0  0
    2.2881    2.0158   -8.1231 C   0  0  0  0  0  0  0  0  0  0  0  0
    2.4439    3.2404   -8.9410 C   0  0  0  0  0  0  0  0  0  0  0  0
    2.5501    3.0723  -10.2654 C   0  0  0  0  0  0  0  0  0  0  0  0
    2.5030    1.7659  -10.8009 C   0  0  0  0  0  0  0  0  0  0  0  0
    2.5890    1.3344  -12.0416 N   0  0  0  0  0  0  0  0  0  0  0  0
    2.4714   -0.0302  -11.9544 C   0  0  0  0  0  0  0  0  0  0  0  0
    2.3121   -0.4313  -10.6483 C   0  0  0  0  0  0  0  0  0  0  0  0
    2.3399    0.7179   -9.9061 N   0  0  0  0  0  0  0  0  0  0  0  0
    2.2307    0.7937   -8.5470 N   0  0  0  0  0  0  0  0  0  0  0  0
    2.4985    1.6243   -3.1554 C   0  0  0  0  0  0  0  0  0  0  0  0
    3.1073   -0.5601    1.1099 C   0  0  0  0  0  0  0  0  0  0  0  0
    2.4245   -1.5374    1.8484 C   0  0  0  0  0  0  0  0  0  0  0  0
    3.1261   -2.4125    2.6750 C   0  0  0  0  0  0  0  0  0  0  0  0
    4.5122   -2.3092    2.7713 C   0  0  0  0  0  0  0  0  0  0  0  0
    5.1974   -1.3394    2.0347 C   0  0  0  0  0  0  0  0  0  0  0  0
    4.4988   -0.4625    1.1992 C   0  0  0  0  0  0  0  0  0  0  0  0
    3.5939    0.2763   -1.2624 H   0  0  0  0  0  0  0  0  0  0  0  0
    0.8351    2.6231   -0.3529 H   0  0  0  0  0  0  0  0  0  0  0  0
   -0.4107    3.9176   -1.9962 H   0  0  0  0  0  0  0  0  0  0  0  0
    0.1237    3.7377   -4.4059 H   0  0  0  0  0  0  0  0  0  0  0  0
    2.4629    4.2059   -8.4574 H   0  0  0  0  0  0  0  0  0  0  0  0
    2.6675    3.9102  -10.9425 H   0  0  0  0  0  0  0  0  0  0  0  0
    2.5066   -0.6529  -12.8404 H   0  0  0  0  0  0  0  0  0  0  0  0
    2.1881   -1.3998  -10.1892 H   0  0  0  0  0  0  0  0  0  0  0  0
    3.3064    0.9823   -3.4955 H   0  0  0  0  0  0  0  0  0  0  0  0
    1.3390   -1.6033    1.7927 H   0  0  0  0  0  0  0  0  0  0  0  0
    2.5881   -3.1577    3.2558 H   0  0  0  0  0  0  0  0  0  0  0  0
    5.0574   -2.9765    3.4349 H   0  0  0  0  0  0  0  0  0  0  0  0
    6.2770   -1.2537    2.1340 H   0  0  0  0  0  0  0  0  0  0  0  0
    5.0424    0.3153    0.6710 H   0  0  0  0  0  0  0  0  0  0  0  0
  1  2  2  0  0  0  0
  2  3  1  0  0  0  0
  2 21  1  0  0  0  0
  3  4  1  0  0  0  0
  3 27  1  0  0  0  0
  4  5  1  0  0  0  0
  4 20  2  0  0  0  0
  5  6  2  0  0  0  0
  5 28  1  0  0  0  0
  6  7  1  0  0  0  0
  6 29  1  0  0  0  0
  7  8  2  0  0  0  0
  7 30  1  0  0  0  0
  8  9  1  0  0  0  0
  8 20  1  0  0  0  0
  9 10  3  0  0  0  0
 10 11  1  0  0  0  0
 11 12  1  0  0  0  0
 11 19  2  0  0  0  0
 12 13  2  0  0  0  0
 12 31  1  0  0  0  0
 13 14  1  0  0  0  0
 13 32  1  0  0  0  0
 14 15  2  0  0  0  0
 14 18  1  0  0  0  0
 15 16  1  0  0  0  0
 16 17  2  0  0  0  0
 16 33  1  0  0  0  0
 17 18  1  0  0  0  0
 17 34  1  0  0  0  0
 18 19  1  0  0  0  0
 20 35  1  0  0  0  0
 21 22  1  0  0  0  0
 21 26  2  0  0  0  0
 22 23  2  0  0  0  0
 22 36  1  0  0  0  0
 23 24  1  0  0  0  0
 23 37  1  0  0  0  0
 24 25  2  0  0  0  0
 24 38  1  0  0  0  0
 25 26  1  0  0  0  0
 25 39  1  0  0  0  0
 26 40  1  0  0  0  0
M  END
$$$$
