CHEMBL598024
 OpenBabel04072215383D

 37 40  0  0  0  0  0  0  0  0999 V2000
    1.2369   -0.4153    0.4508 O   0  0  0  0  0  0  0  0  0  0  0  0
    2.3840   -0.1243    0.1152 C   0  0  0  0  0  0  0  0  0  0  0  0
    3.0820   -0.8372   -1.0198 C   0  0  0  0  0  0  0  0  0  0  0  0
    4.3205   -1.5024   -0.5406 C   0  0  0  0  0  0  0  0  0  0  0  0
    4.4511   -2.8701   -0.4603 C   0  0  0  0  0  0  0  0  0  0  0  0
    5.5433   -3.4886    0.0226 N   0  0  0  0  0  0  0  0  0  0  0  0
    6.5618   -2.7086    0.3975 C   0  0  0  0  0  0  0  0  0  0  0  0
    7.6822   -3.3494    0.9149 N   0  0  0  0  0  0  0  0  0  0  0  0
    9.0026   -2.8936    0.9868 C   0  0  0  0  0  0  0  0  0  0  0  0
    9.8412   -3.3414    2.0167 C   0  0  0  0  0  0  0  0  0  0  0  0
   11.1253   -2.8093    2.1705 C   0  0  0  0  0  0  0  0  0  0  0  0
   11.5827   -1.8321    1.2880 C   0  0  0  0  0  0  0  0  0  0  0  0
   13.4661   -0.9922    1.5414 I   0  0  0  0  0  0  0  0  0  0  0  0
   10.7747   -1.3951    0.2441 C   0  0  0  0  0  0  0  0  0  0  0  0
    9.4918   -1.9193    0.1065 C   0  0  0  0  0  0  0  0  0  0  0  0
    6.5245   -1.3617    0.3357 N   0  0  0  0  0  0  0  0  0  0  0  0
    5.3974   -0.7636   -0.1008 C   0  0  0  0  0  0  0  0  0  0  0  0
    5.3863    0.7156   -0.0724 C   0  0  0  0  0  0  0  0  0  0  0  0
    6.5414    1.4248   -0.4655 C   0  0  0  0  0  0  0  0  0  0  0  0
    6.5899    2.8212   -0.4415 C   0  0  0  0  0  0  0  0  0  0  0  0
    5.5053    3.5445    0.0378 C   0  0  0  0  0  0  0  0  0  0  0  0
    4.3670    2.8726    0.4738 C   0  0  0  0  0  0  0  0  0  0  0  0
    4.2764    1.4752    0.3695 C   0  0  0  0  0  0  0  0  0  0  0  0
    3.0218    0.9313    0.7091 N   0  0  0  0  0  0  0  0  0  0  0  0
    3.3046   -0.1222   -1.8214 H   0  0  0  0  0  0  0  0  0  0  0  0
    2.3868   -1.5682   -1.4539 H   0  0  0  0  0  0  0  0  0  0  0  0
    3.6543   -3.5362   -0.7826 H   0  0  0  0  0  0  0  0  0  0  0  0
    7.5158   -4.3360    1.0474 H   0  0  0  0  0  0  0  0  0  0  0  0
    9.4817   -4.0751    2.7329 H   0  0  0  0  0  0  0  0  0  0  0  0
   11.7436   -3.1473    2.9980 H   0  0  0  0  0  0  0  0  0  0  0  0
   11.1144   -0.6418   -0.4606 H   0  0  0  0  0  0  0  0  0  0  0  0
    8.8686   -1.5654   -0.7122 H   0  0  0  0  0  0  0  0  0  0  0  0
    7.4198    0.8781   -0.8061 H   0  0  0  0  0  0  0  0  0  0  0  0
    7.4792    3.3404   -0.7897 H   0  0  0  0  0  0  0  0  0  0  0  0
    5.5374    4.6310    0.0592 H   0  0  0  0  0  0  0  0  0  0  0  0
    3.5230    3.4576    0.8331 H   0  0  0  0  0  0  0  0  0  0  0  0
    2.4057    1.4762    1.3012 H   0  0  0  0  0  0  0  0  0  0  0  0
  1  2  2  0  0  0  0
  2  3  1  0  0  0  0
  2 24  1  0  0  0  0
  3  4  1  0  0  0  0
  3 25  1  0  0  0  0
  3 26  1  0  0  0  0
  4  5  1  0  0  0  0
  4 17  2  0  0  0  0
  5  6  2  0  0  0  0
  5 27  1  0  0  0  0
  6  7  1  0  0  0  0
  7  8  1  0  0  0  0
  7 16  2  0  0  0  0
  8  9  1  0  0  0  0
  8 28  1  0  0  0  0
  9 10  1  0  0  0  0
  9 15  2  0  0  0  0
 10 11  2  0  0  0  0
 10 29  1  0  0  0  0
 11 12  1  0  0  0  0
 11 30  1  0  0  0  0
 12 13  1  0  0  0  0
 12 14  2  0  0  0  0
 14 15  1  0  0  0  0
 14 31  1  0  0  0  0
 15 32  1  0  0  0  0
 16 17  1  0  0  0  0
 17 18  1  0  0  0  0
 18 19  1  0  0  0  0
 18 23  2  0  0  0  0
 19 20  2  0  0  0  0
 19 33  1  0  0  0  0
 20 21  1  0  0  0  0
 20 34  1  0  0  0  0
 21 22  2  0  0  0  0
 21 35  1  0  0  0  0
 22 23  1  0  0  0  0
 22 36  1  0  0  0  0
 23 24  1  0  0  0  0
 24 37  1  0  0  0  0
M  END
$$$$
