CHEMBL3752096
 OpenBabel04072215373D

 65 69  0  0  0  0  0  0  0  0999 V2000
   12.6778  -12.7244   -8.5593 C   0  0  0  0  0  0  0  0  0  0  0  0
   12.4359  -11.4878   -9.4114 C   0  0  0  0  0  0  0  0  0  0  0  0
   12.3283  -10.3677   -8.5250 O   0  0  0  0  0  0  0  0  0  0  0  0
   11.0831  -10.1650   -8.0098 C   0  0  0  0  0  0  0  0  0  0  0  0
   10.0620  -10.6361   -8.4967 O   0  0  0  0  0  0  0  0  0  0  0  0
   11.1746   -9.4309   -6.7708 C   0  0  0  0  0  0  0  0  0  0  0  0
    9.7371   -9.1730   -5.8816 S   0  0  0  0  0  0  0  0  0  0  0  0
   10.6167   -8.3906   -4.6588 C   0  0  0  0  0  0  0  0  0  0  0  0
   10.0049   -7.9131   -3.5302 N   0  0  0  0  0  0  0  0  0  0  0  0
    8.6479   -7.7948   -3.3369 C   0  0  0  0  0  0  0  0  0  0  0  0
    7.7629   -7.9609   -4.1729 O   0  0  0  0  0  0  0  0  0  0  0  0
    8.2625   -7.3193   -1.9391 C   0  0  0  0  0  0  0  0  0  0  0  0
    9.1855   -7.8029   -0.8840 N   0  0  0  0  0  0  0  0  0  0  0  0
    9.0920   -9.2751   -0.6775 C   0  0  0  0  0  0  0  0  0  0  0  0
    7.7555   -9.8235   -0.1106 C   0  0  0  0  0  0  0  0  0  0  0  0
    7.2504   -9.0216    1.0146 N   0  0  0  0  0  0  0  0  0  0  0  0
    6.7326   -9.6649    2.1333 C   0  0  0  0  0  0  0  0  0  0  0  0
    7.2517  -10.8698    2.4515 N   0  0  0  0  0  0  0  0  0  0  0  0
    6.8662  -11.5583    3.5812 N   0  0  0  0  0  0  0  0  0  0  0  0
    5.9867  -11.0237    4.4549 C   0  0  0  0  0  0  0  0  0  0  0  0
    5.6219  -11.9313    5.5805 C   0  0  0  0  0  0  0  0  0  0  0  0
    6.5616  -12.8237    6.1328 C   0  0  0  0  0  0  0  0  0  0  0  0
    6.2329  -13.6705    7.2005 C   0  0  0  0  0  0  0  0  0  0  0  0
    4.9576  -13.6351    7.7558 C   0  0  0  0  0  0  0  0  0  0  0  0
    3.9970  -12.7941    7.2101 C   0  0  0  0  0  0  0  0  0  0  0  0
    4.3182  -11.9866    6.1144 C   0  0  0  0  0  0  0  0  0  0  0  0
    5.4419   -9.7400    4.2158 C   0  0  0  0  0  0  0  0  0  0  0  0
    4.6098   -9.0423    5.1365 C   0  0  0  0  0  0  0  0  0  0  0  0
    3.9580   -7.8540    4.8131 C   0  0  0  0  0  0  0  0  0  0  0  0
    4.1163   -7.3234    3.5512 C   0  0  0  0  0  0  0  0  0  0  0  0
    4.9871   -7.9487    2.6558 C   0  0  0  0  0  0  0  0  0  0  0  0
    5.7385   -9.1052    2.9822 C   0  0  0  0  0  0  0  0  0  0  0  0
    7.4395   -7.5682    0.9585 C   0  0  0  0  0  0  0  0  0  0  0  0
    8.8243   -7.1710    0.4076 C   0  0  0  0  0  0  0  0  0  0  0  0
   11.9144   -8.3314   -4.8408 N   0  0  0  0  0  0  0  0  0  0  0  0
   12.2476   -8.8935   -6.0726 C   0  0  0  0  0  0  0  0  0  0  0  0
   13.6788   -8.8664   -6.4838 C   0  0  0  0  0  0  0  0  0  0  0  0
   12.8228  -13.6084   -9.1851 H   0  0  0  0  0  0  0  0  0  0  0  0
   11.8341  -12.9029   -7.8855 H   0  0  0  0  0  0  0  0  0  0  0  0
   13.5599  -12.5810   -7.9290 H   0  0  0  0  0  0  0  0  0  0  0  0
   11.5514  -11.6009  -10.0493 H   0  0  0  0  0  0  0  0  0  0  0  0
   13.2916  -11.3073  -10.0690 H   0  0  0  0  0  0  0  0  0  0  0  0
   10.6202   -7.6197   -2.7809 H   0  0  0  0  0  0  0  0  0  0  0  0
    7.2285   -7.6350   -1.7649 H   0  0  0  0  0  0  0  0  0  0  0  0
    8.2810   -6.2228   -1.9769 H   0  0  0  0  0  0  0  0  0  0  0  0
    9.8976   -9.5512    0.0176 H   0  0  0  0  0  0  0  0  0  0  0  0
    9.3294   -9.8033   -1.6078 H   0  0  0  0  0  0  0  0  0  0  0  0
    7.9166  -10.8761    0.1532 H   0  0  0  0  0  0  0  0  0  0  0  0
    6.9962   -9.8151   -0.9019 H   0  0  0  0  0  0  0  0  0  0  0  0
    7.5702  -12.8755    5.7236 H   0  0  0  0  0  0  0  0  0  0  0  0
    6.9764  -14.3579    7.5964 H   0  0  0  0  0  0  0  0  0  0  0  0
    4.7068  -14.2748    8.5977 H   0  0  0  0  0  0  0  0  0  0  0  0
    2.9920  -12.7696    7.6238 H   0  0  0  0  0  0  0  0  0  0  0  0
    3.5151  -11.3975    5.6769 H   0  0  0  0  0  0  0  0  0  0  0  0
    4.4599   -9.4208    6.1453 H   0  0  0  0  0  0  0  0  0  0  0  0
    3.3080   -7.3710    5.5367 H   0  0  0  0  0  0  0  0  0  0  0  0
    3.5843   -6.4230    3.2583 H   0  0  0  0  0  0  0  0  0  0  0  0
    5.0455   -7.5141    1.6639 H   0  0  0  0  0  0  0  0  0  0  0  0
    7.3506   -7.1016    1.9455 H   0  0  0  0  0  0  0  0  0  0  0  0
    6.6616   -7.1393    0.3158 H   0  0  0  0  0  0  0  0  0  0  0  0
    9.5877   -7.4359    1.1503 H   0  0  0  0  0  0  0  0  0  0  0  0
    8.8708   -6.0790    0.3119 H   0  0  0  0  0  0  0  0  0  0  0  0
   14.2970   -8.3737   -5.7269 H   0  0  0  0  0  0  0  0  0  0  0  0
   13.7938   -8.3123   -7.4212 H   0  0  0  0  0  0  0  0  0  0  0  0
   14.0666   -9.8805   -6.6221 H   0  0  0  0  0  0  0  0  0  0  0  0
  1  2  1  0  0  0  0
  1 38  1  0  0  0  0
  1 39  1  0  0  0  0
  1 40  1  0  0  0  0
  2  3  1  0  0  0  0
  2 41  1  0  0  0  0
  2 42  1  0  0  0  0
  3  4  1  0  0  0  0
  4  5  2  0  0  0  0
  4  6  1  0  0  0  0
  6  7  1  0  0  0  0
  6 36  2  0  0  0  0
  7  8  1  0  0  0  0
  8  9  1  0  0  0  0
  8 35  2  0  0  0  0
  9 10  1  0  0  0  0
  9 43  1  0  0  0  0
 10 11  2  0  0  0  0
 10 12  1  0  0  0  0
 12 13  1  0  0  0  0
 12 44  1  0  0  0  0
 12 45  1  0  0  0  0
 13 14  1  0  0  0  0
 13 34  1  0  0  0  0
 14 15  1  0  0  0  0
 14 46  1  0  0  0  0
 14 47  1  0  0  0  0
 15 16  1  0  0  0  0
 15 48  1  0  0  0  0
 15 49  1  0  0  0  0
 16 17  1  0  0  0  0
 16 33  1  0  0  0  0
 17 18  1  0  0  0  0
 17 32  2  0  0  0  0
 18 19  2  0  0  0  0
 19 20  1  0  0  0  0
 20 21  1  0  0  0  0
 20 27  2  0  0  0  0
 21 22  1  0  0  0  0
 21 26  2  0  0  0  0
 22 23  2  0  0  0  0
 22 50  1  0  0  0  0
 23 24  1  0  0  0  0
 23 51  1  0  0  0  0
 24 25  2  0  0  0  0
 24 52  1  0  0  0  0
 25 26  1  0  0  0  0
 25 53  1  0  0  0  0
 26 54  1  0  0  0  0
 27 28  1  0  0  0  0
 27 32  1  0  0  0  0
 28 29  2  0  0  0  0
 28 55  1  0  0  0  0
 29 30  1  0  0  0  0
 29 56  1  0  0  0  0
 30 31  2  0  0  0  0
 30 57  1  0  0  0  0
 31 32  1  0  0  0  0
 31 58  1  0  0  0  0
 33 34  1  0  0  0  0
 33 59  1  0  0  0  0
 33 60  1  0  0  0  0
 34 61  1  0  0  0  0
 34 62  1  0  0  0  0
 35 36  1  0  0  0  0
 36 37  1  0  0  0  0
 37 63  1  0  0  0  0
 37 64  1  0  0  0  0
 37 65  1  0  0  0  0
M  END
$$$$
