CHEMBL2086755
 OpenBabel04072215363D

 68 73  0  0  0  0  0  0  0  0999 V2000
    6.5344   -1.2117   -4.8002 C   0  0  0  0  0  0  0  0  0  0  0  0
    5.4086   -0.6155   -3.9617 C   0  0  0  0  0  0  0  0  0  0  0  0
    4.1978   -0.2701   -4.7339 N   0  0  0  0  0  0  0  0  0  0  0  0
    3.5990   -1.4700   -5.3425 C   0  0  0  0  0  0  0  0  0  0  0  0
    2.2939   -1.1508   -6.0668 C   0  0  0  0  0  0  0  0  0  0  0  0
    1.2664   -0.5529   -5.1034 C   0  0  0  0  0  0  0  0  0  0  0  0
    0.8883   -1.5040   -4.0316 N   0  0  0  0  0  0  0  0  0  0  0  0
    0.3173   -2.7448   -4.3603 C   0  0  0  0  0  0  0  0  0  0  0  0
   -0.4882   -2.9276   -5.5003 C   0  0  0  0  0  0  0  0  0  0  0  0
   -1.0255   -4.1746   -5.8152 C   0  0  0  0  0  0  0  0  0  0  0  0
   -0.7691   -5.2158   -4.9476 C   0  0  0  0  0  0  0  0  0  0  0  0
   -0.0350   -5.0752   -3.7654 C   0  0  0  0  0  0  0  0  0  0  0  0
    0.5008   -3.8266   -3.4661 C   0  0  0  0  0  0  0  0  0  0  0  0
    0.0255   -6.4355   -3.1580 C   0  0  0  0  0  0  0  0  0  0  0  0
    0.5590   -6.8708   -1.9922 C   0  0  0  0  0  0  0  0  0  0  0  0
    1.1232   -5.9179   -1.0066 C   0  0  0  0  0  0  0  0  0  0  0  0
    0.2770   -5.3179   -0.0677 C   0  0  0  0  0  0  0  0  0  0  0  0
    0.7978   -4.5021    0.9424 C   0  0  0  0  0  0  0  0  0  0  0  0
    2.1724   -4.2809    1.0247 C   0  0  0  0  0  0  0  0  0  0  0  0
    2.8094   -3.5219    1.9672 O   0  0  0  0  0  0  0  0  0  0  0  0
    2.0016   -2.9618    2.9956 C   0  0  0  0  0  0  0  0  0  0  0  0
    3.0169   -4.8722    0.0807 C   0  0  0  0  0  0  0  0  0  0  0  0
    2.5012   -5.6881   -0.9303 C   0  0  0  0  0  0  0  0  0  0  0  0
    0.5824   -8.2669   -1.6547 C   0  0  0  0  0  0  0  0  0  0  0  0
   -0.1649   -8.9885   -0.8387 N   0  0  0  0  0  0  0  0  0  0  0  0
    0.4763  -10.2046   -0.7184 C   0  0  0  0  0  0  0  0  0  0  0  0
    0.1442  -11.3442    0.0329 C   0  0  0  0  0  0  0  0  0  0  0  0
    1.0295  -12.4314    0.0463 C   0  0  0  0  0  0  0  0  0  0  0  0
    2.2230  -12.3944   -0.6815 C   0  0  0  0  0  0  0  0  0  0  0  0
    2.5558  -11.2840   -1.4645 C   0  0  0  0  0  0  0  0  0  0  0  0
    1.6496  -10.2180   -1.4591 C   0  0  0  0  0  0  0  0  0  0  0  0
    1.6581   -9.0045   -2.0911 N   0  0  0  0  0  0  0  0  0  0  0  0
   -0.7005   -7.3526   -4.1297 C   0  0  0  0  0  0  0  0  0  0  0  0
   -0.8459   -8.5583   -4.0910 O   0  0  0  0  0  0  0  0  0  0  0  0
   -1.1638   -6.5304   -5.1375 N   0  0  0  0  0  0  0  0  0  0  0  0
    1.8928    0.7051   -4.4919 C   0  0  0  0  0  0  0  0  0  0  0  0
    3.2410    0.4063   -3.8343 C   0  0  0  0  0  0  0  0  0  0  0  0
    7.4273   -1.3380   -4.1833 H   0  0  0  0  0  0  0  0  0  0  0  0
    6.7914   -0.5573   -5.6398 H   0  0  0  0  0  0  0  0  0  0  0  0
    6.2729   -2.1996   -5.1935 H   0  0  0  0  0  0  0  0  0  0  0  0
    5.8017    0.2953   -3.4936 H   0  0  0  0  0  0  0  0  0  0  0  0
    5.1641   -1.3122   -3.1478 H   0  0  0  0  0  0  0  0  0  0  0  0
    3.4294   -2.2492   -4.5882 H   0  0  0  0  0  0  0  0  0  0  0  0
    4.2808   -1.8894   -6.0905 H   0  0  0  0  0  0  0  0  0  0  0  0
    1.9175   -2.0551   -6.5549 H   0  0  0  0  0  0  0  0  0  0  0  0
    2.4940   -0.4332   -6.8751 H   0  0  0  0  0  0  0  0  0  0  0  0
    0.3690   -0.2423   -5.6518 H   0  0  0  0  0  0  0  0  0  0  0  0
    0.3165   -1.0551   -3.3154 H   0  0  0  0  0  0  0  0  0  0  0  0
   -0.6900   -2.1016   -6.1763 H   0  0  0  0  0  0  0  0  0  0  0  0
   -1.6058   -4.3122   -6.7194 H   0  0  0  0  0  0  0  0  0  0  0  0
    1.1101   -3.6704   -2.5813 H   0  0  0  0  0  0  0  0  0  0  0  0
   -0.7944   -5.5106   -0.0968 H   0  0  0  0  0  0  0  0  0  0  0  0
    0.1028   -4.0727    1.6561 H   0  0  0  0  0  0  0  0  0  0  0  0
    2.6481   -2.3505    3.6326 H   0  0  0  0  0  0  0  0  0  0  0  0
    1.5602   -3.7460    3.6201 H   0  0  0  0  0  0  0  0  0  0  0  0
    1.2303   -2.3035    2.5827 H   0  0  0  0  0  0  0  0  0  0  0  0
    4.0903   -4.7098    0.1465 H   0  0  0  0  0  0  0  0  0  0  0  0
    3.1851   -6.1514   -1.6358 H   0  0  0  0  0  0  0  0  0  0  0  0
   -0.7770  -11.3692    0.6049 H   0  0  0  0  0  0  0  0  0  0  0  0
    0.7907  -13.3127    0.6377 H   0  0  0  0  0  0  0  0  0  0  0  0
    2.9031  -13.2420   -0.6407 H   0  0  0  0  0  0  0  0  0  0  0  0
    3.4767  -11.2547   -2.0348 H   0  0  0  0  0  0  0  0  0  0  0  0
    2.3787   -8.6740   -2.7184 H   0  0  0  0  0  0  0  0  0  0  0  0
   -1.6862   -6.8832   -5.9244 H   0  0  0  0  0  0  0  0  0  0  0  0
    1.2154    1.1555   -3.7567 H   0  0  0  0  0  0  0  0  0  0  0  0
    2.0396    1.4542   -5.2827 H   0  0  0  0  0  0  0  0  0  0  0  0
    3.0712   -0.1888   -2.9278 H   0  0  0  0  0  0  0  0  0  0  0  0
    3.6738    1.3620   -3.5122 H   0  0  0  0  0  0  0  0  0  0  0  0
  1  2  1  0  0  0  0
  1 38  1  0  0  0  0
  1 39  1  0  0  0  0
  1 40  1  0  0  0  0
  2  3  1  0  0  0  0
  2 41  1  0  0  0  0
  2 42  1  0  0  0  0
  3  4  1  0  0  0  0
  3 37  1  0  0  0  0
  4  5  1  0  0  0  0
  4 43  1  0  0  0  0
  4 44  1  0  0  0  0
  5  6  1  0  0  0  0
  5 45  1  0  0  0  0
  5 46  1  0  0  0  0
  6  7  1  0  0  0  0
  6 36  1  0  0  0  0
  6 47  1  0  0  0  0
  7  8  1  0  0  0  0
  7 48  1  0  0  0  0
  8  9  1  0  0  0  0
  8 13  2  0  0  0  0
  9 10  2  0  0  0  0
  9 49  1  0  0  0  0
 10 11  1  0  0  0  0
 10 50  1  0  0  0  0
 11 12  2  0  0  0  0
 11 35  1  0  0  0  0
 12 13  1  0  0  0  0
 12 14  1  0  0  0  0
 13 51  1  0  0  0  0
 14 15  2  3  0  0  0
 14 33  1  0  0  0  0
 15 16  1  0  0  0  0
 15 24  1  0  0  0  0
 16 17  1  0  0  0  0
 16 23  2  0  0  0  0
 17 18  2  0  0  0  0
 17 52  1  0  0  0  0
 18 19  1  0  0  0  0
 18 53  1  0  0  0  0
 19 20  1  0  0  0  0
 19 22  2  0  0  0  0
 20 21  1  0  0  0  0
 21 54  1  0  0  0  0
 21 55  1  0  0  0  0
 21 56  1  0  0  0  0
 22 23  1  0  0  0  0
 22 57  1  0  0  0  0
 23 58  1  0  0  0  0
 24 25  2  0  0  0  0
 24 32  1  0  0  0  0
 25 26  1  0  0  0  0
 26 27  1  0  0  0  0
 26 31  2  0  0  0  0
 27 28  2  0  0  0  0
 27 59  1  0  0  0  0
 28 29  1  0  0  0  0
 28 60  1  0  0  0  0
 29 30  2  0  0  0  0
 29 61  1  0  0  0  0
 30 31  1  0  0  0  0
 30 62  1  0  0  0  0
 31 32  1  0  0  0  0
 32 63  1  0  0  0  0
 33 34  2  0  0  0  0
 33 35  1  0  0  0  0
 35 64  1  0  0  0  0
 36 37  1  0  0  0  0
 36 65  1  0  0  0  0
 36 66  1  0  0  0  0
 37 67  1  0  0  0  0
 37 68  1  0  0  0  0
M  END
$$$$
