CHEMBL270092
 OpenBabel04072215363D

 56 60  0  0  0  0  0  0  0  0999 V2000
    4.8584    7.4689  -11.4370 C   0  0  0  0  0  0  0  0  0  0  0  0
    3.9800    7.6824  -10.3316 O   0  0  0  0  0  0  0  0  0  0  0  0
    4.0412    6.6984   -9.3792 C   0  0  0  0  0  0  0  0  0  0  0  0
    4.1975    5.3471   -9.7201 C   0  0  0  0  0  0  0  0  0  0  0  0
    4.3414    4.3541   -8.7644 C   0  0  0  0  0  0  0  0  0  0  0  0
    4.4961    3.0893   -9.1954 N   0  0  0  0  0  0  0  0  0  0  0  0
    4.6598    2.1136   -8.2787 C   0  0  0  0  0  0  0  0  0  0  0  0
    4.6497    2.3387   -6.9194 C   0  0  0  0  0  0  0  0  0  0  0  0
    4.4645    3.6462   -6.4786 C   0  0  0  0  0  0  0  0  0  0  0  0
    4.5082    3.8098   -5.1098 O   0  0  0  0  0  0  0  0  0  0  0  0
    3.4634    4.4133   -4.4456 C   0  0  0  0  0  0  0  0  0  0  0  0
    3.7253    4.7645   -3.1259 C   0  0  0  0  0  0  0  0  0  0  0  0
    2.7477    5.4036   -2.3547 C   0  0  0  0  0  0  0  0  0  0  0  0
    1.4907    5.7736   -2.8991 C   0  0  0  0  0  0  0  0  0  0  0  0
    0.4379    6.4413   -2.2063 C   0  0  0  0  0  0  0  0  0  0  0  0
    0.4449    6.7713   -0.7506 C   0  0  0  0  0  0  0  0  0  0  0  0
   -0.5849    6.5441   -0.1224 O   0  0  0  0  0  0  0  0  0  0  0  0
    1.5809    7.3821   -0.2511 N   0  0  0  0  0  0  0  0  0  0  0  0
    1.7808    7.8108    1.0835 C   0  0  0  0  0  0  0  0  0  0  0  0
    0.9058    7.5177    2.1357 C   0  0  0  0  0  0  0  0  0  0  0  0
    1.1201    8.0409    3.4155 C   0  0  0  0  0  0  0  0  0  0  0  0
    2.2207    8.8565    3.6597 C   0  0  0  0  0  0  0  0  0  0  0  0
    3.1174    9.1177    2.6276 C   0  0  0  0  0  0  0  0  0  0  0  0
    4.4844   10.1217    2.9237 Cl  0  0  0  0  0  0  0  0  0  0  0  0
    2.9116    8.5904    1.3497 C   0  0  0  0  0  0  0  0  0  0  0  0
   -0.7657    6.7586   -2.8661 C   0  0  0  0  0  0  0  0  0  0  0  0
   -0.9533    6.4354   -4.2026 C   0  0  0  0  0  0  0  0  0  0  0  0
    0.0489    5.7608   -4.8865 C   0  0  0  0  0  0  0  0  0  0  0  0
    1.2517    5.4140   -4.2534 C   0  0  0  0  0  0  0  0  0  0  0  0
    2.2103    4.6962   -4.9843 C   0  0  0  0  0  0  0  0  0  0  0  0
    4.3383    4.7085   -7.4039 C   0  0  0  0  0  0  0  0  0  0  0  0
    4.1801    6.0766   -7.0665 C   0  0  0  0  0  0  0  0  0  0  0  0
    3.9563    7.0551   -8.0353 C   0  0  0  0  0  0  0  0  0  0  0  0
    3.7272    8.3059   -7.5302 O   0  0  0  0  0  0  0  0  0  0  0  0
    2.7647    9.0887   -8.2335 C   0  0  0  0  0  0  0  0  0  0  0  0
    5.0592    8.4377  -11.9022 H   0  0  0  0  0  0  0  0  0  0  0  0
    4.3777    6.8270  -12.1818 H   0  0  0  0  0  0  0  0  0  0  0  0
    5.8210    7.0457  -11.1243 H   0  0  0  0  0  0  0  0  0  0  0  0
    4.2107    5.0407  -10.7623 H   0  0  0  0  0  0  0  0  0  0  0  0
    4.8056    1.1167   -8.6851 H   0  0  0  0  0  0  0  0  0  0  0  0
    4.7876    1.5206   -6.2208 H   0  0  0  0  0  0  0  0  0  0  0  0
    4.6950    4.5364   -2.6885 H   0  0  0  0  0  0  0  0  0  0  0  0
    2.9981    5.6034   -1.3166 H   0  0  0  0  0  0  0  0  0  0  0  0
    2.2881    7.6551   -0.9224 H   0  0  0  0  0  0  0  0  0  0  0  0
    0.0351    6.8835    1.9955 H   0  0  0  0  0  0  0  0  0  0  0  0
    0.4164    7.8165    4.2139 H   0  0  0  0  0  0  0  0  0  0  0  0
    2.3707    9.2816    4.6483 H   0  0  0  0  0  0  0  0  0  0  0  0
    3.6268    8.8154    0.5642 H   0  0  0  0  0  0  0  0  0  0  0  0
   -1.5718    7.2519   -2.3242 H   0  0  0  0  0  0  0  0  0  0  0  0
   -1.8847    6.6874   -4.7028 H   0  0  0  0  0  0  0  0  0  0  0  0
   -0.1194    5.5033   -5.9316 H   0  0  0  0  0  0  0  0  0  0  0  0
    1.9721    4.3904   -6.0002 H   0  0  0  0  0  0  0  0  0  0  0  0
    4.1927    6.3934   -6.0270 H   0  0  0  0  0  0  0  0  0  0  0  0
    2.2468    9.7169   -7.5003 H   0  0  0  0  0  0  0  0  0  0  0  0
    2.0006    8.4880   -8.7403 H   0  0  0  0  0  0  0  0  0  0  0  0
    3.2735    9.7526   -8.9378 H   0  0  0  0  0  0  0  0  0  0  0  0
  1  2  1  0  0  0  0
  1 36  1  0  0  0  0
  1 37  1  0  0  0  0
  1 38  1  0  0  0  0
  2  3  1  0  0  0  0
  3  4  1  0  0  0  0
  3 33  2  0  0  0  0
  4  5  2  0  0  0  0
  4 39  1  0  0  0  0
  5  6  1  0  0  0  0
  5 31  1  0  0  0  0
  6  7  2  0  0  0  0
  7  8  1  0  0  0  0
  7 40  1  0  0  0  0
  8  9  2  0  0  0  0
  8 41  1  0  0  0  0
  9 10  1  0  0  0  0
  9 31  1  0  0  0  0
 10 11  1  0  0  0  0
 11 12  1  0  0  0  0
 11 30  2  0  0  0  0
 12 13  2  0  0  0  0
 12 42  1  0  0  0  0
 13 14  1  0  0  0  0
 13 43  1  0  0  0  0
 14 15  1  0  0  0  0
 14 29  2  0  0  0  0
 15 16  1  0  0  0  0
 15 26  2  0  0  0  0
 16 17  2  0  0  0  0
 16 18  1  0  0  0  0
 18 19  1  0  0  0  0
 18 44  1  0  0  0  0
 19 20  1  0  0  0  0
 19 25  2  0  0  0  0
 20 21  2  0  0  0  0
 20 45  1  0  0  0  0
 21 22  1  0  0  0  0
 21 46  1  0  0  0  0
 22 23  2  0  0  0  0
 22 47  1  0  0  0  0
 23 24  1  0  0  0  0
 23 25  1  0  0  0  0
 25 48  1  0  0  0  0
 26 27  1  0  0  0  0
 26 49  1  0  0  0  0
 27 28  2  0  0  0  0
 27 50  1  0  0  0  0
 28 29  1  0  0  0  0
 28 51  1  0  0  0  0
 29 30  1  0  0  0  0
 30 52  1  0  0  0  0
 31 32  2  0  0  0  0
 32 33  1  0  0  0  0
 32 53  1  0  0  0  0
 33 34  1  0  0  0  0
 34 35  1  0  0  0  0
 35 54  1  0  0  0  0
 35 55  1  0  0  0  0
 35 56  1  0  0  0  0
M  END
$$$$
