CHEMBL2036726
 OpenBabel04072215363D

 41 44  0  0  0  0  0  0  0  0999 V2000
   -4.8572   -4.8736    2.2395 C   0  0  0  0  0  0  0  0  0  0  0  0
   -4.4438   -3.5989    1.5680 C   0  0  0  0  0  0  0  0  0  0  0  0
   -5.3947   -2.7675    0.9724 C   0  0  0  0  0  0  0  0  0  0  0  0
   -5.0102   -1.5522    0.4045 C   0  0  0  0  0  0  0  0  0  0  0  0
   -3.6750   -1.1328    0.4357 C   0  0  0  0  0  0  0  0  0  0  0  0
   -3.2683    0.0999   -0.1040 N   0  0  0  0  0  0  0  0  0  0  0  0
   -4.0220    1.2772   -0.0975 C   0  0  0  0  0  0  0  0  0  0  0  0
   -4.8951    1.5001    0.8990 N   0  0  0  0  0  0  0  0  0  0  0  0
   -5.5924    2.6448    0.8745 C   0  0  0  0  0  0  0  0  0  0  0  0
   -5.4479    3.5831   -0.1102 C   0  0  0  0  0  0  0  0  0  0  0  0
   -4.5284    3.2829   -1.0913 C   0  0  0  0  0  0  0  0  0  0  0  0
   -4.2892    4.2310   -2.1915 C   0  0  0  0  0  0  0  0  0  0  0  0
   -4.9322    5.3836   -2.3290 N   0  0  0  0  0  0  0  0  0  0  0  0
   -4.4048    5.9956   -3.4342 C   0  0  0  0  0  0  0  0  0  0  0  0
   -4.7243    7.2385   -4.0022 C   0  0  0  0  0  0  0  0  0  0  0  0
   -4.0218    7.6629   -5.1360 C   0  0  0  0  0  0  0  0  0  0  0  0
   -3.0248    6.8637   -5.6952 C   0  0  0  0  0  0  0  0  0  0  0  0
   -2.7022    5.6171   -5.1475 C   0  0  0  0  0  0  0  0  0  0  0  0
   -3.4152    5.2109   -4.0117 C   0  0  0  0  0  0  0  0  0  0  0  0
   -3.3755    4.0822   -3.2229 N   0  0  0  0  0  0  0  0  0  0  0  0
   -2.5161    2.9439   -3.4502 C   0  0  0  0  0  0  0  0  0  0  0  0
   -3.8111    2.1390   -1.0989 N   0  0  0  0  0  0  0  0  0  0  0  0
   -2.7165   -1.9986    0.9698 C   0  0  0  0  0  0  0  0  0  0  0  0
   -3.0985   -3.2127    1.5503 C   0  0  0  0  0  0  0  0  0  0  0  0
   -5.9354   -5.0422    2.1473 H   0  0  0  0  0  0  0  0  0  0  0  0
   -4.6165   -4.8298    3.3066 H   0  0  0  0  0  0  0  0  0  0  0  0
   -4.3433   -5.7260    1.7854 H   0  0  0  0  0  0  0  0  0  0  0  0
   -6.4460   -3.0446    0.9601 H   0  0  0  0  0  0  0  0  0  0  0  0
   -5.7740   -0.9216   -0.0435 H   0  0  0  0  0  0  0  0  0  0  0  0
   -2.8062    0.0168   -0.9998 H   0  0  0  0  0  0  0  0  0  0  0  0
   -6.2868    2.7829    1.6966 H   0  0  0  0  0  0  0  0  0  0  0  0
   -6.0182    4.5029   -0.1101 H   0  0  0  0  0  0  0  0  0  0  0  0
   -5.4988    7.8556   -3.5604 H   0  0  0  0  0  0  0  0  0  0  0  0
   -4.2548    8.6269   -5.5816 H   0  0  0  0  0  0  0  0  0  0  0  0
   -2.4865    7.2145   -6.5734 H   0  0  0  0  0  0  0  0  0  0  0  0
   -1.9257    5.0047   -5.5918 H   0  0  0  0  0  0  0  0  0  0  0  0
   -1.9342    3.0831   -4.3629 H   0  0  0  0  0  0  0  0  0  0  0  0
   -3.1379    2.0531   -3.5702 H   0  0  0  0  0  0  0  0  0  0  0  0
   -1.8298    2.8475   -2.6053 H   0  0  0  0  0  0  0  0  0  0  0  0
   -1.6696   -1.7060    0.9883 H   0  0  0  0  0  0  0  0  0  0  0  0
   -2.3413   -3.8442    2.0090 H   0  0  0  0  0  0  0  0  0  0  0  0
  1  2  1  0  0  0  0
  1 25  1  0  0  0  0
  1 26  1  0  0  0  0
  1 27  1  0  0  0  0
  2  3  1  0  0  0  0
  2 24  2  0  0  0  0
  3  4  2  0  0  0  0
  3 28  1  0  0  0  0
  4  5  1  0  0  0  0
  4 29  1  0  0  0  0
  5  6  1  0  0  0  0
  5 23  2  0  0  0  0
  6  7  1  0  0  0  0
  6 30  1  0  0  0  0
  7  8  1  0  0  0  0
  7 22  2  0  0  0  0
  8  9  2  0  0  0  0
  9 10  1  0  0  0  0
  9 31  1  0  0  0  0
 10 11  2  0  0  0  0
 10 32  1  0  0  0  0
 11 12  1  0  0  0  0
 11 22  1  0  0  0  0
 12 13  2  0  0  0  0
 12 20  1  0  0  0  0
 13 14  1  0  0  0  0
 14 15  1  0  0  0  0
 14 19  2  0  0  0  0
 15 16  2  0  0  0  0
 15 33  1  0  0  0  0
 16 17  1  0  0  0  0
 16 34  1  0  0  0  0
 17 18  2  0  0  0  0
 17 35  1  0  0  0  0
 18 19  1  0  0  0  0
 18 36  1  0  0  0  0
 19 20  1  0  0  0  0
 20 21  1  0  0  0  0
 21 37  1  0  0  0  0
 21 38  1  0  0  0  0
 21 39  1  0  0  0  0
 23 24  1  0  0  0  0
 23 40  1  0  0  0  0
 24 41  1  0  0  0  0
M  END
$$$$
