CHEMBL437876
 OpenBabel04072215383D

 69 75  0  0  0  0  0  0  0  0999 V2000
    3.5583   -2.8073   -0.7566 C   0  0  0  0  0  0  0  0  0  0  0  0
    3.2063   -1.5244   -0.0195 C   0  0  0  0  0  0  0  0  0  0  0  0
    3.7115   -1.4472    1.4362 C   0  0  0  0  0  0  0  0  0  0  0  0
    5.1571   -1.3634    1.6379 N   0  0  0  0  0  0  0  0  0  0  0  0
    5.8745   -0.1405    1.5874 C   0  0  0  0  0  0  0  0  0  0  0  0
    5.4551    1.1978    1.4747 C   0  0  0  0  0  0  0  0  0  0  0  0
    6.4345    2.2087    1.3293 C   0  0  0  0  0  0  0  0  0  0  0  0
    7.8043    1.9351    1.3068 C   0  0  0  0  0  0  0  0  0  0  0  0
    8.8388    2.9030    1.1436 N   0  0  0  0  0  0  0  0  0  0  0  0
    8.6439    4.2428    0.9063 C   0  0  0  0  0  0  0  0  0  0  0  0
    7.5381    4.7502    0.7642 O   0  0  0  0  0  0  0  0  0  0  0  0
    9.8337    4.9701    0.8422 N   0  0  0  0  0  0  0  0  0  0  0  0
    9.8320    6.4018    0.7504 C   0  0  0  0  0  0  0  0  0  0  0  0
    8.7323    7.1648    1.1557 C   0  0  0  0  0  0  0  0  0  0  0  0
    8.6450    8.5385    0.8940 C   0  0  0  0  0  0  0  0  0  0  0  0
    7.3628    9.2753    1.2017 C   0  0  0  0  0  0  0  0  0  0  0  0
    6.3887    8.4861    1.7348 F   0  0  0  0  0  0  0  0  0  0  0  0
    7.5464   10.2886    2.0919 F   0  0  0  0  0  0  0  0  0  0  0  0
    6.8150    9.8422    0.0924 F   0  0  0  0  0  0  0  0  0  0  0  0
    9.7402    9.1807    0.3044 C   0  0  0  0  0  0  0  0  0  0  0  0
   10.8919    8.4526   -0.0132 C   0  0  0  0  0  0  0  0  0  0  0  0
   10.9312    7.0723    0.2050 C   0  0  0  0  0  0  0  0  0  0  0  0
   12.0271    6.3871   -0.1491 F   0  0  0  0  0  0  0  0  0  0  0  0
    8.1994    0.6061    1.4389 C   0  0  0  0  0  0  0  0  0  0  0  0
    7.2452   -0.4287    1.5613 C   0  0  0  0  0  0  0  0  0  0  0  0
    7.2364   -1.8100    1.5588 C   0  0  0  0  0  0  0  0  0  0  0  0
    8.3338   -2.5516    1.0990 C   0  0  0  0  0  0  0  0  0  0  0  0
    8.0375   -3.8534    0.6598 C   0  0  0  0  0  0  0  0  0  0  0  0
    6.7726   -4.4569    0.7773 C   0  0  0  0  0  0  0  0  0  0  0  0
    5.9801   -3.8621    1.8201 C   0  0  0  0  0  0  0  0  0  0  0  0
    6.0473   -2.4368    1.8135 C   0  0  0  0  0  0  0  0  0  0  0  0
    6.0934   -4.7599    3.1590 C   0  0  0  0  0  0  0  0  0  0  0  0
    7.1853   -5.9249    3.1032 C   0  0  0  0  0  0  0  0  0  0  0  0
    6.9338   -6.6628    1.8347 C   0  0  0  0  0  0  0  0  0  0  0  0
    6.5703   -7.9366    1.6816 N   0  0  0  0  0  0  0  0  0  0  0  0
    6.0289   -7.9367    0.4354 N   0  0  0  0  0  0  0  0  0  0  0  0
    5.3700   -9.1183   -0.0658 C   0  0  0  0  0  0  0  0  0  0  0  0
    5.9658   -6.6896   -0.1374 C   0  0  0  0  0  0  0  0  0  0  0  0
    6.7113   -5.8889    0.6845 C   0  0  0  0  0  0  0  0  0  0  0  0
    9.2939   -4.4633    0.2762 C   0  0  0  0  0  0  0  0  0  0  0  0
    9.6156   -5.5897   -0.0690 O   0  0  0  0  0  0  0  0  0  0  0  0
   10.2394   -3.4592    0.4654 N   0  0  0  0  0  0  0  0  0  0  0  0
    9.7354   -2.1920    0.9315 C   0  0  0  0  0  0  0  0  0  0  0  0
    3.0657   -2.8235   -1.7366 H   0  0  0  0  0  0  0  0  0  0  0  0
    3.2219   -3.6884   -0.2017 H   0  0  0  0  0  0  0  0  0  0  0  0
    4.6338   -2.8826   -0.9307 H   0  0  0  0  0  0  0  0  0  0  0  0
    2.1094   -1.4500   -0.0017 H   0  0  0  0  0  0  0  0  0  0  0  0
    3.5583   -0.6672   -0.6058 H   0  0  0  0  0  0  0  0  0  0  0  0
    3.3316   -2.2835    2.0277 H   0  0  0  0  0  0  0  0  0  0  0  0
    3.2824   -0.5368    1.8754 H   0  0  0  0  0  0  0  0  0  0  0  0
    4.4054    1.4744    1.4640 H   0  0  0  0  0  0  0  0  0  0  0  0
    6.0593    3.2238    1.2270 H   0  0  0  0  0  0  0  0  0  0  0  0
    9.7893    2.5751    1.1942 H   0  0  0  0  0  0  0  0  0  0  0  0
   10.6682    4.5138    0.5344 H   0  0  0  0  0  0  0  0  0  0  0  0
    7.8928    6.6976    1.6664 H   0  0  0  0  0  0  0  0  0  0  0  0
    9.6938   10.2469    0.0863 H   0  0  0  0  0  0  0  0  0  0  0  0
   11.7466    8.9530   -0.4601 H   0  0  0  0  0  0  0  0  0  0  0  0
    9.2525    0.3601    1.4235 H   0  0  0  0  0  0  0  0  0  0  0  0
    5.1179   -5.2382    3.3100 H   0  0  0  0  0  0  0  0  0  0  0  0
    6.3106   -4.1212    4.0216 H   0  0  0  0  0  0  0  0  0  0  0  0
    7.1521   -6.5841    3.9754 H   0  0  0  0  0  0  0  0  0  0  0  0
    8.1964   -5.4889    3.0694 H   0  0  0  0  0  0  0  0  0  0  0  0
    5.5991   -9.9689    0.5802 H   0  0  0  0  0  0  0  0  0  0  0  0
    5.7271   -9.3091   -1.0806 H   0  0  0  0  0  0  0  0  0  0  0  0
    4.2934   -8.9278   -0.0695 H   0  0  0  0  0  0  0  0  0  0  0  0
    5.3688   -6.4898   -1.0155 H   0  0  0  0  0  0  0  0  0  0  0  0
   11.2189   -3.6837    0.3631 H   0  0  0  0  0  0  0  0  0  0  0  0
    9.8856   -1.4469    0.1488 H   0  0  0  0  0  0  0  0  0  0  0  0
   10.2158   -1.9186    1.8728 H   0  0  0  0  0  0  0  0  0  0  0  0
  1  2  1  0  0  0  0
  1 44  1  0  0  0  0
  1 45  1  0  0  0  0
  1 46  1  0  0  0  0
  2  3  1  0  0  0  0
  2 47  1  0  0  0  0
  2 48  1  0  0  0  0
  3  4  1  0  0  0  0
  3 49  1  0  0  0  0
  3 50  1  0  0  0  0
  4  5  1  0  0  0  0
  4 31  1  0  0  0  0
  5  6  1  0  0  0  0
  5 25  2  0  0  0  0
  6  7  2  0  0  0  0
  6 51  1  0  0  0  0
  7  8  1  0  0  0  0
  7 52  1  0  0  0  0
  8  9  1  0  0  0  0
  8 24  2  0  0  0  0
  9 10  1  0  0  0  0
  9 53  1  0  0  0  0
 10 11  2  0  0  0  0
 10 12  1  0  0  0  0
 12 13  1  0  0  0  0
 12 54  1  0  0  0  0
 13 14  1  0  0  0  0
 13 22  2  0  0  0  0
 14 15  2  0  0  0  0
 14 55  1  0  0  0  0
 15 16  1  0  0  0  0
 15 20  1  0  0  0  0
 16 17  1  0  0  0  0
 16 18  1  0  0  0  0
 16 19  1  0  0  0  0
 20 21  2  0  0  0  0
 20 56  1  0  0  0  0
 21 22  1  0  0  0  0
 21 57  1  0  0  0  0
 22 23  1  0  0  0  0
 24 25  1  0  0  0  0
 24 58  1  0  0  0  0
 25 26  1  0  0  0  0
 26 27  1  0  0  0  0
 26 31  2  0  0  0  0
 27 28  2  0  0  0  0
 27 43  1  0  0  0  0
 28 29  1  0  0  0  0
 28 40  1  0  0  0  0
 29 30  2  0  0  0  0
 29 39  1  0  0  0  0
 30 31  1  0  0  0  0
 30 32  1  0  0  0  0
 32 33  1  0  0  0  0
 32 59  1  0  0  0  0
 32 60  1  0  0  0  0
 33 34  1  0  0  0  0
 33 61  1  0  0  0  0
 33 62  1  0  0  0  0
 34 35  2  0  0  0  0
 34 39  1  0  0  0  0
 35 36  1  0  0  0  0
 36 37  1  0  0  0  0
 36 38  1  0  0  0  0
 37 63  1  0  0  0  0
 37 64  1  0  0  0  0
 37 65  1  0  0  0  0
 38 39  2  0  0  0  0
 38 66  1  0  0  0  0
 40 41  2  0  0  0  0
 40 42  1  0  0  0  0
 42 43  1  0  0  0  0
 42 67  1  0  0  0  0
 43 68  1  0  0  0  0
 43 69  1  0  0  0  0
M  END
$$$$
