CHEMBL3694646
 OpenBabel04072215373D

 51 55  0  0  0  0  0  0  0  0999 V2000
    2.6691   -0.2836   -1.2314 O   0  0  0  0  0  0  0  0  0  0  0  0
    2.5720   -0.6046   -0.0550 C   0  0  0  0  0  0  0  0  0  0  0  0
    1.5207   -1.3830    0.3806 N   0  0  0  0  0  0  0  0  0  0  0  0
    0.4331   -1.6876   -0.5598 C   0  0  0  0  0  0  0  0  0  0  0  0
   -0.6250   -0.5852   -0.7070 C   0  0  0  0  0  0  0  0  0  0  0  0
   -0.4013    0.4465    0.1407 F   0  0  0  0  0  0  0  0  0  0  0  0
   -0.6896   -0.0939   -1.9606 F   0  0  0  0  0  0  0  0  0  0  0  0
   -1.8505   -1.0802   -0.4008 F   0  0  0  0  0  0  0  0  0  0  0  0
    3.4361   -0.2974    0.9753 N   0  0  0  0  0  0  0  0  0  0  0  0
    4.6363    0.4384    0.8865 C   0  0  0  0  0  0  0  0  0  0  0  0
    5.1250    0.9515   -0.3144 C   0  0  0  0  0  0  0  0  0  0  0  0
    6.3625    1.5860   -0.3598 C   0  0  0  0  0  0  0  0  0  0  0  0
    7.1042    1.7474    0.8059 C   0  0  0  0  0  0  0  0  0  0  0  0
    6.5867    1.3615    2.0486 C   0  0  0  0  0  0  0  0  0  0  0  0
    7.2817    1.7106    3.2980 C   0  0  0  0  0  0  0  0  0  0  0  0
    7.4150    1.0093    4.4848 C   0  0  0  0  0  0  0  0  0  0  0  0
    8.1400    1.7024    5.4209 N   0  0  0  0  0  0  0  0  0  0  0  0
    8.4595    2.8394    4.8430 C   0  0  0  0  0  0  0  0  0  0  0  0
    9.2116    3.9564    5.3274 C   0  0  0  0  0  0  0  0  0  0  0  0
    9.4032    5.0633    4.5635 C   0  0  0  0  0  0  0  0  0  0  0  0
   10.1722    6.1464    5.1271 C   0  0  0  0  0  0  0  0  0  0  0  0
   11.0512    6.0789    6.1117 N   0  0  0  0  0  0  0  0  0  0  0  0
   11.6481    7.2934    6.3952 N   0  0  0  0  0  0  0  0  0  0  0  0
   11.2062    8.2738    5.6378 C   0  0  0  0  0  0  0  0  0  0  0  0
   11.5821    9.5742    5.6641 N   0  0  0  0  0  0  0  0  0  0  0  0
   12.6192    9.9959    6.5917 C   0  0  0  0  0  0  0  0  0  0  0  0
   13.0592   11.4353    6.6113 C   0  0  0  0  0  0  0  0  0  0  0  0
   13.9959   10.3711    6.1215 C   0  0  0  0  0  0  0  0  0  0  0  0
   10.0002    7.7671    4.5253 S   0  0  0  0  0  0  0  0  0  0  0  0
    8.8163    5.0897    3.2149 C   0  0  0  0  0  0  0  0  0  0  0  0
    8.0962    4.0538    2.7636 C   0  0  0  0  0  0  0  0  0  0  0  0
    7.9350    2.9172    3.5551 N   0  0  0  0  0  0  0  0  0  0  0  0
    5.3681    0.6582    2.0684 C   0  0  0  0  0  0  0  0  0  0  0  0
    1.2480   -1.2537    1.3440 H   0  0  0  0  0  0  0  0  0  0  0  0
   -0.0364   -2.6051   -0.1957 H   0  0  0  0  0  0  0  0  0  0  0  0
    0.8648   -1.9119   -1.5432 H   0  0  0  0  0  0  0  0  0  0  0  0
    3.2211   -0.7038    1.8738 H   0  0  0  0  0  0  0  0  0  0  0  0
    4.5806    0.8544   -1.2478 H   0  0  0  0  0  0  0  0  0  0  0  0
    6.7452    1.9544   -1.3080 H   0  0  0  0  0  0  0  0  0  0  0  0
    8.0884    2.2009    0.7235 H   0  0  0  0  0  0  0  0  0  0  0  0
    7.0293    0.0234    4.7127 H   0  0  0  0  0  0  0  0  0  0  0  0
    9.6106    3.8772    6.3353 H   0  0  0  0  0  0  0  0  0  0  0  0
   11.2199   10.2062    4.9606 H   0  0  0  0  0  0  0  0  0  0  0  0
   12.5503    9.5082    7.5632 H   0  0  0  0  0  0  0  0  0  0  0  0
   13.2529   11.8848    7.5782 H   0  0  0  0  0  0  0  0  0  0  0  0
   12.6490   12.1200    5.8789 H   0  0  0  0  0  0  0  0  0  0  0  0
   14.8333   10.1022    6.7555 H   0  0  0  0  0  0  0  0  0  0  0  0
   14.2132   10.3298    5.0613 H   0  0  0  0  0  0  0  0  0  0  0  0
    8.9708    5.9528    2.5760 H   0  0  0  0  0  0  0  0  0  0  0  0
    7.6371    4.0781    1.7866 H   0  0  0  0  0  0  0  0  0  0  0  0
    4.9751    0.3027    3.0179 H   0  0  0  0  0  0  0  0  0  0  0  0
  1  2  2  0  0  0  0
  2  3  1  0  0  0  0
  2  9  1  0  0  0  0
  3  4  1  0  0  0  0
  3 34  1  0  0  0  0
  4  5  1  0  0  0  0
  4 35  1  0  0  0  0
  4 36  1  0  0  0  0
  5  6  1  0  0  0  0
  5  7  1  0  0  0  0
  5  8  1  0  0  0  0
  9 10  1  0  0  0  0
  9 37  1  0  0  0  0
 10 11  1  0  0  0  0
 10 33  2  0  0  0  0
 11 12  2  0  0  0  0
 11 38  1  0  0  0  0
 12 13  1  0  0  0  0
 12 39  1  0  0  0  0
 13 14  2  0  0  0  0
 13 40  1  0  0  0  0
 14 15  1  0  0  0  0
 14 33  1  0  0  0  0
 15 16  2  0  0  0  0
 15 32  1  0  0  0  0
 16 17  1  0  0  0  0
 16 41  1  0  0  0  0
 17 18  2  0  0  0  0
 18 19  1  0  0  0  0
 18 32  1  0  0  0  0
 19 20  2  0  0  0  0
 19 42  1  0  0  0  0
 20 21  1  0  0  0  0
 20 30  1  0  0  0  0
 21 22  2  0  0  0  0
 21 29  1  0  0  0  0
 22 23  1  0  0  0  0
 23 24  2  0  0  0  0
 24 25  1  0  0  0  0
 24 29  1  0  0  0  0
 25 26  1  0  0  0  0
 25 43  1  0  0  0  0
 26 27  1  0  0  0  0
 26 28  1  0  0  0  0
 26 44  1  0  0  0  0
 27 28  1  0  0  0  0
 27 45  1  0  0  0  0
 27 46  1  0  0  0  0
 28 47  1  0  0  0  0
 28 48  1  0  0  0  0
 30 31  2  0  0  0  0
 30 49  1  0  0  0  0
 31 32  1  0  0  0  0
 31 50  1  0  0  0  0
 33 51  1  0  0  0  0
M  END
$$$$
