CHEMBL1255097
 OpenBabel04072215363D

 67 71  0  0  0  0  0  0  0  0999 V2000
   -3.5467    4.4919    2.4605 C   0  0  0  0  0  0  0  0  0  0  0  0
   -2.5369    3.5005    2.8178 N   0  0  0  0  0  0  0  0  0  0  0  0
   -3.1520    2.3204    3.4464 C   0  0  0  0  0  0  0  0  0  0  0  0
   -2.0942    1.2436    3.7813 C   0  0  0  0  0  0  0  0  0  0  0  0
   -1.3201    0.7667    2.6145 N   0  0  0  0  0  0  0  0  0  0  0  0
   -2.1192    0.0113    1.6359 C   0  0  0  0  0  0  0  0  0  0  0  0
   -2.6842   -1.2999    2.1438 C   0  0  0  0  0  0  0  0  0  0  0  0
   -1.9855   -2.4905    1.9301 C   0  0  0  0  0  0  0  0  0  0  0  0
   -2.5387   -3.7104    2.3167 C   0  0  0  0  0  0  0  0  0  0  0  0
   -1.8435   -4.8778    1.9886 N   0  0  0  0  0  0  0  0  0  0  0  0
   -2.0210   -5.5987    0.8298 C   0  0  0  0  0  0  0  0  0  0  0  0
   -1.5407   -6.7309    0.7637 O   0  0  0  0  0  0  0  0  0  0  0  0
   -2.7324   -4.9810   -0.1721 N   0  0  0  0  0  0  0  0  0  0  0  0
   -2.9809   -5.6076   -1.4163 C   0  0  0  0  0  0  0  0  0  0  0  0
   -3.4570   -6.9187   -1.4761 C   0  0  0  0  0  0  0  0  0  0  0  0
   -3.6685   -7.5377   -2.7104 C   0  0  0  0  0  0  0  0  0  0  0  0
   -3.3550   -6.8737   -3.8965 C   0  0  0  0  0  0  0  0  0  0  0  0
   -3.5139   -7.4338   -5.1468 O   0  0  0  0  0  0  0  0  0  0  0  0
   -3.2322   -8.7826   -5.3036 C   0  0  0  0  0  0  0  0  0  0  0  0
   -2.3173   -9.3811   -4.5143 N   0  0  0  0  0  0  0  0  0  0  0  0
   -2.0970  -10.6988   -4.6896 C   0  0  0  0  0  0  0  0  0  0  0  0
   -2.6514  -11.5139   -5.5832 N   0  0  0  0  0  0  0  0  0  0  0  0
   -3.5399  -10.8880   -6.3998 C   0  0  0  0  0  0  0  0  0  0  0  0
   -4.2973  -11.4223   -7.4591 C   0  0  0  0  0  0  0  0  0  0  0  0
   -5.0488  -10.4004   -7.9843 C   0  0  0  0  0  0  0  0  0  0  0  0
   -4.7715   -9.2579   -7.2685 N   0  0  0  0  0  0  0  0  0  0  0  0
   -5.3684   -7.9685   -7.5175 C   0  0  0  0  0  0  0  0  0  0  0  0
   -3.8396   -9.5392   -6.2915 C   0  0  0  0  0  0  0  0  0  0  0  0
   -2.9275   -5.5425   -3.8505 C   0  0  0  0  0  0  0  0  0  0  0  0
   -2.7603   -4.9077   -2.6138 C   0  0  0  0  0  0  0  0  0  0  0  0
   -2.2002   -3.2708   -2.5917 Cl  0  0  0  0  0  0  0  0  0  0  0  0
   -3.7376   -3.7625    3.0262 C   0  0  0  0  0  0  0  0  0  0  0  0
   -4.4294   -2.5740    3.3028 C   0  0  0  0  0  0  0  0  0  0  0  0
   -5.6847   -2.5660    4.1418 C   0  0  0  0  0  0  0  0  0  0  0  0
   -6.0290   -3.7898    4.6273 F   0  0  0  0  0  0  0  0  0  0  0  0
   -5.5644   -1.7547    5.2312 F   0  0  0  0  0  0  0  0  0  0  0  0
   -6.7715   -2.1102    3.4601 F   0  0  0  0  0  0  0  0  0  0  0  0
   -3.9194   -1.3592    2.8095 C   0  0  0  0  0  0  0  0  0  0  0  0
   -0.7249    1.9660    1.9693 C   0  0  0  0  0  0  0  0  0  0  0  0
   -1.7313    3.1049    1.6481 C   0  0  0  0  0  0  0  0  0  0  0  0
   -4.1276    4.7839    3.3427 H   0  0  0  0  0  0  0  0  0  0  0  0
   -4.2431    4.1209    1.7000 H   0  0  0  0  0  0  0  0  0  0  0  0
   -3.0716    5.4028    2.0810 H   0  0  0  0  0  0  0  0  0  0  0  0
   -3.9262    1.8970    2.7942 H   0  0  0  0  0  0  0  0  0  0  0  0
   -3.6475    2.6162    4.3783 H   0  0  0  0  0  0  0  0  0  0  0  0
   -2.5596    0.4101    4.3159 H   0  0  0  0  0  0  0  0  0  0  0  0
   -1.3863    1.6689    4.5073 H   0  0  0  0  0  0  0  0  0  0  0  0
   -1.4661   -0.2382    0.7868 H   0  0  0  0  0  0  0  0  0  0  0  0
   -2.9358    0.5983    1.2032 H   0  0  0  0  0  0  0  0  0  0  0  0
   -1.0048   -2.4699    1.4586 H   0  0  0  0  0  0  0  0  0  0  0  0
   -1.5381   -5.4764    2.7471 H   0  0  0  0  0  0  0  0  0  0  0  0
   -2.6213   -3.9760   -0.2030 H   0  0  0  0  0  0  0  0  0  0  0  0
   -3.6735   -7.4738   -0.5647 H   0  0  0  0  0  0  0  0  0  0  0  0
   -4.0528   -8.5548   -2.7244 H   0  0  0  0  0  0  0  0  0  0  0  0
   -1.3759  -11.1543   -4.0115 H   0  0  0  0  0  0  0  0  0  0  0  0
   -4.2906  -12.4542   -7.7985 H   0  0  0  0  0  0  0  0  0  0  0  0
   -5.7771  -10.4134   -8.8050 H   0  0  0  0  0  0  0  0  0  0  0  0
   -6.0780   -8.0466   -8.3452 H   0  0  0  0  0  0  0  0  0  0  0  0
   -4.5748   -7.2628   -7.7781 H   0  0  0  0  0  0  0  0  0  0  0  0
   -5.8937   -7.6515   -6.6119 H   0  0  0  0  0  0  0  0  0  0  0  0
   -2.7044   -5.0128   -4.7708 H   0  0  0  0  0  0  0  0  0  0  0  0
   -4.1469   -4.7191    3.3457 H   0  0  0  0  0  0  0  0  0  0  0  0
   -4.4847   -0.4431    2.9774 H   0  0  0  0  0  0  0  0  0  0  0  0
   -0.1928    1.6783    1.0538 H   0  0  0  0  0  0  0  0  0  0  0  0
    0.0472    2.3641    2.6416 H   0  0  0  0  0  0  0  0  0  0  0  0
   -2.3823    2.7884    0.8230 H   0  0  0  0  0  0  0  0  0  0  0  0
   -1.1629    3.9726    1.2919 H   0  0  0  0  0  0  0  0  0  0  0  0
  1  2  1  0  0  0  0
  1 41  1  0  0  0  0
  1 42  1  0  0  0  0
  1 43  1  0  0  0  0
  2  3  1  0  0  0  0
  2 40  1  0  0  0  0
  3  4  1  0  0  0  0
  3 44  1  0  0  0  0
  3 45  1  0  0  0  0
  4  5  1  0  0  0  0
  4 46  1  0  0  0  0
  4 47  1  0  0  0  0
  5  6  1  0  0  0  0
  5 39  1  0  0  0  0
  6  7  1  0  0  0  0
  6 48  1  0  0  0  0
  6 49  1  0  0  0  0
  7  8  1  0  0  0  0
  7 38  2  0  0  0  0
  8  9  2  0  0  0  0
  8 50  1  0  0  0  0
  9 10  1  0  0  0  0
  9 32  1  0  0  0  0
 10 11  1  0  0  0  0
 10 51  1  0  0  0  0
 11 12  2  0  0  0  0
 11 13  1  0  0  0  0
 13 14  1  0  0  0  0
 13 52  1  0  0  0  0
 14 15  1  0  0  0  0
 14 30  2  0  0  0  0
 15 16  2  0  0  0  0
 15 53  1  0  0  0  0
 16 17  1  0  0  0  0
 16 54  1  0  0  0  0
 17 18  1  0  0  0  0
 17 29  2  0  0  0  0
 18 19  1  0  0  0  0
 19 20  1  0  0  0  0
 19 28  2  0  0  0  0
 20 21  2  0  0  0  0
 21 22  1  0  0  0  0
 21 55  1  0  0  0  0
 22 23  2  0  0  0  0
 23 24  1  0  0  0  0
 23 28  1  0  0  0  0
 24 25  2  0  0  0  0
 24 56  1  0  0  0  0
 25 26  1  0  0  0  0
 25 57  1  0  0  0  0
 26 27  1  0  0  0  0
 26 28  1  0  0  0  0
 27 58  1  0  0  0  0
 27 59  1  0  0  0  0
 27 60  1  0  0  0  0
 29 30  1  0  0  0  0
 29 61  1  0  0  0  0
 30 31  1  0  0  0  0
 32 33  2  0  0  0  0
 32 62  1  0  0  0  0
 33 34  1  0  0  0  0
 33 38  1  0  0  0  0
 34 35  1  0  0  0  0
 34 36  1  0  0  0  0
 34 37  1  0  0  0  0
 38 63  1  0  0  0  0
 39 40  1  0  0  0  0
 39 64  1  0  0  0  0
 39 65  1  0  0  0  0
 40 66  1  0  0  0  0
 40 67  1  0  0  0  0
M  END
$$$$
