CHEMBL239591
 OpenBabel04072215363D

 74 79  0  0  0  0  0  0  0  0999 V2000
    1.4845   -0.2356    0.1063 C   0  0  0  0  0  0  0  0  0  0  0  0
    1.0122    0.9309   -0.4775 C   0  0  0  0  0  0  0  0  0  0  0  0
   -0.3532    1.2126   -0.4634 C   0  0  0  0  0  0  0  0  0  0  0  0
   -1.2794    0.2659   -0.0026 C   0  0  0  0  0  0  0  0  0  0  0  0
   -2.7279    0.4985   -0.1007 C   0  0  0  0  0  0  0  0  0  0  0  0
   -3.3400    1.1532   -1.1690 C   0  0  0  0  0  0  0  0  0  0  0  0
   -2.8279    1.7398   -2.4124 C   0  0  0  0  0  0  0  0  0  0  0  0
   -1.7593    1.1061   -3.0612 C   0  0  0  0  0  0  0  0  0  0  0  0
   -0.9997    1.7658   -4.0221 C   0  0  0  0  0  0  0  0  0  0  0  0
   -1.3691    3.0352   -4.4556 C   0  0  0  0  0  0  0  0  0  0  0  0
   -0.6568    3.7650   -5.3782 O   0  0  0  0  0  0  0  0  0  0  0  0
    0.0406    2.9443   -6.3282 C   0  0  0  0  0  0  0  0  0  0  0  0
    0.7714    3.7946   -7.3779 C   0  0  0  0  0  0  0  0  0  0  0  0
    1.5410    2.9846   -8.3552 N   0  0  0  0  0  0  0  0  0  0  0  0
    0.6741    2.0799   -9.1296 C   0  0  0  0  0  0  0  0  0  0  0  0
    1.4654    1.2452  -10.1371 C   0  0  0  0  0  0  0  0  0  0  0  0
    2.2570    2.1358  -11.0801 C   0  0  0  0  0  0  0  0  0  0  0  0
    3.1286    3.0942  -10.2777 C   0  0  0  0  0  0  0  0  0  0  0  0
    2.3059    3.8733   -9.2476 C   0  0  0  0  0  0  0  0  0  0  0  0
   -2.5026    3.6362   -3.8994 C   0  0  0  0  0  0  0  0  0  0  0  0
   -3.2289    2.9962   -2.8776 C   0  0  0  0  0  0  0  0  0  0  0  0
   -4.6860    1.2112   -0.9787 O   0  0  0  0  0  0  0  0  0  0  0  0
   -4.9673    0.5232    0.1656 C   0  0  0  0  0  0  0  0  0  0  0  0
   -6.2256    0.3386    0.6064 N   0  0  0  0  0  0  0  0  0  0  0  0
   -6.2900   -0.4069    1.7226 C   0  0  0  0  0  0  0  0  0  0  0  0
   -5.2096   -0.9458    2.4041 C   0  0  0  0  0  0  0  0  0  0  0  0
   -3.9087   -0.6785    1.9691 C   0  0  0  0  0  0  0  0  0  0  0  0
   -2.8238   -1.0449    2.7636 N   0  0  0  0  0  0  0  0  0  0  0  0
   -2.6951   -2.3800    3.3286 C   0  0  0  0  0  0  0  0  0  0  0  0
   -1.5865   -2.3071    4.3712 C   0  0  0  0  0  0  0  0  0  0  0  0
   -1.5014   -3.6034    5.1549 C   0  0  0  0  0  0  0  0  0  0  0  0
   -0.4900   -3.5363    6.1865 N   0  0  0  0  0  0  0  0  0  0  0  0
   -0.6767   -3.0904    7.4623 C   0  0  0  0  0  0  0  0  0  0  0  0
    0.5626   -3.2407    8.0521 C   0  0  0  0  0  0  0  0  0  0  0  0
    1.4697   -3.7536    7.1856 N   0  0  0  0  0  0  0  0  0  0  0  0
    0.8144   -3.9227    6.0487 C   0  0  0  0  0  0  0  0  0  0  0  0
   -3.7916    0.0599    0.7608 C   0  0  0  0  0  0  0  0  0  0  0  0
   -0.7830   -0.9364    0.5024 C   0  0  0  0  0  0  0  0  0  0  0  0
    0.5854   -1.1593    0.6297 C   0  0  0  0  0  0  0  0  0  0  0  0
    2.5507   -0.4327    0.1472 H   0  0  0  0  0  0  0  0  0  0  0  0
    1.6978    1.6314   -0.9481 H   0  0  0  0  0  0  0  0  0  0  0  0
   -0.6760    2.1541   -0.9008 H   0  0  0  0  0  0  0  0  0  0  0  0
   -1.4091    0.1306   -2.7273 H   0  0  0  0  0  0  0  0  0  0  0  0
   -0.0941    1.2707   -4.3559 H   0  0  0  0  0  0  0  0  0  0  0  0
   -0.7027    2.3036   -6.8140 H   0  0  0  0  0  0  0  0  0  0  0  0
    0.8001    2.3348   -5.8271 H   0  0  0  0  0  0  0  0  0  0  0  0
    1.4642    4.4542   -6.8364 H   0  0  0  0  0  0  0  0  0  0  0  0
    0.0553    4.4559   -7.8806 H   0  0  0  0  0  0  0  0  0  0  0  0
   -0.1052    2.6478   -9.6534 H   0  0  0  0  0  0  0  0  0  0  0  0
    0.1745    1.3667   -8.4666 H   0  0  0  0  0  0  0  0  0  0  0  0
    0.7784    0.6131  -10.7117 H   0  0  0  0  0  0  0  0  0  0  0  0
    2.1481    0.5700   -9.6043 H   0  0  0  0  0  0  0  0  0  0  0  0
    1.5659    2.7057  -11.7124 H   0  0  0  0  0  0  0  0  0  0  0  0
    2.8763    1.5253  -11.7459 H   0  0  0  0  0  0  0  0  0  0  0  0
    3.6247    3.7943  -10.9590 H   0  0  0  0  0  0  0  0  0  0  0  0
    3.9186    2.5285   -9.7680 H   0  0  0  0  0  0  0  0  0  0  0  0
    1.6327    4.5645   -9.7708 H   0  0  0  0  0  0  0  0  0  0  0  0
    2.9998    4.4807   -8.6534 H   0  0  0  0  0  0  0  0  0  0  0  0
   -2.8105    4.6213   -4.2408 H   0  0  0  0  0  0  0  0  0  0  0  0
   -4.0683    3.5116   -2.4155 H   0  0  0  0  0  0  0  0  0  0  0  0
   -7.2949   -0.5614    2.1116 H   0  0  0  0  0  0  0  0  0  0  0  0
   -5.3854   -1.4959    3.3202 H   0  0  0  0  0  0  0  0  0  0  0  0
   -1.9462   -0.6132    2.4926 H   0  0  0  0  0  0  0  0  0  0  0  0
   -2.4447   -3.1346    2.5691 H   0  0  0  0  0  0  0  0  0  0  0  0
   -3.6243   -2.6982    3.8102 H   0  0  0  0  0  0  0  0  0  0  0  0
   -1.7863   -1.4661    5.0478 H   0  0  0  0  0  0  0  0  0  0  0  0
   -0.6244   -2.0859    3.8878 H   0  0  0  0  0  0  0  0  0  0  0  0
   -1.2544   -4.4453    4.4991 H   0  0  0  0  0  0  0  0  0  0  0  0
   -2.4563   -3.8261    5.6439 H   0  0  0  0  0  0  0  0  0  0  0  0
   -1.6206   -2.7251    7.8262 H   0  0  0  0  0  0  0  0  0  0  0  0
    0.8314   -2.9989    9.0779 H   0  0  0  0  0  0  0  0  0  0  0  0
    1.2225   -4.3081    5.1344 H   0  0  0  0  0  0  0  0  0  0  0  0
   -1.4548   -1.7316    0.8131 H   0  0  0  0  0  0  0  0  0  0  0  0
    0.9470   -2.0611    1.1121 H   0  0  0  0  0  0  0  0  0  0  0  0
  1  2  1  0  0  0  0
  1 39  2  0  0  0  0
  1 40  1  0  0  0  0
  2  3  2  0  0  0  0
  2 41  1  0  0  0  0
  3  4  1  0  0  0  0
  3 42  1  0  0  0  0
  4  5  1  0  0  0  0
  4 38  2  0  0  0  0
  5  6  2  0  0  0  0
  5 37  1  0  0  0  0
  6  7  1  0  0  0  0
  6 22  1  0  0  0  0
  7  8  1  0  0  0  0
  7 21  2  0  0  0  0
  8  9  2  0  0  0  0
  8 43  1  0  0  0  0
  9 10  1  0  0  0  0
  9 44  1  0  0  0  0
 10 11  1  0  0  0  0
 10 20  2  0  0  0  0
 11 12  1  0  0  0  0
 12 13  1  0  0  0  0
 12 45  1  0  0  0  0
 12 46  1  0  0  0  0
 13 14  1  0  0  0  0
 13 47  1  0  0  0  0
 13 48  1  0  0  0  0
 14 15  1  0  0  0  0
 14 19  1  0  0  0  0
 15 16  1  0  0  0  0
 15 49  1  0  0  0  0
 15 50  1  0  0  0  0
 16 17  1  0  0  0  0
 16 51  1  0  0  0  0
 16 52  1  0  0  0  0
 17 18  1  0  0  0  0
 17 53  1  0  0  0  0
 17 54  1  0  0  0  0
 18 19  1  0  0  0  0
 18 55  1  0  0  0  0
 18 56  1  0  0  0  0
 19 57  1  0  0  0  0
 19 58  1  0  0  0  0
 20 21  1  0  0  0  0
 20 59  1  0  0  0  0
 21 60  1  0  0  0  0
 22 23  1  0  0  0  0
 23 24  1  0  0  0  0
 23 37  2  0  0  0  0
 24 25  2  0  0  0  0
 25 26  1  0  0  0  0
 25 61  1  0  0  0  0
 26 27  2  0  0  0  0
 26 62  1  0  0  0  0
 27 28  1  0  0  0  0
 27 37  1  0  0  0  0
 28 29  1  0  0  0  0
 28 63  1  0  0  0  0
 29 30  1  0  0  0  0
 29 64  1  0  0  0  0
 29 65  1  0  0  0  0
 30 31  1  0  0  0  0
 30 66  1  0  0  0  0
 30 67  1  0  0  0  0
 31 32  1  0  0  0  0
 31 68  1  0  0  0  0
 31 69  1  0  0  0  0
 32 33  1  0  0  0  0
 32 36  1  0  0  0  0
 33 34  2  0  0  0  0
 33 70  1  0  0  0  0
 34 35  1  0  0  0  0
 34 71  1  0  0  0  0
 35 36  2  0  0  0  0
 36 72  1  0  0  0  0
 38 39  1  0  0  0  0
 38 73  1  0  0  0  0
 39 74  1  0  0  0  0
M  END
$$$$
