CHEMBL68773
 OpenBabel04072215383D

 49 52  0  0  0  0  0  0  0  0999 V2000
    2.2263   -0.9556   -0.0220 C   0  0  0  0  0  0  0  0  0  0  0  0
    3.4076    0.0037    0.1146 C   0  0  0  0  0  0  0  0  0  0  0  0
    4.7417   -0.7353    0.1936 C   0  0  0  0  0  0  0  0  0  0  0  0
    3.3844    1.0455   -0.9093 N   0  0  0  0  0  0  0  0  0  0  0  0
    3.2214    2.3809   -0.6307 C   0  0  0  0  0  0  0  0  0  0  0  0
    3.0904    3.0709   -1.8232 C   0  0  0  0  0  0  0  0  0  0  0  0
    2.8631    4.5124   -1.8583 C   0  0  0  0  0  0  0  0  0  0  0  0
    3.4275    5.3471   -0.8855 C   0  0  0  0  0  0  0  0  0  0  0  0
    3.2924    6.7330   -0.9726 C   0  0  0  0  0  0  0  0  0  0  0  0
    2.6787    7.3059   -2.0874 C   0  0  0  0  0  0  0  0  0  0  0  0
    2.6396    8.6580   -2.3407 O   0  0  0  0  0  0  0  0  0  0  0  0
    3.6844    9.4487   -1.9122 C   0  0  0  0  0  0  0  0  0  0  0  0
    5.0222    9.0377   -1.8824 C   0  0  0  0  0  0  0  0  0  0  0  0
    6.0012    9.8694   -1.3362 C   0  0  0  0  0  0  0  0  0  0  0  0
    5.6484   11.1397   -0.8682 C   0  0  0  0  0  0  0  0  0  0  0  0
    6.6481   12.0488   -0.2587 C   0  0  0  0  0  0  0  0  0  0  0  0
    6.6105   13.2607   -0.3938 O   0  0  0  0  0  0  0  0  0  0  0  0
    7.5710   11.4169    0.4926 O   0  0  0  0  0  0  0  0  0  0  0  0
    4.3306   11.5928   -1.0057 C   0  0  0  0  0  0  0  0  0  0  0  0
    3.3499   10.7459   -1.5233 C   0  0  0  0  0  0  0  0  0  0  0  0
    2.0315    6.4862   -3.0080 C   0  0  0  0  0  0  0  0  0  0  0  0
    2.0938    5.0973   -2.8706 C   0  0  0  0  0  0  0  0  0  0  0  0
    3.2462    2.1088   -2.8817 C   0  0  0  0  0  0  0  0  0  0  0  0
    3.2597    2.1052   -4.2920 C   0  0  0  0  0  0  0  0  0  0  0  0
    3.1335    3.2285   -5.1004 N   0  0  0  0  0  0  0  0  0  0  0  0
    3.4181    0.9379   -4.9463 N   0  0  0  0  0  0  0  0  0  0  0  0
    3.5754   -0.1825   -4.2249 C   0  0  0  0  0  0  0  0  0  0  0  0
    3.6047   -0.3101   -2.8916 N   0  0  0  0  0  0  0  0  0  0  0  0
    3.4300    0.8691   -2.2704 C   0  0  0  0  0  0  0  0  0  0  0  0
    2.2022   -1.6607    0.8151 H   0  0  0  0  0  0  0  0  0  0  0  0
    2.2736   -1.5387   -0.9472 H   0  0  0  0  0  0  0  0  0  0  0  0
    1.2785   -0.4038   -0.0248 H   0  0  0  0  0  0  0  0  0  0  0  0
    3.2809    0.5257    1.0730 H   0  0  0  0  0  0  0  0  0  0  0  0
    4.9469   -1.3160   -0.7119 H   0  0  0  0  0  0  0  0  0  0  0  0
    4.7419   -1.4290    1.0413 H   0  0  0  0  0  0  0  0  0  0  0  0
    5.5708   -0.0335    0.3378 H   0  0  0  0  0  0  0  0  0  0  0  0
    3.1766    2.7224    0.3952 H   0  0  0  0  0  0  0  0  0  0  0  0
    4.0009    4.9366   -0.0580 H   0  0  0  0  0  0  0  0  0  0  0  0
    3.7179    7.3498   -0.1870 H   0  0  0  0  0  0  0  0  0  0  0  0
    5.3124    8.0595   -2.2607 H   0  0  0  0  0  0  0  0  0  0  0  0
    7.0298    9.5190   -1.3035 H   0  0  0  0  0  0  0  0  0  0  0  0
    7.3887   10.4715    0.6641 H   0  0  0  0  0  0  0  0  0  0  0  0
    4.0627   12.6030   -0.6965 H   0  0  0  0  0  0  0  0  0  0  0  0
    2.3234   11.0922   -1.6121 H   0  0  0  0  0  0  0  0  0  0  0  0
    1.4920    6.9208   -3.8459 H   0  0  0  0  0  0  0  0  0  0  0  0
    1.5531    4.4808   -3.5849 H   0  0  0  0  0  0  0  0  0  0  0  0
    3.5736    4.0558   -4.7202 H   0  0  0  0  0  0  0  0  0  0  0  0
    3.3862    2.9990   -6.0552 H   0  0  0  0  0  0  0  0  0  0  0  0
    3.6966   -1.0987   -4.7964 H   0  0  0  0  0  0  0  0  0  0  0  0
  1  2  1  0  0  0  0
  1 30  1  0  0  0  0
  1 31  1  0  0  0  0
  1 32  1  0  0  0  0
  2  3  1  0  0  0  0
  2  4  1  0  0  0  0
  2 33  1  0  0  0  0
  3 34  1  0  0  0  0
  3 35  1  0  0  0  0
  3 36  1  0  0  0  0
  4  5  1  0  0  0  0
  4 29  1  0  0  0  0
  5  6  2  0  0  0  0
  5 37  1  0  0  0  0
  6  7  1  0  0  0  0
  6 23  1  0  0  0  0
  7  8  1  0  0  0  0
  7 22  2  0  0  0  0
  8  9  2  0  0  0  0
  8 38  1  0  0  0  0
  9 10  1  0  0  0  0
  9 39  1  0  0  0  0
 10 11  1  0  0  0  0
 10 21  2  0  0  0  0
 11 12  1  0  0  0  0
 12 13  1  0  0  0  0
 12 20  2  0  0  0  0
 13 14  2  0  0  0  0
 13 40  1  0  0  0  0
 14 15  1  0  0  0  0
 14 41  1  0  0  0  0
 15 16  1  0  0  0  0
 15 19  2  0  0  0  0
 16 17  2  0  0  0  0
 16 18  1  0  0  0  0
 18 42  1  0  0  0  0
 19 20  1  0  0  0  0
 19 43  1  0  0  0  0
 20 44  1  0  0  0  0
 21 22  1  0  0  0  0
 21 45  1  0  0  0  0
 22 46  1  0  0  0  0
 23 24  1  0  0  0  0
 23 29  2  0  0  0  0
 24 25  1  0  0  0  0
 24 26  2  0  0  0  0
 25 47  1  0  0  0  0
 25 48  1  0  0  0  0
 26 27  1  0  0  0  0
 27 28  2  0  0  0  0
 27 49  1  0  0  0  0
 28 29  1  0  0  0  0
M  END
$$$$
