CHEMBL203003
 OpenBabel04072215363D

 42 45  0  0  0  0  0  0  0  0999 V2000
    1.8144    0.9912    0.2523 O   0  0  0  0  0  0  0  0  0  0  0  0
    2.0187   -0.1539   -0.1324 C   0  0  0  0  0  0  0  0  0  0  0  0
    1.4294   -0.7434   -1.2492 N   0  0  0  0  0  0  0  0  0  0  0  0
    0.4842   -0.1680   -2.1301 C   0  0  0  0  0  0  0  0  0  0  0  0
    0.0270    1.1459   -2.0315 C   0  0  0  0  0  0  0  0  0  0  0  0
   -0.8597    1.6668   -2.9829 C   0  0  0  0  0  0  0  0  0  0  0  0
   -1.3082    0.8671   -4.0287 C   0  0  0  0  0  0  0  0  0  0  0  0
   -2.3630    1.5221   -5.2185 Cl  0  0  0  0  0  0  0  0  0  0  0  0
   -0.8948   -0.4587   -4.1203 C   0  0  0  0  0  0  0  0  0  0  0  0
   -0.0013   -0.9738   -3.1740 C   0  0  0  0  0  0  0  0  0  0  0  0
    2.9638   -1.0304    0.6415 C   0  0  0  0  0  0  0  0  0  0  0  0
    2.7042   -2.4203    0.6527 C   0  0  0  0  0  0  0  0  0  0  0  0
    3.5432   -3.3142    1.3158 C   0  0  0  0  0  0  0  0  0  0  0  0
    4.6575   -2.8371    1.9846 C   0  0  0  0  0  0  0  0  0  0  0  0
    4.8981   -1.4646    2.0364 C   0  0  0  0  0  0  0  0  0  0  0  0
    4.0479   -0.5283    1.4047 C   0  0  0  0  0  0  0  0  0  0  0  0
    4.3069    0.9371    1.7076 C   0  0  0  0  0  0  0  0  0  0  0  0
    5.2660    1.6084    0.8282 N   0  0  0  0  0  0  0  0  0  0  0  0
    4.8877    2.3902   -0.2395 C   0  0  0  0  0  0  0  0  0  0  0  0
    5.9897    3.0787   -0.6888 C   0  0  0  0  0  0  0  0  0  0  0  0
    7.0884    2.7223    0.1355 C   0  0  0  0  0  0  0  0  0  0  0  0
    8.4311    3.1240    0.1818 C   0  0  0  0  0  0  0  0  0  0  0  0
    9.2745    2.6230    1.1149 N   0  0  0  0  0  0  0  0  0  0  0  0
    8.7909    1.7375    2.0094 C   0  0  0  0  0  0  0  0  0  0  0  0
    7.4780    1.2887    2.0583 C   0  0  0  0  0  0  0  0  0  0  0  0
    6.6179    1.8001    1.0802 C   0  0  0  0  0  0  0  0  0  0  0  0
    1.7375   -1.6729   -1.5074 H   0  0  0  0  0  0  0  0  0  0  0  0
    0.3518    1.8066   -1.2357 H   0  0  0  0  0  0  0  0  0  0  0  0
   -1.1824    2.7016   -2.9005 H   0  0  0  0  0  0  0  0  0  0  0  0
   -1.2550   -1.0913   -4.9270 H   0  0  0  0  0  0  0  0  0  0  0  0
    0.3066   -2.0121   -3.2694 H   0  0  0  0  0  0  0  0  0  0  0  0
    1.8129   -2.8321    0.1848 H   0  0  0  0  0  0  0  0  0  0  0  0
    3.3164   -4.3776    1.3199 H   0  0  0  0  0  0  0  0  0  0  0  0
    5.3208   -3.5263    2.5027 H   0  0  0  0  0  0  0  0  0  0  0  0
    5.7492   -1.1268    2.6222 H   0  0  0  0  0  0  0  0  0  0  0  0
    4.7026    1.0273    2.7286 H   0  0  0  0  0  0  0  0  0  0  0  0
    3.3956    1.5375    1.7355 H   0  0  0  0  0  0  0  0  0  0  0  0
    3.8554    2.4263   -0.5642 H   0  0  0  0  0  0  0  0  0  0  0  0
    5.9972    3.7935   -1.5013 H   0  0  0  0  0  0  0  0  0  0  0  0
    8.8508    3.8508   -0.5045 H   0  0  0  0  0  0  0  0  0  0  0  0
    9.5211    1.3806    2.7317 H   0  0  0  0  0  0  0  0  0  0  0  0
    7.1626    0.5915    2.8198 H   0  0  0  0  0  0  0  0  0  0  0  0
  1  2  2  0  0  0  0
  2  3  1  0  0  0  0
  2 11  1  0  0  0  0
  3  4  1  0  0  0  0
  3 27  1  0  0  0  0
  4  5  1  0  0  0  0
  4 10  2  0  0  0  0
  5  6  2  0  0  0  0
  5 28  1  0  0  0  0
  6  7  1  0  0  0  0
  6 29  1  0  0  0  0
  7  8  1  0  0  0  0
  7  9  2  0  0  0  0
  9 10  1  0  0  0  0
  9 30  1  0  0  0  0
 10 31  1  0  0  0  0
 11 12  1  0  0  0  0
 11 16  2  0  0  0  0
 12 13  2  0  0  0  0
 12 32  1  0  0  0  0
 13 14  1  0  0  0  0
 13 33  1  0  0  0  0
 14 15  2  0  0  0  0
 14 34  1  0  0  0  0
 15 16  1  0  0  0  0
 15 35  1  0  0  0  0
 16 17  1  0  0  0  0
 17 18  1  0  0  0  0
 17 36  1  0  0  0  0
 17 37  1  0  0  0  0
 18 19  1  0  0  0  0
 18 26  1  0  0  0  0
 19 20  2  0  0  0  0
 19 38  1  0  0  0  0
 20 21  1  0  0  0  0
 20 39  1  0  0  0  0
 21 22  1  0  0  0  0
 21 26  2  0  0  0  0
 22 23  2  0  0  0  0
 22 40  1  0  0  0  0
 23 24  1  0  0  0  0
 24 25  2  0  0  0  0
 24 41  1  0  0  0  0
 25 26  1  0  0  0  0
 25 42  1  0  0  0  0
M  END
$$$$
