CHEMBL604545
 OpenBabel04072215383D

 38 41  0  0  0  0  0  0  0  0999 V2000
    1.1788   -0.5490    0.6275 O   0  0  0  0  0  0  0  0  0  0  0  0
    2.3165   -0.2431    0.2749 C   0  0  0  0  0  0  0  0  0  0  0  0
    3.0110   -0.9579   -0.8609 C   0  0  0  0  0  0  0  0  0  0  0  0
    4.2555   -1.6143   -0.3820 C   0  0  0  0  0  0  0  0  0  0  0  0
    4.3923   -2.9829   -0.3026 C   0  0  0  0  0  0  0  0  0  0  0  0
    5.4821   -3.5961    0.1889 N   0  0  0  0  0  0  0  0  0  0  0  0
    6.4859   -2.8055    0.5860 C   0  0  0  0  0  0  0  0  0  0  0  0
    7.5984   -3.4441    1.1340 N   0  0  0  0  0  0  0  0  0  0  0  0
    8.9191   -2.9839    1.2108 C   0  0  0  0  0  0  0  0  0  0  0  0
    9.7523   -3.4444    2.2374 C   0  0  0  0  0  0  0  0  0  0  0  0
   11.0453   -2.9284    2.3919 C   0  0  0  0  0  0  0  0  0  0  0  0
   11.5233   -1.9525    1.5153 C   0  0  0  0  0  0  0  0  0  0  0  0
   10.6996   -1.5062    0.4875 C   0  0  0  0  0  0  0  0  0  0  0  0
   11.1101   -0.5528   -0.3960 O   0  0  0  0  0  0  0  0  0  0  0  0
    9.4162   -2.0116    0.3360 C   0  0  0  0  0  0  0  0  0  0  0  0
    6.4456   -1.4625    0.5245 N   0  0  0  0  0  0  0  0  0  0  0  0
    5.3249   -0.8712    0.0664 C   0  0  0  0  0  0  0  0  0  0  0  0
    5.3117    0.6085    0.0824 C   0  0  0  0  0  0  0  0  0  0  0  0
    6.4668    1.3137   -0.3148 C   0  0  0  0  0  0  0  0  0  0  0  0
    6.5140    2.7102   -0.2999 C   0  0  0  0  0  0  0  0  0  0  0  0
    5.4284    3.4364    0.1738 C   0  0  0  0  0  0  0  0  0  0  0  0
    4.2893    2.7668    0.6117 C   0  0  0  0  0  0  0  0  0  0  0  0
    4.2004    1.3694    0.5154 C   0  0  0  0  0  0  0  0  0  0  0  0
    2.9463    0.8247    0.8562 N   0  0  0  0  0  0  0  0  0  0  0  0
    3.2296   -0.2451   -1.6664 H   0  0  0  0  0  0  0  0  0  0  0  0
    2.3197   -1.6927   -1.2860 H   0  0  0  0  0  0  0  0  0  0  0  0
    3.6031   -3.6516   -0.6324 H   0  0  0  0  0  0  0  0  0  0  0  0
    7.4502   -4.4351    1.2140 H   0  0  0  0  0  0  0  0  0  0  0  0
    9.3824   -4.1777    2.9448 H   0  0  0  0  0  0  0  0  0  0  0  0
   11.6716   -3.2768    3.2091 H   0  0  0  0  0  0  0  0  0  0  0  0
   12.5221   -1.5560    1.6500 H   0  0  0  0  0  0  0  0  0  0  0  0
   11.9716   -0.2129   -0.1043 H   0  0  0  0  0  0  0  0  0  0  0  0
    8.8059   -1.6432   -0.4827 H   0  0  0  0  0  0  0  0  0  0  0  0
    7.3468    0.7650   -0.6509 H   0  0  0  0  0  0  0  0  0  0  0  0
    7.4040    3.2263   -0.6508 H   0  0  0  0  0  0  0  0  0  0  0  0
    5.4609    4.5224    0.1901 H   0  0  0  0  0  0  0  0  0  0  0  0
    3.4442    3.3527    0.9662 H   0  0  0  0  0  0  0  0  0  0  0  0
    2.3290    1.3697    1.4469 H   0  0  0  0  0  0  0  0  0  0  0  0
  1  2  2  0  0  0  0
  2  3  1  0  0  0  0
  2 24  1  0  0  0  0
  3  4  1  0  0  0  0
  3 25  1  0  0  0  0
  3 26  1  0  0  0  0
  4  5  1  0  0  0  0
  4 17  2  0  0  0  0
  5  6  2  0  0  0  0
  5 27  1  0  0  0  0
  6  7  1  0  0  0  0
  7  8  1  0  0  0  0
  7 16  2  0  0  0  0
  8  9  1  0  0  0  0
  8 28  1  0  0  0  0
  9 10  1  0  0  0  0
  9 15  2  0  0  0  0
 10 11  2  0  0  0  0
 10 29  1  0  0  0  0
 11 12  1  0  0  0  0
 11 30  1  0  0  0  0
 12 13  2  0  0  0  0
 12 31  1  0  0  0  0
 13 14  1  0  0  0  0
 13 15  1  0  0  0  0
 14 32  1  0  0  0  0
 15 33  1  0  0  0  0
 16 17  1  0  0  0  0
 17 18  1  0  0  0  0
 18 19  1  0  0  0  0
 18 23  2  0  0  0  0
 19 20  2  0  0  0  0
 19 34  1  0  0  0  0
 20 21  1  0  0  0  0
 20 35  1  0  0  0  0
 21 22  2  0  0  0  0
 21 36  1  0  0  0  0
 22 23  1  0  0  0  0
 22 37  1  0  0  0  0
 23 24  1  0  0  0  0
 24 38  1  0  0  0  0
M  END
$$$$
