CHEMBL1076436
 OpenBabel04072215353D

 74 79  0  0  0  0  0  0  0  0999 V2000
    2.5643    0.0267    0.0520 C   0  0  0  0  0  0  0  0  0  0  0  0
    1.0609    0.0303    0.1793 C   0  0  0  0  0  0  0  0  0  0  0  0
    0.4047    1.2648    0.1239 C   0  0  0  0  0  0  0  0  0  0  0  0
   -0.9861    1.3320    0.1577 C   0  0  0  0  0  0  0  0  0  0  0  0
   -1.7484    0.1698    0.1820 C   0  0  0  0  0  0  0  0  0  0  0  0
   -3.1628    0.1557    0.1737 N   0  0  0  0  0  0  0  0  0  0  0  0
   -3.9877    1.2622    0.2616 C   0  0  0  0  0  0  0  0  0  0  0  0
   -3.6258    2.4256    0.4303 O   0  0  0  0  0  0  0  0  0  0  0  0
   -5.4483    1.0182    0.1840 C   0  0  0  0  0  0  0  0  0  0  0  0
   -5.9900   -0.0355   -0.5581 C   0  0  0  0  0  0  0  0  0  0  0  0
   -7.3790   -0.2119   -0.6843 C   0  0  0  0  0  0  0  0  0  0  0  0
   -7.8698   -1.2849   -1.4060 N   0  0  0  0  0  0  0  0  0  0  0  0
   -9.2477   -1.7786   -1.2435 C   0  0  0  0  0  0  0  0  0  0  0  0
   -9.2741   -3.3016   -1.5249 C   0  0  0  0  0  0  0  0  0  0  0  0
   -8.7415   -3.6483   -2.8635 N   0  0  0  0  0  0  0  0  0  0  0  0
   -8.7342   -5.0961   -3.0536 C   0  0  0  0  0  0  0  0  0  0  0  0
   -7.3726   -3.1003   -3.0022 C   0  0  0  0  0  0  0  0  0  0  0  0
   -7.3178   -1.5772   -2.7459 C   0  0  0  0  0  0  0  0  0  0  0  0
   -8.2073    0.6968   -0.0069 C   0  0  0  0  0  0  0  0  0  0  0  0
   -7.6861    1.7545    0.7600 C   0  0  0  0  0  0  0  0  0  0  0  0
   -8.5858    2.7072    1.5044 C   0  0  0  0  0  0  0  0  0  0  0  0
   -9.9126    2.4376    1.3517 F   0  0  0  0  0  0  0  0  0  0  0  0
   -8.3577    2.6881    2.8475 F   0  0  0  0  0  0  0  0  0  0  0  0
   -8.4205    4.0008    1.1150 F   0  0  0  0  0  0  0  0  0  0  0  0
   -6.3000    1.9134    0.8356 C   0  0  0  0  0  0  0  0  0  0  0  0
   -1.0877   -1.0660    0.2211 C   0  0  0  0  0  0  0  0  0  0  0  0
    0.3035   -1.1580    0.3250 C   0  0  0  0  0  0  0  0  0  0  0  0
    0.9837   -2.3769    0.5062 N   0  0  0  0  0  0  0  0  0  0  0  0
    0.6480   -3.5316    1.1535 C   0  0  0  0  0  0  0  0  0  0  0  0
    1.6347   -4.2230    1.6991 N   0  0  0  0  0  0  0  0  0  0  0  0
    1.7366   -5.2947    0.8527 C   0  0  0  0  0  0  0  0  0  0  0  0
    2.8265   -6.1429    0.6287 C   0  0  0  0  0  0  0  0  0  0  0  0
    2.7259   -7.0884   -0.3961 C   0  0  0  0  0  0  0  0  0  0  0  0
    1.5437   -7.2308   -1.1286 C   0  0  0  0  0  0  0  0  0  0  0  0
    0.4201   -6.4361   -0.8707 C   0  0  0  0  0  0  0  0  0  0  0  0
    0.5676   -5.4447    0.1032 C   0  0  0  0  0  0  0  0  0  0  0  0
   -0.2579   -4.4638    0.6436 N   0  0  0  0  0  0  0  0  0  0  0  0
   -1.6718   -4.5380    0.7968 C   0  0  0  0  0  0  0  0  0  0  0  0
   -2.3004   -3.7897    1.7786 C   0  0  0  0  0  0  0  0  0  0  0  0
   -3.6702   -3.9342    1.8754 C   0  0  0  0  0  0  0  0  0  0  0  0
   -4.4050   -3.1761    2.7832 N   0  0  0  0  0  0  0  0  0  0  0  0
   -4.3761   -4.7431    1.0806 N   0  0  0  0  0  0  0  0  0  0  0  0
   -3.6762   -5.4554    0.1902 C   0  0  0  0  0  0  0  0  0  0  0  0
   -2.3521   -5.4008    0.0101 N   0  0  0  0  0  0  0  0  0  0  0  0
    2.9627    1.0411   -0.0597 H   0  0  0  0  0  0  0  0  0  0  0  0
    2.8616   -0.5361   -0.8401 H   0  0  0  0  0  0  0  0  0  0  0  0
    3.0344   -0.4105    0.9377 H   0  0  0  0  0  0  0  0  0  0  0  0
    0.9693    2.1915    0.0607 H   0  0  0  0  0  0  0  0  0  0  0  0
   -1.4373    2.3172    0.1342 H   0  0  0  0  0  0  0  0  0  0  0  0
   -3.5982   -0.7589    0.2063 H   0  0  0  0  0  0  0  0  0  0  0  0
   -5.3280   -0.7418   -1.0458 H   0  0  0  0  0  0  0  0  0  0  0  0
   -9.9219   -1.2521   -1.9313 H   0  0  0  0  0  0  0  0  0  0  0  0
   -9.6138   -1.6254   -0.2220 H   0  0  0  0  0  0  0  0  0  0  0  0
  -10.3086   -3.6531   -1.4366 H   0  0  0  0  0  0  0  0  0  0  0  0
   -8.6865   -3.8069   -0.7453 H   0  0  0  0  0  0  0  0  0  0  0  0
   -9.7511   -5.4960   -2.9791 H   0  0  0  0  0  0  0  0  0  0  0  0
   -8.1059   -5.6105   -2.3172 H   0  0  0  0  0  0  0  0  0  0  0  0
   -8.3677   -5.3476   -4.0548 H   0  0  0  0  0  0  0  0  0  0  0  0
   -6.9989   -3.2947   -4.0143 H   0  0  0  0  0  0  0  0  0  0  0  0
   -6.6912   -3.5977   -2.2977 H   0  0  0  0  0  0  0  0  0  0  0  0
   -7.9058   -1.0465   -3.5063 H   0  0  0  0  0  0  0  0  0  0  0  0
   -6.2810   -1.2479   -2.8665 H   0  0  0  0  0  0  0  0  0  0  0  0
   -9.2894    0.6058   -0.0843 H   0  0  0  0  0  0  0  0  0  0  0  0
   -5.8771    2.7415    1.4056 H   0  0  0  0  0  0  0  0  0  0  0  0
   -1.6790   -1.9638    0.1431 H   0  0  0  0  0  0  0  0  0  0  0  0
    1.9729   -2.2061    0.6676 H   0  0  0  0  0  0  0  0  0  0  0  0
    3.7437   -6.0124    1.1920 H   0  0  0  0  0  0  0  0  0  0  0  0
    3.5868   -7.7085   -0.6328 H   0  0  0  0  0  0  0  0  0  0  0  0
    1.4956   -7.9728   -1.9225 H   0  0  0  0  0  0  0  0  0  0  0  0
   -0.4973   -6.5527   -1.4369 H   0  0  0  0  0  0  0  0  0  0  0  0
   -1.7683   -3.1232    2.4436 H   0  0  0  0  0  0  0  0  0  0  0  0
   -4.0571   -3.2606    3.7325 H   0  0  0  0  0  0  0  0  0  0  0  0
   -5.3772   -3.4748    2.7194 H   0  0  0  0  0  0  0  0  0  0  0  0
   -4.2334   -6.1352   -0.4448 H   0  0  0  0  0  0  0  0  0  0  0  0
  1  2  1  0  0  0  0
  1 45  1  0  0  0  0
  1 46  1  0  0  0  0
  1 47  1  0  0  0  0
  2  3  1  0  0  0  0
  2 27  2  0  0  0  0
  3  4  2  0  0  0  0
  3 48  1  0  0  0  0
  4  5  1  0  0  0  0
  4 49  1  0  0  0  0
  5  6  1  0  0  0  0
  5 26  2  0  0  0  0
  6  7  1  0  0  0  0
  6 50  1  0  0  0  0
  7  8  2  0  0  0  0
  7  9  1  0  0  0  0
  9 10  1  0  0  0  0
  9 25  2  0  0  0  0
 10 11  2  0  0  0  0
 10 51  1  0  0  0  0
 11 12  1  0  0  0  0
 11 19  1  0  0  0  0
 12 13  1  0  0  0  0
 12 18  1  0  0  0  0
 13 14  1  0  0  0  0
 13 52  1  0  0  0  0
 13 53  1  0  0  0  0
 14 15  1  0  0  0  0
 14 54  1  0  0  0  0
 14 55  1  0  0  0  0
 15 16  1  0  0  0  0
 15 17  1  0  0  0  0
 16 56  1  0  0  0  0
 16 57  1  0  0  0  0
 16 58  1  0  0  0  0
 17 18  1  0  0  0  0
 17 59  1  0  0  0  0
 17 60  1  0  0  0  0
 18 61  1  0  0  0  0
 18 62  1  0  0  0  0
 19 20  2  0  0  0  0
 19 63  1  0  0  0  0
 20 21  1  0  0  0  0
 20 25  1  0  0  0  0
 21 22  1  0  0  0  0
 21 23  1  0  0  0  0
 21 24  1  0  0  0  0
 25 64  1  0  0  0  0
 26 27  1  0  0  0  0
 26 65  1  0  0  0  0
 27 28  1  0  0  0  0
 28 29  1  0  0  0  0
 28 66  1  0  0  0  0
 29 30  2  0  0  0  0
 29 37  1  0  0  0  0
 30 31  1  0  0  0  0
 31 32  1  0  0  0  0
 31 36  2  0  0  0  0
 32 33  2  0  0  0  0
 32 67  1  0  0  0  0
 33 34  1  0  0  0  0
 33 68  1  0  0  0  0
 34 35  2  0  0  0  0
 34 69  1  0  0  0  0
 35 36  1  0  0  0  0
 35 70  1  0  0  0  0
 36 37  1  0  0  0  0
 37 38  1  0  0  0  0
 38 39  1  0  0  0  0
 38 44  2  0  0  0  0
 39 40  2  0  0  0  0
 39 71  1  0  0  0  0
 40 41  1  0  0  0  0
 40 42  1  0  0  0  0
 41 72  1  0  0  0  0
 41 73  1  0  0  0  0
 42 43  2  0  0  0  0
 43 44  1  0  0  0  0
 43 74  1  0  0  0  0
M  END
$$$$
