CHEMBL2005828
 OpenBabel04072215363D

 44 47  0  0  0  0  0  0  0  0999 V2000
    2.0132   -0.3012    2.4777 C   0  0  0  0  0  0  0  0  0  0  0  0
    0.6115   -0.1447    1.9793 C   0  0  0  0  0  0  0  0  0  0  0  0
    0.0151    1.1174    1.9471 C   0  0  0  0  0  0  0  0  0  0  0  0
   -1.2908    1.2762    1.4778 C   0  0  0  0  0  0  0  0  0  0  0  0
   -2.0299    0.1861    1.0110 C   0  0  0  0  0  0  0  0  0  0  0  0
   -3.3529    0.3010    0.5185 N   0  0  0  0  0  0  0  0  0  0  0  0
   -4.0265    1.4866    0.2869 C   0  0  0  0  0  0  0  0  0  0  0  0
   -3.5394    2.6032    0.4061 O   0  0  0  0  0  0  0  0  0  0  0  0
   -5.3586    1.2757   -0.0545 N   0  0  0  0  0  0  0  0  0  0  0  0
   -6.2006    2.3864   -0.3047 C   0  0  0  0  0  0  0  0  0  0  0  0
   -5.7591    3.4788   -1.0569 C   0  0  0  0  0  0  0  0  0  0  0  0
   -6.5124    4.6535   -1.1154 C   0  0  0  0  0  0  0  0  0  0  0  0
   -7.7321    4.7458   -0.4358 C   0  0  0  0  0  0  0  0  0  0  0  0
   -8.4305    6.0212   -0.3317 C   0  0  0  0  0  0  0  0  0  0  0  0
   -8.4460    6.9621   -1.3442 C   0  0  0  0  0  0  0  0  0  0  0  0
   -9.1390    8.0669   -0.9766 O   0  0  0  0  0  0  0  0  0  0  0  0
   -9.5769    7.8629    0.2951 C   0  0  0  0  0  0  0  0  0  0  0  0
  -10.2948    8.7783    0.9595 N   0  0  0  0  0  0  0  0  0  0  0  0
  -10.5940    8.3613    2.1921 C   0  0  0  0  0  0  0  0  0  0  0  0
  -10.2464    7.2018    2.7772 N   0  0  0  0  0  0  0  0  0  0  0  0
   -9.5130    6.3150    2.0762 C   0  0  0  0  0  0  0  0  0  0  0  0
   -9.1472    5.1597    2.7570 N   0  0  0  0  0  0  0  0  0  0  0  0
   -9.1576    6.6201    0.7549 C   0  0  0  0  0  0  0  0  0  0  0  0
   -8.2284    3.5985    0.1988 C   0  0  0  0  0  0  0  0  0  0  0  0
   -7.4670    2.4246    0.2723 C   0  0  0  0  0  0  0  0  0  0  0  0
   -1.4388   -1.0813    1.0484 C   0  0  0  0  0  0  0  0  0  0  0  0
   -0.1288   -1.2438    1.5269 C   0  0  0  0  0  0  0  0  0  0  0  0
    2.4342    0.6617    2.7881 H   0  0  0  0  0  0  0  0  0  0  0  0
    2.6544   -0.7051    1.6887 H   0  0  0  0  0  0  0  0  0  0  0  0
    2.0330   -0.9677    3.3446 H   0  0  0  0  0  0  0  0  0  0  0  0
    0.5557    1.9971    2.2880 H   0  0  0  0  0  0  0  0  0  0  0  0
   -1.6926    2.2833    1.4970 H   0  0  0  0  0  0  0  0  0  0  0  0
   -3.7859   -0.5412    0.1652 H   0  0  0  0  0  0  0  0  0  0  0  0
   -5.7839    0.4824    0.4018 H   0  0  0  0  0  0  0  0  0  0  0  0
   -4.7940    3.4500   -1.5591 H   0  0  0  0  0  0  0  0  0  0  0  0
   -6.0938    5.5019   -1.6512 H   0  0  0  0  0  0  0  0  0  0  0  0
   -8.0292    6.9988   -2.3418 H   0  0  0  0  0  0  0  0  0  0  0  0
  -11.1821    9.0421    2.8002 H   0  0  0  0  0  0  0  0  0  0  0  0
   -9.3273    5.2772    3.7487 H   0  0  0  0  0  0  0  0  0  0  0  0
   -8.2135    4.8363    2.5305 H   0  0  0  0  0  0  0  0  0  0  0  0
   -9.1984    3.6154    0.6916 H   0  0  0  0  0  0  0  0  0  0  0  0
   -7.8441    1.5911    0.8575 H   0  0  0  0  0  0  0  0  0  0  0  0
   -1.9782   -1.9597    0.7059 H   0  0  0  0  0  0  0  0  0  0  0  0
    0.3127   -2.2386    1.5448 H   0  0  0  0  0  0  0  0  0  0  0  0
  1  2  1  0  0  0  0
  1 28  1  0  0  0  0
  1 29  1  0  0  0  0
  1 30  1  0  0  0  0
  2  3  1  0  0  0  0
  2 27  2  0  0  0  0
  3  4  2  0  0  0  0
  3 31  1  0  0  0  0
  4  5  1  0  0  0  0
  4 32  1  0  0  0  0
  5  6  1  0  0  0  0
  5 26  2  0  0  0  0
  6  7  1  0  0  0  0
  6 33  1  0  0  0  0
  7  8  2  0  0  0  0
  7  9  1  0  0  0  0
  9 10  1  0  0  0  0
  9 34  1  0  0  0  0
 10 11  1  0  0  0  0
 10 25  2  0  0  0  0
 11 12  2  0  0  0  0
 11 35  1  0  0  0  0
 12 13  1  0  0  0  0
 12 36  1  0  0  0  0
 13 14  1  0  0  0  0
 13 24  2  0  0  0  0
 14 15  2  0  0  0  0
 14 23  1  0  0  0  0
 15 16  1  0  0  0  0
 15 37  1  0  0  0  0
 16 17  1  0  0  0  0
 17 18  1  0  0  0  0
 17 23  2  0  0  0  0
 18 19  2  0  0  0  0
 19 20  1  0  0  0  0
 19 38  1  0  0  0  0
 20 21  2  0  0  0  0
 21 22  1  0  0  0  0
 21 23  1  0  0  0  0
 22 39  1  0  0  0  0
 22 40  1  0  0  0  0
 24 25  1  0  0  0  0
 24 41  1  0  0  0  0
 25 42  1  0  0  0  0
 26 27  1  0  0  0  0
 26 43  1  0  0  0  0
 27 44  1  0  0  0  0
M  END
$$$$
