CHEMBL195237
 OpenBabel04072215363D

 52 55  0  0  0  0  0  0  0  0999 V2000
    8.4503    4.6274    4.6688 C   0  0  0  0  0  0  0  0  0  0  0  0
    8.0885    3.5910    3.6246 C   0  0  0  0  0  0  0  0  0  0  0  0
    6.6584    2.6442    4.1161 S   0  0  0  0  0  0  0  0  0  0  0  0
    6.9655    1.9244    5.3364 O   0  0  0  0  0  0  0  0  0  0  0  0
    5.4959    3.5028    4.0311 O   0  0  0  0  0  0  0  0  0  0  0  0
    6.5173    1.4391    2.8193 C   0  0  0  0  0  0  0  0  0  0  0  0
    5.6711    1.6610    1.7357 C   0  0  0  0  0  0  0  0  0  0  0  0
    5.5402    0.6750    0.7526 C   0  0  0  0  0  0  0  0  0  0  0  0
    6.2534   -0.5294    0.8501 C   0  0  0  0  0  0  0  0  0  0  0  0
    6.1455   -1.5595   -0.0530 O   0  0  0  0  0  0  0  0  0  0  0  0
    5.6912   -1.2159   -1.3591 C   0  0  0  0  0  0  0  0  0  0  0  0
    7.1291   -0.7398    1.9390 C   0  0  0  0  0  0  0  0  0  0  0  0
    7.8827   -1.9317    2.0492 N   0  0  0  0  0  0  0  0  0  0  0  0
    9.1450   -1.9571    2.5147 C   0  0  0  0  0  0  0  0  0  0  0  0
   10.0392   -0.9900    2.5343 N   0  0  0  0  0  0  0  0  0  0  0  0
   11.1313   -1.5590    3.1238 C   0  0  0  0  0  0  0  0  0  0  0  0
   10.8653   -2.8657    3.4690 C   0  0  0  0  0  0  0  0  0  0  0  0
   11.6201   -3.9165    4.1407 C   0  0  0  0  0  0  0  0  0  0  0  0
   12.9314   -3.6586    4.5660 C   0  0  0  0  0  0  0  0  0  0  0  0
   13.6762   -4.6365    5.2173 C   0  0  0  0  0  0  0  0  0  0  0  0
   13.1109   -5.8841    5.4688 C   0  0  0  0  0  0  0  0  0  0  0  0
   11.7852   -6.1797    5.1009 C   0  0  0  0  0  0  0  0  0  0  0  0
   11.1670   -7.4725    5.4814 C   0  0  0  0  0  0  0  0  0  0  0  0
   11.4975   -8.0961    6.6954 C   0  0  0  0  0  0  0  0  0  0  0  0
   10.8915   -9.2950    7.0419 C   0  0  0  0  0  0  0  0  0  0  0  0
    9.9777   -9.9173    6.2775 N   0  0  0  0  0  0  0  0  0  0  0  0
    9.6582   -9.3131    5.1148 C   0  0  0  0  0  0  0  0  0  0  0  0
   10.2173   -8.1181    4.6796 C   0  0  0  0  0  0  0  0  0  0  0  0
   11.0648   -5.1802    4.4118 C   0  0  0  0  0  0  0  0  0  0  0  0
    9.5814   -3.1360    3.0586 O   0  0  0  0  0  0  0  0  0  0  0  0
    7.2335    0.2499    2.9292 C   0  0  0  0  0  0  0  0  0  0  0  0
    9.3040    5.2242    4.3346 H   0  0  0  0  0  0  0  0  0  0  0  0
    8.7184    4.1498    5.6170 H   0  0  0  0  0  0  0  0  0  0  0  0
    7.6119    5.3043    4.8624 H   0  0  0  0  0  0  0  0  0  0  0  0
    8.9202    2.8961    3.4764 H   0  0  0  0  0  0  0  0  0  0  0  0
    7.8501    4.0757    2.6717 H   0  0  0  0  0  0  0  0  0  0  0  0
    5.0991    2.5829    1.6550 H   0  0  0  0  0  0  0  0  0  0  0  0
    4.8584    0.8695   -0.0692 H   0  0  0  0  0  0  0  0  0  0  0  0
    5.7589   -2.1122   -1.9837 H   0  0  0  0  0  0  0  0  0  0  0  0
    6.3271   -0.4457   -1.8093 H   0  0  0  0  0  0  0  0  0  0  0  0
    4.6415   -0.9051   -1.3519 H   0  0  0  0  0  0  0  0  0  0  0  0
    7.3090   -2.7589    2.1474 H   0  0  0  0  0  0  0  0  0  0  0  0
   12.0413   -0.9976    3.2784 H   0  0  0  0  0  0  0  0  0  0  0  0
   13.3941   -2.6884    4.4021 H   0  0  0  0  0  0  0  0  0  0  0  0
   14.6922   -4.4247    5.5408 H   0  0  0  0  0  0  0  0  0  0  0  0
   13.7254   -6.6281    5.9720 H   0  0  0  0  0  0  0  0  0  0  0  0
   12.2071   -7.6534    7.3867 H   0  0  0  0  0  0  0  0  0  0  0  0
   11.1376   -9.7901    7.9774 H   0  0  0  0  0  0  0  0  0  0  0  0
    8.9119   -9.8307    4.5191 H   0  0  0  0  0  0  0  0  0  0  0  0
    9.9075   -7.7126    3.7224 H   0  0  0  0  0  0  0  0  0  0  0  0
   10.0370   -5.3733    4.1099 H   0  0  0  0  0  0  0  0  0  0  0  0
    7.8682    0.0806    3.7965 H   0  0  0  0  0  0  0  0  0  0  0  0
  1  2  1  0  0  0  0
  1 32  1  0  0  0  0
  1 33  1  0  0  0  0
  1 34  1  0  0  0  0
  2  3  1  0  0  0  0
  2 35  1  0  0  0  0
  2 36  1  0  0  0  0
  3  4  2  0  0  0  0
  3  5  2  0  0  0  0
  3  6  1  0  0  0  0
  6  7  1  0  0  0  0
  6 31  2  0  0  0  0
  7  8  2  0  0  0  0
  7 37  1  0  0  0  0
  8  9  1  0  0  0  0
  8 38  1  0  0  0  0
  9 10  1  0  0  0  0
  9 12  2  0  0  0  0
 10 11  1  0  0  0  0
 11 39  1  0  0  0  0
 11 40  1  0  0  0  0
 11 41  1  0  0  0  0
 12 13  1  0  0  0  0
 12 31  1  0  0  0  0
 13 14  1  0  0  0  0
 13 42  1  0  0  0  0
 14 15  2  0  0  0  0
 14 30  1  0  0  0  0
 15 16  1  0  0  0  0
 16 17  2  0  0  0  0
 16 43  1  0  0  0  0
 17 18  1  0  0  0  0
 17 30  1  0  0  0  0
 18 19  1  0  0  0  0
 18 29  2  0  0  0  0
 19 20  2  0  0  0  0
 19 44  1  0  0  0  0
 20 21  1  0  0  0  0
 20 45  1  0  0  0  0
 21 22  2  0  0  0  0
 21 46  1  0  0  0  0
 22 23  1  0  0  0  0
 22 29  1  0  0  0  0
 23 24  1  0  0  0  0
 23 28  2  0  0  0  0
 24 25  2  0  0  0  0
 24 47  1  0  0  0  0
 25 26  1  0  0  0  0
 25 48  1  0  0  0  0
 26 27  2  0  0  0  0
 27 28  1  0  0  0  0
 27 49  1  0  0  0  0
 28 50  1  0  0  0  0
 29 51  1  0  0  0  0
 31 52  1  0  0  0  0
M  END
$$$$
