CHEMBL3780971
 OpenBabel04072215373D

 56 60  0  0  0  0  0  0  0  0999 V2000
    1.6129   -1.0463   -0.1107 C   0  0  0  0  0  0  0  0  0  0  0  0
    2.3810    0.1438    0.0289 O   0  0  0  0  0  0  0  0  0  0  0  0
    3.0474    0.3097    1.2111 C   0  0  0  0  0  0  0  0  0  0  0  0
    3.0271   -0.5717    2.2872 C   0  0  0  0  0  0  0  0  0  0  0  0
    3.7596   -0.2854    3.4464 C   0  0  0  0  0  0  0  0  0  0  0  0
    4.5341    0.8845    3.5656 C   0  0  0  0  0  0  0  0  0  0  0  0
    5.3146    1.1679    4.7855 C   0  0  0  0  0  0  0  0  0  0  0  0
    5.8956    0.1635    5.5503 C   0  0  0  0  0  0  0  0  0  0  0  0
    6.5856    0.3949    6.6874 N   0  0  0  0  0  0  0  0  0  0  0  0
    6.6988    1.6866    7.0583 C   0  0  0  0  0  0  0  0  0  0  0  0
    7.3811    2.0218    8.2102 C   0  0  0  0  0  0  0  0  0  0  0  0
    7.5639    3.2743    8.6809 N   0  0  0  0  0  0  0  0  0  0  0  0
    7.0237    4.2586    7.9372 C   0  0  0  0  0  0  0  0  0  0  0  0
    6.3115    4.0608    6.7524 C   0  0  0  0  0  0  0  0  0  0  0  0
    5.7876    5.1453    6.0103 N   0  0  0  0  0  0  0  0  0  0  0  0
    6.2244    6.4757    5.9237 C   0  0  0  0  0  0  0  0  0  0  0  0
    7.5610    6.8428    6.0846 C   0  0  0  0  0  0  0  0  0  0  0  0
    7.9521    8.1890    6.0500 C   0  0  0  0  0  0  0  0  0  0  0  0
    7.0279    9.2252    5.8653 C   0  0  0  0  0  0  0  0  0  0  0  0
    7.4393   10.5427    5.7888 N   0  0  0  0  0  0  0  0  0  0  0  0
    6.6787   11.5498    5.0510 C   0  0  0  0  0  0  0  0  0  0  0  0
    7.6491   12.3694    4.1960 C   0  0  0  0  0  0  0  0  0  0  0  0
    8.7993   12.9427    5.0228 C   0  0  0  0  0  0  0  0  0  0  0  0
    9.4880   11.8574    5.8513 C   0  0  0  0  0  0  0  0  0  0  0  0
    8.4752   11.0694    6.6804 C   0  0  0  0  0  0  0  0  0  0  0  0
    5.6883    8.8421    5.7163 C   0  0  0  0  0  0  0  0  0  0  0  0
    5.2917    7.4954    5.7393 C   0  0  0  0  0  0  0  0  0  0  0  0
    6.1384    2.7407    6.3015 C   0  0  0  0  0  0  0  0  0  0  0  0
    5.4444    2.4706    5.1584 N   0  0  0  0  0  0  0  0  0  0  0  0
    4.5335    1.7652    2.4726 C   0  0  0  0  0  0  0  0  0  0  0  0
    3.8019    1.4795    1.3108 C   0  0  0  0  0  0  0  0  0  0  0  0
    1.1715   -1.0475   -1.1115 H   0  0  0  0  0  0  0  0  0  0  0  0
    0.7933   -1.0727    0.6156 H   0  0  0  0  0  0  0  0  0  0  0  0
    2.2439   -1.9379   -0.0257 H   0  0  0  0  0  0  0  0  0  0  0  0
    2.4501   -1.4903    2.2660 H   0  0  0  0  0  0  0  0  0  0  0  0
    3.6965   -0.9962    4.2683 H   0  0  0  0  0  0  0  0  0  0  0  0
    5.8346   -0.8816    5.2657 H   0  0  0  0  0  0  0  0  0  0  0  0
    7.8220    1.2375    8.8216 H   0  0  0  0  0  0  0  0  0  0  0  0
    7.1603    5.2557    8.3479 H   0  0  0  0  0  0  0  0  0  0  0  0
    5.1065    4.8580    5.3093 H   0  0  0  0  0  0  0  0  0  0  0  0
    8.3337    6.0868    6.1974 H   0  0  0  0  0  0  0  0  0  0  0  0
    9.0136    8.4091    6.1248 H   0  0  0  0  0  0  0  0  0  0  0  0
    6.1413   12.1992    5.7531 H   0  0  0  0  0  0  0  0  0  0  0  0
    5.9394   11.1089    4.3742 H   0  0  0  0  0  0  0  0  0  0  0  0
    7.1085   13.1806    3.6959 H   0  0  0  0  0  0  0  0  0  0  0  0
    8.0630   11.7257    3.4090 H   0  0  0  0  0  0  0  0  0  0  0  0
    8.4140   13.7223    5.6904 H   0  0  0  0  0  0  0  0  0  0  0  0
    9.5291   13.4189    4.3583 H   0  0  0  0  0  0  0  0  0  0  0  0
   10.2364   12.3133    6.5088 H   0  0  0  0  0  0  0  0  0  0  0  0
   10.0204   11.1723    5.1796 H   0  0  0  0  0  0  0  0  0  0  0  0
    8.0080   11.7304    7.4224 H   0  0  0  0  0  0  0  0  0  0  0  0
    8.9973   10.2945    7.2518 H   0  0  0  0  0  0  0  0  0  0  0  0
    4.9113    9.5934    5.6078 H   0  0  0  0  0  0  0  0  0  0  0  0
    4.2355    7.2583    5.6412 H   0  0  0  0  0  0  0  0  0  0  0  0
    5.1156    2.6849    2.5120 H   0  0  0  0  0  0  0  0  0  0  0  0
    3.8240    2.1782    0.4775 H   0  0  0  0  0  0  0  0  0  0  0  0
  1  2  1  0  0  0  0
  1 32  1  0  0  0  0
  1 33  1  0  0  0  0
  1 34  1  0  0  0  0
  2  3  1  0  0  0  0
  3  4  1  0  0  0  0
  3 31  2  0  0  0  0
  4  5  2  0  0  0  0
  4 35  1  0  0  0  0
  5  6  1  0  0  0  0
  5 36  1  0  0  0  0
  6  7  1  0  0  0  0
  6 30  2  0  0  0  0
  7  8  1  0  0  0  0
  7 29  2  0  0  0  0
  8  9  2  0  0  0  0
  8 37  1  0  0  0  0
  9 10  1  0  0  0  0
 10 11  1  0  0  0  0
 10 28  2  0  0  0  0
 11 12  2  0  0  0  0
 11 38  1  0  0  0  0
 12 13  1  0  0  0  0
 13 14  2  0  0  0  0
 13 39  1  0  0  0  0
 14 15  1  0  0  0  0
 14 28  1  0  0  0  0
 15 16  1  0  0  0  0
 15 40  1  0  0  0  0
 16 17  1  0  0  0  0
 16 27  2  0  0  0  0
 17 18  2  0  0  0  0
 17 41  1  0  0  0  0
 18 19  1  0  0  0  0
 18 42  1  0  0  0  0
 19 20  1  0  0  0  0
 19 26  2  0  0  0  0
 20 21  1  0  0  0  0
 20 25  1  0  0  0  0
 21 22  1  0  0  0  0
 21 43  1  0  0  0  0
 21 44  1  0  0  0  0
 22 23  1  0  0  0  0
 22 45  1  0  0  0  0
 22 46  1  0  0  0  0
 23 24  1  0  0  0  0
 23 47  1  0  0  0  0
 23 48  1  0  0  0  0
 24 25  1  0  0  0  0
 24 49  1  0  0  0  0
 24 50  1  0  0  0  0
 25 51  1  0  0  0  0
 25 52  1  0  0  0  0
 26 27  1  0  0  0  0
 26 53  1  0  0  0  0
 27 54  1  0  0  0  0
 28 29  1  0  0  0  0
 30 31  1  0  0  0  0
 30 55  1  0  0  0  0
 31 56  1  0  0  0  0
M  END
$$$$
