CHEMBL3939494
 OpenBabel04072215373D

 62 65  0  0  0  0  0  0  0  0999 V2000
    0.8886   -0.3011   -0.6681 C   0  0  0  0  0  0  0  0  0  0  0  0
    2.0576   -0.7701   -0.0781 O   0  0  0  0  0  0  0  0  0  0  0  0
    2.9829   -1.5810   -0.6677 C   0  0  0  0  0  0  0  0  0  0  0  0
    2.7989   -2.0895   -1.9545 C   0  0  0  0  0  0  0  0  0  0  0  0
    3.7446   -2.9272   -2.5299 C   0  0  0  0  0  0  0  0  0  0  0  0
    3.5128   -3.3823   -3.7807 O   0  0  0  0  0  0  0  0  0  0  0  0
    4.3826   -4.1905   -4.4729 C   0  0  0  0  0  0  0  0  0  0  0  0
    4.9169   -3.2596   -1.8200 C   0  0  0  0  0  0  0  0  0  0  0  0
    5.1839   -2.7487   -0.5567 C   0  0  0  0  0  0  0  0  0  0  0  0
    6.4353   -3.1011    0.1286 N   0  0  0  0  0  0  0  0  0  0  0  0
    6.8410   -2.2423    1.3005 C   0  0  0  0  0  0  0  0  0  0  0  0
    8.2998   -1.7501    1.0969 C   0  0  0  0  0  0  0  0  0  0  0  0
    8.9178   -1.0013    2.1955 N   0  0  0  0  0  0  0  0  0  0  0  0
    8.4196   -0.5724    3.3755 C   0  0  0  0  0  0  0  0  0  0  0  0
    9.4193    0.0825    4.0809 C   0  0  0  0  0  0  0  0  0  0  0  0
   10.5576    0.0340    3.3024 C   0  0  0  0  0  0  0  0  0  0  0  0
   10.2149   -0.6370    2.1541 C   0  0  0  0  0  0  0  0  0  0  0  0
    7.3944   -4.1874   -0.1838 C   0  0  0  0  0  0  0  0  0  0  0  0
    7.8193   -4.8342    0.9768 C   0  0  0  0  0  0  0  0  0  0  0  0
    8.9433   -5.5569    1.0398 C   0  0  0  0  0  0  0  0  0  0  0  0
    9.6883   -5.7831   -0.0661 C   0  0  0  0  0  0  0  0  0  0  0  0
   10.8599   -6.3303    0.1968 N   0  0  0  0  0  0  0  0  0  0  0  0
   11.6990   -6.6974   -0.7442 C   0  0  0  0  0  0  0  0  0  0  0  0
   11.3157   -6.6822   -2.0742 C   0  0  0  0  0  0  0  0  0  0  0  0
   12.1926   -7.6890   -2.8751 C   0  0  0  0  0  0  0  0  0  0  0  0
   12.0690   -8.2965   -4.1294 C   0  0  0  0  0  0  0  0  0  0  0  0
   12.9551   -9.3321   -4.2266 N   0  0  0  0  0  0  0  0  0  0  0  0
   13.6550   -9.3937   -3.1029 N   0  0  0  0  0  0  0  0  0  0  0  0
   14.6084  -10.4396   -2.6901 C   0  0  0  0  0  0  0  0  0  0  0  0
   13.2741   -8.4092   -2.2977 C   0  0  0  0  0  0  0  0  0  0  0  0
   10.1243   -5.9767   -2.4056 N   0  0  0  0  0  0  0  0  0  0  0  0
    9.2984   -5.4499   -1.3625 C   0  0  0  0  0  0  0  0  0  0  0  0
    8.1015   -4.5626   -1.4471 C   0  0  0  0  0  0  0  0  0  0  0  0
    4.1710   -1.9109    0.0215 C   0  0  0  0  0  0  0  0  0  0  0  0
    2.2024    0.7077    2.6308 Cl  0  0  0  0  0  0  0  0  0  0  0  0
    0.3318    0.3460    0.0428 H   0  0  0  0  0  0  0  0  0  0  0  0
    0.2223   -1.1423   -0.9559 H   0  0  0  0  0  0  0  0  0  0  0  0
    1.1296    0.3089   -1.5647 H   0  0  0  0  0  0  0  0  0  0  0  0
    1.9013   -1.8424   -2.5170 H   0  0  0  0  0  0  0  0  0  0  0  0
    3.9873   -4.3683   -5.4895 H   0  0  0  0  0  0  0  0  0  0  0  0
    4.4938   -5.1594   -3.9388 H   0  0  0  0  0  0  0  0  0  0  0  0
    5.3731   -3.6888   -4.5553 H   0  0  0  0  0  0  0  0  0  0  0  0
    5.6412   -3.9201   -2.2700 H   0  0  0  0  0  0  0  0  0  0  0  0
    6.7613   -2.7940    2.2581 H   0  0  0  0  0  0  0  0  0  0  0  0
    6.2233   -1.3469    1.4555 H   0  0  0  0  0  0  0  0  0  0  0  0
    8.3342   -1.1376    0.1747 H   0  0  0  0  0  0  0  0  0  0  0  0
    8.9641   -2.6193    0.9457 H   0  0  0  0  0  0  0  0  0  0  0  0
    7.4031   -0.7145    3.7163 H   0  0  0  0  0  0  0  0  0  0  0  0
    9.3408    0.5437    5.0565 H   0  0  0  0  0  0  0  0  0  0  0  0
   11.5344    0.4368    3.5388 H   0  0  0  0  0  0  0  0  0  0  0  0
   10.8828   -0.8609    1.3311 H   0  0  0  0  0  0  0  0  0  0  0  0
    7.3435   -4.7010    1.9267 H   0  0  0  0  0  0  0  0  0  0  0  0
    9.2891   -5.9176    1.9921 H   0  0  0  0  0  0  0  0  0  0  0  0
   12.5784   -7.1211   -0.3401 H   0  0  0  0  0  0  0  0  0  0  0  0
   11.3371   -8.0899   -4.8917 H   0  0  0  0  0  0  0  0  0  0  0  0
   14.6749  -11.2585   -3.4316 H   0  0  0  0  0  0  0  0  0  0  0  0
   14.2531  -10.8978   -1.7311 H   0  0  0  0  0  0  0  0  0  0  0  0
   15.6162  -10.0215   -2.4841 H   0  0  0  0  0  0  0  0  0  0  0  0
   13.7343   -8.3425   -1.3274 H   0  0  0  0  0  0  0  0  0  0  0  0
    7.8209   -4.1334   -2.4031 H   0  0  0  0  0  0  0  0  0  0  0  0
    4.2435   -1.5032    1.0203 H   0  0  0  0  0  0  0  0  0  0  0  0
    2.1788    1.3950    1.4376 H   0  0  0  0  0  0  0  0  0  0  0  0
  1  2  1  0  0  0  0
  1 36  1  0  0  0  0
  1 37  1  0  0  0  0
  1 38  1  0  0  0  0
  2  3  1  0  0  0  0
  3  4  1  0  0  0  0
  3 34  2  0  0  0  0
  4  5  2  0  0  0  0
  4 39  1  0  0  0  0
  5  6  1  0  0  0  0
  5  8  1  0  0  0  0
  6  7  1  0  0  0  0
  7 40  1  0  0  0  0
  7 41  1  0  0  0  0
  7 42  1  0  0  0  0
  8  9  2  0  0  0  0
  8 43  1  0  0  0  0
  9 10  1  0  0  0  0
  9 34  1  0  0  0  0
 10 11  1  0  0  0  0
 10 18  1  0  0  0  0
 11 12  1  0  0  0  0
 11 44  1  0  0  0  0
 11 45  1  0  0  0  0
 12 13  1  0  0  0  0
 12 46  1  0  0  0  0
 12 47  1  0  0  0  0
 13 14  1  0  0  0  0
 13 17  1  0  0  0  0
 14 15  2  0  0  0  0
 14 48  1  0  0  0  0
 15 16  1  0  0  0  0
 15 49  1  0  0  0  0
 16 17  2  0  0  0  0
 16 50  1  0  0  0  0
 17 51  1  0  0  0  0
 18 19  1  0  0  0  0
 18 33  2  0  0  0  0
 19 20  2  0  0  0  0
 19 52  1  0  0  0  0
 20 21  1  0  0  0  0
 20 53  1  0  0  0  0
 21 22  1  0  0  0  0
 21 32  2  0  0  0  0
 22 23  2  0  0  0  0
 23 24  1  0  0  0  0
 23 54  1  0  0  0  0
 24 25  1  0  0  0  0
 24 31  2  0  0  0  0
 25 26  1  0  0  0  0
 25 30  2  0  0  0  0
 26 27  2  0  0  0  0
 26 55  1  0  0  0  0
 27 28  1  0  0  0  0
 28 29  1  0  0  0  0
 28 30  1  0  0  0  0
 29 56  1  0  0  0  0
 29 57  1  0  0  0  0
 29 58  1  0  0  0  0
 30 59  1  0  0  0  0
 31 32  1  0  0  0  0
 32 33  1  0  0  0  0
 33 60  1  0  0  0  0
 34 61  1  0  0  0  0
 35 62  1  0  0  0  0
M  END
$$$$
