CHEMBL1977749
 OpenBabel04072215363D

 36 38  0  0  0  0  0  0  0  0999 V2000
    1.4446    0.7120   -0.4784 C   0  0  0  0  0  0  0  0  0  0  0  0
    2.3276   -0.2209   -0.1017 C   0  0  0  0  0  0  0  0  0  0  0  0
    3.1071   -0.1398    1.1752 C   0  0  0  0  0  0  0  0  0  0  0  0
    4.6008   -0.1228    0.9623 C   0  0  0  0  0  0  0  0  0  0  0  0
    5.2520    1.1145    0.8007 C   0  0  0  0  0  0  0  0  0  0  0  0
    6.6406    1.1872    0.7027 C   0  0  0  0  0  0  0  0  0  0  0  0
    7.3969    0.0220    0.7708 C   0  0  0  0  0  0  0  0  0  0  0  0
    6.7595   -1.2230    0.8556 C   0  0  0  0  0  0  0  0  0  0  0  0
    7.5664   -2.4648    0.8351 C   0  0  0  0  0  0  0  0  0  0  0  0
    8.8638   -2.3934    0.8480 N   0  0  0  0  0  0  0  0  0  0  0  0
    9.4596   -3.6605    0.8058 O   0  0  0  0  0  0  0  0  0  0  0  0
    6.7785   -3.7134    0.7708 C   0  0  0  0  0  0  0  0  0  0  0  0
    5.4472   -3.6624    0.8186 C   0  0  0  0  0  0  0  0  0  0  0  0
    4.7039   -4.9310    0.7441 C   0  0  0  0  0  0  0  0  0  0  0  0
    4.4190   -5.6409    1.9167 C   0  0  0  0  0  0  0  0  0  0  0  0
    3.9166   -6.9436    1.8506 C   0  0  0  0  0  0  0  0  0  0  0  0
    3.6709   -7.5341    0.6124 C   0  0  0  0  0  0  0  0  0  0  0  0
    3.9099   -6.8180   -0.5598 C   0  0  0  0  0  0  0  0  0  0  0  0
    4.4326   -5.5219   -0.4970 C   0  0  0  0  0  0  0  0  0  0  0  0
    4.6940   -2.5106    0.9580 O   0  0  0  0  0  0  0  0  0  0  0  0
    5.3638   -1.3046    0.9300 C   0  0  0  0  0  0  0  0  0  0  0  0
    0.8910    0.6173   -1.4088 H   0  0  0  0  0  0  0  0  0  0  0  0
    1.2553    1.5910    0.1320 H   0  0  0  0  0  0  0  0  0  0  0  0
    2.4841   -1.0948   -0.7323 H   0  0  0  0  0  0  0  0  0  0  0  0
    2.8296   -0.9678    1.8376 H   0  0  0  0  0  0  0  0  0  0  0  0
    2.8288    0.7686    1.7275 H   0  0  0  0  0  0  0  0  0  0  0  0
    4.6722    2.0356    0.7573 H   0  0  0  0  0  0  0  0  0  0  0  0
    7.1323    2.1479    0.5768 H   0  0  0  0  0  0  0  0  0  0  0  0
    8.4823    0.0859    0.7306 H   0  0  0  0  0  0  0  0  0  0  0  0
   10.4082   -3.4437    0.7831 H   0  0  0  0  0  0  0  0  0  0  0  0
    7.3190   -4.6469    0.6751 H   0  0  0  0  0  0  0  0  0  0  0  0
    4.6242   -5.2008    2.8906 H   0  0  0  0  0  0  0  0  0  0  0  0
    3.7400   -7.5036    2.7651 H   0  0  0  0  0  0  0  0  0  0  0  0
    3.3027   -8.5559    0.5611 H   0  0  0  0  0  0  0  0  0  0  0  0
    3.7145   -7.2784   -1.5252 H   0  0  0  0  0  0  0  0  0  0  0  0
    4.6588   -4.9945   -1.4193 H   0  0  0  0  0  0  0  0  0  0  0  0
  1  2  2  0  0  0  0
  1 22  1  0  0  0  0
  1 23  1  0  0  0  0
  2  3  1  0  0  0  0
  2 24  1  0  0  0  0
  3  4  1  0  0  0  0
  3 25  1  0  0  0  0
  3 26  1  0  0  0  0
  4  5  1  0  0  0  0
  4 21  2  0  0  0  0
  5  6  2  0  0  0  0
  5 27  1  0  0  0  0
  6  7  1  0  0  0  0
  6 28  1  0  0  0  0
  7  8  2  0  0  0  0
  7 29  1  0  0  0  0
  8  9  1  0  0  0  0
  8 21  1  0  0  0  0
  9 10  2  3  0  0  0
  9 12  1  0  0  0  0
 10 11  1  0  0  0  0
 11 30  1  0  0  0  0
 12 13  2  0  0  0  0
 12 31  1  0  0  0  0
 13 14  1  0  0  0  0
 13 20  1  0  0  0  0
 14 15  1  0  0  0  0
 14 19  2  0  0  0  0
 15 16  2  0  0  0  0
 15 32  1  0  0  0  0
 16 17  1  0  0  0  0
 16 33  1  0  0  0  0
 17 18  2  0  0  0  0
 17 34  1  0  0  0  0
 18 19  1  0  0  0  0
 18 35  1  0  0  0  0
 19 36  1  0  0  0  0
 20 21  1  0  0  0  0
M  END
$$$$
