CHEMBL3899385
 OpenBabel04072215373D

 60 63  0  0  1  0  0  0  0  0999 V2000
    1.2741    0.5463   -3.0973 C   0  0  0  0  0  0  0  0  0  0  0  0
    1.7932    0.4429   -1.6580 C   0  0  1  0  0  0  0  0  0  0  0  0
    2.9598   -0.4468   -1.5781 N   0  0  0  0  0  0  0  0  0  0  0  0
    2.7263   -1.7838   -1.9206 C   0  0  0  0  0  0  0  0  0  0  0  0
    1.5027   -2.3436   -1.7751 N   0  0  0  0  0  0  0  0  0  0  0  0
    1.3211   -3.6135   -2.1952 C   0  0  0  0  0  0  0  0  0  0  0  0
    2.2185   -4.4461   -2.7511 N   0  0  0  0  0  0  0  0  0  0  0  0
    3.4174   -3.8559   -2.8601 C   0  0  0  0  0  0  0  0  0  0  0  0
    4.5279   -4.4378   -3.4069 N   0  0  0  0  0  0  0  0  0  0  0  0
    5.5918   -3.5596   -3.3813 C   0  0  0  0  0  0  0  0  0  0  0  0
    6.9228   -3.8743   -3.8988 C   0  0  0  0  0  0  0  0  0  0  0  0
    7.7300   -2.8456   -4.4021 C   0  0  0  0  0  0  0  0  0  0  0  0
    9.0346   -3.1060   -4.8388 C   0  0  0  0  0  0  0  0  0  0  0  0
    9.5503   -4.3943   -4.7663 C   0  0  0  0  0  0  0  0  0  0  0  0
   10.8072   -4.7546   -5.1625 O   0  0  0  0  0  0  0  0  0  0  0  0
   11.8179   -3.7588   -4.9875 C   0  0  0  0  0  0  0  0  0  0  0  0
   13.1459   -4.3250   -5.4889 C   0  0  0  0  0  0  0  0  0  0  0  0
   13.0923   -4.7701   -6.9544 C   0  0  0  0  0  0  0  0  0  0  0  0
   12.7406   -3.6332   -7.9140 C   0  0  0  0  0  0  0  0  0  0  0  0
   12.6784   -4.1038   -9.3453 C   0  0  0  0  0  0  0  0  0  0  0  0
   13.4002   -3.6530  -10.2321 O   0  0  0  0  0  0  0  0  0  0  0  0
   11.7180   -5.0469   -9.5931 N   0  0  0  0  0  0  0  0  0  0  0  0
   11.6139   -5.5143  -10.9193 O   0  0  0  0  0  0  0  0  0  0  0  0
    8.7395   -5.4327   -4.3074 C   0  0  0  0  0  0  0  0  0  0  0  0
    7.4344   -5.1757   -3.8735 C   0  0  0  0  0  0  0  0  0  0  0  0
    5.1177   -2.3915   -2.7999 C   0  0  0  0  0  0  0  0  0  0  0  0
    3.7479   -2.5722   -2.4696 C   0  0  0  0  0  0  0  0  0  0  0  0
    2.2234    1.8181   -1.1532 C   0  0  0  0  0  0  0  0  0  0  0  0
    1.5849    2.4020   -0.0483 C   0  0  0  0  0  0  0  0  0  0  0  0
    2.0162    3.6327    0.4539 C   0  0  0  0  0  0  0  0  0  0  0  0
    3.0836    4.2990   -0.1452 C   0  0  0  0  0  0  0  0  0  0  0  0
    3.7075    3.7479   -1.2615 C   0  0  0  0  0  0  0  0  0  0  0  0
    3.2792    2.5181   -1.7636 C   0  0  0  0  0  0  0  0  0  0  0  0
    0.8104   -0.3914   -3.4224 H   0  0  0  0  0  0  0  0  0  0  0  0
    2.0824    0.7630   -3.8049 H   0  0  0  0  0  0  0  0  0  0  0  0
    0.5183    1.3324   -3.1914 H   0  0  0  0  0  0  0  0  0  0  0  0
    0.9893    0.0714   -1.0071 H   0  0  0  0  0  0  0  0  0  0  0  0
    3.3324   -0.4393   -0.6312 H   0  0  0  0  0  0  0  0  0  0  0  0
    0.3160   -4.0099   -2.0778 H   0  0  0  0  0  0  0  0  0  0  0  0
    4.5338   -5.3671   -3.7969 H   0  0  0  0  0  0  0  0  0  0  0  0
    7.3552   -1.8294   -4.4681 H   0  0  0  0  0  0  0  0  0  0  0  0
    9.6078   -2.2733   -5.2304 H   0  0  0  0  0  0  0  0  0  0  0  0
   11.9045   -3.4972   -3.9272 H   0  0  0  0  0  0  0  0  0  0  0  0
   11.5870   -2.8525   -5.5544 H   0  0  0  0  0  0  0  0  0  0  0  0
   13.4139   -5.1978   -4.8815 H   0  0  0  0  0  0  0  0  0  0  0  0
   13.9361   -3.5774   -5.3548 H   0  0  0  0  0  0  0  0  0  0  0  0
   12.3725   -5.5908   -7.0541 H   0  0  0  0  0  0  0  0  0  0  0  0
   14.0660   -5.1911   -7.2354 H   0  0  0  0  0  0  0  0  0  0  0  0
   13.4888   -2.8342   -7.8383 H   0  0  0  0  0  0  0  0  0  0  0  0
   11.7667   -3.1891   -7.6797 H   0  0  0  0  0  0  0  0  0  0  0  0
   11.1000   -5.4578   -8.9006 H   0  0  0  0  0  0  0  0  0  0  0  0
   12.3045   -4.9869  -11.3782 H   0  0  0  0  0  0  0  0  0  0  0  0
    9.1322   -6.4453   -4.2606 H   0  0  0  0  0  0  0  0  0  0  0  0
    6.8455   -6.0027   -3.4857 H   0  0  0  0  0  0  0  0  0  0  0  0
    5.6921   -1.4902   -2.6270 H   0  0  0  0  0  0  0  0  0  0  0  0
    0.7503    1.8998    0.4357 H   0  0  0  0  0  0  0  0  0  0  0  0
    1.5237    4.0687    1.3194 H   0  0  0  0  0  0  0  0  0  0  0  0
    3.4303    5.2467    0.2585 H   0  0  0  0  0  0  0  0  0  0  0  0
    4.5349    4.2688   -1.7361 H   0  0  0  0  0  0  0  0  0  0  0  0
    3.7843    2.0934   -2.6292 H   0  0  0  0  0  0  0  0  0  0  0  0
  1  2  1  0  0  0  0
  1 34  1  0  0  0  0
  1 35  1  0  0  0  0
  1 36  1  0  0  0  0
  2  3  1  0  0  0  0
  2 28  1  0  0  0  0
  2 37  1  1  0  0  0
  3  4  1  0  0  0  0
  3 38  1  0  0  0  0
  4  5  1  0  0  0  0
  4 27  2  0  0  0  0
  5  6  2  0  0  0  0
  6  7  1  0  0  0  0
  6 39  1  0  0  0  0
  7  8  2  0  0  0  0
  8  9  1  0  0  0  0
  8 27  1  0  0  0  0
  9 10  1  0  0  0  0
  9 40  1  0  0  0  0
 10 11  1  0  0  0  0
 10 26  2  0  0  0  0
 11 12  1  0  0  0  0
 11 25  2  0  0  0  0
 12 13  2  0  0  0  0
 12 41  1  0  0  0  0
 13 14  1  0  0  0  0
 13 42  1  0  0  0  0
 14 15  1  0  0  0  0
 14 24  2  0  0  0  0
 15 16  1  0  0  0  0
 16 17  1  0  0  0  0
 16 43  1  0  0  0  0
 16 44  1  0  0  0  0
 17 18  1  0  0  0  0
 17 45  1  0  0  0  0
 17 46  1  0  0  0  0
 18 19  1  0  0  0  0
 18 47  1  0  0  0  0
 18 48  1  0  0  0  0
 19 20  1  0  0  0  0
 19 49  1  0  0  0  0
 19 50  1  0  0  0  0
 20 21  2  0  0  0  0
 20 22  1  0  0  0  0
 22 23  1  0  0  0  0
 22 51  1  0  0  0  0
 23 52  1  0  0  0  0
 24 25  1  0  0  0  0
 24 53  1  0  0  0  0
 25 54  1  0  0  0  0
 26 27  1  0  0  0  0
 26 55  1  0  0  0  0
 28 29  1  0  0  0  0
 28 33  2  0  0  0  0
 29 30  2  0  0  0  0
 29 56  1  0  0  0  0
 30 31  1  0  0  0  0
 30 57  1  0  0  0  0
 31 32  2  0  0  0  0
 31 58  1  0  0  0  0
 32 33  1  0  0  0  0
 32 59  1  0  0  0  0
 33 60  1  0  0  0  0
M  END
$$$$
