CHEMBL1254755
 OpenBabel04072215363D

 67 71  0  0  0  0  0  0  0  0999 V2000
    2.0730   -0.1191   -0.8385 C   0  0  0  0  0  0  0  0  0  0  0  0
    0.6343    0.1054   -0.9715 N   0  0  0  0  0  0  0  0  0  0  0  0
   -0.1153   -1.1111   -0.6165 C   0  0  0  0  0  0  0  0  0  0  0  0
   -1.6453   -0.8810   -0.6447 C   0  0  0  0  0  0  0  0  0  0  0  0
   -2.1276    0.2080    0.2405 N   0  0  0  0  0  0  0  0  0  0  0  0
   -1.9839   -0.0679    1.6837 C   0  0  0  0  0  0  0  0  0  0  0  0
   -2.7112   -1.3104    2.1749 C   0  0  0  0  0  0  0  0  0  0  0  0
   -1.9677   -2.5002    2.1732 C   0  0  0  0  0  0  0  0  0  0  0  0
   -2.5317   -3.7235    2.5093 C   0  0  0  0  0  0  0  0  0  0  0  0
   -3.8631   -3.8210    2.8920 C   0  0  0  0  0  0  0  0  0  0  0  0
   -4.4836   -5.0737    3.1532 N   0  0  0  0  0  0  0  0  0  0  0  0
   -3.9557   -6.2912    2.7455 C   0  0  0  0  0  0  0  0  0  0  0  0
   -2.9098   -6.4349    2.1259 O   0  0  0  0  0  0  0  0  0  0  0  0
   -4.7707   -7.3725    3.0637 N   0  0  0  0  0  0  0  0  0  0  0  0
   -4.3561   -8.6783    2.6610 C   0  0  0  0  0  0  0  0  0  0  0  0
   -3.0546   -9.1243    2.9270 C   0  0  0  0  0  0  0  0  0  0  0  0
   -2.6011  -10.3463    2.4204 C   0  0  0  0  0  0  0  0  0  0  0  0
   -3.4551  -11.1589    1.6721 C   0  0  0  0  0  0  0  0  0  0  0  0
   -3.0707  -12.3338    1.0608 O   0  0  0  0  0  0  0  0  0  0  0  0
   -2.1256  -13.1388    1.6812 C   0  0  0  0  0  0  0  0  0  0  0  0
   -2.0109  -13.1412    3.0280 N   0  0  0  0  0  0  0  0  0  0  0  0
   -1.0780  -13.9328    3.5817 C   0  0  0  0  0  0  0  0  0  0  0  0
   -0.2329  -14.7650    2.9625 N   0  0  0  0  0  0  0  0  0  0  0  0
   -0.3931  -14.7945    1.6239 C   0  0  0  0  0  0  0  0  0  0  0  0
    0.3039  -15.5659    0.6680 C   0  0  0  0  0  0  0  0  0  0  0  0
   -0.2198  -15.2571   -0.5681 C   0  0  0  0  0  0  0  0  0  0  0  0
   -1.2073  -14.3195   -0.3849 N   0  0  0  0  0  0  0  0  0  0  0  0
   -2.0037  -13.7596   -1.4557 C   0  0  0  0  0  0  0  0  0  0  0  0
   -1.3250  -14.0129    0.9499 C   0  0  0  0  0  0  0  0  0  0  0  0
   -4.7612  -10.7276    1.4171 C   0  0  0  0  0  0  0  0  0  0  0  0
   -5.2151   -9.5041    1.9256 C   0  0  0  0  0  0  0  0  0  0  0  0
   -6.8162   -8.9839    1.5300 Cl  0  0  0  0  0  0  0  0  0  0  0  0
   -4.6001   -2.6350    2.9954 C   0  0  0  0  0  0  0  0  0  0  0  0
   -4.0512   -1.3708    2.6125 C   0  0  0  0  0  0  0  0  0  0  0  0
   -4.9707   -0.1698    2.7190 C   0  0  0  0  0  0  0  0  0  0  0  0
   -4.4512    1.0243    2.3341 F   0  0  0  0  0  0  0  0  0  0  0  0
   -6.1135   -0.3283    1.9914 F   0  0  0  0  0  0  0  0  0  0  0  0
   -5.3904    0.0220    4.0057 F   0  0  0  0  0  0  0  0  0  0  0  0
   -1.3544    1.4239   -0.1309 C   0  0  0  0  0  0  0  0  0  0  0  0
    0.1914    1.2444   -0.1452 C   0  0  0  0  0  0  0  0  0  0  0  0
    2.3913   -0.9642   -1.4599 H   0  0  0  0  0  0  0  0  0  0  0  0
    2.3670   -0.3298    0.1966 H   0  0  0  0  0  0  0  0  0  0  0  0
    2.6327    0.7561   -1.1849 H   0  0  0  0  0  0  0  0  0  0  0  0
    0.1969   -1.4627    0.3721 H   0  0  0  0  0  0  0  0  0  0  0  0
    0.1256   -1.9106   -1.3275 H   0  0  0  0  0  0  0  0  0  0  0  0
   -2.1738   -1.8184   -0.4452 H   0  0  0  0  0  0  0  0  0  0  0  0
   -1.9311   -0.6260   -1.6756 H   0  0  0  0  0  0  0  0  0  0  0  0
   -2.3256    0.7954    2.2631 H   0  0  0  0  0  0  0  0  0  0  0  0
   -0.9280   -0.1663    1.9656 H   0  0  0  0  0  0  0  0  0  0  0  0
   -0.9244   -2.5038    1.8722 H   0  0  0  0  0  0  0  0  0  0  0  0
   -1.8766   -4.5856    2.4563 H   0  0  0  0  0  0  0  0  0  0  0  0
   -5.4044   -5.0659    3.5577 H   0  0  0  0  0  0  0  0  0  0  0  0
   -5.7609   -7.1930    2.9590 H   0  0  0  0  0  0  0  0  0  0  0  0
   -2.3654   -8.5095    3.5027 H   0  0  0  0  0  0  0  0  0  0  0  0
   -1.5699  -10.6343    2.6082 H   0  0  0  0  0  0  0  0  0  0  0  0
   -0.9981  -13.8902    4.6630 H   0  0  0  0  0  0  0  0  0  0  0  0
    1.1032  -16.2695    0.8635 H   0  0  0  0  0  0  0  0  0  0  0  0
    0.0355  -15.6267   -1.5527 H   0  0  0  0  0  0  0  0  0  0  0  0
   -1.6957  -14.2014   -2.4078 H   0  0  0  0  0  0  0  0  0  0  0  0
   -1.8428  -12.6798   -1.4823 H   0  0  0  0  0  0  0  0  0  0  0  0
   -3.0526  -13.9983   -1.2651 H   0  0  0  0  0  0  0  0  0  0  0  0
   -5.4147  -11.3357    0.7979 H   0  0  0  0  0  0  0  0  0  0  0  0
   -5.6345   -2.6701    3.3375 H   0  0  0  0  0  0  0  0  0  0  0  0
   -1.6198    2.2546    0.5341 H   0  0  0  0  0  0  0  0  0  0  0  0
   -1.6748    1.7354   -1.1330 H   0  0  0  0  0  0  0  0  0  0  0  0
    0.5506    1.1329    0.8851 H   0  0  0  0  0  0  0  0  0  0  0  0
    0.6383    2.1646   -0.5406 H   0  0  0  0  0  0  0  0  0  0  0  0
  1  2  1  0  0  0  0
  1 41  1  0  0  0  0
  1 42  1  0  0  0  0
  1 43  1  0  0  0  0
  2  3  1  0  0  0  0
  2 40  1  0  0  0  0
  3  4  1  0  0  0  0
  3 44  1  0  0  0  0
  3 45  1  0  0  0  0
  4  5  1  0  0  0  0
  4 46  1  0  0  0  0
  4 47  1  0  0  0  0
  5  6  1  0  0  0  0
  5 39  1  0  0  0  0
  6  7  1  0  0  0  0
  6 48  1  0  0  0  0
  6 49  1  0  0  0  0
  7  8  1  0  0  0  0
  7 34  2  0  0  0  0
  8  9  2  0  0  0  0
  8 50  1  0  0  0  0
  9 10  1  0  0  0  0
  9 51  1  0  0  0  0
 10 11  1  0  0  0  0
 10 33  2  0  0  0  0
 11 12  1  0  0  0  0
 11 52  1  0  0  0  0
 12 13  2  0  0  0  0
 12 14  1  0  0  0  0
 14 15  1  0  0  0  0
 14 53  1  0  0  0  0
 15 16  1  0  0  0  0
 15 31  2  0  0  0  0
 16 17  2  0  0  0  0
 16 54  1  0  0  0  0
 17 18  1  0  0  0  0
 17 55  1  0  0  0  0
 18 19  1  0  0  0  0
 18 30  2  0  0  0  0
 19 20  1  0  0  0  0
 20 21  1  0  0  0  0
 20 29  2  0  0  0  0
 21 22  2  0  0  0  0
 22 23  1  0  0  0  0
 22 56  1  0  0  0  0
 23 24  2  0  0  0  0
 24 25  1  0  0  0  0
 24 29  1  0  0  0  0
 25 26  2  0  0  0  0
 25 57  1  0  0  0  0
 26 27  1  0  0  0  0
 26 58  1  0  0  0  0
 27 28  1  0  0  0  0
 27 29  1  0  0  0  0
 28 59  1  0  0  0  0
 28 60  1  0  0  0  0
 28 61  1  0  0  0  0
 30 31  1  0  0  0  0
 30 62  1  0  0  0  0
 31 32  1  0  0  0  0
 33 34  1  0  0  0  0
 33 63  1  0  0  0  0
 34 35  1  0  0  0  0
 35 36  1  0  0  0  0
 35 37  1  0  0  0  0
 35 38  1  0  0  0  0
 39 40  1  0  0  0  0
 39 64  1  0  0  0  0
 39 65  1  0  0  0  0
 40 66  1  0  0  0  0
 40 67  1  0  0  0  0
M  END
$$$$
