CHEMBL197287
 OpenBabel04072215363D

 64 67  0  0  0  0  0  0  0  0999 V2000
    3.3259   -3.0561   -0.9574 C   0  0  0  0  0  0  0  0  0  0  0  0
    2.7509   -4.2530   -0.4418 O   0  0  0  0  0  0  0  0  0  0  0  0
    2.5693   -4.3064    0.9080 C   0  0  0  0  0  0  0  0  0  0  0  0
    1.9989   -5.4733    1.4022 C   0  0  0  0  0  0  0  0  0  0  0  0
    1.6924   -5.6833    2.6993 N   0  0  0  0  0  0  0  0  0  0  0  0
    2.0285   -4.6955    3.5632 C   0  0  0  0  0  0  0  0  0  0  0  0
    1.4167   -5.0051    5.1469 Cl  0  0  0  0  0  0  0  0  0  0  0  0
    2.6851   -3.5090    3.1994 C   0  0  0  0  0  0  0  0  0  0  0  0
    3.0603   -2.4563    4.0661 N   0  0  0  0  0  0  0  0  0  0  0  0
    3.6481   -2.6371    5.3425 C   0  0  0  0  0  0  0  0  0  0  0  0
    4.3146   -3.7850    5.5546 N   0  0  0  0  0  0  0  0  0  0  0  0
    4.9299   -3.9270    6.7268 C   0  0  0  0  0  0  0  0  0  0  0  0
    4.9995   -3.0040    7.6873 N   0  0  0  0  0  0  0  0  0  0  0  0
    4.3588   -1.8572    7.4626 C   0  0  0  0  0  0  0  0  0  0  0  0
    4.4390   -0.8872    8.4519 C   0  0  0  0  0  0  0  0  0  0  0  0
    3.7403    0.3112    8.3585 C   0  0  0  0  0  0  0  0  0  0  0  0
    3.8992    1.1725    9.4061 O   0  0  0  0  0  0  0  0  0  0  0  0
    2.8187    2.0688    9.6553 C   0  0  0  0  0  0  0  0  0  0  0  0
    2.3846    1.8958   11.0995 C   0  0  0  0  0  0  0  0  0  0  0  0
    1.1895    2.8053   11.3781 C   0  0  0  0  0  0  0  0  0  0  0  0
    0.6758    2.6965   12.7500 N   0  0  0  0  0  0  0  0  0  0  0  0
   -0.4906    3.5915   12.9424 C   0  0  0  0  0  0  0  0  0  0  0  0
   -0.1254    5.0879   12.9970 C   0  0  0  0  0  0  0  0  0  0  0  0
    0.8814    5.3588   13.9798 O   0  0  0  0  0  0  0  0  0  0  0  0
    2.0420    4.5423   13.7715 C   0  0  0  0  0  0  0  0  0  0  0  0
    1.6752    3.0520   13.7803 C   0  0  0  0  0  0  0  0  0  0  0  0
    2.9840    0.5770    7.2288 C   0  0  0  0  0  0  0  0  0  0  0  0
    2.9439   -0.3399    6.1800 C   0  0  0  0  0  0  0  0  0  0  0  0
    2.2483   -0.0965    5.0193 O   0  0  0  0  0  0  0  0  0  0  0  0
    2.0238    1.2699    4.6246 C   0  0  0  0  0  0  0  0  0  0  0  0
    3.3361    2.0036    4.3392 C   0  0  0  0  0  0  0  0  0  0  0  0
    1.2016    1.2135    3.3397 C   0  0  0  0  0  0  0  0  0  0  0  0
    3.6219   -1.5900    6.2980 C   0  0  0  0  0  0  0  0  0  0  0  0
    2.8956   -3.3132    1.8260 C   0  0  0  0  0  0  0  0  0  0  0  0
    3.4112   -3.1654   -2.0422 H   0  0  0  0  0  0  0  0  0  0  0  0
    4.3330   -2.8999   -0.5564 H   0  0  0  0  0  0  0  0  0  0  0  0
    2.6822   -2.1922   -0.7581 H   0  0  0  0  0  0  0  0  0  0  0  0
    1.7478   -6.2937    0.7318 H   0  0  0  0  0  0  0  0  0  0  0  0
    2.3529   -1.7238    4.1024 H   0  0  0  0  0  0  0  0  0  0  0  0
    5.4182   -4.8766    6.9134 H   0  0  0  0  0  0  0  0  0  0  0  0
    5.0506   -1.0818    9.3301 H   0  0  0  0  0  0  0  0  0  0  0  0
    1.9379    1.8964    9.0313 H   0  0  0  0  0  0  0  0  0  0  0  0
    3.1735    3.0900    9.4739 H   0  0  0  0  0  0  0  0  0  0  0  0
    3.2420    2.1202   11.7419 H   0  0  0  0  0  0  0  0  0  0  0  0
    2.1209    0.8466   11.2822 H   0  0  0  0  0  0  0  0  0  0  0  0
    0.3833    2.5208   10.6885 H   0  0  0  0  0  0  0  0  0  0  0  0
    1.4620    3.8346   11.1193 H   0  0  0  0  0  0  0  0  0  0  0  0
   -0.9616    3.3138   13.8940 H   0  0  0  0  0  0  0  0  0  0  0  0
   -1.2444    3.4151   12.1660 H   0  0  0  0  0  0  0  0  0  0  0  0
   -1.0107    5.6708   13.2699 H   0  0  0  0  0  0  0  0  0  0  0  0
    0.2190    5.4570   12.0244 H   0  0  0  0  0  0  0  0  0  0  0  0
    2.7389    4.7501   14.5897 H   0  0  0  0  0  0  0  0  0  0  0  0
    2.5372    4.8418   12.8414 H   0  0  0  0  0  0  0  0  0  0  0  0
    1.2419    2.8012   14.7566 H   0  0  0  0  0  0  0  0  0  0  0  0
    2.5743    2.4326   13.7015 H   0  0  0  0  0  0  0  0  0  0  0  0
    2.4475    1.5116    7.1481 H   0  0  0  0  0  0  0  0  0  0  0  0
    1.4212    1.7959    5.3742 H   0  0  0  0  0  0  0  0  0  0  0  0
    3.9215    1.4654    3.5862 H   0  0  0  0  0  0  0  0  0  0  0  0
    3.9707    2.0800    5.2268 H   0  0  0  0  0  0  0  0  0  0  0  0
    3.1463    3.0194    3.9798 H   0  0  0  0  0  0  0  0  0  0  0  0
    1.7919    0.7824    2.5233 H   0  0  0  0  0  0  0  0  0  0  0  0
    0.8733    2.2132    3.0387 H   0  0  0  0  0  0  0  0  0  0  0  0
    0.3219    0.5741    3.4666 H   0  0  0  0  0  0  0  0  0  0  0  0
    3.3506   -2.3793    1.5109 H   0  0  0  0  0  0  0  0  0  0  0  0
  1  2  1  0  0  0  0
  1 35  1  0  0  0  0
  1 36  1  0  0  0  0
  1 37  1  0  0  0  0
  2  3  1  0  0  0  0
  3  4  1  0  0  0  0
  3 34  2  0  0  0  0
  4  5  2  0  0  0  0
  4 38  1  0  0  0  0
  5  6  1  0  0  0  0
  6  7  1  0  0  0  0
  6  8  2  0  0  0  0
  8  9  1  0  0  0  0
  8 34  1  0  0  0  0
  9 10  1  0  0  0  0
  9 39  1  0  0  0  0
 10 11  1  0  0  0  0
 10 33  2  0  0  0  0
 11 12  2  0  0  0  0
 12 13  1  0  0  0  0
 12 40  1  0  0  0  0
 13 14  2  0  0  0  0
 14 15  1  0  0  0  0
 14 33  1  0  0  0  0
 15 16  2  0  0  0  0
 15 41  1  0  0  0  0
 16 17  1  0  0  0  0
 16 27  1  0  0  0  0
 17 18  1  0  0  0  0
 18 19  1  0  0  0  0
 18 42  1  0  0  0  0
 18 43  1  0  0  0  0
 19 20  1  0  0  0  0
 19 44  1  0  0  0  0
 19 45  1  0  0  0  0
 20 21  1  0  0  0  0
 20 46  1  0  0  0  0
 20 47  1  0  0  0  0
 21 22  1  0  0  0  0
 21 26  1  0  0  0  0
 22 23  1  0  0  0  0
 22 48  1  0  0  0  0
 22 49  1  0  0  0  0
 23 24  1  0  0  0  0
 23 50  1  0  0  0  0
 23 51  1  0  0  0  0
 24 25  1  0  0  0  0
 25 26  1  0  0  0  0
 25 52  1  0  0  0  0
 25 53  1  0  0  0  0
 26 54  1  0  0  0  0
 26 55  1  0  0  0  0
 27 28  2  0  0  0  0
 27 56  1  0  0  0  0
 28 29  1  0  0  0  0
 28 33  1  0  0  0  0
 29 30  1  0  0  0  0
 30 31  1  0  0  0  0
 30 32  1  0  0  0  0
 30 57  1  0  0  0  0
 31 58  1  0  0  0  0
 31 59  1  0  0  0  0
 31 60  1  0  0  0  0
 32 61  1  0  0  0  0
 32 62  1  0  0  0  0
 32 63  1  0  0  0  0
 34 64  1  0  0  0  0
M  END
$$$$
