CHEMBL3961400
 OpenBabel04072215373D

 88 92  0  0  1  0  0  0  0  0999 V2000
    1.1586   -4.9827   -0.6201 C   0  0  0  0  0  0  0  0  0  0  0  0
    2.3702   -4.8783    0.0499 O   0  0  0  0  0  0  0  0  0  0  0  0
    2.9988   -3.7195    0.4066 C   0  0  0  0  0  0  0  0  0  0  0  0
    2.3957   -2.4714    0.2338 C   0  0  0  0  0  0  0  0  0  0  0  0
    3.0705   -1.3057    0.5828 C   0  0  0  0  0  0  0  0  0  0  0  0
    2.3990   -0.1345    0.4561 O   0  0  0  0  0  0  0  0  0  0  0  0
    2.6812    1.0170    1.1630 C   0  0  0  0  0  0  0  0  0  0  0  0
    4.4040   -1.3687    1.0462 C   0  0  0  0  0  0  0  0  0  0  0  0
    5.0555   -2.5944    1.2793 C   0  0  0  0  0  0  0  0  0  0  0  0
    6.4801   -2.7019    1.6883 N   0  0  0  0  0  0  0  0  0  0  0  0
    7.2271   -1.5954    2.3276 C   0  0  0  0  0  0  0  0  0  0  0  0
    6.4799   -0.6617    3.3569 C   0  0  0  0  0  0  0  0  0  0  0  0
    5.8609   -1.3244    4.5950 C   0  0  0  0  0  0  0  0  0  0  0  0
    5.0073   -0.3596    5.3691 N   0  0  0  0  0  0  0  0  0  0  0  0
    4.4961   -1.0085    6.5811 C   0  0  0  0  0  0  0  0  0  0  0  0
    3.1888   -1.6511    6.1541 C   0  0  0  0  0  0  0  0  0  0  0  0
    2.5161   -0.5027    5.4204 C   0  0  3  0  0  0  0  0  0  0  0  0
    1.9142    0.4902    6.3529 N   0  0  3  0  0  0  0  0  0  0  0  0
    0.8406   -0.0624    7.2018 C   0  0  0  0  0  0  0  0  0  0  0  0
   -0.5344   -0.2098    6.4875 C   0  0  2  0  0  0  0  0  0  0  0  0
   -0.7678   -1.3549    5.4786 C   0  0  0  0  0  0  0  0  0  0  0  0
   -0.9855    1.0200    5.9511 O   0  0  0  0  0  0  0  0  0  0  0  0
   -0.0149    1.6995    5.1539 C   0  0  2  0  0  0  0  0  0  0  0  0
   -0.0044    1.2809    3.6806 C   0  0  0  0  0  0  0  0  0  0  0  0
    1.4017    1.7752    5.8014 C   0  0  0  0  0  0  0  0  0  0  0  0
    3.7563    0.0076    4.6409 C   0  0  0  0  0  0  0  0  0  0  0  0
    7.2332   -3.7605    0.9852 C   0  0  0  0  0  0  0  0  0  0  0  0
    6.7483   -4.0286   -0.3043 C   0  0  0  0  0  0  0  0  0  0  0  0
    7.0324   -5.1649   -0.9554 C   0  0  0  0  0  0  0  0  0  0  0  0
    7.9208   -6.0391   -0.4430 C   0  0  0  0  0  0  0  0  0  0  0  0
    7.9659   -7.2299   -1.0332 N   0  0  0  0  0  0  0  0  0  0  0  0
    8.8979   -8.1203   -0.7446 C   0  0  0  0  0  0  0  0  0  0  0  0
   10.0003   -7.6989   -0.0049 C   0  0  0  0  0  0  0  0  0  0  0  0
   11.2818   -8.2473   -0.6117 C   0  0  0  0  0  0  0  0  0  0  0  0
   11.2946   -8.9496   -1.8394 C   0  0  0  0  0  0  0  0  0  0  0  0
   12.5345   -9.0667   -2.2953 N   0  0  0  0  0  0  0  0  0  0  0  0
   13.3325   -8.4937   -1.4263 N   0  0  0  0  0  0  0  0  0  0  0  0
   14.7463   -8.3353   -1.7222 C   0  0  0  0  0  0  0  0  0  0  0  0
   12.6263   -8.0054   -0.3642 C   0  0  0  0  0  0  0  0  0  0  0  0
    9.8697   -6.5576    0.8022 N   0  0  0  0  0  0  0  0  0  0  0  0
    8.7506   -5.7286    0.6443 C   0  0  0  0  0  0  0  0  0  0  0  0
    8.3662   -4.5656    1.4465 C   0  0  0  0  0  0  0  0  0  0  0  0
    4.2919   -3.7765    0.9654 C   0  0  0  0  0  0  0  0  0  0  0  0
    1.8011    0.6916   -2.5742 Cl  0  0  0  0  0  0  0  0  0  0  0  0
    0.8828   -6.0541   -0.7238 H   0  0  0  0  0  0  0  0  0  0  0  0
    1.2300   -4.5486   -1.6437 H   0  0  0  0  0  0  0  0  0  0  0  0
    0.3501   -4.4758   -0.0547 H   0  0  0  0  0  0  0  0  0  0  0  0
    1.3920   -2.3904   -0.1640 H   0  0  0  0  0  0  0  0  0  0  0  0
    1.9349    1.7954    0.9115 H   0  0  0  0  0  0  0  0  0  0  0  0
    3.6948    1.3999    0.9354 H   0  0  0  0  0  0  0  0  0  0  0  0
    2.5858    0.8129    2.2451 H   0  0  0  0  0  0  0  0  0  0  0  0
    4.9034   -0.4445    1.1585 H   0  0  0  0  0  0  0  0  0  0  0  0
    7.5804   -0.9318    1.5089 H   0  0  0  0  0  0  0  0  0  0  0  0
    8.1270   -2.0004    2.8334 H   0  0  0  0  0  0  0  0  0  0  0  0
    5.7028   -0.0774    2.8867 H   0  0  0  0  0  0  0  0  0  0  0  0
    7.1818    0.1251    3.6982 H   0  0  0  0  0  0  0  0  0  0  0  0
    6.6999   -1.6918    5.2278 H   0  0  0  0  0  0  0  0  0  0  0  0
    5.2645   -2.2043    4.2763 H   0  0  0  0  0  0  0  0  0  0  0  0
    4.2950   -0.2205    7.3450 H   0  0  0  0  0  0  0  0  0  0  0  0
    5.2104   -1.7298    7.0340 H   0  0  0  0  0  0  0  0  0  0  0  0
    2.6391   -2.1353    6.9742 H   0  0  0  0  0  0  0  0  0  0  0  0
    3.4082   -2.4571    5.4290 H   0  0  0  0  0  0  0  0  0  0  0  0
    1.7444   -0.8673    4.7319 H   0  0  0  0  0  0  0  0  0  0  0  0
    0.6847    0.6543    8.0406 H   0  0  0  0  0  0  0  0  0  0  0  0
    1.1185   -0.9922    7.7180 H   0  0  0  0  0  0  0  0  0  0  0  0
   -1.2043   -0.4749    7.3368 H   0  0  0  0  0  0  0  0  0  0  0  0
   -0.3915   -1.1615    4.4701 H   0  0  0  0  0  0  0  0  0  0  0  0
   -1.8643   -1.4795    5.3472 H   0  0  0  0  0  0  0  0  0  0  0  0
   -0.3449   -2.3218    5.8151 H   0  0  0  0  0  0  0  0  0  0  0  0
   -0.3890    2.7510    5.1090 H   0  0  0  0  0  0  0  0  0  0  0  0
    0.5795    0.3759    3.4722 H   0  0  0  0  0  0  0  0  0  0  0  0
    0.4745    2.0796    3.0785 H   0  0  0  0  0  0  0  0  0  0  0  0
   -1.0412    1.1392    3.3137 H   0  0  0  0  0  0  0  0  0  0  0  0
    1.2918    2.4617    6.6695 H   0  0  0  0  0  0  0  0  0  0  0  0
    2.1167    2.2963    5.1403 H   0  0  0  0  0  0  0  0  0  0  0  0
    3.7461    1.0987    4.3743 H   0  0  0  0  0  0  0  0  0  0  0  0
    3.7219   -0.5296    3.6709 H   0  0  0  0  0  0  0  0  0  0  0  0
    6.0233   -3.4000   -0.7921 H   0  0  0  0  0  0  0  0  0  0  0  0
    6.5173   -5.3900   -1.8745 H   0  0  0  0  0  0  0  0  0  0  0  0
    8.8518   -9.0139   -1.3286 H   0  0  0  0  0  0  0  0  0  0  0  0
   10.4754   -9.2721   -2.4678 H   0  0  0  0  0  0  0  0  0  0  0  0
   14.9416   -8.6772   -2.7699 H   0  0  0  0  0  0  0  0  0  0  0  0
   15.3614   -8.9311   -1.0270 H   0  0  0  0  0  0  0  0  0  0  0  0
   15.0064   -7.2595   -1.6805 H   0  0  0  0  0  0  0  0  0  0  0  0
   13.0580   -7.4411    0.4494 H   0  0  0  0  0  0  0  0  0  0  0  0
    8.8705   -4.3497    2.3874 H   0  0  0  0  0  0  0  0  0  0  0  0
    4.7299   -4.7605    1.0816 H   0  0  0  0  0  0  0  0  0  0  0  0
    1.8770    1.5035   -1.4691 H   0  0  0  0  0  0  0  0  0  0  0  0
  1  2  1  0  0  0  0
  1 45  1  0  0  0  0
  1 46  1  0  0  0  0
  1 47  1  0  0  0  0
  2  3  1  0  0  0  0
  3  4  1  0  0  0  0
  3 43  2  0  0  0  0
  4  5  2  0  0  0  0
  4 48  1  0  0  0  0
  5  6  1  0  0  0  0
  5  8  1  0  0  0  0
  6  7  1  0  0  0  0
  7 49  1  0  0  0  0
  7 50  1  0  0  0  0
  7 51  1  0  0  0  0
  8  9  2  0  0  0  0
  8 52  1  0  0  0  0
  9 10  1  0  0  0  0
  9 43  1  0  0  0  0
 10 11  1  0  0  0  0
 10 27  1  0  0  0  0
 11 12  1  0  0  0  0
 11 53  1  0  0  0  0
 11 54  1  0  0  0  0
 12 13  1  0  0  0  0
 12 55  1  0  0  0  0
 12 56  1  0  0  0  0
 13 14  1  0  0  0  0
 13 57  1  0  0  0  0
 13 58  1  0  0  0  0
 14 15  1  0  0  0  0
 14 26  1  0  0  0  0
 15 16  1  0  0  0  0
 15 59  1  0  0  0  0
 15 60  1  0  0  0  0
 16 17  1  0  0  0  0
 16 61  1  0  0  0  0
 16 62  1  0  0  0  0
 17 18  1  0  0  0  0
 17 26  1  0  0  0  0
 17 63  1  0  0  0  0
 18 19  1  0  0  0  0
 18 25  1  0  0  0  0
 19 20  1  0  0  0  0
 19 64  1  0  0  0  0
 19 65  1  0  0  0  0
 20 22  1  0  0  0  0
 20 21  1  0  0  0  0
 20 66  1  1  0  0  0
 21 67  1  0  0  0  0
 21 68  1  0  0  0  0
 21 69  1  0  0  0  0
 22 23  1  0  0  0  0
 23 25  1  0  0  0  0
 23 24  1  0  0  0  0
 23 70  1  6  0  0  0
 24 71  1  0  0  0  0
 24 72  1  0  0  0  0
 24 73  1  0  0  0  0
 25 74  1  0  0  0  0
 25 75  1  0  0  0  0
 26 76  1  0  0  0  0
 26 77  1  0  0  0  0
 27 28  1  0  0  0  0
 27 42  2  0  0  0  0
 28 29  2  0  0  0  0
 28 78  1  0  0  0  0
 29 30  1  0  0  0  0
 29 79  1  0  0  0  0
 30 31  1  0  0  0  0
 30 41  2  0  0  0  0
 31 32  2  0  0  0  0
 32 33  1  0  0  0  0
 32 80  1  0  0  0  0
 33 34  1  0  0  0  0
 33 40  2  0  0  0  0
 34 35  1  0  0  0  0
 34 39  2  0  0  0  0
 35 36  2  0  0  0  0
 35 81  1  0  0  0  0
 36 37  1  0  0  0  0
 37 38  1  0  0  0  0
 37 39  1  0  0  0  0
 38 82  1  0  0  0  0
 38 83  1  0  0  0  0
 38 84  1  0  0  0  0
 39 85  1  0  0  0  0
 40 41  1  0  0  0  0
 41 42  1  0  0  0  0
 42 86  1  0  0  0  0
 43 87  1  0  0  0  0
 44 88  1  0  0  0  0
M  END
$$$$
