CHEMBL198946
 OpenBabel04072215363D

 60 63  0  0  0  0  0  0  0  0999 V2000
    1.4228    1.5531    1.9087 C   0  0  0  0  0  0  0  0  0  0  0  0
    1.9646    2.8596    2.0796 O   0  0  0  0  0  0  0  0  0  0  0  0
    3.2952    2.8462    2.4537 C   0  0  0  0  0  0  0  0  0  0  0  0
    3.9067    4.0847    2.5548 C   0  0  0  0  0  0  0  0  0  0  0  0
    5.2498    4.1236    2.9014 C   0  0  0  0  0  0  0  0  0  0  0  0
    5.9256    2.9317    3.1608 C   0  0  0  0  0  0  0  0  0  0  0  0
    7.6313    3.0252    3.4351 Cl  0  0  0  0  0  0  0  0  0  0  0  0
    5.2198    1.7205    3.0839 C   0  0  0  0  0  0  0  0  0  0  0  0
    5.8053    0.4739    3.3374 N   0  0  0  0  0  0  0  0  0  0  0  0
    6.4686    0.0863    4.5278 C   0  0  0  0  0  0  0  0  0  0  0  0
    6.4445    0.9376    5.5734 N   0  0  0  0  0  0  0  0  0  0  0  0
    7.1014    0.5625    6.6705 C   0  0  0  0  0  0  0  0  0  0  0  0
    7.7562   -0.5871    6.8383 N   0  0  0  0  0  0  0  0  0  0  0  0
    7.7784   -1.4234    5.7987 C   0  0  0  0  0  0  0  0  0  0  0  0
    8.4847   -2.6026    5.9575 C   0  0  0  0  0  0  0  0  0  0  0  0
    8.6406   -3.5125    4.9162 C   0  0  0  0  0  0  0  0  0  0  0  0
    9.4231   -4.5981    5.2059 O   0  0  0  0  0  0  0  0  0  0  0  0
    9.9673   -5.2759    4.0695 C   0  0  0  0  0  0  0  0  0  0  0  0
   11.1222   -6.1765    4.5258 C   0  0  0  0  0  0  0  0  0  0  0  0
   11.8551   -6.7841    3.3991 N   0  0  0  0  0  0  0  0  0  0  0  0
   11.0451   -7.7210    2.6067 C   0  0  0  0  0  0  0  0  0  0  0  0
   11.1739   -9.0459    3.3258 C   0  0  0  0  0  0  0  0  0  0  0  0
   12.6282   -9.0485    3.7507 C   0  0  0  0  0  0  0  0  0  0  0  0
   13.0019   -7.5747    3.8878 C   0  0  0  0  0  0  0  0  0  0  0  0
    8.0100   -3.2749    3.7002 C   0  0  0  0  0  0  0  0  0  0  0  0
    7.2351   -2.1289    3.5279 C   0  0  0  0  0  0  0  0  0  0  0  0
    6.5472   -1.8631    2.3690 O   0  0  0  0  0  0  0  0  0  0  0  0
    6.1865   -2.9341    1.4877 C   0  0  0  0  0  0  0  0  0  0  0  0
    5.1587   -3.8553    2.1431 C   0  0  0  0  0  0  0  0  0  0  0  0
    5.5681   -2.2895    0.2471 C   0  0  0  0  0  0  0  0  0  0  0  0
    7.1430   -1.1582    4.5749 C   0  0  0  0  0  0  0  0  0  0  0  0
    3.9190    1.6731    2.6978 N   0  0  0  0  0  0  0  0  0  0  0  0
    0.3686    1.6637    1.6369 H   0  0  0  0  0  0  0  0  0  0  0  0
    1.4664    0.9775    2.8397 H   0  0  0  0  0  0  0  0  0  0  0  0
    1.9244    1.0214    1.0926 H   0  0  0  0  0  0  0  0  0  0  0  0
    3.3558    4.9928    2.3458 H   0  0  0  0  0  0  0  0  0  0  0  0
    5.7717    5.0742    2.9545 H   0  0  0  0  0  0  0  0  0  0  0  0
    5.1321   -0.2466    3.0949 H   0  0  0  0  0  0  0  0  0  0  0  0
    7.1088    1.2580    7.5018 H   0  0  0  0  0  0  0  0  0  0  0  0
    8.9632   -2.8064    6.9134 H   0  0  0  0  0  0  0  0  0  0  0  0
   10.3562   -4.5527    3.3412 H   0  0  0  0  0  0  0  0  0  0  0  0
    9.1718   -5.8753    3.6153 H   0  0  0  0  0  0  0  0  0  0  0  0
   10.7500   -6.9266    5.2354 H   0  0  0  0  0  0  0  0  0  0  0  0
   11.8149   -5.5447    5.0992 H   0  0  0  0  0  0  0  0  0  0  0  0
   11.4860   -7.7953    1.6045 H   0  0  0  0  0  0  0  0  0  0  0  0
   10.0031   -7.4258    2.4625 H   0  0  0  0  0  0  0  0  0  0  0  0
   10.9244   -9.8961    2.6850 H   0  0  0  0  0  0  0  0  0  0  0  0
   10.5196   -9.0768    4.2051 H   0  0  0  0  0  0  0  0  0  0  0  0
   13.2417   -9.5154    2.9705 H   0  0  0  0  0  0  0  0  0  0  0  0
   12.7755   -9.6051    4.6803 H   0  0  0  0  0  0  0  0  0  0  0  0
   13.8768   -7.3559    3.2646 H   0  0  0  0  0  0  0  0  0  0  0  0
   13.2843   -7.3331    4.9194 H   0  0  0  0  0  0  0  0  0  0  0  0
    8.1218   -3.9856    2.8911 H   0  0  0  0  0  0  0  0  0  0  0  0
    7.0733   -3.4867    1.1584 H   0  0  0  0  0  0  0  0  0  0  0  0
    4.2860   -3.2835    2.4779 H   0  0  0  0  0  0  0  0  0  0  0  0
    5.5649   -4.3472    3.0319 H   0  0  0  0  0  0  0  0  0  0  0  0
    4.8273   -4.6344    1.4507 H   0  0  0  0  0  0  0  0  0  0  0  0
    4.6618   -1.7301    0.5065 H   0  0  0  0  0  0  0  0  0  0  0  0
    5.3091   -3.0434   -0.5032 H   0  0  0  0  0  0  0  0  0  0  0  0
    6.2621   -1.5718   -0.2034 H   0  0  0  0  0  0  0  0  0  0  0  0
  1  2  1  0  0  0  0
  1 33  1  0  0  0  0
  1 34  1  0  0  0  0
  1 35  1  0  0  0  0
  2  3  1  0  0  0  0
  3  4  1  0  0  0  0
  3 32  2  0  0  0  0
  4  5  2  0  0  0  0
  4 36  1  0  0  0  0
  5  6  1  0  0  0  0
  5 37  1  0  0  0  0
  6  7  1  0  0  0  0
  6  8  2  0  0  0  0
  8  9  1  0  0  0  0
  8 32  1  0  0  0  0
  9 10  1  0  0  0  0
  9 38  1  0  0  0  0
 10 11  1  0  0  0  0
 10 31  2  0  0  0  0
 11 12  2  0  0  0  0
 12 13  1  0  0  0  0
 12 39  1  0  0  0  0
 13 14  2  0  0  0  0
 14 15  1  0  0  0  0
 14 31  1  0  0  0  0
 15 16  2  0  0  0  0
 15 40  1  0  0  0  0
 16 17  1  0  0  0  0
 16 25  1  0  0  0  0
 17 18  1  0  0  0  0
 18 19  1  0  0  0  0
 18 41  1  0  0  0  0
 18 42  1  0  0  0  0
 19 20  1  0  0  0  0
 19 43  1  0  0  0  0
 19 44  1  0  0  0  0
 20 21  1  0  0  0  0
 20 24  1  0  0  0  0
 21 22  1  0  0  0  0
 21 45  1  0  0  0  0
 21 46  1  0  0  0  0
 22 23  1  0  0  0  0
 22 47  1  0  0  0  0
 22 48  1  0  0  0  0
 23 24  1  0  0  0  0
 23 49  1  0  0  0  0
 23 50  1  0  0  0  0
 24 51  1  0  0  0  0
 24 52  1  0  0  0  0
 25 26  2  0  0  0  0
 25 53  1  0  0  0  0
 26 27  1  0  0  0  0
 26 31  1  0  0  0  0
 27 28  1  0  0  0  0
 28 29  1  0  0  0  0
 28 30  1  0  0  0  0
 28 54  1  0  0  0  0
 29 55  1  0  0  0  0
 29 56  1  0  0  0  0
 29 57  1  0  0  0  0
 30 58  1  0  0  0  0
 30 59  1  0  0  0  0
 30 60  1  0  0  0  0
M  END
$$$$
