CHEMBL3950630
 OpenBabel04072215373D

 47 50  0  0  0  0  0  0  0  0999 V2000
   -1.1371   -5.5858   -4.7911 C   0  0  0  0  0  0  0  0  0  0  0  0
   -0.8863   -4.4085   -3.8978 C   0  0  0  0  0  0  0  0  0  0  0  0
   -1.7175   -3.3040   -3.9297 C   0  0  0  0  0  0  0  0  0  0  0  0
   -1.3767   -2.2442   -3.1107 C   0  0  0  0  0  0  0  0  0  0  0  0
   -2.2339   -1.0154   -3.0481 C   0  0  0  0  0  0  0  0  0  0  0  0
   -0.2677   -2.2543   -2.3408 N   0  0  0  0  0  0  0  0  0  0  0  0
    0.4401   -3.3835   -2.3629 C   0  0  0  0  0  0  0  0  0  0  0  0
    1.6306   -3.3767   -1.6438 N   0  0  0  0  0  0  0  0  0  0  0  0
    1.5048   -3.8769   -0.0558 S   0  0  0  0  0  0  0  0  0  0  0  0
    2.8030   -3.6486    0.5449 O   0  0  0  0  0  0  0  0  0  0  0  0
    0.3180   -3.2997    0.5415 O   0  0  0  0  0  0  0  0  0  0  0  0
    1.2861   -5.6328   -0.1356 C   0  0  0  0  0  0  0  0  0  0  0  0
    2.2553   -6.4156   -0.7557 C   0  0  0  0  0  0  0  0  0  0  0  0
    2.1023   -7.8056   -0.7873 C   0  0  0  0  0  0  0  0  0  0  0  0
    0.9832   -8.4325   -0.2227 C   0  0  0  0  0  0  0  0  0  0  0  0
    0.7934   -9.8317   -0.1644 N   0  0  0  0  0  0  0  0  0  0  0  0
    1.6532  -10.8979   -0.5277 C   0  0  0  0  0  0  0  0  0  0  0  0
    2.9133  -10.6335   -0.9424 N   0  0  0  0  0  0  0  0  0  0  0  0
    3.8265  -11.6190   -1.1650 N   0  0  0  0  0  0  0  0  0  0  0  0
    3.4513  -12.8947   -1.0025 C   0  0  0  0  0  0  0  0  0  0  0  0
    2.1611  -13.2626   -0.6563 C   0  0  0  0  0  0  0  0  0  0  0  0
    1.7894  -14.6176   -0.6067 C   0  0  0  0  0  0  0  0  0  0  0  0
    0.5020  -14.9868   -0.2278 C   0  0  0  0  0  0  0  0  0  0  0  0
   -0.4052  -14.0107    0.1619 C   0  0  0  0  0  0  0  0  0  0  0  0
   -0.0454  -12.6592    0.1098 C   0  0  0  0  0  0  0  0  0  0  0  0
    1.2322  -12.2440   -0.3517 C   0  0  0  0  0  0  0  0  0  0  0  0
    0.0382   -7.6194    0.4281 C   0  0  0  0  0  0  0  0  0  0  0  0
    0.1816   -6.2291    0.4730 C   0  0  0  0  0  0  0  0  0  0  0  0
    0.1903   -4.4761   -3.0876 N   0  0  0  0  0  0  0  0  0  0  0  0
   -2.0167   -5.4327   -5.4255 H   0  0  0  0  0  0  0  0  0  0  0  0
   -1.3006   -6.4847   -4.1890 H   0  0  0  0  0  0  0  0  0  0  0  0
   -0.2747   -5.7465   -5.4468 H   0  0  0  0  0  0  0  0  0  0  0  0
   -2.5925   -3.2706   -4.5666 H   0  0  0  0  0  0  0  0  0  0  0  0
   -3.0848   -1.0800   -3.7350 H   0  0  0  0  0  0  0  0  0  0  0  0
   -1.6444   -0.1342   -3.3192 H   0  0  0  0  0  0  0  0  0  0  0  0
   -2.6260   -0.8851   -2.0345 H   0  0  0  0  0  0  0  0  0  0  0  0
    2.0692   -2.4567   -1.6716 H   0  0  0  0  0  0  0  0  0  0  0  0
    3.1337   -5.9604   -1.2070 H   0  0  0  0  0  0  0  0  0  0  0  0
    2.8820   -8.3731   -1.2847 H   0  0  0  0  0  0  0  0  0  0  0  0
   -0.1830  -10.0684   -0.2783 H   0  0  0  0  0  0  0  0  0  0  0  0
    4.2443  -13.6195   -1.1466 H   0  0  0  0  0  0  0  0  0  0  0  0
    2.4989  -15.3948   -0.8851 H   0  0  0  0  0  0  0  0  0  0  0  0
    0.2142  -16.0352   -0.2259 H   0  0  0  0  0  0  0  0  0  0  0  0
   -1.3974  -14.2975    0.5024 H   0  0  0  0  0  0  0  0  0  0  0  0
   -0.7835  -11.9330    0.4395 H   0  0  0  0  0  0  0  0  0  0  0  0
   -0.8103   -8.0705    0.9380 H   0  0  0  0  0  0  0  0  0  0  0  0
   -0.5548   -5.6293    1.0028 H   0  0  0  0  0  0  0  0  0  0  0  0
  1  2  1  0  0  0  0
  1 30  1  0  0  0  0
  1 31  1  0  0  0  0
  1 32  1  0  0  0  0
  2  3  1  0  0  0  0
  2 29  2  0  0  0  0
  3  4  2  0  0  0  0
  3 33  1  0  0  0  0
  4  5  1  0  0  0  0
  4  6  1  0  0  0  0
  5 34  1  0  0  0  0
  5 35  1  0  0  0  0
  5 36  1  0  0  0  0
  6  7  2  0  0  0  0
  7  8  1  0  0  0  0
  7 29  1  0  0  0  0
  8  9  1  0  0  0  0
  8 37  1  0  0  0  0
  9 10  2  0  0  0  0
  9 11  2  0  0  0  0
  9 12  1  0  0  0  0
 12 13  1  0  0  0  0
 12 28  2  0  0  0  0
 13 14  2  0  0  0  0
 13 38  1  0  0  0  0
 14 15  1  0  0  0  0
 14 39  1  0  0  0  0
 15 16  1  0  0  0  0
 15 27  2  0  0  0  0
 16 17  1  0  0  0  0
 16 40  1  0  0  0  0
 17 18  1  0  0  0  0
 17 26  2  0  0  0  0
 18 19  2  0  0  0  0
 19 20  1  0  0  0  0
 20 21  2  0  0  0  0
 20 41  1  0  0  0  0
 21 22  1  0  0  0  0
 21 26  1  0  0  0  0
 22 23  2  0  0  0  0
 22 42  1  0  0  0  0
 23 24  1  0  0  0  0
 23 43  1  0  0  0  0
 24 25  2  0  0  0  0
 24 44  1  0  0  0  0
 25 26  1  0  0  0  0
 25 45  1  0  0  0  0
 27 28  1  0  0  0  0
 27 46  1  0  0  0  0
 28 47  1  0  0  0  0
M  END
$$$$
