CHEMBL468185
 OpenBabel04072215383D

 51 55  0  0  0  0  0  0  0  0999 V2000
    0.8258    1.5097    3.9785 C   0  0  0  0  0  0  0  0  0  0  0  0
    0.6495    0.4405    2.9425 C   0  0  0  0  0  0  0  0  0  0  0  0
    1.7436   -0.3364    2.5244 C   0  0  0  0  0  0  0  0  0  0  0  0
    1.6131   -1.3140    1.5440 C   0  0  0  0  0  0  0  0  0  0  0  0
    0.3714   -1.5673    0.9580 C   0  0  0  0  0  0  0  0  0  0  0  0
   -0.7695   -0.8558    1.3918 C   0  0  0  0  0  0  0  0  0  0  0  0
   -2.1812   -0.9452    1.1188 C   0  0  0  0  0  0  0  0  0  0  0  0
   -2.9396   -1.9128    0.3234 C   0  0  0  0  0  0  0  0  0  0  0  0
   -3.9890   -1.6031   -0.2382 O   0  0  0  0  0  0  0  0  0  0  0  0
   -2.4886   -3.3393    0.2725 C   0  0  0  0  0  0  0  0  0  0  0  0
   -1.7964   -3.8691    1.3826 C   0  0  0  0  0  0  0  0  0  0  0  0
   -1.3422   -5.1804    1.3840 C   0  0  0  0  0  0  0  0  0  0  0  0
   -1.6653   -6.0039    0.3188 C   0  0  0  0  0  0  0  0  0  0  0  0
   -2.3972   -5.5040   -0.7684 C   0  0  0  0  0  0  0  0  0  0  0  0
   -2.8160   -4.1620   -0.8350 C   0  0  0  0  0  0  0  0  0  0  0  0
   -3.3399   -3.6142   -2.0273 N   0  0  0  0  0  0  0  0  0  0  0  0
   -4.2045   -4.3978   -2.8939 C   0  0  0  0  0  0  0  0  0  0  0  0
   -4.2000   -3.8877   -4.3276 C   0  0  0  0  0  0  0  0  0  0  0  0
   -5.3320   -4.1373   -5.0939 C   0  0  0  0  0  0  0  0  0  0  0  0
   -5.3538   -3.8912   -6.4632 C   0  0  0  0  0  0  0  0  0  0  0  0
   -4.2869   -3.3093   -7.1115 C   0  0  0  0  0  0  0  0  0  0  0  0
   -4.4337   -3.0910   -8.4180 N   0  0  0  0  0  0  0  0  0  0  0  0
   -3.4855   -2.3841   -9.0487 C   0  0  0  0  0  0  0  0  0  0  0  0
   -2.3740   -1.8798   -8.4126 C   0  0  0  0  0  0  0  0  0  0  0  0
   -2.1852   -2.1776   -7.0577 C   0  0  0  0  0  0  0  0  0  0  0  0
   -3.1592   -2.9198   -6.3489 C   0  0  0  0  0  0  0  0  0  0  0  0
   -3.0960   -3.2731   -4.9697 C   0  0  0  0  0  0  0  0  0  0  0  0
   -2.7800    0.0908    1.8127 C   0  0  0  0  0  0  0  0  0  0  0  0
   -1.8239    0.7326    2.5452 N   0  0  0  0  0  0  0  0  0  0  0  0
   -0.5927    0.1483    2.3469 C   0  0  0  0  0  0  0  0  0  0  0  0
    1.8622    1.5693    4.3249 H   0  0  0  0  0  0  0  0  0  0  0  0
    0.1905    1.3017    4.8453 H   0  0  0  0  0  0  0  0  0  0  0  0
    0.5513    2.4820    3.5585 H   0  0  0  0  0  0  0  0  0  0  0  0
    2.7249   -0.1690    2.9653 H   0  0  0  0  0  0  0  0  0  0  0  0
    2.4806   -1.8940    1.2376 H   0  0  0  0  0  0  0  0  0  0  0  0
    0.2939   -2.3360    0.1929 H   0  0  0  0  0  0  0  0  0  0  0  0
   -1.5714   -3.2574    2.2529 H   0  0  0  0  0  0  0  0  0  0  0  0
   -0.7409   -5.5469    2.2122 H   0  0  0  0  0  0  0  0  0  0  0  0
   -1.3321   -7.0385    0.3179 H   0  0  0  0  0  0  0  0  0  0  0  0
   -2.5923   -6.1952   -1.5818 H   0  0  0  0  0  0  0  0  0  0  0  0
   -3.7848   -2.7055   -1.8290 H   0  0  0  0  0  0  0  0  0  0  0  0
   -5.2276   -4.3369   -2.5043 H   0  0  0  0  0  0  0  0  0  0  0  0
   -3.9463   -5.4593   -2.9393 H   0  0  0  0  0  0  0  0  0  0  0  0
   -6.2368   -4.5485   -4.6375 H   0  0  0  0  0  0  0  0  0  0  0  0
   -6.2348   -4.1340   -7.0435 H   0  0  0  0  0  0  0  0  0  0  0  0
   -3.6723   -2.2142  -10.1067 H   0  0  0  0  0  0  0  0  0  0  0  0
   -1.6754   -1.2540   -8.9577 H   0  0  0  0  0  0  0  0  0  0  0  0
   -1.3096   -1.7832   -6.5469 H   0  0  0  0  0  0  0  0  0  0  0  0
   -2.1931   -3.0554   -4.3879 H   0  0  0  0  0  0  0  0  0  0  0  0
   -3.8199    0.3887    1.8714 H   0  0  0  0  0  0  0  0  0  0  0  0
   -1.9930    1.5086    3.1687 H   0  0  0  0  0  0  0  0  0  0  0  0
  1  2  1  0  0  0  0
  1 31  1  0  0  0  0
  1 32  1  0  0  0  0
  1 33  1  0  0  0  0
  2  3  1  0  0  0  0
  2 30  2  0  0  0  0
  3  4  2  0  0  0  0
  3 34  1  0  0  0  0
  4  5  1  0  0  0  0
  4 35  1  0  0  0  0
  5  6  2  0  0  0  0
  5 36  1  0  0  0  0
  6  7  1  0  0  0  0
  6 30  1  0  0  0  0
  7  8  1  0  0  0  0
  7 28  2  0  0  0  0
  8  9  2  0  0  0  0
  8 10  1  0  0  0  0
 10 11  1  0  0  0  0
 10 15  2  0  0  0  0
 11 12  2  0  0  0  0
 11 37  1  0  0  0  0
 12 13  1  0  0  0  0
 12 38  1  0  0  0  0
 13 14  2  0  0  0  0
 13 39  1  0  0  0  0
 14 15  1  0  0  0  0
 14 40  1  0  0  0  0
 15 16  1  0  0  0  0
 16 17  1  0  0  0  0
 16 41  1  0  0  0  0
 17 18  1  0  0  0  0
 17 42  1  0  0  0  0
 17 43  1  0  0  0  0
 18 19  1  0  0  0  0
 18 27  2  0  0  0  0
 19 20  2  0  0  0  0
 19 44  1  0  0  0  0
 20 21  1  0  0  0  0
 20 45  1  0  0  0  0
 21 22  1  0  0  0  0
 21 26  2  0  0  0  0
 22 23  2  0  0  0  0
 23 24  1  0  0  0  0
 23 46  1  0  0  0  0
 24 25  2  0  0  0  0
 24 47  1  0  0  0  0
 25 26  1  0  0  0  0
 25 48  1  0  0  0  0
 26 27  1  0  0  0  0
 27 49  1  0  0  0  0
 28 29  1  0  0  0  0
 28 50  1  0  0  0  0
 29 30  1  0  0  0  0
 29 51  1  0  0  0  0
M  END
$$$$
