CHEMBL238521
 OpenBabel04072215363D

 40 42  0  0  0  0  0  0  0  0999 V2000
    2.1172    0.0713   -0.0092 C   0  0  0  0  0  0  0  0  0  0  0  0
    0.6797   -0.0506    0.0143 N   0  0  0  0  0  0  0  0  0  0  0  0
   -0.1991    0.9960   -0.0028 C   0  0  0  0  0  0  0  0  0  0  0  0
   -1.4432    0.5784   -0.0649 N   0  0  0  0  0  0  0  0  0  0  0  0
   -1.3583   -0.7802   -0.0469 C   0  0  0  0  0  0  0  0  0  0  0  0
   -2.4502   -1.5625   -0.0405 N   0  0  0  0  0  0  0  0  0  0  0  0
   -3.7339   -1.1035   -0.5254 C   0  0  0  0  0  0  0  0  0  0  0  0
   -4.7844   -1.1351    0.5535 C   0  0  0  0  0  0  0  0  0  0  0  0
   -4.6902   -0.2859    1.6599 C   0  0  0  0  0  0  0  0  0  0  0  0
   -5.7166   -0.2875    2.5909 C   0  0  0  0  0  0  0  0  0  0  0  0
   -6.8154   -1.0677    2.4983 N   0  0  0  0  0  0  0  0  0  0  0  0
   -6.8865   -1.8851    1.4274 C   0  0  0  0  0  0  0  0  0  0  0  0
   -5.9114   -1.9565    0.4435 C   0  0  0  0  0  0  0  0  0  0  0  0
   -0.0496   -1.2195   -0.0357 C   0  0  0  0  0  0  0  0  0  0  0  0
    0.4963   -2.5547   -0.0924 C   0  0  0  0  0  0  0  0  0  0  0  0
    1.5925   -2.8220    0.3870 O   0  0  0  0  0  0  0  0  0  0  0  0
   -0.2933   -3.4410   -0.8092 N   0  0  0  0  0  0  0  0  0  0  0  0
   -0.0474   -4.8102   -1.0203 C   0  0  0  0  0  0  0  0  0  0  0  0
    0.8364   -5.5515   -0.2333 C   0  0  0  0  0  0  0  0  0  0  0  0
    1.0851   -6.8968   -0.5186 C   0  0  0  0  0  0  0  0  0  0  0  0
    0.4465   -7.5065   -1.5934 C   0  0  0  0  0  0  0  0  0  0  0  0
    0.7986   -9.1450   -1.9786 Cl  0  0  0  0  0  0  0  0  0  0  0  0
   -0.4697   -6.7920   -2.3615 C   0  0  0  0  0  0  0  0  0  0  0  0
   -0.7279   -5.4484   -2.0657 C   0  0  0  0  0  0  0  0  0  0  0  0
    2.3933    1.1276   -0.0758 H   0  0  0  0  0  0  0  0  0  0  0  0
    2.4992   -0.4569   -0.8873 H   0  0  0  0  0  0  0  0  0  0  0  0
    2.5206   -0.3559    0.9113 H   0  0  0  0  0  0  0  0  0  0  0  0
    0.1169    2.0317    0.0241 H   0  0  0  0  0  0  0  0  0  0  0  0
   -2.4313   -2.5075    0.3288 H   0  0  0  0  0  0  0  0  0  0  0  0
   -4.0269   -1.7767   -1.3401 H   0  0  0  0  0  0  0  0  0  0  0  0
   -3.6959   -0.0998   -0.9650 H   0  0  0  0  0  0  0  0  0  0  0  0
   -3.8370    0.3753    1.7824 H   0  0  0  0  0  0  0  0  0  0  0  0
   -5.6847    0.3669    3.4571 H   0  0  0  0  0  0  0  0  0  0  0  0
   -7.7829   -2.4967    1.3727 H   0  0  0  0  0  0  0  0  0  0  0  0
   -6.0454   -2.6288   -0.3970 H   0  0  0  0  0  0  0  0  0  0  0  0
   -1.0432   -3.0167   -1.3447 H   0  0  0  0  0  0  0  0  0  0  0  0
    1.3398   -5.1089    0.6214 H   0  0  0  0  0  0  0  0  0  0  0  0
    1.7851   -7.4522    0.0995 H   0  0  0  0  0  0  0  0  0  0  0  0
   -0.9729   -7.2697   -3.1982 H   0  0  0  0  0  0  0  0  0  0  0  0
   -1.4369   -4.9067   -2.6871 H   0  0  0  0  0  0  0  0  0  0  0  0
  1  2  1  0  0  0  0
  1 25  1  0  0  0  0
  1 26  1  0  0  0  0
  1 27  1  0  0  0  0
  2  3  1  0  0  0  0
  2 14  1  0  0  0  0
  3  4  2  0  0  0  0
  3 28  1  0  0  0  0
  4  5  1  0  0  0  0
  5  6  1  0  0  0  0
  5 14  2  0  0  0  0
  6  7  1  0  0  0  0
  6 29  1  0  0  0  0
  7  8  1  0  0  0  0
  7 30  1  0  0  0  0
  7 31  1  0  0  0  0
  8  9  1  0  0  0  0
  8 13  2  0  0  0  0
  9 10  2  0  0  0  0
  9 32  1  0  0  0  0
 10 11  1  0  0  0  0
 10 33  1  0  0  0  0
 11 12  2  0  0  0  0
 12 13  1  0  0  0  0
 12 34  1  0  0  0  0
 13 35  1  0  0  0  0
 14 15  1  0  0  0  0
 15 16  2  0  0  0  0
 15 17  1  0  0  0  0
 17 18  1  0  0  0  0
 17 36  1  0  0  0  0
 18 19  1  0  0  0  0
 18 24  2  0  0  0  0
 19 20  2  0  0  0  0
 19 37  1  0  0  0  0
 20 21  1  0  0  0  0
 20 38  1  0  0  0  0
 21 22  1  0  0  0  0
 21 23  2  0  0  0  0
 23 24  1  0  0  0  0
 23 39  1  0  0  0  0
 24 40  1  0  0  0  0
M  END
$$$$
