CHEMBL3642835
 OpenBabel04072215373D

 70 73  0  0  0  0  0  0  0  0999 V2000
   -4.0202   -4.3641    3.5257 C   0  0  0  0  0  0  0  0  0  0  0  0
   -3.8190   -3.2398    2.5472 C   0  0  0  0  0  0  0  0  0  0  0  0
   -4.6260   -2.0969    2.6868 C   0  0  0  0  0  0  0  0  0  0  0  0
   -4.4881   -0.9987    1.8340 C   0  0  0  0  0  0  0  0  0  0  0  0
   -3.5169   -1.0017    0.8406 C   0  0  0  0  0  0  0  0  0  0  0  0
   -3.2813    0.0875   -0.0310 N   0  0  0  0  0  0  0  0  0  0  0  0
   -4.1302    1.1630   -0.2408 C   0  0  0  0  0  0  0  0  0  0  0  0
   -5.2612    1.2960    0.2079 O   0  0  0  0  0  0  0  0  0  0  0  0
   -3.6217    2.2325   -1.1466 C   0  0  0  0  0  0  0  0  0  0  0  0
   -2.2778    2.5709   -1.1945 C   0  0  0  0  0  0  0  0  0  0  0  0
   -1.8568    3.6278   -2.0077 C   0  0  0  0  0  0  0  0  0  0  0  0
   -2.7475    4.3811   -2.7945 C   0  0  0  0  0  0  0  0  0  0  0  0
   -2.2893    5.4719   -3.5928 N   0  0  0  0  0  0  0  0  0  0  0  0
   -0.9887    5.9472   -3.6495 C   0  0  0  0  0  0  0  0  0  0  0  0
   -0.0385    5.5312   -3.0038 O   0  0  0  0  0  0  0  0  0  0  0  0
   -0.7892    7.0734   -4.6099 C   0  0  0  0  0  0  0  0  0  0  0  0
    0.4715    7.5055   -4.7995 C   0  0  0  0  0  0  0  0  0  0  0  0
    0.9154    8.5764   -5.7466 C   0  0  0  0  0  0  0  0  0  0  0  0
    1.9174    8.0776   -6.7007 N   0  0  0  0  0  0  0  0  0  0  0  0
    1.3789    7.0323   -7.5738 C   0  0  0  0  0  0  0  0  0  0  0  0
    2.4357    9.1818   -7.5104 C   0  0  0  0  0  0  0  0  0  0  0  0
   -4.1115    4.0273   -2.7639 C   0  0  0  0  0  0  0  0  0  0  0  0
   -5.1798    4.6997   -3.5880 C   0  0  0  0  0  0  0  0  0  0  0  0
   -4.7143    5.7031   -4.3895 F   0  0  0  0  0  0  0  0  0  0  0  0
   -5.8092    3.8282   -4.4255 F   0  0  0  0  0  0  0  0  0  0  0  0
   -6.1603    5.2617   -2.8295 F   0  0  0  0  0  0  0  0  0  0  0  0
   -4.5313    2.9658   -1.9199 C   0  0  0  0  0  0  0  0  0  0  0  0
   -2.7182   -2.1415    0.6951 C   0  0  0  0  0  0  0  0  0  0  0  0
   -2.8946   -3.2982    1.4871 C   0  0  0  0  0  0  0  0  0  0  0  0
   -2.1807   -4.4778    1.1875 N   0  0  0  0  0  0  0  0  0  0  0  0
   -1.8497   -4.9831   -0.0774 C   0  0  0  0  0  0  0  0  0  0  0  0
   -1.2016   -6.1533   -0.1269 N   0  0  0  0  0  0  0  0  0  0  0  0
   -0.9573   -6.6604   -1.3519 C   0  0  0  0  0  0  0  0  0  0  0  0
   -1.3769   -6.0749   -2.5245 C   0  0  0  0  0  0  0  0  0  0  0  0
   -2.0587   -4.8861   -2.3920 C   0  0  0  0  0  0  0  0  0  0  0  0
   -2.6761   -4.1427   -3.5051 C   0  0  0  0  0  0  0  0  0  0  0  0
   -3.7678   -3.2813   -3.2854 C   0  0  0  0  0  0  0  0  0  0  0  0
   -4.3690   -2.5967   -4.3387 C   0  0  0  0  0  0  0  0  0  0  0  0
   -3.8589   -2.7837   -5.6080 C   0  0  0  0  0  0  0  0  0  0  0  0
   -2.8092   -3.5867   -5.8792 N   0  0  0  0  0  0  0  0  0  0  0  0
   -2.2474   -4.2375   -4.8279 C   0  0  0  0  0  0  0  0  0  0  0  0
   -2.2609   -4.3383   -1.1773 N   0  0  0  0  0  0  0  0  0  0  0  0
   -4.5324   -4.0080    4.4280 H   0  0  0  0  0  0  0  0  0  0  0  0
   -3.0595   -4.7690    3.8592 H   0  0  0  0  0  0  0  0  0  0  0  0
   -4.6245   -5.1599    3.0819 H   0  0  0  0  0  0  0  0  0  0  0  0
   -5.3802   -2.0493    3.4704 H   0  0  0  0  0  0  0  0  0  0  0  0
   -5.1351   -0.1425    1.9958 H   0  0  0  0  0  0  0  0  0  0  0  0
   -2.4678    0.0040   -0.6271 H   0  0  0  0  0  0  0  0  0  0  0  0
   -1.5354    2.0624   -0.5825 H   0  0  0  0  0  0  0  0  0  0  0  0
   -0.7925    3.8378   -1.9842 H   0  0  0  0  0  0  0  0  0  0  0  0
   -2.9840    5.9591   -4.1536 H   0  0  0  0  0  0  0  0  0  0  0  0
   -1.6321    7.4931   -5.1405 H   0  0  0  0  0  0  0  0  0  0  0  0
    1.2883    7.0412   -4.2450 H   0  0  0  0  0  0  0  0  0  0  0  0
    1.3762    9.3612   -5.1315 H   0  0  0  0  0  0  0  0  0  0  0  0
    0.0622    9.0317   -6.2631 H   0  0  0  0  0  0  0  0  0  0  0  0
    1.1037    6.1396   -7.0016 H   0  0  0  0  0  0  0  0  0  0  0  0
    2.1374    6.7024   -8.2930 H   0  0  0  0  0  0  0  0  0  0  0  0
    0.4999    7.3737   -8.1314 H   0  0  0  0  0  0  0  0  0  0  0  0
    2.9076    9.9399   -6.8757 H   0  0  0  0  0  0  0  0  0  0  0  0
    1.6474    9.6641   -8.0998 H   0  0  0  0  0  0  0  0  0  0  0  0
    3.2107    8.8260   -8.1989 H   0  0  0  0  0  0  0  0  0  0  0  0
   -5.5927    2.7117   -1.8645 H   0  0  0  0  0  0  0  0  0  0  0  0
   -1.9503   -2.1510   -0.0749 H   0  0  0  0  0  0  0  0  0  0  0  0
   -2.2668   -5.2543    1.8253 H   0  0  0  0  0  0  0  0  0  0  0  0
   -0.4115   -7.6004   -1.3638 H   0  0  0  0  0  0  0  0  0  0  0  0
   -1.2037   -6.5576   -3.4764 H   0  0  0  0  0  0  0  0  0  0  0  0
   -4.1652   -3.1481   -2.2792 H   0  0  0  0  0  0  0  0  0  0  0  0
   -5.2167   -1.9418   -4.1652 H   0  0  0  0  0  0  0  0  0  0  0  0
   -4.2918   -2.2797   -6.4675 H   0  0  0  0  0  0  0  0  0  0  0  0
   -1.3977   -4.8537   -5.1084 H   0  0  0  0  0  0  0  0  0  0  0  0
  1  2  1  0  0  0  0
  1 43  1  0  0  0  0
  1 44  1  0  0  0  0
  1 45  1  0  0  0  0
  2  3  1  0  0  0  0
  2 29  2  0  0  0  0
  3  4  2  0  0  0  0
  3 46  1  0  0  0  0
  4  5  1  0  0  0  0
  4 47  1  0  0  0  0
  5  6  1  0  0  0  0
  5 28  2  0  0  0  0
  6  7  1  0  0  0  0
  6 48  1  0  0  0  0
  7  8  2  0  0  0  0
  7  9  1  0  0  0  0
  9 10  1  0  0  0  0
  9 27  2  0  0  0  0
 10 11  2  0  0  0  0
 10 49  1  0  0  0  0
 11 12  1  0  0  0  0
 11 50  1  0  0  0  0
 12 13  1  0  0  0  0
 12 22  2  0  0  0  0
 13 14  1  0  0  0  0
 13 51  1  0  0  0  0
 14 15  2  0  0  0  0
 14 16  1  0  0  0  0
 16 17  2  0  0  0  0
 16 52  1  0  0  0  0
 17 18  1  0  0  0  0
 17 53  1  0  0  0  0
 18 19  1  0  0  0  0
 18 54  1  0  0  0  0
 18 55  1  0  0  0  0
 19 20  1  0  0  0  0
 19 21  1  0  0  0  0
 20 56  1  0  0  0  0
 20 57  1  0  0  0  0
 20 58  1  0  0  0  0
 21 59  1  0  0  0  0
 21 60  1  0  0  0  0
 21 61  1  0  0  0  0
 22 23  1  0  0  0  0
 22 27  1  0  0  0  0
 23 24  1  0  0  0  0
 23 25  1  0  0  0  0
 23 26  1  0  0  0  0
 27 62  1  0  0  0  0
 28 29  1  0  0  0  0
 28 63  1  0  0  0  0
 29 30  1  0  0  0  0
 30 31  1  0  0  0  0
 30 64  1  0  0  0  0
 31 32  1  0  0  0  0
 31 42  2  0  0  0  0
 32 33  2  0  0  0  0
 33 34  1  0  0  0  0
 33 65  1  0  0  0  0
 34 35  2  0  0  0  0
 34 66  1  0  0  0  0
 35 36  1  0  0  0  0
 35 42  1  0  0  0  0
 36 37  1  0  0  0  0
 36 41  2  0  0  0  0
 37 38  2  0  0  0  0
 37 67  1  0  0  0  0
 38 39  1  0  0  0  0
 38 68  1  0  0  0  0
 39 40  2  0  0  0  0
 39 69  1  0  0  0  0
 40 41  1  0  0  0  0
 41 70  1  0  0  0  0
M  END
$$$$
