CHEMBL46785
 OpenBabel04072215383D

 70 75  0  0  1  0  0  0  0  0999 V2000
   -3.1343    2.6967    8.2460 C   0  0  0  0  0  0  0  0  0  0  0  0
   -2.0076    2.8929    7.3348 N   0  0  0  0  0  0  0  0  0  0  0  0
   -0.8167    2.1896    7.8401 C   0  0  0  0  0  0  0  0  0  0  0  0
    0.3759    2.2270    6.8596 C   0  0  0  0  0  0  0  0  0  0  0  0
    0.0641    1.7429    5.5084 N   0  0  0  0  0  0  0  0  0  0  0  0
    0.3886    0.3330    5.2474 C   0  0  1  0  0  0  0  0  0  0  0  0
   -0.2320   -0.7525    6.1478 C   0  0  0  0  0  0  0  0  0  0  0  0
   -1.6280   -1.2076    5.7333 C   0  0  0  0  0  0  0  0  0  0  0  0
   -1.7408   -1.5982    4.2521 C   0  0  2  0  0  0  0  0  0  0  0  0
   -1.2487   -2.9501    4.0182 N   0  0  0  0  0  0  0  0  0  0  0  0
    0.0497   -3.2417    4.2303 N   0  0  0  0  0  0  0  0  0  0  0  0
    0.1225   -4.5728    4.1479 C   0  0  0  0  0  0  0  0  0  0  0  0
    1.3894   -5.2450    4.4209 C   0  0  0  0  0  0  0  0  0  0  0  0
    2.2454   -4.7300    5.4013 C   0  0  0  0  0  0  0  0  0  0  0  0
    3.3926   -5.4296    5.7668 C   0  0  0  0  0  0  0  0  0  0  0  0
    3.6884   -6.6699    5.1893 C   0  0  0  0  0  0  0  0  0  0  0  0
    4.7775   -7.4551    5.6227 N   0  0  0  0  0  0  0  0  0  0  0  0
    5.3303   -7.4558    6.9207 C   0  0  0  0  0  0  0  0  0  0  0  0
    4.5184   -7.3093    8.0555 C   0  0  0  0  0  0  0  0  0  0  0  0
    5.0736   -7.2420    9.3326 C   0  0  0  0  0  0  0  0  0  0  0  0
    6.4498   -7.3579    9.4924 C   0  0  0  0  0  0  0  0  0  0  0  0
    7.2635   -7.5631    8.3800 C   0  0  0  0  0  0  0  0  0  0  0  0
    6.7073   -7.6199    7.0991 C   0  0  0  0  0  0  0  0  0  0  0  0
    2.8850   -7.1347    4.1467 C   0  0  0  0  0  0  0  0  0  0  0  0
    1.7576   -6.4136    3.7508 C   0  0  0  0  0  0  0  0  0  0  0  0
   -1.1521   -5.1408    3.8446 C   0  0  0  0  0  0  0  0  0  0  0  0
   -1.7407   -6.4055    3.6965 C   0  0  0  0  0  0  0  0  0  0  0  0
   -1.0983   -7.6161    3.9179 N   0  0  0  0  0  0  0  0  0  0  0  0
   -3.0434   -6.4785    3.3534 N   0  0  0  0  0  0  0  0  0  0  0  0
   -3.7357   -5.3335    3.2024 C   0  0  0  0  0  0  0  0  0  0  0  0
   -3.3058   -4.0762    3.3916 N   0  0  0  0  0  0  0  0  0  0  0  0
   -1.9982   -4.0504    3.7072 C   0  0  0  0  0  0  0  0  0  0  0  0
   -1.0959   -0.5691    3.3181 C   0  0  0  0  0  0  0  0  0  0  0  0
    0.2874   -0.0921    3.7676 C   0  0  0  0  0  0  0  0  0  0  0  0
   -1.1395    2.4024    5.0079 C   0  0  0  0  0  0  0  0  0  0  0  0
   -2.3495    2.4468    5.9719 C   0  0  0  0  0  0  0  0  0  0  0  0
   -2.8890    3.0797    9.2426 H   0  0  0  0  0  0  0  0  0  0  0  0
   -3.4068    1.6390    8.3455 H   0  0  0  0  0  0  0  0  0  0  0  0
   -4.0148    3.2473    7.8993 H   0  0  0  0  0  0  0  0  0  0  0  0
   -1.0726    1.1538    8.0814 H   0  0  0  0  0  0  0  0  0  0  0  0
   -0.4954    2.6583    8.7781 H   0  0  0  0  0  0  0  0  0  0  0  0
    1.2330    1.6930    7.2870 H   0  0  0  0  0  0  0  0  0  0  0  0
    0.7058    3.2713    6.7665 H   0  0  0  0  0  0  0  0  0  0  0  0
    1.4679    0.2832    5.4601 H   0  0  0  0  0  0  0  0  0  0  0  0
   -0.2281   -0.4608    7.1994 H   0  0  0  0  0  0  0  0  0  0  0  0
    0.4369   -1.6219    6.1327 H   0  0  0  0  0  0  0  0  0  0  0  0
   -2.3403   -0.4113    5.9372 H   0  0  0  0  0  0  0  0  0  0  0  0
   -1.9381   -2.0439    6.3730 H   0  0  0  0  0  0  0  0  0  0  0  0
   -2.8101   -1.6325    4.0056 H   0  0  0  0  0  0  0  0  0  0  0  0
    2.0141   -3.7934    5.9038 H   0  0  0  0  0  0  0  0  0  0  0  0
    4.0414   -5.0055    6.5289 H   0  0  0  0  0  0  0  0  0  0  0  0
    5.4678   -7.5586    4.8847 H   0  0  0  0  0  0  0  0  0  0  0  0
    3.4400   -7.2345    7.9498 H   0  0  0  0  0  0  0  0  0  0  0  0
    4.4285   -7.0940   10.1951 H   0  0  0  0  0  0  0  0  0  0  0  0
    6.8878   -7.2962   10.4847 H   0  0  0  0  0  0  0  0  0  0  0  0
    8.3422   -7.6731    8.5112 H   0  0  0  0  0  0  0  0  0  0  0  0
    7.3599   -7.7698    6.2455 H   0  0  0  0  0  0  0  0  0  0  0  0
    3.1037   -8.0857    3.6680 H   0  0  0  0  0  0  0  0  0  0  0  0
    1.1486   -6.8042    2.9369 H   0  0  0  0  0  0  0  0  0  0  0  0
   -0.3879   -7.5889    4.6403 H   0  0  0  0  0  0  0  0  0  0  0  0
   -1.7767   -8.3627    4.0132 H   0  0  0  0  0  0  0  0  0  0  0  0
   -4.7719   -5.4449    2.9023 H   0  0  0  0  0  0  0  0  0  0  0  0
   -1.7767    0.2811    3.2439 H   0  0  0  0  0  0  0  0  0  0  0  0
   -1.0230   -0.9693    2.2992 H   0  0  0  0  0  0  0  0  0  0  0  0
    0.6389    0.7132    3.1116 H   0  0  0  0  0  0  0  0  0  0  0  0
    1.0014   -0.9115    3.6069 H   0  0  0  0  0  0  0  0  0  0  0  0
   -1.4470    2.0473    4.0258 H   0  0  0  0  0  0  0  0  0  0  0  0
   -0.8587    3.4482    4.8161 H   0  0  0  0  0  0  0  0  0  0  0  0
   -2.8355    1.4711    5.9979 H   0  0  0  0  0  0  0  0  0  0  0  0
   -3.0893    3.1400    5.5522 H   0  0  0  0  0  0  0  0  0  0  0  0
  1  2  1  0  0  0  0
  1 37  1  0  0  0  0
  1 38  1  0  0  0  0
  1 39  1  0  0  0  0
  2  3  1  0  0  0  0
  2 36  1  0  0  0  0
  3  4  1  0  0  0  0
  3 40  1  0  0  0  0
  3 41  1  0  0  0  0
  4  5  1  0  0  0  0
  4 42  1  0  0  0  0
  4 43  1  0  0  0  0
  5 35  1  0  0  0  0
  6  7  1  0  0  0  0
  6 34  1  0  0  0  0
  6  5  1  0  0  0  0
  6 44  1  1  0  0  0
  7  8  1  0  0  0  0
  7 45  1  0  0  0  0
  7 46  1  0  0  0  0
  8  9  1  0  0  0  0
  8 47  1  0  0  0  0
  8 48  1  0  0  0  0
  9 33  1  0  0  0  0
  9 10  1  0  0  0  0
  9 49  1  6  0  0  0
 10 11  1  0  0  0  0
 10 32  1  0  0  0  0
 11 12  2  0  0  0  0
 12 13  1  0  0  0  0
 12 26  1  0  0  0  0
 13 14  1  0  0  0  0
 13 25  2  0  0  0  0
 14 15  2  0  0  0  0
 14 50  1  0  0  0  0
 15 16  1  0  0  0  0
 15 51  1  0  0  0  0
 16 17  1  0  0  0  0
 16 24  2  0  0  0  0
 17 18  1  0  0  0  0
 17 52  1  0  0  0  0
 18 19  1  0  0  0  0
 18 23  2  0  0  0  0
 19 20  2  0  0  0  0
 19 53  1  0  0  0  0
 20 21  1  0  0  0  0
 20 54  1  0  0  0  0
 21 22  2  0  0  0  0
 21 55  1  0  0  0  0
 22 23  1  0  0  0  0
 22 56  1  0  0  0  0
 23 57  1  0  0  0  0
 24 25  1  0  0  0  0
 24 58  1  0  0  0  0
 25 59  1  0  0  0  0
 26 27  1  0  0  0  0
 26 32  2  0  0  0  0
 27 28  1  0  0  0  0
 27 29  2  0  0  0  0
 28 60  1  0  0  0  0
 28 61  1  0  0  0  0
 29 30  1  0  0  0  0
 30 31  2  0  0  0  0
 30 62  1  0  0  0  0
 31 32  1  0  0  0  0
 33 34  1  0  0  0  0
 33 63  1  0  0  0  0
 33 64  1  0  0  0  0
 34 65  1  0  0  0  0
 34 66  1  0  0  0  0
 35 36  1  0  0  0  0
 35 67  1  0  0  0  0
 35 68  1  0  0  0  0
 36 69  1  0  0  0  0
 36 70  1  0  0  0  0
M  END
$$$$
