CHEMBL1081436
 OpenBabel04072215353D

 59 64  0  0  0  0  0  0  0  0999 V2000
    2.4282    0.2434   -0.4740 C   0  0  0  0  0  0  0  0  0  0  0  0
    0.9591    0.1367   -0.1630 C   0  0  0  0  0  0  0  0  0  0  0  0
    0.1984    1.3219   -0.1697 C   0  0  0  0  0  0  0  0  0  0  0  0
   -1.1861    1.2841   -0.0220 C   0  0  0  0  0  0  0  0  0  0  0  0
   -1.8351    0.0574    0.0804 C   0  0  0  0  0  0  0  0  0  0  0  0
   -3.3215    0.0277    0.1389 C   0  0  0  0  0  0  0  0  0  0  0  0
   -3.9241    0.9500   -0.3943 O   0  0  0  0  0  0  0  0  0  0  0  0
   -3.8788   -1.0272    0.8471 N   0  0  0  0  0  0  0  0  0  0  0  0
   -5.2657   -1.2829    1.0200 C   0  0  0  0  0  0  0  0  0  0  0  0
   -6.2118   -0.6915    0.1694 C   0  0  0  0  0  0  0  0  0  0  0  0
   -7.5778   -0.8934    0.3524 C   0  0  0  0  0  0  0  0  0  0  0  0
   -8.0235   -1.6971    1.3920 C   0  0  0  0  0  0  0  0  0  0  0  0
   -7.1023   -2.3269    2.2438 C   0  0  0  0  0  0  0  0  0  0  0  0
   -7.5491   -3.1376    3.2918 C   0  0  0  0  0  0  0  0  0  0  0  0
   -6.7446   -3.7891    4.1590 N   0  0  0  0  0  0  0  0  0  0  0  0
   -5.4229   -3.6274    3.9734 C   0  0  0  0  0  0  0  0  0  0  0  0
   -4.8705   -2.8389    2.9721 C   0  0  0  0  0  0  0  0  0  0  0  0
   -5.7141   -2.1514    2.0646 C   0  0  0  0  0  0  0  0  0  0  0  0
   -1.0820   -1.1163    0.0921 C   0  0  0  0  0  0  0  0  0  0  0  0
    0.3225   -1.1020    0.0766 C   0  0  0  0  0  0  0  0  0  0  0  0
    1.0699   -2.2855    0.2986 N   0  0  0  0  0  0  0  0  0  0  0  0
    0.6018   -3.4202    0.9029 C   0  0  0  0  0  0  0  0  0  0  0  0
   -0.6544   -3.7577    1.1141 N   0  0  0  0  0  0  0  0  0  0  0  0
   -0.6451   -5.0138    1.6314 C   0  0  0  0  0  0  0  0  0  0  0  0
   -1.7414   -5.8176    1.9795 C   0  0  0  0  0  0  0  0  0  0  0  0
   -1.5079   -7.0805    2.5260 C   0  0  0  0  0  0  0  0  0  0  0  0
   -0.2062   -7.5171    2.7562 C   0  0  0  0  0  0  0  0  0  0  0  0
    0.8977   -6.7186    2.4281 C   0  0  0  0  0  0  0  0  0  0  0  0
    0.6541   -5.4756    1.8142 C   0  0  0  0  0  0  0  0  0  0  0  0
    1.4597   -4.4446    1.3257 N   0  0  0  0  0  0  0  0  0  0  0  0
    2.8836   -4.4150    1.2422 C   0  0  0  0  0  0  0  0  0  0  0  0
    3.5782   -5.5909    1.0455 C   0  0  0  0  0  0  0  0  0  0  0  0
    4.9459   -5.4902    0.9331 C   0  0  0  0  0  0  0  0  0  0  0  0
    5.6983   -6.6091    0.5915 N   0  0  0  0  0  0  0  0  0  0  0  0
    5.5973   -4.3294    1.0434 N   0  0  0  0  0  0  0  0  0  0  0  0
    4.8415   -3.2400    1.2290 C   0  0  0  0  0  0  0  0  0  0  0  0
    3.5021   -3.2107    1.2972 N   0  0  0  0  0  0  0  0  0  0  0  0
    2.7169    1.2795   -0.6864 H   0  0  0  0  0  0  0  0  0  0  0  0
    2.6585   -0.3384   -1.3735 H   0  0  0  0  0  0  0  0  0  0  0  0
    3.0390   -0.1071    0.3616 H   0  0  0  0  0  0  0  0  0  0  0  0
    0.6801    2.2887   -0.2985 H   0  0  0  0  0  0  0  0  0  0  0  0
   -1.7593    2.2085   -0.0189 H   0  0  0  0  0  0  0  0  0  0  0  0
   -3.2395   -1.5892    1.3909 H   0  0  0  0  0  0  0  0  0  0  0  0
   -5.9087   -0.0702   -0.6681 H   0  0  0  0  0  0  0  0  0  0  0  0
   -8.2869   -0.4147   -0.3177 H   0  0  0  0  0  0  0  0  0  0  0  0
   -9.0940   -1.8297    1.5305 H   0  0  0  0  0  0  0  0  0  0  0  0
   -8.6113   -3.2844    3.4753 H   0  0  0  0  0  0  0  0  0  0  0  0
   -4.7900   -4.1554    4.6814 H   0  0  0  0  0  0  0  0  0  0  0  0
   -3.7900   -2.7790    2.9197 H   0  0  0  0  0  0  0  0  0  0  0  0
   -1.6083   -2.0642    0.0820 H   0  0  0  0  0  0  0  0  0  0  0  0
    2.0777   -2.1369    0.3323 H   0  0  0  0  0  0  0  0  0  0  0  0
   -2.7521   -5.4588    1.8151 H   0  0  0  0  0  0  0  0  0  0  0  0
   -2.3505   -7.7182    2.7833 H   0  0  0  0  0  0  0  0  0  0  0  0
   -0.0445   -8.4963    3.2036 H   0  0  0  0  0  0  0  0  0  0  0  0
    1.8958   -7.0728    2.6603 H   0  0  0  0  0  0  0  0  0  0  0  0
    3.0958   -6.5436    0.8831 H   0  0  0  0  0  0  0  0  0  0  0  0
    5.5084   -7.4197    1.1680 H   0  0  0  0  0  0  0  0  0  0  0  0
    6.6822   -6.3509    0.5916 H   0  0  0  0  0  0  0  0  0  0  0  0
    5.3634   -2.2935    1.3263 H   0  0  0  0  0  0  0  0  0  0  0  0
  1  2  1  0  0  0  0
  1 38  1  0  0  0  0
  1 39  1  0  0  0  0
  1 40  1  0  0  0  0
  2  3  1  0  0  0  0
  2 20  2  0  0  0  0
  3  4  2  0  0  0  0
  3 41  1  0  0  0  0
  4  5  1  0  0  0  0
  4 42  1  0  0  0  0
  5  6  1  0  0  0  0
  5 19  2  0  0  0  0
  6  7  2  0  0  0  0
  6  8  1  0  0  0  0
  8  9  1  0  0  0  0
  8 43  1  0  0  0  0
  9 10  1  0  0  0  0
  9 18  2  0  0  0  0
 10 11  2  0  0  0  0
 10 44  1  0  0  0  0
 11 12  1  0  0  0  0
 11 45  1  0  0  0  0
 12 13  2  0  0  0  0
 12 46  1  0  0  0  0
 13 14  1  0  0  0  0
 13 18  1  0  0  0  0
 14 15  2  0  0  0  0
 14 47  1  0  0  0  0
 15 16  1  0  0  0  0
 16 17  2  0  0  0  0
 16 48  1  0  0  0  0
 17 18  1  0  0  0  0
 17 49  1  0  0  0  0
 19 20  1  0  0  0  0
 19 50  1  0  0  0  0
 20 21  1  0  0  0  0
 21 22  1  0  0  0  0
 21 51  1  0  0  0  0
 22 23  2  0  0  0  0
 22 30  1  0  0  0  0
 23 24  1  0  0  0  0
 24 25  1  0  0  0  0
 24 29  2  0  0  0  0
 25 26  2  0  0  0  0
 25 52  1  0  0  0  0
 26 27  1  0  0  0  0
 26 53  1  0  0  0  0
 27 28  2  0  0  0  0
 27 54  1  0  0  0  0
 28 29  1  0  0  0  0
 28 55  1  0  0  0  0
 29 30  1  0  0  0  0
 30 31  1  0  0  0  0
 31 32  1  0  0  0  0
 31 37  2  0  0  0  0
 32 33  2  0  0  0  0
 32 56  1  0  0  0  0
 33 34  1  0  0  0  0
 33 35  1  0  0  0  0
 34 57  1  0  0  0  0
 34 58  1  0  0  0  0
 35 36  2  0  0  0  0
 36 37  1  0  0  0  0
 36 59  1  0  0  0  0
M  END
$$$$
