CHEMBL1076433
 OpenBabel04072215353D

 77 82  0  0  0  0  0  0  0  0999 V2000
    3.0599    7.2597   -5.0570 C   0  0  0  0  0  0  0  0  0  0  0  0
    4.3255    7.0457   -4.2428 C   0  0  0  0  0  0  0  0  0  0  0  0
    4.0781    6.6663   -2.8490 N   0  0  0  0  0  0  0  0  0  0  0  0
    5.3559    6.6211   -2.1163 C   0  0  0  0  0  0  0  0  0  0  0  0
    6.2159    5.3684   -2.4168 C   0  0  0  0  0  0  0  0  0  0  0  0
    5.5321    4.0874   -2.1305 N   0  0  0  0  0  0  0  0  0  0  0  0
    5.3280    3.8559   -0.6807 C   0  0  0  0  0  0  0  0  0  0  0  0
    6.6324    3.7210    0.0883 C   0  0  0  0  0  0  0  0  0  0  0  0
    7.2842    2.4711    0.1061 C   0  0  0  0  0  0  0  0  0  0  0  0
    8.5482    2.3237    0.6867 C   0  0  0  0  0  0  0  0  0  0  0  0
    9.2040    3.4444    1.1967 C   0  0  0  0  0  0  0  0  0  0  0  0
   10.5464    3.3981    1.8152 C   0  0  0  0  0  0  0  0  0  0  0  0
   10.8066    4.2628    2.6458 O   0  0  0  0  0  0  0  0  0  0  0  0
   11.4040    2.4236    1.3469 N   0  0  0  0  0  0  0  0  0  0  0  0
   12.7483    2.2857    1.7623 C   0  0  0  0  0  0  0  0  0  0  0  0
   13.2560    2.9021    2.8986 C   0  0  0  0  0  0  0  0  0  0  0  0
   14.6290    2.9167    3.1231 C   0  0  0  0  0  0  0  0  0  0  0  0
   15.5053    2.2343    2.2681 C   0  0  0  0  0  0  0  0  0  0  0  0
   16.9702    2.5217    2.4209 C   0  0  0  0  0  0  0  0  0  0  0  0
   14.9818    1.4210    1.2361 C   0  0  0  0  0  0  0  0  0  0  0  0
   15.8310    0.5725    0.4715 N   0  0  0  0  0  0  0  0  0  0  0  0
   15.4404   -0.4376   -0.3598 C   0  0  0  0  0  0  0  0  0  0  0  0
   14.2395   -0.6462   -0.8619 N   0  0  0  0  0  0  0  0  0  0  0  0
   14.3349   -1.7221   -1.6901 C   0  0  0  0  0  0  0  0  0  0  0  0
   13.3252   -2.3195   -2.4571 C   0  0  0  0  0  0  0  0  0  0  0  0
   13.6347   -3.4411   -3.2288 C   0  0  0  0  0  0  0  0  0  0  0  0
   14.9177   -3.9826   -3.2007 C   0  0  0  0  0  0  0  0  0  0  0  0
   15.9295   -3.4076   -2.4210 C   0  0  0  0  0  0  0  0  0  0  0  0
   15.6229   -2.2336   -1.7058 C   0  0  0  0  0  0  0  0  0  0  0  0
   16.3511   -1.3710   -0.8783 N   0  0  0  0  0  0  0  0  0  0  0  0
   17.7542   -1.4000   -0.6325 C   0  0  0  0  0  0  0  0  0  0  0  0
   18.6003   -1.8404   -1.6312 C   0  0  0  0  0  0  0  0  0  0  0  0
   19.9484   -1.8144   -1.3620 C   0  0  0  0  0  0  0  0  0  0  0  0
   20.8621   -2.1159   -2.3681 N   0  0  0  0  0  0  0  0  0  0  0  0
   20.4403   -1.4175   -0.1863 N   0  0  0  0  0  0  0  0  0  0  0  0
   19.5457   -1.0004    0.7211 C   0  0  0  0  0  0  0  0  0  0  0  0
   18.2151   -0.9322    0.5513 N   0  0  0  0  0  0  0  0  0  0  0  0
   13.6037    1.5202    0.9679 C   0  0  0  0  0  0  0  0  0  0  0  0
    8.5580    4.6806    1.2108 C   0  0  0  0  0  0  0  0  0  0  0  0
    7.2622    4.8031    0.7267 C   0  0  0  0  0  0  0  0  0  0  0  0
    6.5031    6.3199    1.0327 Cl  0  0  0  0  0  0  0  0  0  0  0  0
    4.2395    4.1063   -2.8630 C   0  0  0  0  0  0  0  0  0  0  0  0
    3.3788    5.3783   -2.6548 C   0  0  0  0  0  0  0  0  0  0  0  0
    3.3227    7.6817   -6.0323 H   0  0  0  0  0  0  0  0  0  0  0  0
    2.3804    7.9586   -4.5592 H   0  0  0  0  0  0  0  0  0  0  0  0
    2.5329    6.3193   -5.2366 H   0  0  0  0  0  0  0  0  0  0  0  0
    4.8608    8.0057   -4.2404 H   0  0  0  0  0  0  0  0  0  0  0  0
    4.9690    6.3272   -4.7606 H   0  0  0  0  0  0  0  0  0  0  0  0
    5.0863    6.6569   -1.0618 H   0  0  0  0  0  0  0  0  0  0  0  0
    5.9485    7.5268   -2.2915 H   0  0  0  0  0  0  0  0  0  0  0  0
    7.1775    5.4314   -1.8996 H   0  0  0  0  0  0  0  0  0  0  0  0
    6.4968    5.3673   -3.4783 H   0  0  0  0  0  0  0  0  0  0  0  0
    4.7908    2.9037   -0.5622 H   0  0  0  0  0  0  0  0  0  0  0  0
    4.6791    4.6024   -0.2144 H   0  0  0  0  0  0  0  0  0  0  0  0
    6.7974    1.5988   -0.3280 H   0  0  0  0  0  0  0  0  0  0  0  0
    8.9942    1.3350    0.7440 H   0  0  0  0  0  0  0  0  0  0  0  0
   11.1455    1.9092    0.5155 H   0  0  0  0  0  0  0  0  0  0  0  0
   12.6180    3.4254    3.5995 H   0  0  0  0  0  0  0  0  0  0  0  0
   14.9999    3.4883    3.9690 H   0  0  0  0  0  0  0  0  0  0  0  0
   17.1562    3.1656    3.2898 H   0  0  0  0  0  0  0  0  0  0  0  0
   17.3300    3.0734    1.5421 H   0  0  0  0  0  0  0  0  0  0  0  0
   17.5508    1.6104    2.5543 H   0  0  0  0  0  0  0  0  0  0  0  0
   16.7761    0.5048    0.8494 H   0  0  0  0  0  0  0  0  0  0  0  0
   12.3203   -1.9088   -2.4460 H   0  0  0  0  0  0  0  0  0  0  0  0
   12.8639   -3.9012   -3.8424 H   0  0  0  0  0  0  0  0  0  0  0  0
   15.1353   -4.8704   -3.7914 H   0  0  0  0  0  0  0  0  0  0  0  0
   16.9062   -3.8802   -2.3831 H   0  0  0  0  0  0  0  0  0  0  0  0
   18.2574   -2.1073   -2.6206 H   0  0  0  0  0  0  0  0  0  0  0  0
   20.6702   -2.9903   -2.8415 H   0  0  0  0  0  0  0  0  0  0  0  0
   21.7997   -2.0796   -1.9778 H   0  0  0  0  0  0  0  0  0  0  0  0
   19.9395   -0.6844    1.6820 H   0  0  0  0  0  0  0  0  0  0  0  0
   13.1814    1.0296    0.0971 H   0  0  0  0  0  0  0  0  0  0  0  0
    9.0636    5.5522    1.6255 H   0  0  0  0  0  0  0  0  0  0  0  0
    3.6519    3.2155   -2.6098 H   0  0  0  0  0  0  0  0  0  0  0  0
    4.4617    4.0105   -3.9354 H   0  0  0  0  0  0  0  0  0  0  0  0
    2.9960    5.3691   -1.6247 H   0  0  0  0  0  0  0  0  0  0  0  0
    2.4824    5.3164   -3.2763 H   0  0  0  0  0  0  0  0  0  0  0  0
  1  2  1  0  0  0  0
  1 44  1  0  0  0  0
  1 45  1  0  0  0  0
  1 46  1  0  0  0  0
  2  3  1  0  0  0  0
  2 47  1  0  0  0  0
  2 48  1  0  0  0  0
  3  4  1  0  0  0  0
  3 43  1  0  0  0  0
  4  5  1  0  0  0  0
  4 49  1  0  0  0  0
  4 50  1  0  0  0  0
  5  6  1  0  0  0  0
  5 51  1  0  0  0  0
  5 52  1  0  0  0  0
  6  7  1  0  0  0  0
  6 42  1  0  0  0  0
  7  8  1  0  0  0  0
  7 53  1  0  0  0  0
  7 54  1  0  0  0  0
  8  9  1  0  0  0  0
  8 40  2  0  0  0  0
  9 10  2  0  0  0  0
  9 55  1  0  0  0  0
 10 11  1  0  0  0  0
 10 56  1  0  0  0  0
 11 12  1  0  0  0  0
 11 39  2  0  0  0  0
 12 13  2  0  0  0  0
 12 14  1  0  0  0  0
 14 15  1  0  0  0  0
 14 57  1  0  0  0  0
 15 16  1  0  0  0  0
 15 38  2  0  0  0  0
 16 17  2  0  0  0  0
 16 58  1  0  0  0  0
 17 18  1  0  0  0  0
 17 59  1  0  0  0  0
 18 19  1  0  0  0  0
 18 20  2  0  0  0  0
 19 60  1  0  0  0  0
 19 61  1  0  0  0  0
 19 62  1  0  0  0  0
 20 21  1  0  0  0  0
 20 38  1  0  0  0  0
 21 22  1  0  0  0  0
 21 63  1  0  0  0  0
 22 23  2  0  0  0  0
 22 30  1  0  0  0  0
 23 24  1  0  0  0  0
 24 25  1  0  0  0  0
 24 29  2  0  0  0  0
 25 26  2  0  0  0  0
 25 64  1  0  0  0  0
 26 27  1  0  0  0  0
 26 65  1  0  0  0  0
 27 28  2  0  0  0  0
 27 66  1  0  0  0  0
 28 29  1  0  0  0  0
 28 67  1  0  0  0  0
 29 30  1  0  0  0  0
 30 31  1  0  0  0  0
 31 32  1  0  0  0  0
 31 37  2  0  0  0  0
 32 33  2  0  0  0  0
 32 68  1  0  0  0  0
 33 34  1  0  0  0  0
 33 35  1  0  0  0  0
 34 69  1  0  0  0  0
 34 70  1  0  0  0  0
 35 36  2  0  0  0  0
 36 37  1  0  0  0  0
 36 71  1  0  0  0  0
 38 72  1  0  0  0  0
 39 40  1  0  0  0  0
 39 73  1  0  0  0  0
 40 41  1  0  0  0  0
 42 43  1  0  0  0  0
 42 74  1  0  0  0  0
 42 75  1  0  0  0  0
 43 76  1  0  0  0  0
 43 77  1  0  0  0  0
M  END
$$$$
