CHEMBL3671503
 OpenBabel04072215373D

 48 50  0  0  0  0  0  0  0  0999 V2000
    2.7310    2.1146    0.8570 C   0  0  0  0  0  0  0  0  0  0  0  0
    3.3048    0.9796    0.4369 C   0  0  0  0  0  0  0  0  0  0  0  0
    4.1791    0.2069    1.3571 C   0  0  0  0  0  0  0  0  0  0  0  0
    4.4248    0.5967    2.4906 O   0  0  0  0  0  0  0  0  0  0  0  0
    4.6067   -0.9843    0.7990 N   0  0  0  0  0  0  0  0  0  0  0  0
    5.3556   -1.9210    1.5370 C   0  0  0  0  0  0  0  0  0  0  0  0
    6.5160   -1.4352    2.1445 C   0  0  0  0  0  0  0  0  0  0  0  0
    7.3245   -2.2544    2.9510 C   0  0  0  0  0  0  0  0  0  0  0  0
    8.4690   -1.8068    3.6214 C   0  0  0  0  0  0  0  0  0  0  0  0
    8.8579   -0.4463    3.5076 N   0  0  0  0  0  0  0  0  0  0  0  0
    9.6512    0.2341    4.4517 C   0  0  0  0  0  0  0  0  0  0  0  0
    9.4498    0.0387    5.8249 C   0  0  0  0  0  0  0  0  0  0  0  0
   10.2969    0.6248    6.7644 C   0  0  0  0  0  0  0  0  0  0  0  0
   11.3410    1.4383    6.3333 C   0  0  0  0  0  0  0  0  0  0  0  0
   12.5471    2.1506    7.6019 Br  0  0  0  0  0  0  0  0  0  0  0  0
   11.5137    1.7115    4.9784 C   0  0  0  0  0  0  0  0  0  0  0  0
   10.6604    1.1185    4.0518 C   0  0  0  0  0  0  0  0  0  0  0  0
   10.8406    1.3674    2.7432 F   0  0  0  0  0  0  0  0  0  0  0  0
    9.1915   -2.6240    4.4103 N   0  0  0  0  0  0  0  0  0  0  0  0
    8.7608   -3.8805    4.5329 C   0  0  0  0  0  0  0  0  0  0  0  0
    7.6776   -4.4084    3.9377 N   0  0  0  0  0  0  0  0  0  0  0  0
    6.9631   -3.5862    3.1647 C   0  0  0  0  0  0  0  0  0  0  0  0
    5.8067   -4.0636    2.5512 C   0  0  0  0  0  0  0  0  0  0  0  0
    5.0056   -3.2695    1.7109 C   0  0  0  0  0  0  0  0  0  0  0  0
    3.8765   -3.9199    1.2588 O   0  0  0  0  0  0  0  0  0  0  0  0
    3.4635   -3.5655   -0.0537 C   0  0  0  0  0  0  0  0  0  0  0  0
    2.3953   -4.4989   -0.6299 C   0  0  0  0  0  0  0  0  0  0  0  0
    2.1289   -4.0386   -2.0012 N   0  0  0  0  0  0  0  0  0  0  0  0
    1.0218   -4.7449   -2.6212 C   0  0  0  0  0  0  0  0  0  0  0  0
    2.0911    2.6952    0.2015 H   0  0  0  0  0  0  0  0  0  0  0  0
    2.8853    2.4876    1.8676 H   0  0  0  0  0  0  0  0  0  0  0  0
    3.1398    0.6159   -0.5690 H   0  0  0  0  0  0  0  0  0  0  0  0
    4.1927   -1.2651   -0.0709 H   0  0  0  0  0  0  0  0  0  0  0  0
    6.7902   -0.3917    1.9974 H   0  0  0  0  0  0  0  0  0  0  0  0
    9.0885   -0.2022    2.5481 H   0  0  0  0  0  0  0  0  0  0  0  0
    8.6394   -0.6016    6.1663 H   0  0  0  0  0  0  0  0  0  0  0  0
   10.1414    0.4181    7.8199 H   0  0  0  0  0  0  0  0  0  0  0  0
   12.3112    2.3585    4.6280 H   0  0  0  0  0  0  0  0  0  0  0  0
    9.3428   -4.5328    5.1730 H   0  0  0  0  0  0  0  0  0  0  0  0
    5.5045   -5.0901    2.7514 H   0  0  0  0  0  0  0  0  0  0  0  0
    4.3367   -3.5568   -0.7190 H   0  0  0  0  0  0  0  0  0  0  0  0
    2.9774   -2.5900   -0.0215 H   0  0  0  0  0  0  0  0  0  0  0  0
    1.4928   -4.4293   -0.0091 H   0  0  0  0  0  0  0  0  0  0  0  0
    2.7303   -5.5413   -0.6072 H   0  0  0  0  0  0  0  0  0  0  0  0
    2.9655   -4.1737   -2.5696 H   0  0  0  0  0  0  0  0  0  0  0  0
    0.0922   -4.6011   -2.0629 H   0  0  0  0  0  0  0  0  0  0  0  0
    1.2322   -5.8137   -2.7165 H   0  0  0  0  0  0  0  0  0  0  0  0
    0.8658   -4.3399   -3.6268 H   0  0  0  0  0  0  0  0  0  0  0  0
  1  2  2  0  0  0  0
  1 30  1  0  0  0  0
  1 31  1  0  0  0  0
  2  3  1  0  0  0  0
  2 32  1  0  0  0  0
  3  4  2  0  0  0  0
  3  5  1  0  0  0  0
  5  6  1  0  0  0  0
  5 33  1  0  0  0  0
  6  7  1  0  0  0  0
  6 24  2  0  0  0  0
  7  8  2  0  0  0  0
  7 34  1  0  0  0  0
  8  9  1  0  0  0  0
  8 22  1  0  0  0  0
  9 10  1  0  0  0  0
  9 19  2  0  0  0  0
 10 11  1  0  0  0  0
 10 35  1  0  0  0  0
 11 12  1  0  0  0  0
 11 17  2  0  0  0  0
 12 13  2  0  0  0  0
 12 36  1  0  0  0  0
 13 14  1  0  0  0  0
 13 37  1  0  0  0  0
 14 15  1  0  0  0  0
 14 16  2  0  0  0  0
 16 17  1  0  0  0  0
 16 38  1  0  0  0  0
 17 18  1  0  0  0  0
 19 20  1  0  0  0  0
 20 21  2  0  0  0  0
 20 39  1  0  0  0  0
 21 22  1  0  0  0  0
 22 23  2  0  0  0  0
 23 24  1  0  0  0  0
 23 40  1  0  0  0  0
 24 25  1  0  0  0  0
 25 26  1  0  0  0  0
 26 27  1  0  0  0  0
 26 41  1  0  0  0  0
 26 42  1  0  0  0  0
 27 28  1  0  0  0  0
 27 43  1  0  0  0  0
 27 44  1  0  0  0  0
 28 29  1  0  0  0  0
 28 45  1  0  0  0  0
 29 46  1  0  0  0  0
 29 47  1  0  0  0  0
 29 48  1  0  0  0  0
M  END
$$$$
