CHEMBL179603
 OpenBabel04072215363D

 55 58  0  0  0  0  0  0  0  0999 V2000
    0.4495   -0.0492    1.8544 C   0  0  0  0  0  0  0  0  0  0  0  0
    1.8261    0.1553    2.1696 O   0  0  0  0  0  0  0  0  0  0  0  0
    2.5820   -0.9751    2.3310 C   0  0  0  0  0  0  0  0  0  0  0  0
    2.1148   -2.2748    2.2076 C   0  0  0  0  0  0  0  0  0  0  0  0
    2.9845   -3.3578    2.3832 C   0  0  0  0  0  0  0  0  0  0  0  0
    4.3398   -3.1804    2.6722 C   0  0  0  0  0  0  0  0  0  0  0  0
    5.2389   -4.2700    2.8492 N   0  0  0  0  0  0  0  0  0  0  0  0
    4.9338   -5.5974    2.5742 C   0  0  0  0  0  0  0  0  0  0  0  0
    3.8864   -5.9797    2.0637 O   0  0  0  0  0  0  0  0  0  0  0  0
    5.9270   -6.4802    2.9839 N   0  0  0  0  0  0  0  0  0  0  0  0
    5.7317   -7.8796    2.8044 C   0  0  0  0  0  0  0  0  0  0  0  0
    5.2306   -8.4053    1.6056 C   0  0  0  0  0  0  0  0  0  0  0  0
    4.8908   -9.7643    1.4917 C   0  0  0  0  0  0  0  0  0  0  0  0
    5.0791  -10.6223    2.5723 C   0  0  0  0  0  0  0  0  0  0  0  0
    4.6697  -11.9342    2.6622 O   0  0  0  0  0  0  0  0  0  0  0  0
    4.6324  -12.8011    1.5704 C   0  0  0  0  0  0  0  0  0  0  0  0
    5.1311  -12.4170    0.3817 N   0  0  0  0  0  0  0  0  0  0  0  0
    5.0610  -13.3287   -0.5915 C   0  0  0  0  0  0  0  0  0  0  0  0
    4.5739  -14.5703   -0.4820 N   0  0  0  0  0  0  0  0  0  0  0  0
    4.1018  -14.9374    0.7128 C   0  0  0  0  0  0  0  0  0  0  0  0
    3.5953  -16.2230    0.8578 C   0  0  0  0  0  0  0  0  0  0  0  0
    3.0593  -16.6996    2.0655 C   0  0  0  0  0  0  0  0  0  0  0  0
    2.5489  -17.9637    2.2011 O   0  0  0  0  0  0  0  0  0  0  0  0
    2.4264  -18.7721    1.0358 C   0  0  0  0  0  0  0  0  0  0  0  0
    3.0618  -15.8489    3.1799 C   0  0  0  0  0  0  0  0  0  0  0  0
    2.6102  -16.0958    4.4499 O   0  0  0  0  0  0  0  0  0  0  0  0
    1.9345  -17.3164    4.7150 C   0  0  0  0  0  0  0  0  0  0  0  0
    3.5895  -14.5542    3.0469 C   0  0  0  0  0  0  0  0  0  0  0  0
    4.1016  -14.0807    1.8141 C   0  0  0  0  0  0  0  0  0  0  0  0
    5.6097  -10.0978    3.7598 C   0  0  0  0  0  0  0  0  0  0  0  0
    5.9644   -8.7437    3.8712 C   0  0  0  0  0  0  0  0  0  0  0  0
    4.8053   -1.8693    2.8094 C   0  0  0  0  0  0  0  0  0  0  0  0
    3.9312   -0.7757    2.6361 C   0  0  0  0  0  0  0  0  0  0  0  0
   -0.0121    0.9283    1.6923 H   0  0  0  0  0  0  0  0  0  0  0  0
   -0.0748   -0.5327    2.6871 H   0  0  0  0  0  0  0  0  0  0  0  0
    0.3288   -0.6248    0.9293 H   0  0  0  0  0  0  0  0  0  0  0  0
    1.0808   -2.5028    1.9722 H   0  0  0  0  0  0  0  0  0  0  0  0
    2.5376   -4.3403    2.2778 H   0  0  0  0  0  0  0  0  0  0  0  0
    6.2025   -4.0494    3.0306 H   0  0  0  0  0  0  0  0  0  0  0  0
    6.4163   -6.2013    3.8229 H   0  0  0  0  0  0  0  0  0  0  0  0
    5.0549   -7.7516    0.7530 H   0  0  0  0  0  0  0  0  0  0  0  0
    4.4448  -10.1017    0.5626 H   0  0  0  0  0  0  0  0  0  0  0  0
    5.4277  -13.0375   -1.5699 H   0  0  0  0  0  0  0  0  0  0  0  0
    3.6338  -16.8570   -0.0229 H   0  0  0  0  0  0  0  0  0  0  0  0
    1.9221  -19.7000    1.3223 H   0  0  0  0  0  0  0  0  0  0  0  0
    3.4114  -19.0392    0.6394 H   0  0  0  0  0  0  0  0  0  0  0  0
    1.8085  -18.2842    0.2746 H   0  0  0  0  0  0  0  0  0  0  0  0
    1.5786  -17.2802    5.7496 H   0  0  0  0  0  0  0  0  0  0  0  0
    2.6164  -18.1690    4.6399 H   0  0  0  0  0  0  0  0  0  0  0  0
    1.0530  -17.4365    4.0771 H   0  0  0  0  0  0  0  0  0  0  0  0
    3.5956  -13.9024    3.9197 H   0  0  0  0  0  0  0  0  0  0  0  0
    5.7122  -10.7466    4.6262 H   0  0  0  0  0  0  0  0  0  0  0  0
    6.3267   -8.3747    4.8251 H   0  0  0  0  0  0  0  0  0  0  0  0
    5.8444   -1.6632    3.0468 H   0  0  0  0  0  0  0  0  0  0  0  0
    4.3078    0.2391    2.7429 H   0  0  0  0  0  0  0  0  0  0  0  0
  1  2  1  0  0  0  0
  1 34  1  0  0  0  0
  1 35  1  0  0  0  0
  1 36  1  0  0  0  0
  2  3  1  0  0  0  0
  3  4  1  0  0  0  0
  3 33  2  0  0  0  0
  4  5  2  0  0  0  0
  4 37  1  0  0  0  0
  5  6  1  0  0  0  0
  5 38  1  0  0  0  0
  6  7  1  0  0  0  0
  6 32  2  0  0  0  0
  7  8  1  0  0  0  0
  7 39  1  0  0  0  0
  8  9  2  0  0  0  0
  8 10  1  0  0  0  0
 10 11  1  0  0  0  0
 10 40  1  0  0  0  0
 11 12  1  0  0  0  0
 11 31  2  0  0  0  0
 12 13  2  0  0  0  0
 12 41  1  0  0  0  0
 13 14  1  0  0  0  0
 13 42  1  0  0  0  0
 14 15  1  0  0  0  0
 14 30  2  0  0  0  0
 15 16  1  0  0  0  0
 16 17  1  0  0  0  0
 16 29  2  0  0  0  0
 17 18  2  0  0  0  0
 18 19  1  0  0  0  0
 18 43  1  0  0  0  0
 19 20  2  0  0  0  0
 20 21  1  0  0  0  0
 20 29  1  0  0  0  0
 21 22  2  0  0  0  0
 21 44  1  0  0  0  0
 22 23  1  0  0  0  0
 22 25  1  0  0  0  0
 23 24  1  0  0  0  0
 24 45  1  0  0  0  0
 24 46  1  0  0  0  0
 24 47  1  0  0  0  0
 25 26  1  0  0  0  0
 25 28  2  0  0  0  0
 26 27  1  0  0  0  0
 27 48  1  0  0  0  0
 27 49  1  0  0  0  0
 27 50  1  0  0  0  0
 28 29  1  0  0  0  0
 28 51  1  0  0  0  0
 30 31  1  0  0  0  0
 30 52  1  0  0  0  0
 31 53  1  0  0  0  0
 32 33  1  0  0  0  0
 32 54  1  0  0  0  0
 33 55  1  0  0  0  0
M  END
$$$$
