CHEMBL1761933
 OpenBabel04072215363D

 52 55  0  0  0  0  0  0  0  0999 V2000
    5.7789   10.9489    2.4337 C   0  0  0  0  0  0  0  0  0  0  0  0
    6.6329    9.8014    2.4313 O   0  0  0  0  0  0  0  0  0  0  0  0
    6.0213    8.6181    2.7590 C   0  0  0  0  0  0  0  0  0  0  0  0
    4.6645    8.3964    2.4570 C   0  0  0  0  0  0  0  0  0  0  0  0
    3.9920    7.2442    2.8242 C   0  0  0  0  0  0  0  0  0  0  0  0
    2.6846    7.1688    2.5637 N   0  0  0  0  0  0  0  0  0  0  0  0
    2.0550    6.0736    2.9917 C   0  0  0  0  0  0  0  0  0  0  0  0
    2.6153    5.0565    3.6442 N   0  0  0  0  0  0  0  0  0  0  0  0
    3.9380    5.1361    3.8877 C   0  0  0  0  0  0  0  0  0  0  0  0
    4.5586    4.0875    4.6155 N   0  0  0  0  0  0  0  0  0  0  0  0
    3.8719    3.1322    5.3927 C   0  0  0  0  0  0  0  0  0  0  0  0
    4.3252    1.8172    5.4398 C   0  0  0  0  0  0  0  0  0  0  0  0
    3.6050    0.8436    6.1374 C   0  0  0  0  0  0  0  0  0  0  0  0
    2.4304    1.1641    6.8249 C   0  0  0  0  0  0  0  0  0  0  0  0
    1.5909    0.2029    7.4305 N   0  0  0  0  0  0  0  0  0  0  0  0
    1.8477   -1.1521    7.5114 C   0  0  0  0  0  0  0  0  0  0  0  0
    2.9111   -1.6807    7.2178 O   0  0  0  0  0  0  0  0  0  0  0  0
    0.7274   -1.8714    7.9181 N   0  0  0  0  0  0  0  0  0  0  0  0
    0.8060   -3.2814    8.0231 C   0  0  0  0  0  0  0  0  0  0  0  0
    1.9065   -3.9007    8.6270 C   0  0  0  0  0  0  0  0  0  0  0  0
    2.0319   -5.2875    8.6197 C   0  0  0  0  0  0  0  0  0  0  0  0
    1.0572   -6.0649    8.0020 C   0  0  0  0  0  0  0  0  0  0  0  0
   -0.0595   -5.4561    7.4266 C   0  0  0  0  0  0  0  0  0  0  0  0
   -0.2002   -4.0651    7.4571 C   0  0  0  0  0  0  0  0  0  0  0  0
    2.0328    2.4999    6.8664 C   0  0  0  0  0  0  0  0  0  0  0  0
    2.7568    3.4733    6.1688 C   0  0  0  0  0  0  0  0  0  0  0  0
    4.7030    6.2374    3.4763 C   0  0  0  0  0  0  0  0  0  0  0  0
    6.0866    6.4112    3.7129 C   0  0  0  0  0  0  0  0  0  0  0  0
    6.7512    7.5979    3.3766 C   0  0  0  0  0  0  0  0  0  0  0  0
    8.0606    7.5595    3.7586 O   0  0  0  0  0  0  0  0  0  0  0  0
    8.8739    8.7176    3.6909 C   0  0  0  0  0  0  0  0  0  0  0  0
    6.4066   11.8425    2.4891 H   0  0  0  0  0  0  0  0  0  0  0  0
    5.1100   10.9605    3.3034 H   0  0  0  0  0  0  0  0  0  0  0  0
    5.2052   11.0024    1.5024 H   0  0  0  0  0  0  0  0  0  0  0  0
    4.0812    9.1482    1.9335 H   0  0  0  0  0  0  0  0  0  0  0  0
    0.9894    6.0082    2.8033 H   0  0  0  0  0  0  0  0  0  0  0  0
    5.2920    3.6742    4.0481 H   0  0  0  0  0  0  0  0  0  0  0  0
    5.2199    1.5129    4.9042 H   0  0  0  0  0  0  0  0  0  0  0  0
    3.9896   -0.1705    6.0919 H   0  0  0  0  0  0  0  0  0  0  0  0
    0.7646    0.5409    7.9004 H   0  0  0  0  0  0  0  0  0  0  0  0
   -0.1516   -1.4957    7.5947 H   0  0  0  0  0  0  0  0  0  0  0  0
    2.6890   -3.3032    9.0921 H   0  0  0  0  0  0  0  0  0  0  0  0
    2.9057   -5.7517    9.0686 H   0  0  0  0  0  0  0  0  0  0  0  0
    1.1745   -7.1446    7.9593 H   0  0  0  0  0  0  0  0  0  0  0  0
   -0.8072   -6.0666    6.9264 H   0  0  0  0  0  0  0  0  0  0  0  0
   -1.0568   -3.6113    6.9685 H   0  0  0  0  0  0  0  0  0  0  0  0
    1.1512    2.8111    7.4185 H   0  0  0  0  0  0  0  0  0  0  0  0
    2.4252    4.5079    6.2120 H   0  0  0  0  0  0  0  0  0  0  0  0
    6.6553    5.6278    4.2112 H   0  0  0  0  0  0  0  0  0  0  0  0
    9.6679    8.5922    4.4358 H   0  0  0  0  0  0  0  0  0  0  0  0
    8.3545    9.6401    3.9557 H   0  0  0  0  0  0  0  0  0  0  0  0
    9.3493    8.7837    2.7082 H   0  0  0  0  0  0  0  0  0  0  0  0
  1  2  1  0  0  0  0
  1 32  1  0  0  0  0
  1 33  1  0  0  0  0
  1 34  1  0  0  0  0
  2  3  1  0  0  0  0
  3  4  1  0  0  0  0
  3 29  2  0  0  0  0
  4  5  2  0  0  0  0
  4 35  1  0  0  0  0
  5  6  1  0  0  0  0
  5 27  1  0  0  0  0
  6  7  2  0  0  0  0
  7  8  1  0  0  0  0
  7 36  1  0  0  0  0
  8  9  2  0  0  0  0
  9 10  1  0  0  0  0
  9 27  1  0  0  0  0
 10 11  1  0  0  0  0
 10 37  1  0  0  0  0
 11 12  1  0  0  0  0
 11 26  2  0  0  0  0
 12 13  2  0  0  0  0
 12 38  1  0  0  0  0
 13 14  1  0  0  0  0
 13 39  1  0  0  0  0
 14 15  1  0  0  0  0
 14 25  2  0  0  0  0
 15 16  1  0  0  0  0
 15 40  1  0  0  0  0
 16 17  2  0  0  0  0
 16 18  1  0  0  0  0
 18 19  1  0  0  0  0
 18 41  1  0  0  0  0
 19 20  1  0  0  0  0
 19 24  2  0  0  0  0
 20 21  2  0  0  0  0
 20 42  1  0  0  0  0
 21 22  1  0  0  0  0
 21 43  1  0  0  0  0
 22 23  2  0  0  0  0
 22 44  1  0  0  0  0
 23 24  1  0  0  0  0
 23 45  1  0  0  0  0
 24 46  1  0  0  0  0
 25 26  1  0  0  0  0
 25 47  1  0  0  0  0
 26 48  1  0  0  0  0
 27 28  2  0  0  0  0
 28 29  1  0  0  0  0
 28 49  1  0  0  0  0
 29 30  1  0  0  0  0
 30 31  1  0  0  0  0
 31 50  1  0  0  0  0
 31 51  1  0  0  0  0
 31 52  1  0  0  0  0
M  END
$$$$
