CHEMBL3986661
 OpenBabel04072215373D

 60 64  0  0  0  0  0  0  0  0999 V2000
    1.4266    0.6735   -0.1456 C   0  0  0  0  0  0  0  0  0  0  0  0
    2.3079   -0.4460   -0.2086 O   0  0  0  0  0  0  0  0  0  0  0  0
    2.9719   -0.6332   -1.3928 C   0  0  0  0  0  0  0  0  0  0  0  0
    2.6445   -0.0512   -2.6055 C   0  0  0  0  0  0  0  0  0  0  0  0
    3.4095   -0.3427   -3.7392 C   0  0  0  0  0  0  0  0  0  0  0  0
    3.1429    0.1135   -5.0022 O   0  0  0  0  0  0  0  0  0  0  0  0
    2.0825    1.0529   -5.1258 C   0  0  0  0  0  0  0  0  0  0  0  0
    4.5546   -1.1497   -3.6354 C   0  0  0  0  0  0  0  0  0  0  0  0
    4.9751   -1.6683   -2.4108 C   0  0  0  0  0  0  0  0  0  0  0  0
    6.2020   -2.3698   -2.2783 N   0  0  0  0  0  0  0  0  0  0  0  0
    6.6898   -2.5863   -0.8679 C   0  0  0  0  0  0  0  0  0  0  0  0
    7.1997   -1.3369   -0.1868 C   0  0  0  0  0  0  0  0  0  0  0  0
    6.5281   -0.4606    0.6487 C   0  0  0  0  0  0  0  0  0  0  0  0
    7.2669    0.7385    0.8710 C   0  0  0  0  0  0  0  0  0  0  0  0
    8.4975    0.6774    0.2733 C   0  0  0  0  0  0  0  0  0  0  0  0
    9.6784    1.9196    0.2186 Cl  0  0  0  0  0  0  0  0  0  0  0  0
    8.8101   -0.8045   -0.4705 S   0  0  0  0  0  0  0  0  0  0  0  0
    7.3093   -2.5162   -3.1858 C   0  0  0  0  0  0  0  0  0  0  0  0
    7.8725   -3.7933   -3.2270 C   0  0  0  0  0  0  0  0  0  0  0  0
    9.1990   -3.9502   -3.5764 C   0  0  0  0  0  0  0  0  0  0  0  0
    9.9547   -2.8940   -4.0278 C   0  0  0  0  0  0  0  0  0  0  0  0
   11.2584   -3.1550   -4.1281 N   0  0  0  0  0  0  0  0  0  0  0  0
   12.0107   -2.2283   -4.7398 C   0  0  0  0  0  0  0  0  0  0  0  0
   11.4508   -1.1107   -5.3332 C   0  0  0  0  0  0  0  0  0  0  0  0
   12.1958   -0.6010   -6.4876 C   0  0  0  0  0  0  0  0  0  0  0  0
   12.8864    0.5924   -6.7916 C   0  0  0  0  0  0  0  0  0  0  0  0
   13.4956    0.5559   -7.9909 N   0  0  0  0  0  0  0  0  0  0  0  0
   13.1962   -0.6698   -8.4662 N   0  0  0  0  0  0  0  0  0  0  0  0
   13.2840   -0.9923   -9.8815 C   0  0  0  0  0  0  0  0  0  0  0  0
   14.5594   -0.5973  -10.6150 C   0  0  0  0  0  0  0  0  0  0  0  0
   15.6664   -1.4071  -10.2314 O   0  0  0  0  0  0  0  0  0  0  0  0
   12.5425   -1.4361   -7.5416 C   0  0  0  0  0  0  0  0  0  0  0  0
   10.1454   -0.7723   -5.1038 N   0  0  0  0  0  0  0  0  0  0  0  0
    9.3623   -1.6565   -4.3659 C   0  0  0  0  0  0  0  0  0  0  0  0
    8.0167   -1.4811   -3.8542 C   0  0  0  0  0  0  0  0  0  0  0  0
    4.0799   -1.4848   -1.3295 C   0  0  0  0  0  0  0  0  0  0  0  0
    1.1522    0.8328    0.9019 H   0  0  0  0  0  0  0  0  0  0  0  0
    0.5087    0.4711   -0.7062 H   0  0  0  0  0  0  0  0  0  0  0  0
    1.9099    1.5909   -0.4998 H   0  0  0  0  0  0  0  0  0  0  0  0
    1.7862    0.6021   -2.6708 H   0  0  0  0  0  0  0  0  0  0  0  0
    1.9925    1.3208   -6.1811 H   0  0  0  0  0  0  0  0  0  0  0  0
    2.3056    1.9659   -4.5630 H   0  0  0  0  0  0  0  0  0  0  0  0
    1.1260    0.6201   -4.8112 H   0  0  0  0  0  0  0  0  0  0  0  0
    5.1216   -1.3593   -4.5375 H   0  0  0  0  0  0  0  0  0  0  0  0
    7.4824   -3.3470   -0.8238 H   0  0  0  0  0  0  0  0  0  0  0  0
    5.9071   -3.0596   -0.2610 H   0  0  0  0  0  0  0  0  0  0  0  0
    5.5160   -0.6162    1.0033 H   0  0  0  0  0  0  0  0  0  0  0  0
    6.8942    1.6004    1.4080 H   0  0  0  0  0  0  0  0  0  0  0  0
    7.3212   -4.6459   -2.8360 H   0  0  0  0  0  0  0  0  0  0  0  0
    9.6667   -4.9212   -3.4549 H   0  0  0  0  0  0  0  0  0  0  0  0
   13.0605   -2.4720   -4.8333 H   0  0  0  0  0  0  0  0  0  0  0  0
   12.9903    1.4878   -6.1931 H   0  0  0  0  0  0  0  0  0  0  0  0
   12.4289   -0.4860  -10.3431 H   0  0  0  0  0  0  0  0  0  0  0  0
   13.1321   -2.0748   -9.9732 H   0  0  0  0  0  0  0  0  0  0  0  0
   14.8182    0.4582  -10.4923 H   0  0  0  0  0  0  0  0  0  0  0  0
   14.4068   -0.7739  -11.6872 H   0  0  0  0  0  0  0  0  0  0  0  0
   16.0726   -0.9739   -9.4588 H   0  0  0  0  0  0  0  0  0  0  0  0
   12.3196   -2.4769   -7.7348 H   0  0  0  0  0  0  0  0  0  0  0  0
    7.5830   -0.4798   -3.9119 H   0  0  0  0  0  0  0  0  0  0  0  0
    4.2282   -1.9761   -0.3743 H   0  0  0  0  0  0  0  0  0  0  0  0
  1  2  1  0  0  0  0
  1 37  1  0  0  0  0
  1 38  1  0  0  0  0
  1 39  1  0  0  0  0
  2  3  1  0  0  0  0
  3  4  1  0  0  0  0
  3 36  2  0  0  0  0
  4  5  2  0  0  0  0
  4 40  1  0  0  0  0
  5  6  1  0  0  0  0
  5  8  1  0  0  0  0
  6  7  1  0  0  0  0
  7 41  1  0  0  0  0
  7 42  1  0  0  0  0
  7 43  1  0  0  0  0
  8  9  2  0  0  0  0
  8 44  1  0  0  0  0
  9 10  1  0  0  0  0
  9 36  1  0  0  0  0
 10 11  1  0  0  0  0
 10 18  1  0  0  0  0
 11 12  1  0  0  0  0
 11 45  1  0  0  0  0
 11 46  1  0  0  0  0
 12 13  2  0  0  0  0
 12 17  1  0  0  0  0
 13 14  1  0  0  0  0
 13 47  1  0  0  0  0
 14 15  2  0  0  0  0
 14 48  1  0  0  0  0
 15 16  1  0  0  0  0
 15 17  1  0  0  0  0
 18 19  1  0  0  0  0
 18 35  2  0  0  0  0
 19 20  2  0  0  0  0
 19 49  1  0  0  0  0
 20 21  1  0  0  0  0
 20 50  1  0  0  0  0
 21 22  1  0  0  0  0
 21 34  2  0  0  0  0
 22 23  2  0  0  0  0
 23 24  1  0  0  0  0
 23 51  1  0  0  0  0
 24 25  1  0  0  0  0
 24 33  2  0  0  0  0
 25 26  1  0  0  0  0
 25 32  2  0  0  0  0
 26 27  2  0  0  0  0
 26 52  1  0  0  0  0
 27 28  1  0  0  0  0
 28 29  1  0  0  0  0
 28 32  1  0  0  0  0
 29 30  1  0  0  0  0
 29 53  1  0  0  0  0
 29 54  1  0  0  0  0
 30 31  1  0  0  0  0
 30 55  1  0  0  0  0
 30 56  1  0  0  0  0
 31 57  1  0  0  0  0
 32 58  1  0  0  0  0
 33 34  1  0  0  0  0
 34 35  1  0  0  0  0
 35 59  1  0  0  0  0
 36 60  1  0  0  0  0
M  END
$$$$
