CHEMBL1095361
 OpenBabel04072215363D

 67 72  0  0  0  0  0  0  0  0999 V2000
    1.7099    0.2929   -3.2528 C   0  0  0  0  0  0  0  0  0  0  0  0
    3.0395    1.0011   -3.2033 C   0  0  0  0  0  0  0  0  0  0  0  0
    3.2075    2.0425   -3.8390 O   0  0  0  0  0  0  0  0  0  0  0  0
    4.0316    0.4393   -2.4176 N   0  0  0  0  0  0  0  0  0  0  0  0
    5.2779    1.1777   -2.2659 C   0  0  0  0  0  0  0  0  0  0  0  0
    6.4269    0.2805   -1.9025 C   0  0  0  0  0  0  0  0  0  0  0  0
    6.3434   -1.0460   -1.6641 C   0  0  0  0  0  0  0  0  0  0  0  0
    7.5578   -1.7688   -1.4010 C   0  0  0  0  0  0  0  0  0  0  0  0
    8.7440   -1.3633   -0.8100 C   0  0  0  0  0  0  0  0  0  0  0  0
    9.7186   -2.3980   -0.7193 C   0  0  0  0  0  0  0  0  0  0  0  0
   10.9603   -2.2566   -0.1812 N   0  0  0  0  0  0  0  0  0  0  0  0
   11.7138   -3.3706   -0.1540 C   0  0  0  0  0  0  0  0  0  0  0  0
   11.3239   -4.6074   -0.6302 C   0  0  0  0  0  0  0  0  0  0  0  0
   10.0786   -4.7287   -1.2503 C   0  0  0  0  0  0  0  0  0  0  0  0
    9.6192   -5.9009   -1.8183 O   0  0  0  0  0  0  0  0  0  0  0  0
   10.4916   -6.6388   -2.5820 C   0  0  0  0  0  0  0  0  0  0  0  0
   11.5714   -6.0862   -3.2661 C   0  0  0  0  0  0  0  0  0  0  0  0
   12.5169   -6.9131   -3.8576 C   0  0  0  0  0  0  0  0  0  0  0  0
   12.3579   -8.3011   -3.8437 C   0  0  0  0  0  0  0  0  0  0  0  0
   13.3371   -9.1649   -4.3641 N   0  0  0  0  0  0  0  0  0  0  0  0
   14.6677   -8.8173   -4.5597 C   0  0  0  0  0  0  0  0  0  0  0  0
   15.2119   -7.8008   -4.1491 O   0  0  0  0  0  0  0  0  0  0  0  0
   15.4125   -9.7876   -5.3308 C   0  0  0  0  0  0  0  0  0  0  0  0
   15.3594  -11.1856   -5.3015 C   0  0  0  0  0  0  0  0  0  0  0  0
   16.1151  -11.7391   -6.2430 N   0  0  0  0  0  0  0  0  0  0  0  0
   16.7887  -10.6990   -6.8135 N   0  0  0  0  0  0  0  0  0  0  0  0
   17.7759  -10.9942   -7.7944 C   0  0  0  0  0  0  0  0  0  0  0  0
   17.6061  -12.1446   -8.5819 C   0  0  0  0  0  0  0  0  0  0  0  0
   18.5350  -12.4579   -9.5735 C   0  0  0  0  0  0  0  0  0  0  0  0
   19.6500  -11.6461   -9.7676 C   0  0  0  0  0  0  0  0  0  0  0  0
   19.8415  -10.5235   -8.9616 C   0  0  0  0  0  0  0  0  0  0  0  0
   18.9087  -10.1976   -7.9748 C   0  0  0  0  0  0  0  0  0  0  0  0
   16.3356   -9.4902   -6.3279 C   0  0  0  0  0  0  0  0  0  0  0  0
   16.6887   -8.1896   -6.9279 C   0  0  0  0  0  0  0  0  0  0  0  0
   15.8147   -7.2037   -6.6049 F   0  0  0  0  0  0  0  0  0  0  0  0
   17.9154   -7.7573   -6.5500 F   0  0  0  0  0  0  0  0  0  0  0  0
   16.6789   -8.2435   -8.2841 F   0  0  0  0  0  0  0  0  0  0  0  0
   11.1851   -8.8482   -3.3167 C   0  0  0  0  0  0  0  0  0  0  0  0
   10.2706   -8.0140   -2.6718 C   0  0  0  0  0  0  0  0  0  0  0  0
    9.1834   -8.5631   -2.1088 F   0  0  0  0  0  0  0  0  0  0  0  0
    9.2555   -3.5957   -1.2529 C   0  0  0  0  0  0  0  0  0  0  0  0
    7.6664   -3.4251   -1.8602 S   0  0  0  0  0  0  0  0  0  0  0  0
    4.9737   -1.7032   -1.7095 C   0  0  0  0  0  0  0  0  0  0  0  0
    3.8456   -0.6972   -1.5213 C   0  0  0  0  0  0  0  0  0  0  0  0
    1.0775    0.7631   -4.0119 H   0  0  0  0  0  0  0  0  0  0  0  0
    1.2110    0.3788   -2.2837 H   0  0  0  0  0  0  0  0  0  0  0  0
    1.8378   -0.7561   -3.5316 H   0  0  0  0  0  0  0  0  0  0  0  0
    5.1294    1.9256   -1.4789 H   0  0  0  0  0  0  0  0  0  0  0  0
    5.5151    1.7063   -3.1955 H   0  0  0  0  0  0  0  0  0  0  0  0
    7.3877    0.7905   -1.8864 H   0  0  0  0  0  0  0  0  0  0  0  0
    8.9202   -0.3636   -0.4352 H   0  0  0  0  0  0  0  0  0  0  0  0
   12.7035   -3.2390    0.2780 H   0  0  0  0  0  0  0  0  0  0  0  0
   12.0033   -5.4495   -0.5527 H   0  0  0  0  0  0  0  0  0  0  0  0
   11.7272   -5.0108   -3.3136 H   0  0  0  0  0  0  0  0  0  0  0  0
   13.3729   -6.4409   -4.3339 H   0  0  0  0  0  0  0  0  0  0  0  0
   13.0536  -10.1128   -4.5619 H   0  0  0  0  0  0  0  0  0  0  0  0
   14.7831  -11.8340   -4.6527 H   0  0  0  0  0  0  0  0  0  0  0  0
   16.7364  -12.7875   -8.4549 H   0  0  0  0  0  0  0  0  0  0  0  0
   18.3850  -13.3353  -10.1980 H   0  0  0  0  0  0  0  0  0  0  0  0
   20.3771  -11.8925  -10.5355 H   0  0  0  0  0  0  0  0  0  0  0  0
   20.7280   -9.9075   -9.0945 H   0  0  0  0  0  0  0  0  0  0  0  0
   19.1376   -9.3545   -7.3341 H   0  0  0  0  0  0  0  0  0  0  0  0
   10.9882   -9.9138   -3.3360 H   0  0  0  0  0  0  0  0  0  0  0  0
    4.8911   -2.4673   -0.9276 H   0  0  0  0  0  0  0  0  0  0  0  0
    4.8614   -2.2053   -2.6794 H   0  0  0  0  0  0  0  0  0  0  0  0
    3.8349   -0.3095   -0.4949 H   0  0  0  0  0  0  0  0  0  0  0  0
    2.8890   -1.1983   -1.6816 H   0  0  0  0  0  0  0  0  0  0  0  0
  1  2  1  0  0  0  0
  1 45  1  0  0  0  0
  1 46  1  0  0  0  0
  1 47  1  0  0  0  0
  2  3  2  0  0  0  0
  2  4  1  0  0  0  0
  4  5  1  0  0  0  0
  4 44  1  0  0  0  0
  5  6  1  0  0  0  0
  5 48  1  0  0  0  0
  5 49  1  0  0  0  0
  6  7  2  0  0  0  0
  6 50  1  0  0  0  0
  7  8  1  0  0  0  0
  7 43  1  0  0  0  0
  8  9  2  0  0  0  0
  8 42  1  0  0  0  0
  9 10  1  0  0  0  0
  9 51  1  0  0  0  0
 10 11  1  0  0  0  0
 10 41  2  0  0  0  0
 11 12  2  0  0  0  0
 12 13  1  0  0  0  0
 12 52  1  0  0  0  0
 13 14  2  0  0  0  0
 13 53  1  0  0  0  0
 14 15  1  0  0  0  0
 14 41  1  0  0  0  0
 15 16  1  0  0  0  0
 16 17  1  0  0  0  0
 16 39  2  0  0  0  0
 17 18  2  0  0  0  0
 17 54  1  0  0  0  0
 18 19  1  0  0  0  0
 18 55  1  0  0  0  0
 19 20  1  0  0  0  0
 19 38  2  0  0  0  0
 20 21  1  0  0  0  0
 20 56  1  0  0  0  0
 21 22  2  0  0  0  0
 21 23  1  0  0  0  0
 23 24  1  0  0  0  0
 23 33  2  0  0  0  0
 24 25  2  0  0  0  0
 24 57  1  0  0  0  0
 25 26  1  0  0  0  0
 26 27  1  0  0  0  0
 26 33  1  0  0  0  0
 27 28  1  0  0  0  0
 27 32  2  0  0  0  0
 28 29  2  0  0  0  0
 28 58  1  0  0  0  0
 29 30  1  0  0  0  0
 29 59  1  0  0  0  0
 30 31  2  0  0  0  0
 30 60  1  0  0  0  0
 31 32  1  0  0  0  0
 31 61  1  0  0  0  0
 32 62  1  0  0  0  0
 33 34  1  0  0  0  0
 34 35  1  0  0  0  0
 34 36  1  0  0  0  0
 34 37  1  0  0  0  0
 38 39  1  0  0  0  0
 38 63  1  0  0  0  0
 39 40  1  0  0  0  0
 41 42  1  0  0  0  0
 43 44  1  0  0  0  0
 43 64  1  0  0  0  0
 43 65  1  0  0  0  0
 44 66  1  0  0  0  0
 44 67  1  0  0  0  0
M  END
$$$$
