CHEMBL1173107
 OpenBabel04072215363D

 51 54  0  0  0  0  0  0  0  0999 V2000
    2.3402    0.4903   -1.0047 C   0  0  0  0  0  0  0  0  0  0  0  0
    0.9936    0.1781   -0.4452 C   0  0  0  0  0  0  0  0  0  0  0  0
    0.5219   -1.1180   -0.4861 N   0  0  0  0  0  0  0  0  0  0  0  0
   -0.7328   -1.1922    0.0542 C   0  0  0  0  0  0  0  0  0  0  0  0
   -1.3696   -2.4563    0.1217 C   0  0  0  0  0  0  0  0  0  0  0  0
   -1.2060   -3.2957    1.1578 C   0  0  0  0  0  0  0  0  0  0  0  0
   -0.3165   -3.0670    2.3641 C   0  0  0  0  0  0  0  0  0  0  0  0
    0.4759   -2.1727    2.5766 O   0  0  0  0  0  0  0  0  0  0  0  0
   -0.5653   -4.1475    3.1912 N   0  0  0  0  0  0  0  0  0  0  0  0
   -1.4720   -5.0327    2.6231 C   0  0  0  0  0  0  0  0  0  0  0  0
   -1.9158   -6.2105    3.1912 C   0  0  0  0  0  0  0  0  0  0  0  0
   -2.8381   -6.9915    2.4877 C   0  0  0  0  0  0  0  0  0  0  0  0
   -3.3668   -8.1961    3.0306 N   0  0  0  0  0  0  0  0  0  0  0  0
   -3.4224   -8.4632    4.3870 C   0  0  0  0  0  0  0  0  0  0  0  0
   -3.1304   -7.6539    5.2623 O   0  0  0  0  0  0  0  0  0  0  0  0
   -3.8284   -9.7689    4.6677 N   0  0  0  0  0  0  0  0  0  0  0  0
   -3.9124  -10.1863    6.0210 C   0  0  0  0  0  0  0  0  0  0  0  0
   -4.5921   -9.4154    6.9733 C   0  0  0  0  0  0  0  0  0  0  0  0
   -4.5708   -9.7726    8.3222 C   0  0  0  0  0  0  0  0  0  0  0  0
   -3.8622  -10.9004    8.7282 C   0  0  0  0  0  0  0  0  0  0  0  0
   -3.2094  -11.6899    7.7803 C   0  0  0  0  0  0  0  0  0  0  0  0
   -3.2549  -11.3498    6.4239 C   0  0  0  0  0  0  0  0  0  0  0  0
   -3.2361   -6.5748    1.1974 C   0  0  0  0  0  0  0  0  0  0  0  0
   -2.7751   -5.3605    0.6405 C   0  0  0  0  0  0  0  0  0  0  0  0
   -1.8911   -4.5850    1.3695 C   0  0  0  0  0  0  0  0  0  0  0  0
   -1.1018    0.0858    0.4365 C   0  0  0  0  0  0  0  0  0  0  0  0
   -2.3778    0.4892    1.0944 C   0  0  0  0  0  0  0  0  0  0  0  0
    0.0032    0.9690    0.1360 C   0  0  0  0  0  0  0  0  0  0  0  0
    0.0233    2.4131    0.3864 C   0  0  0  0  0  0  0  0  0  0  0  0
   -0.9780    3.1141    0.4166 O   0  0  0  0  0  0  0  0  0  0  0  0
    1.2520    2.9433    0.6293 O   0  0  0  0  0  0  0  0  0  0  0  0
    2.7945   -0.3905   -1.4698 H   0  0  0  0  0  0  0  0  0  0  0  0
    3.0223    0.8238   -0.2176 H   0  0  0  0  0  0  0  0  0  0  0  0
    2.2687    1.2726   -1.7658 H   0  0  0  0  0  0  0  0  0  0  0  0
    1.0380   -1.9057   -0.8510 H   0  0  0  0  0  0  0  0  0  0  0  0
   -2.0628   -2.7007   -0.6770 H   0  0  0  0  0  0  0  0  0  0  0  0
   -0.1215   -4.2599    4.0910 H   0  0  0  0  0  0  0  0  0  0  0  0
   -1.5351   -6.4984    4.1663 H   0  0  0  0  0  0  0  0  0  0  0  0
   -3.9836   -8.7459    2.4428 H   0  0  0  0  0  0  0  0  0  0  0  0
   -3.4850  -10.4550    4.0093 H   0  0  0  0  0  0  0  0  0  0  0  0
   -5.1256   -8.5157    6.6755 H   0  0  0  0  0  0  0  0  0  0  0  0
   -5.0824   -9.1541    9.0545 H   0  0  0  0  0  0  0  0  0  0  0  0
   -3.8103  -11.1569    9.7840 H   0  0  0  0  0  0  0  0  0  0  0  0
   -2.6378  -12.5557    8.1052 H   0  0  0  0  0  0  0  0  0  0  0  0
   -2.7060  -11.9584    5.7112 H   0  0  0  0  0  0  0  0  0  0  0  0
   -3.9411   -7.1732    0.6228 H   0  0  0  0  0  0  0  0  0  0  0  0
   -3.1204   -5.0467   -0.3407 H   0  0  0  0  0  0  0  0  0  0  0  0
   -3.0500   -0.3636    1.2317 H   0  0  0  0  0  0  0  0  0  0  0  0
   -2.9052    1.2340    0.4886 H   0  0  0  0  0  0  0  0  0  0  0  0
   -2.1768    0.9191    2.0807 H   0  0  0  0  0  0  0  0  0  0  0  0
    1.9001    2.2295    0.7739 H   0  0  0  0  0  0  0  0  0  0  0  0
  1  2  1  0  0  0  0
  1 32  1  0  0  0  0
  1 33  1  0  0  0  0
  1 34  1  0  0  0  0
  2  3  1  0  0  0  0
  2 28  2  0  0  0  0
  3  4  1  0  0  0  0
  3 35  1  0  0  0  0
  4  5  1  0  0  0  0
  4 26  2  0  0  0  0
  5  6  2  0  0  0  0
  5 36  1  0  0  0  0
  6  7  1  0  0  0  0
  6 25  1  0  0  0  0
  7  8  2  0  0  0  0
  7  9  1  0  0  0  0
  9 10  1  0  0  0  0
  9 37  1  0  0  0  0
 10 11  1  0  0  0  0
 10 25  2  0  0  0  0
 11 12  2  0  0  0  0
 11 38  1  0  0  0  0
 12 13  1  0  0  0  0
 12 23  1  0  0  0  0
 13 14  1  0  0  0  0
 13 39  1  0  0  0  0
 14 15  2  0  0  0  0
 14 16  1  0  0  0  0
 16 17  1  0  0  0  0
 16 40  1  0  0  0  0
 17 18  1  0  0  0  0
 17 22  2  0  0  0  0
 18 19  2  0  0  0  0
 18 41  1  0  0  0  0
 19 20  1  0  0  0  0
 19 42  1  0  0  0  0
 20 21  2  0  0  0  0
 20 43  1  0  0  0  0
 21 22  1  0  0  0  0
 21 44  1  0  0  0  0
 22 45  1  0  0  0  0
 23 24  2  0  0  0  0
 23 46  1  0  0  0  0
 24 25  1  0  0  0  0
 24 47  1  0  0  0  0
 26 27  1  0  0  0  0
 26 28  1  0  0  0  0
 27 48  1  0  0  0  0
 27 49  1  0  0  0  0
 27 50  1  0  0  0  0
 28 29  1  0  0  0  0
 29 30  2  0  0  0  0
 29 31  1  0  0  0  0
 31 51  1  0  0  0  0
M  END
$$$$
