CHEMBL3924872
 OpenBabel04072215373D

 60 64  0  0  0  0  0  0  0  0999 V2000
    1.6166   -5.5991   -2.2697 C   0  0  0  0  0  0  0  0  0  0  0  0
    2.8226   -4.8825   -2.5314 O   0  0  0  0  0  0  0  0  0  0  0  0
    3.1471   -3.9624   -1.5671 C   0  0  0  0  0  0  0  0  0  0  0  0
    2.2134   -3.0993   -0.9973 C   0  0  0  0  0  0  0  0  0  0  0  0
    2.6227   -2.1991   -0.0187 C   0  0  0  0  0  0  0  0  0  0  0  0
    1.8063   -1.3109    0.6396 O   0  0  0  0  0  0  0  0  0  0  0  0
    0.4231   -1.2895    0.2436 C   0  0  0  0  0  0  0  0  0  0  0  0
   -0.3323   -0.2387    1.0598 C   0  0  0  0  0  0  0  0  0  0  0  0
    0.1518    1.0710    0.7765 O   0  0  0  0  0  0  0  0  0  0  0  0
    3.9823   -2.1790    0.3611 C   0  0  0  0  0  0  0  0  0  0  0  0
    4.9618   -3.0328   -0.2055 C   0  0  0  0  0  0  0  0  0  0  0  0
    6.3029   -3.0909    0.2594 N   0  0  0  0  0  0  0  0  0  0  0  0
    6.8045   -1.9899    1.1432 C   0  0  0  0  0  0  0  0  0  0  0  0
    6.3759   -1.8971    2.5980 C   0  0  0  0  0  0  0  0  0  0  0  0
    6.8757   -2.8671    3.6507 C   0  0  0  0  0  0  0  0  0  0  0  0
    5.4048   -2.7507    3.3847 C   0  0  0  0  0  0  0  0  0  0  0  0
    7.4430   -3.7596   -0.3121 C   0  0  0  0  0  0  0  0  0  0  0  0
    8.2124   -4.4935    0.5819 C   0  0  0  0  0  0  0  0  0  0  0  0
    9.5550   -4.6955    0.3365 C   0  0  0  0  0  0  0  0  0  0  0  0
   10.1398   -4.3240   -0.8406 C   0  0  0  0  0  0  0  0  0  0  0  0
   11.4696   -4.4323   -0.8646 N   0  0  0  0  0  0  0  0  0  0  0  0
   12.0712   -4.2365   -2.0392 C   0  0  0  0  0  0  0  0  0  0  0  0
   11.3682   -4.0102   -3.1939 C   0  0  0  0  0  0  0  0  0  0  0  0
   12.1036   -4.1918   -4.4468 C   0  0  0  0  0  0  0  0  0  0  0  0
   12.2113   -5.3473   -5.2624 C   0  0  0  0  0  0  0  0  0  0  0  0
   13.1757   -5.2475   -6.1842 N   0  0  0  0  0  0  0  0  0  0  0  0
   13.6973   -4.0295   -5.9619 N   0  0  0  0  0  0  0  0  0  0  0  0
   14.6192   -3.4478   -6.9094 C   0  0  0  0  0  0  0  0  0  0  0  0
   13.1955   -3.4301   -4.8384 C   0  0  0  0  0  0  0  0  0  0  0  0
   10.0037   -3.7958   -3.1778 N   0  0  0  0  0  0  0  0  0  0  0  0
    9.3603   -3.8801   -1.9439 C   0  0  0  0  0  0  0  0  0  0  0  0
    7.9856   -3.5484   -1.6111 C   0  0  0  0  0  0  0  0  0  0  0  0
    4.5015   -3.9106   -1.1965 C   0  0  0  0  0  0  0  0  0  0  0  0
    1.6913   -6.5673   -2.7736 H   0  0  0  0  0  0  0  0  0  0  0  0
    0.7564   -5.0657   -2.6861 H   0  0  0  0  0  0  0  0  0  0  0  0
    1.4690   -5.7928   -1.2008 H   0  0  0  0  0  0  0  0  0  0  0  0
    1.1808   -3.1423   -1.3238 H   0  0  0  0  0  0  0  0  0  0  0  0
   -0.0352   -2.2667    0.4317 H   0  0  0  0  0  0  0  0  0  0  0  0
    0.3558   -1.0252   -0.8179 H   0  0  0  0  0  0  0  0  0  0  0  0
   -0.2239   -0.4124    2.1350 H   0  0  0  0  0  0  0  0  0  0  0  0
   -1.3977   -0.2581    0.8070 H   0  0  0  0  0  0  0  0  0  0  0  0
    1.1159    1.0448    0.9449 H   0  0  0  0  0  0  0  0  0  0  0  0
    4.2453   -1.4782    1.1461 H   0  0  0  0  0  0  0  0  0  0  0  0
    6.5702   -1.0357    0.6549 H   0  0  0  0  0  0  0  0  0  0  0  0
    7.9039   -1.9904    1.1857 H   0  0  0  0  0  0  0  0  0  0  0  0
    6.4328   -0.8493    2.8935 H   0  0  0  0  0  0  0  0  0  0  0  0
    7.2663   -2.4492    4.5744 H   0  0  0  0  0  0  0  0  0  0  0  0
    7.3341   -3.8092    3.3870 H   0  0  0  0  0  0  0  0  0  0  0  0
    4.8106   -2.2565    4.1507 H   0  0  0  0  0  0  0  0  0  0  0  0
    4.9096   -3.5948    2.9245 H   0  0  0  0  0  0  0  0  0  0  0  0
    7.8027   -4.7808    1.5452 H   0  0  0  0  0  0  0  0  0  0  0  0
   10.1764   -5.1417    1.1109 H   0  0  0  0  0  0  0  0  0  0  0  0
   13.1570   -4.3203   -2.0271 H   0  0  0  0  0  0  0  0  0  0  0  0
   11.6562   -6.2735   -5.1954 H   0  0  0  0  0  0  0  0  0  0  0  0
   14.7604   -4.1258   -7.7566 H   0  0  0  0  0  0  0  0  0  0  0  0
   15.5755   -3.2555   -6.4173 H   0  0  0  0  0  0  0  0  0  0  0  0
   14.1768   -2.5125   -7.2635 H   0  0  0  0  0  0  0  0  0  0  0  0
   13.6370   -2.5262   -4.4440 H   0  0  0  0  0  0  0  0  0  0  0  0
    7.3972   -3.0626   -2.3808 H   0  0  0  0  0  0  0  0  0  0  0  0
    5.1847   -4.6028   -1.6791 H   0  0  0  0  0  0  0  0  0  0  0  0
  1  2  1  0  0  0  0
  1 34  1  0  0  0  0
  1 35  1  0  0  0  0
  1 36  1  0  0  0  0
  2  3  1  0  0  0  0
  3  4  1  0  0  0  0
  3 33  2  0  0  0  0
  4  5  2  0  0  0  0
  4 37  1  0  0  0  0
  5  6  1  0  0  0  0
  5 10  1  0  0  0  0
  6  7  1  0  0  0  0
  7  8  1  0  0  0  0
  7 38  1  0  0  0  0
  7 39  1  0  0  0  0
  8  9  1  0  0  0  0
  8 40  1  0  0  0  0
  8 41  1  0  0  0  0
  9 42  1  0  0  0  0
 10 11  2  0  0  0  0
 10 43  1  0  0  0  0
 11 12  1  0  0  0  0
 11 33  1  0  0  0  0
 12 13  1  0  0  0  0
 12 17  1  0  0  0  0
 13 14  1  0  0  0  0
 13 44  1  0  0  0  0
 13 45  1  0  0  0  0
 14 15  1  0  0  0  0
 14 16  1  0  0  0  0
 14 46  1  0  0  0  0
 15 16  1  0  0  0  0
 15 47  1  0  0  0  0
 15 48  1  0  0  0  0
 16 49  1  0  0  0  0
 16 50  1  0  0  0  0
 17 18  1  0  0  0  0
 17 32  2  0  0  0  0
 18 19  2  0  0  0  0
 18 51  1  0  0  0  0
 19 20  1  0  0  0  0
 19 52  1  0  0  0  0
 20 21  1  0  0  0  0
 20 31  2  0  0  0  0
 21 22  2  0  0  0  0
 22 23  1  0  0  0  0
 22 53  1  0  0  0  0
 23 24  1  0  0  0  0
 23 30  2  0  0  0  0
 24 25  1  0  0  0  0
 24 29  2  0  0  0  0
 25 26  2  0  0  0  0
 25 54  1  0  0  0  0
 26 27  1  0  0  0  0
 27 28  1  0  0  0  0
 27 29  1  0  0  0  0
 28 55  1  0  0  0  0
 28 56  1  0  0  0  0
 28 57  1  0  0  0  0
 29 58  1  0  0  0  0
 30 31  1  0  0  0  0
 31 32  1  0  0  0  0
 32 59  1  0  0  0  0
 33 60  1  0  0  0  0
M  END
$$$$
