CHEMBL1986943
 OpenBabel04072215363D

 42 45  0  0  1  0  0  0  0  0999 V2000
   -2.3305    0.8588   -2.6161 O   0  0  0  0  0  0  0  0  0  0  0  0
   -2.7364    1.3991   -1.3629 C   0  0  3  0  0  0  0  0  0  0  0  0
   -3.6283    0.4009   -0.6297 C   0  0  0  0  0  0  0  0  0  0  0  0
   -3.9648    0.8911    0.7787 C   0  0  0  0  0  0  0  0  0  0  0  0
   -2.6961    1.1592    1.6128 C   0  0  3  0  0  0  0  0  0  0  0  0
   -1.9292   -0.0711    1.7846 N   0  0  0  0  0  0  0  0  0  0  0  0
   -2.4698   -1.0861    2.5543 C   0  0  0  0  0  0  0  0  0  0  0  0
   -3.4714   -0.8311    3.3948 N   0  0  0  0  0  0  0  0  0  0  0  0
   -3.9560   -1.8817    4.0676 C   0  0  0  0  0  0  0  0  0  0  0  0
   -5.2243   -1.4949    5.1576 Cl  0  0  0  0  0  0  0  0  0  0  0  0
   -3.5224   -3.1699    3.9318 C   0  0  0  0  0  0  0  0  0  0  0  0
   -2.4857   -3.3337    3.0472 C   0  0  0  0  0  0  0  0  0  0  0  0
   -1.9306   -4.6522    2.7619 C   0  0  0  0  0  0  0  0  0  0  0  0
   -1.8929   -5.6824    3.6909 C   0  0  0  0  0  0  0  0  0  0  0  0
   -1.3172   -6.7786    3.0945 N   0  0  0  0  0  0  0  0  0  0  0  0
   -0.9862   -6.4835    1.8058 C   0  0  0  0  0  0  0  0  0  0  0  0
   -0.4121   -7.3619    0.9604 N   0  0  0  0  0  0  0  0  0  0  0  0
   -0.1794   -6.8344   -0.2634 C   0  0  0  0  0  0  0  0  0  0  0  0
   -0.4836   -5.5374   -0.6560 C   0  0  0  0  0  0  0  0  0  0  0  0
   -1.0804   -4.6727    0.2616 C   0  0  0  0  0  0  0  0  0  0  0  0
   -1.3422   -5.1625    1.5542 C   0  0  0  0  0  0  0  0  0  0  0  0
   -1.9357   -2.2996    2.3810 N   0  0  0  0  0  0  0  0  0  0  0  0
   -1.8205    2.1879    0.8723 C   0  0  0  0  0  0  0  0  0  0  0  0
   -1.4877    1.7549   -0.5574 C   0  0  0  0  0  0  0  0  0  0  0  0
   -3.1284    0.5469   -3.0759 H   0  0  0  0  0  0  0  0  0  0  0  0
   -3.3064    2.3130   -1.5674 H   0  0  0  0  0  0  0  0  0  0  0  0
   -3.1375   -0.5807   -0.5896 H   0  0  0  0  0  0  0  0  0  0  0  0
   -4.5515    0.2392   -1.1986 H   0  0  0  0  0  0  0  0  0  0  0  0
   -4.6171    0.1578    1.2647 H   0  0  0  0  0  0  0  0  0  0  0  0
   -4.5481    1.8181    0.7054 H   0  0  0  0  0  0  0  0  0  0  0  0
   -2.9676    1.5826    2.5879 H   0  0  0  0  0  0  0  0  0  0  0  0
   -0.9688    0.0489    2.0855 H   0  0  0  0  0  0  0  0  0  0  0  0
   -3.9761   -3.9857    4.4735 H   0  0  0  0  0  0  0  0  0  0  0  0
   -2.2109   -5.7365    4.7227 H   0  0  0  0  0  0  0  0  0  0  0  0
   -1.1495   -7.6751    3.5212 H   0  0  0  0  0  0  0  0  0  0  0  0
    0.2873   -7.5226   -0.9660 H   0  0  0  0  0  0  0  0  0  0  0  0
   -0.2570   -5.2039   -1.6642 H   0  0  0  0  0  0  0  0  0  0  0  0
   -1.3302   -3.6519   -0.0116 H   0  0  0  0  0  0  0  0  0  0  0  0
   -0.8896    2.3629    1.4236 H   0  0  0  0  0  0  0  0  0  0  0  0
   -2.3521    3.1480    0.8363 H   0  0  0  0  0  0  0  0  0  0  0  0
   -0.8013    0.8984   -0.5403 H   0  0  0  0  0  0  0  0  0  0  0  0
   -0.9390    2.5549   -1.0694 H   0  0  0  0  0  0  0  0  0  0  0  0
  1  2  1  0  0  0  0
  1 25  1  0  0  0  0
  2  3  1  0  0  0  0
  2 24  1  0  0  0  0
  2 26  1  0  0  0  0
  3  4  1  0  0  0  0
  3 27  1  0  0  0  0
  3 28  1  0  0  0  0
  4  5  1  0  0  0  0
  4 29  1  0  0  0  0
  4 30  1  0  0  0  0
  5  6  1  0  0  0  0
  5 23  1  0  0  0  0
  5 31  1  0  0  0  0
  6  7  1  0  0  0  0
  6 32  1  0  0  0  0
  7  8  1  0  0  0  0
  7 22  2  0  0  0  0
  8  9  2  0  0  0  0
  9 10  1  0  0  0  0
  9 11  1  0  0  0  0
 11 12  2  0  0  0  0
 11 33  1  0  0  0  0
 12 13  1  0  0  0  0
 12 22  1  0  0  0  0
 13 14  2  0  0  0  0
 13 21  1  0  0  0  0
 14 15  1  0  0  0  0
 14 34  1  0  0  0  0
 15 16  1  0  0  0  0
 15 35  1  0  0  0  0
 16 17  1  0  0  0  0
 16 21  2  0  0  0  0
 17 18  2  0  0  0  0
 18 19  1  0  0  0  0
 18 36  1  0  0  0  0
 19 20  2  0  0  0  0
 19 37  1  0  0  0  0
 20 21  1  0  0  0  0
 20 38  1  0  0  0  0
 23 24  1  0  0  0  0
 23 39  1  0  0  0  0
 23 40  1  0  0  0  0
 24 41  1  0  0  0  0
 24 42  1  0  0  0  0
M  END
$$$$
