CHEMBL244482
 OpenBabel04072215363D

 52 55  0  0  0  0  0  0  0  0999 V2000
    6.6030    8.9307    3.7691 C   0  0  0  0  0  0  0  0  0  0  0  0
    7.7182    8.8151    2.8864 O   0  0  0  0  0  0  0  0  0  0  0  0
    7.3511    8.6731    1.5823 C   0  0  0  0  0  0  0  0  0  0  0  0
    6.1921    8.7656    1.2069 O   0  0  0  0  0  0  0  0  0  0  0  0
    8.4556    8.3584    0.8509 N   0  0  0  0  0  0  0  0  0  0  0  0
    8.4540    7.8866   -0.4338 C   0  0  0  0  0  0  0  0  0  0  0  0
    9.5070    7.3044   -0.9551 N   0  0  0  0  0  0  0  0  0  0  0  0
    9.1712    6.7792   -2.1945 C   0  0  0  0  0  0  0  0  0  0  0  0
    9.9984    5.9839   -3.0121 C   0  0  0  0  0  0  0  0  0  0  0  0
    9.5038    5.4960   -4.2242 C   0  0  0  0  0  0  0  0  0  0  0  0
    8.2251    5.8511   -4.6627 C   0  0  0  0  0  0  0  0  0  0  0  0
    7.6851    5.4610   -5.8669 O   0  0  0  0  0  0  0  0  0  0  0  0
    8.5003    5.3954   -6.9703 C   0  0  0  0  0  0  0  0  0  0  0  0
    8.1719    4.4185   -7.9009 C   0  0  0  0  0  0  0  0  0  0  0  0
    8.9810    4.2274   -9.0198 C   0  0  0  0  0  0  0  0  0  0  0  0
   10.1248    5.0074   -9.2234 C   0  0  0  0  0  0  0  0  0  0  0  0
   11.0340    4.7919  -10.2843 N   0  0  0  0  0  0  0  0  0  0  0  0
   10.8634    3.8913  -11.3130 C   0  0  0  0  0  0  0  0  0  0  0  0
    9.8461    3.2352  -11.5177 O   0  0  0  0  0  0  0  0  0  0  0  0
   12.0007    3.7706  -12.1010 N   0  0  0  0  0  0  0  0  0  0  0  0
   11.9633    2.8813  -13.2050 C   0  0  0  0  0  0  0  0  0  0  0  0
   10.8842    2.8906  -14.0981 C   0  0  0  0  0  0  0  0  0  0  0  0
   10.7717    1.9156  -15.0986 C   0  0  0  0  0  0  0  0  0  0  0  0
    9.5884    1.9102  -16.0360 C   0  0  0  0  0  0  0  0  0  0  0  0
    8.7213    2.9419  -15.8380 F   0  0  0  0  0  0  0  0  0  0  0  0
    9.9701    1.9949  -17.3412 F   0  0  0  0  0  0  0  0  0  0  0  0
    8.8482    0.7722  -15.9377 F   0  0  0  0  0  0  0  0  0  0  0  0
   11.7677    0.9297  -15.1958 C   0  0  0  0  0  0  0  0  0  0  0  0
   12.8688    0.9433  -14.3332 C   0  0  0  0  0  0  0  0  0  0  0  0
   12.9708    1.9310  -13.3584 C   0  0  0  0  0  0  0  0  0  0  0  0
   14.0081    1.9137  -12.5076 F   0  0  0  0  0  0  0  0  0  0  0  0
   10.4058    6.0302   -8.3183 C   0  0  0  0  0  0  0  0  0  0  0  0
    9.5796    6.2440   -7.2091 C   0  0  0  0  0  0  0  0  0  0  0  0
    7.3784    6.6097   -3.8561 C   0  0  0  0  0  0  0  0  0  0  0  0
    7.8763    7.0628   -2.6279 C   0  0  0  0  0  0  0  0  0  0  0  0
    7.0833    7.9976   -1.4347 S   0  0  0  0  0  0  0  0  0  0  0  0
    6.9804    9.0459    4.7877 H   0  0  0  0  0  0  0  0  0  0  0  0
    5.9962    8.0189    3.7271 H   0  0  0  0  0  0  0  0  0  0  0  0
    5.9978    9.8078    3.5183 H   0  0  0  0  0  0  0  0  0  0  0  0
    9.3215    8.2481    1.3535 H   0  0  0  0  0  0  0  0  0  0  0  0
   11.0051    5.7402   -2.6883 H   0  0  0  0  0  0  0  0  0  0  0  0
   10.1361    4.8479   -4.8278 H   0  0  0  0  0  0  0  0  0  0  0  0
    7.2967    3.7884   -7.7572 H   0  0  0  0  0  0  0  0  0  0  0  0
    8.6850    3.4380   -9.7015 H   0  0  0  0  0  0  0  0  0  0  0  0
   11.8268    5.4133  -10.3557 H   0  0  0  0  0  0  0  0  0  0  0  0
   12.8689    3.7685  -11.5783 H   0  0  0  0  0  0  0  0  0  0  0  0
   10.1028    3.6432  -13.9922 H   0  0  0  0  0  0  0  0  0  0  0  0
   11.6808    0.1411  -15.9424 H   0  0  0  0  0  0  0  0  0  0  0  0
   13.6307    0.1724  -14.3979 H   0  0  0  0  0  0  0  0  0  0  0  0
   11.2703    6.6787   -8.4508 H   0  0  0  0  0  0  0  0  0  0  0  0
    9.8091    7.0580   -6.5279 H   0  0  0  0  0  0  0  0  0  0  0  0
    6.3659    6.8411   -4.1715 H   0  0  0  0  0  0  0  0  0  0  0  0
  1  2  1  0  0  0  0
  1 37  1  0  0  0  0
  1 38  1  0  0  0  0
  1 39  1  0  0  0  0
  2  3  1  0  0  0  0
  3  4  2  0  0  0  0
  3  5  1  0  0  0  0
  5  6  1  0  0  0  0
  5 40  1  0  0  0  0
  6  7  2  0  0  0  0
  6 36  1  0  0  0  0
  7  8  1  0  0  0  0
  8  9  1  0  0  0  0
  8 35  2  0  0  0  0
  9 10  2  0  0  0  0
  9 41  1  0  0  0  0
 10 11  1  0  0  0  0
 10 42  1  0  0  0  0
 11 12  1  0  0  0  0
 11 34  2  0  0  0  0
 12 13  1  0  0  0  0
 13 14  1  0  0  0  0
 13 33  2  0  0  0  0
 14 15  2  0  0  0  0
 14 43  1  0  0  0  0
 15 16  1  0  0  0  0
 15 44  1  0  0  0  0
 16 17  1  0  0  0  0
 16 32  2  0  0  0  0
 17 18  1  0  0  0  0
 17 45  1  0  0  0  0
 18 19  2  0  0  0  0
 18 20  1  0  0  0  0
 20 21  1  0  0  0  0
 20 46  1  0  0  0  0
 21 22  1  0  0  0  0
 21 30  2  0  0  0  0
 22 23  2  0  0  0  0
 22 47  1  0  0  0  0
 23 24  1  0  0  0  0
 23 28  1  0  0  0  0
 24 25  1  0  0  0  0
 24 26  1  0  0  0  0
 24 27  1  0  0  0  0
 28 29  2  0  0  0  0
 28 48  1  0  0  0  0
 29 30  1  0  0  0  0
 29 49  1  0  0  0  0
 30 31  1  0  0  0  0
 32 33  1  0  0  0  0
 32 50  1  0  0  0  0
 33 51  1  0  0  0  0
 34 35  1  0  0  0  0
 34 52  1  0  0  0  0
 35 36  1  0  0  0  0
M  END
$$$$
