CHEMBL3900567
 OpenBabel04072215373D

 58 62  0  0  0  0  0  0  0  0999 V2000
    1.0177    0.3210   -0.5855 C   0  0  0  0  0  0  0  0  0  0  0  0
    2.4074    0.1388   -0.3517 O   0  0  0  0  0  0  0  0  0  0  0  0
    2.9923   -1.0039   -0.8195 C   0  0  0  0  0  0  0  0  0  0  0  0
    4.0282   -1.4673   -0.0017 C   0  0  0  0  0  0  0  0  0  0  0  0
    4.7596   -2.6390   -0.3248 C   0  0  0  0  0  0  0  0  0  0  0  0
    5.7842   -3.2099    0.4452 C   0  0  0  0  0  0  0  0  0  0  0  0
    6.1368   -2.6293    1.6921 N   0  0  0  0  0  0  0  0  0  0  0  0
    7.3547   -2.8872    2.3579 C   0  0  0  0  0  0  0  0  0  0  0  0
    8.5678   -2.8484    1.6564 C   0  0  0  0  0  0  0  0  0  0  0  0
    9.7748   -3.1518    2.2860 C   0  0  0  0  0  0  0  0  0  0  0  0
    9.7849   -3.4938    3.6374 C   0  0  0  0  0  0  0  0  0  0  0  0
   11.3058   -3.8947    4.3511 Cl  0  0  0  0  0  0  0  0  0  0  0  0
    8.5850   -3.5085    4.3581 C   0  0  0  0  0  0  0  0  0  0  0  0
    8.5233   -3.9203    6.0363 Cl  0  0  0  0  0  0  0  0  0  0  0  0
    7.3763   -3.1957    3.7214 C   0  0  0  0  0  0  0  0  0  0  0  0
    6.4481   -4.3147    0.0469 N   0  0  0  0  0  0  0  0  0  0  0  0
    6.0867   -4.8550   -1.1166 C   0  0  0  0  0  0  0  0  0  0  0  0
    5.1293   -4.3970   -1.9225 N   0  0  0  0  0  0  0  0  0  0  0  0
    4.4831   -3.3013   -1.5199 C   0  0  0  0  0  0  0  0  0  0  0  0
    3.4864   -2.8073   -2.3398 C   0  0  0  0  0  0  0  0  0  0  0  0
    2.7039   -1.6923   -2.0033 C   0  0  0  0  0  0  0  0  0  0  0  0
    1.6824   -1.2478   -2.8114 O   0  0  0  0  0  0  0  0  0  0  0  0
    1.1675   -2.2508   -3.7002 C   0  0  0  0  0  0  0  0  0  0  0  0
   -0.2104   -1.9852   -4.1968 C   0  0  0  0  0  0  0  0  0  0  0  0
   -1.1503   -1.1000   -3.7100 C   0  0  0  0  0  0  0  0  0  0  0  0
   -2.6148   -1.2570   -4.5867 S   0  0  0  0  0  0  0  0  0  0  0  0
   -1.8899   -2.4754   -5.5596 C   0  0  0  0  0  0  0  0  0  0  0  0
   -2.6609   -3.1293   -6.6660 C   0  0  0  0  0  0  0  0  0  0  0  0
   -1.7475   -3.4413   -7.7357 O   0  0  0  0  0  0  0  0  0  0  0  0
   -1.4502   -2.3828   -8.5252 C   0  0  0  0  0  0  0  0  0  0  0  0
   -1.9298   -1.2639   -8.4381 O   0  0  0  0  0  0  0  0  0  0  0  0
   -0.5171   -2.7854   -9.6031 C   0  0  0  0  0  0  0  0  0  0  0  0
    0.4165   -3.8142   -9.4485 C   0  0  0  0  0  0  0  0  0  0  0  0
    1.2614   -4.1496  -10.5122 C   0  0  0  0  0  0  0  0  0  0  0  0
    1.1694   -3.4607  -11.7231 C   0  0  0  0  0  0  0  0  0  0  0  0
    0.2468   -2.4256  -11.8730 C   0  0  0  0  0  0  0  0  0  0  0  0
   -0.5903   -2.0828  -10.8115 C   0  0  0  0  0  0  0  0  0  0  0  0
   -0.6525   -2.7800   -5.2435 N   0  0  0  0  0  0  0  0  0  0  0  0
    0.5726    0.6749    0.3502 H   0  0  0  0  0  0  0  0  0  0  0  0
    0.4833   -0.5926   -0.8586 H   0  0  0  0  0  0  0  0  0  0  0  0
    0.8745    1.0992   -1.3411 H   0  0  0  0  0  0  0  0  0  0  0  0
    4.2681   -0.9074    0.9004 H   0  0  0  0  0  0  0  0  0  0  0  0
    5.3298   -2.6359    2.3061 H   0  0  0  0  0  0  0  0  0  0  0  0
    8.5738   -2.5945    0.5979 H   0  0  0  0  0  0  0  0  0  0  0  0
   10.6952   -3.1304    1.7093 H   0  0  0  0  0  0  0  0  0  0  0  0
    6.4503   -3.2273    4.2891 H   0  0  0  0  0  0  0  0  0  0  0  0
    6.6153   -5.7475   -1.4333 H   0  0  0  0  0  0  0  0  0  0  0  0
    3.3421   -3.3424   -3.2755 H   0  0  0  0  0  0  0  0  0  0  0  0
    1.1068   -3.2221   -3.1895 H   0  0  0  0  0  0  0  0  0  0  0  0
    1.8368   -2.3309   -4.5666 H   0  0  0  0  0  0  0  0  0  0  0  0
   -1.0540   -0.3998   -2.8932 H   0  0  0  0  0  0  0  0  0  0  0  0
   -3.4971   -2.5227   -7.0310 H   0  0  0  0  0  0  0  0  0  0  0  0
   -3.0724   -4.0745   -6.3068 H   0  0  0  0  0  0  0  0  0  0  0  0
    0.5054   -4.3514   -8.5061 H   0  0  0  0  0  0  0  0  0  0  0  0
    1.9917   -4.9474  -10.3989 H   0  0  0  0  0  0  0  0  0  0  0  0
    1.8205   -3.7274  -12.5526 H   0  0  0  0  0  0  0  0  0  0  0  0
    0.1772   -1.8852  -12.8131 H   0  0  0  0  0  0  0  0  0  0  0  0
   -1.3060   -1.2714  -10.9304 H   0  0  0  0  0  0  0  0  0  0  0  0
  1  2  1  0  0  0  0
  1 39  1  0  0  0  0
  1 40  1  0  0  0  0
  1 41  1  0  0  0  0
  2  3  1  0  0  0  0
  3  4  1  0  0  0  0
  3 21  2  0  0  0  0
  4  5  2  0  0  0  0
  4 42  1  0  0  0  0
  5  6  1  0  0  0  0
  5 19  1  0  0  0  0
  6  7  1  0  0  0  0
  6 16  2  0  0  0  0
  7  8  1  0  0  0  0
  7 43  1  0  0  0  0
  8  9  1  0  0  0  0
  8 15  2  0  0  0  0
  9 10  2  0  0  0  0
  9 44  1  0  0  0  0
 10 11  1  0  0  0  0
 10 45  1  0  0  0  0
 11 12  1  0  0  0  0
 11 13  2  0  0  0  0
 13 14  1  0  0  0  0
 13 15  1  0  0  0  0
 15 46  1  0  0  0  0
 16 17  1  0  0  0  0
 17 18  2  0  0  0  0
 17 47  1  0  0  0  0
 18 19  1  0  0  0  0
 19 20  2  0  0  0  0
 20 21  1  0  0  0  0
 20 48  1  0  0  0  0
 21 22  1  0  0  0  0
 22 23  1  0  0  0  0
 23 24  1  0  0  0  0
 23 49  1  0  0  0  0
 23 50  1  0  0  0  0
 24 25  2  0  0  0  0
 24 38  1  0  0  0  0
 25 26  1  0  0  0  0
 25 51  1  0  0  0  0
 26 27  1  0  0  0  0
 27 28  1  0  0  0  0
 27 38  2  0  0  0  0
 28 29  1  0  0  0  0
 28 52  1  0  0  0  0
 28 53  1  0  0  0  0
 29 30  1  0  0  0  0
 30 31  2  0  0  0  0
 30 32  1  0  0  0  0
 32 33  1  0  0  0  0
 32 37  2  0  0  0  0
 33 34  2  0  0  0  0
 33 54  1  0  0  0  0
 34 35  1  0  0  0  0
 34 55  1  0  0  0  0
 35 36  2  0  0  0  0
 35 56  1  0  0  0  0
 36 37  1  0  0  0  0
 36 57  1  0  0  0  0
 37 58  1  0  0  0  0
M  END
$$$$
