CHEMBL3099464
 OpenBabel04072215363D

 79 81  0  0  0  0  0  0  0  0999 V2000
    8.0351   -4.3572    2.4250 C   0  0  0  0  0  0  0  0  0  0  0  0
    7.3463   -2.9968    2.3591 C   0  0  0  0  0  0  0  0  0  0  0  0
    8.2584   -1.8405    2.4320 N   0  0  0  0  0  0  0  0  0  0  0  0
    9.3368   -1.8680    1.4315 C   0  0  0  0  0  0  0  0  0  0  0  0
    8.9135   -1.6944   -0.0235 C   0  0  0  0  0  0  0  0  0  0  0  0
    7.4669   -0.5894    2.4345 C   0  0  0  0  0  0  0  0  0  0  0  0
    8.2839    0.7041    2.5868 C   0  0  0  0  0  0  0  0  0  0  0  0
    7.3871    1.8223    2.6505 O   0  0  0  0  0  0  0  0  0  0  0  0
    7.9871    3.0495    2.7568 C   0  0  0  0  0  0  0  0  0  0  0  0
    9.2686    3.3534    2.3204 C   0  0  0  0  0  0  0  0  0  0  0  0
    9.7621    4.6526    2.4502 C   0  0  0  0  0  0  0  0  0  0  0  0
    8.9935    5.6866    3.0064 C   0  0  0  0  0  0  0  0  0  0  0  0
    9.5213    7.0074    3.0759 N   0  0  0  0  0  0  0  0  0  0  0  0
   10.4910    7.4924    2.2112 C   0  0  0  0  0  0  0  0  0  0  0  0
   10.8731    6.9128    1.2003 O   0  0  0  0  0  0  0  0  0  0  0  0
   11.0101    8.7134    2.6341 N   0  0  0  0  0  0  0  0  0  0  0  0
   11.9992    9.3913    1.8764 C   0  0  0  0  0  0  0  0  0  0  0  0
   11.9624    9.4073    0.4796 C   0  0  0  0  0  0  0  0  0  0  0  0
   13.0049    9.9546   -0.2731 C   0  0  0  0  0  0  0  0  0  0  0  0
   12.9850    9.9771   -1.6432 O   0  0  0  0  0  0  0  0  0  0  0  0
   11.7964    9.5788   -2.3142 C   0  0  0  0  0  0  0  0  0  0  0  0
   14.1360   10.4792    0.3935 C   0  0  0  0  0  0  0  0  0  0  0  0
   15.3036   10.8868   -0.2117 O   0  0  0  0  0  0  0  0  0  0  0  0
   15.4128   10.9593   -1.6242 C   0  0  0  0  0  0  0  0  0  0  0  0
   14.1447   10.5711    1.8200 C   0  0  0  0  0  0  0  0  0  0  0  0
   15.2707   11.1961    2.5826 C   0  0  0  0  0  0  0  0  0  0  0  0
   15.7398   10.6674    3.7856 C   0  0  0  0  0  0  0  0  0  0  0  0
   16.7998   11.2766    4.4705 C   0  0  0  0  0  0  0  0  0  0  0  0
   17.4678   12.4230    3.9761 C   0  0  0  0  0  0  0  0  0  0  0  0
   18.6120   12.8250    4.8477 C   0  0  0  0  0  0  0  0  0  0  0  0
   18.8818   14.2557    5.2000 C   0  0  0  0  0  0  0  0  0  0  0  0
   19.2964   11.9395    5.3670 O   0  0  0  0  0  0  0  0  0  0  0  0
   17.0139   12.9816    2.7788 C   0  0  0  0  0  0  0  0  0  0  0  0
   17.4059   14.0396    2.0190 O   0  0  0  0  0  0  0  0  0  0  0  0
   18.5907   14.7802    2.2021 C   0  0  0  0  0  0  0  0  0  0  0  0
   15.9150   12.3608    2.1317 C   0  0  0  0  0  0  0  0  0  0  0  0
   13.0472   10.0347    2.5307 C   0  0  0  0  0  0  0  0  0  0  0  0
    7.7142    5.3718    3.5031 C   0  0  0  0  0  0  0  0  0  0  0  0
    6.7918    6.3686    4.1508 C   0  0  0  0  0  0  0  0  0  0  0  0
    7.2156    4.0601    3.3311 C   0  0  0  0  0  0  0  0  0  0  0  0
    7.2891   -5.1461    2.5670 H   0  0  0  0  0  0  0  0  0  0  0  0
    8.7403   -4.4081    3.2608 H   0  0  0  0  0  0  0  0  0  0  0  0
    8.5721   -4.5835    1.4982 H   0  0  0  0  0  0  0  0  0  0  0  0
    6.6597   -2.9478    3.2139 H   0  0  0  0  0  0  0  0  0  0  0  0
    6.7259   -2.9554    1.4556 H   0  0  0  0  0  0  0  0  0  0  0  0
    9.9057   -2.7999    1.5261 H   0  0  0  0  0  0  0  0  0  0  0  0
   10.0779   -1.0971    1.6767 H   0  0  0  0  0  0  0  0  0  0  0  0
    8.1094   -2.3805   -0.3037 H   0  0  0  0  0  0  0  0  0  0  0  0
    9.7643   -1.8995   -0.6821 H   0  0  0  0  0  0  0  0  0  0  0  0
    8.5817   -0.6712   -0.2243 H   0  0  0  0  0  0  0  0  0  0  0  0
    6.7526   -0.6215    3.2684 H   0  0  0  0  0  0  0  0  0  0  0  0
    6.8522   -0.5143    1.5275 H   0  0  0  0  0  0  0  0  0  0  0  0
    8.9391    0.8037    1.7178 H   0  0  0  0  0  0  0  0  0  0  0  0
    8.8777    0.6643    3.5082 H   0  0  0  0  0  0  0  0  0  0  0  0
    9.9131    2.6230    1.8434 H   0  0  0  0  0  0  0  0  0  0  0  0
   10.7761    4.8291    2.0975 H   0  0  0  0  0  0  0  0  0  0  0  0
    8.9674    7.7121    3.5368 H   0  0  0  0  0  0  0  0  0  0  0  0
   11.0488    8.8251    3.6350 H   0  0  0  0  0  0  0  0  0  0  0  0
   11.1034    8.9665   -0.0127 H   0  0  0  0  0  0  0  0  0  0  0  0
   11.9378    9.7696   -3.3845 H   0  0  0  0  0  0  0  0  0  0  0  0
   10.9352   10.1695   -1.9865 H   0  0  0  0  0  0  0  0  0  0  0  0
   11.6168    8.5060   -2.1900 H   0  0  0  0  0  0  0  0  0  0  0  0
   16.4173   11.3291   -1.8570 H   0  0  0  0  0  0  0  0  0  0  0  0
   14.7032   11.6824   -2.0370 H   0  0  0  0  0  0  0  0  0  0  0  0
   15.3250    9.9738   -2.0913 H   0  0  0  0  0  0  0  0  0  0  0  0
   15.3088    9.7625    4.2072 H   0  0  0  0  0  0  0  0  0  0  0  0
   17.1209   10.8243    5.4106 H   0  0  0  0  0  0  0  0  0  0  0  0
   18.1100   14.9288    4.8249 H   0  0  0  0  0  0  0  0  0  0  0  0
   19.8646   14.5346    4.8171 H   0  0  0  0  0  0  0  0  0  0  0  0
   18.8861   14.3536    6.2908 H   0  0  0  0  0  0  0  0  0  0  0  0
   18.8141   15.2658    1.2412 H   0  0  0  0  0  0  0  0  0  0  0  0
   19.4456   14.1748    2.4767 H   0  0  0  0  0  0  0  0  0  0  0  0
   18.3979   15.6009    2.8990 H   0  0  0  0  0  0  0  0  0  0  0  0
   15.5728   12.8134    1.1983 H   0  0  0  0  0  0  0  0  0  0  0  0
   13.0452   10.0760    3.6163 H   0  0  0  0  0  0  0  0  0  0  0  0
    7.3307    7.1800    4.6429 H   0  0  0  0  0  0  0  0  0  0  0  0
    6.1986    5.8798    4.9337 H   0  0  0  0  0  0  0  0  0  0  0  0
    6.1060    6.7862    3.4067 H   0  0  0  0  0  0  0  0  0  0  0  0
    6.2042    3.8173    3.6531 H   0  0  0  0  0  0  0  0  0  0  0  0
  1  2  1  0  0  0  0
  1 41  1  0  0  0  0
  1 42  1  0  0  0  0
  1 43  1  0  0  0  0
  2  3  1  0  0  0  0
  2 44  1  0  0  0  0
  2 45  1  0  0  0  0
  3  4  1  0  0  0  0
  3  6  1  0  0  0  0
  4  5  1  0  0  0  0
  4 46  1  0  0  0  0
  4 47  1  0  0  0  0
  5 48  1  0  0  0  0
  5 49  1  0  0  0  0
  5 50  1  0  0  0  0
  6  7  1  0  0  0  0
  6 51  1  0  0  0  0
  6 52  1  0  0  0  0
  7  8  1  0  0  0  0
  7 53  1  0  0  0  0
  7 54  1  0  0  0  0
  8  9  1  0  0  0  0
  9 10  1  0  0  0  0
  9 40  2  0  0  0  0
 10 11  2  0  0  0  0
 10 55  1  0  0  0  0
 11 12  1  0  0  0  0
 11 56  1  0  0  0  0
 12 13  1  0  0  0  0
 12 38  2  0  0  0  0
 13 14  1  0  0  0  0
 13 57  1  0  0  0  0
 14 15  2  0  0  0  0
 14 16  1  0  0  0  0
 16 17  1  0  0  0  0
 16 58  1  0  0  0  0
 17 18  1  0  0  0  0
 17 37  2  0  0  0  0
 18 19  2  0  0  0  0
 18 59  1  0  0  0  0
 19 20  1  0  0  0  0
 19 22  1  0  0  0  0
 20 21  1  0  0  0  0
 21 60  1  0  0  0  0
 21 61  1  0  0  0  0
 21 62  1  0  0  0  0
 22 23  1  0  0  0  0
 22 25  2  0  0  0  0
 23 24  1  0  0  0  0
 24 63  1  0  0  0  0
 24 64  1  0  0  0  0
 24 65  1  0  0  0  0
 25 26  1  0  0  0  0
 25 37  1  0  0  0  0
 26 27  1  0  0  0  0
 26 36  2  0  0  0  0
 27 28  2  0  0  0  0
 27 66  1  0  0  0  0
 28 29  1  0  0  0  0
 28 67  1  0  0  0  0
 29 30  1  0  0  0  0
 29 33  2  0  0  0  0
 30 31  1  0  0  0  0
 30 32  2  0  0  0  0
 31 68  1  0  0  0  0
 31 69  1  0  0  0  0
 31 70  1  0  0  0  0
 33 34  1  0  0  0  0
 33 36  1  0  0  0  0
 34 35  1  0  0  0  0
 35 71  1  0  0  0  0
 35 72  1  0  0  0  0
 35 73  1  0  0  0  0
 36 74  1  0  0  0  0
 37 75  1  0  0  0  0
 38 39  1  0  0  0  0
 38 40  1  0  0  0  0
 39 76  1  0  0  0  0
 39 77  1  0  0  0  0
 39 78  1  0  0  0  0
 40 79  1  0  0  0  0
M  END
$$$$
