CHEMBL3979170
 OpenBabel04072215373D

 61 65  0  0  1  0  0  0  0  0999 V2000
    0.0320    2.7873   -2.6506 C   0  0  0  0  0  0  0  0  0  0  0  0
    1.3634    3.0102   -3.1275 O   0  0  0  0  0  0  0  0  0  0  0  0
    2.3921    2.5246   -2.3584 C   0  0  0  0  0  0  0  0  0  0  0  0
    2.2310    1.9924   -1.0805 C   0  0  0  0  0  0  0  0  0  0  0  0
    3.3320    1.4767   -0.4039 C   0  0  0  0  0  0  0  0  0  0  0  0
    3.2719    0.8942    0.8357 O   0  0  0  0  0  0  0  0  0  0  0  0
    2.2706    1.4206    1.7025 C   0  0  0  0  0  0  0  0  0  0  0  0
    4.5928    1.4529   -1.0174 C   0  0  0  0  0  0  0  0  0  0  0  0
    4.7977    1.9687   -2.3054 C   0  0  0  0  0  0  0  0  0  0  0  0
    5.9964    1.7579   -3.0309 N   0  0  0  0  0  0  0  0  0  0  0  0
    6.7008    0.4279   -2.8063 C   0  0  0  0  0  0  0  0  0  0  0  0
    5.9036   -0.9017   -2.9499 C   0  0  2  0  0  0  0  0  0  0  0  0
    6.8245   -2.0676   -2.5565 C   0  0  0  0  0  0  0  0  0  0  0  0
    6.0375   -3.2918   -2.9720 C   0  0  0  0  0  0  0  0  0  0  0  0
    5.2412   -2.8137   -4.1780 C   0  0  0  0  0  0  0  0  0  0  0  0
    5.5124   -1.3656   -4.2980 N   0  0  0  0  0  0  0  0  0  0  0  0
    7.0398    2.7173   -3.3678 C   0  0  0  0  0  0  0  0  0  0  0  0
    7.6742    2.4484   -4.5821 C   0  0  0  0  0  0  0  0  0  0  0  0
    8.9973    2.7969   -4.7571 C   0  0  0  0  0  0  0  0  0  0  0  0
    9.6717    3.5593   -3.8411 C   0  0  0  0  0  0  0  0  0  0  0  0
   10.9890    3.6205   -4.0556 N   0  0  0  0  0  0  0  0  0  0  0  0
   11.6717    4.5092   -3.3238 C   0  0  0  0  0  0  0  0  0  0  0  0
   11.0394    5.3922   -2.4798 C   0  0  0  0  0  0  0  0  0  0  0  0
   11.8312    6.5881   -2.1459 C   0  0  0  0  0  0  0  0  0  0  0  0
   11.8008    7.8669   -2.7621 C   0  0  0  0  0  0  0  0  0  0  0  0
   12.8527    8.6346   -2.4398 N   0  0  0  0  0  0  0  0  0  0  0  0
   13.5770    7.8465   -1.6294 N   0  0  0  0  0  0  0  0  0  0  0  0
   14.6981    8.3861   -0.8929 C   0  0  0  0  0  0  0  0  0  0  0  0
   13.0828    6.5691   -1.5488 C   0  0  0  0  0  0  0  0  0  0  0  0
    9.7067    5.2404   -2.1357 N   0  0  0  0  0  0  0  0  0  0  0  0
    8.9937    4.2163   -2.7802 C   0  0  0  0  0  0  0  0  0  0  0  0
    7.6495    3.6911   -2.5360 C   0  0  0  0  0  0  0  0  0  0  0  0
    3.6792    2.5436   -2.9454 C   0  0  0  0  0  0  0  0  0  0  0  0
   -0.6731    3.1031   -3.4272 H   0  0  0  0  0  0  0  0  0  0  0  0
   -0.1720    3.3879   -1.7570 H   0  0  0  0  0  0  0  0  0  0  0  0
   -0.1578    1.7249   -2.4555 H   0  0  0  0  0  0  0  0  0  0  0  0
    1.2503    1.9472   -0.6240 H   0  0  0  0  0  0  0  0  0  0  0  0
    2.4613    1.0313    2.7065 H   0  0  0  0  0  0  0  0  0  0  0  0
    1.2707    1.0880    1.4049 H   0  0  0  0  0  0  0  0  0  0  0  0
    2.3229    2.5139    1.7486 H   0  0  0  0  0  0  0  0  0  0  0  0
    5.4090    0.9908   -0.4747 H   0  0  0  0  0  0  0  0  0  0  0  0
    7.1669    0.4560   -1.8142 H   0  0  0  0  0  0  0  0  0  0  0  0
    7.5381    0.3167   -3.5082 H   0  0  0  0  0  0  0  0  0  0  0  0
    5.0169   -0.8998   -2.3076 H   0  0  0  0  0  0  0  0  0  0  0  0
    7.0745   -2.0749   -1.4916 H   0  0  0  0  0  0  0  0  0  0  0  0
    7.7658   -2.0354   -3.1240 H   0  0  0  0  0  0  0  0  0  0  0  0
    5.3617   -3.5928   -2.1625 H   0  0  0  0  0  0  0  0  0  0  0  0
    6.6901   -4.1435   -3.1997 H   0  0  0  0  0  0  0  0  0  0  0  0
    4.1740   -3.0093   -4.0225 H   0  0  0  0  0  0  0  0  0  0  0  0
    5.5497   -3.3428   -5.0857 H   0  0  0  0  0  0  0  0  0  0  0  0
    4.6808   -0.8733   -4.6223 H   0  0  0  0  0  0  0  0  0  0  0  0
    7.2048    1.7920   -5.3095 H   0  0  0  0  0  0  0  0  0  0  0  0
    9.5408    2.4022   -5.6177 H   0  0  0  0  0  0  0  0  0  0  0  0
   12.7390    4.5330   -3.5153 H   0  0  0  0  0  0  0  0  0  0  0  0
   11.0881    8.2583   -3.4774 H   0  0  0  0  0  0  0  0  0  0  0  0
   14.8407    9.4412   -1.1439 H   0  0  0  0  0  0  0  0  0  0  0  0
   15.6010    7.8182   -1.1309 H   0  0  0  0  0  0  0  0  0  0  0  0
   14.4604    8.2937    0.1704 H   0  0  0  0  0  0  0  0  0  0  0  0
   13.6623    5.7854   -1.0791 H   0  0  0  0  0  0  0  0  0  0  0  0
    7.1419    4.0227   -1.6188 H   0  0  0  0  0  0  0  0  0  0  0  0
    3.7812    2.9361   -3.9542 H   0  0  0  0  0  0  0  0  0  0  0  0
  1  2  1  0  0  0  0
  1 34  1  0  0  0  0
  1 35  1  0  0  0  0
  1 36  1  0  0  0  0
  2  3  1  0  0  0  0
  3  4  1  0  0  0  0
  3 33  2  0  0  0  0
  4  5  2  0  0  0  0
  4 37  1  0  0  0  0
  5  6  1  0  0  0  0
  5  8  1  0  0  0  0
  6  7  1  0  0  0  0
  7 38  1  0  0  0  0
  7 39  1  0  0  0  0
  7 40  1  0  0  0  0
  8  9  2  0  0  0  0
  8 41  1  0  0  0  0
  9 10  1  0  0  0  0
  9 33  1  0  0  0  0
 10 11  1  0  0  0  0
 10 17  1  0  0  0  0
 11 12  1  0  0  0  0
 11 42  1  0  0  0  0
 11 43  1  0  0  0  0
 12 13  1  0  0  0  0
 12 16  1  0  0  0  0
 12 44  1  1  0  0  0
 13 14  1  0  0  0  0
 13 45  1  0  0  0  0
 13 46  1  0  0  0  0
 14 15  1  0  0  0  0
 14 47  1  0  0  0  0
 14 48  1  0  0  0  0
 15 16  1  0  0  0  0
 15 49  1  0  0  0  0
 15 50  1  0  0  0  0
 16 51  1  0  0  0  0
 17 18  1  0  0  0  0
 17 32  2  0  0  0  0
 18 19  2  0  0  0  0
 18 52  1  0  0  0  0
 19 20  1  0  0  0  0
 19 53  1  0  0  0  0
 20 21  1  0  0  0  0
 20 31  2  0  0  0  0
 21 22  2  0  0  0  0
 22 23  1  0  0  0  0
 22 54  1  0  0  0  0
 23 24  1  0  0  0  0
 23 30  2  0  0  0  0
 24 25  1  0  0  0  0
 24 29  2  0  0  0  0
 25 26  2  0  0  0  0
 25 55  1  0  0  0  0
 26 27  1  0  0  0  0
 27 28  1  0  0  0  0
 27 29  1  0  0  0  0
 28 56  1  0  0  0  0
 28 57  1  0  0  0  0
 28 58  1  0  0  0  0
 29 59  1  0  0  0  0
 30 31  1  0  0  0  0
 31 32  1  0  0  0  0
 32 60  1  0  0  0  0
 33 61  1  0  0  0  0
M  END
$$$$
