CHEMBL1940862
 OpenBabel04072215363D

 36 38  0  0  0  0  0  0  0  0999 V2000
   -3.2720   -5.7806    1.0100 C   0  0  0  0  0  0  0  0  0  0  0  0
   -2.2836   -5.6177    2.1205 C   0  0  0  0  0  0  0  0  0  0  0  0
   -2.6136   -5.9036    3.4906 C   0  0  0  0  0  0  0  0  0  0  0  0
   -1.5670   -5.6810    4.3510 C   0  0  0  0  0  0  0  0  0  0  0  0
   -0.1874   -5.1171    3.5360 S   0  0  0  0  0  0  0  0  0  0  0  0
   -0.9533   -5.2134    1.9945 C   0  0  0  0  0  0  0  0  0  0  0  0
   -0.2022   -4.8335    0.7917 C   0  0  0  0  0  0  0  0  0  0  0  0
   -0.7317   -4.3608   -0.2169 O   0  0  0  0  0  0  0  0  0  0  0  0
    1.2789   -5.1089    0.7808 C   0  0  0  0  0  0  0  0  0  0  0  0
    2.1452   -4.4854   -0.0327 C   0  0  0  0  0  0  0  0  0  0  0  0
    3.5731   -4.8420   -0.0053 C   0  0  0  0  0  0  0  0  0  0  0  0
    4.0340   -5.8518   -0.8525 C   0  0  0  0  0  0  0  0  0  0  0  0
    5.3759   -6.2674   -0.8107 C   0  0  0  0  0  0  0  0  0  0  0  0
    5.8400   -7.2964   -1.6480 C   0  0  0  0  0  0  0  0  0  0  0  0
    7.1670   -7.7105   -1.5920 C   0  0  0  0  0  0  0  0  0  0  0  0
    8.0407   -7.0953   -0.7037 C   0  0  0  0  0  0  0  0  0  0  0  0
    7.5895   -6.0615    0.1364 C   0  0  0  0  0  0  0  0  0  0  0  0
    8.5629   -5.4084    1.0831 C   0  0  0  0  0  0  0  0  0  0  0  0
    6.2528   -5.6357    0.0995 C   0  0  0  0  0  0  0  0  0  0  0  0
    5.8207   -4.6555    0.9167 N   0  0  0  0  0  0  0  0  0  0  0  0
    4.5175   -4.2875    0.8548 C   0  0  0  0  0  0  0  0  0  0  0  0
    4.1232   -3.0543    1.9907 Cl  0  0  0  0  0  0  0  0  0  0  0  0
   -4.2339   -6.1404    1.3983 H   0  0  0  0  0  0  0  0  0  0  0  0
   -2.9205   -6.5136    0.2775 H   0  0  0  0  0  0  0  0  0  0  0  0
   -3.4581   -4.8276    0.5078 H   0  0  0  0  0  0  0  0  0  0  0  0
   -3.5818   -6.2572    3.8255 H   0  0  0  0  0  0  0  0  0  0  0  0
   -1.5520   -5.8167    5.4245 H   0  0  0  0  0  0  0  0  0  0  0  0
    1.6230   -5.8619    1.4780 H   0  0  0  0  0  0  0  0  0  0  0  0
    1.8362   -3.7164   -0.7368 H   0  0  0  0  0  0  0  0  0  0  0  0
    3.3404   -6.3282   -1.5428 H   0  0  0  0  0  0  0  0  0  0  0  0
    5.1667   -7.7865   -2.3483 H   0  0  0  0  0  0  0  0  0  0  0  0
    7.5197   -8.5106   -2.2382 H   0  0  0  0  0  0  0  0  0  0  0  0
    9.0774   -7.4234   -0.6650 H   0  0  0  0  0  0  0  0  0  0  0  0
    9.5607   -5.8544    1.0058 H   0  0  0  0  0  0  0  0  0  0  0  0
    8.2278   -5.5293    2.1181 H   0  0  0  0  0  0  0  0  0  0  0  0
    8.6594   -4.3430    0.8511 H   0  0  0  0  0  0  0  0  0  0  0  0
  1  2  1  0  0  0  0
  1 23  1  0  0  0  0
  1 24  1  0  0  0  0
  1 25  1  0  0  0  0
  2  3  1  0  0  0  0
  2  6  2  0  0  0  0
  3  4  2  0  0  0  0
  3 26  1  0  0  0  0
  4  5  1  0  0  0  0
  4 27  1  0  0  0  0
  5  6  1  0  0  0  0
  6  7  1  0  0  0  0
  7  8  2  0  0  0  0
  7  9  1  0  0  0  0
  9 10  2  0  0  0  0
  9 28  1  0  0  0  0
 10 11  1  0  0  0  0
 10 29  1  0  0  0  0
 11 12  1  0  0  0  0
 11 21  2  0  0  0  0
 12 13  2  0  0  0  0
 12 30  1  0  0  0  0
 13 14  1  0  0  0  0
 13 19  1  0  0  0  0
 14 15  2  0  0  0  0
 14 31  1  0  0  0  0
 15 16  1  0  0  0  0
 15 32  1  0  0  0  0
 16 17  2  0  0  0  0
 16 33  1  0  0  0  0
 17 18  1  0  0  0  0
 17 19  1  0  0  0  0
 18 34  1  0  0  0  0
 18 35  1  0  0  0  0
 18 36  1  0  0  0  0
 19 20  2  0  0  0  0
 20 21  1  0  0  0  0
 21 22  1  0  0  0  0
M  END
$$$$
