CHEMBL1997872
 OpenBabel04072215363D

 40 43  0  0  0  0  0  0  0  0999 V2000
    1.1462   -0.0109   -0.1635 O   0  0  0  0  0  0  0  0  0  0  0  0
    2.3731   -0.0217   -0.1631 C   0  0  0  0  0  0  0  0  0  0  0  0
    3.0687    0.9056    0.7742 C   0  0  0  0  0  0  0  0  0  0  0  0
    2.5268    1.1343    2.0409 C   0  0  0  0  0  0  0  0  0  0  0  0
    3.2165    1.9393    2.9458 C   0  0  0  0  0  0  0  0  0  0  0  0
    4.4683    2.4662    2.6063 C   0  0  0  0  0  0  0  0  0  0  0  0
    5.0414    2.2449    1.3411 C   0  0  0  0  0  0  0  0  0  0  0  0
    6.4411    2.6151    1.0204 C   0  0  0  0  0  0  0  0  0  0  0  0
    7.4396    2.6368    2.0083 C   0  0  0  0  0  0  0  0  0  0  0  0
    8.7677    2.8747    1.8407 N   0  0  0  0  0  0  0  0  0  0  0  0
    9.0938    3.0797    0.5550 C   0  0  0  0  0  0  0  0  0  0  0  0
   10.3618    3.3278    0.1077 N   0  0  0  0  0  0  0  0  0  0  0  0
   10.3522    3.4672   -1.2578 C   0  0  0  0  0  0  0  0  0  0  0  0
    9.0502    3.3141   -1.6883 C   0  0  0  0  0  0  0  0  0  0  0  0
    8.2443    3.0794   -0.5414 C   0  0  0  0  0  0  0  0  0  0  0  0
    6.8772    2.8541   -0.2978 C   0  0  0  0  0  0  0  0  0  0  0  0
    4.2599    1.5416    0.4088 C   0  0  0  0  0  0  0  0  0  0  0  0
    3.1233   -0.8714   -0.9828 N   0  0  0  0  0  0  0  0  0  0  0  0
    2.4402   -1.6264   -2.0368 C   0  0  0  0  0  0  0  0  0  0  0  0
    2.8131   -3.1105   -1.9774 C   0  0  0  0  0  0  0  0  0  0  0  0
    4.2401   -3.2884   -2.0305 O   0  0  0  0  0  0  0  0  0  0  0  0
    4.8619   -2.6412   -0.9151 C   0  0  0  0  0  0  0  0  0  0  0  0
    4.5679   -1.1405   -0.9111 C   0  0  0  0  0  0  0  0  0  0  0  0
    1.5773    0.6856    2.3216 H   0  0  0  0  0  0  0  0  0  0  0  0
    2.7968    2.1281    3.9312 H   0  0  0  0  0  0  0  0  0  0  0  0
    4.9936    3.0520    3.3586 H   0  0  0  0  0  0  0  0  0  0  0  0
    7.1914    2.4138    3.0452 H   0  0  0  0  0  0  0  0  0  0  0  0
   11.1661    3.3878    0.7138 H   0  0  0  0  0  0  0  0  0  0  0  0
   11.2676    3.6630   -1.8003 H   0  0  0  0  0  0  0  0  0  0  0  0
    8.7167    3.3653   -2.7164 H   0  0  0  0  0  0  0  0  0  0  0  0
    6.1926    2.8527   -1.1380 H   0  0  0  0  0  0  0  0  0  0  0  0
    4.6175    1.4139   -0.6082 H   0  0  0  0  0  0  0  0  0  0  0  0
    2.7809   -1.1978   -2.9884 H   0  0  0  0  0  0  0  0  0  0  0  0
    1.3538   -1.5058   -1.9832 H   0  0  0  0  0  0  0  0  0  0  0  0
    2.3845   -3.6408   -2.8313 H   0  0  0  0  0  0  0  0  0  0  0  0
    2.4328   -3.5755   -1.0611 H   0  0  0  0  0  0  0  0  0  0  0  0
    5.9420   -2.8048   -0.9850 H   0  0  0  0  0  0  0  0  0  0  0  0
    4.5118   -3.1042    0.0141 H   0  0  0  0  0  0  0  0  0  0  0  0
    5.0164   -0.6709   -1.7980 H   0  0  0  0  0  0  0  0  0  0  0  0
    5.0247   -0.7229   -0.0156 H   0  0  0  0  0  0  0  0  0  0  0  0
  1  2  2  0  0  0  0
  2  3  1  0  0  0  0
  2 18  1  0  0  0  0
  3  4  1  0  0  0  0
  3 17  2  0  0  0  0
  4  5  2  0  0  0  0
  4 24  1  0  0  0  0
  5  6  1  0  0  0  0
  5 25  1  0  0  0  0
  6  7  2  0  0  0  0
  6 26  1  0  0  0  0
  7  8  1  0  0  0  0
  7 17  1  0  0  0  0
  8  9  1  0  0  0  0
  8 16  2  0  0  0  0
  9 10  2  0  0  0  0
  9 27  1  0  0  0  0
 10 11  1  0  0  0  0
 11 12  1  0  0  0  0
 11 15  2  0  0  0  0
 12 13  1  0  0  0  0
 12 28  1  0  0  0  0
 13 14  2  0  0  0  0
 13 29  1  0  0  0  0
 14 15  1  0  0  0  0
 14 30  1  0  0  0  0
 15 16  1  0  0  0  0
 16 31  1  0  0  0  0
 17 32  1  0  0  0  0
 18 19  1  0  0  0  0
 18 23  1  0  0  0  0
 19 20  1  0  0  0  0
 19 33  1  0  0  0  0
 19 34  1  0  0  0  0
 20 21  1  0  0  0  0
 20 35  1  0  0  0  0
 20 36  1  0  0  0  0
 21 22  1  0  0  0  0
 22 23  1  0  0  0  0
 22 37  1  0  0  0  0
 22 38  1  0  0  0  0
 23 39  1  0  0  0  0
 23 40  1  0  0  0  0
M  END
$$$$
