CHEMBL1933552
 OpenBabel04072215363D

 61 66  0  0  1  0  0  0  0  0999 V2000
    2.4163   -0.3690    0.8458 C   0  0  0  0  0  0  0  0  0  0  0  0
    1.2216   -0.2225   -0.0923 C   0  0  2  0  0  0  0  0  0  0  0  0
    0.4397    1.0656    0.2226 C   0  0  0  0  0  0  0  0  0  0  0  0
   -0.9557    1.0052   -0.3815 C   0  0  0  0  0  0  0  0  0  0  0  0
   -1.7424   -0.1629    0.2382 C   0  0  3  0  0  0  0  0  0  0  0  0
   -2.8553   -0.6447   -0.5876 N   0  0  3  0  0  0  0  0  0  0  0  0
   -2.5156   -1.1677   -1.9048 C   0  0  0  0  0  0  0  0  0  0  0  0
   -3.1288   -0.2498   -2.9499 C   0  0  0  0  0  0  0  0  0  0  0  0
   -4.0716    0.6892   -2.1934 C   0  0  1  0  0  0  0  0  0  0  0  0
   -3.7723    2.1951   -2.4504 C   0  0  0  0  0  0  0  0  0  0  0  0
   -4.8568    2.7320   -3.2926 N   0  0  0  0  0  0  0  0  0  0  0  0
   -4.9344    3.9745   -3.9144 C   0  0  0  0  0  0  0  0  0  0  0  0
   -5.8516    4.2428   -4.6953 O   0  0  0  0  0  0  0  0  0  0  0  0
   -3.9503    5.0338   -3.6888 C   0  0  0  0  0  0  0  0  0  0  0  0
   -2.8443    5.2793   -2.8852 C   0  0  0  0  0  0  0  0  0  0  0  0
   -2.3959    6.6295   -3.1140 C   0  0  0  0  0  0  0  0  0  0  0  0
   -1.3713    7.4508   -2.5939 C   0  0  0  0  0  0  0  0  0  0  0  0
   -1.2801    8.7940   -3.0084 C   0  0  0  0  0  0  0  0  0  0  0  0
   -2.1865    9.3042   -3.9274 C   0  0  0  0  0  0  0  0  0  0  0  0
   -2.1053   10.5940   -4.2861 F   0  0  0  0  0  0  0  0  0  0  0  0
   -3.1820    8.5116   -4.4875 C   0  0  0  0  0  0  0  0  0  0  0  0
   -3.2524    7.1808   -4.0612 C   0  0  0  0  0  0  0  0  0  0  0  0
   -4.1116    6.1887   -4.4387 N   0  0  0  0  0  0  0  0  0  0  0  0
   -5.8684    1.7381   -3.3800 C   0  0  0  0  0  0  0  0  0  0  0  0
   -7.1126    1.7915   -3.9889 C   0  0  0  0  0  0  0  0  0  0  0  0
   -7.9466    0.6632   -3.9524 C   0  0  0  0  0  0  0  0  0  0  0  0
   -7.5358   -0.5084   -3.3131 C   0  0  0  0  0  0  0  0  0  0  0  0
   -6.2879   -0.5636   -2.6998 C   0  0  0  0  0  0  0  0  0  0  0  0
   -5.4712    0.5677   -2.7389 C   0  0  0  0  0  0  0  0  0  0  0  0
   -3.9717    0.2917   -0.7189 C   0  0  0  0  0  0  0  0  0  0  0  0
   -0.8131   -1.3148    0.7235 C   0  0  0  0  0  0  0  0  0  0  0  0
    0.4346   -1.4600   -0.0288 N   0  0  0  0  0  0  0  0  0  0  0  0
    3.0563    0.5177    0.7999 H   0  0  0  0  0  0  0  0  0  0  0  0
    3.0255   -1.2367    0.5688 H   0  0  0  0  0  0  0  0  0  0  0  0
    2.0936   -0.5018    1.8848 H   0  0  0  0  0  0  0  0  0  0  0  0
    1.6102   -0.1389   -1.1157 H   0  0  0  0  0  0  0  0  0  0  0  0
    0.9771    1.9291   -0.1869 H   0  0  0  0  0  0  0  0  0  0  0  0
    0.3600    1.2238    1.3054 H   0  0  0  0  0  0  0  0  0  0  0  0
   -0.8576    0.9004   -1.4677 H   0  0  0  0  0  0  0  0  0  0  0  0
   -1.4869    1.9484   -0.2079 H   0  0  0  0  0  0  0  0  0  0  0  0
   -2.1926    0.2163    1.1686 H   0  0  0  0  0  0  0  0  0  0  0  0
   -2.9324   -2.1767   -2.0010 H   0  0  0  0  0  0  0  0  0  0  0  0
   -1.4428   -1.2624   -2.0896 H   0  0  0  0  0  0  0  0  0  0  0  0
   -3.6397   -0.8585   -3.7087 H   0  0  0  0  0  0  0  0  0  0  0  0
   -2.3395    0.2987   -3.4740 H   0  0  0  0  0  0  0  0  0  0  0  0
   -2.8113    2.3599   -2.9479 H   0  0  0  0  0  0  0  0  0  0  0  0
   -3.7775    2.7777   -1.5224 H   0  0  0  0  0  0  0  0  0  0  0  0
   -2.4069    4.6092   -2.1590 H   0  0  0  0  0  0  0  0  0  0  0  0
   -0.6589    7.0682   -1.8672 H   0  0  0  0  0  0  0  0  0  0  0  0
   -0.5099    9.4469   -2.6096 H   0  0  0  0  0  0  0  0  0  0  0  0
   -3.8780    8.9229   -5.2096 H   0  0  0  0  0  0  0  0  0  0  0  0
   -4.8426    6.2797   -5.1323 H   0  0  0  0  0  0  0  0  0  0  0  0
   -7.4712    2.6802   -4.4963 H   0  0  0  0  0  0  0  0  0  0  0  0
   -8.9219    0.7019   -4.4317 H   0  0  0  0  0  0  0  0  0  0  0  0
   -8.1945   -1.3815   -3.2988 H   0  0  0  0  0  0  0  0  0  0  0  0
   -5.9576   -1.4766   -2.2169 H   0  0  0  0  0  0  0  0  0  0  0  0
   -4.8711   -0.2342   -0.3762 H   0  0  0  0  0  0  0  0  0  0  0  0
   -3.8807    1.1591   -0.0545 H   0  0  0  0  0  0  0  0  0  0  0  0
   -1.3499   -2.2712    0.7149 H   0  0  0  0  0  0  0  0  0  0  0  0
   -0.5598   -1.1451    1.7788 H   0  0  0  0  0  0  0  0  0  0  0  0
    0.2117   -1.7700   -0.9729 H   0  0  0  0  0  0  0  0  0  0  0  0
  1  2  1  0  0  0  0
  1 33  1  0  0  0  0
  1 34  1  0  0  0  0
  1 35  1  0  0  0  0
  2  3  1  0  0  0  0
  2 32  1  0  0  0  0
  2 36  1  6  0  0  0
  3  4  1  0  0  0  0
  3 37  1  0  0  0  0
  3 38  1  0  0  0  0
  4  5  1  0  0  0  0
  4 39  1  0  0  0  0
  4 40  1  0  0  0  0
  5  6  1  0  0  0  0
  5 31  1  0  0  0  0
  5 41  1  0  0  0  0
  6  7  1  0  0  0  0
  6 30  1  0  0  0  0
  7  8  1  0  0  0  0
  7 42  1  0  0  0  0
  7 43  1  0  0  0  0
  8  9  1  0  0  0  0
  8 44  1  0  0  0  0
  8 45  1  0  0  0  0
  9 10  1  0  0  0  0
  9 29  1  6  0  0  0
  9 30  1  0  0  0  0
 10 11  1  0  0  0  0
 10 46  1  0  0  0  0
 10 47  1  0  0  0  0
 11 12  1  0  0  0  0
 11 24  1  0  0  0  0
 12 13  2  0  0  0  0
 12 14  1  0  0  0  0
 14 15  2  0  0  0  0
 14 23  1  0  0  0  0
 15 16  1  0  0  0  0
 15 48  1  0  0  0  0
 16 17  1  0  0  0  0
 16 22  2  0  0  0  0
 17 18  2  0  0  0  0
 17 49  1  0  0  0  0
 18 19  1  0  0  0  0
 18 50  1  0  0  0  0
 19 20  1  0  0  0  0
 19 21  2  0  0  0  0
 21 22  1  0  0  0  0
 21 51  1  0  0  0  0
 22 23  1  0  0  0  0
 23 52  1  0  0  0  0
 24 25  1  0  0  0  0
 24 29  2  0  0  0  0
 25 26  2  0  0  0  0
 25 53  1  0  0  0  0
 26 27  1  0  0  0  0
 26 54  1  0  0  0  0
 27 28  2  0  0  0  0
 27 55  1  0  0  0  0
 28 29  1  0  0  0  0
 28 56  1  0  0  0  0
 30 57  1  0  0  0  0
 30 58  1  0  0  0  0
 31 32  1  0  0  0  0
 31 59  1  0  0  0  0
 31 60  1  0  0  0  0
 32 61  1  0  0  0  0
M  END
$$$$
