CHEMBL3676380
 OpenBabel04072215373D

 62 64  0  0  1  0  0  0  0  0999 V2000
    2.5169   -2.2161   -1.1440 C   0  0  0  0  0  0  0  0  0  0  0  0
    3.2243   -1.1618   -0.7185 C   0  0  0  0  0  0  0  0  0  0  0  0
    4.0508   -0.4042   -1.6920 C   0  0  0  0  0  0  0  0  0  0  0  0
    4.1900   -0.7868   -2.8486 O   0  0  0  0  0  0  0  0  0  0  0  0
    4.5555    0.7728   -1.1660 N   0  0  0  0  0  0  0  0  0  0  0  0
    5.2184    1.6960   -2.0039 C   0  0  0  0  0  0  0  0  0  0  0  0
    6.2483    1.1905   -2.8018 C   0  0  0  0  0  0  0  0  0  0  0  0
    6.8569    1.9637   -3.8095 C   0  0  0  0  0  0  0  0  0  0  0  0
    7.8808    1.4892   -4.6449 C   0  0  0  0  0  0  0  0  0  0  0  0
    8.3097    0.1501   -4.5042 N   0  0  0  0  0  0  0  0  0  0  0  0
    9.5928   -0.4005   -4.6693 C   0  0  0  0  0  0  0  0  0  0  0  0
   10.7549    0.3615   -4.5080 C   0  0  0  0  0  0  0  0  0  0  0  0
   12.0140   -0.2469   -4.4948 C   0  0  0  0  0  0  0  0  0  0  0  0
   12.1193   -1.6276   -4.6526 C   0  0  0  0  0  0  0  0  0  0  0  0
   13.8114   -2.4579   -4.5193 Br  0  0  0  0  0  0  0  0  0  0  0  0
   10.9840   -2.4023   -4.8645 C   0  0  0  0  0  0  0  0  0  0  0  0
    9.7379   -1.7842   -4.8632 C   0  0  0  0  0  0  0  0  0  0  0  0
    8.6404   -2.5422   -5.0278 F   0  0  0  0  0  0  0  0  0  0  0  0
    8.4551    2.2698   -5.5740 N   0  0  0  0  0  0  0  0  0  0  0  0
    7.9546    3.5048   -5.6921 C   0  0  0  0  0  0  0  0  0  0  0  0
    6.9774    4.0512   -4.9576 N   0  0  0  0  0  0  0  0  0  0  0  0
    6.4449    3.2807   -4.0032 C   0  0  0  0  0  0  0  0  0  0  0  0
    5.4547    3.7969   -3.1651 C   0  0  0  0  0  0  0  0  0  0  0  0
    4.8619    3.0444   -2.1352 C   0  0  0  0  0  0  0  0  0  0  0  0
    3.8940    3.7301   -1.4429 O   0  0  0  0  0  0  0  0  0  0  0  0
    3.7642    3.3962   -0.0663 C   0  0  0  0  0  0  0  0  0  0  0  0
    3.3052    4.5924    0.7609 C   0  0  0  0  0  0  0  0  0  0  0  0
    3.2700    4.2514    2.1744 N   0  0  0  0  0  0  0  0  0  0  0  0
    4.4067    4.3259    2.9619 C   0  0  0  0  0  0  0  0  0  0  0  0
    5.4727    4.7830    2.5596 O   0  0  0  0  0  0  0  0  0  0  0  0
    4.2267    3.7700    4.3905 C   0  0  3  0  0  0  0  0  0  0  0  0
    3.1721    4.6610    5.0986 C   0  0  0  0  0  0  0  0  0  0  0  0
    1.8598    4.5456    4.5410 O   0  0  0  0  0  0  0  0  0  0  0  0
    3.9126    2.3029    4.3249 N   0  0  0  0  0  0  0  0  0  0  0  0
    5.0438    1.5562    3.7492 C   0  0  0  0  0  0  0  0  0  0  0  0
    3.6598    1.7642    5.6708 C   0  0  0  0  0  0  0  0  0  0  0  0
    1.9087   -2.7981   -0.4621 H   0  0  0  0  0  0  0  0  0  0  0  0
    2.5291   -2.5216   -2.1889 H   0  0  0  0  0  0  0  0  0  0  0  0
    3.2106   -0.8599    0.3197 H   0  0  0  0  0  0  0  0  0  0  0  0
    4.1574    1.0859   -0.2990 H   0  0  0  0  0  0  0  0  0  0  0  0
    6.5849    0.1682   -2.6305 H   0  0  0  0  0  0  0  0  0  0  0  0
    7.5542   -0.5105   -4.6770 H   0  0  0  0  0  0  0  0  0  0  0  0
   10.6875    1.4351   -4.3505 H   0  0  0  0  0  0  0  0  0  0  0  0
   12.8973    0.3654   -4.3317 H   0  0  0  0  0  0  0  0  0  0  0  0
   11.0453   -3.4761   -5.0005 H   0  0  0  0  0  0  0  0  0  0  0  0
    8.3750    4.1178   -6.4843 H   0  0  0  0  0  0  0  0  0  0  0  0
    5.1251    4.8209   -3.3310 H   0  0  0  0  0  0  0  0  0  0  0  0
    4.7123    3.0338    0.3476 H   0  0  0  0  0  0  0  0  0  0  0  0
    2.9952    2.6205    0.0277 H   0  0  0  0  0  0  0  0  0  0  0  0
    2.2982    4.9040    0.4637 H   0  0  0  0  0  0  0  0  0  0  0  0
    3.9731    5.4458    0.6020 H   0  0  0  0  0  0  0  0  0  0  0  0
    2.5734    3.5837    2.5058 H   0  0  0  0  0  0  0  0  0  0  0  0
    5.1805    3.9135    4.9169 H   0  0  0  0  0  0  0  0  0  0  0  0
    3.4644    5.7160    5.0432 H   0  0  0  0  0  0  0  0  0  0  0  0
    3.0970    4.4071    6.1599 H   0  0  0  0  0  0  0  0  0  0  0  0
    1.8604    5.0795    3.7242 H   0  0  0  0  0  0  0  0  0  0  0  0
    5.2475    1.8673    2.7195 H   0  0  0  0  0  0  0  0  0  0  0  0
    4.8074    0.4888    3.7005 H   0  0  0  0  0  0  0  0  0  0  0  0
    5.9696    1.6810    4.3246 H   0  0  0  0  0  0  0  0  0  0  0  0
    2.7617    2.1999    6.1174 H   0  0  0  0  0  0  0  0  0  0  0  0
    4.5067    1.9355    6.3473 H   0  0  0  0  0  0  0  0  0  0  0  0
    3.4773    0.6839    5.6269 H   0  0  0  0  0  0  0  0  0  0  0  0
  1  2  2  0  0  0  0
  1 37  1  0  0  0  0
  1 38  1  0  0  0  0
  2  3  1  0  0  0  0
  2 39  1  0  0  0  0
  3  4  2  0  0  0  0
  3  5  1  0  0  0  0
  5  6  1  0  0  0  0
  5 40  1  0  0  0  0
  6  7  1  0  0  0  0
  6 24  2  0  0  0  0
  7  8  2  0  0  0  0
  7 41  1  0  0  0  0
  8  9  1  0  0  0  0
  8 22  1  0  0  0  0
  9 10  1  0  0  0  0
  9 19  2  0  0  0  0
 10 11  1  0  0  0  0
 10 42  1  0  0  0  0
 11 12  1  0  0  0  0
 11 17  2  0  0  0  0
 12 13  2  0  0  0  0
 12 43  1  0  0  0  0
 13 14  1  0  0  0  0
 13 44  1  0  0  0  0
 14 15  1  0  0  0  0
 14 16  2  0  0  0  0
 16 17  1  0  0  0  0
 16 45  1  0  0  0  0
 17 18  1  0  0  0  0
 19 20  1  0  0  0  0
 20 21  2  0  0  0  0
 20 46  1  0  0  0  0
 21 22  1  0  0  0  0
 22 23  2  0  0  0  0
 23 24  1  0  0  0  0
 23 47  1  0  0  0  0
 24 25  1  0  0  0  0
 25 26  1  0  0  0  0
 26 27  1  0  0  0  0
 26 48  1  0  0  0  0
 26 49  1  0  0  0  0
 27 28  1  0  0  0  0
 27 50  1  0  0  0  0
 27 51  1  0  0  0  0
 28 29  1  0  0  0  0
 28 52  1  0  0  0  0
 29 30  2  0  0  0  0
 29 31  1  0  0  0  0
 31 32  1  0  0  0  0
 31 34  1  0  0  0  0
 31 53  1  0  0  0  0
 32 33  1  0  0  0  0
 32 54  1  0  0  0  0
 32 55  1  0  0  0  0
 33 56  1  0  0  0  0
 34 35  1  0  0  0  0
 34 36  1  0  0  0  0
 35 57  1  0  0  0  0
 35 58  1  0  0  0  0
 35 59  1  0  0  0  0
 36 60  1  0  0  0  0
 36 61  1  0  0  0  0
 36 62  1  0  0  0  0
M  END
$$$$
