CHEMBL3323614
 OpenBabel04072215363D

 42 46  0  0  0  0  0  0  0  0999 V2000
    3.6739   -0.1201   -1.1417 F   0  0  0  0  0  0  0  0  0  0  0  0
    2.4516   -0.1089   -0.5957 C   0  0  0  0  0  0  0  0  0  0  0  0
    1.9352   -1.2775   -0.0585 C   0  0  0  0  0  0  0  0  0  0  0  0
    0.6611   -1.2640    0.5055 C   0  0  0  0  0  0  0  0  0  0  0  0
   -0.0904   -0.0777    0.5357 C   0  0  0  0  0  0  0  0  0  0  0  0
   -1.8353   -0.2230    1.2842 Br  0  0  0  0  0  0  0  0  0  0  0  0
    0.4333    1.1153   -0.0000 C   0  0  0  0  0  0  0  0  0  0  0  0
   -0.2612    2.4081   -0.0338 C   0  0  0  0  0  0  0  0  0  0  0  0
   -0.0693    3.3484   -0.9415 N   0  0  0  0  0  0  0  0  0  0  0  0
   -0.9064    4.3822   -0.6086 C   0  0  0  0  0  0  0  0  0  0  0  0
   -1.1198    5.6020   -1.2571 C   0  0  0  0  0  0  0  0  0  0  0  0
   -2.0530    6.4915   -0.7096 C   0  0  0  0  0  0  0  0  0  0  0  0
   -2.7715    6.1896    0.4591 C   0  0  0  0  0  0  0  0  0  0  0  0
   -3.7572    7.0709    0.9498 N   0  0  0  0  0  0  0  0  0  0  0  0
   -4.7090    7.8413    0.2313 C   0  0  0  0  0  0  0  0  0  0  0  0
   -5.0604    7.5009   -1.0777 C   0  0  0  0  0  0  0  0  0  0  0  0
   -5.9686    8.2881   -1.7535 C   0  0  0  0  0  0  0  0  0  0  0  0
   -6.5541    9.3774   -1.2236 N   0  0  0  0  0  0  0  0  0  0  0  0
   -6.2238    9.7218    0.0302 C   0  0  0  0  0  0  0  0  0  0  0  0
   -6.8292   10.8461    0.5737 C   0  0  0  0  0  0  0  0  0  0  0  0
   -6.5399   11.2903    1.8649 C   0  0  0  0  0  0  0  0  0  0  0  0
   -5.6105   10.6054    2.6339 C   0  0  0  0  0  0  0  0  0  0  0  0
   -4.9873    9.4722    2.1118 C   0  0  0  0  0  0  0  0  0  0  0  0
   -5.2928    8.9984    0.8118 C   0  0  0  0  0  0  0  0  0  0  0  0
   -2.5466    4.9677    1.1179 C   0  0  0  0  0  0  0  0  0  0  0  0
   -1.6110    4.0955    0.5500 C   0  0  0  0  0  0  0  0  0  0  0  0
   -1.1682    2.8494    0.9061 N   0  0  0  0  0  0  0  0  0  0  0  0
    1.7176    1.0713   -0.5760 C   0  0  0  0  0  0  0  0  0  0  0  0
    2.5217   -2.1906   -0.0900 H   0  0  0  0  0  0  0  0  0  0  0  0
    0.2546   -2.1888    0.9097 H   0  0  0  0  0  0  0  0  0  0  0  0
   -0.5785    5.8446   -2.1644 H   0  0  0  0  0  0  0  0  0  0  0  0
   -2.2086    7.4457   -1.2085 H   0  0  0  0  0  0  0  0  0  0  0  0
   -4.0287    6.9064    1.9128 H   0  0  0  0  0  0  0  0  0  0  0  0
   -4.6591    6.6201   -1.5656 H   0  0  0  0  0  0  0  0  0  0  0  0
   -6.2627    8.0510   -2.7719 H   0  0  0  0  0  0  0  0  0  0  0  0
   -7.5482   11.3950   -0.0306 H   0  0  0  0  0  0  0  0  0  0  0  0
   -7.0363   12.1735    2.2576 H   0  0  0  0  0  0  0  0  0  0  0  0
   -5.3660   10.9529    3.6343 H   0  0  0  0  0  0  0  0  0  0  0  0
   -4.2458    8.9672    2.7252 H   0  0  0  0  0  0  0  0  0  0  0  0
   -3.0947    4.6959    2.0133 H   0  0  0  0  0  0  0  0  0  0  0  0
   -1.4754    2.3158    1.7059 H   0  0  0  0  0  0  0  0  0  0  0  0
    2.1579    1.9661   -1.0135 H   0  0  0  0  0  0  0  0  0  0  0  0
  1  2  1  0  0  0  0
  2  3  1  0  0  0  0
  2 28  2  0  0  0  0
  3  4  2  0  0  0  0
  3 29  1  0  0  0  0
  4  5  1  0  0  0  0
  4 30  1  0  0  0  0
  5  6  1  0  0  0  0
  5  7  2  0  0  0  0
  7  8  1  0  0  0  0
  7 28  1  0  0  0  0
  8  9  2  0  0  0  0
  8 27  1  0  0  0  0
  9 10  1  0  0  0  0
 10 11  1  0  0  0  0
 10 26  2  0  0  0  0
 11 12  2  0  0  0  0
 11 31  1  0  0  0  0
 12 13  1  0  0  0  0
 12 32  1  0  0  0  0
 13 14  1  0  0  0  0
 13 25  2  0  0  0  0
 14 15  1  0  0  0  0
 14 33  1  0  0  0  0
 15 16  1  0  0  0  0
 15 24  2  0  0  0  0
 16 17  2  0  0  0  0
 16 34  1  0  0  0  0
 17 18  1  0  0  0  0
 17 35  1  0  0  0  0
 18 19  2  0  0  0  0
 19 20  1  0  0  0  0
 19 24  1  0  0  0  0
 20 21  2  0  0  0  0
 20 36  1  0  0  0  0
 21 22  1  0  0  0  0
 21 37  1  0  0  0  0
 22 23  2  0  0  0  0
 22 38  1  0  0  0  0
 23 24  1  0  0  0  0
 23 39  1  0  0  0  0
 25 26  1  0  0  0  0
 25 40  1  0  0  0  0
 26 27  1  0  0  0  0
 27 41  1  0  0  0  0
 28 42  1  0  0  0  0
M  END
$$$$
