CHEMBL241265
 OpenBabel04072215363D

 43 45  0  0  0  0  0  0  0  0999 V2000
   -2.0908   -0.0393   -0.0285 C   0  0  0  0  0  0  0  0  0  0  0  0
   -0.6457   -0.1427    0.0144 N   0  0  0  0  0  0  0  0  0  0  0  0
    0.0777    0.9913    0.0632 N   0  0  0  0  0  0  0  0  0  0  0  0
    1.3358    0.5535    0.0756 C   0  0  0  0  0  0  0  0  0  0  0  0
    1.4252   -0.8583    0.0442 C   0  0  0  0  0  0  0  0  0  0  0  0
    2.6026   -1.5345   -0.0054 N   0  0  0  0  0  0  0  0  0  0  0  0
    2.7640   -2.8373   -0.6270 C   0  0  0  0  0  0  0  0  0  0  0  0
    3.8638   -2.8967   -1.6568 C   0  0  0  0  0  0  0  0  0  0  0  0
    4.5820   -4.0913   -1.8016 C   0  0  0  0  0  0  0  0  0  0  0  0
    5.5004   -4.2041   -2.8313 C   0  0  0  0  0  0  0  0  0  0  0  0
    5.7525   -3.2190   -3.7150 N   0  0  0  0  0  0  0  0  0  0  0  0
    5.0459   -2.0772   -3.5699 C   0  0  0  0  0  0  0  0  0  0  0  0
    4.1001   -1.8708   -2.5755 C   0  0  0  0  0  0  0  0  0  0  0  0
    0.1100   -1.3033    0.0592 C   0  0  0  0  0  0  0  0  0  0  0  0
   -0.5228   -2.6014    0.0618 C   0  0  0  0  0  0  0  0  0  0  0  0
   -1.5789   -2.7780   -0.5391 O   0  0  0  0  0  0  0  0  0  0  0  0
    0.1261   -3.6015    0.7776 N   0  0  0  0  0  0  0  0  0  0  0  0
   -0.3302   -4.9342    0.9203 C   0  0  0  0  0  0  0  0  0  0  0  0
   -1.6575   -5.3009    0.6911 C   0  0  0  0  0  0  0  0  0  0  0  0
   -2.0799   -6.6231    0.8398 C   0  0  0  0  0  0  0  0  0  0  0  0
   -1.1831   -7.6286    1.2206 C   0  0  0  0  0  0  0  0  0  0  0  0
   -1.6829   -9.0401    1.3809 C   0  0  0  0  0  0  0  0  0  0  0  0
   -3.0263   -9.1555    1.1564 F   0  0  0  0  0  0  0  0  0  0  0  0
   -1.0999   -9.9169    0.5196 F   0  0  0  0  0  0  0  0  0  0  0  0
   -1.4884   -9.5364    2.6329 F   0  0  0  0  0  0  0  0  0  0  0  0
    0.1498   -7.2656    1.4465 C   0  0  0  0  0  0  0  0  0  0  0  0
    1.3418   -8.4374    1.8845 Cl  0  0  0  0  0  0  0  0  0  0  0  0
    0.5713   -5.9275    1.3140 C   0  0  0  0  0  0  0  0  0  0  0  0
   -2.3859    1.0109    0.0449 H   0  0  0  0  0  0  0  0  0  0  0  0
   -2.5068   -0.5943    0.8164 H   0  0  0  0  0  0  0  0  0  0  0  0
   -2.4407   -0.4460   -0.9806 H   0  0  0  0  0  0  0  0  0  0  0  0
    2.1328    1.2848    0.0759 H   0  0  0  0  0  0  0  0  0  0  0  0
    3.4726   -1.0027    0.0262 H   0  0  0  0  0  0  0  0  0  0  0  0
    1.8552   -3.1818   -1.1240 H   0  0  0  0  0  0  0  0  0  0  0  0
    3.0055   -3.5403    0.1802 H   0  0  0  0  0  0  0  0  0  0  0  0
    4.4120   -4.9368   -1.1421 H   0  0  0  0  0  0  0  0  0  0  0  0
    6.0594   -5.1231   -2.9834 H   0  0  0  0  0  0  0  0  0  0  0  0
    5.2552   -1.3114   -4.3115 H   0  0  0  0  0  0  0  0  0  0  0  0
    3.5453   -0.9384   -2.5450 H   0  0  0  0  0  0  0  0  0  0  0  0
    1.0227   -3.3546    1.1774 H   0  0  0  0  0  0  0  0  0  0  0  0
   -2.4154   -4.5722    0.4208 H   0  0  0  0  0  0  0  0  0  0  0  0
   -3.1292   -6.8551    0.6565 H   0  0  0  0  0  0  0  0  0  0  0  0
    1.6163   -5.6846    1.4907 H   0  0  0  0  0  0  0  0  0  0  0  0
  1  2  1  0  0  0  0
  1 29  1  0  0  0  0
  1 30  1  0  0  0  0
  1 31  1  0  0  0  0
  2  3  1  0  0  0  0
  2 14  1  0  0  0  0
  3  4  2  0  0  0  0
  4  5  1  0  0  0  0
  4 32  1  0  0  0  0
  5  6  1  0  0  0  0
  5 14  2  0  0  0  0
  6  7  1  0  0  0  0
  6 33  1  0  0  0  0
  7  8  1  0  0  0  0
  7 34  1  0  0  0  0
  7 35  1  0  0  0  0
  8  9  1  0  0  0  0
  8 13  2  0  0  0  0
  9 10  2  0  0  0  0
  9 36  1  0  0  0  0
 10 11  1  0  0  0  0
 10 37  1  0  0  0  0
 11 12  2  0  0  0  0
 12 13  1  0  0  0  0
 12 38  1  0  0  0  0
 13 39  1  0  0  0  0
 14 15  1  0  0  0  0
 15 16  2  0  0  0  0
 15 17  1  0  0  0  0
 17 18  1  0  0  0  0
 17 40  1  0  0  0  0
 18 19  1  0  0  0  0
 18 28  2  0  0  0  0
 19 20  2  0  0  0  0
 19 41  1  0  0  0  0
 20 21  1  0  0  0  0
 20 42  1  0  0  0  0
 21 22  1  0  0  0  0
 21 26  2  0  0  0  0
 22 23  1  0  0  0  0
 22 24  1  0  0  0  0
 22 25  1  0  0  0  0
 26 27  1  0  0  0  0
 26 28  1  0  0  0  0
 28 43  1  0  0  0  0
M  END
$$$$
