CHEMBL184226
 OpenBabel04072215363D

 49 52  0  0  0  0  0  0  0  0999 V2000
   -2.3804    0.8912   -1.0807 C   0  0  0  0  0  0  0  0  0  0  0  0
   -1.1889    0.0455   -1.4270 C   0  0  0  0  0  0  0  0  0  0  0  0
   -0.1354    0.5927   -2.1722 C   0  0  0  0  0  0  0  0  0  0  0  0
    0.9886   -0.1748   -2.4799 C   0  0  0  0  0  0  0  0  0  0  0  0
    2.1290    0.3870   -3.2763 C   0  0  0  0  0  0  0  0  0  0  0  0
    1.0590   -1.4940   -2.0151 C   0  0  0  0  0  0  0  0  0  0  0  0
    0.0337   -2.0548   -1.2443 C   0  0  0  0  0  0  0  0  0  0  0  0
    0.1191   -3.3699   -0.7188 N   0  0  0  0  0  0  0  0  0  0  0  0
    1.3223   -4.0062   -0.4553 C   0  0  0  0  0  0  0  0  0  0  0  0
    2.4271   -3.4806   -0.5578 O   0  0  0  0  0  0  0  0  0  0  0  0
    1.1495   -5.3350   -0.0745 N   0  0  0  0  0  0  0  0  0  0  0  0
    2.2984   -6.1163    0.2157 C   0  0  0  0  0  0  0  0  0  0  0  0
    3.2872   -5.6484    1.0858 C   0  0  0  0  0  0  0  0  0  0  0  0
    4.4861   -6.3504    1.2544 C   0  0  0  0  0  0  0  0  0  0  0  0
    4.7558   -7.5049    0.5094 C   0  0  0  0  0  0  0  0  0  0  0  0
    6.1112   -8.0969    0.4278 C   0  0  0  0  0  0  0  0  0  0  0  0
    6.3003   -9.4956    0.2951 C   0  0  0  0  0  0  0  0  0  0  0  0
    7.5162  -10.0578   -0.1468 C   0  0  0  0  0  0  0  0  0  0  0  0
    8.5483   -9.2291   -0.5663 C   0  0  0  0  0  0  0  0  0  0  0  0
    8.3473   -7.8717   -0.4233 C   0  0  0  0  0  0  0  0  0  0  0  0
    7.2274   -7.3044    0.1858 C   0  0  0  0  0  0  0  0  0  0  0  0
    7.4394   -5.8293    0.1919 C   0  0  0  0  0  0  0  0  0  0  0  0
    8.2450   -5.6396   -0.9811 N   0  0  0  0  0  0  0  0  0  0  0  0
    8.9363   -6.8089   -1.2505 C   0  0  0  0  0  0  0  0  0  0  0  0
    9.7146   -7.0068   -2.1738 O   0  0  0  0  0  0  0  0  0  0  0  0
    3.7211   -7.9910   -0.3192 C   0  0  0  0  0  0  0  0  0  0  0  0
    2.4904   -7.3285   -0.4387 C   0  0  0  0  0  0  0  0  0  0  0  0
   -1.1061   -1.2876   -0.9822 C   0  0  0  0  0  0  0  0  0  0  0  0
   -2.2947    1.8973   -1.5080 H   0  0  0  0  0  0  0  0  0  0  0  0
   -2.4629    0.9987    0.0056 H   0  0  0  0  0  0  0  0  0  0  0  0
   -3.2955    0.4385   -1.4737 H   0  0  0  0  0  0  0  0  0  0  0  0
   -0.1892    1.6250   -2.5126 H   0  0  0  0  0  0  0  0  0  0  0  0
    1.9299    1.4133   -3.6001 H   0  0  0  0  0  0  0  0  0  0  0  0
    2.2969   -0.2204   -4.1717 H   0  0  0  0  0  0  0  0  0  0  0  0
    3.0423    0.3945   -2.6721 H   0  0  0  0  0  0  0  0  0  0  0  0
    1.9415   -2.0744   -2.2732 H   0  0  0  0  0  0  0  0  0  0  0  0
   -0.6861   -3.7259   -0.2251 H   0  0  0  0  0  0  0  0  0  0  0  0
    0.3980   -5.8060   -0.5577 H   0  0  0  0  0  0  0  0  0  0  0  0
    3.1551   -4.7023    1.6065 H   0  0  0  0  0  0  0  0  0  0  0  0
    5.2354   -5.9281    1.9197 H   0  0  0  0  0  0  0  0  0  0  0  0
    5.4575  -10.1699    0.4485 H   0  0  0  0  0  0  0  0  0  0  0  0
    7.6021  -11.1366   -0.2689 H   0  0  0  0  0  0  0  0  0  0  0  0
    9.4244   -9.6166   -1.0683 H   0  0  0  0  0  0  0  0  0  0  0  0
    8.0762   -5.5551    1.0463 H   0  0  0  0  0  0  0  0  0  0  0  0
    6.5658   -5.1849    0.1685 H   0  0  0  0  0  0  0  0  0  0  0  0
    7.7730   -5.2807   -1.8054 H   0  0  0  0  0  0  0  0  0  0  0  0
    3.8939   -8.8588   -0.9548 H   0  0  0  0  0  0  0  0  0  0  0  0
    1.7514   -7.7147   -1.1346 H   0  0  0  0  0  0  0  0  0  0  0  0
   -1.9221   -1.6985   -0.3940 H   0  0  0  0  0  0  0  0  0  0  0  0
  1  2  1  0  0  0  0
  1 29  1  0  0  0  0
  1 30  1  0  0  0  0
  1 31  1  0  0  0  0
  2  3  1  0  0  0  0
  2 28  2  0  0  0  0
  3  4  2  0  0  0  0
  3 32  1  0  0  0  0
  4  5  1  0  0  0  0
  4  6  1  0  0  0  0
  5 33  1  0  0  0  0
  5 34  1  0  0  0  0
  5 35  1  0  0  0  0
  6  7  2  0  0  0  0
  6 36  1  0  0  0  0
  7  8  1  0  0  0  0
  7 28  1  0  0  0  0
  8  9  1  0  0  0  0
  8 37  1  0  0  0  0
  9 10  2  0  0  0  0
  9 11  1  0  0  0  0
 11 12  1  0  0  0  0
 11 38  1  0  0  0  0
 12 13  1  0  0  0  0
 12 27  2  0  0  0  0
 13 14  2  0  0  0  0
 13 39  1  0  0  0  0
 14 15  1  0  0  0  0
 14 40  1  0  0  0  0
 15 16  1  0  0  0  0
 15 26  2  0  0  0  0
 16 17  1  0  0  0  0
 16 21  2  0  0  0  0
 17 18  2  0  0  0  0
 17 41  1  0  0  0  0
 18 19  1  0  0  0  0
 18 42  1  0  0  0  0
 19 20  2  0  0  0  0
 19 43  1  0  0  0  0
 20 21  1  0  0  0  0
 20 24  1  0  0  0  0
 21 22  1  0  0  0  0
 22 23  1  0  0  0  0
 22 44  1  0  0  0  0
 22 45  1  0  0  0  0
 23 24  1  0  0  0  0
 23 46  1  0  0  0  0
 24 25  2  0  0  0  0
 26 27  1  0  0  0  0
 26 47  1  0  0  0  0
 27 48  1  0  0  0  0
 28 49  1  0  0  0  0
M  END
$$$$
