CHEMBL205502
 OpenBabel04072215363D

 47 50  0  0  0  0  0  0  0  0999 V2000
    7.7369    9.7914   -5.5812 F   0  0  0  0  0  0  0  0  0  0  0  0
    8.1722    8.5071   -5.4821 C   0  0  0  0  0  0  0  0  0  0  0  0
    7.0643    7.7485   -5.2776 F   0  0  0  0  0  0  0  0  0  0  0  0
    8.9840    8.0636   -6.9865 Cl  0  0  0  0  0  0  0  0  0  0  0  0
    9.0351    8.4524   -4.3492 O   0  0  0  0  0  0  0  0  0  0  0  0
    9.2246    7.2575   -3.7192 C   0  0  0  0  0  0  0  0  0  0  0  0
    8.9915    5.9958   -4.2549 C   0  0  0  0  0  0  0  0  0  0  0  0
    9.2402    4.8440   -3.4944 C   0  0  0  0  0  0  0  0  0  0  0  0
    9.7125    4.9171   -2.1797 C   0  0  0  0  0  0  0  0  0  0  0  0
   10.0060    3.7922   -1.3826 N   0  0  0  0  0  0  0  0  0  0  0  0
    9.9830    2.4847   -1.7140 C   0  0  0  0  0  0  0  0  0  0  0  0
    9.8370    1.4384   -0.9308 N   0  0  0  0  0  0  0  0  0  0  0  0
    9.8990    0.3197   -1.7414 N   0  0  0  0  0  0  0  0  0  0  0  0
   10.1203    0.7504   -2.9645 C   0  0  0  0  0  0  0  0  0  0  0  0
   10.2864    0.0502   -4.2379 C   0  0  0  0  0  0  0  0  0  0  0  0
   10.5522    0.8039   -5.4029 C   0  0  0  0  0  0  0  0  0  0  0  0
   10.6997    0.1931   -6.6430 C   0  0  0  0  0  0  0  0  0  0  0  0
   10.5703   -1.1725   -6.7026 C   0  0  0  0  0  0  0  0  0  0  0  0
   10.3193   -1.9356   -5.6219 N   0  0  0  0  0  0  0  0  0  0  0  0
   10.1979   -1.3435   -4.3960 C   0  0  0  0  0  0  0  0  0  0  0  0
    9.8950   -2.3111   -3.2632 C   0  0  0  0  0  0  0  0  0  0  0  0
   10.4837   -3.7138   -3.5200 C   0  0  0  0  0  0  0  0  0  0  0  0
   10.1676   -4.8005   -2.5170 C   0  0  0  0  0  0  0  0  0  0  0  0
   10.1938   -6.1330   -2.9520 C   0  0  0  0  0  0  0  0  0  0  0  0
    9.9388   -7.1485   -2.0445 C   0  0  0  0  0  0  0  0  0  0  0  0
    9.6733   -6.9348   -0.7410 N   0  0  0  0  0  0  0  0  0  0  0  0
    9.6714   -5.6473   -0.3324 C   0  0  0  0  0  0  0  0  0  0  0  0
    9.9149   -4.5622   -1.1659 C   0  0  0  0  0  0  0  0  0  0  0  0
   10.1957    2.1206   -3.0132 O   0  0  0  0  0  0  0  0  0  0  0  0
    9.9720    6.1953   -1.6634 C   0  0  0  0  0  0  0  0  0  0  0  0
    9.7314    7.3485   -2.4226 C   0  0  0  0  0  0  0  0  0  0  0  0
    8.6152    5.8498   -5.2621 H   0  0  0  0  0  0  0  0  0  0  0  0
    9.0197    3.8891   -3.9610 H   0  0  0  0  0  0  0  0  0  0  0  0
    9.9522    3.9791   -0.3878 H   0  0  0  0  0  0  0  0  0  0  0  0
   10.6505    1.8863   -5.3553 H   0  0  0  0  0  0  0  0  0  0  0  0
   10.9060    0.7726   -7.5363 H   0  0  0  0  0  0  0  0  0  0  0  0
   10.6671   -1.7126   -7.6407 H   0  0  0  0  0  0  0  0  0  0  0  0
    8.8062   -2.3733   -3.1447 H   0  0  0  0  0  0  0  0  0  0  0  0
   10.3204   -1.9423   -2.3276 H   0  0  0  0  0  0  0  0  0  0  0  0
   11.5767   -3.6339   -3.5922 H   0  0  0  0  0  0  0  0  0  0  0  0
   10.1266   -4.0718   -4.4944 H   0  0  0  0  0  0  0  0  0  0  0  0
   10.4120   -6.3811   -3.9863 H   0  0  0  0  0  0  0  0  0  0  0  0
    9.9456   -8.1899   -2.3539 H   0  0  0  0  0  0  0  0  0  0  0  0
    9.4658   -5.5027    0.7244 H   0  0  0  0  0  0  0  0  0  0  0  0
    9.9088   -3.5632   -0.7455 H   0  0  0  0  0  0  0  0  0  0  0  0
   10.3686    6.3135   -0.6573 H   0  0  0  0  0  0  0  0  0  0  0  0
    9.9362    8.3254   -1.9887 H   0  0  0  0  0  0  0  0  0  0  0  0
  1  2  1  0  0  0  0
  2  3  1  0  0  0  0
  2  4  1  0  0  0  0
  2  5  1  0  0  0  0
  5  6  1  0  0  0  0
  6  7  1  0  0  0  0
  6 31  2  0  0  0  0
  7  8  2  0  0  0  0
  7 32  1  0  0  0  0
  8  9  1  0  0  0  0
  8 33  1  0  0  0  0
  9 10  1  0  0  0  0
  9 30  2  0  0  0  0
 10 11  1  0  0  0  0
 10 34  1  0  0  0  0
 11 12  2  0  0  0  0
 11 29  1  0  0  0  0
 12 13  1  0  0  0  0
 13 14  2  0  0  0  0
 14 15  1  0  0  0  0
 14 29  1  0  0  0  0
 15 16  1  0  0  0  0
 15 20  2  0  0  0  0
 16 17  2  0  0  0  0
 16 35  1  0  0  0  0
 17 18  1  0  0  0  0
 17 36  1  0  0  0  0
 18 19  2  0  0  0  0
 18 37  1  0  0  0  0
 19 20  1  0  0  0  0
 20 21  1  0  0  0  0
 21 22  1  0  0  0  0
 21 38  1  0  0  0  0
 21 39  1  0  0  0  0
 22 23  1  0  0  0  0
 22 40  1  0  0  0  0
 22 41  1  0  0  0  0
 23 24  1  0  0  0  0
 23 28  2  0  0  0  0
 24 25  2  0  0  0  0
 24 42  1  0  0  0  0
 25 26  1  0  0  0  0
 25 43  1  0  0  0  0
 26 27  2  0  0  0  0
 27 28  1  0  0  0  0
 27 44  1  0  0  0  0
 28 45  1  0  0  0  0
 30 31  1  0  0  0  0
 30 46  1  0  0  0  0
 31 47  1  0  0  0  0
M  END
$$$$
