CHEMBL236419
 OpenBabel04072215363D

 42 44  0  0  0  0  0  0  0  0999 V2000
    2.1671    0.8195    0.6807 O   0  0  0  0  0  0  0  0  0  0  0  0
    2.1180   -0.1136   -0.1098 C   0  0  0  0  0  0  0  0  0  0  0  0
    1.3168   -0.1243   -1.2492 N   0  0  0  0  0  0  0  0  0  0  0  0
    0.3767    0.8660   -1.6365 C   0  0  0  0  0  0  0  0  0  0  0  0
    0.0760    1.9815   -0.8542 C   0  0  0  0  0  0  0  0  0  0  0  0
   -0.8740    2.9147   -1.2681 C   0  0  0  0  0  0  0  0  0  0  0  0
   -1.5365    2.7539   -2.4804 C   0  0  0  0  0  0  0  0  0  0  0  0
   -1.2441    1.6604   -3.2921 C   0  0  0  0  0  0  0  0  0  0  0  0
   -1.8509    1.3924   -4.4888 O   0  0  0  0  0  0  0  0  0  0  0  0
   -2.2979    2.5110   -5.2535 C   0  0  0  0  0  0  0  0  0  0  0  0
   -3.3041    3.1574   -4.6115 F   0  0  0  0  0  0  0  0  0  0  0  0
   -1.2762    3.3894   -5.4247 F   0  0  0  0  0  0  0  0  0  0  0  0
   -2.8815    1.9634   -6.8284 Cl  0  0  0  0  0  0  0  0  0  0  0  0
   -0.3016    0.7103   -2.8570 C   0  0  0  0  0  0  0  0  0  0  0  0
    2.9192   -1.3079    0.0943 C   0  0  0  0  0  0  0  0  0  0  0  0
    2.7623   -2.5803   -0.4373 C   0  0  0  0  0  0  0  0  0  0  0  0
    3.7673   -3.3654    0.1431 C   0  0  0  0  0  0  0  0  0  0  0  0
    4.5286   -2.6662    0.9775 N   0  0  0  0  0  0  0  0  0  0  0  0
    3.9998   -1.4193    0.9565 N   0  0  0  0  0  0  0  0  0  0  0  0
    4.5863   -0.4367    1.8671 C   0  0  0  0  0  0  0  0  0  0  0  0
    6.0995   -0.2704    1.6682 C   0  0  0  0  0  0  0  0  0  0  0  0
    6.8404    0.6915    2.5762 C   0  0  0  0  0  0  0  0  0  0  0  0
    6.2580    1.4041    3.6273 C   0  0  0  0  0  0  0  0  0  0  0  0
    7.0636    2.2341    4.4016 C   0  0  0  0  0  0  0  0  0  0  0  0
    8.3882    2.4053    4.2060 N   0  0  0  0  0  0  0  0  0  0  0  0
    8.9362    1.7125    3.1886 C   0  0  0  0  0  0  0  0  0  0  0  0
    8.2173    0.8603    2.3625 C   0  0  0  0  0  0  0  0  0  0  0  0
    1.4336   -0.8991   -1.8864 H   0  0  0  0  0  0  0  0  0  0  0  0
    0.5521    2.1632    0.1025 H   0  0  0  0  0  0  0  0  0  0  0  0
   -1.1017    3.7656   -0.6306 H   0  0  0  0  0  0  0  0  0  0  0  0
   -2.2870    3.4939   -2.7371 H   0  0  0  0  0  0  0  0  0  0  0  0
   -0.1022   -0.1503   -3.4917 H   0  0  0  0  0  0  0  0  0  0  0  0
    1.9953   -2.9213   -1.1170 H   0  0  0  0  0  0  0  0  0  0  0  0
    3.9698   -4.4201    0.0051 H   0  0  0  0  0  0  0  0  0  0  0  0
    4.3598   -0.7943    2.8790 H   0  0  0  0  0  0  0  0  0  0  0  0
    4.0976    0.5271    1.7375 H   0  0  0  0  0  0  0  0  0  0  0  0
    6.2747    0.0485    0.6320 H   0  0  0  0  0  0  0  0  0  0  0  0
    6.5846   -1.2478    1.7875 H   0  0  0  0  0  0  0  0  0  0  0  0
    5.2033    1.3329    3.8668 H   0  0  0  0  0  0  0  0  0  0  0  0
    6.6488    2.8007    5.2310 H   0  0  0  0  0  0  0  0  0  0  0  0
   10.0035    1.8589    3.0478 H   0  0  0  0  0  0  0  0  0  0  0  0
    8.7291    0.3298    1.5674 H   0  0  0  0  0  0  0  0  0  0  0  0
  1  2  2  0  0  0  0
  2  3  1  0  0  0  0
  2 15  1  0  0  0  0
  3  4  1  0  0  0  0
  3 28  1  0  0  0  0
  4  5  1  0  0  0  0
  4 14  2  0  0  0  0
  5  6  2  0  0  0  0
  5 29  1  0  0  0  0
  6  7  1  0  0  0  0
  6 30  1  0  0  0  0
  7  8  2  0  0  0  0
  7 31  1  0  0  0  0
  8  9  1  0  0  0  0
  8 14  1  0  0  0  0
  9 10  1  0  0  0  0
 10 11  1  0  0  0  0
 10 12  1  0  0  0  0
 10 13  1  0  0  0  0
 14 32  1  0  0  0  0
 15 16  2  0  0  0  0
 15 19  1  0  0  0  0
 16 17  1  0  0  0  0
 16 33  1  0  0  0  0
 17 18  2  0  0  0  0
 17 34  1  0  0  0  0
 18 19  1  0  0  0  0
 19 20  1  0  0  0  0
 20 21  1  0  0  0  0
 20 35  1  0  0  0  0
 20 36  1  0  0  0  0
 21 22  1  0  0  0  0
 21 37  1  0  0  0  0
 21 38  1  0  0  0  0
 22 23  1  0  0  0  0
 22 27  2  0  0  0  0
 23 24  2  0  0  0  0
 23 39  1  0  0  0  0
 24 25  1  0  0  0  0
 24 40  1  0  0  0  0
 25 26  2  0  0  0  0
 26 27  1  0  0  0  0
 26 41  1  0  0  0  0
 27 42  1  0  0  0  0
M  END
$$$$
