CHEMBL470440
 OpenBabel04072215383D

 36 38  0  0  0  0  0  0  0  0999 V2000
    1.1286    0.6164    0.2644 O   0  0  0  0  0  0  0  0  0  0  0  0
    2.2191    0.0857    0.0697 C   0  0  0  0  0  0  0  0  0  0  0  0
    2.7822   -0.8962    0.8756 N   0  0  0  0  0  0  0  0  0  0  0  0
    2.1914   -1.4634    2.0225 C   0  0  0  0  0  0  0  0  0  0  0  0
    0.8288   -1.3355    2.3149 C   0  0  0  0  0  0  0  0  0  0  0  0
    0.2918   -1.8672    3.4885 C   0  0  0  0  0  0  0  0  0  0  0  0
    1.1132   -2.5425    4.3910 C   0  0  0  0  0  0  0  0  0  0  0  0
    0.3881   -3.1421    5.8373 Cl  0  0  0  0  0  0  0  0  0  0  0  0
    2.4699   -2.7019    4.0968 C   0  0  0  0  0  0  0  0  0  0  0  0
    3.5492   -3.5215    5.1706 Cl  0  0  0  0  0  0  0  0  0  0  0  0
    3.0049   -2.1771    2.9088 C   0  0  0  0  0  0  0  0  0  0  0  0
    3.0739    0.5170   -1.0530 C   0  0  0  0  0  0  0  0  0  0  0  0
    4.2202   -0.1316   -1.3227 N   0  0  0  0  0  0  0  0  0  0  0  0
    4.9187    0.5535   -2.6608 S   0  0  0  0  0  0  0  0  0  0  0  0
    3.7432    1.7726   -2.8870 C   0  0  0  0  0  0  0  0  0  0  0  0
    2.7843    1.6522   -1.9080 C   0  0  0  0  0  0  0  0  0  0  0  0
    1.6886    2.4517   -1.7629 N   0  0  0  0  0  0  0  0  0  0  0  0
    1.6621    3.8647   -2.0996 C   0  0  0  0  0  0  0  0  0  0  0  0
    1.4359    4.7117   -0.8674 C   0  0  0  0  0  0  0  0  0  0  0  0
    2.3387    4.6903    0.2020 C   0  0  0  0  0  0  0  0  0  0  0  0
    2.1149    5.5305    1.2834 C   0  0  0  0  0  0  0  0  0  0  0  0
    1.0703    6.3802    1.3717 N   0  0  0  0  0  0  0  0  0  0  0  0
    0.2050    6.3825    0.3366 C   0  0  0  0  0  0  0  0  0  0  0  0
    0.3413    5.5791   -0.7865 C   0  0  0  0  0  0  0  0  0  0  0  0
    3.7444   -1.1317    0.6488 H   0  0  0  0  0  0  0  0  0  0  0  0
    0.1436   -0.8346    1.6376 H   0  0  0  0  0  0  0  0  0  0  0  0
   -0.7696   -1.7405    3.6882 H   0  0  0  0  0  0  0  0  0  0  0  0
    4.0648   -2.3024    2.7048 H   0  0  0  0  0  0  0  0  0  0  0  0
    3.8075    2.4739   -3.7054 H   0  0  0  0  0  0  0  0  0  0  0  0
    1.0194    2.2083   -1.0211 H   0  0  0  0  0  0  0  0  0  0  0  0
    0.8485    4.0254   -2.8161 H   0  0  0  0  0  0  0  0  0  0  0  0
    2.5827    4.2057   -2.5865 H   0  0  0  0  0  0  0  0  0  0  0  0
    3.2036    4.0359    0.1959 H   0  0  0  0  0  0  0  0  0  0  0  0
    2.7954    5.5466    2.1305 H   0  0  0  0  0  0  0  0  0  0  0  0
   -0.6272    7.0746    0.4325 H   0  0  0  0  0  0  0  0  0  0  0  0
   -0.3941    5.6415   -1.5816 H   0  0  0  0  0  0  0  0  0  0  0  0
  1  2  2  0  0  0  0
  2  3  1  0  0  0  0
  2 12  1  0  0  0  0
  3  4  1  0  0  0  0
  3 25  1  0  0  0  0
  4  5  1  0  0  0  0
  4 11  2  0  0  0  0
  5  6  2  0  0  0  0
  5 26  1  0  0  0  0
  6  7  1  0  0  0  0
  6 27  1  0  0  0  0
  7  8  1  0  0  0  0
  7  9  2  0  0  0  0
  9 10  1  0  0  0  0
  9 11  1  0  0  0  0
 11 28  1  0  0  0  0
 12 13  2  0  0  0  0
 12 16  1  0  0  0  0
 13 14  1  0  0  0  0
 14 15  1  0  0  0  0
 15 16  2  0  0  0  0
 15 29  1  0  0  0  0
 16 17  1  0  0  0  0
 17 18  1  0  0  0  0
 17 30  1  0  0  0  0
 18 19  1  0  0  0  0
 18 31  1  0  0  0  0
 18 32  1  0  0  0  0
 19 20  1  0  0  0  0
 19 24  2  0  0  0  0
 20 21  2  0  0  0  0
 20 33  1  0  0  0  0
 21 22  1  0  0  0  0
 21 34  1  0  0  0  0
 22 23  2  0  0  0  0
 23 24  1  0  0  0  0
 23 35  1  0  0  0  0
 24 36  1  0  0  0  0
M  END
$$$$
