CHEMBL3979317
 OpenBabel04072215373D

 73 76  0  0  1  0  0  0  0  0999 V2000
    9.0847   -2.0036   -8.0796 C   0  0  0  0  0  0  0  0  0  0  0  0
    7.8483   -1.1268   -8.1980 C   0  0  0  0  0  0  0  0  0  0  0  0
    7.3839   -0.5054   -6.8786 C   0  0  0  0  0  0  0  0  0  0  0  0
    8.3848    0.4481   -6.2085 C   0  0  0  0  0  0  0  0  0  0  0  0
    7.7755    1.0349   -4.9244 C   0  0  0  0  0  0  0  0  0  0  0  0
    8.7013    2.0109   -4.1824 C   0  0  0  0  0  0  0  0  0  0  0  0
    8.0047    2.5475   -2.9224 C   0  0  0  0  0  0  0  0  0  0  0  0
    8.8531    3.4766   -2.0346 C   0  0  0  0  0  0  0  0  0  0  0  0
    9.3890    4.7020   -2.6350 N   0  0  0  0  0  0  0  0  0  0  0  0
   10.2058    5.4719   -1.6682 C   0  0  0  0  0  0  0  0  0  0  0  0
    9.3776    6.3112   -0.6890 C   0  0  0  0  0  0  0  0  0  0  0  0
    8.5221    7.2472   -1.3443 O   0  0  0  0  0  0  0  0  0  0  0  0
    7.6636    6.6431   -2.3240 C   0  0  3  0  0  0  0  0  0  0  0  0
    6.2895    6.2086   -1.7630 C   0  0  0  0  0  0  0  0  0  0  0  0
    6.2975    5.2471   -0.7125 O   0  0  0  0  0  0  0  0  0  0  0  0
    6.3777    5.6159    0.6050 C   0  0  0  0  0  0  0  0  0  0  0  0
    7.0062    4.6166    1.3801 C   0  0  0  0  0  0  0  0  0  0  0  0
    7.3633    4.8018    2.7178 C   0  0  0  0  0  0  0  0  0  0  0  0
    8.1396    3.9137    3.3366 N   0  0  0  0  0  0  0  0  0  0  0  0
    8.4973    4.2058    4.5978 C   0  0  0  0  0  0  0  0  0  0  0  0
    8.0849    5.2563    5.3135 N   0  0  0  0  0  0  0  0  0  0  0  0
    7.2672    6.1175    4.6955 C   0  0  0  0  0  0  0  0  0  0  0  0
    6.7700    7.2500    5.3895 N   0  0  0  0  0  0  0  0  0  0  0  0
    7.3519    8.0414    6.3894 C   0  0  0  0  0  0  0  0  0  0  0  0
    6.6140    9.1243    6.9002 C   0  0  0  0  0  0  0  0  0  0  0  0
    7.2026   10.0559    7.7583 C   0  0  0  0  0  0  0  0  0  0  0  0
    8.5454    9.9265    8.1172 C   0  0  0  0  0  0  0  0  0  0  0  0
    9.2301   11.1449    9.1341 Cl  0  0  0  0  0  0  0  0  0  0  0  0
    9.2855    8.8446    7.6355 C   0  0  0  0  0  0  0  0  0  0  0  0
   10.9500    8.6088    8.0404 Cl  0  0  0  0  0  0  0  0  0  0  0  0
    8.6891    7.9236    6.7691 C   0  0  0  0  0  0  0  0  0  0  0  0
    6.9134    5.9568    3.3434 C   0  0  0  0  0  0  0  0  0  0  0  0
    6.2157    6.9350    2.5974 C   0  0  0  0  0  0  0  0  0  0  0  0
    6.0083    6.8148    1.2295 C   0  0  0  0  0  0  0  0  0  0  0  0
    5.4350    7.8352    0.5096 O   0  0  0  0  0  0  0  0  0  0  0  0
    5.5323    9.1394    1.0899 C   0  0  0  0  0  0  0  0  0  0  0  0
    8.4027    5.6173   -3.2329 C   0  0  0  0  0  0  0  0  0  0  0  0
    9.2444   -2.5520   -9.0141 H   0  0  0  0  0  0  0  0  0  0  0  0
    8.9784   -2.7368   -7.2741 H   0  0  0  0  0  0  0  0  0  0  0  0
    9.9797   -1.4034   -7.8910 H   0  0  0  0  0  0  0  0  0  0  0  0
    7.0283   -1.7464   -8.5852 H   0  0  0  0  0  0  0  0  0  0  0  0
    8.0262   -0.3435   -8.9429 H   0  0  0  0  0  0  0  0  0  0  0  0
    7.1224   -1.3089   -6.1789 H   0  0  0  0  0  0  0  0  0  0  0  0
    6.4558    0.0449   -7.0805 H   0  0  0  0  0  0  0  0  0  0  0  0
    8.6438    1.2582   -6.9000 H   0  0  0  0  0  0  0  0  0  0  0  0
    9.3094   -0.0859   -5.9636 H   0  0  0  0  0  0  0  0  0  0  0  0
    7.5124    0.2084   -4.2507 H   0  0  0  0  0  0  0  0  0  0  0  0
    6.8402    1.5483   -5.1759 H   0  0  0  0  0  0  0  0  0  0  0  0
    8.9686    2.8419   -4.8464 H   0  0  0  0  0  0  0  0  0  0  0  0
    9.6289    1.4985   -3.9035 H   0  0  0  0  0  0  0  0  0  0  0  0
    7.7205    1.6856   -2.3005 H   0  0  0  0  0  0  0  0  0  0  0  0
    7.0650    3.0402   -3.1939 H   0  0  0  0  0  0  0  0  0  0  0  0
    9.7008    2.8786   -1.6762 H   0  0  0  0  0  0  0  0  0  0  0  0
    8.2579    3.7109   -1.1518 H   0  0  0  0  0  0  0  0  0  0  0  0
   10.8541    6.1492   -2.2360 H   0  0  0  0  0  0  0  0  0  0  0  0
   10.8705    4.8054   -1.1056 H   0  0  0  0  0  0  0  0  0  0  0  0
   10.0350    6.8814   -0.0246 H   0  0  0  0  0  0  0  0  0  0  0  0
    8.8020    5.6563   -0.0479 H   0  0  0  0  0  0  0  0  0  0  0  0
    7.4157    7.4733   -3.0010 H   0  0  0  0  0  0  0  0  0  0  0  0
    5.7342    5.7404   -2.5906 H   0  0  0  0  0  0  0  0  0  0  0  0
    5.6919    7.0886   -1.5210 H   0  0  0  0  0  0  0  0  0  0  0  0
    7.3258    3.6988    0.9009 H   0  0  0  0  0  0  0  0  0  0  0  0
    9.1924    3.5282    5.0764 H   0  0  0  0  0  0  0  0  0  0  0  0
    5.7572    7.2841    5.3554 H   0  0  0  0  0  0  0  0  0  0  0  0
    5.5753    9.2693    6.6093 H   0  0  0  0  0  0  0  0  0  0  0  0
    6.6144   10.8965    8.1230 H   0  0  0  0  0  0  0  0  0  0  0  0
    9.2997    7.1135    6.3737 H   0  0  0  0  0  0  0  0  0  0  0  0
    5.9019    7.8329    3.1216 H   0  0  0  0  0  0  0  0  0  0  0  0
    5.2837    9.8857    0.3381 H   0  0  0  0  0  0  0  0  0  0  0  0
    6.5529    9.3498    1.4460 H   0  0  0  0  0  0  0  0  0  0  0  0
    4.8139    9.2438    1.9135 H   0  0  0  0  0  0  0  0  0  0  0  0
    8.9978    6.2274   -3.9287 H   0  0  0  0  0  0  0  0  0  0  0  0
    7.6967    5.0919   -3.8852 H   0  0  0  0  0  0  0  0  0  0  0  0
  1  2  1  0  0  0  0
  1 38  1  0  0  0  0
  1 39  1  0  0  0  0
  1 40  1  0  0  0  0
  2  3  1  0  0  0  0
  2 41  1  0  0  0  0
  2 42  1  0  0  0  0
  3  4  1  0  0  0  0
  3 43  1  0  0  0  0
  3 44  1  0  0  0  0
  4  5  1  0  0  0  0
  4 45  1  0  0  0  0
  4 46  1  0  0  0  0
  5  6  1  0  0  0  0
  5 47  1  0  0  0  0
  5 48  1  0  0  0  0
  6  7  1  0  0  0  0
  6 49  1  0  0  0  0
  6 50  1  0  0  0  0
  7  8  1  0  0  0  0
  7 51  1  0  0  0  0
  7 52  1  0  0  0  0
  8  9  1  0  0  0  0
  8 53  1  0  0  0  0
  8 54  1  0  0  0  0
  9 10  1  0  0  0  0
  9 37  1  0  0  0  0
 10 11  1  0  0  0  0
 10 55  1  0  0  0  0
 10 56  1  0  0  0  0
 11 12  1  0  0  0  0
 11 57  1  0  0  0  0
 11 58  1  0  0  0  0
 12 13  1  0  0  0  0
 13 14  1  0  0  0  0
 13 37  1  0  0  0  0
 13 59  1  0  0  0  0
 14 15  1  0  0  0  0
 14 60  1  0  0  0  0
 14 61  1  0  0  0  0
 15 16  1  0  0  0  0
 16 17  1  0  0  0  0
 16 34  2  0  0  0  0
 17 18  2  0  0  0  0
 17 62  1  0  0  0  0
 18 19  1  0  0  0  0
 18 32  1  0  0  0  0
 19 20  2  0  0  0  0
 20 21  1  0  0  0  0
 20 63  1  0  0  0  0
 21 22  2  0  0  0  0
 22 23  1  0  0  0  0
 22 32  1  0  0  0  0
 23 24  1  0  0  0  0
 23 64  1  0  0  0  0
 24 25  1  0  0  0  0
 24 31  2  0  0  0  0
 25 26  2  0  0  0  0
 25 65  1  0  0  0  0
 26 27  1  0  0  0  0
 26 66  1  0  0  0  0
 27 28  1  0  0  0  0
 27 29  2  0  0  0  0
 29 30  1  0  0  0  0
 29 31  1  0  0  0  0
 31 67  1  0  0  0  0
 32 33  2  0  0  0  0
 33 34  1  0  0  0  0
 33 68  1  0  0  0  0
 34 35  1  0  0  0  0
 35 36  1  0  0  0  0
 36 69  1  0  0  0  0
 36 70  1  0  0  0  0
 36 71  1  0  0  0  0
 37 72  1  0  0  0  0
 37 73  1  0  0  0  0
M  END
$$$$
