CHEMBL255547
 OpenBabel04072215363D

 67 72  0  0  0  0  0  0  0  0999 V2000
    3.5547   -0.8919   -0.3231 C   0  0  0  0  0  0  0  0  0  0  0  0
    2.3396   -0.0262    0.0171 C   0  0  0  0  0  0  0  0  0  0  0  0
    1.1554   -0.8307    0.5518 C   0  0  0  0  0  0  0  0  0  0  0  0
    2.6707    1.1552    0.9038 C   0  0  0  0  0  0  0  0  0  0  0  0
    3.2933    1.1369    2.2070 C   0  0  0  0  0  0  0  0  0  0  0  0
    3.7185    0.0064    3.0957 C   0  0  0  0  0  0  0  0  0  0  0  0
    3.4659   -1.2721    2.8859 N   0  0  0  0  0  0  0  0  0  0  0  0
    3.9784   -1.9770    3.9549 N   0  0  0  0  0  0  0  0  0  0  0  0
    4.5211   -1.0841    4.7544 C   0  0  0  0  0  0  0  0  0  0  0  0
    5.1965   -1.2893    6.0730 C   0  0  0  0  0  0  0  0  0  0  0  0
    4.4286   -0.7906    7.2364 N   0  0  0  0  0  0  0  0  0  0  0  0
    5.1769   -0.9865    8.4989 C   0  0  0  0  0  0  0  0  0  0  0  0
    5.2471   -2.4524    8.9631 C   0  0  0  0  0  0  0  0  0  0  0  0
    3.9415   -3.0243    9.0935 O   0  0  0  0  0  0  0  0  0  0  0  0
    3.1804   -2.9034    7.8853 C   0  0  0  0  0  0  0  0  0  0  0  0
    3.1113   -1.4477    7.3937 C   0  0  0  0  0  0  0  0  0  0  0  0
    4.4079    0.1929    4.2773 O   0  0  0  0  0  0  0  0  0  0  0  0
    3.4709    2.4450    2.5994 C   0  0  0  0  0  0  0  0  0  0  0  0
    2.9577    3.2566    1.6354 N   0  0  0  0  0  0  0  0  0  0  0  0
    2.9621    4.5935    1.6939 N   0  0  0  0  0  0  0  0  0  0  0  0
    2.4414    5.1621    0.6545 C   0  0  0  0  0  0  0  0  0  0  0  0
    1.9036    4.5383   -0.4370 N   0  0  0  0  0  0  0  0  0  0  0  0
    1.8586    3.2371   -0.4912 C   0  0  0  0  0  0  0  0  0  0  0  0
    1.2337    2.6108   -1.5489 N   0  0  0  0  0  0  0  0  0  0  0  0
    1.0280    3.1178   -2.8475 C   0  0  0  0  0  0  0  0  0  0  0  0
    1.9240    3.9942   -3.4694 C   0  0  0  0  0  0  0  0  0  0  0  0
    1.7217    4.4339   -4.7979 C   0  0  0  0  0  0  0  0  0  0  0  0
    2.7731    5.2876   -5.4222 C   0  0  0  0  0  0  0  0  0  0  0  0
    3.7564    5.6046   -4.7590 O   0  0  0  0  0  0  0  0  0  0  0  0
    2.6119    5.6666   -6.7429 N   0  0  0  0  0  0  0  0  0  0  0  0
    3.6171    6.4247   -7.4191 C   0  0  0  0  0  0  0  0  0  0  0  0
    3.5686    7.9288   -7.3857 C   0  0  0  0  0  0  0  0  0  0  0  0
    3.3280    7.2006   -8.6723 C   0  0  0  0  0  0  0  0  0  0  0  0
    0.5772    4.0139   -5.4786 C   0  0  0  0  0  0  0  0  0  0  0  0
    0.3402    4.3982   -6.7411 F   0  0  0  0  0  0  0  0  0  0  0  0
   -0.3415    3.1635   -4.8705 C   0  0  0  0  0  0  0  0  0  0  0  0
   -0.1034    2.7189   -3.5749 C   0  0  0  0  0  0  0  0  0  0  0  0
   -0.9815    1.8765   -3.0074 F   0  0  0  0  0  0  0  0  0  0  0  0
    2.4428    2.5080    0.6151 C   0  0  0  0  0  0  0  0  0  0  0  0
    3.2591   -1.7612   -0.9201 H   0  0  0  0  0  0  0  0  0  0  0  0
    4.0889   -1.2597    0.5529 H   0  0  0  0  0  0  0  0  0  0  0  0
    4.2743   -0.3142   -0.9154 H   0  0  0  0  0  0  0  0  0  0  0  0
    2.0160    0.3508   -0.9569 H   0  0  0  0  0  0  0  0  0  0  0  0
    1.3283   -1.2198    1.5575 H   0  0  0  0  0  0  0  0  0  0  0  0
    0.9289   -1.6779   -0.1040 H   0  0  0  0  0  0  0  0  0  0  0  0
    0.2592   -0.2004    0.5981 H   0  0  0  0  0  0  0  0  0  0  0  0
    6.1556   -0.7565    6.0326 H   0  0  0  0  0  0  0  0  0  0  0  0
    5.4374   -2.3540    6.1729 H   0  0  0  0  0  0  0  0  0  0  0  0
    4.6602   -0.4080    9.2766 H   0  0  0  0  0  0  0  0  0  0  0  0
    6.1839   -0.5608    8.4232 H   0  0  0  0  0  0  0  0  0  0  0  0
    5.7207   -2.4993    9.9494 H   0  0  0  0  0  0  0  0  0  0  0  0
    5.8498   -3.0677    8.2858 H   0  0  0  0  0  0  0  0  0  0  0  0
    2.1675   -3.2536    8.1106 H   0  0  0  0  0  0  0  0  0  0  0  0
    3.5967   -3.5703    7.1225 H   0  0  0  0  0  0  0  0  0  0  0  0
    2.5531   -0.8644    8.1383 H   0  0  0  0  0  0  0  0  0  0  0  0
    2.5203   -1.3857    6.4737 H   0  0  0  0  0  0  0  0  0  0  0  0
    3.9057    2.8699    3.4934 H   0  0  0  0  0  0  0  0  0  0  0  0
    2.4053    6.2644    0.6401 H   0  0  0  0  0  0  0  0  0  0  0  0
    0.6173    1.8438   -1.3047 H   0  0  0  0  0  0  0  0  0  0  0  0
    2.8218    4.3150   -2.9420 H   0  0  0  0  0  0  0  0  0  0  0  0
    1.7965    5.3615   -7.2650 H   0  0  0  0  0  0  0  0  0  0  0  0
    4.6034    5.9677   -7.3542 H   0  0  0  0  0  0  0  0  0  0  0  0
    4.5084    8.4482   -7.2453 H   0  0  0  0  0  0  0  0  0  0  0  0
    2.7252    8.3997   -6.8964 H   0  0  0  0  0  0  0  0  0  0  0  0
    4.1059    7.2524   -9.4288 H   0  0  0  0  0  0  0  0  0  0  0  0
    2.3215    7.2008   -9.0739 H   0  0  0  0  0  0  0  0  0  0  0  0
   -1.2261    2.8360   -5.4075 H   0  0  0  0  0  0  0  0  0  0  0  0
  1  2  1  0  0  0  0
  1 40  1  0  0  0  0
  1 41  1  0  0  0  0
  1 42  1  0  0  0  0
  2  3  1  0  0  0  0
  2  4  1  0  0  0  0
  2 43  1  0  0  0  0
  3 44  1  0  0  0  0
  3 45  1  0  0  0  0
  3 46  1  0  0  0  0
  4  5  1  0  0  0  0
  4 39  2  0  0  0  0
  5  6  1  0  0  0  0
  5 18  2  0  0  0  0
  6  7  2  0  0  0  0
  6 17  1  0  0  0  0
  7  8  1  0  0  0  0
  8  9  2  0  0  0  0
  9 10  1  0  0  0  0
  9 17  1  0  0  0  0
 10 11  1  0  0  0  0
 10 47  1  0  0  0  0
 10 48  1  0  0  0  0
 11 12  1  0  0  0  0
 11 16  1  0  0  0  0
 12 13  1  0  0  0  0
 12 49  1  0  0  0  0
 12 50  1  0  0  0  0
 13 14  1  0  0  0  0
 13 51  1  0  0  0  0
 13 52  1  0  0  0  0
 14 15  1  0  0  0  0
 15 16  1  0  0  0  0
 15 53  1  0  0  0  0
 15 54  1  0  0  0  0
 16 55  1  0  0  0  0
 16 56  1  0  0  0  0
 18 19  1  0  0  0  0
 18 57  1  0  0  0  0
 19 20  1  0  0  0  0
 19 39  1  0  0  0  0
 20 21  2  0  0  0  0
 21 22  1  0  0  0  0
 21 58  1  0  0  0  0
 22 23  2  0  0  0  0
 23 24  1  0  0  0  0
 23 39  1  0  0  0  0
 24 25  1  0  0  0  0
 24 59  1  0  0  0  0
 25 26  1  0  0  0  0
 25 37  2  0  0  0  0
 26 27  2  0  0  0  0
 26 60  1  0  0  0  0
 27 28  1  0  0  0  0
 27 34  1  0  0  0  0
 28 29  2  0  0  0  0
 28 30  1  0  0  0  0
 30 31  1  0  0  0  0
 30 61  1  0  0  0  0
 31 32  1  0  0  0  0
 31 33  1  0  0  0  0
 31 62  1  0  0  0  0
 32 33  1  0  0  0  0
 32 63  1  0  0  0  0
 32 64  1  0  0  0  0
 33 65  1  0  0  0  0
 33 66  1  0  0  0  0
 34 35  1  0  0  0  0
 34 36  2  0  0  0  0
 36 37  1  0  0  0  0
 36 67  1  0  0  0  0
 37 38  1  0  0  0  0
M  END
$$$$
