CHEMBL3527569
 OpenBabel04072215363D

 50 53  0  0  1  0  0  0  0  0999 V2000
    2.4242   -0.8984    2.6295 C   0  0  0  0  0  0  0  0  0  0  0  0
    3.7298   -0.8084    1.9330 C   0  0  0  0  0  0  0  0  0  0  0  0
    4.6072   -1.7938    1.5299 C   0  0  0  0  0  0  0  0  0  0  0  0
    5.5820   -1.1883    0.6900 C   0  0  0  0  0  0  0  0  0  0  0  0
    6.6136   -1.6812   -0.1274 C   0  0  0  0  0  0  0  0  0  0  0  0
    6.8538   -3.0000   -0.1960 F   0  0  0  0  0  0  0  0  0  0  0  0
    7.3208   -0.7947   -0.9435 C   0  0  0  0  0  0  0  0  0  0  0  0
    8.1529   -1.3754   -1.9283 O   0  0  0  0  0  0  0  0  0  0  0  0
    9.3112   -0.7498   -2.3430 C   0  0  0  0  0  0  0  0  0  0  0  0
   10.0024    0.0739   -1.6198 N   0  0  0  0  0  0  0  0  0  0  0  0
   11.1199    0.6117   -2.2080 C   0  0  0  0  0  0  0  0  0  0  0  0
   11.5386    0.4116   -3.4189 N   0  0  0  0  0  0  0  0  0  0  0  0
   10.7790   -0.4379   -4.1322 N   0  0  0  0  0  0  0  0  0  0  0  0
   10.9905   -0.7718   -5.4304 C   0  0  0  0  0  0  0  0  0  0  0  0
   10.0037   -1.6568   -5.8197 C   0  0  0  0  0  0  0  0  0  0  0  0
    9.8739   -2.2033   -7.0613 O   0  0  0  0  0  0  0  0  0  0  0  0
   10.8480   -1.7170   -8.0056 C   0  0  0  0  0  0  0  0  0  0  0  0
   10.6469   -2.2787   -9.4227 C   0  0  1  0  0  0  0  0  0  0  0  0
    9.2768   -1.8770   -9.9577 C   0  0  0  0  0  0  0  0  0  0  0  0
   11.6947   -1.7422  -10.2403 O   0  0  0  0  0  0  0  0  0  0  0  0
   11.8297   -2.2087  -11.7904 S   0  0  0  0  0  0  0  0  0  0  0  0
   11.9843   -3.6431  -11.8193 O   0  0  0  0  0  0  0  0  0  0  0  0
   10.8345   -1.5256  -12.5883 O   0  0  0  0  0  0  0  0  0  0  0  0
   13.2646   -1.6158  -12.2098 O   0  0  0  0  0  0  0  0  0  0  0  0
    9.1514   -1.8729   -4.6839 C   0  0  0  0  0  0  0  0  0  0  0  0
    7.9434   -2.7353   -4.5634 C   0  0  0  0  0  0  0  0  0  0  0  0
    9.6713   -1.0741   -3.6747 C   0  0  0  0  0  0  0  0  0  0  0  0
    7.0525    0.5743   -0.9263 C   0  0  0  0  0  0  0  0  0  0  0  0
    6.0663    1.0929   -0.0802 C   0  0  0  0  0  0  0  0  0  0  0  0
    5.3287    0.1848    0.6910 C   0  0  0  0  0  0  0  0  0  0  0  0
    4.2488    0.3945    1.5194 N   0  0  0  0  0  0  0  0  0  0  0  0
    2.1621   -1.9410    2.8359 H   0  0  0  0  0  0  0  0  0  0  0  0
    1.6352   -0.4789    1.9948 H   0  0  0  0  0  0  0  0  0  0  0  0
    2.4387   -0.3491    3.5745 H   0  0  0  0  0  0  0  0  0  0  0  0
    4.5013   -2.8548    1.7188 H   0  0  0  0  0  0  0  0  0  0  0  0
   11.7140    1.2949   -1.5774 H   0  0  0  0  0  0  0  0  0  0  0  0
   11.8230   -0.3363   -5.9598 H   0  0  0  0  0  0  0  0  0  0  0  0
   11.8567   -1.9931   -7.6696 H   0  0  0  0  0  0  0  0  0  0  0  0
   10.7979   -0.6204   -8.0682 H   0  0  0  0  0  0  0  0  0  0  0  0
   10.7298   -3.3710   -9.3884 H   0  0  0  0  0  0  0  0  0  0  0  0
    9.2401   -0.7992  -10.1520 H   0  0  0  0  0  0  0  0  0  0  0  0
    8.4761   -2.1425   -9.2635 H   0  0  0  0  0  0  0  0  0  0  0  0
    9.0687   -2.3820  -10.9057 H   0  0  0  0  0  0  0  0  0  0  0  0
   13.9288   -2.3182  -12.0647 H   0  0  0  0  0  0  0  0  0  0  0  0
    7.7211   -3.2846   -5.4797 H   0  0  0  0  0  0  0  0  0  0  0  0
    7.0656   -2.1269   -4.3094 H   0  0  0  0  0  0  0  0  0  0  0  0
    8.0813   -3.4646   -3.7546 H   0  0  0  0  0  0  0  0  0  0  0  0
    7.5742    1.2528   -1.5956 H   0  0  0  0  0  0  0  0  0  0  0  0
    5.8413    2.1550   -0.0770 H   0  0  0  0  0  0  0  0  0  0  0  0
    3.8333    1.2988    1.6974 H   0  0  0  0  0  0  0  0  0  0  0  0
  1  2  1  0  0  0  0
  1 32  1  0  0  0  0
  1 33  1  0  0  0  0
  1 34  1  0  0  0  0
  2  3  2  0  0  0  0
  2 31  1  0  0  0  0
  3  4  1  0  0  0  0
  3 35  1  0  0  0  0
  4  5  1  0  0  0  0
  4 30  2  0  0  0  0
  5  6  1  0  0  0  0
  5  7  2  0  0  0  0
  7  8  1  0  0  0  0
  7 28  1  0  0  0  0
  8  9  1  0  0  0  0
  9 10  2  0  0  0  0
  9 27  1  0  0  0  0
 10 11  1  0  0  0  0
 11 12  2  0  0  0  0
 11 36  1  0  0  0  0
 12 13  1  0  0  0  0
 13 14  1  0  0  0  0
 13 27  1  0  0  0  0
 14 15  2  0  0  0  0
 14 37  1  0  0  0  0
 15 16  1  0  0  0  0
 15 25  1  0  0  0  0
 16 17  1  0  0  0  0
 17 18  1  0  0  0  0
 17 38  1  0  0  0  0
 17 39  1  0  0  0  0
 18 19  1  0  0  0  0
 18 20  1  0  0  0  0
 18 40  1  1  0  0  0
 19 41  1  0  0  0  0
 19 42  1  0  0  0  0
 19 43  1  0  0  0  0
 20 21  1  0  0  0  0
 21 22  2  0  0  0  0
 21 23  2  0  0  0  0
 21 24  1  0  0  0  0
 24 44  1  0  0  0  0
 25 26  1  0  0  0  0
 25 27  2  0  0  0  0
 26 45  1  0  0  0  0
 26 46  1  0  0  0  0
 26 47  1  0  0  0  0
 28 29  2  0  0  0  0
 28 48  1  0  0  0  0
 29 30  1  0  0  0  0
 29 49  1  0  0  0  0
 30 31  1  0  0  0  0
 31 50  1  0  0  0  0
M  END
$$$$
