CHEMBL3937633
 OpenBabel04072215373D

 57 60  0  0  0  0  0  0  0  0999 V2000
    0.7973   -2.2840   -3.6290 C   0  0  0  0  0  0  0  0  0  0  0  0
    1.8439   -3.0124   -2.9849 O   0  0  0  0  0  0  0  0  0  0  0  0
    2.8210   -2.2701   -2.3665 C   0  0  0  0  0  0  0  0  0  0  0  0
    2.6567   -0.9447   -1.9615 C   0  0  0  0  0  0  0  0  0  0  0  0
    3.6916   -0.2920   -1.2982 C   0  0  0  0  0  0  0  0  0  0  0  0
    3.6532    0.9966   -0.8331 O   0  0  0  0  0  0  0  0  0  0  0  0
    2.4860    1.7579   -1.1228 C   0  0  0  0  0  0  0  0  0  0  0  0
    4.8857   -0.9765   -1.0267 C   0  0  0  0  0  0  0  0  0  0  0  0
    5.0816   -2.3197   -1.3879 C   0  0  0  0  0  0  0  0  0  0  0  0
    6.1933   -3.0838   -0.9445 N   0  0  0  0  0  0  0  0  0  0  0  0
    6.7652   -2.7067    0.4060 C   0  0  0  0  0  0  0  0  0  0  0  0
    5.8167   -2.7075    1.6181 C   0  0  0  0  0  0  0  0  0  0  0  0
    5.3008   -4.0516    2.1414 C   0  0  0  0  0  0  0  0  0  0  0  0
    6.3563   -4.9629    2.5775 N   0  0  0  0  0  0  0  0  0  0  0  0
    7.2928   -3.6213   -1.7301 C   0  0  0  0  0  0  0  0  0  0  0  0
    7.8278   -4.8031   -1.2301 C   0  0  0  0  0  0  0  0  0  0  0  0
    9.1541   -5.1163   -1.4589 C   0  0  0  0  0  0  0  0  0  0  0  0
    9.9291   -4.3707   -2.3112 C   0  0  0  0  0  0  0  0  0  0  0  0
   11.2262   -4.6917   -2.2863 N   0  0  0  0  0  0  0  0  0  0  0  0
   11.9945   -4.1279   -3.2209 C   0  0  0  0  0  0  0  0  0  0  0  0
   11.4629   -3.3372   -4.2182 C   0  0  0  0  0  0  0  0  0  0  0  0
   12.3121   -3.1555   -5.3946 C   0  0  0  0  0  0  0  0  0  0  0  0
   12.3174   -3.8932   -6.6079 C   0  0  0  0  0  0  0  0  0  0  0  0
   13.3876   -3.6361   -7.3700 N   0  0  0  0  0  0  0  0  0  0  0  0
   14.0724   -2.7343   -6.6473 N   0  0  0  0  0  0  0  0  0  0  0  0
   15.1440   -1.9775   -7.2504 C   0  0  0  0  0  0  0  0  0  0  0  0
   13.5587   -2.5530   -5.3914 C   0  0  0  0  0  0  0  0  0  0  0  0
   10.1462   -2.9201   -4.1902 N   0  0  0  0  0  0  0  0  0  0  0  0
    9.3538   -3.3895   -3.1539 C   0  0  0  0  0  0  0  0  0  0  0  0
    8.0086   -2.9828   -2.7770 C   0  0  0  0  0  0  0  0  0  0  0  0
    4.0258   -2.9460   -2.0795 C   0  0  0  0  0  0  0  0  0  0  0  0
    0.1223   -3.0035   -4.1037 H   0  0  0  0  0  0  0  0  0  0  0  0
    1.2024   -1.6356   -4.4135 H   0  0  0  0  0  0  0  0  0  0  0  0
    0.1950   -1.7078   -2.9179 H   0  0  0  0  0  0  0  0  0  0  0  0
    1.7197   -0.4331   -2.1350 H   0  0  0  0  0  0  0  0  0  0  0  0
    2.6497    2.7753   -0.7549 H   0  0  0  0  0  0  0  0  0  0  0  0
    1.6119    1.3518   -0.6023 H   0  0  0  0  0  0  0  0  0  0  0  0
    2.3092    1.8206   -2.2018 H   0  0  0  0  0  0  0  0  0  0  0  0
    5.6546   -0.4350   -0.4846 H   0  0  0  0  0  0  0  0  0  0  0  0
    7.2329   -1.7182    0.3214 H   0  0  0  0  0  0  0  0  0  0  0  0
    7.5923   -3.3694    0.6894 H   0  0  0  0  0  0  0  0  0  0  0  0
    4.9563   -2.0536    1.4503 H   0  0  0  0  0  0  0  0  0  0  0  0
    6.3783   -2.2436    2.4426 H   0  0  0  0  0  0  0  0  0  0  0  0
    4.6544   -4.5445    1.4100 H   0  0  0  0  0  0  0  0  0  0  0  0
    4.6818   -3.8429    3.0242 H   0  0  0  0  0  0  0  0  0  0  0  0
    6.8288   -5.3566    1.7692 H   0  0  0  0  0  0  0  0  0  0  0  0
    5.9255   -5.7605    3.0537 H   0  0  0  0  0  0  0  0  0  0  0  0
    7.2664   -5.3985   -0.5157 H   0  0  0  0  0  0  0  0  0  0  0  0
    9.6099   -5.9371   -0.9136 H   0  0  0  0  0  0  0  0  0  0  0  0
   13.0454   -4.3920   -3.1815 H   0  0  0  0  0  0  0  0  0  0  0  0
   11.6119   -4.6411   -6.9479 H   0  0  0  0  0  0  0  0  0  0  0  0
   15.2079   -2.2119   -8.3165 H   0  0  0  0  0  0  0  0  0  0  0  0
   16.0855   -2.2134   -6.7499 H   0  0  0  0  0  0  0  0  0  0  0  0
   14.8992   -0.9189   -7.1268 H   0  0  0  0  0  0  0  0  0  0  0  0
   14.1067   -2.0032   -4.6373 H   0  0  0  0  0  0  0  0  0  0  0  0
    7.5902   -2.1114   -3.2698 H   0  0  0  0  0  0  0  0  0  0  0  0
    4.1072   -3.9975   -2.3467 H   0  0  0  0  0  0  0  0  0  0  0  0
  1  2  1  0  0  0  0
  1 32  1  0  0  0  0
  1 33  1  0  0  0  0
  1 34  1  0  0  0  0
  2  3  1  0  0  0  0
  3  4  1  0  0  0  0
  3 31  2  0  0  0  0
  4  5  2  0  0  0  0
  4 35  1  0  0  0  0
  5  6  1  0  0  0  0
  5  8  1  0  0  0  0
  6  7  1  0  0  0  0
  7 36  1  0  0  0  0
  7 37  1  0  0  0  0
  7 38  1  0  0  0  0
  8  9  2  0  0  0  0
  8 39  1  0  0  0  0
  9 10  1  0  0  0  0
  9 31  1  0  0  0  0
 10 11  1  0  0  0  0
 10 15  1  0  0  0  0
 11 12  1  0  0  0  0
 11 40  1  0  0  0  0
 11 41  1  0  0  0  0
 12 13  1  0  0  0  0
 12 42  1  0  0  0  0
 12 43  1  0  0  0  0
 13 14  1  0  0  0  0
 13 44  1  0  0  0  0
 13 45  1  0  0  0  0
 14 46  1  0  0  0  0
 14 47  1  0  0  0  0
 15 16  1  0  0  0  0
 15 30  2  0  0  0  0
 16 17  2  0  0  0  0
 16 48  1  0  0  0  0
 17 18  1  0  0  0  0
 17 49  1  0  0  0  0
 18 19  1  0  0  0  0
 18 29  2  0  0  0  0
 19 20  2  0  0  0  0
 20 21  1  0  0  0  0
 20 50  1  0  0  0  0
 21 22  1  0  0  0  0
 21 28  2  0  0  0  0
 22 23  1  0  0  0  0
 22 27  2  0  0  0  0
 23 24  2  0  0  0  0
 23 51  1  0  0  0  0
 24 25  1  0  0  0  0
 25 26  1  0  0  0  0
 25 27  1  0  0  0  0
 26 52  1  0  0  0  0
 26 53  1  0  0  0  0
 26 54  1  0  0  0  0
 27 55  1  0  0  0  0
 28 29  1  0  0  0  0
 29 30  1  0  0  0  0
 30 56  1  0  0  0  0
 31 57  1  0  0  0  0
M  END
$$$$
