CHEMBL380068
 OpenBabel04072215373D

 78 83  0  0  0  0  0  0  0  0999 V2000
    1.4106   -1.3924   -0.2871 C   0  0  0  0  0  0  0  0  0  0  0  0
    2.0785   -1.3244   -1.6515 C   0  0  0  0  0  0  0  0  0  0  0  0
    3.3499   -0.4550   -1.7381 C   0  0  0  0  0  0  0  0  0  0  0  0
    4.4992   -0.9292   -0.9338 N   0  0  0  0  0  0  0  0  0  0  0  0
    5.2491    0.0569   -0.1304 C   0  0  0  0  0  0  0  0  0  0  0  0
    4.4281    0.5943    1.0140 C   0  0  0  0  0  0  0  0  0  0  0  0
    3.8331   -0.1153    2.0360 C   0  0  0  0  0  0  0  0  0  0  0  0
    3.0415    0.7061    2.8693 C   0  0  0  0  0  0  0  0  0  0  0  0
    3.1568    2.0597    2.5748 C   0  0  0  0  0  0  0  0  0  0  0  0
    2.5044    3.1305    3.2842 C   0  0  0  0  0  0  0  0  0  0  0  0
    2.6066    4.4838    3.0174 N   0  0  0  0  0  0  0  0  0  0  0  0
    1.9348    5.2859    3.8991 N   0  0  0  0  0  0  0  0  0  0  0  0
    1.3786    4.4013    4.7126 C   0  0  0  0  0  0  0  0  0  0  0  0
    1.6676    3.0762    4.3713 C   0  0  0  0  0  0  0  0  0  0  0  0
    1.0553    2.0679    5.2750 C   0  0  0  0  0  0  0  0  0  0  0  0
    0.3908    3.0454    6.2402 C   0  0  0  0  0  0  0  0  0  0  0  0
   -0.3338    2.6993    7.3683 C   0  0  0  0  0  0  0  0  0  0  0  0
   -0.8695    3.7254    8.1645 C   0  0  0  0  0  0  0  0  0  0  0  0
   -1.6733    3.3722    9.4050 C   0  0  0  0  0  0  0  0  0  0  0  0
   -0.9334    2.5418   10.3645 N   0  0  0  0  0  0  0  0  0  0  0  0
    0.2583    3.2289   10.8946 C   0  0  0  0  0  0  0  0  0  0  0  0
    1.0275    2.3288   11.8887 C   0  0  0  0  0  0  0  0  0  0  0  0
    0.2227    1.8464   13.0294 N   0  0  0  0  0  0  0  0  0  0  0  0
   -0.0192    2.9110   13.9994 C   0  0  0  0  0  0  0  0  0  0  0  0
   -1.0338    1.2644   12.5224 C   0  0  0  0  0  0  0  0  0  0  0  0
   -1.7966    2.1379   11.4840 C   0  0  0  0  0  0  0  0  0  0  0  0
   -0.6565    5.0803    7.8072 C   0  0  0  0  0  0  0  0  0  0  0  0
    0.0740    5.4331    6.6620 C   0  0  0  0  0  0  0  0  0  0  0  0
    0.5832    4.4078    5.8954 C   0  0  0  0  0  0  0  0  0  0  0  0
    4.2086    2.2881    1.2422 S   0  0  0  0  0  0  0  0  0  0  0  0
    5.0675   -2.1071   -1.4289 C   0  0  0  0  0  0  0  0  0  0  0  0
    4.5672   -2.6653   -2.4054 O   0  0  0  0  0  0  0  0  0  0  0  0
    6.1677   -2.6006   -0.7577 N   0  0  0  0  0  0  0  0  0  0  0  0
    6.8183   -3.8187   -1.1021 C   0  0  0  0  0  0  0  0  0  0  0  0
    6.6748   -4.4328   -2.3503 C   0  0  0  0  0  0  0  0  0  0  0  0
    7.1722   -5.7133   -2.5865 C   0  0  0  0  0  0  0  0  0  0  0  0
    7.8443   -6.3847   -1.5726 C   0  0  0  0  0  0  0  0  0  0  0  0
    8.0507   -5.7676   -0.3362 C   0  0  0  0  0  0  0  0  0  0  0  0
    8.7262   -6.5250    0.7778 C   0  0  0  0  0  0  0  0  0  0  0  0
    7.5703   -4.4671   -0.1189 C   0  0  0  0  0  0  0  0  0  0  0  0
    0.5291   -2.0399   -0.3444 H   0  0  0  0  0  0  0  0  0  0  0  0
    1.0758   -0.4042    0.0425 H   0  0  0  0  0  0  0  0  0  0  0  0
    2.0765   -1.8196    0.4672 H   0  0  0  0  0  0  0  0  0  0  0  0
    1.3420   -0.9258   -2.3637 H   0  0  0  0  0  0  0  0  0  0  0  0
    2.2743   -2.3502   -1.9737 H   0  0  0  0  0  0  0  0  0  0  0  0
    3.1184    0.5924   -1.4895 H   0  0  0  0  0  0  0  0  0  0  0  0
    3.6685   -0.4489   -2.7888 H   0  0  0  0  0  0  0  0  0  0  0  0
    5.5949    0.8525   -0.8000 H   0  0  0  0  0  0  0  0  0  0  0  0
    6.1485   -0.3864    0.3018 H   0  0  0  0  0  0  0  0  0  0  0  0
    3.8998   -1.1920    2.1411 H   0  0  0  0  0  0  0  0  0  0  0  0
    2.4212    0.3273    3.6690 H   0  0  0  0  0  0  0  0  0  0  0  0
    3.1268    4.9282    2.2700 H   0  0  0  0  0  0  0  0  0  0  0  0
    1.8095    1.4607    5.7815 H   0  0  0  0  0  0  0  0  0  0  0  0
    0.3075    1.4589    4.7610 H   0  0  0  0  0  0  0  0  0  0  0  0
   -0.4712    1.6572    7.6434 H   0  0  0  0  0  0  0  0  0  0  0  0
   -2.5534    2.8167    9.0516 H   0  0  0  0  0  0  0  0  0  0  0  0
   -2.0535    4.2840    9.8845 H   0  0  0  0  0  0  0  0  0  0  0  0
   -0.0191    4.1740   11.3779 H   0  0  0  0  0  0  0  0  0  0  0  0
    0.9541    3.4732   10.0846 H   0  0  0  0  0  0  0  0  0  0  0  0
    1.9205    2.8536   12.2477 H   0  0  0  0  0  0  0  0  0  0  0  0
    1.4003    1.4511   11.3455 H   0  0  0  0  0  0  0  0  0  0  0  0
    0.9312    3.3221   14.3599 H   0  0  0  0  0  0  0  0  0  0  0  0
   -0.5363    2.5112   14.8786 H   0  0  0  0  0  0  0  0  0  0  0  0
   -0.6163    3.7365   13.5996 H   0  0  0  0  0  0  0  0  0  0  0  0
   -1.7027    1.0251   13.3562 H   0  0  0  0  0  0  0  0  0  0  0  0
   -0.7966    0.3056   12.0497 H   0  0  0  0  0  0  0  0  0  0  0  0
   -2.2151    3.0185   11.9916 H   0  0  0  0  0  0  0  0  0  0  0  0
   -2.6478    1.5495   11.1121 H   0  0  0  0  0  0  0  0  0  0  0  0
   -1.0609    5.8724    8.4350 H   0  0  0  0  0  0  0  0  0  0  0  0
    0.2401    6.4711    6.3970 H   0  0  0  0  0  0  0  0  0  0  0  0
    6.2851   -2.3110    0.1997 H   0  0  0  0  0  0  0  0  0  0  0  0
    6.1450   -3.9558   -3.1682 H   0  0  0  0  0  0  0  0  0  0  0  0
    6.9998   -6.1876   -3.5469 H   0  0  0  0  0  0  0  0  0  0  0  0
    8.1967   -7.3944   -1.7557 H   0  0  0  0  0  0  0  0  0  0  0  0
    8.9076   -7.5668    0.4957 H   0  0  0  0  0  0  0  0  0  0  0  0
    8.0787   -6.5319    1.6602 H   0  0  0  0  0  0  0  0  0  0  0  0
    9.6825   -6.0623    1.0270 H   0  0  0  0  0  0  0  0  0  0  0  0
    7.7442   -3.9956    0.8462 H   0  0  0  0  0  0  0  0  0  0  0  0
  1  2  1  0  0  0  0
  1 41  1  0  0  0  0
  1 42  1  0  0  0  0
  1 43  1  0  0  0  0
  2  3  1  0  0  0  0
  2 44  1  0  0  0  0
  2 45  1  0  0  0  0
  3  4  1  0  0  0  0
  3 46  1  0  0  0  0
  3 47  1  0  0  0  0
  4  5  1  0  0  0  0
  4 31  1  0  0  0  0
  5  6  1  0  0  0  0
  5 48  1  0  0  0  0
  5 49  1  0  0  0  0
  6  7  2  0  0  0  0
  6 30  1  0  0  0  0
  7  8  1  0  0  0  0
  7 50  1  0  0  0  0
  8  9  2  0  0  0  0
  8 51  1  0  0  0  0
  9 10  1  0  0  0  0
  9 30  1  0  0  0  0
 10 11  1  0  0  0  0
 10 14  2  0  0  0  0
 11 12  1  0  0  0  0
 11 52  1  0  0  0  0
 12 13  2  0  0  0  0
 13 14  1  0  0  0  0
 13 29  1  0  0  0  0
 14 15  1  0  0  0  0
 15 16  1  0  0  0  0
 15 53  1  0  0  0  0
 15 54  1  0  0  0  0
 16 17  1  0  0  0  0
 16 29  2  0  0  0  0
 17 18  2  0  0  0  0
 17 55  1  0  0  0  0
 18 19  1  0  0  0  0
 18 27  1  0  0  0  0
 19 20  1  0  0  0  0
 19 56  1  0  0  0  0
 19 57  1  0  0  0  0
 20 21  1  0  0  0  0
 20 26  1  0  0  0  0
 21 22  1  0  0  0  0
 21 58  1  0  0  0  0
 21 59  1  0  0  0  0
 22 23  1  0  0  0  0
 22 60  1  0  0  0  0
 22 61  1  0  0  0  0
 23 24  1  0  0  0  0
 23 25  1  0  0  0  0
 24 62  1  0  0  0  0
 24 63  1  0  0  0  0
 24 64  1  0  0  0  0
 25 26  1  0  0  0  0
 25 65  1  0  0  0  0
 25 66  1  0  0  0  0
 26 67  1  0  0  0  0
 26 68  1  0  0  0  0
 27 28  2  0  0  0  0
 27 69  1  0  0  0  0
 28 29  1  0  0  0  0
 28 70  1  0  0  0  0
 31 32  2  0  0  0  0
 31 33  1  0  0  0  0
 33 34  1  0  0  0  0
 33 71  1  0  0  0  0
 34 35  1  0  0  0  0
 34 40  2  0  0  0  0
 35 36  2  0  0  0  0
 35 72  1  0  0  0  0
 36 37  1  0  0  0  0
 36 73  1  0  0  0  0
 37 38  2  0  0  0  0
 37 74  1  0  0  0  0
 38 39  1  0  0  0  0
 38 40  1  0  0  0  0
 39 75  1  0  0  0  0
 39 76  1  0  0  0  0
 39 77  1  0  0  0  0
 40 78  1  0  0  0  0
M  END
$$$$
