CHEMBL520975
 OpenBabel04072215383D

 35 38  0  0  0  0  0  0  0  0999 V2000
    1.2585    0.8185    0.0018 C   0  0  0  0  0  0  0  0  0  0  0  0
    2.3393   -0.1030    0.0605 O   0  0  0  0  0  0  0  0  0  0  0  0
    2.9801   -0.3741   -1.1200 C   0  0  0  0  0  0  0  0  0  0  0  0
    2.6093    0.1074   -2.3764 C   0  0  0  0  0  0  0  0  0  0  0  0
    3.3542   -0.2024   -3.5212 C   0  0  0  0  0  0  0  0  0  0  0  0
    4.4832   -1.0093   -3.3586 C   0  0  0  0  0  0  0  0  0  0  0  0
    5.4212   -1.4157   -4.2775 N   0  0  0  0  0  0  0  0  0  0  0  0
    6.4109   -2.1667   -3.6815 C   0  0  0  0  0  0  0  0  0  0  0  0
    7.6028   -2.6551   -4.3813 C   0  0  0  0  0  0  0  0  0  0  0  0
    8.2086   -3.8517   -3.9529 C   0  0  0  0  0  0  0  0  0  0  0  0
    9.4112   -4.3184   -4.5156 C   0  0  0  0  0  0  0  0  0  0  0  0
   10.0581   -3.5927   -5.5145 C   0  0  0  0  0  0  0  0  0  0  0  0
    9.4663   -2.4212   -5.9517 C   0  0  0  0  0  0  0  0  0  0  0  0
    8.2477   -1.9783   -5.4147 C   0  0  0  0  0  0  0  0  0  0  0  0
    7.8998   -0.7410   -6.1429 C   0  0  0  0  0  0  0  0  0  0  0  0
    6.8704   -0.0996   -6.0710 O   0  0  0  0  0  0  0  0  0  0  0  0
    8.9442   -0.4579   -6.9933 N   0  0  0  0  0  0  0  0  0  0  0  0
    9.9734   -1.4603   -6.9742 C   0  0  0  0  0  0  0  0  0  0  0  0
    6.0549   -2.2753   -2.3456 C   0  0  0  0  0  0  0  0  0  0  0  0
    4.8688   -1.5240   -2.1269 C   0  0  0  0  0  0  0  0  0  0  0  0
    4.1020   -1.2048   -0.9909 C   0  0  0  0  0  0  0  0  0  0  0  0
    0.9010    0.9806    1.0237 H   0  0  0  0  0  0  0  0  0  0  0  0
    0.4276    0.4073   -0.5812 H   0  0  0  0  0  0  0  0  0  0  0  0
    1.5800    1.7878   -0.3939 H   0  0  0  0  0  0  0  0  0  0  0  0
    1.7413    0.7452   -2.5066 H   0  0  0  0  0  0  0  0  0  0  0  0
    3.0745    0.1894   -4.4938 H   0  0  0  0  0  0  0  0  0  0  0  0
    5.4489   -1.0926   -5.2382 H   0  0  0  0  0  0  0  0  0  0  0  0
    7.7471   -4.4428   -3.1630 H   0  0  0  0  0  0  0  0  0  0  0  0
    9.8452   -5.2483   -4.1524 H   0  0  0  0  0  0  0  0  0  0  0  0
   10.9985   -3.9423   -5.9294 H   0  0  0  0  0  0  0  0  0  0  0  0
    8.9079    0.3373   -7.6169 H   0  0  0  0  0  0  0  0  0  0  0  0
   10.9157   -0.9943   -6.6761 H   0  0  0  0  0  0  0  0  0  0  0  0
   10.0484   -1.9119   -7.9665 H   0  0  0  0  0  0  0  0  0  0  0  0
    6.6280   -2.7837   -1.5814 H   0  0  0  0  0  0  0  0  0  0  0  0
    4.3938   -1.5751   -0.0129 H   0  0  0  0  0  0  0  0  0  0  0  0
  1  2  1  0  0  0  0
  1 22  1  0  0  0  0
  1 23  1  0  0  0  0
  1 24  1  0  0  0  0
  2  3  1  0  0  0  0
  3  4  1  0  0  0  0
  3 21  2  0  0  0  0
  4  5  2  0  0  0  0
  4 25  1  0  0  0  0
  5  6  1  0  0  0  0
  5 26  1  0  0  0  0
  6  7  1  0  0  0  0
  6 20  2  0  0  0  0
  7  8  1  0  0  0  0
  7 27  1  0  0  0  0
  8  9  1  0  0  0  0
  8 19  2  0  0  0  0
  9 10  1  0  0  0  0
  9 14  2  0  0  0  0
 10 11  2  0  0  0  0
 10 28  1  0  0  0  0
 11 12  1  0  0  0  0
 11 29  1  0  0  0  0
 12 13  2  0  0  0  0
 12 30  1  0  0  0  0
 13 14  1  0  0  0  0
 13 18  1  0  0  0  0
 14 15  1  0  0  0  0
 15 16  2  0  0  0  0
 15 17  1  0  0  0  0
 17 18  1  0  0  0  0
 17 31  1  0  0  0  0
 18 32  1  0  0  0  0
 18 33  1  0  0  0  0
 19 20  1  0  0  0  0
 19 34  1  0  0  0  0
 20 21  1  0  0  0  0
 21 35  1  0  0  0  0
M  END
$$$$
