CHEMBL3287307
 OpenBabel04072215363D

 70 74  0  0  0  0  0  0  0  0999 V2000
   -6.4828   -7.4825   -1.0695 C   0  0  0  0  0  0  0  0  0  0  0  0
   -6.1915   -6.0321   -0.8236 C   0  0  0  0  0  0  0  0  0  0  0  0
   -6.9542   -5.0399   -1.4426 C   0  0  0  0  0  0  0  0  0  0  0  0
   -6.7030   -3.6869   -1.1941 C   0  0  0  0  0  0  0  0  0  0  0  0
   -5.6864   -3.2967   -0.3215 C   0  0  0  0  0  0  0  0  0  0  0  0
   -5.3980   -1.9484   -0.0155 N   0  0  0  0  0  0  0  0  0  0  0  0
   -6.1120   -0.8365   -0.4207 C   0  0  0  0  0  0  0  0  0  0  0  0
   -7.1394   -0.8089   -1.0835 O   0  0  0  0  0  0  0  0  0  0  0  0
   -5.5315    0.4646    0.0511 C   0  0  0  0  0  0  0  0  0  0  0  0
   -5.5207    0.7011    1.5278 C   0  0  0  0  0  0  0  0  0  0  0  0
   -4.4639    0.5342    2.1253 O   0  0  0  0  0  0  0  0  0  0  0  0
   -6.7452    0.9954    2.1101 N   0  0  0  0  0  0  0  0  0  0  0  0
   -6.8497    1.1020    3.5136 C   0  0  0  0  0  0  0  0  0  0  0  0
   -5.9134    1.8388    4.2433 C   0  0  0  0  0  0  0  0  0  0  0  0
   -5.9337    1.8319    5.6384 C   0  0  0  0  0  0  0  0  0  0  0  0
   -6.9008    1.0944    6.3228 C   0  0  0  0  0  0  0  0  0  0  0  0
   -6.9461    0.9701    7.6978 O   0  0  0  0  0  0  0  0  0  0  0  0
   -6.5621    2.0560    8.4745 C   0  0  0  0  0  0  0  0  0  0  0  0
   -6.0509    1.8066    9.7196 C   0  0  0  0  0  0  0  0  0  0  0  0
   -5.6782    2.9224   10.4287 C   0  0  0  0  0  0  0  0  0  0  0  0
   -5.7929    4.1825    9.9594 N   0  0  0  0  0  0  0  0  0  0  0  0
   -6.3408    4.3273    8.7451 C   0  0  0  0  0  0  0  0  0  0  0  0
   -6.4656    5.6174    8.2309 N   0  0  0  0  0  0  0  0  0  0  0  0
   -7.4626    6.0551    7.3414 C   0  0  0  0  0  0  0  0  0  0  0  0
   -7.2121    7.1171    6.4736 C   0  0  0  0  0  0  0  0  0  0  0  0
   -8.1837    7.5229    5.5566 C   0  0  0  0  0  0  0  0  0  0  0  0
   -9.4321    6.8928    5.5180 C   0  0  0  0  0  0  0  0  0  0  0  0
   -9.7266    5.8626    6.4142 C   0  0  0  0  0  0  0  0  0  0  0  0
  -11.1020    5.2634    6.4982 C   0  0  0  0  0  0  0  0  0  0  0  0
  -11.3419    3.8853    5.3937 S   0  0  0  0  0  0  0  0  0  0  0  0
  -10.1321    2.6826    5.8699 C   0  0  0  0  0  0  0  0  0  0  0  0
  -12.6375    3.3112    5.7206 O   0  0  0  0  0  0  0  0  0  0  0  0
  -11.0624    4.2974    4.0306 O   0  0  0  0  0  0  0  0  0  0  0  0
   -8.7300    5.4507    7.3084 C   0  0  0  0  0  0  0  0  0  0  0  0
   -6.7530    3.2944    7.9963 N   0  0  0  0  0  0  0  0  0  0  0  0
   -7.8457    0.3657    5.5911 C   0  0  0  0  0  0  0  0  0  0  0  0
   -7.8514    0.4049    4.1879 C   0  0  0  0  0  0  0  0  0  0  0  0
   -5.6077    1.6718   -0.8814 C   0  0  0  0  0  0  0  0  0  0  0  0
   -4.2974    0.9754   -0.7065 C   0  0  0  0  0  0  0  0  0  0  0  0
   -4.9063   -4.2897    0.2834 C   0  0  0  0  0  0  0  0  0  0  0  0
   -5.1585   -5.6466    0.0370 C   0  0  0  0  0  0  0  0  0  0  0  0
   -7.3161   -7.6089   -1.7696 H   0  0  0  0  0  0  0  0  0  0  0  0
   -6.7592   -7.9759   -0.1322 H   0  0  0  0  0  0  0  0  0  0  0  0
   -5.6079   -7.9806   -1.4984 H   0  0  0  0  0  0  0  0  0  0  0  0
   -7.7587   -5.3055   -2.1249 H   0  0  0  0  0  0  0  0  0  0  0  0
   -7.3253   -2.9627   -1.7087 H   0  0  0  0  0  0  0  0  0  0  0  0
   -4.6098   -1.7823    0.6029 H   0  0  0  0  0  0  0  0  0  0  0  0
   -7.5783    0.7581    1.5819 H   0  0  0  0  0  0  0  0  0  0  0  0
   -5.1515    2.4244    3.7338 H   0  0  0  0  0  0  0  0  0  0  0  0
   -5.1769    2.4045    6.1666 H   0  0  0  0  0  0  0  0  0  0  0  0
   -5.9383    0.8061   10.1098 H   0  0  0  0  0  0  0  0  0  0  0  0
   -5.2598    2.8385   11.4275 H   0  0  0  0  0  0  0  0  0  0  0  0
   -6.1794    6.2977    8.9230 H   0  0  0  0  0  0  0  0  0  0  0  0
   -6.2399    7.6116    6.4794 H   0  0  0  0  0  0  0  0  0  0  0  0
   -7.9644    8.3282    4.8648 H   0  0  0  0  0  0  0  0  0  0  0  0
  -10.1699    7.2309    4.7954 H   0  0  0  0  0  0  0  0  0  0  0  0
  -11.8627    6.0103    6.2524 H   0  0  0  0  0  0  0  0  0  0  0  0
  -11.3075    4.9071    7.5134 H   0  0  0  0  0  0  0  0  0  0  0  0
  -10.2087    2.4936    6.9424 H   0  0  0  0  0  0  0  0  0  0  0  0
   -9.1414    3.0458    5.5993 H   0  0  0  0  0  0  0  0  0  0  0  0
  -10.3588    1.7635    5.3237 H   0  0  0  0  0  0  0  0  0  0  0  0
   -8.9496    4.6504    8.0119 H   0  0  0  0  0  0  0  0  0  0  0  0
   -8.5870   -0.2348    6.1122 H   0  0  0  0  0  0  0  0  0  0  0  0
   -8.5911   -0.1750    3.6426 H   0  0  0  0  0  0  0  0  0  0  0  0
   -5.7235    2.6570   -0.4442 H   0  0  0  0  0  0  0  0  0  0  0  0
   -6.1089    1.5565   -1.8373 H   0  0  0  0  0  0  0  0  0  0  0  0
   -3.5238    1.4807   -0.1357 H   0  0  0  0  0  0  0  0  0  0  0  0
   -3.9136    0.3757   -1.5235 H   0  0  0  0  0  0  0  0  0  0  0  0
   -4.1001   -4.0286    0.9644 H   0  0  0  0  0  0  0  0  0  0  0  0
   -4.5464   -6.4011    0.5269 H   0  0  0  0  0  0  0  0  0  0  0  0
  1  2  1  0  0  0  0
  1 42  1  0  0  0  0
  1 43  1  0  0  0  0
  1 44  1  0  0  0  0
  2  3  1  0  0  0  0
  2 41  2  0  0  0  0
  3  4  2  0  0  0  0
  3 45  1  0  0  0  0
  4  5  1  0  0  0  0
  4 46  1  0  0  0  0
  5  6  1  0  0  0  0
  5 40  2  0  0  0  0
  6  7  1  0  0  0  0
  6 47  1  0  0  0  0
  7  8  2  0  0  0  0
  7  9  1  0  0  0  0
  9 10  1  0  0  0  0
  9 38  1  0  0  0  0
  9 39  1  0  0  0  0
 10 11  2  0  0  0  0
 10 12  1  0  0  0  0
 12 13  1  0  0  0  0
 12 48  1  0  0  0  0
 13 14  1  0  0  0  0
 13 37  2  0  0  0  0
 14 15  2  0  0  0  0
 14 49  1  0  0  0  0
 15 16  1  0  0  0  0
 15 50  1  0  0  0  0
 16 17  1  0  0  0  0
 16 36  2  0  0  0  0
 17 18  1  0  0  0  0
 18 19  1  0  0  0  0
 18 35  2  0  0  0  0
 19 20  2  0  0  0  0
 19 51  1  0  0  0  0
 20 21  1  0  0  0  0
 20 52  1  0  0  0  0
 21 22  2  0  0  0  0
 22 23  1  0  0  0  0
 22 35  1  0  0  0  0
 23 24  1  0  0  0  0
 23 53  1  0  0  0  0
 24 25  1  0  0  0  0
 24 34  2  0  0  0  0
 25 26  2  0  0  0  0
 25 54  1  0  0  0  0
 26 27  1  0  0  0  0
 26 55  1  0  0  0  0
 27 28  2  0  0  0  0
 27 56  1  0  0  0  0
 28 29  1  0  0  0  0
 28 34  1  0  0  0  0
 29 30  1  0  0  0  0
 29 57  1  0  0  0  0
 29 58  1  0  0  0  0
 30 31  1  0  0  0  0
 30 32  2  0  0  0  0
 30 33  2  0  0  0  0
 31 59  1  0  0  0  0
 31 60  1  0  0  0  0
 31 61  1  0  0  0  0
 34 62  1  0  0  0  0
 36 37  1  0  0  0  0
 36 63  1  0  0  0  0
 37 64  1  0  0  0  0
 38 39  1  0  0  0  0
 38 65  1  0  0  0  0
 38 66  1  0  0  0  0
 39 67  1  0  0  0  0
 39 68  1  0  0  0  0
 40 41  1  0  0  0  0
 40 69  1  0  0  0  0
 41 70  1  0  0  0  0
M  END
$$$$
