CHEMBL412081
 OpenBabel04072215383D

 46 50  0  0  0  0  0  0  0  0999 V2000
   -0.3587   -2.2768   -0.1887 C   0  0  0  0  0  0  0  0  0  0  0  0
    0.0992   -0.8999    0.0735 C   0  0  0  0  0  0  0  0  0  0  0  0
   -0.3925   -0.1443    1.0602 N   0  0  0  0  0  0  0  0  0  0  0  0
    0.4367    0.9814    1.0360 O   0  0  0  0  0  0  0  0  0  0  0  0
    1.3483    0.7889    0.0247 C   0  0  0  0  0  0  0  0  0  0  0  0
    2.5018    1.7097   -0.2416 C   0  0  0  0  0  0  0  0  0  0  0  0
    2.7945    2.7658    0.5834 C   0  0  0  0  0  0  0  0  0  0  0  0
    3.9581    3.3229    0.1532 N   0  0  0  0  0  0  0  0  0  0  0  0
    4.5697    4.3303    0.7888 N   0  0  0  0  0  0  0  0  0  0  0  0
    5.6915    4.6839    0.2581 C   0  0  0  0  0  0  0  0  0  0  0  0
    6.2671    4.1425   -0.8565 N   0  0  0  0  0  0  0  0  0  0  0  0
    5.6580    3.2005   -1.5187 C   0  0  0  0  0  0  0  0  0  0  0  0
    6.2128    2.7557   -2.6936 N   0  0  0  0  0  0  0  0  0  0  0  0
    7.5857    2.7347   -3.0346 C   0  0  0  0  0  0  0  0  0  0  0  0
    8.6307    2.6026   -2.1147 C   0  0  0  0  0  0  0  0  0  0  0  0
    9.9513    2.4423   -2.3959 N   0  0  0  0  0  0  0  0  0  0  0  0
   10.2109    2.4118   -3.7160 C   0  0  0  0  0  0  0  0  0  0  0  0
   11.4469    2.2116   -4.2728 N   0  0  0  0  0  0  0  0  0  0  0  0
   11.3473    2.2277   -5.6427 C   0  0  0  0  0  0  0  0  0  0  0  0
   10.0257    2.4522   -5.9683 C   0  0  0  0  0  0  0  0  0  0  0  0
    9.2974    2.5494   -4.7512 C   0  0  0  0  0  0  0  0  0  0  0  0
    7.9542    2.7157   -4.3843 C   0  0  0  0  0  0  0  0  0  0  0  0
    7.0015    2.8293   -5.3257 F   0  0  0  0  0  0  0  0  0  0  0  0
    4.4041    2.6985   -0.9875 C   0  0  0  0  0  0  0  0  0  0  0  0
    3.4936    1.6725   -1.2997 C   0  0  0  0  0  0  0  0  0  0  0  0
    3.3959    0.6841   -2.4544 C   0  0  0  0  0  0  0  0  0  0  0  0
    2.4946    1.2330   -3.5652 C   0  0  0  0  0  0  0  0  0  0  0  0
    4.6807    0.1176   -3.0375 C   0  0  0  0  0  0  0  0  0  0  0  0
    1.1362   -0.3405   -0.6187 N   0  0  0  0  0  0  0  0  0  0  0  0
   -1.3580   -2.4562    0.2180 H   0  0  0  0  0  0  0  0  0  0  0  0
    0.3326   -2.9880    0.2759 H   0  0  0  0  0  0  0  0  0  0  0  0
   -0.3825   -2.4816   -1.2633 H   0  0  0  0  0  0  0  0  0  0  0  0
    2.3088    3.1407    1.4743 H   0  0  0  0  0  0  0  0  0  0  0  0
    6.2462    5.5128    0.7293 H   0  0  0  0  0  0  0  0  0  0  0  0
    5.6129    2.8727   -3.5044 H   0  0  0  0  0  0  0  0  0  0  0  0
    8.4184    2.5870   -1.0469 H   0  0  0  0  0  0  0  0  0  0  0  0
   12.2858    2.0578   -3.7343 H   0  0  0  0  0  0  0  0  0  0  0  0
   12.2213    2.0735   -6.2630 H   0  0  0  0  0  0  0  0  0  0  0  0
    9.6217    2.5173   -6.9713 H   0  0  0  0  0  0  0  0  0  0  0  0
    2.9000   -0.2110   -2.0668 H   0  0  0  0  0  0  0  0  0  0  0  0
    2.8811    2.1775   -3.9613 H   0  0  0  0  0  0  0  0  0  0  0  0
    1.4799    1.4174   -3.1927 H   0  0  0  0  0  0  0  0  0  0  0  0
    2.4140    0.5208   -4.3937 H   0  0  0  0  0  0  0  0  0  0  0  0
    5.1731    0.8123   -3.7159 H   0  0  0  0  0  0  0  0  0  0  0  0
    4.4434   -0.7644   -3.6476 H   0  0  0  0  0  0  0  0  0  0  0  0
    5.3784   -0.2006   -2.2581 H   0  0  0  0  0  0  0  0  0  0  0  0
  1  2  1  0  0  0  0
  1 30  1  0  0  0  0
  1 31  1  0  0  0  0
  1 32  1  0  0  0  0
  2  3  2  0  0  0  0
  2 29  1  0  0  0  0
  3  4  1  0  0  0  0
  4  5  1  0  0  0  0
  5  6  1  0  0  0  0
  5 29  2  0  0  0  0
  6  7  2  0  0  0  0
  6 25  1  0  0  0  0
  7  8  1  0  0  0  0
  7 33  1  0  0  0  0
  8  9  1  0  0  0  0
  8 24  1  0  0  0  0
  9 10  2  0  0  0  0
 10 11  1  0  0  0  0
 10 34  1  0  0  0  0
 11 12  2  0  0  0  0
 12 13  1  0  0  0  0
 12 24  1  0  0  0  0
 13 14  1  0  0  0  0
 13 35  1  0  0  0  0
 14 15  1  0  0  0  0
 14 22  2  0  0  0  0
 15 16  2  0  0  0  0
 15 36  1  0  0  0  0
 16 17  1  0  0  0  0
 17 18  1  0  0  0  0
 17 21  2  0  0  0  0
 18 19  1  0  0  0  0
 18 37  1  0  0  0  0
 19 20  2  0  0  0  0
 19 38  1  0  0  0  0
 20 21  1  0  0  0  0
 20 39  1  0  0  0  0
 21 22  1  0  0  0  0
 22 23  1  0  0  0  0
 24 25  2  0  0  0  0
 25 26  1  0  0  0  0
 26 27  1  0  0  0  0
 26 28  1  0  0  0  0
 26 40  1  0  0  0  0
 27 41  1  0  0  0  0
 27 42  1  0  0  0  0
 27 43  1  0  0  0  0
 28 44  1  0  0  0  0
 28 45  1  0  0  0  0
 28 46  1  0  0  0  0
M  END
$$$$
