CHEMBL3746941
 OpenBabel04072215373D

 52 57  0  0  0  0  0  0  0  0999 V2000
    2.3702   -2.8495    0.3955 C   0  0  0  0  0  0  0  0  0  0  0  0
    1.9608   -2.6491    1.8361 C   0  0  0  0  0  0  0  0  0  0  0  0
    1.9370   -1.2121    2.3832 C   0  0  0  0  0  0  0  0  0  0  0  0
    1.5863   -0.7696    3.6419 C   0  0  0  0  0  0  0  0  0  0  0  0
    1.8714    0.6188    3.6478 C   0  0  0  0  0  0  0  0  0  0  0  0
    1.7554    1.4520    4.7442 N   0  0  0  0  0  0  0  0  0  0  0  0
    1.6700    2.8197    4.6044 C   0  0  0  0  0  0  0  0  0  0  0  0
    1.5709    3.5193    3.6133 O   0  0  0  0  0  0  0  0  0  0  0  0
    1.5175    3.4445    5.8571 N   0  0  0  0  0  0  0  0  0  0  0  0
    0.4944    4.3337    6.1351 C   0  0  0  0  0  0  0  0  0  0  0  0
    0.5987    4.7577    7.4305 C   0  0  0  0  0  0  0  0  0  0  0  0
    1.7857    4.1979    7.9651 C   0  0  0  0  0  0  0  0  0  0  0  0
    2.4304    4.3338    9.2098 C   0  0  0  0  0  0  0  0  0  0  0  0
    3.6498    3.6948    9.4305 C   0  0  0  0  0  0  0  0  0  0  0  0
    4.1781    3.8640   10.6997 O   0  0  0  0  0  0  0  0  0  0  0  0
    5.0898    2.9143   11.1228 C   0  0  0  0  0  0  0  0  0  0  0  0
    4.7945    1.6096   10.9525 N   0  0  0  0  0  0  0  0  0  0  0  0
    5.8415    0.7593   11.0113 C   0  0  0  0  0  0  0  0  0  0  0  0
    7.1281    1.0962   11.2051 N   0  0  0  0  0  0  0  0  0  0  0  0
    7.3196    2.3984   11.4399 C   0  0  0  0  0  0  0  0  0  0  0  0
    6.3271    3.3459   11.4886 C   0  0  0  0  0  0  0  0  0  0  0  0
    6.9151    4.6879   11.6841 C   0  0  0  0  0  0  0  0  0  0  0  0
    8.2690    4.5574   11.0939 N   0  0  0  0  0  0  0  0  0  0  0  0
    8.6412    3.1323   11.3718 C   0  0  0  0  0  0  0  0  0  0  0  0
    4.2634    2.9920    8.3869 C   0  0  0  0  0  0  0  0  0  0  0  0
    3.6216    2.8028    7.1541 C   0  0  0  0  0  0  0  0  0  0  0  0
    2.3628    3.3985    6.9683 C   0  0  0  0  0  0  0  0  0  0  0  0
    2.3147    1.0150    2.4548 N   0  0  0  0  0  0  0  0  0  0  0  0
    2.3255   -0.0930    1.7057 N   0  0  0  0  0  0  0  0  0  0  0  0
    2.3829   -3.7114    2.8463 C   0  0  0  0  0  0  0  0  0  0  0  0
    0.9637   -3.6506    2.4002 C   0  0  0  0  0  0  0  0  0  0  0  0
    3.1943   -2.1863    0.1141 H   0  0  0  0  0  0  0  0  0  0  0  0
    1.5240   -2.6520   -0.2713 H   0  0  0  0  0  0  0  0  0  0  0  0
    2.7075   -3.8756    0.2095 H   0  0  0  0  0  0  0  0  0  0  0  0
    1.1965   -1.3681    4.4516 H   0  0  0  0  0  0  0  0  0  0  0  0
    1.5300    1.0247    5.6311 H   0  0  0  0  0  0  0  0  0  0  0  0
   -0.2405    4.5498    5.3691 H   0  0  0  0  0  0  0  0  0  0  0  0
   -0.0773    5.4395    7.9318 H   0  0  0  0  0  0  0  0  0  0  0  0
    1.9878    4.9447    9.9907 H   0  0  0  0  0  0  0  0  0  0  0  0
    5.6257   -0.2862   10.8273 H   0  0  0  0  0  0  0  0  0  0  0  0
    7.0208    4.8988   12.7630 H   0  0  0  0  0  0  0  0  0  0  0  0
    6.3429    5.4944   11.2291 H   0  0  0  0  0  0  0  0  0  0  0  0
    8.1325    4.6225   10.0814 H   0  0  0  0  0  0  0  0  0  0  0  0
    9.1739    3.0674   12.3222 H   0  0  0  0  0  0  0  0  0  0  0  0
    9.2589    2.7386   10.5602 H   0  0  0  0  0  0  0  0  0  0  0  0
    5.2546    2.5620    8.5106 H   0  0  0  0  0  0  0  0  0  0  0  0
    4.1146    2.2459    6.3619 H   0  0  0  0  0  0  0  0  0  0  0  0
    2.6555   -0.0172    0.7499 H   0  0  0  0  0  0  0  0  0  0  0  0
    2.6138   -3.4111    3.8623 H   0  0  0  0  0  0  0  0  0  0  0  0
    3.0005   -4.5327    2.5005 H   0  0  0  0  0  0  0  0  0  0  0  0
    0.2110   -3.3110    3.1016 H   0  0  0  0  0  0  0  0  0  0  0  0
    0.6096   -4.4497    1.7560 H   0  0  0  0  0  0  0  0  0  0  0  0
  1  2  1  0  0  0  0
  1 32  1  0  0  0  0
  1 33  1  0  0  0  0
  1 34  1  0  0  0  0
  2  3  1  0  0  0  0
  2 30  1  0  0  0  0
  2 31  1  0  0  0  0
  3  4  2  0  0  0  0
  3 29  1  0  0  0  0
  4  5  1  0  0  0  0
  4 35  1  0  0  0  0
  5  6  1  0  0  0  0
  5 28  2  0  0  0  0
  6  7  1  0  0  0  0
  6 36  1  0  0  0  0
  7  8  2  0  0  0  0
  7  9  1  0  0  0  0
  9 10  1  0  0  0  0
  9 27  1  0  0  0  0
 10 11  2  0  0  0  0
 10 37  1  0  0  0  0
 11 12  1  0  0  0  0
 11 38  1  0  0  0  0
 12 13  1  0  0  0  0
 12 27  2  0  0  0  0
 13 14  2  0  0  0  0
 13 39  1  0  0  0  0
 14 15  1  0  0  0  0
 14 25  1  0  0  0  0
 15 16  1  0  0  0  0
 16 17  1  0  0  0  0
 16 21  2  0  0  0  0
 17 18  2  0  0  0  0
 18 19  1  0  0  0  0
 18 40  1  0  0  0  0
 19 20  2  0  0  0  0
 20 21  1  0  0  0  0
 20 24  1  0  0  0  0
 21 22  1  0  0  0  0
 22 23  1  0  0  0  0
 22 41  1  0  0  0  0
 22 42  1  0  0  0  0
 23 24  1  0  0  0  0
 23 43  1  0  0  0  0
 24 44  1  0  0  0  0
 24 45  1  0  0  0  0
 25 26  2  0  0  0  0
 25 46  1  0  0  0  0
 26 27  1  0  0  0  0
 26 47  1  0  0  0  0
 28 29  1  0  0  0  0
 29 48  1  0  0  0  0
 30 31  1  0  0  0  0
 30 49  1  0  0  0  0
 30 50  1  0  0  0  0
 31 51  1  0  0  0  0
 31 52  1  0  0  0  0
M  END
$$$$
