CHEMBL490965
 OpenBabel04072215383D

 56 60  0  0  0  0  0  0  0  0999 V2000
    0.4379    3.0167   -2.5480 C   0  0  0  0  0  0  0  0  0  0  0  0
    0.1413    1.6784   -2.9873 N   0  0  0  0  0  0  0  0  0  0  0  0
    0.9922    0.8204   -3.6190 C   0  0  0  0  0  0  0  0  0  0  0  0
    0.4424   -0.3629   -3.7848 N   0  0  0  0  0  0  0  0  0  0  0  0
   -0.8272   -0.2473   -3.2695 C   0  0  0  0  0  0  0  0  0  0  0  0
   -1.8075   -1.3661   -3.2187 C   0  0  0  0  0  0  0  0  0  0  0  0
   -1.5035   -2.6658   -3.5551 C   0  0  0  0  0  0  0  0  0  0  0  0
   -2.6081   -3.5457   -3.3625 C   0  0  0  0  0  0  0  0  0  0  0  0
   -2.5865   -4.8903   -3.5757 N   0  0  0  0  0  0  0  0  0  0  0  0
   -3.7329   -5.5433   -3.3134 C   0  0  0  0  0  0  0  0  0  0  0  0
   -4.9061   -4.9534   -2.8864 C   0  0  0  0  0  0  0  0  0  0  0  0
   -4.9487   -3.5653   -2.7489 C   0  0  0  0  0  0  0  0  0  0  0  0
   -6.0985   -2.8773   -2.4179 O   0  0  0  0  0  0  0  0  0  0  0  0
   -7.2623   -3.2064   -3.0748 C   0  0  0  0  0  0  0  0  0  0  0  0
   -7.3001   -3.7870   -4.3448 C   0  0  0  0  0  0  0  0  0  0  0  0
   -8.5067   -4.2369   -4.8739 C   0  0  0  0  0  0  0  0  0  0  0  0
   -9.7020   -4.0381   -4.1827 C   0  0  0  0  0  0  0  0  0  0  0  0
  -10.9323   -4.5125   -4.6520 N   0  0  0  0  0  0  0  0  0  0  0  0
  -11.1393   -5.4557   -5.6261 C   0  0  0  0  0  0  0  0  0  0  0  0
  -10.2804   -6.1069   -6.2149 O   0  0  0  0  0  0  0  0  0  0  0  0
  -12.4551   -5.6927   -5.9430 N   0  0  0  0  0  0  0  0  0  0  0  0
  -13.5825   -5.1141   -5.3910 C   0  0  0  0  0  0  0  0  0  0  0  0
  -13.5479   -4.2833   -4.4835 O   0  0  0  0  0  0  0  0  0  0  0  0
  -14.8810   -5.5938   -6.0046 C   0  0  0  0  0  0  0  0  0  0  0  0
  -15.1979   -4.8380   -7.2667 C   0  0  0  0  0  0  0  0  0  0  0  0
  -14.9012   -5.3833   -8.5228 C   0  0  0  0  0  0  0  0  0  0  0  0
  -15.1144   -4.6355   -9.6811 C   0  0  0  0  0  0  0  0  0  0  0  0
  -15.6284   -3.3427   -9.5943 C   0  0  0  0  0  0  0  0  0  0  0  0
  -15.9407   -2.7984   -8.3505 C   0  0  0  0  0  0  0  0  0  0  0  0
  -15.7255   -3.5415   -7.1908 C   0  0  0  0  0  0  0  0  0  0  0  0
   -9.6819   -3.3261   -2.9765 C   0  0  0  0  0  0  0  0  0  0  0  0
   -8.4643   -2.9289   -2.4276 C   0  0  0  0  0  0  0  0  0  0  0  0
   -8.4675   -2.2883   -1.2475 F   0  0  0  0  0  0  0  0  0  0  0  0
   -3.7496   -2.8655   -2.9374 C   0  0  0  0  0  0  0  0  0  0  0  0
   -3.4285   -1.1933   -2.7268 S   0  0  0  0  0  0  0  0  0  0  0  0
   -1.0411    1.0265   -2.7910 C   0  0  0  0  0  0  0  0  0  0  0  0
    1.4123    3.3240   -2.9344 H   0  0  0  0  0  0  0  0  0  0  0  0
    0.4520    3.0178   -1.4545 H   0  0  0  0  0  0  0  0  0  0  0  0
   -0.3414    3.6876   -2.9178 H   0  0  0  0  0  0  0  0  0  0  0  0
    1.9944    1.0956   -3.9214 H   0  0  0  0  0  0  0  0  0  0  0  0
   -0.5267   -2.9861   -3.8954 H   0  0  0  0  0  0  0  0  0  0  0  0
   -3.6917   -6.6176   -3.4784 H   0  0  0  0  0  0  0  0  0  0  0  0
   -5.7841   -5.5659   -2.7090 H   0  0  0  0  0  0  0  0  0  0  0  0
   -6.3972   -3.9353   -4.9290 H   0  0  0  0  0  0  0  0  0  0  0  0
   -8.4838   -4.7366   -5.8369 H   0  0  0  0  0  0  0  0  0  0  0  0
  -11.7719   -4.1987   -4.1643 H   0  0  0  0  0  0  0  0  0  0  0  0
  -12.5549   -6.3574   -6.6961 H   0  0  0  0  0  0  0  0  0  0  0  0
  -15.6807   -5.4572   -5.2656 H   0  0  0  0  0  0  0  0  0  0  0  0
  -14.8230   -6.6721   -6.1923 H   0  0  0  0  0  0  0  0  0  0  0  0
  -14.4938   -6.3873   -8.6140 H   0  0  0  0  0  0  0  0  0  0  0  0
  -14.8716   -5.0572  -10.6532 H   0  0  0  0  0  0  0  0  0  0  0  0
  -15.7818   -2.7568  -10.4967 H   0  0  0  0  0  0  0  0  0  0  0  0
  -16.3404   -1.7899   -8.2820 H   0  0  0  0  0  0  0  0  0  0  0  0
  -15.9551   -3.0953   -6.2242 H   0  0  0  0  0  0  0  0  0  0  0  0
  -10.5969   -3.1146   -2.4293 H   0  0  0  0  0  0  0  0  0  0  0  0
   -1.8900    1.4911   -2.3091 H   0  0  0  0  0  0  0  0  0  0  0  0
  1  2  1  0  0  0  0
  1 37  1  0  0  0  0
  1 38  1  0  0  0  0
  1 39  1  0  0  0  0
  2  3  1  0  0  0  0
  2 36  1  0  0  0  0
  3  4  2  0  0  0  0
  3 40  1  0  0  0  0
  4  5  1  0  0  0  0
  5  6  1  0  0  0  0
  5 36  2  0  0  0  0
  6  7  2  0  0  0  0
  6 35  1  0  0  0  0
  7  8  1  0  0  0  0
  7 41  1  0  0  0  0
  8  9  1  0  0  0  0
  8 34  2  0  0  0  0
  9 10  2  0  0  0  0
 10 11  1  0  0  0  0
 10 42  1  0  0  0  0
 11 12  2  0  0  0  0
 11 43  1  0  0  0  0
 12 13  1  0  0  0  0
 12 34  1  0  0  0  0
 13 14  1  0  0  0  0
 14 15  1  0  0  0  0
 14 32  2  0  0  0  0
 15 16  2  0  0  0  0
 15 44  1  0  0  0  0
 16 17  1  0  0  0  0
 16 45  1  0  0  0  0
 17 18  1  0  0  0  0
 17 31  2  0  0  0  0
 18 19  1  0  0  0  0
 18 46  1  0  0  0  0
 19 20  2  0  0  0  0
 19 21  1  0  0  0  0
 21 22  1  0  0  0  0
 21 47  1  0  0  0  0
 22 23  2  0  0  0  0
 22 24  1  0  0  0  0
 24 25  1  0  0  0  0
 24 48  1  0  0  0  0
 24 49  1  0  0  0  0
 25 26  1  0  0  0  0
 25 30  2  0  0  0  0
 26 27  2  0  0  0  0
 26 50  1  0  0  0  0
 27 28  1  0  0  0  0
 27 51  1  0  0  0  0
 28 29  2  0  0  0  0
 28 52  1  0  0  0  0
 29 30  1  0  0  0  0
 29 53  1  0  0  0  0
 30 54  1  0  0  0  0
 31 32  1  0  0  0  0
 31 55  1  0  0  0  0
 32 33  1  0  0  0  0
 34 35  1  0  0  0  0
 36 56  1  0  0  0  0
M  END
$$$$
