CHEMBL3905552
 OpenBabel04072215373D

 81 85  0  0  0  0  0  0  0  0999 V2000
    2.3466   -1.4642   -0.5545 C   0  0  0  0  0  0  0  0  0  0  0  0
    2.3989   -0.0680   -0.2220 O   0  0  0  0  0  0  0  0  0  0  0  0
    3.1947    0.6528   -1.0770 C   0  0  0  0  0  0  0  0  0  0  0  0
    4.3801    0.0675   -1.5183 C   0  0  0  0  0  0  0  0  0  0  0  0
    4.9835    0.4979   -2.6995 C   0  0  0  0  0  0  0  0  0  0  0  0
    5.9672   -0.2575   -3.3599 C   0  0  0  0  0  0  0  0  0  0  0  0
    6.3879   -1.4965   -2.7938 N   0  0  0  0  0  0  0  0  0  0  0  0
    6.9819   -2.5750   -3.4814 C   0  0  0  0  0  0  0  0  0  0  0  0
    7.9403   -3.3600   -2.8450 C   0  0  0  0  0  0  0  0  0  0  0  0
    8.5986   -4.3830   -3.5378 C   0  0  0  0  0  0  0  0  0  0  0  0
    8.3133   -4.6648   -4.8792 C   0  0  0  0  0  0  0  0  0  0  0  0
    9.0573   -5.5933   -5.6616 N   0  0  0  0  0  0  0  0  0  0  0  0
   10.2548   -6.1676   -5.2691 C   0  0  0  0  0  0  0  0  0  0  0  0
   10.8000   -5.9287   -4.1993 O   0  0  0  0  0  0  0  0  0  0  0  0
   10.7988   -7.0376   -6.2102 N   0  0  0  0  0  0  0  0  0  0  0  0
   11.9423   -7.8435   -5.9291 C   0  0  0  0  0  0  0  0  0  0  0  0
   12.2715   -8.2028   -4.6222 C   0  0  0  0  0  0  0  0  0  0  0  0
   13.4587   -8.8729   -4.3305 C   0  0  0  0  0  0  0  0  0  0  0  0
   14.3340   -9.2551   -5.3490 C   0  0  0  0  0  0  0  0  0  0  0  0
   15.6341   -9.9015   -4.9576 C   0  0  0  0  0  0  0  0  0  0  0  0
   13.9670   -9.0062   -6.6867 C   0  0  0  0  0  0  0  0  0  0  0  0
   14.8220   -9.4536   -7.8427 C   0  0  0  0  0  0  0  0  0  0  0  0
   12.7693   -8.2872   -6.9619 C   0  0  0  0  0  0  0  0  0  0  0  0
    7.2553   -3.9739   -5.4726 C   0  0  0  0  0  0  0  0  0  0  0  0
    6.5953   -2.9458   -4.7752 C   0  0  0  0  0  0  0  0  0  0  0  0
    6.4746    0.1314   -4.5366 N   0  0  0  0  0  0  0  0  0  0  0  0
    5.9991    1.2746   -5.0397 C   0  0  0  0  0  0  0  0  0  0  0  0
    5.0534    2.0588   -4.4959 N   0  0  0  0  0  0  0  0  0  0  0  0
    4.5174    1.6525   -3.3329 C   0  0  0  0  0  0  0  0  0  0  0  0
    3.4565    2.3572   -2.7366 C   0  0  0  0  0  0  0  0  0  0  0  0
    2.7797    1.8815   -1.5962 C   0  0  0  0  0  0  0  0  0  0  0  0
    1.7213    2.6445   -1.1292 O   0  0  0  0  0  0  0  0  0  0  0  0
    1.5035    2.5252    0.2916 C   0  0  0  0  0  0  0  0  0  0  0  0
    0.4349    3.4852    0.8245 C   0  0  0  0  0  0  0  0  0  0  0  0
    0.2099    3.2974    2.3485 C   0  0  0  0  0  0  0  0  0  0  0  0
    1.3761    3.5722    3.2049 N   0  0  0  0  0  0  0  0  0  0  0  0
    1.8552    4.9609    3.1050 C   0  0  0  0  0  0  0  0  0  0  0  0
    3.1383    5.1457    3.9447 C   0  0  0  0  0  0  0  0  0  0  0  0
    2.9667    4.8924    5.3865 N   0  0  0  0  0  0  0  0  0  0  0  0
    2.2599    5.9869    6.0441 C   0  0  0  0  0  0  0  0  0  0  0  0
    2.2960    3.5896    5.5776 C   0  0  0  0  0  0  0  0  0  0  0  0
    1.0955    3.2816    4.6330 C   0  0  0  0  0  0  0  0  0  0  0  0
    1.3461   -1.8426   -0.3337 H   0  0  0  0  0  0  0  0  0  0  0  0
    3.0727   -2.0015    0.0635 H   0  0  0  0  0  0  0  0  0  0  0  0
    2.5387   -1.6697   -1.6179 H   0  0  0  0  0  0  0  0  0  0  0  0
    4.7543   -0.8175   -1.0124 H   0  0  0  0  0  0  0  0  0  0  0  0
    6.8312   -1.3185   -1.8975 H   0  0  0  0  0  0  0  0  0  0  0  0
    8.2286   -3.1716   -1.8142 H   0  0  0  0  0  0  0  0  0  0  0  0
    9.3506   -4.9313   -2.9808 H   0  0  0  0  0  0  0  0  0  0  0  0
    8.7464   -5.7481   -6.6096 H   0  0  0  0  0  0  0  0  0  0  0  0
   10.6040   -6.8477   -7.1830 H   0  0  0  0  0  0  0  0  0  0  0  0
   11.6294   -7.9528   -3.7847 H   0  0  0  0  0  0  0  0  0  0  0  0
   13.6954   -9.0712   -3.2871 H   0  0  0  0  0  0  0  0  0  0  0  0
   15.7373   -9.9637   -3.8674 H   0  0  0  0  0  0  0  0  0  0  0  0
   16.4763   -9.3061   -5.3242 H   0  0  0  0  0  0  0  0  0  0  0  0
   15.6951  -10.9197   -5.3508 H   0  0  0  0  0  0  0  0  0  0  0  0
   15.6589  -10.0849   -7.5287 H   0  0  0  0  0  0  0  0  0  0  0  0
   15.2372   -8.5876   -8.3661 H   0  0  0  0  0  0  0  0  0  0  0  0
   14.2243  -10.0486   -8.5411 H   0  0  0  0  0  0  0  0  0  0  0  0
   12.5242   -8.0647   -7.9970 H   0  0  0  0  0  0  0  0  0  0  0  0
    6.9412   -4.1893   -6.4895 H   0  0  0  0  0  0  0  0  0  0  0  0
    5.7820   -2.4148   -5.2639 H   0  0  0  0  0  0  0  0  0  0  0  0
    6.4129    1.5852   -5.9928 H   0  0  0  0  0  0  0  0  0  0  0  0
    3.1099    3.2696   -3.2216 H   0  0  0  0  0  0  0  0  0  0  0  0
    2.4506    2.7039    0.8135 H   0  0  0  0  0  0  0  0  0  0  0  0
    1.1204    1.5302    0.5183 H   0  0  0  0  0  0  0  0  0  0  0  0
   -0.5121    3.2797    0.3076 H   0  0  0  0  0  0  0  0  0  0  0  0
    0.6743    4.5250    0.5741 H   0  0  0  0  0  0  0  0  0  0  0  0
   -0.0799    2.2485    2.5025 H   0  0  0  0  0  0  0  0  0  0  0  0
   -0.6478    3.9046    2.6627 H   0  0  0  0  0  0  0  0  0  0  0  0
    1.0773    5.6643    3.4301 H   0  0  0  0  0  0  0  0  0  0  0  0
    2.1064    5.2112    2.0711 H   0  0  0  0  0  0  0  0  0  0  0  0
    3.5466    6.1499    3.7805 H   0  0  0  0  0  0  0  0  0  0  0  0
    3.9037    4.4529    3.5682 H   0  0  0  0  0  0  0  0  0  0  0  0
    2.7734    6.9382    5.8587 H   0  0  0  0  0  0  0  0  0  0  0  0
    2.2658    5.8456    7.1305 H   0  0  0  0  0  0  0  0  0  0  0  0
    1.2209    6.0911    5.7170 H   0  0  0  0  0  0  0  0  0  0  0  0
    1.9781    3.4783    6.6227 H   0  0  0  0  0  0  0  0  0  0  0  0
    3.0553    2.8120    5.4218 H   0  0  0  0  0  0  0  0  0  0  0  0
    0.2250    3.8576    4.9740 H   0  0  0  0  0  0  0  0  0  0  0  0
    0.8470    2.2192    4.7473 H   0  0  0  0  0  0  0  0  0  0  0  0
  1  2  1  0  0  0  0
  1 43  1  0  0  0  0
  1 44  1  0  0  0  0
  1 45  1  0  0  0  0
  2  3  1  0  0  0  0
  3  4  1  0  0  0  0
  3 31  2  0  0  0  0
  4  5  2  0  0  0  0
  4 46  1  0  0  0  0
  5  6  1  0  0  0  0
  5 29  1  0  0  0  0
  6  7  1  0  0  0  0
  6 26  2  0  0  0  0
  7  8  1  0  0  0  0
  7 47  1  0  0  0  0
  8  9  1  0  0  0  0
  8 25  2  0  0  0  0
  9 10  2  0  0  0  0
  9 48  1  0  0  0  0
 10 11  1  0  0  0  0
 10 49  1  0  0  0  0
 11 12  1  0  0  0  0
 11 24  2  0  0  0  0
 12 13  1  0  0  0  0
 12 50  1  0  0  0  0
 13 14  2  0  0  0  0
 13 15  1  0  0  0  0
 15 16  1  0  0  0  0
 15 51  1  0  0  0  0
 16 17  1  0  0  0  0
 16 23  2  0  0  0  0
 17 18  2  0  0  0  0
 17 52  1  0  0  0  0
 18 19  1  0  0  0  0
 18 53  1  0  0  0  0
 19 20  1  0  0  0  0
 19 21  2  0  0  0  0
 20 54  1  0  0  0  0
 20 55  1  0  0  0  0
 20 56  1  0  0  0  0
 21 22  1  0  0  0  0
 21 23  1  0  0  0  0
 22 57  1  0  0  0  0
 22 58  1  0  0  0  0
 22 59  1  0  0  0  0
 23 60  1  0  0  0  0
 24 25  1  0  0  0  0
 24 61  1  0  0  0  0
 25 62  1  0  0  0  0
 26 27  1  0  0  0  0
 27 28  2  0  0  0  0
 27 63  1  0  0  0  0
 28 29  1  0  0  0  0
 29 30  2  0  0  0  0
 30 31  1  0  0  0  0
 30 64  1  0  0  0  0
 31 32  1  0  0  0  0
 32 33  1  0  0  0  0
 33 34  1  0  0  0  0
 33 65  1  0  0  0  0
 33 66  1  0  0  0  0
 34 35  1  0  0  0  0
 34 67  1  0  0  0  0
 34 68  1  0  0  0  0
 35 36  1  0  0  0  0
 35 69  1  0  0  0  0
 35 70  1  0  0  0  0
 36 37  1  0  0  0  0
 36 42  1  0  0  0  0
 37 38  1  0  0  0  0
 37 71  1  0  0  0  0
 37 72  1  0  0  0  0
 38 39  1  0  0  0  0
 38 73  1  0  0  0  0
 38 74  1  0  0  0  0
 39 40  1  0  0  0  0
 39 41  1  0  0  0  0
 40 75  1  0  0  0  0
 40 76  1  0  0  0  0
 40 77  1  0  0  0  0
 41 42  1  0  0  0  0
 41 78  1  0  0  0  0
 41 79  1  0  0  0  0
 42 80  1  0  0  0  0
 42 81  1  0  0  0  0
M  END
$$$$
