CHEMBL1688353
 OpenBabel04072215363D

 50 54  0  0  0  0  0  0  0  0999 V2000
    1.3341   -0.2315    0.0696 C   0  0  0  0  0  0  0  0  0  0  0  0
    0.5078   -1.3405   -0.0202 C   0  0  0  0  0  0  0  0  0  0  0  0
   -0.8686   -1.1589   -0.1169 C   0  0  0  0  0  0  0  0  0  0  0  0
   -1.4463    0.1274   -0.0749 C   0  0  0  0  0  0  0  0  0  0  0  0
   -2.8899    0.2019   -0.3025 C   0  0  0  0  0  0  0  0  0  0  0  0
   -3.6219   -0.6689   -0.9769 N   0  0  0  0  0  0  0  0  0  0  0  0
   -4.9015   -0.1764   -1.0780 N   0  0  0  0  0  0  0  0  0  0  0  0
   -4.9486    0.9615   -0.4300 C   0  0  0  0  0  0  0  0  0  0  0  0
   -5.9677    1.8457   -0.3855 N   0  0  0  0  0  0  0  0  0  0  0  0
   -6.2409    2.7927    0.6134 C   0  0  0  0  0  0  0  0  0  0  0  0
   -5.9910    2.5484    1.9668 C   0  0  0  0  0  0  0  0  0  0  0  0
   -6.2182    3.5444    2.9183 C   0  0  0  0  0  0  0  0  0  0  0  0
   -6.6829    4.8000    2.5263 C   0  0  0  0  0  0  0  0  0  0  0  0
   -7.0080    5.0285    1.1963 C   0  0  0  0  0  0  0  0  0  0  0  0
   -6.7979    4.0258    0.2457 C   0  0  0  0  0  0  0  0  0  0  0  0
   -7.5650    6.1914    0.7514 O   0  0  0  0  0  0  0  0  0  0  0  0
   -7.2728    7.2975    1.5989 C   0  0  0  0  0  0  0  0  0  0  0  0
   -7.2801    7.0014    3.0950 C   0  0  0  0  0  0  0  0  0  0  0  0
   -6.7697    5.7375    3.5084 O   0  0  0  0  0  0  0  0  0  0  0  0
   -3.7177    1.2108    0.1189 N   0  0  0  0  0  0  0  0  0  0  0  0
   -0.6160    1.2543    0.1437 C   0  0  0  0  0  0  0  0  0  0  0  0
   -1.1684    2.5642    0.2470 N   0  0  0  0  0  0  0  0  0  0  0  0
   -0.3432    3.5298    0.9889 C   0  0  0  0  0  0  0  0  0  0  0  0
   -1.1840    4.6439    1.5620 C   0  0  0  0  0  0  0  0  0  0  0  0
   -2.2461    4.3697    2.4223 C   0  0  0  0  0  0  0  0  0  0  0  0
   -2.9265    5.4280    3.0131 C   0  0  0  0  0  0  0  0  0  0  0  0
   -2.6153    6.7291    2.8002 N   0  0  0  0  0  0  0  0  0  0  0  0
   -1.5819    6.9694    1.9781 C   0  0  0  0  0  0  0  0  0  0  0  0
   -0.8441    5.9881    1.3402 C   0  0  0  0  0  0  0  0  0  0  0  0
    0.7787    1.0492    0.1308 C   0  0  0  0  0  0  0  0  0  0  0  0
    2.4132   -0.3578    0.0906 H   0  0  0  0  0  0  0  0  0  0  0  0
    0.9278   -2.3422   -0.0448 H   0  0  0  0  0  0  0  0  0  0  0  0
   -1.5064   -2.0340   -0.2365 H   0  0  0  0  0  0  0  0  0  0  0  0
   -6.7874    1.5967   -0.9340 H   0  0  0  0  0  0  0  0  0  0  0  0
   -5.6447    1.5715    2.2968 H   0  0  0  0  0  0  0  0  0  0  0  0
   -6.0324    3.3400    3.9694 H   0  0  0  0  0  0  0  0  0  0  0  0
   -7.0313    4.2293   -0.7965 H   0  0  0  0  0  0  0  0  0  0  0  0
   -6.3158    7.7305    1.2873 H   0  0  0  0  0  0  0  0  0  0  0  0
   -8.0353    8.0611    1.3976 H   0  0  0  0  0  0  0  0  0  0  0  0
   -8.2923    7.0997    3.4985 H   0  0  0  0  0  0  0  0  0  0  0  0
   -6.6725    7.7665    3.5947 H   0  0  0  0  0  0  0  0  0  0  0  0
   -3.4291    2.0243    0.6360 H   0  0  0  0  0  0  0  0  0  0  0  0
   -1.3233    2.9127   -0.7030 H   0  0  0  0  0  0  0  0  0  0  0  0
    0.4279    3.9450    0.3260 H   0  0  0  0  0  0  0  0  0  0  0  0
    0.1650    3.0561    1.8399 H   0  0  0  0  0  0  0  0  0  0  0  0
   -2.5259    3.3479    2.6603 H   0  0  0  0  0  0  0  0  0  0  0  0
   -3.7445    5.2544    3.6978 H   0  0  0  0  0  0  0  0  0  0  0  0
   -1.3377    8.0255    1.8431 H   0  0  0  0  0  0  0  0  0  0  0  0
   -0.0089    6.2636    0.7064 H   0  0  0  0  0  0  0  0  0  0  0  0
    1.4725    1.8849    0.1672 H   0  0  0  0  0  0  0  0  0  0  0  0
  1  2  1  0  0  0  0
  1 30  2  0  0  0  0
  1 31  1  0  0  0  0
  2  3  2  0  0  0  0
  2 32  1  0  0  0  0
  3  4  1  0  0  0  0
  3 33  1  0  0  0  0
  4  5  1  0  0  0  0
  4 21  2  0  0  0  0
  5  6  2  0  0  0  0
  5 20  1  0  0  0  0
  6  7  1  0  0  0  0
  7  8  2  0  0  0  0
  8  9  1  0  0  0  0
  8 20  1  0  0  0  0
  9 10  1  0  0  0  0
  9 34  1  0  0  0  0
 10 11  1  0  0  0  0
 10 15  2  0  0  0  0
 11 12  2  0  0  0  0
 11 35  1  0  0  0  0
 12 13  1  0  0  0  0
 12 36  1  0  0  0  0
 13 14  2  0  0  0  0
 13 19  1  0  0  0  0
 14 15  1  0  0  0  0
 14 16  1  0  0  0  0
 15 37  1  0  0  0  0
 16 17  1  0  0  0  0
 17 18  1  0  0  0  0
 17 38  1  0  0  0  0
 17 39  1  0  0  0  0
 18 19  1  0  0  0  0
 18 40  1  0  0  0  0
 18 41  1  0  0  0  0
 20 42  1  0  0  0  0
 21 22  1  0  0  0  0
 21 30  1  0  0  0  0
 22 23  1  0  0  0  0
 22 43  1  0  0  0  0
 23 24  1  0  0  0  0
 23 44  1  0  0  0  0
 23 45  1  0  0  0  0
 24 25  1  0  0  0  0
 24 29  2  0  0  0  0
 25 26  2  0  0  0  0
 25 46  1  0  0  0  0
 26 27  1  0  0  0  0
 26 47  1  0  0  0  0
 27 28  2  0  0  0  0
 28 29  1  0  0  0  0
 28 48  1  0  0  0  0
 29 49  1  0  0  0  0
 30 50  1  0  0  0  0
M  END
$$$$
