CHEMBL602704
 OpenBabel04072215383D

 60 64  0  0  1  0  0  0  0  0999 V2000
   -0.7189    4.0037   -1.9122 C   0  0  0  0  0  0  0  0  0  0  0  0
   -0.7882    2.6799   -2.4795 N   0  0  0  0  0  0  0  0  0  0  0  0
    0.1596    2.0861   -3.2579 C   0  0  0  0  0  0  0  0  0  0  0  0
   -0.1720    0.8478   -3.5515 N   0  0  0  0  0  0  0  0  0  0  0  0
   -1.4042    0.6512   -2.9671 C   0  0  0  0  0  0  0  0  0  0  0  0
   -2.1543   -0.6278   -3.0449 C   0  0  0  0  0  0  0  0  0  0  0  0
   -1.6324   -1.7816   -3.5885 C   0  0  0  0  0  0  0  0  0  0  0  0
   -2.5405   -2.8766   -3.5122 C   0  0  0  0  0  0  0  0  0  0  0  0
   -2.2793   -4.1413   -3.9392 N   0  0  0  0  0  0  0  0  0  0  0  0
   -3.2698   -5.0384   -3.7543 C   0  0  0  0  0  0  0  0  0  0  0  0
   -4.5076   -4.7589   -3.2139 C   0  0  0  0  0  0  0  0  0  0  0  0
   -4.7933   -3.4459   -2.8495 C   0  0  0  0  0  0  0  0  0  0  0  0
   -6.0127   -3.0693   -2.3369 O   0  0  0  0  0  0  0  0  0  0  0  0
   -7.1559   -3.4535   -2.9976 C   0  0  0  0  0  0  0  0  0  0  0  0
   -7.2311   -3.7824   -4.3518 C   0  0  0  0  0  0  0  0  0  0  0  0
   -8.4518   -4.1773   -4.9098 C   0  0  0  0  0  0  0  0  0  0  0  0
   -9.6290   -4.1932   -4.1519 C   0  0  0  0  0  0  0  0  0  0  0  0
  -10.8184   -4.4911   -4.7831 N   0  0  0  0  0  0  0  0  0  0  0  0
  -12.1390   -3.9634   -4.3581 C   0  0  3  0  0  0  0  0  0  0  0  0
  -12.3020   -2.5353   -4.9171 C   0  0  0  0  0  0  0  0  0  0  0  0
  -13.5159   -1.8799   -4.3060 C   0  0  0  0  0  0  0  0  0  0  0  0
  -13.9819   -2.2967   -3.2475 O   0  0  0  0  0  0  0  0  0  0  0  0
  -14.0340   -0.8322   -5.0511 N   0  0  0  0  0  0  0  0  0  0  0  0
  -15.2432   -0.1971   -4.6928 C   0  0  0  0  0  0  0  0  0  0  0  0
  -15.5632    0.0823   -3.3585 C   0  0  0  0  0  0  0  0  0  0  0  0
  -16.8259    0.5721   -3.0254 C   0  0  0  0  0  0  0  0  0  0  0  0
  -17.7631    0.7750   -4.0291 C   0  0  0  0  0  0  0  0  0  0  0  0
  -18.9987    1.1777   -3.7065 F   0  0  0  0  0  0  0  0  0  0  0  0
  -17.4403    0.5545   -5.3641 C   0  0  0  0  0  0  0  0  0  0  0  0
  -16.1645    0.0966   -5.7027 C   0  0  0  0  0  0  0  0  0  0  0  0
  -13.3106   -4.8816   -4.8072 C   0  0  0  0  0  0  0  0  0  0  0  0
  -12.8424   -5.9525   -5.5026 F   0  0  0  0  0  0  0  0  0  0  0  0
  -14.0027   -5.3679   -3.7549 F   0  0  0  0  0  0  0  0  0  0  0  0
  -14.1804   -4.2500   -5.6294 F   0  0  0  0  0  0  0  0  0  0  0  0
   -9.5451   -3.8182   -2.8084 C   0  0  0  0  0  0  0  0  0  0  0  0
   -8.3246   -3.4624   -2.2427 C   0  0  0  0  0  0  0  0  0  0  0  0
   -8.2925   -3.1194   -0.9461 F   0  0  0  0  0  0  0  0  0  0  0  0
   -3.7615   -2.5022   -2.9523 C   0  0  0  0  0  0  0  0  0  0  0  0
   -3.7438   -0.8513   -2.4777 S   0  0  0  0  0  0  0  0  0  0  0  0
   -1.8097    1.7956   -2.3067 C   0  0  0  0  0  0  0  0  0  0  0  0
    0.1346    4.5399   -2.3288 H   0  0  0  0  0  0  0  0  0  0  0  0
   -0.6080    3.9024   -0.8289 H   0  0  0  0  0  0  0  0  0  0  0  0
   -1.6446    4.5354   -2.1507 H   0  0  0  0  0  0  0  0  0  0  0  0
    1.0672    2.5837   -3.5742 H   0  0  0  0  0  0  0  0  0  0  0  0
   -0.6349   -1.8513   -4.0029 H   0  0  0  0  0  0  0  0  0  0  0  0
   -3.0338   -6.0490   -4.0793 H   0  0  0  0  0  0  0  0  0  0  0  0
   -5.2452   -5.5463   -3.1021 H   0  0  0  0  0  0  0  0  0  0  0  0
   -6.3588   -3.7367   -4.9973 H   0  0  0  0  0  0  0  0  0  0  0  0
   -8.4777   -4.4474   -5.9636 H   0  0  0  0  0  0  0  0  0  0  0  0
  -10.7888   -5.0073   -5.6595 H   0  0  0  0  0  0  0  0  0  0  0  0
  -12.1795   -3.9400   -3.2648 H   0  0  0  0  0  0  0  0  0  0  0  0
  -12.3772   -2.5529   -6.0102 H   0  0  0  0  0  0  0  0  0  0  0  0
  -11.4382   -1.9130   -4.6535 H   0  0  0  0  0  0  0  0  0  0  0  0
  -13.7781   -0.7980   -6.0306 H   0  0  0  0  0  0  0  0  0  0  0  0
  -14.8402   -0.0886   -2.5642 H   0  0  0  0  0  0  0  0  0  0  0  0
  -17.0876    0.7661   -1.9905 H   0  0  0  0  0  0  0  0  0  0  0  0
  -18.1952    0.7104   -6.1281 H   0  0  0  0  0  0  0  0  0  0  0  0
  -15.9378   -0.1048   -6.7457 H   0  0  0  0  0  0  0  0  0  0  0  0
  -10.4095   -3.8230   -2.1547 H   0  0  0  0  0  0  0  0  0  0  0  0
   -2.6929    2.0275   -1.7302 H   0  0  0  0  0  0  0  0  0  0  0  0
  1  2  1  0  0  0  0
  1 41  1  0  0  0  0
  1 42  1  0  0  0  0
  1 43  1  0  0  0  0
  2  3  1  0  0  0  0
  2 40  1  0  0  0  0
  3  4  2  0  0  0  0
  3 44  1  0  0  0  0
  4  5  1  0  0  0  0
  5  6  1  0  0  0  0
  5 40  2  0  0  0  0
  6  7  2  0  0  0  0
  6 39  1  0  0  0  0
  7  8  1  0  0  0  0
  7 45  1  0  0  0  0
  8  9  1  0  0  0  0
  8 38  2  0  0  0  0
  9 10  2  0  0  0  0
 10 11  1  0  0  0  0
 10 46  1  0  0  0  0
 11 12  2  0  0  0  0
 11 47  1  0  0  0  0
 12 13  1  0  0  0  0
 12 38  1  0  0  0  0
 13 14  1  0  0  0  0
 14 15  1  0  0  0  0
 14 36  2  0  0  0  0
 15 16  2  0  0  0  0
 15 48  1  0  0  0  0
 16 17  1  0  0  0  0
 16 49  1  0  0  0  0
 17 18  1  0  0  0  0
 17 35  2  0  0  0  0
 18 19  1  0  0  0  0
 18 50  1  0  0  0  0
 19 20  1  0  0  0  0
 19 31  1  0  0  0  0
 19 51  1  0  0  0  0
 20 21  1  0  0  0  0
 20 52  1  0  0  0  0
 20 53  1  0  0  0  0
 21 22  2  0  0  0  0
 21 23  1  0  0  0  0
 23 24  1  0  0  0  0
 23 54  1  0  0  0  0
 24 25  1  0  0  0  0
 24 30  2  0  0  0  0
 25 26  2  0  0  0  0
 25 55  1  0  0  0  0
 26 27  1  0  0  0  0
 26 56  1  0  0  0  0
 27 28  1  0  0  0  0
 27 29  2  0  0  0  0
 29 30  1  0  0  0  0
 29 57  1  0  0  0  0
 30 58  1  0  0  0  0
 31 32  1  0  0  0  0
 31 33  1  0  0  0  0
 31 34  1  0  0  0  0
 35 36  1  0  0  0  0
 35 59  1  0  0  0  0
 36 37  1  0  0  0  0
 38 39  1  0  0  0  0
 40 60  1  0  0  0  0
M  END
$$$$
