CHEMBL212183
 OpenBabel04072215363D

 54 57  0  0  0  0  0  0  0  0999 V2000
    1.0120    0.5224    0.3977 C   0  0  0  0  0  0  0  0  0  0  0  0
    2.1620   -0.0339   -0.2747 N   0  0  0  0  0  0  0  0  0  0  0  0
    2.8396    0.8489   -1.0966 C   0  0  0  0  0  0  0  0  0  0  0  0
    3.4478    0.2946   -2.1533 N   0  0  0  0  0  0  0  0  0  0  0  0
    4.1714    1.1157   -2.9226 C   0  0  0  0  0  0  0  0  0  0  0  0
    4.3052    2.4734   -2.6864 C   0  0  0  0  0  0  0  0  0  0  0  0
    5.1113    3.3241   -3.4663 C   0  0  0  0  0  0  0  0  0  0  0  0
    5.1657    4.7085   -3.2446 C   0  0  0  0  0  0  0  0  0  0  0  0
    5.9925    5.6278   -4.0823 C   0  0  0  0  0  0  0  0  0  0  0  0
    6.5971    6.7546   -3.4618 C   0  0  0  0  0  0  0  0  0  0  0  0
    7.3347    7.6977   -4.1918 C   0  0  0  0  0  0  0  0  0  0  0  0
    7.8633    8.9613   -3.6117 C   0  0  0  0  0  0  0  0  0  0  0  0
    7.9594    9.9170   -4.3752 O   0  0  0  0  0  0  0  0  0  0  0  0
    8.2626    8.9471   -2.2779 N   0  0  0  0  0  0  0  0  0  0  0  0
    8.8104   10.0637   -1.5790 C   0  0  0  0  0  0  0  0  0  0  0  0
    8.6364   11.3619   -2.0646 C   0  0  0  0  0  0  0  0  0  0  0  0
    9.2024   12.4580   -1.4240 C   0  0  0  0  0  0  0  0  0  0  0  0
    9.9519   12.2915   -0.2629 C   0  0  0  0  0  0  0  0  0  0  0  0
   10.5936   13.7488    0.4074 Cl  0  0  0  0  0  0  0  0  0  0  0  0
   10.1394   11.0112    0.2868 C   0  0  0  0  0  0  0  0  0  0  0  0
   10.9554   10.8124    1.5493 C   0  0  0  0  0  0  0  0  0  0  0  0
   11.5227   11.9173    2.1004 F   0  0  0  0  0  0  0  0  0  0  0  0
   10.2092   10.2644    2.5530 F   0  0  0  0  0  0  0  0  0  0  0  0
   11.9979    9.9521    1.3527 F   0  0  0  0  0  0  0  0  0  0  0  0
    9.5459    9.8787   -0.3780 C   0  0  0  0  0  0  0  0  0  0  0  0
    9.7229    8.4764    0.1657 C   0  0  0  0  0  0  0  0  0  0  0  0
    7.5097    7.5070   -5.5612 C   0  0  0  0  0  0  0  0  0  0  0  0
    6.9566    6.4050   -6.1952 C   0  0  0  0  0  0  0  0  0  0  0  0
    6.1793    5.4702   -5.4847 C   0  0  0  0  0  0  0  0  0  0  0  0
    5.5735    4.3619   -6.3108 C   0  0  0  0  0  0  0  0  0  0  0  0
    4.4049    5.1834   -2.1617 C   0  0  0  0  0  0  0  0  0  0  0  0
    3.6515    4.3198   -1.3510 C   0  0  0  0  0  0  0  0  0  0  0  0
    3.5884    2.9603   -1.6010 C   0  0  0  0  0  0  0  0  0  0  0  0
    2.8661    2.1577   -0.8099 N   0  0  0  0  0  0  0  0  0  0  0  0
    0.5300   -0.2619    0.9866 H   0  0  0  0  0  0  0  0  0  0  0  0
    0.2762    0.9080   -0.3168 H   0  0  0  0  0  0  0  0  0  0  0  0
    1.2971    1.3217    1.0919 H   0  0  0  0  0  0  0  0  0  0  0  0
    1.9981   -0.8686   -0.8253 H   0  0  0  0  0  0  0  0  0  0  0  0
    4.6573    0.6384   -3.7721 H   0  0  0  0  0  0  0  0  0  0  0  0
    5.7140    2.8608   -4.2378 H   0  0  0  0  0  0  0  0  0  0  0  0
    6.4504    6.9273   -2.3976 H   0  0  0  0  0  0  0  0  0  0  0  0
    8.3182    8.0442   -1.8279 H   0  0  0  0  0  0  0  0  0  0  0  0
    8.0458   11.5708   -2.9516 H   0  0  0  0  0  0  0  0  0  0  0  0
    9.0509   13.4475   -1.8517 H   0  0  0  0  0  0  0  0  0  0  0  0
   10.3186    8.4231    1.0778 H   0  0  0  0  0  0  0  0  0  0  0  0
   10.2296    7.8499   -0.5763 H   0  0  0  0  0  0  0  0  0  0  0  0
    8.7465    8.0424    0.4058 H   0  0  0  0  0  0  0  0  0  0  0  0
    8.0634    8.2361   -6.1504 H   0  0  0  0  0  0  0  0  0  0  0  0
    7.1044    6.2964   -7.2691 H   0  0  0  0  0  0  0  0  0  0  0  0
    5.6975    4.5401   -7.3849 H   0  0  0  0  0  0  0  0  0  0  0  0
    4.4985    4.2790   -6.1263 H   0  0  0  0  0  0  0  0  0  0  0  0
    6.0774    3.4109   -6.1162 H   0  0  0  0  0  0  0  0  0  0  0  0
    4.3801    6.2441   -1.9155 H   0  0  0  0  0  0  0  0  0  0  0  0
    3.0998    4.7254   -0.5065 H   0  0  0  0  0  0  0  0  0  0  0  0
  1  2  1  0  0  0  0
  1 35  1  0  0  0  0
  1 36  1  0  0  0  0
  1 37  1  0  0  0  0
  2  3  1  0  0  0  0
  2 38  1  0  0  0  0
  3  4  1  0  0  0  0
  3 34  2  0  0  0  0
  4  5  2  0  0  0  0
  5  6  1  0  0  0  0
  5 39  1  0  0  0  0
  6  7  1  0  0  0  0
  6 33  2  0  0  0  0
  7  8  2  0  0  0  0
  7 40  1  0  0  0  0
  8  9  1  0  0  0  0
  8 31  1  0  0  0  0
  9 10  1  0  0  0  0
  9 29  2  0  0  0  0
 10 11  2  0  0  0  0
 10 41  1  0  0  0  0
 11 12  1  0  0  0  0
 11 27  1  0  0  0  0
 12 13  2  0  0  0  0
 12 14  1  0  0  0  0
 14 15  1  0  0  0  0
 14 42  1  0  0  0  0
 15 16  1  0  0  0  0
 15 25  2  0  0  0  0
 16 17  2  0  0  0  0
 16 43  1  0  0  0  0
 17 18  1  0  0  0  0
 17 44  1  0  0  0  0
 18 19  1  0  0  0  0
 18 20  2  0  0  0  0
 20 21  1  0  0  0  0
 20 25  1  0  0  0  0
 21 22  1  0  0  0  0
 21 23  1  0  0  0  0
 21 24  1  0  0  0  0
 25 26  1  0  0  0  0
 26 45  1  0  0  0  0
 26 46  1  0  0  0  0
 26 47  1  0  0  0  0
 27 28  2  0  0  0  0
 27 48  1  0  0  0  0
 28 29  1  0  0  0  0
 28 49  1  0  0  0  0
 29 30  1  0  0  0  0
 30 50  1  0  0  0  0
 30 51  1  0  0  0  0
 30 52  1  0  0  0  0
 31 32  2  0  0  0  0
 31 53  1  0  0  0  0
 32 33  1  0  0  0  0
 32 54  1  0  0  0  0
 33 34  1  0  0  0  0
M  END
$$$$
