CHEMBL4578452
 OpenBabel04072215383D

 66 71  0  0  0  0  0  0  0  0999 V2000
    1.3325   -0.1105   -0.0809 C   0  0  0  0  0  0  0  0  0  0  0  0
    2.8337    0.1262   -0.1859 C   0  0  0  0  0  0  0  0  0  0  0  0
    3.3296    0.8506    0.9983 N   0  0  0  0  0  0  0  0  0  0  0  0
    3.3390    2.2353    1.0150 C   0  0  0  0  0  0  0  0  0  0  0  0
    3.5677    3.0169    2.0773 C   0  0  0  0  0  0  0  0  0  0  0  0
    3.5499    4.4748    1.9437 C   0  0  0  0  0  0  0  0  0  0  0  0
    2.3503    5.1818    2.1082 C   0  0  0  0  0  0  0  0  0  0  0  0
    2.3256    6.5659    1.9342 C   0  0  0  0  0  0  0  0  0  0  0  0
    3.4985    7.2363    1.6044 C   0  0  0  0  0  0  0  0  0  0  0  0
    3.4740    8.5645    1.4340 F   0  0  0  0  0  0  0  0  0  0  0  0
    4.6976    6.5504    1.4469 C   0  0  0  0  0  0  0  0  0  0  0  0
    4.7256    5.1655    1.6155 C   0  0  0  0  0  0  0  0  0  0  0  0
    3.7745    2.3417    3.3832 C   0  0  0  0  0  0  0  0  0  0  0  0
    3.7953    2.9868    4.4290 O   0  0  0  0  0  0  0  0  0  0  0  0
    3.9184    0.8614    3.3776 C   0  0  0  0  0  0  0  0  0  0  0  0
    4.2531    0.1728    4.5552 C   0  0  0  0  0  0  0  0  0  0  0  0
    4.4433    0.8604    5.7704 N   0  0  0  0  0  0  0  0  0  0  0  0
    4.8480    0.3662    7.0194 C   0  0  0  0  0  0  0  0  0  0  0  0
    4.3775    0.9863    8.1829 C   0  0  0  0  0  0  0  0  0  0  0  0
    4.7652    0.5289    9.4450 C   0  0  0  0  0  0  0  0  0  0  0  0
    5.5828   -0.6010    9.5684 C   0  0  0  0  0  0  0  0  0  0  0  0
    5.9578   -1.1524   10.7783 O   0  0  0  0  0  0  0  0  0  0  0  0
    5.0600   -1.1155   11.8256 C   0  0  0  0  0  0  0  0  0  0  0  0
    3.6819   -1.1786   11.6410 C   0  0  0  0  0  0  0  0  0  0  0  0
    2.8798   -0.9920   12.7395 C   0  0  0  0  0  0  0  0  0  0  0  0
    3.3613   -0.8250   13.9798 N   0  0  0  0  0  0  0  0  0  0  0  0
    4.6892   -0.8537   14.1722 C   0  0  0  0  0  0  0  0  0  0  0  0
    5.1875   -0.6872   15.4741 N   0  0  0  0  0  0  0  0  0  0  0  0
    4.3920   -0.4445   16.5775 C   0  0  0  0  0  0  0  0  0  0  0  0
    3.1772   -0.3217   16.6178 O   0  0  0  0  0  0  0  0  0  0  0  0
    5.1794   -0.2850   17.8436 C   0  0  0  0  0  0  0  0  0  0  0  0
    4.4996   -0.4207   19.1881 C   0  0  0  0  0  0  0  0  0  0  0  0
    4.9413    0.9315   18.7092 C   0  0  0  0  0  0  0  0  0  0  0  0
    5.5821   -1.0125   13.1171 C   0  0  0  0  0  0  0  0  0  0  0  0
    6.0765   -1.1981    8.4129 C   0  0  0  0  0  0  0  0  0  0  0  0
    6.9056   -2.2498    8.4932 F   0  0  0  0  0  0  0  0  0  0  0  0
    5.7161   -0.7229    7.1550 C   0  0  0  0  0  0  0  0  0  0  0  0
    4.4323   -1.1677    4.5437 N   0  0  0  0  0  0  0  0  0  0  0  0
    4.2388   -1.8376    3.3984 C   0  0  0  0  0  0  0  0  0  0  0  0
    3.8399   -1.2381    2.2203 C   0  0  0  0  0  0  0  0  0  0  0  0
    3.6813    0.1499    2.1770 C   0  0  0  0  0  0  0  0  0  0  0  0
    0.9695   -0.6418   -0.9662 H   0  0  0  0  0  0  0  0  0  0  0  0
    0.7900    0.8389   -0.0118 H   0  0  0  0  0  0  0  0  0  0  0  0
    1.0781   -0.7045    0.8025 H   0  0  0  0  0  0  0  0  0  0  0  0
    3.0289    0.7205   -1.0879 H   0  0  0  0  0  0  0  0  0  0  0  0
    3.3646   -0.8147   -0.3565 H   0  0  0  0  0  0  0  0  0  0  0  0
    3.1308    2.6834    0.0450 H   0  0  0  0  0  0  0  0  0  0  0  0
    1.4354    4.6580    2.3775 H   0  0  0  0  0  0  0  0  0  0  0  0
    1.4023    7.1226    2.0561 H   0  0  0  0  0  0  0  0  0  0  0  0
    5.6006    7.0986    1.1984 H   0  0  0  0  0  0  0  0  0  0  0  0
    5.6660    4.6313    1.4955 H   0  0  0  0  0  0  0  0  0  0  0  0
    3.8957    1.7227    5.8022 H   0  0  0  0  0  0  0  0  0  0  0  0
    3.6906    1.8280    8.1190 H   0  0  0  0  0  0  0  0  0  0  0  0
    4.3879    1.0503   10.3203 H   0  0  0  0  0  0  0  0  0  0  0  0
    3.2299   -1.3121   10.6659 H   0  0  0  0  0  0  0  0  0  0  0  0
    1.7994   -0.9492   12.6523 H   0  0  0  0  0  0  0  0  0  0  0  0
    6.1824   -0.7279   15.5929 H   0  0  0  0  0  0  0  0  0  0  0  0
    6.1987   -0.6598   17.8064 H   0  0  0  0  0  0  0  0  0  0  0  0
    5.0529   -0.8811   19.9971 H   0  0  0  0  0  0  0  0  0  0  0  0
    3.4336   -0.6250   19.2099 H   0  0  0  0  0  0  0  0  0  0  0  0
    5.7949    1.3918   19.1901 H   0  0  0  0  0  0  0  0  0  0  0  0
    4.1634    1.6307   18.4169 H   0  0  0  0  0  0  0  0  0  0  0  0
    6.6554   -1.0293   13.2692 H   0  0  0  0  0  0  0  0  0  0  0  0
    6.1323   -1.2146    6.2822 H   0  0  0  0  0  0  0  0  0  0  0  0
    4.4224   -2.9068    3.4572 H   0  0  0  0  0  0  0  0  0  0  0  0
    3.6865   -1.8799    1.3637 H   0  0  0  0  0  0  0  0  0  0  0  0
  1  2  1  0  0  0  0
  1 42  1  0  0  0  0
  1 43  1  0  0  0  0
  1 44  1  0  0  0  0
  2  3  1  0  0  0  0
  2 45  1  0  0  0  0
  2 46  1  0  0  0  0
  3  4  1  0  0  0  0
  3 41  1  0  0  0  0
  4  5  2  0  0  0  0
  4 47  1  0  0  0  0
  5  6  1  0  0  0  0
  5 13  1  0  0  0  0
  6  7  1  0  0  0  0
  6 12  2  0  0  0  0
  7  8  2  0  0  0  0
  7 48  1  0  0  0  0
  8  9  1  0  0  0  0
  8 49  1  0  0  0  0
  9 10  1  0  0  0  0
  9 11  2  0  0  0  0
 11 12  1  0  0  0  0
 11 50  1  0  0  0  0
 12 51  1  0  0  0  0
 13 14  2  0  0  0  0
 13 15  1  0  0  0  0
 15 16  1  0  0  0  0
 15 41  2  0  0  0  0
 16 17  1  0  0  0  0
 16 38  2  0  0  0  0
 17 18  1  0  0  0  0
 17 52  1  0  0  0  0
 18 19  1  0  0  0  0
 18 37  2  0  0  0  0
 19 20  2  0  0  0  0
 19 53  1  0  0  0  0
 20 21  1  0  0  0  0
 20 54  1  0  0  0  0
 21 22  1  0  0  0  0
 21 35  2  0  0  0  0
 22 23  1  0  0  0  0
 23 24  1  0  0  0  0
 23 34  2  0  0  0  0
 24 25  2  0  0  0  0
 24 55  1  0  0  0  0
 25 26  1  0  0  0  0
 25 56  1  0  0  0  0
 26 27  2  0  0  0  0
 27 28  1  0  0  0  0
 27 34  1  0  0  0  0
 28 29  1  0  0  0  0
 28 57  1  0  0  0  0
 29 30  2  0  0  0  0
 29 31  1  0  0  0  0
 31 32  1  0  0  0  0
 31 33  1  0  0  0  0
 31 58  1  0  0  0  0
 32 33  1  0  0  0  0
 32 59  1  0  0  0  0
 32 60  1  0  0  0  0
 33 61  1  0  0  0  0
 33 62  1  0  0  0  0
 34 63  1  0  0  0  0
 35 36  1  0  0  0  0
 35 37  1  0  0  0  0
 37 64  1  0  0  0  0
 38 39  1  0  0  0  0
 39 40  2  0  0  0  0
 39 65  1  0  0  0  0
 40 41  1  0  0  0  0
 40 66  1  0  0  0  0
M  END
$$$$
