CHEMBL271849
 OpenBabel04072215363D

 62 68  0  0  0  0  0  0  0  0999 V2000
    3.0215    1.2632    0.4921 C   0  0  0  0  0  0  0  0  0  0  0  0
    2.8799   -0.1158    1.1345 C   0  0  0  0  0  0  0  0  0  0  0  0
    1.4151   -0.5671    1.0475 C   0  0  0  0  0  0  0  0  0  0  0  0
    3.7808   -1.1646    0.4687 C   0  0  0  0  0  0  0  0  0  0  0  0
    5.2102   -0.8614    0.4132 N   0  0  0  0  0  0  0  0  0  0  0  0
    5.9145   -0.7125   -0.8132 C   0  0  0  0  0  0  0  0  0  0  0  0
    5.4807   -0.5658   -2.1492 C   0  0  0  0  0  0  0  0  0  0  0  0
    6.4469   -0.5685   -3.1788 C   0  0  0  0  0  0  0  0  0  0  0  0
    7.8122   -0.6608   -2.9084 C   0  0  0  0  0  0  0  0  0  0  0  0
    8.8920   -0.8084   -3.9107 C   0  0  0  0  0  0  0  0  0  0  0  0
    9.8670   -1.4981   -3.6057 O   0  0  0  0  0  0  0  0  0  0  0  0
    8.8228   -0.1703   -5.2221 C   0  0  0  0  0  0  0  0  0  0  0  0
    8.0763    0.9844   -5.6258 C   0  0  0  0  0  0  0  0  0  0  0  0
    8.2975    1.3244   -6.9432 C   0  0  0  0  0  0  0  0  0  0  0  0
    9.4121    0.2772   -7.7029 S   0  0  0  0  0  0  0  0  0  0  0  0
    9.6139   -0.6225   -6.2679 C   0  0  0  0  0  0  0  0  0  0  0  0
    8.2208   -0.7883   -1.5797 C   0  0  0  0  0  0  0  0  0  0  0  0
    7.2830   -0.8687   -0.5452 C   0  0  0  0  0  0  0  0  0  0  0  0
    7.2976   -1.2139    0.7888 C   0  0  0  0  0  0  0  0  0  0  0  0
    8.4066   -1.8285    1.3957 C   0  0  0  0  0  0  0  0  0  0  0  0
    8.1345   -2.5201    2.5925 C   0  0  0  0  0  0  0  0  0  0  0  0
    6.8851   -2.5243    3.2259 C   0  0  0  0  0  0  0  0  0  0  0  0
    6.0395   -1.4333    2.8306 C   0  0  0  0  0  0  0  0  0  0  0  0
    6.1132   -1.1089    1.4573 C   0  0  0  0  0  0  0  0  0  0  0  0
    5.8712   -0.3519    3.9674 C   0  0  0  0  0  0  0  0  0  0  0  0
    6.8925   -0.5288    5.1673 C   0  0  0  0  0  0  0  0  0  0  0  0
    6.7862   -1.9468    5.6042 C   0  0  0  0  0  0  0  0  0  0  0  0
    6.3570   -2.4011    6.7806 N   0  0  0  0  0  0  0  0  0  0  0  0
    6.0038   -3.6790    6.4912 N   0  0  0  0  0  0  0  0  0  0  0  0
    5.3049   -4.4625    7.4812 C   0  0  0  0  0  0  0  0  0  0  0  0
    6.1352   -3.9984    5.1605 C   0  0  0  0  0  0  0  0  0  0  0  0
    6.7917   -2.9310    4.6037 C   0  0  0  0  0  0  0  0  0  0  0  0
    9.3874   -3.0510    3.0778 C   0  0  0  0  0  0  0  0  0  0  0  0
    9.7109   -3.6638    4.0854 O   0  0  0  0  0  0  0  0  0  0  0  0
   10.3196   -2.6551    2.1254 N   0  0  0  0  0  0  0  0  0  0  0  0
    9.8062   -1.9202    0.9953 C   0  0  0  0  0  0  0  0  0  0  0  0
    2.3525    1.9826    0.9769 H   0  0  0  0  0  0  0  0  0  0  0  0
    2.7691    1.2343   -0.5733 H   0  0  0  0  0  0  0  0  0  0  0  0
    4.0418    1.6438    0.5936 H   0  0  0  0  0  0  0  0  0  0  0  0
    3.1504   -0.0339    2.1937 H   0  0  0  0  0  0  0  0  0  0  0  0
    1.0902   -0.6715    0.0047 H   0  0  0  0  0  0  0  0  0  0  0  0
    0.7507    0.1575    1.5304 H   0  0  0  0  0  0  0  0  0  0  0  0
    1.2691   -1.5343    1.5406 H   0  0  0  0  0  0  0  0  0  0  0  0
    3.4355   -1.3436   -0.5571 H   0  0  0  0  0  0  0  0  0  0  0  0
    3.6838   -2.1298    0.9831 H   0  0  0  0  0  0  0  0  0  0  0  0
    4.4229   -0.5222   -2.4024 H   0  0  0  0  0  0  0  0  0  0  0  0
    6.0928   -0.5577   -4.2188 H   0  0  0  0  0  0  0  0  0  0  0  0
    7.4236    1.5599   -4.9815 H   0  0  0  0  0  0  0  0  0  0  0  0
    7.8700    2.1478   -7.4977 H   0  0  0  0  0  0  0  0  0  0  0  0
   10.3088   -1.4543   -6.2441 H   0  0  0  0  0  0  0  0  0  0  0  0
    9.2812   -0.8862   -1.3647 H   0  0  0  0  0  0  0  0  0  0  0  0
    4.8519   -0.4218    4.3607 H   0  0  0  0  0  0  0  0  0  0  0  0
    6.0218    0.6465    3.5417 H   0  0  0  0  0  0  0  0  0  0  0  0
    6.7049    0.1717    5.9841 H   0  0  0  0  0  0  0  0  0  0  0  0
    7.9192   -0.3496    4.8100 H   0  0  0  0  0  0  0  0  0  0  0  0
    5.4530   -4.0167    8.4674 H   0  0  0  0  0  0  0  0  0  0  0  0
    5.6988   -5.4809    7.4662 H   0  0  0  0  0  0  0  0  0  0  0  0
    4.2413   -4.4581    7.2247 H   0  0  0  0  0  0  0  0  0  0  0  0
    5.6962   -4.8935    4.7420 H   0  0  0  0  0  0  0  0  0  0  0  0
   11.2994   -2.8353    2.2869 H   0  0  0  0  0  0  0  0  0  0  0  0
    9.9531   -2.5133    0.0919 H   0  0  0  0  0  0  0  0  0  0  0  0
   10.2902   -0.9410    0.9399 H   0  0  0  0  0  0  0  0  0  0  0  0
  1  2  1  0  0  0  0
  1 37  1  0  0  0  0
  1 38  1  0  0  0  0
  1 39  1  0  0  0  0
  2  3  1  0  0  0  0
  2  4  1  0  0  0  0
  2 40  1  0  0  0  0
  3 41  1  0  0  0  0
  3 42  1  0  0  0  0
  3 43  1  0  0  0  0
  4  5  1  0  0  0  0
  4 44  1  0  0  0  0
  4 45  1  0  0  0  0
  5  6  1  0  0  0  0
  5 24  1  0  0  0  0
  6  7  1  0  0  0  0
  6 18  2  0  0  0  0
  7  8  2  0  0  0  0
  7 46  1  0  0  0  0
  8  9  1  0  0  0  0
  8 47  1  0  0  0  0
  9 10  1  0  0  0  0
  9 17  2  0  0  0  0
 10 11  2  0  0  0  0
 10 12  1  0  0  0  0
 12 13  1  0  0  0  0
 12 16  2  0  0  0  0
 13 14  2  0  0  0  0
 13 48  1  0  0  0  0
 14 15  1  0  0  0  0
 14 49  1  0  0  0  0
 15 16  1  0  0  0  0
 16 50  1  0  0  0  0
 17 18  1  0  0  0  0
 17 51  1  0  0  0  0
 18 19  1  0  0  0  0
 19 20  1  0  0  0  0
 19 24  2  0  0  0  0
 20 21  2  0  0  0  0
 20 36  1  0  0  0  0
 21 22  1  0  0  0  0
 21 33  1  0  0  0  0
 22 23  2  0  0  0  0
 22 32  1  0  0  0  0
 23 24  1  0  0  0  0
 23 25  1  0  0  0  0
 25 26  1  0  0  0  0
 25 52  1  0  0  0  0
 25 53  1  0  0  0  0
 26 27  1  0  0  0  0
 26 54  1  0  0  0  0
 26 55  1  0  0  0  0
 27 28  2  0  0  0  0
 27 32  1  0  0  0  0
 28 29  1  0  0  0  0
 29 30  1  0  0  0  0
 29 31  1  0  0  0  0
 30 56  1  0  0  0  0
 30 57  1  0  0  0  0
 30 58  1  0  0  0  0
 31 32  2  0  0  0  0
 31 59  1  0  0  0  0
 33 34  2  0  0  0  0
 33 35  1  0  0  0  0
 35 36  1  0  0  0  0
 35 60  1  0  0  0  0
 36 61  1  0  0  0  0
 36 62  1  0  0  0  0
M  END
$$$$
