CHEMBL4567879
 OpenBabel04072215383D

 44 46  0  0  0  0  0  0  0  0999 V2000
    2.4591   -0.6945   -1.4270 O   0  0  0  0  0  0  0  0  0  0  0  0
    2.1956    0.2401   -0.6834 C   0  0  0  0  0  0  0  0  0  0  0  0
    0.8981    0.4771   -0.2724 N   0  0  0  0  0  0  0  0  0  0  0  0
   -0.1779   -0.3180   -0.8355 C   0  0  0  0  0  0  0  0  0  0  0  0
   -1.3835   -0.3690    0.0682 C   0  0  0  0  0  0  0  0  0  0  0  0
   -2.6207    0.1512   -0.3386 C   0  0  0  0  0  0  0  0  0  0  0  0
   -3.7402    0.0472    0.4913 C   0  0  0  0  0  0  0  0  0  0  0  0
   -3.6364   -0.5797    1.7321 C   0  0  0  0  0  0  0  0  0  0  0  0
   -2.4135   -1.1030    2.1457 C   0  0  0  0  0  0  0  0  0  0  0  0
   -1.2938   -0.9984    1.3189 C   0  0  0  0  0  0  0  0  0  0  0  0
    3.0920    1.1508   -0.1445 N   0  0  0  0  0  0  0  0  0  0  0  0
    4.5021    1.1608   -0.3246 C   0  0  0  0  0  0  0  0  0  0  0  0
    5.1655    0.1563   -1.0327 C   0  0  0  0  0  0  0  0  0  0  0  0
    6.5488    0.1700   -1.1601 C   0  0  0  0  0  0  0  0  0  0  0  0
    7.2862    1.2156   -0.6206 C   0  0  0  0  0  0  0  0  0  0  0  0
    6.6595    2.2805    0.0311 C   0  0  0  0  0  0  0  0  0  0  0  0
    7.3958    3.4157    0.4667 N   0  0  0  0  0  0  0  0  0  0  0  0
    8.6814    3.7427    0.0358 C   0  0  0  0  0  0  0  0  0  0  0  0
    9.3649    3.1017   -0.7602 O   0  0  0  0  0  0  0  0  0  0  0  0
    9.2575    5.0211    0.5592 C   0  0  0  0  0  0  0  0  0  0  0  0
   10.5291    5.4008    0.1258 C   0  0  0  0  0  0  0  0  0  0  0  0
   11.0694    6.5913    0.5959 C   0  0  0  0  0  0  0  0  0  0  0  0
   10.3250    7.3608    1.4823 C   0  0  0  0  0  0  0  0  0  0  0  0
    9.0686    6.9051    1.8606 C   0  0  0  0  0  0  0  0  0  0  0  0
    8.4999    5.7531    1.4224 N   0  0  0  0  0  0  0  0  0  0  0  0
    5.2640    2.2198    0.2230 C   0  0  0  0  0  0  0  0  0  0  0  0
    0.6564    1.4087    0.0243 H   0  0  0  0  0  0  0  0  0  0  0  0
    0.1596   -1.3429   -1.0336 H   0  0  0  0  0  0  0  0  0  0  0  0
   -0.4347    0.1258   -1.8050 H   0  0  0  0  0  0  0  0  0  0  0  0
   -2.7285    0.6259   -1.3114 H   0  0  0  0  0  0  0  0  0  0  0  0
   -4.6983    0.4451    0.1659 H   0  0  0  0  0  0  0  0  0  0  0  0
   -4.5099   -0.6686    2.3730 H   0  0  0  0  0  0  0  0  0  0  0  0
   -2.3322   -1.6028    3.1074 H   0  0  0  0  0  0  0  0  0  0  0  0
   -0.3474   -1.4260    1.6445 H   0  0  0  0  0  0  0  0  0  0  0  0
    2.7043    1.8729    0.4425 H   0  0  0  0  0  0  0  0  0  0  0  0
    4.6425   -0.6734   -1.4941 H   0  0  0  0  0  0  0  0  0  0  0  0
    7.0554   -0.6312   -1.6912 H   0  0  0  0  0  0  0  0  0  0  0  0
    8.3640    1.1623   -0.7296 H   0  0  0  0  0  0  0  0  0  0  0  0
    6.9314    4.1242    1.0274 H   0  0  0  0  0  0  0  0  0  0  0  0
   11.0893    4.7816   -0.5695 H   0  0  0  0  0  0  0  0  0  0  0  0
   12.0565    6.9095    0.2711 H   0  0  0  0  0  0  0  0  0  0  0  0
   10.7201    8.2950    1.8665 H   0  0  0  0  0  0  0  0  0  0  0  0
    8.4637    7.4843    2.5553 H   0  0  0  0  0  0  0  0  0  0  0  0
    4.7642    3.0203    0.7607 H   0  0  0  0  0  0  0  0  0  0  0  0
  1  2  2  0  0  0  0
  2  3  1  0  0  0  0
  2 11  1  0  0  0  0
  3  4  1  0  0  0  0
  3 27  1  0  0  0  0
  4  5  1  0  0  0  0
  4 28  1  0  0  0  0
  4 29  1  0  0  0  0
  5  6  1  0  0  0  0
  5 10  2  0  0  0  0
  6  7  2  0  0  0  0
  6 30  1  0  0  0  0
  7  8  1  0  0  0  0
  7 31  1  0  0  0  0
  8  9  2  0  0  0  0
  8 32  1  0  0  0  0
  9 10  1  0  0  0  0
  9 33  1  0  0  0  0
 10 34  1  0  0  0  0
 11 12  1  0  0  0  0
 11 35  1  0  0  0  0
 12 13  1  0  0  0  0
 12 26  2  0  0  0  0
 13 14  2  0  0  0  0
 13 36  1  0  0  0  0
 14 15  1  0  0  0  0
 14 37  1  0  0  0  0
 15 16  2  0  0  0  0
 15 38  1  0  0  0  0
 16 17  1  0  0  0  0
 16 26  1  0  0  0  0
 17 18  1  0  0  0  0
 17 39  1  0  0  0  0
 18 19  2  0  0  0  0
 18 20  1  0  0  0  0
 20 21  1  0  0  0  0
 20 25  2  0  0  0  0
 21 22  2  0  0  0  0
 21 40  1  0  0  0  0
 22 23  1  0  0  0  0
 22 41  1  0  0  0  0
 23 24  2  0  0  0  0
 23 42  1  0  0  0  0
 24 25  1  0  0  0  0
 24 43  1  0  0  0  0
 26 44  1  0  0  0  0
M  END
$$$$
