CHEMBL4779166
 OpenBabel04072215383D

 56 58  0  0  0  0  0  0  0  0999 V2000
    4.8295   -0.2959    1.4298 C   0  0  0  0  0  0  0  0  0  0  0  0
    4.4849    0.2613    0.0509 C   0  0  0  0  0  0  0  0  0  0  0  0
    4.8791   -0.5996   -1.0777 N   0  0  0  0  0  0  0  0  0  0  0  0
    4.3343   -1.9725   -0.9872 C   0  0  0  0  0  0  0  0  0  0  0  0
    2.8138   -2.1244   -1.0642 C   0  0  0  0  0  0  0  0  0  0  0  0
    4.5353    0.0184   -2.3817 C   0  0  0  0  0  0  0  0  0  0  0  0
    5.1637    1.3972   -2.6894 C   0  0  0  0  0  0  0  0  0  0  0  0
    6.6132    1.3877   -2.7463 N   0  0  0  0  0  0  0  0  0  0  0  0
    7.3038    2.3427   -3.4699 C   0  0  0  0  0  0  0  0  0  0  0  0
    6.7190    3.2137   -4.1104 O   0  0  0  0  0  0  0  0  0  0  0  0
    8.7756    2.2776   -3.4084 C   0  0  0  0  0  0  0  0  0  0  0  0
    9.5717    1.1652   -3.1746 C   0  0  0  0  0  0  0  0  0  0  0  0
    9.2960   -0.2793   -2.9489 C   0  0  0  0  0  0  0  0  0  0  0  0
   10.8814    1.5721   -3.2311 N   0  0  0  0  0  0  0  0  0  0  0  0
   11.0061    2.8988   -3.5465 C   0  0  0  0  0  0  0  0  0  0  0  0
   12.2946    3.5201   -3.6937 C   0  0  0  0  0  0  0  0  0  0  0  0
   13.5246    2.9805   -3.5752 C   0  0  0  0  0  0  0  0  0  0  0  0
   13.9349    1.5529   -3.2538 C   0  0  0  0  0  0  0  0  0  0  0  0
   13.2286    0.5859   -3.0326 O   0  0  0  0  0  0  0  0  0  0  0  0
   15.3127    1.5404   -3.2501 N   0  0  0  0  0  0  0  0  0  0  0  0
   15.8326    2.7920   -3.5329 C   0  0  0  0  0  0  0  0  0  0  0  0
   17.1788    3.1051   -3.5997 C   0  0  0  0  0  0  0  0  0  0  0  0
   17.4935    4.4220   -3.8931 C   0  0  0  0  0  0  0  0  0  0  0  0
   18.7811    4.7824   -3.9677 F   0  0  0  0  0  0  0  0  0  0  0  0
   16.4954    5.3800   -4.1139 C   0  0  0  0  0  0  0  0  0  0  0  0
   15.1314    5.0354   -4.0413 C   0  0  0  0  0  0  0  0  0  0  0  0
   14.8064    3.7189   -3.7437 C   0  0  0  0  0  0  0  0  0  0  0  0
    9.6982    3.3771   -3.6704 C   0  0  0  0  0  0  0  0  0  0  0  0
    9.2695    4.7653   -4.0181 C   0  0  0  0  0  0  0  0  0  0  0  0
    4.7354    0.4961    2.1808 H   0  0  0  0  0  0  0  0  0  0  0  0
    5.8593   -0.6661    1.4651 H   0  0  0  0  0  0  0  0  0  0  0  0
    4.1533   -1.1054    1.7216 H   0  0  0  0  0  0  0  0  0  0  0  0
    5.0252    1.2101   -0.0258 H   0  0  0  0  0  0  0  0  0  0  0  0
    3.4156    0.5011    0.0156 H   0  0  0  0  0  0  0  0  0  0  0  0
    4.6866   -2.4453   -0.0630 H   0  0  0  0  0  0  0  0  0  0  0  0
    4.7784   -2.5816   -1.7856 H   0  0  0  0  0  0  0  0  0  0  0  0
    2.2885   -1.4244   -0.4087 H   0  0  0  0  0  0  0  0  0  0  0  0
    2.5247   -3.1354   -0.7557 H   0  0  0  0  0  0  0  0  0  0  0  0
    2.4513   -1.9798   -2.0871 H   0  0  0  0  0  0  0  0  0  0  0  0
    3.4470    0.1301   -2.4652 H   0  0  0  0  0  0  0  0  0  0  0  0
    4.8501   -0.6662   -3.1805 H   0  0  0  0  0  0  0  0  0  0  0  0
    4.8660    2.1501   -1.9529 H   0  0  0  0  0  0  0  0  0  0  0  0
    4.7781    1.7408   -3.6565 H   0  0  0  0  0  0  0  0  0  0  0  0
    7.1070    0.8898   -2.0174 H   0  0  0  0  0  0  0  0  0  0  0  0
    8.2413   -0.5388   -3.0445 H   0  0  0  0  0  0  0  0  0  0  0  0
    9.6349   -0.5756   -1.9505 H   0  0  0  0  0  0  0  0  0  0  0  0
    9.8374   -0.8834   -3.6855 H   0  0  0  0  0  0  0  0  0  0  0  0
   11.6568    0.9330   -3.0956 H   0  0  0  0  0  0  0  0  0  0  0  0
   12.2478    4.5796   -3.9372 H   0  0  0  0  0  0  0  0  0  0  0  0
   15.8446    0.7046   -3.0622 H   0  0  0  0  0  0  0  0  0  0  0  0
   17.9566    2.3693   -3.4307 H   0  0  0  0  0  0  0  0  0  0  0  0
   16.7948    6.4009   -4.3419 H   0  0  0  0  0  0  0  0  0  0  0  0
   14.3756    5.7917   -4.2154 H   0  0  0  0  0  0  0  0  0  0  0  0
   10.1182    5.4404   -4.1561 H   0  0  0  0  0  0  0  0  0  0  0  0
    8.6411    5.1789   -3.2221 H   0  0  0  0  0  0  0  0  0  0  0  0
    8.6946    4.7659   -4.9502 H   0  0  0  0  0  0  0  0  0  0  0  0
  1  2  1  0  0  0  0
  1 30  1  0  0  0  0
  1 31  1  0  0  0  0
  1 32  1  0  0  0  0
  2  3  1  0  0  0  0
  2 33  1  0  0  0  0
  2 34  1  0  0  0  0
  3  4  1  0  0  0  0
  3  6  1  0  0  0  0
  4  5  1  0  0  0  0
  4 35  1  0  0  0  0
  4 36  1  0  0  0  0
  5 37  1  0  0  0  0
  5 38  1  0  0  0  0
  5 39  1  0  0  0  0
  6  7  1  0  0  0  0
  6 40  1  0  0  0  0
  6 41  1  0  0  0  0
  7  8  1  0  0  0  0
  7 42  1  0  0  0  0
  7 43  1  0  0  0  0
  8  9  1  0  0  0  0
  8 44  1  0  0  0  0
  9 10  2  0  0  0  0
  9 11  1  0  0  0  0
 11 12  2  0  0  0  0
 11 28  1  0  0  0  0
 12 13  1  0  0  0  0
 12 14  1  0  0  0  0
 13 45  1  0  0  0  0
 13 46  1  0  0  0  0
 13 47  1  0  0  0  0
 14 15  1  0  0  0  0
 14 48  1  0  0  0  0
 15 16  1  0  0  0  0
 15 28  2  0  0  0  0
 16 17  2  0  0  0  0
 16 49  1  0  0  0  0
 17 18  1  0  0  0  0
 17 27  1  0  0  0  0
 18 19  2  0  0  0  0
 18 20  1  0  0  0  0
 20 21  1  0  0  0  0
 20 50  1  0  0  0  0
 21 22  1  0  0  0  0
 21 27  2  0  0  0  0
 22 23  2  0  0  0  0
 22 51  1  0  0  0  0
 23 24  1  0  0  0  0
 23 25  1  0  0  0  0
 25 26  2  0  0  0  0
 25 52  1  0  0  0  0
 26 27  1  0  0  0  0
 26 53  1  0  0  0  0
 28 29  1  0  0  0  0
 29 54  1  0  0  0  0
 29 55  1  0  0  0  0
 29 56  1  0  0  0  0
M  END
$$$$
