CHEMBL1287853
 OpenBabel04072215363D

 73 76  0  0  0  0  0  0  0  0999 V2000
   -2.5884   -0.2328   -0.1892 C   0  0  0  0  0  0  0  0  0  0  0  0
   -1.1049   -0.1472   -0.0521 C   0  0  0  0  0  0  0  0  0  0  0  0
   -0.3793   -1.3035    0.1088 C   0  0  0  0  0  0  0  0  0  0  0  0
    0.9480   -1.3304    0.2387 N   0  0  0  0  0  0  0  0  0  0  0  0
    1.6051   -0.1654    0.1818 C   0  0  0  0  0  0  0  0  0  0  0  0
    3.0022   -0.1661    0.1822 N   0  0  0  0  0  0  0  0  0  0  0  0
    3.8718   -1.1578   -0.3070 C   0  0  0  0  0  0  0  0  0  0  0  0
    3.4072   -2.2994   -0.9732 C   0  0  0  0  0  0  0  0  0  0  0  0
    4.2642   -3.3171   -1.3838 C   0  0  0  0  0  0  0  0  0  0  0  0
    5.6306   -3.2040   -1.1646 C   0  0  0  0  0  0  0  0  0  0  0  0
    6.5630   -4.1127   -1.5865 O   0  0  0  0  0  0  0  0  0  0  0  0
    6.1126   -4.9906   -2.6276 C   0  0  0  0  0  0  0  0  0  0  0  0
    7.3312   -5.5889   -3.3373 C   0  0  0  0  0  0  0  0  0  0  0  0
    6.9920   -6.3839   -4.5360 N   0  0  0  0  0  0  0  0  0  0  0  0
    6.1822   -7.5763   -4.2408 C   0  0  0  0  0  0  0  0  0  0  0  0
    7.1915   -8.6199   -3.8134 C   0  0  0  0  0  0  0  0  0  0  0  0
    8.3299   -8.3823   -4.7867 C   0  0  0  0  0  0  0  0  0  0  0  0
    8.2208   -6.9069   -5.1679 C   0  0  0  0  0  0  0  0  0  0  0  0
    6.1167   -2.0942   -0.4741 C   0  0  0  0  0  0  0  0  0  0  0  0
    5.2458   -1.0792   -0.0486 C   0  0  0  0  0  0  0  0  0  0  0  0
    0.9828    1.0148    0.0892 N   0  0  0  0  0  0  0  0  0  0  0  0
   -0.3622    1.0306   -0.0397 C   0  0  0  0  0  0  0  0  0  0  0  0
   -1.0389    2.2623   -0.2358 N   0  0  0  0  0  0  0  0  0  0  0  0
   -0.4991    3.5379   -0.5340 C   0  0  0  0  0  0  0  0  0  0  0  0
    0.7652    3.7163   -1.1088 C   0  0  0  0  0  0  0  0  0  0  0  0
    1.2546    4.9857   -1.4307 C   0  0  0  0  0  0  0  0  0  0  0  0
    0.4601    6.1102   -1.2374 C   0  0  0  0  0  0  0  0  0  0  0  0
   -0.8308    5.9478   -0.7385 C   0  0  0  0  0  0  0  0  0  0  0  0
   -1.9399    7.3361   -0.7351 S   0  0  0  0  0  0  0  0  0  0  0  0
   -1.7285    8.0352   -1.9842 O   0  0  0  0  0  0  0  0  0  0  0  0
   -3.2481    6.8641   -0.3663 O   0  0  0  0  0  0  0  0  0  0  0  0
   -1.3514    8.3737    0.4517 N   0  0  0  0  0  0  0  0  0  0  0  0
   -1.6714    8.2877    1.8957 C   0  0  0  0  0  0  0  0  0  0  0  0
   -1.1618    6.9745    2.4865 C   0  0  0  0  0  0  0  0  0  0  0  0
   -0.9377    9.4505    2.5972 C   0  0  0  0  0  0  0  0  0  0  0  0
   -3.1702    8.4796    2.1469 C   0  0  0  0  0  0  0  0  0  0  0  0
   -1.3114    4.6726   -0.3928 C   0  0  0  0  0  0  0  0  0  0  0  0
   -2.8923   -1.2388   -0.5034 H   0  0  0  0  0  0  0  0  0  0  0  0
   -2.9624    0.4600   -0.9482 H   0  0  0  0  0  0  0  0  0  0  0  0
   -3.0656   -0.0221    0.7719 H   0  0  0  0  0  0  0  0  0  0  0  0
   -0.8490   -2.2835    0.1138 H   0  0  0  0  0  0  0  0  0  0  0  0
    3.3583    0.7769    0.1926 H   0  0  0  0  0  0  0  0  0  0  0  0
    2.3560   -2.4222   -1.2137 H   0  0  0  0  0  0  0  0  0  0  0  0
    3.8213   -4.1767   -1.8750 H   0  0  0  0  0  0  0  0  0  0  0  0
    5.5201   -4.4439   -3.3729 H   0  0  0  0  0  0  0  0  0  0  0  0
    5.5032   -5.7792   -2.1709 H   0  0  0  0  0  0  0  0  0  0  0  0
    7.9316   -6.1571   -2.6154 H   0  0  0  0  0  0  0  0  0  0  0  0
    7.9634   -4.7463   -3.6480 H   0  0  0  0  0  0  0  0  0  0  0  0
    5.6863   -7.8961   -5.1668 H   0  0  0  0  0  0  0  0  0  0  0  0
    5.3892   -7.4259   -3.5048 H   0  0  0  0  0  0  0  0  0  0  0  0
    6.7968   -9.6377   -3.8702 H   0  0  0  0  0  0  0  0  0  0  0  0
    7.5251   -8.4417   -2.7841 H   0  0  0  0  0  0  0  0  0  0  0  0
    8.1901   -9.0057   -5.6778 H   0  0  0  0  0  0  0  0  0  0  0  0
    9.2987   -8.6299   -4.3439 H   0  0  0  0  0  0  0  0  0  0  0  0
    8.1299   -6.8126   -6.2563 H   0  0  0  0  0  0  0  0  0  0  0  0
    9.1221   -6.3527   -4.8802 H   0  0  0  0  0  0  0  0  0  0  0  0
    7.1813   -2.0131   -0.2717 H   0  0  0  0  0  0  0  0  0  0  0  0
    5.6559   -0.2307    0.4919 H   0  0  0  0  0  0  0  0  0  0  0  0
   -1.8572    2.3185    0.3606 H   0  0  0  0  0  0  0  0  0  0  0  0
    1.3933    2.8587   -1.3391 H   0  0  0  0  0  0  0  0  0  0  0  0
    2.2465    5.0832   -1.8643 H   0  0  0  0  0  0  0  0  0  0  0  0
    0.8293    7.0923   -1.5214 H   0  0  0  0  0  0  0  0  0  0  0  0
   -1.2238    9.3093    0.0660 H   0  0  0  0  0  0  0  0  0  0  0  0
   -0.0764    6.8808    2.3615 H   0  0  0  0  0  0  0  0  0  0  0  0
   -1.6280    6.1070    2.0151 H   0  0  0  0  0  0  0  0  0  0  0  0
   -1.3803    6.9129    3.5586 H   0  0  0  0  0  0  0  0  0  0  0  0
    0.1497    9.3665    2.4897 H   0  0  0  0  0  0  0  0  0  0  0  0
   -1.1664    9.4701    3.6694 H   0  0  0  0  0  0  0  0  0  0  0  0
   -1.2334   10.4200    2.1793 H   0  0  0  0  0  0  0  0  0  0  0  0
   -3.7719    7.6535    1.7639 H   0  0  0  0  0  0  0  0  0  0  0  0
   -3.5335    9.4027    1.6803 H   0  0  0  0  0  0  0  0  0  0  0  0
   -3.3834    8.5394    3.2204 H   0  0  0  0  0  0  0  0  0  0  0  0
   -2.3328    4.5657   -0.0359 H   0  0  0  0  0  0  0  0  0  0  0  0
  1  2  1  0  0  0  0
  1 38  1  0  0  0  0
  1 39  1  0  0  0  0
  1 40  1  0  0  0  0
  2  3  1  0  0  0  0
  2 22  2  0  0  0  0
  3  4  2  0  0  0  0
  3 41  1  0  0  0  0
  4  5  1  0  0  0  0
  5  6  1  0  0  0  0
  5 21  2  0  0  0  0
  6  7  1  0  0  0  0
  6 42  1  0  0  0  0
  7  8  1  0  0  0  0
  7 20  2  0  0  0  0
  8  9  2  0  0  0  0
  8 43  1  0  0  0  0
  9 10  1  0  0  0  0
  9 44  1  0  0  0  0
 10 11  1  0  0  0  0
 10 19  2  0  0  0  0
 11 12  1  0  0  0  0
 12 13  1  0  0  0  0
 12 45  1  0  0  0  0
 12 46  1  0  0  0  0
 13 14  1  0  0  0  0
 13 47  1  0  0  0  0
 13 48  1  0  0  0  0
 14 15  1  0  0  0  0
 14 18  1  0  0  0  0
 15 16  1  0  0  0  0
 15 49  1  0  0  0  0
 15 50  1  0  0  0  0
 16 17  1  0  0  0  0
 16 51  1  0  0  0  0
 16 52  1  0  0  0  0
 17 18  1  0  0  0  0
 17 53  1  0  0  0  0
 17 54  1  0  0  0  0
 18 55  1  0  0  0  0
 18 56  1  0  0  0  0
 19 20  1  0  0  0  0
 19 57  1  0  0  0  0
 20 58  1  0  0  0  0
 21 22  1  0  0  0  0
 22 23  1  0  0  0  0
 23 24  1  0  0  0  0
 23 59  1  0  0  0  0
 24 25  1  0  0  0  0
 24 37  2  0  0  0  0
 25 26  2  0  0  0  0
 25 60  1  0  0  0  0
 26 27  1  0  0  0  0
 26 61  1  0  0  0  0
 27 28  2  0  0  0  0
 27 62  1  0  0  0  0
 28 29  1  0  0  0  0
 28 37  1  0  0  0  0
 29 30  2  0  0  0  0
 29 31  2  0  0  0  0
 29 32  1  0  0  0  0
 32 33  1  0  0  0  0
 32 63  1  0  0  0  0
 33 34  1  0  0  0  0
 33 35  1  0  0  0  0
 33 36  1  0  0  0  0
 34 64  1  0  0  0  0
 34 65  1  0  0  0  0
 34 66  1  0  0  0  0
 35 67  1  0  0  0  0
 35 68  1  0  0  0  0
 35 69  1  0  0  0  0
 36 70  1  0  0  0  0
 36 71  1  0  0  0  0
 36 72  1  0  0  0  0
 37 73  1  0  0  0  0
M  END
$$$$
