CHEMBL3644560
 OpenBabel04072215373D

 48 51  0  0  0  0  0  0  0  0999 V2000
    4.8923    3.4139   -2.8924 N   0  0  0  0  0  0  0  0  0  0  0  0
    5.6190    2.3578   -2.3847 C   0  0  0  0  0  0  0  0  0  0  0  0
    6.6998    1.9701   -3.0651 N   0  0  0  0  0  0  0  0  0  0  0  0
    7.3903    0.9346   -2.5511 C   0  0  0  0  0  0  0  0  0  0  0  0
    7.0518    0.2872   -1.3821 C   0  0  0  0  0  0  0  0  0  0  0  0
    5.9268    0.7807   -0.7459 C   0  0  0  0  0  0  0  0  0  0  0  0
    5.2120    1.8229   -1.2303 N   0  0  0  0  0  0  0  0  0  0  0  0
    5.4704    0.1991    0.5656 C   0  0  0  0  0  0  0  0  0  0  0  0
    5.9926   -1.2222    0.7481 C   0  0  0  0  0  0  0  0  0  0  0  0
    7.4337   -1.2749    0.4716 N   0  0  0  0  0  0  0  0  0  0  0  0
    8.3775   -1.4208    1.4723 C   0  0  0  0  0  0  0  0  0  0  0  0
    9.6186   -2.0289    1.2300 C   0  0  0  0  0  0  0  0  0  0  0  0
   10.5730   -2.2046    2.2443 C   0  0  0  0  0  0  0  0  0  0  0  0
   10.3121   -1.7702    3.5433 C   0  0  0  0  0  0  0  0  0  0  0  0
    9.0868   -1.1663    3.8159 C   0  0  0  0  0  0  0  0  0  0  0  0
    8.6676   -0.7577    5.1815 C   0  0  0  0  0  0  0  0  0  0  0  0
    7.4679   -0.8459    5.4370 O   0  0  0  0  0  0  0  0  0  0  0  0
    9.6423   -0.2489    6.0307 N   0  0  0  0  0  0  0  0  0  0  0  0
    9.3792    0.2474    7.3333 C   0  0  0  0  0  0  0  0  0  0  0  0
    8.2069   -0.0488    8.0339 C   0  0  0  0  0  0  0  0  0  0  0  0
    7.9386    0.5348    9.2715 C   0  0  0  0  0  0  0  0  0  0  0  0
    8.8506    1.4173    9.8284 C   0  0  0  0  0  0  0  0  0  0  0  0
    8.5494    1.9861   11.0015 F   0  0  0  0  0  0  0  0  0  0  0  0
   10.0478    1.7113    9.1811 C   0  0  0  0  0  0  0  0  0  0  0  0
   11.0181    2.6830    9.7840 C   0  0  0  0  0  0  0  0  0  0  0  0
   10.6003    3.2925   10.9246 F   0  0  0  0  0  0  0  0  0  0  0  0
   12.2081    2.0941   10.0931 F   0  0  0  0  0  0  0  0  0  0  0  0
   11.3262    3.6941    8.9215 F   0  0  0  0  0  0  0  0  0  0  0  0
   10.3198    1.0973    7.9355 C   0  0  0  0  0  0  0  0  0  0  0  0
    8.1401   -1.0012    2.7856 C   0  0  0  0  0  0  0  0  0  0  0  0
    7.8338   -0.8953   -0.8861 C   0  0  0  0  0  0  0  0  0  0  0  0
    5.4839    3.9764   -3.4869 H   0  0  0  0  0  0  0  0  0  0  0  0
    4.4055    3.8816   -2.1413 H   0  0  0  0  0  0  0  0  0  0  0  0
    8.2547    0.6332   -3.1366 H   0  0  0  0  0  0  0  0  0  0  0  0
    4.3749    0.1945    0.6083 H   0  0  0  0  0  0  0  0  0  0  0  0
    5.8343    0.8458    1.3722 H   0  0  0  0  0  0  0  0  0  0  0  0
    5.4855   -1.8919    0.0401 H   0  0  0  0  0  0  0  0  0  0  0  0
    5.7361   -1.6052    1.7430 H   0  0  0  0  0  0  0  0  0  0  0  0
    9.8438   -2.4285    0.2432 H   0  0  0  0  0  0  0  0  0  0  0  0
   11.5065   -2.7143    2.0159 H   0  0  0  0  0  0  0  0  0  0  0  0
   11.0405   -1.9575    4.3258 H   0  0  0  0  0  0  0  0  0  0  0  0
   10.5494   -0.0435    5.6309 H   0  0  0  0  0  0  0  0  0  0  0  0
    7.4662   -0.7390    7.6412 H   0  0  0  0  0  0  0  0  0  0  0  0
    7.0109    0.3150    9.7896 H   0  0  0  0  0  0  0  0  0  0  0  0
   11.2547    1.3321    7.4298 H   0  0  0  0  0  0  0  0  0  0  0  0
    7.1986   -0.5168    3.0368 H   0  0  0  0  0  0  0  0  0  0  0  0
    7.6523   -1.7455   -1.5546 H   0  0  0  0  0  0  0  0  0  0  0  0
    8.8995   -0.6428   -0.9391 H   0  0  0  0  0  0  0  0  0  0  0  0
  1  2  1  0  0  0  0
  1 32  1  0  0  0  0
  1 33  1  0  0  0  0
  2  3  1  0  0  0  0
  2  7  2  0  0  0  0
  3  4  2  0  0  0  0
  4  5  1  0  0  0  0
  4 34  1  0  0  0  0
  5  6  2  0  0  0  0
  5 31  1  0  0  0  0
  6  7  1  0  0  0  0
  6  8  1  0  0  0  0
  8  9  1  0  0  0  0
  8 35  1  0  0  0  0
  8 36  1  0  0  0  0
  9 10  1  0  0  0  0
  9 37  1  0  0  0  0
  9 38  1  0  0  0  0
 10 11  1  0  0  0  0
 10 31  1  0  0  0  0
 11 12  1  0  0  0  0
 11 30  2  0  0  0  0
 12 13  2  0  0  0  0
 12 39  1  0  0  0  0
 13 14  1  0  0  0  0
 13 40  1  0  0  0  0
 14 15  2  0  0  0  0
 14 41  1  0  0  0  0
 15 16  1  0  0  0  0
 15 30  1  0  0  0  0
 16 17  2  0  0  0  0
 16 18  1  0  0  0  0
 18 19  1  0  0  0  0
 18 42  1  0  0  0  0
 19 20  1  0  0  0  0
 19 29  2  0  0  0  0
 20 21  2  0  0  0  0
 20 43  1  0  0  0  0
 21 22  1  0  0  0  0
 21 44  1  0  0  0  0
 22 23  1  0  0  0  0
 22 24  2  0  0  0  0
 24 25  1  0  0  0  0
 24 29  1  0  0  0  0
 25 26  1  0  0  0  0
 25 27  1  0  0  0  0
 25 28  1  0  0  0  0
 29 45  1  0  0  0  0
 30 46  1  0  0  0  0
 31 47  1  0  0  0  0
 31 48  1  0  0  0  0
M  END
$$$$
