CHEMBL3947769
 OpenBabel04072215373D

 67 70  0  0  1  0  0  0  0  0999 V2000
    5.3670    3.9393    3.6131 C   0  0  0  0  0  0  0  0  0  0  0  0
    4.1929    3.2326    3.1914 O   0  0  0  0  0  0  0  0  0  0  0  0
    4.2406    2.3990    2.1100 C   0  0  0  0  0  0  0  0  0  0  0  0
    5.4227    2.0284    1.4743 C   0  0  0  0  0  0  0  0  0  0  0  0
    5.4362    1.1665    0.3605 C   0  0  0  0  0  0  0  0  0  0  0  0
    6.5938    0.7279   -0.2813 C   0  0  0  0  0  0  0  0  0  0  0  0
    7.8546    1.1412    0.2277 N   0  0  0  0  0  0  0  0  0  0  0  0
    9.0410    1.0931   -0.5299 C   0  0  0  0  0  0  0  0  0  0  0  0
    9.0575    1.5934   -1.8351 C   0  0  0  0  0  0  0  0  0  0  0  0
   10.1836    1.4508   -2.6393 C   0  0  0  0  0  0  0  0  0  0  0  0
   11.3144    0.8147   -2.1343 C   0  0  0  0  0  0  0  0  0  0  0  0
   12.6542    0.6026   -3.2022 Cl  0  0  0  0  0  0  0  0  0  0  0  0
   11.3264    0.3525   -0.8101 C   0  0  0  0  0  0  0  0  0  0  0  0
   12.6973   -0.4402   -0.1197 Cl  0  0  0  0  0  0  0  0  0  0  0  0
   10.1941    0.5043   -0.0056 C   0  0  0  0  0  0  0  0  0  0  0  0
    6.5503   -0.0663   -1.3680 N   0  0  0  0  0  0  0  0  0  0  0  0
    5.3431   -0.4366   -1.7993 C   0  0  0  0  0  0  0  0  0  0  0  0
    4.1758   -0.0822   -1.2586 N   0  0  0  0  0  0  0  0  0  0  0  0
    4.2439    0.7130   -0.1889 C   0  0  0  0  0  0  0  0  0  0  0  0
    3.0699    1.0805    0.4275 C   0  0  0  0  0  0  0  0  0  0  0  0
    3.0422    1.8424    1.6083 C   0  0  0  0  0  0  0  0  0  0  0  0
    1.8542    2.0309    2.2917 O   0  0  0  0  0  0  0  0  0  0  0  0
    0.8831    0.9991    2.0031 C   0  0  0  0  0  0  0  0  0  0  0  0
   -0.2465    0.8991    3.0258 C   0  0  3  0  0  0  0  0  0  0  0  0
    0.3489    0.7323    4.4379 C   0  0  0  0  0  0  0  0  0  0  0  0
   -0.6043    0.9140    5.5454 N   0  0  0  0  0  0  0  0  0  0  0  0
   -1.3679    2.1608    5.4096 C   0  0  0  0  0  0  0  0  0  0  0  0
   -2.1842    2.5709    6.6344 C   0  0  0  0  0  0  0  0  0  0  0  0
   -1.3650    2.7027    7.9243 C   0  0  0  0  0  0  0  0  0  0  0  0
   -0.3332    3.8263    7.8206 C   0  0  0  0  0  0  0  0  0  0  0  0
   -2.3180    2.9497    9.0917 C   0  0  0  0  0  0  0  0  0  0  0  0
   -1.3802   -0.2860    5.8451 C   0  0  0  0  0  0  0  0  0  0  0  0
   -1.7622   -1.2258    4.6992 C   0  0  0  0  0  0  0  0  0  0  0  0
   -2.1819   -0.5228    3.4202 C   0  0  0  0  0  0  0  0  0  0  0  0
   -1.0565   -0.2179    2.6049 O   0  0  0  0  0  0  0  0  0  0  0  0
    5.1712    5.0146    3.5718 H   0  0  0  0  0  0  0  0  0  0  0  0
    6.2819    3.7798    3.0374 H   0  0  0  0  0  0  0  0  0  0  0  0
    5.5889    3.6660    4.6490 H   0  0  0  0  0  0  0  0  0  0  0  0
    6.3887    2.3790    1.8259 H   0  0  0  0  0  0  0  0  0  0  0  0
    7.9609    0.8319    1.1803 H   0  0  0  0  0  0  0  0  0  0  0  0
    8.1680    2.0714   -2.2418 H   0  0  0  0  0  0  0  0  0  0  0  0
   10.1531    1.8176   -3.6596 H   0  0  0  0  0  0  0  0  0  0  0  0
   10.2011    0.1209    1.0116 H   0  0  0  0  0  0  0  0  0  0  0  0
    5.3036   -1.0832   -2.6690 H   0  0  0  0  0  0  0  0  0  0  0  0
    2.1612    0.7085   -0.0338 H   0  0  0  0  0  0  0  0  0  0  0  0
    1.3642    0.0118    1.9634 H   0  0  0  0  0  0  0  0  0  0  0  0
    0.4223    1.2053    1.0282 H   0  0  0  0  0  0  0  0  0  0  0  0
   -0.8367    1.8171    2.9290 H   0  0  0  0  0  0  0  0  0  0  0  0
    1.1502    1.4656    4.5900 H   0  0  0  0  0  0  0  0  0  0  0  0
    0.8349   -0.2493    4.5233 H   0  0  0  0  0  0  0  0  0  0  0  0
   -2.0690    2.1168    4.5716 H   0  0  0  0  0  0  0  0  0  0  0  0
   -0.6720    2.9778    5.1770 H   0  0  0  0  0  0  0  0  0  0  0  0
   -3.0070    1.8623    6.7823 H   0  0  0  0  0  0  0  0  0  0  0  0
   -2.6692    3.5300    6.4081 H   0  0  0  0  0  0  0  0  0  0  0  0
   -0.8334    1.7643    8.1235 H   0  0  0  0  0  0  0  0  0  0  0  0
   -0.8027    4.7691    7.5199 H   0  0  0  0  0  0  0  0  0  0  0  0
    0.4410    3.5853    7.0847 H   0  0  0  0  0  0  0  0  0  0  0  0
    0.1693    3.9858    8.7795 H   0  0  0  0  0  0  0  0  0  0  0  0
   -2.9248    3.8460    8.9254 H   0  0  0  0  0  0  0  0  0  0  0  0
   -1.7666    3.0740   10.0281 H   0  0  0  0  0  0  0  0  0  0  0  0
   -2.9984    2.0994    9.2138 H   0  0  0  0  0  0  0  0  0  0  0  0
   -2.2843   -0.0477    6.4123 H   0  0  0  0  0  0  0  0  0  0  0  0
   -0.7804   -0.8775    6.5506 H   0  0  0  0  0  0  0  0  0  0  0  0
   -2.5916   -1.8506    5.0537 H   0  0  0  0  0  0  0  0  0  0  0  0
   -0.9245   -1.9026    4.4888 H   0  0  0  0  0  0  0  0  0  0  0  0
   -2.8075    0.3579    3.5881 H   0  0  0  0  0  0  0  0  0  0  0  0
   -2.7900   -1.2235    2.8368 H   0  0  0  0  0  0  0  0  0  0  0  0
  1  2  1  0  0  0  0
  1 36  1  0  0  0  0
  1 37  1  0  0  0  0
  1 38  1  0  0  0  0
  2  3  1  0  0  0  0
  3  4  1  0  0  0  0
  3 21  2  0  0  0  0
  4  5  2  0  0  0  0
  4 39  1  0  0  0  0
  5  6  1  0  0  0  0
  5 19  1  0  0  0  0
  6  7  1  0  0  0  0
  6 16  2  0  0  0  0
  7  8  1  0  0  0  0
  7 40  1  0  0  0  0
  8  9  1  0  0  0  0
  8 15  2  0  0  0  0
  9 10  2  0  0  0  0
  9 41  1  0  0  0  0
 10 11  1  0  0  0  0
 10 42  1  0  0  0  0
 11 12  1  0  0  0  0
 11 13  2  0  0  0  0
 13 14  1  0  0  0  0
 13 15  1  0  0  0  0
 15 43  1  0  0  0  0
 16 17  1  0  0  0  0
 17 18  2  0  0  0  0
 17 44  1  0  0  0  0
 18 19  1  0  0  0  0
 19 20  2  0  0  0  0
 20 21  1  0  0  0  0
 20 45  1  0  0  0  0
 21 22  1  0  0  0  0
 22 23  1  0  0  0  0
 23 24  1  0  0  0  0
 23 46  1  0  0  0  0
 23 47  1  0  0  0  0
 24 25  1  0  0  0  0
 24 35  1  0  0  0  0
 24 48  1  0  0  0  0
 25 26  1  0  0  0  0
 25 49  1  0  0  0  0
 25 50  1  0  0  0  0
 26 27  1  0  0  0  0
 26 32  1  0  0  0  0
 27 28  1  0  0  0  0
 27 51  1  0  0  0  0
 27 52  1  0  0  0  0
 28 29  1  0  0  0  0
 28 53  1  0  0  0  0
 28 54  1  0  0  0  0
 29 30  1  0  0  0  0
 29 31  1  0  0  0  0
 29 55  1  0  0  0  0
 30 56  1  0  0  0  0
 30 57  1  0  0  0  0
 30 58  1  0  0  0  0
 31 59  1  0  0  0  0
 31 60  1  0  0  0  0
 31 61  1  0  0  0  0
 32 33  1  0  0  0  0
 32 62  1  0  0  0  0
 32 63  1  0  0  0  0
 33 34  1  0  0  0  0
 33 64  1  0  0  0  0
 33 65  1  0  0  0  0
 34 35  1  0  0  0  0
 34 66  1  0  0  0  0
 34 67  1  0  0  0  0
M  END
$$$$
