CHEMBL223572
 OpenBabel04072215363D

 62 66  0  0  0  0  0  0  0  0999 V2000
    2.3356    0.0642   -0.5613 C   0  0  0  0  0  0  0  0  0  0  0  0
    0.8380    0.1371   -0.5664 C   0  0  0  0  0  0  0  0  0  0  0  0
    0.1958    1.3728   -0.7099 C   0  0  0  0  0  0  0  0  0  0  0  0
   -1.1907    1.4423   -0.7095 C   0  0  0  0  0  0  0  0  0  0  0  0
   -1.9482    0.2773   -0.5672 C   0  0  0  0  0  0  0  0  0  0  0  0
   -1.3331   -0.9716   -0.4372 C   0  0  0  0  0  0  0  0  0  0  0  0
   -2.0615   -2.1808   -0.2905 N   0  0  0  0  0  0  0  0  0  0  0  0
   -3.4312   -2.3075   -0.3942 C   0  0  0  0  0  0  0  0  0  0  0  0
   -4.1911   -1.4075   -0.7339 O   0  0  0  0  0  0  0  0  0  0  0  0
   -3.8743   -3.5812   -0.0336 N   0  0  0  0  0  0  0  0  0  0  0  0
   -5.2648   -3.8536   -0.0581 C   0  0  0  0  0  0  0  0  0  0  0  0
   -6.0528   -3.4124   -1.1183 C   0  0  0  0  0  0  0  0  0  0  0  0
   -7.4422   -3.4561   -1.0278 C   0  0  0  0  0  0  0  0  0  0  0  0
   -8.0962   -3.9976    0.0943 C   0  0  0  0  0  0  0  0  0  0  0  0
   -9.5754   -3.9705    0.1531 C   0  0  0  0  0  0  0  0  0  0  0  0
  -10.3141   -4.2449   -1.0212 C   0  0  0  0  0  0  0  0  0  0  0  0
  -11.7011   -4.1573   -1.0801 C   0  0  0  0  0  0  0  0  0  0  0  0
  -12.4697   -3.8167    0.0379 C   0  0  0  0  0  0  0  0  0  0  0  0
  -13.9732   -3.6945   -0.1120 C   0  0  0  0  0  0  0  0  0  0  0  0
  -14.7992   -4.8958   -0.0080 N   0  0  0  0  0  0  0  0  0  0  0  0
  -14.8669   -5.5436    1.3036 C   0  0  0  0  0  0  0  0  0  0  0  0
  -13.8325   -6.6584    1.5169 C   0  0  0  0  0  0  0  0  0  0  0  0
  -13.8932   -7.6344    0.4696 O   0  0  0  0  0  0  0  0  0  0  0  0
  -13.6757   -7.0255   -0.8082 C   0  0  0  0  0  0  0  0  0  0  0  0
  -14.6833   -5.8942   -1.0784 C   0  0  0  0  0  0  0  0  0  0  0  0
  -11.7321   -3.5309    1.2068 C   0  0  0  0  0  0  0  0  0  0  0  0
  -12.1577   -3.1004    2.4355 N   0  0  0  0  0  0  0  0  0  0  0  0
  -11.1878   -2.9466    3.3419 N   0  0  0  0  0  0  0  0  0  0  0  0
  -10.0739   -3.2163    2.6674 C   0  0  0  0  0  0  0  0  0  0  0  0
   -8.8730   -3.1123    3.2618 N   0  0  0  0  0  0  0  0  0  0  0  0
  -10.3286   -3.5987    1.3073 C   0  0  0  0  0  0  0  0  0  0  0  0
   -7.2794   -4.5645    1.0866 C   0  0  0  0  0  0  0  0  0  0  0  0
   -5.8755   -4.4854    1.0225 C   0  0  0  0  0  0  0  0  0  0  0  0
    0.0656   -1.0308   -0.4347 C   0  0  0  0  0  0  0  0  0  0  0  0
    2.7836    1.0587   -0.6614 H   0  0  0  0  0  0  0  0  0  0  0  0
    2.6867   -0.5470   -1.3982 H   0  0  0  0  0  0  0  0  0  0  0  0
    2.6880   -0.3672    0.3805 H   0  0  0  0  0  0  0  0  0  0  0  0
    0.7711    2.2897   -0.8134 H   0  0  0  0  0  0  0  0  0  0  0  0
   -1.6926    2.3998   -0.8177 H   0  0  0  0  0  0  0  0  0  0  0  0
   -3.0244    0.4008   -0.5672 H   0  0  0  0  0  0  0  0  0  0  0  0
   -1.5246   -3.0359   -0.2331 H   0  0  0  0  0  0  0  0  0  0  0  0
   -3.3414   -4.0198    0.7025 H   0  0  0  0  0  0  0  0  0  0  0  0
   -5.5993   -2.9720   -2.0036 H   0  0  0  0  0  0  0  0  0  0  0  0
   -8.0082   -3.0189   -1.8482 H   0  0  0  0  0  0  0  0  0  0  0  0
   -9.7903   -4.5236   -1.9346 H   0  0  0  0  0  0  0  0  0  0  0  0
  -12.1894   -4.3509   -2.0336 H   0  0  0  0  0  0  0  0  0  0  0  0
  -14.1769   -3.2220   -1.0832 H   0  0  0  0  0  0  0  0  0  0  0  0
  -14.3404   -2.9585    0.6146 H   0  0  0  0  0  0  0  0  0  0  0  0
  -15.8624   -6.0043    1.3687 H   0  0  0  0  0  0  0  0  0  0  0  0
  -14.8250   -4.8104    2.1159 H   0  0  0  0  0  0  0  0  0  0  0  0
  -14.0563   -7.1799    2.4533 H   0  0  0  0  0  0  0  0  0  0  0  0
  -12.8140   -6.2665    1.5948 H   0  0  0  0  0  0  0  0  0  0  0  0
  -13.8040   -7.8089   -1.5632 H   0  0  0  0  0  0  0  0  0  0  0  0
  -12.6395   -6.6853   -0.8732 H   0  0  0  0  0  0  0  0  0  0  0  0
  -15.6731   -6.3641   -1.1676 H   0  0  0  0  0  0  0  0  0  0  0  0
  -14.4937   -5.4283   -2.0519 H   0  0  0  0  0  0  0  0  0  0  0  0
  -13.1044   -2.8715    2.7174 H   0  0  0  0  0  0  0  0  0  0  0  0
   -8.8882   -2.7193    4.1970 H   0  0  0  0  0  0  0  0  0  0  0  0
   -8.0929   -2.7675    2.7125 H   0  0  0  0  0  0  0  0  0  0  0  0
   -7.7305   -5.0423    1.9548 H   0  0  0  0  0  0  0  0  0  0  0  0
   -5.2903   -4.8520    1.8608 H   0  0  0  0  0  0  0  0  0  0  0  0
    0.5732   -1.9868   -0.3289 H   0  0  0  0  0  0  0  0  0  0  0  0
  1  2  1  0  0  0  0
  1 35  1  0  0  0  0
  1 36  1  0  0  0  0
  1 37  1  0  0  0  0
  2  3  1  0  0  0  0
  2 34  2  0  0  0  0
  3  4  2  0  0  0  0
  3 38  1  0  0  0  0
  4  5  1  0  0  0  0
  4 39  1  0  0  0  0
  5  6  2  0  0  0  0
  5 40  1  0  0  0  0
  6  7  1  0  0  0  0
  6 34  1  0  0  0  0
  7  8  1  0  0  0  0
  7 41  1  0  0  0  0
  8  9  2  0  0  0  0
  8 10  1  0  0  0  0
 10 11  1  0  0  0  0
 10 42  1  0  0  0  0
 11 12  1  0  0  0  0
 11 33  2  0  0  0  0
 12 13  2  0  0  0  0
 12 43  1  0  0  0  0
 13 14  1  0  0  0  0
 13 44  1  0  0  0  0
 14 15  1  0  0  0  0
 14 32  2  0  0  0  0
 15 16  1  0  0  0  0
 15 31  2  0  0  0  0
 16 17  2  0  0  0  0
 16 45  1  0  0  0  0
 17 18  1  0  0  0  0
 17 46  1  0  0  0  0
 18 19  1  0  0  0  0
 18 26  2  0  0  0  0
 19 20  1  0  0  0  0
 19 47  1  0  0  0  0
 19 48  1  0  0  0  0
 20 21  1  0  0  0  0
 20 25  1  0  0  0  0
 21 22  1  0  0  0  0
 21 49  1  0  0  0  0
 21 50  1  0  0  0  0
 22 23  1  0  0  0  0
 22 51  1  0  0  0  0
 22 52  1  0  0  0  0
 23 24  1  0  0  0  0
 24 25  1  0  0  0  0
 24 53  1  0  0  0  0
 24 54  1  0  0  0  0
 25 55  1  0  0  0  0
 25 56  1  0  0  0  0
 26 27  1  0  0  0  0
 26 31  1  0  0  0  0
 27 28  1  0  0  0  0
 27 57  1  0  0  0  0
 28 29  2  0  0  0  0
 29 30  1  0  0  0  0
 29 31  1  0  0  0  0
 30 58  1  0  0  0  0
 30 59  1  0  0  0  0
 32 33  1  0  0  0  0
 32 60  1  0  0  0  0
 33 61  1  0  0  0  0
 34 62  1  0  0  0  0
M  END
$$$$
