CHEMBL3981416
 OpenBabel04072215373D

 45 48  0  0  0  0  0  0  0  0999 V2000
    2.7099   -0.0919   -1.3042 C   0  0  0  0  0  0  0  0  0  0  0  0
    1.3067   -0.0514   -0.7688 C   0  0  0  0  0  0  0  0  0  0  0  0
    0.7046   -1.1863   -0.2205 C   0  0  0  0  0  0  0  0  0  0  0  0
   -0.5995   -1.1177    0.2772 C   0  0  0  0  0  0  0  0  0  0  0  0
   -1.3130    0.0842    0.2310 C   0  0  0  0  0  0  0  0  0  0  0  0
   -2.5577    0.1030    0.7310 F   0  0  0  0  0  0  0  0  0  0  0  0
   -0.7430    1.2297   -0.3150 C   0  0  0  0  0  0  0  0  0  0  0  0
   -1.4433    2.5459   -0.4147 C   0  0  0  0  0  0  0  0  0  0  0  0
   -0.8228    3.4495   -0.9724 O   0  0  0  0  0  0  0  0  0  0  0  0
   -2.7070    2.6867    0.1590 N   0  0  0  0  0  0  0  0  0  0  0  0
   -3.4660    3.8930    0.1621 C   0  0  0  0  0  0  0  0  0  0  0  0
   -3.2036    4.9349   -0.7343 C   0  0  0  0  0  0  0  0  0  0  0  0
   -3.8925    6.1454   -0.6589 C   0  0  0  0  0  0  0  0  0  0  0  0
   -4.8571    6.3373    0.3248 C   0  0  0  0  0  0  0  0  0  0  0  0
   -5.1605    5.3077    1.2191 C   0  0  0  0  0  0  0  0  0  0  0  0
   -6.1041    5.5800    2.2743 C   0  0  0  0  0  0  0  0  0  0  0  0
   -6.8636    5.8685    3.1649 C   0  0  0  0  0  0  0  0  0  0  0  0
   -7.7775    6.1277    4.2605 C   0  0  0  0  0  0  0  0  0  0  0  0
   -8.4639    4.9957    4.9298 C   0  0  0  0  0  0  0  0  0  0  0  0
   -9.2785    5.2907    5.9483 C   0  0  0  0  0  0  0  0  0  0  0  0
   -9.4476    6.6388    6.3267 C   0  0  0  0  0  0  0  0  0  0  0  0
  -10.1788    7.1751    7.2790 N   0  0  0  0  0  0  0  0  0  0  0  0
   -9.9532    8.5067    7.1673 C   0  0  0  0  0  0  0  0  0  0  0  0
  -10.5603    9.3490    7.9984 N   0  0  0  0  0  0  0  0  0  0  0  0
   -9.0810    8.8106    6.1577 C   0  0  0  0  0  0  0  0  0  0  0  0
   -8.7505    7.5997    5.6036 N   0  0  0  0  0  0  0  0  0  0  0  0
   -7.8877    7.3877    4.5483 N   0  0  0  0  0  0  0  0  0  0  0  0
   -4.4920    4.0705    1.1108 C   0  0  0  0  0  0  0  0  0  0  0  0
    0.5751    1.1463   -0.8128 C   0  0  0  0  0  0  0  0  0  0  0  0
    3.1500   -1.0900   -1.2075 H   0  0  0  0  0  0  0  0  0  0  0  0
    3.3462    0.6083   -0.7526 H   0  0  0  0  0  0  0  0  0  0  0  0
    2.7195    0.1761   -2.3659 H   0  0  0  0  0  0  0  0  0  0  0  0
    1.2475   -2.1292   -0.1768 H   0  0  0  0  0  0  0  0  0  0  0  0
   -1.0639   -2.0023    0.7037 H   0  0  0  0  0  0  0  0  0  0  0  0
   -3.0541    1.9209    0.7267 H   0  0  0  0  0  0  0  0  0  0  0  0
   -2.4592    4.8355   -1.5189 H   0  0  0  0  0  0  0  0  0  0  0  0
   -3.6498    6.9432   -1.3561 H   0  0  0  0  0  0  0  0  0  0  0  0
   -5.3564    7.3008    0.3965 H   0  0  0  0  0  0  0  0  0  0  0  0
   -8.2847    3.9884    4.5823 H   0  0  0  0  0  0  0  0  0  0  0  0
   -9.8138    4.5230    6.4953 H   0  0  0  0  0  0  0  0  0  0  0  0
  -11.1443    8.9837    8.7422 H   0  0  0  0  0  0  0  0  0  0  0  0
  -10.3963   10.3482    8.0178 H   0  0  0  0  0  0  0  0  0  0  0  0
   -8.6774    9.7382    5.7821 H   0  0  0  0  0  0  0  0  0  0  0  0
   -4.7367    3.2723    1.8059 H   0  0  0  0  0  0  0  0  0  0  0  0
    1.0449    2.0318   -1.2429 H   0  0  0  0  0  0  0  0  0  0  0  0
  1  2  1  0  0  0  0
  1 30  1  0  0  0  0
  1 31  1  0  0  0  0
  1 32  1  0  0  0  0
  2  3  1  0  0  0  0
  2 29  2  0  0  0  0
  3  4  2  0  0  0  0
  3 33  1  0  0  0  0
  4  5  1  0  0  0  0
  4 34  1  0  0  0  0
  5  6  1  0  0  0  0
  5  7  2  0  0  0  0
  7  8  1  0  0  0  0
  7 29  1  0  0  0  0
  8  9  2  0  0  0  0
  8 10  1  0  0  0  0
 10 11  1  0  0  0  0
 10 35  1  0  0  0  0
 11 12  1  0  0  0  0
 11 28  2  0  0  0  0
 12 13  2  0  0  0  0
 12 36  1  0  0  0  0
 13 14  1  0  0  0  0
 13 37  1  0  0  0  0
 14 15  2  0  0  0  0
 14 38  1  0  0  0  0
 15 16  1  0  0  0  0
 15 28  1  0  0  0  0
 16 17  3  0  0  0  0
 17 18  1  0  0  0  0
 18 19  1  0  0  0  0
 18 27  2  0  0  0  0
 19 20  2  0  0  0  0
 19 39  1  0  0  0  0
 20 21  1  0  0  0  0
 20 40  1  0  0  0  0
 21 22  2  0  0  0  0
 21 26  1  0  0  0  0
 22 23  1  0  0  0  0
 23 24  1  0  0  0  0
 23 25  2  0  0  0  0
 24 41  1  0  0  0  0
 24 42  1  0  0  0  0
 25 26  1  0  0  0  0
 25 43  1  0  0  0  0
 26 27  1  0  0  0  0
 28 44  1  0  0  0  0
 29 45  1  0  0  0  0
M  END
$$$$
