CHEMBL3897763
 OpenBabel04072215373D

 54 57  0  0  0  0  0  0  0  0999 V2000
    4.6739   -0.4814   -2.1792 C   0  0  0  0  0  0  0  0  0  0  0  0
    3.6502   -0.2217   -1.0765 C   0  0  0  0  0  0  0  0  0  0  0  0
    2.2402   -0.1948   -1.6696 C   0  0  0  0  0  0  0  0  0  0  0  0
    3.7407   -1.2917    0.0107 C   0  0  0  0  0  0  0  0  0  0  0  0
    2.7844   -2.0249    0.2593 O   0  0  0  0  0  0  0  0  0  0  0  0
    4.9585   -1.3101    0.6735 N   0  0  0  0  0  0  0  0  0  0  0  0
    5.3466   -2.2477    1.6562 C   0  0  0  0  0  0  0  0  0  0  0  0
    4.6486   -3.4347    1.8954 C   0  0  0  0  0  0  0  0  0  0  0  0
    5.0229   -4.2900    2.9298 C   0  0  0  0  0  0  0  0  0  0  0  0
    6.1189   -3.9829    3.7250 C   0  0  0  0  0  0  0  0  0  0  0  0
    6.8895   -2.8545    3.4341 C   0  0  0  0  0  0  0  0  0  0  0  0
    8.1191   -2.5332    4.1939 C   0  0  0  0  0  0  0  0  0  0  0  0
    8.4306   -1.3494    4.3077 O   0  0  0  0  0  0  0  0  0  0  0  0
    9.0092   -3.5804    4.7870 C   0  0  0  0  0  0  0  0  0  0  0  0
    9.0310   -4.9249    4.3710 C   0  0  0  0  0  0  0  0  0  0  0  0
    9.8760   -5.8790    4.9845 C   0  0  0  0  0  0  0  0  0  0  0  0
   10.8441   -5.4093    5.8920 C   0  0  0  0  0  0  0  0  0  0  0  0
   11.9291   -5.8941    6.7061 C   0  0  0  0  0  0  0  0  0  0  0  0
   11.8676   -6.2970    8.1121 C   0  0  0  0  0  0  0  0  0  0  0  0
   10.8133   -6.0332    8.9090 C   0  0  0  0  0  0  0  0  0  0  0  0
   10.9621   -5.4187   10.2527 C   0  0  0  0  0  0  0  0  0  0  0  0
   11.9083   -4.3963   10.4715 C   0  0  0  0  0  0  0  0  0  0  0  0
   11.8632   -3.6076   11.6321 C   0  0  0  0  0  0  0  0  0  0  0  0
   10.8716   -3.8280   12.5822 C   0  0  0  0  0  0  0  0  0  0  0  0
    9.9357   -4.8430   12.3828 C   0  0  0  0  0  0  0  0  0  0  0  0
    9.9779   -5.6219   11.2170 C   0  0  0  0  0  0  0  0  0  0  0  0
   12.9337   -5.0142    6.4942 N   0  0  0  0  0  0  0  0  0  0  0  0
   12.2473   -3.8563    6.4486 N   0  0  0  0  0  0  0  0  0  0  0  0
   10.9520   -4.0305    6.0461 C   0  0  0  0  0  0  0  0  0  0  0  0
    9.9667   -3.1177    5.6936 C   0  0  0  0  0  0  0  0  0  0  0  0
    6.4870   -1.9741    2.4151 C   0  0  0  0  0  0  0  0  0  0  0  0
    4.5849    0.2637   -2.9767 H   0  0  0  0  0  0  0  0  0  0  0  0
    4.5332   -1.4742   -2.6207 H   0  0  0  0  0  0  0  0  0  0  0  0
    5.6978   -0.4345   -1.7954 H   0  0  0  0  0  0  0  0  0  0  0  0
    3.8500    0.7514   -0.6125 H   0  0  0  0  0  0  0  0  0  0  0  0
    1.9624   -1.1707   -2.0853 H   0  0  0  0  0  0  0  0  0  0  0  0
    2.1577    0.5490   -2.4683 H   0  0  0  0  0  0  0  0  0  0  0  0
    1.5002    0.0547   -0.8993 H   0  0  0  0  0  0  0  0  0  0  0  0
    5.5780   -0.5225    0.5294 H   0  0  0  0  0  0  0  0  0  0  0  0
    3.7954   -3.7259    1.2910 H   0  0  0  0  0  0  0  0  0  0  0  0
    4.4507   -5.1965    3.1125 H   0  0  0  0  0  0  0  0  0  0  0  0
    6.3593   -4.6367    4.5568 H   0  0  0  0  0  0  0  0  0  0  0  0
    8.4225   -5.2566    3.5317 H   0  0  0  0  0  0  0  0  0  0  0  0
    9.8698   -6.9136    4.6520 H   0  0  0  0  0  0  0  0  0  0  0  0
   12.8559   -6.3606    8.5723 H   0  0  0  0  0  0  0  0  0  0  0  0
    9.8172   -5.9144    8.4886 H   0  0  0  0  0  0  0  0  0  0  0  0
   12.6596   -4.1583    9.7281 H   0  0  0  0  0  0  0  0  0  0  0  0
   12.5810   -2.8055   11.7728 H   0  0  0  0  0  0  0  0  0  0  0  0
   10.8140   -3.1970   13.4663 H   0  0  0  0  0  0  0  0  0  0  0  0
    9.1546   -5.0050   13.1172 H   0  0  0  0  0  0  0  0  0  0  0  0
    9.2078   -6.3815   11.0679 H   0  0  0  0  0  0  0  0  0  0  0  0
   12.7579   -2.9785    6.5474 H   0  0  0  0  0  0  0  0  0  0  0  0
   10.0344   -2.0724    5.9752 H   0  0  0  0  0  0  0  0  0  0  0  0
    7.0663   -1.0695    2.2387 H   0  0  0  0  0  0  0  0  0  0  0  0
  1  2  1  0  0  0  0
  1 32  1  0  0  0  0
  1 33  1  0  0  0  0
  1 34  1  0  0  0  0
  2  3  1  0  0  0  0
  2  4  1  0  0  0  0
  2 35  1  0  0  0  0
  3 36  1  0  0  0  0
  3 37  1  0  0  0  0
  3 38  1  0  0  0  0
  4  5  2  0  0  0  0
  4  6  1  0  0  0  0
  6  7  1  0  0  0  0
  6 39  1  0  0  0  0
  7  8  1  0  0  0  0
  7 31  2  0  0  0  0
  8  9  2  0  0  0  0
  8 40  1  0  0  0  0
  9 10  1  0  0  0  0
  9 41  1  0  0  0  0
 10 11  2  0  0  0  0
 10 42  1  0  0  0  0
 11 12  1  0  0  0  0
 11 31  1  0  0  0  0
 12 13  2  0  0  0  0
 12 14  1  0  0  0  0
 14 15  1  0  0  0  0
 14 30  2  0  0  0  0
 15 16  2  0  0  0  0
 15 43  1  0  0  0  0
 16 17  1  0  0  0  0
 16 44  1  0  0  0  0
 17 18  1  0  0  0  0
 17 29  2  0  0  0  0
 18 19  1  0  0  0  0
 18 27  2  0  0  0  0
 19 20  2  0  0  0  0
 19 45  1  0  0  0  0
 20 21  1  0  0  0  0
 20 46  1  0  0  0  0
 21 22  1  0  0  0  0
 21 26  2  0  0  0  0
 22 23  2  0  0  0  0
 22 47  1  0  0  0  0
 23 24  1  0  0  0  0
 23 48  1  0  0  0  0
 24 25  2  0  0  0  0
 24 49  1  0  0  0  0
 25 26  1  0  0  0  0
 25 50  1  0  0  0  0
 26 51  1  0  0  0  0
 27 28  1  0  0  0  0
 28 29  1  0  0  0  0
 28 52  1  0  0  0  0
 29 30  1  0  0  0  0
 30 53  1  0  0  0  0
 31 54  1  0  0  0  0
M  END
$$$$
