CHEMBL244297
 OpenBabel04072215363D

 56 60  0  0  0  0  0  0  0  0999 V2000
    1.0688   -0.4721   -0.3120 O   0  0  0  0  0  0  0  0  0  0  0  0
    2.1899   -0.1450    0.0589 C   0  0  0  0  0  0  0  0  0  0  0  0
    2.7400   -0.5005    1.2848 N   0  0  0  0  0  0  0  0  0  0  0  0
    2.0629   -1.2741    2.2613 C   0  0  0  0  0  0  0  0  0  0  0  0
    0.9212   -2.0225    1.9468 C   0  0  0  0  0  0  0  0  0  0  0  0
    0.1811   -2.6616    2.9312 C   0  0  0  0  0  0  0  0  0  0  0  0
    0.6268   -2.6814    4.2390 C   0  0  0  0  0  0  0  0  0  0  0  0
   -0.0759   -3.2964    5.2436 O   0  0  0  0  0  0  0  0  0  0  0  0
   -0.8015   -4.4541    5.0019 C   0  0  0  0  0  0  0  0  0  0  0  0
   -1.8513   -4.6540    5.9189 C   0  0  0  0  0  0  0  0  0  0  0  0
   -2.4734   -5.8914    6.0393 C   0  0  0  0  0  0  0  0  0  0  0  0
   -2.0554   -6.8558    5.1371 C   0  0  0  0  0  0  0  0  0  0  0  0
   -2.1487   -8.2283    5.1516 N   0  0  0  0  0  0  0  0  0  0  0  0
   -2.1102   -8.6013    3.8247 C   0  0  0  0  0  0  0  0  0  0  0  0
   -2.7780   -9.7691    3.4932 N   0  0  0  0  0  0  0  0  0  0  0  0
   -2.7944  -10.3461    2.2618 C   0  0  0  0  0  0  0  0  0  0  0  0
   -2.1799   -9.9328    1.2768 O   0  0  0  0  0  0  0  0  0  0  0  0
   -3.5895  -11.5688    2.2003 C   0  0  0  0  0  0  0  0  0  0  0  0
   -3.7679  -12.4690    1.1628 C   0  0  0  0  0  0  0  0  0  0  0  0
   -4.6251  -13.4885    1.6330 C   0  0  0  0  0  0  0  0  0  0  0  0
   -4.9348  -13.1532    2.9309 C   0  0  0  0  0  0  0  0  0  0  0  0
   -4.3080  -11.9949    3.2908 O   0  0  0  0  0  0  0  0  0  0  0  0
   -1.3104   -7.7510    3.2012 N   0  0  0  0  0  0  0  0  0  0  0  0
   -1.2238   -6.6419    4.0498 C   0  0  0  0  0  0  0  0  0  0  0  0
   -0.5009   -5.4345    4.0289 C   0  0  0  0  0  0  0  0  0  0  0  0
    1.7882   -1.9722    4.5770 C   0  0  0  0  0  0  0  0  0  0  0  0
    2.5076   -1.2747    3.5884 C   0  0  0  0  0  0  0  0  0  0  0  0
    3.0256    0.6512   -0.6976 N   0  0  0  0  0  0  0  0  0  0  0  0
    2.7064    1.2292   -1.9557 C   0  0  0  0  0  0  0  0  0  0  0  0
    1.4628    1.1053   -2.5896 C   0  0  0  0  0  0  0  0  0  0  0  0
    1.2077    1.7028   -3.8378 C   0  0  0  0  0  0  0  0  0  0  0  0
   -0.1497    1.5661   -4.4910 C   0  0  0  0  0  0  0  0  0  0  0  0
   -1.0416    0.8325   -3.7710 F   0  0  0  0  0  0  0  0  0  0  0  0
   -0.7441    2.7747   -4.6969 F   0  0  0  0  0  0  0  0  0  0  0  0
   -0.0800    0.9728   -5.7149 F   0  0  0  0  0  0  0  0  0  0  0  0
    2.2271    2.4372   -4.4587 C   0  0  0  0  0  0  0  0  0  0  0  0
    3.4678    2.5790   -3.8348 C   0  0  0  0  0  0  0  0  0  0  0  0
    3.6945    1.9814   -2.5966 C   0  0  0  0  0  0  0  0  0  0  0  0
    4.8908    2.1408   -2.0077 F   0  0  0  0  0  0  0  0  0  0  0  0
    3.5692   -0.0094    1.5845 H   0  0  0  0  0  0  0  0  0  0  0  0
    0.5568   -2.1252    0.9347 H   0  0  0  0  0  0  0  0  0  0  0  0
   -0.7453   -3.1491    2.6388 H   0  0  0  0  0  0  0  0  0  0  0  0
   -2.1390   -3.8534    6.5976 H   0  0  0  0  0  0  0  0  0  0  0  0
   -3.2099   -6.1019    6.8082 H   0  0  0  0  0  0  0  0  0  0  0  0
   -1.4989   -8.7220    5.7418 H   0  0  0  0  0  0  0  0  0  0  0  0
   -3.3600  -10.1895    4.2064 H   0  0  0  0  0  0  0  0  0  0  0  0
   -3.3183  -12.3810    0.1815 H   0  0  0  0  0  0  0  0  0  0  0  0
   -4.9792  -14.3587    1.0916 H   0  0  0  0  0  0  0  0  0  0  0  0
   -5.5543  -13.6161    3.6881 H   0  0  0  0  0  0  0  0  0  0  0  0
    0.2795   -5.3004    3.2818 H   0  0  0  0  0  0  0  0  0  0  0  0
    2.1263   -1.9407    5.6084 H   0  0  0  0  0  0  0  0  0  0  0  0
    3.3940   -0.7141    3.8800 H   0  0  0  0  0  0  0  0  0  0  0  0
    3.9693    0.8053   -0.3704 H   0  0  0  0  0  0  0  0  0  0  0  0
    0.6486    0.5460   -2.1374 H   0  0  0  0  0  0  0  0  0  0  0  0
    2.0521    2.9043   -5.4271 H   0  0  0  0  0  0  0  0  0  0  0  0
    4.2580    3.1582   -4.3042 H   0  0  0  0  0  0  0  0  0  0  0  0
  1  2  2  0  0  0  0
  2  3  1  0  0  0  0
  2 28  1  0  0  0  0
  3  4  1  0  0  0  0
  3 40  1  0  0  0  0
  4  5  1  0  0  0  0
  4 27  2  0  0  0  0
  5  6  2  0  0  0  0
  5 41  1  0  0  0  0
  6  7  1  0  0  0  0
  6 42  1  0  0  0  0
  7  8  1  0  0  0  0
  7 26  2  0  0  0  0
  8  9  1  0  0  0  0
  9 10  1  0  0  0  0
  9 25  2  0  0  0  0
 10 11  2  0  0  0  0
 10 43  1  0  0  0  0
 11 12  1  0  0  0  0
 11 44  1  0  0  0  0
 12 13  1  0  0  0  0
 12 24  2  0  0  0  0
 13 14  1  0  0  0  0
 13 45  1  0  0  0  0
 14 15  1  0  0  0  0
 14 23  2  0  0  0  0
 15 16  1  0  0  0  0
 15 46  1  0  0  0  0
 16 17  2  0  0  0  0
 16 18  1  0  0  0  0
 18 19  2  0  0  0  0
 18 22  1  0  0  0  0
 19 20  1  0  0  0  0
 19 47  1  0  0  0  0
 20 21  2  0  0  0  0
 20 48  1  0  0  0  0
 21 22  1  0  0  0  0
 21 49  1  0  0  0  0
 23 24  1  0  0  0  0
 24 25  1  0  0  0  0
 25 50  1  0  0  0  0
 26 27  1  0  0  0  0
 26 51  1  0  0  0  0
 27 52  1  0  0  0  0
 28 29  1  0  0  0  0
 28 53  1  0  0  0  0
 29 30  1  0  0  0  0
 29 38  2  0  0  0  0
 30 31  2  0  0  0  0
 30 54  1  0  0  0  0
 31 32  1  0  0  0  0
 31 36  1  0  0  0  0
 32 33  1  0  0  0  0
 32 34  1  0  0  0  0
 32 35  1  0  0  0  0
 36 37  2  0  0  0  0
 36 55  1  0  0  0  0
 37 38  1  0  0  0  0
 37 56  1  0  0  0  0
 38 39  1  0  0  0  0
M  END
$$$$
