CHEMBL234655
 OpenBabel04072215363D

 59 63  0  0  0  0  0  0  0  0999 V2000
    2.9600   -0.9828   -0.8340 O   0  0  0  0  0  0  0  0  0  0  0  0
    2.2985   -0.0851   -0.3254 C   0  0  0  0  0  0  0  0  0  0  0  0
    0.9252   -0.1402   -0.1837 N   0  0  0  0  0  0  0  0  0  0  0  0
    0.1637   -1.2759   -0.6728 C   0  0  0  0  0  0  0  0  0  0  0  0
    0.2176   -2.4694    0.2731 C   0  0  0  0  0  0  0  0  0  0  0  0
   -0.4175   -2.1653    1.6282 C   0  0  0  0  0  0  0  0  0  0  0  0
   -0.4222   -3.3303    2.4928 N   0  0  0  0  0  0  0  0  0  0  0  0
    0.7847   -3.8972    3.0416 C   0  0  0  0  0  0  0  0  0  0  0  0
    0.3161   -5.2506    3.5306 C   0  0  0  0  0  0  0  0  0  0  0  0
   -1.1122   -4.9839    3.9942 C   0  0  0  0  0  0  0  0  0  0  0  0
   -1.5581   -3.8618    3.0861 C   0  0  0  0  0  0  0  0  0  0  0  0
   -2.7060   -3.4705    2.9529 O   0  0  0  0  0  0  0  0  0  0  0  0
    2.9564    1.1532    0.1428 C   0  0  0  0  0  0  0  0  0  0  0  0
    4.0740    1.5741   -0.5805 C   0  0  0  0  0  0  0  0  0  0  0  0
    4.7800    2.6964   -0.3103 N   0  0  0  0  0  0  0  0  0  0  0  0
    4.3434    3.4397    0.7217 C   0  0  0  0  0  0  0  0  0  0  0  0
    3.2484    3.0988    1.4994 C   0  0  0  0  0  0  0  0  0  0  0  0
    2.5618    1.9005    1.2665 C   0  0  0  0  0  0  0  0  0  0  0  0
    1.4960    1.5044    2.1190 N   0  0  0  0  0  0  0  0  0  0  0  0
    1.4170    1.7103    3.5361 C   0  0  0  0  0  0  0  0  0  0  0  0
    2.4286    2.3394    4.1645 N   0  0  0  0  0  0  0  0  0  0  0  0
    2.3265    2.5264    5.4803 C   0  0  0  0  0  0  0  0  0  0  0  0
    3.3877    3.2699    6.1676 C   0  0  0  0  0  0  0  0  0  0  0  0
    3.7455    2.9517    7.4930 C   0  0  0  0  0  0  0  0  0  0  0  0
    4.7007    3.7045    8.1810 C   0  0  0  0  0  0  0  0  0  0  0  0
    5.1367    3.2562    9.9647 Br  0  0  0  0  0  0  0  0  0  0  0  0
    5.3261    4.7874    7.5701 C   0  0  0  0  0  0  0  0  0  0  0  0
    5.0084    5.1040    6.2517 C   0  0  0  0  0  0  0  0  0  0  0  0
    4.0537    4.3484    5.5663 C   0  0  0  0  0  0  0  0  0  0  0  0
    3.7614    4.7271    4.3125 F   0  0  0  0  0  0  0  0  0  0  0  0
    1.3083    2.0869    6.2193 N   0  0  0  0  0  0  0  0  0  0  0  0
    0.3073    1.4783    5.5942 C   0  0  0  0  0  0  0  0  0  0  0  0
   -0.7071    1.0591    6.3532 N   0  0  0  0  0  0  0  0  0  0  0  0
   -1.7454    0.4413    5.7460 C   0  0  0  0  0  0  0  0  0  0  0  0
   -1.7819    0.2368    4.3829 C   0  0  0  0  0  0  0  0  0  0  0  0
   -0.7700    0.6355    3.5867 N   0  0  0  0  0  0  0  0  0  0  0  0
    0.2792    1.2597    4.2060 C   0  0  0  0  0  0  0  0  0  0  0  0
    0.4236    0.7229    0.0066 H   0  0  0  0  0  0  0  0  0  0  0  0
    0.5658   -1.5693   -1.6496 H   0  0  0  0  0  0  0  0  0  0  0  0
   -0.8683   -0.9438   -0.8200 H   0  0  0  0  0  0  0  0  0  0  0  0
    1.2582   -2.7833    0.4123 H   0  0  0  0  0  0  0  0  0  0  0  0
   -0.3047   -3.3175   -0.1869 H   0  0  0  0  0  0  0  0  0  0  0  0
   -1.4472   -1.8170    1.4908 H   0  0  0  0  0  0  0  0  0  0  0  0
    0.1359   -1.3817    2.1502 H   0  0  0  0  0  0  0  0  0  0  0  0
    1.1260   -3.2593    3.8646 H   0  0  0  0  0  0  0  0  0  0  0  0
    1.5697   -3.9823    2.2872 H   0  0  0  0  0  0  0  0  0  0  0  0
    0.9542   -5.6695    4.3126 H   0  0  0  0  0  0  0  0  0  0  0  0
    0.2996   -5.9568    2.6902 H   0  0  0  0  0  0  0  0  0  0  0  0
   -1.1379   -4.6327    5.0299 H   0  0  0  0  0  0  0  0  0  0  0  0
   -1.7464   -5.8646    3.8718 H   0  0  0  0  0  0  0  0  0  0  0  0
    4.4402    1.0053   -1.4317 H   0  0  0  0  0  0  0  0  0  0  0  0
    4.9109    4.3424    0.9279 H   0  0  0  0  0  0  0  0  0  0  0  0
    2.9559    3.7726    2.2978 H   0  0  0  0  0  0  0  0  0  0  0  0
    1.1483    0.5672    1.9205 H   0  0  0  0  0  0  0  0  0  0  0  0
    3.2612    2.1125    7.9914 H   0  0  0  0  0  0  0  0  0  0  0  0
    6.0517    5.3908    8.1088 H   0  0  0  0  0  0  0  0  0  0  0  0
    5.4832    5.9427    5.7541 H   0  0  0  0  0  0  0  0  0  0  0  0
   -2.5485    0.1141    6.3944 H   0  0  0  0  0  0  0  0  0  0  0  0
   -2.6216   -0.2535    3.9039 H   0  0  0  0  0  0  0  0  0  0  0  0
  1  2  2  0  0  0  0
  2  3  1  0  0  0  0
  2 13  1  0  0  0  0
  3  4  1  0  0  0  0
  3 38  1  0  0  0  0
  4  5  1  0  0  0  0
  4 39  1  0  0  0  0
  4 40  1  0  0  0  0
  5  6  1  0  0  0  0
  5 41  1  0  0  0  0
  5 42  1  0  0  0  0
  6  7  1  0  0  0  0
  6 43  1  0  0  0  0
  6 44  1  0  0  0  0
  7  8  1  0  0  0  0
  7 11  1  0  0  0  0
  8  9  1  0  0  0  0
  8 45  1  0  0  0  0
  8 46  1  0  0  0  0
  9 10  1  0  0  0  0
  9 47  1  0  0  0  0
  9 48  1  0  0  0  0
 10 11  1  0  0  0  0
 10 49  1  0  0  0  0
 10 50  1  0  0  0  0
 11 12  2  0  0  0  0
 13 14  1  0  0  0  0
 13 18  2  0  0  0  0
 14 15  2  0  0  0  0
 14 51  1  0  0  0  0
 15 16  1  0  0  0  0
 16 17  2  0  0  0  0
 16 52  1  0  0  0  0
 17 18  1  0  0  0  0
 17 53  1  0  0  0  0
 18 19  1  0  0  0  0
 19 20  1  0  0  0  0
 19 54  1  0  0  0  0
 20 21  1  0  0  0  0
 20 37  2  0  0  0  0
 21 22  2  0  0  0  0
 22 23  1  0  0  0  0
 22 31  1  0  0  0  0
 23 24  1  0  0  0  0
 23 29  2  0  0  0  0
 24 25  2  0  0  0  0
 24 55  1  0  0  0  0
 25 26  1  0  0  0  0
 25 27  1  0  0  0  0
 27 28  2  0  0  0  0
 27 56  1  0  0  0  0
 28 29  1  0  0  0  0
 28 57  1  0  0  0  0
 29 30  1  0  0  0  0
 31 32  2  0  0  0  0
 32 33  1  0  0  0  0
 32 37  1  0  0  0  0
 33 34  2  0  0  0  0
 34 35  1  0  0  0  0
 34 58  1  0  0  0  0
 35 36  2  0  0  0  0
 35 59  1  0  0  0  0
 36 37  1  0  0  0  0
M  END
$$$$
