CHEMBL244288
 OpenBabel04072215363D

 54 57  0  0  0  0  0  0  0  0999 V2000
    8.0536   -0.2078  -10.9043 C   0  0  0  0  0  0  0  0  0  0  0  0
    7.1972   -0.8088   -9.9277 O   0  0  0  0  0  0  0  0  0  0  0  0
    7.8596   -1.5678   -9.0064 C   0  0  0  0  0  0  0  0  0  0  0  0
    9.0741   -1.6966   -8.9969 O   0  0  0  0  0  0  0  0  0  0  0  0
    6.9296   -2.1631   -8.1976 N   0  0  0  0  0  0  0  0  0  0  0  0
    7.2937   -2.9868   -7.1680 C   0  0  0  0  0  0  0  0  0  0  0  0
    8.4835   -3.1441   -6.6489 N   0  0  0  0  0  0  0  0  0  0  0  0
    8.3495   -4.1005   -5.6796 C   0  0  0  0  0  0  0  0  0  0  0  0
    9.3133   -4.6343   -4.8170 C   0  0  0  0  0  0  0  0  0  0  0  0
    8.9322   -5.6538   -3.9363 C   0  0  0  0  0  0  0  0  0  0  0  0
    7.6290   -6.1722   -3.9613 C   0  0  0  0  0  0  0  0  0  0  0  0
    7.2247   -7.2460   -3.1887 O   0  0  0  0  0  0  0  0  0  0  0  0
    8.1124   -8.2795   -2.9696 C   0  0  0  0  0  0  0  0  0  0  0  0
    8.0226   -8.9245   -1.7363 C   0  0  0  0  0  0  0  0  0  0  0  0
    8.9477   -9.9143   -1.3937 C   0  0  0  0  0  0  0  0  0  0  0  0
    9.9763  -10.2604   -2.2813 C   0  0  0  0  0  0  0  0  0  0  0  0
   11.0699  -11.2091   -1.8567 C   0  0  0  0  0  0  0  0  0  0  0  0
   10.9245  -12.6731   -2.2182 C   0  0  0  0  0  0  0  0  0  0  0  0
   11.9177  -13.4029   -2.1973 O   0  0  0  0  0  0  0  0  0  0  0  0
    9.6515  -13.1154   -2.5229 N   0  0  0  0  0  0  0  0  0  0  0  0
    9.3866  -14.4690   -2.8219 C   0  0  0  0  0  0  0  0  0  0  0  0
    9.9354  -15.5142   -2.0699 C   0  0  0  0  0  0  0  0  0  0  0  0
    9.6840  -16.8521   -2.4169 C   0  0  0  0  0  0  0  0  0  0  0  0
   10.2353  -17.9880   -1.5886 C   0  0  0  0  0  0  0  0  0  0  0  0
   10.9126  -17.5850   -0.4788 F   0  0  0  0  0  0  0  0  0  0  0  0
    9.2506  -18.8162   -1.1388 F   0  0  0  0  0  0  0  0  0  0  0  0
   11.0934  -18.7789   -2.2894 F   0  0  0  0  0  0  0  0  0  0  0  0
    8.9019  -17.1239   -3.5534 C   0  0  0  0  0  0  0  0  0  0  0  0
    8.3386  -16.0818   -4.2931 C   0  0  0  0  0  0  0  0  0  0  0  0
    8.5576  -14.7658   -3.9035 C   0  0  0  0  0  0  0  0  0  0  0  0
    8.0213  -13.7690   -4.6237 F   0  0  0  0  0  0  0  0  0  0  0  0
   10.0010   -9.6775   -3.5540 C   0  0  0  0  0  0  0  0  0  0  0  0
    9.0580   -8.7089   -3.9041 C   0  0  0  0  0  0  0  0  0  0  0  0
    6.6353   -5.5934   -4.7649 C   0  0  0  0  0  0  0  0  0  0  0  0
    7.0368   -4.5589   -5.6129 C   0  0  0  0  0  0  0  0  0  0  0  0
    6.3763   -3.7803   -6.5282 N   0  0  0  0  0  0  0  0  0  0  0  0
    7.4916    0.5782  -11.4171 H   0  0  0  0  0  0  0  0  0  0  0  0
    8.3493   -0.9620  -11.6397 H   0  0  0  0  0  0  0  0  0  0  0  0
    8.9377    0.2502  -10.4483 H   0  0  0  0  0  0  0  0  0  0  0  0
    5.9661   -2.0191   -8.4503 H   0  0  0  0  0  0  0  0  0  0  0  0
   10.3344   -4.2718   -4.8533 H   0  0  0  0  0  0  0  0  0  0  0  0
    9.6810   -6.0591   -3.2616 H   0  0  0  0  0  0  0  0  0  0  0  0
    7.2542   -8.6331   -1.0247 H   0  0  0  0  0  0  0  0  0  0  0  0
    8.8833  -10.3824   -0.4131 H   0  0  0  0  0  0  0  0  0  0  0  0
   11.1967  -11.1589   -0.7690 H   0  0  0  0  0  0  0  0  0  0  0  0
   12.0146  -10.8572   -2.2926 H   0  0  0  0  0  0  0  0  0  0  0  0
    9.0261  -12.4375   -2.9500 H   0  0  0  0  0  0  0  0  0  0  0  0
   10.5501  -15.2924   -1.1978 H   0  0  0  0  0  0  0  0  0  0  0  0
    8.7279  -18.1544   -3.8611 H   0  0  0  0  0  0  0  0  0  0  0  0
    7.7419  -16.2870   -5.1763 H   0  0  0  0  0  0  0  0  0  0  0  0
   10.7779   -9.9386   -4.2709 H   0  0  0  0  0  0  0  0  0  0  0  0
    9.1079   -8.2614   -4.8936 H   0  0  0  0  0  0  0  0  0  0  0  0
    5.6147   -5.9591   -4.7450 H   0  0  0  0  0  0  0  0  0  0  0  0
    5.3930   -3.8292   -6.7396 H   0  0  0  0  0  0  0  0  0  0  0  0
  1  2  1  0  0  0  0
  1 37  1  0  0  0  0
  1 38  1  0  0  0  0
  1 39  1  0  0  0  0
  2  3  1  0  0  0  0
  3  4  2  0  0  0  0
  3  5  1  0  0  0  0
  5  6  1  0  0  0  0
  5 40  1  0  0  0  0
  6  7  2  0  0  0  0
  6 36  1  0  0  0  0
  7  8  1  0  0  0  0
  8  9  1  0  0  0  0
  8 35  2  0  0  0  0
  9 10  2  0  0  0  0
  9 41  1  0  0  0  0
 10 11  1  0  0  0  0
 10 42  1  0  0  0  0
 11 12  1  0  0  0  0
 11 34  2  0  0  0  0
 12 13  1  0  0  0  0
 13 14  1  0  0  0  0
 13 33  2  0  0  0  0
 14 15  2  0  0  0  0
 14 43  1  0  0  0  0
 15 16  1  0  0  0  0
 15 44  1  0  0  0  0
 16 17  1  0  0  0  0
 16 32  2  0  0  0  0
 17 18  1  0  0  0  0
 17 45  1  0  0  0  0
 17 46  1  0  0  0  0
 18 19  2  0  0  0  0
 18 20  1  0  0  0  0
 20 21  1  0  0  0  0
 20 47  1  0  0  0  0
 21 22  1  0  0  0  0
 21 30  2  0  0  0  0
 22 23  2  0  0  0  0
 22 48  1  0  0  0  0
 23 24  1  0  0  0  0
 23 28  1  0  0  0  0
 24 25  1  0  0  0  0
 24 26  1  0  0  0  0
 24 27  1  0  0  0  0
 28 29  2  0  0  0  0
 28 49  1  0  0  0  0
 29 30  1  0  0  0  0
 29 50  1  0  0  0  0
 30 31  1  0  0  0  0
 32 33  1  0  0  0  0
 32 51  1  0  0  0  0
 33 52  1  0  0  0  0
 34 35  1  0  0  0  0
 34 53  1  0  0  0  0
 35 36  1  0  0  0  0
 36 54  1  0  0  0  0
M  END
$$$$
