CHEMBL245769
 OpenBabel04072215363D

 54 58  0  0  0  0  0  0  0  0999 V2000
    2.7301    0.4689    3.3680 C   0  0  0  0  0  0  0  0  0  0  0  0
    2.5379   -0.7813    2.7069 O   0  0  0  0  0  0  0  0  0  0  0  0
    3.0327   -0.7517    1.3738 C   0  0  0  0  0  0  0  0  0  0  0  0
    4.5450   -0.5462    1.2874 C   0  0  0  0  0  0  0  0  0  0  0  0
    4.9986    0.4159    0.6711 O   0  0  0  0  0  0  0  0  0  0  0  0
    5.2703   -1.5310    1.9383 N   0  0  0  0  0  0  0  0  0  0  0  0
    6.6731   -1.5455    2.0960 C   0  0  0  0  0  0  0  0  0  0  0  0
    7.4587   -0.3916    1.9319 C   0  0  0  0  0  0  0  0  0  0  0  0
    8.8614   -0.4172    2.0320 C   0  0  0  0  0  0  0  0  0  0  0  0
    9.5325   -1.6029    2.3149 C   0  0  0  0  0  0  0  0  0  0  0  0
    8.7567   -2.7208    2.5167 C   0  0  0  0  0  0  0  0  0  0  0  0
    7.3339   -2.7247    2.4261 C   0  0  0  0  0  0  0  0  0  0  0  0
    6.7327   -4.1201    2.6591 C   0  0  0  0  0  0  0  0  0  0  0  0
    8.0042   -4.8676    2.8728 C   0  0  0  0  0  0  0  0  0  0  0  0
    9.1428   -4.0587    2.8003 C   0  0  0  0  0  0  0  0  0  0  0  0
   10.2851   -4.7013    2.9849 N   0  0  0  0  0  0  0  0  0  0  0  0
    9.8545   -5.9746    3.1883 N   0  0  0  0  0  0  0  0  0  0  0  0
    8.4836   -6.1280    3.1151 C   0  0  0  0  0  0  0  0  0  0  0  0
    7.7309   -7.4010    3.2475 C   0  0  0  0  0  0  0  0  0  0  0  0
    8.3343   -8.6044    3.5434 C   0  0  0  0  0  0  0  0  0  0  0  0
    7.2100   -9.8953    3.5914 S   0  0  0  0  0  0  0  0  0  0  0  0
    5.9143   -8.8571    3.1987 C   0  0  0  0  0  0  0  0  0  0  0  0
    4.5788   -9.3139    3.0171 C   0  0  0  0  0  0  0  0  0  0  0  0
    3.3737   -9.7850    2.8565 C   0  0  0  0  0  0  0  0  0  0  0  0
    1.9688  -10.3341    2.6693 C   0  0  0  0  0  0  0  0  0  0  0  0
    1.7413  -11.4214    3.5560 O   0  0  0  0  0  0  0  0  0  0  0  0
    0.5007  -11.9975    3.4639 C   0  0  0  0  0  0  0  0  0  0  0  0
   -0.5214  -11.5966    2.5976 C   0  0  0  0  0  0  0  0  0  0  0  0
   -1.7507  -12.2590    2.6044 C   0  0  0  0  0  0  0  0  0  0  0  0
   -1.9649  -13.3281    3.4714 C   0  0  0  0  0  0  0  0  0  0  0  0
   -0.9479  -13.7368    4.3321 C   0  0  0  0  0  0  0  0  0  0  0  0
    0.2802  -13.0731    4.3272 C   0  0  0  0  0  0  0  0  0  0  0  0
    6.3224   -7.5480    3.0731 C   0  0  0  0  0  0  0  0  0  0  0  0
    2.2563    0.4129    4.3513 H   0  0  0  0  0  0  0  0  0  0  0  0
    2.2720    1.2869    2.8028 H   0  0  0  0  0  0  0  0  0  0  0  0
    3.7963    0.6661    3.5154 H   0  0  0  0  0  0  0  0  0  0  0  0
    2.5267    0.0337    0.7998 H   0  0  0  0  0  0  0  0  0  0  0  0
    2.7905   -1.7077    0.8971 H   0  0  0  0  0  0  0  0  0  0  0  0
    4.7490   -2.3378    2.2613 H   0  0  0  0  0  0  0  0  0  0  0  0
    7.0001    0.5736    1.7319 H   0  0  0  0  0  0  0  0  0  0  0  0
    9.4237    0.5010    1.8780 H   0  0  0  0  0  0  0  0  0  0  0  0
   10.6141   -1.6476    2.3702 H   0  0  0  0  0  0  0  0  0  0  0  0
    6.1982   -4.4696    1.7727 H   0  0  0  0  0  0  0  0  0  0  0  0
    6.1023   -4.1317    3.5525 H   0  0  0  0  0  0  0  0  0  0  0  0
   10.5504   -6.6907    3.3518 H   0  0  0  0  0  0  0  0  0  0  0  0
    9.3769   -8.8153    3.7349 H   0  0  0  0  0  0  0  0  0  0  0  0
    1.8837  -10.6648    1.6269 H   0  0  0  0  0  0  0  0  0  0  0  0
    1.2648   -9.5171    2.8693 H   0  0  0  0  0  0  0  0  0  0  0  0
   -0.4041  -10.7730    1.9028 H   0  0  0  0  0  0  0  0  0  0  0  0
   -2.5419  -11.9386    1.9302 H   0  0  0  0  0  0  0  0  0  0  0  0
   -2.9226  -13.8403    3.4768 H   0  0  0  0  0  0  0  0  0  0  0  0
   -1.1100  -14.5740    5.0065 H   0  0  0  0  0  0  0  0  0  0  0  0
    1.0705  -13.3966    5.0006 H   0  0  0  0  0  0  0  0  0  0  0  0
    5.6371   -6.7463    2.8347 H   0  0  0  0  0  0  0  0  0  0  0  0
  1  2  1  0  0  0  0
  1 34  1  0  0  0  0
  1 35  1  0  0  0  0
  1 36  1  0  0  0  0
  2  3  1  0  0  0  0
  3  4  1  0  0  0  0
  3 37  1  0  0  0  0
  3 38  1  0  0  0  0
  4  5  2  0  0  0  0
  4  6  1  0  0  0  0
  6  7  1  0  0  0  0
  6 39  1  0  0  0  0
  7  8  1  0  0  0  0
  7 12  2  0  0  0  0
  8  9  2  0  0  0  0
  8 40  1  0  0  0  0
  9 10  1  0  0  0  0
  9 41  1  0  0  0  0
 10 11  2  0  0  0  0
 10 42  1  0  0  0  0
 11 12  1  0  0  0  0
 11 15  1  0  0  0  0
 12 13  1  0  0  0  0
 13 14  1  0  0  0  0
 13 43  1  0  0  0  0
 13 44  1  0  0  0  0
 14 15  1  0  0  0  0
 14 18  2  0  0  0  0
 15 16  2  0  0  0  0
 16 17  1  0  0  0  0
 17 18  1  0  0  0  0
 17 45  1  0  0  0  0
 18 19  1  0  0  0  0
 19 20  2  0  0  0  0
 19 33  1  0  0  0  0
 20 21  1  0  0  0  0
 20 46  1  0  0  0  0
 21 22  1  0  0  0  0
 22 23  1  0  0  0  0
 22 33  2  0  0  0  0
 23 24  3  0  0  0  0
 24 25  1  0  0  0  0
 25 26  1  0  0  0  0
 25 47  1  0  0  0  0
 25 48  1  0  0  0  0
 26 27  1  0  0  0  0
 27 28  1  0  0  0  0
 27 32  2  0  0  0  0
 28 29  2  0  0  0  0
 28 49  1  0  0  0  0
 29 30  1  0  0  0  0
 29 50  1  0  0  0  0
 30 31  2  0  0  0  0
 30 51  1  0  0  0  0
 31 32  1  0  0  0  0
 31 52  1  0  0  0  0
 32 53  1  0  0  0  0
 33 54  1  0  0  0  0
M  END
$$$$
