CHEMBL4086340
 OpenBabel04072215383D

 77 80  0  0  0  0  0  0  0  0999 V2000
    2.1320   -0.4327    1.4881 C   0  0  0  0  0  0  0  0  0  0  0  0
    2.6752   -0.1486    0.0965 C   0  0  0  0  0  0  0  0  0  0  0  0
    3.1409   -1.3698   -0.5707 N   0  0  0  0  0  0  0  0  0  0  0  0
    2.1423   -2.2547   -1.1782 C   0  0  0  0  0  0  0  0  0  0  0  0
    2.0268   -3.5557   -0.3945 C   0  0  0  0  0  0  0  0  0  0  0  0
    4.5027   -1.5792   -0.7471 C   0  0  0  0  0  0  0  0  0  0  0  0
    5.4472   -1.2728    0.2417 C   0  0  0  0  0  0  0  0  0  0  0  0
    6.7906   -1.4588    0.1493 N   0  0  0  0  0  0  0  0  0  0  0  0
    7.2424   -1.9766   -1.0127 C   0  0  0  0  0  0  0  0  0  0  0  0
    6.4189   -2.3060   -2.0762 C   0  0  0  0  0  0  0  0  0  0  0  0
    6.9554   -2.8221   -3.2970 C   0  0  0  0  0  0  0  0  0  0  0  0
    7.3677   -3.2716   -4.3359 C   0  0  0  0  0  0  0  0  0  0  0  0
    7.7865   -3.8498   -5.5764 C   0  0  0  0  0  0  0  0  0  0  0  0
    8.1201   -2.9970   -6.6419 C   0  0  0  0  0  0  0  0  0  0  0  0
    8.4335   -3.5437   -7.8883 C   0  0  0  0  0  0  0  0  0  0  0  0
    8.5969   -2.7277   -9.1178 C   0  0  0  0  0  0  0  0  0  0  0  0
    8.2189   -3.2436  -10.1657 O   0  0  0  0  0  0  0  0  0  0  0  0
    9.2123   -1.4887   -9.0013 N   0  0  0  0  0  0  0  0  0  0  0  0
    9.4717   -0.6390  -10.1085 C   0  0  0  0  0  0  0  0  0  0  0  0
    8.7829   -0.7538  -11.3139 C   0  0  0  0  0  0  0  0  0  0  0  0
    9.1652   -0.0153  -12.4307 C   0  0  0  0  0  0  0  0  0  0  0  0
   10.2471    0.8748  -12.3728 C   0  0  0  0  0  0  0  0  0  0  0  0
   10.7010    1.5005  -13.6765 C   0  0  0  0  0  0  0  0  0  0  0  0
   12.0765    1.1391  -14.0193 N   0  0  0  0  0  0  0  0  0  0  0  0
   12.3012   -0.3056  -14.1970 C   0  0  0  0  0  0  0  0  0  0  0  0
   13.7894   -0.5960  -14.5069 C   0  0  0  0  0  0  0  0  0  0  0  0
   14.3303    0.1224  -15.6784 N   0  0  0  0  0  0  0  0  0  0  0  0
   13.8259   -0.4404  -16.9275 C   0  0  0  0  0  0  0  0  0  0  0  0
   14.0060    1.5586  -15.5555 C   0  0  0  0  0  0  0  0  0  0  0  0
   12.5298    1.8702  -15.2159 C   0  0  0  0  0  0  0  0  0  0  0  0
   10.8956    1.0835  -11.1355 C   0  0  0  0  0  0  0  0  0  0  0  0
   12.0652    2.0286  -10.9317 C   0  0  0  0  0  0  0  0  0  0  0  0
   12.4281    2.8044  -11.9852 F   0  0  0  0  0  0  0  0  0  0  0  0
   11.8067    2.9192   -9.9258 F   0  0  0  0  0  0  0  0  0  0  0  0
   13.1920    1.3670  -10.5377 F   0  0  0  0  0  0  0  0  0  0  0  0
   10.4792    0.3258  -10.0092 C   0  0  0  0  0  0  0  0  0  0  0  0
    8.4552   -4.9367   -8.0510 C   0  0  0  0  0  0  0  0  0  0  0  0
    8.1440   -5.7815   -6.9902 C   0  0  0  0  0  0  0  0  0  0  0  0
    7.7900   -5.2484   -5.7460 C   0  0  0  0  0  0  0  0  0  0  0  0
    7.3789   -6.1907   -4.6459 C   0  0  0  0  0  0  0  0  0  0  0  0
    5.0411   -2.1109   -1.9276 C   0  0  0  0  0  0  0  0  0  0  0  0
    1.8072    0.5005    1.9603 H   0  0  0  0  0  0  0  0  0  0  0  0
    2.8896   -0.8915    2.1305 H   0  0  0  0  0  0  0  0  0  0  0  0
    1.2692   -1.1047    1.4515 H   0  0  0  0  0  0  0  0  0  0  0  0
    3.4717    0.6028    0.1621 H   0  0  0  0  0  0  0  0  0  0  0  0
    1.8864    0.3157   -0.5082 H   0  0  0  0  0  0  0  0  0  0  0  0
    2.3686   -2.4702   -2.2269 H   0  0  0  0  0  0  0  0  0  0  0  0
    1.1596   -1.7676   -1.1877 H   0  0  0  0  0  0  0  0  0  0  0  0
    2.9839   -4.0850   -0.3465 H   0  0  0  0  0  0  0  0  0  0  0  0
    1.2957   -4.2192   -0.8671 H   0  0  0  0  0  0  0  0  0  0  0  0
    1.6976   -3.3691    0.6328 H   0  0  0  0  0  0  0  0  0  0  0  0
    5.1329   -0.8733    1.2016 H   0  0  0  0  0  0  0  0  0  0  0  0
    8.3176   -2.1206   -1.0623 H   0  0  0  0  0  0  0  0  0  0  0  0
    8.0627   -1.9192   -6.5082 H   0  0  0  0  0  0  0  0  0  0  0  0
    9.6964   -1.2819   -8.1369 H   0  0  0  0  0  0  0  0  0  0  0  0
    7.9463   -1.4364  -11.4303 H   0  0  0  0  0  0  0  0  0  0  0  0
    8.6332   -0.1869  -13.3644 H   0  0  0  0  0  0  0  0  0  0  0  0
   10.6013    2.5879  -13.5657 H   0  0  0  0  0  0  0  0  0  0  0  0
   10.0219    1.2189  -14.4929 H   0  0  0  0  0  0  0  0  0  0  0  0
   11.6608   -0.7081  -14.9919 H   0  0  0  0  0  0  0  0  0  0  0  0
   12.0552   -0.8505  -13.2787 H   0  0  0  0  0  0  0  0  0  0  0  0
   13.9397   -1.6764  -14.6212 H   0  0  0  0  0  0  0  0  0  0  0  0
   14.3870   -0.3093  -13.6302 H   0  0  0  0  0  0  0  0  0  0  0  0
   14.0976   -1.4992  -17.0034 H   0  0  0  0  0  0  0  0  0  0  0  0
   14.2893    0.0617  -17.7836 H   0  0  0  0  0  0  0  0  0  0  0  0
   12.7396   -0.3607  -17.0340 H   0  0  0  0  0  0  0  0  0  0  0  0
   14.2932    2.0920  -16.4700 H   0  0  0  0  0  0  0  0  0  0  0  0
   14.6365    1.9785  -14.7600 H   0  0  0  0  0  0  0  0  0  0  0  0
   11.8929    1.6315  -16.0781 H   0  0  0  0  0  0  0  0  0  0  0  0
   12.4434    2.9496  -15.0417 H   0  0  0  0  0  0  0  0  0  0  0  0
   11.0080    0.4636   -9.0662 H   0  0  0  0  0  0  0  0  0  0  0  0
    8.6775   -5.3696   -9.0257 H   0  0  0  0  0  0  0  0  0  0  0  0
    8.1403   -6.8566   -7.1583 H   0  0  0  0  0  0  0  0  0  0  0  0
    7.4250   -7.2343   -4.9771 H   0  0  0  0  0  0  0  0  0  0  0  0
    6.3453   -5.9937   -4.3430 H   0  0  0  0  0  0  0  0  0  0  0  0
    8.0441   -6.0895   -3.7832 H   0  0  0  0  0  0  0  0  0  0  0  0
    4.3971   -2.3435   -2.7697 H   0  0  0  0  0  0  0  0  0  0  0  0
  1  2  1  0  0  0  0
  1 42  1  0  0  0  0
  1 43  1  0  0  0  0
  1 44  1  0  0  0  0
  2  3  1  0  0  0  0
  2 45  1  0  0  0  0
  2 46  1  0  0  0  0
  3  4  1  0  0  0  0
  3  6  1  0  0  0  0
  4  5  1  0  0  0  0
  4 47  1  0  0  0  0
  4 48  1  0  0  0  0
  5 49  1  0  0  0  0
  5 50  1  0  0  0  0
  5 51  1  0  0  0  0
  6  7  1  0  0  0  0
  6 41  2  0  0  0  0
  7  8  2  0  0  0  0
  7 52  1  0  0  0  0
  8  9  1  0  0  0  0
  9 10  2  0  0  0  0
  9 53  1  0  0  0  0
 10 11  1  0  0  0  0
 10 41  1  0  0  0  0
 11 12  3  0  0  0  0
 12 13  1  0  0  0  0
 13 14  1  0  0  0  0
 13 39  2  0  0  0  0
 14 15  2  0  0  0  0
 14 54  1  0  0  0  0
 15 16  1  0  0  0  0
 15 37  1  0  0  0  0
 16 17  2  0  0  0  0
 16 18  1  0  0  0  0
 18 19  1  0  0  0  0
 18 55  1  0  0  0  0
 19 20  1  0  0  0  0
 19 36  2  0  0  0  0
 20 21  2  0  0  0  0
 20 56  1  0  0  0  0
 21 22  1  0  0  0  0
 21 57  1  0  0  0  0
 22 23  1  0  0  0  0
 22 31  2  0  0  0  0
 23 24  1  0  0  0  0
 23 58  1  0  0  0  0
 23 59  1  0  0  0  0
 24 25  1  0  0  0  0
 24 30  1  0  0  0  0
 25 26  1  0  0  0  0
 25 60  1  0  0  0  0
 25 61  1  0  0  0  0
 26 27  1  0  0  0  0
 26 62  1  0  0  0  0
 26 63  1  0  0  0  0
 27 28  1  0  0  0  0
 27 29  1  0  0  0  0
 28 64  1  0  0  0  0
 28 65  1  0  0  0  0
 28 66  1  0  0  0  0
 29 30  1  0  0  0  0
 29 67  1  0  0  0  0
 29 68  1  0  0  0  0
 30 69  1  0  0  0  0
 30 70  1  0  0  0  0
 31 32  1  0  0  0  0
 31 36  1  0  0  0  0
 32 33  1  0  0  0  0
 32 34  1  0  0  0  0
 32 35  1  0  0  0  0
 36 71  1  0  0  0  0
 37 38  2  0  0  0  0
 37 72  1  0  0  0  0
 38 39  1  0  0  0  0
 38 73  1  0  0  0  0
 39 40  1  0  0  0  0
 40 74  1  0  0  0  0
 40 75  1  0  0  0  0
 40 76  1  0  0  0  0
 41 77  1  0  0  0  0
M  END
$$$$
