CHEMBL3098318
 OpenBabel04072215363D

 36 39  0  0  0  0  0  0  0  0999 V2000
    3.9957    0.0045   -1.0182 N   0  0  0  0  0  0  0  0  0  0  0  0
    2.9190    0.2590    0.2430 S   0  0  0  0  0  0  0  0  0  0  0  0
    1.5896    0.2697   -0.3419 O   0  0  0  0  0  0  0  0  0  0  0  0
    3.3119   -0.6634    1.2800 O   0  0  0  0  0  0  0  0  0  0  0  0
    3.3076    1.9130    0.7464 C   0  0  0  0  0  0  0  0  0  0  0  0
    3.1788    2.9557   -0.1623 C   0  0  0  0  0  0  0  0  0  0  0  0
    3.5453    4.2509    0.2281 C   0  0  0  0  0  0  0  0  0  0  0  0
    3.9859    4.5548    1.5353 C   0  0  0  0  0  0  0  0  0  0  0  0
    4.3301    5.8892    1.9291 N   0  0  0  0  0  0  0  0  0  0  0  0
    3.7060    7.0623    1.4172 C   0  0  0  0  0  0  0  0  0  0  0  0
    2.5743    6.8581    0.7148 N   0  0  0  0  0  0  0  0  0  0  0  0
    2.0777    7.8756    0.0302 C   0  0  0  0  0  0  0  0  0  0  0  0
    0.8466    7.5125   -1.0909 Cl  0  0  0  0  0  0  0  0  0  0  0  0
    2.5682    9.0982   -0.0320 N   0  0  0  0  0  0  0  0  0  0  0  0
    3.6537    9.3191    0.6871 C   0  0  0  0  0  0  0  0  0  0  0  0
    4.1604   10.5875    0.5229 C   0  0  0  0  0  0  0  0  0  0  0  0
    5.2736   10.9558    1.2208 C   0  0  0  0  0  0  0  0  0  0  0  0
    5.8768   10.1103    2.1152 C   0  0  0  0  0  0  0  0  0  0  0  0
    5.4405    8.7991    2.2729 C   0  0  0  0  0  0  0  0  0  0  0  0
    4.3000    8.3562    1.5131 C   0  0  0  0  0  0  0  0  0  0  0  0
    6.8959   10.7462    2.7642 O   0  0  0  0  0  0  0  0  0  0  0  0
    6.7297   12.1039    2.2730 C   0  0  0  0  0  0  0  0  0  0  0  0
    5.8707   12.1710    1.1261 O   0  0  0  0  0  0  0  0  0  0  0  0
    4.1201    3.4778    2.4244 C   0  0  0  0  0  0  0  0  0  0  0  0
    3.7787    2.1658    2.0371 C   0  0  0  0  0  0  0  0  0  0  0  0
    3.4923   -0.3189   -1.8464 H   0  0  0  0  0  0  0  0  0  0  0  0
    4.7406   -0.6256   -0.7197 H   0  0  0  0  0  0  0  0  0  0  0  0
    2.8081    2.7773   -1.1696 H   0  0  0  0  0  0  0  0  0  0  0  0
    3.4621    5.0329   -0.5229 H   0  0  0  0  0  0  0  0  0  0  0  0
    4.5224    5.9732    2.9205 H   0  0  0  0  0  0  0  0  0  0  0  0
    3.6812   11.2878   -0.1524 H   0  0  0  0  0  0  0  0  0  0  0  0
    5.9535    8.1412    2.9692 H   0  0  0  0  0  0  0  0  0  0  0  0
    7.7047   12.5344    2.0191 H   0  0  0  0  0  0  0  0  0  0  0  0
    6.2676   12.7196    3.0559 H   0  0  0  0  0  0  0  0  0  0  0  0
    4.4786    3.6342    3.4378 H   0  0  0  0  0  0  0  0  0  0  0  0
    3.8833    1.3477    2.7481 H   0  0  0  0  0  0  0  0  0  0  0  0
  1  2  1  0  0  0  0
  1 26  1  0  0  0  0
  1 27  1  0  0  0  0
  2  3  2  0  0  0  0
  2  4  2  0  0  0  0
  2  5  1  0  0  0  0
  5  6  1  0  0  0  0
  5 25  2  0  0  0  0
  6  7  2  0  0  0  0
  6 28  1  0  0  0  0
  7  8  1  0  0  0  0
  7 29  1  0  0  0  0
  8  9  1  0  0  0  0
  8 24  2  0  0  0  0
  9 10  1  0  0  0  0
  9 30  1  0  0  0  0
 10 11  1  0  0  0  0
 10 20  2  0  0  0  0
 11 12  2  0  0  0  0
 12 13  1  0  0  0  0
 12 14  1  0  0  0  0
 14 15  2  0  0  0  0
 15 16  1  0  0  0  0
 15 20  1  0  0  0  0
 16 17  2  0  0  0  0
 16 31  1  0  0  0  0
 17 18  1  0  0  0  0
 17 23  1  0  0  0  0
 18 19  2  0  0  0  0
 18 21  1  0  0  0  0
 19 20  1  0  0  0  0
 19 32  1  0  0  0  0
 21 22  1  0  0  0  0
 22 23  1  0  0  0  0
 22 33  1  0  0  0  0
 22 34  1  0  0  0  0
 24 25  1  0  0  0  0
 24 35  1  0  0  0  0
 25 36  1  0  0  0  0
M  END
$$$$
