CHEMBL4543095
 OpenBabel04072215383D

 66 70  0  0  0  0  0  0  0  0999 V2000
    5.0370   -6.1191    0.1025 C   0  0  0  0  0  0  0  0  0  0  0  0
    4.7912   -5.6645   -1.1951 O   0  0  0  0  0  0  0  0  0  0  0  0
    5.0746   -4.4614   -1.7312 C   0  0  0  0  0  0  0  0  0  0  0  0
    4.7359   -4.5547   -3.0439 C   0  0  0  0  0  0  0  0  0  0  0  0
    4.5444   -3.4123   -3.7755 C   0  0  0  0  0  0  0  0  0  0  0  0
    5.0041   -2.1040   -3.5241 C   0  0  0  0  0  0  0  0  0  0  0  0
    4.8180   -1.1601   -4.8186 C   0  0  0  0  0  0  0  0  0  0  0  0
    4.4142    0.1842   -4.9382 C   0  0  0  0  0  0  0  0  0  0  0  0
    2.9936    0.4834   -5.1648 C   0  0  0  0  0  0  0  0  0  0  0  0
    2.3261    1.6767   -4.8886 C   0  0  0  0  0  0  0  0  0  0  0  0
    2.0269    1.8088   -3.5565 C   0  0  0  0  0  0  0  0  0  0  0  0
    2.0907    0.6276   -2.8399 C   0  0  0  0  0  0  0  0  0  0  0  0
    2.6593    0.5855   -1.5877 O   0  0  0  0  0  0  0  0  0  0  0  0
    3.5260    1.7118   -1.3183 C   0  0  0  0  0  0  0  0  0  0  0  0
    1.9014   -0.5855   -3.5580 C   0  0  0  0  0  0  0  0  0  0  0  0
    2.3112   -0.6354   -4.9114 C   0  0  0  0  0  0  0  0  0  0  0  0
    2.7167   -1.7052   -5.6467 N   0  0  0  0  0  0  0  0  0  0  0  0
    4.0699   -1.8075   -5.8002 C   0  0  0  0  0  0  0  0  0  0  0  0
    4.7123   -2.7969   -6.5989 N   0  0  0  0  0  0  0  0  0  0  0  0
    4.1778   -3.5147   -7.6845 C   0  0  0  0  0  0  0  0  0  0  0  0
    4.9963   -3.7860   -8.7861 C   0  0  0  0  0  0  0  0  0  0  0  0
    4.4613   -4.2989   -9.9734 C   0  0  0  0  0  0  0  0  0  0  0  0
    3.1041   -4.5985  -10.0771 C   0  0  0  0  0  0  0  0  0  0  0  0
    2.4650   -4.9961  -11.3207 N   0  0  0  0  0  0  0  0  0  0  0  0
    3.1240   -5.3159  -12.4765 C   0  0  0  0  0  0  0  0  0  0  0  0
    4.3224   -5.4796  -12.6061 O   0  0  0  0  0  0  0  0  0  0  0  0
    2.2165   -5.5327  -13.6822 C   0  0  0  0  0  0  0  0  0  0  0  0
    1.7944   -6.9274  -13.8903 N   0  0  0  0  0  0  0  0  0  0  0  0
    0.9028   -7.4668  -12.8691 C   0  0  0  0  0  0  0  0  0  0  0  0
    1.7770   -8.2791  -11.9347 C   0  0  0  0  0  0  0  0  0  0  0  0
    2.9008   -8.7854  -12.8180 C   0  0  0  0  0  0  0  0  0  0  0  0
    2.9128   -7.8724  -14.0383 C   0  0  0  0  0  0  0  0  0  0  0  0
    2.3148   -4.4717   -8.9293 C   0  0  0  0  0  0  0  0  0  0  0  0
    2.8575   -3.9555   -7.7377 C   0  0  0  0  0  0  0  0  0  0  0  0
    5.4840   -2.0146   -2.1943 C   0  0  0  0  0  0  0  0  0  0  0  0
    5.4555   -3.1931   -1.2797 C   0  0  0  0  0  0  0  0  0  0  0  0
    4.8853   -7.2111    0.0572 H   0  0  0  0  0  0  0  0  0  0  0  0
    4.3207   -5.7287    0.8176 H   0  0  0  0  0  0  0  0  0  0  0  0
    6.0755   -5.9494    0.3893 H   0  0  0  0  0  0  0  0  0  0  0  0
    4.4127   -5.4928   -3.4854 H   0  0  0  0  0  0  0  0  0  0  0  0
    3.8272   -3.6055   -4.5577 H   0  0  0  0  0  0  0  0  0  0  0  0
    4.9787    0.7614   -5.7028 H   0  0  0  0  0  0  0  0  0  0  0  0
    1.4769    1.9896   -5.5191 H   0  0  0  0  0  0  0  0  0  0  0  0
    1.5945    2.7009   -3.1186 H   0  0  0  0  0  0  0  0  0  0  0  0
    4.0521    1.5321   -0.3766 H   0  0  0  0  0  0  0  0  0  0  0  0
    2.9243    2.6178   -1.1951 H   0  0  0  0  0  0  0  0  0  0  0  0
    4.2992    1.8821   -2.0881 H   0  0  0  0  0  0  0  0  0  0  0  0
    1.7624   -1.5245   -3.0337 H   0  0  0  0  0  0  0  0  0  0  0  0
    5.6829   -2.5398   -6.7459 H   0  0  0  0  0  0  0  0  0  0  0  0
    6.0567   -3.5493   -8.7637 H   0  0  0  0  0  0  0  0  0  0  0  0
    5.1336   -4.3844  -10.8211 H   0  0  0  0  0  0  0  0  0  0  0  0
    1.4733   -5.0301  -11.2824 H   0  0  0  0  0  0  0  0  0  0  0  0
    2.7857   -5.2014  -14.5700 H   0  0  0  0  0  0  0  0  0  0  0  0
    1.3552   -4.8662  -13.6282 H   0  0  0  0  0  0  0  0  0  0  0  0
    0.1879   -8.1346  -13.3638 H   0  0  0  0  0  0  0  0  0  0  0  0
    0.3110   -6.7077  -12.3464 H   0  0  0  0  0  0  0  0  0  0  0  0
    1.2264   -9.1009  -11.4675 H   0  0  0  0  0  0  0  0  0  0  0  0
    2.1840   -7.6569  -11.1318 H   0  0  0  0  0  0  0  0  0  0  0  0
    2.7070   -9.8212  -13.1194 H   0  0  0  0  0  0  0  0  0  0  0  0
    3.8565   -8.7649  -12.2844 H   0  0  0  0  0  0  0  0  0  0  0  0
    2.7526   -8.4718  -14.9426 H   0  0  0  0  0  0  0  0  0  0  0  0
    3.8893   -7.3941  -14.1686 H   0  0  0  0  0  0  0  0  0  0  0  0
    1.2653   -4.7467   -8.9300 H   0  0  0  0  0  0  0  0  0  0  0  0
    2.2289   -3.8852   -6.8503 H   0  0  0  0  0  0  0  0  0  0  0  0
    5.8304   -1.0747   -1.7578 H   0  0  0  0  0  0  0  0  0  0  0  0
    5.6857   -3.0627   -0.2177 H   0  0  0  0  0  0  0  0  0  0  0  0
  1  2  1  0  0  0  0
  1 37  1  0  0  0  0
  1 38  1  0  0  0  0
  1 39  1  0  0  0  0
  2  3  1  0  0  0  0
  3  4  1  0  0  0  0
  3 36  2  0  0  0  0
  4  5  2  0  0  0  0
  4 40  1  0  0  0  0
  5  6  1  0  0  0  0
  5 41  1  0  0  0  0
  6  7  1  0  0  0  0
  6 35  2  0  0  0  0
  7  8  1  0  0  0  0
  7 18  2  0  0  0  0
  8  9  2  0  0  0  0
  8 42  1  0  0  0  0
  9 10  1  0  0  0  0
  9 16  1  0  0  0  0
 10 11  2  0  0  0  0
 10 43  1  0  0  0  0
 11 12  1  0  0  0  0
 11 44  1  0  0  0  0
 12 13  1  0  0  0  0
 12 15  2  0  0  0  0
 13 14  1  0  0  0  0
 14 45  1  0  0  0  0
 14 46  1  0  0  0  0
 14 47  1  0  0  0  0
 15 16  1  0  0  0  0
 15 48  1  0  0  0  0
 16 17  2  0  0  0  0
 17 18  1  0  0  0  0
 18 19  1  0  0  0  0
 19 20  1  0  0  0  0
 19 49  1  0  0  0  0
 20 21  1  0  0  0  0
 20 34  2  0  0  0  0
 21 22  2  0  0  0  0
 21 50  1  0  0  0  0
 22 23  1  0  0  0  0
 22 51  1  0  0  0  0
 23 24  1  0  0  0  0
 23 33  2  0  0  0  0
 24 25  1  0  0  0  0
 24 52  1  0  0  0  0
 25 26  2  0  0  0  0
 25 27  1  0  0  0  0
 27 28  1  0  0  0  0
 27 53  1  0  0  0  0
 27 54  1  0  0  0  0
 28 29  1  0  0  0  0
 28 32  1  0  0  0  0
 29 30  1  0  0  0  0
 29 55  1  0  0  0  0
 29 56  1  0  0  0  0
 30 31  1  0  0  0  0
 30 57  1  0  0  0  0
 30 58  1  0  0  0  0
 31 32  1  0  0  0  0
 31 59  1  0  0  0  0
 31 60  1  0  0  0  0
 32 61  1  0  0  0  0
 32 62  1  0  0  0  0
 33 34  1  0  0  0  0
 33 63  1  0  0  0  0
 34 64  1  0  0  0  0
 35 36  1  0  0  0  0
 35 65  1  0  0  0  0
 36 66  1  0  0  0  0
M  END
$$$$
