CHEMBL3648079
 OpenBabel04072215373D

 70 71  0  0  1  0  0  0  0  0999 V2000
    3.3927    0.3606    0.6226 C   0  0  0  0  0  0  0  0  0  0  0  0
    3.9910   -0.3470   -0.6153 C   0  0  1  0  0  0  0  0  0  0  0  0
    2.9311   -0.4353   -1.6822 N   0  0  0  0  0  0  0  0  0  0  0  0
    2.5832   -1.7132   -2.1785 C   0  0  0  0  0  0  0  0  0  0  0  0
    3.5183   -2.6905   -2.1077 N   0  0  0  0  0  0  0  0  0  0  0  0
    3.2321   -3.8885   -2.6514 C   0  0  0  0  0  0  0  0  0  0  0  0
    4.2183   -4.8750   -2.7759 N   0  0  0  0  0  0  0  0  0  0  0  0
    4.0570   -6.1384   -3.3722 C   0  0  0  0  0  0  0  0  0  0  0  0
    3.1122   -6.3578   -4.3979 C   0  0  0  0  0  0  0  0  0  0  0  0
    2.7649   -7.6320   -4.8532 C   0  0  0  0  0  0  0  0  0  0  0  0
    3.3906   -8.7299   -4.2957 C   0  0  0  0  0  0  0  0  0  0  0  0
    2.9899  -10.3504   -4.7943 S   0  0  3  0  0  0  0  0  0  0  0  0
    4.1812  -10.9838   -5.3225 O   0  0  0  0  0  0  0  0  0  0  0  0
    2.3226  -11.2428   -3.4118 C   0  0  0  0  0  0  0  0  0  0  0  0
    1.0709  -10.6099   -2.8798 C   0  0  0  0  0  0  0  0  0  0  0  0
    0.1428  -11.2196   -2.3750 O   0  0  0  0  0  0  0  0  0  0  0  0
    1.7266  -10.3108   -5.9033 N   0  0  0  0  0  0  0  0  0  0  0  0
    1.0692  -11.7240   -6.5857 S   0  0  0  0  0  0  0  0  0  0  0  0
    0.4866  -11.3944   -7.8690 O   0  0  0  0  0  0  0  0  0  0  0  0
    2.0158  -12.8298   -6.4459 O   0  0  0  0  0  0  0  0  0  0  0  0
   -0.2860  -12.0673   -5.4639 C   0  0  0  0  0  0  0  0  0  0  0  0
   -1.0267  -13.3473   -5.8418 C   0  0  0  0  0  0  0  0  0  0  0  0
   -2.4644  -13.8546   -4.7062 Si  0  0  0  0  0  0  0  0  0  0  0  0
   -3.7517  -12.4935   -4.6984 C   0  0  0  0  0  0  0  0  0  0  0  0
   -3.2157  -15.4425   -5.3739 C   0  0  0  0  0  0  0  0  0  0  0  0
   -1.8653  -14.1556   -2.9573 C   0  0  0  0  0  0  0  0  0  0  0  0
    4.3893   -8.5466   -3.3275 C   0  0  0  0  0  0  0  0  0  0  0  0
    4.7091   -7.2586   -2.8593 C   0  0  0  0  0  0  0  0  0  0  0  0
    2.0045   -4.2016   -3.0928 N   0  0  0  0  0  0  0  0  0  0  0  0
    1.1131   -3.2248   -3.2242 C   0  0  0  0  0  0  0  0  0  0  0  0
    1.3766   -1.9320   -2.8559 C   0  0  0  0  0  0  0  0  0  0  0  0
    0.1244   -0.6354   -3.4114 Br  0  0  0  0  0  0  0  0  0  0  0  0
    5.2702    0.4376   -1.1102 C   0  0  0  0  0  0  0  0  0  0  0  0
    6.3839    0.4852   -0.0431 C   0  0  0  0  0  0  0  0  0  0  0  0
    5.8676   -0.1706   -2.3835 C   0  0  0  0  0  0  0  0  0  0  0  0
    4.9197    1.7901   -1.4412 O   0  0  0  0  0  0  0  0  0  0  0  0
    2.6517   -0.2699    1.1250 H   0  0  0  0  0  0  0  0  0  0  0  0
    2.9115    1.3117    0.3634 H   0  0  0  0  0  0  0  0  0  0  0  0
    4.1507    0.5852    1.3840 H   0  0  0  0  0  0  0  0  0  0  0  0
    4.2972   -1.3482   -0.2896 H   0  0  0  0  0  0  0  0  0  0  0  0
    3.2429    0.0879   -2.5052 H   0  0  0  0  0  0  0  0  0  0  0  0
    5.0564   -4.6669   -2.2475 H   0  0  0  0  0  0  0  0  0  0  0  0
    2.5988   -5.5151   -4.8543 H   0  0  0  0  0  0  0  0  0  0  0  0
    2.0121   -7.7134   -5.6313 H   0  0  0  0  0  0  0  0  0  0  0  0
    3.0754  -11.2462   -2.6279 H   0  0  0  0  0  0  0  0  0  0  0  0
    2.1430  -12.2773   -3.7281 H   0  0  0  0  0  0  0  0  0  0  0  0
    1.0333   -9.4930   -2.8969 H   0  0  0  0  0  0  0  0  0  0  0  0
   -0.9443  -11.1930   -5.4420 H   0  0  0  0  0  0  0  0  0  0  0  0
    0.1401  -12.2227   -4.4800 H   0  0  0  0  0  0  0  0  0  0  0  0
   -0.3161  -14.1824   -5.8611 H   0  0  0  0  0  0  0  0  0  0  0  0
   -1.4195  -13.2416   -6.8567 H   0  0  0  0  0  0  0  0  0  0  0  0
   -4.1160  -12.2975   -5.7110 H   0  0  0  0  0  0  0  0  0  0  0  0
   -3.3277  -11.5667   -4.3009 H   0  0  0  0  0  0  0  0  0  0  0  0
   -4.6058  -12.7726   -4.0744 H   0  0  0  0  0  0  0  0  0  0  0  0
   -3.5701  -15.3028   -6.3994 H   0  0  0  0  0  0  0  0  0  0  0  0
   -4.0622  -15.7592   -4.7576 H   0  0  0  0  0  0  0  0  0  0  0  0
   -2.4740  -16.2472   -5.3748 H   0  0  0  0  0  0  0  0  0  0  0  0
   -1.4275  -13.2491   -2.5346 H   0  0  0  0  0  0  0  0  0  0  0  0
   -1.1100  -14.9460   -2.9301 H   0  0  0  0  0  0  0  0  0  0  0  0
   -2.6968  -14.4553   -2.3117 H   0  0  0  0  0  0  0  0  0  0  0  0
    4.9309   -9.3999   -2.9231 H   0  0  0  0  0  0  0  0  0  0  0  0
    5.4483   -7.1498   -2.0689 H   0  0  0  0  0  0  0  0  0  0  0  0
    0.1875   -3.5417   -3.6929 H   0  0  0  0  0  0  0  0  0  0  0  0
    6.6884   -0.5191    0.2711 H   0  0  0  0  0  0  0  0  0  0  0  0
    6.0937    1.0533    0.8467 H   0  0  0  0  0  0  0  0  0  0  0  0
    7.2690    1.0056   -0.4299 H   0  0  0  0  0  0  0  0  0  0  0  0
    6.2881   -1.1638   -2.2024 H   0  0  0  0  0  0  0  0  0  0  0  0
    6.6567    0.4774   -2.7822 H   0  0  0  0  0  0  0  0  0  0  0  0
    5.1273   -0.2466   -3.1835 H   0  0  0  0  0  0  0  0  0  0  0  0
    4.7232    2.2714   -0.6166 H   0  0  0  0  0  0  0  0  0  0  0  0
  1  2  1  0  0  0  0
  1 37  1  0  0  0  0
  1 38  1  0  0  0  0
  1 39  1  0  0  0  0
  2  3  1  0  0  0  0
  2 33  1  0  0  0  0
  2 40  1  1  0  0  0
  3  4  1  0  0  0  0
  3 41  1  0  0  0  0
  4  5  1  0  0  0  0
  4 31  2  0  0  0  0
  5  6  2  0  0  0  0
  6  7  1  0  0  0  0
  6 29  1  0  0  0  0
  7  8  1  0  0  0  0
  7 42  1  0  0  0  0
  8  9  1  0  0  0  0
  8 28  2  0  0  0  0
  9 10  2  0  0  0  0
  9 43  1  0  0  0  0
 10 11  1  0  0  0  0
 10 44  1  0  0  0  0
 11 12  1  0  0  0  0
 11 27  2  0  0  0  0
 12 13  2  0  0  0  0
 12 14  1  0  0  0  0
 12 17  2  0  0  0  0
 14 15  1  0  0  0  0
 14 45  1  0  0  0  0
 14 46  1  0  0  0  0
 15 16  2  0  0  0  0
 15 47  1  0  0  0  0
 17 18  1  0  0  0  0
 18 19  2  0  0  0  0
 18 20  2  0  0  0  0
 18 21  1  0  0  0  0
 21 22  1  0  0  0  0
 21 48  1  0  0  0  0
 21 49  1  0  0  0  0
 22 23  1  0  0  0  0
 22 50  1  0  0  0  0
 22 51  1  0  0  0  0
 23 24  1  0  0  0  0
 23 25  1  0  0  0  0
 23 26  1  0  0  0  0
 24 52  1  0  0  0  0
 24 53  1  0  0  0  0
 24 54  1  0  0  0  0
 25 55  1  0  0  0  0
 25 56  1  0  0  0  0
 25 57  1  0  0  0  0
 26 58  1  0  0  0  0
 26 59  1  0  0  0  0
 26 60  1  0  0  0  0
 27 28  1  0  0  0  0
 27 61  1  0  0  0  0
 28 62  1  0  0  0  0
 29 30  2  0  0  0  0
 30 31  1  0  0  0  0
 30 63  1  0  0  0  0
 31 32  1  0  0  0  0
 33 34  1  0  0  0  0
 33 35  1  0  0  0  0
 33 36  1  0  0  0  0
 34 64  1  0  0  0  0
 34 65  1  0  0  0  0
 34 66  1  0  0  0  0
 35 67  1  0  0  0  0
 35 68  1  0  0  0  0
 35 69  1  0  0  0  0
 36 70  1  0  0  0  0
M  END
$$$$
