CHEMBL4079917
 OpenBabel04072215383D

 54 59  0  0  1  0  0  0  0  0999 V2000
    4.4419   -1.5898    1.8542 C   0  0  0  0  0  0  0  0  0  0  0  0
    4.0109   -0.7188    0.6782 C   0  0  1  0  0  0  0  0  0  0  0  0
    4.3702    0.7538    0.9488 C   0  0  0  0  0  0  0  0  0  0  0  0
    4.1811    1.6070   -0.2675 C   0  0  0  0  0  0  0  0  0  0  0  0
    4.0904    1.0552   -1.5369 C   0  0  0  0  0  0  0  0  0  0  0  0
    3.9416    1.8070   -2.6502 N   0  0  0  0  0  0  0  0  0  0  0  0
    3.8841    3.1328   -2.4698 C   0  0  0  0  0  0  0  0  0  0  0  0
    3.9789    3.7693   -1.3001 N   0  0  0  0  0  0  0  0  0  0  0  0
    4.1663    2.9846   -0.2202 C   0  0  0  0  0  0  0  0  0  0  0  0
    4.3607    3.5830    1.0215 O   0  0  0  0  0  0  0  0  0  0  0  0
    5.0822    4.7578    1.0555 C   0  0  0  0  0  0  0  0  0  0  0  0
    6.1039    5.0469    0.1511 C   0  0  0  0  0  0  0  0  0  0  0  0
    6.7704    6.2653    0.1821 C   0  0  0  0  0  0  0  0  0  0  0  0
    6.4077    7.1859    1.1742 C   0  0  0  0  0  0  0  0  0  0  0  0
    5.4623    6.8848    2.1559 C   0  0  0  0  0  0  0  0  0  0  0  0
    5.4409    7.9772    3.0638 C   0  0  0  0  0  0  0  0  0  0  0  0
    6.3855    8.8865    2.6388 C   0  0  0  0  0  0  0  0  0  0  0  0
    6.9254    8.4491    1.4422 N   0  0  0  0  0  0  0  0  0  0  0  0
    7.9520    9.0823    0.7157 C   0  0  0  0  0  0  0  0  0  0  0  0
    8.9271    9.5057    1.3262 O   0  0  0  0  0  0  0  0  0  0  0  0
    7.6439    9.2058   -0.6234 N   0  0  0  0  0  0  0  0  0  0  0  0
    8.5470    9.8843   -1.4329 C   0  0  0  0  0  0  0  0  0  0  0  0
    9.9079    9.5518   -1.6273 C   0  0  0  0  0  0  0  0  0  0  0  0
   10.4114   10.5650   -2.4087 C   0  0  0  0  0  0  0  0  0  0  0  0
   11.8654   10.7023   -2.8350 C   0  0  0  0  0  0  0  0  0  0  0  0
   12.4535   12.0991   -2.9449 C   0  0  0  0  0  0  0  0  0  0  0  0
   12.2000   11.3110   -4.1827 C   0  0  0  0  0  0  0  0  0  0  0  0
    9.3924   11.4192   -2.7167 O   0  0  0  0  0  0  0  0  0  0  0  0
    8.2045   10.9477   -2.1582 N   0  0  0  0  0  0  0  0  0  0  0  0
    4.7828    5.6467    2.0956 C   0  0  0  0  0  0  0  0  0  0  0  0
    4.1128   -0.4506   -1.7132 C   0  0  0  0  0  0  0  0  0  0  0  0
    4.6546   -1.1929   -0.5583 N   0  0  0  0  0  0  0  0  0  0  0  0
    3.9368   -1.2674    2.7712 H   0  0  0  0  0  0  0  0  0  0  0  0
    5.5222   -1.5308    2.0276 H   0  0  0  0  0  0  0  0  0  0  0  0
    4.1811   -2.6399    1.6818 H   0  0  0  0  0  0  0  0  0  0  0  0
    2.9221   -0.8169    0.5701 H   0  0  0  0  0  0  0  0  0  0  0  0
    5.4182    0.8369    1.2653 H   0  0  0  0  0  0  0  0  0  0  0  0
    3.7412    1.1253    1.7668 H   0  0  0  0  0  0  0  0  0  0  0  0
    3.7620    3.7484   -3.3540 H   0  0  0  0  0  0  0  0  0  0  0  0
    6.3848    4.3388   -0.6244 H   0  0  0  0  0  0  0  0  0  0  0  0
    7.5523    6.4757   -0.5395 H   0  0  0  0  0  0  0  0  0  0  0  0
    4.8325    8.0710    3.9533 H   0  0  0  0  0  0  0  0  0  0  0  0
    6.7053    9.8303    3.0618 H   0  0  0  0  0  0  0  0  0  0  0  0
    6.6682    9.3681   -0.8511 H   0  0  0  0  0  0  0  0  0  0  0  0
   10.4416    8.6969   -1.2448 H   0  0  0  0  0  0  0  0  0  0  0  0
   12.5317    9.9238   -2.4711 H   0  0  0  0  0  0  0  0  0  0  0  0
   13.4854   12.2428   -2.6409 H   0  0  0  0  0  0  0  0  0  0  0  0
   11.8190   12.9566   -2.7534 H   0  0  0  0  0  0  0  0  0  0  0  0
   13.0644   10.9264   -4.7148 H   0  0  0  0  0  0  0  0  0  0  0  0
   11.3982   11.6389   -4.8330 H   0  0  0  0  0  0  0  0  0  0  0  0
    4.0344    5.3902    2.8397 H   0  0  0  0  0  0  0  0  0  0  0  0
    4.7158   -0.6973   -2.5948 H   0  0  0  0  0  0  0  0  0  0  0  0
    3.0907   -0.7920   -1.9162 H   0  0  0  0  0  0  0  0  0  0  0  0
    5.6585   -1.0172   -0.5083 H   0  0  0  0  0  0  0  0  0  0  0  0
  1  2  1  0  0  0  0
  1 33  1  0  0  0  0
  1 34  1  0  0  0  0
  1 35  1  0  0  0  0
  2  3  1  0  0  0  0
  2 32  1  0  0  0  0
  2 36  1  6  0  0  0
  3  4  1  0  0  0  0
  3 37  1  0  0  0  0
  3 38  1  0  0  0  0
  4  5  1  0  0  0  0
  4  9  2  0  0  0  0
  5  6  2  0  0  0  0
  5 31  1  0  0  0  0
  6  7  1  0  0  0  0
  7  8  2  0  0  0  0
  7 39  1  0  0  0  0
  8  9  1  0  0  0  0
  9 10  1  0  0  0  0
 10 11  1  0  0  0  0
 11 12  1  0  0  0  0
 11 30  2  0  0  0  0
 12 13  2  0  0  0  0
 12 40  1  0  0  0  0
 13 14  1  0  0  0  0
 13 41  1  0  0  0  0
 14 15  2  0  0  0  0
 14 18  1  0  0  0  0
 15 16  1  0  0  0  0
 15 30  1  0  0  0  0
 16 17  2  0  0  0  0
 16 42  1  0  0  0  0
 17 18  1  0  0  0  0
 17 43  1  0  0  0  0
 18 19  1  0  0  0  0
 19 20  2  0  0  0  0
 19 21  1  0  0  0  0
 21 22  1  0  0  0  0
 21 44  1  0  0  0  0
 22 23  1  0  0  0  0
 22 29  2  0  0  0  0
 23 24  2  0  0  0  0
 23 45  1  0  0  0  0
 24 25  1  0  0  0  0
 24 28  1  0  0  0  0
 25 26  1  0  0  0  0
 25 27  1  0  0  0  0
 25 46  1  0  0  0  0
 26 27  1  0  0  0  0
 26 47  1  0  0  0  0
 26 48  1  0  0  0  0
 27 49  1  0  0  0  0
 27 50  1  0  0  0  0
 28 29  1  0  0  0  0
 30 51  1  0  0  0  0
 31 32  1  0  0  0  0
 31 52  1  0  0  0  0
 31 53  1  0  0  0  0
 32 54  1  0  0  0  0
M  END
$$$$
