CHEMBL3901236
 OpenBabel04072215373D

 70 73  0  0  1  0  0  0  0  0999 V2000
    1.8319    1.4456   -0.8795 C   0  0  0  0  0  0  0  0  0  0  0  0
    2.2058    0.1695   -0.1179 C   0  0  1  0  0  0  0  0  0  0  0  0
    3.1447   -0.6565   -0.8803 N   0  0  0  0  0  0  0  0  0  0  0  0
    2.7091   -1.1543   -2.1054 C   0  0  0  0  0  0  0  0  0  0  0  0
    1.4002   -1.3729   -2.3649 N   0  0  0  0  0  0  0  0  0  0  0  0
    1.0536   -1.7879   -3.6031 C   0  0  0  0  0  0  0  0  0  0  0  0
    1.8523   -2.0226   -4.6622 N   0  0  0  0  0  0  0  0  0  0  0  0
    3.1365   -1.8021   -4.3502 C   0  0  0  0  0  0  0  0  0  0  0  0
    4.1854   -1.9133   -5.2178 N   0  0  0  0  0  0  0  0  0  0  0  0
    5.3709   -1.5777   -4.5934 C   0  0  0  0  0  0  0  0  0  0  0  0
    6.6653   -1.5288   -5.2649 C   0  0  0  0  0  0  0  0  0  0  0  0
    6.7711   -1.2038   -6.6222 C   0  0  0  0  0  0  0  0  0  0  0  0
    8.0260   -1.1001   -7.2299 C   0  0  0  0  0  0  0  0  0  0  0  0
    9.1969   -1.3167   -6.4910 C   0  0  0  0  0  0  0  0  0  0  0  0
   10.5557   -1.2132   -7.1386 C   0  0  0  0  0  0  0  0  0  0  0  0
   10.7818    0.1250   -7.6781 N   0  0  0  0  0  0  0  0  0  0  0  0
   12.1082    0.2235   -8.2789 C   0  0  0  0  0  0  0  0  0  0  0  0
   12.2967    1.6340   -8.8316 C   0  0  0  0  0  0  0  0  0  0  0  0
   13.6697    1.7823   -9.4785 C   0  0  0  0  0  0  0  0  0  0  0  0
   13.8697    3.1901  -10.0387 C   0  0  0  0  0  0  0  0  0  0  0  0
   15.2474    3.3113  -10.6805 C   0  0  0  0  0  0  0  0  0  0  0  0
   15.4893    4.7035  -11.2523 C   0  0  0  0  0  0  0  0  0  0  0  0
   16.8664    4.8060  -11.8752 C   0  0  0  0  0  0  0  0  0  0  0  0
   17.6851    3.8891  -11.9200 O   0  0  0  0  0  0  0  0  0  0  0  0
   17.1429    6.0428  -12.3956 N   0  0  0  0  0  0  0  0  0  0  0  0
   18.4036    6.1887  -13.0160 O   0  0  0  0  0  0  0  0  0  0  0  0
    9.0901   -1.6481   -5.1369 C   0  0  0  0  0  0  0  0  0  0  0  0
    7.8371   -1.7564   -4.5329 C   0  0  0  0  0  0  0  0  0  0  0  0
    5.0416   -1.2834   -3.2775 C   0  0  0  0  0  0  0  0  0  0  0  0
    3.6360   -1.3990   -3.1278 C   0  0  0  0  0  0  0  0  0  0  0  0
    2.9023    0.5344    1.1896 C   0  0  0  0  0  0  0  0  0  0  0  0
    2.3302    0.1926    2.4228 C   0  0  0  0  0  0  0  0  0  0  0  0
    3.0153    0.4443    3.6139 C   0  0  0  0  0  0  0  0  0  0  0  0
    4.2737    1.0447    3.5874 C   0  0  0  0  0  0  0  0  0  0  0  0
    4.8375    1.4252    2.3730 C   0  0  0  0  0  0  0  0  0  0  0  0
    4.1539    1.1781    1.1833 C   0  0  0  0  0  0  0  0  0  0  0  0
    1.2290    1.2231   -1.7657 H   0  0  0  0  0  0  0  0  0  0  0  0
    2.7189    1.9898   -1.2242 H   0  0  0  0  0  0  0  0  0  0  0  0
    1.2461    2.1220   -0.2470 H   0  0  0  0  0  0  0  0  0  0  0  0
    1.2972   -0.4036    0.1076 H   0  0  0  0  0  0  0  0  0  0  0  0
    3.4522   -1.4492   -0.3177 H   0  0  0  0  0  0  0  0  0  0  0  0
   -0.0072   -1.9442   -3.7699 H   0  0  0  0  0  0  0  0  0  0  0  0
    4.0843   -2.1853   -6.1862 H   0  0  0  0  0  0  0  0  0  0  0  0
    5.8888   -0.9926   -7.2193 H   0  0  0  0  0  0  0  0  0  0  0  0
    8.0902   -0.8270   -8.2814 H   0  0  0  0  0  0  0  0  0  0  0  0
   10.6168   -1.9684   -7.9305 H   0  0  0  0  0  0  0  0  0  0  0  0
   11.3323   -1.4490   -6.4000 H   0  0  0  0  0  0  0  0  0  0  0  0
   10.6940    0.8033   -6.9215 H   0  0  0  0  0  0  0  0  0  0  0  0
   12.2095   -0.5051   -9.0922 H   0  0  0  0  0  0  0  0  0  0  0  0
   12.8854    0.0110   -7.5345 H   0  0  0  0  0  0  0  0  0  0  0  0
   12.1914    2.3696   -8.0243 H   0  0  0  0  0  0  0  0  0  0  0  0
   11.5170    1.8504   -9.5726 H   0  0  0  0  0  0  0  0  0  0  0  0
   13.7786    1.0472  -10.2851 H   0  0  0  0  0  0  0  0  0  0  0  0
   14.4507    1.5675   -8.7384 H   0  0  0  0  0  0  0  0  0  0  0  0
   13.7679    3.9275   -9.2344 H   0  0  0  0  0  0  0  0  0  0  0  0
   13.0917    3.4078  -10.7811 H   0  0  0  0  0  0  0  0  0  0  0  0
   15.3488    2.5630  -11.4771 H   0  0  0  0  0  0  0  0  0  0  0  0
   16.0193    3.0813   -9.9345 H   0  0  0  0  0  0  0  0  0  0  0  0
   15.4109    5.4556  -10.4588 H   0  0  0  0  0  0  0  0  0  0  0  0
   14.7407    4.9312  -12.0199 H   0  0  0  0  0  0  0  0  0  0  0  0
   16.4903    6.8146  -12.4667 H   0  0  0  0  0  0  0  0  0  0  0  0
   18.8029    5.3020  -12.8892 H   0  0  0  0  0  0  0  0  0  0  0  0
    9.9807   -1.8195   -4.5374 H   0  0  0  0  0  0  0  0  0  0  0  0
    7.7891   -2.0190   -3.4788 H   0  0  0  0  0  0  0  0  0  0  0  0
    5.7323   -0.9589   -2.5099 H   0  0  0  0  0  0  0  0  0  0  0  0
    1.3541   -0.2852    2.4646 H   0  0  0  0  0  0  0  0  0  0  0  0
    2.5728    0.1585    4.5646 H   0  0  0  0  0  0  0  0  0  0  0  0
    4.8169    1.2127    4.5134 H   0  0  0  0  0  0  0  0  0  0  0  0
    5.8153    1.8988    2.3472 H   0  0  0  0  0  0  0  0  0  0  0  0
    4.6122    1.4651    0.2382 H   0  0  0  0  0  0  0  0  0  0  0  0
  1  2  1  0  0  0  0
  1 37  1  0  0  0  0
  1 38  1  0  0  0  0
  1 39  1  0  0  0  0
  2  3  1  0  0  0  0
  2 31  1  0  0  0  0
  2 40  1  1  0  0  0
  3  4  1  0  0  0  0
  3 41  1  0  0  0  0
  4  5  1  0  0  0  0
  4 30  2  0  0  0  0
  5  6  2  0  0  0  0
  6  7  1  0  0  0  0
  6 42  1  0  0  0  0
  7  8  2  0  0  0  0
  8  9  1  0  0  0  0
  8 30  1  0  0  0  0
  9 10  1  0  0  0  0
  9 43  1  0  0  0  0
 10 11  1  0  0  0  0
 10 29  2  0  0  0  0
 11 12  1  0  0  0  0
 11 28  2  0  0  0  0
 12 13  2  0  0  0  0
 12 44  1  0  0  0  0
 13 14  1  0  0  0  0
 13 45  1  0  0  0  0
 14 15  1  0  0  0  0
 14 27  2  0  0  0  0
 15 16  1  0  0  0  0
 15 46  1  0  0  0  0
 15 47  1  0  0  0  0
 16 17  1  0  0  0  0
 16 48  1  0  0  0  0
 17 18  1  0  0  0  0
 17 49  1  0  0  0  0
 17 50  1  0  0  0  0
 18 19  1  0  0  0  0
 18 51  1  0  0  0  0
 18 52  1  0  0  0  0
 19 20  1  0  0  0  0
 19 53  1  0  0  0  0
 19 54  1  0  0  0  0
 20 21  1  0  0  0  0
 20 55  1  0  0  0  0
 20 56  1  0  0  0  0
 21 22  1  0  0  0  0
 21 57  1  0  0  0  0
 21 58  1  0  0  0  0
 22 23  1  0  0  0  0
 22 59  1  0  0  0  0
 22 60  1  0  0  0  0
 23 24  2  0  0  0  0
 23 25  1  0  0  0  0
 25 26  1  0  0  0  0
 25 61  1  0  0  0  0
 26 62  1  0  0  0  0
 27 28  1  0  0  0  0
 27 63  1  0  0  0  0
 28 64  1  0  0  0  0
 29 30  1  0  0  0  0
 29 65  1  0  0  0  0
 31 32  1  0  0  0  0
 31 36  2  0  0  0  0
 32 33  2  0  0  0  0
 32 66  1  0  0  0  0
 33 34  1  0  0  0  0
 33 67  1  0  0  0  0
 34 35  2  0  0  0  0
 34 68  1  0  0  0  0
 35 36  1  0  0  0  0
 35 69  1  0  0  0  0
 36 70  1  0  0  0  0
M  END
$$$$
