CHEMBL212899
 OpenBabel04072215363D

 27 30  0  0  0  0  0  0  0  0999 V2000
    0.0146    0.9155   -0.7750 C   0  0  0  0  0  0  0  0  0  0  0  0
    0.8960    1.0352    0.2761 C   0  0  0  0  0  0  0  0  0  0  0  0
    1.1474   -0.4571    1.0709 S   0  0  0  0  0  0  0  0  0  0  0  0
    0.1040   -1.2829   -0.0024 C   0  0  0  0  0  0  0  0  0  0  0  0
   -0.1832   -2.7538    0.0555 C   0  0  0  0  0  0  0  0  0  0  0  0
   -0.9469   -3.3771   -0.8718 N   0  0  0  0  0  0  0  0  0  0  0  0
   -0.9584   -4.6805   -0.4901 N   0  0  0  0  0  0  0  0  0  0  0  0
   -0.2423   -4.8750    0.6302 C   0  0  0  0  0  0  0  0  0  0  0  0
    0.2636   -3.6667    1.0210 C   0  0  0  0  0  0  0  0  0  0  0  0
    1.0549   -3.7327    2.2813 C   0  0  0  0  0  0  0  0  0  0  0  0
    0.8824   -5.2409    2.5439 C   0  0  0  0  0  0  0  0  0  0  0  0
    1.3825   -5.9560    3.6191 C   0  0  0  0  0  0  0  0  0  0  0  0
    1.1159   -7.3284    3.6758 C   0  0  0  0  0  0  0  0  0  0  0  0
    0.3656   -7.9673    2.6686 C   0  0  0  0  0  0  0  0  0  0  0  0
   -0.1454   -7.2514    1.5823 C   0  0  0  0  0  0  0  0  0  0  0  0
    0.1177   -5.9011    1.5427 C   0  0  0  0  0  0  0  0  0  0  0  0
   -0.4406   -0.4265   -0.9385 C   0  0  0  0  0  0  0  0  0  0  0  0
   -0.2863    1.7470   -1.4000 H   0  0  0  0  0  0  0  0  0  0  0  0
    1.4023    1.9265    0.6203 H   0  0  0  0  0  0  0  0  0  0  0  0
   -1.4827   -5.3481   -1.0456 H   0  0  0  0  0  0  0  0  0  0  0  0
    0.6023   -3.1460    3.0842 H   0  0  0  0  0  0  0  0  0  0  0  0
    2.1078   -3.4854    2.1251 H   0  0  0  0  0  0  0  0  0  0  0  0
    1.9602   -5.4700    4.3982 H   0  0  0  0  0  0  0  0  0  0  0  0
    1.4941   -7.9122    4.5124 H   0  0  0  0  0  0  0  0  0  0  0  0
    0.1809   -9.0373    2.7425 H   0  0  0  0  0  0  0  0  0  0  0  0
   -0.7224   -7.7471    0.8113 H   0  0  0  0  0  0  0  0  0  0  0  0
   -1.1362   -0.7499   -1.7042 H   0  0  0  0  0  0  0  0  0  0  0  0
  1  2  2  0  0  0  0
  1 17  1  0  0  0  0
  1 18  1  0  0  0  0
  2  3  1  0  0  0  0
  2 19  1  0  0  0  0
  3  4  1  0  0  0  0
  4  5  1  0  0  0  0
  4 17  2  0  0  0  0
  5  6  2  0  0  0  0
  5  9  1  0  0  0  0
  6  7  1  0  0  0  0
  7  8  1  0  0  0  0
  7 20  1  0  0  0  0
  8  9  2  0  0  0  0
  8 16  1  0  0  0  0
  9 10  1  0  0  0  0
 10 11  1  0  0  0  0
 10 21  1  0  0  0  0
 10 22  1  0  0  0  0
 11 12  1  0  0  0  0
 11 16  2  0  0  0  0
 12 13  2  0  0  0  0
 12 23  1  0  0  0  0
 13 14  1  0  0  0  0
 13 24  1  0  0  0  0
 14 15  2  0  0  0  0
 14 25  1  0  0  0  0
 15 16  1  0  0  0  0
 15 26  1  0  0  0  0
 17 27  1  0  0  0  0
M  END
$$$$
