CHEMBL1253915
 OpenBabel04072215363D

 43 47  0  0  0  0  0  0  0  0999 V2000
    0.4910   -0.3239    0.6553 C   0  0  0  0  0  0  0  0  0  0  0  0
    1.8484   -0.2191    1.1451 N   0  0  0  0  0  0  0  0  0  0  0  0
    2.3750    0.9005    1.7413 C   0  0  0  0  0  0  0  0  0  0  0  0
    3.6788    0.6138    2.0959 C   0  0  0  0  0  0  0  0  0  0  0  0
    3.9436   -0.7133    1.6965 C   0  0  0  0  0  0  0  0  0  0  0  0
    5.0794   -1.4317    1.8394 N   0  0  0  0  0  0  0  0  0  0  0  0
    4.9995   -2.6607    1.3166 C   0  0  0  0  0  0  0  0  0  0  0  0
    3.9522   -3.2191    0.6902 N   0  0  0  0  0  0  0  0  0  0  0  0
    2.8045   -2.5084    0.6008 C   0  0  0  0  0  0  0  0  0  0  0  0
    1.6837   -3.0505   -0.0155 O   0  0  0  0  0  0  0  0  0  0  0  0
    1.4937   -4.4113    0.0610 C   0  0  0  0  0  0  0  0  0  0  0  0
    1.9242   -5.1877    1.1318 C   0  0  0  0  0  0  0  0  0  0  0  0
    1.7208   -6.5640    1.1239 C   0  0  0  0  0  0  0  0  0  0  0  0
    1.0175   -7.1963    0.0905 C   0  0  0  0  0  0  0  0  0  0  0  0
    0.8045   -8.5933    0.0611 N   0  0  0  0  0  0  0  0  0  0  0  0
    0.9587   -9.4088    1.1280 C   0  0  0  0  0  0  0  0  0  0  0  0
    1.0924   -9.0991    2.3965 N   0  0  0  0  0  0  0  0  0  0  0  0
    1.3343  -10.2676    3.0515 C   0  0  0  0  0  0  0  0  0  0  0  0
    1.6165  -10.4789    4.4061 C   0  0  0  0  0  0  0  0  0  0  0  0
    1.8817  -11.7830    4.8303 C   0  0  0  0  0  0  0  0  0  0  0  0
    1.8478  -12.8483    3.9251 C   0  0  0  0  0  0  0  0  0  0  0  0
    1.5489  -12.6546    2.5703 C   0  0  0  0  0  0  0  0  0  0  0  0
    1.2996  -11.3413    2.1723 C   0  0  0  0  0  0  0  0  0  0  0  0
    1.0158  -10.7684    0.9575 N   0  0  0  0  0  0  0  0  0  0  0  0
    0.5577   -6.4005   -0.9682 C   0  0  0  0  0  0  0  0  0  0  0  0
    0.7836   -5.0162   -0.9773 C   0  0  0  0  0  0  0  0  0  0  0  0
    2.7962   -1.2129    1.0915 C   0  0  0  0  0  0  0  0  0  0  0  0
   -0.0295    0.6230    0.8211 H   0  0  0  0  0  0  0  0  0  0  0  0
   -0.0143   -1.1228    1.2037 H   0  0  0  0  0  0  0  0  0  0  0  0
    0.5237   -0.5433   -0.4145 H   0  0  0  0  0  0  0  0  0  0  0  0
    1.7927    1.8006    1.8708 H   0  0  0  0  0  0  0  0  0  0  0  0
    4.3703    1.2852    2.5873 H   0  0  0  0  0  0  0  0  0  0  0  0
    5.8838   -3.2816    1.4148 H   0  0  0  0  0  0  0  0  0  0  0  0
    2.4494   -4.7557    1.9780 H   0  0  0  0  0  0  0  0  0  0  0  0
    2.1422   -7.1266    1.9506 H   0  0  0  0  0  0  0  0  0  0  0  0
    0.2408   -8.9007   -0.7202 H   0  0  0  0  0  0  0  0  0  0  0  0
    1.6521   -9.6384    5.0913 H   0  0  0  0  0  0  0  0  0  0  0  0
    2.1296  -11.9623    5.8728 H   0  0  0  0  0  0  0  0  0  0  0  0
    2.0711  -13.8542    4.2821 H   0  0  0  0  0  0  0  0  0  0  0  0
    1.5335  -13.4826    1.8713 H   0  0  0  0  0  0  0  0  0  0  0  0
    0.9727  -11.2491    0.0715 H   0  0  0  0  0  0  0  0  0  0  0  0
    0.0179   -6.8477   -1.7979 H   0  0  0  0  0  0  0  0  0  0  0  0
    0.4102   -4.4178   -1.8032 H   0  0  0  0  0  0  0  0  0  0  0  0
  1  2  1  0  0  0  0
  1 28  1  0  0  0  0
  1 29  1  0  0  0  0
  1 30  1  0  0  0  0
  2  3  1  0  0  0  0
  2 27  1  0  0  0  0
  3  4  2  0  0  0  0
  3 31  1  0  0  0  0
  4  5  1  0  0  0  0
  4 32  1  0  0  0  0
  5  6  1  0  0  0  0
  5 27  2  0  0  0  0
  6  7  2  0  0  0  0
  7  8  1  0  0  0  0
  7 33  1  0  0  0  0
  8  9  2  0  0  0  0
  9 10  1  0  0  0  0
  9 27  1  0  0  0  0
 10 11  1  0  0  0  0
 11 12  1  0  0  0  0
 11 26  2  0  0  0  0
 12 13  2  0  0  0  0
 12 34  1  0  0  0  0
 13 14  1  0  0  0  0
 13 35  1  0  0  0  0
 14 15  1  0  0  0  0
 14 25  2  0  0  0  0
 15 16  1  0  0  0  0
 15 36  1  0  0  0  0
 16 17  2  0  0  0  0
 16 24  1  0  0  0  0
 17 18  1  0  0  0  0
 18 19  1  0  0  0  0
 18 23  2  0  0  0  0
 19 20  2  0  0  0  0
 19 37  1  0  0  0  0
 20 21  1  0  0  0  0
 20 38  1  0  0  0  0
 21 22  2  0  0  0  0
 21 39  1  0  0  0  0
 22 23  1  0  0  0  0
 22 40  1  0  0  0  0
 23 24  1  0  0  0  0
 24 41  1  0  0  0  0
 25 26  1  0  0  0  0
 25 42  1  0  0  0  0
 26 43  1  0  0  0  0
M  END
$$$$
