CHEMBL3950907
 OpenBabel04072215373D

 69 72  0  0  0  0  0  0  0  0999 V2000
    1.3749   -0.7914   -4.8638 C   0  0  0  0  0  0  0  0  0  0  0  0
    2.4594   -1.5279   -4.4284 O   0  0  0  0  0  0  0  0  0  0  0  0
    3.1025   -1.3819   -3.2358 C   0  0  0  0  0  0  0  0  0  0  0  0
    2.5264   -0.6475   -2.1774 C   0  0  0  0  0  0  0  0  0  0  0  0
    3.1815   -0.5682   -0.9391 C   0  0  0  0  0  0  0  0  0  0  0  0
    2.6733    0.1068    0.1322 O   0  0  0  0  0  0  0  0  0  0  0  0
    1.4567    0.7606    0.2098 C   0  0  0  0  0  0  0  0  0  0  0  0
    4.4165   -1.2067   -0.7865 C   0  0  0  0  0  0  0  0  0  0  0  0
    5.0535   -1.9215   -1.8468 C   0  0  0  0  0  0  0  0  0  0  0  0
    6.3349   -2.5906   -1.6406 N   0  0  0  0  0  0  0  0  0  0  0  0
    6.8152   -2.6918   -0.2192 C   0  0  0  0  0  0  0  0  0  0  0  0
    8.2803   -3.1707    0.1146 C   0  0  0  0  0  0  0  0  0  0  0  0
    9.3888   -2.2901   -0.5023 C   0  0  0  0  0  0  0  0  0  0  0  0
   10.7256   -2.8741   -0.2810 N   0  0  0  0  0  0  0  0  0  0  0  0
   11.1352   -3.0637    1.1250 C   0  0  0  0  0  0  0  0  0  0  0  0
   12.5583   -2.5166    1.2418 C   0  0  0  0  0  0  0  0  0  0  0  0
   13.0549   -2.5807   -0.1855 C   0  0  0  0  0  0  0  0  0  0  0  0
   14.1491   -1.7651   -0.4087 F   0  0  0  0  0  0  0  0  0  0  0  0
   13.3541   -3.8880   -0.5343 F   0  0  0  0  0  0  0  0  0  0  0  0
   11.8101   -2.1202   -0.9221 C   0  0  0  0  0  0  0  0  0  0  0  0
    7.1530   -3.2438   -2.6592 C   0  0  0  0  0  0  0  0  0  0  0  0
    7.5855   -4.5101   -2.2773 C   0  0  0  0  0  0  0  0  0  0  0  0
    8.7294   -5.0409   -2.7695 C   0  0  0  0  0  0  0  0  0  0  0  0
    9.4028   -4.4137   -3.7555 C   0  0  0  0  0  0  0  0  0  0  0  0
   10.6313   -4.8693   -4.0253 N   0  0  0  0  0  0  0  0  0  0  0  0
   11.3458   -4.4303   -5.0493 C   0  0  0  0  0  0  0  0  0  0  0  0
   10.7321   -3.6215   -6.0054 C   0  0  0  0  0  0  0  0  0  0  0  0
   11.2478   -3.9232   -7.4033 C   0  0  0  0  0  0  0  0  0  0  0  0
   12.2179   -4.9114   -7.6788 C   0  0  0  0  0  0  0  0  0  0  0  0
   12.2267   -5.1983   -8.9778 N   0  0  0  0  0  0  0  0  0  0  0  0
   11.3332   -4.4279   -9.5606 N   0  0  0  0  0  0  0  0  0  0  0  0
   10.9667   -4.6318  -10.9526 C   0  0  0  0  0  0  0  0  0  0  0  0
   10.7438   -3.6001   -8.6578 C   0  0  0  0  0  0  0  0  0  0  0  0
    9.5343   -2.9771   -5.6650 N   0  0  0  0  0  0  0  0  0  0  0  0
    8.8778   -3.3149   -4.4750 C   0  0  0  0  0  0  0  0  0  0  0  0
    7.7177   -2.6614   -3.8734 C   0  0  0  0  0  0  0  0  0  0  0  0
    4.3508   -2.0125   -3.0654 C   0  0  0  0  0  0  0  0  0  0  0  0
   -0.7675   -1.7853   -1.7472 Cl  0  0  0  0  0  0  0  0  0  0  0  0
    1.0150   -1.2184   -5.8219 H   0  0  0  0  0  0  0  0  0  0  0  0
    1.6739    0.2629   -5.0300 H   0  0  0  0  0  0  0  0  0  0  0  0
    0.5275   -0.8321   -4.1460 H   0  0  0  0  0  0  0  0  0  0  0  0
    1.5750   -0.1500   -2.2835 H   0  0  0  0  0  0  0  0  0  0  0  0
    1.3568    1.2398    1.2083 H   0  0  0  0  0  0  0  0  0  0  0  0
    0.6219    0.0402    0.0974 H   0  0  0  0  0  0  0  0  0  0  0  0
    1.3915    1.5528   -0.5637 H   0  0  0  0  0  0  0  0  0  0  0  0
    4.8487   -1.1109    0.1969 H   0  0  0  0  0  0  0  0  0  0  0  0
    6.1095   -3.3523    0.3357 H   0  0  0  0  0  0  0  0  0  0  0  0
    6.8196   -1.6878    0.2362 H   0  0  0  0  0  0  0  0  0  0  0  0
    8.4949   -4.2294   -0.1077 H   0  0  0  0  0  0  0  0  0  0  0  0
    8.3829   -3.1520    1.2169 H   0  0  0  0  0  0  0  0  0  0  0  0
    9.3230   -1.2610   -0.0929 H   0  0  0  0  0  0  0  0  0  0  0  0
    9.2451   -2.2272   -1.5970 H   0  0  0  0  0  0  0  0  0  0  0  0
   11.1360   -4.1591    1.3109 H   0  0  0  0  0  0  0  0  0  0  0  0
   10.4785   -2.5635    1.8697 H   0  0  0  0  0  0  0  0  0  0  0  0
   13.1919   -3.0292    1.9983 H   0  0  0  0  0  0  0  0  0  0  0  0
   12.4864   -1.4398    1.5129 H   0  0  0  0  0  0  0  0  0  0  0  0
   11.8699   -2.3081   -2.0160 H   0  0  0  0  0  0  0  0  0  0  0  0
   11.6649   -1.0276   -0.7463 H   0  0  0  0  0  0  0  0  0  0  0  0
    7.1184   -5.0244   -1.4536 H   0  0  0  0  0  0  0  0  0  0  0  0
    9.1375   -5.9333   -2.3242 H   0  0  0  0  0  0  0  0  0  0  0  0
   12.2905   -4.9117   -5.1692 H   0  0  0  0  0  0  0  0  0  0  0  0
   12.8122   -5.5087   -7.0058 H   0  0  0  0  0  0  0  0  0  0  0  0
   11.4647   -5.5557  -11.3371 H   0  0  0  0  0  0  0  0  0  0  0  0
   11.2605   -3.7665  -11.5704 H   0  0  0  0  0  0  0  0  0  0  0  0
    9.8734   -4.8156  -11.0099 H   0  0  0  0  0  0  0  0  0  0  0  0
    9.9331   -2.9276   -8.8905 H   0  0  0  0  0  0  0  0  0  0  0  0
    7.3605   -1.7109   -4.2631 H   0  0  0  0  0  0  0  0  0  0  0  0
    4.7581   -2.5767   -3.8862 H   0  0  0  0  0  0  0  0  0  0  0  0
    0.4010   -2.0798   -1.0820 H   0  0  0  0  0  0  0  0  0  0  0  0
  1  2  1  0  0  0  0
  1 39  1  0  0  0  0
  1 40  1  0  0  0  0
  1 41  1  0  0  0  0
  2  3  1  0  0  0  0
  3  4  1  0  0  0  0
  3 37  2  0  0  0  0
  4  5  2  0  0  0  0
  4 42  1  0  0  0  0
  5  6  1  0  0  0  0
  5  8  1  0  0  0  0
  6  7  1  0  0  0  0
  7 43  1  0  0  0  0
  7 44  1  0  0  0  0
  7 45  1  0  0  0  0
  8  9  2  0  0  0  0
  8 46  1  0  0  0  0
  9 10  1  0  0  0  0
  9 37  1  0  0  0  0
 10 11  1  0  0  0  0
 10 21  1  0  0  0  0
 11 12  1  0  0  0  0
 11 47  1  0  0  0  0
 11 48  1  0  0  0  0
 12 13  1  0  0  0  0
 12 49  1  0  0  0  0
 12 50  1  0  0  0  0
 13 14  1  0  0  0  0
 13 51  1  0  0  0  0
 13 52  1  0  0  0  0
 14 15  1  0  0  0  0
 14 20  1  0  0  0  0
 15 16  1  0  0  0  0
 15 53  1  0  0  0  0
 15 54  1  0  0  0  0
 16 17  1  0  0  0  0
 16 55  1  0  0  0  0
 16 56  1  0  0  0  0
 17 18  1  0  0  0  0
 17 19  1  0  0  0  0
 17 20  1  0  0  0  0
 20 57  1  0  0  0  0
 20 58  1  0  0  0  0
 21 22  1  0  0  0  0
 21 36  2  0  0  0  0
 22 23  2  0  0  0  0
 22 59  1  0  0  0  0
 23 24  1  0  0  0  0
 23 60  1  0  0  0  0
 24 25  1  0  0  0  0
 24 35  2  0  0  0  0
 25 26  2  0  0  0  0
 26 27  1  0  0  0  0
 26 61  1  0  0  0  0
 27 28  1  0  0  0  0
 27 34  2  0  0  0  0
 28 29  1  0  0  0  0
 28 33  2  0  0  0  0
 29 30  2  0  0  0  0
 29 62  1  0  0  0  0
 30 31  1  0  0  0  0
 31 32  1  0  0  0  0
 31 33  1  0  0  0  0
 32 63  1  0  0  0  0
 32 64  1  0  0  0  0
 32 65  1  0  0  0  0
 33 66  1  0  0  0  0
 34 35  1  0  0  0  0
 35 36  1  0  0  0  0
 36 67  1  0  0  0  0
 37 68  1  0  0  0  0
 38 69  1  0  0  0  0
M  END
$$$$
