CHEMBL3924147
 OpenBabel04072215373D

 57 61  0  0  1  0  0  0  0  0999 V2000
    1.0576    2.4420   -4.9109 C   0  0  0  0  0  0  0  0  0  0  0  0
    1.3337    3.7886   -5.2835 O   0  0  0  0  0  0  0  0  0  0  0  0
    0.2405    4.6003   -5.4256 C   0  0  0  0  0  0  0  0  0  0  0  0
    0.3453    5.5109   -6.4856 C   0  0  0  0  0  0  0  0  0  0  0  0
   -0.6978    6.4241   -6.7725 C   0  0  0  0  0  0  0  0  0  0  0  0
   -0.7203    7.3500   -7.8325 C   0  0  0  0  0  0  0  0  0  0  0  0
    0.3502    7.3878   -8.7675 N   0  0  0  0  0  0  0  0  0  0  0  0
    0.5315    8.4590   -9.6830 C   0  0  0  0  0  0  0  0  0  0  0  0
    0.5242    9.7863   -9.2351 C   0  0  0  0  0  0  0  0  0  0  0  0
    0.6244   10.8466  -10.1377 C   0  0  0  0  0  0  0  0  0  0  0  0
    0.5792   12.4481   -9.4908 Cl  0  0  0  0  0  0  0  0  0  0  0  0
    0.7478   10.5838  -11.5069 C   0  0  0  0  0  0  0  0  0  0  0  0
    0.8194   11.9642  -12.8096 Br  0  0  0  0  0  0  0  0  0  0  0  0
    0.8038    9.2636  -11.9630 C   0  0  0  0  0  0  0  0  0  0  0  0
    0.7034    8.2184  -11.0494 C   0  0  0  0  0  0  0  0  0  0  0  0
    0.7353    6.9542  -11.4958 F   0  0  0  0  0  0  0  0  0  0  0  0
   -1.7450    8.2084   -8.0122 N   0  0  0  0  0  0  0  0  0  0  0  0
   -2.7557    8.1414   -7.1465 C   0  0  0  0  0  0  0  0  0  0  0  0
   -2.8380    7.3064   -6.1117 N   0  0  0  0  0  0  0  0  0  0  0  0
   -1.8175    6.4670   -5.9369 C   0  0  0  0  0  0  0  0  0  0  0  0
   -1.8849    5.5911   -4.8704 C   0  0  0  0  0  0  0  0  0  0  0  0
   -0.8995    4.6252   -4.6180 C   0  0  0  0  0  0  0  0  0  0  0  0
   -1.0152    3.7410   -3.5722 O   0  0  0  0  0  0  0  0  0  0  0  0
   -2.3695    3.4147   -3.2171 C   0  0  0  0  0  0  0  0  0  0  0  0
   -2.4641    2.0559   -2.5220 C   0  0  2  0  0  0  0  0  0  0  0  0
   -1.6936    2.0307   -1.1863 C   0  0  0  0  0  0  0  0  0  0  0  0
   -1.8351    0.6956   -0.5650 N   0  0  3  0  0  0  0  0  0  0  0  0
   -1.1477    0.6208    0.7359 C   0  0  0  0  0  0  0  0  0  0  0  0
   -0.9569   -0.8176    1.2603 C   0  0  0  0  0  0  0  0  0  0  0  0
   -0.4614   -1.7226    0.2647 O   0  0  0  0  0  0  0  0  0  0  0  0
   -1.3121   -1.7034   -0.8898 C   0  0  0  0  0  0  0  0  0  0  0  0
   -1.2822   -0.3073   -1.5154 C   0  0  1  0  0  0  0  0  0  0  0  0
   -2.0823   -0.2606   -2.8270 C   0  0  0  0  0  0  0  0  0  0  0  0
   -1.9885    1.0389   -3.4301 O   0  0  0  0  0  0  0  0  0  0  0  0
    1.9233    1.8377   -5.2000 H   0  0  0  0  0  0  0  0  0  0  0  0
    0.1855    2.0418   -5.4383 H   0  0  0  0  0  0  0  0  0  0  0  0
    0.9499    2.3508   -3.8269 H   0  0  0  0  0  0  0  0  0  0  0  0
    1.2497    5.5042   -7.0926 H   0  0  0  0  0  0  0  0  0  0  0  0
    0.4056    6.4878   -9.2407 H   0  0  0  0  0  0  0  0  0  0  0  0
    0.4133    9.9893   -8.1722 H   0  0  0  0  0  0  0  0  0  0  0  0
    0.9063    9.0331  -13.0188 H   0  0  0  0  0  0  0  0  0  0  0  0
   -3.5861    8.8206   -7.2992 H   0  0  0  0  0  0  0  0  0  0  0  0
   -2.7538    5.6830   -4.2255 H   0  0  0  0  0  0  0  0  0  0  0  0
   -2.9932    3.3579   -4.1189 H   0  0  0  0  0  0  0  0  0  0  0  0
   -2.7535    4.1923   -2.5463 H   0  0  0  0  0  0  0  0  0  0  0  0
   -3.5275    1.8605   -2.3282 H   0  0  0  0  0  0  0  0  0  0  0  0
   -2.0992    2.7975   -0.5162 H   0  0  0  0  0  0  0  0  0  0  0  0
   -0.6327    2.2569   -1.3568 H   0  0  0  0  0  0  0  0  0  0  0  0
   -1.7377    1.1768    1.4754 H   0  0  0  0  0  0  0  0  0  0  0  0
   -0.1653    1.1005    0.6717 H   0  0  0  0  0  0  0  0  0  0  0  0
   -1.8935   -1.2206    1.6615 H   0  0  0  0  0  0  0  0  0  0  0  0
   -0.2268   -0.8049    2.0765 H   0  0  0  0  0  0  0  0  0  0  0  0
   -2.3277   -2.0066   -0.6051 H   0  0  0  0  0  0  0  0  0  0  0  0
   -0.9288   -2.4474   -1.5955 H   0  0  0  0  0  0  0  0  0  0  0  0
   -0.2361   -0.0420   -1.7274 H   0  0  0  0  0  0  0  0  0  0  0  0
   -3.1404   -0.5046   -2.6698 H   0  0  0  0  0  0  0  0  0  0  0  0
   -1.6807   -0.9804   -3.5475 H   0  0  0  0  0  0  0  0  0  0  0  0
  1  2  1  0  0  0  0
  1 35  1  0  0  0  0
  1 36  1  0  0  0  0
  1 37  1  0  0  0  0
  2  3  1  0  0  0  0
  3  4  1  0  0  0  0
  3 22  2  0  0  0  0
  4  5  2  0  0  0  0
  4 38  1  0  0  0  0
  5  6  1  0  0  0  0
  5 20  1  0  0  0  0
  6  7  1  0  0  0  0
  6 17  2  0  0  0  0
  7  8  1  0  0  0  0
  7 39  1  0  0  0  0
  8  9  1  0  0  0  0
  8 15  2  0  0  0  0
  9 10  2  0  0  0  0
  9 40  1  0  0  0  0
 10 11  1  0  0  0  0
 10 12  1  0  0  0  0
 12 13  1  0  0  0  0
 12 14  2  0  0  0  0
 14 15  1  0  0  0  0
 14 41  1  0  0  0  0
 15 16  1  0  0  0  0
 17 18  1  0  0  0  0
 18 19  2  0  0  0  0
 18 42  1  0  0  0  0
 19 20  1  0  0  0  0
 20 21  2  0  0  0  0
 21 22  1  0  0  0  0
 21 43  1  0  0  0  0
 22 23  1  0  0  0  0
 23 24  1  0  0  0  0
 24 44  1  0  0  0  0
 24 45  1  0  0  0  0
 25 26  1  0  0  0  0
 25 34  1  0  0  0  0
 25 24  1  0  0  0  0
 25 46  1  1  0  0  0
 26 27  1  0  0  0  0
 26 47  1  0  0  0  0
 26 48  1  0  0  0  0
 27 28  1  0  0  0  0
 27 32  1  0  0  0  0
 28 29  1  0  0  0  0
 28 49  1  0  0  0  0
 28 50  1  0  0  0  0
 29 30  1  0  0  0  0
 29 51  1  0  0  0  0
 29 52  1  0  0  0  0
 30 31  1  0  0  0  0
 31 32  1  0  0  0  0
 31 53  1  0  0  0  0
 31 54  1  0  0  0  0
 32 33  1  0  0  0  0
 32 55  1  6  0  0  0
 33 34  1  0  0  0  0
 33 56  1  0  0  0  0
 33 57  1  0  0  0  0
M  END
$$$$
