CHEMBL4213626
 OpenBabel04072215383D

 60 62  0  0  0  0  0  0  0  0999 V2000
    8.1871   -4.8975   -3.5823 C   0  0  0  0  0  0  0  0  0  0  0  0
    7.9924   -3.9686   -2.3991 C   0  0  0  0  0  0  0  0  0  0  0  0
    6.6221   -3.5747   -2.3636 O   0  0  0  0  0  0  0  0  0  0  0  0
    6.2344   -2.6862   -1.3855 C   0  0  0  0  0  0  0  0  0  0  0  0
    7.0249   -2.1731   -0.4220 C   0  0  0  0  0  0  0  0  0  0  0  0
    6.4717   -1.2123    0.5594 C   0  0  0  0  0  0  0  0  0  0  0  0
    7.1771   -0.7238    1.4359 O   0  0  0  0  0  0  0  0  0  0  0  0
    5.1462   -0.9018    0.4135 N   0  0  0  0  0  0  0  0  0  0  0  0
    4.3420   -1.4202   -0.5689 C   0  0  0  0  0  0  0  0  0  0  0  0
    4.8240   -2.2954   -1.4735 C   0  0  0  0  0  0  0  0  0  0  0  0
    3.9129   -2.7714   -2.5353 C   0  0  0  0  0  0  0  0  0  0  0  0
    3.0399   -3.8503   -2.3269 C   0  0  0  0  0  0  0  0  0  0  0  0
    2.2101   -4.3078   -3.3625 C   0  0  0  0  0  0  0  0  0  0  0  0
    2.2432   -3.6988   -4.6238 C   0  0  0  0  0  0  0  0  0  0  0  0
    1.3115   -4.1174   -5.7377 C   0  0  0  0  0  0  0  0  0  0  0  0
    1.4089   -5.5786   -6.1426 C   0  0  0  0  0  0  0  0  0  0  0  0
    0.6093   -6.4115   -5.7213 O   0  0  0  0  0  0  0  0  0  0  0  0
    2.4772   -5.8535   -6.9843 N   0  0  0  0  0  0  0  0  0  0  0  0
    2.7521   -7.1482   -7.4687 C   0  0  0  0  0  0  0  0  0  0  0  0
    4.0678   -7.5913   -7.4458 C   0  0  0  0  0  0  0  0  0  0  0  0
    4.3697   -8.8983   -7.8333 C   0  0  0  0  0  0  0  0  0  0  0  0
    3.3721   -9.7898   -8.2799 C   0  0  0  0  0  0  0  0  0  0  0  0
    3.7514  -11.2260   -8.6275 C   0  0  0  0  0  0  0  0  0  0  0  0
    4.8866  -11.7918   -7.8631 N   0  0  0  0  0  0  0  0  0  0  0  0
    4.5625  -11.9241   -6.4363 C   0  0  0  0  0  0  0  0  0  0  0  0
    5.2087  -13.1221   -8.3976 C   0  0  0  0  0  0  0  0  0  0  0  0
    2.0533   -9.2972   -8.4302 C   0  0  0  0  0  0  0  0  0  0  0  0
    0.9088  -10.0731   -9.0555 C   0  0  0  0  0  0  0  0  0  0  0  0
    1.2360  -11.2883   -9.5753 F   0  0  0  0  0  0  0  0  0  0  0  0
   -0.1031  -10.3113   -8.1759 F   0  0  0  0  0  0  0  0  0  0  0  0
    0.3418   -9.3949  -10.0962 F   0  0  0  0  0  0  0  0  0  0  0  0
    1.7583   -7.9852   -7.9827 C   0  0  0  0  0  0  0  0  0  0  0  0
    3.1254   -2.6294   -4.8148 C   0  0  0  0  0  0  0  0  0  0  0  0
    3.1890   -2.0273   -6.0099 F   0  0  0  0  0  0  0  0  0  0  0  0
    3.9490   -2.1642   -3.7927 C   0  0  0  0  0  0  0  0  0  0  0  0
    9.2251   -5.2365   -3.6414 H   0  0  0  0  0  0  0  0  0  0  0  0
    7.9273   -4.3895   -4.5170 H   0  0  0  0  0  0  0  0  0  0  0  0
    7.5321   -5.7711   -3.5006 H   0  0  0  0  0  0  0  0  0  0  0  0
    8.6342   -3.0893   -2.5242 H   0  0  0  0  0  0  0  0  0  0  0  0
    8.2553   -4.4964   -1.4756 H   0  0  0  0  0  0  0  0  0  0  0  0
    8.0714   -2.4091   -0.2947 H   0  0  0  0  0  0  0  0  0  0  0  0
    4.7773   -0.2322    1.0768 H   0  0  0  0  0  0  0  0  0  0  0  0
    3.3139   -1.0683   -0.5756 H   0  0  0  0  0  0  0  0  0  0  0  0
    3.0072   -4.3462   -1.3590 H   0  0  0  0  0  0  0  0  0  0  0  0
    1.5278   -5.1375   -3.1665 H   0  0  0  0  0  0  0  0  0  0  0  0
    1.4720   -3.5100   -6.6370 H   0  0  0  0  0  0  0  0  0  0  0  0
    0.2787   -3.9186   -5.4257 H   0  0  0  0  0  0  0  0  0  0  0  0
    3.2621   -5.2157   -6.9164 H   0  0  0  0  0  0  0  0  0  0  0  0
    4.8618   -6.9621   -7.0539 H   0  0  0  0  0  0  0  0  0  0  0  0
    5.4006   -9.2395   -7.7419 H   0  0  0  0  0  0  0  0  0  0  0  0
    3.9976  -11.2267   -9.6976 H   0  0  0  0  0  0  0  0  0  0  0  0
    2.8978  -11.8899   -8.4686 H   0  0  0  0  0  0  0  0  0  0  0  0
    4.3480  -10.9551   -5.9755 H   0  0  0  0  0  0  0  0  0  0  0  0
    5.4214  -12.3323   -5.8913 H   0  0  0  0  0  0  0  0  0  0  0  0
    3.7018  -12.5805   -6.2655 H   0  0  0  0  0  0  0  0  0  0  0  0
    5.4733  -13.0634   -9.4590 H   0  0  0  0  0  0  0  0  0  0  0  0
    4.3702  -13.8218   -8.2918 H   0  0  0  0  0  0  0  0  0  0  0  0
    6.0754  -13.5470   -7.8791 H   0  0  0  0  0  0  0  0  0  0  0  0
    0.7361   -7.6149   -8.0709 H   0  0  0  0  0  0  0  0  0  0  0  0
    4.6186   -1.3324   -3.9905 H   0  0  0  0  0  0  0  0  0  0  0  0
  1  2  1  0  0  0  0
  1 36  1  0  0  0  0
  1 37  1  0  0  0  0
  1 38  1  0  0  0  0
  2  3  1  0  0  0  0
  2 39  1  0  0  0  0
  2 40  1  0  0  0  0
  3  4  1  0  0  0  0
  4  5  2  0  0  0  0
  4 10  1  0  0  0  0
  5  6  1  0  0  0  0
  5 41  1  0  0  0  0
  6  7  2  0  0  0  0
  6  8  1  0  0  0  0
  8  9  1  0  0  0  0
  8 42  1  0  0  0  0
  9 10  2  0  0  0  0
  9 43  1  0  0  0  0
 10 11  1  0  0  0  0
 11 12  1  0  0  0  0
 11 35  2  0  0  0  0
 12 13  2  0  0  0  0
 12 44  1  0  0  0  0
 13 14  1  0  0  0  0
 13 45  1  0  0  0  0
 14 15  1  0  0  0  0
 14 33  2  0  0  0  0
 15 16  1  0  0  0  0
 15 46  1  0  0  0  0
 15 47  1  0  0  0  0
 16 17  2  0  0  0  0
 16 18  1  0  0  0  0
 18 19  1  0  0  0  0
 18 48  1  0  0  0  0
 19 20  1  0  0  0  0
 19 32  2  0  0  0  0
 20 21  2  0  0  0  0
 20 49  1  0  0  0  0
 21 22  1  0  0  0  0
 21 50  1  0  0  0  0
 22 23  1  0  0  0  0
 22 27  2  0  0  0  0
 23 24  1  0  0  0  0
 23 51  1  0  0  0  0
 23 52  1  0  0  0  0
 24 25  1  0  0  0  0
 24 26  1  0  0  0  0
 25 53  1  0  0  0  0
 25 54  1  0  0  0  0
 25 55  1  0  0  0  0
 26 56  1  0  0  0  0
 26 57  1  0  0  0  0
 26 58  1  0  0  0  0
 27 28  1  0  0  0  0
 27 32  1  0  0  0  0
 28 29  1  0  0  0  0
 28 30  1  0  0  0  0
 28 31  1  0  0  0  0
 32 59  1  0  0  0  0
 33 34  1  0  0  0  0
 33 35  1  0  0  0  0
 35 60  1  0  0  0  0
M  END
$$$$
