CHEMBL2018771
 OpenBabel04072215363D

 67 69  0  0  0  0  0  0  0  0999 V2000
    8.9036   -7.4656   -5.8357 C   0  0  0  0  0  0  0  0  0  0  0  0
    7.5862   -6.7521   -5.5929 C   0  0  0  0  0  0  0  0  0  0  0  0
    7.8584   -5.4595   -5.0333 O   0  0  0  0  0  0  0  0  0  0  0  0
    7.9532   -5.4666   -3.6786 C   0  0  0  0  0  0  0  0  0  0  0  0
    7.5863   -6.4127   -2.9944 O   0  0  0  0  0  0  0  0  0  0  0  0
    8.5497   -4.3203   -3.2326 N   0  0  0  0  0  0  0  0  0  0  0  0
    9.0555   -4.1040   -1.9317 C   0  0  0  0  0  0  0  0  0  0  0  0
    9.1932   -5.1668   -1.0237 C   0  0  0  0  0  0  0  0  0  0  0  0
    9.6873   -4.9705    0.2653 C   0  0  0  0  0  0  0  0  0  0  0  0
   10.1227   -3.7149    0.6675 C   0  0  0  0  0  0  0  0  0  0  0  0
   10.5396   -3.5058    1.9933 N   0  0  0  0  0  0  0  0  0  0  0  0
   11.4214   -2.4955    2.4384 C   0  0  0  0  0  0  0  0  0  0  0  0
   12.4558   -2.1638    1.6452 N   0  0  0  0  0  0  0  0  0  0  0  0
   13.2549   -1.1921    2.0866 C   0  0  0  0  0  0  0  0  0  0  0  0
   13.1155   -0.5188    3.2350 N   0  0  0  0  0  0  0  0  0  0  0  0
   12.0715   -0.8468    4.0108 C   0  0  0  0  0  0  0  0  0  0  0  0
   11.8543   -0.1650    5.2079 C   0  0  0  0  0  0  0  0  0  0  0  0
   10.7806   -0.4434    6.0824 C   0  0  0  0  0  0  0  0  0  0  0  0
   10.8832    0.2740    7.2543 O   0  0  0  0  0  0  0  0  0  0  0  0
   10.1264   -0.1673    8.3757 C   0  0  0  0  0  0  0  0  0  0  0  0
   10.9126   -0.2943    9.6858 C   0  0  0  0  0  0  0  0  0  0  0  0
   10.0908   -0.8935   10.7763 N   0  0  0  0  0  0  0  0  0  0  0  0
    9.4755   -2.1919   10.4353 C   0  0  0  0  0  0  0  0  0  0  0  0
   10.4402   -3.3474   10.1899 C   0  0  0  0  0  0  0  0  0  0  0  0
   10.8559   -0.9232   12.0329 C   0  0  0  0  0  0  0  0  0  0  0  0
   10.0814   -1.4754   13.2299 C   0  0  0  0  0  0  0  0  0  0  0  0
    9.8430   -1.4092    5.6908 C   0  0  0  0  0  0  0  0  0  0  0  0
    8.7532   -1.8605    6.3895 O   0  0  0  0  0  0  0  0  0  0  0  0
    7.6795   -0.9385    6.5798 C   0  0  0  0  0  0  0  0  0  0  0  0
   10.0851   -2.1469    4.5235 C   0  0  0  0  0  0  0  0  0  0  0  0
   11.1799   -1.8642    3.6710 C   0  0  0  0  0  0  0  0  0  0  0  0
   10.0023   -2.6527   -0.2422 C   0  0  0  0  0  0  0  0  0  0  0  0
    9.4557   -2.8209   -1.5307 C   0  0  0  0  0  0  0  0  0  0  0  0
    9.2905   -1.5999   -2.3928 C   0  0  0  0  0  0  0  0  0  0  0  0
    8.7467   -8.4734   -6.2281 H   0  0  0  0  0  0  0  0  0  0  0  0
    9.4886   -7.5370   -4.9114 H   0  0  0  0  0  0  0  0  0  0  0  0
    9.5097   -6.8960   -6.5471 H   0  0  0  0  0  0  0  0  0  0  0  0
    6.9322   -7.3611   -4.9459 H   0  0  0  0  0  0  0  0  0  0  0  0
    7.0424   -6.6155   -6.5327 H   0  0  0  0  0  0  0  0  0  0  0  0
    8.6503   -3.5939   -3.9265 H   0  0  0  0  0  0  0  0  0  0  0  0
    8.9309   -6.1852   -1.2893 H   0  0  0  0  0  0  0  0  0  0  0  0
    9.7311   -5.8230    0.9372 H   0  0  0  0  0  0  0  0  0  0  0  0
   10.6611   -4.3535    2.5363 H   0  0  0  0  0  0  0  0  0  0  0  0
   14.0931   -0.9257    1.4537 H   0  0  0  0  0  0  0  0  0  0  0  0
   12.5710    0.6064    5.4883 H   0  0  0  0  0  0  0  0  0  0  0  0
    9.7410   -1.1525    8.1758 H   0  0  0  0  0  0  0  0  0  0  0  0
    9.3171    0.5516    8.5350 H   0  0  0  0  0  0  0  0  0  0  0  0
   11.2303    0.7148    9.9806 H   0  0  0  0  0  0  0  0  0  0  0  0
   11.8339   -0.8626    9.5119 H   0  0  0  0  0  0  0  0  0  0  0  0
    8.8135   -2.0896    9.5696 H   0  0  0  0  0  0  0  0  0  0  0  0
    8.7656   -2.4805   11.2188 H   0  0  0  0  0  0  0  0  0  0  0  0
   11.2139   -3.0946    9.4594 H   0  0  0  0  0  0  0  0  0  0  0  0
    9.8905   -4.2098    9.7979 H   0  0  0  0  0  0  0  0  0  0  0  0
   10.9270   -3.6609   11.1179 H   0  0  0  0  0  0  0  0  0  0  0  0
   11.1467    0.1037   12.2860 H   0  0  0  0  0  0  0  0  0  0  0  0
   11.7813   -1.4981   11.9114 H   0  0  0  0  0  0  0  0  0  0  0  0
    9.1500   -0.9226   13.3911 H   0  0  0  0  0  0  0  0  0  0  0  0
   10.6877   -1.3908   14.1372 H   0  0  0  0  0  0  0  0  0  0  0  0
    9.8377   -2.5360   13.1112 H   0  0  0  0  0  0  0  0  0  0  0  0
    6.8231   -1.5150    6.9410 H   0  0  0  0  0  0  0  0  0  0  0  0
    7.3843   -0.4312    5.6485 H   0  0  0  0  0  0  0  0  0  0  0  0
    7.8886   -0.1993    7.3400 H   0  0  0  0  0  0  0  0  0  0  0  0
    9.4023   -2.9549    4.2675 H   0  0  0  0  0  0  0  0  0  0  0  0
   10.3100   -1.6576    0.0730 H   0  0  0  0  0  0  0  0  0  0  0  0
    9.4346   -0.6811   -1.8117 H   0  0  0  0  0  0  0  0  0  0  0  0
    8.2743   -1.5543   -2.7974 H   0  0  0  0  0  0  0  0  0  0  0  0
   10.0154   -1.5994   -3.2115 H   0  0  0  0  0  0  0  0  0  0  0  0
  1  2  1  0  0  0  0
  1 35  1  0  0  0  0
  1 36  1  0  0  0  0
  1 37  1  0  0  0  0
  2  3  1  0  0  0  0
  2 38  1  0  0  0  0
  2 39  1  0  0  0  0
  3  4  1  0  0  0  0
  4  5  2  0  0  0  0
  4  6  1  0  0  0  0
  6  7  1  0  0  0  0
  6 40  1  0  0  0  0
  7  8  1  0  0  0  0
  7 33  2  0  0  0  0
  8  9  2  0  0  0  0
  8 41  1  0  0  0  0
  9 10  1  0  0  0  0
  9 42  1  0  0  0  0
 10 11  1  0  0  0  0
 10 32  2  0  0  0  0
 11 12  1  0  0  0  0
 11 43  1  0  0  0  0
 12 13  1  0  0  0  0
 12 31  2  0  0  0  0
 13 14  2  0  0  0  0
 14 15  1  0  0  0  0
 14 44  1  0  0  0  0
 15 16  2  0  0  0  0
 16 17  1  0  0  0  0
 16 31  1  0  0  0  0
 17 18  2  0  0  0  0
 17 45  1  0  0  0  0
 18 19  1  0  0  0  0
 18 27  1  0  0  0  0
 19 20  1  0  0  0  0
 20 21  1  0  0  0  0
 20 46  1  0  0  0  0
 20 47  1  0  0  0  0
 21 22  1  0  0  0  0
 21 48  1  0  0  0  0
 21 49  1  0  0  0  0
 22 23  1  0  0  0  0
 22 25  1  0  0  0  0
 23 24  1  0  0  0  0
 23 50  1  0  0  0  0
 23 51  1  0  0  0  0
 24 52  1  0  0  0  0
 24 53  1  0  0  0  0
 24 54  1  0  0  0  0
 25 26  1  0  0  0  0
 25 55  1  0  0  0  0
 25 56  1  0  0  0  0
 26 57  1  0  0  0  0
 26 58  1  0  0  0  0
 26 59  1  0  0  0  0
 27 28  1  0  0  0  0
 27 30  2  0  0  0  0
 28 29  1  0  0  0  0
 29 60  1  0  0  0  0
 29 61  1  0  0  0  0
 29 62  1  0  0  0  0
 30 31  1  0  0  0  0
 30 63  1  0  0  0  0
 32 33  1  0  0  0  0
 32 64  1  0  0  0  0
 33 34  1  0  0  0  0
 34 65  1  0  0  0  0
 34 66  1  0  0  0  0
 34 67  1  0  0  0  0
M  END
$$$$
