CHEMBL3976542
 OpenBabel04072215373D

 55 58  0  0  0  0  0  0  0  0999 V2000
    2.5528    0.2449    0.0650 C   0  0  0  0  0  0  0  0  0  0  0  0
    1.0526    0.1225    0.0890 C   0  0  0  0  0  0  0  0  0  0  0  0
    0.3143    1.3202    0.1722 C   0  0  0  0  0  0  0  0  0  0  0  0
   -1.0781    1.3154    0.1718 C   0  0  0  0  0  0  0  0  0  0  0  0
   -1.7634    0.1238   -0.0174 C   0  0  0  0  0  0  0  0  0  0  0  0
   -3.1388    0.0300   -0.1243 O   0  0  0  0  0  0  0  0  0  0  0  0
   -3.8290    1.0335   -0.7767 C   0  0  0  0  0  0  0  0  0  0  0  0
   -3.3023    1.7406   -1.8518 C   0  0  0  0  0  0  0  0  0  0  0  0
   -4.0454    2.7828   -2.3561 C   0  0  0  0  0  0  0  0  0  0  0  0
   -5.2744    3.0975   -1.9108 N   0  0  0  0  0  0  0  0  0  0  0  0
   -5.8228    2.3579   -0.9318 C   0  0  0  0  0  0  0  0  0  0  0  0
   -7.1282    2.6540   -0.4958 N   0  0  0  0  0  0  0  0  0  0  0  0
   -7.8815    3.7056   -0.9840 C   0  0  0  0  0  0  0  0  0  0  0  0
   -7.5505    4.5303   -1.8248 O   0  0  0  0  0  0  0  0  0  0  0  0
   -9.2494    3.8785   -0.4086 C   0  0  0  0  0  0  0  0  0  0  0  0
   -9.3950    4.2101    1.0589 C   0  0  0  0  0  0  0  0  0  0  0  0
   -9.9793    2.9393    0.5129 C   0  0  0  0  0  0  0  0  0  0  0  0
   -5.1281    1.3106   -0.3368 C   0  0  0  0  0  0  0  0  0  0  0  0
   -1.0433   -1.0728   -0.0599 C   0  0  0  0  0  0  0  0  0  0  0  0
    0.3588   -1.1087    0.0358 C   0  0  0  0  0  0  0  0  0  0  0  0
    1.0737   -2.3471    0.0963 N   0  0  0  0  0  0  0  0  0  0  0  0
    0.4884   -3.5776    0.3600 C   0  0  0  0  0  0  0  0  0  0  0  0
   -0.7151   -3.7626    0.5254 O   0  0  0  0  0  0  0  0  0  0  0  0
    1.4080   -4.6172    0.4864 N   0  0  0  0  0  0  0  0  0  0  0  0
    0.9033   -5.9144    0.8070 C   0  0  0  0  0  0  0  0  0  0  0  0
   -0.1801   -6.4662    0.1063 C   0  0  0  0  0  0  0  0  0  0  0  0
   -0.7996   -7.6494    0.5438 C   0  0  0  0  0  0  0  0  0  0  0  0
   -2.0055   -8.2075   -0.1758 C   0  0  0  0  0  0  0  0  0  0  0  0
   -2.3573   -7.5083   -1.2898 F   0  0  0  0  0  0  0  0  0  0  0  0
   -1.8069   -9.4901   -0.5922 F   0  0  0  0  0  0  0  0  0  0  0  0
   -3.1152   -8.2425    0.6128 F   0  0  0  0  0  0  0  0  0  0  0  0
   -0.3024   -8.2884    1.6913 C   0  0  0  0  0  0  0  0  0  0  0  0
    0.8125   -7.7744    2.3601 C   0  0  0  0  0  0  0  0  0  0  0  0
    1.4204   -6.6061    1.9022 C   0  0  0  0  0  0  0  0  0  0  0  0
    2.4571   -6.0968    2.5847 F   0  0  0  0  0  0  0  0  0  0  0  0
    2.8659    1.2828    0.2353 H   0  0  0  0  0  0  0  0  0  0  0  0
    2.9413   -0.0524   -0.9141 H   0  0  0  0  0  0  0  0  0  0  0  0
    3.0121   -0.3587    0.8519 H   0  0  0  0  0  0  0  0  0  0  0  0
    0.8227    2.2792    0.2442 H   0  0  0  0  0  0  0  0  0  0  0  0
   -1.6122    2.2568    0.2799 H   0  0  0  0  0  0  0  0  0  0  0  0
   -2.3279    1.5222   -2.2718 H   0  0  0  0  0  0  0  0  0  0  0  0
   -3.6644    3.4199   -3.1475 H   0  0  0  0  0  0  0  0  0  0  0  0
   -7.5199    2.0705    0.2243 H   0  0  0  0  0  0  0  0  0  0  0  0
   -9.8902    4.4402   -1.0874 H   0  0  0  0  0  0  0  0  0  0  0  0
  -10.0604    5.0285    1.3120 H   0  0  0  0  0  0  0  0  0  0  0  0
   -8.5197    4.1427    1.6948 H   0  0  0  0  0  0  0  0  0  0  0  0
  -11.0603    2.8909    0.4092 H   0  0  0  0  0  0  0  0  0  0  0  0
   -9.5382    1.9974    0.8050 H   0  0  0  0  0  0  0  0  0  0  0  0
   -5.5626    0.7182    0.4606 H   0  0  0  0  0  0  0  0  0  0  0  0
   -1.6282   -1.9774   -0.1901 H   0  0  0  0  0  0  0  0  0  0  0  0
    2.0823   -2.3101    0.0595 H   0  0  0  0  0  0  0  0  0  0  0  0
    2.2631   -4.3700    0.9715 H   0  0  0  0  0  0  0  0  0  0  0  0
   -0.5782   -5.9459   -0.7650 H   0  0  0  0  0  0  0  0  0  0  0  0
   -0.7944   -9.1833    2.0723 H   0  0  0  0  0  0  0  0  0  0  0  0
    1.1852   -8.2595    3.2577 H   0  0  0  0  0  0  0  0  0  0  0  0
  1  2  1  0  0  0  0
  1 36  1  0  0  0  0
  1 37  1  0  0  0  0
  1 38  1  0  0  0  0
  2  3  1  0  0  0  0
  2 20  2  0  0  0  0
  3  4  2  0  0  0  0
  3 39  1  0  0  0  0
  4  5  1  0  0  0  0
  4 40  1  0  0  0  0
  5  6  1  0  0  0  0
  5 19  2  0  0  0  0
  6  7  1  0  0  0  0
  7  8  1  0  0  0  0
  7 18  2  0  0  0  0
  8  9  2  0  0  0  0
  8 41  1  0  0  0  0
  9 10  1  0  0  0  0
  9 42  1  0  0  0  0
 10 11  2  0  0  0  0
 11 12  1  0  0  0  0
 11 18  1  0  0  0  0
 12 13  1  0  0  0  0
 12 43  1  0  0  0  0
 13 14  2  0  0  0  0
 13 15  1  0  0  0  0
 15 16  1  0  0  0  0
 15 17  1  0  0  0  0
 15 44  1  0  0  0  0
 16 17  1  0  0  0  0
 16 45  1  0  0  0  0
 16 46  1  0  0  0  0
 17 47  1  0  0  0  0
 17 48  1  0  0  0  0
 18 49  1  0  0  0  0
 19 20  1  0  0  0  0
 19 50  1  0  0  0  0
 20 21  1  0  0  0  0
 21 22  1  0  0  0  0
 21 51  1  0  0  0  0
 22 23  2  0  0  0  0
 22 24  1  0  0  0  0
 24 25  1  0  0  0  0
 24 52  1  0  0  0  0
 25 26  1  0  0  0  0
 25 34  2  0  0  0  0
 26 27  2  0  0  0  0
 26 53  1  0  0  0  0
 27 28  1  0  0  0  0
 27 32  1  0  0  0  0
 28 29  1  0  0  0  0
 28 30  1  0  0  0  0
 28 31  1  0  0  0  0
 32 33  2  0  0  0  0
 32 54  1  0  0  0  0
 33 34  1  0  0  0  0
 33 55  1  0  0  0  0
 34 35  1  0  0  0  0
M  END
$$$$
