CHEMBL2385579
 OpenBabel04072215363D

 44 48  0  0  0  0  0  0  0  0999 V2000
    1.3781   -0.1794    0.0062 C   0  0  0  0  0  0  0  0  0  0  0  0
    0.4988   -1.2637    0.0496 C   0  0  0  0  0  0  0  0  0  0  0  0
   -0.8966   -1.0976    0.0335 C   0  0  0  0  0  0  0  0  0  0  0  0
   -1.7209   -2.2012    0.0590 N   0  0  0  0  0  0  0  0  0  0  0  0
   -3.1056   -2.1681    0.5476 C   0  0  0  0  0  0  0  0  0  0  0  0
   -3.4015   -3.5140    1.2402 C   0  0  0  0  0  0  0  0  0  0  0  0
   -3.1480   -4.6380    0.3757 O   0  0  0  0  0  0  0  0  0  0  0  0
   -1.7801   -4.6321   -0.0729 C   0  0  0  0  0  0  0  0  0  0  0  0
   -1.4579   -3.3416   -0.8371 C   0  0  0  0  0  0  0  0  0  0  0  0
   -1.3795    0.2154    0.0315 C   0  0  0  0  0  0  0  0  0  0  0  0
   -0.5095    1.3123   -0.0159 C   0  0  0  0  0  0  0  0  0  0  0  0
    0.8729    1.1161   -0.0537 C   0  0  0  0  0  0  0  0  0  0  0  0
    1.7653    2.2518   -0.2301 C   0  0  0  0  0  0  0  0  0  0  0  0
    2.1366    2.7183   -1.6051 C   0  0  0  0  0  0  0  0  0  0  0  0
    2.8710    3.7500   -1.8930 N   0  0  0  0  0  0  0  0  0  0  0  0
    3.3452    4.4625   -0.8237 C   0  0  0  0  0  0  0  0  0  0  0  0
    4.0915    5.6207   -0.7372 C   0  0  0  0  0  0  0  0  0  0  0  0
    4.5933    6.4643   -1.8081 C   0  0  0  0  0  0  0  0  0  0  0  0
    4.4004    6.2655   -3.1909 C   0  0  0  0  0  0  0  0  0  0  0  0
    4.9712    7.2250   -3.9273 N   0  0  0  0  0  0  0  0  0  0  0  0
    5.5268    8.0351   -3.0123 N   0  0  0  0  0  0  0  0  0  0  0  0
    5.3314    7.6214   -1.7248 C   0  0  0  0  0  0  0  0  0  0  0  0
    4.2633    5.8408    0.6397 C   0  0  0  0  0  0  0  0  0  0  0  0
    3.6697    4.9145    1.3954 N   0  0  0  0  0  0  0  0  0  0  0  0
    3.0862    4.0772    0.4978 N   0  0  0  0  0  0  0  0  0  0  0  0
    2.2889    2.9688    0.7740 C   0  0  0  0  0  0  0  0  0  0  0  0
    2.4492   -0.3665    0.0044 H   0  0  0  0  0  0  0  0  0  0  0  0
    0.9240   -2.2624    0.1211 H   0  0  0  0  0  0  0  0  0  0  0  0
   -3.7888   -2.0232   -0.2984 H   0  0  0  0  0  0  0  0  0  0  0  0
   -3.2703   -1.3631    1.2716 H   0  0  0  0  0  0  0  0  0  0  0  0
   -4.4520   -3.5575    1.5415 H   0  0  0  0  0  0  0  0  0  0  0  0
   -2.7884   -3.6226    2.1436 H   0  0  0  0  0  0  0  0  0  0  0  0
   -1.6354   -5.5002   -0.7227 H   0  0  0  0  0  0  0  0  0  0  0  0
   -1.1177   -4.7449    0.7945 H   0  0  0  0  0  0  0  0  0  0  0  0
   -2.1133   -3.2575   -1.7139 H   0  0  0  0  0  0  0  0  0  0  0  0
   -0.4285   -3.3805   -1.2063 H   0  0  0  0  0  0  0  0  0  0  0  0
   -2.4480    0.4124    0.0240 H   0  0  0  0  0  0  0  0  0  0  0  0
   -0.9265    2.3166   -0.0517 H   0  0  0  0  0  0  0  0  0  0  0  0
    1.7362    2.1115   -2.4332 H   0  0  0  0  0  0  0  0  0  0  0  0
    3.8668    5.4680   -3.6933 H   0  0  0  0  0  0  0  0  0  0  0  0
    6.0243    8.8565   -3.3392 H   0  0  0  0  0  0  0  0  0  0  0  0
    5.7245    8.1847   -0.8916 H   0  0  0  0  0  0  0  0  0  0  0  0
    4.7937    6.6446    1.1321 H   0  0  0  0  0  0  0  0  0  0  0  0
    2.1159    2.7614    1.8198 H   0  0  0  0  0  0  0  0  0  0  0  0
  1  2  1  0  0  0  0
  1 12  2  0  0  0  0
  1 27  1  0  0  0  0
  2  3  2  0  0  0  0
  2 28  1  0  0  0  0
  3  4  1  0  0  0  0
  3 10  1  0  0  0  0
  4  5  1  0  0  0  0
  4  9  1  0  0  0  0
  5  6  1  0  0  0  0
  5 29  1  0  0  0  0
  5 30  1  0  0  0  0
  6  7  1  0  0  0  0
  6 31  1  0  0  0  0
  6 32  1  0  0  0  0
  7  8  1  0  0  0  0
  8  9  1  0  0  0  0
  8 33  1  0  0  0  0
  8 34  1  0  0  0  0
  9 35  1  0  0  0  0
  9 36  1  0  0  0  0
 10 11  2  0  0  0  0
 10 37  1  0  0  0  0
 11 12  1  0  0  0  0
 11 38  1  0  0  0  0
 12 13  1  0  0  0  0
 13 14  1  0  0  0  0
 13 26  2  0  0  0  0
 14 15  2  0  0  0  0
 14 39  1  0  0  0  0
 15 16  1  0  0  0  0
 16 17  2  0  0  0  0
 16 25  1  0  0  0  0
 17 18  1  0  0  0  0
 17 23  1  0  0  0  0
 18 19  1  0  0  0  0
 18 22  2  0  0  0  0
 19 20  2  0  0  0  0
 19 40  1  0  0  0  0
 20 21  1  0  0  0  0
 21 22  1  0  0  0  0
 21 41  1  0  0  0  0
 22 42  1  0  0  0  0
 23 24  2  0  0  0  0
 23 43  1  0  0  0  0
 24 25  1  0  0  0  0
 25 26  1  0  0  0  0
 26 44  1  0  0  0  0
M  END
$$$$
