CHEMBL442485
 OpenBabel04072215383D

 78 82  0  0  0  0  0  0  0  0999 V2000
    1.8263   -4.6572    2.5182 C   0  0  0  0  0  0  0  0  0  0  0  0
    3.1379   -4.1540    2.7400 O   0  0  0  0  0  0  0  0  0  0  0  0
    3.4636   -2.9701    2.1377 C   0  0  0  0  0  0  0  0  0  0  0  0
    2.6348   -2.2070    1.3314 C   0  0  0  0  0  0  0  0  0  0  0  0
    3.1216   -1.0301    0.7580 C   0  0  0  0  0  0  0  0  0  0  0  0
    4.4382   -0.5916    0.9920 C   0  0  0  0  0  0  0  0  0  0  0  0
    4.9680    0.4404    0.2606 O   0  0  0  0  0  0  0  0  0  0  0  0
    4.0838    1.5218   -0.0216 C   0  0  0  0  0  0  0  0  0  0  0  0
    5.2887   -1.3201    1.8484 C   0  0  0  0  0  0  0  0  0  0  0  0
    6.6171   -0.8843    2.2270 N   0  0  0  0  0  0  0  0  0  0  0  0
    7.0523    0.4541    2.2491 C   0  0  0  0  0  0  0  0  0  0  0  0
    6.3770    1.4694    2.1133 O   0  0  0  0  0  0  0  0  0  0  0  0
    8.4304    0.5546    2.5337 O   0  0  0  0  0  0  0  0  0  0  0  0
    9.0447    1.2687    3.6097 C   0  0  0  0  0  0  0  0  0  0  0  0
    8.3542    1.8297    4.7008 C   0  0  0  0  0  0  0  0  0  0  0  0
    6.8636    1.9027    4.8747 C   0  0  0  0  0  0  0  0  0  0  0  0
    9.1162    2.3907    5.7414 C   0  0  0  0  0  0  0  0  0  0  0  0
   10.5071    2.3313    5.7417 C   0  0  0  0  0  0  0  0  0  0  0  0
   11.1757    1.7276    4.6836 C   0  0  0  0  0  0  0  0  0  0  0  0
   10.4594    1.1967    3.6030 C   0  0  0  0  0  0  0  0  0  0  0  0
   11.2169    0.5253    2.4884 C   0  0  0  0  0  0  0  0  0  0  0  0
    7.4993   -1.8972    2.7050 C   0  0  0  0  0  0  0  0  0  0  0  0
    8.0725   -1.7819    3.9557 C   0  0  0  0  0  0  0  0  0  0  0  0
    9.0418   -2.6947    4.2701 C   0  0  0  0  0  0  0  0  0  0  0  0
    9.4087   -3.6647    3.4302 N   0  0  0  0  0  0  0  0  0  0  0  0
    8.7471   -3.7600    2.2667 C   0  0  0  0  0  0  0  0  0  0  0  0
    9.0738   -4.7688    1.3723 N   0  0  0  0  0  0  0  0  0  0  0  0
   10.3278   -5.3377    1.1356 C   0  0  0  0  0  0  0  0  0  0  0  0
   10.3888   -6.6184    0.5965 C   0  0  0  0  0  0  0  0  0  0  0  0
   11.6164   -7.2644    0.4545 C   0  0  0  0  0  0  0  0  0  0  0  0
   12.8248   -6.6582    0.8307 C   0  0  0  0  0  0  0  0  0  0  0  0
   14.0076   -7.3528    0.6586 N   0  0  0  0  0  0  0  0  0  0  0  0
   15.3012   -6.6665    0.5513 C   0  0  0  0  0  0  0  0  0  0  0  0
   16.2656   -7.5683   -0.2599 C   0  0  0  0  0  0  0  0  0  0  0  0
   16.4222   -8.9235    0.3252 N   0  0  0  0  0  0  0  0  0  0  0  0
   17.2700   -9.7532   -0.5263 C   0  0  0  0  0  0  0  0  0  0  0  0
   15.0872   -9.5494    0.4827 C   0  0  0  0  0  0  0  0  0  0  0  0
   14.1170   -8.6745    1.3045 C   0  0  0  0  0  0  0  0  0  0  0  0
   12.7601   -5.3549    1.3238 C   0  0  0  0  0  0  0  0  0  0  0  0
   11.5286   -4.7106    1.4886 C   0  0  0  0  0  0  0  0  0  0  0  0
    7.7756   -2.9265    1.8855 N   0  0  0  0  0  0  0  0  0  0  0  0
    4.7662   -2.5220    2.3915 C   0  0  0  0  0  0  0  0  0  0  0  0
    1.7165   -5.5739    3.1060 H   0  0  0  0  0  0  0  0  0  0  0  0
    1.6756   -4.9153    1.4646 H   0  0  0  0  0  0  0  0  0  0  0  0
    1.0666   -3.9493    2.8651 H   0  0  0  0  0  0  0  0  0  0  0  0
    1.6182   -2.5077    1.1023 H   0  0  0  0  0  0  0  0  0  0  0  0
    2.4620   -0.4880    0.0875 H   0  0  0  0  0  0  0  0  0  0  0  0
    4.6907    2.3835   -0.3150 H   0  0  0  0  0  0  0  0  0  0  0  0
    3.4926    1.8093    0.8554 H   0  0  0  0  0  0  0  0  0  0  0  0
    3.4334    1.2750   -0.8667 H   0  0  0  0  0  0  0  0  0  0  0  0
    6.3401    1.0382    4.4687 H   0  0  0  0  0  0  0  0  0  0  0  0
    6.4752    2.8269    4.4374 H   0  0  0  0  0  0  0  0  0  0  0  0
    6.6023    1.8884    5.9389 H   0  0  0  0  0  0  0  0  0  0  0  0
    8.6159    2.8641    6.5847 H   0  0  0  0  0  0  0  0  0  0  0  0
   11.0661    2.7468    6.5759 H   0  0  0  0  0  0  0  0  0  0  0  0
   12.2615    1.6665    4.7127 H   0  0  0  0  0  0  0  0  0  0  0  0
   12.2995    0.5698    2.6577 H   0  0  0  0  0  0  0  0  0  0  0  0
   11.0141    1.0233    1.5356 H   0  0  0  0  0  0  0  0  0  0  0  0
   10.9429   -0.5321    2.4176 H   0  0  0  0  0  0  0  0  0  0  0  0
    7.8000   -1.0162    4.6690 H   0  0  0  0  0  0  0  0  0  0  0  0
    9.5807   -2.6615    5.2130 H   0  0  0  0  0  0  0  0  0  0  0  0
    8.4077   -4.8190    0.6161 H   0  0  0  0  0  0  0  0  0  0  0  0
    9.4796   -7.1407    0.3143 H   0  0  0  0  0  0  0  0  0  0  0  0
   11.6241   -8.2610    0.0227 H   0  0  0  0  0  0  0  0  0  0  0  0
   15.7157   -6.4643    1.5475 H   0  0  0  0  0  0  0  0  0  0  0  0
   15.2029   -5.7118    0.0213 H   0  0  0  0  0  0  0  0  0  0  0  0
   17.2423   -7.0748   -0.3133 H   0  0  0  0  0  0  0  0  0  0  0  0
   15.8791   -7.6474   -1.2859 H   0  0  0  0  0  0  0  0  0  0  0  0
   18.2670   -9.3102   -0.6201 H   0  0  0  0  0  0  0  0  0  0  0  0
   16.8524   -9.8817   -1.5316 H   0  0  0  0  0  0  0  0  0  0  0  0
   17.4036  -10.7447   -0.0801 H   0  0  0  0  0  0  0  0  0  0  0  0
   15.1906  -10.5185    0.9843 H   0  0  0  0  0  0  0  0  0  0  0  0
   14.6367   -9.7334   -0.5028 H   0  0  0  0  0  0  0  0  0  0  0  0
   14.4903   -8.5565    2.3307 H   0  0  0  0  0  0  0  0  0  0  0  0
   13.1559   -9.1956    1.3741 H   0  0  0  0  0  0  0  0  0  0  0  0
   13.6582   -4.8246    1.6252 H   0  0  0  0  0  0  0  0  0  0  0  0
   11.5250   -3.7015    1.8937 H   0  0  0  0  0  0  0  0  0  0  0  0
    5.3641   -3.1480    3.0511 H   0  0  0  0  0  0  0  0  0  0  0  0
  1  2  1  0  0  0  0
  1 43  1  0  0  0  0
  1 44  1  0  0  0  0
  1 45  1  0  0  0  0
  2  3  1  0  0  0  0
  3  4  1  0  0  0  0
  3 42  2  0  0  0  0
  4  5  2  0  0  0  0
  4 46  1  0  0  0  0
  5  6  1  0  0  0  0
  5 47  1  0  0  0  0
  6  7  1  0  0  0  0
  6  9  2  0  0  0  0
  7  8  1  0  0  0  0
  8 48  1  0  0  0  0
  8 49  1  0  0  0  0
  8 50  1  0  0  0  0
  9 10  1  0  0  0  0
  9 42  1  0  0  0  0
 10 11  1  0  0  0  0
 10 22  1  0  0  0  0
 11 12  2  0  0  0  0
 11 13  1  0  0  0  0
 13 14  1  0  0  0  0
 14 15  1  0  0  0  0
 14 20  2  0  0  0  0
 15 16  1  0  0  0  0
 15 17  2  0  0  0  0
 16 51  1  0  0  0  0
 16 52  1  0  0  0  0
 16 53  1  0  0  0  0
 17 18  1  0  0  0  0
 17 54  1  0  0  0  0
 18 19  2  0  0  0  0
 18 55  1  0  0  0  0
 19 20  1  0  0  0  0
 19 56  1  0  0  0  0
 20 21  1  0  0  0  0
 21 57  1  0  0  0  0
 21 58  1  0  0  0  0
 21 59  1  0  0  0  0
 22 23  1  0  0  0  0
 22 41  2  0  0  0  0
 23 24  2  0  0  0  0
 23 60  1  0  0  0  0
 24 25  1  0  0  0  0
 24 61  1  0  0  0  0
 25 26  2  0  0  0  0
 26 27  1  0  0  0  0
 26 41  1  0  0  0  0
 27 28  1  0  0  0  0
 27 62  1  0  0  0  0
 28 29  1  0  0  0  0
 28 40  2  0  0  0  0
 29 30  2  0  0  0  0
 29 63  1  0  0  0  0
 30 31  1  0  0  0  0
 30 64  1  0  0  0  0
 31 32  1  0  0  0  0
 31 39  2  0  0  0  0
 32 33  1  0  0  0  0
 32 38  1  0  0  0  0
 33 34  1  0  0  0  0
 33 65  1  0  0  0  0
 33 66  1  0  0  0  0
 34 35  1  0  0  0  0
 34 67  1  0  0  0  0
 34 68  1  0  0  0  0
 35 36  1  0  0  0  0
 35 37  1  0  0  0  0
 36 69  1  0  0  0  0
 36 70  1  0  0  0  0
 36 71  1  0  0  0  0
 37 38  1  0  0  0  0
 37 72  1  0  0  0  0
 37 73  1  0  0  0  0
 38 74  1  0  0  0  0
 38 75  1  0  0  0  0
 39 40  1  0  0  0  0
 39 76  1  0  0  0  0
 40 77  1  0  0  0  0
 42 78  1  0  0  0  0
M  END
$$$$
