CHEMBL3696079
 OpenBabel04072215373D

 67 70  0  0  0  0  0  0  0  0999 V2000
    1.0589    0.1437    0.2690 N   0  0  0  0  0  0  0  0  0  0  0  0
    2.4211    0.0104    0.2848 C   0  0  0  0  0  0  0  0  0  0  0  0
    2.9850   -0.2674    1.3374 O   0  0  0  0  0  0  0  0  0  0  0  0
    3.0959    0.1223   -1.0050 C   0  0  0  0  0  0  0  0  0  0  0  0
    4.2569   -0.6778   -1.4331 C   0  0  0  0  0  0  0  0  0  0  0  0
    4.8671   -1.7984   -0.6909 C   0  0  0  0  0  0  0  0  0  0  0  0
    4.0347   -2.6701    0.0080 C   0  0  0  0  0  0  0  0  0  0  0  0
    4.5558   -3.6951    0.7899 C   0  0  0  0  0  0  0  0  0  0  0  0
    5.9251   -3.9439    0.8507 C   0  0  0  0  0  0  0  0  0  0  0  0
    6.4727   -4.9794    1.6567 N   0  0  0  0  0  0  0  0  0  0  0  0
    5.7257   -5.8243    2.4664 C   0  0  0  0  0  0  0  0  0  0  0  0
    4.4996   -5.8285    2.5597 O   0  0  0  0  0  0  0  0  0  0  0  0
    6.4174   -6.8236    3.3193 C   0  0  0  0  0  0  0  0  0  0  0  0
    7.7443   -6.7223    3.7448 C   0  0  0  0  0  0  0  0  0  0  0  0
    8.2431   -7.6487    4.6670 C   0  0  0  0  0  0  0  0  0  0  0  0
    7.4234   -8.6581    5.1876 C   0  0  0  0  0  0  0  0  0  0  0  0
    6.0875   -8.7669    4.7790 C   0  0  0  0  0  0  0  0  0  0  0  0
    5.1397   -9.7651    5.3675 C   0  0  0  0  0  0  0  0  0  0  0  0
    5.6767  -10.5150    6.3720 F   0  0  0  0  0  0  0  0  0  0  0  0
    4.0283   -9.1790    5.9080 F   0  0  0  0  0  0  0  0  0  0  0  0
    4.6695  -10.6604    4.4506 F   0  0  0  0  0  0  0  0  0  0  0  0
    5.6160   -7.8658    3.8235 C   0  0  0  0  0  0  0  0  0  0  0  0
    6.7702   -3.1273    0.0896 C   0  0  0  0  0  0  0  0  0  0  0  0
    6.2454   -2.0577   -0.6741 C   0  0  0  0  0  0  0  0  0  0  0  0
    4.7073   -0.4062   -2.6662 N   0  0  0  0  0  0  0  0  0  0  0  0
    3.6991    0.6773   -3.3965 S   0  0  0  0  0  0  0  0  0  0  0  0
    2.6967    0.9333   -2.0536 C   0  0  0  0  0  0  0  0  0  0  0  0
    1.6832    1.8673   -2.2212 N   0  0  0  0  0  0  0  0  0  0  0  0
    1.5410    2.8635   -1.2756 C   0  0  0  0  0  0  0  0  0  0  0  0
    2.2703    3.0178   -0.3034 O   0  0  0  0  0  0  0  0  0  0  0  0
    0.4391    3.6631   -1.5048 N   0  0  0  0  0  0  0  0  0  0  0  0
    0.1879    4.7650   -0.5958 C   0  0  0  0  0  0  0  0  0  0  0  0
   -1.0797    5.5662   -0.8962 C   0  0  0  0  0  0  0  0  0  0  0  0
   -1.2158    6.6777    0.1595 C   0  0  0  0  0  0  0  0  0  0  0  0
   -2.4351    7.4982    0.0763 N   0  0  0  0  0  0  0  0  0  0  0  0
   -2.5672    8.2886   -1.1674 C   0  0  0  0  0  0  0  0  0  0  0  0
   -1.6376    9.5121   -1.2584 C   0  0  0  0  0  0  0  0  0  0  0  0
   -1.7752   10.3688   -0.1196 O   0  0  0  0  0  0  0  0  0  0  0  0
   -1.5315    9.6438    1.0907 C   0  0  0  0  0  0  0  0  0  0  0  0
   -2.4932    8.4474    1.2208 C   0  0  0  0  0  0  0  0  0  0  0  0
    0.6074    0.1622    1.1726 H   0  0  0  0  0  0  0  0  0  0  0  0
    0.5798    0.5592   -0.5144 H   0  0  0  0  0  0  0  0  0  0  0  0
    2.9537   -2.5612   -0.0076 H   0  0  0  0  0  0  0  0  0  0  0  0
    3.8251   -4.2657    1.3474 H   0  0  0  0  0  0  0  0  0  0  0  0
    7.4750   -5.1002    1.6163 H   0  0  0  0  0  0  0  0  0  0  0  0
    8.3889   -5.9096    3.4172 H   0  0  0  0  0  0  0  0  0  0  0  0
    9.2717   -7.5648    5.0154 H   0  0  0  0  0  0  0  0  0  0  0  0
    7.8234   -9.3431    5.9347 H   0  0  0  0  0  0  0  0  0  0  0  0
    4.5741   -7.9420    3.5006 H   0  0  0  0  0  0  0  0  0  0  0  0
    7.8447   -3.2898    0.0816 H   0  0  0  0  0  0  0  0  0  0  0  0
    6.9238   -1.4286   -1.2460 H   0  0  0  0  0  0  0  0  0  0  0  0
    1.5012    2.1515   -3.1728 H   0  0  0  0  0  0  0  0  0  0  0  0
   -0.0226    3.6406   -2.4021 H   0  0  0  0  0  0  0  0  0  0  0  0
    1.0641    5.4239   -0.6319 H   0  0  0  0  0  0  0  0  0  0  0  0
    0.1358    4.3473    0.4174 H   0  0  0  0  0  0  0  0  0  0  0  0
   -1.9565    4.9077   -0.8775 H   0  0  0  0  0  0  0  0  0  0  0  0
   -1.0092    5.9874   -1.9046 H   0  0  0  0  0  0  0  0  0  0  0  0
   -0.3163    7.3006    0.1369 H   0  0  0  0  0  0  0  0  0  0  0  0
   -1.2290    6.1795    1.1385 H   0  0  0  0  0  0  0  0  0  0  0  0
   -3.6034    8.6537   -1.2001 H   0  0  0  0  0  0  0  0  0  0  0  0
   -2.4518    7.6598   -2.0545 H   0  0  0  0  0  0  0  0  0  0  0  0
   -1.8998   10.1041   -2.1416 H   0  0  0  0  0  0  0  0  0  0  0  0
   -0.5880    9.2135   -1.3607 H   0  0  0  0  0  0  0  0  0  0  0  0
   -1.6833   10.3346    1.9265 H   0  0  0  0  0  0  0  0  0  0  0  0
   -0.4813    9.3313    1.1165 H   0  0  0  0  0  0  0  0  0  0  0  0
   -3.5193    8.8338    1.2769 H   0  0  0  0  0  0  0  0  0  0  0  0
   -2.3127    7.9232    2.1669 H   0  0  0  0  0  0  0  0  0  0  0  0
  1  2  1  0  0  0  0
  1 41  1  0  0  0  0
  1 42  1  0  0  0  0
  2  3  2  0  0  0  0
  2  4  1  0  0  0  0
  4  5  1  0  0  0  0
  4 27  2  0  0  0  0
  5  6  1  0  0  0  0
  5 25  2  0  0  0  0
  6  7  1  0  0  0  0
  6 24  2  0  0  0  0
  7  8  2  0  0  0  0
  7 43  1  0  0  0  0
  8  9  1  0  0  0  0
  8 44  1  0  0  0  0
  9 10  1  0  0  0  0
  9 23  2  0  0  0  0
 10 11  1  0  0  0  0
 10 45  1  0  0  0  0
 11 12  2  0  0  0  0
 11 13  1  0  0  0  0
 13 14  1  0  0  0  0
 13 22  2  0  0  0  0
 14 15  2  0  0  0  0
 14 46  1  0  0  0  0
 15 16  1  0  0  0  0
 15 47  1  0  0  0  0
 16 17  2  0  0  0  0
 16 48  1  0  0  0  0
 17 18  1  0  0  0  0
 17 22  1  0  0  0  0
 18 19  1  0  0  0  0
 18 20  1  0  0  0  0
 18 21  1  0  0  0  0
 22 49  1  0  0  0  0
 23 24  1  0  0  0  0
 23 50  1  0  0  0  0
 24 51  1  0  0  0  0
 25 26  1  0  0  0  0
 26 27  1  0  0  0  0
 27 28  1  0  0  0  0
 28 29  1  0  0  0  0
 28 52  1  0  0  0  0
 29 30  2  0  0  0  0
 29 31  1  0  0  0  0
 31 32  1  0  0  0  0
 31 53  1  0  0  0  0
 32 33  1  0  0  0  0
 32 54  1  0  0  0  0
 32 55  1  0  0  0  0
 33 34  1  0  0  0  0
 33 56  1  0  0  0  0
 33 57  1  0  0  0  0
 34 35  1  0  0  0  0
 34 58  1  0  0  0  0
 34 59  1  0  0  0  0
 35 36  1  0  0  0  0
 35 40  1  0  0  0  0
 36 37  1  0  0  0  0
 36 60  1  0  0  0  0
 36 61  1  0  0  0  0
 37 38  1  0  0  0  0
 37 62  1  0  0  0  0
 37 63  1  0  0  0  0
 38 39  1  0  0  0  0
 39 40  1  0  0  0  0
 39 64  1  0  0  0  0
 39 65  1  0  0  0  0
 40 66  1  0  0  0  0
 40 67  1  0  0  0  0
M  END
$$$$
