CHEMBL2032016
 OpenBabel04072215363D

 65 70  0  0  0  0  0  0  0  0999 V2000
    3.5409   -0.8038    0.8784 C   0  0  0  0  0  0  0  0  0  0  0  0
    4.7650   -0.1064    1.1070 O   0  0  0  0  0  0  0  0  0  0  0  0
    4.8843    1.0697    0.4150 C   0  0  0  0  0  0  0  0  0  0  0  0
    3.8100    1.8322   -0.0113 C   0  0  0  0  0  0  0  0  0  0  0  0
    4.0330    2.9917   -0.7375 C   0  0  0  0  0  0  0  0  0  0  0  0
    5.3407    3.4827   -0.9610 C   0  0  0  0  0  0  0  0  0  0  0  0
    5.6329    4.7232   -1.5716 C   0  0  0  0  0  0  0  0  0  0  0  0
    4.6845    5.6297   -2.0208 O   0  0  0  0  0  0  0  0  0  0  0  0
    3.6559    6.0265   -1.1970 C   0  0  0  0  0  0  0  0  0  0  0  0
    2.5035    6.5216   -1.8077 C   0  0  0  0  0  0  0  0  0  0  0  0
    1.3844    6.8678   -1.0302 C   0  0  0  0  0  0  0  0  0  0  0  0
    1.4401    6.7010    0.3494 C   0  0  0  0  0  0  0  0  0  0  0  0
    0.3101    7.0174    1.1362 N   0  0  0  0  0  0  0  0  0  0  0  0
    0.2389    6.7500    2.4898 C   0  0  0  0  0  0  0  0  0  0  0  0
    1.0862    6.1404    3.1376 O   0  0  0  0  0  0  0  0  0  0  0  0
   -0.9519    7.2621    3.2051 C   0  0  0  0  0  0  0  0  0  0  0  0
   -1.3678    6.8957    4.4362 C   0  0  0  0  0  0  0  0  0  0  0  0
   -0.8870    5.7284    5.1789 C   0  0  0  0  0  0  0  0  0  0  0  0
    0.1396    5.8156    6.1159 C   0  0  0  0  0  0  0  0  0  0  0  0
    0.5828    4.6611    6.7572 C   0  0  0  0  0  0  0  0  0  0  0  0
   -0.0320    3.4559    6.4524 C   0  0  0  0  0  0  0  0  0  0  0  0
   -1.0470    3.3319    5.5691 N   0  0  0  0  0  0  0  0  0  0  0  0
   -1.4332    4.4684    4.9406 C   0  0  0  0  0  0  0  0  0  0  0  0
   -2.3754    7.7165    4.9434 N   0  0  0  0  0  0  0  0  0  0  0  0
   -3.3883    7.2931    5.9104 C   0  0  0  0  0  0  0  0  0  0  0  0
   -2.7929    8.5105    3.8576 N   0  0  0  0  0  0  0  0  0  0  0  0
   -3.6960    9.5809    3.9951 C   0  0  0  0  0  0  0  0  0  0  0  0
   -4.6914    9.7665    3.0307 C   0  0  0  0  0  0  0  0  0  0  0  0
   -5.6550   10.7687    3.1892 C   0  0  0  0  0  0  0  0  0  0  0  0
   -5.5975   11.6215    4.2909 C   0  0  0  0  0  0  0  0  0  0  0  0
   -4.5969   11.4592    5.2450 C   0  0  0  0  0  0  0  0  0  0  0  0
   -3.6580   10.4332    5.1089 C   0  0  0  0  0  0  0  0  0  0  0  0
   -1.9197    8.3057    2.7785 C   0  0  0  0  0  0  0  0  0  0  0  0
   -1.8945    8.8383    1.6783 O   0  0  0  0  0  0  0  0  0  0  0  0
    2.5639    6.2605    0.9435 N   0  0  0  0  0  0  0  0  0  0  0  0
    3.6435    5.9575    0.1844 C   0  0  0  0  0  0  0  0  0  0  0  0
    6.9556    5.0731   -1.8315 C   0  0  0  0  0  0  0  0  0  0  0  0
    7.9489    4.2094   -1.4168 C   0  0  0  0  0  0  0  0  0  0  0  0
    7.7123    3.0536   -0.7631 N   0  0  0  0  0  0  0  0  0  0  0  0
    6.4347    2.6980   -0.5321 C   0  0  0  0  0  0  0  0  0  0  0  0
    6.1878    1.5107    0.1510 C   0  0  0  0  0  0  0  0  0  0  0  0
    3.6082   -1.7813    1.3629 H   0  0  0  0  0  0  0  0  0  0  0  0
    3.3821   -0.9677   -0.1939 H   0  0  0  0  0  0  0  0  0  0  0  0
    2.6895   -0.2770    1.3225 H   0  0  0  0  0  0  0  0  0  0  0  0
    2.7833    1.5709    0.2186 H   0  0  0  0  0  0  0  0  0  0  0  0
    3.1630    3.5301   -1.0937 H   0  0  0  0  0  0  0  0  0  0  0  0
    2.4631    6.6185   -2.8900 H   0  0  0  0  0  0  0  0  0  0  0  0
    0.4883    7.2351   -1.5187 H   0  0  0  0  0  0  0  0  0  0  0  0
   -0.4638    7.4944    0.6873 H   0  0  0  0  0  0  0  0  0  0  0  0
    0.6229    6.7685    6.3149 H   0  0  0  0  0  0  0  0  0  0  0  0
    1.4029    4.6996    7.4650 H   0  0  0  0  0  0  0  0  0  0  0  0
    0.2876    2.5306    6.9216 H   0  0  0  0  0  0  0  0  0  0  0  0
   -2.2294    4.3265    4.2136 H   0  0  0  0  0  0  0  0  0  0  0  0
   -3.0712    6.4232    6.4937 H   0  0  0  0  0  0  0  0  0  0  0  0
   -4.3339    7.0412    5.4190 H   0  0  0  0  0  0  0  0  0  0  0  0
   -3.5700    8.0925    6.6360 H   0  0  0  0  0  0  0  0  0  0  0  0
   -4.7606    9.0958    2.1764 H   0  0  0  0  0  0  0  0  0  0  0  0
   -6.4491   10.8788    2.4545 H   0  0  0  0  0  0  0  0  0  0  0  0
   -6.3351   12.4149    4.4024 H   0  0  0  0  0  0  0  0  0  0  0  0
   -4.5420   12.1383    6.0916 H   0  0  0  0  0  0  0  0  0  0  0  0
   -2.8763   10.3242    5.8539 H   0  0  0  0  0  0  0  0  0  0  0  0
    4.4943    5.6044    0.7588 H   0  0  0  0  0  0  0  0  0  0  0  0
    7.2071    5.9954   -2.3418 H   0  0  0  0  0  0  0  0  0  0  0  0
    8.9985    4.4274   -1.5989 H   0  0  0  0  0  0  0  0  0  0  0  0
    7.0275    0.9103    0.4858 H   0  0  0  0  0  0  0  0  0  0  0  0
  1  2  1  0  0  0  0
  1 42  1  0  0  0  0
  1 43  1  0  0  0  0
  1 44  1  0  0  0  0
  2  3  1  0  0  0  0
  3  4  1  0  0  0  0
  3 41  2  0  0  0  0
  4  5  2  0  0  0  0
  4 45  1  0  0  0  0
  5  6  1  0  0  0  0
  5 46  1  0  0  0  0
  6  7  1  0  0  0  0
  6 40  2  0  0  0  0
  7  8  1  0  0  0  0
  7 37  2  0  0  0  0
  8  9  1  0  0  0  0
  9 10  1  0  0  0  0
  9 36  2  0  0  0  0
 10 11  2  0  0  0  0
 10 47  1  0  0  0  0
 11 12  1  0  0  0  0
 11 48  1  0  0  0  0
 12 13  1  0  0  0  0
 12 35  2  0  0  0  0
 13 14  1  0  0  0  0
 13 49  1  0  0  0  0
 14 15  2  0  0  0  0
 14 16  1  0  0  0  0
 16 17  2  0  0  0  0
 16 33  1  0  0  0  0
 17 18  1  0  0  0  0
 17 24  1  0  0  0  0
 18 19  1  0  0  0  0
 18 23  2  0  0  0  0
 19 20  2  0  0  0  0
 19 50  1  0  0  0  0
 20 21  1  0  0  0  0
 20 51  1  0  0  0  0
 21 22  2  0  0  0  0
 21 52  1  0  0  0  0
 22 23  1  0  0  0  0
 23 53  1  0  0  0  0
 24 25  1  0  0  0  0
 24 26  1  0  0  0  0
 25 54  1  0  0  0  0
 25 55  1  0  0  0  0
 25 56  1  0  0  0  0
 26 27  1  0  0  0  0
 26 33  1  0  0  0  0
 27 28  1  0  0  0  0
 27 32  2  0  0  0  0
 28 29  2  0  0  0  0
 28 57  1  0  0  0  0
 29 30  1  0  0  0  0
 29 58  1  0  0  0  0
 30 31  2  0  0  0  0
 30 59  1  0  0  0  0
 31 32  1  0  0  0  0
 31 60  1  0  0  0  0
 32 61  1  0  0  0  0
 33 34  2  0  0  0  0
 35 36  1  0  0  0  0
 36 62  1  0  0  0  0
 37 38  1  0  0  0  0
 37 63  1  0  0  0  0
 38 39  2  0  0  0  0
 38 64  1  0  0  0  0
 39 40  1  0  0  0  0
 40 41  1  0  0  0  0
 41 65  1  0  0  0  0
M  END
$$$$
