CHEMBL3780758
 OpenBabel04072215373D

 52 56  0  0  0  0  0  0  0  0999 V2000
    0.4895   -2.9204   -0.9882 C   0  0  0  0  0  0  0  0  0  0  0  0
   -0.6591   -3.6255   -0.6349 C   0  0  0  0  0  0  0  0  0  0  0  0
   -1.8788   -2.9572   -0.5037 C   0  0  0  0  0  0  0  0  0  0  0  0
   -1.9785   -1.5719   -0.7197 C   0  0  0  0  0  0  0  0  0  0  0  0
   -3.2641   -0.8606   -0.6253 C   0  0  0  0  0  0  0  0  0  0  0  0
   -4.2930   -1.2370    0.2234 C   0  0  0  0  0  0  0  0  0  0  0  0
   -5.4747   -0.5780    0.2947 N   0  0  0  0  0  0  0  0  0  0  0  0
   -5.6407    0.4510   -0.5869 C   0  0  0  0  0  0  0  0  0  0  0  0
   -6.8304    1.1881   -0.6690 C   0  0  0  0  0  0  0  0  0  0  0  0
   -7.8209    0.9438    0.3013 N   0  0  0  0  0  0  0  0  0  0  0  0
   -9.2083    1.0922    0.2198 C   0  0  0  0  0  0  0  0  0  0  0  0
   -9.8589    1.3571   -0.9809 C   0  0  0  0  0  0  0  0  0  0  0  0
  -11.2431    1.5073   -1.0382 C   0  0  0  0  0  0  0  0  0  0  0  0
  -12.0373    1.4333    0.1073 C   0  0  0  0  0  0  0  0  0  0  0  0
  -13.4075    1.5967    0.0522 N   0  0  0  0  0  0  0  0  0  0  0  0
  -14.1797    1.2938   -1.1513 C   0  0  0  0  0  0  0  0  0  0  0  0
  -14.8433    2.5623   -1.6808 C   0  0  0  0  0  0  0  0  0  0  0  0
  -15.6524    3.2623   -0.5895 C   0  0  0  0  0  0  0  0  0  0  0  0
  -14.8150    3.4946    0.6667 C   0  0  0  0  0  0  0  0  0  0  0  0
  -14.1521    2.2045    1.1523 C   0  0  0  0  0  0  0  0  0  0  0  0
  -11.3725    1.1800    1.3144 C   0  0  0  0  0  0  0  0  0  0  0  0
   -9.9811    1.0230    1.3767 C   0  0  0  0  0  0  0  0  0  0  0  0
   -7.0549    2.1042   -1.6485 N   0  0  0  0  0  0  0  0  0  0  0  0
   -6.0671    2.3770   -2.5036 C   0  0  0  0  0  0  0  0  0  0  0  0
   -4.8176    1.8064   -2.4099 C   0  0  0  0  0  0  0  0  0  0  0  0
   -4.6158    0.8139   -1.4717 C   0  0  0  0  0  0  0  0  0  0  0  0
   -3.4203    0.1931   -1.4628 N   0  0  0  0  0  0  0  0  0  0  0  0
   -0.8018   -0.8797   -1.0685 C   0  0  0  0  0  0  0  0  0  0  0  0
    0.4193   -1.5491   -1.2033 C   0  0  0  0  0  0  0  0  0  0  0  0
    1.4327   -3.4435   -1.1016 H   0  0  0  0  0  0  0  0  0  0  0  0
   -0.6094   -4.6984   -0.4726 H   0  0  0  0  0  0  0  0  0  0  0  0
   -2.7577   -3.5466   -0.2581 H   0  0  0  0  0  0  0  0  0  0  0  0
   -4.2089   -2.0898    0.8879 H   0  0  0  0  0  0  0  0  0  0  0  0
   -7.4617    0.4433    1.1064 H   0  0  0  0  0  0  0  0  0  0  0  0
   -9.3061    1.4349   -1.9121 H   0  0  0  0  0  0  0  0  0  0  0  0
  -11.6728    1.7143   -2.0136 H   0  0  0  0  0  0  0  0  0  0  0  0
  -14.9487    0.5568   -0.8874 H   0  0  0  0  0  0  0  0  0  0  0  0
  -13.5891    0.8236   -1.9444 H   0  0  0  0  0  0  0  0  0  0  0  0
  -15.4993    2.3090   -2.5213 H   0  0  0  0  0  0  0  0  0  0  0  0
  -14.0786    3.2497   -2.0638 H   0  0  0  0  0  0  0  0  0  0  0  0
  -16.5254    2.6493   -0.3347 H   0  0  0  0  0  0  0  0  0  0  0  0
  -16.0293    4.2201   -0.9652 H   0  0  0  0  0  0  0  0  0  0  0  0
  -15.4458    3.9059    1.4631 H   0  0  0  0  0  0  0  0  0  0  0  0
  -14.0411    4.2426    0.4506 H   0  0  0  0  0  0  0  0  0  0  0  0
  -14.9118    1.4941    1.4992 H   0  0  0  0  0  0  0  0  0  0  0  0
  -13.5301    2.4545    2.0171 H   0  0  0  0  0  0  0  0  0  0  0  0
  -11.9320    1.0660    2.2384 H   0  0  0  0  0  0  0  0  0  0  0  0
   -9.5195    0.8426    2.3426 H   0  0  0  0  0  0  0  0  0  0  0  0
   -6.3039    3.0969   -3.2809 H   0  0  0  0  0  0  0  0  0  0  0  0
   -4.0201    2.1102   -3.0751 H   0  0  0  0  0  0  0  0  0  0  0  0
   -0.8329    0.1917   -1.2449 H   0  0  0  0  0  0  0  0  0  0  0  0
    1.3115   -0.9931   -1.4848 H   0  0  0  0  0  0  0  0  0  0  0  0
  1  2  1  0  0  0  0
  1 29  2  0  0  0  0
  1 30  1  0  0  0  0
  2  3  2  0  0  0  0
  2 31  1  0  0  0  0
  3  4  1  0  0  0  0
  3 32  1  0  0  0  0
  4  5  1  0  0  0  0
  4 28  2  0  0  0  0
  5  6  1  0  0  0  0
  5 27  2  0  0  0  0
  6  7  2  0  0  0  0
  6 33  1  0  0  0  0
  7  8  1  0  0  0  0
  8  9  1  0  0  0  0
  8 26  2  0  0  0  0
  9 10  1  0  0  0  0
  9 23  2  0  0  0  0
 10 11  1  0  0  0  0
 10 34  1  0  0  0  0
 11 12  1  0  0  0  0
 11 22  2  0  0  0  0
 12 13  2  0  0  0  0
 12 35  1  0  0  0  0
 13 14  1  0  0  0  0
 13 36  1  0  0  0  0
 14 15  1  0  0  0  0
 14 21  2  0  0  0  0
 15 16  1  0  0  0  0
 15 20  1  0  0  0  0
 16 17  1  0  0  0  0
 16 37  1  0  0  0  0
 16 38  1  0  0  0  0
 17 18  1  0  0  0  0
 17 39  1  0  0  0  0
 17 40  1  0  0  0  0
 18 19  1  0  0  0  0
 18 41  1  0  0  0  0
 18 42  1  0  0  0  0
 19 20  1  0  0  0  0
 19 43  1  0  0  0  0
 19 44  1  0  0  0  0
 20 45  1  0  0  0  0
 20 46  1  0  0  0  0
 21 22  1  0  0  0  0
 21 47  1  0  0  0  0
 22 48  1  0  0  0  0
 23 24  1  0  0  0  0
 24 25  2  0  0  0  0
 24 49  1  0  0  0  0
 25 26  1  0  0  0  0
 25 50  1  0  0  0  0
 26 27  1  0  0  0  0
 28 29  1  0  0  0  0
 28 51  1  0  0  0  0
 29 52  1  0  0  0  0
M  END
$$$$
