CHEMBL1242115
 OpenBabel04072215363D

 46 49  0  0  0  0  0  0  0  0999 V2000
    3.7958    0.0598    0.8805 C   0  0  0  0  0  0  0  0  0  0  0  0
    2.6484    0.0202   -0.1260 C   0  0  0  0  0  0  0  0  0  0  0  0
    1.4436    0.8127    0.3875 C   0  0  0  0  0  0  0  0  0  0  0  0
    3.1028    0.4600   -1.4417 N   0  0  0  0  0  0  0  0  0  0  0  0
    3.0583    1.7632   -1.7915 N   0  0  0  0  0  0  0  0  0  0  0  0
    3.5287    1.7879   -3.0534 C   0  0  0  0  0  0  0  0  0  0  0  0
    3.5220    3.0469   -3.8047 C   0  0  0  0  0  0  0  0  0  0  0  0
    4.5216    3.3521   -4.7362 C   0  0  0  0  0  0  0  0  0  0  0  0
    4.3909    4.4507   -5.5879 C   0  0  0  0  0  0  0  0  0  0  0  0
    3.2902    5.2944   -5.4665 C   0  0  0  0  0  0  0  0  0  0  0  0
    2.3411    5.0603   -4.4657 C   0  0  0  0  0  0  0  0  0  0  0  0
    1.2003    5.9968   -4.3396 C   0  0  0  0  0  0  0  0  0  0  0  0
    0.7083    6.4529   -5.3637 O   0  0  0  0  0  0  0  0  0  0  0  0
    0.8821    6.3580   -3.0395 N   0  0  0  0  0  0  0  0  0  0  0  0
   -0.0994    7.2016   -2.6063 C   0  0  0  0  0  0  0  0  0  0  0  0
    0.0037    7.7358   -1.4383 N   0  0  0  0  0  0  0  0  0  0  0  0
   -1.1572    8.6244   -1.2057 C   0  0  0  0  0  0  0  0  0  0  0  0
   -1.8308    8.9854   -2.5228 C   0  0  0  0  0  0  0  0  0  0  0  0
   -1.4943    7.5602   -3.5604 S   0  0  0  0  0  0  0  0  0  0  0  0
    2.4489    3.9360   -3.6426 C   0  0  0  0  0  0  0  0  0  0  0  0
    3.9003    0.4777   -3.4962 C   0  0  0  0  0  0  0  0  0  0  0  0
    4.4111   -0.1589   -4.6419 C   0  0  0  0  0  0  0  0  0  0  0  0
    4.7427    0.4636   -5.8380 N   0  0  0  0  0  0  0  0  0  0  0  0
    4.5946   -1.4966   -4.6149 N   0  0  0  0  0  0  0  0  0  0  0  0
    4.2640   -2.1728   -3.5028 C   0  0  0  0  0  0  0  0  0  0  0  0
    3.7604   -1.6829   -2.3626 N   0  0  0  0  0  0  0  0  0  0  0  0
    3.6047   -0.3493   -2.4250 C   0  0  0  0  0  0  0  0  0  0  0  0
    3.4643   -0.2907    1.8638 H   0  0  0  0  0  0  0  0  0  0  0  0
    4.1916    1.0747    0.9950 H   0  0  0  0  0  0  0  0  0  0  0  0
    4.6214   -0.5835    0.5569 H   0  0  0  0  0  0  0  0  0  0  0  0
    2.3228   -1.0214   -0.2438 H   0  0  0  0  0  0  0  0  0  0  0  0
    1.7008    1.8589    0.5863 H   0  0  0  0  0  0  0  0  0  0  0  0
    1.0681    0.3796    1.3215 H   0  0  0  0  0  0  0  0  0  0  0  0
    0.6254    0.8005   -0.3406 H   0  0  0  0  0  0  0  0  0  0  0  0
    5.4035    2.7219   -4.8326 H   0  0  0  0  0  0  0  0  0  0  0  0
    5.1404    4.6390   -6.3531 H   0  0  0  0  0  0  0  0  0  0  0  0
    3.1767    6.1395   -6.1432 H   0  0  0  0  0  0  0  0  0  0  0  0
    1.5501    6.1392   -2.3132 H   0  0  0  0  0  0  0  0  0  0  0  0
   -0.8157    9.5390   -0.7078 H   0  0  0  0  0  0  0  0  0  0  0  0
   -1.8587    8.1273   -0.5257 H   0  0  0  0  0  0  0  0  0  0  0  0
   -1.3640    9.8660   -2.9741 H   0  0  0  0  0  0  0  0  0  0  0  0
   -2.9017    9.1691   -2.4042 H   0  0  0  0  0  0  0  0  0  0  0  0
    1.6764    3.7195   -2.9065 H   0  0  0  0  0  0  0  0  0  0  0  0
    4.1159    1.2113   -6.1071 H   0  0  0  0  0  0  0  0  0  0  0  0
    4.8917   -0.2394   -6.5545 H   0  0  0  0  0  0  0  0  0  0  0  0
    4.4173   -3.2471   -3.5410 H   0  0  0  0  0  0  0  0  0  0  0  0
  1  2  1  0  0  0  0
  1 28  1  0  0  0  0
  1 29  1  0  0  0  0
  1 30  1  0  0  0  0
  2  3  1  0  0  0  0
  2  4  1  0  0  0  0
  2 31  1  0  0  0  0
  3 32  1  0  0  0  0
  3 33  1  0  0  0  0
  3 34  1  0  0  0  0
  4  5  1  0  0  0  0
  4 27  1  0  0  0  0
  5  6  2  0  0  0  0
  6  7  1  0  0  0  0
  6 21  1  0  0  0  0
  7  8  1  0  0  0  0
  7 20  2  0  0  0  0
  8  9  2  0  0  0  0
  8 35  1  0  0  0  0
  9 10  1  0  0  0  0
  9 36  1  0  0  0  0
 10 11  2  0  0  0  0
 10 37  1  0  0  0  0
 11 12  1  0  0  0  0
 11 20  1  0  0  0  0
 12 13  2  0  0  0  0
 12 14  1  0  0  0  0
 14 15  1  0  0  0  0
 14 38  1  0  0  0  0
 15 16  2  0  0  0  0
 15 19  1  0  0  0  0
 16 17  1  0  0  0  0
 17 18  1  0  0  0  0
 17 39  1  0  0  0  0
 17 40  1  0  0  0  0
 18 19  1  0  0  0  0
 18 41  1  0  0  0  0
 18 42  1  0  0  0  0
 20 43  1  0  0  0  0
 21 22  1  0  0  0  0
 21 27  2  0  0  0  0
 22 23  1  0  0  0  0
 22 24  2  0  0  0  0
 23 44  1  0  0  0  0
 23 45  1  0  0  0  0
 24 25  1  0  0  0  0
 25 26  2  0  0  0  0
 25 46  1  0  0  0  0
 26 27  1  0  0  0  0
M  END
$$$$
