CHEMBL3941200
 OpenBabel04072215373D

 64 68  0  0  1  0  0  0  0  0999 V2000
    2.4938    4.2413   -3.0843 C   0  0  0  0  0  0  0  0  0  0  0  0
    3.6094    3.3635   -3.0653 O   0  0  0  0  0  0  0  0  0  0  0  0
    3.4447    2.1210   -2.5183 C   0  0  0  0  0  0  0  0  0  0  0  0
    4.4534    1.2293   -2.9130 C   0  0  0  0  0  0  0  0  0  0  0  0
    4.5176   -0.0945   -2.4099 C   0  0  0  0  0  0  0  0  0  0  0  0
    5.5060   -1.0508   -2.6981 C   0  0  0  0  0  0  0  0  0  0  0  0
    6.5499   -0.7255   -3.6083 N   0  0  0  0  0  0  0  0  0  0  0  0
    7.5195   -1.5983   -4.1420 C   0  0  0  0  0  0  0  0  0  0  0  0
    7.2772   -2.9662   -4.3309 C   0  0  0  0  0  0  0  0  0  0  0  0
    8.2538   -3.8137   -4.8557 C   0  0  0  0  0  0  0  0  0  0  0  0
    9.4846   -3.2952   -5.2503 C   0  0  0  0  0  0  0  0  0  0  0  0
   10.6573   -4.3985   -5.8725 Cl  0  0  0  0  0  0  0  0  0  0  0  0
    9.7213   -1.9236   -5.1382 C   0  0  0  0  0  0  0  0  0  0  0  0
   11.2056   -1.1983   -5.6476 Cl  0  0  0  0  0  0  0  0  0  0  0  0
    8.7399   -1.0809   -4.5976 C   0  0  0  0  0  0  0  0  0  0  0  0
    5.4821   -2.2818   -2.1501 N   0  0  0  0  0  0  0  0  0  0  0  0
    4.4684   -2.5746   -1.3379 C   0  0  0  0  0  0  0  0  0  0  0  0
    3.4778   -1.7536   -1.0099 N   0  0  0  0  0  0  0  0  0  0  0  0
    3.5212   -0.5294   -1.5413 C   0  0  0  0  0  0  0  0  0  0  0  0
    2.5145    0.3478   -1.1843 C   0  0  0  0  0  0  0  0  0  0  0  0
    2.4686    1.6818   -1.6186 C   0  0  0  0  0  0  0  0  0  0  0  0
    1.4882    2.5470   -1.1886 O   0  0  0  0  0  0  0  0  0  0  0  0
    0.8975    2.2093    0.0675 C   0  0  0  0  0  0  0  0  0  0  0  0
   -0.2351    3.1488    0.4626 C   0  0  3  0  0  0  0  0  0  0  0  0
    0.2055    4.6166    0.5446 C   0  0  0  0  0  0  0  0  0  0  0  0
   -0.8928    5.4273    1.0889 N   0  0  0  0  0  0  0  0  0  0  0  0
   -1.6113    6.2547    0.2357 C   0  0  0  0  0  0  0  0  0  0  0  0
   -1.3163    6.3779   -0.9548 O   0  0  0  0  0  0  0  0  0  0  0  0
   -2.7854    7.0320    0.8140 C   0  0  0  0  0  0  0  0  0  0  0  0
   -4.0720    6.2413    0.9262 C   0  0  0  0  0  0  0  0  0  0  0  0
   -4.9503    6.4998    1.9908 C   0  0  0  0  0  0  0  0  0  0  0  0
   -6.1416    5.7822    2.1215 C   0  0  0  0  0  0  0  0  0  0  0  0
   -6.4698    4.8090    1.1814 C   0  0  0  0  0  0  0  0  0  0  0  0
   -7.9300    3.9159    1.3487 Cl  0  0  0  0  0  0  0  0  0  0  0  0
   -5.6231    4.5575    0.1050 C   0  0  0  0  0  0  0  0  0  0  0  0
   -4.4345    5.2800   -0.0295 C   0  0  0  0  0  0  0  0  0  0  0  0
   -1.3871    4.9261    2.3767 C   0  0  0  0  0  0  0  0  0  0  0  0
   -1.7975    3.4573    2.2382 C   0  0  0  0  0  0  0  0  0  0  0  0
   -0.7004    2.6762    1.7516 O   0  0  0  0  0  0  0  0  0  0  0  0
    2.7077    5.0246   -3.8188 H   0  0  0  0  0  0  0  0  0  0  0  0
    2.3726    4.7279   -2.1125 H   0  0  0  0  0  0  0  0  0  0  0  0
    1.5793    3.7350   -3.4068 H   0  0  0  0  0  0  0  0  0  0  0  0
    5.1984    1.5813   -3.6232 H   0  0  0  0  0  0  0  0  0  0  0  0
    6.9398    0.1819   -3.3647 H   0  0  0  0  0  0  0  0  0  0  0  0
    6.3188   -3.4013   -4.0610 H   0  0  0  0  0  0  0  0  0  0  0  0
    8.0379   -4.8752   -4.9495 H   0  0  0  0  0  0  0  0  0  0  0  0
    8.9398   -0.0146   -4.5214 H   0  0  0  0  0  0  0  0  0  0  0  0
    4.4481   -3.5693   -0.9066 H   0  0  0  0  0  0  0  0  0  0  0  0
    1.7565   -0.0728   -0.5321 H   0  0  0  0  0  0  0  0  0  0  0  0
    1.6670    2.1974    0.8512 H   0  0  0  0  0  0  0  0  0  0  0  0
    0.4308    1.2191    0.0282 H   0  0  0  0  0  0  0  0  0  0  0  0
   -1.0539    3.0508   -0.2622 H   0  0  0  0  0  0  0  0  0  0  0  0
    0.5225    4.9879   -0.4348 H   0  0  0  0  0  0  0  0  0  0  0  0
    1.0472    4.7263    1.2378 H   0  0  0  0  0  0  0  0  0  0  0  0
   -2.9636    7.9069    0.1783 H   0  0  0  0  0  0  0  0  0  0  0  0
   -2.4829    7.4293    1.7918 H   0  0  0  0  0  0  0  0  0  0  0  0
   -4.7112    7.2611    2.7312 H   0  0  0  0  0  0  0  0  0  0  0  0
   -6.8079    5.9882    2.9552 H   0  0  0  0  0  0  0  0  0  0  0  0
   -5.8818    3.8046   -0.6351 H   0  0  0  0  0  0  0  0  0  0  0  0
   -3.7944    5.0766   -0.8871 H   0  0  0  0  0  0  0  0  0  0  0  0
   -2.2210    5.5096    2.7635 H   0  0  0  0  0  0  0  0  0  0  0  0
   -0.5560    5.0168    3.0852 H   0  0  0  0  0  0  0  0  0  0  0  0
   -2.6464    3.3293    1.5583 H   0  0  0  0  0  0  0  0  0  0  0  0
   -2.0820    3.0534    3.2144 H   0  0  0  0  0  0  0  0  0  0  0  0
  1  2  1  0  0  0  0
  1 40  1  0  0  0  0
  1 41  1  0  0  0  0
  1 42  1  0  0  0  0
  2  3  1  0  0  0  0
  3  4  1  0  0  0  0
  3 21  2  0  0  0  0
  4  5  2  0  0  0  0
  4 43  1  0  0  0  0
  5  6  1  0  0  0  0
  5 19  1  0  0  0  0
  6  7  1  0  0  0  0
  6 16  2  0  0  0  0
  7  8  1  0  0  0  0
  7 44  1  0  0  0  0
  8  9  1  0  0  0  0
  8 15  2  0  0  0  0
  9 10  2  0  0  0  0
  9 45  1  0  0  0  0
 10 11  1  0  0  0  0
 10 46  1  0  0  0  0
 11 12  1  0  0  0  0
 11 13  2  0  0  0  0
 13 14  1  0  0  0  0
 13 15  1  0  0  0  0
 15 47  1  0  0  0  0
 16 17  1  0  0  0  0
 17 18  2  0  0  0  0
 17 48  1  0  0  0  0
 18 19  1  0  0  0  0
 19 20  2  0  0  0  0
 20 21  1  0  0  0  0
 20 49  1  0  0  0  0
 21 22  1  0  0  0  0
 22 23  1  0  0  0  0
 23 24  1  0  0  0  0
 23 50  1  0  0  0  0
 23 51  1  0  0  0  0
 24 25  1  0  0  0  0
 24 39  1  0  0  0  0
 24 52  1  0  0  0  0
 25 26  1  0  0  0  0
 25 53  1  0  0  0  0
 25 54  1  0  0  0  0
 26 27  1  0  0  0  0
 26 37  1  0  0  0  0
 27 28  2  0  0  0  0
 27 29  1  0  0  0  0
 29 30  1  0  0  0  0
 29 55  1  0  0  0  0
 29 56  1  0  0  0  0
 30 31  1  0  0  0  0
 30 36  2  0  0  0  0
 31 32  2  0  0  0  0
 31 57  1  0  0  0  0
 32 33  1  0  0  0  0
 32 58  1  0  0  0  0
 33 34  1  0  0  0  0
 33 35  2  0  0  0  0
 35 36  1  0  0  0  0
 35 59  1  0  0  0  0
 36 60  1  0  0  0  0
 37 38  1  0  0  0  0
 37 61  1  0  0  0  0
 37 62  1  0  0  0  0
 38 39  1  0  0  0  0
 38 63  1  0  0  0  0
 38 64  1  0  0  0  0
M  END
$$$$
