CHEMBL196610
 OpenBabel04072215363D

 48 51  0  0  0  0  0  0  0  0999 V2000
    2.3649    5.4048   -1.5870 C   0  0  0  0  0  0  0  0  0  0  0  0
    3.5383    4.6648   -1.2492 O   0  0  0  0  0  0  0  0  0  0  0  0
    3.9489    3.7931   -2.2050 C   0  0  0  0  0  0  0  0  0  0  0  0
    3.3987    3.5971   -3.2776 O   0  0  0  0  0  0  0  0  0  0  0  0
    5.1985    3.1076   -1.7751 C   0  0  0  0  0  0  0  0  0  0  0  0
    5.8034    2.2084   -2.6557 C   0  0  0  0  0  0  0  0  0  0  0  0
    7.0140    1.5856   -2.3122 C   0  0  0  0  0  0  0  0  0  0  0  0
    7.6245    1.8167   -1.0737 C   0  0  0  0  0  0  0  0  0  0  0  0
    8.9074    1.3388   -0.7346 N   0  0  0  0  0  0  0  0  0  0  0  0
    9.7114    0.3469   -1.3522 C   0  0  0  0  0  0  0  0  0  0  0  0
    9.1547   -0.5605   -2.1750 N   0  0  0  0  0  0  0  0  0  0  0  0
    9.9095   -1.5360   -2.7675 N   0  0  0  0  0  0  0  0  0  0  0  0
   11.2437   -1.6125   -2.5547 C   0  0  0  0  0  0  0  0  0  0  0  0
   11.8798   -2.7580   -3.2535 C   0  0  0  0  0  0  0  0  0  0  0  0
   11.4407   -3.1440   -4.5368 C   0  0  0  0  0  0  0  0  0  0  0  0
   11.9997   -4.2389   -5.2106 C   0  0  0  0  0  0  0  0  0  0  0  0
   13.0381   -4.9647   -4.6230 C   0  0  0  0  0  0  0  0  0  0  0  0
   13.6517   -6.1521   -5.2722 C   0  0  0  0  0  0  0  0  0  0  0  0
   13.5241   -6.2662   -6.6294 N   0  0  0  0  0  0  0  0  0  0  0  0
   14.2694   -6.9882   -4.6277 O   0  0  0  0  0  0  0  0  0  0  0  0
   13.4827   -4.6086   -3.3486 C   0  0  0  0  0  0  0  0  0  0  0  0
   12.8864   -3.5434   -2.6648 C   0  0  0  0  0  0  0  0  0  0  0  0
   11.8993   -0.6664   -1.7320 C   0  0  0  0  0  0  0  0  0  0  0  0
   13.3027   -0.6303   -1.5058 C   0  0  0  0  0  0  0  0  0  0  0  0
   13.9018    0.2923   -0.6500 C   0  0  0  0  0  0  0  0  0  0  0  0
   13.1250    1.2591   -0.0406 C   0  0  0  0  0  0  0  0  0  0  0  0
   11.7516    1.2898   -0.2819 C   0  0  0  0  0  0  0  0  0  0  0  0
   11.1058    0.3304   -1.1077 C   0  0  0  0  0  0  0  0  0  0  0  0
    7.0002    2.7206   -0.1982 C   0  0  0  0  0  0  0  0  0  0  0  0
    5.7998    3.3561   -0.5371 C   0  0  0  0  0  0  0  0  0  0  0  0
    2.1925    6.1377   -0.7934 H   0  0  0  0  0  0  0  0  0  0  0  0
    1.4984    4.7394   -1.6403 H   0  0  0  0  0  0  0  0  0  0  0  0
    2.5017    5.9445   -2.5291 H   0  0  0  0  0  0  0  0  0  0  0  0
    5.3613    2.0036   -3.6277 H   0  0  0  0  0  0  0  0  0  0  0  0
    7.4659    0.9251   -3.0455 H   0  0  0  0  0  0  0  0  0  0  0  0
    9.0629    1.3314    0.2673 H   0  0  0  0  0  0  0  0  0  0  0  0
   10.6255   -2.6016   -5.0170 H   0  0  0  0  0  0  0  0  0  0  0  0
   11.5824   -4.5253   -6.1706 H   0  0  0  0  0  0  0  0  0  0  0  0
   13.2295   -5.5064   -7.2219 H   0  0  0  0  0  0  0  0  0  0  0  0
   14.0127   -7.0411   -7.0599 H   0  0  0  0  0  0  0  0  0  0  0  0
   14.2826   -5.1710   -2.8700 H   0  0  0  0  0  0  0  0  0  0  0  0
   13.2171   -3.3541   -1.6457 H   0  0  0  0  0  0  0  0  0  0  0  0
   13.9711   -1.3220   -2.0113 H   0  0  0  0  0  0  0  0  0  0  0  0
   14.9753    0.2589   -0.4809 H   0  0  0  0  0  0  0  0  0  0  0  0
   13.5864    2.0025    0.6041 H   0  0  0  0  0  0  0  0  0  0  0  0
   11.1835    2.0974    0.1758 H   0  0  0  0  0  0  0  0  0  0  0  0
    7.4579    2.9635    0.7576 H   0  0  0  0  0  0  0  0  0  0  0  0
    5.3603    4.0578    0.1677 H   0  0  0  0  0  0  0  0  0  0  0  0
  1  2  1  0  0  0  0
  1 31  1  0  0  0  0
  1 32  1  0  0  0  0
  1 33  1  0  0  0  0
  2  3  1  0  0  0  0
  3  4  2  0  0  0  0
  3  5  1  0  0  0  0
  5  6  1  0  0  0  0
  5 30  2  0  0  0  0
  6  7  2  0  0  0  0
  6 34  1  0  0  0  0
  7  8  1  0  0  0  0
  7 35  1  0  0  0  0
  8  9  1  0  0  0  0
  8 29  2  0  0  0  0
  9 10  1  0  0  0  0
  9 36  1  0  0  0  0
 10 11  1  0  0  0  0
 10 28  2  0  0  0  0
 11 12  2  0  0  0  0
 12 13  1  0  0  0  0
 13 14  1  0  0  0  0
 13 23  2  0  0  0  0
 14 15  1  0  0  0  0
 14 22  2  0  0  0  0
 15 16  2  0  0  0  0
 15 37  1  0  0  0  0
 16 17  1  0  0  0  0
 16 38  1  0  0  0  0
 17 18  1  0  0  0  0
 17 21  2  0  0  0  0
 18 19  1  0  0  0  0
 18 20  2  0  0  0  0
 19 39  1  0  0  0  0
 19 40  1  0  0  0  0
 21 22  1  0  0  0  0
 21 41  1  0  0  0  0
 22 42  1  0  0  0  0
 23 24  1  0  0  0  0
 23 28  1  0  0  0  0
 24 25  2  0  0  0  0
 24 43  1  0  0  0  0
 25 26  1  0  0  0  0
 25 44  1  0  0  0  0
 26 27  2  0  0  0  0
 26 45  1  0  0  0  0
 27 28  1  0  0  0  0
 27 46  1  0  0  0  0
 29 30  1  0  0  0  0
 29 47  1  0  0  0  0
 30 48  1  0  0  0  0
M  END
$$$$
