CHEMBL202378
 OpenBabel04072215363D

 47 51  0  0  0  0  0  0  0  0999 V2000
    3.4642    1.1666    0.8015 C   0  0  0  0  0  0  0  0  0  0  0  0
    2.5424    0.3603    0.0666 O   0  0  0  0  0  0  0  0  0  0  0  0
    3.0810   -0.7416   -0.5460 C   0  0  0  0  0  0  0  0  0  0  0  0
    4.0939   -1.4828    0.0705 C   0  0  0  0  0  0  0  0  0  0  0  0
    4.7641   -2.5133   -0.6066 C   0  0  0  0  0  0  0  0  0  0  0  0
    5.8983   -3.0966   -0.0320 C   0  0  0  0  0  0  0  0  0  0  0  0
    6.6936   -4.1061   -0.6307 C   0  0  0  0  0  0  0  0  0  0  0  0
    6.2493   -4.5615   -1.8966 C   0  0  0  0  0  0  0  0  0  0  0  0
    6.9108   -5.5503   -2.6366 C   0  0  0  0  0  0  0  0  0  0  0  0
    8.0425   -6.3911   -2.5422 C   0  0  0  0  0  0  0  0  0  0  0  0
    8.3537   -7.2907   -3.5725 C   0  0  0  0  0  0  0  0  0  0  0  0
    7.5599   -7.3745   -4.7018 C   0  0  0  0  0  0  0  0  0  0  0  0
    6.4412   -6.5565   -4.8292 C   0  0  0  0  0  0  0  0  0  0  0  0
    6.1302   -5.6499   -3.7937 C   0  0  0  0  0  0  0  0  0  0  0  0
    5.0807   -4.7344   -3.6933 N   0  0  0  0  0  0  0  0  0  0  0  0
    4.1040   -4.6134   -4.7529 C   0  0  0  0  0  0  0  0  0  0  0  0
    5.1285   -4.0119   -2.4928 C   0  0  0  0  0  0  0  0  0  0  0  0
    4.3421   -2.9373   -1.8927 C   0  0  0  0  0  0  0  0  0  0  0  0
    3.2127   -2.2332   -2.4610 C   0  0  0  0  0  0  0  0  0  0  0  0
    2.8013   -2.7064   -3.6732 O   0  0  0  0  0  0  0  0  0  0  0  0
    1.6611   -2.2255   -4.3627 C   0  0  0  0  0  0  0  0  0  0  0  0
    2.6182   -1.1202   -1.8111 C   0  0  0  0  0  0  0  0  0  0  0  0
    1.7180   -0.3983   -2.5508 O   0  0  0  0  0  0  0  0  0  0  0  0
    0.6911    0.3392   -1.9106 C   0  0  0  0  0  0  0  0  0  0  0  0
    7.8007   -4.4118    0.2231 C   0  0  0  0  0  0  0  0  0  0  0  0
    8.7640   -5.1635    0.1636 O   0  0  0  0  0  0  0  0  0  0  0  0
    7.6076   -3.5874    1.2933 N   0  0  0  0  0  0  0  0  0  0  0  0
    6.5286   -2.7575    1.2303 C   0  0  0  0  0  0  0  0  0  0  0  0
    6.2752   -1.9427    2.1091 O   0  0  0  0  0  0  0  0  0  0  0  0
    3.1896    2.2141    0.6474 H   0  0  0  0  0  0  0  0  0  0  0  0
    4.5041    1.0537    0.4732 H   0  0  0  0  0  0  0  0  0  0  0  0
    3.3751    0.9392    1.8681 H   0  0  0  0  0  0  0  0  0  0  0  0
    4.3784   -1.2057    1.0810 H   0  0  0  0  0  0  0  0  0  0  0  0
    8.7036   -6.3738   -1.6855 H   0  0  0  0  0  0  0  0  0  0  0  0
    9.2278   -7.9306   -3.4821 H   0  0  0  0  0  0  0  0  0  0  0  0
    7.8026   -8.0754   -5.4950 H   0  0  0  0  0  0  0  0  0  0  0  0
    5.8354   -6.6379   -5.7253 H   0  0  0  0  0  0  0  0  0  0  0  0
    4.2865   -5.3218   -5.5583 H   0  0  0  0  0  0  0  0  0  0  0  0
    4.1935   -3.6164   -5.1888 H   0  0  0  0  0  0  0  0  0  0  0  0
    3.1210   -4.8549   -4.3438 H   0  0  0  0  0  0  0  0  0  0  0  0
    1.5121   -2.8776   -5.2299 H   0  0  0  0  0  0  0  0  0  0  0  0
    1.8401   -1.2215   -4.7570 H   0  0  0  0  0  0  0  0  0  0  0  0
    0.7546   -2.2917   -3.7544 H   0  0  0  0  0  0  0  0  0  0  0  0
   -0.0750    0.5369   -2.6689 H   0  0  0  0  0  0  0  0  0  0  0  0
    1.0616    1.3118   -1.5778 H   0  0  0  0  0  0  0  0  0  0  0  0
    0.2159   -0.2240   -1.1022 H   0  0  0  0  0  0  0  0  0  0  0  0
    8.2593   -3.5585    2.0602 H   0  0  0  0  0  0  0  0  0  0  0  0
  1  2  1  0  0  0  0
  1 30  1  0  0  0  0
  1 31  1  0  0  0  0
  1 32  1  0  0  0  0
  2  3  1  0  0  0  0
  3  4  1  0  0  0  0
  3 22  2  0  0  0  0
  4  5  2  0  0  0  0
  4 33  1  0  0  0  0
  5  6  1  0  0  0  0
  5 18  1  0  0  0  0
  6  7  2  0  0  0  0
  6 28  1  0  0  0  0
  7  8  1  0  0  0  0
  7 25  1  0  0  0  0
  8  9  1  0  0  0  0
  8 17  2  0  0  0  0
  9 10  1  0  0  0  0
  9 14  2  0  0  0  0
 10 11  2  0  0  0  0
 10 34  1  0  0  0  0
 11 12  1  0  0  0  0
 11 35  1  0  0  0  0
 12 13  2  0  0  0  0
 12 36  1  0  0  0  0
 13 14  1  0  0  0  0
 13 37  1  0  0  0  0
 14 15  1  0  0  0  0
 15 16  1  0  0  0  0
 15 17  1  0  0  0  0
 16 38  1  0  0  0  0
 16 39  1  0  0  0  0
 16 40  1  0  0  0  0
 17 18  1  0  0  0  0
 18 19  2  0  0  0  0
 19 20  1  0  0  0  0
 19 22  1  0  0  0  0
 20 21  1  0  0  0  0
 21 41  1  0  0  0  0
 21 42  1  0  0  0  0
 21 43  1  0  0  0  0
 22 23  1  0  0  0  0
 23 24  1  0  0  0  0
 24 44  1  0  0  0  0
 24 45  1  0  0  0  0
 24 46  1  0  0  0  0
 25 26  2  0  0  0  0
 25 27  1  0  0  0  0
 27 28  1  0  0  0  0
 27 47  1  0  0  0  0
 28 29  2  0  0  0  0
M  END
$$$$
