CHEMBL3976169
 OpenBabel04072215373D

 54 57  0  0  0  0  0  0  0  0999 V2000
    2.5197    0.2458    0.0424 C   0  0  0  0  0  0  0  0  0  0  0  0
    1.0220    0.1018    0.1084 C   0  0  0  0  0  0  0  0  0  0  0  0
    0.2839    1.3028    0.1821 C   0  0  0  0  0  0  0  0  0  0  0  0
   -1.1061    1.2972    0.2329 C   0  0  0  0  0  0  0  0  0  0  0  0
   -1.7968    0.0954    0.1464 C   0  0  0  0  0  0  0  0  0  0  0  0
   -3.1775    0.0139    0.1913 O   0  0  0  0  0  0  0  0  0  0  0  0
   -3.9142    0.9704   -0.5144 C   0  0  0  0  0  0  0  0  0  0  0  0
   -5.2116    1.2069   -0.0848 C   0  0  0  0  0  0  0  0  0  0  0  0
   -5.9093    2.1697   -0.7903 C   0  0  0  0  0  0  0  0  0  0  0  0
   -7.2509    2.4504   -0.4497 N   0  0  0  0  0  0  0  0  0  0  0  0
   -8.0280    3.3706   -1.1342 C   0  0  0  0  0  0  0  0  0  0  0  0
   -7.6706    4.0962   -2.0517 O   0  0  0  0  0  0  0  0  0  0  0  0
   -9.4570    3.5045   -0.7180 C   0  0  0  0  0  0  0  0  0  0  0  0
   -9.7934    4.0042    0.6662 C   0  0  0  0  0  0  0  0  0  0  0  0
  -10.2234    2.6316    0.2331 C   0  0  0  0  0  0  0  0  0  0  0  0
   -5.3460    2.8367   -1.8073 N   0  0  0  0  0  0  0  0  0  0  0  0
   -4.0969    2.5176   -2.1485 C   0  0  0  0  0  0  0  0  0  0  0  0
   -3.3480    1.5941   -1.5528 N   0  0  0  0  0  0  0  0  0  0  0  0
   -1.0769   -1.1075    0.1000 C   0  0  0  0  0  0  0  0  0  0  0  0
    0.3337   -1.1357    0.0761 C   0  0  0  0  0  0  0  0  0  0  0  0
    1.0612   -2.3703    0.0593 N   0  0  0  0  0  0  0  0  0  0  0  0
    0.5193   -3.6458   -0.0726 C   0  0  0  0  0  0  0  0  0  0  0  0
   -0.6511   -3.8949   -0.3435 O   0  0  0  0  0  0  0  0  0  0  0  0
    1.4471   -4.6506    0.2027 N   0  0  0  0  0  0  0  0  0  0  0  0
    1.0658   -6.0215    0.1861 C   0  0  0  0  0  0  0  0  0  0  0  0
    1.4505   -6.8396    1.2452 C   0  0  0  0  0  0  0  0  0  0  0  0
    1.0081   -8.1661    1.3018 C   0  0  0  0  0  0  0  0  0  0  0  0
    0.2268   -8.7122    0.2746 C   0  0  0  0  0  0  0  0  0  0  0  0
   -0.2614  -10.3555    0.4783 Cl  0  0  0  0  0  0  0  0  0  0  0  0
   -0.1208   -7.9324   -0.8317 C   0  0  0  0  0  0  0  0  0  0  0  0
   -0.9140   -8.4396   -2.0118 C   0  0  0  0  0  0  0  0  0  0  0  0
   -1.2251   -9.7638   -2.0081 F   0  0  0  0  0  0  0  0  0  0  0  0
   -2.1038   -7.7900   -2.1548 F   0  0  0  0  0  0  0  0  0  0  0  0
   -0.2472   -8.2407   -3.1873 F   0  0  0  0  0  0  0  0  0  0  0  0
    0.2958   -6.5748   -0.8486 C   0  0  0  0  0  0  0  0  0  0  0  0
    2.8234    1.2867    0.2194 H   0  0  0  0  0  0  0  0  0  0  0  0
    2.8871   -0.0312   -0.9500 H   0  0  0  0  0  0  0  0  0  0  0  0
    3.0100   -0.3560    0.8116 H   0  0  0  0  0  0  0  0  0  0  0  0
    0.7898    2.2663    0.1992 H   0  0  0  0  0  0  0  0  0  0  0  0
   -1.6372    2.2434    0.3032 H   0  0  0  0  0  0  0  0  0  0  0  0
   -5.6336    0.6628    0.7469 H   0  0  0  0  0  0  0  0  0  0  0  0
   -7.6619    1.9386    0.3117 H   0  0  0  0  0  0  0  0  0  0  0  0
  -10.0568    3.9221   -1.5289 H   0  0  0  0  0  0  0  0  0  0  0  0
  -10.5416    4.7864    0.7372 H   0  0  0  0  0  0  0  0  0  0  0  0
   -8.9976    4.0882    1.3961 H   0  0  0  0  0  0  0  0  0  0  0  0
  -11.2804    2.4801    0.0237 H   0  0  0  0  0  0  0  0  0  0  0  0
   -9.7544    1.7751    0.6929 H   0  0  0  0  0  0  0  0  0  0  0  0
   -3.6610    3.0667   -2.9748 H   0  0  0  0  0  0  0  0  0  0  0  0
   -1.6618   -2.0194    0.0780 H   0  0  0  0  0  0  0  0  0  0  0  0
    2.0674   -2.3048    0.0198 H   0  0  0  0  0  0  0  0  0  0  0  0
    2.1418   -4.3940    0.8902 H   0  0  0  0  0  0  0  0  0  0  0  0
    2.0348   -6.4490    2.0729 H   0  0  0  0  0  0  0  0  0  0  0  0
    1.2634   -8.7727    2.1689 H   0  0  0  0  0  0  0  0  0  0  0  0
    0.0080   -5.9516   -1.6966 H   0  0  0  0  0  0  0  0  0  0  0  0
  1  2  1  0  0  0  0
  1 36  1  0  0  0  0
  1 37  1  0  0  0  0
  1 38  1  0  0  0  0
  2  3  1  0  0  0  0
  2 20  2  0  0  0  0
  3  4  2  0  0  0  0
  3 39  1  0  0  0  0
  4  5  1  0  0  0  0
  4 40  1  0  0  0  0
  5  6  1  0  0  0  0
  5 19  2  0  0  0  0
  6  7  1  0  0  0  0
  7  8  1  0  0  0  0
  7 18  2  0  0  0  0
  8  9  2  0  0  0  0
  8 41  1  0  0  0  0
  9 10  1  0  0  0  0
  9 16  1  0  0  0  0
 10 11  1  0  0  0  0
 10 42  1  0  0  0  0
 11 12  2  0  0  0  0
 11 13  1  0  0  0  0
 13 14  1  0  0  0  0
 13 15  1  0  0  0  0
 13 43  1  0  0  0  0
 14 15  1  0  0  0  0
 14 44  1  0  0  0  0
 14 45  1  0  0  0  0
 15 46  1  0  0  0  0
 15 47  1  0  0  0  0
 16 17  2  0  0  0  0
 17 18  1  0  0  0  0
 17 48  1  0  0  0  0
 19 20  1  0  0  0  0
 19 49  1  0  0  0  0
 20 21  1  0  0  0  0
 21 22  1  0  0  0  0
 21 50  1  0  0  0  0
 22 23  2  0  0  0  0
 22 24  1  0  0  0  0
 24 25  1  0  0  0  0
 24 51  1  0  0  0  0
 25 26  1  0  0  0  0
 25 35  2  0  0  0  0
 26 27  2  0  0  0  0
 26 52  1  0  0  0  0
 27 28  1  0  0  0  0
 27 53  1  0  0  0  0
 28 29  1  0  0  0  0
 28 30  2  0  0  0  0
 30 31  1  0  0  0  0
 30 35  1  0  0  0  0
 31 32  1  0  0  0  0
 31 33  1  0  0  0  0
 31 34  1  0  0  0  0
 35 54  1  0  0  0  0
M  END
$$$$
