CHEMBL151219
 OpenBabel04072215363D

 45 50  0  0  0  0  0  0  0  0999 V2000
    1.0914   -0.2913    0.1316 O   0  0  0  0  0  0  0  0  0  0  0  0
    2.2974   -0.1666    0.3070 C   0  0  0  0  0  0  0  0  0  0  0  0
    3.1536   -1.2604    0.3490 N   0  0  0  0  0  0  0  0  0  0  0  0
    4.5589   -0.9637    0.5237 C   0  0  0  0  0  0  0  0  0  0  0  0
    4.4936    0.4959    0.5304 C   0  0  0  0  0  0  0  0  0  0  0  0
    3.1700    0.9669    0.4363 C   0  0  0  0  0  0  0  0  0  0  0  0
    2.8872    2.3115    0.3217 C   0  0  0  0  0  0  0  0  0  0  0  0
    3.9186    3.1819   -0.0704 C   0  0  0  0  0  0  0  0  0  0  0  0
    5.1980    2.8038    0.2599 C   0  0  0  0  0  0  0  0  0  0  0  0
    5.5011    1.4966    0.5444 C   0  0  0  0  0  0  0  0  0  0  0  0
    6.8208    1.2307    0.8531 C   0  0  0  0  0  0  0  0  0  0  0  0
    7.6009    0.1084    1.1952 C   0  0  0  0  0  0  0  0  0  0  0  0
    8.9389    0.2815    1.5375 C   0  0  0  0  0  0  0  0  0  0  0  0
    9.4937    1.5508    1.5698 C   0  0  0  0  0  0  0  0  0  0  0  0
    8.7445    2.6828    1.2173 C   0  0  0  0  0  0  0  0  0  0  0  0
    7.3963    2.5112    0.8456 C   0  0  0  0  0  0  0  0  0  0  0  0
    6.4010    3.4540    0.4807 N   0  0  0  0  0  0  0  0  0  0  0  0
    6.6028    4.8954    0.5789 C   0  0  0  0  0  0  0  0  0  0  0  0
    6.1324    5.5039    1.9053 C   0  0  0  0  0  0  0  0  0  0  0  0
    6.8629    5.0170    3.0274 O   0  0  0  0  0  0  0  0  0  0  0  0
    3.3380    4.2194   -0.9967 C   0  0  0  0  0  0  0  0  0  0  0  0
    1.8339    3.9988   -0.8251 C   0  0  0  0  0  0  0  0  0  0  0  0
    0.7341    4.6400   -1.3694 C   0  0  0  0  0  0  0  0  0  0  0  0
   -0.5418    4.3091   -0.8783 C   0  0  0  0  0  0  0  0  0  0  0  0
   -0.7039    3.3696    0.1527 C   0  0  0  0  0  0  0  0  0  0  0  0
    0.3960    2.6630    0.6222 C   0  0  0  0  0  0  0  0  0  0  0  0
    1.6351    2.9344    0.0667 C   0  0  0  0  0  0  0  0  0  0  0  0
    2.7855   -2.1756    0.1402 H   0  0  0  0  0  0  0  0  0  0  0  0
    5.1242   -1.3492   -0.3272 H   0  0  0  0  0  0  0  0  0  0  0  0
    4.8914   -1.3795    1.4736 H   0  0  0  0  0  0  0  0  0  0  0  0
    7.1788   -0.8891    1.2131 H   0  0  0  0  0  0  0  0  0  0  0  0
    9.5290   -0.5832    1.8347 H   0  0  0  0  0  0  0  0  0  0  0  0
   10.5317    1.6695    1.8758 H   0  0  0  0  0  0  0  0  0  0  0  0
    9.2078    3.6633    1.2612 H   0  0  0  0  0  0  0  0  0  0  0  0
    6.0815    5.3611   -0.2625 H   0  0  0  0  0  0  0  0  0  0  0  0
    7.6722    5.0922    0.4447 H   0  0  0  0  0  0  0  0  0  0  0  0
    5.0657    5.3370    2.0819 H   0  0  0  0  0  0  0  0  0  0  0  0
    6.2987    6.5868    1.8792 H   0  0  0  0  0  0  0  0  0  0  0  0
    6.4737    4.1571    3.2750 H   0  0  0  0  0  0  0  0  0  0  0  0
    3.6140    3.9535   -2.0319 H   0  0  0  0  0  0  0  0  0  0  0  0
    3.6420    5.2410   -0.7602 H   0  0  0  0  0  0  0  0  0  0  0  0
    0.8343    5.3760   -2.1591 H   0  0  0  0  0  0  0  0  0  0  0  0
   -1.4271    4.7940   -1.2815 H   0  0  0  0  0  0  0  0  0  0  0  0
   -1.6849    3.1694    0.5743 H   0  0  0  0  0  0  0  0  0  0  0  0
    0.2860    1.9213    1.4089 H   0  0  0  0  0  0  0  0  0  0  0  0
  1  2  2  0  0  0  0
  2  3  1  0  0  0  0
  2  6  1  0  0  0  0
  3  4  1  0  0  0  0
  3 28  1  0  0  0  0
  4  5  1  0  0  0  0
  4 29  1  0  0  0  0
  4 30  1  0  0  0  0
  5  6  1  0  0  0  0
  5 10  2  0  0  0  0
  6  7  2  0  0  0  0
  7  8  1  0  0  0  0
  7 27  1  0  0  0  0
  8  9  2  0  0  0  0
  8 21  1  0  0  0  0
  9 10  1  0  0  0  0
  9 17  1  0  0  0  0
 10 11  1  0  0  0  0
 11 12  1  0  0  0  0
 11 16  2  0  0  0  0
 12 13  2  0  0  0  0
 12 31  1  0  0  0  0
 13 14  1  0  0  0  0
 13 32  1  0  0  0  0
 14 15  2  0  0  0  0
 14 33  1  0  0  0  0
 15 16  1  0  0  0  0
 15 34  1  0  0  0  0
 16 17  1  0  0  0  0
 17 18  1  0  0  0  0
 18 19  1  0  0  0  0
 18 35  1  0  0  0  0
 18 36  1  0  0  0  0
 19 20  1  0  0  0  0
 19 37  1  0  0  0  0
 19 38  1  0  0  0  0
 20 39  1  0  0  0  0
 21 22  1  0  0  0  0
 21 40  1  0  0  0  0
 21 41  1  0  0  0  0
 22 23  1  0  0  0  0
 22 27  2  0  0  0  0
 23 24  2  0  0  0  0
 23 42  1  0  0  0  0
 24 25  1  0  0  0  0
 24 43  1  0  0  0  0
 25 26  2  0  0  0  0
 25 44  1  0  0  0  0
 26 27  1  0  0  0  0
 26 45  1  0  0  0  0
M  END
$$$$
