CHEMBL3891966
 OpenBabel04072215373D

 64 67  0  0  1  0  0  0  0  0999 V2000
    0.9735   -4.4819    1.5307 C   0  0  0  0  0  0  0  0  0  0  0  0
    2.3375   -4.3378    1.8957 O   0  0  0  0  0  0  0  0  0  0  0  0
    2.9925   -3.2780    1.3496 C   0  0  0  0  0  0  0  0  0  0  0  0
    2.5374   -2.4499    0.3503 C   0  0  0  0  0  0  0  0  0  0  0  0
    3.3395   -1.3911   -0.0772 C   0  0  0  0  0  0  0  0  0  0  0  0
    2.8856   -0.4068   -0.9142 O   0  0  0  0  0  0  0  0  0  0  0  0
    1.8051   -0.7988   -1.7514 C   0  0  0  0  0  0  0  0  0  0  0  0
    4.6390   -1.1918    0.4352 C   0  0  0  0  0  0  0  0  0  0  0  0
    5.1649   -2.0547    1.3826 C   0  0  0  0  0  0  0  0  0  0  0  0
    6.4389   -1.8383    1.9746 N   0  0  0  0  0  0  0  0  0  0  0  0
    6.9289   -0.3963    2.1319 C   0  0  0  0  0  0  0  0  0  0  0  0
    6.0207    0.5154    2.9727 C   0  0  1  0  0  0  0  0  0  0  0  0
    5.8364    0.0574    4.3160 O   0  0  0  0  0  0  0  0  0  0  0  0
    6.5391    1.9220    3.1647 C   0  0  0  0  0  0  0  0  0  0  0  0
    6.7218    2.5556    1.8846 N   0  0  0  0  0  0  0  0  0  0  0  0
    7.2076    3.9185    2.0951 C   0  0  0  0  0  0  0  0  0  0  0  0
    7.4292    4.6604    0.7847 C   0  0  0  0  0  0  0  0  0  0  0  0
    7.1136    3.8848   -0.2800 F   0  0  0  0  0  0  0  0  0  0  0  0
    6.6513    5.7617    0.7322 F   0  0  0  0  0  0  0  0  0  0  0  0
    8.7175    5.0373    0.6618 F   0  0  0  0  0  0  0  0  0  0  0  0
    7.5338   -2.7654    2.1557 C   0  0  0  0  0  0  0  0  0  0  0  0
    8.2820   -2.5750    3.2950 C   0  0  0  0  0  0  0  0  0  0  0  0
    9.3216   -3.3638    3.4746 C   0  0  0  0  0  0  0  0  0  0  0  0
    9.7288   -4.1992    2.5445 C   0  0  0  0  0  0  0  0  0  0  0  0
   10.9913   -3.9660    2.6901 N   0  0  0  0  0  0  0  0  0  0  0  0
   11.5916   -4.7608    3.5458 C   0  0  0  0  0  0  0  0  0  0  0  0
   12.0070   -5.8288    2.9566 C   0  0  0  0  0  0  0  0  0  0  0  0
   13.6314   -5.9037    3.8053 C   0  0  0  0  0  0  0  0  0  0  0  0
   14.1635   -5.2865    5.2417 C   0  0  0  0  0  0  0  0  0  0  0  0
   15.4453   -5.5598    5.6163 N   0  0  0  0  0  0  0  0  0  0  0  0
   15.9296   -6.3217    4.6183 N   0  0  0  0  0  0  0  0  0  0  0  0
   17.2986   -6.9434    4.7456 C   0  0  0  0  0  0  0  0  0  0  0  0
   14.9053   -6.4537    3.5630 C   0  0  0  0  0  0  0  0  0  0  0  0
   10.9481   -5.9258    1.6555 N   0  0  0  0  0  0  0  0  0  0  0  0
    9.4854   -4.9009    1.4869 C   0  0  0  0  0  0  0  0  0  0  0  0
    8.0530   -3.8984    1.2472 C   0  0  0  0  0  0  0  0  0  0  0  0
    4.3162   -3.1503    1.7028 C   0  0  0  0  0  0  0  0  0  0  0  0
    0.5352   -5.2628    2.1564 H   0  0  0  0  0  0  0  0  0  0  0  0
    0.9074   -4.7974    0.4862 H   0  0  0  0  0  0  0  0  0  0  0  0
    0.4069   -3.5594    1.7019 H   0  0  0  0  0  0  0  0  0  0  0  0
    1.5294   -2.5903   -0.0200 H   0  0  0  0  0  0  0  0  0  0  0  0
    1.5419    0.0556   -2.3747 H   0  0  0  0  0  0  0  0  0  0  0  0
    0.9137   -1.0719   -1.1775 H   0  0  0  0  0  0  0  0  0  0  0  0
    2.1172   -1.6212   -2.4006 H   0  0  0  0  0  0  0  0  0  0  0  0
    5.2508   -0.3886    0.0414 H   0  0  0  0  0  0  0  0  0  0  0  0
    7.1136    0.0654    1.1551 H   0  0  0  0  0  0  0  0  0  0  0  0
    7.8865   -0.3968    2.6546 H   0  0  0  0  0  0  0  0  0  0  0  0
    5.0953    0.6685    2.4063 H   0  0  0  0  0  0  0  0  0  0  0  0
    6.6687   -0.3275    4.6493 H   0  0  0  0  0  0  0  0  0  0  0  0
    7.4766    1.8876    3.7380 H   0  0  0  0  0  0  0  0  0  0  0  0
    5.7652    2.4466    3.7484 H   0  0  0  0  0  0  0  0  0  0  0  0
    5.8436    2.5735    1.3563 H   0  0  0  0  0  0  0  0  0  0  0  0
    8.1549    3.8706    2.6453 H   0  0  0  0  0  0  0  0  0  0  0  0
    6.4870    4.4690    2.7118 H   0  0  0  0  0  0  0  0  0  0  0  0
    8.1960   -1.7881    4.0275 H   0  0  0  0  0  0  0  0  0  0  0  0
   10.0182   -3.1590    4.3074 H   0  0  0  0  0  0  0  0  0  0  0  0
   11.9697   -4.3018    4.4031 H   0  0  0  0  0  0  0  0  0  0  0  0
   13.6999   -4.6737    6.0372 H   0  0  0  0  0  0  0  0  0  0  0  0
   17.8693   -6.6373    5.6544 H   0  0  0  0  0  0  0  0  0  0  0  0
   17.9482   -6.7007    3.8910 H   0  0  0  0  0  0  0  0  0  0  0  0
   17.2107   -8.0374    4.8114 H   0  0  0  0  0  0  0  0  0  0  0  0
   15.2871   -6.9842    2.7454 H   0  0  0  0  0  0  0  0  0  0  0  0
    7.5035   -3.7492    0.2641 H   0  0  0  0  0  0  0  0  0  0  0  0
    4.6014   -3.9984    2.3085 H   0  0  0  0  0  0  0  0  0  0  0  0
  1  2  1  0  0  0  0
  1 38  1  0  0  0  0
  1 39  1  0  0  0  0
  1 40  1  0  0  0  0
  2  3  1  0  0  0  0
  3  4  1  0  0  0  0
  3 37  2  0  0  0  0
  4  5  2  0  0  0  0
  4 41  1  0  0  0  0
  5  6  1  0  0  0  0
  5  8  1  0  0  0  0
  6  7  1  0  0  0  0
  7 42  1  0  0  0  0
  7 43  1  0  0  0  0
  7 44  1  0  0  0  0
  8  9  2  0  0  0  0
  8 45  1  0  0  0  0
  9 10  1  0  0  0  0
  9 37  1  0  0  0  0
 10 11  1  0  0  0  0
 10 21  1  0  0  0  0
 11 12  1  0  0  0  0
 11 46  1  0  0  0  0
 11 47  1  0  0  0  0
 12 13  1  0  0  0  0
 12 14  1  0  0  0  0
 12 48  1  6  0  0  0
 13 49  1  0  0  0  0
 14 15  1  0  0  0  0
 14 50  1  0  0  0  0
 14 51  1  0  0  0  0
 15 16  1  0  0  0  0
 15 52  1  0  0  0  0
 16 17  1  0  0  0  0
 16 53  1  0  0  0  0
 16 54  1  0  0  0  0
 17 18  1  0  0  0  0
 17 19  1  0  0  0  0
 17 20  1  0  0  0  0
 21 22  1  0  0  0  0
 21 36  2  0  0  0  0
 22 23  2  0  0  0  0
 22 55  1  0  0  0  0
 23 24  1  0  0  0  0
 23 56  1  0  0  0  0
 24 25  1  0  0  0  0
 24 35  2  0  0  0  0
 25 26  2  0  0  0  0
 26 27  1  0  0  0  0
 26 57  1  0  0  0  0
 27 28  1  0  0  0  0
 27 34  2  0  0  0  0
 28 29  1  0  0  0  0
 28 33  2  0  0  0  0
 29 30  2  0  0  0  0
 29 58  1  0  0  0  0
 30 31  1  0  0  0  0
 31 32  1  0  0  0  0
 31 33  1  0  0  0  0
 32 59  1  0  0  0  0
 32 60  1  0  0  0  0
 32 61  1  0  0  0  0
 33 62  1  0  0  0  0
 34 35  1  0  0  0  0
 35 36  1  0  0  0  0
 36 63  1  0  0  0  0
 37 64  1  0  0  0  0
M  END
$$$$
