CHEMBL406914
 OpenBabel04072215383D

 58 61  0  0  0  0  0  0  0  0999 V2000
    5.0365   -1.9750    0.0943 C   0  0  0  0  0  0  0  0  0  0  0  0
    3.9213   -1.1866    0.5126 O   0  0  0  0  0  0  0  0  0  0  0  0
    4.2204   -0.0546    1.2210 C   0  0  0  0  0  0  0  0  0  0  0  0
    5.4491    0.6127    1.0816 C   0  0  0  0  0  0  0  0  0  0  0  0
    5.8308    1.6593    1.9105 C   0  0  0  0  0  0  0  0  0  0  0  0
    7.0823    2.1340    1.7853 N   0  0  0  0  0  0  0  0  0  0  0  0
    7.5082    3.0623    2.6634 C   0  0  0  0  0  0  0  0  0  0  0  0
    6.7448    3.5253    3.7121 C   0  0  0  0  0  0  0  0  0  0  0  0
    5.4477    3.0350    3.8486 C   0  0  0  0  0  0  0  0  0  0  0  0
    4.8102    3.5163    4.9835 O   0  0  0  0  0  0  0  0  0  0  0  0
    3.8769    2.7554    5.6489 C   0  0  0  0  0  0  0  0  0  0  0  0
    3.9219    1.3726    5.7628 C   0  0  0  0  0  0  0  0  0  0  0  0
    2.7669    0.6802    6.1443 C   0  0  0  0  0  0  0  0  0  0  0  0
    1.5916    1.3451    6.5845 C   0  0  0  0  0  0  0  0  0  0  0  0
    0.3510    0.7252    6.9287 C   0  0  0  0  0  0  0  0  0  0  0  0
    0.0378   -0.7260    6.7510 C   0  0  0  0  0  0  0  0  0  0  0  0
   -1.0837   -1.0435    6.3691 O   0  0  0  0  0  0  0  0  0  0  0  0
    1.0180   -1.6402    7.0777 N   0  0  0  0  0  0  0  0  0  0  0  0
    0.8341   -3.0999    7.0026 C   0  0  0  0  0  0  0  0  0  0  0  0
    0.3726   -3.5487    5.6027 C   0  0  0  0  0  0  0  0  0  0  0  0
    2.1908   -3.7730    7.2783 C   0  0  0  0  0  0  0  0  0  0  0  0
   -0.1714   -3.5599    8.0671 C   0  0  0  0  0  0  0  0  0  0  0  0
   -0.7376    1.5036    7.3665 C   0  0  0  0  0  0  0  0  0  0  0  0
   -0.6315    2.8840    7.4707 C   0  0  0  0  0  0  0  0  0  0  0  0
    0.5531    3.5081    7.0989 C   0  0  0  0  0  0  0  0  0  0  0  0
    1.6519    2.7644    6.6408 C   0  0  0  0  0  0  0  0  0  0  0  0
    2.7830    3.4474    6.1648 C   0  0  0  0  0  0  0  0  0  0  0  0
    4.9293    2.1276    2.8832 C   0  0  0  0  0  0  0  0  0  0  0  0
    3.6086    1.6225    2.8243 C   0  0  0  0  0  0  0  0  0  0  0  0
    3.2725    0.4804    2.0924 C   0  0  0  0  0  0  0  0  0  0  0  0
    2.0190    0.0330    2.4011 O   0  0  0  0  0  0  0  0  0  0  0  0
    1.6457   -1.2958    2.0746 C   0  0  0  0  0  0  0  0  0  0  0  0
    4.7213   -3.0220    0.0700 H   0  0  0  0  0  0  0  0  0  0  0  0
    5.8917   -1.9179    0.7790 H   0  0  0  0  0  0  0  0  0  0  0  0
    5.3344   -1.6804   -0.9165 H   0  0  0  0  0  0  0  0  0  0  0  0
    6.1650    0.3004    0.3247 H   0  0  0  0  0  0  0  0  0  0  0  0
    8.5253    3.4131    2.5107 H   0  0  0  0  0  0  0  0  0  0  0  0
    7.1541    4.2378    4.4202 H   0  0  0  0  0  0  0  0  0  0  0  0
    4.7843    0.8091    5.4164 H   0  0  0  0  0  0  0  0  0  0  0  0
    2.7925   -0.3973    6.0138 H   0  0  0  0  0  0  0  0  0  0  0  0
    1.7861   -1.3001    7.6420 H   0  0  0  0  0  0  0  0  0  0  0  0
    1.0825   -3.2259    4.8323 H   0  0  0  0  0  0  0  0  0  0  0  0
   -0.6069   -3.1446    5.3321 H   0  0  0  0  0  0  0  0  0  0  0  0
    0.2900   -4.6403    5.5469 H   0  0  0  0  0  0  0  0  0  0  0  0
    2.9373   -3.4770    6.5314 H   0  0  0  0  0  0  0  0  0  0  0  0
    2.1058   -4.8657    7.2516 H   0  0  0  0  0  0  0  0  0  0  0  0
    2.5836   -3.4905    8.2616 H   0  0  0  0  0  0  0  0  0  0  0  0
   -1.1628   -3.1241    7.9064 H   0  0  0  0  0  0  0  0  0  0  0  0
    0.1568   -3.2588    9.0687 H   0  0  0  0  0  0  0  0  0  0  0  0
   -0.2850   -4.6494    8.0623 H   0  0  0  0  0  0  0  0  0  0  0  0
   -1.6871    1.0272    7.6088 H   0  0  0  0  0  0  0  0  0  0  0  0
   -1.4813    3.4740    7.8047 H   0  0  0  0  0  0  0  0  0  0  0  0
    0.6026    4.5948    7.1443 H   0  0  0  0  0  0  0  0  0  0  0  0
    2.7890    4.5352    6.1232 H   0  0  0  0  0  0  0  0  0  0  0  0
    2.8284    2.0568    3.4455 H   0  0  0  0  0  0  0  0  0  0  0  0
    0.8069   -1.5672    2.7262 H   0  0  0  0  0  0  0  0  0  0  0  0
    2.4387   -2.0255    2.2645 H   0  0  0  0  0  0  0  0  0  0  0  0
    1.2916   -1.3382    1.0413 H   0  0  0  0  0  0  0  0  0  0  0  0
  1  2  1  0  0  0  0
  1 33  1  0  0  0  0
  1 34  1  0  0  0  0
  1 35  1  0  0  0  0
  2  3  1  0  0  0  0
  3  4  1  0  0  0  0
  3 30  2  0  0  0  0
  4  5  2  0  0  0  0
  4 36  1  0  0  0  0
  5  6  1  0  0  0  0
  5 28  1  0  0  0  0
  6  7  2  0  0  0  0
  7  8  1  0  0  0  0
  7 37  1  0  0  0  0
  8  9  2  0  0  0  0
  8 38  1  0  0  0  0
  9 10  1  0  0  0  0
  9 28  1  0  0  0  0
 10 11  1  0  0  0  0
 11 12  1  0  0  0  0
 11 27  2  0  0  0  0
 12 13  2  0  0  0  0
 12 39  1  0  0  0  0
 13 14  1  0  0  0  0
 13 40  1  0  0  0  0
 14 15  1  0  0  0  0
 14 26  2  0  0  0  0
 15 16  1  0  0  0  0
 15 23  2  0  0  0  0
 16 17  2  0  0  0  0
 16 18  1  0  0  0  0
 18 19  1  0  0  0  0
 18 41  1  0  0  0  0
 19 20  1  0  0  0  0
 19 21  1  0  0  0  0
 19 22  1  0  0  0  0
 20 42  1  0  0  0  0
 20 43  1  0  0  0  0
 20 44  1  0  0  0  0
 21 45  1  0  0  0  0
 21 46  1  0  0  0  0
 21 47  1  0  0  0  0
 22 48  1  0  0  0  0
 22 49  1  0  0  0  0
 22 50  1  0  0  0  0
 23 24  1  0  0  0  0
 23 51  1  0  0  0  0
 24 25  2  0  0  0  0
 24 52  1  0  0  0  0
 25 26  1  0  0  0  0
 25 53  1  0  0  0  0
 26 27  1  0  0  0  0
 27 54  1  0  0  0  0
 28 29  2  0  0  0  0
 29 30  1  0  0  0  0
 29 55  1  0  0  0  0
 30 31  1  0  0  0  0
 31 32  1  0  0  0  0
 32 56  1  0  0  0  0
 32 57  1  0  0  0  0
 32 58  1  0  0  0  0
M  END
$$$$
