CHEMBL3898346
 OpenBabel04072215373D

 57 60  0  0  1  0  0  0  0  0999 V2000
    1.6999   -2.1817   -4.5597 C   0  0  0  0  0  0  0  0  0  0  0  0
    2.2894   -2.9124   -3.4830 O   0  0  0  0  0  0  0  0  0  0  0  0
    3.1528   -2.1967   -2.6903 C   0  0  0  0  0  0  0  0  0  0  0  0
    3.0092   -0.8346   -2.4266 C   0  0  0  0  0  0  0  0  0  0  0  0
    3.9014   -0.2052   -1.5646 C   0  0  0  0  0  0  0  0  0  0  0  0
    3.8548    1.1181   -1.2132 O   0  0  0  0  0  0  0  0  0  0  0  0
    2.5719    1.7329   -1.2719 C   0  0  0  0  0  0  0  0  0  0  0  0
    4.9635   -0.9283   -1.0074 C   0  0  0  0  0  0  0  0  0  0  0  0
    5.1467   -2.2976   -1.2546 C   0  0  0  0  0  0  0  0  0  0  0  0
    6.1601   -3.0628   -0.6277 N   0  0  0  0  0  0  0  0  0  0  0  0
    6.6342   -2.5915    0.7347 C   0  0  0  0  0  0  0  0  0  0  0  0
    5.5717   -2.5279    1.8716 C   0  0  1  0  0  0  0  0  0  0  0  0
    5.0558   -3.8936    2.3368 C   0  0  0  0  0  0  0  0  0  0  0  0
    6.1661   -1.8595    3.0557 N   0  0  0  0  0  0  0  0  0  0  0  0
    7.2693   -3.7382   -1.2668 C   0  0  0  0  0  0  0  0  0  0  0  0
    7.6688   -4.9004   -0.6029 C   0  0  0  0  0  0  0  0  0  0  0  0
    8.9716   -5.3379   -0.7163 C   0  0  0  0  0  0  0  0  0  0  0  0
    9.8575   -4.7480   -1.5692 C   0  0  0  0  0  0  0  0  0  0  0  0
   11.1081   -5.1775   -1.4039 N   0  0  0  0  0  0  0  0  0  0  0  0
   12.0163   -4.7695   -2.2963 C   0  0  0  0  0  0  0  0  0  0  0  0
   11.6655   -4.0136   -3.3905 C   0  0  0  0  0  0  0  0  0  0  0  0
   12.6802   -3.9575   -4.4508 C   0  0  0  0  0  0  0  0  0  0  0  0
   12.8449   -4.7885   -5.5949 C   0  0  0  0  0  0  0  0  0  0  0  0
   14.0319   -4.6227   -6.1953 N   0  0  0  0  0  0  0  0  0  0  0  0
   14.6376   -3.6987   -5.4309 N   0  0  0  0  0  0  0  0  0  0  0  0
   15.8080   -2.9984   -5.9047 C   0  0  0  0  0  0  0  0  0  0  0  0
   13.9471   -3.4217   -4.2834 C   0  0  0  0  0  0  0  0  0  0  0  0
   10.4107   -3.4635   -3.5086 N   0  0  0  0  0  0  0  0  0  0  0  0
    9.4528   -3.7846   -2.5263 C   0  0  0  0  0  0  0  0  0  0  0  0
    8.1164   -3.2543   -2.2997 C   0  0  0  0  0  0  0  0  0  0  0  0
    4.1970   -2.9223   -2.0864 C   0  0  0  0  0  0  0  0  0  0  0  0
    1.1681   -2.8910   -5.2017 H   0  0  0  0  0  0  0  0  0  0  0  0
    2.4681   -1.6905   -5.1672 H   0  0  0  0  0  0  0  0  0  0  0  0
    0.9614   -1.4551   -4.2035 H   0  0  0  0  0  0  0  0  0  0  0  0
    2.2060   -0.2703   -2.8808 H   0  0  0  0  0  0  0  0  0  0  0  0
    2.6551    2.7209   -0.8090 H   0  0  0  0  0  0  0  0  0  0  0  0
    1.8294    1.1594   -0.7060 H   0  0  0  0  0  0  0  0  0  0  0  0
    2.2500    1.8801   -2.3074 H   0  0  0  0  0  0  0  0  0  0  0  0
    5.6384   -0.3881   -0.3508 H   0  0  0  0  0  0  0  0  0  0  0  0
    7.1243   -1.6174    0.6165 H   0  0  0  0  0  0  0  0  0  0  0  0
    7.4260   -3.2469    1.1268 H   0  0  0  0  0  0  0  0  0  0  0  0
    4.7172   -1.9261    1.5541 H   0  0  0  0  0  0  0  0  0  0  0  0
    5.8332   -4.4774    2.8456 H   0  0  0  0  0  0  0  0  0  0  0  0
    4.6720   -4.4865    1.5063 H   0  0  0  0  0  0  0  0  0  0  0  0
    4.2375   -3.7621    3.0585 H   0  0  0  0  0  0  0  0  0  0  0  0
    6.8055   -2.5022    3.5300 H   0  0  0  0  0  0  0  0  0  0  0  0
    5.4287   -1.6640    3.7365 H   0  0  0  0  0  0  0  0  0  0  0  0
    7.0179   -5.3761    0.1194 H   0  0  0  0  0  0  0  0  0  0  0  0
    9.3219   -6.1375   -0.0580 H   0  0  0  0  0  0  0  0  0  0  0  0
   13.0240   -5.1273   -2.1273 H   0  0  0  0  0  0  0  0  0  0  0  0
   12.1737   -5.5389   -5.9958 H   0  0  0  0  0  0  0  0  0  0  0  0
   16.0737   -3.3469   -6.9063 H   0  0  0  0  0  0  0  0  0  0  0  0
   16.6366   -3.1580   -5.2110 H   0  0  0  0  0  0  0  0  0  0  0  0
   15.5477   -1.9367   -5.9465 H   0  0  0  0  0  0  0  0  0  0  0  0
   14.3985   -2.8528   -3.4836 H   0  0  0  0  0  0  0  0  0  0  0  0
    7.7935   -2.4057   -2.9111 H   0  0  0  0  0  0  0  0  0  0  0  0
    4.2430   -3.9977   -2.2449 H   0  0  0  0  0  0  0  0  0  0  0  0
  1  2  1  0  0  0  0
  1 32  1  0  0  0  0
  1 33  1  0  0  0  0
  1 34  1  0  0  0  0
  2  3  1  0  0  0  0
  3  4  1  0  0  0  0
  3 31  2  0  0  0  0
  4  5  2  0  0  0  0
  4 35  1  0  0  0  0
  5  6  1  0  0  0  0
  5  8  1  0  0  0  0
  6  7  1  0  0  0  0
  7 36  1  0  0  0  0
  7 37  1  0  0  0  0
  7 38  1  0  0  0  0
  8  9  2  0  0  0  0
  8 39  1  0  0  0  0
  9 10  1  0  0  0  0
  9 31  1  0  0  0  0
 10 11  1  0  0  0  0
 10 15  1  0  0  0  0
 11 12  1  0  0  0  0
 11 40  1  0  0  0  0
 11 41  1  0  0  0  0
 12 13  1  0  0  0  0
 12 14  1  0  0  0  0
 12 42  1  6  0  0  0
 13 43  1  0  0  0  0
 13 44  1  0  0  0  0
 13 45  1  0  0  0  0
 14 46  1  0  0  0  0
 14 47  1  0  0  0  0
 15 16  1  0  0  0  0
 15 30  2  0  0  0  0
 16 17  2  0  0  0  0
 16 48  1  0  0  0  0
 17 18  1  0  0  0  0
 17 49  1  0  0  0  0
 18 19  1  0  0  0  0
 18 29  2  0  0  0  0
 19 20  2  0  0  0  0
 20 21  1  0  0  0  0
 20 50  1  0  0  0  0
 21 22  1  0  0  0  0
 21 28  2  0  0  0  0
 22 23  1  0  0  0  0
 22 27  2  0  0  0  0
 23 24  2  0  0  0  0
 23 51  1  0  0  0  0
 24 25  1  0  0  0  0
 25 26  1  0  0  0  0
 25 27  1  0  0  0  0
 26 52  1  0  0  0  0
 26 53  1  0  0  0  0
 26 54  1  0  0  0  0
 27 55  1  0  0  0  0
 28 29  1  0  0  0  0
 29 30  1  0  0  0  0
 30 56  1  0  0  0  0
 31 57  1  0  0  0  0
M  END
$$$$
