CHEMBL4101852
 OpenBabel04072215383D

 67 70  0  0  0  0  0  0  0  0999 V2000
    1.4588   -0.4251   -0.9998 C   0  0  0  0  0  0  0  0  0  0  0  0
    2.5249   -0.1407   -0.0986 O   0  0  0  0  0  0  0  0  0  0  0  0
    3.1409   -1.2265    0.4606 C   0  0  0  0  0  0  0  0  0  0  0  0
    2.8033   -2.5627    0.2491 C   0  0  0  0  0  0  0  0  0  0  0  0
    3.4381   -3.6098    0.8271 N   0  0  0  0  0  0  0  0  0  0  0  0
    4.4588   -3.3061    1.6614 C   0  0  0  0  0  0  0  0  0  0  0  0
    4.8732   -2.0078    1.9460 C   0  0  0  0  0  0  0  0  0  0  0  0
    5.9678   -1.7716    2.8316 C   0  0  0  0  0  0  0  0  0  0  0  0
    6.9097   -1.5948    3.5640 C   0  0  0  0  0  0  0  0  0  0  0  0
    8.0562   -1.3946    4.4041 C   0  0  0  0  0  0  0  0  0  0  0  0
    8.4532   -0.0761    4.6979 C   0  0  0  0  0  0  0  0  0  0  0  0
    9.6113    0.1472    5.4499 C   0  0  0  0  0  0  0  0  0  0  0  0
   10.2232    1.4855    5.6428 C   0  0  0  0  0  0  0  0  0  0  0  0
   11.4463    1.5101    5.7511 O   0  0  0  0  0  0  0  0  0  0  0  0
    9.3849    2.5920    5.7354 N   0  0  0  0  0  0  0  0  0  0  0  0
    9.8547    3.9130    5.9479 C   0  0  0  0  0  0  0  0  0  0  0  0
   11.1707    4.2876    5.6819 C   0  0  0  0  0  0  0  0  0  0  0  0
   11.6436    5.5500    6.0309 C   0  0  0  0  0  0  0  0  0  0  0  0
   10.8093    6.4829    6.6639 C   0  0  0  0  0  0  0  0  0  0  0  0
   11.4362    7.7822    7.1242 C   0  0  0  0  0  0  0  0  0  0  0  0
   11.3579    7.9650    8.5716 N   0  0  0  0  0  0  0  0  0  0  0  0
   12.0183    6.9193    9.3652 C   0  0  0  0  0  0  0  0  0  0  0  0
   11.8261    7.1754   10.8793 C   0  0  0  0  0  0  0  0  0  0  0  0
   12.2877    8.4988   11.3458 N   0  0  0  0  0  0  0  0  0  0  0  0
   13.7458    8.5729   11.3655 C   0  0  0  0  0  0  0  0  0  0  0  0
   11.7018    9.5455   10.4826 C   0  0  0  0  0  0  0  0  0  0  0  0
   11.8480    9.2969    8.9631 C   0  0  0  0  0  0  0  0  0  0  0  0
    9.4540    6.1535    6.8841 C   0  0  0  0  0  0  0  0  0  0  0  0
    8.4633    7.0680    7.5872 C   0  0  0  0  0  0  0  0  0  0  0  0
    8.9022    8.2943    7.9732 F   0  0  0  0  0  0  0  0  0  0  0  0
    7.3845    7.3328    6.7935 F   0  0  0  0  0  0  0  0  0  0  0  0
    7.9491    6.4859    8.7106 F   0  0  0  0  0  0  0  0  0  0  0  0
    8.9879    4.8708    6.4856 C   0  0  0  0  0  0  0  0  0  0  0  0
   10.3361   -0.9453    5.9462 C   0  0  0  0  0  0  0  0  0  0  0  0
    9.9371   -2.2500    5.6739 C   0  0  0  0  0  0  0  0  0  0  0  0
    8.8076   -2.4900    4.8812 C   0  0  0  0  0  0  0  0  0  0  0  0
    8.4768   -3.9130    4.5199 C   0  0  0  0  0  0  0  0  0  0  0  0
    4.1944   -0.9492    1.3383 C   0  0  0  0  0  0  0  0  0  0  0  0
    1.0544    0.5240   -1.3621 H   0  0  0  0  0  0  0  0  0  0  0  0
    0.6484   -0.9608   -0.4934 H   0  0  0  0  0  0  0  0  0  0  0  0
    1.8199   -0.9888   -1.8673 H   0  0  0  0  0  0  0  0  0  0  0  0
    1.9960   -2.8606   -0.4099 H   0  0  0  0  0  0  0  0  0  0  0  0
    4.9486   -4.1683    2.1064 H   0  0  0  0  0  0  0  0  0  0  0  0
    7.8942    0.7562    4.2800 H   0  0  0  0  0  0  0  0  0  0  0  0
    8.3965    2.4203    5.8809 H   0  0  0  0  0  0  0  0  0  0  0  0
   11.8743    3.6081    5.2089 H   0  0  0  0  0  0  0  0  0  0  0  0
   12.6917    5.7759    5.8409 H   0  0  0  0  0  0  0  0  0  0  0  0
   10.8994    8.5881    6.6065 H   0  0  0  0  0  0  0  0  0  0  0  0
   12.4786    7.8490    6.7855 H   0  0  0  0  0  0  0  0  0  0  0  0
   13.0852    6.8596    9.1197 H   0  0  0  0  0  0  0  0  0  0  0  0
   11.5814    5.9376    9.1507 H   0  0  0  0  0  0  0  0  0  0  0  0
   12.3174    6.3795   11.4522 H   0  0  0  0  0  0  0  0  0  0  0  0
   10.7565    7.0873   11.1157 H   0  0  0  0  0  0  0  0  0  0  0  0
   14.1561    7.7942   12.0177 H   0  0  0  0  0  0  0  0  0  0  0  0
   14.0707    9.5325   11.7813 H   0  0  0  0  0  0  0  0  0  0  0  0
   14.2005    8.4601   10.3764 H   0  0  0  0  0  0  0  0  0  0  0  0
   12.1254   10.5255   10.7351 H   0  0  0  0  0  0  0  0  0  0  0  0
   10.6316    9.6185   10.7193 H   0  0  0  0  0  0  0  0  0  0  0  0
   12.8978    9.4192    8.6674 H   0  0  0  0  0  0  0  0  0  0  0  0
   11.2739   10.0701    8.4375 H   0  0  0  0  0  0  0  0  0  0  0  0
    7.9431    4.6187    6.6647 H   0  0  0  0  0  0  0  0  0  0  0  0
   11.2469   -0.7822    6.5216 H   0  0  0  0  0  0  0  0  0  0  0  0
   10.5391   -3.0721    6.0544 H   0  0  0  0  0  0  0  0  0  0  0  0
    9.1676   -4.6165    4.9998 H   0  0  0  0  0  0  0  0  0  0  0  0
    8.5682   -4.0581    3.4384 H   0  0  0  0  0  0  0  0  0  0  0  0
    7.4661   -4.1717    4.8469 H   0  0  0  0  0  0  0  0  0  0  0  0
    4.4823    0.0813    1.5215 H   0  0  0  0  0  0  0  0  0  0  0  0
  1  2  1  0  0  0  0
  1 39  1  0  0  0  0
  1 40  1  0  0  0  0
  1 41  1  0  0  0  0
  2  3  1  0  0  0  0
  3  4  1  0  0  0  0
  3 38  2  0  0  0  0
  4  5  2  0  0  0  0
  4 42  1  0  0  0  0
  5  6  1  0  0  0  0
  6  7  2  0  0  0  0
  6 43  1  0  0  0  0
  7  8  1  0  0  0  0
  7 38  1  0  0  0  0
  8  9  3  0  0  0  0
  9 10  1  0  0  0  0
 10 11  1  0  0  0  0
 10 36  2  0  0  0  0
 11 12  2  0  0  0  0
 11 44  1  0  0  0  0
 12 13  1  0  0  0  0
 12 34  1  0  0  0  0
 13 14  2  0  0  0  0
 13 15  1  0  0  0  0
 15 16  1  0  0  0  0
 15 45  1  0  0  0  0
 16 17  1  0  0  0  0
 16 33  2  0  0  0  0
 17 18  2  0  0  0  0
 17 46  1  0  0  0  0
 18 19  1  0  0  0  0
 18 47  1  0  0  0  0
 19 20  1  0  0  0  0
 19 28  2  0  0  0  0
 20 21  1  0  0  0  0
 20 48  1  0  0  0  0
 20 49  1  0  0  0  0
 21 22  1  0  0  0  0
 21 27  1  0  0  0  0
 22 23  1  0  0  0  0
 22 50  1  0  0  0  0
 22 51  1  0  0  0  0
 23 24  1  0  0  0  0
 23 52  1  0  0  0  0
 23 53  1  0  0  0  0
 24 25  1  0  0  0  0
 24 26  1  0  0  0  0
 25 54  1  0  0  0  0
 25 55  1  0  0  0  0
 25 56  1  0  0  0  0
 26 27  1  0  0  0  0
 26 57  1  0  0  0  0
 26 58  1  0  0  0  0
 27 59  1  0  0  0  0
 27 60  1  0  0  0  0
 28 29  1  0  0  0  0
 28 33  1  0  0  0  0
 29 30  1  0  0  0  0
 29 31  1  0  0  0  0
 29 32  1  0  0  0  0
 33 61  1  0  0  0  0
 34 35  2  0  0  0  0
 34 62  1  0  0  0  0
 35 36  1  0  0  0  0
 35 63  1  0  0  0  0
 36 37  1  0  0  0  0
 37 64  1  0  0  0  0
 37 65  1  0  0  0  0
 37 66  1  0  0  0  0
 38 67  1  0  0  0  0
M  END
$$$$
