CHEMBL2386798
 OpenBabel04072215363D

 72 76  0  0  0  0  0  0  0  0999 V2000
   -2.1938    3.8869    4.5040 C   0  0  0  0  0  0  0  0  0  0  0  0
   -1.3637    2.6945    4.3586 N   0  0  0  0  0  0  0  0  0  0  0  0
   -2.1388    1.4752    4.6300 C   0  0  0  0  0  0  0  0  0  0  0  0
   -1.2741    0.2093    4.4370 C   0  0  0  0  0  0  0  0  0  0  0  0
   -0.7048    0.0592    3.0783 N   0  0  0  0  0  0  0  0  0  0  0  0
   -1.7091   -0.1814    2.0263 C   0  0  0  0  0  0  0  0  0  0  0  0
   -2.5296   -1.4458    2.2142 C   0  0  0  0  0  0  0  0  0  0  0  0
   -3.7410   -1.4026    2.9217 C   0  0  0  0  0  0  0  0  0  0  0  0
   -4.4784   -2.5637    3.1457 C   0  0  0  0  0  0  0  0  0  0  0  0
   -4.0239   -3.7840    2.6407 C   0  0  0  0  0  0  0  0  0  0  0  0
   -4.8136   -4.9993    2.9370 C   0  0  0  0  0  0  0  0  0  0  0  0
   -6.0206   -4.9572    3.1021 O   0  0  0  0  0  0  0  0  0  0  0  0
   -4.0645   -6.2139    3.1111 N   0  0  0  0  0  0  0  0  0  0  0  0
   -4.6685   -7.4321    3.3962 C   0  0  0  0  0  0  0  0  0  0  0  0
   -5.9914   -7.7830    3.2846 C   0  0  0  0  0  0  0  0  0  0  0  0
   -6.0760   -9.1373    3.7040 C   0  0  0  0  0  0  0  0  0  0  0  0
   -7.2741   -9.9724    3.7360 C   0  0  0  0  0  0  0  0  0  0  0  0
   -8.2861   -9.7889    2.7842 C   0  0  0  0  0  0  0  0  0  0  0  0
   -9.4444  -10.5700    2.8160 C   0  0  0  0  0  0  0  0  0  0  0  0
   -9.6169  -11.5406    3.8097 C   0  0  0  0  0  0  0  0  0  0  0  0
  -10.8968  -12.3258    3.8858 C   0  0  0  0  0  0  0  0  0  0  0  0
  -10.8410  -13.5803    3.1678 N   0  0  0  0  0  0  0  0  0  0  0  0
  -11.9650  -14.3760    3.2294 C   0  0  0  0  0  0  0  0  0  0  0  0
  -12.9453  -14.0485    3.8932 O   0  0  0  0  0  0  0  0  0  0  0  0
  -11.8182  -15.5441    2.5162 N   0  0  0  0  0  0  0  0  0  0  0  0
  -12.8003  -16.5493    2.3728 C   0  0  0  0  0  0  0  0  0  0  0  0
  -14.1591  -16.3269    2.6173 C   0  0  0  0  0  0  0  0  0  0  0  0
  -15.0852  -17.3685    2.5078 C   0  0  0  0  0  0  0  0  0  0  0  0
  -14.6630  -18.6429    2.1438 C   0  0  0  0  0  0  0  0  0  0  0  0
  -13.3164  -18.8711    1.8693 C   0  0  0  0  0  0  0  0  0  0  0  0
  -12.3896  -17.8262    1.9728 C   0  0  0  0  0  0  0  0  0  0  0  0
   -8.5988  -11.7376    4.7513 C   0  0  0  0  0  0  0  0  0  0  0  0
   -7.4381  -10.9590    4.7168 C   0  0  0  0  0  0  0  0  0  0  0  0
   -4.8675   -9.5935    4.0703 N   0  0  0  0  0  0  0  0  0  0  0  0
   -4.0390   -8.5629    3.8440 N   0  0  0  0  0  0  0  0  0  0  0  0
   -2.8464   -3.8360    1.8833 C   0  0  0  0  0  0  0  0  0  0  0  0
   -2.0964   -2.6716    1.6860 C   0  0  0  0  0  0  0  0  0  0  0  0
    0.0490    1.3094    2.7895 C   0  0  0  0  0  0  0  0  0  0  0  0
   -0.7433    2.6271    3.0224 C   0  0  0  0  0  0  0  0  0  0  0  0
   -2.6358    3.9274    5.5062 H   0  0  0  0  0  0  0  0  0  0  0  0
   -3.0079    3.9189    3.7708 H   0  0  0  0  0  0  0  0  0  0  0  0
   -1.5880    4.7919    4.3901 H   0  0  0  0  0  0  0  0  0  0  0  0
   -3.0231    1.4338    3.9833 H   0  0  0  0  0  0  0  0  0  0  0  0
   -2.5015    1.4893    5.6646 H   0  0  0  0  0  0  0  0  0  0  0  0
   -1.8357   -0.6828    4.7317 H   0  0  0  0  0  0  0  0  0  0  0  0
   -0.4390    0.2500    5.1513 H   0  0  0  0  0  0  0  0  0  0  0  0
   -1.1846   -0.2792    1.0657 H   0  0  0  0  0  0  0  0  0  0  0  0
   -2.3956    0.6629    1.8960 H   0  0  0  0  0  0  0  0  0  0  0  0
   -4.1116   -0.4614    3.3218 H   0  0  0  0  0  0  0  0  0  0  0  0
   -5.3995   -2.5060    3.7252 H   0  0  0  0  0  0  0  0  0  0  0  0
   -3.0533   -6.1685    3.1231 H   0  0  0  0  0  0  0  0  0  0  0  0
   -6.8125   -7.1671    2.9471 H   0  0  0  0  0  0  0  0  0  0  0  0
   -8.1890   -9.0387    2.0036 H   0  0  0  0  0  0  0  0  0  0  0  0
  -10.2204  -10.3990    2.0714 H   0  0  0  0  0  0  0  0  0  0  0  0
  -11.7284  -11.7324    3.4828 H   0  0  0  0  0  0  0  0  0  0  0  0
  -11.1440  -12.5344    4.9341 H   0  0  0  0  0  0  0  0  0  0  0  0
  -10.3526  -13.5797    2.2852 H   0  0  0  0  0  0  0  0  0  0  0  0
  -10.8638  -15.8030    2.3069 H   0  0  0  0  0  0  0  0  0  0  0  0
  -14.5334  -15.3462    2.8938 H   0  0  0  0  0  0  0  0  0  0  0  0
  -16.1350  -17.1776    2.7172 H   0  0  0  0  0  0  0  0  0  0  0  0
  -15.3824  -19.4540    2.0755 H   0  0  0  0  0  0  0  0  0  0  0  0
  -12.9858  -19.8657    1.5844 H   0  0  0  0  0  0  0  0  0  0  0  0
  -11.3455  -18.0372    1.7640 H   0  0  0  0  0  0  0  0  0  0  0  0
   -8.7140  -12.4868    5.5316 H   0  0  0  0  0  0  0  0  0  0  0  0
   -6.6692  -11.1152    5.4720 H   0  0  0  0  0  0  0  0  0  0  0  0
   -3.0553   -8.6988    4.0456 H   0  0  0  0  0  0  0  0  0  0  0  0
   -2.5068   -4.7582    1.4207 H   0  0  0  0  0  0  0  0  0  0  0  0
   -1.1741   -2.7169    1.1086 H   0  0  0  0  0  0  0  0  0  0  0  0
    0.4343    1.2892    1.7626 H   0  0  0  0  0  0  0  0  0  0  0  0
    0.9380    1.3226    3.4349 H   0  0  0  0  0  0  0  0  0  0  0  0
   -1.5064    2.7302    2.2403 H   0  0  0  0  0  0  0  0  0  0  0  0
   -0.0496    3.4683    2.9056 H   0  0  0  0  0  0  0  0  0  0  0  0
  1  2  1  0  0  0  0
  1 40  1  0  0  0  0
  1 41  1  0  0  0  0
  1 42  1  0  0  0  0
  2  3  1  0  0  0  0
  2 39  1  0  0  0  0
  3  4  1  0  0  0  0
  3 43  1  0  0  0  0
  3 44  1  0  0  0  0
  4  5  1  0  0  0  0
  4 45  1  0  0  0  0
  4 46  1  0  0  0  0
  5  6  1  0  0  0  0
  5 38  1  0  0  0  0
  6  7  1  0  0  0  0
  6 47  1  0  0  0  0
  6 48  1  0  0  0  0
  7  8  1  0  0  0  0
  7 37  2  0  0  0  0
  8  9  2  0  0  0  0
  8 49  1  0  0  0  0
  9 10  1  0  0  0  0
  9 50  1  0  0  0  0
 10 11  1  0  0  0  0
 10 36  2  0  0  0  0
 11 12  2  0  0  0  0
 11 13  1  0  0  0  0
 13 14  1  0  0  0  0
 13 51  1  0  0  0  0
 14 15  2  0  0  0  0
 14 35  1  0  0  0  0
 15 16  1  0  0  0  0
 15 52  1  0  0  0  0
 16 17  1  0  0  0  0
 16 34  2  0  0  0  0
 17 18  1  0  0  0  0
 17 33  2  0  0  0  0
 18 19  2  0  0  0  0
 18 53  1  0  0  0  0
 19 20  1  0  0  0  0
 19 54  1  0  0  0  0
 20 21  1  0  0  0  0
 20 32  2  0  0  0  0
 21 22  1  0  0  0  0
 21 55  1  0  0  0  0
 21 56  1  0  0  0  0
 22 23  1  0  0  0  0
 22 57  1  0  0  0  0
 23 24  2  0  0  0  0
 23 25  1  0  0  0  0
 25 26  1  0  0  0  0
 25 58  1  0  0  0  0
 26 27  1  0  0  0  0
 26 31  2  0  0  0  0
 27 28  2  0  0  0  0
 27 59  1  0  0  0  0
 28 29  1  0  0  0  0
 28 60  1  0  0  0  0
 29 30  2  0  0  0  0
 29 61  1  0  0  0  0
 30 31  1  0  0  0  0
 30 62  1  0  0  0  0
 31 63  1  0  0  0  0
 32 33  1  0  0  0  0
 32 64  1  0  0  0  0
 33 65  1  0  0  0  0
 34 35  1  0  0  0  0
 35 66  1  0  0  0  0
 36 37  1  0  0  0  0
 36 67  1  0  0  0  0
 37 68  1  0  0  0  0
 38 39  1  0  0  0  0
 38 69  1  0  0  0  0
 38 70  1  0  0  0  0
 39 71  1  0  0  0  0
 39 72  1  0  0  0  0
M  END
$$$$
