CHEMBL3978313
 OpenBabel04072215373D

 65 69  0  0  0  0  0  0  0  0999 V2000
   -4.3701    1.6865   -1.3886 C   0  0  0  0  0  0  0  0  0  0  0  0
   -3.5465    0.5396   -1.0501 N   0  0  0  0  0  0  0  0  0  0  0  0
   -2.5971    0.7046   -0.0222 C   0  0  0  0  0  0  0  0  0  0  0  0
   -2.8247    1.5305    1.0830 C   0  0  0  0  0  0  0  0  0  0  0  0
   -1.8698    1.6473    2.0930 C   0  0  0  0  0  0  0  0  0  0  0  0
   -0.7097    0.9001    1.9927 C   0  0  0  0  0  0  0  0  0  0  0  0
   -0.4590    0.0402    0.9841 N   0  0  0  0  0  0  0  0  0  0  0  0
   -1.4090   -0.0529    0.0186 C   0  0  0  0  0  0  0  0  0  0  0  0
   -1.0711   -0.9560   -1.0466 C   0  0  0  0  0  0  0  0  0  0  0  0
   -0.7461   -1.6446   -1.9893 C   0  0  0  0  0  0  0  0  0  0  0  0
   -0.2024   -2.3628   -3.1581 C   0  0  0  0  0  0  0  0  0  0  0  0
   -0.2584   -1.5695   -4.4520 N   0  0  0  0  0  0  0  0  0  0  0  0
    0.9705   -0.8520   -4.6269 C   0  0  0  0  0  0  0  0  0  0  0  0
    1.7398   -0.9241   -5.7949 C   0  0  0  0  0  0  0  0  0  0  0  0
    2.9878   -0.2686   -5.8670 C   0  0  0  0  0  0  0  0  0  0  0  0
    3.8463   -0.2595   -6.9354 O   0  0  0  0  0  0  0  0  0  0  0  0
    3.4828   -1.0250   -8.0714 C   0  0  0  0  0  0  0  0  0  0  0  0
    3.4797    0.4663   -4.7779 C   0  0  0  0  0  0  0  0  0  0  0  0
    2.7531    0.5308   -3.6052 C   0  0  0  0  0  0  0  0  0  0  0  0
    3.0999    1.1786   -2.4539 O   0  0  0  0  0  0  0  0  0  0  0  0
    4.2201    2.0481   -2.5107 C   0  0  0  0  0  0  0  0  0  0  0  0
    1.5290   -0.1314   -3.5441 C   0  0  0  0  0  0  0  0  0  0  0  0
   -1.4674   -1.6206   -5.2276 C   0  0  0  0  0  0  0  0  0  0  0  0
   -2.4693   -2.4942   -4.8072 C   0  0  0  0  0  0  0  0  0  0  0  0
   -3.6952   -2.5946   -5.4053 C   0  0  0  0  0  0  0  0  0  0  0  0
   -4.0083   -1.8930   -6.5189 C   0  0  0  0  0  0  0  0  0  0  0  0
   -5.2050   -2.2521   -6.9528 N   0  0  0  0  0  0  0  0  0  0  0  0
   -5.6221   -1.6753   -8.0784 C   0  0  0  0  0  0  0  0  0  0  0  0
   -4.8781   -0.7284   -8.7483 C   0  0  0  0  0  0  0  0  0  0  0  0
   -5.5306   -0.2396   -9.9666 C   0  0  0  0  0  0  0  0  0  0  0  0
   -6.4034    0.8671  -10.1531 C   0  0  0  0  0  0  0  0  0  0  0  0
   -7.1301    0.7839  -11.2776 N   0  0  0  0  0  0  0  0  0  0  0  0
   -6.7581   -0.3930  -11.8073 N   0  0  0  0  0  0  0  0  0  0  0  0
   -7.1865   -0.7824  -13.1311 C   0  0  0  0  0  0  0  0  0  0  0  0
   -5.9236   -1.0996  -10.9878 C   0  0  0  0  0  0  0  0  0  0  0  0
   -3.6226   -0.3398   -8.2895 N   0  0  0  0  0  0  0  0  0  0  0  0
   -3.1216   -0.9678   -7.1188 C   0  0  0  0  0  0  0  0  0  0  0  0
   -1.8245   -0.8492   -6.3954 C   0  0  0  0  0  0  0  0  0  0  0  0
   -4.8678    1.4982   -2.3447 H   0  0  0  0  0  0  0  0  0  0  0  0
   -3.7681    2.5951   -1.4991 H   0  0  0  0  0  0  0  0  0  0  0  0
   -5.1487    1.8456   -0.6371 H   0  0  0  0  0  0  0  0  0  0  0  0
   -3.1113    0.1343   -1.8796 H   0  0  0  0  0  0  0  0  0  0  0  0
   -3.7457    2.0962    1.1761 H   0  0  0  0  0  0  0  0  0  0  0  0
   -2.0320    2.3084    2.9364 H   0  0  0  0  0  0  0  0  0  0  0  0
    0.0674    0.9750    2.7498 H   0  0  0  0  0  0  0  0  0  0  0  0
   -0.6853   -3.3421   -3.2364 H   0  0  0  0  0  0  0  0  0  0  0  0
    0.8314   -2.6693   -2.9396 H   0  0  0  0  0  0  0  0  0  0  0  0
    1.3846   -1.5388   -6.6138 H   0  0  0  0  0  0  0  0  0  0  0  0
    4.2396   -0.8477   -8.8422 H   0  0  0  0  0  0  0  0  0  0  0  0
    2.5174   -0.7055   -8.4737 H   0  0  0  0  0  0  0  0  0  0  0  0
    3.4869   -2.0933   -7.8351 H   0  0  0  0  0  0  0  0  0  0  0  0
    4.4383    0.9653   -4.8764 H   0  0  0  0  0  0  0  0  0  0  0  0
    4.2515    2.6096   -1.5713 H   0  0  0  0  0  0  0  0  0  0  0  0
    4.1242    2.7727   -3.3254 H   0  0  0  0  0  0  0  0  0  0  0  0
    5.1489    1.4760   -2.5930 H   0  0  0  0  0  0  0  0  0  0  0  0
    1.0139   -0.0571   -2.5931 H   0  0  0  0  0  0  0  0  0  0  0  0
   -2.3666   -3.1799   -3.9712 H   0  0  0  0  0  0  0  0  0  0  0  0
   -4.4296   -3.2772   -4.9904 H   0  0  0  0  0  0  0  0  0  0  0  0
   -6.5787   -2.0400   -8.4400 H   0  0  0  0  0  0  0  0  0  0  0  0
   -6.5910    1.7022   -9.4894 H   0  0  0  0  0  0  0  0  0  0  0  0
   -7.8341   -0.0129  -13.5588 H   0  0  0  0  0  0  0  0  0  0  0  0
   -7.7182   -1.7366  -13.0809 H   0  0  0  0  0  0  0  0  0  0  0  0
   -6.2862   -0.8854  -13.7431 H   0  0  0  0  0  0  0  0  0  0  0  0
   -5.7056   -2.1416  -11.1829 H   0  0  0  0  0  0  0  0  0  0  0  0
   -1.1082   -0.1206   -6.7801 H   0  0  0  0  0  0  0  0  0  0  0  0
  1  2  1  0  0  0  0
  1 39  1  0  0  0  0
  1 40  1  0  0  0  0
  1 41  1  0  0  0  0
  2  3  1  0  0  0  0
  2 42  1  0  0  0  0
  3  4  1  0  0  0  0
  3  8  2  0  0  0  0
  4  5  2  0  0  0  0
  4 43  1  0  0  0  0
  5  6  1  0  0  0  0
  5 44  1  0  0  0  0
  6  7  2  0  0  0  0
  6 45  1  0  0  0  0
  7  8  1  0  0  0  0
  8  9  1  0  0  0  0
  9 10  3  0  0  0  0
 10 11  1  0  0  0  0
 11 12  1  0  0  0  0
 11 46  1  0  0  0  0
 11 47  1  0  0  0  0
 12 13  1  0  0  0  0
 12 23  1  0  0  0  0
 13 14  1  0  0  0  0
 13 22  2  0  0  0  0
 14 15  2  0  0  0  0
 14 48  1  0  0  0  0
 15 16  1  0  0  0  0
 15 18  1  0  0  0  0
 16 17  1  0  0  0  0
 17 49  1  0  0  0  0
 17 50  1  0  0  0  0
 17 51  1  0  0  0  0
 18 19  2  0  0  0  0
 18 52  1  0  0  0  0
 19 20  1  0  0  0  0
 19 22  1  0  0  0  0
 20 21  1  0  0  0  0
 21 53  1  0  0  0  0
 21 54  1  0  0  0  0
 21 55  1  0  0  0  0
 22 56  1  0  0  0  0
 23 24  1  0  0  0  0
 23 38  2  0  0  0  0
 24 25  2  0  0  0  0
 24 57  1  0  0  0  0
 25 26  1  0  0  0  0
 25 58  1  0  0  0  0
 26 27  1  0  0  0  0
 26 37  2  0  0  0  0
 27 28  2  0  0  0  0
 28 29  1  0  0  0  0
 28 59  1  0  0  0  0
 29 30  1  0  0  0  0
 29 36  2  0  0  0  0
 30 31  1  0  0  0  0
 30 35  2  0  0  0  0
 31 32  2  0  0  0  0
 31 60  1  0  0  0  0
 32 33  1  0  0  0  0
 33 34  1  0  0  0  0
 33 35  1  0  0  0  0
 34 61  1  0  0  0  0
 34 62  1  0  0  0  0
 34 63  1  0  0  0  0
 35 64  1  0  0  0  0
 36 37  1  0  0  0  0
 37 38  1  0  0  0  0
 38 65  1  0  0  0  0
M  END
$$$$
