CHEMBL199755
 OpenBabel04072215363D

 42 45  0  0  0  0  0  0  0  0999 V2000
    1.0510   -0.3197   -0.0138 O   0  0  0  0  0  0  0  0  0  0  0  0
    2.2557   -0.1115    0.1066 C   0  0  0  0  0  0  0  0  0  0  0  0
    2.8101    1.1340   -0.1191 N   0  0  0  0  0  0  0  0  0  0  0  0
    2.0695    2.2926   -0.6084 C   0  0  0  0  0  0  0  0  0  0  0  0
    2.1174    2.3290   -2.1419 C   0  0  0  0  0  0  0  0  0  0  0  0
    1.5208    3.6102   -2.7180 C   0  0  0  0  0  0  0  0  0  0  0  0
    2.1753    4.8494   -2.1188 C   0  0  0  0  0  0  0  0  0  0  0  0
    2.0463    4.8468   -0.6004 C   0  0  0  0  0  0  0  0  0  0  0  0
    2.6412    3.5792    0.0108 C   0  0  0  0  0  0  0  0  0  0  0  0
    3.2071   -1.1607    0.4937 C   0  0  0  0  0  0  0  0  0  0  0  0
    2.8999   -2.5170    0.7903 C   0  0  0  0  0  0  0  0  0  0  0  0
    4.0596   -3.2762    1.1183 C   0  0  0  0  0  0  0  0  0  0  0  0
    4.5663   -4.4924    1.4786 C   0  0  0  0  0  0  0  0  0  0  0  0
    4.0023   -5.8207    1.7077 C   0  0  0  0  0  0  0  0  0  0  0  0
    2.8369   -6.2268    1.0519 C   0  0  0  0  0  0  0  0  0  0  0  0
    2.3240   -7.5142    1.2397 C   0  0  0  0  0  0  0  0  0  0  0  0
    2.9698   -8.4097    2.0908 C   0  0  0  0  0  0  0  0  0  0  0  0
    4.1226   -8.0173    2.7624 C   0  0  0  0  0  0  0  0  0  0  0  0
    4.6340   -6.7292    2.5764 C   0  0  0  0  0  0  0  0  0  0  0  0
    5.9450   -4.2307    1.5606 N   0  0  0  0  0  0  0  0  0  0  0  0
    6.2940   -2.9332    1.3091 N   0  0  0  0  0  0  0  0  0  0  0  0
    5.1345   -2.4115    1.0479 C   0  0  0  0  0  0  0  0  0  0  0  0
    4.9417   -0.7427    0.6273 S   0  0  0  0  0  0  0  0  0  0  0  0
    3.8222    1.1698   -0.1616 H   0  0  0  0  0  0  0  0  0  0  0  0
    1.0238    2.1900   -0.2932 H   0  0  0  0  0  0  0  0  0  0  0  0
    1.5826    1.4629   -2.5499 H   0  0  0  0  0  0  0  0  0  0  0  0
    3.1575    2.2366   -2.4817 H   0  0  0  0  0  0  0  0  0  0  0  0
    0.4424    3.6348   -2.5198 H   0  0  0  0  0  0  0  0  0  0  0  0
    1.6470    3.6174   -3.8064 H   0  0  0  0  0  0  0  0  0  0  0  0
    1.7087    5.7515   -2.5303 H   0  0  0  0  0  0  0  0  0  0  0  0
    3.2355    4.8815   -2.3998 H   0  0  0  0  0  0  0  0  0  0  0  0
    0.9878    4.9269   -0.3243 H   0  0  0  0  0  0  0  0  0  0  0  0
    2.5499    5.7287   -0.1874 H   0  0  0  0  0  0  0  0  0  0  0  0
    2.4571    3.5804    1.0926 H   0  0  0  0  0  0  0  0  0  0  0  0
    3.7319    3.6036   -0.1130 H   0  0  0  0  0  0  0  0  0  0  0  0
    1.8874   -2.9024    0.7597 H   0  0  0  0  0  0  0  0  0  0  0  0
    2.3217   -5.5551    0.3692 H   0  0  0  0  0  0  0  0  0  0  0  0
    1.4214   -7.8187    0.7168 H   0  0  0  0  0  0  0  0  0  0  0  0
    2.5723   -9.4112    2.2319 H   0  0  0  0  0  0  0  0  0  0  0  0
    4.6246   -8.7102    3.4337 H   0  0  0  0  0  0  0  0  0  0  0  0
    5.5267   -6.4527    3.1291 H   0  0  0  0  0  0  0  0  0  0  0  0
    6.6833   -4.8951    1.7643 H   0  0  0  0  0  0  0  0  0  0  0  0
  1  2  2  0  0  0  0
  2  3  1  0  0  0  0
  2 10  1  0  0  0  0
  3  4  1  0  0  0  0
  3 24  1  0  0  0  0
  4  5  1  0  0  0  0
  4  9  1  0  0  0  0
  4 25  1  0  0  0  0
  5  6  1  0  0  0  0
  5 26  1  0  0  0  0
  5 27  1  0  0  0  0
  6  7  1  0  0  0  0
  6 28  1  0  0  0  0
  6 29  1  0  0  0  0
  7  8  1  0  0  0  0
  7 30  1  0  0  0  0
  7 31  1  0  0  0  0
  8  9  1  0  0  0  0
  8 32  1  0  0  0  0
  8 33  1  0  0  0  0
  9 34  1  0  0  0  0
  9 35  1  0  0  0  0
 10 11  2  0  0  0  0
 10 23  1  0  0  0  0
 11 12  1  0  0  0  0
 11 36  1  0  0  0  0
 12 13  2  0  0  0  0
 12 22  1  0  0  0  0
 13 14  1  0  0  0  0
 13 20  1  0  0  0  0
 14 15  1  0  0  0  0
 14 19  2  0  0  0  0
 15 16  2  0  0  0  0
 15 37  1  0  0  0  0
 16 17  1  0  0  0  0
 16 38  1  0  0  0  0
 17 18  2  0  0  0  0
 17 39  1  0  0  0  0
 18 19  1  0  0  0  0
 18 40  1  0  0  0  0
 19 41  1  0  0  0  0
 20 21  1  0  0  0  0
 20 42  1  0  0  0  0
 21 22  2  0  0  0  0
 22 23  1  0  0  0  0
M  END
$$$$
