CHEMBL215943
 OpenBabel04072215363D

 67 71  0  0  0  0  0  0  0  0999 V2000
    1.7357   -0.5757   -2.4565 C   0  0  0  0  0  0  0  0  0  0  0  0
    0.5803   -0.2598   -1.5406 C   0  0  0  0  0  0  0  0  0  0  0  0
    0.2947    1.1086   -1.2965 C   0  0  0  0  0  0  0  0  0  0  0  0
   -0.6341    1.5021   -0.3257 C   0  0  0  0  0  0  0  0  0  0  0  0
   -1.3547    0.5253    0.3481 C   0  0  0  0  0  0  0  0  0  0  0  0
   -2.1605    0.7933    1.5720 C   0  0  0  0  0  0  0  0  0  0  0  0
   -1.9723    0.0703    2.5347 O   0  0  0  0  0  0  0  0  0  0  0  0
   -3.0820    1.8075    1.4366 N   0  0  0  0  0  0  0  0  0  0  0  0
   -4.0795    2.1103    2.3734 C   0  0  0  0  0  0  0  0  0  0  0  0
   -4.1098    1.6206    3.6739 C   0  0  0  0  0  0  0  0  0  0  0  0
   -5.2020    1.8915    4.5099 C   0  0  0  0  0  0  0  0  0  0  0  0
   -6.2794    2.6471    4.0485 C   0  0  0  0  0  0  0  0  0  0  0  0
   -6.2695    3.1420    2.7370 C   0  0  0  0  0  0  0  0  0  0  0  0
   -7.4303    3.9217    2.1928 C   0  0  0  0  0  0  0  0  0  0  0  0
   -8.4834    4.0284    3.0496 F   0  0  0  0  0  0  0  0  0  0  0  0
   -7.0918    5.2002    1.8614 F   0  0  0  0  0  0  0  0  0  0  0  0
   -7.9258    3.3621    1.0531 F   0  0  0  0  0  0  0  0  0  0  0  0
   -5.1464    2.8909    1.9202 C   0  0  0  0  0  0  0  0  0  0  0  0
   -1.1804   -0.8205    0.0166 C   0  0  0  0  0  0  0  0  0  0  0  0
   -0.1394   -1.2557   -0.8364 C   0  0  0  0  0  0  0  0  0  0  0  0
    0.4297   -2.5794   -0.4761 C   0  0  0  0  0  0  0  0  0  0  0  0
    0.6696   -2.6789    0.9085 C   0  0  0  0  0  0  0  0  0  0  0  0
    1.6073   -3.5279    1.3806 C   0  0  0  0  0  0  0  0  0  0  0  0
    2.2436   -4.3160    0.5118 C   0  0  0  0  0  0  0  0  0  0  0  0
    3.2833   -4.7905    1.0875 N   0  0  0  0  0  0  0  0  0  0  0  0
    3.5307   -6.0518    0.8917 C   0  0  0  0  0  0  0  0  0  0  0  0
    4.2050   -6.3689    2.0075 N   0  0  0  0  0  0  0  0  0  0  0  0
    4.5234   -7.5840    2.6687 C   0  0  0  0  0  0  0  0  0  0  0  0
    5.5155   -8.3982    1.8478 C   0  0  0  0  0  0  0  0  0  0  0  0
    6.7036   -7.7231    1.3404 N   0  0  0  0  0  0  0  0  0  0  0  0
    7.6576   -7.0729    2.2238 C   0  0  0  0  0  0  0  0  0  0  0  0
    7.9492   -5.5948    1.8892 C   0  0  0  0  0  0  0  0  0  0  0  0
    8.1781   -5.3920    0.4889 O   0  0  0  0  0  0  0  0  0  0  0  0
    7.0137   -5.7953   -0.2430 C   0  0  0  0  0  0  0  0  0  0  0  0
    6.7326   -7.2931   -0.0503 C   0  0  0  0  0  0  0  0  0  0  0  0
    2.9817   -6.7510   -0.1095 N   0  0  0  0  0  0  0  0  0  0  0  0
    2.1370   -6.0285   -0.9427 C   0  0  0  0  0  0  0  0  0  0  0  0
    1.6938   -4.6938   -0.6869 C   0  0  0  0  0  0  0  0  0  0  0  0
    0.8300   -3.6774   -1.2745 C   0  0  0  0  0  0  0  0  0  0  0  0
    2.1369    0.3369   -2.9162 H   0  0  0  0  0  0  0  0  0  0  0  0
    1.4010   -1.2217   -3.2727 H   0  0  0  0  0  0  0  0  0  0  0  0
    2.5596   -1.0499   -1.9144 H   0  0  0  0  0  0  0  0  0  0  0  0
    0.8778    1.8829   -1.7940 H   0  0  0  0  0  0  0  0  0  0  0  0
   -0.7269    2.5512   -0.0606 H   0  0  0  0  0  0  0  0  0  0  0  0
   -3.1593    2.2200    0.5207 H   0  0  0  0  0  0  0  0  0  0  0  0
   -3.2920    1.0366    4.0841 H   0  0  0  0  0  0  0  0  0  0  0  0
   -5.2028    1.5014    5.5271 H   0  0  0  0  0  0  0  0  0  0  0  0
   -7.1327    2.8177    4.7014 H   0  0  0  0  0  0  0  0  0  0  0  0
   -5.1529    3.2805    0.9096 H   0  0  0  0  0  0  0  0  0  0  0  0
   -1.7075   -1.5603    0.6242 H   0  0  0  0  0  0  0  0  0  0  0  0
    0.2551   -1.9991    1.6452 H   0  0  0  0  0  0  0  0  0  0  0  0
    1.8619   -3.5599    2.4364 H   0  0  0  0  0  0  0  0  0  0  0  0
    3.9536   -5.6090    2.6407 H   0  0  0  0  0  0  0  0  0  0  0  0
    3.6206   -8.1445    2.9275 H   0  0  0  0  0  0  0  0  0  0  0  0
    4.9896   -7.3014    3.6236 H   0  0  0  0  0  0  0  0  0  0  0  0
    4.9569   -8.8422    1.0162 H   0  0  0  0  0  0  0  0  0  0  0  0
    5.8322   -9.2344    2.4775 H   0  0  0  0  0  0  0  0  0  0  0  0
    8.6006   -7.6220    2.1122 H   0  0  0  0  0  0  0  0  0  0  0  0
    7.3785   -7.1551    3.2799 H   0  0  0  0  0  0  0  0  0  0  0  0
    8.8574   -5.2730    2.4114 H   0  0  0  0  0  0  0  0  0  0  0  0
    7.1330   -4.9403    2.2165 H   0  0  0  0  0  0  0  0  0  0  0  0
    7.2025   -5.5915   -1.3024 H   0  0  0  0  0  0  0  0  0  0  0  0
    6.1656   -5.1736    0.0622 H   0  0  0  0  0  0  0  0  0  0  0  0
    7.5510   -7.8489   -0.5233 H   0  0  0  0  0  0  0  0  0  0  0  0
    5.8213   -7.5645   -0.5934 H   0  0  0  0  0  0  0  0  0  0  0  0
    1.7146   -6.6122   -1.7598 H   0  0  0  0  0  0  0  0  0  0  0  0
    0.5071   -3.7637   -2.3096 H   0  0  0  0  0  0  0  0  0  0  0  0
  1  2  1  0  0  0  0
  1 40  1  0  0  0  0
  1 41  1  0  0  0  0
  1 42  1  0  0  0  0
  2  3  1  0  0  0  0
  2 20  2  0  0  0  0
  3  4  2  0  0  0  0
  3 43  1  0  0  0  0
  4  5  1  0  0  0  0
  4 44  1  0  0  0  0
  5  6  1  0  0  0  0
  5 19  2  0  0  0  0
  6  7  2  0  0  0  0
  6  8  1  0  0  0  0
  8  9  1  0  0  0  0
  8 45  1  0  0  0  0
  9 10  1  0  0  0  0
  9 18  2  0  0  0  0
 10 11  2  0  0  0  0
 10 46  1  0  0  0  0
 11 12  1  0  0  0  0
 11 47  1  0  0  0  0
 12 13  2  0  0  0  0
 12 48  1  0  0  0  0
 13 14  1  0  0  0  0
 13 18  1  0  0  0  0
 14 15  1  0  0  0  0
 14 16  1  0  0  0  0
 14 17  1  0  0  0  0
 18 49  1  0  0  0  0
 19 20  1  0  0  0  0
 19 50  1  0  0  0  0
 20 21  1  0  0  0  0
 21 22  1  0  0  0  0
 21 39  2  0  0  0  0
 22 23  2  0  0  0  0
 22 51  1  0  0  0  0
 23 24  1  0  0  0  0
 23 52  1  0  0  0  0
 24 25  1  0  0  0  0
 24 38  2  0  0  0  0
 25 26  2  0  0  0  0
 26 27  1  0  0  0  0
 26 36  1  0  0  0  0
 27 28  1  0  0  0  0
 27 53  1  0  0  0  0
 28 29  1  0  0  0  0
 28 54  1  0  0  0  0
 28 55  1  0  0  0  0
 29 30  1  0  0  0  0
 29 56  1  0  0  0  0
 29 57  1  0  0  0  0
 30 31  1  0  0  0  0
 30 35  1  0  0  0  0
 31 32  1  0  0  0  0
 31 58  1  0  0  0  0
 31 59  1  0  0  0  0
 32 33  1  0  0  0  0
 32 60  1  0  0  0  0
 32 61  1  0  0  0  0
 33 34  1  0  0  0  0
 34 35  1  0  0  0  0
 34 62  1  0  0  0  0
 34 63  1  0  0  0  0
 35 64  1  0  0  0  0
 35 65  1  0  0  0  0
 36 37  2  0  0  0  0
 37 38  1  0  0  0  0
 37 66  1  0  0  0  0
 38 39  1  0  0  0  0
 39 67  1  0  0  0  0
M  END
$$$$
