CHEMBL3780780
 OpenBabel04072215373D

 62 66  0  0  0  0  0  0  0  0999 V2000
   10.6727   -1.2130   -2.3883 C   0  0  0  0  0  0  0  0  0  0  0  0
   10.1000   -1.6722   -1.1680 O   0  0  0  0  0  0  0  0  0  0  0  0
    8.9325   -2.3783   -1.2802 C   0  0  0  0  0  0  0  0  0  0  0  0
    8.2635   -2.6552   -2.4724 C   0  0  0  0  0  0  0  0  0  0  0  0
    7.0796   -3.4016   -2.4711 C   0  0  0  0  0  0  0  0  0  0  0  0
    6.5600   -3.9150   -1.2788 C   0  0  0  0  0  0  0  0  0  0  0  0
    5.2657   -4.6952   -1.2267 C   0  0  0  0  0  0  0  0  0  0  0  0
    4.8990   -5.5641   -2.4113 C   0  0  0  0  0  0  0  0  0  0  0  0
    4.0538   -4.9860   -3.2843 N   0  0  0  0  0  0  0  0  0  0  0  0
    3.4678   -5.7319   -4.2599 N   0  0  0  0  0  0  0  0  0  0  0  0
    3.6657   -7.0628   -4.3660 C   0  0  0  0  0  0  0  0  0  0  0  0
    2.8531   -7.8055   -5.2717 N   0  0  0  0  0  0  0  0  0  0  0  0
    1.7891   -7.2785   -6.0527 C   0  0  0  0  0  0  0  0  0  0  0  0
    1.4582   -7.8756   -7.2676 C   0  0  0  0  0  0  0  0  0  0  0  0
    0.4695   -7.3225   -8.0966 C   0  0  0  0  0  0  0  0  0  0  0  0
   -0.2362   -6.1681   -7.7408 C   0  0  0  0  0  0  0  0  0  0  0  0
   -1.1630   -5.5157   -8.6046 N   0  0  0  0  0  0  0  0  0  0  0  0
   -1.4943   -5.9419   -9.8819 C   0  0  0  0  0  0  0  0  0  0  0  0
   -1.0587   -6.9565  -10.4179 O   0  0  0  0  0  0  0  0  0  0  0  0
   -2.3588   -5.0761  -10.5532 N   0  0  0  0  0  0  0  0  0  0  0  0
   -2.7476   -5.4274  -11.8780 C   0  0  0  0  0  0  0  0  0  0  0  0
   -3.3240   -6.6768  -12.1418 C   0  0  0  0  0  0  0  0  0  0  0  0
   -3.6079   -7.0768  -13.4560 C   0  0  0  0  0  0  0  0  0  0  0  0
   -3.3150   -6.2319  -14.5332 C   0  0  0  0  0  0  0  0  0  0  0  0
   -3.5780   -6.6540  -15.8869 C   0  0  0  0  0  0  0  0  0  0  0  0
   -3.7843   -6.9896  -16.9851 N   0  0  0  0  0  0  0  0  0  0  0  0
   -2.7522   -4.9717  -14.2620 C   0  0  0  0  0  0  0  0  0  0  0  0
   -2.4896   -4.5611  -12.9413 C   0  0  0  0  0  0  0  0  0  0  0  0
    0.0090   -5.6377   -6.4776 C   0  0  0  0  0  0  0  0  0  0  0  0
    0.9875   -6.2040   -5.6379 C   0  0  0  0  0  0  0  0  0  0  0  0
    4.6257   -7.6978   -3.5388 C   0  0  0  0  0  0  0  0  0  0  0  0
    4.9680   -9.0742   -3.6202 C   0  0  0  0  0  0  0  0  0  0  0  0
    5.9519   -9.6369   -2.8009 C   0  0  0  0  0  0  0  0  0  0  0  0
    6.6050   -8.8502   -1.8636 C   0  0  0  0  0  0  0  0  0  0  0  0
    6.2627   -7.5068   -1.7312 C   0  0  0  0  0  0  0  0  0  0  0  0
    5.2790   -6.9089   -2.5507 C   0  0  0  0  0  0  0  0  0  0  0  0
    7.2185   -3.6001   -0.0780 C   0  0  0  0  0  0  0  0  0  0  0  0
    8.3935   -2.8408   -0.0803 C   0  0  0  0  0  0  0  0  0  0  0  0
   11.6282   -0.7320   -2.1600 H   0  0  0  0  0  0  0  0  0  0  0  0
   10.0258   -0.4669   -2.8624 H   0  0  0  0  0  0  0  0  0  0  0  0
   10.8787   -2.0461   -3.0694 H   0  0  0  0  0  0  0  0  0  0  0  0
    8.6324   -2.3010   -3.4287 H   0  0  0  0  0  0  0  0  0  0  0  0
    6.5705   -3.5655   -3.4189 H   0  0  0  0  0  0  0  0  0  0  0  0
    4.4555   -3.9683   -1.0749 H   0  0  0  0  0  0  0  0  0  0  0  0
    5.2521   -5.3238   -0.3273 H   0  0  0  0  0  0  0  0  0  0  0  0
    3.4266   -8.4450   -5.8108 H   0  0  0  0  0  0  0  0  0  0  0  0
    1.9795   -8.7602   -7.6227 H   0  0  0  0  0  0  0  0  0  0  0  0
    0.2995   -7.8311   -9.0379 H   0  0  0  0  0  0  0  0  0  0  0  0
   -1.6208   -4.6902   -8.2451 H   0  0  0  0  0  0  0  0  0  0  0  0
   -2.1823   -4.0958  -10.3824 H   0  0  0  0  0  0  0  0  0  0  0  0
   -3.5308   -7.3663  -11.3235 H   0  0  0  0  0  0  0  0  0  0  0  0
   -4.0398   -8.0621  -13.6254 H   0  0  0  0  0  0  0  0  0  0  0  0
   -2.4891   -4.3089  -15.0836 H   0  0  0  0  0  0  0  0  0  0  0  0
   -2.0086   -3.6008  -12.7729 H   0  0  0  0  0  0  0  0  0  0  0  0
   -0.5284   -4.7646   -6.1083 H   0  0  0  0  0  0  0  0  0  0  0  0
    1.1320   -5.7638   -4.6544 H   0  0  0  0  0  0  0  0  0  0  0  0
    4.4745   -9.7307   -4.3340 H   0  0  0  0  0  0  0  0  0  0  0  0
    6.2128  -10.6883   -2.8985 H   0  0  0  0  0  0  0  0  0  0  0  0
    7.3813   -9.2751   -1.2320 H   0  0  0  0  0  0  0  0  0  0  0  0
    6.7988   -6.9202   -0.9875 H   0  0  0  0  0  0  0  0  0  0  0  0
    6.8167   -3.9362    0.8762 H   0  0  0  0  0  0  0  0  0  0  0  0
    8.8877   -2.6088    0.8606 H   0  0  0  0  0  0  0  0  0  0  0  0
  1  2  1  0  0  0  0
  1 39  1  0  0  0  0
  1 40  1  0  0  0  0
  1 41  1  0  0  0  0
  2  3  1  0  0  0  0
  3  4  1  0  0  0  0
  3 38  2  0  0  0  0
  4  5  2  0  0  0  0
  4 42  1  0  0  0  0
  5  6  1  0  0  0  0
  5 43  1  0  0  0  0
  6  7  1  0  0  0  0
  6 37  2  0  0  0  0
  7  8  1  0  0  0  0
  7 44  1  0  0  0  0
  7 45  1  0  0  0  0
  8  9  1  0  0  0  0
  8 36  2  0  0  0  0
  9 10  2  0  0  0  0
 10 11  1  0  0  0  0
 11 12  1  0  0  0  0
 11 31  2  0  0  0  0
 12 13  1  0  0  0  0
 12 46  1  0  0  0  0
 13 14  1  0  0  0  0
 13 30  2  0  0  0  0
 14 15  2  0  0  0  0
 14 47  1  0  0  0  0
 15 16  1  0  0  0  0
 15 48  1  0  0  0  0
 16 17  1  0  0  0  0
 16 29  2  0  0  0  0
 17 18  1  0  0  0  0
 17 49  1  0  0  0  0
 18 19  2  0  0  0  0
 18 20  1  0  0  0  0
 20 21  1  0  0  0  0
 20 50  1  0  0  0  0
 21 22  1  0  0  0  0
 21 28  2  0  0  0  0
 22 23  2  0  0  0  0
 22 51  1  0  0  0  0
 23 24  1  0  0  0  0
 23 52  1  0  0  0  0
 24 25  1  0  0  0  0
 24 27  2  0  0  0  0
 25 26  3  0  0  0  0
 27 28  1  0  0  0  0
 27 53  1  0  0  0  0
 28 54  1  0  0  0  0
 29 30  1  0  0  0  0
 29 55  1  0  0  0  0
 30 56  1  0  0  0  0
 31 32  1  0  0  0  0
 31 36  1  0  0  0  0
 32 33  2  0  0  0  0
 32 57  1  0  0  0  0
 33 34  1  0  0  0  0
 33 58  1  0  0  0  0
 34 35  2  0  0  0  0
 34 59  1  0  0  0  0
 35 36  1  0  0  0  0
 35 60  1  0  0  0  0
 37 38  1  0  0  0  0
 37 61  1  0  0  0  0
 38 62  1  0  0  0  0
M  END
$$$$
