CHEMBL223583
 OpenBabel04072215363D

 43 46  0  0  0  0  0  0  0  0999 V2000
   -1.0095    2.0858   -3.1953 N   0  0  0  0  0  0  0  0  0  0  0  0
   -1.3128    0.9881   -2.4974 C   0  0  0  0  0  0  0  0  0  0  0  0
   -1.7135   -0.1006   -3.1328 N   0  0  0  0  0  0  0  0  0  0  0  0
   -1.9377   -0.9837   -2.1591 N   0  0  0  0  0  0  0  0  0  0  0  0
   -1.6693   -0.5240   -0.9003 C   0  0  0  0  0  0  0  0  0  0  0  0
   -1.7811   -1.1610    0.3308 C   0  0  0  0  0  0  0  0  0  0  0  0
   -1.4363   -0.4373    1.4701 C   0  0  0  0  0  0  0  0  0  0  0  0
   -0.9970    0.8817    1.3559 C   0  0  0  0  0  0  0  0  0  0  0  0
   -0.9012    1.5472    0.1141 C   0  0  0  0  0  0  0  0  0  0  0  0
   -0.4656    2.9578    0.0540 C   0  0  0  0  0  0  0  0  0  0  0  0
    0.3701    3.4125   -0.9635 C   0  0  0  0  0  0  0  0  0  0  0  0
    0.6568    4.7626   -1.1301 C   0  0  0  0  0  0  0  0  0  0  0  0
    0.2840    5.7018   -0.1779 C   0  0  0  0  0  0  0  0  0  0  0  0
    0.6949    7.0614   -0.2642 N   0  0  0  0  0  0  0  0  0  0  0  0
    1.4499    7.5964   -1.2948 C   0  0  0  0  0  0  0  0  0  0  0  0
    1.8360    6.9842   -2.2766 O   0  0  0  0  0  0  0  0  0  0  0  0
    1.7676    8.9416   -1.1137 N   0  0  0  0  0  0  0  0  0  0  0  0
    2.5505    9.5599   -2.1345 C   0  0  0  0  0  0  0  0  0  0  0  0
    2.1122    9.5746   -3.4647 C   0  0  0  0  0  0  0  0  0  0  0  0
    2.9244   10.1010   -4.4740 C   0  0  0  0  0  0  0  0  0  0  0  0
    4.1842   10.6116   -4.1628 C   0  0  0  0  0  0  0  0  0  0  0  0
    4.6254   10.6079   -2.8384 C   0  0  0  0  0  0  0  0  0  0  0  0
    3.8022   10.0983   -1.8313 C   0  0  0  0  0  0  0  0  0  0  0  0
    4.2614   10.0568   -0.5714 F   0  0  0  0  0  0  0  0  0  0  0  0
   -0.4735    5.2654    0.9059 C   0  0  0  0  0  0  0  0  0  0  0  0
   -0.8560    3.9096    1.0107 C   0  0  0  0  0  0  0  0  0  0  0  0
   -1.2354    0.8043   -1.0637 C   0  0  0  0  0  0  0  0  0  0  0  0
   -1.1495    2.0781   -4.1957 H   0  0  0  0  0  0  0  0  0  0  0  0
   -0.8804    3.0111   -2.8039 H   0  0  0  0  0  0  0  0  0  0  0  0
   -2.2803   -1.8972   -2.4190 H   0  0  0  0  0  0  0  0  0  0  0  0
   -2.1262   -2.1936    0.4195 H   0  0  0  0  0  0  0  0  0  0  0  0
   -1.5076   -0.8989    2.4492 H   0  0  0  0  0  0  0  0  0  0  0  0
   -0.7260    1.4051    2.2764 H   0  0  0  0  0  0  0  0  0  0  0  0
    0.7879    2.7208   -1.6865 H   0  0  0  0  0  0  0  0  0  0  0  0
    1.2055    5.0068   -2.0322 H   0  0  0  0  0  0  0  0  0  0  0  0
    0.4281    7.6726    0.4987 H   0  0  0  0  0  0  0  0  0  0  0  0
    2.0367    9.1788   -0.1698 H   0  0  0  0  0  0  0  0  0  0  0  0
    1.1425    9.1568   -3.7278 H   0  0  0  0  0  0  0  0  0  0  0  0
    2.5784   10.0925   -5.5048 H   0  0  0  0  0  0  0  0  0  0  0  0
    4.8232   10.9981   -4.9532 H   0  0  0  0  0  0  0  0  0  0  0  0
    5.6153   10.9800   -2.5894 H   0  0  0  0  0  0  0  0  0  0  0  0
   -0.7893    5.9477    1.6892 H   0  0  0  0  0  0  0  0  0  0  0  0
   -1.4640    3.6075    1.8628 H   0  0  0  0  0  0  0  0  0  0  0  0
  1  2  1  0  0  0  0
  1 28  1  0  0  0  0
  1 29  1  0  0  0  0
  2  3  2  0  0  0  0
  2 27  1  0  0  0  0
  3  4  1  0  0  0  0
  4  5  1  0  0  0  0
  4 30  1  0  0  0  0
  5  6  1  0  0  0  0
  5 27  2  0  0  0  0
  6  7  2  0  0  0  0
  6 31  1  0  0  0  0
  7  8  1  0  0  0  0
  7 32  1  0  0  0  0
  8  9  2  0  0  0  0
  8 33  1  0  0  0  0
  9 10  1  0  0  0  0
  9 27  1  0  0  0  0
 10 11  1  0  0  0  0
 10 26  2  0  0  0  0
 11 12  2  0  0  0  0
 11 34  1  0  0  0  0
 12 13  1  0  0  0  0
 12 35  1  0  0  0  0
 13 14  1  0  0  0  0
 13 25  2  0  0  0  0
 14 15  1  0  0  0  0
 14 36  1  0  0  0  0
 15 16  2  0  0  0  0
 15 17  1  0  0  0  0
 17 18  1  0  0  0  0
 17 37  1  0  0  0  0
 18 19  1  0  0  0  0
 18 23  2  0  0  0  0
 19 20  2  0  0  0  0
 19 38  1  0  0  0  0
 20 21  1  0  0  0  0
 20 39  1  0  0  0  0
 21 22  2  0  0  0  0
 21 40  1  0  0  0  0
 22 23  1  0  0  0  0
 22 41  1  0  0  0  0
 23 24  1  0  0  0  0
 25 26  1  0  0  0  0
 25 42  1  0  0  0  0
 26 43  1  0  0  0  0
M  END
$$$$
