CHEMBL2001239
 OpenBabel04072215363D

 44 46  0  0  0  0  0  0  0  0999 V2000
   -2.5886    3.6355    0.5767 N   0  0  0  0  0  0  0  0  0  0  0  0
   -1.2362    3.9123    0.6838 C   0  0  0  0  0  0  0  0  0  0  0  0
   -0.9195    5.0534    1.2749 N   0  0  0  0  0  0  0  0  0  0  0  0
    0.3869    5.2631    1.3745 C   0  0  0  0  0  0  0  0  0  0  0  0
    1.3340    4.4387    0.9684 N   0  0  0  0  0  0  0  0  0  0  0  0
    0.9092    3.3227    0.3853 C   0  0  0  0  0  0  0  0  0  0  0  0
    1.8329    2.4195   -0.1406 N   0  0  0  0  0  0  0  0  0  0  0  0
    3.2294    2.3877   -0.0430 C   0  0  0  0  0  0  0  0  0  0  0  0
    3.9659    1.8018   -1.0756 C   0  0  0  0  0  0  0  0  0  0  0  0
    5.3645    1.7860   -1.0425 C   0  0  0  0  0  0  0  0  0  0  0  0
    6.1432    1.1687   -2.1693 C   0  0  0  0  0  0  0  0  0  0  0  0
    6.3564    2.0942   -3.2632 N   0  0  0  0  0  0  0  0  0  0  0  0
    7.2593    3.1557   -3.2134 C   0  0  0  0  0  0  0  0  0  0  0  0
    7.8634    3.4701   -2.1846 O   0  0  0  0  0  0  0  0  0  0  0  0
    7.4407    3.9061   -4.5484 C   0  0  0  0  0  0  0  0  0  0  0  0
    6.8004    3.2749   -5.5764 F   0  0  0  0  0  0  0  0  0  0  0  0
    6.9438    5.1708   -4.5073 F   0  0  0  0  0  0  0  0  0  0  0  0
    8.7476    4.0040   -4.9112 F   0  0  0  0  0  0  0  0  0  0  0  0
    6.0200    2.3818    0.0451 C   0  0  0  0  0  0  0  0  0  0  0  0
    7.3906    2.3608    0.0396 O   0  0  0  0  0  0  0  0  0  0  0  0
    5.3353    2.9956    1.1083 C   0  0  0  0  0  0  0  0  0  0  0  0
    6.0358    3.6446    2.2523 C   0  0  0  0  0  0  0  0  0  0  0  0
    5.4997    4.7660    2.9163 C   0  0  0  0  0  0  0  0  0  0  0  0
    6.2012    5.4079    3.9457 C   0  0  0  0  0  0  0  0  0  0  0  0
    7.4601    4.9496    4.3231 C   0  0  0  0  0  0  0  0  0  0  0  0
    8.3454    5.7643    5.5489 Cl  0  0  0  0  0  0  0  0  0  0  0  0
    8.0054    3.8329    3.7077 C   0  0  0  0  0  0  0  0  0  0  0  0
    7.2853    3.1799    2.7067 C   0  0  0  0  0  0  0  0  0  0  0  0
    3.9299    2.9795    1.0241 C   0  0  0  0  0  0  0  0  0  0  0  0
   -0.3776    3.0182    0.2273 N   0  0  0  0  0  0  0  0  0  0  0  0
   -3.1053    4.1775    1.2581 H   0  0  0  0  0  0  0  0  0  0  0  0
   -2.7488    2.6388    0.5647 H   0  0  0  0  0  0  0  0  0  0  0  0
    0.7089    6.1952    1.8257 H   0  0  0  0  0  0  0  0  0  0  0  0
    1.3822    1.7767   -0.7728 H   0  0  0  0  0  0  0  0  0  0  0  0
    3.4467    1.3608   -1.9232 H   0  0  0  0  0  0  0  0  0  0  0  0
    5.5901    0.3111   -2.5704 H   0  0  0  0  0  0  0  0  0  0  0  0
    7.1099    0.7817   -1.8296 H   0  0  0  0  0  0  0  0  0  0  0  0
    5.8285    1.9536   -4.1181 H   0  0  0  0  0  0  0  0  0  0  0  0
    7.6677    3.0822   -0.5707 H   0  0  0  0  0  0  0  0  0  0  0  0
    4.5315    5.1731    2.6300 H   0  0  0  0  0  0  0  0  0  0  0  0
    5.7634    6.2731    4.4362 H   0  0  0  0  0  0  0  0  0  0  0  0
    8.9864    3.4597    3.9871 H   0  0  0  0  0  0  0  0  0  0  0  0
    7.7392    2.2924    2.2693 H   0  0  0  0  0  0  0  0  0  0  0  0
    3.3574    3.4156    1.8383 H   0  0  0  0  0  0  0  0  0  0  0  0
  1  2  1  0  0  0  0
  1 31  1  0  0  0  0
  1 32  1  0  0  0  0
  2  3  1  0  0  0  0
  2 30  2  0  0  0  0
  3  4  2  0  0  0  0
  4  5  1  0  0  0  0
  4 33  1  0  0  0  0
  5  6  2  0  0  0  0
  6  7  1  0  0  0  0
  6 30  1  0  0  0  0
  7  8  1  0  0  0  0
  7 34  1  0  0  0  0
  8  9  1  0  0  0  0
  8 29  2  0  0  0  0
  9 10  2  0  0  0  0
  9 35  1  0  0  0  0
 10 11  1  0  0  0  0
 10 19  1  0  0  0  0
 11 12  1  0  0  0  0
 11 36  1  0  0  0  0
 11 37  1  0  0  0  0
 12 13  1  0  0  0  0
 12 38  1  0  0  0  0
 13 14  2  0  0  0  0
 13 15  1  0  0  0  0
 15 16  1  0  0  0  0
 15 17  1  0  0  0  0
 15 18  1  0  0  0  0
 19 20  1  0  0  0  0
 19 21  2  0  0  0  0
 20 39  1  0  0  0  0
 21 22  1  0  0  0  0
 21 29  1  0  0  0  0
 22 23  1  0  0  0  0
 22 28  2  0  0  0  0
 23 24  2  0  0  0  0
 23 40  1  0  0  0  0
 24 25  1  0  0  0  0
 24 41  1  0  0  0  0
 25 26  1  0  0  0  0
 25 27  2  0  0  0  0
 27 28  1  0  0  0  0
 27 42  1  0  0  0  0
 28 43  1  0  0  0  0
 29 44  1  0  0  0  0
M  END
$$$$
