CHEMBL2016898
 OpenBabel04072215363D

 45 49  0  0  0  0  0  0  0  0999 V2000
    2.6044    0.2899   -0.8885 O   0  0  0  0  0  0  0  0  0  0  0  0
    2.2088   -0.1166    0.1949 C   0  0  0  0  0  0  0  0  0  0  0  0
    0.7913   -0.6687    0.2713 C   0  0  0  0  0  0  0  0  0  0  0  0
    0.0327   -1.0213    1.4016 C   0  0  0  0  0  0  0  0  0  0  0  0
   -1.2827   -1.4720    1.3215 C   0  0  0  0  0  0  0  0  0  0  0  0
   -1.8557   -1.5479    0.0785 C   0  0  0  0  0  0  0  0  0  0  0  0
   -1.1968   -1.2230   -1.0491 N   0  0  0  0  0  0  0  0  0  0  0  0
    0.0908   -0.7971   -0.9289 C   0  0  0  0  0  0  0  0  0  0  0  0
    3.0567   -0.0016    1.3445 N   0  0  0  0  0  0  0  0  0  0  0  0
    2.5708   -0.4423    2.6506 C   0  0  0  0  0  0  0  0  0  0  0  0
    3.4681   -0.5201    3.8589 C   0  0  0  0  0  0  0  0  0  0  0  0
    4.6248    0.3391    3.6850 C   0  0  0  0  0  0  0  0  0  0  0  0
    5.5033    0.5866    4.6769 N   0  0  0  0  0  0  0  0  0  0  0  0
    6.3445    1.4747    4.1794 C   0  0  0  0  0  0  0  0  0  0  0  0
    7.3758    2.1722    4.8714 C   0  0  0  0  0  0  0  0  0  0  0  0
    7.7321    1.6919    6.0769 C   0  0  0  0  0  0  0  0  0  0  0  0
    8.4245    2.5510    7.0303 C   0  0  0  0  0  0  0  0  0  0  0  0
    8.6618    2.1115    8.3264 C   0  0  0  0  0  0  0  0  0  0  0  0
    8.6051    3.0412    9.3549 C   0  0  0  0  0  0  0  0  0  0  0  0
    8.6862    4.4016    9.0563 C   0  0  0  0  0  0  0  0  0  0  0  0
    8.8097    4.8221    7.7305 C   0  0  0  0  0  0  0  0  0  0  0  0
    8.5737    3.9015    6.7158 C   0  0  0  0  0  0  0  0  0  0  0  0
    8.4216    4.3139    5.3885 N   0  0  0  0  0  0  0  0  0  0  0  0
    7.8688    3.5042    4.4157 C   0  0  0  0  0  0  0  0  0  0  0  0
    7.7276    3.8882    3.2619 O   0  0  0  0  0  0  0  0  0  0  0  0
    6.0321    1.7532    2.8561 N   0  0  0  0  0  0  0  0  0  0  0  0
    4.9315    1.0113    2.5381 C   0  0  0  0  0  0  0  0  0  0  0  0
    4.1596    0.9772    1.2557 C   0  0  0  0  0  0  0  0  0  0  0  0
    0.3672   -0.9595    2.4205 H   0  0  0  0  0  0  0  0  0  0  0  0
   -1.8297   -1.7299    2.2200 H   0  0  0  0  0  0  0  0  0  0  0  0
   -2.8919   -1.8557   -0.0366 H   0  0  0  0  0  0  0  0  0  0  0  0
    0.5644   -0.5528   -1.8784 H   0  0  0  0  0  0  0  0  0  0  0  0
    2.2082   -1.4636    2.5071 H   0  0  0  0  0  0  0  0  0  0  0  0
    1.7779    0.2694    2.8899 H   0  0  0  0  0  0  0  0  0  0  0  0
    3.7796   -1.5507    4.0491 H   0  0  0  0  0  0  0  0  0  0  0  0
    2.8784   -0.2076    4.7363 H   0  0  0  0  0  0  0  0  0  0  0  0
    7.2926    0.7730    6.4669 H   0  0  0  0  0  0  0  0  0  0  0  0
    8.8201    1.0582    8.5431 H   0  0  0  0  0  0  0  0  0  0  0  0
    8.4887    2.7041   10.3827 H   0  0  0  0  0  0  0  0  0  0  0  0
    8.6757    5.1295    9.8636 H   0  0  0  0  0  0  0  0  0  0  0  0
    8.9752    5.8730    7.5105 H   0  0  0  0  0  0  0  0  0  0  0  0
    8.6468    5.2566    5.1116 H   0  0  0  0  0  0  0  0  0  0  0  0
    6.5230    2.4349    2.2920 H   0  0  0  0  0  0  0  0  0  0  0  0
    4.8106    0.7150    0.4112 H   0  0  0  0  0  0  0  0  0  0  0  0
    3.7173    1.9560    1.0571 H   0  0  0  0  0  0  0  0  0  0  0  0
  1  2  2  0  0  0  0
  2  3  1  0  0  0  0
  2  9  1  0  0  0  0
  3  4  1  0  0  0  0
  3  8  2  0  0  0  0
  4  5  2  0  0  0  0
  4 29  1  0  0  0  0
  5  6  1  0  0  0  0
  5 30  1  0  0  0  0
  6  7  2  0  0  0  0
  6 31  1  0  0  0  0
  7  8  1  0  0  0  0
  8 32  1  0  0  0  0
  9 10  1  0  0  0  0
  9 28  1  0  0  0  0
 10 11  1  0  0  0  0
 10 33  1  0  0  0  0
 10 34  1  0  0  0  0
 11 12  1  0  0  0  0
 11 35  1  0  0  0  0
 11 36  1  0  0  0  0
 12 13  1  0  0  0  0
 12 27  2  0  0  0  0
 13 14  2  0  0  0  0
 14 15  1  0  0  0  0
 14 26  1  0  0  0  0
 15 16  2  0  0  0  0
 15 24  1  0  0  0  0
 16 17  1  0  0  0  0
 16 37  1  0  0  0  0
 17 18  1  0  0  0  0
 17 22  2  0  0  0  0
 18 19  2  0  0  0  0
 18 38  1  0  0  0  0
 19 20  1  0  0  0  0
 19 39  1  0  0  0  0
 20 21  2  0  0  0  0
 20 40  1  0  0  0  0
 21 22  1  0  0  0  0
 21 41  1  0  0  0  0
 22 23  1  0  0  0  0
 23 24  1  0  0  0  0
 23 42  1  0  0  0  0
 24 25  2  0  0  0  0
 26 27  1  0  0  0  0
 26 43  1  0  0  0  0
 27 28  1  0  0  0  0
 28 44  1  0  0  0  0
 28 45  1  0  0  0  0
M  END
$$$$
