CHEMBL4530048
 OpenBabel04072215383D

 52 55  0  0  0  0  0  0  0  0999 V2000
    3.2985   -1.0963   -1.1420 C   0  0  0  0  0  0  0  0  0  0  0  0
    3.5089    0.2651   -0.7850 O   0  0  0  0  0  0  0  0  0  0  0  0
    4.0160    0.4969    0.4637 C   0  0  0  0  0  0  0  0  0  0  0  0
    4.2958   -0.4789    1.4181 C   0  0  0  0  0  0  0  0  0  0  0  0
    4.8406   -0.1207    2.6539 C   0  0  0  0  0  0  0  0  0  0  0  0
    5.1016    1.2238    2.9507 C   0  0  0  0  0  0  0  0  0  0  0  0
    5.6832    1.5887    4.1938 N   0  0  0  0  0  0  0  0  0  0  0  0
    6.1147    0.7394    5.1841 C   0  0  0  0  0  0  0  0  0  0  0  0
    6.6846    1.5035    6.1652 C   0  0  0  0  0  0  0  0  0  0  0  0
    7.3038    1.0726    7.3211 N   0  0  0  0  0  0  0  0  0  0  0  0
    7.4362   -0.2579    7.6918 C   0  0  0  0  0  0  0  0  0  0  0  0
    7.0454   -1.2355    7.0688 O   0  0  0  0  0  0  0  0  0  0  0  0
    8.1634   -0.4801    8.9694 C   0  0  0  0  0  0  0  0  0  0  0  0
    8.8804   -1.6714    9.1411 C   0  0  0  0  0  0  0  0  0  0  0  0
    9.6231   -1.8761   10.3039 C   0  0  0  0  0  0  0  0  0  0  0  0
    9.6578   -0.8862   11.2876 C   0  0  0  0  0  0  0  0  0  0  0  0
    8.9119    0.2811   11.1280 C   0  0  0  0  0  0  0  0  0  0  0  0
    8.9574    1.2957   12.1147 N   0  0  0  0  0  0  0  0  0  0  0  0
   10.1953    2.4398   12.0754 S   0  0  0  0  0  0  0  0  0  0  0  0
    9.9238    3.3549   13.1653 O   0  0  0  0  0  0  0  0  0  0  0  0
   11.4657    1.7592   11.9615 O   0  0  0  0  0  0  0  0  0  0  0  0
    9.9193    3.3488   10.5597 C   0  0  0  0  0  0  0  0  0  0  0  0
    9.0643    4.4585   10.5708 C   0  0  0  0  0  0  0  0  0  0  0  0
    8.9687    5.2727    9.4389 C   0  0  0  0  0  0  0  0  0  0  0  0
    9.7269    4.9834    8.3039 C   0  0  0  0  0  0  0  0  0  0  0  0
   10.5729    3.8730    8.2912 C   0  0  0  0  0  0  0  0  0  0  0  0
   10.6750    3.0534    9.4200 C   0  0  0  0  0  0  0  0  0  0  0  0
    8.1462    0.4792    9.9867 C   0  0  0  0  0  0  0  0  0  0  0  0
    6.5059    2.8254    5.7192 C   0  0  0  0  0  0  0  0  0  0  0  0
    5.9047    2.8899    4.5291 N   0  0  0  0  0  0  0  0  0  0  0  0
    4.8024    2.2074    2.0017 C   0  0  0  0  0  0  0  0  0  0  0  0
    4.2650    1.8387    0.7644 C   0  0  0  0  0  0  0  0  0  0  0  0
    2.9802   -1.1239   -2.1880 H   0  0  0  0  0  0  0  0  0  0  0  0
    2.5009   -1.5382   -0.5353 H   0  0  0  0  0  0  0  0  0  0  0  0
    4.2227   -1.6795   -1.0634 H   0  0  0  0  0  0  0  0  0  0  0  0
    4.1085   -1.5320    1.2375 H   0  0  0  0  0  0  0  0  0  0  0  0
    5.0455   -0.9218    3.3576 H   0  0  0  0  0  0  0  0  0  0  0  0
    6.0240   -0.3312    5.0985 H   0  0  0  0  0  0  0  0  0  0  0  0
    7.7465    1.7979    7.8698 H   0  0  0  0  0  0  0  0  0  0  0  0
    8.8707   -2.4364    8.3651 H   0  0  0  0  0  0  0  0  0  0  0  0
   10.1819   -2.8000   10.4375 H   0  0  0  0  0  0  0  0  0  0  0  0
   10.2546   -1.0396   12.1842 H   0  0  0  0  0  0  0  0  0  0  0  0
    8.0806    1.6602   12.4832 H   0  0  0  0  0  0  0  0  0  0  0  0
    8.5077    4.7264   11.4666 H   0  0  0  0  0  0  0  0  0  0  0  0
    8.3358    6.1583    9.4546 H   0  0  0  0  0  0  0  0  0  0  0  0
    9.6846    5.6443    7.4395 H   0  0  0  0  0  0  0  0  0  0  0  0
   11.1853    3.6718    7.4141 H   0  0  0  0  0  0  0  0  0  0  0  0
   11.3731    2.2192    9.4141 H   0  0  0  0  0  0  0  0  0  0  0  0
    7.5420    1.3756    9.9024 H   0  0  0  0  0  0  0  0  0  0  0  0
    6.7907    3.7484    6.2073 H   0  0  0  0  0  0  0  0  0  0  0  0
    4.9954    3.2595    2.2017 H   0  0  0  0  0  0  0  0  0  0  0  0
    4.0474    2.6054    0.0248 H   0  0  0  0  0  0  0  0  0  0  0  0
  1  2  1  0  0  0  0
  1 33  1  0  0  0  0
  1 34  1  0  0  0  0
  1 35  1  0  0  0  0
  2  3  1  0  0  0  0
  3  4  1  0  0  0  0
  3 32  2  0  0  0  0
  4  5  2  0  0  0  0
  4 36  1  0  0  0  0
  5  6  1  0  0  0  0
  5 37  1  0  0  0  0
  6  7  1  0  0  0  0
  6 31  2  0  0  0  0
  7  8  1  0  0  0  0
  7 30  1  0  0  0  0
  8  9  2  0  0  0  0
  8 38  1  0  0  0  0
  9 10  1  0  0  0  0
  9 29  1  0  0  0  0
 10 11  1  0  0  0  0
 10 39  1  0  0  0  0
 11 12  2  0  0  0  0
 11 13  1  0  0  0  0
 13 14  1  0  0  0  0
 13 28  2  0  0  0  0
 14 15  2  0  0  0  0
 14 40  1  0  0  0  0
 15 16  1  0  0  0  0
 15 41  1  0  0  0  0
 16 17  2  0  0  0  0
 16 42  1  0  0  0  0
 17 18  1  0  0  0  0
 17 28  1  0  0  0  0
 18 19  1  0  0  0  0
 18 43  1  0  0  0  0
 19 20  2  0  0  0  0
 19 21  2  0  0  0  0
 19 22  1  0  0  0  0
 22 23  1  0  0  0  0
 22 27  2  0  0  0  0
 23 24  2  0  0  0  0
 23 44  1  0  0  0  0
 24 25  1  0  0  0  0
 24 45  1  0  0  0  0
 25 26  2  0  0  0  0
 25 46  1  0  0  0  0
 26 27  1  0  0  0  0
 26 47  1  0  0  0  0
 27 48  1  0  0  0  0
 28 49  1  0  0  0  0
 29 30  2  0  0  0  0
 29 50  1  0  0  0  0
 31 32  1  0  0  0  0
 31 51  1  0  0  0  0
 32 52  1  0  0  0  0
M  END
$$$$
