CHEMBL3220320
 OpenBabel04072215363D

 79 82  0  0  0  0  0  0  0  0999 V2000
    2.5352    0.0926    1.8305 C   0  0  0  0  0  0  0  0  0  0  0  0
    3.4823   -0.0642    0.7805 O   0  0  0  0  0  0  0  0  0  0  0  0
    3.5608    0.9295   -0.1607 C   0  0  0  0  0  0  0  0  0  0  0  0
    3.1557    2.2508    0.0831 C   0  0  0  0  0  0  0  0  0  0  0  0
    3.4312    3.3236   -0.8050 C   0  0  0  0  0  0  0  0  0  0  0  0
    3.0915    4.7341   -0.4204 C   0  0  0  0  0  0  0  0  0  0  0  0
    3.1597    5.0593    0.9527 C   0  0  0  0  0  0  0  0  0  0  0  0
    2.8219    6.3002    1.4911 C   0  0  0  0  0  0  0  0  0  0  0  0
    2.8065    6.5468    2.8903 N   0  0  0  0  0  0  0  0  0  0  0  0
    3.1406    5.6276    3.8764 C   0  0  0  0  0  0  0  0  0  0  0  0
    3.5675    4.4954    3.6720 O   0  0  0  0  0  0  0  0  0  0  0  0
    2.8966    6.1071    5.1618 N   0  0  0  0  0  0  0  0  0  0  0  0
    3.2502    5.3047    6.2772 C   0  0  0  0  0  0  0  0  0  0  0  0
    4.4858    4.6564    6.3291 C   0  0  0  0  0  0  0  0  0  0  0  0
    4.7994    3.8029    7.3816 C   0  0  0  0  0  0  0  0  0  0  0  0
    3.8748    3.5813    8.4079 C   0  0  0  0  0  0  0  0  0  0  0  0
    4.0628    2.7290    9.4704 O   0  0  0  0  0  0  0  0  0  0  0  0
    5.4368    2.5174    9.8165 C   0  0  0  0  0  0  0  0  0  0  0  0
    5.5765    1.5359   10.9954 C   0  0  0  0  0  0  0  0  0  0  0  0
    6.9687    1.3967   11.4886 N   0  0  0  0  0  0  0  0  0  0  0  0
    7.0166    0.4509   12.6170 C   0  0  0  0  0  0  0  0  0  0  0  0
    8.4293    0.3357   13.1977 C   0  0  0  0  0  0  0  0  0  0  0  0
    9.4417   -0.0564   12.1287 C   0  0  0  0  0  0  0  0  0  0  0  0
    9.3419    0.8907   10.9437 C   0  0  0  0  0  0  0  0  0  0  0  0
    7.9058    0.9883   10.4287 C   0  0  0  0  0  0  0  0  0  0  0  0
    2.6423    4.2326    8.3546 C   0  0  0  0  0  0  0  0  0  0  0  0
    2.3381    5.1195    7.3125 C   0  0  0  0  0  0  0  0  0  0  0  0
    2.4558    7.3084    0.6066 C   0  0  0  0  0  0  0  0  0  0  0  0
    2.4230    7.0600   -0.7806 C   0  0  0  0  0  0  0  0  0  0  0  0
    1.9810    8.0454   -1.6330 O   0  0  0  0  0  0  0  0  0  0  0  0
    2.6280    9.3050   -1.4577 C   0  0  0  0  0  0  0  0  0  0  0  0
    2.7214    5.7754   -1.3021 C   0  0  0  0  0  0  0  0  0  0  0  0
    2.6111    5.4340   -2.6296 O   0  0  0  0  0  0  0  0  0  0  0  0
    2.9003    6.4379   -3.5956 C   0  0  0  0  0  0  0  0  0  0  0  0
    4.1119    2.9949   -1.9827 C   0  0  0  0  0  0  0  0  0  0  0  0
    4.4587    1.6683   -2.2776 C   0  0  0  0  0  0  0  0  0  0  0  0
    4.1702    0.6269   -1.3821 C   0  0  0  0  0  0  0  0  0  0  0  0
    4.4998   -0.7722   -1.8077 C   0  0  0  0  0  0  0  0  0  0  0  0
    3.6002   -1.9125   -1.3585 C   0  0  0  0  0  0  0  0  0  0  0  0
    5.5138   -0.9658   -2.6043 N   0  0  0  0  0  0  0  0  0  0  0  0
    5.6500   -2.3183   -2.9401 O   0  0  0  0  0  0  0  0  0  0  0  0
    2.5319   -0.8340    2.4132 H   0  0  0  0  0  0  0  0  0  0  0  0
    1.5286    0.2367    1.4249 H   0  0  0  0  0  0  0  0  0  0  0  0
    2.8129    0.9040    2.5102 H   0  0  0  0  0  0  0  0  0  0  0  0
    2.6412    2.4718    1.0136 H   0  0  0  0  0  0  0  0  0  0  0  0
    3.5047    4.2771    1.6149 H   0  0  0  0  0  0  0  0  0  0  0  0
    2.5906    7.4847    3.1936 H   0  0  0  0  0  0  0  0  0  0  0  0
    2.0571    6.6557    5.2506 H   0  0  0  0  0  0  0  0  0  0  0  0
    5.2211    4.7921    5.5320 H   0  0  0  0  0  0  0  0  0  0  0  0
    5.7624    3.3022    7.3485 H   0  0  0  0  0  0  0  0  0  0  0  0
    5.8871    3.4801   10.0885 H   0  0  0  0  0  0  0  0  0  0  0  0
    5.9571    2.0764    8.9632 H   0  0  0  0  0  0  0  0  0  0  0  0
    5.1678    0.5610   10.6964 H   0  0  0  0  0  0  0  0  0  0  0  0
    4.9366    1.8935   11.8128 H   0  0  0  0  0  0  0  0  0  0  0  0
    6.6703   -0.5430   12.3039 H   0  0  0  0  0  0  0  0  0  0  0  0
    6.3486    0.7918   13.4171 H   0  0  0  0  0  0  0  0  0  0  0  0
    8.4407   -0.4075   14.0029 H   0  0  0  0  0  0  0  0  0  0  0  0
    8.7227    1.2948   13.6429 H   0  0  0  0  0  0  0  0  0  0  0  0
    9.2489   -1.0832   11.7949 H   0  0  0  0  0  0  0  0  0  0  0  0
   10.4565   -0.0356   12.5410 H   0  0  0  0  0  0  0  0  0  0  0  0
    9.9999    0.5489   10.1366 H   0  0  0  0  0  0  0  0  0  0  0  0
    9.6931    1.8878   11.2395 H   0  0  0  0  0  0  0  0  0  0  0  0
    7.6000    0.0305    9.9889 H   0  0  0  0  0  0  0  0  0  0  0  0
    7.9233    1.7309    9.6246 H   0  0  0  0  0  0  0  0  0  0  0  0
    1.8998    4.0383    9.1277 H   0  0  0  0  0  0  0  0  0  0  0  0
    1.3605    5.5939    7.2893 H   0  0  0  0  0  0  0  0  0  0  0  0
    2.1598    8.2812    0.9842 H   0  0  0  0  0  0  0  0  0  0  0  0
    2.6615    9.8003   -2.4340 H   0  0  0  0  0  0  0  0  0  0  0  0
    3.6588    9.2073   -1.0997 H   0  0  0  0  0  0  0  0  0  0  0  0
    2.0417    9.9328   -0.7800 H   0  0  0  0  0  0  0  0  0  0  0  0
    3.2073    5.9347   -4.5181 H   0  0  0  0  0  0  0  0  0  0  0  0
    3.7281    7.0884   -3.2922 H   0  0  0  0  0  0  0  0  0  0  0  0
    1.9995    7.0133   -3.8284 H   0  0  0  0  0  0  0  0  0  0  0  0
    4.3971    3.7672   -2.6927 H   0  0  0  0  0  0  0  0  0  0  0  0
    4.9639    1.4550   -3.2174 H   0  0  0  0  0  0  0  0  0  0  0  0
    2.7211   -1.5819   -0.8051 H   0  0  0  0  0  0  0  0  0  0  0  0
    4.1755   -2.6065   -0.7381 H   0  0  0  0  0  0  0  0  0  0  0  0
    3.2245   -2.4433   -2.2387 H   0  0  0  0  0  0  0  0  0  0  0  0
    6.4181   -2.3097   -3.5391 H   0  0  0  0  0  0  0  0  0  0  0  0
  1  2  1  0  0  0  0
  1 42  1  0  0  0  0
  1 43  1  0  0  0  0
  1 44  1  0  0  0  0
  2  3  1  0  0  0  0
  3  4  1  0  0  0  0
  3 37  2  0  0  0  0
  4  5  2  0  0  0  0
  4 45  1  0  0  0  0
  5  6  1  0  0  0  0
  5 35  1  0  0  0  0
  6  7  1  0  0  0  0
  6 32  2  0  0  0  0
  7  8  2  0  0  0  0
  7 46  1  0  0  0  0
  8  9  1  0  0  0  0
  8 28  1  0  0  0  0
  9 10  1  0  0  0  0
  9 47  1  0  0  0  0
 10 11  2  0  0  0  0
 10 12  1  0  0  0  0
 12 13  1  0  0  0  0
 12 48  1  0  0  0  0
 13 14  1  0  0  0  0
 13 27  2  0  0  0  0
 14 15  2  0  0  0  0
 14 49  1  0  0  0  0
 15 16  1  0  0  0  0
 15 50  1  0  0  0  0
 16 17  1  0  0  0  0
 16 26  2  0  0  0  0
 17 18  1  0  0  0  0
 18 19  1  0  0  0  0
 18 51  1  0  0  0  0
 18 52  1  0  0  0  0
 19 20  1  0  0  0  0
 19 53  1  0  0  0  0
 19 54  1  0  0  0  0
 20 21  1  0  0  0  0
 20 25  1  0  0  0  0
 21 22  1  0  0  0  0
 21 55  1  0  0  0  0
 21 56  1  0  0  0  0
 22 23  1  0  0  0  0
 22 57  1  0  0  0  0
 22 58  1  0  0  0  0
 23 24  1  0  0  0  0
 23 59  1  0  0  0  0
 23 60  1  0  0  0  0
 24 25  1  0  0  0  0
 24 61  1  0  0  0  0
 24 62  1  0  0  0  0
 25 63  1  0  0  0  0
 25 64  1  0  0  0  0
 26 27  1  0  0  0  0
 26 65  1  0  0  0  0
 27 66  1  0  0  0  0
 28 29  2  0  0  0  0
 28 67  1  0  0  0  0
 29 30  1  0  0  0  0
 29 32  1  0  0  0  0
 30 31  1  0  0  0  0
 31 68  1  0  0  0  0
 31 69  1  0  0  0  0
 31 70  1  0  0  0  0
 32 33  1  0  0  0  0
 33 34  1  0  0  0  0
 34 71  1  0  0  0  0
 34 72  1  0  0  0  0
 34 73  1  0  0  0  0
 35 36  2  0  0  0  0
 35 74  1  0  0  0  0
 36 37  1  0  0  0  0
 36 75  1  0  0  0  0
 37 38  1  0  0  0  0
 38 39  1  0  0  0  0
 38 40  2  0  0  0  0
 39 76  1  0  0  0  0
 39 77  1  0  0  0  0
 39 78  1  0  0  0  0
 40 41  1  0  0  0  0
 41 79  1  0  0  0  0
M  END
$$$$
