CHEMBL3889841
 OpenBabel04072215373D

 61 66  0  0  0  0  0  0  0  0999 V2000
    1.7755   -0.7092   -1.3579 C   0  0  0  0  0  0  0  0  0  0  0  0
    2.2891   -0.1374   -0.1061 N   0  0  0  0  0  0  0  0  0  0  0  0
    2.0320    1.2132    0.2188 C   0  0  0  0  0  0  0  0  0  0  0  0
    1.6669    2.1702   -0.7415 C   0  0  0  0  0  0  0  0  0  0  0  0
    1.2953    3.4657   -0.3826 C   0  0  0  0  0  0  0  0  0  0  0  0
    1.2807    3.8367    0.9551 C   0  0  0  0  0  0  0  0  0  0  0  0
    1.6483    2.9294    1.9487 C   0  0  0  0  0  0  0  0  0  0  0  0
    1.5665    3.2420    3.3334 N   0  0  0  0  0  0  0  0  0  0  0  0
    0.8061    4.2777    3.8561 C   0  0  0  0  0  0  0  0  0  0  0  0
    0.0787    5.0296    3.2093 O   0  0  0  0  0  0  0  0  0  0  0  0
    0.8105    4.4652    5.3328 C   0  0  0  0  0  0  0  0  0  0  0  0
    1.9137    4.1908    6.1397 C   0  0  0  0  0  0  0  0  0  0  0  0
    1.8761    4.4933    7.5035 C   0  0  0  0  0  0  0  0  0  0  0  0
    0.7427    5.0889    8.0604 C   0  0  0  0  0  0  0  0  0  0  0  0
   -0.3637    5.3649    7.2637 C   0  0  0  0  0  0  0  0  0  0  0  0
   -0.3298    5.0533    5.9056 C   0  0  0  0  0  0  0  0  0  0  0  0
    2.0701    1.6425    1.5676 C   0  0  0  0  0  0  0  0  0  0  0  0
    3.1524   -1.0352    0.5800 C   0  0  0  0  0  0  0  0  0  0  0  0
    2.7425   -2.3335    0.9518 C   0  0  0  0  0  0  0  0  0  0  0  0
    3.6137   -3.2534    1.5837 C   0  0  0  0  0  0  0  0  0  0  0  0
    4.9763   -2.9120    1.6717 C   0  0  0  0  0  0  0  0  0  0  0  0
    6.2305   -3.4411    2.1452 C   0  0  0  0  0  0  0  0  0  0  0  0
    6.7794   -3.3665    3.4993 C   0  0  0  0  0  0  0  0  0  0  0  0
    6.3219   -2.5129    4.4208 C   0  0  0  0  0  0  0  0  0  0  0  0
    7.1898   -1.6555    5.2634 C   0  0  0  0  0  0  0  0  0  0  0  0
    8.3480   -1.0302    4.7202 C   0  0  0  0  0  0  0  0  0  0  0  0
    8.9986    0.0123    5.3932 C   0  0  0  0  0  0  0  0  0  0  0  0
    8.4751    0.4086    6.6039 C   0  0  0  0  0  0  0  0  0  0  0  0
    7.3708   -0.1895    7.1419 C   0  0  0  0  0  0  0  0  0  0  0  0
    6.7047   -1.2249    6.5042 C   0  0  0  0  0  0  0  0  0  0  0  0
    6.9844    0.3844    8.3131 O   0  0  0  0  0  0  0  0  0  0  0  0
    7.9738    1.4286    8.4405 C   0  0  0  0  0  0  0  0  0  0  0  0
    8.9240    1.4549    7.3590 O   0  0  0  0  0  0  0  0  0  0  0  0
    7.1494   -3.0820    1.2175 N   0  0  0  0  0  0  0  0  0  0  0  0
    6.6980   -1.8673    0.8784 N   0  0  0  0  0  0  0  0  0  0  0  0
    5.3627   -1.7083    1.1022 C   0  0  0  0  0  0  0  0  0  0  0  0
    4.4931   -0.6747    0.7510 C   0  0  0  0  0  0  0  0  0  0  0  0
    1.2693    0.0025   -2.0137 H   0  0  0  0  0  0  0  0  0  0  0  0
    1.0336   -1.4851   -1.1441 H   0  0  0  0  0  0  0  0  0  0  0  0
    2.5877   -1.1506   -1.9499 H   0  0  0  0  0  0  0  0  0  0  0  0
    1.6659    1.9463   -1.8041 H   0  0  0  0  0  0  0  0  0  0  0  0
    0.9958    4.1823   -1.1423 H   0  0  0  0  0  0  0  0  0  0  0  0
    0.9801    4.8534    1.1899 H   0  0  0  0  0  0  0  0  0  0  0  0
    1.9381    2.5525    3.9752 H   0  0  0  0  0  0  0  0  0  0  0  0
    2.8272    3.7613    5.7228 H   0  0  0  0  0  0  0  0  0  0  0  0
    2.7411    4.2992    8.1325 H   0  0  0  0  0  0  0  0  0  0  0  0
    0.7252    5.3560    9.1155 H   0  0  0  0  0  0  0  0  0  0  0  0
   -1.2470    5.8393    7.6867 H   0  0  0  0  0  0  0  0  0  0  0  0
   -1.1904    5.2926    5.2830 H   0  0  0  0  0  0  0  0  0  0  0  0
    2.3587    0.9286    2.3330 H   0  0  0  0  0  0  0  0  0  0  0  0
    1.7214   -2.6497    0.7432 H   0  0  0  0  0  0  0  0  0  0  0  0
    3.2601   -4.2423    1.8574 H   0  0  0  0  0  0  0  0  0  0  0  0
    7.8329   -3.6676    3.5415 H   0  0  0  0  0  0  0  0  0  0  0  0
    5.2909   -2.1508    4.3654 H   0  0  0  0  0  0  0  0  0  0  0  0
    8.7116   -1.3054    3.7313 H   0  0  0  0  0  0  0  0  0  0  0  0
    9.8569    0.5194    4.9618 H   0  0  0  0  0  0  0  0  0  0  0  0
    5.8111   -1.6459    6.9382 H   0  0  0  0  0  0  0  0  0  0  0  0
    8.5122    1.2884    9.3827 H   0  0  0  0  0  0  0  0  0  0  0  0
    7.4533    2.3979    8.4772 H   0  0  0  0  0  0  0  0  0  0  0  0
    7.3177   -1.2417    0.3860 H   0  0  0  0  0  0  0  0  0  0  0  0
    4.8585    0.2966    0.4264 H   0  0  0  0  0  0  0  0  0  0  0  0
  1  2  1  0  0  0  0
  1 38  1  0  0  0  0
  1 39  1  0  0  0  0
  1 40  1  0  0  0  0
  2  3  1  0  0  0  0
  2 18  1  0  0  0  0
  3  4  1  0  0  0  0
  3 17  2  0  0  0  0
  4  5  2  0  0  0  0
  4 41  1  0  0  0  0
  5  6  1  0  0  0  0
  5 42  1  0  0  0  0
  6  7  2  0  0  0  0
  6 43  1  0  0  0  0
  7  8  1  0  0  0  0
  7 17  1  0  0  0  0
  8  9  1  0  0  0  0
  8 44  1  0  0  0  0
  9 10  2  0  0  0  0
  9 11  1  0  0  0  0
 11 12  1  0  0  0  0
 11 16  2  0  0  0  0
 12 13  2  0  0  0  0
 12 45  1  0  0  0  0
 13 14  1  0  0  0  0
 13 46  1  0  0  0  0
 14 15  2  0  0  0  0
 14 47  1  0  0  0  0
 15 16  1  0  0  0  0
 15 48  1  0  0  0  0
 16 49  1  0  0  0  0
 17 50  1  0  0  0  0
 18 19  1  0  0  0  0
 18 37  2  0  0  0  0
 19 20  2  0  0  0  0
 19 51  1  0  0  0  0
 20 21  1  0  0  0  0
 20 52  1  0  0  0  0
 21 22  1  0  0  0  0
 21 36  2  0  0  0  0
 22 23  1  0  0  0  0
 22 34  2  0  0  0  0
 23 24  2  0  0  0  0
 23 53  1  0  0  0  0
 24 25  1  0  0  0  0
 24 54  1  0  0  0  0
 25 26  1  0  0  0  0
 25 30  2  0  0  0  0
 26 27  2  0  0  0  0
 26 55  1  0  0  0  0
 27 28  1  0  0  0  0
 27 56  1  0  0  0  0
 28 29  2  0  0  0  0
 28 33  1  0  0  0  0
 29 30  1  0  0  0  0
 29 31  1  0  0  0  0
 30 57  1  0  0  0  0
 31 32  1  0  0  0  0
 32 33  1  0  0  0  0
 32 58  1  0  0  0  0
 32 59  1  0  0  0  0
 34 35  1  0  0  0  0
 35 36  1  0  0  0  0
 35 60  1  0  0  0  0
 36 37  1  0  0  0  0
 37 61  1  0  0  0  0
M  END
$$$$
