CHEMBL3957473
 OpenBabel04072215373D

 92 95  0  0  0  0  0  0  0  0999 V2000
    9.9157    0.9373   -2.7059 C   0  0  0  0  0  0  0  0  0  0  0  0
    8.9142    1.7873   -3.1065 O   0  0  0  0  0  0  0  0  0  0  0  0
    7.9801    2.4183   -2.3480 C   0  0  0  0  0  0  0  0  0  0  0  0
    6.9240    2.9795   -3.0688 C   0  0  0  0  0  0  0  0  0  0  0  0
    5.8382    3.5500   -2.4246 C   0  0  0  0  0  0  0  0  0  0  0  0
    4.7961    3.9906   -3.1814 O   0  0  0  0  0  0  0  0  0  0  0  0
    3.5551    4.3623   -2.6997 C   0  0  0  0  0  0  0  0  0  0  0  0
    5.8286    3.5926   -1.0225 C   0  0  0  0  0  0  0  0  0  0  0  0
    6.8884    3.0586   -0.2307 C   0  0  0  0  0  0  0  0  0  0  0  0
    6.6743    2.9678    1.2014 N   0  0  0  0  0  0  0  0  0  0  0  0
    5.2663    2.4415    1.5658 C   0  0  0  0  0  0  0  0  0  0  0  0
    4.4330    1.4636    0.6034 C   0  0  0  0  0  0  0  0  0  0  0  0
    5.0125    0.1657    0.1910 N   0  0  0  0  0  0  0  0  0  0  0  0
    5.1305   -0.9343    1.1797 C   0  0  0  0  0  0  0  0  0  0  0  0
    3.8213   -1.2587    1.9212 C   0  0  0  0  0  0  0  0  0  0  0  0
    5.6171   -2.2095    0.4731 C   0  0  0  0  0  0  0  0  0  0  0  0
    7.7122    2.8503    2.2829 C   0  0  0  0  0  0  0  0  0  0  0  0
    7.5563    1.6528    2.9142 C   0  0  0  0  0  0  0  0  0  0  0  0
    8.0543    1.3792    4.0961 C   0  0  0  0  0  0  0  0  0  0  0  0
    8.8386    2.2253    4.7359 C   0  0  0  0  0  0  0  0  0  0  0  0
    9.0377    1.8040    5.9458 N   0  0  0  0  0  0  0  0  0  0  0  0
    9.8291    2.3708    6.7859 C   0  0  0  0  0  0  0  0  0  0  0  0
   10.6927    3.3978    6.4142 C   0  0  0  0  0  0  0  0  0  0  0  0
   11.7533    3.4704    7.6496 C   0  0  0  0  0  0  0  0  0  0  0  0
   12.6994    4.3436    8.2417 C   0  0  0  0  0  0  0  0  0  0  0  0
   13.2184    3.7692    9.3855 N   0  0  0  0  0  0  0  0  0  0  0  0
   12.7112    2.5510    9.5409 N   0  0  0  0  0  0  0  0  0  0  0  0
   12.8762    1.5740   10.6715 C   0  0  0  0  0  0  0  0  0  0  0  0
   14.2035    0.7999   10.6858 C   0  0  0  0  0  0  0  0  0  0  0  0
   15.3865    1.7369   10.8876 C   0  0  0  0  0  0  0  0  0  0  0  0
   16.7104    1.0663   10.8566 N   0  0  0  0  0  0  0  0  0  0  0  0
   17.7851    2.0801   10.9540 C   0  0  0  0  0  0  0  0  0  0  0  0
   17.9131    2.9162    9.6496 C   0  0  0  0  0  0  0  0  0  0  0  0
   18.0926    2.0583    8.4571 N   0  0  0  0  0  0  0  0  0  0  0  0
   19.4690    1.5107    8.3996 C   0  0  0  0  0  0  0  0  0  0  0  0
   19.7549    0.7374    7.1083 C   0  0  0  0  0  0  0  0  0  0  0  0
   19.5791    1.5585    5.9867 O   0  0  0  0  0  0  0  0  0  0  0  0
   17.0164    1.0410    8.3858 C   0  0  0  0  0  0  0  0  0  0  0  0
   16.9547    0.2044    9.6748 C   0  0  0  0  0  0  0  0  0  0  0  0
   11.8899    2.3436    8.5298 C   0  0  0  0  0  0  0  0  0  0  0  0
   10.3655    4.0171    5.1487 N   0  0  0  0  0  0  0  0  0  0  0  0
    9.3615    3.4276    4.2644 C   0  0  0  0  0  0  0  0  0  0  0  0
    8.7229    3.8114    2.9263 C   0  0  0  0  0  0  0  0  0  0  0  0
    7.9753    2.4641   -0.9173 C   0  0  0  0  0  0  0  0  0  0  0  0
    1.6669    1.0644   -1.7147 Cl  0  0  0  0  0  0  0  0  0  0  0  0
   10.3731    0.4974   -3.6207 H   0  0  0  0  0  0  0  0  0  0  0  0
    9.4897    0.1022   -2.1116 H   0  0  0  0  0  0  0  0  0  0  0  0
   10.6956    1.4867   -2.1458 H   0  0  0  0  0  0  0  0  0  0  0  0
    6.9235    2.9195   -4.1545 H   0  0  0  0  0  0  0  0  0  0  0  0
    2.8972    4.6467   -3.5463 H   0  0  0  0  0  0  0  0  0  0  0  0
    3.6475    5.2273   -2.0116 H   0  0  0  0  0  0  0  0  0  0  0  0
    3.0818    3.5100   -2.1674 H   0  0  0  0  0  0  0  0  0  0  0  0
    4.9645    4.0101   -0.5278 H   0  0  0  0  0  0  0  0  0  0  0  0
    4.6117    3.3090    1.7664 H   0  0  0  0  0  0  0  0  0  0  0  0
    5.2056    1.9271    2.5404 H   0  0  0  0  0  0  0  0  0  0  0  0
    4.1122    1.9728   -0.3218 H   0  0  0  0  0  0  0  0  0  0  0  0
    3.4540    1.2707    1.0915 H   0  0  0  0  0  0  0  0  0  0  0  0
    5.9059    0.3157   -0.3287 H   0  0  0  0  0  0  0  0  0  0  0  0
    5.8856   -0.6860    1.9251 H   0  0  0  0  0  0  0  0  0  0  0  0
    3.0264   -1.5756    1.2133 H   0  0  0  0  0  0  0  0  0  0  0  0
    3.4662   -0.4011    2.5246 H   0  0  0  0  0  0  0  0  0  0  0  0
    4.0009   -2.0921    2.6379 H   0  0  0  0  0  0  0  0  0  0  0  0
    4.8637   -2.5677   -0.2614 H   0  0  0  0  0  0  0  0  0  0  0  0
    5.7939   -3.0173    1.2179 H   0  0  0  0  0  0  0  0  0  0  0  0
    6.5733   -2.0221   -0.0586 H   0  0  0  0  0  0  0  0  0  0  0  0
    6.9428    0.8913    2.5490 H   0  0  0  0  0  0  0  0  0  0  0  0
    7.7700    0.4500    4.5692 H   0  0  0  0  0  0  0  0  0  0  0  0
    9.7441    1.8971    7.7192 H   0  0  0  0  0  0  0  0  0  0  0  0
   12.9679    5.3479    7.9358 H   0  0  0  0  0  0  0  0  0  0  0  0
   12.1109    0.7650   10.5685 H   0  0  0  0  0  0  0  0  0  0  0  0
   12.6703    2.0429   11.6560 H   0  0  0  0  0  0  0  0  0  0  0  0
   14.2598    0.2576    9.7218 H   0  0  0  0  0  0  0  0  0  0  0  0
   14.2023    0.0402   11.5061 H   0  0  0  0  0  0  0  0  0  0  0  0
   15.2593    2.2329   11.8755 H   0  0  0  0  0  0  0  0  0  0  0  0
   15.3078    2.4997   10.1068 H   0  0  0  0  0  0  0  0  0  0  0  0
   18.7468    1.5672   11.1622 H   0  0  0  0  0  0  0  0  0  0  0  0
   17.6067    2.7573   11.8194 H   0  0  0  0  0  0  0  0  0  0  0  0
   18.7503    3.6395    9.7448 H   0  0  0  0  0  0  0  0  0  0  0  0
   17.0169    3.5495    9.4964 H   0  0  0  0  0  0  0  0  0  0  0  0
   19.6862    0.8516    9.2622 H   0  0  0  0  0  0  0  0  0  0  0  0
   20.1906    2.3557    8.4359 H   0  0  0  0  0  0  0  0  0  0  0  0
   19.1457   -0.1877    7.0219 H   0  0  0  0  0  0  0  0  0  0  0  0
   20.8097    0.3949    7.1340 H   0  0  0  0  0  0  0  0  0  0  0  0
   18.6001    1.6540    5.8548 H   0  0  0  0  0  0  0  0  0  0  0  0
   17.1319    0.3806    7.5066 H   0  0  0  0  0  0  0  0  0  0  0  0
   16.0415    1.5475    8.2194 H   0  0  0  0  0  0  0  0  0  0  0  0
   17.9065   -0.3504    9.8106 H   0  0  0  0  0  0  0  0  0  0  0  0
   16.1952   -0.5958    9.5926 H   0  0  0  0  0  0  0  0  0  0  0  0
   11.4130    1.3702    8.5084 H   0  0  0  0  0  0  0  0  0  0  0  0
    8.9179    4.7763    2.4468 H   0  0  0  0  0  0  0  0  0  0  0  0
    8.7648    1.9834   -0.3581 H   0  0  0  0  0  0  0  0  0  0  0  0
    1.6075    1.0447   -0.3416 H   0  0  0  0  0  0  0  0  0  0  0  0
  1  2  1  0  0  0  0
  1 46  1  0  0  0  0
  1 47  1  0  0  0  0
  1 48  1  0  0  0  0
  2  3  1  0  0  0  0
  3  4  1  0  0  0  0
  3 44  2  0  0  0  0
  4  5  2  0  0  0  0
  4 49  1  0  0  0  0
  5  6  1  0  0  0  0
  5  8  1  0  0  0  0
  6  7  1  0  0  0  0
  7 50  1  0  0  0  0
  7 51  1  0  0  0  0
  7 52  1  0  0  0  0
  8  9  2  0  0  0  0
  8 53  1  0  0  0  0
  9 10  1  0  0  0  0
  9 44  1  0  0  0  0
 10 11  1  0  0  0  0
 10 17  1  0  0  0  0
 11 12  1  0  0  0  0
 11 54  1  0  0  0  0
 11 55  1  0  0  0  0
 12 13  1  0  0  0  0
 12 56  1  0  0  0  0
 12 57  1  0  0  0  0
 13 14  1  0  0  0  0
 13 58  1  0  0  0  0
 14 15  1  0  0  0  0
 14 16  1  0  0  0  0
 14 59  1  0  0  0  0
 15 60  1  0  0  0  0
 15 61  1  0  0  0  0
 15 62  1  0  0  0  0
 16 63  1  0  0  0  0
 16 64  1  0  0  0  0
 16 65  1  0  0  0  0
 17 18  1  0  0  0  0
 17 43  2  0  0  0  0
 18 19  2  0  0  0  0
 18 66  1  0  0  0  0
 19 20  1  0  0  0  0
 19 67  1  0  0  0  0
 20 21  1  0  0  0  0
 20 42  2  0  0  0  0
 21 22  2  0  0  0  0
 22 23  1  0  0  0  0
 22 68  1  0  0  0  0
 23 24  1  0  0  0  0
 23 41  2  0  0  0  0
 24 25  1  0  0  0  0
 24 40  2  0  0  0  0
 25 26  2  0  0  0  0
 25 69  1  0  0  0  0
 26 27  1  0  0  0  0
 27 28  1  0  0  0  0
 27 40  1  0  0  0  0
 28 29  1  0  0  0  0
 28 70  1  0  0  0  0
 28 71  1  0  0  0  0
 29 30  1  0  0  0  0
 29 72  1  0  0  0  0
 29 73  1  0  0  0  0
 30 31  1  0  0  0  0
 30 74  1  0  0  0  0
 30 75  1  0  0  0  0
 31 32  1  0  0  0  0
 31 39  1  0  0  0  0
 32 33  1  0  0  0  0
 32 76  1  0  0  0  0
 32 77  1  0  0  0  0
 33 34  1  0  0  0  0
 33 78  1  0  0  0  0
 33 79  1  0  0  0  0
 34 35  1  0  0  0  0
 34 38  1  0  0  0  0
 35 36  1  0  0  0  0
 35 80  1  0  0  0  0
 35 81  1  0  0  0  0
 36 37  1  0  0  0  0
 36 82  1  0  0  0  0
 36 83  1  0  0  0  0
 37 84  1  0  0  0  0
 38 39  1  0  0  0  0
 38 85  1  0  0  0  0
 38 86  1  0  0  0  0
 39 87  1  0  0  0  0
 39 88  1  0  0  0  0
 40 89  1  0  0  0  0
 41 42  1  0  0  0  0
 42 43  1  0  0  0  0
 43 90  1  0  0  0  0
 44 91  1  0  0  0  0
 45 92  1  0  0  0  0
M  END
$$$$
