CHEMBL233824
 OpenBabel04072215363D

 50 52  0  0  0  0  0  0  0  0999 V2000
    4.2074   -0.0067   -1.3373 C   0  0  0  0  0  0  0  0  0  0  0  0
    3.3505   -0.2397   -0.0643 C   0  0  0  0  0  0  0  0  0  0  0  0
    1.8818   -0.4022   -0.4996 C   0  0  0  0  0  0  0  0  0  0  0  0
    3.8376   -1.5716    0.5424 C   0  0  0  0  0  0  0  0  0  0  0  0
    3.4460    0.9395    0.9201 C   0  0  0  0  0  0  0  0  0  0  0  0
    3.6693    2.2314    0.4358 C   0  0  0  0  0  0  0  0  0  0  0  0
    3.7662    3.3312    1.2844 C   0  0  0  0  0  0  0  0  0  0  0  0
    3.6266    3.2023    2.6620 C   0  0  0  0  0  0  0  0  0  0  0  0
    3.7415    4.3043    3.5383 N   0  0  0  0  0  0  0  0  0  0  0  0
    4.0644    5.6077    3.1790 C   0  0  0  0  0  0  0  0  0  0  0  0
    4.2800    5.9918    2.0327 O   0  0  0  0  0  0  0  0  0  0  0  0
    4.1675    6.5243    4.3031 C   0  0  0  0  0  0  0  0  0  0  0  0
    4.0222    6.1484    5.5662 N   0  0  0  0  0  0  0  0  0  0  0  0
    4.3389    7.2501    6.3175 C   0  0  0  0  0  0  0  0  0  0  0  0
    4.6474    8.3194    5.5117 C   0  0  0  0  0  0  0  0  0  0  0  0
    4.4733    7.8708    4.2281 N   0  0  0  0  0  0  0  0  0  0  0  0
    4.6997    8.6665    3.0246 C   0  0  0  0  0  0  0  0  0  0  0  0
    3.4259    8.9471    2.2111 C   0  0  0  0  0  0  0  0  0  0  0  0
    3.6226    9.8355    0.9985 C   0  0  0  0  0  0  0  0  0  0  0  0
    4.5246    9.5066   -0.0188 C   0  0  0  0  0  0  0  0  0  0  0  0
    4.5940   10.3234   -1.1437 C   0  0  0  0  0  0  0  0  0  0  0  0
    3.8348   11.4240   -1.3233 N   0  0  0  0  0  0  0  0  0  0  0  0
    2.9601   11.7184   -0.3411 C   0  0  0  0  0  0  0  0  0  0  0  0
    2.8212   10.9678    0.8199 C   0  0  0  0  0  0  0  0  0  0  0  0
    3.3652    1.9280    3.1730 C   0  0  0  0  0  0  0  0  0  0  0  0
    3.2740    0.8115    2.3120 C   0  0  0  0  0  0  0  0  0  0  0  0
    4.1829   -0.8779   -2.0013 H   0  0  0  0  0  0  0  0  0  0  0  0
    5.2551    0.1881   -1.0780 H   0  0  0  0  0  0  0  0  0  0  0  0
    3.8467    0.8368   -1.9365 H   0  0  0  0  0  0  0  0  0  0  0  0
    1.7739   -1.2189   -1.2233 H   0  0  0  0  0  0  0  0  0  0  0  0
    1.5000    0.5094   -0.9746 H   0  0  0  0  0  0  0  0  0  0  0  0
    1.2320   -0.6267    0.3537 H   0  0  0  0  0  0  0  0  0  0  0  0
    3.7716   -2.3814   -0.1951 H   0  0  0  0  0  0  0  0  0  0  0  0
    3.2378   -1.8837    1.4028 H   0  0  0  0  0  0  0  0  0  0  0  0
    4.8835   -1.5019    0.8627 H   0  0  0  0  0  0  0  0  0  0  0  0
    3.7769    2.4368   -0.6253 H   0  0  0  0  0  0  0  0  0  0  0  0
    3.9551    4.2820    0.8042 H   0  0  0  0  0  0  0  0  0  0  0  0
    3.6322    4.1518    4.5373 H   0  0  0  0  0  0  0  0  0  0  0  0
    4.3509    7.2105    7.3997 H   0  0  0  0  0  0  0  0  0  0  0  0
    4.9762    9.3240    5.7401 H   0  0  0  0  0  0  0  0  0  0  0  0
    5.4675    8.1516    2.4373 H   0  0  0  0  0  0  0  0  0  0  0  0
    5.1411    9.6178    3.3474 H   0  0  0  0  0  0  0  0  0  0  0  0
    2.6815    9.4029    2.8766 H   0  0  0  0  0  0  0  0  0  0  0  0
    2.9650    8.0185    1.8577 H   0  0  0  0  0  0  0  0  0  0  0  0
    5.1492    8.6223    0.0332 H   0  0  0  0  0  0  0  0  0  0  0  0
    5.2734   10.0962   -1.9599 H   0  0  0  0  0  0  0  0  0  0  0  0
    2.3423   12.5941   -0.5183 H   0  0  0  0  0  0  0  0  0  0  0  0
    2.0802   11.2602    1.5558 H   0  0  0  0  0  0  0  0  0  0  0  0
    3.2301    1.7743    4.2412 H   0  0  0  0  0  0  0  0  0  0  0  0
    3.0580   -0.1565    2.7591 H   0  0  0  0  0  0  0  0  0  0  0  0
  1  2  1  0  0  0  0
  1 27  1  0  0  0  0
  1 28  1  0  0  0  0
  1 29  1  0  0  0  0
  2  3  1  0  0  0  0
  2  4  1  0  0  0  0
  2  5  1  0  0  0  0
  3 30  1  0  0  0  0
  3 31  1  0  0  0  0
  3 32  1  0  0  0  0
  4 33  1  0  0  0  0
  4 34  1  0  0  0  0
  4 35  1  0  0  0  0
  5  6  1  0  0  0  0
  5 26  2  0  0  0  0
  6  7  2  0  0  0  0
  6 36  1  0  0  0  0
  7  8  1  0  0  0  0
  7 37  1  0  0  0  0
  8  9  1  0  0  0  0
  8 25  2  0  0  0  0
  9 10  1  0  0  0  0
  9 38  1  0  0  0  0
 10 11  2  0  0  0  0
 10 12  1  0  0  0  0
 12 13  2  0  0  0  0
 12 16  1  0  0  0  0
 13 14  1  0  0  0  0
 14 15  2  0  0  0  0
 14 39  1  0  0  0  0
 15 16  1  0  0  0  0
 15 40  1  0  0  0  0
 16 17  1  0  0  0  0
 17 18  1  0  0  0  0
 17 41  1  0  0  0  0
 17 42  1  0  0  0  0
 18 19  1  0  0  0  0
 18 43  1  0  0  0  0
 18 44  1  0  0  0  0
 19 20  1  0  0  0  0
 19 24  2  0  0  0  0
 20 21  2  0  0  0  0
 20 45  1  0  0  0  0
 21 22  1  0  0  0  0
 21 46  1  0  0  0  0
 22 23  2  0  0  0  0
 23 24  1  0  0  0  0
 23 47  1  0  0  0  0
 24 48  1  0  0  0  0
 25 26  1  0  0  0  0
 25 49  1  0  0  0  0
 26 50  1  0  0  0  0
M  END
$$$$
