CHEMBL264382
 OpenBabel04072215363D

 79 85  0  0  0  0  0  0  0  0999 V2000
   -2.3675   -0.8598    0.1436 C   0  0  0  0  0  0  0  0  0  0  0  0
   -1.0364   -0.2016    0.0214 C   0  0  0  0  0  0  0  0  0  0  0  0
   -0.8599    1.1958   -0.0660 C   0  0  0  0  0  0  0  0  0  0  0  0
    0.4874    1.4786   -0.1813 C   0  0  0  0  0  0  0  0  0  0  0  0
    1.0168    2.8237   -0.2753 C   0  0  0  0  0  0  0  0  0  0  0  0
    0.3917    3.7888    0.1606 O   0  0  0  0  0  0  0  0  0  0  0  0
    2.2090    2.9913   -0.9489 N   0  0  0  0  0  0  0  0  0  0  0  0
    2.7462    4.3365   -1.1331 C   0  0  0  0  0  0  0  0  0  0  0  0
    3.5344    4.5125   -2.4491 C   0  0  0  0  0  0  0  0  0  0  0  0
    4.0903    5.8684   -2.6317 N   0  0  0  0  0  0  0  0  0  0  0  0
    3.0600    6.9157   -2.8267 C   0  0  0  0  0  0  0  0  0  0  0  0
    2.4007    6.8800   -4.2136 C   0  0  0  0  0  0  0  0  0  0  0  0
    3.3848    7.0642   -5.2372 O   0  0  0  0  0  0  0  0  0  0  0  0
    4.3811    6.0375   -5.1683 C   0  0  0  0  0  0  0  0  0  0  0  0
    5.0323    5.9412   -3.7734 C   0  0  0  0  0  0  0  0  0  0  0  0
    1.1415    0.2614   -0.1458 N   0  0  0  0  0  0  0  0  0  0  0  0
    0.2322   -0.7762   -0.0161 C   0  0  0  0  0  0  0  0  0  0  0  0
    0.5968   -2.1537    0.0540 C   0  0  0  0  0  0  0  0  0  0  0  0
    1.7931   -2.7631   -0.0015 C   0  0  0  0  0  0  0  0  0  0  0  0
    3.1802   -2.1823   -0.0787 C   0  0  0  0  0  0  0  0  0  0  0  0
    3.4831   -1.0118   -0.1801 O   0  0  0  0  0  0  0  0  0  0  0  0
    4.0378   -3.2666   -0.0097 N   0  0  0  0  0  0  0  0  0  0  0  0
    3.3436   -4.4675    0.0584 C   0  0  0  0  0  0  0  0  0  0  0  0
    3.9437   -5.6571    0.1097 N   0  0  0  0  0  0  0  0  0  0  0  0
    3.0828   -6.6774    0.1468 C   0  0  0  0  0  0  0  0  0  0  0  0
    1.7420   -6.5732    0.1293 N   0  0  0  0  0  0  0  0  0  0  0  0
    1.1897   -5.3409    0.0744 C   0  0  0  0  0  0  0  0  0  0  0  0
   -0.2112   -5.2171    0.0387 N   0  0  0  0  0  0  0  0  0  0  0  0
   -1.1146   -6.1231    0.6296 C   0  0  0  0  0  0  0  0  0  0  0  0
   -0.7682   -6.8111    1.7977 C   0  0  0  0  0  0  0  0  0  0  0  0
   -1.6329   -7.7147    2.4006 C   0  0  0  0  0  0  0  0  0  0  0  0
   -2.8809   -7.9044    1.8037 C   0  0  0  0  0  0  0  0  0  0  0  0
   -3.2959   -7.1903    0.6807 C   0  0  0  0  0  0  0  0  0  0  0  0
   -4.6183   -7.6171    0.3789 C   0  0  0  0  0  0  0  0  0  0  0  0
   -4.9643   -8.5918    1.2889 C   0  0  0  0  0  0  0  0  0  0  0  0
   -3.9090   -8.7530    2.1491 N   0  0  0  0  0  0  0  0  0  0  0  0
   -3.8362   -9.7209    3.2372 C   0  0  0  0  0  0  0  0  0  0  0  0
   -4.1405   -9.1482    4.6032 C   0  0  0  0  0  0  0  0  0  0  0  0
   -4.7584   -7.9049    4.8118 C   0  0  0  0  0  0  0  0  0  0  0  0
   -5.0453   -7.4585    6.1038 C   0  0  0  0  0  0  0  0  0  0  0  0
   -4.7236   -8.2484    7.2043 C   0  0  0  0  0  0  0  0  0  0  0  0
   -4.1026   -9.4799    7.0163 C   0  0  0  0  0  0  0  0  0  0  0  0
   -3.8133   -9.9261    5.7264 C   0  0  0  0  0  0  0  0  0  0  0  0
   -2.4067   -6.2649    0.1002 C   0  0  0  0  0  0  0  0  0  0  0  0
    1.9847   -4.2239    0.0419 C   0  0  0  0  0  0  0  0  0  0  0  0
   -3.1720   -0.1213    0.0404 H   0  0  0  0  0  0  0  0  0  0  0  0
   -2.4782   -1.3352    1.1225 H   0  0  0  0  0  0  0  0  0  0  0  0
   -2.5089   -1.6104   -0.6393 H   0  0  0  0  0  0  0  0  0  0  0  0
   -1.6406    1.9486   -0.0546 H   0  0  0  0  0  0  0  0  0  0  0  0
    2.7549    2.1854   -1.2171 H   0  0  0  0  0  0  0  0  0  0  0  0
    3.3829    4.5517   -0.2679 H   0  0  0  0  0  0  0  0  0  0  0  0
    1.9109    5.0431   -1.1076 H   0  0  0  0  0  0  0  0  0  0  0  0
    2.9071    4.2154   -3.2973 H   0  0  0  0  0  0  0  0  0  0  0  0
    4.3650    3.7956   -2.4147 H   0  0  0  0  0  0  0  0  0  0  0  0
    3.5619    7.8865   -2.7134 H   0  0  0  0  0  0  0  0  0  0  0  0
    2.2982    6.8882   -2.0433 H   0  0  0  0  0  0  0  0  0  0  0  0
    1.6748    7.6946   -4.3016 H   0  0  0  0  0  0  0  0  0  0  0  0
    1.8625    5.9418   -4.3903 H   0  0  0  0  0  0  0  0  0  0  0  0
    5.1487    6.2880   -5.9089 H   0  0  0  0  0  0  0  0  0  0  0  0
    3.9312    5.0851   -5.4680 H   0  0  0  0  0  0  0  0  0  0  0  0
    5.6392    6.8441   -3.6248 H   0  0  0  0  0  0  0  0  0  0  0  0
    5.7374    5.1019   -3.7510 H   0  0  0  0  0  0  0  0  0  0  0  0
    2.1495    0.1431   -0.1586 H   0  0  0  0  0  0  0  0  0  0  0  0
   -0.2721   -2.7939    0.1827 H   0  0  0  0  0  0  0  0  0  0  0  0
    5.0421   -3.2210   -0.0189 H   0  0  0  0  0  0  0  0  0  0  0  0
    3.4916   -7.6844    0.1891 H   0  0  0  0  0  0  0  0  0  0  0  0
   -0.5144   -4.8842   -0.8681 H   0  0  0  0  0  0  0  0  0  0  0  0
    0.2052   -6.6588    2.2579 H   0  0  0  0  0  0  0  0  0  0  0  0
   -1.3308   -8.2483    3.2952 H   0  0  0  0  0  0  0  0  0  0  0  0
   -5.2414   -7.2614   -0.4308 H   0  0  0  0  0  0  0  0  0  0  0  0
   -5.8695   -9.1751    1.3936 H   0  0  0  0  0  0  0  0  0  0  0  0
   -2.8154  -10.1246    3.2255 H   0  0  0  0  0  0  0  0  0  0  0  0
   -4.5214  -10.5415    3.0022 H   0  0  0  0  0  0  0  0  0  0  0  0
   -5.0208   -7.2571    3.9773 H   0  0  0  0  0  0  0  0  0  0  0  0
   -5.5225   -6.4923    6.2485 H   0  0  0  0  0  0  0  0  0  0  0  0
   -4.9553   -7.9023    8.2078 H   0  0  0  0  0  0  0  0  0  0  0  0
   -3.8446  -10.0955    7.8738 H   0  0  0  0  0  0  0  0  0  0  0  0
   -3.3266  -10.8914    5.6007 H   0  0  0  0  0  0  0  0  0  0  0  0
   -2.7182   -5.6972   -0.7703 H   0  0  0  0  0  0  0  0  0  0  0  0
  1  2  1  0  0  0  0
  1 46  1  0  0  0  0
  1 47  1  0  0  0  0
  1 48  1  0  0  0  0
  2  3  1  0  0  0  0
  2 17  2  0  0  0  0
  3  4  2  0  0  0  0
  3 49  1  0  0  0  0
  4  5  1  0  0  0  0
  4 16  1  0  0  0  0
  5  6  2  0  0  0  0
  5  7  1  0  0  0  0
  7  8  1  0  0  0  0
  7 50  1  0  0  0  0
  8  9  1  0  0  0  0
  8 51  1  0  0  0  0
  8 52  1  0  0  0  0
  9 10  1  0  0  0  0
  9 53  1  0  0  0  0
  9 54  1  0  0  0  0
 10 11  1  0  0  0  0
 10 15  1  0  0  0  0
 11 12  1  0  0  0  0
 11 55  1  0  0  0  0
 11 56  1  0  0  0  0
 12 13  1  0  0  0  0
 12 57  1  0  0  0  0
 12 58  1  0  0  0  0
 13 14  1  0  0  0  0
 14 15  1  0  0  0  0
 14 59  1  0  0  0  0
 14 60  1  0  0  0  0
 15 61  1  0  0  0  0
 15 62  1  0  0  0  0
 16 17  1  0  0  0  0
 16 63  1  0  0  0  0
 17 18  1  0  0  0  0
 18 19  2  0  0  0  0
 18 64  1  0  0  0  0
 19 20  1  0  0  0  0
 19 45  1  0  0  0  0
 20 21  2  0  0  0  0
 20 22  1  0  0  0  0
 22 23  1  0  0  0  0
 22 65  1  0  0  0  0
 23 24  1  0  0  0  0
 23 45  2  0  0  0  0
 24 25  2  0  0  0  0
 25 26  1  0  0  0  0
 25 66  1  0  0  0  0
 26 27  2  0  0  0  0
 27 28  1  0  0  0  0
 27 45  1  0  0  0  0
 28 29  1  0  0  0  0
 28 67  1  0  0  0  0
 29 30  1  0  0  0  0
 29 44  2  0  0  0  0
 30 31  2  0  0  0  0
 30 68  1  0  0  0  0
 31 32  1  0  0  0  0
 31 69  1  0  0  0  0
 32 33  2  0  0  0  0
 32 36  1  0  0  0  0
 33 34  1  0  0  0  0
 33 44  1  0  0  0  0
 34 35  2  0  0  0  0
 34 70  1  0  0  0  0
 35 36  1  0  0  0  0
 35 71  1  0  0  0  0
 36 37  1  0  0  0  0
 37 38  1  0  0  0  0
 37 72  1  0  0  0  0
 37 73  1  0  0  0  0
 38 39  1  0  0  0  0
 38 43  2  0  0  0  0
 39 40  2  0  0  0  0
 39 74  1  0  0  0  0
 40 41  1  0  0  0  0
 40 75  1  0  0  0  0
 41 42  2  0  0  0  0
 41 76  1  0  0  0  0
 42 43  1  0  0  0  0
 42 77  1  0  0  0  0
 43 78  1  0  0  0  0
 44 79  1  0  0  0  0
M  END
$$$$
