CHEMBL3905012
 OpenBabel04072215373D

 51 54  0  0  0  0  0  0  0  0999 V2000
    2.3047   -0.9728    0.7492 C   0  0  0  0  0  0  0  0  0  0  0  0
    2.2816    0.1922   -0.0821 O   0  0  0  0  0  0  0  0  0  0  0  0
    3.0486    0.1831   -1.2150 C   0  0  0  0  0  0  0  0  0  0  0  0
    4.2377   -0.5430   -1.3071 C   0  0  0  0  0  0  0  0  0  0  0  0
    4.9493   -0.6344   -2.5223 C   0  0  0  0  0  0  0  0  0  0  0  0
    6.0459   -1.4752   -2.7466 C   0  0  0  0  0  0  0  0  0  0  0  0
    6.4523   -2.3723   -1.7187 N   0  0  0  0  0  0  0  0  0  0  0  0
    7.6928   -3.0401   -1.7126 C   0  0  0  0  0  0  0  0  0  0  0  0
    8.8720   -2.3355   -1.9865 C   0  0  0  0  0  0  0  0  0  0  0  0
   10.1005   -2.9891   -2.0469 C   0  0  0  0  0  0  0  0  0  0  0  0
   10.1685   -4.3629   -1.8225 C   0  0  0  0  0  0  0  0  0  0  0  0
   11.7112   -5.1222   -1.9641 Cl  0  0  0  0  0  0  0  0  0  0  0  0
    9.0048   -5.0705   -1.5028 C   0  0  0  0  0  0  0  0  0  0  0  0
    9.0119   -6.7762   -1.2081 Cl  0  0  0  0  0  0  0  0  0  0  0  0
    7.7724   -4.4087   -1.4365 C   0  0  0  0  0  0  0  0  0  0  0  0
    6.6956   -1.5041   -3.9263 N   0  0  0  0  0  0  0  0  0  0  0  0
    6.2398   -0.6972   -4.8859 C   0  0  0  0  0  0  0  0  0  0  0  0
    5.2046    0.1369   -4.7800 N   0  0  0  0  0  0  0  0  0  0  0  0
    4.5695    0.1535   -3.6063 C   0  0  0  0  0  0  0  0  0  0  0  0
    3.4634    0.9673   -3.4657 C   0  0  0  0  0  0  0  0  0  0  0  0
    2.6504    0.9585   -2.3162 C   0  0  0  0  0  0  0  0  0  0  0  0
    1.4593    1.6666   -2.2506 O   0  0  0  0  0  0  0  0  0  0  0  0
    0.9781    2.1083   -3.5364 C   0  0  0  0  0  0  0  0  0  0  0  0
   -0.5006    2.5119   -3.5321 C   0  0  0  0  0  0  0  0  0  0  0  0
   -1.0221    2.8117   -4.8911 N   0  0  0  0  0  0  0  0  0  0  0  0
   -2.4306    3.2345   -4.8511 C   0  0  0  0  0  0  0  0  0  0  0  0
   -3.2212    1.9417   -4.8764 C   0  0  0  0  0  0  0  0  0  0  0  0
   -2.4300    1.0798   -5.8394 C   0  0  0  0  0  0  0  0  0  0  0  0
   -1.0197    1.6576   -5.8120 C   0  0  0  0  0  0  0  0  0  0  0  0
    2.4240   -0.6554    1.7892 H   0  0  0  0  0  0  0  0  0  0  0  0
    3.0869   -1.7062    0.5391 H   0  0  0  0  0  0  0  0  0  0  0  0
    1.3475   -1.4934    0.6512 H   0  0  0  0  0  0  0  0  0  0  0  0
    4.6511   -1.0484   -0.4407 H   0  0  0  0  0  0  0  0  0  0  0  0
    5.6733   -2.9808   -1.4878 H   0  0  0  0  0  0  0  0  0  0  0  0
    8.8315   -1.2651   -2.1790 H   0  0  0  0  0  0  0  0  0  0  0  0
   10.9915   -2.4177   -2.2911 H   0  0  0  0  0  0  0  0  0  0  0  0
    6.8707   -4.9751   -1.2124 H   0  0  0  0  0  0  0  0  0  0  0  0
    6.7495   -0.7312   -5.8424 H   0  0  0  0  0  0  0  0  0  0  0  0
    3.2328    1.5960   -4.3200 H   0  0  0  0  0  0  0  0  0  0  0  0
    1.0949    1.2792   -4.2373 H   0  0  0  0  0  0  0  0  0  0  0  0
    1.5754    2.9663   -3.8694 H   0  0  0  0  0  0  0  0  0  0  0  0
   -0.5892    3.4226   -2.9210 H   0  0  0  0  0  0  0  0  0  0  0  0
   -1.0977    1.7462   -3.0218 H   0  0  0  0  0  0  0  0  0  0  0  0
   -2.6507    3.8213   -5.7528 H   0  0  0  0  0  0  0  0  0  0  0  0
   -2.6760    3.8688   -3.9891 H   0  0  0  0  0  0  0  0  0  0  0  0
   -4.2562    2.0795   -5.2007 H   0  0  0  0  0  0  0  0  0  0  0  0
   -3.2368    1.4758   -3.8842 H   0  0  0  0  0  0  0  0  0  0  0  0
   -2.8457    1.1548   -6.8510 H   0  0  0  0  0  0  0  0  0  0  0  0
   -2.4488    0.0265   -5.5416 H   0  0  0  0  0  0  0  0  0  0  0  0
   -0.7581    2.0178   -6.8153 H   0  0  0  0  0  0  0  0  0  0  0  0
   -0.2949    0.8749   -5.5791 H   0  0  0  0  0  0  0  0  0  0  0  0
  1  2  1  0  0  0  0
  1 30  1  0  0  0  0
  1 31  1  0  0  0  0
  1 32  1  0  0  0  0
  2  3  1  0  0  0  0
  3  4  1  0  0  0  0
  3 21  2  0  0  0  0
  4  5  2  0  0  0  0
  4 33  1  0  0  0  0
  5  6  1  0  0  0  0
  5 19  1  0  0  0  0
  6  7  1  0  0  0  0
  6 16  2  0  0  0  0
  7  8  1  0  0  0  0
  7 34  1  0  0  0  0
  8  9  1  0  0  0  0
  8 15  2  0  0  0  0
  9 10  2  0  0  0  0
  9 35  1  0  0  0  0
 10 11  1  0  0  0  0
 10 36  1  0  0  0  0
 11 12  1  0  0  0  0
 11 13  2  0  0  0  0
 13 14  1  0  0  0  0
 13 15  1  0  0  0  0
 15 37  1  0  0  0  0
 16 17  1  0  0  0  0
 17 18  2  0  0  0  0
 17 38  1  0  0  0  0
 18 19  1  0  0  0  0
 19 20  2  0  0  0  0
 20 21  1  0  0  0  0
 20 39  1  0  0  0  0
 21 22  1  0  0  0  0
 22 23  1  0  0  0  0
 23 24  1  0  0  0  0
 23 40  1  0  0  0  0
 23 41  1  0  0  0  0
 24 25  1  0  0  0  0
 24 42  1  0  0  0  0
 24 43  1  0  0  0  0
 25 26  1  0  0  0  0
 25 29  1  0  0  0  0
 26 27  1  0  0  0  0
 26 44  1  0  0  0  0
 26 45  1  0  0  0  0
 27 28  1  0  0  0  0
 27 46  1  0  0  0  0
 27 47  1  0  0  0  0
 28 29  1  0  0  0  0
 28 48  1  0  0  0  0
 28 49  1  0  0  0  0
 29 50  1  0  0  0  0
 29 51  1  0  0  0  0
M  END
$$$$
