CHEMBL3780536
 OpenBabel04072215373D

 45 48  0  0  0  0  0  0  0  0999 V2000
   11.1808   -0.9046   -1.9640 C   0  0  0  0  0  0  0  0  0  0  0  0
   10.4086   -1.6709   -1.0497 O   0  0  0  0  0  0  0  0  0  0  0  0
    9.2489   -2.2170   -1.5288 C   0  0  0  0  0  0  0  0  0  0  0  0
    8.7324   -2.0556   -2.8122 C   0  0  0  0  0  0  0  0  0  0  0  0
    7.5216   -2.6654   -3.1733 C   0  0  0  0  0  0  0  0  0  0  0  0
    6.8161   -3.4574   -2.2589 C   0  0  0  0  0  0  0  0  0  0  0  0
    5.4596   -4.0496   -2.5708 C   0  0  0  0  0  0  0  0  0  0  0  0
    5.1922   -4.5081   -3.9877 C   0  0  0  0  0  0  0  0  0  0  0  0
    4.5011   -3.6295   -4.7474 N   0  0  0  0  0  0  0  0  0  0  0  0
    4.0734   -3.9821   -5.9965 N   0  0  0  0  0  0  0  0  0  0  0  0
    4.2874   -5.2239   -6.4801 C   0  0  0  0  0  0  0  0  0  0  0  0
    3.7303   -5.5949   -7.7338 N   0  0  0  0  0  0  0  0  0  0  0  0
    3.4167   -4.7191   -8.7957 C   0  0  0  0  0  0  0  0  0  0  0  0
    4.2378   -3.6254   -9.1024 C   0  0  0  0  0  0  0  0  0  0  0  0
    3.9748   -2.8137  -10.2091 C   0  0  0  0  0  0  0  0  0  0  0  0
    2.8855   -3.0883  -11.0295 C   0  0  0  0  0  0  0  0  0  0  0  0
    2.0637   -4.1775  -10.7465 C   0  0  0  0  0  0  0  0  0  0  0  0
    2.3360   -4.9952   -9.6440 C   0  0  0  0  0  0  0  0  0  0  0  0
    5.0260   -6.1691   -5.7346 C   0  0  0  0  0  0  0  0  0  0  0  0
    5.3039   -7.4747   -6.2081 C   0  0  0  0  0  0  0  0  0  0  0  0
    6.0848   -8.3690   -5.4763 C   0  0  0  0  0  0  0  0  0  0  0  0
    6.6154   -7.9770   -4.2561 C   0  0  0  0  0  0  0  0  0  0  0  0
    6.3379   -6.7045   -3.7555 C   0  0  0  0  0  0  0  0  0  0  0  0
    5.5302   -5.7845   -4.4683 C   0  0  0  0  0  0  0  0  0  0  0  0
    7.3375   -3.5988   -0.9621 C   0  0  0  0  0  0  0  0  0  0  0  0
    8.5422   -2.9880   -0.6053 C   0  0  0  0  0  0  0  0  0  0  0  0
   12.0835   -0.5704   -1.4427 H   0  0  0  0  0  0  0  0  0  0  0  0
   10.6354   -0.0133   -2.2899 H   0  0  0  0  0  0  0  0  0  0  0  0
   11.4975   -1.5113   -2.8202 H   0  0  0  0  0  0  0  0  0  0  0  0
    9.2349   -1.4483   -3.5586 H   0  0  0  0  0  0  0  0  0  0  0  0
    7.1296   -2.4918   -4.1734 H   0  0  0  0  0  0  0  0  0  0  0  0
    4.7100   -3.2911   -2.3063 H   0  0  0  0  0  0  0  0  0  0  0  0
    5.2586   -4.8928   -1.8967 H   0  0  0  0  0  0  0  0  0  0  0  0
    3.0214   -6.3027   -7.5801 H   0  0  0  0  0  0  0  0  0  0  0  0
    5.1052   -3.4038   -8.4863 H   0  0  0  0  0  0  0  0  0  0  0  0
    4.6292   -1.9753  -10.4291 H   0  0  0  0  0  0  0  0  0  0  0  0
    2.6809   -2.4576  -11.8906 H   0  0  0  0  0  0  0  0  0  0  0  0
    1.2124   -4.3930  -11.3865 H   0  0  0  0  0  0  0  0  0  0  0  0
    1.6848   -5.8439   -9.4526 H   0  0  0  0  0  0  0  0  0  0  0  0
    4.9267   -7.8024   -7.1761 H   0  0  0  0  0  0  0  0  0  0  0  0
    6.2926   -9.3606   -5.8699 H   0  0  0  0  0  0  0  0  0  0  0  0
    7.2519   -8.6564   -3.6946 H   0  0  0  0  0  0  0  0  0  0  0  0
    6.7866   -6.4293   -2.8025 H   0  0  0  0  0  0  0  0  0  0  0  0
    6.7994   -4.1698   -0.2089 H   0  0  0  0  0  0  0  0  0  0  0  0
    8.9254   -3.1012    0.4060 H   0  0  0  0  0  0  0  0  0  0  0  0
  1  2  1  0  0  0  0
  1 27  1  0  0  0  0
  1 28  1  0  0  0  0
  1 29  1  0  0  0  0
  2  3  1  0  0  0  0
  3  4  1  0  0  0  0
  3 26  2  0  0  0  0
  4  5  2  0  0  0  0
  4 30  1  0  0  0  0
  5  6  1  0  0  0  0
  5 31  1  0  0  0  0
  6  7  1  0  0  0  0
  6 25  2  0  0  0  0
  7  8  1  0  0  0  0
  7 32  1  0  0  0  0
  7 33  1  0  0  0  0
  8  9  1  0  0  0  0
  8 24  2  0  0  0  0
  9 10  2  0  0  0  0
 10 11  1  0  0  0  0
 11 12  1  0  0  0  0
 11 19  2  0  0  0  0
 12 13  1  0  0  0  0
 12 34  1  0  0  0  0
 13 14  1  0  0  0  0
 13 18  2  0  0  0  0
 14 15  2  0  0  0  0
 14 35  1  0  0  0  0
 15 16  1  0  0  0  0
 15 36  1  0  0  0  0
 16 17  2  0  0  0  0
 16 37  1  0  0  0  0
 17 18  1  0  0  0  0
 17 38  1  0  0  0  0
 18 39  1  0  0  0  0
 19 20  1  0  0  0  0
 19 24  1  0  0  0  0
 20 21  2  0  0  0  0
 20 40  1  0  0  0  0
 21 22  1  0  0  0  0
 21 41  1  0  0  0  0
 22 23  2  0  0  0  0
 22 42  1  0  0  0  0
 23 24  1  0  0  0  0
 23 43  1  0  0  0  0
 25 26  1  0  0  0  0
 25 44  1  0  0  0  0
 26 45  1  0  0  0  0
M  END
$$$$
