CHEMBL495962
 OpenBabel04072215383D

 51 54  0  0  0  0  0  0  0  0999 V2000
    4.5134    4.3077    3.0755 C   0  0  0  0  0  0  0  0  0  0  0  0
    5.6506    3.5110    3.5374 N   0  0  0  0  0  0  0  0  0  0  0  0
    6.5140    4.3284    4.3944 C   0  0  0  0  0  0  0  0  0  0  0  0
    5.1948    2.3168    4.2906 C   0  0  0  0  0  0  0  0  0  0  0  0
    4.4285    1.3231    3.3966 C   0  0  0  0  0  0  0  0  0  0  0  0
    3.1927    1.3718    3.3387 O   0  0  0  0  0  0  0  0  0  0  0  0
    5.1591    0.3757    2.6838 N   0  0  0  0  0  0  0  0  0  0  0  0
    4.5030   -0.5865    1.8140 C   0  0  0  0  0  0  0  0  0  0  0  0
    6.5685    0.3636    2.6654 C   0  0  0  0  0  0  0  0  0  0  0  0
    7.2537    1.1209    1.7093 C   0  0  0  0  0  0  0  0  0  0  0  0
    8.6503    1.1390    1.6738 C   0  0  0  0  0  0  0  0  0  0  0  0
    9.3018    0.3533    2.6239 C   0  0  0  0  0  0  0  0  0  0  0  0
   10.6259    0.1235    2.8724 N   0  0  0  0  0  0  0  0  0  0  0  0
   10.7412   -0.7727    3.9138 C   0  0  0  0  0  0  0  0  0  0  0  0
   12.0394   -1.1853    4.3569 C   0  0  0  0  0  0  0  0  0  0  0  0
   12.1619   -2.0679    5.3822 C   0  0  0  0  0  0  0  0  0  0  0  0
   11.0880   -2.7114    6.0051 N   0  0  0  0  0  0  0  0  0  0  0  0
   13.5192   -2.3715    5.9169 C   0  0  0  0  0  0  0  0  0  0  0  0
   13.7401   -3.2223    7.0124 C   0  0  0  0  0  0  0  0  0  0  0  0
   15.0252   -3.4101    7.5320 C   0  0  0  0  0  0  0  0  0  0  0  0
   16.1171   -2.7753    6.9468 C   0  0  0  0  0  0  0  0  0  0  0  0
   15.9290   -1.9639    5.8340 C   0  0  0  0  0  0  0  0  0  0  0  0
   14.6401   -1.7639    5.3335 C   0  0  0  0  0  0  0  0  0  0  0  0
   14.4775   -0.9287    4.2312 N   0  0  0  0  0  0  0  0  0  0  0  0
   13.2651   -0.6102    3.7019 C   0  0  0  0  0  0  0  0  0  0  0  0
   13.2007    0.1388    2.7267 O   0  0  0  0  0  0  0  0  0  0  0  0
    9.5366   -1.0804    4.3750 N   0  0  0  0  0  0  0  0  0  0  0  0
    8.6435   -0.4122    3.5760 C   0  0  0  0  0  0  0  0  0  0  0  0
    7.2461   -0.4169    3.6094 C   0  0  0  0  0  0  0  0  0  0  0  0
    4.8642    5.1925    2.5323 H   0  0  0  0  0  0  0  0  0  0  0  0
    3.8800    4.6432    3.9047 H   0  0  0  0  0  0  0  0  0  0  0  0
    3.8957    3.7454    2.3683 H   0  0  0  0  0  0  0  0  0  0  0  0
    6.8743    5.2098    3.8519 H   0  0  0  0  0  0  0  0  0  0  0  0
    7.4033    3.7650    4.6987 H   0  0  0  0  0  0  0  0  0  0  0  0
    5.9956    4.6696    5.2980 H   0  0  0  0  0  0  0  0  0  0  0  0
    4.5351    2.5997    5.1212 H   0  0  0  0  0  0  0  0  0  0  0  0
    6.0462    1.8048    4.7525 H   0  0  0  0  0  0  0  0  0  0  0  0
    3.4159   -0.5577    1.9289 H   0  0  0  0  0  0  0  0  0  0  0  0
    4.8509   -1.5934    2.0618 H   0  0  0  0  0  0  0  0  0  0  0  0
    4.7510   -0.3626    0.7716 H   0  0  0  0  0  0  0  0  0  0  0  0
    6.6967    1.7226    0.9939 H   0  0  0  0  0  0  0  0  0  0  0  0
    9.1908    1.7343    0.9458 H   0  0  0  0  0  0  0  0  0  0  0  0
   11.4098    0.5257    2.3689 H   0  0  0  0  0  0  0  0  0  0  0  0
   10.1921   -2.3133    5.6912 H   0  0  0  0  0  0  0  0  0  0  0  0
   11.1391   -2.6819    7.0191 H   0  0  0  0  0  0  0  0  0  0  0  0
   12.9172   -3.7521    7.4853 H   0  0  0  0  0  0  0  0  0  0  0  0
   15.1692   -4.0524    8.3972 H   0  0  0  0  0  0  0  0  0  0  0  0
   17.1136   -2.9161    7.3562 H   0  0  0  0  0  0  0  0  0  0  0  0
   16.7866   -1.4799    5.3751 H   0  0  0  0  0  0  0  0  0  0  0  0
   15.2817   -0.5151    3.7784 H   0  0  0  0  0  0  0  0  0  0  0  0
    6.7182   -1.0034    4.3518 H   0  0  0  0  0  0  0  0  0  0  0  0
  1  2  1  0  0  0  0
  1 30  1  0  0  0  0
  1 31  1  0  0  0  0
  1 32  1  0  0  0  0
  2  3  1  0  0  0  0
  2  4  1  0  0  0  0
  3 33  1  0  0  0  0
  3 34  1  0  0  0  0
  3 35  1  0  0  0  0
  4  5  1  0  0  0  0
  4 36  1  0  0  0  0
  4 37  1  0  0  0  0
  5  6  2  0  0  0  0
  5  7  1  0  0  0  0
  7  8  1  0  0  0  0
  7  9  1  0  0  0  0
  8 38  1  0  0  0  0
  8 39  1  0  0  0  0
  8 40  1  0  0  0  0
  9 10  1  0  0  0  0
  9 29  2  0  0  0  0
 10 11  2  0  0  0  0
 10 41  1  0  0  0  0
 11 12  1  0  0  0  0
 11 42  1  0  0  0  0
 12 13  1  0  0  0  0
 12 28  2  0  0  0  0
 13 14  1  0  0  0  0
 13 43  1  0  0  0  0
 14 15  1  0  0  0  0
 14 27  2  0  0  0  0
 15 16  2  0  0  0  0
 15 25  1  0  0  0  0
 16 17  1  0  0  0  0
 16 18  1  0  0  0  0
 17 44  1  0  0  0  0
 17 45  1  0  0  0  0
 18 19  1  0  0  0  0
 18 23  2  0  0  0  0
 19 20  2  0  0  0  0
 19 46  1  0  0  0  0
 20 21  1  0  0  0  0
 20 47  1  0  0  0  0
 21 22  2  0  0  0  0
 21 48  1  0  0  0  0
 22 23  1  0  0  0  0
 22 49  1  0  0  0  0
 23 24  1  0  0  0  0
 24 25  1  0  0  0  0
 24 50  1  0  0  0  0
 25 26  2  0  0  0  0
 27 28  1  0  0  0  0
 28 29  1  0  0  0  0
 29 51  1  0  0  0  0
M  END
$$$$
