CHEMBL175830
 OpenBabel04072215363D

 46 49  0  0  0  0  0  0  0  0999 V2000
    2.4691   -0.0165   -1.3015 C   0  0  0  0  0  0  0  0  0  0  0  0
    2.1718    0.0985    0.2135 C   0  0  0  0  0  0  0  0  0  0  0  0
    2.8049   -1.1496    0.8812 C   0  0  0  0  0  0  0  0  0  0  0  0
    2.8801    1.2697    0.7530 N   0  0  0  0  0  0  0  0  0  0  0  0
    2.5075    2.5518    0.3722 C   0  0  0  0  0  0  0  0  0  0  0  0
    1.2568    2.8134    0.0577 N   0  0  0  0  0  0  0  0  0  0  0  0
    1.0061    4.0574   -0.2344 C   0  0  0  0  0  0  0  0  0  0  0  0
   -0.2871    4.3235   -0.5351 O   0  0  0  0  0  0  0  0  0  0  0  0
    1.8657    5.0653   -0.2892 N   0  0  0  0  0  0  0  0  0  0  0  0
    3.1027    4.7107    0.0181 C   0  0  0  0  0  0  0  0  0  0  0  0
    4.0614    5.7364   -0.0180 N   0  0  0  0  0  0  0  0  0  0  0  0
    5.4104    5.5791   -0.3754 C   0  0  0  0  0  0  0  0  0  0  0  0
    6.3556    6.4431    0.1963 C   0  0  0  0  0  0  0  0  0  0  0  0
    7.7316    6.3027   -0.0463 C   0  0  0  0  0  0  0  0  0  0  0  0
    8.0831    5.3543   -1.0040 C   0  0  0  0  0  0  0  0  0  0  0  0
    9.2762    4.8487   -1.4451 N   0  0  0  0  0  0  0  0  0  0  0  0
    9.0426    4.3000   -2.6733 C   0  0  0  0  0  0  0  0  0  0  0  0
    7.7723    3.9916   -2.7970 N   0  0  0  0  0  0  0  0  0  0  0  0
    7.1578    4.6302   -1.7440 C   0  0  0  0  0  0  0  0  0  0  0  0
    5.8081    4.6781   -1.3771 C   0  0  0  0  0  0  0  0  0  0  0  0
    3.4649    3.4637    0.3580 N   0  0  0  0  0  0  0  0  0  0  0  0
    0.6701    0.1130    0.5635 C   0  0  0  0  0  0  0  0  0  0  0  0
   -0.3364    0.0653   -0.4210 C   0  0  0  0  0  0  0  0  0  0  0  0
   -1.6885    0.1668   -0.0833 C   0  0  0  0  0  0  0  0  0  0  0  0
   -2.0669    0.3003    1.2485 C   0  0  0  0  0  0  0  0  0  0  0  0
   -1.0945    0.3354    2.2431 C   0  0  0  0  0  0  0  0  0  0  0  0
    0.2600    0.2492    1.9044 C   0  0  0  0  0  0  0  0  0  0  0  0
    3.5483   -0.0608   -1.4930 H   0  0  0  0  0  0  0  0  0  0  0  0
    2.0810    0.8412   -1.8621 H   0  0  0  0  0  0  0  0  0  0  0  0
    2.0247   -0.9229   -1.7282 H   0  0  0  0  0  0  0  0  0  0  0  0
    3.8699   -1.2321    0.6354 H   0  0  0  0  0  0  0  0  0  0  0  0
    2.3106   -2.0725    0.5522 H   0  0  0  0  0  0  0  0  0  0  0  0
    2.7395   -1.1085    1.9742 H   0  0  0  0  0  0  0  0  0  0  0  0
    3.8914    1.2300    0.6920 H   0  0  0  0  0  0  0  0  0  0  0  0
   -0.6506    3.4230   -0.3684 H   0  0  0  0  0  0  0  0  0  0  0  0
    3.6199    6.5236   -0.4745 H   0  0  0  0  0  0  0  0  0  0  0  0
    6.0263    7.2158    0.8898 H   0  0  0  0  0  0  0  0  0  0  0  0
    8.4639    6.9342    0.4467 H   0  0  0  0  0  0  0  0  0  0  0  0
   10.1331    4.7793   -0.9141 H   0  0  0  0  0  0  0  0  0  0  0  0
    9.8267    4.1136   -3.3951 H   0  0  0  0  0  0  0  0  0  0  0  0
    5.1019    4.0410   -1.8952 H   0  0  0  0  0  0  0  0  0  0  0  0
   -0.0906   -0.0198   -1.4757 H   0  0  0  0  0  0  0  0  0  0  0  0
   -2.4444    0.1490   -0.8646 H   0  0  0  0  0  0  0  0  0  0  0  0
   -3.1186    0.3808    1.5108 H   0  0  0  0  0  0  0  0  0  0  0  0
   -1.3857    0.4446    3.2846 H   0  0  0  0  0  0  0  0  0  0  0  0
    1.0014    0.3245    2.6969 H   0  0  0  0  0  0  0  0  0  0  0  0
  1  2  1  0  0  0  0
  1 28  1  0  0  0  0
  1 29  1  0  0  0  0
  1 30  1  0  0  0  0
  2  3  1  0  0  0  0
  2  4  1  0  0  0  0
  2 22  1  0  0  0  0
  3 31  1  0  0  0  0
  3 32  1  0  0  0  0
  3 33  1  0  0  0  0
  4  5  1  0  0  0  0
  4 34  1  0  0  0  0
  5  6  1  0  0  0  0
  5 21  2  0  0  0  0
  6  7  2  0  0  0  0
  7  8  1  0  0  0  0
  7  9  1  0  0  0  0
  8 35  1  0  0  0  0
  9 10  2  0  0  0  0
 10 11  1  0  0  0  0
 10 21  1  0  0  0  0
 11 12  1  0  0  0  0
 11 36  1  0  0  0  0
 12 13  1  0  0  0  0
 12 20  2  0  0  0  0
 13 14  2  0  0  0  0
 13 37  1  0  0  0  0
 14 15  1  0  0  0  0
 14 38  1  0  0  0  0
 15 16  1  0  0  0  0
 15 19  2  0  0  0  0
 16 17  1  0  0  0  0
 16 39  1  0  0  0  0
 17 18  2  0  0  0  0
 17 40  1  0  0  0  0
 18 19  1  0  0  0  0
 19 20  1  0  0  0  0
 20 41  1  0  0  0  0
 22 23  1  0  0  0  0
 22 27  2  0  0  0  0
 23 24  2  0  0  0  0
 23 42  1  0  0  0  0
 24 25  1  0  0  0  0
 24 43  1  0  0  0  0
 25 26  2  0  0  0  0
 25 44  1  0  0  0  0
 26 27  1  0  0  0  0
 26 45  1  0  0  0  0
 27 46  1  0  0  0  0
M  END
$$$$
