CHEMBL3906467
 OpenBabel04072215373D

 51 54  0  0  0  0  0  0  0  0999 V2000
    1.2315   -0.7737   -0.2990 O   0  0  0  0  0  0  0  0  0  0  0  0
    2.3259   -0.2649   -0.0935 C   0  0  0  0  0  0  0  0  0  0  0  0
    2.9097   -0.1503    1.1589 N   0  0  0  0  0  0  0  0  0  0  0  0
    2.3257   -0.5461    2.3884 C   0  0  0  0  0  0  0  0  0  0  0  0
    1.1828   -1.3397    2.4901 C   0  0  0  0  0  0  0  0  0  0  0  0
    0.6241   -1.5984    3.7401 C   0  0  0  0  0  0  0  0  0  0  0  0
   -0.4774   -2.3573    3.8200 F   0  0  0  0  0  0  0  0  0  0  0  0
    1.1767   -1.0788    4.9031 C   0  0  0  0  0  0  0  0  0  0  0  0
    2.3281   -0.3010    4.8146 C   0  0  0  0  0  0  0  0  0  0  0  0
    2.8597    0.1697    5.9971 O   0  0  0  0  0  0  0  0  0  0  0  0
    3.3732    1.4657    6.0174 C   0  0  0  0  0  0  0  0  0  0  0  0
    4.2560    1.7660    7.0340 C   0  0  0  0  0  0  0  0  0  0  0  0
    4.7560    3.0513    7.0315 C   0  0  0  0  0  0  0  0  0  0  0  0
    5.6412    3.4335    8.0538 N   0  0  0  0  0  0  0  0  0  0  0  0
    6.1466    4.7121    8.1959 C   0  0  0  0  0  0  0  0  0  0  0  0
    5.9399    5.6713    7.4675 O   0  0  0  0  0  0  0  0  0  0  0  0
    7.0192    4.9572    9.3830 C   0  0  0  0  0  0  0  0  0  0  0  0
    7.5215    3.9398   10.3724 C   0  0  0  0  0  0  0  0  0  0  0  0
    6.4158    4.8760   10.7673 C   0  0  0  0  0  0  0  0  0  0  0  0
    4.4154    3.9385    6.0884 N   0  0  0  0  0  0  0  0  0  0  0  0
    3.5335    3.5559    5.1662 C   0  0  0  0  0  0  0  0  0  0  0  0
    2.9756    2.3495    5.0855 N   0  0  0  0  0  0  0  0  0  0  0  0
    2.9236   -0.0775    3.5627 C   0  0  0  0  0  0  0  0  0  0  0  0
    3.1306    0.2917   -1.0792 N   0  0  0  0  0  0  0  0  0  0  0  0
    2.7902    0.4587   -2.4433 C   0  0  0  0  0  0  0  0  0  0  0  0
    1.5308    0.1627   -2.9674 C   0  0  0  0  0  0  0  0  0  0  0  0
    1.2735    0.3458   -4.3211 C   0  0  0  0  0  0  0  0  0  0  0  0
    0.0608    0.0493   -4.8069 F   0  0  0  0  0  0  0  0  0  0  0  0
    2.2473    0.8308   -5.1803 C   0  0  0  0  0  0  0  0  0  0  0  0
    3.5152    1.1481   -4.6814 C   0  0  0  0  0  0  0  0  0  0  0  0
    4.5881    1.6781   -5.5968 C   0  0  0  0  0  0  0  0  0  0  0  0
    4.2112    1.7409   -6.9031 F   0  0  0  0  0  0  0  0  0  0  0  0
    4.9814    2.9376   -5.2591 F   0  0  0  0  0  0  0  0  0  0  0  0
    5.7155    0.9152   -5.5685 F   0  0  0  0  0  0  0  0  0  0  0  0
    3.7747    0.9634   -3.3071 C   0  0  0  0  0  0  0  0  0  0  0  0
    3.7110    0.4582    1.2290 H   0  0  0  0  0  0  0  0  0  0  0  0
    0.6931   -1.7744    1.6261 H   0  0  0  0  0  0  0  0  0  0  0  0
    0.7009   -1.2782    5.8561 H   0  0  0  0  0  0  0  0  0  0  0  0
    4.5236    1.0277    7.7751 H   0  0  0  0  0  0  0  0  0  0  0  0
    5.8751    2.7486    8.7534 H   0  0  0  0  0  0  0  0  0  0  0  0
    7.6899    5.7976    9.2087 H   0  0  0  0  0  0  0  0  0  0  0  0
    8.5027    4.1164   10.8047 H   0  0  0  0  0  0  0  0  0  0  0  0
    7.2920    2.8901   10.2615 H   0  0  0  0  0  0  0  0  0  0  0  0
    6.6386    5.6877   11.4516 H   0  0  0  0  0  0  0  0  0  0  0  0
    5.4143    4.4753   10.8749 H   0  0  0  0  0  0  0  0  0  0  0  0
    3.2560    4.2892    4.4178 H   0  0  0  0  0  0  0  0  0  0  0  0
    3.8367    0.5090    3.5055 H   0  0  0  0  0  0  0  0  0  0  0  0
    4.0764    0.5228   -0.8169 H   0  0  0  0  0  0  0  0  0  0  0  0
    0.7144   -0.2123   -2.3615 H   0  0  0  0  0  0  0  0  0  0  0  0
    2.0031    0.9565   -6.2321 H   0  0  0  0  0  0  0  0  0  0  0  0
    4.7624    1.2186   -2.9246 H   0  0  0  0  0  0  0  0  0  0  0  0
  1  2  2  0  0  0  0
  2  3  1  0  0  0  0
  2 24  1  0  0  0  0
  3  4  1  0  0  0  0
  3 36  1  0  0  0  0
  4  5  1  0  0  0  0
  4 23  2  0  0  0  0
  5  6  2  0  0  0  0
  5 37  1  0  0  0  0
  6  7  1  0  0  0  0
  6  8  1  0  0  0  0
  8  9  2  0  0  0  0
  8 38  1  0  0  0  0
  9 10  1  0  0  0  0
  9 23  1  0  0  0  0
 10 11  1  0  0  0  0
 11 12  1  0  0  0  0
 11 22  2  0  0  0  0
 12 13  2  0  0  0  0
 12 39  1  0  0  0  0
 13 14  1  0  0  0  0
 13 20  1  0  0  0  0
 14 15  1  0  0  0  0
 14 40  1  0  0  0  0
 15 16  2  0  0  0  0
 15 17  1  0  0  0  0
 17 18  1  0  0  0  0
 17 19  1  0  0  0  0
 17 41  1  0  0  0  0
 18 19  1  0  0  0  0
 18 42  1  0  0  0  0
 18 43  1  0  0  0  0
 19 44  1  0  0  0  0
 19 45  1  0  0  0  0
 20 21  2  0  0  0  0
 21 22  1  0  0  0  0
 21 46  1  0  0  0  0
 23 47  1  0  0  0  0
 24 25  1  0  0  0  0
 24 48  1  0  0  0  0
 25 26  1  0  0  0  0
 25 35  2  0  0  0  0
 26 27  2  0  0  0  0
 26 49  1  0  0  0  0
 27 28  1  0  0  0  0
 27 29  1  0  0  0  0
 29 30  2  0  0  0  0
 29 50  1  0  0  0  0
 30 31  1  0  0  0  0
 30 35  1  0  0  0  0
 31 32  1  0  0  0  0
 31 33  1  0  0  0  0
 31 34  1  0  0  0  0
 35 51  1  0  0  0  0
M  END
$$$$
