CHEMBL3981706
 OpenBabel04072215373D

 81 85  0  0  0  0  0  0  0  0999 V2000
    0.4918    3.2753    2.5216 C   0  0  0  0  0  0  0  0  0  0  0  0
    1.8668    3.6612    2.4804 O   0  0  0  0  0  0  0  0  0  0  0  0
    2.7723    2.7078    2.0756 C   0  0  0  0  0  0  0  0  0  0  0  0
    2.4353    1.3935    1.7442 C   0  0  0  0  0  0  0  0  0  0  0  0
    3.4237    0.5164    1.3080 C   0  0  0  0  0  0  0  0  0  0  0  0
    3.2259   -0.7735    0.8903 O   0  0  0  0  0  0  0  0  0  0  0  0
    1.9018   -1.2851    0.9712 C   0  0  0  0  0  0  0  0  0  0  0  0
    4.7514    0.9531    1.2245 C   0  0  0  0  0  0  0  0  0  0  0  0
    5.1257    2.2759    1.4869 C   0  0  0  0  0  0  0  0  0  0  0  0
    6.3978    2.7612    1.1256 N   0  0  0  0  0  0  0  0  0  0  0  0
    6.9729    2.3627   -0.2211 C   0  0  0  0  0  0  0  0  0  0  0  0
    6.1662    1.7457   -1.3965 C   0  0  0  0  0  0  0  0  0  0  0  0
    5.1982    2.5333   -2.1981 N   0  0  0  0  0  0  0  0  0  0  0  0
    4.5860    1.6969   -3.2760 C   0  0  0  0  0  0  0  0  0  0  0  0
    5.6226    1.1119   -4.2546 C   0  0  0  0  0  0  0  0  0  0  0  0
    5.0112    0.3139   -5.4225 C   0  0  0  0  0  0  0  0  0  0  0  0
    6.1187    0.1057   -6.4808 C   0  0  0  0  0  0  0  0  0  0  0  0
    4.5599   -1.0907   -4.9782 C   0  0  0  0  0  0  0  0  0  0  0  0
    3.9432    1.0578   -6.0907 N   0  0  0  0  0  0  0  0  0  0  0  0
    2.9375    1.7358   -5.2626 C   0  0  0  0  0  0  0  0  0  0  0  0
    2.2441    2.7393   -6.2097 C   0  0  0  0  0  0  0  0  0  0  0  0
    1.8419    0.7653   -4.7815 C   0  0  0  0  0  0  0  0  0  0  0  0
    3.5717    2.5233   -4.0878 C   0  0  0  0  0  0  0  0  0  0  0  0
    7.4873    3.2733    1.9407 C   0  0  0  0  0  0  0  0  0  0  0  0
    8.2523    4.2833    1.3582 C   0  0  0  0  0  0  0  0  0  0  0  0
    9.5957    4.4206    1.6663 C   0  0  0  0  0  0  0  0  0  0  0  0
   10.1568    3.7128    2.6901 C   0  0  0  0  0  0  0  0  0  0  0  0
   11.4933    3.8190    2.7391 N   0  0  0  0  0  0  0  0  0  0  0  0
   12.0957    3.3469    3.8360 C   0  0  0  0  0  0  0  0  0  0  0  0
   11.3851    2.8482    4.9023 C   0  0  0  0  0  0  0  0  0  0  0  0
   12.1224    2.8134    6.1712 C   0  0  0  0  0  0  0  0  0  0  0  0
   12.1307    3.7683    7.2265 C   0  0  0  0  0  0  0  0  0  0  0  0
   13.1421    3.5962    8.0884 N   0  0  0  0  0  0  0  0  0  0  0  0
   13.8035    2.5398    7.5886 N   0  0  0  0  0  0  0  0  0  0  0  0
   14.8561    1.9080    8.3518 C   0  0  0  0  0  0  0  0  0  0  0  0
   13.3203    2.1382    6.3708 C   0  0  0  0  0  0  0  0  0  0  0  0
   10.0220    2.6028    4.7987 N   0  0  0  0  0  0  0  0  0  0  0  0
    9.3691    2.9818    3.6116 C   0  0  0  0  0  0  0  0  0  0  0  0
    8.0157    2.7147    3.1426 C   0  0  0  0  0  0  0  0  0  0  0  0
    4.1129    3.1373    1.9558 C   0  0  0  0  0  0  0  0  0  0  0  0
   -0.1076    4.1564    2.7724 H   0  0  0  0  0  0  0  0  0  0  0  0
    0.3193    2.5243    3.3008 H   0  0  0  0  0  0  0  0  0  0  0  0
    0.1415    2.9139    1.5473 H   0  0  0  0  0  0  0  0  0  0  0  0
    1.4088    1.0590    1.8081 H   0  0  0  0  0  0  0  0  0  0  0  0
    1.9220   -2.3200    0.6164 H   0  0  0  0  0  0  0  0  0  0  0  0
    1.2134   -0.7278    0.3257 H   0  0  0  0  0  0  0  0  0  0  0  0
    1.5529   -1.2937    2.0084 H   0  0  0  0  0  0  0  0  0  0  0  0
    5.4980    0.2390    0.8922 H   0  0  0  0  0  0  0  0  0  0  0  0
    7.7636    1.6312    0.0019 H   0  0  0  0  0  0  0  0  0  0  0  0
    7.4703    3.2251   -0.6822 H   0  0  0  0  0  0  0  0  0  0  0  0
    5.7062    0.8026   -1.1102 H   0  0  0  0  0  0  0  0  0  0  0  0
    6.9701    1.4731   -2.0920 H   0  0  0  0  0  0  0  0  0  0  0  0
    5.6718    3.3351   -2.6153 H   0  0  0  0  0  0  0  0  0  0  0  0
    4.0423    0.8754   -2.7843 H   0  0  0  0  0  0  0  0  0  0  0  0
    6.3123    0.4433   -3.7279 H   0  0  0  0  0  0  0  0  0  0  0  0
    6.2293    1.9388   -4.6506 H   0  0  0  0  0  0  0  0  0  0  0  0
    6.9607   -0.4584   -6.0611 H   0  0  0  0  0  0  0  0  0  0  0  0
    6.5148    1.0611   -6.8451 H   0  0  0  0  0  0  0  0  0  0  0  0
    5.7487   -0.4533   -7.3485 H   0  0  0  0  0  0  0  0  0  0  0  0
    5.4163   -1.6819   -4.6327 H   0  0  0  0  0  0  0  0  0  0  0  0
    4.1007   -1.6415   -5.8085 H   0  0  0  0  0  0  0  0  0  0  0  0
    3.8504   -1.0741   -4.1506 H   0  0  0  0  0  0  0  0  0  0  0  0
    3.4946    0.4829   -6.8043 H   0  0  0  0  0  0  0  0  0  0  0  0
    1.7733    2.2261   -7.0579 H   0  0  0  0  0  0  0  0  0  0  0  0
    2.9538    3.4693   -6.6164 H   0  0  0  0  0  0  0  0  0  0  0  0
    1.4594    3.2975   -5.6868 H   0  0  0  0  0  0  0  0  0  0  0  0
    1.4597    0.1555   -5.6107 H   0  0  0  0  0  0  0  0  0  0  0  0
    0.9879    1.3147   -4.3695 H   0  0  0  0  0  0  0  0  0  0  0  0
    2.1810    0.0882   -3.9978 H   0  0  0  0  0  0  0  0  0  0  0  0
    2.7785    2.8934   -3.4235 H   0  0  0  0  0  0  0  0  0  0  0  0
    4.0787    3.4148   -4.4856 H   0  0  0  0  0  0  0  0  0  0  0  0
    7.8539    4.8738    0.5349 H   0  0  0  0  0  0  0  0  0  0  0  0
   10.2167    5.0709    1.0611 H   0  0  0  0  0  0  0  0  0  0  0  0
   13.1751    3.4597    3.8504 H   0  0  0  0  0  0  0  0  0  0  0  0
   11.4761    4.6185    7.3733 H   0  0  0  0  0  0  0  0  0  0  0  0
   14.9930    2.4291    9.3040 H   0  0  0  0  0  0  0  0  0  0  0  0
   15.7867    1.9240    7.7789 H   0  0  0  0  0  0  0  0  0  0  0  0
   14.5451    0.8775    8.5434 H   0  0  0  0  0  0  0  0  0  0  0  0
   13.8637    1.4218    5.7699 H   0  0  0  0  0  0  0  0  0  0  0  0
    7.4148    1.9913    3.7092 H   0  0  0  0  0  0  0  0  0  0  0  0
    4.3427    4.1821    2.1479 H   0  0  0  0  0  0  0  0  0  0  0  0
  1  2  1  0  0  0  0
  1 41  1  0  0  0  0
  1 42  1  0  0  0  0
  1 43  1  0  0  0  0
  2  3  1  0  0  0  0
  3  4  1  0  0  0  0
  3 40  2  0  0  0  0
  4  5  2  0  0  0  0
  4 44  1  0  0  0  0
  5  6  1  0  0  0  0
  5  8  1  0  0  0  0
  6  7  1  0  0  0  0
  7 45  1  0  0  0  0
  7 46  1  0  0  0  0
  7 47  1  0  0  0  0
  8  9  2  0  0  0  0
  8 48  1  0  0  0  0
  9 10  1  0  0  0  0
  9 40  1  0  0  0  0
 10 11  1  0  0  0  0
 10 24  1  0  0  0  0
 11 12  1  0  0  0  0
 11 49  1  0  0  0  0
 11 50  1  0  0  0  0
 12 13  1  0  0  0  0
 12 51  1  0  0  0  0
 12 52  1  0  0  0  0
 13 14  1  0  0  0  0
 13 53  1  0  0  0  0
 14 15  1  0  0  0  0
 14 23  1  0  0  0  0
 14 54  1  0  0  0  0
 15 16  1  0  0  0  0
 15 55  1  0  0  0  0
 15 56  1  0  0  0  0
 16 17  1  0  0  0  0
 16 18  1  0  0  0  0
 16 19  1  0  0  0  0
 17 57  1  0  0  0  0
 17 58  1  0  0  0  0
 17 59  1  0  0  0  0
 18 60  1  0  0  0  0
 18 61  1  0  0  0  0
 18 62  1  0  0  0  0
 19 20  1  0  0  0  0
 19 63  1  0  0  0  0
 20 21  1  0  0  0  0
 20 22  1  0  0  0  0
 20 23  1  0  0  0  0
 21 64  1  0  0  0  0
 21 65  1  0  0  0  0
 21 66  1  0  0  0  0
 22 67  1  0  0  0  0
 22 68  1  0  0  0  0
 22 69  1  0  0  0  0
 23 70  1  0  0  0  0
 23 71  1  0  0  0  0
 24 25  1  0  0  0  0
 24 39  2  0  0  0  0
 25 26  2  0  0  0  0
 25 72  1  0  0  0  0
 26 27  1  0  0  0  0
 26 73  1  0  0  0  0
 27 28  1  0  0  0  0
 27 38  2  0  0  0  0
 28 29  2  0  0  0  0
 29 30  1  0  0  0  0
 29 74  1  0  0  0  0
 30 31  1  0  0  0  0
 30 37  2  0  0  0  0
 31 32  1  0  0  0  0
 31 36  2  0  0  0  0
 32 33  2  0  0  0  0
 32 75  1  0  0  0  0
 33 34  1  0  0  0  0
 34 35  1  0  0  0  0
 34 36  1  0  0  0  0
 35 76  1  0  0  0  0
 35 77  1  0  0  0  0
 35 78  1  0  0  0  0
 36 79  1  0  0  0  0
 37 38  1  0  0  0  0
 38 39  1  0  0  0  0
 39 80  1  0  0  0  0
 40 81  1  0  0  0  0
M  END
$$$$
