CHEMBL195218
 OpenBabel04072215363D

 63 65  0  0  0  0  0  0  0  0999 V2000
   -2.0202   -3.8304    8.4178 C   0  0  0  0  0  0  0  0  0  0  0  0
   -2.3387   -3.5317    7.0604 O   0  0  0  0  0  0  0  0  0  0  0  0
   -1.1387   -3.1818    6.3966 N   0  0  0  0  0  0  0  0  0  0  0  0
   -0.5148   -4.2094    5.7246 C   0  0  0  0  0  0  0  0  0  0  0  0
   -0.8160   -5.3956    5.8218 O   0  0  0  0  0  0  0  0  0  0  0  0
    0.6397   -3.8284    4.8737 C   0  0  0  0  0  0  0  0  0  0  0  0
    1.6431   -4.7860    4.6551 C   0  0  0  0  0  0  0  0  0  0  0  0
    2.7612   -4.5068    3.8548 C   0  0  0  0  0  0  0  0  0  0  0  0
    3.7989   -5.4458    3.6606 N   0  0  0  0  0  0  0  0  0  0  0  0
    4.1098   -6.4915    4.5059 C   0  0  0  0  0  0  0  0  0  0  0  0
    3.9532   -6.3126    5.7904 N   0  0  0  0  0  0  0  0  0  0  0  0
    4.2506   -7.3095    6.6722 C   0  0  0  0  0  0  0  0  0  0  0  0
    4.6792   -8.4889    6.3765 N   0  0  0  0  0  0  0  0  0  0  0  0
    4.8282   -8.7012    5.0635 N   0  0  0  0  0  0  0  0  0  0  0  0
    5.2239   -9.8847    4.5195 C   0  0  0  0  0  0  0  0  0  0  0  0
    5.2896   -9.7583    3.1585 C   0  0  0  0  0  0  0  0  0  0  0  0
    5.6820  -10.7665    2.2931 N   0  0  0  0  0  0  0  0  0  0  0  0
    6.1434  -12.0116    2.6451 C   0  0  0  0  0  0  0  0  0  0  0  0
    6.2139  -12.5186    3.7522 O   0  0  0  0  0  0  0  0  0  0  0  0
    6.6422  -12.6168    1.5228 O   0  0  0  0  0  0  0  0  0  0  0  0
    7.8763  -13.3115    1.7485 C   0  0  0  0  0  0  0  0  0  0  0  0
    7.7486  -14.8294    1.7870 C   0  0  0  0  0  0  0  0  0  0  0  0
    7.2060  -15.4168    0.4920 C   0  0  0  0  0  0  0  0  0  0  0  0
    7.3070  -17.2046    0.4430 S   0  0  0  0  0  0  0  0  0  0  0  0
    6.2876  -17.7548    1.7902 C   0  0  0  0  0  0  0  0  0  0  0  0
    6.6689  -17.6386   -0.7849 O   0  0  0  0  0  0  0  0  0  0  0  0
    8.6755  -17.5901    0.7329 O   0  0  0  0  0  0  0  0  0  0  0  0
    4.8940   -8.3963    2.8413 C   0  0  0  0  0  0  0  0  0  0  0  0
    4.8167   -7.7431    1.4711 C   0  0  0  0  0  0  0  0  0  0  0  0
    6.1635   -7.1392    1.0596 C   0  0  0  0  0  0  0  0  0  0  0  0
    4.2854   -8.6406    0.3541 C   0  0  0  0  0  0  0  0  0  0  0  0
    4.6043   -7.7834    4.0719 C   0  0  0  0  0  0  0  0  0  0  0  0
    2.8506   -3.2225    3.2952 C   0  0  0  0  0  0  0  0  0  0  0  0
    3.9143   -2.9036    2.5438 F   0  0  0  0  0  0  0  0  0  0  0  0
    1.8651   -2.2597    3.5038 C   0  0  0  0  0  0  0  0  0  0  0  0
    0.7634   -2.5680    4.2916 C   0  0  0  0  0  0  0  0  0  0  0  0
   -0.1783   -1.6313    4.4776 F   0  0  0  0  0  0  0  0  0  0  0  0
   -2.9476   -4.0542    8.9501 H   0  0  0  0  0  0  0  0  0  0  0  0
   -1.5386   -2.9708    8.8951 H   0  0  0  0  0  0  0  0  0  0  0  0
   -1.3657   -4.7069    8.4770 H   0  0  0  0  0  0  0  0  0  0  0  0
   -1.1005   -2.2285    6.0482 H   0  0  0  0  0  0  0  0  0  0  0  0
    1.5345   -5.7662    5.1182 H   0  0  0  0  0  0  0  0  0  0  0  0
    4.3513   -5.3114    2.8249 H   0  0  0  0  0  0  0  0  0  0  0  0
    4.1060   -7.0667    7.7389 H   0  0  0  0  0  0  0  0  0  0  0  0
    5.4365  -10.7142    5.1818 H   0  0  0  0  0  0  0  0  0  0  0  0
    5.7685  -10.5582    1.3143 H   0  0  0  0  0  0  0  0  0  0  0  0
    8.3599  -12.9607    2.6694 H   0  0  0  0  0  0  0  0  0  0  0  0
    8.5381  -13.0182    0.9268 H   0  0  0  0  0  0  0  0  0  0  0  0
    7.1101  -15.1280    2.6234 H   0  0  0  0  0  0  0  0  0  0  0  0
    8.7476  -15.2404    1.9829 H   0  0  0  0  0  0  0  0  0  0  0  0
    7.7898  -15.0658   -0.3664 H   0  0  0  0  0  0  0  0  0  0  0  0
    6.1587  -15.1443    0.3317 H   0  0  0  0  0  0  0  0  0  0  0  0
    5.2835  -17.3482    1.6623 H   0  0  0  0  0  0  0  0  0  0  0  0
    6.7266  -17.4267    2.7346 H   0  0  0  0  0  0  0  0  0  0  0  0
    6.2537  -18.8465    1.7651 H   0  0  0  0  0  0  0  0  0  0  0  0
    4.0953   -6.9235    1.5361 H   0  0  0  0  0  0  0  0  0  0  0  0
    6.9378   -7.9106    0.9678 H   0  0  0  0  0  0  0  0  0  0  0  0
    6.5121   -6.4056    1.7951 H   0  0  0  0  0  0  0  0  0  0  0  0
    6.0826   -6.6290    0.0936 H   0  0  0  0  0  0  0  0  0  0  0  0
    5.0388   -9.3460   -0.0106 H   0  0  0  0  0  0  0  0  0  0  0  0
    4.0029   -8.0319   -0.5162 H   0  0  0  0  0  0  0  0  0  0  0  0
    3.4025   -9.2027    0.6705 H   0  0  0  0  0  0  0  0  0  0  0  0
    1.9579   -1.2727    3.0588 H   0  0  0  0  0  0  0  0  0  0  0  0
  1  2  1  0  0  0  0
  1 38  1  0  0  0  0
  1 39  1  0  0  0  0
  1 40  1  0  0  0  0
  2  3  1  0  0  0  0
  3  4  1  0  0  0  0
  3 41  1  0  0  0  0
  4  5  2  0  0  0  0
  4  6  1  0  0  0  0
  6  7  1  0  0  0  0
  6 36  2  0  0  0  0
  7  8  2  0  0  0  0
  7 42  1  0  0  0  0
  8  9  1  0  0  0  0
  8 33  1  0  0  0  0
  9 10  1  0  0  0  0
  9 43  1  0  0  0  0
 10 11  2  0  0  0  0
 10 32  1  0  0  0  0
 11 12  1  0  0  0  0
 12 13  2  0  0  0  0
 12 44  1  0  0  0  0
 13 14  1  0  0  0  0
 14 15  1  0  0  0  0
 14 32  1  0  0  0  0
 15 16  2  0  0  0  0
 15 45  1  0  0  0  0
 16 17  1  0  0  0  0
 16 28  1  0  0  0  0
 17 18  1  0  0  0  0
 17 46  1  0  0  0  0
 18 19  2  0  0  0  0
 18 20  1  0  0  0  0
 20 21  1  0  0  0  0
 21 22  1  0  0  0  0
 21 47  1  0  0  0  0
 21 48  1  0  0  0  0
 22 23  1  0  0  0  0
 22 49  1  0  0  0  0
 22 50  1  0  0  0  0
 23 24  1  0  0  0  0
 23 51  1  0  0  0  0
 23 52  1  0  0  0  0
 24 25  1  0  0  0  0
 24 26  2  0  0  0  0
 24 27  2  0  0  0  0
 25 53  1  0  0  0  0
 25 54  1  0  0  0  0
 25 55  1  0  0  0  0
 28 29  1  0  0  0  0
 28 32  2  0  0  0  0
 29 30  1  0  0  0  0
 29 31  1  0  0  0  0
 29 56  1  0  0  0  0
 30 57  1  0  0  0  0
 30 58  1  0  0  0  0
 30 59  1  0  0  0  0
 31 60  1  0  0  0  0
 31 61  1  0  0  0  0
 31 62  1  0  0  0  0
 33 34  1  0  0  0  0
 33 35  2  0  0  0  0
 35 36  1  0  0  0  0
 35 63  1  0  0  0  0
 36 37  1  0  0  0  0
M  END
$$$$
