CHEMBL591924
 OpenBabel04072215383D

 64 68  0  0  1  0  0  0  0  0999 V2000
   -2.0358    3.3735    8.5585 C   0  0  0  0  0  0  0  0  0  0  0  0
   -0.6284    3.2092    8.3432 O   0  0  0  0  0  0  0  0  0  0  0  0
   -0.0351    2.3294    9.2239 C   0  0  0  0  0  0  0  0  0  0  0  0
   -0.4728    2.1772   10.5470 C   0  0  0  0  0  0  0  0  0  0  0  0
    0.1131    1.2257   11.3787 C   0  0  0  0  0  0  0  0  0  0  0  0
    1.1506    0.4347   10.8998 C   0  0  0  0  0  0  0  0  0  0  0  0
    1.6248    0.6121    9.5989 C   0  0  0  0  0  0  0  0  0  0  0  0
    1.0522    1.5638    8.7500 C   0  0  0  0  0  0  0  0  0  0  0  0
    1.5481    1.8138    7.4470 N   0  0  0  0  0  0  0  0  0  0  0  0
    2.4447    1.0315    6.7392 C   0  0  0  0  0  0  0  0  0  0  0  0
    2.8487   -0.0847    7.0541 O   0  0  0  0  0  0  0  0  0  0  0  0
    2.9858    1.7013    5.4972 C   0  0  0  0  0  0  0  0  0  0  0  0
    2.7213    0.8731    4.2321 C   0  0  3  0  0  0  0  0  0  0  0  0
    1.2380    0.7952    3.9974 N   0  0  0  0  0  0  0  0  0  0  0  0
    0.7829    0.0557    2.8899 C   0  0  0  0  0  0  0  0  0  0  0  0
    1.4167   -1.1005    2.4189 C   0  0  0  0  0  0  0  0  0  0  0  0
    0.9563   -1.7678    1.2734 C   0  0  0  0  0  0  0  0  0  0  0  0
   -0.1484   -1.2819    0.5729 C   0  0  0  0  0  0  0  0  0  0  0  0
   -0.6076   -1.8318   -0.6042 O   0  0  0  0  0  0  0  0  0  0  0  0
    0.3000   -2.1974   -1.5845 C   0  0  0  0  0  0  0  0  0  0  0  0
    1.5504   -1.5926   -1.7468 C   0  0  0  0  0  0  0  0  0  0  0  0
    2.4082   -2.0634   -2.7222 C   0  0  0  0  0  0  0  0  0  0  0  0
    2.1299   -3.0519   -3.5856 N   0  0  0  0  0  0  0  0  0  0  0  0
    0.8802   -3.5799   -3.4979 C   0  0  0  0  0  0  0  0  0  0  0  0
    0.3728   -4.5936   -4.3601 C   0  0  0  0  0  0  0  0  0  0  0  0
   -0.9405   -4.9050   -4.0913 C   0  0  0  0  0  0  0  0  0  0  0  0
   -1.7108   -5.9018   -4.8948 C   0  0  0  0  0  0  0  0  0  0  0  0
   -3.0491   -6.2055   -4.7647 C   0  0  0  0  0  0  0  0  0  0  0  0
   -3.2822   -7.1801   -5.6975 N   0  0  0  0  0  0  0  0  0  0  0  0
   -4.5303   -7.8603   -5.9395 C   0  0  0  0  0  0  0  0  0  0  0  0
   -2.1117   -7.4203   -6.3519 C   0  0  0  0  0  0  0  0  0  0  0  0
   -1.1435   -6.6562   -5.9005 N   0  0  0  0  0  0  0  0  0  0  0  0
   -1.5370   -4.0318   -2.7526 S   0  0  0  0  0  0  0  0  0  0  0  0
   -0.0517   -3.1784   -2.5359 C   0  0  0  0  0  0  0  0  0  0  0  0
   -0.8642   -0.2211    1.1205 C   0  0  0  0  0  0  0  0  0  0  0  0
   -1.9885    0.2130    0.5314 F   0  0  0  0  0  0  0  0  0  0  0  0
   -0.4177    0.4311    2.2725 C   0  0  0  0  0  0  0  0  0  0  0  0
    3.5157    1.5032    3.0481 C   0  0  0  0  0  0  0  0  0  0  0  0
    4.3874    2.4544    3.4599 F   0  0  0  0  0  0  0  0  0  0  0  0
    4.2332    0.5650    2.3869 F   0  0  0  0  0  0  0  0  0  0  0  0
    2.7014    2.1017    2.1451 F   0  0  0  0  0  0  0  0  0  0  0  0
   -2.4644    3.8567    7.6759 H   0  0  0  0  0  0  0  0  0  0  0  0
   -2.2282    4.0268    9.4165 H   0  0  0  0  0  0  0  0  0  0  0  0
   -2.5399    2.4076    8.6852 H   0  0  0  0  0  0  0  0  0  0  0  0
   -1.2679    2.7903   10.9587 H   0  0  0  0  0  0  0  0  0  0  0  0
   -0.2405    1.1016   12.3987 H   0  0  0  0  0  0  0  0  0  0  0  0
    1.6072   -0.3151   11.5402 H   0  0  0  0  0  0  0  0  0  0  0  0
    2.4636   -0.0006    9.2836 H   0  0  0  0  0  0  0  0  0  0  0  0
    1.1341    2.6236    6.9980 H   0  0  0  0  0  0  0  0  0  0  0  0
    4.0707    1.7748    5.6653 H   0  0  0  0  0  0  0  0  0  0  0  0
    2.6111    2.7242    5.3953 H   0  0  0  0  0  0  0  0  0  0  0  0
    3.1062   -0.1382    4.4104 H   0  0  0  0  0  0  0  0  0  0  0  0
    0.8086    1.7210    3.9924 H   0  0  0  0  0  0  0  0  0  0  0  0
    2.2897   -1.5087    2.9207 H   0  0  0  0  0  0  0  0  0  0  0  0
    1.4865   -2.6521    0.9295 H   0  0  0  0  0  0  0  0  0  0  0  0
    1.8740   -0.7692   -1.1207 H   0  0  0  0  0  0  0  0  0  0  0  0
    3.3999   -1.6309   -2.8338 H   0  0  0  0  0  0  0  0  0  0  0  0
    0.9419   -5.0401   -5.1656 H   0  0  0  0  0  0  0  0  0  0  0  0
   -3.8217   -5.8208   -4.1172 H   0  0  0  0  0  0  0  0  0  0  0  0
   -5.3328   -7.3502   -5.3999 H   0  0  0  0  0  0  0  0  0  0  0  0
   -4.4307   -8.8879   -5.5745 H   0  0  0  0  0  0  0  0  0  0  0  0
   -4.7331   -7.8511   -7.0087 H   0  0  0  0  0  0  0  0  0  0  0  0
   -2.0155   -8.1538   -7.1421 H   0  0  0  0  0  0  0  0  0  0  0  0
   -1.0074    1.2595    2.6534 H   0  0  0  0  0  0  0  0  0  0  0  0
  1  2  1  0  0  0  0
  1 42  1  0  0  0  0
  1 43  1  0  0  0  0
  1 44  1  0  0  0  0
  2  3  1  0  0  0  0
  3  4  1  0  0  0  0
  3  8  2  0  0  0  0
  4  5  2  0  0  0  0
  4 45  1  0  0  0  0
  5  6  1  0  0  0  0
  5 46  1  0  0  0  0
  6  7  2  0  0  0  0
  6 47  1  0  0  0  0
  7  8  1  0  0  0  0
  7 48  1  0  0  0  0
  8  9  1  0  0  0  0
  9 10  1  0  0  0  0
  9 49  1  0  0  0  0
 10 11  2  0  0  0  0
 10 12  1  0  0  0  0
 12 13  1  0  0  0  0
 12 50  1  0  0  0  0
 12 51  1  0  0  0  0
 13 14  1  0  0  0  0
 13 38  1  0  0  0  0
 13 52  1  0  0  0  0
 14 15  1  0  0  0  0
 14 53  1  0  0  0  0
 15 16  1  0  0  0  0
 15 37  2  0  0  0  0
 16 17  2  0  0  0  0
 16 54  1  0  0  0  0
 17 18  1  0  0  0  0
 17 55  1  0  0  0  0
 18 19  1  0  0  0  0
 18 35  2  0  0  0  0
 19 20  1  0  0  0  0
 20 21  1  0  0  0  0
 20 34  2  0  0  0  0
 21 22  2  0  0  0  0
 21 56  1  0  0  0  0
 22 23  1  0  0  0  0
 22 57  1  0  0  0  0
 23 24  2  0  0  0  0
 24 25  1  0  0  0  0
 24 34  1  0  0  0  0
 25 26  2  0  0  0  0
 25 58  1  0  0  0  0
 26 27  1  0  0  0  0
 26 33  1  0  0  0  0
 27 28  2  0  0  0  0
 27 32  1  0  0  0  0
 28 29  1  0  0  0  0
 28 59  1  0  0  0  0
 29 30  1  0  0  0  0
 29 31  1  0  0  0  0
 30 60  1  0  0  0  0
 30 61  1  0  0  0  0
 30 62  1  0  0  0  0
 31 32  2  0  0  0  0
 31 63  1  0  0  0  0
 33 34  1  0  0  0  0
 35 36  1  0  0  0  0
 35 37  1  0  0  0  0
 37 64  1  0  0  0  0
 38 39  1  0  0  0  0
 38 40  1  0  0  0  0
 38 41  1  0  0  0  0
M  END
$$$$
