CHEMBL3397923
 OpenBabel04072215363D

 61 64  0  0  0  0  0  0  0  0999 V2000
    0.9694    0.0434   -0.1019 C   0  0  0  0  0  0  0  0  0  0  0  0
    2.3680    0.0753    0.1361 O   0  0  0  0  0  0  0  0  0  0  0  0
    3.0165    1.2803    0.0441 C   0  0  0  0  0  0  0  0  0  0  0  0
    2.3962    2.4984   -0.2059 C   0  0  0  0  0  0  0  0  0  0  0  0
    3.1627    3.6557   -0.3263 C   0  0  0  0  0  0  0  0  0  0  0  0
    4.5657    3.6138   -0.2050 C   0  0  0  0  0  0  0  0  0  0  0  0
    5.2648    4.8763   -0.5853 C   0  0  0  0  0  0  0  0  0  0  0  0
    6.1752    4.8220   -1.4092 O   0  0  0  0  0  0  0  0  0  0  0  0
    4.8337    6.0410    0.0460 N   0  0  0  0  0  0  0  0  0  0  0  0
    5.4081    7.3110   -0.1966 C   0  0  0  0  0  0  0  0  0  0  0  0
    5.5156    8.2111    0.8710 C   0  0  0  0  0  0  0  0  0  0  0  0
    6.1519    9.4501    0.6991 C   0  0  0  0  0  0  0  0  0  0  0  0
    6.6411    9.8307   -0.5555 C   0  0  0  0  0  0  0  0  0  0  0  0
    7.2824   11.0179   -0.7995 O   0  0  0  0  0  0  0  0  0  0  0  0
    7.9729   11.6110    0.3059 C   0  0  0  0  0  0  0  0  0  0  0  0
    9.0638   12.5513   -0.2418 C   0  0  0  0  0  0  0  0  0  0  0  0
    9.9299   13.1542    0.7948 N   0  0  0  0  0  0  0  0  0  0  0  0
    9.2072   14.0303    1.7295 C   0  0  0  0  0  0  0  0  0  0  0  0
    9.0953   15.3529    1.0010 C   0  0  0  0  0  0  0  0  0  0  0  0
   10.4549   15.4748    0.3397 C   0  0  0  0  0  0  0  0  0  0  0  0
   10.9419   14.0352    0.1704 C   0  0  0  0  0  0  0  0  0  0  0  0
    6.4500    8.9636   -1.6411 C   0  0  0  0  0  0  0  0  0  0  0  0
    6.9409    9.4158   -3.2401 Cl  0  0  0  0  0  0  0  0  0  0  0  0
    5.8603    7.7095   -1.4590 C   0  0  0  0  0  0  0  0  0  0  0  0
    5.2466    2.3955    0.0921 C   0  0  0  0  0  0  0  0  0  0  0  0
    6.7358    2.3034    0.2517 C   0  0  0  0  0  0  0  0  0  0  0  0
    7.4802    3.2898    0.9263 C   0  0  0  0  0  0  0  0  0  0  0  0
    8.8750    3.2113    1.0474 C   0  0  0  0  0  0  0  0  0  0  0  0
    9.5617    2.0998    0.5694 C   0  0  0  0  0  0  0  0  0  0  0  0
    8.8448    1.0921   -0.0561 C   0  0  0  0  0  0  0  0  0  0  0  0
    9.4540   -0.0485   -0.4906 O   0  0  0  0  0  0  0  0  0  0  0  0
    7.4689    1.2089   -0.2551 C   0  0  0  0  0  0  0  0  0  0  0  0
    4.4160    1.2457    0.2278 C   0  0  0  0  0  0  0  0  0  0  0  0
    4.9192    0.0035    0.5611 O   0  0  0  0  0  0  0  0  0  0  0  0
    0.6491   -1.0026   -0.0706 H   0  0  0  0  0  0  0  0  0  0  0  0
    0.7155    0.4366   -1.0920 H   0  0  0  0  0  0  0  0  0  0  0  0
    0.4338    0.5805    0.6873 H   0  0  0  0  0  0  0  0  0  0  0  0
    1.3227    2.5753   -0.3389 H   0  0  0  0  0  0  0  0  0  0  0  0
    2.6586    4.5866   -0.5812 H   0  0  0  0  0  0  0  0  0  0  0  0
    4.2475    5.9452    0.8619 H   0  0  0  0  0  0  0  0  0  0  0  0
    5.1742    7.9335    1.8654 H   0  0  0  0  0  0  0  0  0  0  0  0
    6.2566   10.0994    1.5628 H   0  0  0  0  0  0  0  0  0  0  0  0
    8.4506   10.8468    0.9302 H   0  0  0  0  0  0  0  0  0  0  0  0
    7.2412   12.1724    0.8958 H   0  0  0  0  0  0  0  0  0  0  0  0
    8.6004   13.3103   -0.8853 H   0  0  0  0  0  0  0  0  0  0  0  0
    9.6954   11.9505   -0.9111 H   0  0  0  0  0  0  0  0  0  0  0  0
    9.8205   14.1556    2.6317 H   0  0  0  0  0  0  0  0  0  0  0  0
    8.2415   13.6463    2.0652 H   0  0  0  0  0  0  0  0  0  0  0  0
    8.8798   16.1886    1.6724 H   0  0  0  0  0  0  0  0  0  0  0  0
    8.3045   15.3155    0.2425 H   0  0  0  0  0  0  0  0  0  0  0  0
   11.1393   16.0244    0.9969 H   0  0  0  0  0  0  0  0  0  0  0  0
   10.3926   16.0104   -0.6121 H   0  0  0  0  0  0  0  0  0  0  0  0
   11.8960   13.9090    0.6961 H   0  0  0  0  0  0  0  0  0  0  0  0
   11.1324   13.7979   -0.8828 H   0  0  0  0  0  0  0  0  0  0  0  0
    5.7441    7.0499   -2.3174 H   0  0  0  0  0  0  0  0  0  0  0  0
    6.9910    4.1642    1.3496 H   0  0  0  0  0  0  0  0  0  0  0  0
    9.4223    4.0281    1.5106 H   0  0  0  0  0  0  0  0  0  0  0  0
   10.6390    2.0452    0.6815 H   0  0  0  0  0  0  0  0  0  0  0  0
   10.3987   -0.0010   -0.2698 H   0  0  0  0  0  0  0  0  0  0  0  0
    6.9736    0.4170   -0.8156 H   0  0  0  0  0  0  0  0  0  0  0  0
    5.7737    0.1033    1.0078 H   0  0  0  0  0  0  0  0  0  0  0  0
  1  2  1  0  0  0  0
  1 35  1  0  0  0  0
  1 36  1  0  0  0  0
  1 37  1  0  0  0  0
  2  3  1  0  0  0  0
  3  4  1  0  0  0  0
  3 33  2  0  0  0  0
  4  5  2  0  0  0  0
  4 38  1  0  0  0  0
  5  6  1  0  0  0  0
  5 39  1  0  0  0  0
  6  7  1  0  0  0  0
  6 25  2  0  0  0  0
  7  8  2  0  0  0  0
  7  9  1  0  0  0  0
  9 10  1  0  0  0  0
  9 40  1  0  0  0  0
 10 11  1  0  0  0  0
 10 24  2  0  0  0  0
 11 12  2  0  0  0  0
 11 41  1  0  0  0  0
 12 13  1  0  0  0  0
 12 42  1  0  0  0  0
 13 14  1  0  0  0  0
 13 22  2  0  0  0  0
 14 15  1  0  0  0  0
 15 16  1  0  0  0  0
 15 43  1  0  0  0  0
 15 44  1  0  0  0  0
 16 17  1  0  0  0  0
 16 45  1  0  0  0  0
 16 46  1  0  0  0  0
 17 18  1  0  0  0  0
 17 21  1  0  0  0  0
 18 19  1  0  0  0  0
 18 47  1  0  0  0  0
 18 48  1  0  0  0  0
 19 20  1  0  0  0  0
 19 49  1  0  0  0  0
 19 50  1  0  0  0  0
 20 21  1  0  0  0  0
 20 51  1  0  0  0  0
 20 52  1  0  0  0  0
 21 53  1  0  0  0  0
 21 54  1  0  0  0  0
 22 23  1  0  0  0  0
 22 24  1  0  0  0  0
 24 55  1  0  0  0  0
 25 26  1  0  0  0  0
 25 33  1  0  0  0  0
 26 27  1  0  0  0  0
 26 32  2  0  0  0  0
 27 28  2  0  0  0  0
 27 56  1  0  0  0  0
 28 29  1  0  0  0  0
 28 57  1  0  0  0  0
 29 30  2  0  0  0  0
 29 58  1  0  0  0  0
 30 31  1  0  0  0  0
 30 32  1  0  0  0  0
 31 59  1  0  0  0  0
 32 60  1  0  0  0  0
 33 34  1  0  0  0  0
 34 61  1  0  0  0  0
M  END
$$$$
