CHEMBL212953
 OpenBabel04072215363D

 72 75  0  0  0  0  0  0  0  0999 V2000
   12.2816   -7.1447    1.7632 C   0  0  0  0  0  0  0  0  0  0  0  0
   10.7699   -7.3302    1.6975 C   0  0  0  0  0  0  0  0  0  0  0  0
   10.3379   -8.5352    0.9617 N   0  0  0  0  0  0  0  0  0  0  0  0
   10.8881   -9.7844    1.5365 C   0  0  0  0  0  0  0  0  0  0  0  0
   10.4616  -10.1241    2.9671 C   0  0  0  0  0  0  0  0  0  0  0  0
    8.8557   -8.6263    0.9070 C   0  0  0  0  0  0  0  0  0  0  0  0
    8.1820   -7.3959    0.2983 C   0  0  0  0  0  0  0  0  0  0  0  0
    7.1225   -6.9834    0.7669 O   0  0  0  0  0  0  0  0  0  0  0  0
    8.8183   -6.8613   -0.8108 N   0  0  0  0  0  0  0  0  0  0  0  0
    8.2553   -5.7942   -1.5529 C   0  0  0  0  0  0  0  0  0  0  0  0
    8.1705   -5.9852   -2.9403 C   0  0  0  0  0  0  0  0  0  0  0  0
    7.5021   -5.0603   -3.7441 C   0  0  0  0  0  0  0  0  0  0  0  0
    6.9363   -3.9140   -3.1770 C   0  0  0  0  0  0  0  0  0  0  0  0
    6.2182   -2.8872   -4.0181 C   0  0  0  0  0  0  0  0  0  0  0  0
    6.2301   -3.1774   -5.3502 F   0  0  0  0  0  0  0  0  0  0  0  0
    4.9076   -2.7472   -3.6806 F   0  0  0  0  0  0  0  0  0  0  0  0
    6.7720   -1.6474   -3.9077 F   0  0  0  0  0  0  0  0  0  0  0  0
    7.0683   -3.6996   -1.7927 C   0  0  0  0  0  0  0  0  0  0  0  0
    7.7468   -4.6093   -0.9663 C   0  0  0  0  0  0  0  0  0  0  0  0
    8.0304   -4.3024    0.3900 N   0  0  0  0  0  0  0  0  0  0  0  0
    7.4835   -3.2754    1.1492 C   0  0  0  0  0  0  0  0  0  0  0  0
    6.4887   -2.6169    0.8248 O   0  0  0  0  0  0  0  0  0  0  0  0
    8.2055   -2.8662    2.4030 C   0  0  0  0  0  0  0  0  0  0  0  0
    8.9825   -3.6679    3.2115 C   0  0  0  0  0  0  0  0  0  0  0  0
    9.6921   -3.0855    4.2830 C   0  0  0  0  0  0  0  0  0  0  0  0
    9.7084   -1.6848    4.5344 C   0  0  0  0  0  0  0  0  0  0  0  0
   10.5546   -1.1603    5.6581 C   0  0  0  0  0  0  0  0  0  0  0  0
    8.9465   -0.8484    3.7145 C   0  0  0  0  0  0  0  0  0  0  0  0
    9.0218    0.6451    3.5910 C   0  0  0  0  0  0  0  0  0  0  0  0
    8.7662    1.0631    2.2708 C   0  0  0  0  0  0  0  0  0  0  0  0
    8.7749    2.3346    1.8781 C   0  0  0  0  0  0  0  0  0  0  0  0
    9.5559    3.1134    2.6299 C   0  0  0  0  0  0  0  0  0  0  0  0
   10.1650    3.8461    1.7945 N   0  0  0  0  0  0  0  0  0  0  0  0
   10.2622    5.0854    2.1335 C   0  0  0  0  0  0  0  0  0  0  0  0
   10.6546    5.7336    0.9764 N   0  0  0  0  0  0  0  0  0  0  0  0
    9.6134    6.1316    0.0180 C   0  0  0  0  0  0  0  0  0  0  0  0
   10.0727    5.4774    3.3994 N   0  0  0  0  0  0  0  0  0  0  0  0
    9.8150    4.4635    4.3310 C   0  0  0  0  0  0  0  0  0  0  0  0
    9.5712    3.0850    3.9732 C   0  0  0  0  0  0  0  0  0  0  0  0
    9.3167    1.7067    4.5148 C   0  0  0  0  0  0  0  0  0  0  0  0
    8.1396   -1.5117    2.7321 C   0  0  0  0  0  0  0  0  0  0  0  0
   12.5117   -6.1447    2.1460 H   0  0  0  0  0  0  0  0  0  0  0  0
   12.7363   -7.2342    0.7709 H   0  0  0  0  0  0  0  0  0  0  0  0
   12.7521   -7.8686    2.4343 H   0  0  0  0  0  0  0  0  0  0  0  0
   10.3925   -6.4390    1.1869 H   0  0  0  0  0  0  0  0  0  0  0  0
   10.3487   -7.3020    2.7083 H   0  0  0  0  0  0  0  0  0  0  0  0
   11.9823   -9.7565    1.4909 H   0  0  0  0  0  0  0  0  0  0  0  0
   10.6105  -10.6245    0.8862 H   0  0  0  0  0  0  0  0  0  0  0  0
   10.5951   -9.2832    3.6533 H   0  0  0  0  0  0  0  0  0  0  0  0
   11.0642  -10.9534    3.3508 H   0  0  0  0  0  0  0  0  0  0  0  0
    9.4136  -10.4380    3.0077 H   0  0  0  0  0  0  0  0  0  0  0  0
    8.4348   -8.7415    1.9108 H   0  0  0  0  0  0  0  0  0  0  0  0
    8.5511   -9.4910    0.3021 H   0  0  0  0  0  0  0  0  0  0  0  0
    9.4096   -7.5257   -1.3016 H   0  0  0  0  0  0  0  0  0  0  0  0
    8.5682   -6.8847   -3.4038 H   0  0  0  0  0  0  0  0  0  0  0  0
    7.4095   -5.2475   -4.8128 H   0  0  0  0  0  0  0  0  0  0  0  0
    6.6632   -2.7752   -1.3922 H   0  0  0  0  0  0  0  0  0  0  0  0
    8.7593   -4.8685    0.8159 H   0  0  0  0  0  0  0  0  0  0  0  0
    9.0177   -4.7409    3.0576 H   0  0  0  0  0  0  0  0  0  0  0  0
   10.2678   -3.7470    4.9288 H   0  0  0  0  0  0  0  0  0  0  0  0
   11.0204   -1.9769    6.2204 H   0  0  0  0  0  0  0  0  0  0  0  0
    9.9290   -0.6081    6.3658 H   0  0  0  0  0  0  0  0  0  0  0  0
   11.3553   -0.5154    5.2839 H   0  0  0  0  0  0  0  0  0  0  0  0
    8.6470    0.3962    1.4211 H   0  0  0  0  0  0  0  0  0  0  0  0
    8.5256    2.6354    0.8701 H   0  0  0  0  0  0  0  0  0  0  0  0
   10.9819    4.8658    0.5384 H   0  0  0  0  0  0  0  0  0  0  0  0
    8.7710    6.6484    0.4756 H   0  0  0  0  0  0  0  0  0  0  0  0
    9.2382    5.2966   -0.5885 H   0  0  0  0  0  0  0  0  0  0  0  0
   10.0975    6.8084   -0.6969 H   0  0  0  0  0  0  0  0  0  0  0  0
    9.7676    4.8224    5.3489 H   0  0  0  0  0  0  0  0  0  0  0  0
    9.4225    1.5095    5.5775 H   0  0  0  0  0  0  0  0  0  0  0  0
    7.4616   -0.9224    2.1100 H   0  0  0  0  0  0  0  0  0  0  0  0
  1  2  1  0  0  0  0
  1 42  1  0  0  0  0
  1 43  1  0  0  0  0
  1 44  1  0  0  0  0
  2  3  1  0  0  0  0
  2 45  1  0  0  0  0
  2 46  1  0  0  0  0
  3  4  1  0  0  0  0
  3  6  1  0  0  0  0
  4  5  1  0  0  0  0
  4 47  1  0  0  0  0
  4 48  1  0  0  0  0
  5 49  1  0  0  0  0
  5 50  1  0  0  0  0
  5 51  1  0  0  0  0
  6  7  1  0  0  0  0
  6 52  1  0  0  0  0
  6 53  1  0  0  0  0
  7  8  2  0  0  0  0
  7  9  1  0  0  0  0
  9 10  1  0  0  0  0
  9 54  1  0  0  0  0
 10 11  1  0  0  0  0
 10 19  2  0  0  0  0
 11 12  2  0  0  0  0
 11 55  1  0  0  0  0
 12 13  1  0  0  0  0
 12 56  1  0  0  0  0
 13 14  1  0  0  0  0
 13 18  2  0  0  0  0
 14 15  1  0  0  0  0
 14 16  1  0  0  0  0
 14 17  1  0  0  0  0
 18 19  1  0  0  0  0
 18 57  1  0  0  0  0
 19 20  1  0  0  0  0
 20 21  1  0  0  0  0
 20 58  1  0  0  0  0
 21 22  2  0  0  0  0
 21 23  1  0  0  0  0
 23 24  1  0  0  0  0
 23 41  2  0  0  0  0
 24 25  2  0  0  0  0
 24 59  1  0  0  0  0
 25 26  1  0  0  0  0
 25 60  1  0  0  0  0
 26 27  1  0  0  0  0
 26 28  2  0  0  0  0
 27 61  1  0  0  0  0
 27 62  1  0  0  0  0
 27 63  1  0  0  0  0
 28 29  1  0  0  0  0
 28 41  1  0  0  0  0
 29 30  1  0  0  0  0
 29 40  2  0  0  0  0
 30 31  2  0  0  0  0
 30 64  1  0  0  0  0
 31 32  1  0  0  0  0
 31 65  1  0  0  0  0
 32 33  1  0  0  0  0
 32 39  2  0  0  0  0
 33 34  2  0  0  0  0
 34 35  1  0  0  0  0
 34 37  1  0  0  0  0
 35 36  1  0  0  0  0
 35 66  1  0  0  0  0
 36 67  1  0  0  0  0
 36 68  1  0  0  0  0
 36 69  1  0  0  0  0
 37 38  2  0  0  0  0
 38 39  1  0  0  0  0
 38 70  1  0  0  0  0
 39 40  1  0  0  0  0
 40 71  1  0  0  0  0
 41 72  1  0  0  0  0
M  END
$$$$
