CHEMBL3919069
 OpenBabel04072215373D

 51 53  0  0  0  0  0  0  0  0999 V2000
   -1.0165    0.5725    0.0328 C   0  0  0  0  0  0  0  0  0  0  0  0
   -0.3964   -1.0642   -0.3128 S   0  0  0  0  0  0  0  0  0  0  0  0
    0.0629   -1.6141    1.3144 C   0  0  0  0  0  0  0  0  0  0  0  0
   -1.5239   -1.8780   -0.7221 O   0  0  0  0  0  0  0  0  0  0  0  0
    0.9176   -0.9410   -1.1149 N   0  0  0  0  0  0  0  0  0  0  0  0
    0.9104   -0.4817   -2.4443 C   0  0  0  0  0  0  0  0  0  0  0  0
    0.0663    0.3119   -2.8528 O   0  0  0  0  0  0  0  0  0  0  0  0
    2.0074   -0.8330   -3.3882 C   0  0  0  0  0  0  0  0  0  0  0  0
    2.0107   -0.2623   -4.6555 C   0  0  0  0  0  0  0  0  0  0  0  0
    2.9711   -0.4897   -5.5877 N   0  0  0  0  0  0  0  0  0  0  0  0
    3.9729   -1.3242   -5.2267 C   0  0  0  0  0  0  0  0  0  0  0  0
    4.0657   -1.9450   -3.9857 C   0  0  0  0  0  0  0  0  0  0  0  0
    5.1780   -2.8033   -3.7093 C   0  0  0  0  0  0  0  0  0  0  0  0
    6.1156   -3.5375   -3.5464 C   0  0  0  0  0  0  0  0  0  0  0  0
    7.1751   -4.4847   -3.3682 C   0  0  0  0  0  0  0  0  0  0  0  0
    6.8636   -5.7175   -2.7875 C   0  0  0  0  0  0  0  0  0  0  0  0
    7.8576   -6.6743   -2.6203 C   0  0  0  0  0  0  0  0  0  0  0  0
    9.1619   -6.4004   -3.0290 C   0  0  0  0  0  0  0  0  0  0  0  0
    9.5032   -5.1771   -3.6150 C   0  0  0  0  0  0  0  0  0  0  0  0
   10.8257   -4.8660   -4.0334 N   0  0  0  0  0  0  0  0  0  0  0  0
   11.8995   -5.7433   -4.0335 C   0  0  0  0  0  0  0  0  0  0  0  0
   11.8359   -6.9408   -3.7612 O   0  0  0  0  0  0  0  0  0  0  0  0
   13.0962   -5.1194   -4.3510 N   0  0  0  0  0  0  0  0  0  0  0  0
   14.3006   -5.8773   -4.4114 C   0  0  0  0  0  0  0  0  0  0  0  0
   14.3681   -7.1038   -5.0838 C   0  0  0  0  0  0  0  0  0  0  0  0
   15.5563   -7.8399   -5.0884 C   0  0  0  0  0  0  0  0  0  0  0  0
   16.6787   -7.3651   -4.4093 C   0  0  0  0  0  0  0  0  0  0  0  0
   16.6159   -6.1459   -3.7335 C   0  0  0  0  0  0  0  0  0  0  0  0
   15.4359   -5.4043   -3.7545 C   0  0  0  0  0  0  0  0  0  0  0  0
   15.3785   -4.2472   -3.0764 F   0  0  0  0  0  0  0  0  0  0  0  0
    8.4916   -4.2130   -3.7825 C   0  0  0  0  0  0  0  0  0  0  0  0
    3.0556   -1.7027   -3.0512 C   0  0  0  0  0  0  0  0  0  0  0  0
   -1.8800    0.4823    0.6960 H   0  0  0  0  0  0  0  0  0  0  0  0
   -1.3304    1.0477   -0.8974 H   0  0  0  0  0  0  0  0  0  0  0  0
   -0.2306    1.1584    0.5134 H   0  0  0  0  0  0  0  0  0  0  0  0
   -0.8268   -1.6186    1.9474 H   0  0  0  0  0  0  0  0  0  0  0  0
    0.8151   -0.9356    1.7223 H   0  0  0  0  0  0  0  0  0  0  0  0
    0.4661   -2.6258    1.2357 H   0  0  0  0  0  0  0  0  0  0  0  0
    1.2281    0.4221   -4.9785 H   0  0  0  0  0  0  0  0  0  0  0  0
    4.7265   -1.4868   -5.9932 H   0  0  0  0  0  0  0  0  0  0  0  0
    5.8511   -5.9429   -2.4670 H   0  0  0  0  0  0  0  0  0  0  0  0
    7.6264   -7.6380   -2.1741 H   0  0  0  0  0  0  0  0  0  0  0  0
    9.8923   -7.1857   -2.8652 H   0  0  0  0  0  0  0  0  0  0  0  0
   10.9724   -3.9698   -4.4745 H   0  0  0  0  0  0  0  0  0  0  0  0
   13.2009   -4.1881   -3.9711 H   0  0  0  0  0  0  0  0  0  0  0  0
   13.4994   -7.4998   -5.6043 H   0  0  0  0  0  0  0  0  0  0  0  0
   15.5980   -8.7939   -5.6112 H   0  0  0  0  0  0  0  0  0  0  0  0
   17.5960   -7.9493   -4.4007 H   0  0  0  0  0  0  0  0  0  0  0  0
   17.4730   -5.7788   -3.1785 H   0  0  0  0  0  0  0  0  0  0  0  0
    8.7161   -3.2517   -4.2349 H   0  0  0  0  0  0  0  0  0  0  0  0
    3.0809   -2.1763   -2.0734 H   0  0  0  0  0  0  0  0  0  0  0  0
  1  2  1  0  0  0  0
  1 33  1  0  0  0  0
  1 34  1  0  0  0  0
  1 35  1  0  0  0  0
  2  3  1  0  0  0  0
  2  4  2  0  0  0  0
  2  5  2  0  0  0  0
  3 36  1  0  0  0  0
  3 37  1  0  0  0  0
  3 38  1  0  0  0  0
  5  6  1  0  0  0  0
  6  7  2  0  0  0  0
  6  8  1  0  0  0  0
  8  9  1  0  0  0  0
  8 32  2  0  0  0  0
  9 10  2  0  0  0  0
  9 39  1  0  0  0  0
 10 11  1  0  0  0  0
 11 12  2  0  0  0  0
 11 40  1  0  0  0  0
 12 13  1  0  0  0  0
 12 32  1  0  0  0  0
 13 14  3  0  0  0  0
 14 15  1  0  0  0  0
 15 16  1  0  0  0  0
 15 31  2  0  0  0  0
 16 17  2  0  0  0  0
 16 41  1  0  0  0  0
 17 18  1  0  0  0  0
 17 42  1  0  0  0  0
 18 19  2  0  0  0  0
 18 43  1  0  0  0  0
 19 20  1  0  0  0  0
 19 31  1  0  0  0  0
 20 21  1  0  0  0  0
 20 44  1  0  0  0  0
 21 22  2  0  0  0  0
 21 23  1  0  0  0  0
 23 24  1  0  0  0  0
 23 45  1  0  0  0  0
 24 25  1  0  0  0  0
 24 29  2  0  0  0  0
 25 26  2  0  0  0  0
 25 46  1  0  0  0  0
 26 27  1  0  0  0  0
 26 47  1  0  0  0  0
 27 28  2  0  0  0  0
 27 48  1  0  0  0  0
 28 29  1  0  0  0  0
 28 49  1  0  0  0  0
 29 30  1  0  0  0  0
 31 50  1  0  0  0  0
 32 51  1  0  0  0  0
M  END
$$$$
