CHEMBL3952493
 OpenBabel04072215373D

 52 56  0  0  0  0  0  0  0  0999 V2000
    3.3888   -0.8164   -0.8870 C   0  0  0  0  0  0  0  0  0  0  0  0
    2.5900   -0.4033    0.2276 O   0  0  0  0  0  0  0  0  0  0  0  0
    3.2610    0.2802    1.2080 C   0  0  0  0  0  0  0  0  0  0  0  0
    4.3647    1.0921    0.9306 C   0  0  0  0  0  0  0  0  0  0  0  0
    5.1137    1.6853    1.9752 C   0  0  0  0  0  0  0  0  0  0  0  0
    6.2614    2.4700    1.8057 C   0  0  0  0  0  0  0  0  0  0  0  0
    6.7189    2.7615    0.4920 N   0  0  0  0  0  0  0  0  0  0  0  0
    8.0278    3.2077    0.2198 C   0  0  0  0  0  0  0  0  0  0  0  0
    9.1273    2.5398    0.7770 C   0  0  0  0  0  0  0  0  0  0  0  0
   10.4234    3.0230    0.6096 C   0  0  0  0  0  0  0  0  0  0  0  0
   10.6338    4.1841   -0.1365 C   0  0  0  0  0  0  0  0  0  0  0  0
   12.2529    4.7699   -0.2602 Cl  0  0  0  0  0  0  0  0  0  0  0  0
    9.5465    4.8361   -0.7341 C   0  0  0  0  0  0  0  0  0  0  0  0
    9.7380    6.2740   -1.6741 Cl  0  0  0  0  0  0  0  0  0  0  0  0
    8.2479    4.3434   -0.5640 C   0  0  0  0  0  0  0  0  0  0  0  0
    6.9609    2.9501    2.8515 N   0  0  0  0  0  0  0  0  0  0  0  0
    6.5114    2.6568    4.0719 C   0  0  0  0  0  0  0  0  0  0  0  0
    5.4248    1.9363    4.3464 N   0  0  0  0  0  0  0  0  0  0  0  0
    4.7490    1.4586    3.3008 C   0  0  0  0  0  0  0  0  0  0  0  0
    3.6189    0.7115    3.5554 C   0  0  0  0  0  0  0  0  0  0  0  0
    2.8218    0.1706    2.5344 C   0  0  0  0  0  0  0  0  0  0  0  0
    1.6189   -0.4588    2.7932 O   0  0  0  0  0  0  0  0  0  0  0  0
    1.0880   -0.1530    4.0959 C   0  0  0  0  0  0  0  0  0  0  0  0
   -0.3778   -0.4497    4.2889 C   0  0  0  0  0  0  0  0  0  0  0  0
   -1.2473   -0.6170    3.2074 C   0  0  0  0  0  0  0  0  0  0  0  0
   -2.6073   -0.7909    3.4406 C   0  0  0  0  0  0  0  0  0  0  0  0
   -3.4414   -0.9166    2.4002 F   0  0  0  0  0  0  0  0  0  0  0  0
   -3.1249   -0.8175    4.7326 C   0  0  0  0  0  0  0  0  0  0  0  0
   -2.2712   -0.6529    5.8273 C   0  0  0  0  0  0  0  0  0  0  0  0
   -0.9096   -0.4345    5.5960 C   0  0  0  0  0  0  0  0  0  0  0  0
   -0.0414   -0.1877    6.6311 O   0  0  0  0  0  0  0  0  0  0  0  0
   -0.7044    0.1280    7.8566 C   0  0  0  0  0  0  0  0  0  0  0  0
   -1.7482   -0.7790    8.1782 O   0  0  0  0  0  0  0  0  0  0  0  0
   -2.8019   -0.6590    7.2290 C   0  0  0  0  0  0  0  0  0  0  0  0
    3.0434   -1.8012   -1.2146 H   0  0  0  0  0  0  0  0  0  0  0  0
    4.4566   -0.9203   -0.6542 H   0  0  0  0  0  0  0  0  0  0  0  0
    3.2559   -0.1108   -1.7137 H   0  0  0  0  0  0  0  0  0  0  0  0
    4.6712    1.2609   -0.0974 H   0  0  0  0  0  0  0  0  0  0  0  0
    6.0006    3.2756   -0.0079 H   0  0  0  0  0  0  0  0  0  0  0  0
    8.9700    1.6437    1.3773 H   0  0  0  0  0  0  0  0  0  0  0  0
   11.2497    2.5016    1.0757 H   0  0  0  0  0  0  0  0  0  0  0  0
    7.4103    4.8711   -1.0111 H   0  0  0  0  0  0  0  0  0  0  0  0
    7.0757    3.0380    4.9146 H   0  0  0  0  0  0  0  0  0  0  0  0
    3.3768    0.5667    4.6047 H   0  0  0  0  0  0  0  0  0  0  0  0
    1.1857    0.9240    4.2921 H   0  0  0  0  0  0  0  0  0  0  0  0
    1.6551   -0.7376    4.8307 H   0  0  0  0  0  0  0  0  0  0  0  0
   -0.8811   -0.5896    2.1855 H   0  0  0  0  0  0  0  0  0  0  0  0
   -4.1927   -0.9569    4.8706 H   0  0  0  0  0  0  0  0  0  0  0  0
   -1.0724    1.1628    7.8329 H   0  0  0  0  0  0  0  0  0  0  0  0
    0.0423    0.0710    8.6551 H   0  0  0  0  0  0  0  0  0  0  0  0
   -3.3622    0.2613    7.4296 H   0  0  0  0  0  0  0  0  0  0  0  0
   -3.4701   -1.5133    7.3783 H   0  0  0  0  0  0  0  0  0  0  0  0
  1  2  1  0  0  0  0
  1 35  1  0  0  0  0
  1 36  1  0  0  0  0
  1 37  1  0  0  0  0
  2  3  1  0  0  0  0
  3  4  1  0  0  0  0
  3 21  2  0  0  0  0
  4  5  2  0  0  0  0
  4 38  1  0  0  0  0
  5  6  1  0  0  0  0
  5 19  1  0  0  0  0
  6  7  1  0  0  0  0
  6 16  2  0  0  0  0
  7  8  1  0  0  0  0
  7 39  1  0  0  0  0
  8  9  1  0  0  0  0
  8 15  2  0  0  0  0
  9 10  2  0  0  0  0
  9 40  1  0  0  0  0
 10 11  1  0  0  0  0
 10 41  1  0  0  0  0
 11 12  1  0  0  0  0
 11 13  2  0  0  0  0
 13 14  1  0  0  0  0
 13 15  1  0  0  0  0
 15 42  1  0  0  0  0
 16 17  1  0  0  0  0
 17 18  2  0  0  0  0
 17 43  1  0  0  0  0
 18 19  1  0  0  0  0
 19 20  2  0  0  0  0
 20 21  1  0  0  0  0
 20 44  1  0  0  0  0
 21 22  1  0  0  0  0
 22 23  1  0  0  0  0
 23 24  1  0  0  0  0
 23 45  1  0  0  0  0
 23 46  1  0  0  0  0
 24 25  1  0  0  0  0
 24 30  2  0  0  0  0
 25 26  2  0  0  0  0
 25 47  1  0  0  0  0
 26 27  1  0  0  0  0
 26 28  1  0  0  0  0
 28 29  2  0  0  0  0
 28 48  1  0  0  0  0
 29 30  1  0  0  0  0
 29 34  1  0  0  0  0
 30 31  1  0  0  0  0
 31 32  1  0  0  0  0
 32 33  1  0  0  0  0
 32 49  1  0  0  0  0
 32 50  1  0  0  0  0
 33 34  1  0  0  0  0
 34 51  1  0  0  0  0
 34 52  1  0  0  0  0
M  END
$$$$
