CHEMBL202950
 OpenBabel04072215363D

 55 59  0  0  0  0  0  0  0  0999 V2000
   -0.2031    0.2066   -0.6342 C   0  0  0  0  0  0  0  0  0  0  0  0
    1.2838   -0.0900   -0.9572 C   0  0  0  0  0  0  0  0  0  0  0  0
    1.9932   -0.4956    0.3498 C   0  0  0  0  0  0  0  0  0  0  0  0
    1.2754   -1.3135   -1.9028 C   0  0  0  0  0  0  0  0  0  0  0  0
    2.0045    1.1451   -1.5358 C   0  0  0  0  0  0  0  0  0  0  0  0
    1.6258    2.4411   -1.1476 C   0  0  0  0  0  0  0  0  0  0  0  0
    2.2628    3.5899   -1.6464 C   0  0  0  0  0  0  0  0  0  0  0  0
    3.3455    3.5127   -2.5186 C   0  0  0  0  0  0  0  0  0  0  0  0
    3.9289    4.6482   -3.1260 N   0  0  0  0  0  0  0  0  0  0  0  0
    3.6330    6.0355   -2.9953 C   0  0  0  0  0  0  0  0  0  0  0  0
    3.1661    6.5431   -1.8466 N   0  0  0  0  0  0  0  0  0  0  0  0
    2.6920    7.8515   -1.7685 N   0  0  0  0  0  0  0  0  0  0  0  0
    2.5811    8.6550   -2.8576 C   0  0  0  0  0  0  0  0  0  0  0  0
    1.6355    9.8146   -2.6220 C   0  0  0  0  0  0  0  0  0  0  0  0
    0.4832    9.4619   -1.8664 C   0  0  0  0  0  0  0  0  0  0  0  0
   -0.5434   10.3504   -1.5895 C   0  0  0  0  0  0  0  0  0  0  0  0
   -0.4510   11.6465   -2.0556 C   0  0  0  0  0  0  0  0  0  0  0  0
    0.6436   12.0853   -2.7670 C   0  0  0  0  0  0  0  0  0  0  0  0
    0.5784   13.3751   -3.1282 N   0  0  0  0  0  0  0  0  0  0  0  0
    1.5921   13.8976   -3.8332 C   0  0  0  0  0  0  0  0  0  0  0  0
    2.7052   13.1665   -4.1889 C   0  0  0  0  0  0  0  0  0  0  0  0
    2.7795   11.8310   -3.7807 C   0  0  0  0  0  0  0  0  0  0  0  0
    1.7237   11.1972   -3.0643 C   0  0  0  0  0  0  0  0  0  0  0  0
    3.1220    8.1938   -4.0774 C   0  0  0  0  0  0  0  0  0  0  0  0
    3.0602    8.9146   -5.2917 C   0  0  0  0  0  0  0  0  0  0  0  0
    3.6726    8.4662   -6.4619 C   0  0  0  0  0  0  0  0  0  0  0  0
    4.3054    7.2374   -6.4822 C   0  0  0  0  0  0  0  0  0  0  0  0
    4.2954    6.4441   -5.3389 C   0  0  0  0  0  0  0  0  0  0  0  0
    3.7133    6.8844   -4.1242 C   0  0  0  0  0  0  0  0  0  0  0  0
    3.7374    2.2199   -2.9121 C   0  0  0  0  0  0  0  0  0  0  0  0
    3.0910    1.0588   -2.4274 C   0  0  0  0  0  0  0  0  0  0  0  0
   -0.7237   -0.6919   -0.2827 H   0  0  0  0  0  0  0  0  0  0  0  0
   -0.7335    0.5728   -1.5214 H   0  0  0  0  0  0  0  0  0  0  0  0
   -0.3177    0.9513    0.1605 H   0  0  0  0  0  0  0  0  0  0  0  0
    1.4809   -1.3345    0.8359 H   0  0  0  0  0  0  0  0  0  0  0  0
    2.0204    0.3337    1.0661 H   0  0  0  0  0  0  0  0  0  0  0  0
    3.0286   -0.8038    0.1635 H   0  0  0  0  0  0  0  0  0  0  0  0
    0.7078   -2.1438   -1.4604 H   0  0  0  0  0  0  0  0  0  0  0  0
    2.2808   -1.6982   -2.1005 H   0  0  0  0  0  0  0  0  0  0  0  0
    0.8054   -1.0736   -2.8631 H   0  0  0  0  0  0  0  0  0  0  0  0
    0.8150    2.6083   -0.4432 H   0  0  0  0  0  0  0  0  0  0  0  0
    1.8796    4.5516   -1.3233 H   0  0  0  0  0  0  0  0  0  0  0  0
    4.8455    4.4799   -3.5171 H   0  0  0  0  0  0  0  0  0  0  0  0
    0.3737    8.4475   -1.4793 H   0  0  0  0  0  0  0  0  0  0  0  0
   -1.4096   10.0327   -1.0181 H   0  0  0  0  0  0  0  0  0  0  0  0
   -1.2602   12.3435   -1.8507 H   0  0  0  0  0  0  0  0  0  0  0  0
    1.4779   14.9479   -4.0930 H   0  0  0  0  0  0  0  0  0  0  0  0
    3.4830   13.6381   -4.7783 H   0  0  0  0  0  0  0  0  0  0  0  0
    3.6821   11.2869   -4.0440 H   0  0  0  0  0  0  0  0  0  0  0  0
    2.5189    9.8515   -5.3566 H   0  0  0  0  0  0  0  0  0  0  0  0
    3.6368    9.0779   -7.3593 H   0  0  0  0  0  0  0  0  0  0  0  0
    4.7753    6.8768   -7.3935 H   0  0  0  0  0  0  0  0  0  0  0  0
    4.7501    5.4589   -5.4183 H   0  0  0  0  0  0  0  0  0  0  0  0
    4.5480    2.0861   -3.6256 H   0  0  0  0  0  0  0  0  0  0  0  0
    3.4543    0.0915   -2.7655 H   0  0  0  0  0  0  0  0  0  0  0  0
  1  2  1  0  0  0  0
  1 32  1  0  0  0  0
  1 33  1  0  0  0  0
  1 34  1  0  0  0  0
  2  3  1  0  0  0  0
  2  4  1  0  0  0  0
  2  5  1  0  0  0  0
  3 35  1  0  0  0  0
  3 36  1  0  0  0  0
  3 37  1  0  0  0  0
  4 38  1  0  0  0  0
  4 39  1  0  0  0  0
  4 40  1  0  0  0  0
  5  6  1  0  0  0  0
  5 31  2  0  0  0  0
  6  7  2  0  0  0  0
  6 41  1  0  0  0  0
  7  8  1  0  0  0  0
  7 42  1  0  0  0  0
  8  9  1  0  0  0  0
  8 30  2  0  0  0  0
  9 10  1  0  0  0  0
  9 43  1  0  0  0  0
 10 11  1  0  0  0  0
 10 29  2  0  0  0  0
 11 12  2  0  0  0  0
 12 13  1  0  0  0  0
 13 14  1  0  0  0  0
 13 24  2  0  0  0  0
 14 15  1  0  0  0  0
 14 23  2  0  0  0  0
 15 16  2  0  0  0  0
 15 44  1  0  0  0  0
 16 17  1  0  0  0  0
 16 45  1  0  0  0  0
 17 18  2  0  0  0  0
 17 46  1  0  0  0  0
 18 19  1  0  0  0  0
 18 23  1  0  0  0  0
 19 20  2  0  0  0  0
 20 21  1  0  0  0  0
 20 47  1  0  0  0  0
 21 22  2  0  0  0  0
 21 48  1  0  0  0  0
 22 23  1  0  0  0  0
 22 49  1  0  0  0  0
 24 25  1  0  0  0  0
 24 29  1  0  0  0  0
 25 26  2  0  0  0  0
 25 50  1  0  0  0  0
 26 27  1  0  0  0  0
 26 51  1  0  0  0  0
 27 28  2  0  0  0  0
 27 52  1  0  0  0  0
 28 29  1  0  0  0  0
 28 53  1  0  0  0  0
 30 31  1  0  0  0  0
 30 54  1  0  0  0  0
 31 55  1  0  0  0  0
M  END
$$$$
