CHEMBL204425
 OpenBabel04072215363D

 46 49  0  0  0  0  0  0  0  0999 V2000
    0.5570   -7.2100   -3.8007 C   0  0  0  0  0  0  0  0  0  0  0  0
   -0.4560   -6.1064   -3.7128 C   0  0  0  0  0  0  0  0  0  0  0  0
   -0.8475   -5.4031   -4.8525 C   0  0  0  0  0  0  0  0  0  0  0  0
   -1.7954   -4.3880   -4.7533 C   0  0  0  0  0  0  0  0  0  0  0  0
   -2.3530   -4.0573   -3.5143 C   0  0  0  0  0  0  0  0  0  0  0  0
   -1.9598   -4.7196   -2.3459 C   0  0  0  0  0  0  0  0  0  0  0  0
   -2.4844   -4.4490   -1.0653 N   0  0  0  0  0  0  0  0  0  0  0  0
   -3.4451   -3.5806   -0.6935 C   0  0  0  0  0  0  0  0  0  0  0  0
   -3.6073   -3.0100    0.4814 N   0  0  0  0  0  0  0  0  0  0  0  0
   -4.7488   -2.2399    0.3988 N   0  0  0  0  0  0  0  0  0  0  0  0
   -5.2421   -2.4204   -0.8090 C   0  0  0  0  0  0  0  0  0  0  0  0
   -6.4530   -1.9046   -1.4481 C   0  0  0  0  0  0  0  0  0  0  0  0
   -6.7649   -2.3161   -2.7605 C   0  0  0  0  0  0  0  0  0  0  0  0
   -7.9061   -1.8578   -3.4109 C   0  0  0  0  0  0  0  0  0  0  0  0
   -8.7232   -0.9819   -2.7333 C   0  0  0  0  0  0  0  0  0  0  0  0
   -8.4681   -0.5544   -1.4815 N   0  0  0  0  0  0  0  0  0  0  0  0
   -7.3581   -1.0183   -0.8326 C   0  0  0  0  0  0  0  0  0  0  0  0
   -7.1641   -0.4435    0.5615 C   0  0  0  0  0  0  0  0  0  0  0  0
   -8.4930   -0.0689    1.2493 C   0  0  0  0  0  0  0  0  0  0  0  0
   -8.4041    0.5213    2.6415 C   0  0  0  0  0  0  0  0  0  0  0  0
   -9.4039    1.4101    3.0630 C   0  0  0  0  0  0  0  0  0  0  0  0
   -9.3691    1.9064    4.3561 C   0  0  0  0  0  0  0  0  0  0  0  0
   -8.4239    1.5790    5.2590 N   0  0  0  0  0  0  0  0  0  0  0  0
   -7.4751    0.7114    4.8440 C   0  0  0  0  0  0  0  0  0  0  0  0
   -7.4259    0.1605    3.5696 C   0  0  0  0  0  0  0  0  0  0  0  0
   -4.4554   -3.2637   -1.5588 O   0  0  0  0  0  0  0  0  0  0  0  0
   -1.0233   -5.7639   -2.4730 C   0  0  0  0  0  0  0  0  0  0  0  0
    0.8961   -7.3625   -4.8312 H   0  0  0  0  0  0  0  0  0  0  0  0
    0.1237   -8.1517   -3.4491 H   0  0  0  0  0  0  0  0  0  0  0  0
    1.4346   -6.9667   -3.1931 H   0  0  0  0  0  0  0  0  0  0  0  0
   -0.4200   -5.6399   -5.8242 H   0  0  0  0  0  0  0  0  0  0  0  0
   -2.0999   -3.8437   -5.6439 H   0  0  0  0  0  0  0  0  0  0  0  0
   -3.0751   -3.2490   -3.4880 H   0  0  0  0  0  0  0  0  0  0  0  0
   -1.8461   -4.7054   -0.3208 H   0  0  0  0  0  0  0  0  0  0  0  0
   -6.1174   -3.0086   -3.2954 H   0  0  0  0  0  0  0  0  0  0  0  0
   -8.1475   -2.1778   -4.4178 H   0  0  0  0  0  0  0  0  0  0  0  0
   -9.6288   -0.5870   -3.1853 H   0  0  0  0  0  0  0  0  0  0  0  0
   -6.5197    0.4409    0.4837 H   0  0  0  0  0  0  0  0  0  0  0  0
   -6.6643   -1.1755    1.1968 H   0  0  0  0  0  0  0  0  0  0  0  0
   -9.1296   -0.9615    1.3116 H   0  0  0  0  0  0  0  0  0  0  0  0
   -9.0244    0.6554    0.6178 H   0  0  0  0  0  0  0  0  0  0  0  0
  -10.2055    1.7094    2.3951 H   0  0  0  0  0  0  0  0  0  0  0  0
  -10.1311    2.5950    4.7107 H   0  0  0  0  0  0  0  0  0  0  0  0
   -6.7314    0.4522    5.5914 H   0  0  0  0  0  0  0  0  0  0  0  0
   -6.6355   -0.5465    3.3338 H   0  0  0  0  0  0  0  0  0  0  0  0
   -0.7204   -6.3256   -1.5911 H   0  0  0  0  0  0  0  0  0  0  0  0
  1  2  1  0  0  0  0
  1 28  1  0  0  0  0
  1 29  1  0  0  0  0
  1 30  1  0  0  0  0
  2  3  1  0  0  0  0
  2 27  2  0  0  0  0
  3  4  2  0  0  0  0
  3 31  1  0  0  0  0
  4  5  1  0  0  0  0
  4 32  1  0  0  0  0
  5  6  2  0  0  0  0
  5 33  1  0  0  0  0
  6  7  1  0  0  0  0
  6 27  1  0  0  0  0
  7  8  1  0  0  0  0
  7 34  1  0  0  0  0
  8  9  2  0  0  0  0
  8 26  1  0  0  0  0
  9 10  1  0  0  0  0
 10 11  2  0  0  0  0
 11 12  1  0  0  0  0
 11 26  1  0  0  0  0
 12 13  1  0  0  0  0
 12 17  2  0  0  0  0
 13 14  2  0  0  0  0
 13 35  1  0  0  0  0
 14 15  1  0  0  0  0
 14 36  1  0  0  0  0
 15 16  2  0  0  0  0
 15 37  1  0  0  0  0
 16 17  1  0  0  0  0
 17 18  1  0  0  0  0
 18 19  1  0  0  0  0
 18 38  1  0  0  0  0
 18 39  1  0  0  0  0
 19 20  1  0  0  0  0
 19 40  1  0  0  0  0
 19 41  1  0  0  0  0
 20 21  1  0  0  0  0
 20 25  2  0  0  0  0
 21 22  2  0  0  0  0
 21 42  1  0  0  0  0
 22 23  1  0  0  0  0
 22 43  1  0  0  0  0
 23 24  2  0  0  0  0
 24 25  1  0  0  0  0
 24 44  1  0  0  0  0
 25 45  1  0  0  0  0
 27 46  1  0  0  0  0
M  END
$$$$
