CHEMBL3916600
 OpenBabel04072215373D

 82 86  0  0  1  0  0  0  0  0999 V2000
    2.3332    0.8046    1.0268 C   0  0  0  0  0  0  0  0  0  0  0  0
    2.4423   -0.4583    0.1618 C   0  0  1  0  0  0  0  0  0  0  0  0
    3.2449   -0.2202   -1.0364 N   0  0  0  0  0  0  0  0  0  0  0  0
    2.7758    0.7114   -1.9579 C   0  0  0  0  0  0  0  0  0  0  0  0
    1.4631    1.0172   -2.0622 N   0  0  0  0  0  0  0  0  0  0  0  0
    1.0963    1.9826   -2.9328 C   0  0  0  0  0  0  0  0  0  0  0  0
    1.8828    2.7164   -3.7429 N   0  0  0  0  0  0  0  0  0  0  0  0
    3.1712    2.3757   -3.5999 C   0  0  0  0  0  0  0  0  0  0  0  0
    4.2210    2.9778   -4.2320 N   0  0  0  0  0  0  0  0  0  0  0  0
    5.4240    2.4752   -3.7682 C   0  0  0  0  0  0  0  0  0  0  0  0
    6.7109    3.0853   -4.0963 C   0  0  0  0  0  0  0  0  0  0  0  0
    6.7947    4.4823   -4.1809 C   0  0  0  0  0  0  0  0  0  0  0  0
    7.9972    5.1047   -4.5044 C   0  0  0  0  0  0  0  0  0  0  0  0
    9.1493    4.3567   -4.7520 C   0  0  0  0  0  0  0  0  0  0  0  0
   10.3878    5.0634   -5.2610 C   0  0  0  0  0  0  0  0  0  0  0  0
   11.4400    5.3450   -4.2691 N   0  0  0  0  0  0  0  0  0  0  0  0
   11.0621    6.3579   -3.2612 C   0  0  0  0  0  0  0  0  0  0  0  0
   10.9323    7.8214   -3.7598 C   0  0  0  0  0  0  0  0  0  0  0  0
   11.9431    8.3014   -4.7163 N   0  0  0  0  0  0  0  0  0  0  0  0
   12.9726    9.1522   -4.1148 C   0  0  0  0  0  0  0  0  0  0  0  0
   13.8415    9.8814   -5.1576 C   0  0  0  0  0  0  0  0  0  0  0  0
   12.9871   10.6295   -6.1814 C   0  0  0  0  0  0  0  0  0  0  0  0
   13.8155   11.1572   -7.3454 C   0  0  0  0  0  0  0  0  0  0  0  0
   12.9003   11.9122   -8.3022 C   0  0  0  0  0  0  0  0  0  0  0  0
   13.6655   12.4904   -9.4798 C   0  0  0  0  0  0  0  0  0  0  0  0
   12.7414   13.2821  -10.3784 C   0  0  0  0  0  0  0  0  0  0  0  0
   11.5391   13.4329  -10.1906 O   0  0  0  0  0  0  0  0  0  0  0  0
   13.3805   13.8470  -11.4543 N   0  0  0  0  0  0  0  0  0  0  0  0
   12.5189   14.4943  -12.3743 O   0  0  0  0  0  0  0  0  0  0  0  0
   12.4453    7.2491   -5.6088 C   0  0  0  0  0  0  0  0  0  0  0  0
   12.6398    5.8624   -4.9622 C   0  0  0  0  0  0  0  0  0  0  0  0
    9.0869    2.9593   -4.6167 C   0  0  0  0  0  0  0  0  0  0  0  0
    7.8733    2.3301   -4.2918 C   0  0  0  0  0  0  0  0  0  0  0  0
    5.1027    1.4249   -2.9248 C   0  0  0  0  0  0  0  0  0  0  0  0
    3.6874    1.4002   -2.7685 C   0  0  0  0  0  0  0  0  0  0  0  0
    3.1468   -1.5642    0.9415 C   0  0  0  0  0  0  0  0  0  0  0  0
    2.4831   -2.7619    1.2406 C   0  0  0  0  0  0  0  0  0  0  0  0
    3.1463   -3.7892    1.9165 C   0  0  0  0  0  0  0  0  0  0  0  0
    4.4782   -3.6327    2.3003 C   0  0  0  0  0  0  0  0  0  0  0  0
    5.1491   -2.4468    2.0158 C   0  0  0  0  0  0  0  0  0  0  0  0
    4.4882   -1.4203    1.3422 C   0  0  0  0  0  0  0  0  0  0  0  0
    1.7287    1.5751    0.5371 H   0  0  0  0  0  0  0  0  0  0  0  0
    3.3151    1.2493    1.2269 H   0  0  0  0  0  0  0  0  0  0  0  0
    1.8616    0.5826    1.9900 H   0  0  0  0  0  0  0  0  0  0  0  0
    1.4362   -0.7988   -0.1147 H   0  0  0  0  0  0  0  0  0  0  0  0
    3.4064   -1.0920   -1.5361 H   0  0  0  0  0  0  0  0  0  0  0  0
    0.0347    2.2020   -2.9769 H   0  0  0  0  0  0  0  0  0  0  0  0
    4.1157    3.7488   -4.8742 H   0  0  0  0  0  0  0  0  0  0  0  0
    5.9284    5.1040   -3.9881 H   0  0  0  0  0  0  0  0  0  0  0  0
    8.0212    6.1900   -4.5875 H   0  0  0  0  0  0  0  0  0  0  0  0
   10.0627    5.9727   -5.7824 H   0  0  0  0  0  0  0  0  0  0  0  0
   10.8047    4.4191   -6.0476 H   0  0  0  0  0  0  0  0  0  0  0  0
   11.8386    6.3434   -2.4838 H   0  0  0  0  0  0  0  0  0  0  0  0
   10.1412    6.0669   -2.7431 H   0  0  0  0  0  0  0  0  0  0  0  0
   10.8850    8.4809   -2.8824 H   0  0  0  0  0  0  0  0  0  0  0  0
    9.9565    7.9306   -4.2480 H   0  0  0  0  0  0  0  0  0  0  0  0
   13.6113    8.5830   -3.4307 H   0  0  0  0  0  0  0  0  0  0  0  0
   12.4828    9.9368   -3.5215 H   0  0  0  0  0  0  0  0  0  0  0  0
   14.5125    9.1783   -5.6630 H   0  0  0  0  0  0  0  0  0  0  0  0
   14.4960   10.5966   -4.6444 H   0  0  0  0  0  0  0  0  0  0  0  0
   12.4686   11.4568   -5.6816 H   0  0  0  0  0  0  0  0  0  0  0  0
   12.2107    9.9760   -6.5957 H   0  0  0  0  0  0  0  0  0  0  0  0
   14.2943   10.3219   -7.8715 H   0  0  0  0  0  0  0  0  0  0  0  0
   14.6105   11.8151   -6.9776 H   0  0  0  0  0  0  0  0  0  0  0  0
   12.3916   12.7188   -7.7593 H   0  0  0  0  0  0  0  0  0  0  0  0
   12.1138   11.2392   -8.6698 H   0  0  0  0  0  0  0  0  0  0  0  0
   14.1247   11.6851  -10.0654 H   0  0  0  0  0  0  0  0  0  0  0  0
   14.4598   13.1563   -9.1231 H   0  0  0  0  0  0  0  0  0  0  0  0
   14.2411   13.4691  -11.8340 H   0  0  0  0  0  0  0  0  0  0  0  0
   11.6440   14.4153  -11.9293 H   0  0  0  0  0  0  0  0  0  0  0  0
   13.3835    7.5258   -6.0969 H   0  0  0  0  0  0  0  0  0  0  0  0
   11.7361    7.1697   -6.4417 H   0  0  0  0  0  0  0  0  0  0  0  0
   13.4687    5.9172   -4.2445 H   0  0  0  0  0  0  0  0  0  0  0  0
   12.9641    5.1503   -5.7311 H   0  0  0  0  0  0  0  0  0  0  0  0
    9.9735    2.3543   -4.7919 H   0  0  0  0  0  0  0  0  0  0  0  0
    7.8442    1.2441   -4.2173 H   0  0  0  0  0  0  0  0  0  0  0  0
    5.8068    0.8122   -2.3733 H   0  0  0  0  0  0  0  0  0  0  0  0
    1.4472   -2.9079    0.9426 H   0  0  0  0  0  0  0  0  0  0  0  0
    2.6255   -4.7164    2.1396 H   0  0  0  0  0  0  0  0  0  0  0  0
    4.9945   -4.4366    2.8177 H   0  0  0  0  0  0  0  0  0  0  0  0
    6.1879   -2.3211    2.3092 H   0  0  0  0  0  0  0  0  0  0  0  0
    5.0296   -0.5046    1.1086 H   0  0  0  0  0  0  0  0  0  0  0  0
  1  2  1  0  0  0  0
  1 42  1  0  0  0  0
  1 43  1  0  0  0  0
  1 44  1  0  0  0  0
  2  3  1  0  0  0  0
  2 36  1  0  0  0  0
  2 45  1  6  0  0  0
  3  4  1  0  0  0  0
  3 46  1  0  0  0  0
  4  5  1  0  0  0  0
  4 35  2  0  0  0  0
  5  6  2  0  0  0  0
  6  7  1  0  0  0  0
  6 47  1  0  0  0  0
  7  8  2  0  0  0  0
  8  9  1  0  0  0  0
  8 35  1  0  0  0  0
  9 10  1  0  0  0  0
  9 48  1  0  0  0  0
 10 11  1  0  0  0  0
 10 34  2  0  0  0  0
 11 12  1  0  0  0  0
 11 33  2  0  0  0  0
 12 13  2  0  0  0  0
 12 49  1  0  0  0  0
 13 14  1  0  0  0  0
 13 50  1  0  0  0  0
 14 15  1  0  0  0  0
 14 32  2  0  0  0  0
 15 16  1  0  0  0  0
 15 51  1  0  0  0  0
 15 52  1  0  0  0  0
 16 17  1  0  0  0  0
 16 31  1  0  0  0  0
 17 18  1  0  0  0  0
 17 53  1  0  0  0  0
 17 54  1  0  0  0  0
 18 19  1  0  0  0  0
 18 55  1  0  0  0  0
 18 56  1  0  0  0  0
 19 20  1  0  0  0  0
 19 30  1  0  0  0  0
 20 21  1  0  0  0  0
 20 57  1  0  0  0  0
 20 58  1  0  0  0  0
 21 22  1  0  0  0  0
 21 59  1  0  0  0  0
 21 60  1  0  0  0  0
 22 23  1  0  0  0  0
 22 61  1  0  0  0  0
 22 62  1  0  0  0  0
 23 24  1  0  0  0  0
 23 63  1  0  0  0  0
 23 64  1  0  0  0  0
 24 25  1  0  0  0  0
 24 65  1  0  0  0  0
 24 66  1  0  0  0  0
 25 26  1  0  0  0  0
 25 67  1  0  0  0  0
 25 68  1  0  0  0  0
 26 27  2  0  0  0  0
 26 28  1  0  0  0  0
 28 29  1  0  0  0  0
 28 69  1  0  0  0  0
 29 70  1  0  0  0  0
 30 31  1  0  0  0  0
 30 71  1  0  0  0  0
 30 72  1  0  0  0  0
 31 73  1  0  0  0  0
 31 74  1  0  0  0  0
 32 33  1  0  0  0  0
 32 75  1  0  0  0  0
 33 76  1  0  0  0  0
 34 35  1  0  0  0  0
 34 77  1  0  0  0  0
 36 37  1  0  0  0  0
 36 41  2  0  0  0  0
 37 38  2  0  0  0  0
 37 78  1  0  0  0  0
 38 39  1  0  0  0  0
 38 79  1  0  0  0  0
 39 40  2  0  0  0  0
 39 80  1  0  0  0  0
 40 41  1  0  0  0  0
 40 81  1  0  0  0  0
 41 82  1  0  0  0  0
M  END
$$$$
