CHEMBL383030
 OpenBabel04072215373D

 57 61  0  0  0  0  0  0  0  0999 V2000
    1.0776   -0.0333    1.8013 C   0  0  0  0  0  0  0  0  0  0  0  0
    2.5281   -0.0179    1.8187 O   0  0  0  0  0  0  0  0  0  0  0  0
    3.1347    0.8113    0.9193 C   0  0  0  0  0  0  0  0  0  0  0  0
    2.5280    1.5144    0.1287 O   0  0  0  0  0  0  0  0  0  0  0  0
    4.6338    0.7708    0.9116 C   0  0  0  0  0  0  0  0  0  0  0  0
    5.3398    0.9790   -0.2788 C   0  0  0  0  0  0  0  0  0  0  0  0
    4.6073    1.1660   -1.4324 O   0  0  0  0  0  0  0  0  0  0  0  0
    5.1419    0.7570   -2.6922 C   0  0  0  0  0  0  0  0  0  0  0  0
    4.1266    0.3534   -3.6754 C   0  0  0  0  0  0  0  0  0  0  0  0
    4.7597   -0.0690   -4.9906 C   0  0  0  0  0  0  0  0  0  0  0  0
    3.7082   -0.4609   -5.9280 N   0  0  0  0  0  0  0  0  0  0  0  0
    2.8120    0.6692   -6.1582 C   0  0  0  0  0  0  0  0  0  0  0  0
    4.3083   -0.8537   -7.1962 C   0  0  0  0  0  0  0  0  0  0  0  0
    6.7232    0.9971   -0.2524 C   0  0  0  0  0  0  0  0  0  0  0  0
    7.3605    1.1911   -1.4181 C   0  0  0  0  0  0  0  0  0  0  0  0
    8.6719    1.1786   -1.4010 C   0  0  0  0  0  0  0  0  0  0  0  0
    9.9146    1.1712   -1.4187 C   0  0  0  0  0  0  0  0  0  0  0  0
    9.0717    0.8812    0.2823 C   0  0  0  0  0  0  0  0  0  0  0  0
    7.5594    0.8113    0.8359 C   0  0  0  0  0  0  0  0  0  0  0  0
    6.7688    0.6135    2.0890 C   0  0  0  0  0  0  0  0  0  0  0  0
    7.2435    0.4092    3.3779 O   0  0  0  0  0  0  0  0  0  0  0  0
    6.1529    0.2828    4.1853 C   0  0  0  0  0  0  0  0  0  0  0  0
    4.9835    0.3948    3.4853 C   0  0  0  0  0  0  0  0  0  0  0  0
    5.3518    0.6061    2.1292 C   0  0  0  0  0  0  0  0  0  0  0  0
    3.7173    0.2824    4.1706 C   0  0  0  0  0  0  0  0  0  0  0  0
    2.6260    0.3078    3.6333 O   0  0  0  0  0  0  0  0  0  0  0  0
    3.7562    0.0563    5.6259 C   0  0  0  0  0  0  0  0  0  0  0  0
    2.5778   -0.0610    6.3521 C   0  0  0  0  0  0  0  0  0  0  0  0
    2.6244   -0.2753    7.7205 C   0  0  0  0  0  0  0  0  0  0  0  0
    3.8409   -0.3765    8.3706 C   0  0  0  0  0  0  0  0  0  0  0  0
    5.0156   -0.2669    7.6624 C   0  0  0  0  0  0  0  0  0  0  0  0
    4.9678   -0.0509    6.2945 C   0  0  0  0  0  0  0  0  0  0  0  0
    6.2447    0.0607    5.5882 C   0  0  0  0  0  0  0  0  0  0  0  0
    7.2770   -0.0423    6.2323 O   0  0  0  0  0  0  0  0  0  0  0  0
    0.7065   -0.7539    2.5457 H   0  0  0  0  0  0  0  0  0  0  0  0
    0.6946   -0.3384    0.8232 H   0  0  0  0  0  0  0  0  0  0  0  0
    0.6761    0.9504    2.0623 H   0  0  0  0  0  0  0  0  0  0  0  0
    5.7793   -0.1492   -2.5487 H   0  0  0  0  0  0  0  0  0  0  0  0
    5.6632    1.6297   -3.1617 H   0  0  0  0  0  0  0  0  0  0  0  0
    3.4942    1.2224   -3.8084 H   0  0  0  0  0  0  0  0  0  0  0  0
    3.5522   -0.4597   -3.2490 H   0  0  0  0  0  0  0  0  0  0  0  0
    5.4354   -0.9136   -4.8156 H   0  0  0  0  0  0  0  0  0  0  0  0
    5.3541    0.7547   -5.4057 H   0  0  0  0  0  0  0  0  0  0  0  0
    2.3264    0.9788   -5.2315 H   0  0  0  0  0  0  0  0  0  0  0  0
    2.0133    0.3938   -6.8437 H   0  0  0  0  0  0  0  0  0  0  0  0
    3.3587    1.5254   -6.5629 H   0  0  0  0  0  0  0  0  0  0  0  0
    4.9793   -1.7041   -7.0529 H   0  0  0  0  0  0  0  0  0  0  0  0
    4.8789   -0.0289   -7.6332 H   0  0  0  0  0  0  0  0  0  0  0  0
    3.5318   -1.1532   -7.9050 H   0  0  0  0  0  0  0  0  0  0  0  0
    7.1732    1.3476   -2.4241 H   0  0  0  0  0  0  0  0  0  0  0  0
    9.8376    1.1809   -0.9577 H   0  0  0  0  0  0  0  0  0  0  0  0
    9.8110    1.4055   -2.7000 H   0  0  0  0  0  0  0  0  0  0  0  0
    9.5819    0.7203    1.3169 H   0  0  0  0  0  0  0  0  0  0  0  0
    1.6156    0.0153    5.8649 H   0  0  0  0  0  0  0  0  0  0  0  0
    1.7057   -0.3632    8.2821 H   0  0  0  0  0  0  0  0  0  0  0  0
    3.8769   -0.5414    9.4349 H   0  0  0  0  0  0  0  0  0  0  0  0
    5.9688   -0.3479    8.1709 H   0  0  0  0  0  0  0  0  0  0  0  0
  1  2  1  0  0  0  0
  1 35  1  0  0  0  0
  1 36  1  0  0  0  0
  1 37  1  0  0  0  0
  2  3  1  0  0  0  0
  3  4  2  0  0  0  0
  3  5  1  0  0  0  0
  5  6  1  0  0  0  0
  5 24  2  0  0  0  0
  6  7  1  0  0  0  0
  6 14  2  0  0  0  0
  7  8  1  0  0  0  0
  8  9  1  0  0  0  0
  8 38  1  0  0  0  0
  8 39  1  0  0  0  0
  9 10  1  0  0  0  0
  9 40  1  0  0  0  0
  9 41  1  0  0  0  0
 10 11  1  0  0  0  0
 10 42  1  0  0  0  0
 10 43  1  0  0  0  0
 11 12  1  0  0  0  0
 11 13  1  0  0  0  0
 12 44  1  0  0  0  0
 12 45  1  0  0  0  0
 12 46  1  0  0  0  0
 13 47  1  0  0  0  0
 13 48  1  0  0  0  0
 13 49  1  0  0  0  0
 14 15  1  0  0  0  0
 14 19  1  0  0  0  0
 15 16  2  0  0  0  0
 15 50  1  0  0  0  0
 16 17  1  0  0  0  0
 16 51  1  0  0  0  0
 17 18  2  0  0  0  0
 17 52  1  0  0  0  0
 18 19  1  0  0  0  0
 18 53  1  0  0  0  0
 19 20  2  0  0  0  0
 20 21  1  0  0  0  0
 20 24  1  0  0  0  0
 21 22  1  0  0  0  0
 22 23  2  0  0  0  0
 22 33  1  0  0  0  0
 23 24  1  0  0  0  0
 23 25  1  0  0  0  0
 25 26  2  0  0  0  0
 25 27  1  0  0  0  0
 27 28  1  0  0  0  0
 27 32  2  0  0  0  0
 28 29  2  0  0  0  0
 28 54  1  0  0  0  0
 29 30  1  0  0  0  0
 29 55  1  0  0  0  0
 30 31  2  0  0  0  0
 30 56  1  0  0  0  0
 31 32  1  0  0  0  0
 31 57  1  0  0  0  0
 32 33  1  0  0  0  0
 33 34  2  0  0  0  0
M  END
$$$$
