CHEMBL195700
 OpenBabel04072215363D

 52 54  0  0  0  0  0  0  0  0999 V2000
    6.2490   -0.4140   -0.7198 C   0  0  0  0  0  0  0  0  0  0  0  0
    5.1753    0.6333   -0.4790 C   0  0  0  0  0  0  0  0  0  0  0  0
    5.1029    0.8821    0.9296 O   0  0  0  0  0  0  0  0  0  0  0  0
    4.3209    0.0168    1.6416 C   0  0  0  0  0  0  0  0  0  0  0  0
    3.4698   -0.7063    1.1398 O   0  0  0  0  0  0  0  0  0  0  0  0
    4.7098   -0.0262    3.0550 C   0  0  0  0  0  0  0  0  0  0  0  0
    5.6937    0.7763    3.5923 C   0  0  0  0  0  0  0  0  0  0  0  0
    5.8917    0.4283    4.8861 N   0  0  0  0  0  0  0  0  0  0  0  0
    6.8051    1.0173    5.6674 N   0  0  0  0  0  0  0  0  0  0  0  0
    6.8991    0.4972    6.8434 C   0  0  0  0  0  0  0  0  0  0  0  0
    6.1753   -0.5550    7.3194 N   0  0  0  0  0  0  0  0  0  0  0  0
    5.2703   -1.1293    6.5743 C   0  0  0  0  0  0  0  0  0  0  0  0
    4.5521   -2.1789    7.1093 N   0  0  0  0  0  0  0  0  0  0  0  0
    4.9919   -2.9545    8.2081 C   0  0  0  0  0  0  0  0  0  0  0  0
    6.3263   -3.3794    8.3358 C   0  0  0  0  0  0  0  0  0  0  0  0
    6.7389   -4.1598    9.4306 C   0  0  0  0  0  0  0  0  0  0  0  0
    8.1826   -4.5116    9.5486 C   0  0  0  0  0  0  0  0  0  0  0  0
    8.9617   -4.1667    8.6628 O   0  0  0  0  0  0  0  0  0  0  0  0
    8.5550   -5.1844   10.6929 N   0  0  0  0  0  0  0  0  0  0  0  0
    9.8906   -5.6386   10.7506 O   0  0  0  0  0  0  0  0  0  0  0  0
   10.6341   -4.6877   11.5088 C   0  0  0  0  0  0  0  0  0  0  0  0
    5.7865   -4.5442   10.3779 C   0  0  0  0  0  0  0  0  0  0  0  0
    6.1267   -5.3001   11.4330 F   0  0  0  0  0  0  0  0  0  0  0  0
    4.4573   -4.1505   10.2638 C   0  0  0  0  0  0  0  0  0  0  0  0
    4.0758   -3.3692    9.1820 C   0  0  0  0  0  0  0  0  0  0  0  0
    2.7943   -2.9801    9.0826 F   0  0  0  0  0  0  0  0  0  0  0  0
    5.0672   -0.6108    5.2369 C   0  0  0  0  0  0  0  0  0  0  0  0
    4.2645   -0.9174    4.1244 C   0  0  0  0  0  0  0  0  0  0  0  0
    3.2048   -1.9853    3.8770 C   0  0  0  0  0  0  0  0  0  0  0  0
    3.8181   -3.2753    3.3269 C   0  0  0  0  0  0  0  0  0  0  0  0
    2.2367   -2.2913    5.0113 C   0  0  0  0  0  0  0  0  0  0  0  0
    6.3751   -0.6140   -1.7863 H   0  0  0  0  0  0  0  0  0  0  0  0
    6.0007   -1.3520   -0.2114 H   0  0  0  0  0  0  0  0  0  0  0  0
    7.2063   -0.0793   -0.3045 H   0  0  0  0  0  0  0  0  0  0  0  0
    4.2088    0.3267   -0.8919 H   0  0  0  0  0  0  0  0  0  0  0  0
    5.4570    1.5735   -0.9631 H   0  0  0  0  0  0  0  0  0  0  0  0
    6.3060    1.5458    3.1413 H   0  0  0  0  0  0  0  0  0  0  0  0
    7.6280    0.9355    7.5460 H   0  0  0  0  0  0  0  0  0  0  0  0
    3.5638   -1.9492    7.2031 H   0  0  0  0  0  0  0  0  0  0  0  0
    7.0589   -3.0863    7.5838 H   0  0  0  0  0  0  0  0  0  0  0  0
    7.8870   -5.7086   11.2481 H   0  0  0  0  0  0  0  0  0  0  0  0
   11.6610   -5.0462   11.6072 H   0  0  0  0  0  0  0  0  0  0  0  0
   10.2007   -4.5809   12.5083 H   0  0  0  0  0  0  0  0  0  0  0  0
   10.6467   -3.7171   11.0009 H   0  0  0  0  0  0  0  0  0  0  0  0
    3.7328   -4.4461   11.0141 H   0  0  0  0  0  0  0  0  0  0  0  0
    2.5459   -1.5903    3.0941 H   0  0  0  0  0  0  0  0  0  0  0  0
    4.5384   -3.7082    4.0284 H   0  0  0  0  0  0  0  0  0  0  0  0
    4.3419   -3.0913    2.3822 H   0  0  0  0  0  0  0  0  0  0  0  0
    3.0412   -4.0225    3.1289 H   0  0  0  0  0  0  0  0  0  0  0  0
    2.6649   -2.9738    5.7454 H   0  0  0  0  0  0  0  0  0  0  0  0
    1.3556   -2.8119    4.6151 H   0  0  0  0  0  0  0  0  0  0  0  0
    1.8870   -1.3809    5.5070 H   0  0  0  0  0  0  0  0  0  0  0  0
  1  2  1  0  0  0  0
  1 32  1  0  0  0  0
  1 33  1  0  0  0  0
  1 34  1  0  0  0  0
  2  3  1  0  0  0  0
  2 35  1  0  0  0  0
  2 36  1  0  0  0  0
  3  4  1  0  0  0  0
  4  5  2  0  0  0  0
  4  6  1  0  0  0  0
  6  7  2  0  0  0  0
  6 28  1  0  0  0  0
  7  8  1  0  0  0  0
  7 37  1  0  0  0  0
  8  9  1  0  0  0  0
  8 27  1  0  0  0  0
  9 10  2  0  0  0  0
 10 11  1  0  0  0  0
 10 38  1  0  0  0  0
 11 12  2  0  0  0  0
 12 13  1  0  0  0  0
 12 27  1  0  0  0  0
 13 14  1  0  0  0  0
 13 39  1  0  0  0  0
 14 15  1  0  0  0  0
 14 25  2  0  0  0  0
 15 16  2  0  0  0  0
 15 40  1  0  0  0  0
 16 17  1  0  0  0  0
 16 22  1  0  0  0  0
 17 18  2  0  0  0  0
 17 19  1  0  0  0  0
 19 20  1  0  0  0  0
 19 41  1  0  0  0  0
 20 21  1  0  0  0  0
 21 42  1  0  0  0  0
 21 43  1  0  0  0  0
 21 44  1  0  0  0  0
 22 23  1  0  0  0  0
 22 24  2  0  0  0  0
 24 25  1  0  0  0  0
 24 45  1  0  0  0  0
 25 26  1  0  0  0  0
 27 28  2  0  0  0  0
 28 29  1  0  0  0  0
 29 30  1  0  0  0  0
 29 31  1  0  0  0  0
 29 46  1  0  0  0  0
 30 47  1  0  0  0  0
 30 48  1  0  0  0  0
 30 49  1  0  0  0  0
 31 50  1  0  0  0  0
 31 51  1  0  0  0  0
 31 52  1  0  0  0  0
M  END
$$$$
