CHEMBL2403377
 OpenBabel04072215363D

 41 44  0  0  0  0  0  0  0  0999 V2000
    1.2359   -0.4394    0.6990 C   0  0  0  0  0  0  0  0  0  0  0  0
    2.4889   -0.0851   -0.0600 C   0  0  0  0  0  0  0  0  0  0  0  0
    2.8479   -0.7724   -1.0173 O   0  0  0  0  0  0  0  0  0  0  0  0
    3.1856    1.0457    0.3567 N   0  0  0  0  0  0  0  0  0  0  0  0
    2.8043    1.8047    1.5691 C   0  0  0  0  0  0  0  0  0  0  0  0
    3.6038    3.0486    2.0064 C   0  0  0  0  0  0  0  0  0  0  0  0
    4.6944    3.3570    1.0704 C   0  0  0  0  0  0  0  0  0  0  0  0
    5.5275    4.4379    1.1597 N   0  0  0  0  0  0  0  0  0  0  0  0
    6.4160    4.4093    0.1109 C   0  0  0  0  0  0  0  0  0  0  0  0
    7.4066    5.3959   -0.1065 C   0  0  0  0  0  0  0  0  0  0  0  0
    7.7012    6.4859    0.6168 C   0  0  0  0  0  0  0  0  0  0  0  0
    7.1137    7.0375    1.8924 C   0  0  0  0  0  0  0  0  0  0  0  0
    6.1891    6.5969    2.5478 O   0  0  0  0  0  0  0  0  0  0  0  0
    7.8552    8.1775    2.1721 N   0  0  0  0  0  0  0  0  0  0  0  0
    8.8323    8.3978    1.2077 C   0  0  0  0  0  0  0  0  0  0  0  0
    9.7436    9.4327    1.1626 C   0  0  0  0  0  0  0  0  0  0  0  0
   10.6337    9.4610    0.0818 C   0  0  0  0  0  0  0  0  0  0  0  0
   10.5888    8.4686   -0.9207 C   0  0  0  0  0  0  0  0  0  0  0  0
   11.4992    8.5170   -2.0272 C   0  0  0  0  0  0  0  0  0  0  0  0
   12.2275    8.5430   -2.9301 N   0  0  0  0  0  0  0  0  0  0  0  0
    9.6539    7.4288   -0.8485 C   0  0  0  0  0  0  0  0  0  0  0  0
    8.7820    7.4044    0.2280 C   0  0  0  0  0  0  0  0  0  0  0  0
    6.1297    3.2771   -0.6333 C   0  0  0  0  0  0  0  0  0  0  0  0
    5.0399    2.6131   -0.0268 C   0  0  0  0  0  0  0  0  0  0  0  0
    4.3691    1.3670   -0.4479 C   0  0  0  0  0  0  0  0  0  0  0  0
    0.8217   -1.3679    0.2946 H   0  0  0  0  0  0  0  0  0  0  0  0
    0.4913    0.3508    0.5746 H   0  0  0  0  0  0  0  0  0  0  0  0
    1.4545   -0.6012    1.7566 H   0  0  0  0  0  0  0  0  0  0  0  0
    2.8020    1.0928    2.4038 H   0  0  0  0  0  0  0  0  0  0  0  0
    1.7582    2.1059    1.4340 H   0  0  0  0  0  0  0  0  0  0  0  0
    4.0128    2.8817    3.0104 H   0  0  0  0  0  0  0  0  0  0  0  0
    2.9241    3.9056    2.0872 H   0  0  0  0  0  0  0  0  0  0  0  0
    5.4911    5.1482    1.8860 H   0  0  0  0  0  0  0  0  0  0  0  0
    7.9995    5.2083   -0.9981 H   0  0  0  0  0  0  0  0  0  0  0  0
    7.6789    8.7549    2.9804 H   0  0  0  0  0  0  0  0  0  0  0  0
    9.7776   10.2002    1.9300 H   0  0  0  0  0  0  0  0  0  0  0  0
   11.3671   10.2636    0.0175 H   0  0  0  0  0  0  0  0  0  0  0  0
    9.6179    6.6664   -1.6215 H   0  0  0  0  0  0  0  0  0  0  0  0
    6.6537    2.9647   -1.5286 H   0  0  0  0  0  0  0  0  0  0  0  0
    5.0675    0.5239   -0.3842 H   0  0  0  0  0  0  0  0  0  0  0  0
    4.0499    1.4576   -1.4939 H   0  0  0  0  0  0  0  0  0  0  0  0
  1  2  1  0  0  0  0
  1 26  1  0  0  0  0
  1 27  1  0  0  0  0
  1 28  1  0  0  0  0
  2  3  2  0  0  0  0
  2  4  1  0  0  0  0
  4  5  1  0  0  0  0
  4 25  1  0  0  0  0
  5  6  1  0  0  0  0
  5 29  1  0  0  0  0
  5 30  1  0  0  0  0
  6  7  1  0  0  0  0
  6 31  1  0  0  0  0
  6 32  1  0  0  0  0
  7  8  1  0  0  0  0
  7 24  2  0  0  0  0
  8  9  1  0  0  0  0
  8 33  1  0  0  0  0
  9 10  1  0  0  0  0
  9 23  2  0  0  0  0
 10 11  2  0  0  0  0
 10 34  1  0  0  0  0
 11 12  1  0  0  0  0
 11 22  1  0  0  0  0
 12 13  2  0  0  0  0
 12 14  1  0  0  0  0
 14 15  1  0  0  0  0
 14 35  1  0  0  0  0
 15 16  1  0  0  0  0
 15 22  2  0  0  0  0
 16 17  2  0  0  0  0
 16 36  1  0  0  0  0
 17 18  1  0  0  0  0
 17 37  1  0  0  0  0
 18 19  1  0  0  0  0
 18 21  2  0  0  0  0
 19 20  3  0  0  0  0
 21 22  1  0  0  0  0
 21 38  1  0  0  0  0
 23 24  1  0  0  0  0
 23 39  1  0  0  0  0
 24 25  1  0  0  0  0
 25 40  1  0  0  0  0
 25 41  1  0  0  0  0
M  END
$$$$
