CHEMBL382818
 OpenBabel04072215373D

 47 51  0  0  0  0  0  0  0  0999 V2000
    1.1512    4.1990    2.8971 F   0  0  0  0  0  0  0  0  0  0  0  0
    2.1123    3.2510    2.7311 C   0  0  0  0  0  0  0  0  0  0  0  0
    2.7082    3.1035    3.9427 F   0  0  0  0  0  0  0  0  0  0  0  0
    1.3468    1.7499    2.2061 Cl  0  0  0  0  0  0  0  0  0  0  0  0
    3.0328    3.7673    1.7781 O   0  0  0  0  0  0  0  0  0  0  0  0
    4.3100    3.2908    1.7474 C   0  0  0  0  0  0  0  0  0  0  0  0
    4.7753    2.1077    2.3153 C   0  0  0  0  0  0  0  0  0  0  0  0
    6.1250    1.7445    2.1783 C   0  0  0  0  0  0  0  0  0  0  0  0
    7.0262    2.5381    1.4525 C   0  0  0  0  0  0  0  0  0  0  0  0
    8.3871    2.1798    1.4027 N   0  0  0  0  0  0  0  0  0  0  0  0
    9.3324    2.4482    0.3675 C   0  0  0  0  0  0  0  0  0  0  0  0
    8.9169    2.7404   -0.8804 N   0  0  0  0  0  0  0  0  0  0  0  0
    9.8165    2.8424   -1.9257 N   0  0  0  0  0  0  0  0  0  0  0  0
   11.1343    2.6297   -1.7355 C   0  0  0  0  0  0  0  0  0  0  0  0
   11.9761    2.6103   -2.9797 C   0  0  0  0  0  0  0  0  0  0  0  0
   13.2236    3.2672   -2.9762 C   0  0  0  0  0  0  0  0  0  0  0  0
   14.2132    2.9692   -3.9112 C   0  0  0  0  0  0  0  0  0  0  0  0
   13.9747    2.0006   -4.8749 C   0  0  0  0  0  0  0  0  0  0  0  0
   12.6946    1.4491   -5.0155 C   0  0  0  0  0  0  0  0  0  0  0  0
   12.4196    0.5478   -6.0473 C   0  0  0  0  0  0  0  0  0  0  0  0
   11.1831    0.1334   -6.3914 N   0  0  0  0  0  0  0  0  0  0  0  0
   10.1721    0.6327   -5.6582 C   0  0  0  0  0  0  0  0  0  0  0  0
   10.3505    1.4190   -4.5266 C   0  0  0  0  0  0  0  0  0  0  0  0
   11.6476    1.8306   -4.1408 C   0  0  0  0  0  0  0  0  0  0  0  0
   11.6339    2.3668   -0.4246 C   0  0  0  0  0  0  0  0  0  0  0  0
   12.9992    2.1356   -0.0910 C   0  0  0  0  0  0  0  0  0  0  0  0
   13.4441    1.9654    1.2222 C   0  0  0  0  0  0  0  0  0  0  0  0
   12.5321    1.9661    2.2589 C   0  0  0  0  0  0  0  0  0  0  0  0
   11.1777    2.1147    1.9728 C   0  0  0  0  0  0  0  0  0  0  0  0
   10.7023    2.3062    0.6465 C   0  0  0  0  0  0  0  0  0  0  0  0
    6.5522    3.7341    0.9112 C   0  0  0  0  0  0  0  0  0  0  0  0
    5.2080    4.0975    1.0461 C   0  0  0  0  0  0  0  0  0  0  0  0
    4.1301    1.4350    2.8719 H   0  0  0  0  0  0  0  0  0  0  0  0
    6.4592    0.8220    2.6473 H   0  0  0  0  0  0  0  0  0  0  0  0
    8.5444    1.2363    1.7342 H   0  0  0  0  0  0  0  0  0  0  0  0
   13.4612    3.9834   -2.1910 H   0  0  0  0  0  0  0  0  0  0  0  0
   15.1816    3.4610   -3.8613 H   0  0  0  0  0  0  0  0  0  0  0  0
   14.7705    1.7362   -5.5691 H   0  0  0  0  0  0  0  0  0  0  0  0
   13.2170    0.1312   -6.6591 H   0  0  0  0  0  0  0  0  0  0  0  0
    9.1768    0.3920   -6.0199 H   0  0  0  0  0  0  0  0  0  0  0  0
    9.4627    1.7727   -4.0121 H   0  0  0  0  0  0  0  0  0  0  0  0
   13.7655    2.0917   -0.8600 H   0  0  0  0  0  0  0  0  0  0  0  0
   14.5047    1.8374    1.4256 H   0  0  0  0  0  0  0  0  0  0  0  0
   12.8652    1.8449    3.2865 H   0  0  0  0  0  0  0  0  0  0  0  0
   10.4843    2.1093    2.8106 H   0  0  0  0  0  0  0  0  0  0  0  0
    7.2278    4.4073    0.3898 H   0  0  0  0  0  0  0  0  0  0  0  0
    4.8684    5.0333    0.6075 H   0  0  0  0  0  0  0  0  0  0  0  0
  1  2  1  0  0  0  0
  2  3  1  0  0  0  0
  2  4  1  0  0  0  0
  2  5  1  0  0  0  0
  5  6  1  0  0  0  0
  6  7  1  0  0  0  0
  6 32  2  0  0  0  0
  7  8  2  0  0  0  0
  7 33  1  0  0  0  0
  8  9  1  0  0  0  0
  8 34  1  0  0  0  0
  9 10  1  0  0  0  0
  9 31  2  0  0  0  0
 10 11  1  0  0  0  0
 10 35  1  0  0  0  0
 11 12  1  0  0  0  0
 11 30  2  0  0  0  0
 12 13  2  0  0  0  0
 13 14  1  0  0  0  0
 14 15  1  0  0  0  0
 14 25  2  0  0  0  0
 15 16  1  0  0  0  0
 15 24  2  0  0  0  0
 16 17  2  0  0  0  0
 16 36  1  0  0  0  0
 17 18  1  0  0  0  0
 17 37  1  0  0  0  0
 18 19  2  0  0  0  0
 18 38  1  0  0  0  0
 19 20  1  0  0  0  0
 19 24  1  0  0  0  0
 20 21  2  0  0  0  0
 20 39  1  0  0  0  0
 21 22  1  0  0  0  0
 22 23  2  0  0  0  0
 22 40  1  0  0  0  0
 23 24  1  0  0  0  0
 23 41  1  0  0  0  0
 25 26  1  0  0  0  0
 25 30  1  0  0  0  0
 26 27  2  0  0  0  0
 26 42  1  0  0  0  0
 27 28  1  0  0  0  0
 27 43  1  0  0  0  0
 28 29  2  0  0  0  0
 28 44  1  0  0  0  0
 29 30  1  0  0  0  0
 29 45  1  0  0  0  0
 31 32  1  0  0  0  0
 31 46  1  0  0  0  0
 32 47  1  0  0  0  0
M  END
$$$$
