CHEMBL1999556
 OpenBabel04072215363D

 28 30  0  0  0  0  0  0  0  0999 V2000
    1.2756    0.5123   -0.1103 N   0  0  0  0  0  0  0  0  0  0  0  0
    2.4758   -0.1168    0.0695 C   0  0  0  0  0  0  0  0  0  0  0  0
    2.8748   -0.3189    1.2147 O   0  0  0  0  0  0  0  0  0  0  0  0
    3.1965   -0.5245   -1.1234 C   0  0  0  0  0  0  0  0  0  0  0  0
    4.4002   -1.1971   -1.1599 C   0  0  0  0  0  0  0  0  0  0  0  0
    4.8457   -1.5553   -2.4862 C   0  0  0  0  0  0  0  0  0  0  0  0
    5.9698   -2.3019   -2.9511 C   0  0  0  0  0  0  0  0  0  0  0  0
    6.9343   -2.9531   -2.0373 C   0  0  0  0  0  0  0  0  0  0  0  0
    6.5281   -3.5906   -0.8508 C   0  0  0  0  0  0  0  0  0  0  0  0
    7.4503   -4.1652    0.0303 C   0  0  0  0  0  0  0  0  0  0  0  0
    8.8043   -4.1662   -0.2820 C   0  0  0  0  0  0  0  0  0  0  0  0
    9.2337   -3.5926   -1.4734 C   0  0  0  0  0  0  0  0  0  0  0  0
    8.3112   -2.9854   -2.3337 C   0  0  0  0  0  0  0  0  0  0  0  0
    6.1011   -2.3747   -4.3438 C   0  0  0  0  0  0  0  0  0  0  0  0
    5.2715   -1.8162   -5.2505 N   0  0  0  0  0  0  0  0  0  0  0  0
    4.1976   -1.1383   -4.8032 C   0  0  0  0  0  0  0  0  0  0  0  0
    3.9687   -1.0101   -3.4328 C   0  0  0  0  0  0  0  0  0  0  0  0
    2.6317   -0.2118   -2.6969 S   0  0  0  0  0  0  0  0  0  0  0  0
    0.7486    0.7727    0.7118 H   0  0  0  0  0  0  0  0  0  0  0  0
    0.8841    0.6680   -1.0280 H   0  0  0  0  0  0  0  0  0  0  0  0
    4.9282   -1.4494   -0.2468 H   0  0  0  0  0  0  0  0  0  0  0  0
    5.4745   -3.6562   -0.5884 H   0  0  0  0  0  0  0  0  0  0  0  0
    7.1044   -4.6148    0.9578 H   0  0  0  0  0  0  0  0  0  0  0  0
    9.5212   -4.6182    0.3982 H   0  0  0  0  0  0  0  0  0  0  0  0
   10.2892   -3.6081   -1.7334 H   0  0  0  0  0  0  0  0  0  0  0  0
    8.6944   -2.5269   -3.2434 H   0  0  0  0  0  0  0  0  0  0  0  0
    6.9229   -2.9264   -4.7967 H   0  0  0  0  0  0  0  0  0  0  0  0
    3.5403   -0.7124   -5.5528 H   0  0  0  0  0  0  0  0  0  0  0  0
  1  2  1  0  0  0  0
  1 19  1  0  0  0  0
  1 20  1  0  0  0  0
  2  3  2  0  0  0  0
  2  4  1  0  0  0  0
  4  5  2  0  0  0  0
  4 18  1  0  0  0  0
  5  6  1  0  0  0  0
  5 21  1  0  0  0  0
  6  7  1  0  0  0  0
  6 17  2  0  0  0  0
  7  8  1  0  0  0  0
  7 14  2  0  0  0  0
  8  9  1  0  0  0  0
  8 13  2  0  0  0  0
  9 10  2  0  0  0  0
  9 22  1  0  0  0  0
 10 11  1  0  0  0  0
 10 23  1  0  0  0  0
 11 12  2  0  0  0  0
 11 24  1  0  0  0  0
 12 13  1  0  0  0  0
 12 25  1  0  0  0  0
 13 26  1  0  0  0  0
 14 15  1  0  0  0  0
 14 27  1  0  0  0  0
 15 16  2  0  0  0  0
 16 17  1  0  0  0  0
 16 28  1  0  0  0  0
 17 18  1  0  0  0  0
M  END
$$$$
