CHEMBL2448133
 OpenBabel04072215363D

 64 69  0  0  1  0  0  0  0  0999 V2000
    3.0677    2.5856   -5.7190 C   0  0  0  0  0  0  0  0  0  0  0  0
    2.4537    1.5575   -4.7767 C   0  0  0  0  0  0  0  0  0  0  0  0
    2.7599    1.8352   -3.2971 C   0  0  1  0  0  0  0  0  0  0  0  0
    2.0499    0.8056   -2.4210 C   0  0  0  0  0  0  0  0  0  0  0  0
    4.1707    1.7464   -3.1163 O   0  0  0  0  0  0  0  0  0  0  0  0
    4.6170    2.1141   -1.8146 C   0  0  0  0  0  0  0  0  0  0  0  0
    6.1113    2.0314   -1.8507 C   0  0  0  0  0  0  0  0  0  0  0  0
    6.7821    0.9806   -1.2226 C   0  0  0  0  0  0  0  0  0  0  0  0
    8.1481    0.7791   -1.4017 C   0  0  0  0  0  0  0  0  0  0  0  0
    8.8381    1.6480   -2.2547 C   0  0  0  0  0  0  0  0  0  0  0  0
    8.1814    2.7631   -2.8215 C   0  0  0  0  0  0  0  0  0  0  0  0
    6.8192    2.9679   -2.6063 C   0  0  0  0  0  0  0  0  0  0  0  0
    9.2080    3.4082   -3.4448 C   0  0  0  0  0  0  0  0  0  0  0  0
    9.2859    4.7819   -3.7620 C   0  0  0  0  0  0  0  0  0  0  0  0
   10.6451    5.3072   -3.8361 C   0  0  0  0  0  0  0  0  0  0  0  0
   11.7365    4.4467   -3.8518 C   0  0  0  0  0  0  0  0  0  0  0  0
   11.3350    3.1964   -4.3833 C   0  0  0  0  0  0  0  0  0  0  0  0
   10.3002    2.6335   -3.6755 C   0  0  0  0  0  0  0  0  0  0  0  0
   10.1991    1.7039   -2.6257 N   0  0  0  0  0  0  0  0  0  0  0  0
   11.2878    1.4546   -1.6665 C   0  0  0  0  0  0  0  0  0  0  0  0
   11.3260    0.1599   -0.8503 C   0  0  0  0  0  0  0  0  0  0  0  0
   12.5317    0.1022    0.0920 C   0  0  0  0  0  0  0  0  0  0  0  0
   12.5321   -1.1395    0.7886 O   0  0  0  0  0  0  0  0  0  0  0  0
   12.4836    2.6363   -5.1168 C   0  0  0  0  0  0  0  0  0  0  0  0
   13.5158    2.9385   -4.0752 C   0  0  0  0  0  0  0  0  0  0  0  0
   14.4029    1.9432   -3.6837 C   0  0  0  0  0  0  0  0  0  0  0  0
   14.8273    1.9758   -2.3726 C   0  0  0  0  0  0  0  0  0  0  0  0
   14.4099    3.0286   -1.5291 C   0  0  0  0  0  0  0  0  0  0  0  0
   13.5396    4.0799   -1.9698 C   0  0  0  0  0  0  0  0  0  0  0  0
   13.0465    4.0506   -3.2744 C   0  0  0  0  0  0  0  0  0  0  0  0
   10.5308    6.5044   -4.6405 C   0  0  0  0  0  0  0  0  0  0  0  0
   11.3818    7.2482   -5.1264 O   0  0  0  0  0  0  0  0  0  0  0  0
    9.1776    6.5868   -5.0107 N   0  0  0  0  0  0  0  0  0  0  0  0
    8.2881    5.5615   -4.4757 C   0  0  0  0  0  0  0  0  0  0  0  0
    2.8178    2.3378   -6.7566 H   0  0  0  0  0  0  0  0  0  0  0  0
    4.1586    2.6095   -5.6355 H   0  0  0  0  0  0  0  0  0  0  0  0
    2.6820    3.5883   -5.5107 H   0  0  0  0  0  0  0  0  0  0  0  0
    2.8423    0.5700   -5.0558 H   0  0  0  0  0  0  0  0  0  0  0  0
    1.3689    1.5418   -4.9338 H   0  0  0  0  0  0  0  0  0  0  0  0
    2.4253    2.8481   -3.0415 H   0  0  0  0  0  0  0  0  0  0  0  0
    2.4831   -0.1900   -2.5676 H   0  0  0  0  0  0  0  0  0  0  0  0
    0.9781    0.7677   -2.6359 H   0  0  0  0  0  0  0  0  0  0  0  0
    2.1628    1.0466   -1.3598 H   0  0  0  0  0  0  0  0  0  0  0  0
    4.2387    1.4167   -1.0635 H   0  0  0  0  0  0  0  0  0  0  0  0
    4.2947    3.1283   -1.5610 H   0  0  0  0  0  0  0  0  0  0  0  0
    6.2349    0.2736   -0.6052 H   0  0  0  0  0  0  0  0  0  0  0  0
    8.6210   -0.0641   -0.9223 H   0  0  0  0  0  0  0  0  0  0  0  0
    6.2989    3.7775   -3.1061 H   0  0  0  0  0  0  0  0  0  0  0  0
   11.2862    2.3149   -0.9828 H   0  0  0  0  0  0  0  0  0  0  0  0
   12.1997    1.4733   -2.2488 H   0  0  0  0  0  0  0  0  0  0  0  0
   11.3339   -0.7047   -1.5187 H   0  0  0  0  0  0  0  0  0  0  0  0
   10.4506    0.0646   -0.2108 H   0  0  0  0  0  0  0  0  0  0  0  0
   12.5037    0.9074    0.8342 H   0  0  0  0  0  0  0  0  0  0  0  0
   13.4758    0.1712   -0.4524 H   0  0  0  0  0  0  0  0  0  0  0  0
   11.7391   -1.1686    1.3514 H   0  0  0  0  0  0  0  0  0  0  0  0
   12.6836    3.2735   -5.9938 H   0  0  0  0  0  0  0  0  0  0  0  0
   12.3525    1.6028   -5.4239 H   0  0  0  0  0  0  0  0  0  0  0  0
   14.5474    1.0684   -4.3118 H   0  0  0  0  0  0  0  0  0  0  0  0
   15.3567    1.1072   -1.9795 H   0  0  0  0  0  0  0  0  0  0  0  0
   14.6855    2.9506   -0.4772 H   0  0  0  0  0  0  0  0  0  0  0  0
   13.1436    4.7557   -1.2152 H   0  0  0  0  0  0  0  0  0  0  0  0
    8.9316    7.0594   -5.8750 H   0  0  0  0  0  0  0  0  0  0  0  0
    7.8421    4.9815   -5.2956 H   0  0  0  0  0  0  0  0  0  0  0  0
    7.5156    6.0101   -3.8468 H   0  0  0  0  0  0  0  0  0  0  0  0
  1  2  1  0  0  0  0
  1 35  1  0  0  0  0
  1 36  1  0  0  0  0
  1 37  1  0  0  0  0
  2  3  1  0  0  0  0
  2 38  1  0  0  0  0
  2 39  1  0  0  0  0
  3  4  1  0  0  0  0
  3  5  1  0  0  0  0
  3 40  1  1  0  0  0
  4 41  1  0  0  0  0
  4 42  1  0  0  0  0
  4 43  1  0  0  0  0
  5  6  1  0  0  0  0
  6  7  1  0  0  0  0
  6 44  1  0  0  0  0
  6 45  1  0  0  0  0
  7  8  1  0  0  0  0
  7 12  2  0  0  0  0
  8  9  2  0  0  0  0
  8 46  1  0  0  0  0
  9 10  1  0  0  0  0
  9 47  1  0  0  0  0
 10 11  2  0  0  0  0
 10 19  1  0  0  0  0
 11 12  1  0  0  0  0
 11 13  1  0  0  0  0
 12 48  1  0  0  0  0
 13 14  1  0  0  0  0
 13 18  2  0  0  0  0
 14 15  2  0  0  0  0
 14 34  1  0  0  0  0
 15 16  1  0  0  0  0
 15 31  1  0  0  0  0
 16 17  2  0  0  0  0
 16 30  1  0  0  0  0
 17 18  1  0  0  0  0
 17 24  1  0  0  0  0
 18 19  1  0  0  0  0
 19 20  1  0  0  0  0
 20 21  1  0  0  0  0
 20 49  1  0  0  0  0
 20 50  1  0  0  0  0
 21 22  1  0  0  0  0
 21 51  1  0  0  0  0
 21 52  1  0  0  0  0
 22 23  1  0  0  0  0
 22 53  1  0  0  0  0
 22 54  1  0  0  0  0
 23 55  1  0  0  0  0
 24 25  1  0  0  0  0
 24 56  1  0  0  0  0
 24 57  1  0  0  0  0
 25 26  1  0  0  0  0
 25 30  2  0  0  0  0
 26 27  2  0  0  0  0
 26 58  1  0  0  0  0
 27 28  1  0  0  0  0
 27 59  1  0  0  0  0
 28 29  2  0  0  0  0
 28 60  1  0  0  0  0
 29 30  1  0  0  0  0
 29 61  1  0  0  0  0
 31 32  2  0  0  0  0
 31 33  1  0  0  0  0
 33 34  1  0  0  0  0
 33 62  1  0  0  0  0
 34 63  1  0  0  0  0
 34 64  1  0  0  0  0
M  END
$$$$
