CHEMBL3933897
 OpenBabel04072215373D

 57 60  0  0  1  0  0  0  0  0999 V2000
   -0.1626    0.2393    2.9668 C   0  0  0  0  0  0  0  0  0  0  0  0
    0.5811   -1.0716    2.7692 C   0  0  0  0  0  0  0  0  0  0  0  0
    1.2189   -2.1960    2.5997 C   0  0  0  0  0  0  0  0  0  0  0  0
    1.9625   -3.5069    2.4021 C   0  0  0  0  0  0  0  0  0  0  0  0
    1.1390   -4.5401    1.7863 N   0  0  0  0  0  0  0  0  0  0  0  0
    1.8938   -5.8018    1.6370 C   0  0  0  0  0  0  0  0  0  0  0  0
    2.9130   -5.7797    0.4841 C   0  0  0  0  0  0  0  0  0  0  0  0
    2.3166   -5.4004   -0.7631 O   0  0  0  0  0  0  0  0  0  0  0  0
    1.6104   -4.1421   -0.6961 C   0  0  3  0  0  0  0  0  0  0  0  0
    2.5909   -2.9507   -0.6831 C   0  0  0  0  0  0  0  0  0  0  0  0
    3.0993   -2.6963   -2.0042 O   0  0  0  0  0  0  0  0  0  0  0  0
    2.5282   -1.6831   -2.7242 C   0  0  0  0  0  0  0  0  0  0  0  0
    1.3000   -1.1069   -2.3603 C   0  0  0  0  0  0  0  0  0  0  0  0
    0.6832   -0.1256   -3.1070 C   0  0  0  0  0  0  0  0  0  0  0  0
   -0.4484    0.4038   -2.6344 N   0  0  0  0  0  0  0  0  0  0  0  0
   -1.0370    1.3282   -3.3926 C   0  0  0  0  0  0  0  0  0  0  0  0
   -0.6363    1.7020   -4.6045 N   0  0  0  0  0  0  0  0  0  0  0  0
    0.4825    1.1294   -5.0886 C   0  0  0  0  0  0  0  0  0  0  0  0
    0.8596    1.3801   -6.4368 N   0  0  0  0  0  0  0  0  0  0  0  0
    0.1803    2.3344   -7.2318 C   0  0  0  0  0  0  0  0  0  0  0  0
    0.1406    3.6707   -6.8134 C   0  0  0  0  0  0  0  0  0  0  0  0
   -0.6346    4.6077   -7.4931 C   0  0  0  0  0  0  0  0  0  0  0  0
   -1.3764    4.2160   -8.6074 C   0  0  0  0  0  0  0  0  0  0  0  0
   -2.3643    5.4113   -9.3676 Cl  0  0  0  0  0  0  0  0  0  0  0  0
   -1.3197    2.8905   -9.0540 C   0  0  0  0  0  0  0  0  0  0  0  0
   -2.2176    2.3375  -10.4245 Cl  0  0  0  0  0  0  0  0  0  0  0  0
   -0.5389    1.9523   -8.3671 C   0  0  0  0  0  0  0  0  0  0  0  0
    1.2552    0.2408   -4.3195 C   0  0  0  0  0  0  0  0  0  0  0  0
    2.5014   -0.3087   -4.7006 C   0  0  0  0  0  0  0  0  0  0  0  0
    3.1504   -1.2579   -3.9041 C   0  0  0  0  0  0  0  0  0  0  0  0
    4.2669   -1.7833   -4.4943 O   0  0  0  0  0  0  0  0  0  0  0  0
    5.4269   -1.9875   -3.6989 C   0  0  0  0  0  0  0  0  0  0  0  0
    0.5936   -4.1710    0.4697 C   0  0  0  0  0  0  0  0  0  0  0  0
    0.5363    1.0224    3.2735 H   0  0  0  0  0  0  0  0  0  0  0  0
   -0.9269    0.1215    3.7400 H   0  0  0  0  0  0  0  0  0  0  0  0
   -0.6450    0.5389    2.0322 H   0  0  0  0  0  0  0  0  0  0  0  0
    2.2486   -3.8425    3.4081 H   0  0  0  0  0  0  0  0  0  0  0  0
    2.9011   -3.3084    1.8840 H   0  0  0  0  0  0  0  0  0  0  0  0
    1.1680   -6.6023    1.4451 H   0  0  0  0  0  0  0  0  0  0  0  0
    2.3948   -6.0680    2.5761 H   0  0  0  0  0  0  0  0  0  0  0  0
    3.3310   -6.7821    0.3495 H   0  0  0  0  0  0  0  0  0  0  0  0
    3.7544   -5.1187    0.7106 H   0  0  0  0  0  0  0  0  0  0  0  0
    1.0252   -4.0910   -1.6219 H   0  0  0  0  0  0  0  0  0  0  0  0
    3.4840   -3.1735   -0.0980 H   0  0  0  0  0  0  0  0  0  0  0  0
    2.1639   -2.0541   -0.2212 H   0  0  0  0  0  0  0  0  0  0  0  0
    0.7459   -1.4366   -1.4887 H   0  0  0  0  0  0  0  0  0  0  0  0
   -1.9176    1.8158   -2.9878 H   0  0  0  0  0  0  0  0  0  0  0  0
    0.9338    0.4848   -6.9114 H   0  0  0  0  0  0  0  0  0  0  0  0
    0.6876    3.9707   -5.9217 H   0  0  0  0  0  0  0  0  0  0  0  0
   -0.6740    5.6287   -7.1250 H   0  0  0  0  0  0  0  0  0  0  0  0
   -0.5325    0.9153   -8.6997 H   0  0  0  0  0  0  0  0  0  0  0  0
    2.9797    0.0137   -5.6242 H   0  0  0  0  0  0  0  0  0  0  0  0
    6.1156   -2.5976   -4.2960 H   0  0  0  0  0  0  0  0  0  0  0  0
    5.2486   -2.5303   -2.7719 H   0  0  0  0  0  0  0  0  0  0  0  0
    5.9303   -1.0364   -3.4965 H   0  0  0  0  0  0  0  0  0  0  0  0
   -0.1565   -4.9389    0.2307 H   0  0  0  0  0  0  0  0  0  0  0  0
    0.0225   -3.2368    0.5178 H   0  0  0  0  0  0  0  0  0  0  0  0
  1  2  1  0  0  0  0
  1 34  1  0  0  0  0
  1 35  1  0  0  0  0
  1 36  1  0  0  0  0
  2  3  3  0  0  0  0
  3  4  1  0  0  0  0
  4  5  1  0  0  0  0
  4 37  1  0  0  0  0
  4 38  1  0  0  0  0
  5  6  1  0  0  0  0
  5 33  1  0  0  0  0
  6  7  1  0  0  0  0
  6 39  1  0  0  0  0
  6 40  1  0  0  0  0
  7  8  1  0  0  0  0
  7 41  1  0  0  0  0
  7 42  1  0  0  0  0
  8  9  1  0  0  0  0
  9 10  1  0  0  0  0
  9 33  1  0  0  0  0
  9 43  1  0  0  0  0
 10 11  1  0  0  0  0
 10 44  1  0  0  0  0
 10 45  1  0  0  0  0
 11 12  1  0  0  0  0
 12 13  1  0  0  0  0
 12 30  2  0  0  0  0
 13 14  2  0  0  0  0
 13 46  1  0  0  0  0
 14 15  1  0  0  0  0
 14 28  1  0  0  0  0
 15 16  2  0  0  0  0
 16 17  1  0  0  0  0
 16 47  1  0  0  0  0
 17 18  2  0  0  0  0
 18 19  1  0  0  0  0
 18 28  1  0  0  0  0
 19 20  1  0  0  0  0
 19 48  1  0  0  0  0
 20 21  1  0  0  0  0
 20 27  2  0  0  0  0
 21 22  2  0  0  0  0
 21 49  1  0  0  0  0
 22 23  1  0  0  0  0
 22 50  1  0  0  0  0
 23 24  1  0  0  0  0
 23 25  2  0  0  0  0
 25 26  1  0  0  0  0
 25 27  1  0  0  0  0
 27 51  1  0  0  0  0
 28 29  2  0  0  0  0
 29 30  1  0  0  0  0
 29 52  1  0  0  0  0
 30 31  1  0  0  0  0
 31 32  1  0  0  0  0
 32 53  1  0  0  0  0
 32 54  1  0  0  0  0
 32 55  1  0  0  0  0
 33 56  1  0  0  0  0
 33 57  1  0  0  0  0
M  END
$$$$
