CHEMBL3909318
 OpenBabel04072215373D

 68 72  0  0  0  0  0  0  0  0999 V2000
    2.9177    1.5239    2.4762 C   0  0  0  0  0  0  0  0  0  0  0  0
    3.5745    0.9452    1.3521 O   0  0  0  0  0  0  0  0  0  0  0  0
    3.7045    1.7961    0.2859 C   0  0  0  0  0  0  0  0  0  0  0  0
    2.6921    2.6465   -0.1475 C   0  0  0  0  0  0  0  0  0  0  0  0
    2.8924    3.4566   -1.2648 C   0  0  0  0  0  0  0  0  0  0  0  0
    1.9500    4.3339   -1.7609 O   0  0  0  0  0  0  0  0  0  0  0  0
    0.7511    4.4742   -0.9724 C   0  0  0  0  0  0  0  0  0  0  0  0
   -0.1552    5.5528   -1.5631 C   0  0  0  0  0  0  0  0  0  0  0  0
   -0.6205    5.1689   -2.8557 O   0  0  0  0  0  0  0  0  0  0  0  0
    4.1197    3.3747   -1.9565 C   0  0  0  0  0  0  0  0  0  0  0  0
    5.1543    2.4995   -1.5489 C   0  0  0  0  0  0  0  0  0  0  0  0
    6.3182    2.3650   -2.3250 N   0  0  0  0  0  0  0  0  0  0  0  0
    6.9048    0.9990   -2.6098 C   0  0  0  0  0  0  0  0  0  0  0  0
    6.1688   -0.3322   -2.4164 C   0  0  0  0  0  0  0  0  0  0  0  0
    5.0895   -0.7790   -3.4192 C   0  0  0  0  0  0  0  0  0  0  0  0
    4.5368   -2.0900   -3.0030 N   0  0  0  0  0  0  0  0  0  0  0  0
    5.4826   -3.2145   -3.0143 C   0  0  0  0  0  0  0  0  0  0  0  0
    5.1579   -4.0144   -4.2566 C   0  0  0  0  0  0  0  0  0  0  0  0
    3.6524   -3.9110   -4.3190 C   0  0  0  0  0  0  0  0  0  0  0  0
    3.3548   -2.5159   -3.7721 C   0  0  0  0  0  0  0  0  0  0  0  0
    7.3983    3.3300   -2.5028 C   0  0  0  0  0  0  0  0  0  0  0  0
    7.9882    3.3279   -3.7665 C   0  0  0  0  0  0  0  0  0  0  0  0
    9.3122    3.6943   -3.9294 C   0  0  0  0  0  0  0  0  0  0  0  0
   10.0315    4.2337   -2.8881 C   0  0  0  0  0  0  0  0  0  0  0  0
   11.3332    4.3528   -3.1551 N   0  0  0  0  0  0  0  0  0  0  0  0
   12.0596    5.0452   -2.2727 C   0  0  0  0  0  0  0  0  0  0  0  0
   11.4965    5.6887   -1.1883 C   0  0  0  0  0  0  0  0  0  0  0  0
   12.3245    6.7636   -0.6202 C   0  0  0  0  0  0  0  0  0  0  0  0
   12.2760    8.1546   -0.8902 C   0  0  0  0  0  0  0  0  0  0  0  0
   13.3878    8.8010   -0.5207 N   0  0  0  0  0  0  0  0  0  0  0  0
   14.1844    7.8273   -0.0554 N   0  0  0  0  0  0  0  0  0  0  0  0
   13.6190    6.5849   -0.1495 C   0  0  0  0  0  0  0  0  0  0  0  0
   10.1765    5.4548   -0.8436 N   0  0  0  0  0  0  0  0  0  0  0  0
    9.4102    4.6311   -1.6846 C   0  0  0  0  0  0  0  0  0  0  0  0
    8.0700    4.0842   -1.4927 C   0  0  0  0  0  0  0  0  0  0  0  0
    4.9146    1.7278   -0.4082 C   0  0  0  0  0  0  0  0  0  0  0  0
    3.0721    0.8595    3.3309 H   0  0  0  0  0  0  0  0  0  0  0  0
    1.8386    1.6046    2.3115 H   0  0  0  0  0  0  0  0  0  0  0  0
    3.3488    2.5002    2.7236 H   0  0  0  0  0  0  0  0  0  0  0  0
    1.7483    2.6453    0.3814 H   0  0  0  0  0  0  0  0  0  0  0  0
    1.0096    4.7724    0.0505 H   0  0  0  0  0  0  0  0  0  0  0  0
    0.2048    3.5231   -0.9754 H   0  0  0  0  0  0  0  0  0  0  0  0
    0.3708    6.5075   -1.6586 H   0  0  0  0  0  0  0  0  0  0  0  0
   -1.0310    5.6993   -0.9216 H   0  0  0  0  0  0  0  0  0  0  0  0
    0.1747    4.9394   -3.3692 H   0  0  0  0  0  0  0  0  0  0  0  0
    4.2509    3.9666   -2.8600 H   0  0  0  0  0  0  0  0  0  0  0  0
    7.8046    0.9155   -1.9813 H   0  0  0  0  0  0  0  0  0  0  0  0
    7.2512    0.9701   -3.6514 H   0  0  0  0  0  0  0  0  0  0  0  0
    5.8015   -0.4637   -1.4006 H   0  0  0  0  0  0  0  0  0  0  0  0
    6.9848   -1.0612   -2.5060 H   0  0  0  0  0  0  0  0  0  0  0  0
    5.4978   -0.8403   -4.4365 H   0  0  0  0  0  0  0  0  0  0  0  0
    4.2858   -0.0335   -3.4298 H   0  0  0  0  0  0  0  0  0  0  0  0
    5.2862   -3.8247   -2.1232 H   0  0  0  0  0  0  0  0  0  0  0  0
    6.5419   -2.9535   -2.9871 H   0  0  0  0  0  0  0  0  0  0  0  0
    5.5045   -5.0503   -4.1876 H   0  0  0  0  0  0  0  0  0  0  0  0
    5.6117   -3.5537   -5.1415 H   0  0  0  0  0  0  0  0  0  0  0  0
    3.2037   -4.6775   -3.6743 H   0  0  0  0  0  0  0  0  0  0  0  0
    3.2738   -4.0585   -5.3346 H   0  0  0  0  0  0  0  0  0  0  0  0
    2.4810   -2.5598   -3.1118 H   0  0  0  0  0  0  0  0  0  0  0  0
    3.1148   -1.8339   -4.5947 H   0  0  0  0  0  0  0  0  0  0  0  0
    7.4619    2.8960   -4.6144 H   0  0  0  0  0  0  0  0  0  0  0  0
    9.7960    3.5211   -4.8744 H   0  0  0  0  0  0  0  0  0  0  0  0
   13.1107    5.1413   -2.5213 H   0  0  0  0  0  0  0  0  0  0  0  0
   11.5101    8.7086   -1.4146 H   0  0  0  0  0  0  0  0  0  0  0  0
   15.1226    8.0766    0.2486 H   0  0  0  0  0  0  0  0  0  0  0  0
   14.2067    5.7012    0.0581 H   0  0  0  0  0  0  0  0  0  0  0  0
    7.6078    4.2037   -0.5140 H   0  0  0  0  0  0  0  0  0  0  0  0
    5.6751    1.0535   -0.0291 H   0  0  0  0  0  0  0  0  0  0  0  0
  1  2  1  0  0  0  0
  1 37  1  0  0  0  0
  1 38  1  0  0  0  0
  1 39  1  0  0  0  0
  2  3  1  0  0  0  0
  3  4  1  0  0  0  0
  3 36  2  0  0  0  0
  4  5  2  0  0  0  0
  4 40  1  0  0  0  0
  5  6  1  0  0  0  0
  5 10  1  0  0  0  0
  6  7  1  0  0  0  0
  7  8  1  0  0  0  0
  7 41  1  0  0  0  0
  7 42  1  0  0  0  0
  8  9  1  0  0  0  0
  8 43  1  0  0  0  0
  8 44  1  0  0  0  0
  9 45  1  0  0  0  0
 10 11  2  0  0  0  0
 10 46  1  0  0  0  0
 11 12  1  0  0  0  0
 11 36  1  0  0  0  0
 12 13  1  0  0  0  0
 12 21  1  0  0  0  0
 13 14  1  0  0  0  0
 13 47  1  0  0  0  0
 13 48  1  0  0  0  0
 14 15  1  0  0  0  0
 14 49  1  0  0  0  0
 14 50  1  0  0  0  0
 15 16  1  0  0  0  0
 15 51  1  0  0  0  0
 15 52  1  0  0  0  0
 16 17  1  0  0  0  0
 16 20  1  0  0  0  0
 17 18  1  0  0  0  0
 17 53  1  0  0  0  0
 17 54  1  0  0  0  0
 18 19  1  0  0  0  0
 18 55  1  0  0  0  0
 18 56  1  0  0  0  0
 19 20  1  0  0  0  0
 19 57  1  0  0  0  0
 19 58  1  0  0  0  0
 20 59  1  0  0  0  0
 20 60  1  0  0  0  0
 21 22  1  0  0  0  0
 21 35  2  0  0  0  0
 22 23  2  0  0  0  0
 22 61  1  0  0  0  0
 23 24  1  0  0  0  0
 23 62  1  0  0  0  0
 24 25  1  0  0  0  0
 24 34  2  0  0  0  0
 25 26  2  0  0  0  0
 26 27  1  0  0  0  0
 26 63  1  0  0  0  0
 27 28  1  0  0  0  0
 27 33  2  0  0  0  0
 28 29  1  0  0  0  0
 28 32  2  0  0  0  0
 29 30  2  0  0  0  0
 29 64  1  0  0  0  0
 30 31  1  0  0  0  0
 31 32  1  0  0  0  0
 31 65  1  0  0  0  0
 32 66  1  0  0  0  0
 33 34  1  0  0  0  0
 34 35  1  0  0  0  0
 35 67  1  0  0  0  0
 36 68  1  0  0  0  0
M  END
$$$$
