CHEMBL491872
 OpenBabel04072215383D

 42 45  0  0  0  0  0  0  0  0999 V2000
   -0.1686    1.7103    3.8850 Cl  0  0  0  0  0  0  0  0  0  0  0  0
   -1.2239    0.7454    2.9178 C   0  0  0  0  0  0  0  0  0  0  0  0
   -2.5792    1.0894    2.9011 C   0  0  0  0  0  0  0  0  0  0  0  0
   -3.4868    0.3570    2.1266 C   0  0  0  0  0  0  0  0  0  0  0  0
   -3.0396   -0.7292    1.3652 C   0  0  0  0  0  0  0  0  0  0  0  0
   -3.9390   -1.4805    0.5683 N   0  0  0  0  0  0  0  0  0  0  0  0
   -5.2806   -1.2641    0.3425 C   0  0  0  0  0  0  0  0  0  0  0  0
   -5.6825   -2.3261   -0.4346 C   0  0  0  0  0  0  0  0  0  0  0  0
   -7.0081   -2.6103   -0.9692 C   0  0  0  0  0  0  0  0  0  0  0  0
   -7.0348   -3.2294   -2.2394 C   0  0  0  0  0  0  0  0  0  0  0  0
   -8.2315   -3.5973   -2.8482 C   0  0  0  0  0  0  0  0  0  0  0  0
   -9.4280   -3.3356   -2.2035 C   0  0  0  0  0  0  0  0  0  0  0  0
   -9.4240   -2.7113   -0.9538 C   0  0  0  0  0  0  0  0  0  0  0  0
   -8.2294   -2.3710   -0.2833 C   0  0  0  0  0  0  0  0  0  0  0  0
   -8.2821   -1.7096    0.9674 N   0  0  0  0  0  0  0  0  0  0  0  0
   -9.3852   -2.0433    1.8657 C   0  0  0  0  0  0  0  0  0  0  0  0
   -9.2420   -1.2719    3.1537 C   0  0  0  0  0  0  0  0  0  0  0  0
   -9.3963    0.1188    3.1697 C   0  0  0  0  0  0  0  0  0  0  0  0
   -9.2698    0.7879    4.3757 C   0  0  0  0  0  0  0  0  0  0  0  0
   -9.0028    0.1749    5.5482 N   0  0  0  0  0  0  0  0  0  0  0  0
   -8.8649   -1.1675    5.5143 C   0  0  0  0  0  0  0  0  0  0  0  0
   -8.9734   -1.9256    4.3592 C   0  0  0  0  0  0  0  0  0  0  0  0
   -4.5919   -3.1095   -0.7073 N   0  0  0  0  0  0  0  0  0  0  0  0
   -3.5372   -2.5840   -0.1012 N   0  0  0  0  0  0  0  0  0  0  0  0
   -1.6781   -1.0857    1.3985 C   0  0  0  0  0  0  0  0  0  0  0  0
   -0.7742   -0.3428    2.1672 C   0  0  0  0  0  0  0  0  0  0  0  0
    0.8860   -0.8210    2.1381 Cl  0  0  0  0  0  0  0  0  0  0  0  0
   -2.9395    1.9295    3.4894 H   0  0  0  0  0  0  0  0  0  0  0  0
   -4.5310    0.6584    2.1505 H   0  0  0  0  0  0  0  0  0  0  0  0
   -5.8111   -0.4081    0.7248 H   0  0  0  0  0  0  0  0  0  0  0  0
   -6.1036   -3.4323   -2.7677 H   0  0  0  0  0  0  0  0  0  0  0  0
   -8.2243   -4.0779   -3.8228 H   0  0  0  0  0  0  0  0  0  0  0  0
  -10.3708   -3.6082   -2.6703 H   0  0  0  0  0  0  0  0  0  0  0  0
  -10.3946   -2.5004   -0.5158 H   0  0  0  0  0  0  0  0  0  0  0  0
   -7.3999   -1.8041    1.4619 H   0  0  0  0  0  0  0  0  0  0  0  0
   -9.3798   -3.1213    2.0712 H   0  0  0  0  0  0  0  0  0  0  0  0
  -10.3621   -1.7837    1.4423 H   0  0  0  0  0  0  0  0  0  0  0  0
   -9.6148    0.6680    2.2589 H   0  0  0  0  0  0  0  0  0  0  0  0
   -9.3858    1.8665    4.4328 H   0  0  0  0  0  0  0  0  0  0  0  0
   -8.6609   -1.6358    6.4731 H   0  0  0  0  0  0  0  0  0  0  0  0
   -8.8589   -3.0035    4.4075 H   0  0  0  0  0  0  0  0  0  0  0  0
   -1.3104   -1.9311    0.8216 H   0  0  0  0  0  0  0  0  0  0  0  0
  1  2  1  0  0  0  0
  2  3  1  0  0  0  0
  2 26  2  0  0  0  0
  3  4  2  0  0  0  0
  3 28  1  0  0  0  0
  4  5  1  0  0  0  0
  4 29  1  0  0  0  0
  5  6  1  0  0  0  0
  5 25  2  0  0  0  0
  6  7  1  0  0  0  0
  6 24  1  0  0  0  0
  7  8  2  0  0  0  0
  7 30  1  0  0  0  0
  8  9  1  0  0  0  0
  8 23  1  0  0  0  0
  9 10  1  0  0  0  0
  9 14  2  0  0  0  0
 10 11  2  0  0  0  0
 10 31  1  0  0  0  0
 11 12  1  0  0  0  0
 11 32  1  0  0  0  0
 12 13  2  0  0  0  0
 12 33  1  0  0  0  0
 13 14  1  0  0  0  0
 13 34  1  0  0  0  0
 14 15  1  0  0  0  0
 15 16  1  0  0  0  0
 15 35  1  0  0  0  0
 16 17  1  0  0  0  0
 16 36  1  0  0  0  0
 16 37  1  0  0  0  0
 17 18  1  0  0  0  0
 17 22  2  0  0  0  0
 18 19  2  0  0  0  0
 18 38  1  0  0  0  0
 19 20  1  0  0  0  0
 19 39  1  0  0  0  0
 20 21  2  0  0  0  0
 21 22  1  0  0  0  0
 21 40  1  0  0  0  0
 22 41  1  0  0  0  0
 23 24  2  0  0  0  0
 25 26  1  0  0  0  0
 25 42  1  0  0  0  0
 26 27  1  0  0  0  0
M  END
$$$$
