CHEMBL3971428
 OpenBabel04072215373D

 65 69  0  0  0  0  0  0  0  0999 V2000
    9.1743    2.3274    0.8995 C   0  0  0  0  0  0  0  0  0  0  0  0
    8.2533    1.2776    1.3064 N   0  0  0  0  0  0  0  0  0  0  0  0
    6.9050    1.4946    0.7322 C   0  0  0  0  0  0  0  0  0  0  0  0
    6.3103    1.1187    2.1152 C   0  0  0  0  0  0  0  0  0  0  0  0
    5.9657   -0.2648    2.3605 O   0  0  0  0  0  0  0  0  0  0  0  0
    4.9697   -0.8224    1.6049 C   0  0  0  0  0  0  0  0  0  0  0  0
    5.1150   -2.1813    1.3368 C   0  0  0  0  0  0  0  0  0  0  0  0
    4.1327   -2.8615    0.6303 C   0  0  0  0  0  0  0  0  0  0  0  0
    4.1996   -4.2318    0.3463 N   0  0  0  0  0  0  0  0  0  0  0  0
    5.2631   -5.0927    0.4984 C   0  0  0  0  0  0  0  0  0  0  0  0
    6.3939   -4.7907    0.8698 O   0  0  0  0  0  0  0  0  0  0  0  0
    4.9771   -6.4289    0.2957 N   0  0  0  0  0  0  0  0  0  0  0  0
    3.7638   -6.9644   -0.1554 C   0  0  0  0  0  0  0  0  0  0  0  0
    3.1374   -6.4452   -1.2921 C   0  0  0  0  0  0  0  0  0  0  0  0
    1.8390   -6.8286   -1.6087 C   0  0  0  0  0  0  0  0  0  0  0  0
    1.2015   -7.8177   -0.8548 C   0  0  0  0  0  0  0  0  0  0  0  0
   -0.0837   -8.2545   -1.1005 O   0  0  0  0  0  0  0  0  0  0  0  0
   -0.5220   -8.3669   -2.4054 C   0  0  0  0  0  0  0  0  0  0  0  0
    0.3184   -8.6497   -3.4769 C   0  0  0  0  0  0  0  0  0  0  0  0
   -0.2368   -8.6841   -4.7343 C   0  0  0  0  0  0  0  0  0  0  0  0
   -1.5518   -8.5288   -4.9630 N   0  0  0  0  0  0  0  0  0  0  0  0
   -2.3784   -8.3309   -3.9235 C   0  0  0  0  0  0  0  0  0  0  0  0
   -3.7671   -8.2315   -4.1555 N   0  0  0  0  0  0  0  0  0  0  0  0
   -4.3321   -8.2945   -5.4141 C   0  0  0  0  0  0  0  0  0  0  0  0
   -3.7552   -8.3996   -6.4881 O   0  0  0  0  0  0  0  0  0  0  0  0
   -5.8242   -8.2082   -5.4847 C   0  0  0  0  0  0  0  0  0  0  0  0
   -6.5273   -6.9683   -4.9857 C   0  0  0  0  0  0  0  0  0  0  0  0
   -6.7958   -8.2980   -4.3399 C   0  0  0  0  0  0  0  0  0  0  0  0
   -1.8994   -8.2357   -2.6218 C   0  0  0  0  0  0  0  0  0  0  0  0
    1.8527   -8.3751    0.2499 C   0  0  0  0  0  0  0  0  0  0  0  0
    3.1454   -7.9650    0.5906 C   0  0  0  0  0  0  0  0  0  0  0  0
    2.9812   -2.1732    0.2132 C   0  0  0  0  0  0  0  0  0  0  0  0
    2.8286   -0.8033    0.4762 C   0  0  0  0  0  0  0  0  0  0  0  0
    1.5958   -0.0478    0.0525 C   0  0  0  0  0  0  0  0  0  0  0  0
    0.6617   -0.8228   -0.5646 F   0  0  0  0  0  0  0  0  0  0  0  0
    0.9594    0.5340    1.1074 F   0  0  0  0  0  0  0  0  0  0  0  0
    1.8772    0.9633   -0.8155 F   0  0  0  0  0  0  0  0  0  0  0  0
    3.8430   -0.1303    1.1713 C   0  0  0  0  0  0  0  0  0  0  0  0
    7.6989    1.5444    2.6542 C   0  0  0  0  0  0  0  0  0  0  0  0
    9.4662    2.1773   -0.1455 H   0  0  0  0  0  0  0  0  0  0  0  0
   10.0871    2.2748    1.5023 H   0  0  0  0  0  0  0  0  0  0  0  0
    8.7611    3.3380    0.9959 H   0  0  0  0  0  0  0  0  0  0  0  0
    6.6597    0.8278   -0.0997 H   0  0  0  0  0  0  0  0  0  0  0  0
    6.6650    2.5230    0.4312 H   0  0  0  0  0  0  0  0  0  0  0  0
    5.5117    1.7822    2.4678 H   0  0  0  0  0  0  0  0  0  0  0  0
    5.9951   -2.6898    1.7197 H   0  0  0  0  0  0  0  0  0  0  0  0
    3.3300   -4.6399    0.0472 H   0  0  0  0  0  0  0  0  0  0  0  0
    5.6158   -7.0229    0.8113 H   0  0  0  0  0  0  0  0  0  0  0  0
    3.6469   -5.7166   -1.9209 H   0  0  0  0  0  0  0  0  0  0  0  0
    1.3453   -6.3503   -2.4503 H   0  0  0  0  0  0  0  0  0  0  0  0
    1.3828   -8.8141   -3.3619 H   0  0  0  0  0  0  0  0  0  0  0  0
    0.3705   -8.8407   -5.6201 H   0  0  0  0  0  0  0  0  0  0  0  0
   -4.3622   -8.1006   -3.3601 H   0  0  0  0  0  0  0  0  0  0  0  0
   -6.1912   -8.6130   -6.4272 H   0  0  0  0  0  0  0  0  0  0  0  0
   -7.2831   -6.5399   -5.6358 H   0  0  0  0  0  0  0  0  0  0  0  0
   -5.9550   -6.2322   -4.4337 H   0  0  0  0  0  0  0  0  0  0  0  0
   -7.7532   -8.7698   -4.5462 H   0  0  0  0  0  0  0  0  0  0  0  0
   -6.4461   -8.4663   -3.3318 H   0  0  0  0  0  0  0  0  0  0  0  0
   -2.5623   -8.0643   -1.7811 H   0  0  0  0  0  0  0  0  0  0  0  0
    1.3440   -9.1128    0.8656 H   0  0  0  0  0  0  0  0  0  0  0  0
    3.6196   -8.3701    1.4813 H   0  0  0  0  0  0  0  0  0  0  0  0
    2.1961   -2.7003   -0.3281 H   0  0  0  0  0  0  0  0  0  0  0  0
    3.7204    0.9263    1.3904 H   0  0  0  0  0  0  0  0  0  0  0  0
    8.1076    0.9050    3.4428 H   0  0  0  0  0  0  0  0  0  0  0  0
    7.7299    2.5866    2.9957 H   0  0  0  0  0  0  0  0  0  0  0  0
  1  2  1  0  0  0  0
  1 40  1  0  0  0  0
  1 41  1  0  0  0  0
  1 42  1  0  0  0  0
  2  3  1  0  0  0  0
  2 39  1  0  0  0  0
  3  4  1  0  0  0  0
  3 43  1  0  0  0  0
  3 44  1  0  0  0  0
  4  5  1  0  0  0  0
  4 39  1  0  0  0  0
  4 45  1  0  0  0  0
  5  6  1  0  0  0  0
  6  7  1  0  0  0  0
  6 38  2  0  0  0  0
  7  8  2  0  0  0  0
  7 46  1  0  0  0  0
  8  9  1  0  0  0  0
  8 32  1  0  0  0  0
  9 10  1  0  0  0  0
  9 47  1  0  0  0  0
 10 11  2  0  0  0  0
 10 12  1  0  0  0  0
 12 13  1  0  0  0  0
 12 48  1  0  0  0  0
 13 14  1  0  0  0  0
 13 31  2  0  0  0  0
 14 15  2  0  0  0  0
 14 49  1  0  0  0  0
 15 16  1  0  0  0  0
 15 50  1  0  0  0  0
 16 17  1  0  0  0  0
 16 30  2  0  0  0  0
 17 18  1  0  0  0  0
 18 19  1  0  0  0  0
 18 29  2  0  0  0  0
 19 20  2  0  0  0  0
 19 51  1  0  0  0  0
 20 21  1  0  0  0  0
 20 52  1  0  0  0  0
 21 22  2  0  0  0  0
 22 23  1  0  0  0  0
 22 29  1  0  0  0  0
 23 24  1  0  0  0  0
 23 53  1  0  0  0  0
 24 25  2  0  0  0  0
 24 26  1  0  0  0  0
 26 27  1  0  0  0  0
 26 28  1  0  0  0  0
 26 54  1  0  0  0  0
 27 28  1  0  0  0  0
 27 55  1  0  0  0  0
 27 56  1  0  0  0  0
 28 57  1  0  0  0  0
 28 58  1  0  0  0  0
 29 59  1  0  0  0  0
 30 31  1  0  0  0  0
 30 60  1  0  0  0  0
 31 61  1  0  0  0  0
 32 33  2  0  0  0  0
 32 62  1  0  0  0  0
 33 34  1  0  0  0  0
 33 38  1  0  0  0  0
 34 35  1  0  0  0  0
 34 36  1  0  0  0  0
 34 37  1  0  0  0  0
 38 63  1  0  0  0  0
 39 64  1  0  0  0  0
 39 65  1  0  0  0  0
M  END
$$$$
