CHEMBL3967980
 OpenBabel04072215373D

 53 56  0  0  0  0  0  0  0  0999 V2000
    2.5785    0.2541   -0.6010 C   0  0  0  0  0  0  0  0  0  0  0  0
    1.1253    0.0873   -0.2476 C   0  0  0  0  0  0  0  0  0  0  0  0
    0.4008    1.2672   -0.0142 C   0  0  0  0  0  0  0  0  0  0  0  0
   -0.9779    1.2477    0.1610 C   0  0  0  0  0  0  0  0  0  0  0  0
   -1.6803    0.0476    0.0929 C   0  0  0  0  0  0  0  0  0  0  0  0
   -3.1142    0.0039    0.1384 N   0  0  0  0  0  0  0  0  0  0  0  0
   -3.9669    1.0926    0.2143 C   0  0  0  0  0  0  0  0  0  0  0  0
   -3.6482    2.2664    0.3521 O   0  0  0  0  0  0  0  0  0  0  0  0
   -5.4283    0.8157    0.1616 C   0  0  0  0  0  0  0  0  0  0  0  0
   -5.9833   -0.2418   -0.5652 C   0  0  0  0  0  0  0  0  0  0  0  0
   -7.3757   -0.3981   -0.6311 C   0  0  0  0  0  0  0  0  0  0  0  0
   -8.2288    0.4874    0.0402 C   0  0  0  0  0  0  0  0  0  0  0  0
   -7.7011    1.5539    0.7776 C   0  0  0  0  0  0  0  0  0  0  0  0
   -8.6008    2.5160    1.5163 C   0  0  0  0  0  0  0  0  0  0  0  0
   -9.9267    2.2243    1.3916 F   0  0  0  0  0  0  0  0  0  0  0  0
   -8.3516    2.5331    2.8551 F   0  0  0  0  0  0  0  0  0  0  0  0
   -8.4629    3.8020    1.0917 F   0  0  0  0  0  0  0  0  0  0  0  0
   -6.2952    1.7120    0.8367 C   0  0  0  0  0  0  0  0  0  0  0  0
   -0.9341   -1.1551   -0.0295 C   0  0  0  0  0  0  0  0  0  0  0  0
    0.4688   -1.1647   -0.1717 C   0  0  0  0  0  0  0  0  0  0  0  0
    1.2737   -2.3607   -0.2067 N   0  0  0  0  0  0  0  0  0  0  0  0
    0.8476   -3.6886   -0.1539 C   0  0  0  0  0  0  0  0  0  0  0  0
   -0.3147   -4.0632   -0.2464 O   0  0  0  0  0  0  0  0  0  0  0  0
    1.9036   -4.7214    0.1576 C   0  0  0  0  0  0  0  0  0  0  0  0
    1.5450   -5.7392    1.0546 C   0  0  0  0  0  0  0  0  0  0  0  0
    2.5187   -6.5709    1.6111 C   0  0  0  0  0  0  0  0  0  0  0  0
    3.8646   -6.2810    1.3994 C   0  0  0  0  0  0  0  0  0  0  0  0
    4.2218   -5.3229    0.4393 C   0  0  0  0  0  0  0  0  0  0  0  0
    5.5498   -5.0563    0.0652 C   0  0  0  0  0  0  0  0  0  0  0  0
    6.2194   -4.0178    0.7805 N   0  0  0  0  0  0  0  0  0  0  0  0
    5.8926   -5.0057   -1.2214 N   0  0  0  0  0  0  0  0  0  0  0  0
    4.8906   -4.7242   -2.0715 C   0  0  0  0  0  0  0  0  0  0  0  0
    3.6016   -4.3987   -1.6555 C   0  0  0  0  0  0  0  0  0  0  0  0
    3.2248   -4.7238   -0.3412 C   0  0  0  0  0  0  0  0  0  0  0  0
    2.7559    1.2508   -1.0268 H   0  0  0  0  0  0  0  0  0  0  0  0
    2.8737   -0.4581   -1.3772 H   0  0  0  0  0  0  0  0  0  0  0  0
    3.2117    0.1380    0.2812 H   0  0  0  0  0  0  0  0  0  0  0  0
    0.9023    2.2351   -0.0018 H   0  0  0  0  0  0  0  0  0  0  0  0
   -1.4693    2.2007    0.3261 H   0  0  0  0  0  0  0  0  0  0  0  0
   -3.5067   -0.9316    0.1201 H   0  0  0  0  0  0  0  0  0  0  0  0
   -5.3559   -0.9140   -1.1366 H   0  0  0  0  0  0  0  0  0  0  0  0
   -7.8031   -1.2087   -1.2182 H   0  0  0  0  0  0  0  0  0  0  0  0
   -9.3066    0.3407   -0.0252 H   0  0  0  0  0  0  0  0  0  0  0  0
   -5.8834    2.5612    1.3702 H   0  0  0  0  0  0  0  0  0  0  0  0
   -1.4783   -2.0957   -0.0007 H   0  0  0  0  0  0  0  0  0  0  0  0
    2.2705   -2.2063   -0.1145 H   0  0  0  0  0  0  0  0  0  0  0  0
    0.4991   -5.8985    1.3111 H   0  0  0  0  0  0  0  0  0  0  0  0
    2.2300   -7.4170    2.2313 H   0  0  0  0  0  0  0  0  0  0  0  0
    4.6315   -6.8834    1.8841 H   0  0  0  0  0  0  0  0  0  0  0  0
    5.7045   -3.1683    0.5351 H   0  0  0  0  0  0  0  0  0  0  0  0
    7.1148   -3.9167    0.3018 H   0  0  0  0  0  0  0  0  0  0  0  0
    5.1688   -4.7621   -3.1186 H   0  0  0  0  0  0  0  0  0  0  0  0
    2.8632   -4.1069   -2.3929 H   0  0  0  0  0  0  0  0  0  0  0  0
  1  2  1  0  0  0  0
  1 35  1  0  0  0  0
  1 36  1  0  0  0  0
  1 37  1  0  0  0  0
  2  3  1  0  0  0  0
  2 20  2  0  0  0  0
  3  4  2  0  0  0  0
  3 38  1  0  0  0  0
  4  5  1  0  0  0  0
  4 39  1  0  0  0  0
  5  6  1  0  0  0  0
  5 19  2  0  0  0  0
  6  7  1  0  0  0  0
  6 40  1  0  0  0  0
  7  8  2  0  0  0  0
  7  9  1  0  0  0  0
  9 10  1  0  0  0  0
  9 18  2  0  0  0  0
 10 11  2  0  0  0  0
 10 41  1  0  0  0  0
 11 12  1  0  0  0  0
 11 42  1  0  0  0  0
 12 13  2  0  0  0  0
 12 43  1  0  0  0  0
 13 14  1  0  0  0  0
 13 18  1  0  0  0  0
 14 15  1  0  0  0  0
 14 16  1  0  0  0  0
 14 17  1  0  0  0  0
 18 44  1  0  0  0  0
 19 20  1  0  0  0  0
 19 45  1  0  0  0  0
 20 21  1  0  0  0  0
 21 22  1  0  0  0  0
 21 46  1  0  0  0  0
 22 23  2  0  0  0  0
 22 24  1  0  0  0  0
 24 25  1  0  0  0  0
 24 34  2  0  0  0  0
 25 26  2  0  0  0  0
 25 47  1  0  0  0  0
 26 27  1  0  0  0  0
 26 48  1  0  0  0  0
 27 28  2  0  0  0  0
 27 49  1  0  0  0  0
 28 29  1  0  0  0  0
 28 34  1  0  0  0  0
 29 30  1  0  0  0  0
 29 31  2  0  0  0  0
 30 50  1  0  0  0  0
 30 51  1  0  0  0  0
 31 32  1  0  0  0  0
 32 33  2  0  0  0  0
 32 52  1  0  0  0  0
 33 34  1  0  0  0  0
 33 53  1  0  0  0  0
M  END
$$$$
