CHEMBL3953791
 OpenBabel04072215373D

 51 54  0  0  0  0  0  0  0  0999 V2000
    6.6404   -1.0582   -3.7639 C   0  0  0  0  0  0  0  0  0  0  0  0
    5.9166   -0.0748   -2.8839 C   0  0  0  0  0  0  0  0  0  0  0  0
    4.8799    0.4534   -3.2730 O   0  0  0  0  0  0  0  0  0  0  0  0
    6.5511    0.1283   -1.6680 N   0  0  0  0  0  0  0  0  0  0  0  0
    6.1013    0.9725   -0.6270 C   0  0  0  0  0  0  0  0  0  0  0  0
    4.8121    1.5020   -0.5950 C   0  0  0  0  0  0  0  0  0  0  0  0
    4.4323    2.3768    0.4171 C   0  0  0  0  0  0  0  0  0  0  0  0
    5.3361    2.7220    1.4155 C   0  0  0  0  0  0  0  0  0  0  0  0
    6.6335    2.1849    1.4500 C   0  0  0  0  0  0  0  0  0  0  0  0
    7.5370    2.4770    2.5033 N   0  0  0  0  0  0  0  0  0  0  0  0
    6.9155    2.8175    3.8017 C   0  0  0  0  0  0  0  0  0  0  0  0
    8.9014    2.8826    2.3881 C   0  0  0  0  0  0  0  0  0  0  0  0
    9.4751    3.2701    1.1585 C   0  0  0  0  0  0  0  0  0  0  0  0
   10.8427    3.6358    1.0313 C   0  0  0  0  0  0  0  0  0  0  0  0
   11.6037    3.7837    2.2057 C   0  0  0  0  0  0  0  0  0  0  0  0
   12.9475    4.0232    2.6585 C   0  0  0  0  0  0  0  0  0  0  0  0
   14.0213    3.0386    2.7660 C   0  0  0  0  0  0  0  0  0  0  0  0
   13.7881    1.7117    2.7937 C   0  0  0  0  0  0  0  0  0  0  0  0
   14.3180    0.8223    3.8634 C   0  0  0  0  0  0  0  0  0  0  0  0
   14.3299    1.2404    5.2111 C   0  0  0  0  0  0  0  0  0  0  0  0
   14.5467    0.3264    6.2504 C   0  0  0  0  0  0  0  0  0  0  0  0
   14.7630   -1.0165    5.9618 C   0  0  0  0  0  0  0  0  0  0  0  0
   14.7795   -1.4406    4.6348 C   0  0  0  0  0  0  0  0  0  0  0  0
   14.5475   -0.5300    3.5941 C   0  0  0  0  0  0  0  0  0  0  0  0
   12.8387    4.7747    3.7781 N   0  0  0  0  0  0  0  0  0  0  0  0
   11.7360    4.2400    4.3314 N   0  0  0  0  0  0  0  0  0  0  0  0
   10.9387    3.6167    3.4118 C   0  0  0  0  0  0  0  0  0  0  0  0
    9.7018    2.9958    3.5377 C   0  0  0  0  0  0  0  0  0  0  0  0
    6.9932    1.2897    0.4123 C   0  0  0  0  0  0  0  0  0  0  0  0
    6.2108   -1.0194   -4.7702 H   0  0  0  0  0  0  0  0  0  0  0  0
    6.5158   -2.0671   -3.3639 H   0  0  0  0  0  0  0  0  0  0  0  0
    7.7006   -0.8036   -3.8326 H   0  0  0  0  0  0  0  0  0  0  0  0
    7.4730   -0.2728   -1.5521 H   0  0  0  0  0  0  0  0  0  0  0  0
    4.0658    1.2516   -1.3427 H   0  0  0  0  0  0  0  0  0  0  0  0
    3.4277    2.7861    0.4263 H   0  0  0  0  0  0  0  0  0  0  0  0
    5.0142    3.4481    2.1600 H   0  0  0  0  0  0  0  0  0  0  0  0
    5.8690    2.5097    3.8864 H   0  0  0  0  0  0  0  0  0  0  0  0
    6.9693    3.8994    3.9800 H   0  0  0  0  0  0  0  0  0  0  0  0
    7.3989    2.2909    4.6323 H   0  0  0  0  0  0  0  0  0  0  0  0
    8.8504    3.3311    0.2681 H   0  0  0  0  0  0  0  0  0  0  0  0
   11.2427    3.9180    0.0610 H   0  0  0  0  0  0  0  0  0  0  0  0
   14.8719    3.4163    3.3487 H   0  0  0  0  0  0  0  0  0  0  0  0
   12.9239    1.2913    2.2877 H   0  0  0  0  0  0  0  0  0  0  0  0
   14.1068    2.2710    5.4753 H   0  0  0  0  0  0  0  0  0  0  0  0
   14.5109    0.6594    7.2854 H   0  0  0  0  0  0  0  0  0  0  0  0
   14.8975   -1.7336    6.7680 H   0  0  0  0  0  0  0  0  0  0  0  0
   14.9335   -2.4934    4.4080 H   0  0  0  0  0  0  0  0  0  0  0  0
   14.5170   -0.8959    2.5717 H   0  0  0  0  0  0  0  0  0  0  0  0
   11.5440    4.4183    5.3086 H   0  0  0  0  0  0  0  0  0  0  0  0
    9.3620    2.7029    4.5217 H   0  0  0  0  0  0  0  0  0  0  0  0
    7.9850    0.8496    0.4308 H   0  0  0  0  0  0  0  0  0  0  0  0
  1  2  1  0  0  0  0
  1 30  1  0  0  0  0
  1 31  1  0  0  0  0
  1 32  1  0  0  0  0
  2  3  2  0  0  0  0
  2  4  1  0  0  0  0
  4  5  1  0  0  0  0
  4 33  1  0  0  0  0
  5  6  1  0  0  0  0
  5 29  2  0  0  0  0
  6  7  2  0  0  0  0
  6 34  1  0  0  0  0
  7  8  1  0  0  0  0
  7 35  1  0  0  0  0
  8  9  2  0  0  0  0
  8 36  1  0  0  0  0
  9 10  1  0  0  0  0
  9 29  1  0  0  0  0
 10 11  1  0  0  0  0
 10 12  1  0  0  0  0
 11 37  1  0  0  0  0
 11 38  1  0  0  0  0
 11 39  1  0  0  0  0
 12 13  1  0  0  0  0
 12 28  2  0  0  0  0
 13 14  2  0  0  0  0
 13 40  1  0  0  0  0
 14 15  1  0  0  0  0
 14 41  1  0  0  0  0
 15 16  1  0  0  0  0
 15 27  2  0  0  0  0
 16 17  1  0  0  0  0
 16 25  2  0  0  0  0
 17 18  2  0  0  0  0
 17 42  1  0  0  0  0
 18 19  1  0  0  0  0
 18 43  1  0  0  0  0
 19 20  1  0  0  0  0
 19 24  2  0  0  0  0
 20 21  2  0  0  0  0
 20 44  1  0  0  0  0
 21 22  1  0  0  0  0
 21 45  1  0  0  0  0
 22 23  2  0  0  0  0
 22 46  1  0  0  0  0
 23 24  1  0  0  0  0
 23 47  1  0  0  0  0
 24 48  1  0  0  0  0
 25 26  1  0  0  0  0
 26 27  1  0  0  0  0
 26 49  1  0  0  0  0
 27 28  1  0  0  0  0
 28 50  1  0  0  0  0
 29 51  1  0  0  0  0
M  END
$$$$
