CHEMBL211307
 OpenBabel04072215363D

 69 74  0  0  0  0  0  0  0  0999 V2000
  -15.5225   -1.8079    4.1489 C   0  0  0  0  0  0  0  0  0  0  0  0
  -14.5706   -2.8200    4.7150 C   0  0  0  0  0  0  0  0  0  0  0  0
  -14.7920   -3.3447    5.9889 C   0  0  0  0  0  0  0  0  0  0  0  0
  -13.9141   -4.2892    6.5167 C   0  0  0  0  0  0  0  0  0  0  0  0
  -12.8113   -4.7217    5.7769 C   0  0  0  0  0  0  0  0  0  0  0  0
  -12.5706   -4.2241    4.4943 C   0  0  0  0  0  0  0  0  0  0  0  0
  -11.4812   -4.6364    3.6800 N   0  0  0  0  0  0  0  0  0  0  0  0
  -10.5133   -5.5618    4.0046 C   0  0  0  0  0  0  0  0  0  0  0  0
  -10.4558   -6.1931    5.0466 O   0  0  0  0  0  0  0  0  0  0  0  0
   -9.5555   -5.7536    3.0103 N   0  0  0  0  0  0  0  0  0  0  0  0
   -8.4674   -6.6494    3.3848 C   0  0  0  0  0  0  0  0  0  0  0  0
   -7.3985   -6.8585    2.3383 C   0  0  0  0  0  0  0  0  0  0  0  0
   -7.2032   -7.9403    1.4875 C   0  0  0  0  0  0  0  0  0  0  0  0
   -5.8662   -8.0046    0.9546 C   0  0  0  0  0  0  0  0  0  0  0  0
   -5.3548   -9.0776    0.0456 C   0  0  0  0  0  0  0  0  0  0  0  0
   -4.0626   -9.4306   -0.0391 N   0  0  0  0  0  0  0  0  0  0  0  0
   -3.8954   -9.8243   -1.3416 N   0  0  0  0  0  0  0  0  0  0  0  0
   -5.0311   -9.6890   -2.1086 C   0  0  0  0  0  0  0  0  0  0  0  0
   -6.0316   -9.4202   -1.1540 C   0  0  0  0  0  0  0  0  0  0  0  0
   -7.1853   -8.7233   -1.7698 C   0  0  0  0  0  0  0  0  0  0  0  0
   -6.2492   -7.9304   -2.6556 C   0  0  0  0  0  0  0  0  0  0  0  0
   -5.8071   -6.6466   -2.3558 C   0  0  0  0  0  0  0  0  0  0  0  0
   -4.7542   -6.1103   -3.0744 C   0  0  0  0  0  0  0  0  0  0  0  0
   -4.3322   -6.8042   -4.2114 C   0  0  0  0  0  0  0  0  0  0  0  0
   -4.1553   -5.9437   -5.4586 C   0  0  0  0  0  0  0  0  0  0  0  0
   -5.3725   -5.9341   -6.3078 N   0  0  0  0  0  0  0  0  0  0  0  0
   -6.6274   -5.6241   -5.5867 C   0  0  0  0  0  0  0  0  0  0  0  0
   -7.8523   -5.7849   -6.5088 C   0  0  0  0  0  0  0  0  0  0  0  0
   -7.8335   -4.9149   -7.6945 N   0  0  0  0  0  0  0  0  0  0  0  0
   -8.1631   -3.5367   -7.3480 C   0  0  0  0  0  0  0  0  0  0  0  0
   -6.5151   -5.0306   -8.3556 C   0  0  0  0  0  0  0  0  0  0  0  0
   -5.2685   -4.9716   -7.4235 C   0  0  0  0  0  0  0  0  0  0  0  0
   -4.4458   -8.2111   -4.2161 C   0  0  0  0  0  0  0  0  0  0  0  0
   -5.2938   -8.7778   -3.2725 C   0  0  0  0  0  0  0  0  0  0  0  0
   -5.1552   -6.8694    1.2934 C   0  0  0  0  0  0  0  0  0  0  0  0
   -6.0590   -5.7854    2.2652 S   0  0  0  0  0  0  0  0  0  0  0  0
  -13.4570   -3.2611    3.9755 C   0  0  0  0  0  0  0  0  0  0  0  0
  -16.3349   -1.5814    4.8455 H   0  0  0  0  0  0  0  0  0  0  0  0
  -15.9685   -2.1898    3.2261 H   0  0  0  0  0  0  0  0  0  0  0  0
  -14.9945   -0.8747    3.9367 H   0  0  0  0  0  0  0  0  0  0  0  0
  -15.6484   -3.0332    6.5830 H   0  0  0  0  0  0  0  0  0  0  0  0
  -14.0879   -4.7070    7.5068 H   0  0  0  0  0  0  0  0  0  0  0  0
  -12.1621   -5.4606    6.2337 H   0  0  0  0  0  0  0  0  0  0  0  0
  -11.4247   -4.2301    2.7612 H   0  0  0  0  0  0  0  0  0  0  0  0
   -9.3246   -4.9609    2.4217 H   0  0  0  0  0  0  0  0  0  0  0  0
   -8.9133   -7.6236    3.6250 H   0  0  0  0  0  0  0  0  0  0  0  0
   -8.0315   -6.2823    4.3065 H   0  0  0  0  0  0  0  0  0  0  0  0
   -7.9539   -8.7069    1.3381 H   0  0  0  0  0  0  0  0  0  0  0  0
   -2.9595  -10.0559   -1.6453 H   0  0  0  0  0  0  0  0  0  0  0  0
   -7.8097   -8.0916   -1.1469 H   0  0  0  0  0  0  0  0  0  0  0  0
   -7.7981   -9.4125   -2.3644 H   0  0  0  0  0  0  0  0  0  0  0  0
   -6.2132   -6.1092   -1.5050 H   0  0  0  0  0  0  0  0  0  0  0  0
   -4.4056   -5.1052   -2.8651 H   0  0  0  0  0  0  0  0  0  0  0  0
   -3.2948   -6.3052   -6.0326 H   0  0  0  0  0  0  0  0  0  0  0  0
   -3.9142   -4.9159   -5.1469 H   0  0  0  0  0  0  0  0  0  0  0  0
   -6.5965   -4.6156   -5.1519 H   0  0  0  0  0  0  0  0  0  0  0  0
   -6.8079   -6.3240   -4.7753 H   0  0  0  0  0  0  0  0  0  0  0  0
   -8.7728   -5.6330   -5.9305 H   0  0  0  0  0  0  0  0  0  0  0  0
   -7.8935   -6.8298   -6.8465 H   0  0  0  0  0  0  0  0  0  0  0  0
   -9.1213   -3.4933   -6.8157 H   0  0  0  0  0  0  0  0  0  0  0  0
   -8.2909   -2.9411   -8.2577 H   0  0  0  0  0  0  0  0  0  0  0  0
   -7.4065   -3.0539   -6.7224 H   0  0  0  0  0  0  0  0  0  0  0  0
   -6.4244   -4.2742   -9.1441 H   0  0  0  0  0  0  0  0  0  0  0  0
   -6.4979   -5.9989   -8.8731 H   0  0  0  0  0  0  0  0  0  0  0  0
   -5.1506   -3.9479   -7.0411 H   0  0  0  0  0  0  0  0  0  0  0  0
   -4.3826   -5.1996   -8.0250 H   0  0  0  0  0  0  0  0  0  0  0  0
   -4.2121   -8.7757   -5.1212 H   0  0  0  0  0  0  0  0  0  0  0  0
   -4.1493   -6.6084    0.9928 H   0  0  0  0  0  0  0  0  0  0  0  0
  -13.2956   -2.8420    2.9844 H   0  0  0  0  0  0  0  0  0  0  0  0
  1  2  1  0  0  0  0
  1 38  1  0  0  0  0
  1 39  1  0  0  0  0
  1 40  1  0  0  0  0
  2  3  1  0  0  0  0
  2 37  2  0  0  0  0
  3  4  2  0  0  0  0
  3 41  1  0  0  0  0
  4  5  1  0  0  0  0
  4 42  1  0  0  0  0
  5  6  2  0  0  0  0
  5 43  1  0  0  0  0
  6  7  1  0  0  0  0
  6 37  1  0  0  0  0
  7  8  1  0  0  0  0
  7 44  1  0  0  0  0
  8  9  2  0  0  0  0
  8 10  1  0  0  0  0
 10 11  1  0  0  0  0
 10 45  1  0  0  0  0
 11 12  1  0  0  0  0
 11 46  1  0  0  0  0
 11 47  1  0  0  0  0
 12 13  2  0  0  0  0
 12 36  1  0  0  0  0
 13 14  1  0  0  0  0
 13 48  1  0  0  0  0
 14 15  1  0  0  0  0
 14 35  2  0  0  0  0
 15 16  2  0  0  0  0
 15 19  1  0  0  0  0
 16 17  1  0  0  0  0
 17 18  1  0  0  0  0
 17 49  1  0  0  0  0
 18 19  2  0  0  0  0
 18 34  1  0  0  0  0
 19 20  1  0  0  0  0
 20 21  1  0  0  0  0
 20 50  1  0  0  0  0
 20 51  1  0  0  0  0
 21 22  1  0  0  0  0
 21 34  2  0  0  0  0
 22 23  2  0  0  0  0
 22 52  1  0  0  0  0
 23 24  1  0  0  0  0
 23 53  1  0  0  0  0
 24 25  1  0  0  0  0
 24 33  2  0  0  0  0
 25 26  1  0  0  0  0
 25 54  1  0  0  0  0
 25 55  1  0  0  0  0
 26 27  1  0  0  0  0
 26 32  1  0  0  0  0
 27 28  1  0  0  0  0
 27 56  1  0  0  0  0
 27 57  1  0  0  0  0
 28 29  1  0  0  0  0
 28 58  1  0  0  0  0
 28 59  1  0  0  0  0
 29 30  1  0  0  0  0
 29 31  1  0  0  0  0
 30 60  1  0  0  0  0
 30 61  1  0  0  0  0
 30 62  1  0  0  0  0
 31 32  1  0  0  0  0
 31 63  1  0  0  0  0
 31 64  1  0  0  0  0
 32 65  1  0  0  0  0
 32 66  1  0  0  0  0
 33 34  1  0  0  0  0
 33 67  1  0  0  0  0
 35 36  1  0  0  0  0
 35 68  1  0  0  0  0
 37 69  1  0  0  0  0
M  END
$$$$
