CHEMBL2096839
 OpenBabel04072215363D

 69 74  0  0  0  0  0  0  0  0999 V2000
   -1.7383   -4.4881    6.9147 C   0  0  0  0  0  0  0  0  0  0  0  0
   -2.6453   -3.5980    6.1153 C   0  0  0  0  0  0  0  0  0  0  0  0
   -3.9310   -3.2995    6.5758 C   0  0  0  0  0  0  0  0  0  0  0  0
   -4.7771   -2.4584    5.8432 C   0  0  0  0  0  0  0  0  0  0  0  0
   -4.3652   -1.8902    4.6344 C   0  0  0  0  0  0  0  0  0  0  0  0
   -5.1727   -1.0186    3.8533 N   0  0  0  0  0  0  0  0  0  0  0  0
   -6.4201   -0.5304    4.1857 C   0  0  0  0  0  0  0  0  0  0  0  0
   -7.0196   -0.7446    5.2352 O   0  0  0  0  0  0  0  0  0  0  0  0
   -6.9830    0.2731    3.1951 N   0  0  0  0  0  0  0  0  0  0  0  0
   -8.3610    0.6729    3.4385 C   0  0  0  0  0  0  0  0  0  0  0  0
   -8.9676    1.5537    2.3787 C   0  0  0  0  0  0  0  0  0  0  0  0
   -8.7659    2.8997    2.1293 C   0  0  0  0  0  0  0  0  0  0  0  0
   -9.7080    3.4340    1.1865 C   0  0  0  0  0  0  0  0  0  0  0  0
  -10.6256    2.4943    0.7503 C   0  0  0  0  0  0  0  0  0  0  0  0
  -11.7223    2.7190   -0.2934 C   0  0  0  0  0  0  0  0  0  0  0  0
  -12.7587    1.8813   -0.4691 N   0  0  0  0  0  0  0  0  0  0  0  0
  -13.1331    2.0576   -1.7642 N   0  0  0  0  0  0  0  0  0  0  0  0
  -12.3417    2.9400   -2.4526 C   0  0  0  0  0  0  0  0  0  0  0  0
  -11.5798    3.5580   -1.4390 C   0  0  0  0  0  0  0  0  0  0  0  0
  -10.3253    4.1306   -1.9911 C   0  0  0  0  0  0  0  0  0  0  0  0
  -10.1629    2.9417   -2.9273 C   0  0  0  0  0  0  0  0  0  0  0  0
   -9.3323    1.8582   -2.6417 C   0  0  0  0  0  0  0  0  0  0  0  0
   -9.4755    0.6963   -3.3819 C   0  0  0  0  0  0  0  0  0  0  0  0
  -10.3029    0.7202   -4.5031 C   0  0  0  0  0  0  0  0  0  0  0  0
   -9.7661    0.0219   -5.7482 C   0  0  0  0  0  0  0  0  0  0  0  0
   -9.0801    0.9921   -6.6438 N   0  0  0  0  0  0  0  0  0  0  0  0
   -8.0763    1.8561   -5.9754 C   0  0  0  0  0  0  0  0  0  0  0  0
   -7.5192    2.9242   -6.9408 C   0  0  0  0  0  0  0  0  0  0  0  0
   -6.8665    2.3778   -8.1417 N   0  0  0  0  0  0  0  0  0  0  0  0
   -5.5395    1.8425   -7.8367 C   0  0  0  0  0  0  0  0  0  0  0  0
   -7.7509    1.3646   -8.7526 C   0  0  0  0  0  0  0  0  0  0  0  0
   -8.3979    0.3356   -7.7773 C   0  0  0  0  0  0  0  0  0  0  0  0
  -11.3981    1.6187   -4.5160 C   0  0  0  0  0  0  0  0  0  0  0  0
  -11.3870    2.6417   -3.5692 C   0  0  0  0  0  0  0  0  0  0  0  0
  -10.2773    0.9565    1.4289 S   0  0  0  0  0  0  0  0  0  0  0  0
   -3.0795   -2.1983    4.1695 C   0  0  0  0  0  0  0  0  0  0  0  0
   -2.2267   -3.0396    4.9028 C   0  0  0  0  0  0  0  0  0  0  0  0
   -2.2443   -4.8740    7.8071 H   0  0  0  0  0  0  0  0  0  0  0  0
   -0.8565   -3.9315    7.2463 H   0  0  0  0  0  0  0  0  0  0  0  0
   -1.4208   -5.3467    6.3157 H   0  0  0  0  0  0  0  0  0  0  0  0
   -4.2852   -3.7215    7.5137 H   0  0  0  0  0  0  0  0  0  0  0  0
   -5.7645   -2.2751    6.2537 H   0  0  0  0  0  0  0  0  0  0  0  0
   -4.7539   -0.6443    3.0143 H   0  0  0  0  0  0  0  0  0  0  0  0
   -6.7277    0.0540    2.2447 H   0  0  0  0  0  0  0  0  0  0  0  0
   -8.3896    1.2089    4.3946 H   0  0  0  0  0  0  0  0  0  0  0  0
   -8.9497   -0.2422    3.5598 H   0  0  0  0  0  0  0  0  0  0  0  0
   -8.0238    3.4964    2.6509 H   0  0  0  0  0  0  0  0  0  0  0  0
   -9.7276    4.4764    0.8946 H   0  0  0  0  0  0  0  0  0  0  0  0
  -13.8547    1.4488   -2.1314 H   0  0  0  0  0  0  0  0  0  0  0  0
   -9.4706    4.2613   -1.3370 H   0  0  0  0  0  0  0  0  0  0  0  0
  -10.5188    5.0416   -2.5683 H   0  0  0  0  0  0  0  0  0  0  0  0
   -8.6718    1.8763   -1.7796 H   0  0  0  0  0  0  0  0  0  0  0  0
   -8.8351   -0.1583   -3.1814 H   0  0  0  0  0  0  0  0  0  0  0  0
  -10.5739   -0.4746   -6.2818 H   0  0  0  0  0  0  0  0  0  0  0  0
   -9.0413   -0.7533   -5.4358 H   0  0  0  0  0  0  0  0  0  0  0  0
   -7.2556    1.2553   -5.5508 H   0  0  0  0  0  0  0  0  0  0  0  0
   -8.5122    2.4309   -5.1595 H   0  0  0  0  0  0  0  0  0  0  0  0
   -6.8353    3.5946   -6.4019 H   0  0  0  0  0  0  0  0  0  0  0  0
   -8.3522    3.5648   -7.2635 H   0  0  0  0  0  0  0  0  0  0  0  0
   -4.9304    2.6015   -7.3331 H   0  0  0  0  0  0  0  0  0  0  0  0
   -5.0207    1.5772   -8.7536 H   0  0  0  0  0  0  0  0  0  0  0  0
   -5.5784    0.9568   -7.1858 H   0  0  0  0  0  0  0  0  0  0  0  0
   -7.2255    0.8345   -9.5517 H   0  0  0  0  0  0  0  0  0  0  0  0
   -8.5714    1.9063   -9.2478 H   0  0  0  0  0  0  0  0  0  0  0  0
   -7.6192   -0.3484   -7.4109 H   0  0  0  0  0  0  0  0  0  0  0  0
   -9.1182   -0.2654   -8.3378 H   0  0  0  0  0  0  0  0  0  0  0  0
  -12.0428    1.6994   -5.3867 H   0  0  0  0  0  0  0  0  0  0  0  0
   -2.7139   -1.7891    3.2312 H   0  0  0  0  0  0  0  0  0  0  0  0
   -1.2295   -3.2549    4.5224 H   0  0  0  0  0  0  0  0  0  0  0  0
  1  2  1  0  0  0  0
  1 38  1  0  0  0  0
  1 39  1  0  0  0  0
  1 40  1  0  0  0  0
  2  3  1  0  0  0  0
  2 37  2  0  0  0  0
  3  4  2  0  0  0  0
  3 41  1  0  0  0  0
  4  5  1  0  0  0  0
  4 42  1  0  0  0  0
  5  6  1  0  0  0  0
  5 36  2  0  0  0  0
  6  7  1  0  0  0  0
  6 43  1  0  0  0  0
  7  8  2  0  0  0  0
  7  9  1  0  0  0  0
  9 10  1  0  0  0  0
  9 44  1  0  0  0  0
 10 11  1  0  0  0  0
 10 45  1  0  0  0  0
 10 46  1  0  0  0  0
 11 12  2  0  0  0  0
 11 35  1  0  0  0  0
 12 13  1  0  0  0  0
 12 47  1  0  0  0  0
 13 14  2  0  0  0  0
 13 48  1  0  0  0  0
 14 15  1  0  0  0  0
 14 35  1  0  0  0  0
 15 16  2  0  0  0  0
 15 19  1  0  0  0  0
 16 17  1  0  0  0  0
 17 18  1  0  0  0  0
 17 49  1  0  0  0  0
 18 19  2  0  0  0  0
 18 34  1  0  0  0  0
 19 20  1  0  0  0  0
 20 21  1  0  0  0  0
 20 50  1  0  0  0  0
 20 51  1  0  0  0  0
 21 22  1  0  0  0  0
 21 34  2  0  0  0  0
 22 23  2  0  0  0  0
 22 52  1  0  0  0  0
 23 24  1  0  0  0  0
 23 53  1  0  0  0  0
 24 25  1  0  0  0  0
 24 33  2  0  0  0  0
 25 26  1  0  0  0  0
 25 54  1  0  0  0  0
 25 55  1  0  0  0  0
 26 27  1  0  0  0  0
 26 32  1  0  0  0  0
 27 28  1  0  0  0  0
 27 56  1  0  0  0  0
 27 57  1  0  0  0  0
 28 29  1  0  0  0  0
 28 58  1  0  0  0  0
 28 59  1  0  0  0  0
 29 30  1  0  0  0  0
 29 31  1  0  0  0  0
 30 60  1  0  0  0  0
 30 61  1  0  0  0  0
 30 62  1  0  0  0  0
 31 32  1  0  0  0  0
 31 63  1  0  0  0  0
 31 64  1  0  0  0  0
 32 65  1  0  0  0  0
 32 66  1  0  0  0  0
 33 34  1  0  0  0  0
 33 67  1  0  0  0  0
 36 37  1  0  0  0  0
 36 68  1  0  0  0  0
 37 69  1  0  0  0  0
M  END
$$$$
