CHEMBL3977186
 OpenBabel04072215373D

 57 60  0  0  1  0  0  0  0  0999 V2000
    1.1948    1.6924   -2.5135 C   0  0  0  0  0  0  0  0  0  0  0  0
    1.7829    0.9945   -1.2815 C   0  0  1  0  0  0  0  0  0  0  0  0
    2.9134    0.1352   -1.6451 N   0  0  0  0  0  0  0  0  0  0  0  0
    2.6500   -0.9363   -2.4951 C   0  0  0  0  0  0  0  0  0  0  0  0
    1.4294   -1.5119   -2.5612 N   0  0  0  0  0  0  0  0  0  0  0  0
    1.2357   -2.5019   -3.4599 C   0  0  0  0  0  0  0  0  0  0  0  0
    2.1152   -3.0205   -4.3373 N   0  0  0  0  0  0  0  0  0  0  0  0
    3.3117   -2.4265   -4.2246 C   0  0  0  0  0  0  0  0  0  0  0  0
    4.4075   -2.7083   -4.9942 N   0  0  0  0  0  0  0  0  0  0  0  0
    5.4725   -1.9081   -4.6310 C   0  0  0  0  0  0  0  0  0  0  0  0
    6.7866   -1.9511   -5.2709 C   0  0  0  0  0  0  0  0  0  0  0  0
    7.5804   -0.7966   -5.3111 C   0  0  0  0  0  0  0  0  0  0  0  0
    8.8686   -0.8248   -5.8536 C   0  0  0  0  0  0  0  0  0  0  0  0
    9.3817   -2.0131   -6.3655 C   0  0  0  0  0  0  0  0  0  0  0  0
   10.6202   -2.1585   -6.9243 O   0  0  0  0  0  0  0  0  0  0  0  0
   11.6389   -1.2969   -6.4134 C   0  0  0  0  0  0  0  0  0  0  0  0
   12.9502   -1.6288   -7.1191 C   0  0  0  0  0  0  0  0  0  0  0  0
   12.8478   -1.4023   -8.6282 C   0  0  0  0  0  0  0  0  0  0  0  0
   14.1457   -1.7155   -9.3370 C   0  0  0  0  0  0  0  0  0  0  0  0
   15.1738   -2.0861   -8.7790 O   0  0  0  0  0  0  0  0  0  0  0  0
   14.0798   -1.5429  -10.6975 N   0  0  0  0  0  0  0  0  0  0  0  0
   15.2573   -1.8131  -11.4251 O   0  0  0  0  0  0  0  0  0  0  0  0
    8.5848   -3.1580   -6.3669 C   0  0  0  0  0  0  0  0  0  0  0  0
    7.2980   -3.1321   -5.8188 C   0  0  0  0  0  0  0  0  0  0  0  0
    5.0167   -1.1050   -3.5958 C   0  0  0  0  0  0  0  0  0  0  0  0
    3.6558   -1.4187   -3.3451 C   0  0  0  0  0  0  0  0  0  0  0  0
    2.3168    2.0336   -0.3006 C   0  0  0  0  0  0  0  0  0  0  0  0
    1.7533    2.1672    0.9758 C   0  0  0  0  0  0  0  0  0  0  0  0
    2.3011    3.0599    1.9003 C   0  0  0  0  0  0  0  0  0  0  0  0
    3.4110    3.8326    1.5597 C   0  0  0  0  0  0  0  0  0  0  0  0
    3.9591    3.7361    0.2846 C   0  0  0  0  0  0  0  0  0  0  0  0
    3.4136    2.8479   -0.6406 C   0  0  0  0  0  0  0  0  0  0  0  0
    0.7012    0.9787   -3.1811 H   0  0  0  0  0  0  0  0  0  0  0  0
    1.9683    2.1984   -3.1029 H   0  0  0  0  0  0  0  0  0  0  0  0
    0.4482    2.4393   -2.2237 H   0  0  0  0  0  0  0  0  0  0  0  0
    1.0016    0.4038   -0.7858 H   0  0  0  0  0  0  0  0  0  0  0  0
    3.3510   -0.2409   -0.8035 H   0  0  0  0  0  0  0  0  0  0  0  0
    0.2374   -2.9285   -3.4832 H   0  0  0  0  0  0  0  0  0  0  0  0
    4.4025   -3.3847   -5.7423 H   0  0  0  0  0  0  0  0  0  0  0  0
    7.2024    0.1463   -4.9214 H   0  0  0  0  0  0  0  0  0  0  0  0
    9.4335    0.1003   -5.8691 H   0  0  0  0  0  0  0  0  0  0  0  0
   11.7539   -1.4576   -5.3351 H   0  0  0  0  0  0  0  0  0  0  0  0
   11.3995   -0.2451   -6.6047 H   0  0  0  0  0  0  0  0  0  0  0  0
   13.2129   -2.6778   -6.9292 H   0  0  0  0  0  0  0  0  0  0  0  0
   13.7529   -1.0106   -6.6999 H   0  0  0  0  0  0  0  0  0  0  0  0
   12.5910   -0.3564   -8.8313 H   0  0  0  0  0  0  0  0  0  0  0  0
   12.0665   -2.0380   -9.0595 H   0  0  0  0  0  0  0  0  0  0  0  0
   13.2727   -1.2117  -11.2121 H   0  0  0  0  0  0  0  0  0  0  0  0
   15.8766   -2.1007  -10.7182 H   0  0  0  0  0  0  0  0  0  0  0  0
    8.9771   -4.0874   -6.7732 H   0  0  0  0  0  0  0  0  0  0  0  0
    6.7239   -4.0541   -5.8012 H   0  0  0  0  0  0  0  0  0  0  0  0
    5.5947   -0.3541   -3.0722 H   0  0  0  0  0  0  0  0  0  0  0  0
    0.8927    1.5686    1.2653 H   0  0  0  0  0  0  0  0  0  0  0  0
    1.8682    3.1446    2.8939 H   0  0  0  0  0  0  0  0  0  0  0  0
    3.8500    4.5072    2.2897 H   0  0  0  0  0  0  0  0  0  0  0  0
    4.8212    4.3409    0.0118 H   0  0  0  0  0  0  0  0  0  0  0  0
    3.8619    2.7681   -1.6296 H   0  0  0  0  0  0  0  0  0  0  0  0
  1  2  1  0  0  0  0
  1 33  1  0  0  0  0
  1 34  1  0  0  0  0
  1 35  1  0  0  0  0
  2  3  1  0  0  0  0
  2 27  1  0  0  0  0
  2 36  1  1  0  0  0
  3  4  1  0  0  0  0
  3 37  1  0  0  0  0
  4  5  1  0  0  0  0
  4 26  2  0  0  0  0
  5  6  2  0  0  0  0
  6  7  1  0  0  0  0
  6 38  1  0  0  0  0
  7  8  2  0  0  0  0
  8  9  1  0  0  0  0
  8 26  1  0  0  0  0
  9 10  1  0  0  0  0
  9 39  1  0  0  0  0
 10 11  1  0  0  0  0
 10 25  2  0  0  0  0
 11 12  1  0  0  0  0
 11 24  2  0  0  0  0
 12 13  2  0  0  0  0
 12 40  1  0  0  0  0
 13 14  1  0  0  0  0
 13 41  1  0  0  0  0
 14 15  1  0  0  0  0
 14 23  2  0  0  0  0
 15 16  1  0  0  0  0
 16 17  1  0  0  0  0
 16 42  1  0  0  0  0
 16 43  1  0  0  0  0
 17 18  1  0  0  0  0
 17 44  1  0  0  0  0
 17 45  1  0  0  0  0
 18 19  1  0  0  0  0
 18 46  1  0  0  0  0
 18 47  1  0  0  0  0
 19 20  2  0  0  0  0
 19 21  1  0  0  0  0
 21 22  1  0  0  0  0
 21 48  1  0  0  0  0
 22 49  1  0  0  0  0
 23 24  1  0  0  0  0
 23 50  1  0  0  0  0
 24 51  1  0  0  0  0
 25 26  1  0  0  0  0
 25 52  1  0  0  0  0
 27 28  1  0  0  0  0
 27 32  2  0  0  0  0
 28 29  2  0  0  0  0
 28 53  1  0  0  0  0
 29 30  1  0  0  0  0
 29 54  1  0  0  0  0
 30 31  2  0  0  0  0
 30 55  1  0  0  0  0
 31 32  1  0  0  0  0
 31 56  1  0  0  0  0
 32 57  1  0  0  0  0
M  END
$$$$
