CHEMBL1241686
 OpenBabel04072215363D

 54 58  0  0  0  0  0  0  0  0999 V2000
   10.1512   -3.6787   -2.5809 C   0  0  0  0  0  0  0  0  0  0  0  0
   10.0454   -3.1613   -3.9093 O   0  0  0  0  0  0  0  0  0  0  0  0
    8.9193   -2.4365   -4.1991 C   0  0  0  0  0  0  0  0  0  0  0  0
    8.2040   -1.7543   -3.2136 C   0  0  0  0  0  0  0  0  0  0  0  0
    7.0187   -1.0947   -3.4731 C   0  0  0  0  0  0  0  0  0  0  0  0
    6.3745   -0.6187   -2.4026 N   0  0  0  0  0  0  0  0  0  0  0  0
    5.1530   -0.0973   -2.5787 C   0  0  0  0  0  0  0  0  0  0  0  0
    4.5670    0.0417   -3.8136 C   0  0  0  0  0  0  0  0  0  0  0  0
    5.3064   -0.3000   -4.9526 C   0  0  0  0  0  0  0  0  0  0  0  0
    4.8428    0.0066   -6.2322 O   0  0  0  0  0  0  0  0  0  0  0  0
    3.9621    1.0752   -6.3480 C   0  0  0  0  0  0  0  0  0  0  0  0
    4.1535    2.2768   -5.6709 C   0  0  0  0  0  0  0  0  0  0  0  0
    3.1045    3.1984   -5.5693 C   0  0  0  0  0  0  0  0  0  0  0  0
    1.8847    3.0388   -6.2734 C   0  0  0  0  0  0  0  0  0  0  0  0
    0.7445    3.9094   -6.1946 C   0  0  0  0  0  0  0  0  0  0  0  0
    0.5673    5.0439   -5.2268 C   0  0  0  0  0  0  0  0  0  0  0  0
   -0.5519    5.2545   -4.7584 O   0  0  0  0  0  0  0  0  0  0  0  0
    1.6546    5.8349   -4.9125 N   0  0  0  0  0  0  0  0  0  0  0  0
    1.5687    6.8497   -3.9039 C   0  0  0  0  0  0  0  0  0  0  0  0
    2.7929    7.5650   -3.4016 C   0  0  0  0  0  0  0  0  0  0  0  0
    2.0872    6.5816   -2.5145 C   0  0  0  0  0  0  0  0  0  0  0  0
   -0.3995    3.6439   -6.9757 C   0  0  0  0  0  0  0  0  0  0  0  0
   -0.4535    2.5397   -7.8169 C   0  0  0  0  0  0  0  0  0  0  0  0
    0.6215    1.6591   -7.8574 C   0  0  0  0  0  0  0  0  0  0  0  0
    1.7807    1.8788   -7.0928 C   0  0  0  0  0  0  0  0  0  0  0  0
    2.8085    0.9092   -7.1061 C   0  0  0  0  0  0  0  0  0  0  0  0
    6.5395   -0.9880   -4.7943 C   0  0  0  0  0  0  0  0  0  0  0  0
    7.2983   -1.6132   -5.8171 C   0  0  0  0  0  0  0  0  0  0  0  0
    8.4587   -2.3710   -5.5219 C   0  0  0  0  0  0  0  0  0  0  0  0
    9.0393   -3.1829   -6.6363 C   0  0  0  0  0  0  0  0  0  0  0  0
   10.4896   -3.5932   -6.6374 C   0  0  0  0  0  0  0  0  0  0  0  0
    8.2941   -3.5377   -7.5519 O   0  0  0  0  0  0  0  0  0  0  0  0
   11.0837   -4.2479   -2.5132 H   0  0  0  0  0  0  0  0  0  0  0  0
    9.3203   -4.3591   -2.3668 H   0  0  0  0  0  0  0  0  0  0  0  0
   10.2146   -2.8869   -1.8286 H   0  0  0  0  0  0  0  0  0  0  0  0
    8.5318   -1.7493   -2.1783 H   0  0  0  0  0  0  0  0  0  0  0  0
    4.6439    0.2237   -1.6752 H   0  0  0  0  0  0  0  0  0  0  0  0
    3.5655    0.4523   -3.8691 H   0  0  0  0  0  0  0  0  0  0  0  0
    5.0714    2.4593   -5.1194 H   0  0  0  0  0  0  0  0  0  0  0  0
    3.2702    4.0251   -4.8860 H   0  0  0  0  0  0  0  0  0  0  0  0
    2.4855    5.7908   -5.4866 H   0  0  0  0  0  0  0  0  0  0  0  0
    0.6558    7.4399   -3.9714 H   0  0  0  0  0  0  0  0  0  0  0  0
    2.6951    8.6174   -3.1606 H   0  0  0  0  0  0  0  0  0  0  0  0
    3.7610    7.2881   -3.7960 H   0  0  0  0  0  0  0  0  0  0  0  0
    1.5108    6.9667   -1.6801 H   0  0  0  0  0  0  0  0  0  0  0  0
    2.5723    5.6342   -2.3146 H   0  0  0  0  0  0  0  0  0  0  0  0
   -1.2705    4.3027   -6.9099 H   0  0  0  0  0  0  0  0  0  0  0  0
   -1.3510    2.3431   -8.3983 H   0  0  0  0  0  0  0  0  0  0  0  0
    0.5384    0.7757   -8.4892 H   0  0  0  0  0  0  0  0  0  0  0  0
    2.6782   -0.0144   -7.6727 H   0  0  0  0  0  0  0  0  0  0  0  0
    6.9405   -1.5730   -6.8468 H   0  0  0  0  0  0  0  0  0  0  0  0
   11.1186   -2.8910   -6.0876 H   0  0  0  0  0  0  0  0  0  0  0  0
   10.8485   -3.5944   -7.6722 H   0  0  0  0  0  0  0  0  0  0  0  0
   10.5901   -4.6027   -6.2283 H   0  0  0  0  0  0  0  0  0  0  0  0
  1  2  1  0  0  0  0
  1 33  1  0  0  0  0
  1 34  1  0  0  0  0
  1 35  1  0  0  0  0
  2  3  1  0  0  0  0
  3  4  1  0  0  0  0
  3 29  2  0  0  0  0
  4  5  2  0  0  0  0
  4 36  1  0  0  0  0
  5  6  1  0  0  0  0
  5 27  1  0  0  0  0
  6  7  2  0  0  0  0
  7  8  1  0  0  0  0
  7 37  1  0  0  0  0
  8  9  2  0  0  0  0
  8 38  1  0  0  0  0
  9 10  1  0  0  0  0
  9 27  1  0  0  0  0
 10 11  1  0  0  0  0
 11 12  1  0  0  0  0
 11 26  2  0  0  0  0
 12 13  2  0  0  0  0
 12 39  1  0  0  0  0
 13 14  1  0  0  0  0
 13 40  1  0  0  0  0
 14 15  1  0  0  0  0
 14 25  2  0  0  0  0
 15 16  1  0  0  0  0
 15 22  2  0  0  0  0
 16 17  2  0  0  0  0
 16 18  1  0  0  0  0
 18 19  1  0  0  0  0
 18 41  1  0  0  0  0
 19 20  1  0  0  0  0
 19 21  1  0  0  0  0
 19 42  1  0  0  0  0
 20 21  1  0  0  0  0
 20 43  1  0  0  0  0
 20 44  1  0  0  0  0
 21 45  1  0  0  0  0
 21 46  1  0  0  0  0
 22 23  1  0  0  0  0
 22 47  1  0  0  0  0
 23 24  2  0  0  0  0
 23 48  1  0  0  0  0
 24 25  1  0  0  0  0
 24 49  1  0  0  0  0
 25 26  1  0  0  0  0
 26 50  1  0  0  0  0
 27 28  2  0  0  0  0
 28 29  1  0  0  0  0
 28 51  1  0  0  0  0
 29 30  1  0  0  0  0
 30 31  1  0  0  0  0
 30 32  2  0  0  0  0
 31 52  1  0  0  0  0
 31 53  1  0  0  0  0
 31 54  1  0  0  0  0
M  END
$$$$
