CHEMBL2386812
 OpenBabel04072215363D

 66 70  0  0  0  0  0  0  0  0999 V2000
    2.4190   -0.5848   -0.1034 C   0  0  0  0  0  0  0  0  0  0  0  0
    1.0540   -0.1153   -0.3191 N   0  0  0  0  0  0  0  0  0  0  0  0
    0.1321   -1.2529   -0.5419 C   0  0  0  0  0  0  0  0  0  0  0  0
   -1.3291   -0.7879   -0.7710 C   0  0  0  0  0  0  0  0  0  0  0  0
   -1.7551    0.0313    0.3739 N   0  0  0  0  0  0  0  0  0  0  0  0
   -3.0271   -0.0142    0.8969 C   0  0  0  0  0  0  0  0  0  0  0  0
   -3.2427    0.3062    2.2430 C   0  0  0  0  0  0  0  0  0  0  0  0
   -4.5061    0.2403    2.8412 C   0  0  0  0  0  0  0  0  0  0  0  0
   -5.6034   -0.1541    2.0675 C   0  0  0  0  0  0  0  0  0  0  0  0
   -6.9795   -0.2118    2.6198 C   0  0  0  0  0  0  0  0  0  0  0  0
   -7.9407   -0.0623    1.8833 O   0  0  0  0  0  0  0  0  0  0  0  0
   -7.1432   -0.4340    4.0372 N   0  0  0  0  0  0  0  0  0  0  0  0
   -8.3959   -0.5170    4.6310 C   0  0  0  0  0  0  0  0  0  0  0  0
   -9.6157   -0.7205    4.0340 C   0  0  0  0  0  0  0  0  0  0  0  0
  -10.5866   -0.7377    5.0803 C   0  0  0  0  0  0  0  0  0  0  0  0
  -12.0276   -0.9624    4.9345 C   0  0  0  0  0  0  0  0  0  0  0  0
  -12.5424   -1.2766    3.6784 C   0  0  0  0  0  0  0  0  0  0  0  0
  -13.9027   -1.5092    3.4945 C   0  0  0  0  0  0  0  0  0  0  0  0
  -14.8175   -1.4256    4.5429 C   0  0  0  0  0  0  0  0  0  0  0  0
  -16.2150   -1.6170    4.3454 N   0  0  0  0  0  0  0  0  0  0  0  0
  -16.8016   -1.9199    3.1248 C   0  0  0  0  0  0  0  0  0  0  0  0
  -16.1875   -2.0837    2.0743 O   0  0  0  0  0  0  0  0  0  0  0  0
  -18.1908   -2.0039    3.1681 N   0  0  0  0  0  0  0  0  0  0  0  0
  -18.8617   -2.3034    1.9468 C   0  0  0  0  0  0  0  0  0  0  0  0
  -18.5255   -3.4536    1.2189 C   0  0  0  0  0  0  0  0  0  0  0  0
  -19.0957   -3.7002   -0.0310 C   0  0  0  0  0  0  0  0  0  0  0  0
  -20.0036   -2.7909   -0.5674 C   0  0  0  0  0  0  0  0  0  0  0  0
  -20.3525   -1.6498    0.1563 C   0  0  0  0  0  0  0  0  0  0  0  0
  -19.7995   -1.4118    1.4218 C   0  0  0  0  0  0  0  0  0  0  0  0
  -14.3102   -1.1284    5.8200 C   0  0  0  0  0  0  0  0  0  0  0  0
  -12.9296   -0.8982    6.0062 C   0  0  0  0  0  0  0  0  0  0  0  0
   -9.9884   -0.5387    6.2648 N   0  0  0  0  0  0  0  0  0  0  0  0
   -8.6775   -0.4494    5.9686 N   0  0  0  0  0  0  0  0  0  0  0  0
   -5.4115   -0.4740    0.7272 C   0  0  0  0  0  0  0  0  0  0  0  0
   -4.1426   -0.4188    0.1492 C   0  0  0  0  0  0  0  0  0  0  0  0
   -0.8673    1.1765    0.6497 C   0  0  0  0  0  0  0  0  0  0  0  0
    0.5806    0.6726    0.8404 C   0  0  0  0  0  0  0  0  0  0  0  0
    2.7744   -1.1360   -0.9804 H   0  0  0  0  0  0  0  0  0  0  0  0
    2.5039   -1.2354    0.7740 H   0  0  0  0  0  0  0  0  0  0  0  0
    3.0962    0.2660    0.0299 H   0  0  0  0  0  0  0  0  0  0  0  0
    0.1512   -1.9278    0.3260 H   0  0  0  0  0  0  0  0  0  0  0  0
    0.4561   -1.8325   -1.4140 H   0  0  0  0  0  0  0  0  0  0  0  0
   -1.9501   -1.6845   -0.8820 H   0  0  0  0  0  0  0  0  0  0  0  0
   -1.4000   -0.2101   -1.7015 H   0  0  0  0  0  0  0  0  0  0  0  0
   -2.4013    0.5859    2.8728 H   0  0  0  0  0  0  0  0  0  0  0  0
   -4.5993    0.5389    3.8773 H   0  0  0  0  0  0  0  0  0  0  0  0
   -6.3283   -0.5319    4.6237 H   0  0  0  0  0  0  0  0  0  0  0  0
   -9.8026   -0.8716    2.9813 H   0  0  0  0  0  0  0  0  0  0  0  0
  -11.9125   -1.3580    2.7989 H   0  0  0  0  0  0  0  0  0  0  0  0
  -14.1875   -1.7628    2.4806 H   0  0  0  0  0  0  0  0  0  0  0  0
  -16.8130   -1.5643    5.1598 H   0  0  0  0  0  0  0  0  0  0  0  0
  -18.6354   -1.3202    3.7637 H   0  0  0  0  0  0  0  0  0  0  0  0
  -17.7934   -4.1558    1.6116 H   0  0  0  0  0  0  0  0  0  0  0  0
  -18.8125   -4.5871   -0.5909 H   0  0  0  0  0  0  0  0  0  0  0  0
  -20.4266   -2.9671   -1.5538 H   0  0  0  0  0  0  0  0  0  0  0  0
  -21.0398   -0.9297   -0.2821 H   0  0  0  0  0  0  0  0  0  0  0  0
  -20.0477   -0.4906    1.9381 H   0  0  0  0  0  0  0  0  0  0  0  0
  -14.9676   -1.0703    6.6797 H   0  0  0  0  0  0  0  0  0  0  0  0
  -12.5625   -0.6684    7.0080 H   0  0  0  0  0  0  0  0  0  0  0  0
   -8.0360   -0.3081    6.7408 H   0  0  0  0  0  0  0  0  0  0  0  0
   -6.2638   -0.7636    0.0990 H   0  0  0  0  0  0  0  0  0  0  0  0
   -4.0404   -0.6660   -0.8982 H   0  0  0  0  0  0  0  0  0  0  0  0
   -1.1583    1.7374    1.5434 H   0  0  0  0  0  0  0  0  0  0  0  0
   -0.9120    1.8848   -0.1884 H   0  0  0  0  0  0  0  0  0  0  0  0
    0.6210    0.0643    1.7549 H   0  0  0  0  0  0  0  0  0  0  0  0
    1.2323    1.5404    0.9934 H   0  0  0  0  0  0  0  0  0  0  0  0
  1  2  1  0  0  0  0
  1 38  1  0  0  0  0
  1 39  1  0  0  0  0
  1 40  1  0  0  0  0
  2  3  1  0  0  0  0
  2 37  1  0  0  0  0
  3  4  1  0  0  0  0
  3 41  1  0  0  0  0
  3 42  1  0  0  0  0
  4  5  1  0  0  0  0
  4 43  1  0  0  0  0
  4 44  1  0  0  0  0
  5  6  1  0  0  0  0
  5 36  1  0  0  0  0
  6  7  1  0  0  0  0
  6 35  2  0  0  0  0
  7  8  2  0  0  0  0
  7 45  1  0  0  0  0
  8  9  1  0  0  0  0
  8 46  1  0  0  0  0
  9 10  1  0  0  0  0
  9 34  2  0  0  0  0
 10 11  2  0  0  0  0
 10 12  1  0  0  0  0
 12 13  1  0  0  0  0
 12 47  1  0  0  0  0
 13 14  2  0  0  0  0
 13 33  1  0  0  0  0
 14 15  1  0  0  0  0
 14 48  1  0  0  0  0
 15 16  1  0  0  0  0
 15 32  2  0  0  0  0
 16 17  1  0  0  0  0
 16 31  2  0  0  0  0
 17 18  2  0  0  0  0
 17 49  1  0  0  0  0
 18 19  1  0  0  0  0
 18 50  1  0  0  0  0
 19 20  1  0  0  0  0
 19 30  2  0  0  0  0
 20 21  1  0  0  0  0
 20 51  1  0  0  0  0
 21 22  2  0  0  0  0
 21 23  1  0  0  0  0
 23 24  1  0  0  0  0
 23 52  1  0  0  0  0
 24 25  1  0  0  0  0
 24 29  2  0  0  0  0
 25 26  2  0  0  0  0
 25 53  1  0  0  0  0
 26 27  1  0  0  0  0
 26 54  1  0  0  0  0
 27 28  2  0  0  0  0
 27 55  1  0  0  0  0
 28 29  1  0  0  0  0
 28 56  1  0  0  0  0
 29 57  1  0  0  0  0
 30 31  1  0  0  0  0
 30 58  1  0  0  0  0
 31 59  1  0  0  0  0
 32 33  1  0  0  0  0
 33 60  1  0  0  0  0
 34 35  1  0  0  0  0
 34 61  1  0  0  0  0
 35 62  1  0  0  0  0
 36 37  1  0  0  0  0
 36 63  1  0  0  0  0
 36 64  1  0  0  0  0
 37 65  1  0  0  0  0
 37 66  1  0  0  0  0
M  END
$$$$
