CHEMBL1739550
 OpenBabel04072215363D

 50 54  0  0  0  0  0  0  0  0999 V2000
    1.1052   -0.0338   -0.2019 C   0  0  0  0  0  0  0  0  0  0  0  0
    2.5904    0.0922   -0.0280 C   0  0  0  0  0  0  0  0  0  0  0  0
    3.1979    1.2883    0.0425 C   0  0  0  0  0  0  0  0  0  0  0  0
    4.5738    1.3230    0.1607 N   0  0  0  0  0  0  0  0  0  0  0  0
    5.4830    2.3529    0.1862 C   0  0  0  0  0  0  0  0  0  0  0  0
    5.1929    3.7995    0.2296 C   0  0  0  0  0  0  0  0  0  0  0  0
    4.0727    4.4653    0.7657 C   0  0  0  0  0  0  0  0  0  0  0  0
    4.1307    5.7858    0.5807 N   0  0  0  0  0  0  0  0  0  0  0  0
    5.2965    5.9623   -0.0639 N   0  0  0  0  0  0  0  0  0  0  0  0
    5.9894    4.8020   -0.2675 C   0  0  0  0  0  0  0  0  0  0  0  0
    6.7191    1.7352    0.1306 C   0  0  0  0  0  0  0  0  0  0  0  0
    6.5981    0.3621    0.1678 N   0  0  0  0  0  0  0  0  0  0  0  0
    5.2968    0.1567    0.1722 C   0  0  0  0  0  0  0  0  0  0  0  0
    4.5963   -1.1153    0.1321 C   0  0  0  0  0  0  0  0  0  0  0  0
    5.2899   -2.3110    0.2227 N   0  0  0  0  0  0  0  0  0  0  0  0
    4.7578   -3.5555    0.1271 C   0  0  0  0  0  0  0  0  0  0  0  0
    3.6216   -3.9558   -0.5455 C   0  0  0  0  0  0  0  0  0  0  0  0
    3.3312   -5.3332   -0.3220 C   0  0  0  0  0  0  0  0  0  0  0  0
    2.1108   -6.0340   -0.8484 C   0  0  0  0  0  0  0  0  0  0  0  0
    2.0616   -6.0219   -2.3342 N   0  0  0  0  0  0  0  0  0  0  0  0
    3.1573   -6.8421   -2.8827 C   0  0  0  0  0  0  0  0  0  0  0  0
    3.0504   -7.0827   -4.3893 C   0  0  0  0  0  0  0  0  0  0  0  0
    1.6909   -7.6556   -4.7559 C   0  0  0  0  0  0  0  0  0  0  0  0
    0.6064   -6.7102   -4.2648 C   0  0  0  0  0  0  0  0  0  0  0  0
    0.7294   -6.4840   -2.7585 C   0  0  0  0  0  0  0  0  0  0  0  0
    4.2151   -5.9952    0.4299 N   0  0  0  0  0  0  0  0  0  0  0  0
    5.4271   -4.9471    0.8698 S   0  0  0  0  0  0  0  0  0  0  0  0
    3.2805   -1.1009    0.0352 N   0  0  0  0  0  0  0  0  0  0  0  0
    0.6092    0.9423   -0.2213 H   0  0  0  0  0  0  0  0  0  0  0  0
    0.6742   -0.6143    0.6201 H   0  0  0  0  0  0  0  0  0  0  0  0
    0.8786   -0.5450   -1.1436 H   0  0  0  0  0  0  0  0  0  0  0  0
    2.6591    2.2218   -0.0318 H   0  0  0  0  0  0  0  0  0  0  0  0
    3.2260    4.0560    1.3017 H   0  0  0  0  0  0  0  0  0  0  0  0
    5.5503    6.9037   -0.3444 H   0  0  0  0  0  0  0  0  0  0  0  0
    6.9341    4.7983   -0.7908 H   0  0  0  0  0  0  0  0  0  0  0  0
    7.6946    2.2048    0.1158 H   0  0  0  0  0  0  0  0  0  0  0  0
    6.2499   -2.2043    0.5374 H   0  0  0  0  0  0  0  0  0  0  0  0
    3.0065   -3.3035   -1.1504 H   0  0  0  0  0  0  0  0  0  0  0  0
    1.2391   -5.4957   -0.4512 H   0  0  0  0  0  0  0  0  0  0  0  0
    2.0535   -7.0597   -0.4608 H   0  0  0  0  0  0  0  0  0  0  0  0
    3.2051   -7.8135   -2.3751 H   0  0  0  0  0  0  0  0  0  0  0  0
    4.1138   -6.3347   -2.7066 H   0  0  0  0  0  0  0  0  0  0  0  0
    3.8404   -7.7734   -4.7055 H   0  0  0  0  0  0  0  0  0  0  0  0
    3.2118   -6.1419   -4.9305 H   0  0  0  0  0  0  0  0  0  0  0  0
    1.5643   -8.6419   -4.2920 H   0  0  0  0  0  0  0  0  0  0  0  0
    1.6150   -7.7935   -5.8393 H   0  0  0  0  0  0  0  0  0  0  0  0
   -0.3805   -7.1278   -4.4943 H   0  0  0  0  0  0  0  0  0  0  0  0
    0.6810   -5.7529   -4.7958 H   0  0  0  0  0  0  0  0  0  0  0  0
    0.4601   -7.4142   -2.2418 H   0  0  0  0  0  0  0  0  0  0  0  0
   -0.0143   -5.7289   -2.4726 H   0  0  0  0  0  0  0  0  0  0  0  0
  1  2  1  0  0  0  0
  1 29  1  0  0  0  0
  1 30  1  0  0  0  0
  1 31  1  0  0  0  0
  2  3  2  0  0  0  0
  2 28  1  0  0  0  0
  3  4  1  0  0  0  0
  3 32  1  0  0  0  0
  4  5  1  0  0  0  0
  4 13  1  0  0  0  0
  5  6  1  0  0  0  0
  5 11  2  0  0  0  0
  6  7  1  0  0  0  0
  6 10  2  0  0  0  0
  7  8  2  0  0  0  0
  7 33  1  0  0  0  0
  8  9  1  0  0  0  0
  9 10  1  0  0  0  0
  9 34  1  0  0  0  0
 10 35  1  0  0  0  0
 11 12  1  0  0  0  0
 11 36  1  0  0  0  0
 12 13  2  0  0  0  0
 13 14  1  0  0  0  0
 14 15  1  0  0  0  0
 14 28  2  0  0  0  0
 15 16  1  0  0  0  0
 15 37  1  0  0  0  0
 16 17  2  0  0  0  0
 16 27  1  0  0  0  0
 17 18  1  0  0  0  0
 17 38  1  0  0  0  0
 18 19  1  0  0  0  0
 18 26  2  0  0  0  0
 19 20  1  0  0  0  0
 19 39  1  0  0  0  0
 19 40  1  0  0  0  0
 20 21  1  0  0  0  0
 20 25  1  0  0  0  0
 21 22  1  0  0  0  0
 21 41  1  0  0  0  0
 21 42  1  0  0  0  0
 22 23  1  0  0  0  0
 22 43  1  0  0  0  0
 22 44  1  0  0  0  0
 23 24  1  0  0  0  0
 23 45  1  0  0  0  0
 23 46  1  0  0  0  0
 24 25  1  0  0  0  0
 24 47  1  0  0  0  0
 24 48  1  0  0  0  0
 25 49  1  0  0  0  0
 25 50  1  0  0  0  0
 26 27  1  0  0  0  0
M  END
$$$$
