CHEMBL3696077
 OpenBabel04072215373D

 43 44  0  0  0  0  0  0  0  0999 V2000
    1.3609   -4.3757   -1.4961 C   0  0  0  0  0  0  0  0  0  0  0  0
    2.7433   -4.1228   -1.6949 O   0  0  0  0  0  0  0  0  0  0  0  0
    3.4261   -3.8571   -0.4740 C   0  0  0  0  0  0  0  0  0  0  0  0
    4.8968   -3.5925   -0.7756 C   0  0  0  0  0  0  0  0  0  0  0  0
    5.0758   -2.3753   -1.6819 C   0  0  0  0  0  0  0  0  0  0  0  0
    6.4764   -2.1564   -2.0000 N   0  0  0  0  0  0  0  0  0  0  0  0
    7.0145   -2.7319   -3.1305 C   0  0  0  0  0  0  0  0  0  0  0  0
    6.3717   -3.4207   -3.9096 O   0  0  0  0  0  0  0  0  0  0  0  0
    8.3704   -2.4692   -3.2261 N   0  0  0  0  0  0  0  0  0  0  0  0
    9.0497   -3.0365   -4.2911 C   0  0  0  0  0  0  0  0  0  0  0  0
   10.4107   -3.9512   -3.8825 S   0  0  0  0  0  0  0  0  0  0  0  0
   10.6916   -4.5115   -5.4001 N   0  0  0  0  0  0  0  0  0  0  0  0
    9.8257   -3.9622   -6.2688 C   0  0  0  0  0  0  0  0  0  0  0  0
   10.0310   -4.2808   -7.6964 C   0  0  0  0  0  0  0  0  0  0  0  0
   10.4871   -5.5559   -8.0690 C   0  0  0  0  0  0  0  0  0  0  0  0
   10.8415   -5.8369   -9.3946 C   0  0  0  0  0  0  0  0  0  0  0  0
   10.6978   -4.8713  -10.3904 C   0  0  0  0  0  0  0  0  0  0  0  0
   11.2282   -5.0876  -11.6677 N   0  0  0  0  0  0  0  0  0  0  0  0
   10.2541   -3.6003  -10.0230 C   0  0  0  0  0  0  0  0  0  0  0  0
    9.9156   -3.3084   -8.6948 C   0  0  0  0  0  0  0  0  0  0  0  0
    8.8508   -3.0552   -5.6634 C   0  0  0  0  0  0  0  0  0  0  0  0
    7.8411   -2.2727   -6.3578 C   0  0  0  0  0  0  0  0  0  0  0  0
    7.5931   -1.0301   -5.8404 N   0  0  0  0  0  0  0  0  0  0  0  0
    7.2788   -2.6220   -7.3909 O   0  0  0  0  0  0  0  0  0  0  0  0
    0.9064   -4.5781   -2.4698 H   0  0  0  0  0  0  0  0  0  0  0  0
    0.8728   -3.5000   -1.0583 H   0  0  0  0  0  0  0  0  0  0  0  0
    1.2182   -5.2498   -0.8541 H   0  0  0  0  0  0  0  0  0  0  0  0
    3.3375   -4.7238    0.1910 H   0  0  0  0  0  0  0  0  0  0  0  0
    2.9777   -2.9868    0.0186 H   0  0  0  0  0  0  0  0  0  0  0  0
    5.3338   -4.4749   -1.2597 H   0  0  0  0  0  0  0  0  0  0  0  0
    5.4417   -3.4379    0.1635 H   0  0  0  0  0  0  0  0  0  0  0  0
    4.7146   -1.4725   -1.1795 H   0  0  0  0  0  0  0  0  0  0  0  0
    4.5104   -2.4899   -2.6132 H   0  0  0  0  0  0  0  0  0  0  0  0
    6.8924   -1.2852   -1.7025 H   0  0  0  0  0  0  0  0  0  0  0  0
    8.8413   -2.5392   -2.3325 H   0  0  0  0  0  0  0  0  0  0  0  0
   10.6160   -6.3327   -7.3173 H   0  0  0  0  0  0  0  0  0  0  0  0
   11.2519   -6.8145   -9.6323 H   0  0  0  0  0  0  0  0  0  0  0  0
   11.2583   -6.0640  -11.9414 H   0  0  0  0  0  0  0  0  0  0  0  0
   10.8238   -4.4938  -12.3843 H   0  0  0  0  0  0  0  0  0  0  0  0
   10.1878   -2.8088  -10.7644 H   0  0  0  0  0  0  0  0  0  0  0  0
    9.5995   -2.2964   -8.4612 H   0  0  0  0  0  0  0  0  0  0  0  0
    7.9615   -0.7335   -4.9484 H   0  0  0  0  0  0  0  0  0  0  0  0
    6.8506   -0.4932   -6.2665 H   0  0  0  0  0  0  0  0  0  0  0  0
  1  2  1  0  0  0  0
  1 25  1  0  0  0  0
  1 26  1  0  0  0  0
  1 27  1  0  0  0  0
  2  3  1  0  0  0  0
  3  4  1  0  0  0  0
  3 28  1  0  0  0  0
  3 29  1  0  0  0  0
  4  5  1  0  0  0  0
  4 30  1  0  0  0  0
  4 31  1  0  0  0  0
  5  6  1  0  0  0  0
  5 32  1  0  0  0  0
  5 33  1  0  0  0  0
  6  7  1  0  0  0  0
  6 34  1  0  0  0  0
  7  8  2  0  0  0  0
  7  9  1  0  0  0  0
  9 10  1  0  0  0  0
  9 35  1  0  0  0  0
 10 11  1  0  0  0  0
 10 21  2  0  0  0  0
 11 12  1  0  0  0  0
 12 13  2  0  0  0  0
 13 14  1  0  0  0  0
 13 21  1  0  0  0  0
 14 15  1  0  0  0  0
 14 20  2  0  0  0  0
 15 16  2  0  0  0  0
 15 36  1  0  0  0  0
 16 17  1  0  0  0  0
 16 37  1  0  0  0  0
 17 18  1  0  0  0  0
 17 19  2  0  0  0  0
 18 38  1  0  0  0  0
 18 39  1  0  0  0  0
 19 20  1  0  0  0  0
 19 40  1  0  0  0  0
 20 41  1  0  0  0  0
 21 22  1  0  0  0  0
 22 23  1  0  0  0  0
 22 24  2  0  0  0  0
 23 42  1  0  0  0  0
 23 43  1  0  0  0  0
M  END
$$$$
