CHEMBL223528
 OpenBabel04072215363D

 57 60  0  0  0  0  0  0  0  0999 V2000
    0.8331   -0.2947   -1.7072 C   0  0  0  0  0  0  0  0  0  0  0  0
    1.9443    0.3314   -2.3324 O   0  0  0  0  0  0  0  0  0  0  0  0
    2.8271    0.9104   -1.3653 C   0  0  0  0  0  0  0  0  0  0  0  0
    3.9942    1.5465   -2.1112 C   0  0  0  0  0  0  0  0  0  0  0  0
    4.8932    2.1353   -1.1753 O   0  0  0  0  0  0  0  0  0  0  0  0
    6.2038    2.2500   -1.6086 C   0  0  0  0  0  0  0  0  0  0  0  0
    7.1704    2.1609   -0.6099 C   0  0  0  0  0  0  0  0  0  0  0  0
    8.5269    2.2897   -0.9163 C   0  0  0  0  0  0  0  0  0  0  0  0
    8.9949    2.5258   -2.2306 C   0  0  0  0  0  0  0  0  0  0  0  0
   10.4327    2.6805   -2.4974 C   0  0  0  0  0  0  0  0  0  0  0  0
   11.0226    2.1048   -3.6185 C   0  0  0  0  0  0  0  0  0  0  0  0
   12.3411    2.3639   -3.9826 C   0  0  0  0  0  0  0  0  0  0  0  0
   13.1899    3.0808   -3.1455 C   0  0  0  0  0  0  0  0  0  0  0  0
   14.5673    3.2821   -3.4570 N   0  0  0  0  0  0  0  0  0  0  0  0
   15.1838    2.8899   -4.6389 C   0  0  0  0  0  0  0  0  0  0  0  0
   14.6086    2.4064   -5.6091 O   0  0  0  0  0  0  0  0  0  0  0  0
   16.5616    3.0632   -4.6113 N   0  0  0  0  0  0  0  0  0  0  0  0
   17.3300    2.6740   -5.7411 C   0  0  0  0  0  0  0  0  0  0  0  0
   18.4045    1.8028   -5.5645 C   0  0  0  0  0  0  0  0  0  0  0  0
   19.1565    1.3896   -6.6671 C   0  0  0  0  0  0  0  0  0  0  0  0
   18.8570    1.8657   -7.9446 C   0  0  0  0  0  0  0  0  0  0  0  0
   17.7796    2.7354   -8.1401 C   0  0  0  0  0  0  0  0  0  0  0  0
   17.4381    3.2370   -9.5130 C   0  0  0  0  0  0  0  0  0  0  0  0
   17.0166    3.1315   -7.0303 C   0  0  0  0  0  0  0  0  0  0  0  0
   12.6618    3.5847   -1.9590 C   0  0  0  0  0  0  0  0  0  0  0  0
   11.3031    3.4031   -1.6481 C   0  0  0  0  0  0  0  0  0  0  0  0
    7.9986    2.6323   -3.2688 C   0  0  0  0  0  0  0  0  0  0  0  0
    7.9418    2.8448   -4.6930 C   0  0  0  0  0  0  0  0  0  0  0  0
    8.9535    2.9998   -5.5551 N   0  0  0  0  0  0  0  0  0  0  0  0
    6.7019    2.8724   -5.1604 N   0  0  0  0  0  0  0  0  0  0  0  0
    5.9521    2.7196   -4.0753 N   0  0  0  0  0  0  0  0  0  0  0  0
    6.6430    2.5086   -2.9138 C   0  0  0  0  0  0  0  0  0  0  0  0
    0.1991   -0.7242   -2.4865 H   0  0  0  0  0  0  0  0  0  0  0  0
    0.2500    0.4405   -1.1445 H   0  0  0  0  0  0  0  0  0  0  0  0
    1.1703   -1.0985   -1.0456 H   0  0  0  0  0  0  0  0  0  0  0  0
    3.1927    0.1463   -0.6784 H   0  0  0  0  0  0  0  0  0  0  0  0
    2.2975    1.6720   -0.7852 H   0  0  0  0  0  0  0  0  0  0  0  0
    3.5920    2.3240   -2.7694 H   0  0  0  0  0  0  0  0  0  0  0  0
    4.4803    0.7775   -2.7253 H   0  0  0  0  0  0  0  0  0  0  0  0
    6.8659    1.9819    0.4182 H   0  0  0  0  0  0  0  0  0  0  0  0
    9.2402    2.1802   -0.0986 H   0  0  0  0  0  0  0  0  0  0  0  0
   10.4399    1.4527   -4.2806 H   0  0  0  0  0  0  0  0  0  0  0  0
   12.6533    1.9695   -4.9375 H   0  0  0  0  0  0  0  0  0  0  0  0
   15.1227    3.8016   -2.7920 H   0  0  0  0  0  0  0  0  0  0  0  0
   16.9842    2.8963   -3.7104 H   0  0  0  0  0  0  0  0  0  0  0  0
   18.6275    1.3834   -4.5883 H   0  0  0  0  0  0  0  0  0  0  0  0
   19.9710    0.6822   -6.5356 H   0  0  0  0  0  0  0  0  0  0  0  0
   19.4626    1.5435   -8.7892 H   0  0  0  0  0  0  0  0  0  0  0  0
   18.0959    2.8016  -10.2735 H   0  0  0  0  0  0  0  0  0  0  0  0
   17.5501    4.3249   -9.5582 H   0  0  0  0  0  0  0  0  0  0  0  0
   16.4092    2.9679   -9.7732 H   0  0  0  0  0  0  0  0  0  0  0  0
   16.1723    3.8024   -7.1762 H   0  0  0  0  0  0  0  0  0  0  0  0
   13.2859    4.1386   -1.2590 H   0  0  0  0  0  0  0  0  0  0  0  0
   10.9180    3.8361   -0.7302 H   0  0  0  0  0  0  0  0  0  0  0  0
    9.8657    3.3333   -5.2737 H   0  0  0  0  0  0  0  0  0  0  0  0
    8.7061    3.2394   -6.5077 H   0  0  0  0  0  0  0  0  0  0  0  0
    4.9509    2.7599   -4.2024 H   0  0  0  0  0  0  0  0  0  0  0  0
  1  2  1  0  0  0  0
  1 33  1  0  0  0  0
  1 34  1  0  0  0  0
  1 35  1  0  0  0  0
  2  3  1  0  0  0  0
  3  4  1  0  0  0  0
  3 36  1  0  0  0  0
  3 37  1  0  0  0  0
  4  5  1  0  0  0  0
  4 38  1  0  0  0  0
  4 39  1  0  0  0  0
  5  6  1  0  0  0  0
  6  7  1  0  0  0  0
  6 32  2  0  0  0  0
  7  8  2  0  0  0  0
  7 40  1  0  0  0  0
  8  9  1  0  0  0  0
  8 41  1  0  0  0  0
  9 10  1  0  0  0  0
  9 27  2  0  0  0  0
 10 11  1  0  0  0  0
 10 26  2  0  0  0  0
 11 12  2  0  0  0  0
 11 42  1  0  0  0  0
 12 13  1  0  0  0  0
 12 43  1  0  0  0  0
 13 14  1  0  0  0  0
 13 25  2  0  0  0  0
 14 15  1  0  0  0  0
 14 44  1  0  0  0  0
 15 16  2  0  0  0  0
 15 17  1  0  0  0  0
 17 18  1  0  0  0  0
 17 45  1  0  0  0  0
 18 19  1  0  0  0  0
 18 24  2  0  0  0  0
 19 20  2  0  0  0  0
 19 46  1  0  0  0  0
 20 21  1  0  0  0  0
 20 47  1  0  0  0  0
 21 22  2  0  0  0  0
 21 48  1  0  0  0  0
 22 23  1  0  0  0  0
 22 24  1  0  0  0  0
 23 49  1  0  0  0  0
 23 50  1  0  0  0  0
 23 51  1  0  0  0  0
 24 52  1  0  0  0  0
 25 26  1  0  0  0  0
 25 53  1  0  0  0  0
 26 54  1  0  0  0  0
 27 28  1  0  0  0  0
 27 32  1  0  0  0  0
 28 29  1  0  0  0  0
 28 30  2  0  0  0  0
 29 55  1  0  0  0  0
 29 56  1  0  0  0  0
 30 31  1  0  0  0  0
 31 32  1  0  0  0  0
 31 57  1  0  0  0  0
M  END
$$$$
