CHEMBL4436488
 OpenBabel04072215383D

 41 43  0  0  0  0  0  0  0  0999 V2000
    2.6298    1.3529   -0.1301 O   0  0  0  0  0  0  0  0  0  0  0  0
    2.2862    0.3290    0.4450 C   0  0  0  0  0  0  0  0  0  0  0  0
    0.9584   -0.0328    0.6322 N   0  0  0  0  0  0  0  0  0  0  0  0
   -0.1689    0.7355    0.2367 C   0  0  0  0  0  0  0  0  0  0  0  0
   -0.1016    1.8294   -0.6362 C   0  0  0  0  0  0  0  0  0  0  0  0
   -1.2360    2.5940   -0.9286 C   0  0  0  0  0  0  0  0  0  0  0  0
   -2.4609    2.2663   -0.3585 C   0  0  0  0  0  0  0  0  0  0  0  0
   -2.5448    1.1607    0.4841 C   0  0  0  0  0  0  0  0  0  0  0  0
   -4.0592    0.7525    1.1941 Cl  0  0  0  0  0  0  0  0  0  0  0  0
   -1.4139    0.3908    0.7748 C   0  0  0  0  0  0  0  0  0  0  0  0
    3.1655   -0.5851    1.0219 N   0  0  0  0  0  0  0  0  0  0  0  0
    4.5762   -0.4330    1.1247 C   0  0  0  0  0  0  0  0  0  0  0  0
    5.2390    0.7140    0.6806 C   0  0  0  0  0  0  0  0  0  0  0  0
    6.6188    0.8340    0.7877 C   0  0  0  0  0  0  0  0  0  0  0  0
    7.3562   -0.1785    1.3818 C   0  0  0  0  0  0  0  0  0  0  0  0
    6.7306   -1.3170    1.8950 C   0  0  0  0  0  0  0  0  0  0  0  0
    7.4565   -2.3076    2.6013 N   0  0  0  0  0  0  0  0  0  0  0  0
    8.7502   -2.1584    3.0925 C   0  0  0  0  0  0  0  0  0  0  0  0
    9.4709   -1.1738    2.9663 O   0  0  0  0  0  0  0  0  0  0  0  0
    9.2744   -3.3039    3.8953 C   0  0  0  0  0  0  0  0  0  0  0  0
   10.5446   -3.1949    4.4606 C   0  0  0  0  0  0  0  0  0  0  0  0
   11.0132   -4.2382    5.2472 C   0  0  0  0  0  0  0  0  0  0  0  0
   10.2048   -5.3517    5.4363 C   0  0  0  0  0  0  0  0  0  0  0  0
    8.9561   -5.3799    4.8249 C   0  0  0  0  0  0  0  0  0  0  0  0
    8.4593   -4.3812    4.0574 N   0  0  0  0  0  0  0  0  0  0  0  0
    5.3375   -1.4573    1.7284 C   0  0  0  0  0  0  0  0  0  0  0  0
    0.7798   -0.8038    1.2557 H   0  0  0  0  0  0  0  0  0  0  0  0
    0.8272    2.1245   -1.1157 H   0  0  0  0  0  0  0  0  0  0  0  0
   -1.1508    3.4496   -1.5950 H   0  0  0  0  0  0  0  0  0  0  0  0
   -3.3363    2.8732   -0.5733 H   0  0  0  0  0  0  0  0  0  0  0  0
   -1.5127   -0.4563    1.4455 H   0  0  0  0  0  0  0  0  0  0  0  0
    2.7805   -1.4542    1.3577 H   0  0  0  0  0  0  0  0  0  0  0  0
    4.7212    1.5560    0.2376 H   0  0  0  0  0  0  0  0  0  0  0  0
    7.1169    1.7267    0.4193 H   0  0  0  0  0  0  0  0  0  0  0  0
    8.4306   -0.0389    1.4248 H   0  0  0  0  0  0  0  0  0  0  0  0
    6.9834   -3.1589    2.8880 H   0  0  0  0  0  0  0  0  0  0  0  0
   11.1516   -2.3079    4.3010 H   0  0  0  0  0  0  0  0  0  0  0  0
   11.9944   -4.1771    5.7100 H   0  0  0  0  0  0  0  0  0  0  0  0
   10.5407   -6.1809    6.0506 H   0  0  0  0  0  0  0  0  0  0  0  0
    8.3041   -6.2405    4.9500 H   0  0  0  0  0  0  0  0  0  0  0  0
    4.8443   -2.3495    2.1036 H   0  0  0  0  0  0  0  0  0  0  0  0
  1  2  2  0  0  0  0
  2  3  1  0  0  0  0
  2 11  1  0  0  0  0
  3  4  1  0  0  0  0
  3 27  1  0  0  0  0
  4  5  1  0  0  0  0
  4 10  2  0  0  0  0
  5  6  2  0  0  0  0
  5 28  1  0  0  0  0
  6  7  1  0  0  0  0
  6 29  1  0  0  0  0
  7  8  2  0  0  0  0
  7 30  1  0  0  0  0
  8  9  1  0  0  0  0
  8 10  1  0  0  0  0
 10 31  1  0  0  0  0
 11 12  1  0  0  0  0
 11 32  1  0  0  0  0
 12 13  1  0  0  0  0
 12 26  2  0  0  0  0
 13 14  2  0  0  0  0
 13 33  1  0  0  0  0
 14 15  1  0  0  0  0
 14 34  1  0  0  0  0
 15 16  2  0  0  0  0
 15 35  1  0  0  0  0
 16 17  1  0  0  0  0
 16 26  1  0  0  0  0
 17 18  1  0  0  0  0
 17 36  1  0  0  0  0
 18 19  2  0  0  0  0
 18 20  1  0  0  0  0
 20 21  1  0  0  0  0
 20 25  2  0  0  0  0
 21 22  2  0  0  0  0
 21 37  1  0  0  0  0
 22 23  1  0  0  0  0
 22 38  1  0  0  0  0
 23 24  2  0  0  0  0
 23 39  1  0  0  0  0
 24 25  1  0  0  0  0
 24 40  1  0  0  0  0
 26 41  1  0  0  0  0
M  END
$$$$
