CHEMBL2086750
 OpenBabel04072215363D

 68 73  0  0  1  0  0  0  0  0999 V2000
    4.4636    2.7691    0.9006 C   0  0  0  0  0  0  0  0  0  0  0  0
    4.5533    1.4385    0.1512 C   0  0  0  0  0  0  0  0  0  0  0  0
    5.3723    0.4152    0.8294 N   0  0  0  0  0  0  0  0  0  0  0  0
    4.8396    0.0850    2.1591 C   0  0  0  0  0  0  0  0  0  0  0  0
    5.7474   -0.9136    2.8661 C   0  0  0  0  0  0  0  0  0  0  0  0
    5.8779   -2.2029    2.0717 C   0  0  0  0  0  0  0  0  0  0  0  0
    6.3329   -1.9424    0.6266 C   0  0  3  0  0  0  0  0  0  0  0  0
    6.2220   -3.1974   -0.1705 N   0  0  0  0  0  0  0  0  0  0  0  0
    6.9617   -4.3295    0.2437 C   0  0  0  0  0  0  0  0  0  0  0  0
    8.2261   -4.2163    0.8519 C   0  0  0  0  0  0  0  0  0  0  0  0
    8.9370   -5.3408    1.2605 C   0  0  0  0  0  0  0  0  0  0  0  0
    8.3769   -6.5784    1.0135 C   0  0  0  0  0  0  0  0  0  0  0  0
    7.1597   -6.7599    0.3494 C   0  0  0  0  0  0  0  0  0  0  0  0
    6.4577   -5.6220   -0.0523 C   0  0  0  0  0  0  0  0  0  0  0  0
    6.9533   -8.2439    0.2767 C   0  0  0  0  0  0  0  0  0  0  0  0
    5.9658   -8.9953   -0.2747 C   0  0  0  0  0  0  0  0  0  0  0  0
    4.8896   -8.3256   -1.0368 C   0  0  0  0  0  0  0  0  0  0  0  0
    5.0770   -8.0297   -2.3972 C   0  0  0  0  0  0  0  0  0  0  0  0
    4.0561   -7.4309   -3.1344 C   0  0  0  0  0  0  0  0  0  0  0  0
    2.8475   -7.1163   -2.5166 C   0  0  0  0  0  0  0  0  0  0  0  0
    2.6577   -7.4008   -1.1635 C   0  0  0  0  0  0  0  0  0  0  0  0
    3.6740   -8.0088   -0.4239 C   0  0  0  0  0  0  0  0  0  0  0  0
    6.0216  -10.4370   -0.2676 C   0  0  0  0  0  0  0  0  0  0  0  0
    5.5381  -11.3736    0.5392 N   0  0  0  0  0  0  0  0  0  0  0  0
    5.9081  -12.5961   -0.0173 C   0  0  0  0  0  0  0  0  0  0  0  0
    5.7142  -13.9315    0.4220 C   0  0  0  0  0  0  0  0  0  0  0  0
    6.2441  -14.9805   -0.3529 C   0  0  0  0  0  0  0  0  0  0  0  0
    6.1940  -16.3236   -0.0905 O   0  0  0  0  0  0  0  0  0  0  0  0
    5.5709  -16.7689    1.1015 C   0  0  0  0  0  0  0  0  0  0  0  0
    6.9206  -14.7029   -1.5462 C   0  0  0  0  0  0  0  0  0  0  0  0
    7.0931  -13.4011   -2.0129 C   0  0  0  0  0  0  0  0  0  0  0  0
    6.5826  -12.3834   -1.2129 C   0  0  0  0  0  0  0  0  0  0  0  0
    6.6086  -11.0252   -1.3605 N   0  0  0  0  0  0  0  0  0  0  0  0
    8.1790   -8.8585    0.9372 C   0  0  0  0  0  0  0  0  0  0  0  0
    8.5017  -10.0289    1.0231 O   0  0  0  0  0  0  0  0  0  0  0  0
    8.9505   -7.7924    1.3542 N   0  0  0  0  0  0  0  0  0  0  0  0
    5.4584   -0.8126   -0.0038 C   0  0  0  0  0  0  0  0  0  0  0  0
    3.9696    3.5193    0.2739 H   0  0  0  0  0  0  0  0  0  0  0  0
    5.4566    3.1503    1.1605 H   0  0  0  0  0  0  0  0  0  0  0  0
    3.8727    2.6837    1.8183 H   0  0  0  0  0  0  0  0  0  0  0  0
    5.0018    1.6535   -0.8266 H   0  0  0  0  0  0  0  0  0  0  0  0
    3.5375    1.0672   -0.0332 H   0  0  0  0  0  0  0  0  0  0  0  0
    3.8209   -0.3172    2.0842 H   0  0  0  0  0  0  0  0  0  0  0  0
    4.7954    0.9749    2.7951 H   0  0  0  0  0  0  0  0  0  0  0  0
    5.3428   -1.1380    3.8595 H   0  0  0  0  0  0  0  0  0  0  0  0
    6.7396   -0.4700    3.0195 H   0  0  0  0  0  0  0  0  0  0  0  0
    4.9133   -2.7264    2.0679 H   0  0  0  0  0  0  0  0  0  0  0  0
    6.5846   -2.8572    2.5929 H   0  0  0  0  0  0  0  0  0  0  0  0
    7.3685   -1.5790    0.6170 H   0  0  0  0  0  0  0  0  0  0  0  0
    6.4280   -3.0202   -1.1545 H   0  0  0  0  0  0  0  0  0  0  0  0
    8.6741   -3.2449    1.0391 H   0  0  0  0  0  0  0  0  0  0  0  0
    9.8939   -5.2399    1.7610 H   0  0  0  0  0  0  0  0  0  0  0  0
    5.5027   -5.6971   -0.5605 H   0  0  0  0  0  0  0  0  0  0  0  0
    6.0163   -8.2633   -2.8917 H   0  0  0  0  0  0  0  0  0  0  0  0
    4.2023   -7.2139   -4.1894 H   0  0  0  0  0  0  0  0  0  0  0  0
    2.0495   -6.6527   -3.0908 H   0  0  0  0  0  0  0  0  0  0  0  0
    1.7136   -7.1550   -0.6842 H   0  0  0  0  0  0  0  0  0  0  0  0
    3.5130   -8.2369    0.6278 H   0  0  0  0  0  0  0  0  0  0  0  0
    5.1779  -14.1076    1.3454 H   0  0  0  0  0  0  0  0  0  0  0  0
    5.7060  -17.8565    1.1476 H   0  0  0  0  0  0  0  0  0  0  0  0
    4.4961  -16.5705    1.0796 H   0  0  0  0  0  0  0  0  0  0  0  0
    6.0444  -16.3415    1.9895 H   0  0  0  0  0  0  0  0  0  0  0  0
    7.3312  -15.5288   -2.1248 H   0  0  0  0  0  0  0  0  0  0  0  0
    7.6177  -13.2008   -2.9392 H   0  0  0  0  0  0  0  0  0  0  0  0
    7.0090  -10.5326   -2.1427 H   0  0  0  0  0  0  0  0  0  0  0  0
    9.8378   -7.9204    1.8171 H   0  0  0  0  0  0  0  0  0  0  0  0
    4.4522   -1.2004   -0.2127 H   0  0  0  0  0  0  0  0  0  0  0  0
    5.9014   -0.5502   -0.9742 H   0  0  0  0  0  0  0  0  0  0  0  0
  1  2  1  0  0  0  0
  1 38  1  0  0  0  0
  1 39  1  0  0  0  0
  1 40  1  0  0  0  0
  2  3  1  0  0  0  0
  2 41  1  0  0  0  0
  2 42  1  0  0  0  0
  3  4  1  0  0  0  0
  3 37  1  0  0  0  0
  4  5  1  0  0  0  0
  4 43  1  0  0  0  0
  4 44  1  0  0  0  0
  5  6  1  0  0  0  0
  5 45  1  0  0  0  0
  5 46  1  0  0  0  0
  6  7  1  0  0  0  0
  6 47  1  0  0  0  0
  6 48  1  0  0  0  0
  7  8  1  0  0  0  0
  7 37  1  0  0  0  0
  7 49  1  0  0  0  0
  8  9  1  0  0  0  0
  8 50  1  0  0  0  0
  9 10  1  0  0  0  0
  9 14  2  0  0  0  0
 10 11  2  0  0  0  0
 10 51  1  0  0  0  0
 11 12  1  0  0  0  0
 11 52  1  0  0  0  0
 12 13  2  0  0  0  0
 12 36  1  0  0  0  0
 13 14  1  0  0  0  0
 13 15  1  0  0  0  0
 14 53  1  0  0  0  0
 15 16  2  3  0  0  0
 15 34  1  0  0  0  0
 16 17  1  0  0  0  0
 16 23  1  0  0  0  0
 17 18  1  0  0  0  0
 17 22  2  0  0  0  0
 18 19  2  0  0  0  0
 18 54  1  0  0  0  0
 19 20  1  0  0  0  0
 19 55  1  0  0  0  0
 20 21  2  0  0  0  0
 20 56  1  0  0  0  0
 21 22  1  0  0  0  0
 21 57  1  0  0  0  0
 22 58  1  0  0  0  0
 23 24  2  0  0  0  0
 23 33  1  0  0  0  0
 24 25  1  0  0  0  0
 25 26  1  0  0  0  0
 25 32  2  0  0  0  0
 26 27  2  0  0  0  0
 26 59  1  0  0  0  0
 27 28  1  0  0  0  0
 27 30  1  0  0  0  0
 28 29  1  0  0  0  0
 29 60  1  0  0  0  0
 29 61  1  0  0  0  0
 29 62  1  0  0  0  0
 30 31  2  0  0  0  0
 30 63  1  0  0  0  0
 31 32  1  0  0  0  0
 31 64  1  0  0  0  0
 32 33  1  0  0  0  0
 33 65  1  0  0  0  0
 34 35  2  0  0  0  0
 34 36  1  0  0  0  0
 36 66  1  0  0  0  0
 37 67  1  0  0  0  0
 37 68  1  0  0  0  0
M  END
$$$$
