CHEMBL3676342
 OpenBabel04072215373D

 50 52  0  0  0  0  0  0  0  0999 V2000
    3.6391   -3.2702   -2.1847 C   0  0  0  0  0  0  0  0  0  0  0  0
    3.6541   -1.9400   -2.3333 C   0  0  0  0  0  0  0  0  0  0  0  0
    3.8038   -1.0816   -1.1281 C   0  0  0  0  0  0  0  0  0  0  0  0
    3.3475   -1.4027   -0.0375 O   0  0  0  0  0  0  0  0  0  0  0  0
    4.5287    0.0792   -1.2624 N   0  0  0  0  0  0  0  0  0  0  0  0
    5.3455    0.3544   -2.3679 C   0  0  0  0  0  0  0  0  0  0  0  0
    6.4930   -0.4217   -2.5289 C   0  0  0  0  0  0  0  0  0  0  0  0
    7.1817   -0.4226   -3.7571 C   0  0  0  0  0  0  0  0  0  0  0  0
    8.2281   -1.3010   -4.0744 C   0  0  0  0  0  0  0  0  0  0  0  0
    8.5988   -2.3260   -3.1598 N   0  0  0  0  0  0  0  0  0  0  0  0
    9.3222   -3.4883   -3.5318 C   0  0  0  0  0  0  0  0  0  0  0  0
    8.9922   -4.1685   -4.7166 C   0  0  0  0  0  0  0  0  0  0  0  0
    9.7682   -5.2303   -5.1823 C   0  0  0  0  0  0  0  0  0  0  0  0
    9.3225   -5.9477   -6.6890 Cl  0  0  0  0  0  0  0  0  0  0  0  0
   10.8723   -5.6548   -4.4398 C   0  0  0  0  0  0  0  0  0  0  0  0
   11.9235   -6.9100   -4.9900 Cl  0  0  0  0  0  0  0  0  0  0  0  0
   11.1639   -5.0491   -3.2138 C   0  0  0  0  0  0  0  0  0  0  0  0
   10.3854   -3.9812   -2.7590 C   0  0  0  0  0  0  0  0  0  0  0  0
   10.7816   -3.2549   -1.2418 Cl  0  0  0  0  0  0  0  0  0  0  0  0
    8.8374   -1.2724   -5.2729 N   0  0  0  0  0  0  0  0  0  0  0  0
    8.3834   -0.3912   -6.1664 C   0  0  0  0  0  0  0  0  0  0  0  0
    7.3642    0.4539   -5.9840 N   0  0  0  0  0  0  0  0  0  0  0  0
    6.7601    0.4258   -4.7931 C   0  0  0  0  0  0  0  0  0  0  0  0
    5.6447    1.2343   -4.5856 C   0  0  0  0  0  0  0  0  0  0  0  0
    4.9294    1.2235   -3.3834 C   0  0  0  0  0  0  0  0  0  0  0  0
    3.8051    2.0179   -3.3540 O   0  0  0  0  0  0  0  0  0  0  0  0
    3.5860    2.6836   -2.1034 C   0  0  0  0  0  0  0  0  0  0  0  0
    2.5014    3.7571   -2.2244 C   0  0  0  0  0  0  0  0  0  0  0  0
    2.2168    4.3637   -0.9298 N   0  0  0  0  0  0  0  0  0  0  0  0
    3.0152    5.3599   -0.4156 C   0  0  0  0  0  0  0  0  0  0  0  0
    2.6843    5.7613    0.9982 C   0  0  0  0  0  0  0  0  0  0  0  0
    3.9264    5.8863   -1.0451 O   0  0  0  0  0  0  0  0  0  0  0  0
    3.5953   -3.9258   -3.0470 H   0  0  0  0  0  0  0  0  0  0  0  0
    3.6901   -3.7292   -1.2013 H   0  0  0  0  0  0  0  0  0  0  0  0
    3.6231   -1.4811   -3.3132 H   0  0  0  0  0  0  0  0  0  0  0  0
    4.8654    0.3811   -0.3544 H   0  0  0  0  0  0  0  0  0  0  0  0
    6.7903   -1.1012   -1.7333 H   0  0  0  0  0  0  0  0  0  0  0  0
    8.9278   -1.9285   -2.2832 H   0  0  0  0  0  0  0  0  0  0  0  0
    8.1364   -3.8377   -5.3021 H   0  0  0  0  0  0  0  0  0  0  0  0
   12.0098   -5.3958   -2.6256 H   0  0  0  0  0  0  0  0  0  0  0  0
    8.8766   -0.3773   -7.1317 H   0  0  0  0  0  0  0  0  0  0  0  0
    5.3015    1.8650   -5.4049 H   0  0  0  0  0  0  0  0  0  0  0  0
    4.5196    3.1338   -1.7443 H   0  0  0  0  0  0  0  0  0  0  0  0
    3.2155    1.9731   -1.3611 H   0  0  0  0  0  0  0  0  0  0  0  0
    1.5685    3.3147   -2.5910 H   0  0  0  0  0  0  0  0  0  0  0  0
    2.8014    4.5302   -2.9396 H   0  0  0  0  0  0  0  0  0  0  0  0
    1.5568    3.8976   -0.3195 H   0  0  0  0  0  0  0  0  0  0  0  0
    2.0667    5.0100    1.4981 H   0  0  0  0  0  0  0  0  0  0  0  0
    2.1527    6.7161    0.9904 H   0  0  0  0  0  0  0  0  0  0  0  0
    3.6151    5.8637    1.5649 H   0  0  0  0  0  0  0  0  0  0  0  0
  1  2  2  0  0  0  0
  1 33  1  0  0  0  0
  1 34  1  0  0  0  0
  2  3  1  0  0  0  0
  2 35  1  0  0  0  0
  3  4  2  0  0  0  0
  3  5  1  0  0  0  0
  5  6  1  0  0  0  0
  5 36  1  0  0  0  0
  6  7  1  0  0  0  0
  6 25  2  0  0  0  0
  7  8  2  0  0  0  0
  7 37  1  0  0  0  0
  8  9  1  0  0  0  0
  8 23  1  0  0  0  0
  9 10  1  0  0  0  0
  9 20  2  0  0  0  0
 10 11  1  0  0  0  0
 10 38  1  0  0  0  0
 11 12  1  0  0  0  0
 11 18  2  0  0  0  0
 12 13  2  0  0  0  0
 12 39  1  0  0  0  0
 13 14  1  0  0  0  0
 13 15  1  0  0  0  0
 15 16  1  0  0  0  0
 15 17  2  0  0  0  0
 17 18  1  0  0  0  0
 17 40  1  0  0  0  0
 18 19  1  0  0  0  0
 20 21  1  0  0  0  0
 21 22  2  0  0  0  0
 21 41  1  0  0  0  0
 22 23  1  0  0  0  0
 23 24  2  0  0  0  0
 24 25  1  0  0  0  0
 24 42  1  0  0  0  0
 25 26  1  0  0  0  0
 26 27  1  0  0  0  0
 27 28  1  0  0  0  0
 27 43  1  0  0  0  0
 27 44  1  0  0  0  0
 28 29  1  0  0  0  0
 28 45  1  0  0  0  0
 28 46  1  0  0  0  0
 29 30  1  0  0  0  0
 29 47  1  0  0  0  0
 30 31  1  0  0  0  0
 30 32  2  0  0  0  0
 31 48  1  0  0  0  0
 31 49  1  0  0  0  0
 31 50  1  0  0  0  0
M  END
$$$$
