CHEMBL4206308
 OpenBabel04072215383D

 49 51  0  0  0  0  0  0  0  0999 V2000
    1.3430    2.8188   -2.0434 C   0  0  0  0  0  0  0  0  0  0  0  0
    2.7465    2.2598   -1.9072 C   0  0  0  0  0  0  0  0  0  0  0  0
    3.1783    2.4495   -0.5599 O   0  0  0  0  0  0  0  0  0  0  0  0
    4.4540    2.0373   -0.2351 C   0  0  0  0  0  0  0  0  0  0  0  0
    5.3247    1.4316   -1.0645 C   0  0  0  0  0  0  0  0  0  0  0  0
    6.6751    1.0581   -0.5861 C   0  0  0  0  0  0  0  0  0  0  0  0
    7.4880    0.5290   -1.3343 O   0  0  0  0  0  0  0  0  0  0  0  0
    6.9486    1.3504    0.7214 N   0  0  0  0  0  0  0  0  0  0  0  0
    6.0607    1.9695    1.5731 C   0  0  0  0  0  0  0  0  0  0  0  0
    4.8341    2.3297    1.1525 C   0  0  0  0  0  0  0  0  0  0  0  0
    3.9871    3.0743    2.1047 C   0  0  0  0  0  0  0  0  0  0  0  0
    3.2177    2.4272    3.0832 C   0  0  0  0  0  0  0  0  0  0  0  0
    2.4541    3.1685    4.0011 C   0  0  0  0  0  0  0  0  0  0  0  0
    2.4410    4.5697    3.9487 C   0  0  0  0  0  0  0  0  0  0  0  0
    1.7279    5.4037    4.9868 C   0  0  0  0  0  0  0  0  0  0  0  0
    0.2421    5.1309    5.1291 C   0  0  0  0  0  0  0  0  0  0  0  0
   -0.1922    4.4397    6.0481 O   0  0  0  0  0  0  0  0  0  0  0  0
   -0.5289    5.7068    4.1304 N   0  0  0  0  0  0  0  0  0  0  0  0
   -1.9295    5.5638    4.0723 C   0  0  0  0  0  0  0  0  0  0  0  0
   -2.5070    5.2885    2.8326 C   0  0  0  0  0  0  0  0  0  0  0  0
   -3.8786    5.0556    2.7353 C   0  0  0  0  0  0  0  0  0  0  0  0
   -4.6888    5.1597    3.8661 C   0  0  0  0  0  0  0  0  0  0  0  0
   -4.1347    5.4946    5.1108 C   0  0  0  0  0  0  0  0  0  0  0  0
   -5.0097    5.6522    6.3309 C   0  0  0  0  0  0  0  0  0  0  0  0
   -6.3243    5.3747    6.0935 F   0  0  0  0  0  0  0  0  0  0  0  0
   -4.6416    4.8395    7.3585 F   0  0  0  0  0  0  0  0  0  0  0  0
   -4.9882    6.9206    6.8286 F   0  0  0  0  0  0  0  0  0  0  0  0
   -2.7435    5.6841    5.2051 C   0  0  0  0  0  0  0  0  0  0  0  0
    3.1932    5.1962    2.9504 C   0  0  0  0  0  0  0  0  0  0  0  0
    3.2020    6.5342    2.8664 F   0  0  0  0  0  0  0  0  0  0  0  0
    3.9563    4.4701    2.0392 C   0  0  0  0  0  0  0  0  0  0  0  0
    0.9663    2.6741   -3.0600 H   0  0  0  0  0  0  0  0  0  0  0  0
    1.3310    3.8889   -1.8118 H   0  0  0  0  0  0  0  0  0  0  0  0
    0.6613    2.3308   -1.3394 H   0  0  0  0  0  0  0  0  0  0  0  0
    3.4122    2.7942   -2.5947 H   0  0  0  0  0  0  0  0  0  0  0  0
    2.7354    1.1916   -2.1518 H   0  0  0  0  0  0  0  0  0  0  0  0
    5.1216    1.1877   -2.0969 H   0  0  0  0  0  0  0  0  0  0  0  0
    7.8784    1.1052    1.0447 H   0  0  0  0  0  0  0  0  0  0  0  0
    6.4283    2.1696    2.5726 H   0  0  0  0  0  0  0  0  0  0  0  0
    3.2151    1.3402    3.1468 H   0  0  0  0  0  0  0  0  0  0  0  0
    1.8858    2.6397    4.7664 H   0  0  0  0  0  0  0  0  0  0  0  0
    1.8499    6.4743    4.7831 H   0  0  0  0  0  0  0  0  0  0  0  0
    2.2006    5.2301    5.9615 H   0  0  0  0  0  0  0  0  0  0  0  0
   -0.0500    5.8920    3.2563 H   0  0  0  0  0  0  0  0  0  0  0  0
   -1.8898    5.1809    1.9449 H   0  0  0  0  0  0  0  0  0  0  0  0
   -4.3136    4.7752    1.7792 H   0  0  0  0  0  0  0  0  0  0  0  0
   -5.7581    4.9742    3.7720 H   0  0  0  0  0  0  0  0  0  0  0  0
   -2.3062    5.9454    6.1683 H   0  0  0  0  0  0  0  0  0  0  0  0
    4.5341    5.0041    1.2903 H   0  0  0  0  0  0  0  0  0  0  0  0
  1  2  1  0  0  0  0
  1 32  1  0  0  0  0
  1 33  1  0  0  0  0
  1 34  1  0  0  0  0
  2  3  1  0  0  0  0
  2 35  1  0  0  0  0
  2 36  1  0  0  0  0
  3  4  1  0  0  0  0
  4  5  2  0  0  0  0
  4 10  1  0  0  0  0
  5  6  1  0  0  0  0
  5 37  1  0  0  0  0
  6  7  2  0  0  0  0
  6  8  1  0  0  0  0
  8  9  1  0  0  0  0
  8 38  1  0  0  0  0
  9 10  2  0  0  0  0
  9 39  1  0  0  0  0
 10 11  1  0  0  0  0
 11 12  1  0  0  0  0
 11 31  2  0  0  0  0
 12 13  2  0  0  0  0
 12 40  1  0  0  0  0
 13 14  1  0  0  0  0
 13 41  1  0  0  0  0
 14 15  1  0  0  0  0
 14 29  2  0  0  0  0
 15 16  1  0  0  0  0
 15 42  1  0  0  0  0
 15 43  1  0  0  0  0
 16 17  2  0  0  0  0
 16 18  1  0  0  0  0
 18 19  1  0  0  0  0
 18 44  1  0  0  0  0
 19 20  1  0  0  0  0
 19 28  2  0  0  0  0
 20 21  2  0  0  0  0
 20 45  1  0  0  0  0
 21 22  1  0  0  0  0
 21 46  1  0  0  0  0
 22 23  2  0  0  0  0
 22 47  1  0  0  0  0
 23 24  1  0  0  0  0
 23 28  1  0  0  0  0
 24 25  1  0  0  0  0
 24 26  1  0  0  0  0
 24 27  1  0  0  0  0
 28 48  1  0  0  0  0
 29 30  1  0  0  0  0
 29 31  1  0  0  0  0
 31 49  1  0  0  0  0
M  END
$$$$
