CHEMBL3911635
 OpenBabel04072215373D

 62 65  0  0  1  0  0  0  0  0999 V2000
    0.9585   -2.1127   -3.9447 C   0  0  0  0  0  0  0  0  0  0  0  0
    1.8535   -2.8828   -3.1347 O   0  0  0  0  0  0  0  0  0  0  0  0
    2.8278   -2.1809   -2.4644 C   0  0  0  0  0  0  0  0  0  0  0  0
    2.7158   -0.8291   -2.1410 C   0  0  0  0  0  0  0  0  0  0  0  0
    3.7296   -0.2039   -1.4224 C   0  0  0  0  0  0  0  0  0  0  0  0
    3.7355    1.1089   -1.0303 O   0  0  0  0  0  0  0  0  0  0  0  0
    2.6652    1.9229   -1.4969 C   0  0  0  0  0  0  0  0  0  0  0  0
    4.8574   -0.9339   -1.0245 C   0  0  0  0  0  0  0  0  0  0  0  0
    5.0169   -2.2952   -1.3274 C   0  0  0  0  0  0  0  0  0  0  0  0
    6.1064   -3.0545   -0.8286 N   0  0  0  0  0  0  0  0  0  0  0  0
    6.6214   -2.6677    0.5582 C   0  0  0  0  0  0  0  0  0  0  0  0
    5.6042   -2.6754    1.7303 C   0  0  3  0  0  0  0  0  0  0  0  0
    5.0482   -3.9979    1.9295 O   0  0  0  0  0  0  0  0  0  0  0  0
    6.2951   -2.1328    3.0161 C   0  0  0  0  0  0  0  0  0  0  0  0
    7.5737   -1.7489    2.7927 F   0  0  0  0  0  0  0  0  0  0  0  0
    5.6400   -1.0596    3.5146 F   0  0  0  0  0  0  0  0  0  0  0  0
    6.3417   -3.0659    3.9972 F   0  0  0  0  0  0  0  0  0  0  0  0
    7.1962   -3.6677   -1.5635 C   0  0  0  0  0  0  0  0  0  0  0  0
    7.6399   -4.8724   -1.0182 C   0  0  0  0  0  0  0  0  0  0  0  0
    8.9361   -5.2827   -1.2356 C   0  0  0  0  0  0  0  0  0  0  0  0
    9.7847   -4.6368   -2.0885 C   0  0  0  0  0  0  0  0  0  0  0  0
   11.0432   -5.0830   -2.0074 N   0  0  0  0  0  0  0  0  0  0  0  0
   11.8845   -4.6760   -2.9659 C   0  0  0  0  0  0  0  0  0  0  0  0
   11.4725   -3.9821   -4.0589 C   0  0  0  0  0  0  0  0  0  0  0  0
   12.2918   -4.1944   -5.2812 C   0  0  0  0  0  0  0  0  0  0  0  0
   13.1795   -3.3894   -6.0321 C   0  0  0  0  0  0  0  0  0  0  0  0
   13.8348   -4.0678   -6.9917 N   0  0  0  0  0  0  0  0  0  0  0  0
   13.3860   -5.3331   -6.8635 N   0  0  0  0  0  0  0  0  0  0  0  0
   13.5353   -6.3178   -7.9408 C   0  0  0  0  0  0  0  0  0  0  0  0
   12.5795   -5.9760   -9.0889 C   0  0  0  0  0  0  0  0  0  0  0  0
   14.9496   -6.5161   -8.4936 C   0  0  0  0  0  0  0  0  0  0  0  0
   12.5949   -5.4758   -5.7480 C   0  0  0  0  0  0  0  0  0  0  0  0
   10.2104   -3.3860   -4.0795 N   0  0  0  0  0  0  0  0  0  0  0  0
    9.3245   -3.6705   -3.0019 C   0  0  0  0  0  0  0  0  0  0  0  0
    7.9934   -3.1311   -2.6294 C   0  0  0  0  0  0  0  0  0  0  0  0
    3.9668   -2.9071   -2.0475 C   0  0  0  0  0  0  0  0  0  0  0  0
    0.2912   -2.8013   -4.4734 H   0  0  0  0  0  0  0  0  0  0  0  0
    1.5114   -1.5396   -4.6973 H   0  0  0  0  0  0  0  0  0  0  0  0
    0.3194   -1.4531   -3.3466 H   0  0  0  0  0  0  0  0  0  0  0  0
    1.8333   -0.2733   -2.4233 H   0  0  0  0  0  0  0  0  0  0  0  0
    2.8512    2.9463   -1.1586 H   0  0  0  0  0  0  0  0  0  0  0  0
    1.7096    1.5989   -1.0708 H   0  0  0  0  0  0  0  0  0  0  0  0
    2.6253    1.9364   -2.5916 H   0  0  0  0  0  0  0  0  0  0  0  0
    5.6137   -0.4037   -0.4562 H   0  0  0  0  0  0  0  0  0  0  0  0
    7.1190   -1.6941    0.4841 H   0  0  0  0  0  0  0  0  0  0  0  0
    7.3994   -3.3758    0.8744 H   0  0  0  0  0  0  0  0  0  0  0  0
    4.7524   -2.0250    1.5211 H   0  0  0  0  0  0  0  0  0  0  0  0
    5.7769   -4.6235    2.0879 H   0  0  0  0  0  0  0  0  0  0  0  0
    7.0195   -5.4157   -0.3100 H   0  0  0  0  0  0  0  0  0  0  0  0
    9.3181   -6.1341   -0.6741 H   0  0  0  0  0  0  0  0  0  0  0  0
   12.9053   -5.0609   -2.8666 H   0  0  0  0  0  0  0  0  0  0  0  0
   13.4032   -2.3378   -5.9168 H   0  0  0  0  0  0  0  0  0  0  0  0
   13.2203   -7.2810   -7.5166 H   0  0  0  0  0  0  0  0  0  0  0  0
   12.7742   -4.9719   -9.4811 H   0  0  0  0  0  0  0  0  0  0  0  0
   11.5387   -6.0068   -8.7487 H   0  0  0  0  0  0  0  0  0  0  0  0
   12.6808   -6.6859   -9.9168 H   0  0  0  0  0  0  0  0  0  0  0  0
   15.3867   -5.5818   -8.8610 H   0  0  0  0  0  0  0  0  0  0  0  0
   14.9358   -7.2236   -9.3401 H   0  0  0  0  0  0  0  0  0  0  0  0
   15.6239   -6.9414   -7.7416 H   0  0  0  0  0  0  0  0  0  0  0  0
   12.2750   -6.4562   -5.4206 H   0  0  0  0  0  0  0  0  0  0  0  0
    7.6275   -2.2565   -3.1724 H   0  0  0  0  0  0  0  0  0  0  0  0
    3.9998   -3.9762   -2.2488 H   0  0  0  0  0  0  0  0  0  0  0  0
  1  2  1  0  0  0  0
  1 37  1  0  0  0  0
  1 38  1  0  0  0  0
  1 39  1  0  0  0  0
  2  3  1  0  0  0  0
  3  4  1  0  0  0  0
  3 36  2  0  0  0  0
  4  5  2  0  0  0  0
  4 40  1  0  0  0  0
  5  6  1  0  0  0  0
  5  8  1  0  0  0  0
  6  7  1  0  0  0  0
  7 41  1  0  0  0  0
  7 42  1  0  0  0  0
  7 43  1  0  0  0  0
  8  9  2  0  0  0  0
  8 44  1  0  0  0  0
  9 10  1  0  0  0  0
  9 36  1  0  0  0  0
 10 11  1  0  0  0  0
 10 18  1  0  0  0  0
 11 12  1  0  0  0  0
 11 45  1  0  0  0  0
 11 46  1  0  0  0  0
 12 13  1  0  0  0  0
 12 14  1  0  0  0  0
 12 47  1  0  0  0  0
 13 48  1  0  0  0  0
 14 15  1  0  0  0  0
 14 16  1  0  0  0  0
 14 17  1  0  0  0  0
 18 19  1  0  0  0  0
 18 35  2  0  0  0  0
 19 20  2  0  0  0  0
 19 49  1  0  0  0  0
 20 21  1  0  0  0  0
 20 50  1  0  0  0  0
 21 22  1  0  0  0  0
 21 34  2  0  0  0  0
 22 23  2  0  0  0  0
 23 24  1  0  0  0  0
 23 51  1  0  0  0  0
 24 25  1  0  0  0  0
 24 33  2  0  0  0  0
 25 26  1  0  0  0  0
 25 32  2  0  0  0  0
 26 27  2  0  0  0  0
 26 52  1  0  0  0  0
 27 28  1  0  0  0  0
 28 29  1  0  0  0  0
 28 32  1  0  0  0  0
 29 30  1  0  0  0  0
 29 31  1  0  0  0  0
 29 53  1  0  0  0  0
 30 54  1  0  0  0  0
 30 55  1  0  0  0  0
 30 56  1  0  0  0  0
 31 57  1  0  0  0  0
 31 58  1  0  0  0  0
 31 59  1  0  0  0  0
 32 60  1  0  0  0  0
 33 34  1  0  0  0  0
 34 35  1  0  0  0  0
 35 61  1  0  0  0  0
 36 62  1  0  0  0  0
M  END
$$$$
