CHEMBL184170
 OpenBabel04072215363D

 46 49  0  0  0  0  0  0  0  0999 V2000
    1.0440   -0.4350   -0.4915 O   0  0  0  0  0  0  0  0  0  0  0  0
    2.1588   -0.0899   -0.1252 C   0  0  0  0  0  0  0  0  0  0  0  0
    2.7547   -0.5132    1.0520 N   0  0  0  0  0  0  0  0  0  0  0  0
    2.1664   -1.4126    1.9670 C   0  0  0  0  0  0  0  0  0  0  0  0
    1.1017   -2.2589    1.6437 C   0  0  0  0  0  0  0  0  0  0  0  0
    0.4887   -3.0583    2.6139 C   0  0  0  0  0  0  0  0  0  0  0  0
    0.9062   -3.0124    3.9460 C   0  0  0  0  0  0  0  0  0  0  0  0
    0.1166   -3.6080    5.0411 C   0  0  0  0  0  0  0  0  0  0  0  0
    0.7466   -4.2134    6.1519 C   0  0  0  0  0  0  0  0  0  0  0  0
    0.0714   -4.4339    7.3692 C   0  0  0  0  0  0  0  0  0  0  0  0
   -1.2321   -3.9808    7.5347 C   0  0  0  0  0  0  0  0  0  0  0  0
   -1.8431   -3.4248    6.4284 C   0  0  0  0  0  0  0  0  0  0  0  0
   -1.2410   -3.3359    5.1732 C   0  0  0  0  0  0  0  0  0  0  0  0
   -2.2304   -2.7297    4.2373 C   0  0  0  0  0  0  0  0  0  0  0  0
   -3.0851   -1.9880    5.1237 N   0  0  0  0  0  0  0  0  0  0  0  0
   -2.9570   -2.4629    6.4209 C   0  0  0  0  0  0  0  0  0  0  0  0
   -3.4930   -2.0134    7.4088 O   0  0  0  0  0  0  0  0  0  0  0  0
    2.0263   -2.2123    4.2471 C   0  0  0  0  0  0  0  0  0  0  0  0
    2.6613   -1.4366    3.2696 C   0  0  0  0  0  0  0  0  0  0  0  0
    2.9669    0.7909   -0.8259 N   0  0  0  0  0  0  0  0  0  0  0  0
    2.6225    1.4562   -2.0257 C   0  0  0  0  0  0  0  0  0  0  0  0
    1.3688    1.3575   -2.6512 C   0  0  0  0  0  0  0  0  0  0  0  0
    1.0906    2.0431   -3.8453 C   0  0  0  0  0  0  0  0  0  0  0  0
   -0.2629    1.9094   -4.5036 C   0  0  0  0  0  0  0  0  0  0  0  0
   -1.1229    1.0866   -3.8425 F   0  0  0  0  0  0  0  0  0  0  0  0
   -0.9025    3.1063   -4.6131 F   0  0  0  0  0  0  0  0  0  0  0  0
   -0.1737    1.4154   -5.7693 F   0  0  0  0  0  0  0  0  0  0  0  0
    2.0850    2.8509   -4.4136 C   0  0  0  0  0  0  0  0  0  0  0  0
    3.3355    2.9656   -3.7983 C   0  0  0  0  0  0  0  0  0  0  0  0
    3.5995    2.2729   -2.6231 C   0  0  0  0  0  0  0  0  0  0  0  0
    4.7992    2.3893   -2.0407 F   0  0  0  0  0  0  0  0  0  0  0  0
    3.5253    0.0361    1.3945 H   0  0  0  0  0  0  0  0  0  0  0  0
    0.6906   -2.3009    0.6383 H   0  0  0  0  0  0  0  0  0  0  0  0
   -0.3616   -3.6659    2.3145 H   0  0  0  0  0  0  0  0  0  0  0  0
    1.8107   -4.4433    6.1090 H   0  0  0  0  0  0  0  0  0  0  0  0
    0.6090   -4.8538    8.2159 H   0  0  0  0  0  0  0  0  0  0  0  0
   -1.7233   -3.9838    8.5015 H   0  0  0  0  0  0  0  0  0  0  0  0
   -2.8523   -3.5225    3.7973 H   0  0  0  0  0  0  0  0  0  0  0  0
   -1.8470   -2.0810    3.4529 H   0  0  0  0  0  0  0  0  0  0  0  0
   -3.0938   -0.9769    5.0698 H   0  0  0  0  0  0  0  0  0  0  0  0
    2.3777   -2.1273    5.2743 H   0  0  0  0  0  0  0  0  0  0  0  0
    3.4947   -0.8061    3.5658 H   0  0  0  0  0  0  0  0  0  0  0  0
    3.9144    0.9223   -0.5079 H   0  0  0  0  0  0  0  0  0  0  0  0
    0.5771    0.7450   -2.2322 H   0  0  0  0  0  0  0  0  0  0  0  0
    1.8857    3.3922   -5.3382 H   0  0  0  0  0  0  0  0  0  0  0  0
    4.1064    3.5924   -4.2326 H   0  0  0  0  0  0  0  0  0  0  0  0
  1  2  2  0  0  0  0
  2  3  1  0  0  0  0
  2 20  1  0  0  0  0
  3  4  1  0  0  0  0
  3 32  1  0  0  0  0
  4  5  1  0  0  0  0
  4 19  2  0  0  0  0
  5  6  2  0  0  0  0
  5 33  1  0  0  0  0
  6  7  1  0  0  0  0
  6 34  1  0  0  0  0
  7  8  1  0  0  0  0
  7 18  2  0  0  0  0
  8  9  1  0  0  0  0
  8 13  2  0  0  0  0
  9 10  2  0  0  0  0
  9 35  1  0  0  0  0
 10 11  1  0  0  0  0
 10 36  1  0  0  0  0
 11 12  2  0  0  0  0
 11 37  1  0  0  0  0
 12 13  1  0  0  0  0
 12 16  1  0  0  0  0
 13 14  1  0  0  0  0
 14 15  1  0  0  0  0
 14 38  1  0  0  0  0
 14 39  1  0  0  0  0
 15 16  1  0  0  0  0
 15 40  1  0  0  0  0
 16 17  2  0  0  0  0
 18 19  1  0  0  0  0
 18 41  1  0  0  0  0
 19 42  1  0  0  0  0
 20 21  1  0  0  0  0
 20 43  1  0  0  0  0
 21 22  1  0  0  0  0
 21 30  2  0  0  0  0
 22 23  2  0  0  0  0
 22 44  1  0  0  0  0
 23 24  1  0  0  0  0
 23 28  1  0  0  0  0
 24 25  1  0  0  0  0
 24 26  1  0  0  0  0
 24 27  1  0  0  0  0
 28 29  2  0  0  0  0
 28 45  1  0  0  0  0
 29 30  1  0  0  0  0
 29 46  1  0  0  0  0
 30 31  1  0  0  0  0
M  END
$$$$
