CHEMBL3911718
 OpenBabel04072215373D

 59 63  0  0  0  0  0  0  0  0999 V2000
    2.7906    0.7059   -2.4667 C   0  0  0  0  0  0  0  0  0  0  0  0
    1.3783    0.4784   -1.9869 C   0  0  0  0  0  0  0  0  0  0  0  0
    0.8503   -0.8094   -2.0414 C   0  0  0  0  0  0  0  0  0  0  0  0
   -0.4427   -1.0456   -1.5894 C   0  0  0  0  0  0  0  0  0  0  0  0
   -1.2117    0.0044   -1.0918 C   0  0  0  0  0  0  0  0  0  0  0  0
   -2.3917   -0.3488   -0.5693 F   0  0  0  0  0  0  0  0  0  0  0  0
   -0.7347    1.3252   -1.0539 C   0  0  0  0  0  0  0  0  0  0  0  0
   -1.4901    2.4541   -0.6036 N   0  0  0  0  0  0  0  0  0  0  0  0
   -2.8763    2.4917   -0.5171 C   0  0  0  0  0  0  0  0  0  0  0  0
   -3.6259    1.5836   -0.8521 O   0  0  0  0  0  0  0  0  0  0  0  0
   -3.3722    3.7203   -0.0722 N   0  0  0  0  0  0  0  0  0  0  0  0
   -4.7825    3.8420    0.0744 C   0  0  0  0  0  0  0  0  0  0  0  0
   -5.4725    2.9373    0.8866 C   0  0  0  0  0  0  0  0  0  0  0  0
   -6.8641    2.9668    0.9581 C   0  0  0  0  0  0  0  0  0  0  0  0
   -7.5841    3.9531    0.2795 C   0  0  0  0  0  0  0  0  0  0  0  0
   -8.9567    4.0877    0.3597 O   0  0  0  0  0  0  0  0  0  0  0  0
   -9.5882    3.7894    1.5562 C   0  0  0  0  0  0  0  0  0  0  0  0
   -8.9798    3.9632    2.8021 C   0  0  0  0  0  0  0  0  0  0  0  0
   -9.6377    3.5468    3.9397 C   0  0  0  0  0  0  0  0  0  0  0  0
  -10.8835    3.0498    3.9711 N   0  0  0  0  0  0  0  0  0  0  0  0
  -11.5201    2.9712    2.7721 C   0  0  0  0  0  0  0  0  0  0  0  0
  -12.8558    2.5164    2.5980 C   0  0  0  0  0  0  0  0  0  0  0  0
  -13.2761    2.5630    1.2832 C   0  0  0  0  0  0  0  0  0  0  0  0
  -14.5980    2.2171    0.7818 C   0  0  0  0  0  0  0  0  0  0  0  0
  -15.5072    1.8309    1.5107 O   0  0  0  0  0  0  0  0  0  0  0  0
  -14.7806    2.3648   -0.5785 N   0  0  0  0  0  0  0  0  0  0  0  0
  -16.0529    2.1083   -1.2325 C   0  0  0  0  0  0  0  0  0  0  0  0
  -16.9625    3.3357   -1.2458 C   0  0  0  0  0  0  0  0  0  0  0  0
  -18.2491    3.0634   -1.9245 C   0  0  0  0  0  0  0  0  0  0  0  0
  -18.3307    2.6618   -3.2316 N   0  0  0  0  0  0  0  0  0  0  0  0
  -19.6224    2.5377   -3.5033 N   0  0  0  0  0  0  0  0  0  0  0  0
  -20.2443    2.8709   -2.3646 N   0  0  0  0  0  0  0  0  0  0  0  0
  -19.4467    3.2163   -1.3414 N   0  0  0  0  0  0  0  0  0  0  0  0
  -12.0137    3.1060    0.2562 S   0  0  0  0  0  0  0  0  0  0  0  0
  -10.9188    3.3293    1.5633 C   0  0  0  0  0  0  0  0  0  0  0  0
   -6.9022    4.8464   -0.5511 C   0  0  0  0  0  0  0  0  0  0  0  0
   -5.4999    4.8050   -0.6407 C   0  0  0  0  0  0  0  0  0  0  0  0
    0.5950    1.5408   -1.4887 C   0  0  0  0  0  0  0  0  0  0  0  0
    3.2449   -0.2322   -2.8060 H   0  0  0  0  0  0  0  0  0  0  0  0
    3.4118    1.0941   -1.6544 H   0  0  0  0  0  0  0  0  0  0  0  0
    2.8028    1.4004   -3.3102 H   0  0  0  0  0  0  0  0  0  0  0  0
    1.4378   -1.6458   -2.4188 H   0  0  0  0  0  0  0  0  0  0  0  0
   -0.8613   -2.0457   -1.6023 H   0  0  0  0  0  0  0  0  0  0  0  0
   -0.9911    3.3155   -0.4435 H   0  0  0  0  0  0  0  0  0  0  0  0
   -2.8939    4.5242   -0.4490 H   0  0  0  0  0  0  0  0  0  0  0  0
   -4.9325    2.1851    1.4567 H   0  0  0  0  0  0  0  0  0  0  0  0
   -7.3646    2.2185    1.5662 H   0  0  0  0  0  0  0  0  0  0  0  0
   -7.9795    4.3704    2.8936 H   0  0  0  0  0  0  0  0  0  0  0  0
   -9.1364    3.5952    4.9040 H   0  0  0  0  0  0  0  0  0  0  0  0
  -13.4950    2.1928    3.4173 H   0  0  0  0  0  0  0  0  0  0  0  0
  -13.9962    2.6873   -1.1306 H   0  0  0  0  0  0  0  0  0  0  0  0
  -16.5490    1.2712   -0.7277 H   0  0  0  0  0  0  0  0  0  0  0  0
  -15.8181    1.7886   -2.2537 H   0  0  0  0  0  0  0  0  0  0  0  0
  -16.4601    4.1626   -1.7637 H   0  0  0  0  0  0  0  0  0  0  0  0
  -17.1429    3.6799   -0.2201 H   0  0  0  0  0  0  0  0  0  0  0  0
  -21.2571    2.8600   -2.2833 H   0  0  0  0  0  0  0  0  0  0  0  0
   -7.4636    5.5667   -1.1420 H   0  0  0  0  0  0  0  0  0  0  0  0
   -4.9985    5.4809   -1.3268 H   0  0  0  0  0  0  0  0  0  0  0  0
    1.0156    2.5436   -1.4731 H   0  0  0  0  0  0  0  0  0  0  0  0
  1  2  1  0  0  0  0
  1 39  1  0  0  0  0
  1 40  1  0  0  0  0
  1 41  1  0  0  0  0
  2  3  1  0  0  0  0
  2 38  2  0  0  0  0
  3  4  2  0  0  0  0
  3 42  1  0  0  0  0
  4  5  1  0  0  0  0
  4 43  1  0  0  0  0
  5  6  1  0  0  0  0
  5  7  2  0  0  0  0
  7  8  1  0  0  0  0
  7 38  1  0  0  0  0
  8  9  1  0  0  0  0
  8 44  1  0  0  0  0
  9 10  2  0  0  0  0
  9 11  1  0  0  0  0
 11 12  1  0  0  0  0
 11 45  1  0  0  0  0
 12 13  1  0  0  0  0
 12 37  2  0  0  0  0
 13 14  2  0  0  0  0
 13 46  1  0  0  0  0
 14 15  1  0  0  0  0
 14 47  1  0  0  0  0
 15 16  1  0  0  0  0
 15 36  2  0  0  0  0
 16 17  1  0  0  0  0
 17 18  1  0  0  0  0
 17 35  2  0  0  0  0
 18 19  2  0  0  0  0
 18 48  1  0  0  0  0
 19 20  1  0  0  0  0
 19 49  1  0  0  0  0
 20 21  2  0  0  0  0
 21 22  1  0  0  0  0
 21 35  1  0  0  0  0
 22 23  2  0  0  0  0
 22 50  1  0  0  0  0
 23 24  1  0  0  0  0
 23 34  1  0  0  0  0
 24 25  2  0  0  0  0
 24 26  1  0  0  0  0
 26 27  1  0  0  0  0
 26 51  1  0  0  0  0
 27 28  1  0  0  0  0
 27 52  1  0  0  0  0
 27 53  1  0  0  0  0
 28 29  1  0  0  0  0
 28 54  1  0  0  0  0
 28 55  1  0  0  0  0
 29 30  1  0  0  0  0
 29 33  2  0  0  0  0
 30 31  2  0  0  0  0
 31 32  1  0  0  0  0
 32 33  1  0  0  0  0
 32 56  1  0  0  0  0
 34 35  1  0  0  0  0
 36 37  1  0  0  0  0
 36 57  1  0  0  0  0
 37 58  1  0  0  0  0
 38 59  1  0  0  0  0
M  END
$$$$
