CHEMBL400061
 OpenBabel04072215373D

 40 43  0  0  0  0  0  0  0  0999 V2000
    0.9968   -0.3173    0.1322 C   0  0  0  0  0  0  0  0  0  0  0  0
    2.3951   -0.0909   -0.0107 O   0  0  0  0  0  0  0  0  0  0  0  0
    3.0263    0.5085    1.0541 C   0  0  0  0  0  0  0  0  0  0  0  0
    2.5907    0.3561    2.3699 C   0  0  0  0  0  0  0  0  0  0  0  0
    3.2766    0.9494    3.4315 C   0  0  0  0  0  0  0  0  0  0  0  0
    4.4246    1.7033    3.1493 C   0  0  0  0  0  0  0  0  0  0  0  0
    4.9146    1.8712    1.8449 C   0  0  0  0  0  0  0  0  0  0  0  0
    6.1108    2.6555    1.9714 C   0  0  0  0  0  0  0  0  0  0  0  0
    7.0782    2.9659    0.9728 C   0  0  0  0  0  0  0  0  0  0  0  0
    7.1626    4.0689    0.2172 C   0  0  0  0  0  0  0  0  0  0  0  0
    6.2378    5.2210    0.1713 C   0  0  0  0  0  0  0  0  0  0  0  0
    5.3592    5.5365    0.9453 O   0  0  0  0  0  0  0  0  0  0  0  0
    6.6358    5.8793   -0.9836 N   0  0  0  0  0  0  0  0  0  0  0  0
    7.7657    5.3728   -1.5905 N   0  0  0  0  0  0  0  0  0  0  0  0
    8.1298    4.3299   -0.8798 C   0  0  0  0  0  0  0  0  0  0  0  0
    9.3398    3.6173   -1.1652 C   0  0  0  0  0  0  0  0  0  0  0  0
   10.3800    3.0527    0.0778 S   0  0  0  0  0  0  0  0  0  0  0  0
   11.5032    2.4426   -0.9896 N   0  0  0  0  0  0  0  0  0  0  0  0
   11.1872    2.6732   -2.2504 N   0  0  0  0  0  0  0  0  0  0  0  0
    9.9814    3.3594   -2.3708 C   0  0  0  0  0  0  0  0  0  0  0  0
    9.5249    3.7165   -3.7376 C   0  0  0  0  0  0  0  0  0  0  0  0
    6.2905    2.9635    3.3017 C   0  0  0  0  0  0  0  0  0  0  0  0
    5.2817    2.3647    4.0052 N   0  0  0  0  0  0  0  0  0  0  0  0
    5.1684    2.3589    5.4478 C   0  0  0  0  0  0  0  0  0  0  0  0
    4.1998    1.2494    0.7843 C   0  0  0  0  0  0  0  0  0  0  0  0
    4.8044    1.4313   -1.0168 Br  0  0  0  0  0  0  0  0  0  0  0  0
    0.6138   -0.6638   -0.8328 H   0  0  0  0  0  0  0  0  0  0  0  0
    0.4697    0.6077    0.3912 H   0  0  0  0  0  0  0  0  0  0  0  0
    0.7904   -1.1058    0.8627 H   0  0  0  0  0  0  0  0  0  0  0  0
    1.7227   -0.2472    2.6151 H   0  0  0  0  0  0  0  0  0  0  0  0
    2.9274    0.8095    4.4506 H   0  0  0  0  0  0  0  0  0  0  0  0
    7.7790    2.1562    0.7988 H   0  0  0  0  0  0  0  0  0  0  0  0
    6.2076    6.7355   -1.3165 H   0  0  0  0  0  0  0  0  0  0  0  0
   10.2236    3.3380   -4.4916 H   0  0  0  0  0  0  0  0  0  0  0  0
    9.4658    4.8026   -3.8542 H   0  0  0  0  0  0  0  0  0  0  0  0
    8.5416    3.2830   -3.9429 H   0  0  0  0  0  0  0  0  0  0  0  0
    7.0692    3.5218    3.8054 H   0  0  0  0  0  0  0  0  0  0  0  0
    6.0075    2.9062    5.8854 H   0  0  0  0  0  0  0  0  0  0  0  0
    5.1936    1.3194    5.7896 H   0  0  0  0  0  0  0  0  0  0  0  0
    4.2252    2.8335    5.7252 H   0  0  0  0  0  0  0  0  0  0  0  0
  1  2  1  0  0  0  0
  1 27  1  0  0  0  0
  1 28  1  0  0  0  0
  1 29  1  0  0  0  0
  2  3  1  0  0  0  0
  3  4  1  0  0  0  0
  3 25  2  0  0  0  0
  4  5  2  0  0  0  0
  4 30  1  0  0  0  0
  5  6  1  0  0  0  0
  5 31  1  0  0  0  0
  6  7  2  0  0  0  0
  6 23  1  0  0  0  0
  7  8  1  0  0  0  0
  7 25  1  0  0  0  0
  8  9  1  0  0  0  0
  8 22  2  0  0  0  0
  9 10  2  0  0  0  0
  9 32  1  0  0  0  0
 10 11  1  0  0  0  0
 10 15  1  0  0  0  0
 11 12  2  0  0  0  0
 11 13  1  0  0  0  0
 13 14  1  0  0  0  0
 13 33  1  0  0  0  0
 14 15  2  0  0  0  0
 15 16  1  0  0  0  0
 16 17  1  0  0  0  0
 16 20  2  0  0  0  0
 17 18  1  0  0  0  0
 18 19  2  0  0  0  0
 19 20  1  0  0  0  0
 20 21  1  0  0  0  0
 21 34  1  0  0  0  0
 21 35  1  0  0  0  0
 21 36  1  0  0  0  0
 22 23  1  0  0  0  0
 22 37  1  0  0  0  0
 23 24  1  0  0  0  0
 24 38  1  0  0  0  0
 24 39  1  0  0  0  0
 24 40  1  0  0  0  0
 25 26  1  0  0  0  0
M  END
$$$$
