CHEMBL402550
 OpenBabel04072215373D

 52 56  0  0  0  0  0  0  0  0999 V2000
    5.0045   -4.7024    5.0665 O   0  0  0  0  0  0  0  0  0  0  0  0
    4.3737   -4.4532    4.0393 C   0  0  0  0  0  0  0  0  0  0  0  0
    3.1024   -5.1651    3.6312 C   0  0  0  0  0  0  0  0  0  0  0  0
    2.6713   -6.2493    4.5863 C   0  0  0  0  0  0  0  0  0  0  0  0
    1.7711   -5.9603    5.6207 C   0  0  0  0  0  0  0  0  0  0  0  0
    1.3696   -6.9610    6.5023 C   0  0  0  0  0  0  0  0  0  0  0  0
    1.8661   -8.2560    6.3623 C   0  0  0  0  0  0  0  0  0  0  0  0
    2.7762   -8.5478    5.3476 C   0  0  0  0  0  0  0  0  0  0  0  0
    3.1811   -7.5489    4.4632 C   0  0  0  0  0  0  0  0  0  0  0  0
    4.8607   -3.4423    3.2236 N   0  0  0  0  0  0  0  0  0  0  0  0
    4.4453   -2.7395    2.0926 C   0  0  0  0  0  0  0  0  0  0  0  0
    3.0064   -2.8646    1.2646 S   0  0  0  0  0  0  0  0  0  0  0  0
    5.3233   -1.7545    1.6971 N   0  0  0  0  0  0  0  0  0  0  0  0
    6.7258   -1.7667    1.7889 C   0  0  0  0  0  0  0  0  0  0  0  0
    7.3944   -0.5427    1.7620 C   0  0  0  0  0  0  0  0  0  0  0  0
    8.7866   -0.5071    1.8634 C   0  0  0  0  0  0  0  0  0  0  0  0
    9.5109   -1.6942    2.0172 C   0  0  0  0  0  0  0  0  0  0  0  0
   10.8737   -1.7527    2.1758 O   0  0  0  0  0  0  0  0  0  0  0  0
   11.5148   -0.7515    2.8708 C   0  0  0  0  0  0  0  0  0  0  0  0
   10.9679   -0.0995    3.9778 C   0  0  0  0  0  0  0  0  0  0  0  0
   11.6745    0.9282    4.5666 C   0  0  0  0  0  0  0  0  0  0  0  0
   12.9061    1.3235    4.2038 N   0  0  0  0  0  0  0  0  0  0  0  0
   13.4844    0.6104    3.2014 C   0  0  0  0  0  0  0  0  0  0  0  0
   14.8188    0.7955    2.7417 C   0  0  0  0  0  0  0  0  0  0  0  0
   15.1877   -0.1092    1.7652 C   0  0  0  0  0  0  0  0  0  0  0  0
   16.4871   -0.2942    1.1604 C   0  0  0  0  0  0  0  0  0  0  0  0
   16.7124   -1.1653    0.1966 N   0  0  0  0  0  0  0  0  0  0  0  0
   18.0537   -1.1797   -0.1303 C   0  0  0  0  0  0  0  0  0  0  0  0
   18.8469   -0.3074    0.5800 C   0  0  0  0  0  0  0  0  0  0  0  0
   17.8842    0.5719    1.6877 S   0  0  0  0  0  0  0  0  0  0  0  0
   13.8536   -1.0935    1.3183 S   0  0  0  0  0  0  0  0  0  0  0  0
   12.8314   -0.4134    2.5206 C   0  0  0  0  0  0  0  0  0  0  0  0
    8.8395   -2.9121    1.9610 C   0  0  0  0  0  0  0  0  0  0  0  0
    9.5187   -4.0663    2.0213 F   0  0  0  0  0  0  0  0  0  0  0  0
    7.4561   -2.9563    1.8488 C   0  0  0  0  0  0  0  0  0  0  0  0
    3.2472   -5.6044    2.6382 H   0  0  0  0  0  0  0  0  0  0  0  0
    2.2938   -4.4298    3.5720 H   0  0  0  0  0  0  0  0  0  0  0  0
    1.3825   -4.9520    5.7479 H   0  0  0  0  0  0  0  0  0  0  0  0
    0.6717   -6.7290    7.3033 H   0  0  0  0  0  0  0  0  0  0  0  0
    1.5553   -9.0351    7.0518 H   0  0  0  0  0  0  0  0  0  0  0  0
    3.1750   -9.5529    5.2474 H   0  0  0  0  0  0  0  0  0  0  0  0
    3.9009   -7.7869    3.6842 H   0  0  0  0  0  0  0  0  0  0  0  0
    5.6877   -3.0556    3.6621 H   0  0  0  0  0  0  0  0  0  0  0  0
    4.9025   -0.9857    1.1824 H   0  0  0  0  0  0  0  0  0  0  0  0
    6.8442    0.3935    1.7059 H   0  0  0  0  0  0  0  0  0  0  0  0
    9.2880    0.4571    1.8431 H   0  0  0  0  0  0  0  0  0  0  0  0
    9.9897   -0.3659    4.3678 H   0  0  0  0  0  0  0  0  0  0  0  0
   11.2411    1.4855    5.3927 H   0  0  0  0  0  0  0  0  0  0  0  0
   15.4802    1.5385    3.1677 H   0  0  0  0  0  0  0  0  0  0  0  0
   18.4035   -1.8583   -0.8985 H   0  0  0  0  0  0  0  0  0  0  0  0
   19.9131   -0.1509    0.5049 H   0  0  0  0  0  0  0  0  0  0  0  0
    6.9835   -3.9310    1.7721 H   0  0  0  0  0  0  0  0  0  0  0  0
  1  2  2  0  0  0  0
  2  3  1  0  0  0  0
  2 10  1  0  0  0  0
  3  4  1  0  0  0  0
  3 36  1  0  0  0  0
  3 37  1  0  0  0  0
  4  5  1  0  0  0  0
  4  9  2  0  0  0  0
  5  6  2  0  0  0  0
  5 38  1  0  0  0  0
  6  7  1  0  0  0  0
  6 39  1  0  0  0  0
  7  8  2  0  0  0  0
  7 40  1  0  0  0  0
  8  9  1  0  0  0  0
  8 41  1  0  0  0  0
  9 42  1  0  0  0  0
 10 11  1  0  0  0  0
 10 43  1  0  0  0  0
 11 12  2  0  0  0  0
 11 13  1  0  0  0  0
 13 14  1  0  0  0  0
 13 44  1  0  0  0  0
 14 15  1  0  0  0  0
 14 35  2  0  0  0  0
 15 16  2  0  0  0  0
 15 45  1  0  0  0  0
 16 17  1  0  0  0  0
 16 46  1  0  0  0  0
 17 18  1  0  0  0  0
 17 33  2  0  0  0  0
 18 19  1  0  0  0  0
 19 20  1  0  0  0  0
 19 32  2  0  0  0  0
 20 21  2  0  0  0  0
 20 47  1  0  0  0  0
 21 22  1  0  0  0  0
 21 48  1  0  0  0  0
 22 23  2  0  0  0  0
 23 24  1  0  0  0  0
 23 32  1  0  0  0  0
 24 25  2  0  0  0  0
 24 49  1  0  0  0  0
 25 26  1  0  0  0  0
 25 31  1  0  0  0  0
 26 27  2  0  0  0  0
 26 30  1  0  0  0  0
 27 28  1  0  0  0  0
 28 29  2  0  0  0  0
 28 50  1  0  0  0  0
 29 30  1  0  0  0  0
 29 51  1  0  0  0  0
 31 32  1  0  0  0  0
 33 34  1  0  0  0  0
 33 35  1  0  0  0  0
 35 52  1  0  0  0  0
M  END
$$$$
