CHEMBL386996
 OpenBabel04072215373D

 67 71  0  0  0  0  0  0  0  0999 V2000
    2.8450    1.9742    1.4934 C   0  0  0  0  0  0  0  0  0  0  0  0
    3.7812    1.9554    2.6722 C   0  0  0  0  0  0  0  0  0  0  0  0
    4.1506    3.0122    3.1823 O   0  0  0  0  0  0  0  0  0  0  0  0
    4.1633    0.7188    3.1584 N   0  0  0  0  0  0  0  0  0  0  0  0
    3.7855   -0.5829    2.5992 C   0  0  0  0  0  0  0  0  0  0  0  0
    3.1346   -1.4731    3.6759 C   0  0  0  0  0  0  0  0  0  0  0  0
    3.9221   -1.6045    4.9231 N   0  0  0  0  0  0  0  0  0  0  0  0
    5.1562   -2.4026    4.7806 C   0  0  0  0  0  0  0  0  0  0  0  0
    4.8766   -3.8564    4.4165 C   0  0  0  0  0  0  0  0  0  0  0  0
    6.0646   -4.6478    4.5872 O   0  0  0  0  0  0  0  0  0  0  0  0
    5.8309   -5.9944    4.6906 C   0  0  0  0  0  0  0  0  0  0  0  0
    4.6395   -6.5910    4.3240 C   0  0  0  0  0  0  0  0  0  0  0  0
    4.4270   -7.9618    4.4350 C   0  0  0  0  0  0  0  0  0  0  0  0
    3.2425   -8.5239    4.0087 O   0  0  0  0  0  0  0  0  0  0  0  0
    2.4527   -7.8555    2.9951 C   0  0  0  0  0  0  0  0  0  0  0  0
    1.5271   -6.7672    3.5701 C   0  0  0  0  0  0  0  0  0  0  0  0
    3.2401   -7.4354    1.7386 C   0  0  0  0  0  0  0  0  0  0  0  0
    5.4445   -8.7809    5.0094 C   0  0  0  0  0  0  0  0  0  0  0  0
    5.4079  -10.1820    5.2623 C   0  0  0  0  0  0  0  0  0  0  0  0
    4.2535  -10.9230    4.9421 N   0  0  0  0  0  0  0  0  0  0  0  0
    4.1280  -12.3151    4.7668 C   0  0  0  0  0  0  0  0  0  0  0  0
    5.0944  -13.1350    4.1590 C   0  0  0  0  0  0  0  0  0  0  0  0
    6.2536  -12.6209    3.7191 F   0  0  0  0  0  0  0  0  0  0  0  0
    4.8619  -14.5013    3.9056 C   0  0  0  0  0  0  0  0  0  0  0  0
    3.6452  -15.0911    4.2493 C   0  0  0  0  0  0  0  0  0  0  0  0
    2.6979  -14.2820    4.8355 C   0  0  0  0  0  0  0  0  0  0  0  0
    2.9312  -12.9448    5.0855 C   0  0  0  0  0  0  0  0  0  0  0  0
    1.8450  -12.3362    5.6511 O   0  0  0  0  0  0  0  0  0  0  0  0
    0.8768  -13.4028    5.5881 C   0  0  0  0  0  0  0  0  0  0  0  0
    1.4451  -14.6685    5.1977 O   0  0  0  0  0  0  0  0  0  0  0  0
    6.4403  -10.8393    5.8267 N   0  0  0  0  0  0  0  0  0  0  0  0
    7.5267  -10.1286    6.1174 C   0  0  0  0  0  0  0  0  0  0  0  0
    7.6903   -8.8200    5.9092 N   0  0  0  0  0  0  0  0  0  0  0  0
    6.6631   -8.1689    5.3647 C   0  0  0  0  0  0  0  0  0  0  0  0
    6.8456   -6.8005    5.1729 C   0  0  0  0  0  0  0  0  0  0  0  0
    4.2472   -0.2509    5.4313 C   0  0  0  0  0  0  0  0  0  0  0  0
    4.9480    0.6500    4.3942 C   0  0  0  0  0  0  0  0  0  0  0  0
    2.6927    3.0092    1.1731 H   0  0  0  0  0  0  0  0  0  0  0  0
    1.8769    1.5588    1.7878 H   0  0  0  0  0  0  0  0  0  0  0  0
    3.2656    1.4197    0.6516 H   0  0  0  0  0  0  0  0  0  0  0  0
    4.6993   -1.0522    2.2166 H   0  0  0  0  0  0  0  0  0  0  0  0
    3.0999   -0.4797    1.7559 H   0  0  0  0  0  0  0  0  0  0  0  0
    2.8871   -2.4534    3.2546 H   0  0  0  0  0  0  0  0  0  0  0  0
    2.1655   -1.0294    3.9437 H   0  0  0  0  0  0  0  0  0  0  0  0
    5.6850   -2.4099    5.7423 H   0  0  0  0  0  0  0  0  0  0  0  0
    5.8581   -1.9810    4.0531 H   0  0  0  0  0  0  0  0  0  0  0  0
    4.5530   -3.9245    3.3699 H   0  0  0  0  0  0  0  0  0  0  0  0
    4.0796   -4.2102    5.0840 H   0  0  0  0  0  0  0  0  0  0  0  0
    3.8701   -5.9716    3.8995 H   0  0  0  0  0  0  0  0  0  0  0  0
    1.7659   -8.6320    2.6354 H   0  0  0  0  0  0  0  0  0  0  0  0
    1.9311   -6.2475    4.4428 H   0  0  0  0  0  0  0  0  0  0  0  0
    0.5965   -7.2255    3.9234 H   0  0  0  0  0  0  0  0  0  0  0  0
    1.2531   -6.0234    2.8140 H   0  0  0  0  0  0  0  0  0  0  0  0
    4.2368   -7.0328    1.9304 H   0  0  0  0  0  0  0  0  0  0  0  0
    2.6944   -6.6943    1.1465 H   0  0  0  0  0  0  0  0  0  0  0  0
    3.4087   -8.3133    1.1061 H   0  0  0  0  0  0  0  0  0  0  0  0
    3.4386  -10.5137    5.3915 H   0  0  0  0  0  0  0  0  0  0  0  0
    5.6336  -15.0826    3.4087 H   0  0  0  0  0  0  0  0  0  0  0  0
    3.4422  -16.1350    4.0381 H   0  0  0  0  0  0  0  0  0  0  0  0
    0.1111  -13.1246    4.8538 H   0  0  0  0  0  0  0  0  0  0  0  0
    0.3997  -13.5141    6.5677 H   0  0  0  0  0  0  0  0  0  0  0  0
    8.3536  -10.6546    6.5805 H   0  0  0  0  0  0  0  0  0  0  0  0
    7.8055   -6.3509    5.4220 H   0  0  0  0  0  0  0  0  0  0  0  0
    4.8532   -0.3253    6.3417 H   0  0  0  0  0  0  0  0  0  0  0  0
    3.3064    0.2264    5.7365 H   0  0  0  0  0  0  0  0  0  0  0  0
    5.9368    0.2548    4.1344 H   0  0  0  0  0  0  0  0  0  0  0  0
    5.1014    1.6427    4.8270 H   0  0  0  0  0  0  0  0  0  0  0  0
  1  2  1  0  0  0  0
  1 38  1  0  0  0  0
  1 39  1  0  0  0  0
  1 40  1  0  0  0  0
  2  3  2  0  0  0  0
  2  4  1  0  0  0  0
  4  5  1  0  0  0  0
  4 37  1  0  0  0  0
  5  6  1  0  0  0  0
  5 41  1  0  0  0  0
  5 42  1  0  0  0  0
  6  7  1  0  0  0  0
  6 43  1  0  0  0  0
  6 44  1  0  0  0  0
  7  8  1  0  0  0  0
  7 36  1  0  0  0  0
  8  9  1  0  0  0  0
  8 45  1  0  0  0  0
  8 46  1  0  0  0  0
  9 10  1  0  0  0  0
  9 47  1  0  0  0  0
  9 48  1  0  0  0  0
 10 11  1  0  0  0  0
 11 12  1  0  0  0  0
 11 35  2  0  0  0  0
 12 13  2  0  0  0  0
 12 49  1  0  0  0  0
 13 14  1  0  0  0  0
 13 18  1  0  0  0  0
 14 15  1  0  0  0  0
 15 16  1  0  0  0  0
 15 17  1  0  0  0  0
 15 50  1  0  0  0  0
 16 51  1  0  0  0  0
 16 52  1  0  0  0  0
 16 53  1  0  0  0  0
 17 54  1  0  0  0  0
 17 55  1  0  0  0  0
 17 56  1  0  0  0  0
 18 19  1  0  0  0  0
 18 34  2  0  0  0  0
 19 20  1  0  0  0  0
 19 31  2  0  0  0  0
 20 21  1  0  0  0  0
 20 57  1  0  0  0  0
 21 22  1  0  0  0  0
 21 27  2  0  0  0  0
 22 23  1  0  0  0  0
 22 24  2  0  0  0  0
 24 25  1  0  0  0  0
 24 58  1  0  0  0  0
 25 26  2  0  0  0  0
 25 59  1  0  0  0  0
 26 27  1  0  0  0  0
 26 30  1  0  0  0  0
 27 28  1  0  0  0  0
 28 29  1  0  0  0  0
 29 30  1  0  0  0  0
 29 60  1  0  0  0  0
 29 61  1  0  0  0  0
 31 32  1  0  0  0  0
 32 33  2  0  0  0  0
 32 62  1  0  0  0  0
 33 34  1  0  0  0  0
 34 35  1  0  0  0  0
 35 63  1  0  0  0  0
 36 37  1  0  0  0  0
 36 64  1  0  0  0  0
 36 65  1  0  0  0  0
 37 66  1  0  0  0  0
 37 67  1  0  0  0  0
M  END
$$$$
