CHEMBL3979328
 OpenBabel04072215373D

 63 66  0  0  0  0  0  0  0  0999 V2000
    1.8661    4.7107   -1.6920 C   0  0  0  0  0  0  0  0  0  0  0  0
    2.2358    3.8349   -2.7647 O   0  0  0  0  0  0  0  0  0  0  0  0
    2.8308    2.6522   -2.3833 C   0  0  0  0  0  0  0  0  0  0  0  0
    2.5513    2.0637   -1.1618 C   0  0  0  0  0  0  0  0  0  0  0  0
    3.3075    0.9930   -0.7089 C   0  0  0  0  0  0  0  0  0  0  0  0
    2.9114    0.5891    0.5411 O   0  0  0  0  0  0  0  0  0  0  0  0
    3.0263   -0.7892    0.8750 C   0  0  0  0  0  0  0  0  0  0  0  0
    4.4316    0.5734   -1.4613 C   0  0  0  0  0  0  0  0  0  0  0  0
    5.7300   -0.1284   -0.5208 Cl  0  0  0  0  0  0  0  0  0  0  0  0
    4.6222    0.9690   -2.8304 C   0  0  0  0  0  0  0  0  0  0  0  0
    5.6088    0.3937   -3.7214 N   0  0  0  0  0  0  0  0  0  0  0  0
    6.1896   -0.9590   -3.4477 C   0  0  0  0  0  0  0  0  0  0  0  0
    5.2219   -2.1281   -3.1539 C   0  0  0  0  0  0  0  0  0  0  0  0
    4.0090   -2.2733   -3.9735 N   0  0  0  0  0  0  0  0  0  0  0  0
    3.2052   -3.4308   -3.5239 C   0  0  0  0  0  0  0  0  0  0  0  0
    2.6603   -3.2329   -2.1071 C   0  0  0  0  0  0  0  0  0  0  0  0
    2.0315   -3.6667   -4.4744 C   0  0  0  0  0  0  0  0  0  0  0  0
    6.3866    1.0915   -4.7239 C   0  0  0  0  0  0  0  0  0  0  0  0
    6.6739    2.4588   -4.6380 C   0  0  0  0  0  0  0  0  0  0  0  0
    7.3585    3.1239   -5.6732 C   0  0  0  0  0  0  0  0  0  0  0  0
    7.8591    2.4435   -6.7739 C   0  0  0  0  0  0  0  0  0  0  0  0
    8.5323    3.0997   -7.7422 N   0  0  0  0  0  0  0  0  0  0  0  0
    9.0466    2.3386   -8.7404 C   0  0  0  0  0  0  0  0  0  0  0  0
    8.9168    0.9592   -8.7896 C   0  0  0  0  0  0  0  0  0  0  0  0
    9.5971    0.1522   -9.7866 C   0  0  0  0  0  0  0  0  0  0  0  0
   10.4257    0.5227  -10.8735 C   0  0  0  0  0  0  0  0  0  0  0  0
   10.9224   -0.5223  -11.5376 N   0  0  0  0  0  0  0  0  0  0  0  0
   10.4210   -1.5808  -10.8695 N   0  0  0  0  0  0  0  0  0  0  0  0
   10.7827   -2.9176  -11.2712 C   0  0  0  0  0  0  0  0  0  0  0  0
    9.6175   -1.2286   -9.8232 C   0  0  0  0  0  0  0  0  0  0  0  0
    8.1905    0.3068   -7.8462 N   0  0  0  0  0  0  0  0  0  0  0  0
    7.6552    1.0536   -6.8535 C   0  0  0  0  0  0  0  0  0  0  0  0
    6.8875    0.4317   -5.8690 C   0  0  0  0  0  0  0  0  0  0  0  0
    3.7276    2.0066   -3.2703 C   0  0  0  0  0  0  0  0  0  0  0  0
    3.5762    2.4774   -4.9477 Cl  0  0  0  0  0  0  0  0  0  0  0  0
    1.7609    5.7253   -2.0892 H   0  0  0  0  0  0  0  0  0  0  0  0
    2.6238    4.7509   -0.8978 H   0  0  0  0  0  0  0  0  0  0  0  0
    0.8966    4.4107   -1.2814 H   0  0  0  0  0  0  0  0  0  0  0  0
    1.7587    2.4425   -0.5231 H   0  0  0  0  0  0  0  0  0  0  0  0
    2.0911   -1.1135    1.3463 H   0  0  0  0  0  0  0  0  0  0  0  0
    3.8213   -0.8968    1.6171 H   0  0  0  0  0  0  0  0  0  0  0  0
    3.2073   -1.4433    0.0210 H   0  0  0  0  0  0  0  0  0  0  0  0
    6.9378   -0.8773   -2.6521 H   0  0  0  0  0  0  0  0  0  0  0  0
    6.7992   -1.3323   -4.2739 H   0  0  0  0  0  0  0  0  0  0  0  0
    4.9458   -2.0718   -2.1070 H   0  0  0  0  0  0  0  0  0  0  0  0
    5.8114   -3.0512   -3.2520 H   0  0  0  0  0  0  0  0  0  0  0  0
    4.2581   -2.3733   -4.9536 H   0  0  0  0  0  0  0  0  0  0  0  0
    3.8305   -4.3323   -3.5427 H   0  0  0  0  0  0  0  0  0  0  0  0
    2.1345   -2.2755   -2.0169 H   0  0  0  0  0  0  0  0  0  0  0  0
    3.4594   -3.2624   -1.3601 H   0  0  0  0  0  0  0  0  0  0  0  0
    1.9625   -4.0302   -1.8364 H   0  0  0  0  0  0  0  0  0  0  0  0
    1.3822   -2.7876   -4.5399 H   0  0  0  0  0  0  0  0  0  0  0  0
    1.4200   -4.5056   -4.1186 H   0  0  0  0  0  0  0  0  0  0  0  0
    2.3773   -3.9192   -5.4813 H   0  0  0  0  0  0  0  0  0  0  0  0
    6.3351    3.0490   -3.7909 H   0  0  0  0  0  0  0  0  0  0  0  0
    7.5015    4.2002   -5.6123 H   0  0  0  0  0  0  0  0  0  0  0  0
    9.5868    2.8947   -9.5004 H   0  0  0  0  0  0  0  0  0  0  0  0
   10.7012    1.5130  -11.2123 H   0  0  0  0  0  0  0  0  0  0  0  0
   11.3766   -2.8731  -12.1942 H   0  0  0  0  0  0  0  0  0  0  0  0
    9.8658   -3.4886  -11.4529 H   0  0  0  0  0  0  0  0  0  0  0  0
   11.3754   -3.3746  -10.4766 H   0  0  0  0  0  0  0  0  0  0  0  0
    9.1510   -1.9742   -9.1912 H   0  0  0  0  0  0  0  0  0  0  0  0
    6.6730   -0.6154   -6.0531 H   0  0  0  0  0  0  0  0  0  0  0  0
  1  2  1  0  0  0  0
  1 36  1  0  0  0  0
  1 37  1  0  0  0  0
  1 38  1  0  0  0  0
  2  3  1  0  0  0  0
  3  4  1  0  0  0  0
  3 34  2  0  0  0  0
  4  5  2  0  0  0  0
  4 39  1  0  0  0  0
  5  6  1  0  0  0  0
  5  8  1  0  0  0  0
  6  7  1  0  0  0  0
  7 40  1  0  0  0  0
  7 41  1  0  0  0  0
  7 42  1  0  0  0  0
  8  9  1  0  0  0  0
  8 10  2  0  0  0  0
 10 11  1  0  0  0  0
 10 34  1  0  0  0  0
 11 12  1  0  0  0  0
 11 18  1  0  0  0  0
 12 13  1  0  0  0  0
 12 43  1  0  0  0  0
 12 44  1  0  0  0  0
 13 14  1  0  0  0  0
 13 45  1  0  0  0  0
 13 46  1  0  0  0  0
 14 15  1  0  0  0  0
 14 47  1  0  0  0  0
 15 16  1  0  0  0  0
 15 17  1  0  0  0  0
 15 48  1  0  0  0  0
 16 49  1  0  0  0  0
 16 50  1  0  0  0  0
 16 51  1  0  0  0  0
 17 52  1  0  0  0  0
 17 53  1  0  0  0  0
 17 54  1  0  0  0  0
 18 19  1  0  0  0  0
 18 33  2  0  0  0  0
 19 20  2  0  0  0  0
 19 55  1  0  0  0  0
 20 21  1  0  0  0  0
 20 56  1  0  0  0  0
 21 22  1  0  0  0  0
 21 32  2  0  0  0  0
 22 23  2  0  0  0  0
 23 24  1  0  0  0  0
 23 57  1  0  0  0  0
 24 25  1  0  0  0  0
 24 31  2  0  0  0  0
 25 26  1  0  0  0  0
 25 30  2  0  0  0  0
 26 27  2  0  0  0  0
 26 58  1  0  0  0  0
 27 28  1  0  0  0  0
 28 29  1  0  0  0  0
 28 30  1  0  0  0  0
 29 59  1  0  0  0  0
 29 60  1  0  0  0  0
 29 61  1  0  0  0  0
 30 62  1  0  0  0  0
 31 32  1  0  0  0  0
 32 33  1  0  0  0  0
 33 63  1  0  0  0  0
 34 35  1  0  0  0  0
M  END
$$$$
