CHEMBL431930
 OpenBabel04072215383D

 45 48  0  0  0  0  0  0  0  0999 V2000
   -4.2837   -1.7519   -1.8268 C   0  0  0  0  0  0  0  0  0  0  0  0
   -3.3704   -2.8622   -1.3957 C   0  0  0  0  0  0  0  0  0  0  0  0
   -3.7536   -4.2013   -1.5401 C   0  0  0  0  0  0  0  0  0  0  0  0
   -2.8902   -5.2333   -1.1612 C   0  0  0  0  0  0  0  0  0  0  0  0
   -3.2754   -6.6755   -1.2960 C   0  0  0  0  0  0  0  0  0  0  0  0
   -1.6303   -4.9114   -0.6466 C   0  0  0  0  0  0  0  0  0  0  0  0
   -1.2195   -3.5828   -0.4987 C   0  0  0  0  0  0  0  0  0  0  0  0
    0.0438   -3.2516    0.0156 N   0  0  0  0  0  0  0  0  0  0  0  0
    1.1870   -4.0486    0.0157 C   0  0  0  0  0  0  0  0  0  0  0  0
    1.4599   -4.8490   -1.0224 N   0  0  0  0  0  0  0  0  0  0  0  0
    2.6284   -5.5102   -1.0075 C   0  0  0  0  0  0  0  0  0  0  0  0
    3.5444   -5.4069    0.0088 C   0  0  0  0  0  0  0  0  0  0  0  0
    3.1952   -4.5540    1.0342 C   0  0  0  0  0  0  0  0  0  0  0  0
    4.1224   -4.3017    2.0892 N   0  0  0  0  0  0  0  0  0  0  0  0
    5.1252   -5.1638    2.4935 C   0  0  0  0  0  0  0  0  0  0  0  0
    5.7163   -4.5797    3.5821 C   0  0  0  0  0  0  0  0  0  0  0  0
    5.1436   -3.3723    3.8467 N   0  0  0  0  0  0  0  0  0  0  0  0
    4.2007   -3.1836    2.9313 C   0  0  0  0  0  0  0  0  0  0  0  0
    3.4008   -1.9459    2.8595 C   0  0  0  0  0  0  0  0  0  0  0  0
    3.0072   -1.3553    1.6468 C   0  0  0  0  0  0  0  0  0  0  0  0
    2.1465   -0.2541    1.6204 C   0  0  0  0  0  0  0  0  0  0  0  0
    1.7438    0.3323    2.8145 C   0  0  0  0  0  0  0  0  0  0  0  0
    2.2135   -0.1821    4.0166 C   0  0  0  0  0  0  0  0  0  0  0  0
    1.8612    0.4116    5.1647 F   0  0  0  0  0  0  0  0  0  0  0  0
    3.0290   -1.3092    4.0505 C   0  0  0  0  0  0  0  0  0  0  0  0
    2.0166   -3.8958    1.0524 N   0  0  0  0  0  0  0  0  0  0  0  0
   -2.1091   -2.5626   -0.8573 C   0  0  0  0  0  0  0  0  0  0  0  0
   -5.2250   -2.1403   -2.2297 H   0  0  0  0  0  0  0  0  0  0  0  0
   -3.8062   -1.1549   -2.6103 H   0  0  0  0  0  0  0  0  0  0  0  0
   -4.5218   -1.1064   -0.9720 H   0  0  0  0  0  0  0  0  0  0  0  0
   -4.7280   -4.4432   -1.9567 H   0  0  0  0  0  0  0  0  0  0  0  0
   -4.2835   -6.7880   -1.7064 H   0  0  0  0  0  0  0  0  0  0  0  0
   -3.2525   -7.1627   -0.3153 H   0  0  0  0  0  0  0  0  0  0  0  0
   -2.5773   -7.1887   -1.9653 H   0  0  0  0  0  0  0  0  0  0  0  0
   -0.9623   -5.7196   -0.3561 H   0  0  0  0  0  0  0  0  0  0  0  0
    0.0042   -2.7366    0.8894 H   0  0  0  0  0  0  0  0  0  0  0  0
    2.8230   -6.1205   -1.8843 H   0  0  0  0  0  0  0  0  0  0  0  0
    4.4944   -5.9177   -0.0611 H   0  0  0  0  0  0  0  0  0  0  0  0
    5.2896   -6.1291    2.0380 H   0  0  0  0  0  0  0  0  0  0  0  0
    6.5166   -4.9730    4.1964 H   0  0  0  0  0  0  0  0  0  0  0  0
    3.3288   -1.7720    0.6950 H   0  0  0  0  0  0  0  0  0  0  0  0
    1.7926    0.1336    0.6684 H   0  0  0  0  0  0  0  0  0  0  0  0
    1.0802    1.1904    2.8165 H   0  0  0  0  0  0  0  0  0  0  0  0
    3.3655   -1.6909    5.0107 H   0  0  0  0  0  0  0  0  0  0  0  0
   -1.8066   -1.5235   -0.7544 H   0  0  0  0  0  0  0  0  0  0  0  0
  1  2  1  0  0  0  0
  1 28  1  0  0  0  0
  1 29  1  0  0  0  0
  1 30  1  0  0  0  0
  2  3  1  0  0  0  0
  2 27  2  0  0  0  0
  3  4  2  0  0  0  0
  3 31  1  0  0  0  0
  4  5  1  0  0  0  0
  4  6  1  0  0  0  0
  5 32  1  0  0  0  0
  5 33  1  0  0  0  0
  5 34  1  0  0  0  0
  6  7  2  0  0  0  0
  6 35  1  0  0  0  0
  7  8  1  0  0  0  0
  7 27  1  0  0  0  0
  8  9  1  0  0  0  0
  8 36  1  0  0  0  0
  9 10  1  0  0  0  0
  9 26  2  0  0  0  0
 10 11  2  0  0  0  0
 11 12  1  0  0  0  0
 11 37  1  0  0  0  0
 12 13  2  0  0  0  0
 12 38  1  0  0  0  0
 13 14  1  0  0  0  0
 13 26  1  0  0  0  0
 14 15  1  0  0  0  0
 14 18  1  0  0  0  0
 15 16  2  0  0  0  0
 15 39  1  0  0  0  0
 16 17  1  0  0  0  0
 16 40  1  0  0  0  0
 17 18  2  0  0  0  0
 18 19  1  0  0  0  0
 19 20  1  0  0  0  0
 19 25  2  0  0  0  0
 20 21  2  0  0  0  0
 20 41  1  0  0  0  0
 21 22  1  0  0  0  0
 21 42  1  0  0  0  0
 22 23  2  0  0  0  0
 22 43  1  0  0  0  0
 23 24  1  0  0  0  0
 23 25  1  0  0  0  0
 25 44  1  0  0  0  0
 27 45  1  0  0  0  0
M  END
$$$$
