CHEMBL570573
 OpenBabel04072215383D

 61 66  0  0  0  0  0  0  0  0999 V2000
    8.0960   -5.7224    1.1178 C   0  0  0  0  0  0  0  0  0  0  0  0
    6.9588   -5.4945    1.9822 N   0  0  0  0  0  0  0  0  0  0  0  0
    5.7831   -6.1594    1.5930 C   0  0  0  0  0  0  0  0  0  0  0  0
    4.6460   -5.8234    2.2852 C   0  0  0  0  0  0  0  0  0  0  0  0
    3.4562   -6.3873    1.8941 C   0  0  0  0  0  0  0  0  0  0  0  0
    2.2027   -6.0795    2.5900 C   0  0  0  0  0  0  0  0  0  0  0  0
    1.3761   -7.1832    2.9053 C   0  0  0  0  0  0  0  0  0  0  0  0
    0.2485   -7.0123    3.6745 C   0  0  0  0  0  0  0  0  0  0  0  0
   -0.0016   -5.7289    4.1150 C   0  0  0  0  0  0  0  0  0  0  0  0
    0.7654   -4.6192    3.8288 N   0  0  0  0  0  0  0  0  0  0  0  0
    1.8623   -4.7692    3.0458 C   0  0  0  0  0  0  0  0  0  0  0  0
    2.6223   -3.6215    2.6024 N   0  0  0  0  0  0  0  0  0  0  0  0
    3.3225   -2.5105    3.2002 C   0  0  0  0  0  0  0  0  0  0  0  0
    3.9041   -1.4963    2.3466 C   0  0  0  0  0  0  0  0  0  0  0  0
    3.5991   -1.1386    0.9117 C   0  0  0  0  0  0  0  0  0  0  0  0
    4.8097   -0.5505    2.8626 C   0  0  0  0  0  0  0  0  0  0  0  0
    4.9677   -0.4079    4.2102 C   0  0  0  0  0  0  0  0  0  0  0  0
    4.2131   -1.1716    5.0865 C   0  0  0  0  0  0  0  0  0  0  0  0
    4.1793   -0.7500    6.4285 C   0  0  0  0  0  0  0  0  0  0  0  0
    4.2930    0.6546    6.6315 N   0  0  0  0  0  0  0  0  0  0  0  0
    5.2367    1.4805    7.2541 C   0  0  0  0  0  0  0  0  0  0  0  0
    5.1248    2.8615    6.9999 C   0  0  0  0  0  0  0  0  0  0  0  0
    5.8349    3.8066    7.7262 C   0  0  0  0  0  0  0  0  0  0  0  0
    6.7635    3.3200    8.6334 C   0  0  0  0  0  0  0  0  0  0  0  0
    7.6907    4.2044    9.7690 S   0  0  0  0  0  0  0  0  0  0  0  0
    8.8477    2.9444    9.6397 C   0  0  0  0  0  0  0  0  0  0  0  0
   10.2702    3.3678    9.6071 C   0  0  0  0  0  0  0  0  0  0  0  0
    8.3365    1.7608    9.3447 N   0  0  0  0  0  0  0  0  0  0  0  0
    7.1006    1.9681    8.7290 C   0  0  0  0  0  0  0  0  0  0  0  0
    6.2477    1.0207    8.1095 C   0  0  0  0  0  0  0  0  0  0  0  0
    3.7638   -1.5588    7.4072 N   0  0  0  0  0  0  0  0  0  0  0  0
    3.2897   -2.7663    7.0151 C   0  0  0  0  0  0  0  0  0  0  0  0
    3.0989   -3.1708    5.6882 C   0  0  0  0  0  0  0  0  0  0  0  0
    3.5163   -2.3324    4.6347 C   0  0  0  0  0  0  0  0  0  0  0  0
    3.4234   -7.3379    0.9141 N   0  0  0  0  0  0  0  0  0  0  0  0
    4.5897   -7.6676    0.3669 C   0  0  0  0  0  0  0  0  0  0  0  0
    5.7755   -7.1036    0.6401 N   0  0  0  0  0  0  0  0  0  0  0  0
    8.9127   -5.0734    1.4477 H   0  0  0  0  0  0  0  0  0  0  0  0
    7.8664   -5.4682    0.0787 H   0  0  0  0  0  0  0  0  0  0  0  0
    8.4394   -6.7587    1.1863 H   0  0  0  0  0  0  0  0  0  0  0  0
    6.7578   -4.5027    2.0899 H   0  0  0  0  0  0  0  0  0  0  0  0
    4.6953   -5.1395    3.1203 H   0  0  0  0  0  0  0  0  0  0  0  0
    1.6233   -8.1960    2.5719 H   0  0  0  0  0  0  0  0  0  0  0  0
   -0.3906   -7.8480    3.9412 H   0  0  0  0  0  0  0  0  0  0  0  0
   -0.8695   -5.5347    4.7462 H   0  0  0  0  0  0  0  0  0  0  0  0
    2.7362   -3.6549    1.5942 H   0  0  0  0  0  0  0  0  0  0  0  0
    3.1061   -0.1496    0.9142 H   0  0  0  0  0  0  0  0  0  0  0  0
    2.9672   -1.8315    0.3663 H   0  0  0  0  0  0  0  0  0  0  0  0
    4.5404   -0.9977    0.3579 H   0  0  0  0  0  0  0  0  0  0  0  0
    5.3294    0.1559    2.2189 H   0  0  0  0  0  0  0  0  0  0  0  0
    5.6612    0.3519    4.5743 H   0  0  0  0  0  0  0  0  0  0  0  0
    3.7218    1.1390    5.9444 H   0  0  0  0  0  0  0  0  0  0  0  0
    4.4478    3.2321    6.2332 H   0  0  0  0  0  0  0  0  0  0  0  0
    5.7121    4.8721    7.5712 H   0  0  0  0  0  0  0  0  0  0  0  0
   10.3751    4.1348    8.8239 H   0  0  0  0  0  0  0  0  0  0  0  0
   10.9412    2.5508    9.3408 H   0  0  0  0  0  0  0  0  0  0  0  0
   10.5801    3.8210   10.5517 H   0  0  0  0  0  0  0  0  0  0  0  0
    6.4062   -0.0429    8.2578 H   0  0  0  0  0  0  0  0  0  0  0  0
    3.0231   -3.4260    7.8353 H   0  0  0  0  0  0  0  0  0  0  0  0
    2.6434   -4.1381    5.5006 H   0  0  0  0  0  0  0  0  0  0  0  0
    4.5807   -8.4707   -0.3633 H   0  0  0  0  0  0  0  0  0  0  0  0
  1  2  1  0  0  0  0
  1 38  1  0  0  0  0
  1 39  1  0  0  0  0
  1 40  1  0  0  0  0
  2  3  1  0  0  0  0
  2 41  1  0  0  0  0
  3  4  1  0  0  0  0
  3 37  2  0  0  0  0
  4  5  2  0  0  0  0
  4 42  1  0  0  0  0
  5  6  1  0  0  0  0
  5 35  1  0  0  0  0
  6  7  1  0  0  0  0
  6 11  2  0  0  0  0
  7  8  2  0  0  0  0
  7 43  1  0  0  0  0
  8  9  1  0  0  0  0
  8 44  1  0  0  0  0
  9 10  2  0  0  0  0
  9 45  1  0  0  0  0
 10 11  1  0  0  0  0
 11 12  1  0  0  0  0
 12 13  1  0  0  0  0
 12 46  1  0  0  0  0
 13 14  1  0  0  0  0
 13 34  2  0  0  0  0
 14 15  1  0  0  0  0
 14 16  2  0  0  0  0
 15 47  1  0  0  0  0
 15 48  1  0  0  0  0
 15 49  1  0  0  0  0
 16 17  1  0  0  0  0
 16 50  1  0  0  0  0
 17 18  2  0  0  0  0
 17 51  1  0  0  0  0
 18 19  1  0  0  0  0
 18 34  1  0  0  0  0
 19 20  1  0  0  0  0
 19 31  2  0  0  0  0
 20 21  1  0  0  0  0
 20 52  1  0  0  0  0
 21 22  1  0  0  0  0
 21 30  2  0  0  0  0
 22 23  2  0  0  0  0
 22 53  1  0  0  0  0
 23 24  1  0  0  0  0
 23 54  1  0  0  0  0
 24 25  1  0  0  0  0
 24 29  2  0  0  0  0
 25 26  1  0  0  0  0
 26 27  1  0  0  0  0
 26 28  2  0  0  0  0
 27 55  1  0  0  0  0
 27 56  1  0  0  0  0
 27 57  1  0  0  0  0
 28 29  1  0  0  0  0
 29 30  1  0  0  0  0
 30 58  1  0  0  0  0
 31 32  1  0  0  0  0
 32 33  2  0  0  0  0
 32 59  1  0  0  0  0
 33 34  1  0  0  0  0
 33 60  1  0  0  0  0
 35 36  2  0  0  0  0
 36 37  1  0  0  0  0
 36 61  1  0  0  0  0
M  END
$$$$
