CHEMBL247389
 OpenBabel04072215363D

 38 42  0  0  0  0  0  0  0  0999 V2000
    1.0839   -0.5471    0.5750 O   0  0  0  0  0  0  0  0  0  0  0  0
    2.2392   -0.2161    0.3251 C   0  0  0  0  0  0  0  0  0  0  0  0
    2.8836    0.8825    0.8804 N   0  0  0  0  0  0  0  0  0  0  0  0
    2.3492    1.7361    1.8734 C   0  0  0  0  0  0  0  0  0  0  0  0
    1.2461    1.3755    2.6688 C   0  0  0  0  0  0  0  0  0  0  0  0
    0.6993    2.2397    3.6400 C   0  0  0  0  0  0  0  0  0  0  0  0
    1.2454    3.4975    3.8603 C   0  0  0  0  0  0  0  0  0  0  0  0
    2.3375    3.8397    3.0959 C   0  0  0  0  0  0  0  0  0  0  0  0
    2.9114    2.9868    2.1061 C   0  0  0  0  0  0  0  0  0  0  0  0
    4.0906    3.6486    1.3749 C   0  0  0  0  0  0  0  0  0  0  0  0
    4.0899    4.9492    2.1012 C   0  0  0  0  0  0  0  0  0  0  0  0
    3.0929    5.0423    3.0778 C   0  0  0  0  0  0  0  0  0  0  0  0
    3.0853    6.1870    3.7440 N   0  0  0  0  0  0  0  0  0  0  0  0
    4.1245    6.8473    3.1706 N   0  0  0  0  0  0  0  0  0  0  0  0
    4.7602    6.1425    2.1665 C   0  0  0  0  0  0  0  0  0  0  0  0
    5.9192    6.6010    1.3580 C   0  0  0  0  0  0  0  0  0  0  0  0
    6.5029    5.8793    0.2748 C   0  0  0  0  0  0  0  0  0  0  0  0
    7.5726    6.5446   -0.2827 C   0  0  0  0  0  0  0  0  0  0  0  0
    7.8752    8.0359    0.4947 S   0  0  0  0  0  0  0  0  0  0  0  0
    6.5664    7.7988    1.5760 C   0  0  0  0  0  0  0  0  0  0  0  0
    3.0236   -0.9593   -0.6418 C   0  0  0  0  0  0  0  0  0  0  0  0
    2.6365   -2.0006   -1.4659 C   0  0  0  0  0  0  0  0  0  0  0  0
    3.7849   -2.4022   -2.1838 C   0  0  0  0  0  0  0  0  0  0  0  0
    4.8015   -1.5823   -1.7595 C   0  0  0  0  0  0  0  0  0  0  0  0
    4.3519   -0.6877   -0.8358 O   0  0  0  0  0  0  0  0  0  0  0  0
    3.7763    1.1192    0.4651 H   0  0  0  0  0  0  0  0  0  0  0  0
    0.7787    0.3987    2.5743 H   0  0  0  0  0  0  0  0  0  0  0  0
   -0.1627    1.9124    4.2166 H   0  0  0  0  0  0  0  0  0  0  0  0
    0.8307    4.1802    4.5934 H   0  0  0  0  0  0  0  0  0  0  0  0
    3.8659    3.7766    0.3129 H   0  0  0  0  0  0  0  0  0  0  0  0
    5.0172    3.0927    1.5374 H   0  0  0  0  0  0  0  0  0  0  0  0
    4.3412    7.7774    3.5093 H   0  0  0  0  0  0  0  0  0  0  0  0
    6.1637    4.9207   -0.0934 H   0  0  0  0  0  0  0  0  0  0  0  0
    8.1908    6.2248   -1.1104 H   0  0  0  0  0  0  0  0  0  0  0  0
    6.3618    8.5574    2.3176 H   0  0  0  0  0  0  0  0  0  0  0  0
    1.6369   -2.4135   -1.5179 H   0  0  0  0  0  0  0  0  0  0  0  0
    3.8576   -3.2015   -2.9096 H   0  0  0  0  0  0  0  0  0  0  0  0
    5.8526   -1.5154   -2.0062 H   0  0  0  0  0  0  0  0  0  0  0  0
  1  2  2  0  0  0  0
  2  3  1  0  0  0  0
  2 21  1  0  0  0  0
  3  4  1  0  0  0  0
  3 26  1  0  0  0  0
  4  5  1  0  0  0  0
  4  9  2  0  0  0  0
  5  6  2  0  0  0  0
  5 27  1  0  0  0  0
  6  7  1  0  0  0  0
  6 28  1  0  0  0  0
  7  8  2  0  0  0  0
  7 29  1  0  0  0  0
  8  9  1  0  0  0  0
  8 12  1  0  0  0  0
  9 10  1  0  0  0  0
 10 11  1  0  0  0  0
 10 30  1  0  0  0  0
 10 31  1  0  0  0  0
 11 12  1  0  0  0  0
 11 15  2  0  0  0  0
 12 13  2  0  0  0  0
 13 14  1  0  0  0  0
 14 15  1  0  0  0  0
 14 32  1  0  0  0  0
 15 16  1  0  0  0  0
 16 17  1  0  0  0  0
 16 20  2  0  0  0  0
 17 18  2  0  0  0  0
 17 33  1  0  0  0  0
 18 19  1  0  0  0  0
 18 34  1  0  0  0  0
 19 20  1  0  0  0  0
 20 35  1  0  0  0  0
 21 22  2  0  0  0  0
 21 25  1  0  0  0  0
 22 23  1  0  0  0  0
 22 36  1  0  0  0  0
 23 24  2  0  0  0  0
 23 37  1  0  0  0  0
 24 25  1  0  0  0  0
 24 38  1  0  0  0  0
M  END
$$$$
