CHEMBL3925008
 OpenBabel04072215373D

 71 75  0  0  1  0  0  0  0  0999 V2000
    0.4361    3.8699    0.9871 C   0  0  0  0  0  0  0  0  0  0  0  0
    1.7932    4.2746    0.7513 O   0  0  0  0  0  0  0  0  0  0  0  0
    2.7480    3.2924    0.7678 C   0  0  0  0  0  0  0  0  0  0  0  0
    2.4809    1.9449    1.0302 C   0  0  0  0  0  0  0  0  0  0  0  0
    3.5125    1.0110    0.9943 C   0  0  0  0  0  0  0  0  0  0  0  0
    3.3768   -0.3384    1.1868 O   0  0  0  0  0  0  0  0  0  0  0  0
    2.0818   -0.8187    1.5265 C   0  0  0  0  0  0  0  0  0  0  0  0
    4.8138    1.4262    0.6887 C   0  0  0  0  0  0  0  0  0  0  0  0
    5.1143    2.7482    0.3400 C   0  0  0  0  0  0  0  0  0  0  0  0
    6.3395    3.0942   -0.2665 N   0  0  0  0  0  0  0  0  0  0  0  0
    6.8760    2.2004   -1.3726 C   0  0  0  0  0  0  0  0  0  0  0  0
    6.0967    1.0823   -2.0911 C   0  0  0  0  0  0  0  0  0  0  0  0
    5.0162    1.3831   -3.1566 C   0  0  0  0  0  0  0  0  0  0  0  0
    4.3974    0.1119   -3.6321 N   0  0  0  0  0  0  0  0  0  0  0  0
    5.3125   -0.8594   -4.2543 C   0  0  0  0  0  0  0  0  0  0  0  0
    5.6647   -0.5394   -5.7068 C   0  0  0  0  0  0  0  0  0  0  0  0
    4.4008   -0.4686   -6.5537 C   0  0  0  0  0  0  0  0  0  0  0  0
    3.4170    0.5218   -5.9367 C   0  0  3  0  0  0  0  0  0  0  0  0
    2.1433    0.5740   -6.7646 C   0  0  0  0  0  0  0  0  0  0  0  0
    1.0867    0.6173   -7.4515 N   0  0  0  0  0  0  0  0  0  0  0  0
    3.1683    0.2591   -4.4445 C   0  0  0  0  0  0  0  0  0  0  0  0
    7.4411    3.9217    0.2146 C   0  0  0  0  0  0  0  0  0  0  0  0
    8.1240    4.6228   -0.7807 C   0  0  0  0  0  0  0  0  0  0  0  0
    9.4569    4.9470   -0.6295 C   0  0  0  0  0  0  0  0  0  0  0  0
   10.0962    4.7922    0.5698 C   0  0  0  0  0  0  0  0  0  0  0  0
   11.4113    5.0205    0.4868 N   0  0  0  0  0  0  0  0  0  0  0  0
   12.0724    5.1173    1.6432 C   0  0  0  0  0  0  0  0  0  0  0  0
   11.4313    5.0665    2.8682 C   0  0  0  0  0  0  0  0  0  0  0  0
   12.2161    5.5818    3.9880 C   0  0  0  0  0  0  0  0  0  0  0  0
   12.1974    6.8898    4.5431 C   0  0  0  0  0  0  0  0  0  0  0  0
   13.2455    7.1389    5.3390 N   0  0  0  0  0  0  0  0  0  0  0  0
   13.9584    6.0022    5.2825 N   0  0  0  0  0  0  0  0  0  0  0  0
   15.0632    5.7815    6.1873 C   0  0  0  0  0  0  0  0  0  0  0  0
   13.4669    5.1122    4.3648 C   0  0  0  0  0  0  0  0  0  0  0  0
   10.1066    4.6729    2.9492 N   0  0  0  0  0  0  0  0  0  0  0  0
    9.3882    4.4669    1.7479 C   0  0  0  0  0  0  0  0  0  0  0  0
    8.0420    3.9331    1.5113 C   0  0  0  0  0  0  0  0  0  0  0  0
    4.0605    3.6820    0.4277 C   0  0  0  0  0  0  0  0  0  0  0  0
   -0.2033    4.7553    0.9164 H   0  0  0  0  0  0  0  0  0  0  0  0
    0.3195    3.4582    1.9957 H   0  0  0  0  0  0  0  0  0  0  0  0
    0.1015    3.1580    0.2296 H   0  0  0  0  0  0  0  0  0  0  0  0
    1.4749    1.6206    1.2600 H   0  0  0  0  0  0  0  0  0  0  0  0
    2.1491   -1.9028    1.6581 H   0  0  0  0  0  0  0  0  0  0  0  0
    1.3584   -0.6271    0.7261 H   0  0  0  0  0  0  0  0  0  0  0  0
    1.7461   -0.3869    2.4746 H   0  0  0  0  0  0  0  0  0  0  0  0
    5.5969    0.6735    0.6690 H   0  0  0  0  0  0  0  0  0  0  0  0
    7.7464    1.6884   -0.9338 H   0  0  0  0  0  0  0  0  0  0  0  0
    7.2619    2.8214   -2.1889 H   0  0  0  0  0  0  0  0  0  0  0  0
    5.7217    0.3341   -1.3942 H   0  0  0  0  0  0  0  0  0  0  0  0
    6.9012    0.5707   -2.6376 H   0  0  0  0  0  0  0  0  0  0  0  0
    5.4456    1.9422   -3.9971 H   0  0  0  0  0  0  0  0  0  0  0  0
    4.2428    2.0142   -2.7046 H   0  0  0  0  0  0  0  0  0  0  0  0
    4.8233   -1.8423   -4.2264 H   0  0  0  0  0  0  0  0  0  0  0  0
    6.2296   -1.0032   -3.6785 H   0  0  0  0  0  0  0  0  0  0  0  0
    6.3275   -1.3143   -6.1084 H   0  0  0  0  0  0  0  0  0  0  0  0
    6.2114    0.4098   -5.7690 H   0  0  0  0  0  0  0  0  0  0  0  0
    3.9456   -1.4649   -6.6247 H   0  0  0  0  0  0  0  0  0  0  0  0
    4.6563   -0.1677   -7.5776 H   0  0  0  0  0  0  0  0  0  0  0  0
    3.8644    1.5233   -6.0177 H   0  0  0  0  0  0  0  0  0  0  0  0
    2.5970   -0.6745   -4.3434 H   0  0  0  0  0  0  0  0  0  0  0  0
    2.5204    1.0347   -4.0178 H   0  0  0  0  0  0  0  0  0  0  0  0
    7.6675    4.7971   -1.7489 H   0  0  0  0  0  0  0  0  0  0  0  0
   10.0177    5.3172   -1.4825 H   0  0  0  0  0  0  0  0  0  0  0  0
   13.1321    5.3174    1.5466 H   0  0  0  0  0  0  0  0  0  0  0  0
   11.4937    7.6928    4.3595 H   0  0  0  0  0  0  0  0  0  0  0  0
   15.1680    6.6327    6.8661 H   0  0  0  0  0  0  0  0  0  0  0  0
   15.9837    5.6392    5.6159 H   0  0  0  0  0  0  0  0  0  0  0  0
   14.8327    4.8826    6.7655 H   0  0  0  0  0  0  0  0  0  0  0  0
   14.0423    4.2432    4.0745 H   0  0  0  0  0  0  0  0  0  0  0  0
    7.5114    3.5112    2.3591 H   0  0  0  0  0  0  0  0  0  0  0  0
    4.2390    4.7212    0.1605 H   0  0  0  0  0  0  0  0  0  0  0  0
  1  2  1  0  0  0  0
  1 39  1  0  0  0  0
  1 40  1  0  0  0  0
  1 41  1  0  0  0  0
  2  3  1  0  0  0  0
  3  4  1  0  0  0  0
  3 38  2  0  0  0  0
  4  5  2  0  0  0  0
  4 42  1  0  0  0  0
  5  6  1  0  0  0  0
  5  8  1  0  0  0  0
  6  7  1  0  0  0  0
  7 43  1  0  0  0  0
  7 44  1  0  0  0  0
  7 45  1  0  0  0  0
  8  9  2  0  0  0  0
  8 46  1  0  0  0  0
  9 10  1  0  0  0  0
  9 38  1  0  0  0  0
 10 11  1  0  0  0  0
 10 22  1  0  0  0  0
 11 12  1  0  0  0  0
 11 47  1  0  0  0  0
 11 48  1  0  0  0  0
 12 13  1  0  0  0  0
 12 49  1  0  0  0  0
 12 50  1  0  0  0  0
 13 14  1  0  0  0  0
 13 51  1  0  0  0  0
 13 52  1  0  0  0  0
 14 15  1  0  0  0  0
 14 21  1  0  0  0  0
 15 16  1  0  0  0  0
 15 53  1  0  0  0  0
 15 54  1  0  0  0  0
 16 17  1  0  0  0  0
 16 55  1  0  0  0  0
 16 56  1  0  0  0  0
 17 18  1  0  0  0  0
 17 57  1  0  0  0  0
 17 58  1  0  0  0  0
 18 19  1  0  0  0  0
 18 21  1  0  0  0  0
 18 59  1  0  0  0  0
 19 20  3  0  0  0  0
 21 60  1  0  0  0  0
 21 61  1  0  0  0  0
 22 23  1  0  0  0  0
 22 37  2  0  0  0  0
 23 24  2  0  0  0  0
 23 62  1  0  0  0  0
 24 25  1  0  0  0  0
 24 63  1  0  0  0  0
 25 26  1  0  0  0  0
 25 36  2  0  0  0  0
 26 27  2  0  0  0  0
 27 28  1  0  0  0  0
 27 64  1  0  0  0  0
 28 29  1  0  0  0  0
 28 35  2  0  0  0  0
 29 30  1  0  0  0  0
 29 34  2  0  0  0  0
 30 31  2  0  0  0  0
 30 65  1  0  0  0  0
 31 32  1  0  0  0  0
 32 33  1  0  0  0  0
 32 34  1  0  0  0  0
 33 66  1  0  0  0  0
 33 67  1  0  0  0  0
 33 68  1  0  0  0  0
 34 69  1  0  0  0  0
 35 36  1  0  0  0  0
 36 37  1  0  0  0  0
 37 70  1  0  0  0  0
 38 71  1  0  0  0  0
M  END
$$$$
