CHEMBL3969593
 OpenBabel04072215373D

 52 55  0  0  0  0  0  0  0  0999 V2000
    1.1679   -0.2785   -0.5621 O   0  0  0  0  0  0  0  0  0  0  0  0
    2.2677   -0.0702   -0.0641 C   0  0  0  0  0  0  0  0  0  0  0  0
    2.8288   -0.8445    0.9394 N   0  0  0  0  0  0  0  0  0  0  0  0
    2.2122   -1.9744    1.5365 C   0  0  0  0  0  0  0  0  0  0  0  0
    1.0743   -2.5860    1.0073 C   0  0  0  0  0  0  0  0  0  0  0  0
    0.4565   -3.6525    1.6598 C   0  0  0  0  0  0  0  0  0  0  0  0
    1.0233   -4.1974    2.8095 C   0  0  0  0  0  0  0  0  0  0  0  0
    0.5018   -5.2980    3.4616 O   0  0  0  0  0  0  0  0  0  0  0  0
   -0.0538   -6.3181    2.7091 C   0  0  0  0  0  0  0  0  0  0  0  0
    0.3870   -6.6522    1.4311 C   0  0  0  0  0  0  0  0  0  0  0  0
   -0.2917   -7.6371    0.7532 C   0  0  0  0  0  0  0  0  0  0  0  0
   -1.3052   -8.3356    1.2900 N   0  0  0  0  0  0  0  0  0  0  0  0
   -1.6819   -8.0750    2.5537 C   0  0  0  0  0  0  0  0  0  0  0  0
   -2.7021   -8.8492    3.1385 N   0  0  0  0  0  0  0  0  0  0  0  0
   -3.3369   -9.8908    2.4864 C   0  0  0  0  0  0  0  0  0  0  0  0
   -3.1380  -10.2869    1.3471 O   0  0  0  0  0  0  0  0  0  0  0  0
   -4.3772  -10.6347    3.2606 C   0  0  0  0  0  0  0  0  0  0  0  0
   -4.9290  -10.2932    4.6175 C   0  0  0  0  0  0  0  0  0  0  0  0
   -3.9640  -11.4353    4.4743 C   0  0  0  0  0  0  0  0  0  0  0  0
   -1.0826   -7.0634    3.2975 C   0  0  0  0  0  0  0  0  0  0  0  0
    2.1565   -3.5935    3.3575 C   0  0  0  0  0  0  0  0  0  0  0  0
    2.7519   -2.4899    2.7225 C   0  0  0  0  0  0  0  0  0  0  0  0
    3.0834    0.9945   -0.4217 N   0  0  0  0  0  0  0  0  0  0  0  0
    2.7558    2.0252   -1.3350 C   0  0  0  0  0  0  0  0  0  0  0  0
    1.5310    2.1145   -2.0068 C   0  0  0  0  0  0  0  0  0  0  0  0
    1.2640    3.1652   -2.8880 C   0  0  0  0  0  0  0  0  0  0  0  0
    2.2154    4.1547   -3.1002 C   0  0  0  0  0  0  0  0  0  0  0  0
    3.4451    4.1003   -2.4313 C   0  0  0  0  0  0  0  0  0  0  0  0
    4.4732    5.1859   -2.6184 C   0  0  0  0  0  0  0  0  0  0  0  0
    4.0857    6.1667   -3.4801 F   0  0  0  0  0  0  0  0  0  0  0  0
    4.7756    5.8150   -1.4487 F   0  0  0  0  0  0  0  0  0  0  0  0
    5.6532    4.7076   -3.0999 F   0  0  0  0  0  0  0  0  0  0  0  0
    3.7088    3.0242   -1.5596 C   0  0  0  0  0  0  0  0  0  0  0  0
    3.6564   -0.4919    1.3949 H   0  0  0  0  0  0  0  0  0  0  0  0
    0.6286   -2.2671    0.0712 H   0  0  0  0  0  0  0  0  0  0  0  0
   -0.4537   -4.0594    1.2273 H   0  0  0  0  0  0  0  0  0  0  0  0
    1.2116   -6.1447    0.9453 H   0  0  0  0  0  0  0  0  0  0  0  0
   -0.0405   -7.9009   -0.2692 H   0  0  0  0  0  0  0  0  0  0  0  0
   -2.9496   -8.6495    4.0916 H   0  0  0  0  0  0  0  0  0  0  0  0
   -5.0831  -11.1229    2.5915 H   0  0  0  0  0  0  0  0  0  0  0  0
   -5.9717  -10.5401    4.7987 H   0  0  0  0  0  0  0  0  0  0  0  0
   -4.6059   -9.4051    5.1409 H   0  0  0  0  0  0  0  0  0  0  0  0
   -4.3404  -12.4506    4.5424 H   0  0  0  0  0  0  0  0  0  0  0  0
   -2.9595  -11.3131    4.8612 H   0  0  0  0  0  0  0  0  0  0  0  0
   -1.3963   -6.8403    4.3110 H   0  0  0  0  0  0  0  0  0  0  0  0
    2.5823   -3.9792    4.2805 H   0  0  0  0  0  0  0  0  0  0  0  0
    3.6285   -2.0380    3.1787 H   0  0  0  0  0  0  0  0  0  0  0  0
    4.0106    1.0164   -0.0245 H   0  0  0  0  0  0  0  0  0  0  0  0
    0.7432    1.3810   -1.8759 H   0  0  0  0  0  0  0  0  0  0  0  0
    0.3048    3.2036   -3.3990 H   0  0  0  0  0  0  0  0  0  0  0  0
    1.9884    4.9705   -3.7842 H   0  0  0  0  0  0  0  0  0  0  0  0
    4.6702    2.9904   -1.0492 H   0  0  0  0  0  0  0  0  0  0  0  0
  1  2  2  0  0  0  0
  2  3  1  0  0  0  0
  2 23  1  0  0  0  0
  3  4  1  0  0  0  0
  3 34  1  0  0  0  0
  4  5  1  0  0  0  0
  4 22  2  0  0  0  0
  5  6  2  0  0  0  0
  5 35  1  0  0  0  0
  6  7  1  0  0  0  0
  6 36  1  0  0  0  0
  7  8  1  0  0  0  0
  7 21  2  0  0  0  0
  8  9  1  0  0  0  0
  9 10  1  0  0  0  0
  9 20  2  0  0  0  0
 10 11  2  0  0  0  0
 10 37  1  0  0  0  0
 11 12  1  0  0  0  0
 11 38  1  0  0  0  0
 12 13  2  0  0  0  0
 13 14  1  0  0  0  0
 13 20  1  0  0  0  0
 14 15  1  0  0  0  0
 14 39  1  0  0  0  0
 15 16  2  0  0  0  0
 15 17  1  0  0  0  0
 17 18  1  0  0  0  0
 17 19  1  0  0  0  0
 17 40  1  0  0  0  0
 18 19  1  0  0  0  0
 18 41  1  0  0  0  0
 18 42  1  0  0  0  0
 19 43  1  0  0  0  0
 19 44  1  0  0  0  0
 20 45  1  0  0  0  0
 21 22  1  0  0  0  0
 21 46  1  0  0  0  0
 22 47  1  0  0  0  0
 23 24  1  0  0  0  0
 23 48  1  0  0  0  0
 24 25  1  0  0  0  0
 24 33  2  0  0  0  0
 25 26  2  0  0  0  0
 25 49  1  0  0  0  0
 26 27  1  0  0  0  0
 26 50  1  0  0  0  0
 27 28  2  0  0  0  0
 27 51  1  0  0  0  0
 28 29  1  0  0  0  0
 28 33  1  0  0  0  0
 29 30  1  0  0  0  0
 29 31  1  0  0  0  0
 29 32  1  0  0  0  0
 33 52  1  0  0  0  0
M  END
$$$$
