CHEMBL1254190
 OpenBabel04072215363D

 47 50  0  0  0  0  0  0  0  0999 V2000
    3.6270   -0.7881   -1.1633 C   0  0  0  0  0  0  0  0  0  0  0  0
    3.4047   -0.4718    0.2300 N   0  0  0  0  0  0  0  0  0  0  0  0
    4.0055    0.5685    0.8965 C   0  0  0  0  0  0  0  0  0  0  0  0
    3.5414    0.5650    2.1937 C   0  0  0  0  0  0  0  0  0  0  0  0
    2.6324   -0.5104    2.3131 C   0  0  0  0  0  0  0  0  0  0  0  0
    1.9353   -0.9093    3.3968 N   0  0  0  0  0  0  0  0  0  0  0  0
    1.1605   -1.9748    3.1677 C   0  0  0  0  0  0  0  0  0  0  0  0
    1.0219   -2.6572    2.0200 N   0  0  0  0  0  0  0  0  0  0  0  0
    1.7599   -2.2733    0.9526 C   0  0  0  0  0  0  0  0  0  0  0  0
    1.6862   -2.9928   -0.2378 O   0  0  0  0  0  0  0  0  0  0  0  0
    1.4808   -4.3533   -0.1437 C   0  0  0  0  0  0  0  0  0  0  0  0
    1.9790   -5.1187    0.9035 C   0  0  0  0  0  0  0  0  0  0  0  0
    1.7370   -6.4875    0.9618 C   0  0  0  0  0  0  0  0  0  0  0  0
    1.0260   -7.1590   -0.0411 C   0  0  0  0  0  0  0  0  0  0  0  0
    0.7963   -8.5709    0.0122 N   0  0  0  0  0  0  0  0  0  0  0  0
    1.1931   -9.3978    1.0418 C   0  0  0  0  0  0  0  0  0  0  0  0
    1.7956   -9.0371    2.0534 O   0  0  0  0  0  0  0  0  0  0  0  0
    0.8908  -10.7419    0.8568 N   0  0  0  0  0  0  0  0  0  0  0  0
    1.2876  -11.6800    1.8392 C   0  0  0  0  0  0  0  0  0  0  0  0
    2.1416  -12.7300    1.4933 C   0  0  0  0  0  0  0  0  0  0  0  0
    2.4618  -13.7163    2.4299 C   0  0  0  0  0  0  0  0  0  0  0  0
    1.9109  -13.6681    3.7099 C   0  0  0  0  0  0  0  0  0  0  0  0
    1.0761  -12.6063    4.0886 C   0  0  0  0  0  0  0  0  0  0  0  0
    0.4506  -12.5795    5.4603 C   0  0  0  0  0  0  0  0  0  0  0  0
    0.7670  -13.6714    6.2150 F   0  0  0  0  0  0  0  0  0  0  0  0
    0.8206  -11.4996    6.2000 F   0  0  0  0  0  0  0  0  0  0  0  0
   -0.9113  -12.5550    5.4103 F   0  0  0  0  0  0  0  0  0  0  0  0
    0.7929  -11.5954    3.1522 C   0  0  0  0  0  0  0  0  0  0  0  0
    0.5509   -6.3794   -1.1151 C   0  0  0  0  0  0  0  0  0  0  0  0
   -0.3520   -7.0990   -2.4042 Cl  0  0  0  0  0  0  0  0  0  0  0  0
    0.7844   -4.9891   -1.1717 C   0  0  0  0  0  0  0  0  0  0  0  0
    2.5668   -1.1529    1.0813 C   0  0  0  0  0  0  0  0  0  0  0  0
    4.3421   -0.0783   -1.5873 H   0  0  0  0  0  0  0  0  0  0  0  0
    2.6737   -0.7094   -1.6917 H   0  0  0  0  0  0  0  0  0  0  0  0
    4.0309   -1.8009   -1.2296 H   0  0  0  0  0  0  0  0  0  0  0  0
    4.7115    1.2239    0.4027 H   0  0  0  0  0  0  0  0  0  0  0  0
    3.8239    1.2538    2.9779 H   0  0  0  0  0  0  0  0  0  0  0  0
    0.5804   -2.3366    4.0110 H   0  0  0  0  0  0  0  0  0  0  0  0
    2.5383   -4.6708    1.7200 H   0  0  0  0  0  0  0  0  0  0  0  0
    2.1262   -6.9855    1.8400 H   0  0  0  0  0  0  0  0  0  0  0  0
    0.2512   -8.9609   -0.7456 H   0  0  0  0  0  0  0  0  0  0  0  0
    0.9801  -11.0436   -0.0990 H   0  0  0  0  0  0  0  0  0  0  0  0
    2.5983  -12.7773    0.5077 H   0  0  0  0  0  0  0  0  0  0  0  0
    3.1222  -14.5362    2.1591 H   0  0  0  0  0  0  0  0  0  0  0  0
    2.1250  -14.4737    4.4131 H   0  0  0  0  0  0  0  0  0  0  0  0
    0.1452  -10.7672    3.4273 H   0  0  0  0  0  0  0  0  0  0  0  0
    0.4118   -4.4003   -2.0069 H   0  0  0  0  0  0  0  0  0  0  0  0
  1  2  1  0  0  0  0
  1 33  1  0  0  0  0
  1 34  1  0  0  0  0
  1 35  1  0  0  0  0
  2  3  1  0  0  0  0
  2 32  1  0  0  0  0
  3  4  2  0  0  0  0
  3 36  1  0  0  0  0
  4  5  1  0  0  0  0
  4 37  1  0  0  0  0
  5  6  1  0  0  0  0
  5 32  2  0  0  0  0
  6  7  2  0  0  0  0
  7  8  1  0  0  0  0
  7 38  1  0  0  0  0
  8  9  2  0  0  0  0
  9 10  1  0  0  0  0
  9 32  1  0  0  0  0
 10 11  1  0  0  0  0
 11 12  1  0  0  0  0
 11 31  2  0  0  0  0
 12 13  2  0  0  0  0
 12 39  1  0  0  0  0
 13 14  1  0  0  0  0
 13 40  1  0  0  0  0
 14 15  1  0  0  0  0
 14 29  2  0  0  0  0
 15 16  1  0  0  0  0
 15 41  1  0  0  0  0
 16 17  2  0  0  0  0
 16 18  1  0  0  0  0
 18 19  1  0  0  0  0
 18 42  1  0  0  0  0
 19 20  1  0  0  0  0
 19 28  2  0  0  0  0
 20 21  2  0  0  0  0
 20 43  1  0  0  0  0
 21 22  1  0  0  0  0
 21 44  1  0  0  0  0
 22 23  2  0  0  0  0
 22 45  1  0  0  0  0
 23 24  1  0  0  0  0
 23 28  1  0  0  0  0
 24 25  1  0  0  0  0
 24 26  1  0  0  0  0
 24 27  1  0  0  0  0
 28 46  1  0  0  0  0
 29 30  1  0  0  0  0
 29 31  1  0  0  0  0
 31 47  1  0  0  0  0
M  END
$$$$
