CHEMBL3915043
 OpenBabel04072215373D

 57 61  0  0  0  0  0  0  0  0999 V2000
    0.8938    0.0063    0.0983 C   0  0  0  0  0  0  0  0  0  0  0  0
    2.2392   -0.0361    0.0748 C   0  0  0  0  0  0  0  0  0  0  0  0
    2.9721   -1.1497   -0.6145 C   0  0  0  0  0  0  0  0  0  0  0  0
    2.4214   -1.8065   -1.7235 C   0  0  0  0  0  0  0  0  0  0  0  0
    3.1323   -2.8047   -2.3842 C   0  0  0  0  0  0  0  0  0  0  0  0
    4.4268   -3.1238   -1.9834 C   0  0  0  0  0  0  0  0  0  0  0  0
    5.0454   -2.4379   -0.9365 C   0  0  0  0  0  0  0  0  0  0  0  0
    6.4055   -2.6528   -0.5792 N   0  0  0  0  0  0  0  0  0  0  0  0
    7.3427   -3.2796   -1.3950 C   0  0  0  0  0  0  0  0  0  0  0  0
    7.1356   -3.6912   -2.5336 O   0  0  0  0  0  0  0  0  0  0  0  0
    8.7359   -3.4157   -0.8799 C   0  0  0  0  0  0  0  0  0  0  0  0
    9.0498   -3.5538    0.4756 C   0  0  0  0  0  0  0  0  0  0  0  0
   10.3768   -3.7867    0.8601 C   0  0  0  0  0  0  0  0  0  0  0  0
   11.3882   -3.8809   -0.0993 C   0  0  0  0  0  0  0  0  0  0  0  0
   11.0825   -3.7353   -1.4484 C   0  0  0  0  0  0  0  0  0  0  0  0
    9.7631   -3.5049   -1.8359 C   0  0  0  0  0  0  0  0  0  0  0  0
    4.2950   -1.4829   -0.2312 C   0  0  0  0  0  0  0  0  0  0  0  0
    2.9509    1.1270    0.6585 C   0  0  0  0  0  0  0  0  0  0  0  0
    3.0633    1.3418    2.0437 C   0  0  0  0  0  0  0  0  0  0  0  0
    3.8708    2.3819    2.5594 C   0  0  0  0  0  0  0  0  0  0  0  0
    4.7002    3.0869    1.6596 C   0  0  0  0  0  0  0  0  0  0  0  0
    5.6721    4.1530    1.6374 C   0  0  0  0  0  0  0  0  0  0  0  0
    5.4292    5.5870    1.5873 C   0  0  0  0  0  0  0  0  0  0  0  0
    4.2291    6.1090    1.2338 C   0  0  0  0  0  0  0  0  0  0  0  0
    4.0920    7.1669    0.1971 C   0  0  0  0  0  0  0  0  0  0  0  0
    4.8782    7.1222   -0.9799 C   0  0  0  0  0  0  0  0  0  0  0  0
    4.5669    7.9351   -2.0773 C   0  0  0  0  0  0  0  0  0  0  0  0
    3.4687    8.7890   -2.0196 C   0  0  0  0  0  0  0  0  0  0  0  0
    2.6940    8.8549   -0.8779 C   0  0  0  0  0  0  0  0  0  0  0  0
    2.9944    8.0351    0.2300 C   0  0  0  0  0  0  0  0  0  0  0  0
    6.6103    3.7691    0.7436 N   0  0  0  0  0  0  0  0  0  0  0  0
    5.8427    3.1793   -0.1924 N   0  0  0  0  0  0  0  0  0  0  0  0
    4.6689    2.7013    0.3230 C   0  0  0  0  0  0  0  0  0  0  0  0
    3.6956    1.8936   -0.2422 C   0  0  0  0  0  0  0  0  0  0  0  0
    0.2769   -0.7759   -0.3330 H   0  0  0  0  0  0  0  0  0  0  0  0
    0.3530    0.8431    0.5319 H   0  0  0  0  0  0  0  0  0  0  0  0
    1.4404   -1.5411   -2.1073 H   0  0  0  0  0  0  0  0  0  0  0  0
    2.6897   -3.3245   -3.2298 H   0  0  0  0  0  0  0  0  0  0  0  0
    4.9339   -3.9186   -2.5216 H   0  0  0  0  0  0  0  0  0  0  0  0
    6.7428   -2.1637    0.2385 H   0  0  0  0  0  0  0  0  0  0  0  0
    8.2800   -3.5345    1.2405 H   0  0  0  0  0  0  0  0  0  0  0  0
   10.6259   -3.9217    1.9107 H   0  0  0  0  0  0  0  0  0  0  0  0
   12.4136   -4.0836    0.2022 H   0  0  0  0  0  0  0  0  0  0  0  0
   11.8606   -3.8211   -2.2032 H   0  0  0  0  0  0  0  0  0  0  0  0
    9.5308   -3.4169   -2.8960 H   0  0  0  0  0  0  0  0  0  0  0  0
    4.7552   -0.9547    0.6006 H   0  0  0  0  0  0  0  0  0  0  0  0
    2.5622    0.6623    2.7332 H   0  0  0  0  0  0  0  0  0  0  0  0
    3.9612    2.5208    3.6341 H   0  0  0  0  0  0  0  0  0  0  0  0
    6.3246    6.1578    1.3536 H   0  0  0  0  0  0  0  0  0  0  0  0
    3.3156    5.5435    1.3932 H   0  0  0  0  0  0  0  0  0  0  0  0
    5.6978    6.4210   -1.0733 H   0  0  0  0  0  0  0  0  0  0  0  0
    5.1579    7.8633   -2.9890 H   0  0  0  0  0  0  0  0  0  0  0  0
    3.2098    9.4010   -2.8883 H   0  0  0  0  0  0  0  0  0  0  0  0
    1.8274    9.4982   -0.8357 H   0  0  0  0  0  0  0  0  0  0  0  0
    2.3506    8.0591    1.0968 H   0  0  0  0  0  0  0  0  0  0  0  0
    6.2322    3.0135   -1.1135 H   0  0  0  0  0  0  0  0  0  0  0  0
    3.6463    1.7214   -1.3123 H   0  0  0  0  0  0  0  0  0  0  0  0
  1  2  2  0  0  0  0
  1 35  1  0  0  0  0
  1 36  1  0  0  0  0
  2  3  1  0  0  0  0
  2 18  1  0  0  0  0
  3  4  1  0  0  0  0
  3 17  2  0  0  0  0
  4  5  2  0  0  0  0
  4 37  1  0  0  0  0
  5  6  1  0  0  0  0
  5 38  1  0  0  0  0
  6  7  2  0  0  0  0
  6 39  1  0  0  0  0
  7  8  1  0  0  0  0
  7 17  1  0  0  0  0
  8  9  1  0  0  0  0
  8 40  1  0  0  0  0
  9 10  2  0  0  0  0
  9 11  1  0  0  0  0
 11 12  1  0  0  0  0
 11 16  2  0  0  0  0
 12 13  2  0  0  0  0
 12 41  1  0  0  0  0
 13 14  1  0  0  0  0
 13 42  1  0  0  0  0
 14 15  2  0  0  0  0
 14 43  1  0  0  0  0
 15 16  1  0  0  0  0
 15 44  1  0  0  0  0
 16 45  1  0  0  0  0
 17 46  1  0  0  0  0
 18 19  1  0  0  0  0
 18 34  2  0  0  0  0
 19 20  2  0  0  0  0
 19 47  1  0  0  0  0
 20 21  1  0  0  0  0
 20 48  1  0  0  0  0
 21 22  1  0  0  0  0
 21 33  2  0  0  0  0
 22 23  1  0  0  0  0
 22 31  2  0  0  0  0
 23 24  2  0  0  0  0
 23 49  1  0  0  0  0
 24 25  1  0  0  0  0
 24 50  1  0  0  0  0
 25 26  1  0  0  0  0
 25 30  2  0  0  0  0
 26 27  2  0  0  0  0
 26 51  1  0  0  0  0
 27 28  1  0  0  0  0
 27 52  1  0  0  0  0
 28 29  2  0  0  0  0
 28 53  1  0  0  0  0
 29 30  1  0  0  0  0
 29 54  1  0  0  0  0
 30 55  1  0  0  0  0
 31 32  1  0  0  0  0
 32 33  1  0  0  0  0
 32 56  1  0  0  0  0
 33 34  1  0  0  0  0
 34 57  1  0  0  0  0
M  END
$$$$
