CHEMBL3892117
 OpenBabel04072215373D

 55 58  0  0  1  0  0  0  0  0999 V2000
    2.6373   -0.8640    0.7705 C   0  0  0  0  0  0  0  0  0  0  0  0
    2.5296    0.3722    0.0632 O   0  0  0  0  0  0  0  0  0  0  0  0
    3.2746    0.5084   -1.0805 C   0  0  0  0  0  0  0  0  0  0  0  0
    4.3272   -0.3462   -1.4169 C   0  0  0  0  0  0  0  0  0  0  0  0
    4.9757   -0.2563   -2.6732 C   0  0  0  0  0  0  0  0  0  0  0  0
    5.9531   -1.1433   -3.1471 C   0  0  0  0  0  0  0  0  0  0  0  0
    6.2638   -2.2888   -2.3765 N   0  0  0  0  0  0  0  0  0  0  0  0
    7.5113   -2.9360   -2.2690 C   0  0  0  0  0  0  0  0  0  0  0  0
    8.6973   -2.1907   -2.3962 C   0  0  0  0  0  0  0  0  0  0  0  0
    9.9429   -2.7489   -2.1128 C   0  0  0  0  0  0  0  0  0  0  0  0
   10.0167   -4.0679   -1.6890 C   0  0  0  0  0  0  0  0  0  0  0  0
   11.6906   -4.8058   -1.2152 Br  0  0  0  0  0  0  0  0  0  0  0  0
    8.8628   -4.8433   -1.5907 C   0  0  0  0  0  0  0  0  0  0  0  0
    7.6022   -4.2911   -1.8843 C   0  0  0  0  0  0  0  0  0  0  0  0
    6.3891   -5.1772   -1.7955 C   0  0  0  0  0  0  0  0  0  0  0  0
    6.5580   -0.9820   -4.3391 N   0  0  0  0  0  0  0  0  0  0  0  0
    6.1690    0.0662   -5.0658 C   0  0  0  0  0  0  0  0  0  0  0  0
    5.2456    0.9621   -4.7200 N   0  0  0  0  0  0  0  0  0  0  0  0
    4.6558    0.7934   -3.5361 C   0  0  0  0  0  0  0  0  0  0  0  0
    3.6863    1.6924   -3.1494 C   0  0  0  0  0  0  0  0  0  0  0  0
    2.9444    1.5512   -1.9654 C   0  0  0  0  0  0  0  0  0  0  0  0
    1.8989    2.3942   -1.6433 O   0  0  0  0  0  0  0  0  0  0  0  0
    1.3479    3.1155   -2.7615 C   0  0  0  0  0  0  0  0  0  0  0  0
   -0.0913    3.6089   -2.5227 C   0  0  3  0  0  0  0  0  0  0  0  0
   -1.0187    2.4866   -2.0377 C   0  0  0  0  0  0  0  0  0  0  0  0
   -1.0880    1.4417   -3.0755 N   0  0  0  0  0  0  0  0  0  0  0  0
   -1.7909    0.2636   -2.5972 C   0  0  0  0  0  0  0  0  0  0  0  0
   -1.6930    2.0235   -4.2847 C   0  0  0  0  0  0  0  0  0  0  0  0
   -0.9164    3.2691   -4.7614 C   0  0  0  0  0  0  0  0  0  0  0  0
   -0.6525    4.2209   -3.7124 O   0  0  0  0  0  0  0  0  0  0  0  0
    3.4116   -0.7868    1.5412 H   0  0  0  0  0  0  0  0  0  0  0  0
    2.8304   -1.7272    0.1235 H   0  0  0  0  0  0  0  0  0  0  0  0
    1.6803   -1.0600    1.2628 H   0  0  0  0  0  0  0  0  0  0  0  0
    4.6756   -1.1006   -0.7182 H   0  0  0  0  0  0  0  0  0  0  0  0
    5.4605   -2.9029   -2.3337 H   0  0  0  0  0  0  0  0  0  0  0  0
    8.6557   -1.1445   -2.6913 H   0  0  0  0  0  0  0  0  0  0  0  0
   10.8341   -2.1354   -2.2036 H   0  0  0  0  0  0  0  0  0  0  0  0
    8.9398   -5.8803   -1.2731 H   0  0  0  0  0  0  0  0  0  0  0  0
    6.6601   -6.2067   -1.5365 H   0  0  0  0  0  0  0  0  0  0  0  0
    5.8784   -5.2131   -2.7642 H   0  0  0  0  0  0  0  0  0  0  0  0
    5.6977   -4.8128   -1.0300 H   0  0  0  0  0  0  0  0  0  0  0  0
    6.6411    0.1970   -6.0362 H   0  0  0  0  0  0  0  0  0  0  0  0
    3.4988    2.5151   -3.8354 H   0  0  0  0  0  0  0  0  0  0  0  0
    1.3447    2.4758   -3.6500 H   0  0  0  0  0  0  0  0  0  0  0  0
    1.9822    3.9845   -2.9754 H   0  0  0  0  0  0  0  0  0  0  0  0
   -0.0681    4.3900   -1.7541 H   0  0  0  0  0  0  0  0  0  0  0  0
   -2.0212    2.8958   -1.8475 H   0  0  0  0  0  0  0  0  0  0  0  0
   -0.6429    2.0807   -1.0928 H   0  0  0  0  0  0  0  0  0  0  0  0
   -1.2808   -0.1442   -1.7164 H   0  0  0  0  0  0  0  0  0  0  0  0
   -1.7724   -0.5238   -3.3578 H   0  0  0  0  0  0  0  0  0  0  0  0
   -2.8309    0.4738   -2.3287 H   0  0  0  0  0  0  0  0  0  0  0  0
   -2.7343    2.3078   -4.0862 H   0  0  0  0  0  0  0  0  0  0  0  0
   -1.6990    1.2855   -5.0954 H   0  0  0  0  0  0  0  0  0  0  0  0
   -1.5012    3.7881   -5.5298 H   0  0  0  0  0  0  0  0  0  0  0  0
    0.0294    2.9851   -5.2358 H   0  0  0  0  0  0  0  0  0  0  0  0
  1  2  1  0  0  0  0
  1 31  1  0  0  0  0
  1 32  1  0  0  0  0
  1 33  1  0  0  0  0
  2  3  1  0  0  0  0
  3  4  1  0  0  0  0
  3 21  2  0  0  0  0
  4  5  2  0  0  0  0
  4 34  1  0  0  0  0
  5  6  1  0  0  0  0
  5 19  1  0  0  0  0
  6  7  1  0  0  0  0
  6 16  2  0  0  0  0
  7  8  1  0  0  0  0
  7 35  1  0  0  0  0
  8  9  1  0  0  0  0
  8 14  2  0  0  0  0
  9 10  2  0  0  0  0
  9 36  1  0  0  0  0
 10 11  1  0  0  0  0
 10 37  1  0  0  0  0
 11 12  1  0  0  0  0
 11 13  2  0  0  0  0
 13 14  1  0  0  0  0
 13 38  1  0  0  0  0
 14 15  1  0  0  0  0
 15 39  1  0  0  0  0
 15 40  1  0  0  0  0
 15 41  1  0  0  0  0
 16 17  1  0  0  0  0
 17 18  2  0  0  0  0
 17 42  1  0  0  0  0
 18 19  1  0  0  0  0
 19 20  2  0  0  0  0
 20 21  1  0  0  0  0
 20 43  1  0  0  0  0
 21 22  1  0  0  0  0
 22 23  1  0  0  0  0
 23 24  1  0  0  0  0
 23 44  1  0  0  0  0
 23 45  1  0  0  0  0
 24 25  1  0  0  0  0
 24 30  1  0  0  0  0
 24 46  1  0  0  0  0
 25 26  1  0  0  0  0
 25 47  1  0  0  0  0
 25 48  1  0  0  0  0
 26 27  1  0  0  0  0
 26 28  1  0  0  0  0
 27 49  1  0  0  0  0
 27 50  1  0  0  0  0
 27 51  1  0  0  0  0
 28 29  1  0  0  0  0
 28 52  1  0  0  0  0
 28 53  1  0  0  0  0
 29 30  1  0  0  0  0
 29 54  1  0  0  0  0
 29 55  1  0  0  0  0
M  END
$$$$
