CHEMBL3322563
 OpenBabel04072215363D

 47 50  0  0  0  0  0  0  0  0999 V2000
    4.3319    2.7076   -1.3488 O   0  0  0  0  0  0  0  0  0  0  0  0
    3.9836    1.5851   -0.9915 C   0  0  0  0  0  0  0  0  0  0  0  0
    2.9483    1.3979    0.0909 C   0  0  0  0  0  0  0  0  0  0  0  0
    1.8903    2.4751    0.2407 C   0  0  0  0  0  0  0  0  0  0  0  0
    0.8299    2.1812    0.7951 O   0  0  0  0  0  0  0  0  0  0  0  0
    2.2176    3.7273   -0.2344 N   0  0  0  0  0  0  0  0  0  0  0  0
    1.4207    4.8894   -0.1924 C   0  0  0  0  0  0  0  0  0  0  0  0
    0.3043    5.0324    0.6568 C   0  0  0  0  0  0  0  0  0  0  0  0
   -0.4954    6.1871    0.6284 C   0  0  0  0  0  0  0  0  0  0  0  0
   -0.1667    7.1859   -0.2620 C   0  0  0  0  0  0  0  0  0  0  0  0
    0.9513    7.0448   -1.0878 C   0  0  0  0  0  0  0  0  0  0  0  0
    1.7714    5.9325   -1.0572 C   0  0  0  0  0  0  0  0  0  0  0  0
    1.0777    8.1414   -1.9326 N   0  0  0  0  0  0  0  0  0  0  0  0
    0.0580    9.0583   -1.7344 C   0  0  0  0  0  0  0  0  0  0  0  0
   -0.0755   10.1059   -2.3329 O   0  0  0  0  0  0  0  0  0  0  0  0
   -0.7835    8.4681   -0.6241 C   0  0  0  0  0  0  0  0  0  0  0  0
   -1.8948    8.9880   -0.0792 C   0  0  0  0  0  0  0  0  0  0  0  0
   -2.4707   10.1845   -0.5561 C   0  0  0  0  0  0  0  0  0  0  0  0
   -3.4782   10.4476   -1.4610 C   0  0  0  0  0  0  0  0  0  0  0  0
   -3.5485   11.8524   -1.6242 C   0  0  0  0  0  0  0  0  0  0  0  0
   -2.6105   12.4105   -0.7850 C   0  0  0  0  0  0  0  0  0  0  0  0
   -1.9711   11.3903   -0.1274 N   0  0  0  0  0  0  0  0  0  0  0  0
    4.4744    0.3888   -1.4940 N   0  0  0  0  0  0  0  0  0  0  0  0
    5.4933    0.2465   -2.4602 C   0  0  0  0  0  0  0  0  0  0  0  0
    6.3579    1.2835   -2.8262 C   0  0  0  0  0  0  0  0  0  0  0  0
    7.3239    1.0871   -3.8168 C   0  0  0  0  0  0  0  0  0  0  0  0
    7.4266   -0.1488   -4.4386 C   0  0  0  0  0  0  0  0  0  0  0  0
    8.3383   -0.3302   -5.4022 F   0  0  0  0  0  0  0  0  0  0  0  0
    6.5966   -1.1999   -4.0710 C   0  0  0  0  0  0  0  0  0  0  0  0
    5.6372   -1.0067   -3.0728 C   0  0  0  0  0  0  0  0  0  0  0  0
    3.4759    1.3172    1.0478 H   0  0  0  0  0  0  0  0  0  0  0  0
    2.4133    0.4573   -0.0875 H   0  0  0  0  0  0  0  0  0  0  0  0
    3.0656    3.7860   -0.8028 H   0  0  0  0  0  0  0  0  0  0  0  0
    0.0365    4.2497    1.3619 H   0  0  0  0  0  0  0  0  0  0  0  0
   -1.3573    6.2617    1.2849 H   0  0  0  0  0  0  0  0  0  0  0  0
    2.6255    5.8603   -1.7216 H   0  0  0  0  0  0  0  0  0  0  0  0
    1.7844    8.2709   -2.6401 H   0  0  0  0  0  0  0  0  0  0  0  0
   -2.4282    8.4589    0.7070 H   0  0  0  0  0  0  0  0  0  0  0  0
   -4.0592    9.7053   -1.9925 H   0  0  0  0  0  0  0  0  0  0  0  0
   -4.1936   12.3946   -2.3022 H   0  0  0  0  0  0  0  0  0  0  0  0
   -2.3210   13.4393   -0.6210 H   0  0  0  0  0  0  0  0  0  0  0  0
   -1.2056   11.5087    0.5227 H   0  0  0  0  0  0  0  0  0  0  0  0
    3.9888   -0.4619   -1.2325 H   0  0  0  0  0  0  0  0  0  0  0  0
    6.3187    2.2573   -2.3482 H   0  0  0  0  0  0  0  0  0  0  0  0
    7.9901    1.8942   -4.1040 H   0  0  0  0  0  0  0  0  0  0  0  0
    6.6966   -2.1591   -4.5696 H   0  0  0  0  0  0  0  0  0  0  0  0
    4.9915   -1.8393   -2.8063 H   0  0  0  0  0  0  0  0  0  0  0  0
  1  2  2  0  0  0  0
  2  3  1  0  0  0  0
  2 23  1  0  0  0  0
  3  4  1  0  0  0  0
  3 31  1  0  0  0  0
  3 32  1  0  0  0  0
  4  5  2  0  0  0  0
  4  6  1  0  0  0  0
  6  7  1  0  0  0  0
  6 33  1  0  0  0  0
  7  8  1  0  0  0  0
  7 12  2  0  0  0  0
  8  9  2  0  0  0  0
  8 34  1  0  0  0  0
  9 10  1  0  0  0  0
  9 35  1  0  0  0  0
 10 11  2  0  0  0  0
 10 16  1  0  0  0  0
 11 12  1  0  0  0  0
 11 13  1  0  0  0  0
 12 36  1  0  0  0  0
 13 14  1  0  0  0  0
 13 37  1  0  0  0  0
 14 15  2  0  0  0  0
 14 16  1  0  0  0  0
 16 17  2  0  0  0  0
 17 18  1  0  0  0  0
 17 38  1  0  0  0  0
 18 19  2  0  0  0  0
 18 22  1  0  0  0  0
 19 20  1  0  0  0  0
 19 39  1  0  0  0  0
 20 21  2  0  0  0  0
 20 40  1  0  0  0  0
 21 22  1  0  0  0  0
 21 41  1  0  0  0  0
 22 42  1  0  0  0  0
 23 24  1  0  0  0  0
 23 43  1  0  0  0  0
 24 25  1  0  0  0  0
 24 30  2  0  0  0  0
 25 26  2  0  0  0  0
 25 44  1  0  0  0  0
 26 27  1  0  0  0  0
 26 45  1  0  0  0  0
 27 28  1  0  0  0  0
 27 29  2  0  0  0  0
 29 30  1  0  0  0  0
 29 46  1  0  0  0  0
 30 47  1  0  0  0  0
M  END
$$$$
