CHEMBL2016928
 OpenBabel04072215363D

 51 55  0  0  0  0  0  0  0  0999 V2000
    1.2025    0.2145    3.0825 C   0  0  0  0  0  0  0  0  0  0  0  0
   -0.0029    0.2324    2.1900 C   0  0  0  0  0  0  0  0  0  0  0  0
   -0.4184    1.4194    1.5826 C   0  0  0  0  0  0  0  0  0  0  0  0
   -1.5295    1.4275    0.7425 C   0  0  0  0  0  0  0  0  0  0  0  0
   -2.2201    0.2434    0.4790 C   0  0  0  0  0  0  0  0  0  0  0  0
   -1.8014   -0.9614    1.0433 C   0  0  0  0  0  0  0  0  0  0  0  0
   -2.4202   -2.2038    0.7814 N   0  0  0  0  0  0  0  0  0  0  0  0
   -3.3481   -2.4820   -0.2028 C   0  0  0  0  0  0  0  0  0  0  0  0
   -3.7092   -1.6821   -1.0643 O   0  0  0  0  0  0  0  0  0  0  0  0
   -3.9149   -3.7677   -0.1401 N   0  0  0  0  0  0  0  0  0  0  0  0
   -3.5742   -4.7395    0.9261 C   0  0  0  0  0  0  0  0  0  0  0  0
   -4.2439   -6.1247    0.9717 C   0  0  0  0  0  0  0  0  0  0  0  0
   -5.3966   -6.2163    0.0662 C   0  0  0  0  0  0  0  0  0  0  0  0
   -6.2244   -7.2908   -0.0367 N   0  0  0  0  0  0  0  0  0  0  0  0
   -7.0883   -6.9830   -0.9925 C   0  0  0  0  0  0  0  0  0  0  0  0
   -8.1658   -7.7420   -1.5380 C   0  0  0  0  0  0  0  0  0  0  0  0
   -8.4722   -8.9273   -0.9773 C   0  0  0  0  0  0  0  0  0  0  0  0
   -9.5469   -9.7625   -1.5105 C   0  0  0  0  0  0  0  0  0  0  0  0
   -9.8873  -10.9829   -0.9204 C   0  0  0  0  0  0  0  0  0  0  0  0
  -10.9104  -11.7620   -1.4660 C   0  0  0  0  0  0  0  0  0  0  0  0
  -11.5925  -11.3285   -2.6040 C   0  0  0  0  0  0  0  0  0  0  0  0
  -11.2610  -10.1097   -3.1967 C   0  0  0  0  0  0  0  0  0  0  0  0
  -10.2453   -9.3316   -2.6442 C   0  0  0  0  0  0  0  0  0  0  0  0
   -9.9228   -8.0986   -3.2175 N   0  0  0  0  0  0  0  0  0  0  0  0
   -8.9524   -7.2633   -2.7250 C   0  0  0  0  0  0  0  0  0  0  0  0
   -8.7439   -6.1681   -3.2480 O   0  0  0  0  0  0  0  0  0  0  0  0
   -6.8205   -5.7173   -1.4866 N   0  0  0  0  0  0  0  0  0  0  0  0
   -5.7517   -5.2197   -0.7924 C   0  0  0  0  0  0  0  0  0  0  0  0
   -5.1462   -3.8926   -0.9395 C   0  0  0  0  0  0  0  0  0  0  0  0
   -0.7087   -0.9531    1.9246 C   0  0  0  0  0  0  0  0  0  0  0  0
    1.6318    1.2165    3.1917 H   0  0  0  0  0  0  0  0  0  0  0  0
    1.9766   -0.4345    2.6601 H   0  0  0  0  0  0  0  0  0  0  0  0
    0.9329   -0.1439    4.0806 H   0  0  0  0  0  0  0  0  0  0  0  0
    0.1185    2.3488    1.7585 H   0  0  0  0  0  0  0  0  0  0  0  0
   -1.8574    2.3544    0.2808 H   0  0  0  0  0  0  0  0  0  0  0  0
   -3.0866    0.2973   -0.1720 H   0  0  0  0  0  0  0  0  0  0  0  0
   -2.0491   -2.9799    1.2993 H   0  0  0  0  0  0  0  0  0  0  0  0
   -3.7509   -4.2353    1.8835 H   0  0  0  0  0  0  0  0  0  0  0  0
   -2.4901   -4.9053    0.8598 H   0  0  0  0  0  0  0  0  0  0  0  0
   -4.5539   -6.3353    2.0023 H   0  0  0  0  0  0  0  0  0  0  0  0
   -3.5128   -6.8966    0.7027 H   0  0  0  0  0  0  0  0  0  0  0  0
   -7.9182   -9.2998   -0.1202 H   0  0  0  0  0  0  0  0  0  0  0  0
   -9.3629  -11.3368   -0.0353 H   0  0  0  0  0  0  0  0  0  0  0  0
  -11.1749  -12.7100   -1.0042 H   0  0  0  0  0  0  0  0  0  0  0  0
  -12.3843  -11.9418   -3.0273 H   0  0  0  0  0  0  0  0  0  0  0  0
  -11.8010   -9.7815   -4.0799 H   0  0  0  0  0  0  0  0  0  0  0  0
  -10.4295   -7.7624   -4.0249 H   0  0  0  0  0  0  0  0  0  0  0  0
   -7.3357   -5.2677   -2.2386 H   0  0  0  0  0  0  0  0  0  0  0  0
   -5.8498   -3.1285   -0.5867 H   0  0  0  0  0  0  0  0  0  0  0  0
   -4.9115   -3.6796   -1.9884 H   0  0  0  0  0  0  0  0  0  0  0  0
   -0.3780   -1.8762    2.3951 H   0  0  0  0  0  0  0  0  0  0  0  0
  1  2  1  0  0  0  0
  1 31  1  0  0  0  0
  1 32  1  0  0  0  0
  1 33  1  0  0  0  0
  2  3  1  0  0  0  0
  2 30  2  0  0  0  0
  3  4  2  0  0  0  0
  3 34  1  0  0  0  0
  4  5  1  0  0  0  0
  4 35  1  0  0  0  0
  5  6  2  0  0  0  0
  5 36  1  0  0  0  0
  6  7  1  0  0  0  0
  6 30  1  0  0  0  0
  7  8  1  0  0  0  0
  7 37  1  0  0  0  0
  8  9  2  0  0  0  0
  8 10  1  0  0  0  0
 10 11  1  0  0  0  0
 10 29  1  0  0  0  0
 11 12  1  0  0  0  0
 11 38  1  0  0  0  0
 11 39  1  0  0  0  0
 12 13  1  0  0  0  0
 12 40  1  0  0  0  0
 12 41  1  0  0  0  0
 13 14  1  0  0  0  0
 13 28  2  0  0  0  0
 14 15  2  0  0  0  0
 15 16  1  0  0  0  0
 15 27  1  0  0  0  0
 16 17  2  0  0  0  0
 16 25  1  0  0  0  0
 17 18  1  0  0  0  0
 17 42  1  0  0  0  0
 18 19  1  0  0  0  0
 18 23  2  0  0  0  0
 19 20  2  0  0  0  0
 19 43  1  0  0  0  0
 20 21  1  0  0  0  0
 20 44  1  0  0  0  0
 21 22  2  0  0  0  0
 21 45  1  0  0  0  0
 22 23  1  0  0  0  0
 22 46  1  0  0  0  0
 23 24  1  0  0  0  0
 24 25  1  0  0  0  0
 24 47  1  0  0  0  0
 25 26  2  0  0  0  0
 27 28  1  0  0  0  0
 27 48  1  0  0  0  0
 28 29  1  0  0  0  0
 29 49  1  0  0  0  0
 29 50  1  0  0  0  0
 30 51  1  0  0  0  0
M  END
$$$$
