CHEMBL3353348
 OpenBabel04072215363D

 63 68  0  0  1  0  0  0  0  0999 V2000
    8.0328   -4.3635   -4.1472 C   0  0  0  0  0  0  0  0  0  0  0  0
    8.3282   -5.7286   -3.8827 O   0  0  0  0  0  0  0  0  0  0  0  0
    7.5214   -6.3791   -2.9873 C   0  0  0  0  0  0  0  0  0  0  0  0
    7.8707   -7.7300   -2.7890 C   0  0  0  0  0  0  0  0  0  0  0  0
    7.1593   -8.5359   -1.9031 C   0  0  0  0  0  0  0  0  0  0  0  0
    6.0803   -7.9601   -1.2677 C   0  0  0  0  0  0  0  0  0  0  0  0
    5.6664   -6.6310   -1.4748 C   0  0  0  0  0  0  0  0  0  0  0  0
    6.4295   -5.8185   -2.3047 C   0  0  0  0  0  0  0  0  0  0  0  0
    4.4451   -6.4003   -0.6250 C   0  0  1  0  0  0  0  0  0  0  0  0
    4.0894   -5.0534   -0.0696 C   0  0  0  0  0  0  0  0  0  0  0  0
    3.1429   -5.7318   -1.0397 C   0  0  1  0  0  0  0  0  0  0  0  0
    2.8609   -5.1089   -2.3883 C   0  0  0  0  0  0  0  0  0  0  0  0
    2.2494   -3.8436   -2.4754 C   0  0  0  0  0  0  0  0  0  0  0  0
    1.9470   -3.2270   -3.7029 C   0  0  0  0  0  0  0  0  0  0  0  0
    2.2500   -3.9061   -4.8985 C   0  0  0  0  0  0  0  0  0  0  0  0
    2.1626   -3.6443   -6.3010 C   0  0  0  0  0  0  0  0  0  0  0  0
    1.7392   -2.4024   -6.8892 C   0  0  0  0  0  0  0  0  0  0  0  0
    1.7241   -2.1518   -8.2107 C   0  0  0  0  0  0  0  0  0  0  0  0
    1.3748   -0.8656   -8.8337 C   0  0  0  0  0  0  0  0  0  0  0  0
    1.6078    0.3636   -8.2042 C   0  0  0  0  0  0  0  0  0  0  0  0
    1.3400    1.5680   -8.8631 C   0  0  0  0  0  0  0  0  0  0  0  0
    0.8595    1.5705  -10.1791 C   0  0  0  0  0  0  0  0  0  0  0  0
    0.6228    2.8731  -10.9162 C   0  0  0  0  0  0  0  0  0  0  0  0
    1.8200    3.7287  -11.0233 N   0  0  0  0  0  0  0  0  0  0  0  0
    2.9032    3.0768  -11.7653 C   0  0  0  0  0  0  0  0  0  0  0  0
    1.4689    4.9878  -11.6859 C   0  0  0  0  0  0  0  0  0  0  0  0
    0.6204    0.3428  -10.8089 C   0  0  0  0  0  0  0  0  0  0  0  0
    0.8794   -0.8603  -10.1446 C   0  0  0  0  0  0  0  0  0  0  0  0
    2.5780   -4.7012   -7.0181 N   0  0  0  0  0  0  0  0  0  0  0  0
    2.9342   -5.6046   -6.0952 N   0  0  0  0  0  0  0  0  0  0  0  0
    2.7969   -5.1803   -4.8037 C   0  0  0  0  0  0  0  0  0  0  0  0
    3.0995   -5.8048   -3.5863 C   0  0  0  0  0  0  0  0  0  0  0  0
    4.3124   -7.6832    0.1728 C   0  0  0  0  0  0  0  0  0  0  0  0
    3.4976   -7.8855    1.0523 O   0  0  0  0  0  0  0  0  0  0  0  0
    5.2695   -8.5609   -0.3060 N   0  0  0  0  0  0  0  0  0  0  0  0
    8.6579   -4.0438   -4.9867 H   0  0  0  0  0  0  0  0  0  0  0  0
    8.2867   -3.7450   -3.2808 H   0  0  0  0  0  0  0  0  0  0  0  0
    6.9888   -4.2223   -4.4447 H   0  0  0  0  0  0  0  0  0  0  0  0
    8.7205   -8.1459   -3.3280 H   0  0  0  0  0  0  0  0  0  0  0  0
    7.4505   -9.5640   -1.7263 H   0  0  0  0  0  0  0  0  0  0  0  0
    6.1666   -4.7721   -2.4030 H   0  0  0  0  0  0  0  0  0  0  0  0
    4.6399   -4.1839   -0.4098 H   0  0  0  0  0  0  0  0  0  0  0  0
    3.7897   -4.9973    0.9712 H   0  0  0  0  0  0  0  0  0  0  0  0
    2.2470   -6.1554   -0.5805 H   0  0  0  0  0  0  0  0  0  0  0  0
    1.9829   -3.3202   -1.5567 H   0  0  0  0  0  0  0  0  0  0  0  0
    1.4787   -2.2479   -3.7190 H   0  0  0  0  0  0  0  0  0  0  0  0
    1.4411   -1.6200   -6.1984 H   0  0  0  0  0  0  0  0  0  0  0  0
    2.0087   -2.9439   -8.9033 H   0  0  0  0  0  0  0  0  0  0  0  0
    2.0317    0.4069   -7.2049 H   0  0  0  0  0  0  0  0  0  0  0  0
    1.5420    2.5109   -8.3587 H   0  0  0  0  0  0  0  0  0  0  0  0
   -0.1563    3.4099  -10.3576 H   0  0  0  0  0  0  0  0  0  0  0  0
    0.2062    2.6705  -11.9117 H   0  0  0  0  0  0  0  0  0  0  0  0
    3.2149    2.1390  -11.2944 H   0  0  0  0  0  0  0  0  0  0  0  0
    3.7926    3.7178  -11.7707 H   0  0  0  0  0  0  0  0  0  0  0  0
    2.6259    2.8655  -12.8043 H   0  0  0  0  0  0  0  0  0  0  0  0
    0.6652    5.5021  -11.1477 H   0  0  0  0  0  0  0  0  0  0  0  0
    1.1426    4.8311  -12.7212 H   0  0  0  0  0  0  0  0  0  0  0  0
    2.3271    5.6690  -11.6964 H   0  0  0  0  0  0  0  0  0  0  0  0
    0.2495    0.3127  -11.8311 H   0  0  0  0  0  0  0  0  0  0  0  0
    0.7008   -1.7975  -10.6688 H   0  0  0  0  0  0  0  0  0  0  0  0
    3.2836   -6.5014   -6.4136 H   0  0  0  0  0  0  0  0  0  0  0  0
    3.5114   -6.8092   -3.5672 H   0  0  0  0  0  0  0  0  0  0  0  0
    5.3867   -9.4903    0.0638 H   0  0  0  0  0  0  0  0  0  0  0  0
  1  2  1  0  0  0  0
  1 36  1  0  0  0  0
  1 37  1  0  0  0  0
  1 38  1  0  0  0  0
  2  3  1  0  0  0  0
  3  4  1  0  0  0  0
  3  8  2  0  0  0  0
  4  5  2  0  0  0  0
  4 39  1  0  0  0  0
  5  6  1  0  0  0  0
  5 40  1  0  0  0  0
  6  7  2  0  0  0  0
  6 35  1  0  0  0  0
  7  8  1  0  0  0  0
  8 41  1  0  0  0  0
  9  7  1  6  0  0  0
  9 10  1  0  0  0  0
  9 11  1  0  0  0  0
  9 33  1  0  0  0  0
 10 11  1  0  0  0  0
 10 42  1  0  0  0  0
 10 43  1  0  0  0  0
 11 12  1  0  0  0  0
 11 44  1  1  0  0  0
 12 13  1  0  0  0  0
 12 32  2  0  0  0  0
 13 14  2  0  0  0  0
 13 45  1  0  0  0  0
 14 15  1  0  0  0  0
 14 46  1  0  0  0  0
 15 16  1  0  0  0  0
 15 31  2  0  0  0  0
 16 17  1  0  0  0  0
 16 29  2  0  0  0  0
 17 18  2  0  0  0  0
 17 47  1  0  0  0  0
 18 19  1  0  0  0  0
 18 48  1  0  0  0  0
 19 20  1  0  0  0  0
 19 28  2  0  0  0  0
 20 21  2  0  0  0  0
 20 49  1  0  0  0  0
 21 22  1  0  0  0  0
 21 50  1  0  0  0  0
 22 23  1  0  0  0  0
 22 27  2  0  0  0  0
 23 24  1  0  0  0  0
 23 51  1  0  0  0  0
 23 52  1  0  0  0  0
 24 25  1  0  0  0  0
 24 26  1  0  0  0  0
 25 53  1  0  0  0  0
 25 54  1  0  0  0  0
 25 55  1  0  0  0  0
 26 56  1  0  0  0  0
 26 57  1  0  0  0  0
 26 58  1  0  0  0  0
 27 28  1  0  0  0  0
 27 59  1  0  0  0  0
 28 60  1  0  0  0  0
 29 30  1  0  0  0  0
 30 31  1  0  0  0  0
 30 61  1  0  0  0  0
 31 32  1  0  0  0  0
 32 62  1  0  0  0  0
 33 34  2  0  0  0  0
 33 35  1  0  0  0  0
 35 63  1  0  0  0  0
M  END
$$$$
