CHEMBL185569
 OpenBabel04072215363D

 46 49  0  0  0  0  0  0  0  0999 V2000
    2.4546   -0.4153    1.3258 C   0  0  0  0  0  0  0  0  0  0  0  0
    0.9586   -0.3067    1.3470 C   0  0  0  0  0  0  0  0  0  0  0  0
    0.3605    0.8860    1.7771 C   0  0  0  0  0  0  0  0  0  0  0  0
   -1.0206    1.0016    1.8022 C   0  0  0  0  0  0  0  0  0  0  0  0
   -1.8169   -0.0689    1.3991 C   0  0  0  0  0  0  0  0  0  0  0  0
   -1.2502   -1.2702    0.9570 C   0  0  0  0  0  0  0  0  0  0  0  0
   -2.0270   -2.3791    0.5370 N   0  0  0  0  0  0  0  0  0  0  0  0
   -3.4038   -2.3916    0.4264 C   0  0  0  0  0  0  0  0  0  0  0  0
   -4.1379   -1.4270    0.6391 O   0  0  0  0  0  0  0  0  0  0  0  0
   -3.9085   -3.6364    0.0787 N   0  0  0  0  0  0  0  0  0  0  0  0
   -5.3112   -3.7755   -0.0711 C   0  0  0  0  0  0  0  0  0  0  0  0
   -6.0513   -2.8734   -0.8391 C   0  0  0  0  0  0  0  0  0  0  0  0
   -7.4490   -2.9304   -0.8576 C   0  0  0  0  0  0  0  0  0  0  0  0
   -8.1530   -3.9092   -0.1345 C   0  0  0  0  0  0  0  0  0  0  0  0
   -9.6379   -3.9518   -0.1393 C   0  0  0  0  0  0  0  0  0  0  0  0
  -10.3667   -3.6046   -1.3047 C   0  0  0  0  0  0  0  0  0  0  0  0
  -11.7766   -3.6425   -1.3682 C   0  0  0  0  0  0  0  0  0  0  0  0
  -12.5191   -4.0364   -0.2635 C   0  0  0  0  0  0  0  0  0  0  0  0
  -11.8155   -4.3593    0.8779 C   0  0  0  0  0  0  0  0  0  0  0  0
  -10.4135   -4.3190    0.9645 C   0  0  0  0  0  0  0  0  0  0  0  0
  -10.0174   -4.6940    2.3595 C   0  0  0  0  0  0  0  0  0  0  0  0
  -11.2762   -4.9393    3.0131 N   0  0  0  0  0  0  0  0  0  0  0  0
  -12.3531   -4.7900    2.1723 C   0  0  0  0  0  0  0  0  0  0  0  0
  -13.5198   -4.9930    2.4358 O   0  0  0  0  0  0  0  0  0  0  0  0
   -7.3752   -4.8464    0.5725 C   0  0  0  0  0  0  0  0  0  0  0  0
   -5.9748   -4.7849    0.6116 C   0  0  0  0  0  0  0  0  0  0  0  0
    0.1455   -1.3795    0.9390 C   0  0  0  0  0  0  0  0  0  0  0  0
    2.9250    0.5033    1.6984 H   0  0  0  0  0  0  0  0  0  0  0  0
    2.8049   -0.5792    0.3043 H   0  0  0  0  0  0  0  0  0  0  0  0
    2.7833   -1.2381    1.9675 H   0  0  0  0  0  0  0  0  0  0  0  0
    0.9641    1.7289    2.0998 H   0  0  0  0  0  0  0  0  0  0  0  0
   -1.4945    1.9224    2.1323 H   0  0  0  0  0  0  0  0  0  0  0  0
   -2.8869    0.0883    1.4447 H   0  0  0  0  0  0  0  0  0  0  0  0
   -1.5305   -3.1855    0.1825 H   0  0  0  0  0  0  0  0  0  0  0  0
   -3.4268   -4.4129    0.5084 H   0  0  0  0  0  0  0  0  0  0  0  0
   -5.5479   -2.0895   -1.4034 H   0  0  0  0  0  0  0  0  0  0  0  0
   -7.9753   -2.1684   -1.4291 H   0  0  0  0  0  0  0  0  0  0  0  0
   -9.8390   -3.3013   -2.2089 H   0  0  0  0  0  0  0  0  0  0  0  0
  -12.2809   -3.3655   -2.2910 H   0  0  0  0  0  0  0  0  0  0  0  0
  -13.6026   -4.0855   -0.2872 H   0  0  0  0  0  0  0  0  0  0  0  0
   -9.4975   -3.8850    2.8803 H   0  0  0  0  0  0  0  0  0  0  0  0
   -9.4547   -5.6279    2.4077 H   0  0  0  0  0  0  0  0  0  0  0  0
  -11.3895   -5.3042    3.9485 H   0  0  0  0  0  0  0  0  0  0  0  0
   -7.8419   -5.6569    1.1194 H   0  0  0  0  0  0  0  0  0  0  0  0
   -5.4344   -5.4895    1.2370 H   0  0  0  0  0  0  0  0  0  0  0  0
    0.6222   -2.2989    0.6032 H   0  0  0  0  0  0  0  0  0  0  0  0
  1  2  1  0  0  0  0
  1 28  1  0  0  0  0
  1 29  1  0  0  0  0
  1 30  1  0  0  0  0
  2  3  1  0  0  0  0
  2 27  2  0  0  0  0
  3  4  2  0  0  0  0
  3 31  1  0  0  0  0
  4  5  1  0  0  0  0
  4 32  1  0  0  0  0
  5  6  2  0  0  0  0
  5 33  1  0  0  0  0
  6  7  1  0  0  0  0
  6 27  1  0  0  0  0
  7  8  1  0  0  0  0
  7 34  1  0  0  0  0
  8  9  2  0  0  0  0
  8 10  1  0  0  0  0
 10 11  1  0  0  0  0
 10 35  1  0  0  0  0
 11 12  1  0  0  0  0
 11 26  2  0  0  0  0
 12 13  2  0  0  0  0
 12 36  1  0  0  0  0
 13 14  1  0  0  0  0
 13 37  1  0  0  0  0
 14 15  1  0  0  0  0
 14 25  2  0  0  0  0
 15 16  1  0  0  0  0
 15 20  2  0  0  0  0
 16 17  2  0  0  0  0
 16 38  1  0  0  0  0
 17 18  1  0  0  0  0
 17 39  1  0  0  0  0
 18 19  2  0  0  0  0
 18 40  1  0  0  0  0
 19 20  1  0  0  0  0
 19 23  1  0  0  0  0
 20 21  1  0  0  0  0
 21 22  1  0  0  0  0
 21 41  1  0  0  0  0
 21 42  1  0  0  0  0
 22 23  1  0  0  0  0
 22 43  1  0  0  0  0
 23 24  2  0  0  0  0
 25 26  1  0  0  0  0
 25 44  1  0  0  0  0
 26 45  1  0  0  0  0
 27 46  1  0  0  0  0
M  END
$$$$
