CHEMBL3774489
 OpenBabel04072215373D

 37 39  0  0  0  0  0  0  0  0999 V2000
    2.4713    1.6422    0.7324 C   0  0  0  0  0  0  0  0  0  0  0  0
    2.4124    0.3171    0.2030 O   0  0  0  0  0  0  0  0  0  0  0  0
    3.0405   -0.6399    0.9587 C   0  0  0  0  0  0  0  0  0  0  0  0
    4.1521   -0.3393    1.7570 C   0  0  0  0  0  0  0  0  0  0  0  0
    4.7223   -1.2649    2.6144 C   0  0  0  0  0  0  0  0  0  0  0  0
    5.7296   -0.8523    3.3862 N   0  0  0  0  0  0  0  0  0  0  0  0
    6.2218   -1.7425    4.2492 C   0  0  0  0  0  0  0  0  0  0  0  0
    5.8093   -3.0001    4.3909 N   0  0  0  0  0  0  0  0  0  0  0  0
    4.8106   -3.4178    3.5872 C   0  0  0  0  0  0  0  0  0  0  0  0
    4.3702   -4.7631    3.7136 N   0  0  0  0  0  0  0  0  0  0  0  0
    4.7255   -5.5977    4.8083 C   0  0  0  0  0  0  0  0  0  0  0  0
    4.5862   -5.1166    6.1200 C   0  0  0  0  0  0  0  0  0  0  0  0
    5.0038   -5.8870    7.2017 C   0  0  0  0  0  0  0  0  0  0  0  0
    4.9280   -5.4038    8.4747 O   0  0  0  0  0  0  0  0  0  0  0  0
    5.5249   -7.1587    7.0100 C   0  0  0  0  0  0  0  0  0  0  0  0
    5.6348   -7.6697    5.7162 C   0  0  0  0  0  0  0  0  0  0  0  0
    5.2341   -6.8948    4.6221 C   0  0  0  0  0  0  0  0  0  0  0  0
    5.4140   -7.5506    3.0325 Cl  0  0  0  0  0  0  0  0  0  0  0  0
    4.1994   -2.5611    2.6559 C   0  0  0  0  0  0  0  0  0  0  0  0
    3.1115   -2.8943    1.8120 C   0  0  0  0  0  0  0  0  0  0  0  0
    2.5488   -1.9493    0.9467 C   0  0  0  0  0  0  0  0  0  0  0  0
    1.4928   -2.4272    0.2185 O   0  0  0  0  0  0  0  0  0  0  0  0
    1.3224   -1.8762   -1.0836 C   0  0  0  0  0  0  0  0  0  0  0  0
    1.6859    2.2341    0.2545 H   0  0  0  0  0  0  0  0  0  0  0  0
    3.4329    2.1082    0.4935 H   0  0  0  0  0  0  0  0  0  0  0  0
    2.2875    1.6587    1.8136 H   0  0  0  0  0  0  0  0  0  0  0  0
    4.5944    0.6527    1.7438 H   0  0  0  0  0  0  0  0  0  0  0  0
    7.0232   -1.4113    4.8997 H   0  0  0  0  0  0  0  0  0  0  0  0
    4.5029   -5.2466    2.8266 H   0  0  0  0  0  0  0  0  0  0  0  0
    4.1675   -4.1283    6.2790 H   0  0  0  0  0  0  0  0  0  0  0  0
    4.6896   -4.4615    8.4293 H   0  0  0  0  0  0  0  0  0  0  0  0
    5.8521   -7.7437    7.8646 H   0  0  0  0  0  0  0  0  0  0  0  0
    6.0471   -8.6639    5.5681 H   0  0  0  0  0  0  0  0  0  0  0  0
    2.6765   -3.8916    1.8442 H   0  0  0  0  0  0  0  0  0  0  0  0
    0.8455   -2.6419   -1.7040 H   0  0  0  0  0  0  0  0  0  0  0  0
    2.2724   -1.6160   -1.5633 H   0  0  0  0  0  0  0  0  0  0  0  0
    0.6473   -1.0161   -1.0457 H   0  0  0  0  0  0  0  0  0  0  0  0
  1  2  1  0  0  0  0
  1 24  1  0  0  0  0
  1 25  1  0  0  0  0
  1 26  1  0  0  0  0
  2  3  1  0  0  0  0
  3  4  1  0  0  0  0
  3 21  2  0  0  0  0
  4  5  2  0  0  0  0
  4 27  1  0  0  0  0
  5  6  1  0  0  0  0
  5 19  1  0  0  0  0
  6  7  2  0  0  0  0
  7  8  1  0  0  0  0
  7 28  1  0  0  0  0
  8  9  2  0  0  0  0
  9 10  1  0  0  0  0
  9 19  1  0  0  0  0
 10 11  1  0  0  0  0
 10 29  1  0  0  0  0
 11 12  1  0  0  0  0
 11 17  2  0  0  0  0
 12 13  2  0  0  0  0
 12 30  1  0  0  0  0
 13 14  1  0  0  0  0
 13 15  1  0  0  0  0
 14 31  1  0  0  0  0
 15 16  2  0  0  0  0
 15 32  1  0  0  0  0
 16 17  1  0  0  0  0
 16 33  1  0  0  0  0
 17 18  1  0  0  0  0
 19 20  2  0  0  0  0
 20 21  1  0  0  0  0
 20 34  1  0  0  0  0
 21 22  1  0  0  0  0
 22 23  1  0  0  0  0
 23 35  1  0  0  0  0
 23 36  1  0  0  0  0
 23 37  1  0  0  0  0
M  END
$$$$
