CHEMBL98475
 OpenBabel04072215383D

 44 47  0  0  0  0  0  0  0  0999 V2000
    1.4521    0.1611    0.2628 C   0  0  0  0  0  0  0  0  0  0  0  0
    0.5660   -0.7278    0.8605 C   0  0  0  0  0  0  0  0  0  0  0  0
   -0.8064   -0.5607    0.6811 C   0  0  0  0  0  0  0  0  0  0  0  0
   -1.3135    0.4933   -0.1005 C   0  0  0  0  0  0  0  0  0  0  0  0
   -2.7621    0.6348   -0.2436 C   0  0  0  0  0  0  0  0  0  0  0  0
   -3.7296    0.3169    0.6833 C   0  0  0  0  0  0  0  0  0  0  0  0
   -5.0176    0.5054    0.2810 N   0  0  0  0  0  0  0  0  0  0  0  0
   -5.0807    1.0009   -0.9357 C   0  0  0  0  0  0  0  0  0  0  0  0
   -6.2371    1.3305   -1.5630 N   0  0  0  0  0  0  0  0  0  0  0  0
   -7.4957    1.2022   -0.9489 C   0  0  0  0  0  0  0  0  0  0  0  0
   -7.6397    1.3635    0.4302 C   0  0  0  0  0  0  0  0  0  0  0  0
   -8.8377    1.0679    1.0502 C   0  0  0  0  0  0  0  0  0  0  0  0
   -9.9386    0.7228    0.2819 C   0  0  0  0  0  0  0  0  0  0  0  0
  -11.2625    0.4439    0.9398 C   0  0  0  0  0  0  0  0  0  0  0  0
  -12.1004    1.5976    1.2892 N   0  0  0  0  0  0  0  0  0  0  0  0
  -12.5376    2.4053    0.1519 C   0  0  0  0  0  0  0  0  0  0  0  0
  -11.5982    3.5947    0.1116 C   0  0  0  0  0  0  0  0  0  0  0  0
  -11.2580    3.8396    1.5693 C   0  0  0  0  0  0  0  0  0  0  0  0
  -11.5416    2.5220    2.2816 C   0  0  0  0  0  0  0  0  0  0  0  0
   -9.7438    0.6630   -1.0970 C   0  0  0  0  0  0  0  0  0  0  0  0
   -8.5549    0.8934   -1.7236 N   0  0  0  0  0  0  0  0  0  0  0  0
   -3.5345    1.1918   -1.6799 S   0  0  0  0  0  0  0  0  0  0  0  0
   -0.4097    1.3915   -0.6783 C   0  0  0  0  0  0  0  0  0  0  0  0
    0.9663    1.2219   -0.5008 C   0  0  0  0  0  0  0  0  0  0  0  0
    2.5224    0.0289    0.3942 H   0  0  0  0  0  0  0  0  0  0  0  0
    0.9364   -1.5526    1.4632 H   0  0  0  0  0  0  0  0  0  0  0  0
   -1.4780   -1.2744    1.1548 H   0  0  0  0  0  0  0  0  0  0  0  0
   -3.5497   -0.0636    1.6810 H   0  0  0  0  0  0  0  0  0  0  0  0
   -6.3062    1.2320   -2.5662 H   0  0  0  0  0  0  0  0  0  0  0  0
   -6.8076    1.6764    1.0497 H   0  0  0  0  0  0  0  0  0  0  0  0
   -8.8877    1.1099    2.1333 H   0  0  0  0  0  0  0  0  0  0  0  0
  -11.0758   -0.1406    1.8520 H   0  0  0  0  0  0  0  0  0  0  0  0
  -11.8426   -0.2370    0.3035 H   0  0  0  0  0  0  0  0  0  0  0  0
  -13.5567    2.7551    0.3573 H   0  0  0  0  0  0  0  0  0  0  0  0
  -12.5752    1.8590   -0.7959 H   0  0  0  0  0  0  0  0  0  0  0  0
  -12.0613    4.4698   -0.3544 H   0  0  0  0  0  0  0  0  0  0  0  0
  -10.6892    3.3639   -0.4534 H   0  0  0  0  0  0  0  0  0  0  0  0
  -11.8990    4.6303    1.9758 H   0  0  0  0  0  0  0  0  0  0  0  0
  -10.2155    4.1564    1.6831 H   0  0  0  0  0  0  0  0  0  0  0  0
  -12.2886    2.6912    3.0647 H   0  0  0  0  0  0  0  0  0  0  0  0
  -10.6572    2.1464    2.8043 H   0  0  0  0  0  0  0  0  0  0  0  0
  -10.5635    0.4121   -1.7659 H   0  0  0  0  0  0  0  0  0  0  0  0
   -0.7606    2.2405   -1.2598 H   0  0  0  0  0  0  0  0  0  0  0  0
    1.6606    1.9220   -0.9580 H   0  0  0  0  0  0  0  0  0  0  0  0
  1  2  1  0  0  0  0
  1 24  2  0  0  0  0
  1 25  1  0  0  0  0
  2  3  2  0  0  0  0
  2 26  1  0  0  0  0
  3  4  1  0  0  0  0
  3 27  1  0  0  0  0
  4  5  1  0  0  0  0
  4 23  2  0  0  0  0
  5  6  2  0  0  0  0
  5 22  1  0  0  0  0
  6  7  1  0  0  0  0
  6 28  1  0  0  0  0
  7  8  2  0  0  0  0
  8  9  1  0  0  0  0
  8 22  1  0  0  0  0
  9 10  1  0  0  0  0
  9 29  1  0  0  0  0
 10 11  1  0  0  0  0
 10 21  2  0  0  0  0
 11 12  2  0  0  0  0
 11 30  1  0  0  0  0
 12 13  1  0  0  0  0
 12 31  1  0  0  0  0
 13 14  1  0  0  0  0
 13 20  2  0  0  0  0
 14 15  1  0  0  0  0
 14 32  1  0  0  0  0
 14 33  1  0  0  0  0
 15 16  1  0  0  0  0
 15 19  1  0  0  0  0
 16 17  1  0  0  0  0
 16 34  1  0  0  0  0
 16 35  1  0  0  0  0
 17 18  1  0  0  0  0
 17 36  1  0  0  0  0
 17 37  1  0  0  0  0
 18 19  1  0  0  0  0
 18 38  1  0  0  0  0
 18 39  1  0  0  0  0
 19 40  1  0  0  0  0
 19 41  1  0  0  0  0
 20 21  1  0  0  0  0
 20 42  1  0  0  0  0
 23 24  1  0  0  0  0
 23 43  1  0  0  0  0
 24 44  1  0  0  0  0
M  END
$$$$
