CHEMBL3706834
 OpenBabel04072215373D

 51 53  0  0  0  0  0  0  0  0999 V2000
    0.9975   -0.7868   -0.3314 C   0  0  0  0  0  0  0  0  0  0  0  0
    2.2657   -0.2955    0.0761 O   0  0  0  0  0  0  0  0  0  0  0  0
    2.7504   -0.9021    1.2826 C   0  0  0  0  0  0  0  0  0  0  0  0
    4.0626   -0.1978    1.5834 C   0  0  0  0  0  0  0  0  0  0  0  0
    4.7208   -0.6793    2.7362 O   0  0  0  0  0  0  0  0  0  0  0  0
    6.0794   -0.4964    2.8149 C   0  0  0  0  0  0  0  0  0  0  0  0
    6.6566   -1.4355    3.7021 C   0  0  0  0  0  0  0  0  0  0  0  0
    8.0259   -1.5444    3.9354 C   0  0  0  0  0  0  0  0  0  0  0  0
    8.4831   -2.5053    4.7487 N   0  0  0  0  0  0  0  0  0  0  0  0
    9.8076   -2.5694    4.9187 C   0  0  0  0  0  0  0  0  0  0  0  0
   10.7103   -1.7523    4.3668 N   0  0  0  0  0  0  0  0  0  0  0  0
   10.2492   -0.7888    3.5533 C   0  0  0  0  0  0  0  0  0  0  0  0
   11.1736    0.0806    2.9106 N   0  0  0  0  0  0  0  0  0  0  0  0
   12.5613   -0.0167    2.9266 C   0  0  0  0  0  0  0  0  0  0  0  0
   13.2795   -1.1291    3.0841 C   0  0  0  0  0  0  0  0  0  0  0  0
   14.7407   -1.1648    3.1203 C   0  0  0  0  0  0  0  0  0  0  0  0
   15.2810   -2.2505    3.2995 O   0  0  0  0  0  0  0  0  0  0  0  0
   15.4774    0.1214    2.9434 C   0  0  0  0  0  0  0  0  0  0  0  0
   16.8739    0.1884    2.9613 O   0  0  0  0  0  0  0  0  0  0  0  0
   17.6098   -0.9765    3.3114 C   0  0  0  0  0  0  0  0  0  0  0  0
   14.8037    1.2671    2.7219 C   0  0  0  0  0  0  0  0  0  0  0  0
   15.5692    2.4204    2.5359 O   0  0  0  0  0  0  0  0  0  0  0  0
   14.9393    3.6481    2.2077 C   0  0  0  0  0  0  0  0  0  0  0  0
   13.2991    1.2766    2.7102 C   0  0  0  0  0  0  0  0  0  0  0  0
   12.6288    2.2951    2.5386 O   0  0  0  0  0  0  0  0  0  0  0  0
    8.8744   -0.6512    3.2822 C   0  0  0  0  0  0  0  0  0  0  0  0
    8.3147    0.2912    2.3910 C   0  0  0  0  0  0  0  0  0  0  0  0
    6.9326    0.3955    2.1545 C   0  0  0  0  0  0  0  0  0  0  0  0
    6.6976    1.3060    1.1653 O   0  0  0  0  0  0  0  0  0  0  0  0
    5.6508    2.2555    1.2680 C   0  0  0  0  0  0  0  0  0  0  0  0
    0.7414   -0.2793   -1.2674 H   0  0  0  0  0  0  0  0  0  0  0  0
    0.2441   -0.5611    0.4136 H   0  0  0  0  0  0  0  0  0  0  0  0
    1.0578   -1.8619   -0.5245 H   0  0  0  0  0  0  0  0  0  0  0  0
    2.8959   -1.9783    1.1450 H   0  0  0  0  0  0  0  0  0  0  0  0
    2.0338   -0.7465    2.0993 H   0  0  0  0  0  0  0  0  0  0  0  0
    3.7764    0.8369    1.7700 H   0  0  0  0  0  0  0  0  0  0  0  0
    4.6988   -0.2761    0.6959 H   0  0  0  0  0  0  0  0  0  0  0  0
    6.0014   -2.1489    4.2032 H   0  0  0  0  0  0  0  0  0  0  0  0
   10.1852   -3.3619    5.5585 H   0  0  0  0  0  0  0  0  0  0  0  0
   10.8739    1.0563    2.9320 H   0  0  0  0  0  0  0  0  0  0  0  0
   12.8105   -2.0979    3.2087 H   0  0  0  0  0  0  0  0  0  0  0  0
   18.6692   -0.7057    3.3425 H   0  0  0  0  0  0  0  0  0  0  0  0
   17.4969   -1.7525    2.5481 H   0  0  0  0  0  0  0  0  0  0  0  0
   17.3346   -1.3370    4.3081 H   0  0  0  0  0  0  0  0  0  0  0  0
   15.7292    4.3920    2.0581 H   0  0  0  0  0  0  0  0  0  0  0  0
   14.3147    4.0004    3.0332 H   0  0  0  0  0  0  0  0  0  0  0  0
   14.3796    3.5727    1.2708 H   0  0  0  0  0  0  0  0  0  0  0  0
    8.9728    0.9506    1.8269 H   0  0  0  0  0  0  0  0  0  0  0  0
    6.0422    3.2498    1.0344 H   0  0  0  0  0  0  0  0  0  0  0  0
    5.1792    2.2990    2.2533 H   0  0  0  0  0  0  0  0  0  0  0  0
    4.9265    2.0323    0.4770 H   0  0  0  0  0  0  0  0  0  0  0  0
  1  2  1  0  0  0  0
  1 31  1  0  0  0  0
  1 32  1  0  0  0  0
  1 33  1  0  0  0  0
  2  3  1  0  0  0  0
  3  4  1  0  0  0  0
  3 34  1  0  0  0  0
  3 35  1  0  0  0  0
  4  5  1  0  0  0  0
  4 36  1  0  0  0  0
  4 37  1  0  0  0  0
  5  6  1  0  0  0  0
  6  7  1  0  0  0  0
  6 28  2  0  0  0  0
  7  8  2  0  0  0  0
  7 38  1  0  0  0  0
  8  9  1  0  0  0  0
  8 26  1  0  0  0  0
  9 10  2  0  0  0  0
 10 11  1  0  0  0  0
 10 39  1  0  0  0  0
 11 12  2  0  0  0  0
 12 13  1  0  0  0  0
 12 26  1  0  0  0  0
 13 14  1  0  0  0  0
 13 40  1  0  0  0  0
 14 15  2  0  0  0  0
 14 24  1  0  0  0  0
 15 16  1  0  0  0  0
 15 41  1  0  0  0  0
 16 17  2  0  0  0  0
 16 18  1  0  0  0  0
 18 19  1  0  0  0  0
 18 21  2  0  0  0  0
 19 20  1  0  0  0  0
 20 42  1  0  0  0  0
 20 43  1  0  0  0  0
 20 44  1  0  0  0  0
 21 22  1  0  0  0  0
 21 24  1  0  0  0  0
 22 23  1  0  0  0  0
 23 45  1  0  0  0  0
 23 46  1  0  0  0  0
 23 47  1  0  0  0  0
 24 25  2  0  0  0  0
 26 27  2  0  0  0  0
 27 28  1  0  0  0  0
 27 48  1  0  0  0  0
 28 29  1  0  0  0  0
 29 30  1  0  0  0  0
 30 49  1  0  0  0  0
 30 50  1  0  0  0  0
 30 51  1  0  0  0  0
M  END
$$$$
