CHEMBL3220319
 OpenBabel04072215363D

 75 77  0  0  0  0  0  0  0  0999 V2000
    2.1794   -1.6674   -0.2942 C   0  0  0  0  0  0  0  0  0  0  0  0
    3.2122   -0.6938   -0.2065 O   0  0  0  0  0  0  0  0  0  0  0  0
    3.4192   -0.0791    1.0020 C   0  0  0  0  0  0  0  0  0  0  0  0
    3.0385   -0.6407    2.2295 C   0  0  0  0  0  0  0  0  0  0  0  0
    3.4757   -0.1307    3.4842 C   0  0  0  0  0  0  0  0  0  0  0  0
    3.2103   -0.8856    4.7545 C   0  0  0  0  0  0  0  0  0  0  0  0
    3.1509   -2.2912    4.6571 C   0  0  0  0  0  0  0  0  0  0  0  0
    2.9447   -3.1620    5.7245 C   0  0  0  0  0  0  0  0  0  0  0  0
    2.8483   -4.5671    5.5431 N   0  0  0  0  0  0  0  0  0  0  0  0
    2.9786   -5.2279    4.3291 C   0  0  0  0  0  0  0  0  0  0  0  0
    3.2461   -4.6987    3.2584 O   0  0  0  0  0  0  0  0  0  0  0  0
    2.7244   -6.5932    4.4259 N   0  0  0  0  0  0  0  0  0  0  0  0
    2.8369   -7.3808    3.2484 C   0  0  0  0  0  0  0  0  0  0  0  0
    3.9567   -7.2740    2.4161 C   0  0  0  0  0  0  0  0  0  0  0  0
    4.0037   -7.9393    1.1872 C   0  0  0  0  0  0  0  0  0  0  0  0
    2.9219   -8.7194    0.7808 C   0  0  0  0  0  0  0  0  0  0  0  0
    2.8220   -9.3479   -0.4314 O   0  0  0  0  0  0  0  0  0  0  0  0
    4.0645   -9.7724   -1.0061 C   0  0  0  0  0  0  0  0  0  0  0  0
    3.7626  -10.4940   -2.3168 C   0  0  0  0  0  0  0  0  0  0  0  0
    5.0258  -11.0512   -2.9837 C   0  0  0  0  0  0  0  0  0  0  0  0
    5.7765  -12.0131   -2.1590 N   0  0  0  0  0  0  0  0  0  0  0  0
    4.9926  -13.2133   -1.8578 C   0  0  0  0  0  0  0  0  0  0  0  0
    7.0203  -12.3949   -2.8342 C   0  0  0  0  0  0  0  0  0  0  0  0
    1.8126   -8.8431    1.6237 C   0  0  0  0  0  0  0  0  0  0  0  0
    1.7778   -8.2018    2.8695 C   0  0  0  0  0  0  0  0  0  0  0  0
    2.8191   -2.6010    6.9922 C   0  0  0  0  0  0  0  0  0  0  0  0
    2.8945   -1.2025    7.1614 C   0  0  0  0  0  0  0  0  0  0  0  0
    2.6829   -0.6621    8.4068 O   0  0  0  0  0  0  0  0  0  0  0  0
    3.4767   -1.2391    9.4432 C   0  0  0  0  0  0  0  0  0  0  0  0
    3.0729   -0.3369    6.0502 C   0  0  0  0  0  0  0  0  0  0  0  0
    3.0646    1.0351    6.1237 O   0  0  0  0  0  0  0  0  0  0  0  0
    3.5531    1.6400    7.3163 C   0  0  0  0  0  0  0  0  0  0  0  0
    4.2769    1.0149    3.4421 C   0  0  0  0  0  0  0  0  0  0  0  0
    4.5924    1.6398    2.2291 C   0  0  0  0  0  0  0  0  0  0  0  0
    4.1530    1.1119    1.0069 C   0  0  0  0  0  0  0  0  0  0  0  0
    4.4650    1.8800   -0.2403 C   0  0  0  0  0  0  0  0  0  0  0  0
    3.4688    1.8637   -1.3872 C   0  0  0  0  0  0  0  0  0  0  0  0
    5.5520    2.6008   -0.2787 N   0  0  0  0  0  0  0  0  0  0  0  0
    5.6640    3.2892   -1.4927 O   0  0  0  0  0  0  0  0  0  0  0  0
    2.1162   -1.9865   -1.3392 H   0  0  0  0  0  0  0  0  0  0  0  0
    1.2153   -1.2278   -0.0187 H   0  0  0  0  0  0  0  0  0  0  0  0
    2.4011   -2.5560    0.3040 H   0  0  0  0  0  0  0  0  0  0  0  0
    2.4269   -1.5375    2.2194 H   0  0  0  0  0  0  0  0  0  0  0  0
    3.3029   -2.7034    3.6708 H   0  0  0  0  0  0  0  0  0  0  0  0
    2.7568   -5.1411    6.3736 H   0  0  0  0  0  0  0  0  0  0  0  0
    1.9657   -6.8283    5.0470 H   0  0  0  0  0  0  0  0  0  0  0  0
    4.7937   -6.6347    2.6926 H   0  0  0  0  0  0  0  0  0  0  0  0
    4.8716   -7.7832    0.5584 H   0  0  0  0  0  0  0  0  0  0  0  0
    4.5724  -10.4414   -0.3023 H   0  0  0  0  0  0  0  0  0  0  0  0
    4.7029   -8.9117   -1.2307 H   0  0  0  0  0  0  0  0  0  0  0  0
    3.2805   -9.7868   -3.0050 H   0  0  0  0  0  0  0  0  0  0  0  0
    3.0166  -11.2805   -2.1552 H   0  0  0  0  0  0  0  0  0  0  0  0
    5.6789  -10.1979   -3.2130 H   0  0  0  0  0  0  0  0  0  0  0  0
    4.7510  -11.5020   -3.9470 H   0  0  0  0  0  0  0  0  0  0  0  0
    4.1248  -12.9743   -1.2352 H   0  0  0  0  0  0  0  0  0  0  0  0
    5.5881  -13.9260   -1.2756 H   0  0  0  0  0  0  0  0  0  0  0  0
    4.6437  -13.7174   -2.7661 H   0  0  0  0  0  0  0  0  0  0  0  0
    7.6474  -11.5156   -3.0176 H   0  0  0  0  0  0  0  0  0  0  0  0
    6.8338  -12.8939   -3.7922 H   0  0  0  0  0  0  0  0  0  0  0  0
    7.6089  -13.0706   -2.2029 H   0  0  0  0  0  0  0  0  0  0  0  0
    0.9571   -9.4287    1.2962 H   0  0  0  0  0  0  0  0  0  0  0  0
    0.8864   -8.2872    3.4815 H   0  0  0  0  0  0  0  0  0  0  0  0
    2.6353   -3.2380    7.8492 H   0  0  0  0  0  0  0  0  0  0  0  0
    3.6756   -0.4581   10.1843 H   0  0  0  0  0  0  0  0  0  0  0  0
    4.4437   -1.6077    9.0819 H   0  0  0  0  0  0  0  0  0  0  0  0
    2.9181   -2.0392    9.9365 H   0  0  0  0  0  0  0  0  0  0  0  0
    3.8725    2.6573    7.0675 H   0  0  0  0  0  0  0  0  0  0  0  0
    4.4265    1.1183    7.7231 H   0  0  0  0  0  0  0  0  0  0  0  0
    2.7519    1.7288    8.0560 H   0  0  0  0  0  0  0  0  0  0  0  0
    4.6912    1.4346    4.3556 H   0  0  0  0  0  0  0  0  0  0  0  0
    5.2003    2.5415    2.2471 H   0  0  0  0  0  0  0  0  0  0  0  0
    2.5538    1.3139   -1.1630 H   0  0  0  0  0  0  0  0  0  0  0  0
    3.9418    1.4275   -2.2720 H   0  0  0  0  0  0  0  0  0  0  0  0
    3.1612    2.8896   -1.6105 H   0  0  0  0  0  0  0  0  0  0  0  0
    6.4975    3.7794   -1.3767 H   0  0  0  0  0  0  0  0  0  0  0  0
  1  2  1  0  0  0  0
  1 40  1  0  0  0  0
  1 41  1  0  0  0  0
  1 42  1  0  0  0  0
  2  3  1  0  0  0  0
  3  4  1  0  0  0  0
  3 35  2  0  0  0  0
  4  5  2  0  0  0  0
  4 43  1  0  0  0  0
  5  6  1  0  0  0  0
  5 33  1  0  0  0  0
  6  7  1  0  0  0  0
  6 30  2  0  0  0  0
  7  8  2  0  0  0  0
  7 44  1  0  0  0  0
  8  9  1  0  0  0  0
  8 26  1  0  0  0  0
  9 10  1  0  0  0  0
  9 45  1  0  0  0  0
 10 11  2  0  0  0  0
 10 12  1  0  0  0  0
 12 13  1  0  0  0  0
 12 46  1  0  0  0  0
 13 14  1  0  0  0  0
 13 25  2  0  0  0  0
 14 15  2  0  0  0  0
 14 47  1  0  0  0  0
 15 16  1  0  0  0  0
 15 48  1  0  0  0  0
 16 17  1  0  0  0  0
 16 24  2  0  0  0  0
 17 18  1  0  0  0  0
 18 19  1  0  0  0  0
 18 49  1  0  0  0  0
 18 50  1  0  0  0  0
 19 20  1  0  0  0  0
 19 51  1  0  0  0  0
 19 52  1  0  0  0  0
 20 21  1  0  0  0  0
 20 53  1  0  0  0  0
 20 54  1  0  0  0  0
 21 22  1  0  0  0  0
 21 23  1  0  0  0  0
 22 55  1  0  0  0  0
 22 56  1  0  0  0  0
 22 57  1  0  0  0  0
 23 58  1  0  0  0  0
 23 59  1  0  0  0  0
 23 60  1  0  0  0  0
 24 25  1  0  0  0  0
 24 61  1  0  0  0  0
 25 62  1  0  0  0  0
 26 27  2  0  0  0  0
 26 63  1  0  0  0  0
 27 28  1  0  0  0  0
 27 30  1  0  0  0  0
 28 29  1  0  0  0  0
 29 64  1  0  0  0  0
 29 65  1  0  0  0  0
 29 66  1  0  0  0  0
 30 31  1  0  0  0  0
 31 32  1  0  0  0  0
 32 67  1  0  0  0  0
 32 68  1  0  0  0  0
 32 69  1  0  0  0  0
 33 34  2  0  0  0  0
 33 70  1  0  0  0  0
 34 35  1  0  0  0  0
 34 71  1  0  0  0  0
 35 36  1  0  0  0  0
 36 37  1  0  0  0  0
 36 38  2  0  0  0  0
 37 72  1  0  0  0  0
 37 73  1  0  0  0  0
 37 74  1  0  0  0  0
 38 39  1  0  0  0  0
 39 75  1  0  0  0  0
M  END
$$$$
