CHEMBL1940858
 OpenBabel04072215363D

 33 35  0  0  0  0  0  0  0  0999 V2000
    0.8502    0.0412   -0.0680 C   0  0  0  0  0  0  0  0  0  0  0  0
    2.3478    0.0481    0.0146 C   0  0  0  0  0  0  0  0  0  0  0  0
    3.0718    1.2404    0.0249 C   0  0  0  0  0  0  0  0  0  0  0  0
    4.4667    1.2113    0.0969 C   0  0  0  0  0  0  0  0  0  0  0  0
    5.1532   -0.0156    0.1494 C   0  0  0  0  0  0  0  0  0  0  0  0
    6.5571   -0.0901    0.1901 C   0  0  0  0  0  0  0  0  0  0  0  0
    7.2144   -1.3292    0.2010 C   0  0  0  0  0  0  0  0  0  0  0  0
    8.6899   -1.3145    0.1791 C   0  0  0  0  0  0  0  0  0  0  0  0
    9.4651   -2.1842    0.8448 C   0  0  0  0  0  0  0  0  0  0  0  0
   10.9660   -2.1128    0.8253 C   0  0  0  0  0  0  0  0  0  0  0  0
   11.5228   -1.4357   -0.0373 O   0  0  0  0  0  0  0  0  0  0  0  0
   11.6747   -2.8920    1.8307 C   0  0  0  0  0  0  0  0  0  0  0  0
   11.0247   -3.0470    3.4210 S   0  0  0  0  0  0  0  0  0  0  0  0
   12.3050   -4.0485    3.9343 C   0  0  0  0  0  0  0  0  0  0  0  0
   13.2475   -4.2252    2.9481 C   0  0  0  0  0  0  0  0  0  0  0  0
   12.8889   -3.5423    1.7514 C   0  0  0  0  0  0  0  0  0  0  0  0
   14.0173   -3.6466    0.2363 Br  0  0  0  0  0  0  0  0  0  0  0  0
    6.3814   -2.4518    0.1694 C   0  0  0  0  0  0  0  0  0  0  0  0
    6.9523   -4.0762    0.0586 Cl  0  0  0  0  0  0  0  0  0  0  0  0
    5.0291   -2.4176    0.1654 N   0  0  0  0  0  0  0  0  0  0  0  0
    4.4270   -1.2207    0.1445 C   0  0  0  0  0  0  0  0  0  0  0  0
    3.0435   -1.1684    0.0916 C   0  0  0  0  0  0  0  0  0  0  0  0
    0.4546    1.0417   -0.2707 H   0  0  0  0  0  0  0  0  0  0  0  0
    0.4218   -0.3134    0.8746 H   0  0  0  0  0  0  0  0  0  0  0  0
    0.5199   -0.6146   -0.8809 H   0  0  0  0  0  0  0  0  0  0  0  0
    2.5592    2.1981   -0.0326 H   0  0  0  0  0  0  0  0  0  0  0  0
    5.0128    2.1515    0.0963 H   0  0  0  0  0  0  0  0  0  0  0  0
    7.1382    0.8308    0.2023 H   0  0  0  0  0  0  0  0  0  0  0  0
    9.1532   -0.5047   -0.3848 H   0  0  0  0  0  0  0  0  0  0  0  0
    9.0423   -2.9814    1.4410 H   0  0  0  0  0  0  0  0  0  0  0  0
   12.3084   -4.4499    4.9388 H   0  0  0  0  0  0  0  0  0  0  0  0
   14.1418   -4.8198    3.0872 H   0  0  0  0  0  0  0  0  0  0  0  0
    2.4911   -2.1052    0.0922 H   0  0  0  0  0  0  0  0  0  0  0  0
  1  2  1  0  0  0  0
  1 23  1  0  0  0  0
  1 24  1  0  0  0  0
  1 25  1  0  0  0  0
  2  3  1  0  0  0  0
  2 22  2  0  0  0  0
  3  4  2  0  0  0  0
  3 26  1  0  0  0  0
  4  5  1  0  0  0  0
  4 27  1  0  0  0  0
  5  6  1  0  0  0  0
  5 21  2  0  0  0  0
  6  7  2  0  0  0  0
  6 28  1  0  0  0  0
  7  8  1  0  0  0  0
  7 18  1  0  0  0  0
  8  9  2  0  0  0  0
  8 29  1  0  0  0  0
  9 10  1  0  0  0  0
  9 30  1  0  0  0  0
 10 11  2  0  0  0  0
 10 12  1  0  0  0  0
 12 13  1  0  0  0  0
 12 16  2  0  0  0  0
 13 14  1  0  0  0  0
 14 15  2  0  0  0  0
 14 31  1  0  0  0  0
 15 16  1  0  0  0  0
 15 32  1  0  0  0  0
 16 17  1  0  0  0  0
 18 19  1  0  0  0  0
 18 20  2  0  0  0  0
 20 21  1  0  0  0  0
 21 22  1  0  0  0  0
 22 33  1  0  0  0  0
M  END
$$$$
