CHEMBL256715
 OpenBabel04072215363D

 53 56  0  0  1  0  0  0  0  0999 V2000
    4.7865   -1.5520   -1.4240 C   0  0  0  0  0  0  0  0  0  0  0  0
    5.7211   -1.4313   -0.2269 C   0  0  3  0  0  0  0  0  0  0  0  0
    6.8973   -2.2018   -0.4581 O   0  0  0  0  0  0  0  0  0  0  0  0
    6.1494   -0.0129    0.0138 C   0  0  0  0  0  0  0  0  0  0  0  0
    6.7950    0.8555   -0.8451 C   0  0  0  0  0  0  0  0  0  0  0  0
    6.9724    2.1541   -0.2924 C   0  0  0  0  0  0  0  0  0  0  0  0
    7.5424    3.2000   -0.9496 N   0  0  0  0  0  0  0  0  0  0  0  0
    7.5545    4.3674   -0.2851 C   0  0  0  0  0  0  0  0  0  0  0  0
    7.0723    4.5586    0.9933 C   0  0  0  0  0  0  0  0  0  0  0  0
    6.5849    3.4620    1.7060 C   0  0  0  0  0  0  0  0  0  0  0  0
    6.1506    3.5417    3.0142 O   0  0  0  0  0  0  0  0  0  0  0  0
    6.7979    4.3961    3.8778 C   0  0  0  0  0  0  0  0  0  0  0  0
    8.1692    4.6493    3.8333 C   0  0  0  0  0  0  0  0  0  0  0  0
    8.7283    5.5989    4.6901 C   0  0  0  0  0  0  0  0  0  0  0  0
    7.9535    6.2356    5.6688 C   0  0  0  0  0  0  0  0  0  0  0  0
    8.6543    7.1311    6.5009 N   0  0  0  0  0  0  0  0  0  0  0  0
    8.4376    7.5686    7.7891 C   0  0  0  0  0  0  0  0  0  0  0  0
    7.1198    7.3361    8.7854 S   0  0  0  0  0  0  0  0  0  0  0  0
    9.5354    8.2023    8.3635 N   0  0  0  0  0  0  0  0  0  0  0  0
   10.7581    8.4992    7.7786 C   0  0  0  0  0  0  0  0  0  0  0  0
   10.9264    8.5350    6.5594 O   0  0  0  0  0  0  0  0  0  0  0  0
   11.8906    8.7319    8.7557 C   0  0  0  0  0  0  0  0  0  0  0  0
   11.8688   10.0715    9.4430 C   0  0  0  0  0  0  0  0  0  0  0  0
   11.9173   10.1467   10.8427 C   0  0  0  0  0  0  0  0  0  0  0  0
   11.9788   11.3848   11.4842 C   0  0  0  0  0  0  0  0  0  0  0  0
   11.9962   12.5592   10.7352 C   0  0  0  0  0  0  0  0  0  0  0  0
   11.9498   12.4969    9.3440 C   0  0  0  0  0  0  0  0  0  0  0  0
   11.8886   11.2599    8.6995 C   0  0  0  0  0  0  0  0  0  0  0  0
    6.5986    5.9283    5.7573 C   0  0  0  0  0  0  0  0  0  0  0  0
    6.0325    5.0165    4.8625 C   0  0  0  0  0  0  0  0  0  0  0  0
    4.7192    4.7573    4.9516 F   0  0  0  0  0  0  0  0  0  0  0  0
    6.4877    2.2435    1.0119 C   0  0  0  0  0  0  0  0  0  0  0  0
    5.8334    0.7369    1.5219 S   0  0  0  0  0  0  0  0  0  0  0  0
    4.4925   -2.5962   -1.5732 H   0  0  0  0  0  0  0  0  0  0  0  0
    5.2753   -1.2321   -2.3514 H   0  0  0  0  0  0  0  0  0  0  0  0
    3.8820   -0.9500   -1.2872 H   0  0  0  0  0  0  0  0  0  0  0  0
    5.2262   -1.8537    0.6542 H   0  0  0  0  0  0  0  0  0  0  0  0
    7.3795   -1.7954   -1.1966 H   0  0  0  0  0  0  0  0  0  0  0  0
    7.1073    0.5952   -1.8481 H   0  0  0  0  0  0  0  0  0  0  0  0
    7.9927    5.1984   -0.8321 H   0  0  0  0  0  0  0  0  0  0  0  0
    7.1094    5.5497    1.4326 H   0  0  0  0  0  0  0  0  0  0  0  0
    8.8143    4.1350    3.1285 H   0  0  0  0  0  0  0  0  0  0  0  0
    9.7927    5.8077    4.5989 H   0  0  0  0  0  0  0  0  0  0  0  0
    9.5640    7.4144    6.1326 H   0  0  0  0  0  0  0  0  0  0  0  0
    9.4338    8.3682    9.3574 H   0  0  0  0  0  0  0  0  0  0  0  0
   12.8369    8.6316    8.2094 H   0  0  0  0  0  0  0  0  0  0  0  0
   11.8761    7.9150    9.4877 H   0  0  0  0  0  0  0  0  0  0  0  0
   11.9310    9.2430   11.4485 H   0  0  0  0  0  0  0  0  0  0  0  0
   12.0281   11.4335   12.5692 H   0  0  0  0  0  0  0  0  0  0  0  0
   12.0566   13.5226   11.2352 H   0  0  0  0  0  0  0  0  0  0  0  0
   11.9752   13.4133    8.7594 H   0  0  0  0  0  0  0  0  0  0  0  0
   11.8775   11.2334    7.6107 H   0  0  0  0  0  0  0  0  0  0  0  0
    5.9314    6.4034    6.4635 H   0  0  0  0  0  0  0  0  0  0  0  0
  1  2  1  0  0  0  0
  1 34  1  0  0  0  0
  1 35  1  0  0  0  0
  1 36  1  0  0  0  0
  2  3  1  0  0  0  0
  2  4  1  0  0  0  0
  2 37  1  0  0  0  0
  3 38  1  0  0  0  0
  4  5  2  0  0  0  0
  4 33  1  0  0  0  0
  5  6  1  0  0  0  0
  5 39  1  0  0  0  0
  6  7  1  0  0  0  0
  6 32  2  0  0  0  0
  7  8  2  0  0  0  0
  8  9  1  0  0  0  0
  8 40  1  0  0  0  0
  9 10  2  0  0  0  0
  9 41  1  0  0  0  0
 10 11  1  0  0  0  0
 10 32  1  0  0  0  0
 11 12  1  0  0  0  0
 12 13  1  0  0  0  0
 12 30  2  0  0  0  0
 13 14  2  0  0  0  0
 13 42  1  0  0  0  0
 14 15  1  0  0  0  0
 14 43  1  0  0  0  0
 15 16  1  0  0  0  0
 15 29  2  0  0  0  0
 16 17  1  0  0  0  0
 16 44  1  0  0  0  0
 17 18  2  0  0  0  0
 17 19  1  0  0  0  0
 19 20  1  0  0  0  0
 19 45  1  0  0  0  0
 20 21  2  0  0  0  0
 20 22  1  0  0  0  0
 22 23  1  0  0  0  0
 22 46  1  0  0  0  0
 22 47  1  0  0  0  0
 23 24  1  0  0  0  0
 23 28  2  0  0  0  0
 24 25  2  0  0  0  0
 24 48  1  0  0  0  0
 25 26  1  0  0  0  0
 25 49  1  0  0  0  0
 26 27  2  0  0  0  0
 26 50  1  0  0  0  0
 27 28  1  0  0  0  0
 27 51  1  0  0  0  0
 28 52  1  0  0  0  0
 29 30  1  0  0  0  0
 29 53  1  0  0  0  0
 30 31  1  0  0  0  0
 32 33  1  0  0  0  0
M  END
$$$$
