CHEMBL1996649
 OpenBabel04072215363D

 69 72  0  0  0  0  0  0  0  0999 V2000
    4.9565   -0.1557   -0.0342 C   0  0  0  0  0  0  0  0  0  0  0  0
    6.0532    0.1433    0.9831 C   0  0  0  0  0  0  0  0  0  0  0  0
    7.3317    0.5872    0.3999 N   0  0  0  0  0  0  0  0  0  0  0  0
    7.2144    1.7435   -0.5039 C   0  0  0  0  0  0  0  0  0  0  0  0
    6.7880    3.0633    0.1338 C   0  0  0  0  0  0  0  0  0  0  0  0
    8.3633    0.8016    1.4299 C   0  0  0  0  0  0  0  0  0  0  0  0
    8.7114   -0.4370    2.2690 C   0  0  0  0  0  0  0  0  0  0  0  0
    9.2065   -1.6093    1.4184 C   0  0  0  0  0  0  0  0  0  0  0  0
    9.4961   -2.7595    2.2446 N   0  0  0  0  0  0  0  0  0  0  0  0
    8.5310   -3.6731    2.5995 C   0  0  0  0  0  0  0  0  0  0  0  0
    7.3818   -3.6537    2.1701 O   0  0  0  0  0  0  0  0  0  0  0  0
    8.9278   -4.7381    3.5427 C   0  0  0  0  0  0  0  0  0  0  0  0
    8.3089   -5.9650    3.4291 C   0  0  0  0  0  0  0  0  0  0  0  0
    8.5628   -7.0168    4.2238 N   0  0  0  0  0  0  0  0  0  0  0  0
    9.4587   -6.9088    5.2260 C   0  0  0  0  0  0  0  0  0  0  0  0
    9.5741   -8.0675    5.9775 N   0  0  0  0  0  0  0  0  0  0  0  0
   10.1682   -5.6864    5.4462 C   0  0  0  0  0  0  0  0  0  0  0  0
   11.1885   -5.2903    6.4363 C   0  0  0  0  0  0  0  0  0  0  0  0
   11.7885   -6.0754    7.5230 C   0  0  0  0  0  0  0  0  0  0  0  0
   12.1092   -7.4136    7.3236 C   0  0  0  0  0  0  0  0  0  0  0  0
   12.5161   -8.2144    8.3884 C   0  0  0  0  0  0  0  0  0  0  0  0
   12.7512   -7.6726    9.6523 C   0  0  0  0  0  0  0  0  0  0  0  0
   13.2016   -8.4647   10.7335 N   0  0  0  0  0  0  0  0  0  0  0  0
   13.8375   -9.6807   10.5728 C   0  0  0  0  0  0  0  0  0  0  0  0
   14.2187  -10.1249    9.4946 O   0  0  0  0  0  0  0  0  0  0  0  0
   13.9785  -10.3655   11.7690 N   0  0  0  0  0  0  0  0  0  0  0  0
   14.6777  -11.5984   11.8130 C   0  0  0  0  0  0  0  0  0  0  0  0
   15.8358  -11.8069   11.0538 C   0  0  0  0  0  0  0  0  0  0  0  0
   16.4850  -13.0407   11.0576 C   0  0  0  0  0  0  0  0  0  0  0  0
   15.9764  -14.0806   11.8267 C   0  0  0  0  0  0  0  0  0  0  0  0
   14.8362  -13.8655   12.5950 C   0  0  0  0  0  0  0  0  0  0  0  0
   14.3326  -14.8782   13.3133 F   0  0  0  0  0  0  0  0  0  0  0  0
   14.1927  -12.6294   12.6150 C   0  0  0  0  0  0  0  0  0  0  0  0
   12.5192   -6.3112    9.8476 C   0  0  0  0  0  0  0  0  0  0  0  0
   12.0343   -5.5206    8.7920 C   0  0  0  0  0  0  0  0  0  0  0  0
   11.5937   -3.9839    6.2596 C   0  0  0  0  0  0  0  0  0  0  0  0
   10.7654   -3.1955    5.0193 S   0  0  0  0  0  0  0  0  0  0  0  0
    9.8712   -4.6084    4.5833 C   0  0  0  0  0  0  0  0  0  0  0  0
    4.1297   -0.6782    0.4591 H   0  0  0  0  0  0  0  0  0  0  0  0
    5.3249   -0.8019   -0.8377 H   0  0  0  0  0  0  0  0  0  0  0  0
    4.5497    0.7596   -0.4738 H   0  0  0  0  0  0  0  0  0  0  0  0
    6.2126   -0.7972    1.5207 H   0  0  0  0  0  0  0  0  0  0  0  0
    5.6806    0.8673    1.7171 H   0  0  0  0  0  0  0  0  0  0  0  0
    6.5253    1.5038   -1.3216 H   0  0  0  0  0  0  0  0  0  0  0  0
    8.1794    1.8986   -1.0043 H   0  0  0  0  0  0  0  0  0  0  0  0
    5.9063    2.9514    0.7706 H   0  0  0  0  0  0  0  0  0  0  0  0
    6.5372    3.7883   -0.6480 H   0  0  0  0  0  0  0  0  0  0  0  0
    7.5971    3.4931    0.7329 H   0  0  0  0  0  0  0  0  0  0  0  0
    8.0609    1.6035    2.1150 H   0  0  0  0  0  0  0  0  0  0  0  0
    9.2894    1.1347    0.9431 H   0  0  0  0  0  0  0  0  0  0  0  0
    7.8556   -0.7411    2.8835 H   0  0  0  0  0  0  0  0  0  0  0  0
    9.4937   -0.1607    2.9883 H   0  0  0  0  0  0  0  0  0  0  0  0
   10.1340   -1.3374    0.9093 H   0  0  0  0  0  0  0  0  0  0  0  0
    8.4657   -1.8934    0.6647 H   0  0  0  0  0  0  0  0  0  0  0  0
   10.4127   -2.8225    2.6705 H   0  0  0  0  0  0  0  0  0  0  0  0
    7.5607   -6.1467    2.6603 H   0  0  0  0  0  0  0  0  0  0  0  0
    8.8413   -8.7177    5.7117 H   0  0  0  0  0  0  0  0  0  0  0  0
    9.6771   -7.9179    6.9719 H   0  0  0  0  0  0  0  0  0  0  0  0
   12.0093   -7.8798    6.3457 H   0  0  0  0  0  0  0  0  0  0  0  0
   12.6258   -9.2770    8.1892 H   0  0  0  0  0  0  0  0  0  0  0  0
   13.3193   -8.0172   11.6303 H   0  0  0  0  0  0  0  0  0  0  0  0
   13.2194  -10.2434   12.4230 H   0  0  0  0  0  0  0  0  0  0  0  0
   16.2446  -11.0100   10.4325 H   0  0  0  0  0  0  0  0  0  0  0  0
   17.3711  -13.1879   10.4453 H   0  0  0  0  0  0  0  0  0  0  0  0
   16.4534  -15.0544   11.8244 H   0  0  0  0  0  0  0  0  0  0  0  0
   13.2903  -12.5207   13.2066 H   0  0  0  0  0  0  0  0  0  0  0  0
   12.7133   -5.8413   10.8079 H   0  0  0  0  0  0  0  0  0  0  0  0
   11.8485   -4.4657    8.9832 H   0  0  0  0  0  0  0  0  0  0  0  0
   12.3396   -3.4348    6.8188 H   0  0  0  0  0  0  0  0  0  0  0  0
  1  2  1  0  0  0  0
  1 39  1  0  0  0  0
  1 40  1  0  0  0  0
  1 41  1  0  0  0  0
  2  3  1  0  0  0  0
  2 42  1  0  0  0  0
  2 43  1  0  0  0  0
  3  4  1  0  0  0  0
  3  6  1  0  0  0  0
  4  5  1  0  0  0  0
  4 44  1  0  0  0  0
  4 45  1  0  0  0  0
  5 46  1  0  0  0  0
  5 47  1  0  0  0  0
  5 48  1  0  0  0  0
  6  7  1  0  0  0  0
  6 49  1  0  0  0  0
  6 50  1  0  0  0  0
  7  8  1  0  0  0  0
  7 51  1  0  0  0  0
  7 52  1  0  0  0  0
  8  9  1  0  0  0  0
  8 53  1  0  0  0  0
  8 54  1  0  0  0  0
  9 10  1  0  0  0  0
  9 55  1  0  0  0  0
 10 11  2  0  0  0  0
 10 12  1  0  0  0  0
 12 13  1  0  0  0  0
 12 38  2  0  0  0  0
 13 14  2  0  0  0  0
 13 56  1  0  0  0  0
 14 15  1  0  0  0  0
 15 16  1  0  0  0  0
 15 17  2  0  0  0  0
 16 57  1  0  0  0  0
 16 58  1  0  0  0  0
 17 18  1  0  0  0  0
 17 38  1  0  0  0  0
 18 19  1  0  0  0  0
 18 36  2  0  0  0  0
 19 20  1  0  0  0  0
 19 35  2  0  0  0  0
 20 21  2  0  0  0  0
 20 59  1  0  0  0  0
 21 22  1  0  0  0  0
 21 60  1  0  0  0  0
 22 23  1  0  0  0  0
 22 34  2  0  0  0  0
 23 24  1  0  0  0  0
 23 61  1  0  0  0  0
 24 25  2  0  0  0  0
 24 26  1  0  0  0  0
 26 27  1  0  0  0  0
 26 62  1  0  0  0  0
 27 28  1  0  0  0  0
 27 33  2  0  0  0  0
 28 29  2  0  0  0  0
 28 63  1  0  0  0  0
 29 30  1  0  0  0  0
 29 64  1  0  0  0  0
 30 31  2  0  0  0  0
 30 65  1  0  0  0  0
 31 32  1  0  0  0  0
 31 33  1  0  0  0  0
 33 66  1  0  0  0  0
 34 35  1  0  0  0  0
 34 67  1  0  0  0  0
 35 68  1  0  0  0  0
 36 37  1  0  0  0  0
 36 69  1  0  0  0  0
 37 38  1  0  0  0  0
M  END
$$$$
