CHEMBL1681931
 OpenBabel04072215363D

 39 40  0  0  0  0  0  0  0  0999 V2000
    4.8814    1.1882    2.0307 C   0  0  0  0  0  0  0  0  0  0  0  0
    4.3741    0.4866    0.8762 N   0  0  0  0  0  0  0  0  0  0  0  0
    5.2643    0.0750   -0.0920 C   0  0  0  0  0  0  0  0  0  0  0  0
    6.4761    0.2431   -0.0090 O   0  0  0  0  0  0  0  0  0  0  0  0
    4.5995   -0.4731   -1.1673 N   0  0  0  0  0  0  0  0  0  0  0  0
    5.2928   -0.9421   -2.3073 C   0  0  0  0  0  0  0  0  0  0  0  0
    6.3971   -1.7905   -2.1782 C   0  0  0  0  0  0  0  0  0  0  0  0
    7.0596   -2.2653   -3.3155 C   0  0  0  0  0  0  0  0  0  0  0  0
    6.6295   -1.8870   -4.5883 C   0  0  0  0  0  0  0  0  0  0  0  0
    7.3570   -2.3802   -5.6547 O   0  0  0  0  0  0  0  0  0  0  0  0
    6.6790   -2.6155   -6.8470 C   0  0  0  0  0  0  0  0  0  0  0  0
    5.3981   -3.0361   -6.7705 N   0  0  0  0  0  0  0  0  0  0  0  0
    4.7518   -3.1405   -7.9360 C   0  0  0  0  0  0  0  0  0  0  0  0
    5.2667   -2.8765   -9.1438 N   0  0  0  0  0  0  0  0  0  0  0  0
    6.5602   -2.5036   -9.1816 C   0  0  0  0  0  0  0  0  0  0  0  0
    7.0790   -2.3596  -10.4674 N   0  0  0  0  0  0  0  0  0  0  0  0
    7.3348   -2.3816   -8.0389 C   0  0  0  0  0  0  0  0  0  0  0  0
    8.7471   -1.9891   -8.0712 C   0  0  0  0  0  0  0  0  0  0  0  0
    9.2347   -1.2744   -9.0355 N   0  0  0  0  0  0  0  0  0  0  0  0
   10.6031   -1.0719   -8.8157 O   0  0  0  0  0  0  0  0  0  0  0  0
   11.1041   -0.2305   -9.8490 C   0  0  0  0  0  0  0  0  0  0  0  0
    5.5568   -0.9984   -4.7198 C   0  0  0  0  0  0  0  0  0  0  0  0
    4.8683   -0.5618   -3.5877 C   0  0  0  0  0  0  0  0  0  0  0  0
    3.5290    0.5136   -3.7997 Cl  0  0  0  0  0  0  0  0  0  0  0  0
    4.0532    1.3845    2.7148 H   0  0  0  0  0  0  0  0  0  0  0  0
    5.3241    2.1319    1.7013 H   0  0  0  0  0  0  0  0  0  0  0  0
    5.6452    0.5825    2.5269 H   0  0  0  0  0  0  0  0  0  0  0  0
    3.5981   -0.1451    1.0211 H   0  0  0  0  0  0  0  0  0  0  0  0
    3.7237   -0.0001   -1.3595 H   0  0  0  0  0  0  0  0  0  0  0  0
    6.7415   -2.1020   -1.1944 H   0  0  0  0  0  0  0  0  0  0  0  0
    7.9108   -2.9317   -3.2003 H   0  0  0  0  0  0  0  0  0  0  0  0
    3.7165   -3.4594   -7.8995 H   0  0  0  0  0  0  0  0  0  0  0  0
    6.3246   -2.3337  -11.1434 H   0  0  0  0  0  0  0  0  0  0  0  0
    7.7350   -1.5805  -10.5276 H   0  0  0  0  0  0  0  0  0  0  0  0
    9.3897   -2.3244   -7.2343 H   0  0  0  0  0  0  0  0  0  0  0  0
   12.1781   -0.0921   -9.6984 H   0  0  0  0  0  0  0  0  0  0  0  0
   10.6125    0.7464   -9.8067 H   0  0  0  0  0  0  0  0  0  0  0  0
   10.9412   -0.6903  -10.8291 H   0  0  0  0  0  0  0  0  0  0  0  0
    5.2415   -0.6457   -5.6971 H   0  0  0  0  0  0  0  0  0  0  0  0
  1  2  1  0  0  0  0
  1 25  1  0  0  0  0
  1 26  1  0  0  0  0
  1 27  1  0  0  0  0
  2  3  1  0  0  0  0
  2 28  1  0  0  0  0
  3  4  2  0  0  0  0
  3  5  1  0  0  0  0
  5  6  1  0  0  0  0
  5 29  1  0  0  0  0
  6  7  1  0  0  0  0
  6 23  2  0  0  0  0
  7  8  2  0  0  0  0
  7 30  1  0  0  0  0
  8  9  1  0  0  0  0
  8 31  1  0  0  0  0
  9 10  1  0  0  0  0
  9 22  2  0  0  0  0
 10 11  1  0  0  0  0
 11 12  1  0  0  0  0
 11 17  2  0  0  0  0
 12 13  2  0  0  0  0
 13 14  1  0  0  0  0
 13 32  1  0  0  0  0
 14 15  2  0  0  0  0
 15 16  1  0  0  0  0
 15 17  1  0  0  0  0
 16 33  1  0  0  0  0
 16 34  1  0  0  0  0
 17 18  1  0  0  0  0
 18 19  2  0  0  0  0
 18 35  1  0  0  0  0
 19 20  1  0  0  0  0
 20 21  1  0  0  0  0
 21 36  1  0  0  0  0
 21 37  1  0  0  0  0
 21 38  1  0  0  0  0
 22 23  1  0  0  0  0
 22 39  1  0  0  0  0
 23 24  1  0  0  0  0
M  END
$$$$
