CHEMBL572881
 OpenBabel04072215383D

 51 54  0  0  0  0  0  0  0  0999 V2000
    2.6718    0.3737   -1.0972 C   0  0  0  0  0  0  0  0  0  0  0  0
    1.6918    0.9132   -0.0481 C   0  0  0  0  0  0  0  0  0  0  0  0
    0.7317   -0.1915    0.3997 C   0  0  0  0  0  0  0  0  0  0  0  0
    0.9036    2.1447   -0.5922 C   0  0  0  0  0  0  0  0  0  0  0  0
    1.4779    3.3656   -0.0111 N   0  0  0  0  0  0  0  0  0  0  0  0
    2.2490    2.9140    1.0795 C   0  0  0  0  0  0  0  0  0  0  0  0
    2.9057    3.7377    1.9787 C   0  0  0  0  0  0  0  0  0  0  0  0
    3.7875    3.1763    2.9092 C   0  0  0  0  0  0  0  0  0  0  0  0
    4.5832    3.9499    3.7904 N   0  0  0  0  0  0  0  0  0  0  0  0
    4.7533    5.3261    3.7308 C   0  0  0  0  0  0  0  0  0  0  0  0
    4.3153    6.0614    2.8474 O   0  0  0  0  0  0  0  0  0  0  0  0
    5.6039    5.9537    4.7804 C   0  0  0  0  0  0  0  0  0  0  0  0
    6.3582    7.0703    4.3530 C   0  0  0  0  0  0  0  0  0  0  0  0
    7.1191    7.7694    5.2538 C   0  0  0  0  0  0  0  0  0  0  0  0
    7.1081    7.3391    6.5751 C   0  0  0  0  0  0  0  0  0  0  0  0
    6.3933    6.2854    7.0176 N   0  0  0  0  0  0  0  0  0  0  0  0
    5.6224    5.5901    6.1327 C   0  0  0  0  0  0  0  0  0  0  0  0
    4.9733    4.4738    6.6416 N   0  0  0  0  0  0  0  0  0  0  0  0
    4.6038    4.4351    8.0499 C   0  0  0  0  0  0  0  0  0  0  0  0
    3.2062    4.9715    8.2531 C   0  0  0  0  0  0  0  0  0  0  0  0
    2.0974    4.1184    8.2517 C   0  0  0  0  0  0  0  0  0  0  0  0
    0.8296    4.6723    8.3548 C   0  0  0  0  0  0  0  0  0  0  0  0
    0.5941    5.9961    8.4672 N   0  0  0  0  0  0  0  0  0  0  0  0
    1.6764    6.8034    8.4786 C   0  0  0  0  0  0  0  0  0  0  0  0
    2.9819    6.3457    8.3844 C   0  0  0  0  0  0  0  0  0  0  0  0
    3.9278    1.7767    2.9619 C   0  0  0  0  0  0  0  0  0  0  0  0
    3.2535    0.9488    2.0544 C   0  0  0  0  0  0  0  0  0  0  0  0
    2.4364    1.5370    1.1005 C   0  0  0  0  0  0  0  0  0  0  0  0
    2.1358   -0.0344   -1.9614 H   0  0  0  0  0  0  0  0  0  0  0  0
    3.2956   -0.4277   -0.6842 H   0  0  0  0  0  0  0  0  0  0  0  0
    3.3459    1.1573   -1.4623 H   0  0  0  0  0  0  0  0  0  0  0  0
    0.1646   -0.5820   -0.4531 H   0  0  0  0  0  0  0  0  0  0  0  0
    0.0111    0.1763    1.1393 H   0  0  0  0  0  0  0  0  0  0  0  0
    1.2693   -1.0298    0.8561 H   0  0  0  0  0  0  0  0  0  0  0  0
   -0.1593    2.0947   -0.3258 H   0  0  0  0  0  0  0  0  0  0  0  0
    0.9581    2.2099   -1.6854 H   0  0  0  0  0  0  0  0  0  0  0  0
    0.8154    4.0848    0.2695 H   0  0  0  0  0  0  0  0  0  0  0  0
    2.7444    4.8060    1.9047 H   0  0  0  0  0  0  0  0  0  0  0  0
    5.2203    3.4403    4.3889 H   0  0  0  0  0  0  0  0  0  0  0  0
    6.3174    7.3907    3.3088 H   0  0  0  0  0  0  0  0  0  0  0  0
    7.6967    8.6434    4.9527 H   0  0  0  0  0  0  0  0  0  0  0  0
    7.6789    7.8600    7.3277 H   0  0  0  0  0  0  0  0  0  0  0  0
    4.3854    3.9247    6.0338 H   0  0  0  0  0  0  0  0  0  0  0  0
    5.3134    4.9469    8.7107 H   0  0  0  0  0  0  0  0  0  0  0  0
    4.6283    3.3846    8.3590 H   0  0  0  0  0  0  0  0  0  0  0  0
    2.2088    3.0438    8.1570 H   0  0  0  0  0  0  0  0  0  0  0  0
   -0.0583    4.0462    8.3349 H   0  0  0  0  0  0  0  0  0  0  0  0
    1.4603    7.8655    8.5528 H   0  0  0  0  0  0  0  0  0  0  0  0
    3.8081    7.0501    8.3878 H   0  0  0  0  0  0  0  0  0  0  0  0
    4.5970    1.3149    3.6832 H   0  0  0  0  0  0  0  0  0  0  0  0
    3.4049   -0.1256    2.0741 H   0  0  0  0  0  0  0  0  0  0  0  0
  1  2  1  0  0  0  0
  1 29  1  0  0  0  0
  1 30  1  0  0  0  0
  1 31  1  0  0  0  0
  2  3  1  0  0  0  0
  2  4  1  0  0  0  0
  2 28  1  0  0  0  0
  3 32  1  0  0  0  0
  3 33  1  0  0  0  0
  3 34  1  0  0  0  0
  4  5  1  0  0  0  0
  4 35  1  0  0  0  0
  4 36  1  0  0  0  0
  5  6  1  0  0  0  0
  5 37  1  0  0  0  0
  6  7  1  0  0  0  0
  6 28  2  0  0  0  0
  7  8  2  0  0  0  0
  7 38  1  0  0  0  0
  8  9  1  0  0  0  0
  8 26  1  0  0  0  0
  9 10  1  0  0  0  0
  9 39  1  0  0  0  0
 10 11  2  0  0  0  0
 10 12  1  0  0  0  0
 12 13  1  0  0  0  0
 12 17  2  0  0  0  0
 13 14  2  0  0  0  0
 13 40  1  0  0  0  0
 14 15  1  0  0  0  0
 14 41  1  0  0  0  0
 15 16  2  0  0  0  0
 15 42  1  0  0  0  0
 16 17  1  0  0  0  0
 17 18  1  0  0  0  0
 18 19  1  0  0  0  0
 18 43  1  0  0  0  0
 19 20  1  0  0  0  0
 19 44  1  0  0  0  0
 19 45  1  0  0  0  0
 20 21  1  0  0  0  0
 20 25  2  0  0  0  0
 21 22  2  0  0  0  0
 21 46  1  0  0  0  0
 22 23  1  0  0  0  0
 22 47  1  0  0  0  0
 23 24  2  0  0  0  0
 24 25  1  0  0  0  0
 24 48  1  0  0  0  0
 25 49  1  0  0  0  0
 26 27  2  0  0  0  0
 26 50  1  0  0  0  0
 27 28  1  0  0  0  0
 27 51  1  0  0  0  0
M  END
$$$$
