CHEMBL3104854
 OpenBabel04072215363D

 22 23  0  0  0  0  0  0  0  0999 V2000
    1.0399   -0.0481    0.0328 C   0  0  0  0  0  0  0  0  0  0  0  0
    2.5379   -0.1070    0.0252 C   0  0  0  0  0  0  0  0  0  0  0  0
    3.2908   -1.2891   -0.0344 C   0  0  0  0  0  0  0  0  0  0  0  0
    2.7533   -2.5469   -0.0872 O   0  0  0  0  0  0  0  0  0  0  0  0
    4.6957   -1.2447   -0.0440 C   0  0  0  0  0  0  0  0  0  0  0  0
    5.4140   -2.4140   -0.1013 O   0  0  0  0  0  0  0  0  0  0  0  0
    5.3922   -0.0440   -0.0004 C   0  0  0  0  0  0  0  0  0  0  0  0
    6.7513   -0.0538   -0.0157 O   0  0  0  0  0  0  0  0  0  0  0  0
    4.6542    1.1176    0.0539 C   0  0  0  0  0  0  0  0  0  0  0  0
    3.2660    1.0904    0.0725 C   0  0  0  0  0  0  0  0  0  0  0  0
    2.7731    2.4841    0.1610 C   0  0  0  0  0  0  0  0  0  0  0  0
    3.9683    3.2772    0.0934 O   0  0  0  0  0  0  0  0  0  0  0  0
    5.1009    2.5079    0.0901 C   0  0  0  0  0  0  0  0  0  0  0  0
    6.2350    2.9386    0.1088 O   0  0  0  0  0  0  0  0  0  0  0  0
    0.5629   -1.0289   -0.0081 H   0  0  0  0  0  0  0  0  0  0  0  0
    0.6849    0.5184   -0.8352 H   0  0  0  0  0  0  0  0  0  0  0  0
    0.6893    0.4440    0.9468 H   0  0  0  0  0  0  0  0  0  0  0  0
    1.7840   -2.4995   -0.0740 H   0  0  0  0  0  0  0  0  0  0  0  0
    4.7307   -3.1155   -0.1292 H   0  0  0  0  0  0  0  0  0  0  0  0
    7.0068   -0.9973   -0.0542 H   0  0  0  0  0  0  0  0  0  0  0  0
    2.2814    2.6842    1.1180 H   0  0  0  0  0  0  0  0  0  0  0  0
    2.1179    2.7500   -0.6736 H   0  0  0  0  0  0  0  0  0  0  0  0
  1  2  1  0  0  0  0
  1 15  1  0  0  0  0
  1 16  1  0  0  0  0
  1 17  1  0  0  0  0
  2  3  1  0  0  0  0
  2 10  2  0  0  0  0
  3  4  1  0  0  0  0
  3  5  2  0  0  0  0
  4 18  1  0  0  0  0
  5  6  1  0  0  0  0
  5  7  1  0  0  0  0
  6 19  1  0  0  0  0
  7  8  1  0  0  0  0
  7  9  2  0  0  0  0
  8 20  1  0  0  0  0
  9 10  1  0  0  0  0
  9 13  1  0  0  0  0
 10 11  1  0  0  0  0
 11 12  1  0  0  0  0
 11 21  1  0  0  0  0
 11 22  1  0  0  0  0
 12 13  1  0  0  0  0
 13 14  2  0  0  0  0
M  END
$$$$
