CHEMBL2088258
 OpenBabel04072215363D

 47 49  0  0  0  0  0  0  0  0999 V2000
   15.7387   -1.4076   -2.6425 C   0  0  0  0  0  0  0  0  0  0  0  0
   15.3590   -0.6264   -3.7658 O   0  0  0  0  0  0  0  0  0  0  0  0
   15.2930    0.7640   -3.4505 C   0  0  0  0  0  0  0  0  0  0  0  0
   14.8316    1.5278   -4.6899 C   0  0  0  0  0  0  0  0  0  0  0  0
   13.5171    1.0000   -5.2770 C   0  0  0  0  0  0  0  0  0  0  0  0
   12.3820    1.1722   -4.3358 C   0  0  0  0  0  0  0  0  0  0  0  0
   11.5447    2.2377   -4.1131 C   0  0  0  0  0  0  0  0  0  0  0  0
   10.7406    1.8686   -3.0139 C   0  0  0  0  0  0  0  0  0  0  0  0
    9.8438    2.6517   -2.3807 N   0  0  0  0  0  0  0  0  0  0  0  0
    9.6821    4.0510   -2.4249 C   0  0  0  0  0  0  0  0  0  0  0  0
    8.9538    4.6609   -1.4251 C   0  0  0  0  0  0  0  0  0  0  0  0
    8.8766    6.0314   -1.4759 C   0  0  0  0  0  0  0  0  0  0  0  0
    9.4537    6.7753   -2.4344 N   0  0  0  0  0  0  0  0  0  0  0  0
   10.1539    6.1150   -3.3589 C   0  0  0  0  0  0  0  0  0  0  0  0
   10.8472    6.7944   -4.3442 N   0  0  0  0  0  0  0  0  0  0  0  0
   10.2031    7.9706   -4.9023 C   0  0  0  0  0  0  0  0  0  0  0  0
    9.1974    7.7236   -5.9736 C   0  0  0  0  0  0  0  0  0  0  0  0
    8.3030    6.7170   -6.2454 C   0  0  0  0  0  0  0  0  0  0  0  0
    7.6241    7.1376   -7.4146 C   0  0  0  0  0  0  0  0  0  0  0  0
    6.5474    6.4299   -8.1082 C   0  0  0  0  0  0  0  0  0  0  0  0
    6.0425    7.0490   -9.2162 N   0  0  0  0  0  0  0  0  0  0  0  0
    6.1000    5.3480   -7.7340 O   0  0  0  0  0  0  0  0  0  0  0  0
    8.0940    8.3265   -7.8361 N   0  0  0  0  0  0  0  0  0  0  0  0
    9.0766    8.6870   -6.9271 O   0  0  0  0  0  0  0  0  0  0  0  0
   10.2752    4.7854   -3.3870 N   0  0  0  0  0  0  0  0  0  0  0  0
   11.0006    0.6156   -2.6262 N   0  0  0  0  0  0  0  0  0  0  0  0
   12.0015    0.2204   -3.4327 N   0  0  0  0  0  0  0  0  0  0  0  0
   15.8166   -2.4495   -2.9641 H   0  0  0  0  0  0  0  0  0  0  0  0
   14.9760   -1.3395   -1.8612 H   0  0  0  0  0  0  0  0  0  0  0  0
   16.7097   -1.0845   -2.2564 H   0  0  0  0  0  0  0  0  0  0  0  0
   16.2826    1.1213   -3.1444 H   0  0  0  0  0  0  0  0  0  0  0  0
   14.6017    0.9229   -2.6150 H   0  0  0  0  0  0  0  0  0  0  0  0
   15.6019    1.4348   -5.4654 H   0  0  0  0  0  0  0  0  0  0  0  0
   14.7438    2.5935   -4.4466 H   0  0  0  0  0  0  0  0  0  0  0  0
   13.6149   -0.0509   -5.5718 H   0  0  0  0  0  0  0  0  0  0  0  0
   13.2984    1.5576   -6.1966 H   0  0  0  0  0  0  0  0  0  0  0  0
   11.5579    3.1739   -4.6486 H   0  0  0  0  0  0  0  0  0  0  0  0
    9.3354    2.1924   -1.6385 H   0  0  0  0  0  0  0  0  0  0  0  0
    8.4911    4.1056   -0.6213 H   0  0  0  0  0  0  0  0  0  0  0  0
    8.3467    6.5904   -0.7107 H   0  0  0  0  0  0  0  0  0  0  0  0
   11.1516    6.1086   -5.0246 H   0  0  0  0  0  0  0  0  0  0  0  0
   11.0049    8.5827   -5.3358 H   0  0  0  0  0  0  0  0  0  0  0  0
    9.7554    8.6006   -4.1231 H   0  0  0  0  0  0  0  0  0  0  0  0
    8.1419    5.8092   -5.6824 H   0  0  0  0  0  0  0  0  0  0  0  0
    6.4032    7.9474   -9.5140 H   0  0  0  0  0  0  0  0  0  0  0  0
    5.2857    6.6097   -9.7188 H   0  0  0  0  0  0  0  0  0  0  0  0
   12.4163   -0.6944   -3.2830 H   0  0  0  0  0  0  0  0  0  0  0  0
  1  2  1  0  0  0  0
  1 28  1  0  0  0  0
  1 29  1  0  0  0  0
  1 30  1  0  0  0  0
  2  3  1  0  0  0  0
  3  4  1  0  0  0  0
  3 31  1  0  0  0  0
  3 32  1  0  0  0  0
  4  5  1  0  0  0  0
  4 33  1  0  0  0  0
  4 34  1  0  0  0  0
  5  6  1  0  0  0  0
  5 35  1  0  0  0  0
  5 36  1  0  0  0  0
  6  7  2  0  0  0  0
  6 27  1  0  0  0  0
  7  8  1  0  0  0  0
  7 37  1  0  0  0  0
  8  9  1  0  0  0  0
  8 26  2  0  0  0  0
  9 10  1  0  0  0  0
  9 38  1  0  0  0  0
 10 11  1  0  0  0  0
 10 25  2  0  0  0  0
 11 12  2  0  0  0  0
 11 39  1  0  0  0  0
 12 13  1  0  0  0  0
 12 40  1  0  0  0  0
 13 14  2  0  0  0  0
 14 15  1  0  0  0  0
 14 25  1  0  0  0  0
 15 16  1  0  0  0  0
 15 41  1  0  0  0  0
 16 17  1  0  0  0  0
 16 42  1  0  0  0  0
 16 43  1  0  0  0  0
 17 18  2  0  0  0  0
 17 24  1  0  0  0  0
 18 19  1  0  0  0  0
 18 44  1  0  0  0  0
 19 20  1  0  0  0  0
 19 23  2  0  0  0  0
 20 21  1  0  0  0  0
 20 22  2  0  0  0  0
 21 45  1  0  0  0  0
 21 46  1  0  0  0  0
 23 24  1  0  0  0  0
 26 27  1  0  0  0  0
 27 47  1  0  0  0  0
M  END
$$$$
