CHEMBL1241586
 OpenBabel04072215363D

 38 41  0  0  0  0  0  0  0  0999 V2000
    2.4397   -0.1488    1.4088 C   0  0  0  0  0  0  0  0  0  0  0  0
    2.4932    0.1263   -0.0955 C   0  0  0  0  0  0  0  0  0  0  0  0
    1.1245   -0.1561   -0.7235 C   0  0  0  0  0  0  0  0  0  0  0  0
    2.9598    1.4803   -0.3854 N   0  0  0  0  0  0  0  0  0  0  0  0
    2.2436    2.5428    0.0470 N   0  0  0  0  0  0  0  0  0  0  0  0
    2.8806    3.6134   -0.4636 C   0  0  0  0  0  0  0  0  0  0  0  0
    2.3160    4.9572   -0.2883 C   0  0  0  0  0  0  0  0  0  0  0  0
    2.4705    5.9314   -1.3117 C   0  0  0  0  0  0  0  0  0  0  0  0
    2.0027    7.2401   -1.1825 C   0  0  0  0  0  0  0  0  0  0  0  0
    1.2718    7.5036   -0.0586 C   0  0  0  0  0  0  0  0  0  0  0  0
    0.5710    8.6523    0.2783 N   0  0  0  0  0  0  0  0  0  0  0  0
   -0.1666    8.3983    1.4440 C   0  0  0  0  0  0  0  0  0  0  0  0
   -0.9561    9.1480    1.9779 O   0  0  0  0  0  0  0  0  0  0  0  0
    0.1890    7.1085    1.8613 N   0  0  0  0  0  0  0  0  0  0  0  0
    1.0461    6.5457    0.9259 C   0  0  0  0  0  0  0  0  0  0  0  0
    1.5737    5.2754    0.8618 C   0  0  0  0  0  0  0  0  0  0  0  0
    4.0711    3.2248   -1.1605 C   0  0  0  0  0  0  0  0  0  0  0  0
    5.1306    3.8280   -1.8609 C   0  0  0  0  0  0  0  0  0  0  0  0
    5.2995    5.1923   -2.0411 N   0  0  0  0  0  0  0  0  0  0  0  0
    6.0636    3.0408   -2.4296 N   0  0  0  0  0  0  0  0  0  0  0  0
    5.9454    1.7060   -2.2962 C   0  0  0  0  0  0  0  0  0  0  0  0
    4.9926    1.0140   -1.6464 N   0  0  0  0  0  0  0  0  0  0  0  0
    4.0757    1.8368   -1.0977 C   0  0  0  0  0  0  0  0  0  0  0  0
    2.1044   -1.1744    1.6021 H   0  0  0  0  0  0  0  0  0  0  0  0
    1.7437    0.5279    1.9172 H   0  0  0  0  0  0  0  0  0  0  0  0
    3.4256   -0.0247    1.8674 H   0  0  0  0  0  0  0  0  0  0  0  0
    3.2180   -0.5655   -0.5418 H   0  0  0  0  0  0  0  0  0  0  0  0
    0.3577    0.5320   -0.3498 H   0  0  0  0  0  0  0  0  0  0  0  0
    0.7946   -1.1751   -0.4895 H   0  0  0  0  0  0  0  0  0  0  0  0
    1.1605   -0.0582   -1.8133 H   0  0  0  0  0  0  0  0  0  0  0  0
    2.9416    5.6633   -2.2541 H   0  0  0  0  0  0  0  0  0  0  0  0
    2.1650    7.9758   -1.9581 H   0  0  0  0  0  0  0  0  0  0  0  0
    0.4793    9.4923   -0.2659 H   0  0  0  0  0  0  0  0  0  0  0  0
   -0.2170    6.6453    2.6546 H   0  0  0  0  0  0  0  0  0  0  0  0
    1.3919    4.5443    1.6414 H   0  0  0  0  0  0  0  0  0  0  0  0
    4.9694    5.7938   -1.2988 H   0  0  0  0  0  0  0  0  0  0  0  0
    6.1990    5.4279   -2.4424 H   0  0  0  0  0  0  0  0  0  0  0  0
    6.7232    1.1184   -2.7773 H   0  0  0  0  0  0  0  0  0  0  0  0
  1  2  1  0  0  0  0
  1 24  1  0  0  0  0
  1 25  1  0  0  0  0
  1 26  1  0  0  0  0
  2  3  1  0  0  0  0
  2  4  1  0  0  0  0
  2 27  1  0  0  0  0
  3 28  1  0  0  0  0
  3 29  1  0  0  0  0
  3 30  1  0  0  0  0
  4  5  1  0  0  0  0
  4 23  1  0  0  0  0
  5  6  2  0  0  0  0
  6  7  1  0  0  0  0
  6 17  1  0  0  0  0
  7  8  1  0  0  0  0
  7 16  2  0  0  0  0
  8  9  2  0  0  0  0
  8 31  1  0  0  0  0
  9 10  1  0  0  0  0
  9 32  1  0  0  0  0
 10 11  1  0  0  0  0
 10 15  2  0  0  0  0
 11 12  1  0  0  0  0
 11 33  1  0  0  0  0
 12 13  2  0  0  0  0
 12 14  1  0  0  0  0
 14 15  1  0  0  0  0
 14 34  1  0  0  0  0
 15 16  1  0  0  0  0
 16 35  1  0  0  0  0
 17 18  1  0  0  0  0
 17 23  2  0  0  0  0
 18 19  1  0  0  0  0
 18 20  2  0  0  0  0
 19 36  1  0  0  0  0
 19 37  1  0  0  0  0
 20 21  1  0  0  0  0
 21 22  2  0  0  0  0
 21 38  1  0  0  0  0
 22 23  1  0  0  0  0
M  END
$$$$
