CHEMBL2021941
 OpenBabel04072215363D

 53 57  0  0  0  0  0  0  0  0999 V2000
    2.4094   -0.3770    1.4149 C   0  0  0  0  0  0  0  0  0  0  0  0
    0.9129   -0.2741    1.3738 C   0  0  0  0  0  0  0  0  0  0  0  0
    0.2981    0.9235    1.7493 C   0  0  0  0  0  0  0  0  0  0  0  0
   -1.0835    1.0324    1.7217 C   0  0  0  0  0  0  0  0  0  0  0  0
   -1.8618   -0.0501    1.3201 C   0  0  0  0  0  0  0  0  0  0  0  0
   -1.2813   -1.2628    0.9235 C   0  0  0  0  0  0  0  0  0  0  0  0
   -2.0460   -2.3849    0.5102 N   0  0  0  0  0  0  0  0  0  0  0  0
   -3.4207   -2.3948    0.3288 C   0  0  0  0  0  0  0  0  0  0  0  0
   -4.1440   -1.4057    0.4227 O   0  0  0  0  0  0  0  0  0  0  0  0
   -3.9215   -3.6629    0.0592 N   0  0  0  0  0  0  0  0  0  0  0  0
   -5.3132   -3.8377   -0.1550 C   0  0  0  0  0  0  0  0  0  0  0  0
   -6.0465   -2.9207   -0.9113 C   0  0  0  0  0  0  0  0  0  0  0  0
   -7.4396   -2.9826   -0.9490 C   0  0  0  0  0  0  0  0  0  0  0  0
   -8.1362   -3.9958   -0.2696 C   0  0  0  0  0  0  0  0  0  0  0  0
   -9.6093   -3.9777   -0.2340 C   0  0  0  0  0  0  0  0  0  0  0  0
  -10.2858   -3.5777   -1.3689 C   0  0  0  0  0  0  0  0  0  0  0  0
  -11.9550   -3.4889   -1.1602 S   0  0  0  0  0  0  0  0  0  0  0  0
  -11.8886   -4.1150    0.4505 C   0  0  0  0  0  0  0  0  0  0  0  0
  -12.9788   -4.3940    1.3098 C   0  0  0  0  0  0  0  0  0  0  0  0
  -14.3757   -4.2344    0.9174 C   0  0  0  0  0  0  0  0  0  0  0  0
  -15.0168   -4.4057   -0.3439 C   0  0  0  0  0  0  0  0  0  0  0  0
  -16.3568   -4.1289   -0.1907 C   0  0  0  0  0  0  0  0  0  0  0  0
  -16.5724   -3.8300    1.1249 N   0  0  0  0  0  0  0  0  0  0  0  0
  -15.3826   -3.8921    1.8057 C   0  0  0  0  0  0  0  0  0  0  0  0
  -12.6279   -4.8388    2.5732 C   0  0  0  0  0  0  0  0  0  0  0  0
  -11.3696   -4.9938    3.0186 N   0  0  0  0  0  0  0  0  0  0  0  0
  -10.3315   -4.7216    2.2052 C   0  0  0  0  0  0  0  0  0  0  0  0
   -9.0951   -4.8772    2.8209 N   0  0  0  0  0  0  0  0  0  0  0  0
  -10.5453   -4.2942    0.8615 C   0  0  0  0  0  0  0  0  0  0  0  0
   -7.3819   -4.9878    0.3693 C   0  0  0  0  0  0  0  0  0  0  0  0
   -5.9811   -4.9005    0.4481 C   0  0  0  0  0  0  0  0  0  0  0  0
    0.1179   -1.3627    0.9610 C   0  0  0  0  0  0  0  0  0  0  0  0
    2.8591    0.5533    1.7798 H   0  0  0  0  0  0  0  0  0  0  0  0
    2.8047   -0.5654    0.4132 H   0  0  0  0  0  0  0  0  0  0  0  0
    2.7169   -1.1792    2.0918 H   0  0  0  0  0  0  0  0  0  0  0  0
    0.8878    1.7796    2.0690 H   0  0  0  0  0  0  0  0  0  0  0  0
   -1.5688    1.9610    2.0114 H   0  0  0  0  0  0  0  0  0  0  0  0
   -2.9353    0.1010    1.3324 H   0  0  0  0  0  0  0  0  0  0  0  0
   -1.5352   -3.2076    0.2112 H   0  0  0  0  0  0  0  0  0  0  0  0
   -3.4386   -4.4188    0.5218 H   0  0  0  0  0  0  0  0  0  0  0  0
   -5.5481   -2.1101   -1.4384 H   0  0  0  0  0  0  0  0  0  0  0  0
   -7.9632   -2.1989   -1.4892 H   0  0  0  0  0  0  0  0  0  0  0  0
   -9.8734   -3.2947   -2.3278 H   0  0  0  0  0  0  0  0  0  0  0  0
  -14.5598   -4.6974   -1.2801 H   0  0  0  0  0  0  0  0  0  0  0  0
  -17.1691   -4.1284   -0.9050 H   0  0  0  0  0  0  0  0  0  0  0  0
  -17.4693   -3.5991    1.5329 H   0  0  0  0  0  0  0  0  0  0  0  0
  -15.3644   -3.6759    2.8659 H   0  0  0  0  0  0  0  0  0  0  0  0
  -13.3857   -5.0978    3.3083 H   0  0  0  0  0  0  0  0  0  0  0  0
   -9.2468   -4.9895    3.8182 H   0  0  0  0  0  0  0  0  0  0  0  0
   -8.4343   -4.1515    2.5724 H   0  0  0  0  0  0  0  0  0  0  0  0
   -7.8753   -5.8212    0.8626 H   0  0  0  0  0  0  0  0  0  0  0  0
   -5.4470   -5.6287    1.0521 H   0  0  0  0  0  0  0  0  0  0  0  0
    0.6085   -2.2886    0.6677 H   0  0  0  0  0  0  0  0  0  0  0  0
  1  2  1  0  0  0  0
  1 33  1  0  0  0  0
  1 34  1  0  0  0  0
  1 35  1  0  0  0  0
  2  3  1  0  0  0  0
  2 32  2  0  0  0  0
  3  4  2  0  0  0  0
  3 36  1  0  0  0  0
  4  5  1  0  0  0  0
  4 37  1  0  0  0  0
  5  6  2  0  0  0  0
  5 38  1  0  0  0  0
  6  7  1  0  0  0  0
  6 32  1  0  0  0  0
  7  8  1  0  0  0  0
  7 39  1  0  0  0  0
  8  9  2  0  0  0  0
  8 10  1  0  0  0  0
 10 11  1  0  0  0  0
 10 40  1  0  0  0  0
 11 12  1  0  0  0  0
 11 31  2  0  0  0  0
 12 13  2  0  0  0  0
 12 41  1  0  0  0  0
 13 14  1  0  0  0  0
 13 42  1  0  0  0  0
 14 15  1  0  0  0  0
 14 30  2  0  0  0  0
 15 16  2  0  0  0  0
 15 29  1  0  0  0  0
 16 17  1  0  0  0  0
 16 43  1  0  0  0  0
 17 18  1  0  0  0  0
 18 19  1  0  0  0  0
 18 29  2  0  0  0  0
 19 20  1  0  0  0  0
 19 25  2  0  0  0  0
 20 21  1  0  0  0  0
 20 24  2  0  0  0  0
 21 22  2  0  0  0  0
 21 44  1  0  0  0  0
 22 23  1  0  0  0  0
 22 45  1  0  0  0  0
 23 24  1  0  0  0  0
 23 46  1  0  0  0  0
 24 47  1  0  0  0  0
 25 26  1  0  0  0  0
 25 48  1  0  0  0  0
 26 27  2  0  0  0  0
 27 28  1  0  0  0  0
 27 29  1  0  0  0  0
 28 49  1  0  0  0  0
 28 50  1  0  0  0  0
 30 31  1  0  0  0  0
 30 51  1  0  0  0  0
 31 52  1  0  0  0  0
 32 53  1  0  0  0  0
M  END
$$$$
