CHEMBL3353341
 OpenBabel04072215363D

 68 74  0  0  1  0  0  0  0  0999 V2000
    7.6312   -6.9873    0.2606 C   0  0  0  0  0  0  0  0  0  0  0  0
    7.7898   -7.7027    1.4790 O   0  0  0  0  0  0  0  0  0  0  0  0
    6.9972   -7.3251    2.5299 C   0  0  0  0  0  0  0  0  0  0  0  0
    7.2052   -8.0820    3.7007 C   0  0  0  0  0  0  0  0  0  0  0  0
    6.4832   -7.8238    4.8643 C   0  0  0  0  0  0  0  0  0  0  0  0
    5.5409   -6.8216    4.8012 C   0  0  0  0  0  0  0  0  0  0  0  0
    5.2703   -6.0741    3.6407 C   0  0  0  0  0  0  0  0  0  0  0  0
    6.0408   -6.2989    2.5072 C   0  0  0  0  0  0  0  0  0  0  0  0
    4.1660   -5.1070    3.9686 C   0  0  1  0  0  0  0  0  0  0  0  0
    4.0398   -3.7707    3.2987 C   0  0  0  0  0  0  0  0  0  0  0  0
    2.9361   -4.7948    3.1315 C   0  0  1  0  0  0  0  0  0  0  0  0
    2.6210   -5.3627    1.7640 C   0  0  0  0  0  0  0  0  0  0  0  0
    2.1108   -4.5318    0.7471 C   0  0  0  0  0  0  0  0  0  0  0  0
    1.7235   -5.0203   -0.5165 C   0  0  0  0  0  0  0  0  0  0  0  0
    1.8479   -6.3990   -0.7830 C   0  0  0  0  0  0  0  0  0  0  0  0
    1.6030   -7.2831   -1.8803 C   0  0  0  0  0  0  0  0  0  0  0  0
    1.1352   -6.9010   -3.1859 C   0  0  0  0  0  0  0  0  0  0  0  0
    0.9715   -7.7676   -4.2048 C   0  0  0  0  0  0  0  0  0  0  0  0
    0.5924   -7.4322   -5.5827 C   0  0  0  0  0  0  0  0  0  0  0  0
    0.8680   -6.2048   -6.1702 C   0  0  0  0  0  0  0  0  0  0  0  0
    0.5604   -5.9963   -7.5146 C   0  0  0  0  0  0  0  0  0  0  0  0
   -0.0049   -7.0083   -8.2840 C   0  0  0  0  0  0  0  0  0  0  0  0
   -0.3428   -6.8147   -9.5989 N   0  0  0  0  0  0  0  0  0  0  0  0
   -0.6657   -5.5075  -10.1628 C   0  0  0  0  0  0  0  0  0  0  0  0
   -1.8882   -5.6334  -11.0995 C   0  0  0  0  0  0  0  0  0  0  0  0
   -1.6889   -6.6459  -12.1602 N   0  0  0  0  0  0  0  0  0  0  0  0
   -2.8767   -6.7375  -13.0051 C   0  0  0  0  0  0  0  0  0  0  0  0
   -1.3976   -7.9556  -11.5242 C   0  0  0  0  0  0  0  0  0  0  0  0
   -0.1843   -7.9043  -10.5664 C   0  0  0  0  0  0  0  0  0  0  0  0
   -0.2575   -8.2119   -7.7297 N   0  0  0  0  0  0  0  0  0  0  0  0
    0.0294   -8.3936   -6.4141 C   0  0  0  0  0  0  0  0  0  0  0  0
    1.9043   -8.5498   -1.5552 N   0  0  0  0  0  0  0  0  0  0  0  0
    2.3281   -8.4746   -0.2879 N   0  0  0  0  0  0  0  0  0  0  0  0
    2.3325   -7.2126    0.2336 C   0  0  0  0  0  0  0  0  0  0  0  0
    2.7080   -6.7394    1.4982 C   0  0  0  0  0  0  0  0  0  0  0  0
    3.9446   -5.3061    5.4552 C   0  0  0  0  0  0  0  0  0  0  0  0
    3.1786   -4.6568    6.1473 O   0  0  0  0  0  0  0  0  0  0  0  0
    4.7477   -6.3591    5.8518 N   0  0  0  0  0  0  0  0  0  0  0  0
    8.2068   -7.5094   -0.5095 H   0  0  0  0  0  0  0  0  0  0  0  0
    8.0350   -5.9747    0.3581 H   0  0  0  0  0  0  0  0  0  0  0  0
    6.5873   -6.9689   -0.0692 H   0  0  0  0  0  0  0  0  0  0  0  0
    7.9516   -8.8745    3.6972 H   0  0  0  0  0  0  0  0  0  0  0  0
    6.6656   -8.3878    5.7718 H   0  0  0  0  0  0  0  0  0  0  0  0
    5.8829   -5.6768    1.6347 H   0  0  0  0  0  0  0  0  0  0  0  0
    4.6733   -3.5497    2.4481 H   0  0  0  0  0  0  0  0  0  0  0  0
    3.8360   -2.9087    3.9249 H   0  0  0  0  0  0  0  0  0  0  0  0
    2.0337   -4.5922    3.7128 H   0  0  0  0  0  0  0  0  0  0  0  0
    1.9823   -3.4683    0.9495 H   0  0  0  0  0  0  0  0  0  0  0  0
    1.3223   -4.3395   -1.2613 H   0  0  0  0  0  0  0  0  0  0  0  0
    0.9299   -5.8466   -3.3398 H   0  0  0  0  0  0  0  0  0  0  0  0
    1.1646   -8.8261   -4.0290 H   0  0  0  0  0  0  0  0  0  0  0  0
    1.3495   -5.4087   -5.6144 H   0  0  0  0  0  0  0  0  0  0  0  0
    0.8104   -5.0364   -7.9622 H   0  0  0  0  0  0  0  0  0  0  0  0
    0.1985   -5.1178  -10.7143 H   0  0  0  0  0  0  0  0  0  0  0  0
   -0.9246   -4.7789   -9.3861 H   0  0  0  0  0  0  0  0  0  0  0  0
   -2.0762   -4.6527  -11.5518 H   0  0  0  0  0  0  0  0  0  0  0  0
   -2.7695   -5.8898  -10.4943 H   0  0  0  0  0  0  0  0  0  0  0  0
   -3.0783   -5.7728  -13.4838 H   0  0  0  0  0  0  0  0  0  0  0  0
   -3.7683   -7.0341  -12.4410 H   0  0  0  0  0  0  0  0  0  0  0  0
   -2.7186   -7.4627  -13.8103 H   0  0  0  0  0  0  0  0  0  0  0  0
   -1.1892   -8.6985  -12.3037 H   0  0  0  0  0  0  0  0  0  0  0  0
   -2.2730   -8.3061  -10.9611 H   0  0  0  0  0  0  0  0  0  0  0  0
    0.7283   -7.7233  -11.1502 H   0  0  0  0  0  0  0  0  0  0  0  0
   -0.0648   -8.8863  -10.0947 H   0  0  0  0  0  0  0  0  0  0  0  0
   -0.2163   -9.3854   -6.0428 H   0  0  0  0  0  0  0  0  0  0  0  0
    2.6146   -9.3327    0.1726 H   0  0  0  0  0  0  0  0  0  0  0  0
    3.0471   -7.4286    2.2658 H   0  0  0  0  0  0  0  0  0  0  0  0
    4.7766   -6.6954    6.8019 H   0  0  0  0  0  0  0  0  0  0  0  0
  1  2  1  0  0  0  0
  1 39  1  0  0  0  0
  1 40  1  0  0  0  0
  1 41  1  0  0  0  0
  2  3  1  0  0  0  0
  3  4  1  0  0  0  0
  3  8  2  0  0  0  0
  4  5  2  0  0  0  0
  4 42  1  0  0  0  0
  5  6  1  0  0  0  0
  5 43  1  0  0  0  0
  6  7  2  0  0  0  0
  6 38  1  0  0  0  0
  7  8  1  0  0  0  0
  8 44  1  0  0  0  0
  9  7  1  6  0  0  0
  9 10  1  0  0  0  0
  9 11  1  0  0  0  0
  9 36  1  0  0  0  0
 10 11  1  0  0  0  0
 10 45  1  0  0  0  0
 10 46  1  0  0  0  0
 11 12  1  0  0  0  0
 11 47  1  1  0  0  0
 12 13  1  0  0  0  0
 12 35  2  0  0  0  0
 13 14  2  0  0  0  0
 13 48  1  0  0  0  0
 14 15  1  0  0  0  0
 14 49  1  0  0  0  0
 15 16  1  0  0  0  0
 15 34  2  0  0  0  0
 16 17  1  0  0  0  0
 16 32  2  0  0  0  0
 17 18  2  0  0  0  0
 17 50  1  0  0  0  0
 18 19  1  0  0  0  0
 18 51  1  0  0  0  0
 19 20  1  0  0  0  0
 19 31  2  0  0  0  0
 20 21  2  0  0  0  0
 20 52  1  0  0  0  0
 21 22  1  0  0  0  0
 21 53  1  0  0  0  0
 22 23  1  0  0  0  0
 22 30  2  0  0  0  0
 23 24  1  0  0  0  0
 23 29  1  0  0  0  0
 24 25  1  0  0  0  0
 24 54  1  0  0  0  0
 24 55  1  0  0  0  0
 25 26  1  0  0  0  0
 25 56  1  0  0  0  0
 25 57  1  0  0  0  0
 26 27  1  0  0  0  0
 26 28  1  0  0  0  0
 27 58  1  0  0  0  0
 27 59  1  0  0  0  0
 27 60  1  0  0  0  0
 28 29  1  0  0  0  0
 28 61  1  0  0  0  0
 28 62  1  0  0  0  0
 29 63  1  0  0  0  0
 29 64  1  0  0  0  0
 30 31  1  0  0  0  0
 31 65  1  0  0  0  0
 32 33  1  0  0  0  0
 33 34  1  0  0  0  0
 33 66  1  0  0  0  0
 34 35  1  0  0  0  0
 35 67  1  0  0  0  0
 36 37  2  0  0  0  0
 36 38  1  0  0  0  0
 38 68  1  0  0  0  0
M  END
$$$$
