CHEMBL3916037
 OpenBabel04072215373D

 56 59  0  0  1  0  0  0  0  0999 V2000
    5.9530   -7.9468   -1.5669 C   0  0  0  0  0  0  0  0  0  0  0  0
    5.6049   -6.8715   -2.4443 O   0  0  0  0  0  0  0  0  0  0  0  0
    5.3344   -5.6563   -1.8626 C   0  0  0  0  0  0  0  0  0  0  0  0
    5.7015   -5.3200   -0.5633 C   0  0  0  0  0  0  0  0  0  0  0  0
    5.4213   -4.0493   -0.0693 C   0  0  0  0  0  0  0  0  0  0  0  0
    5.7498   -3.6106    1.1886 O   0  0  0  0  0  0  0  0  0  0  0  0
    6.3504   -4.5640    2.0644 C   0  0  0  0  0  0  0  0  0  0  0  0
    4.7631   -3.1090   -0.8837 C   0  0  0  0  0  0  0  0  0  0  0  0
    4.3791   -3.3961   -2.2019 C   0  0  0  0  0  0  0  0  0  0  0  0
    3.7998   -2.4428   -3.0611 N   0  0  0  0  0  0  0  0  0  0  0  0
    4.1586   -0.9645   -2.9983 C   0  0  0  0  0  0  0  0  0  0  0  0
    5.4926   -0.3975   -2.4962 C   0  0  2  0  0  0  0  0  0  0  0  0
    5.2787    1.0639   -2.4152 O   0  0  0  0  0  0  0  0  0  0  0  0
    6.7047   -0.6850   -3.3847 C   0  0  0  0  0  0  0  0  0  0  0  0
    6.4812   -1.5715   -4.3702 F   0  0  0  0  0  0  0  0  0  0  0  0
    7.1023    0.4771   -3.9866 F   0  0  0  0  0  0  0  0  0  0  0  0
    7.7606   -1.1064   -2.6538 F   0  0  0  0  0  0  0  0  0  0  0  0
    2.5032   -2.5283   -3.7718 C   0  0  0  0  0  0  0  0  0  0  0  0
    2.5265   -1.9602   -5.0380 C   0  0  0  0  0  0  0  0  0  0  0  0
    1.4062   -1.2775   -5.4753 C   0  0  0  0  0  0  0  0  0  0  0  0
    0.2091   -1.3485   -4.8284 C   0  0  0  0  0  0  0  0  0  0  0  0
   -0.6947   -0.4838   -5.2936 N   0  0  0  0  0  0  0  0  0  0  0  0
   -1.9472   -0.6271   -4.8668 C   0  0  0  0  0  0  0  0  0  0  0  0
   -2.3165   -1.6645   -4.0470 C   0  0  0  0  0  0  0  0  0  0  0  0
   -3.7548   -1.9516   -4.0360 C   0  0  0  0  0  0  0  0  0  0  0  0
   -4.4970   -2.8471   -4.8588 C   0  0  0  0  0  0  0  0  0  0  0  0
   -5.8174   -2.6211   -4.8279 N   0  0  0  0  0  0  0  0  0  0  0  0
   -5.9339   -1.5608   -4.0120 N   0  0  0  0  0  0  0  0  0  0  0  0
   -7.2332   -1.1176   -3.5603 C   0  0  0  0  0  0  0  0  0  0  0  0
   -4.7236   -1.0385   -3.6423 C   0  0  0  0  0  0  0  0  0  0  0  0
   -1.3626   -2.4660   -3.4319 N   0  0  0  0  0  0  0  0  0  0  0  0
   -0.0151   -2.2611   -3.7666 C   0  0  0  0  0  0  0  0  0  0  0  0
    1.2288   -2.7877   -3.1941 C   0  0  0  0  0  0  0  0  0  0  0  0
    4.6838   -4.6955   -2.6693 C   0  0  0  0  0  0  0  0  0  0  0  0
    6.1353   -8.8407   -2.1724 H   0  0  0  0  0  0  0  0  0  0  0  0
    5.1277   -8.1701   -0.8817 H   0  0  0  0  0  0  0  0  0  0  0  0
    6.8778   -7.7512   -1.0112 H   0  0  0  0  0  0  0  0  0  0  0  0
    6.2181   -6.0393    0.0582 H   0  0  0  0  0  0  0  0  0  0  0  0
    6.5222   -4.0791    3.0299 H   0  0  0  0  0  0  0  0  0  0  0  0
    7.3232   -4.8960    1.6843 H   0  0  0  0  0  0  0  0  0  0  0  0
    5.6847   -5.4175    2.2360 H   0  0  0  0  0  0  0  0  0  0  0  0
    4.5375   -2.1421   -0.4451 H   0  0  0  0  0  0  0  0  0  0  0  0
    3.3558   -0.4650   -2.4386 H   0  0  0  0  0  0  0  0  0  0  0  0
    4.0983   -0.5399   -4.0096 H   0  0  0  0  0  0  0  0  0  0  0  0
    5.7110   -0.6791   -1.4688 H   0  0  0  0  0  0  0  0  0  0  0  0
    5.8744    1.4921   -3.0652 H   0  0  0  0  0  0  0  0  0  0  0  0
    3.4591   -1.8487   -5.5907 H   0  0  0  0  0  0  0  0  0  0  0  0
    1.4949   -0.6258   -6.3412 H   0  0  0  0  0  0  0  0  0  0  0  0
   -2.6620    0.0804   -5.2741 H   0  0  0  0  0  0  0  0  0  0  0  0
   -4.1295   -3.6196   -5.5238 H   0  0  0  0  0  0  0  0  0  0  0  0
   -8.0197   -1.7183   -4.0255 H   0  0  0  0  0  0  0  0  0  0  0  0
   -7.3672   -0.0625   -3.8121 H   0  0  0  0  0  0  0  0  0  0  0  0
   -7.2609   -1.2549   -2.4765 H   0  0  0  0  0  0  0  0  0  0  0  0
   -4.6625   -0.0810   -3.1442 H   0  0  0  0  0  0  0  0  0  0  0  0
    1.1546   -3.3281   -2.2475 H   0  0  0  0  0  0  0  0  0  0  0  0
    4.4576   -4.9626   -3.6997 H   0  0  0  0  0  0  0  0  0  0  0  0
  1  2  1  0  0  0  0
  1 35  1  0  0  0  0
  1 36  1  0  0  0  0
  1 37  1  0  0  0  0
  2  3  1  0  0  0  0
  3  4  1  0  0  0  0
  3 34  2  0  0  0  0
  4  5  2  0  0  0  0
  4 38  1  0  0  0  0
  5  6  1  0  0  0  0
  5  8  1  0  0  0  0
  6  7  1  0  0  0  0
  7 39  1  0  0  0  0
  7 40  1  0  0  0  0
  7 41  1  0  0  0  0
  8  9  2  0  0  0  0
  8 42  1  0  0  0  0
  9 10  1  0  0  0  0
  9 34  1  0  0  0  0
 10 11  1  0  0  0  0
 10 18  1  0  0  0  0
 11 43  1  0  0  0  0
 11 44  1  0  0  0  0
 12 14  1  0  0  0  0
 12 13  1  0  0  0  0
 12 11  1  0  0  0  0
 12 45  1  1  0  0  0
 13 46  1  0  0  0  0
 14 15  1  0  0  0  0
 14 16  1  0  0  0  0
 14 17  1  0  0  0  0
 18 19  1  0  0  0  0
 18 33  2  0  0  0  0
 19 20  2  0  0  0  0
 19 47  1  0  0  0  0
 20 21  1  0  0  0  0
 20 48  1  0  0  0  0
 21 22  1  0  0  0  0
 21 32  2  0  0  0  0
 22 23  2  0  0  0  0
 23 24  1  0  0  0  0
 23 49  1  0  0  0  0
 24 25  1  0  0  0  0
 24 31  2  0  0  0  0
 25 26  1  0  0  0  0
 25 30  2  0  0  0  0
 26 27  2  0  0  0  0
 26 50  1  0  0  0  0
 27 28  1  0  0  0  0
 28 29  1  0  0  0  0
 28 30  1  0  0  0  0
 29 51  1  0  0  0  0
 29 52  1  0  0  0  0
 29 53  1  0  0  0  0
 30 54  1  0  0  0  0
 31 32  1  0  0  0  0
 32 33  1  0  0  0  0
 33 55  1  0  0  0  0
 34 56  1  0  0  0  0
M  END
$$$$
