CHEMBL2071217
 OpenBabel04072215363D

 53 57  0  0  1  0  0  0  0  0999 V2000
    4.0702   -2.9690   -3.4403 N   0  0  0  0  0  0  0  0  0  0  0  0
    4.6598   -2.6232   -2.2523 C   0  0  0  0  0  0  0  0  0  0  0  0
    5.5762   -1.8110   -2.2315 O   0  0  0  0  0  0  0  0  0  0  0  0
    4.1206   -3.3573   -1.0420 C   0  0  1  0  0  0  0  0  0  0  0  0
    4.8724   -2.9730    0.2602 C   0  0  2  0  0  0  0  0  0  0  0  0
    4.5374   -4.0347    1.2866 C   0  0  0  0  0  0  0  0  0  0  0  0
    3.2476   -3.8688    1.6147 C   0  0  0  0  0  0  0  0  0  0  0  0
    2.7330   -2.6760    0.8277 C   0  0  1  0  0  0  0  0  0  0  0  0
    4.0115   -1.8369    0.8142 C   0  0  0  0  0  0  0  0  0  0  0  0
    2.6093   -3.0980   -0.6682 C   0  0  1  0  0  0  0  0  0  0  0  0
    1.9824   -2.0770   -1.5223 N   0  0  0  0  0  0  0  0  0  0  0  0
    0.5892   -1.9056   -1.4064 C   0  0  0  0  0  0  0  0  0  0  0  0
    0.0313   -1.9930   -0.1843 N   0  0  0  0  0  0  0  0  0  0  0  0
   -1.2450   -1.6058   -0.0237 C   0  0  0  0  0  0  0  0  0  0  0  0
   -1.6577   -1.4694    1.3088 N   0  0  0  0  0  0  0  0  0  0  0  0
   -2.6066   -0.6314    1.7792 C   0  0  0  0  0  0  0  0  0  0  0  0
   -3.7752   -0.1499    1.1581 C   0  0  0  0  0  0  0  0  0  0  0  0
   -4.4073    0.7626    1.9032 N   0  0  0  0  0  0  0  0  0  0  0  0
   -3.6382    0.8525    3.0160 N   0  0  0  0  0  0  0  0  0  0  0  0
   -3.8859    1.9181    3.9782 C   0  0  0  0  0  0  0  0  0  0  0  0
   -4.8331    1.5105    5.0773 C   0  0  0  0  0  0  0  0  0  0  0  0
   -4.4428    1.6025    6.4218 C   0  0  0  0  0  0  0  0  0  0  0  0
   -5.3333    1.2642    7.4428 C   0  0  0  0  0  0  0  0  0  0  0  0
   -6.6228    0.8360    7.1328 C   0  0  0  0  0  0  0  0  0  0  0  0
   -7.0265    0.7517    5.8029 C   0  0  0  0  0  0  0  0  0  0  0  0
   -6.1394    1.0921    4.7813 C   0  0  0  0  0  0  0  0  0  0  0  0
   -2.5715   -0.0089    3.0018 C   0  0  0  0  0  0  0  0  0  0  0  0
   -2.0406   -1.2468   -1.0421 N   0  0  0  0  0  0  0  0  0  0  0  0
   -1.4825   -1.2104   -2.2664 C   0  0  0  0  0  0  0  0  0  0  0  0
   -0.1601   -1.4994   -2.5043 C   0  0  0  0  0  0  0  0  0  0  0  0
    0.4847   -1.4013   -4.0949 Cl  0  0  0  0  0  0  0  0  0  0  0  0
    4.5094   -2.5802   -4.2680 H   0  0  0  0  0  0  0  0  0  0  0  0
    3.6068   -3.8616   -3.5501 H   0  0  0  0  0  0  0  0  0  0  0  0
    4.2691   -4.4280   -1.2452 H   0  0  0  0  0  0  0  0  0  0  0  0
    5.9350   -2.7392    0.1801 H   0  0  0  0  0  0  0  0  0  0  0  0
    5.2062   -4.8058    1.6391 H   0  0  0  0  0  0  0  0  0  0  0  0
    2.6642   -4.4831    2.2839 H   0  0  0  0  0  0  0  0  0  0  0  0
    1.8912   -2.1773    1.3038 H   0  0  0  0  0  0  0  0  0  0  0  0
    4.3176   -1.5077    1.8164 H   0  0  0  0  0  0  0  0  0  0  0  0
    3.9542   -0.9622    0.1585 H   0  0  0  0  0  0  0  0  0  0  0  0
    2.0538   -4.0403   -0.7710 H   0  0  0  0  0  0  0  0  0  0  0  0
    2.2260   -2.1900   -2.5079 H   0  0  0  0  0  0  0  0  0  0  0  0
   -0.8392   -1.6685    1.8737 H   0  0  0  0  0  0  0  0  0  0  0  0
   -4.1807   -0.4040    0.1884 H   0  0  0  0  0  0  0  0  0  0  0  0
   -4.2855    2.7802    3.4316 H   0  0  0  0  0  0  0  0  0  0  0  0
   -2.9096    2.2123    4.3818 H   0  0  0  0  0  0  0  0  0  0  0  0
   -3.4453    1.9453    6.6877 H   0  0  0  0  0  0  0  0  0  0  0  0
   -5.0226    1.3386    8.4817 H   0  0  0  0  0  0  0  0  0  0  0  0
   -7.3151    0.5725    7.9277 H   0  0  0  0  0  0  0  0  0  0  0  0
   -8.0332    0.4241    5.5569 H   0  0  0  0  0  0  0  0  0  0  0  0
   -6.4746    1.0285    3.7463 H   0  0  0  0  0  0  0  0  0  0  0  0
   -1.8658   -0.0444    3.8214 H   0  0  0  0  0  0  0  0  0  0  0  0
   -2.1519   -0.9067   -3.0657 H   0  0  0  0  0  0  0  0  0  0  0  0
  1  2  1  0  0  0  0
  1 32  1  0  0  0  0
  1 33  1  0  0  0  0
  2  3  2  0  0  0  0
  2  4  1  0  0  0  0
  4  5  1  0  0  0  0
  4 10  1  0  0  0  0
  4 34  1  6  0  0  0
  5  6  1  0  0  0  0
  5  9  1  0  0  0  0
  5 35  1  6  0  0  0
  6  7  2  0  0  0  0
  6 36  1  0  0  0  0
  7  8  1  0  0  0  0
  7 37  1  0  0  0  0
  8  9  1  0  0  0  0
  8 10  1  0  0  0  0
  8 38  1  1  0  0  0
  9 39  1  0  0  0  0
  9 40  1  0  0  0  0
 10 11  1  0  0  0  0
 10 41  1  6  0  0  0
 11 12  1  0  0  0  0
 11 42  1  0  0  0  0
 12 13  1  0  0  0  0
 12 30  2  0  0  0  0
 13 14  2  0  0  0  0
 14 15  1  0  0  0  0
 14 28  1  0  0  0  0
 15 16  1  0  0  0  0
 15 43  1  0  0  0  0
 16 17  1  0  0  0  0
 16 27  2  0  0  0  0
 17 18  2  0  0  0  0
 17 44  1  0  0  0  0
 18 19  1  0  0  0  0
 19 20  1  0  0  0  0
 19 27  1  0  0  0  0
 20 21  1  0  0  0  0
 20 45  1  0  0  0  0
 20 46  1  0  0  0  0
 21 22  1  0  0  0  0
 21 26  2  0  0  0  0
 22 23  2  0  0  0  0
 22 47  1  0  0  0  0
 23 24  1  0  0  0  0
 23 48  1  0  0  0  0
 24 25  2  0  0  0  0
 24 49  1  0  0  0  0
 25 26  1  0  0  0  0
 25 50  1  0  0  0  0
 26 51  1  0  0  0  0
 27 52  1  0  0  0  0
 28 29  2  0  0  0  0
 29 30  1  0  0  0  0
 29 53  1  0  0  0  0
 30 31  1  0  0  0  0
M  END
$$$$
