CHEMBL374240
 OpenBabel04072215373D

 34 36  0  0  0  0  0  0  0  0999 V2000
    1.1801   -0.7475   -0.5768 C   0  0  0  0  0  0  0  0  0  0  0  0
    2.5441   -0.3773   -0.3940 O   0  0  0  0  0  0  0  0  0  0  0  0
    3.1206   -1.2723    0.5166 N   0  0  0  0  0  0  0  0  0  0  0  0
    4.3674   -0.9620    0.7056 C   0  0  0  0  0  0  0  0  0  0  0  0
    5.2166   -1.7461    1.6191 C   0  0  0  0  0  0  0  0  0  0  0  0
    4.9162   -3.0564    1.9752 C   0  0  0  0  0  0  0  0  0  0  0  0
    3.8849   -3.7840    1.3850 N   0  0  0  0  0  0  0  0  0  0  0  0
    5.6729   -3.7710    2.8260 N   0  0  0  0  0  0  0  0  0  0  0  0
    6.7336   -3.1506    3.3500 C   0  0  0  0  0  0  0  0  0  0  0  0
    7.1088   -1.8968    3.0920 N   0  0  0  0  0  0  0  0  0  0  0  0
    6.3568   -1.2171    2.1962 C   0  0  0  0  0  0  0  0  0  0  0  0
    6.7476    0.0812    1.8658 O   0  0  0  0  0  0  0  0  0  0  0  0
    8.0685    0.4288    2.0983 C   0  0  0  0  0  0  0  0  0  0  0  0
    9.1296   -0.4106    1.7405 C   0  0  0  0  0  0  0  0  0  0  0  0
   10.4554   -0.0738    2.0295 C   0  0  0  0  0  0  0  0  0  0  0  0
   10.6919    1.1652    2.6316 C   0  0  0  0  0  0  0  0  0  0  0  0
   11.8773    1.7435    3.0270 N   0  0  0  0  0  0  0  0  0  0  0  0
   11.6454    2.9948    3.5304 C   0  0  0  0  0  0  0  0  0  0  0  0
   10.2852    3.2188    3.4883 C   0  0  0  0  0  0  0  0  0  0  0  0
    9.6656    2.0605    2.9409 C   0  0  0  0  0  0  0  0  0  0  0  0
    8.3328    1.6804    2.6688 C   0  0  0  0  0  0  0  0  0  0  0  0
    7.3223    2.5110    2.9640 F   0  0  0  0  0  0  0  0  0  0  0  0
    0.7006   -0.0074   -1.2225 H   0  0  0  0  0  0  0  0  0  0  0  0
    0.6576   -0.7656    0.3853 H   0  0  0  0  0  0  0  0  0  0  0  0
    1.1140   -1.7299   -1.0558 H   0  0  0  0  0  0  0  0  0  0  0  0
    4.8189   -0.0926    0.1976 H   0  0  0  0  0  0  0  0  0  0  0  0
    3.0369   -3.2255    1.2846 H   0  0  0  0  0  0  0  0  0  0  0  0
    3.7591   -4.6628    1.8745 H   0  0  0  0  0  0  0  0  0  0  0  0
    7.3550   -3.7218    4.0304 H   0  0  0  0  0  0  0  0  0  0  0  0
    8.9350   -1.3673    1.2608 H   0  0  0  0  0  0  0  0  0  0  0  0
   11.2643   -0.7583    1.7954 H   0  0  0  0  0  0  0  0  0  0  0  0
   12.7853    1.3060    2.9458 H   0  0  0  0  0  0  0  0  0  0  0  0
   12.4624    3.6142    3.8748 H   0  0  0  0  0  0  0  0  0  0  0  0
    9.7872    4.1204    3.8223 H   0  0  0  0  0  0  0  0  0  0  0  0
  1  2  1  0  0  0  0
  1 23  1  0  0  0  0
  1 24  1  0  0  0  0
  1 25  1  0  0  0  0
  2  3  1  0  0  0  0
  3  4  2  0  0  0  0
  4  5  1  0  0  0  0
  4 26  1  0  0  0  0
  5  6  1  0  0  0  0
  5 11  2  0  0  0  0
  6  7  1  0  0  0  0
  6  8  2  0  0  0  0
  7 27  1  0  0  0  0
  7 28  1  0  0  0  0
  8  9  1  0  0  0  0
  9 10  2  0  0  0  0
  9 29  1  0  0  0  0
 10 11  1  0  0  0  0
 11 12  1  0  0  0  0
 12 13  1  0  0  0  0
 13 14  1  0  0  0  0
 13 21  2  0  0  0  0
 14 15  2  0  0  0  0
 14 30  1  0  0  0  0
 15 16  1  0  0  0  0
 15 31  1  0  0  0  0
 16 17  1  0  0  0  0
 16 20  2  0  0  0  0
 17 18  1  0  0  0  0
 17 32  1  0  0  0  0
 18 19  2  0  0  0  0
 18 33  1  0  0  0  0
 19 20  1  0  0  0  0
 19 34  1  0  0  0  0
 20 21  1  0  0  0  0
 21 22  1  0  0  0  0
M  END
$$$$
