CHEMBL496150
 OpenBabel04072215383D

 53 57  0  0  1  0  0  0  0  0999 V2000
    5.5762    0.0202    1.1576 C   0  0  0  0  0  0  0  0  0  0  0  0
    4.7850    0.4884    0.0086 N   0  0  0  0  0  0  0  0  0  0  0  0
    4.2309    1.8047    0.2905 C   0  0  0  0  0  0  0  0  0  0  0  0
    3.7975   -0.5415   -0.3703 C   0  0  1  0  0  0  0  0  0  0  0  0
    2.8459   -0.2777   -1.5503 C   0  0  0  0  0  0  0  0  0  0  0  0
    2.4161   -1.6983   -1.9480 C   0  0  0  0  0  0  0  0  0  0  0  0
    3.6347   -2.4757   -1.7519 N   0  0  0  0  0  0  0  0  0  0  0  0
    4.0503   -3.5031   -2.5609 C   0  0  0  0  0  0  0  0  0  0  0  0
    5.4101   -3.8350   -2.7254 C   0  0  0  0  0  0  0  0  0  0  0  0
    5.8518   -4.8683   -3.5638 C   0  0  0  0  0  0  0  0  0  0  0  0
    4.8629   -5.5591   -4.2518 C   0  0  0  0  0  0  0  0  0  0  0  0
    4.8802   -6.5877   -5.1472 N   0  0  0  0  0  0  0  0  0  0  0  0
    3.6001   -6.8022   -5.5974 C   0  0  0  0  0  0  0  0  0  0  0  0
    3.3079   -7.7761   -6.5879 C   0  0  0  0  0  0  0  0  0  0  0  0
    2.0216   -7.9494   -6.9836 C   0  0  0  0  0  0  0  0  0  0  0  0
    0.9601   -7.1234   -6.5934 N   0  0  0  0  0  0  0  0  0  0  0  0
    1.6899   -9.1504   -7.7924 C   0  0  0  0  0  0  0  0  0  0  0  0
    0.3712   -9.5062   -8.1227 C   0  0  0  0  0  0  0  0  0  0  0  0
    0.0911  -10.7247   -8.7478 C   0  0  0  0  0  0  0  0  0  0  0  0
    1.1276  -11.5871   -9.0930 C   0  0  0  0  0  0  0  0  0  0  0  0
    2.4464  -11.2288   -8.8280 C   0  0  0  0  0  0  0  0  0  0  0  0
    2.7180  -10.0279   -8.1688 C   0  0  0  0  0  0  0  0  0  0  0  0
    4.0454   -9.7159   -7.8606 N   0  0  0  0  0  0  0  0  0  0  0  0
    4.4089   -8.6253   -7.1396 C   0  0  0  0  0  0  0  0  0  0  0  0
    5.6019   -8.3810   -6.9189 O   0  0  0  0  0  0  0  0  0  0  0  0
    2.7478   -6.0378   -4.9239 N   0  0  0  0  0  0  0  0  0  0  0  0
    3.5119   -5.2652   -4.1123 C   0  0  0  0  0  0  0  0  0  0  0  0
    3.1009   -4.2661   -3.2382 C   0  0  0  0  0  0  0  0  0  0  0  0
    4.5380   -1.8168   -0.8376 C   0  0  0  0  0  0  0  0  0  0  0  0
    6.3908    0.7133    1.3789 H   0  0  0  0  0  0  0  0  0  0  0  0
    6.0556   -0.9408    0.9443 H   0  0  0  0  0  0  0  0  0  0  0  0
    4.9578   -0.1046    2.0533 H   0  0  0  0  0  0  0  0  0  0  0  0
    5.0429    2.4994    0.5421 H   0  0  0  0  0  0  0  0  0  0  0  0
    3.5233    1.7985    1.1268 H   0  0  0  0  0  0  0  0  0  0  0  0
    3.7397    2.2291   -0.5909 H   0  0  0  0  0  0  0  0  0  0  0  0
    3.1671   -0.7887    0.4932 H   0  0  0  0  0  0  0  0  0  0  0  0
    3.3583    0.2053   -2.3920 H   0  0  0  0  0  0  0  0  0  0  0  0
    1.9810    0.3323   -1.2702 H   0  0  0  0  0  0  0  0  0  0  0  0
    2.0066   -1.7325   -2.9638 H   0  0  0  0  0  0  0  0  0  0  0  0
    1.6550   -2.0762   -1.2554 H   0  0  0  0  0  0  0  0  0  0  0  0
    6.1756   -3.2703   -2.1999 H   0  0  0  0  0  0  0  0  0  0  0  0
    6.9049   -5.1005   -3.6714 H   0  0  0  0  0  0  0  0  0  0  0  0
    5.7037   -7.0925   -5.4827 H   0  0  0  0  0  0  0  0  0  0  0  0
    1.2350   -6.5370   -5.7905 H   0  0  0  0  0  0  0  0  0  0  0  0
    0.1077   -7.6167   -6.3736 H   0  0  0  0  0  0  0  0  0  0  0  0
   -0.4664   -8.8581   -7.8837 H   0  0  0  0  0  0  0  0  0  0  0  0
   -0.9401  -11.0031   -8.9484 H   0  0  0  0  0  0  0  0  0  0  0  0
    0.9058  -12.5414   -9.5640 H   0  0  0  0  0  0  0  0  0  0  0  0
    3.2481  -11.9042   -9.1093 H   0  0  0  0  0  0  0  0  0  0  0  0
    4.7968  -10.3175   -8.1721 H   0  0  0  0  0  0  0  0  0  0  0  0
    2.0423   -4.0808   -3.1156 H   0  0  0  0  0  0  0  0  0  0  0  0
    5.4751   -1.5503   -1.3387 H   0  0  0  0  0  0  0  0  0  0  0  0
    4.7614   -2.4715    0.0136 H   0  0  0  0  0  0  0  0  0  0  0  0
  1  2  1  0  0  0  0
  1 30  1  0  0  0  0
  1 31  1  0  0  0  0
  1 32  1  0  0  0  0
  2  3  1  0  0  0  0
  3 33  1  0  0  0  0
  3 34  1  0  0  0  0
  3 35  1  0  0  0  0
  4  5  1  0  0  0  0
  4 29  1  0  0  0  0
  4  2  1  0  0  0  0
  4 36  1  1  0  0  0
  5  6  1  0  0  0  0
  5 37  1  0  0  0  0
  5 38  1  0  0  0  0
  6  7  1  0  0  0  0
  6 39  1  0  0  0  0
  6 40  1  0  0  0  0
  7  8  1  0  0  0  0
  7 29  1  0  0  0  0
  8  9  1  0  0  0  0
  8 28  2  0  0  0  0
  9 10  2  0  0  0  0
  9 41  1  0  0  0  0
 10 11  1  0  0  0  0
 10 42  1  0  0  0  0
 11 12  1  0  0  0  0
 11 27  2  0  0  0  0
 12 13  1  0  0  0  0
 12 43  1  0  0  0  0
 13 14  1  0  0  0  0
 13 26  2  0  0  0  0
 14 15  2  0  0  0  0
 14 24  1  0  0  0  0
 15 16  1  0  0  0  0
 15 17  1  0  0  0  0
 16 44  1  0  0  0  0
 16 45  1  0  0  0  0
 17 18  1  0  0  0  0
 17 22  2  0  0  0  0
 18 19  2  0  0  0  0
 18 46  1  0  0  0  0
 19 20  1  0  0  0  0
 19 47  1  0  0  0  0
 20 21  2  0  0  0  0
 20 48  1  0  0  0  0
 21 22  1  0  0  0  0
 21 49  1  0  0  0  0
 22 23  1  0  0  0  0
 23 24  1  0  0  0  0
 23 50  1  0  0  0  0
 24 25  2  0  0  0  0
 26 27  1  0  0  0  0
 27 28  1  0  0  0  0
 28 51  1  0  0  0  0
 29 52  1  0  0  0  0
 29 53  1  0  0  0  0
M  END
$$$$
