CHEMBL1083757
 OpenBabel04072215363D

 61 67  0  0  1  0  0  0  0  0999 V2000
    2.8062   -0.3735   -1.2467 C   0  0  0  0  0  0  0  0  0  0  0  0
    3.3392    0.2320    0.0543 C   0  0  0  0  0  0  0  0  0  0  0  0
    3.8002    1.6218    0.0017 N   0  0  0  0  0  0  0  0  0  0  0  0
    2.9425    2.7346    0.2765 C   0  0  0  0  0  0  0  0  0  0  0  0
    1.5873    2.8710    0.6983 C   0  0  0  0  0  0  0  0  0  0  0  0
    1.0270    4.1645    0.8200 C   0  0  0  0  0  0  0  0  0  0  0  0
    1.7794    5.3209    0.5925 C   0  0  0  0  0  0  0  0  0  0  0  0
    1.3247    6.7147    1.0045 C   0  0  3  0  0  0  0  0  0  0  0  0
    0.4580    7.3954   -0.0467 C   0  0  0  0  0  0  0  0  0  0  0  0
    1.2540    8.3373   -0.9333 C   0  0  0  0  0  0  0  0  0  0  0  0
    1.9386    9.3526   -0.0470 C   0  0  0  0  0  0  0  0  0  0  0  0
    2.8871    8.6556    0.9116 C   0  0  0  0  0  0  0  0  0  0  0  0
    2.3806    7.5019    1.5707 O   0  0  0  0  0  0  0  0  0  0  0  0
    3.0511    5.1672    0.0664 C   0  0  0  0  0  0  0  0  0  0  0  0
    3.6451    3.8974   -0.0469 C   0  0  0  0  0  0  0  0  0  0  0  0
    4.8544    3.4055   -0.4817 C   0  0  0  0  0  0  0  0  0  0  0  0
    5.6204    4.1898   -1.3733 C   0  0  0  0  0  0  0  0  0  0  0  0
    6.3899    3.5142   -2.2747 C   0  0  0  0  0  0  0  0  0  0  0  0
    6.5181    2.1094   -2.2745 C   0  0  0  0  0  0  0  0  0  0  0  0
    6.3158    1.5387   -0.9695 C   0  0  0  0  0  0  0  0  0  0  0  0
    5.1232    2.0802   -0.3469 C   0  0  0  0  0  0  0  0  0  0  0  0
    7.8217    1.4057   -0.2834 C   0  0  0  0  0  0  0  0  0  0  0  0
    9.0141    2.1484   -1.0775 C   0  0  0  0  0  0  0  0  0  0  0  0
    8.9170    1.6332   -2.4764 C   0  0  0  0  0  0  0  0  0  0  0  0
    9.7818    0.8685   -3.1422 N   0  0  0  0  0  0  0  0  0  0  0  0
    8.9895    0.2923   -4.0890 N   0  0  0  0  0  0  0  0  0  0  0  0
    9.5082   -0.7489   -4.9435 C   0  0  0  0  0  0  0  0  0  0  0  0
    7.6628    0.6064   -3.9624 C   0  0  0  0  0  0  0  0  0  0  0  0
    7.6288    1.5975   -3.0342 C   0  0  0  0  0  0  0  0  0  0  0  0
    7.1220    4.5116   -3.0317 C   0  0  0  0  0  0  0  0  0  0  0  0
    8.0248    4.4373   -3.8937 O   0  0  0  0  0  0  0  0  0  0  0  0
    6.7017    5.7315   -2.5358 N   0  0  0  0  0  0  0  0  0  0  0  0
    5.6723    5.6535   -1.5262 C   0  0  0  0  0  0  0  0  0  0  0  0
    2.6431   -1.4584   -1.1196 H   0  0  0  0  0  0  0  0  0  0  0  0
    3.5023   -0.2503   -2.0800 H   0  0  0  0  0  0  0  0  0  0  0  0
    1.8357    0.0455   -1.5419 H   0  0  0  0  0  0  0  0  0  0  0  0
    4.1679   -0.3770    0.4287 H   0  0  0  0  0  0  0  0  0  0  0  0
    2.5411    0.1729    0.8044 H   0  0  0  0  0  0  0  0  0  0  0  0
    0.9769    2.0138    0.9771 H   0  0  0  0  0  0  0  0  0  0  0  0
   -0.0155    4.2683    1.1288 H   0  0  0  0  0  0  0  0  0  0  0  0
    0.6784    6.5285    1.8816 H   0  0  0  0  0  0  0  0  0  0  0  0
   -0.2966    7.9923    0.4856 H   0  0  0  0  0  0  0  0  0  0  0  0
   -0.0841    6.6650   -0.6521 H   0  0  0  0  0  0  0  0  0  0  0  0
    0.5767    8.8386   -1.6342 H   0  0  0  0  0  0  0  0  0  0  0  0
    1.9958    7.7895   -1.5272 H   0  0  0  0  0  0  0  0  0  0  0  0
    1.1809    9.9066    0.5221 H   0  0  0  0  0  0  0  0  0  0  0  0
    2.4860   10.0866   -0.6482 H   0  0  0  0  0  0  0  0  0  0  0  0
    3.1841    9.3609    1.6941 H   0  0  0  0  0  0  0  0  0  0  0  0
    3.8144    8.3840    0.3891 H   0  0  0  0  0  0  0  0  0  0  0  0
    3.6103    6.0583   -0.1804 H   0  0  0  0  0  0  0  0  0  0  0  0
    8.0738    0.3352   -0.3165 H   0  0  0  0  0  0  0  0  0  0  0  0
    7.8178    1.7318    0.7605 H   0  0  0  0  0  0  0  0  0  0  0  0
   10.0119    1.9841   -0.6574 H   0  0  0  0  0  0  0  0  0  0  0  0
    8.8510    3.2374   -1.0656 H   0  0  0  0  0  0  0  0  0  0  0  0
   10.5861   -0.8316   -4.8155 H   0  0  0  0  0  0  0  0  0  0  0  0
    9.2605   -0.4906   -5.9754 H   0  0  0  0  0  0  0  0  0  0  0  0
    9.0177   -1.6841   -4.6588 H   0  0  0  0  0  0  0  0  0  0  0  0
    6.8862    0.0678   -4.4905 H   0  0  0  0  0  0  0  0  0  0  0  0
    7.1402    6.5846   -2.8533 H   0  0  0  0  0  0  0  0  0  0  0  0
    4.7638    6.0619   -1.9777 H   0  0  0  0  0  0  0  0  0  0  0  0
    5.9770    6.1933   -0.6245 H   0  0  0  0  0  0  0  0  0  0  0  0
  1  2  1  0  0  0  0
  1 34  1  0  0  0  0
  1 35  1  0  0  0  0
  1 36  1  0  0  0  0
  2  3  1  0  0  0  0
  2 37  1  0  0  0  0
  2 38  1  0  0  0  0
  3  4  1  0  0  0  0
  3 21  1  0  0  0  0
  4  5  1  0  0  0  0
  4 15  2  0  0  0  0
  5  6  2  0  0  0  0
  5 39  1  0  0  0  0
  6  7  1  0  0  0  0
  6 40  1  0  0  0  0
  7  8  1  0  0  0  0
  7 14  2  0  0  0  0
  8  9  1  0  0  0  0
  8 13  1  0  0  0  0
  8 41  1  0  0  0  0
  9 10  1  0  0  0  0
  9 42  1  0  0  0  0
  9 43  1  0  0  0  0
 10 11  1  0  0  0  0
 10 44  1  0  0  0  0
 10 45  1  0  0  0  0
 11 12  1  0  0  0  0
 11 46  1  0  0  0  0
 11 47  1  0  0  0  0
 12 13  1  0  0  0  0
 12 48  1  0  0  0  0
 12 49  1  0  0  0  0
 14 15  1  0  0  0  0
 14 50  1  0  0  0  0
 15 16  1  0  0  0  0
 16 17  1  0  0  0  0
 16 21  2  0  0  0  0
 17 18  2  0  0  0  0
 17 33  1  0  0  0  0
 18 19  1  0  0  0  0
 18 30  1  0  0  0  0
 19 20  2  0  0  0  0
 19 29  1  0  0  0  0
 20 21  1  0  0  0  0
 20 22  1  0  0  0  0
 22 23  1  0  0  0  0
 22 51  1  0  0  0  0
 22 52  1  0  0  0  0
 23 24  1  0  0  0  0
 23 53  1  0  0  0  0
 23 54  1  0  0  0  0
 24 25  2  0  0  0  0
 24 29  1  0  0  0  0
 25 26  1  0  0  0  0
 26 27  1  0  0  0  0
 26 28  1  0  0  0  0
 27 55  1  0  0  0  0
 27 56  1  0  0  0  0
 27 57  1  0  0  0  0
 28 29  2  0  0  0  0
 28 58  1  0  0  0  0
 30 31  2  0  0  0  0
 30 32  1  0  0  0  0
 32 33  1  0  0  0  0
 32 59  1  0  0  0  0
 33 60  1  0  0  0  0
 33 61  1  0  0  0  0
M  END
$$$$
