CHEMBL2113170
 OpenBabel04072215363D

 70 74  0  0  0  0  0  0  0  0999 V2000
   14.3075    3.1631  -12.9437 C   0  0  0  0  0  0  0  0  0  0  0  0
   14.2339    2.7990  -11.5776 O   0  0  0  0  0  0  0  0  0  0  0  0
   12.9690    3.0917  -10.9786 C   0  0  0  0  0  0  0  0  0  0  0  0
   13.1220    2.6858   -9.5201 C   0  0  0  0  0  0  0  0  0  0  0  0
   11.9534    2.8685   -8.7503 O   0  0  0  0  0  0  0  0  0  0  0  0
   11.8068    2.1087   -7.6161 C   0  0  0  0  0  0  0  0  0  0  0  0
   10.4348    1.9915   -7.2840 C   0  0  0  0  0  0  0  0  0  0  0  0
    9.9544    1.2380   -6.2151 C   0  0  0  0  0  0  0  0  0  0  0  0
    8.6362    1.1155   -6.0186 N   0  0  0  0  0  0  0  0  0  0  0  0
    8.2442    0.3588   -4.9871 C   0  0  0  0  0  0  0  0  0  0  0  0
    9.0512   -0.2467   -4.1136 N   0  0  0  0  0  0  0  0  0  0  0  0
   10.3758   -0.1086   -4.3116 C   0  0  0  0  0  0  0  0  0  0  0  0
   11.2759   -0.7137   -3.3899 N   0  0  0  0  0  0  0  0  0  0  0  0
   10.8386   -1.6461   -2.4601 C   0  0  0  0  0  0  0  0  0  0  0  0
   10.0670   -2.6965   -2.7562 C   0  0  0  0  0  0  0  0  0  0  0  0
    9.5056   -3.6002   -1.7392 C   0  0  0  0  0  0  0  0  0  0  0  0
    8.7429   -4.4820   -2.1207 O   0  0  0  0  0  0  0  0  0  0  0  0
    9.8547   -3.3511   -0.2913 C   0  0  0  0  0  0  0  0  0  0  0  0
    9.2967   -4.1872    0.6922 N   0  0  0  0  0  0  0  0  0  0  0  0
    9.0018   -5.6178    0.4503 C   0  0  0  0  0  0  0  0  0  0  0  0
    7.4973   -5.8994    0.6210 C   0  0  0  0  0  0  0  0  0  0  0  0
    6.9857   -5.5599    1.9734 N   0  0  0  0  0  0  0  0  0  0  0  0
    7.5838   -6.3854    3.0405 C   0  0  0  0  0  0  0  0  0  0  0  0
    7.4007   -7.8808    2.8703 C   0  0  0  0  0  0  0  0  0  0  0  0
    8.5125   -8.7181    2.6848 C   0  0  0  0  0  0  0  0  0  0  0  0
    8.3501  -10.0983    2.5452 C   0  0  0  0  0  0  0  0  0  0  0  0
    7.0749  -10.6570    2.5942 C   0  0  0  0  0  0  0  0  0  0  0  0
    5.9625   -9.8367    2.7753 C   0  0  0  0  0  0  0  0  0  0  0  0
    6.1226   -8.4562    2.9104 C   0  0  0  0  0  0  0  0  0  0  0  0
    7.2816   -4.1220    2.2021 C   0  0  0  0  0  0  0  0  0  0  0  0
    8.7569   -3.6796    1.9726 C   0  0  0  0  0  0  0  0  0  0  0  0
   10.6821   -2.3300   -0.0187 C   0  0  0  0  0  0  0  0  0  0  0  0
   11.2690   -1.4534   -1.0487 C   0  0  0  0  0  0  0  0  0  0  0  0
   12.0799   -0.5802   -0.7476 O   0  0  0  0  0  0  0  0  0  0  0  0
   10.8880    0.6177   -5.3958 C   0  0  0  0  0  0  0  0  0  0  0  0
   12.2612    0.7004   -5.7226 C   0  0  0  0  0  0  0  0  0  0  0  0
   12.7417    1.4377   -6.8175 C   0  0  0  0  0  0  0  0  0  0  0  0
   14.0817    1.2214   -6.9538 O   0  0  0  0  0  0  0  0  0  0  0  0
   14.9851    2.2523   -7.2972 C   0  0  0  0  0  0  0  0  0  0  0  0
   15.3029    2.8924  -13.3069 H   0  0  0  0  0  0  0  0  0  0  0  0
   14.1753    4.2417  -13.0614 H   0  0  0  0  0  0  0  0  0  0  0  0
   13.5615    2.6154  -13.5252 H   0  0  0  0  0  0  0  0  0  0  0  0
   12.1661    2.5292  -11.4659 H   0  0  0  0  0  0  0  0  0  0  0  0
   12.7447    4.1623  -11.0574 H   0  0  0  0  0  0  0  0  0  0  0  0
   13.8871    3.3591   -9.1339 H   0  0  0  0  0  0  0  0  0  0  0  0
   13.4607    1.6450   -9.4903 H   0  0  0  0  0  0  0  0  0  0  0  0
    9.6993    2.4873   -7.9208 H   0  0  0  0  0  0  0  0  0  0  0  0
    7.1759    0.2297   -4.8380 H   0  0  0  0  0  0  0  0  0  0  0  0
   11.8447    0.0104   -2.9422 H   0  0  0  0  0  0  0  0  0  0  0  0
    9.7510   -2.8960   -3.7686 H   0  0  0  0  0  0  0  0  0  0  0  0
    9.5876   -6.2082    1.1625 H   0  0  0  0  0  0  0  0  0  0  0  0
    9.3438   -5.9674   -0.5274 H   0  0  0  0  0  0  0  0  0  0  0  0
    7.2761   -6.9425    0.3716 H   0  0  0  0  0  0  0  0  0  0  0  0
    6.9335   -5.3059   -0.1125 H   0  0  0  0  0  0  0  0  0  0  0  0
    7.1169   -6.1166    3.9973 H   0  0  0  0  0  0  0  0  0  0  0  0
    8.6510   -6.1722    3.1700 H   0  0  0  0  0  0  0  0  0  0  0  0
    9.5172   -8.3029    2.6491 H   0  0  0  0  0  0  0  0  0  0  0  0
    9.2186  -10.7360    2.4023 H   0  0  0  0  0  0  0  0  0  0  0  0
    6.9467  -11.7310    2.4886 H   0  0  0  0  0  0  0  0  0  0  0  0
    4.9671  -10.2718    2.8113 H   0  0  0  0  0  0  0  0  0  0  0  0
    5.2477   -7.8231    3.0424 H   0  0  0  0  0  0  0  0  0  0  0  0
    6.9681   -3.8324    3.2130 H   0  0  0  0  0  0  0  0  0  0  0  0
    6.6416   -3.5413    1.5232 H   0  0  0  0  0  0  0  0  0  0  0  0
    9.3916   -4.0402    2.7895 H   0  0  0  0  0  0  0  0  0  0  0  0
    8.7865   -2.5839    2.0042 H   0  0  0  0  0  0  0  0  0  0  0  0
   10.9958   -2.1105    0.9992 H   0  0  0  0  0  0  0  0  0  0  0  0
   12.9817    0.1372   -5.1273 H   0  0  0  0  0  0  0  0  0  0  0  0
   15.8571    2.1920   -6.6409 H   0  0  0  0  0  0  0  0  0  0  0  0
   14.5682    3.2581   -7.2078 H   0  0  0  0  0  0  0  0  0  0  0  0
   15.3602    2.0445   -8.3049 H   0  0  0  0  0  0  0  0  0  0  0  0
  1  2  1  0  0  0  0
  1 40  1  0  0  0  0
  1 41  1  0  0  0  0
  1 42  1  0  0  0  0
  2  3  1  0  0  0  0
  3  4  1  0  0  0  0
  3 43  1  0  0  0  0
  3 44  1  0  0  0  0
  4  5  1  0  0  0  0
  4 45  1  0  0  0  0
  4 46  1  0  0  0  0
  5  6  1  0  0  0  0
  6  7  1  0  0  0  0
  6 37  2  0  0  0  0
  7  8  2  0  0  0  0
  7 47  1  0  0  0  0
  8  9  1  0  0  0  0
  8 35  1  0  0  0  0
  9 10  2  0  0  0  0
 10 11  1  0  0  0  0
 10 48  1  0  0  0  0
 11 12  2  0  0  0  0
 12 13  1  0  0  0  0
 12 35  1  0  0  0  0
 13 14  1  0  0  0  0
 13 49  1  0  0  0  0
 14 15  2  0  0  0  0
 14 33  1  0  0  0  0
 15 16  1  0  0  0  0
 15 50  1  0  0  0  0
 16 17  2  0  0  0  0
 16 18  1  0  0  0  0
 18 19  1  0  0  0  0
 18 32  2  0  0  0  0
 19 20  1  0  0  0  0
 19 31  1  0  0  0  0
 20 21  1  0  0  0  0
 20 51  1  0  0  0  0
 20 52  1  0  0  0  0
 21 22  1  0  0  0  0
 21 53  1  0  0  0  0
 21 54  1  0  0  0  0
 22 23  1  0  0  0  0
 22 30  1  0  0  0  0
 23 24  1  0  0  0  0
 23 55  1  0  0  0  0
 23 56  1  0  0  0  0
 24 25  1  0  0  0  0
 24 29  2  0  0  0  0
 25 26  2  0  0  0  0
 25 57  1  0  0  0  0
 26 27  1  0  0  0  0
 26 58  1  0  0  0  0
 27 28  2  0  0  0  0
 27 59  1  0  0  0  0
 28 29  1  0  0  0  0
 28 60  1  0  0  0  0
 29 61  1  0  0  0  0
 30 31  1  0  0  0  0
 30 62  1  0  0  0  0
 30 63  1  0  0  0  0
 31 64  1  0  0  0  0
 31 65  1  0  0  0  0
 32 33  1  0  0  0  0
 32 66  1  0  0  0  0
 33 34  2  0  0  0  0
 35 36  2  0  0  0  0
 36 37  1  0  0  0  0
 36 67  1  0  0  0  0
 37 38  1  0  0  0  0
 38 39  1  0  0  0  0
 39 68  1  0  0  0  0
 39 69  1  0  0  0  0
 39 70  1  0  0  0  0
M  END
$$$$
