CHEMBL260305
 OpenBabel04072215363D

 45 48  0  0  0  0  0  0  0  0999 V2000
    2.8422    0.9034   -2.3495 C   0  0  0  0  0  0  0  0  0  0  0  0
    1.4414    0.5886   -1.9088 C   0  0  0  0  0  0  0  0  0  0  0  0
    0.9627   -0.7222   -2.0046 C   0  0  0  0  0  0  0  0  0  0  0  0
   -0.3181   -1.0212   -1.5638 C   0  0  0  0  0  0  0  0  0  0  0  0
   -1.1376   -0.0176   -1.0435 C   0  0  0  0  0  0  0  0  0  0  0  0
   -2.3019   -0.4257   -0.5287 F   0  0  0  0  0  0  0  0  0  0  0  0
   -0.7131    1.3187   -0.9931 C   0  0  0  0  0  0  0  0  0  0  0  0
   -1.5134    2.4156   -0.5661 N   0  0  0  0  0  0  0  0  0  0  0  0
   -2.8923    2.4159   -0.4458 C   0  0  0  0  0  0  0  0  0  0  0  0
   -3.6286    1.4728   -0.7029 O   0  0  0  0  0  0  0  0  0  0  0  0
   -3.3907    3.6627   -0.0714 N   0  0  0  0  0  0  0  0  0  0  0  0
   -4.7849    3.8271    0.1422 C   0  0  0  0  0  0  0  0  0  0  0  0
   -5.5232    2.9062    0.8881 C   0  0  0  0  0  0  0  0  0  0  0  0
   -6.9206    2.9981    0.9583 C   0  0  0  0  0  0  0  0  0  0  0  0
   -7.6218    4.0190    0.2949 C   0  0  0  0  0  0  0  0  0  0  0  0
   -9.1025    4.0735    0.3025 C   0  0  0  0  0  0  0  0  0  0  0  0
   -9.8484    3.7430    1.4676 C   0  0  0  0  0  0  0  0  0  0  0  0
  -11.2409    3.8556    1.5285 C   0  0  0  0  0  0  0  0  0  0  0  0
  -11.9499    4.3306    0.4352 C   0  0  0  0  0  0  0  0  0  0  0  0
  -13.2787    4.4764    0.4985 F   0  0  0  0  0  0  0  0  0  0  0  0
  -11.2325    4.6195   -0.7160 C   0  0  0  0  0  0  0  0  0  0  0  0
  -11.7632    5.0745   -1.8778 O   0  0  0  0  0  0  0  0  0  0  0  0
  -10.7684    5.1794   -2.8266 N   0  0  0  0  0  0  0  0  0  0  0  0
   -9.6486    4.7711   -2.2265 C   0  0  0  0  0  0  0  0  0  0  0  0
   -8.4834    4.6282   -2.8896 N   0  0  0  0  0  0  0  0  0  0  0  0
   -9.8562    4.4713   -0.8427 C   0  0  0  0  0  0  0  0  0  0  0  0
   -6.8424    4.9961   -0.3538 C   0  0  0  0  0  0  0  0  0  0  0  0
   -5.4444    4.9024   -0.4409 C   0  0  0  0  0  0  0  0  0  0  0  0
    0.6012    1.6003   -1.4022 C   0  0  0  0  0  0  0  0  0  0  0  0
    3.3616    0.0026   -2.6971 H   0  0  0  0  0  0  0  0  0  0  0  0
    3.4190    1.3144   -1.5149 H   0  0  0  0  0  0  0  0  0  0  0  0
    2.8310    1.6204   -3.1760 H   0  0  0  0  0  0  0  0  0  0  0  0
    1.5821   -1.5163   -2.4050 H   0  0  0  0  0  0  0  0  0  0  0  0
   -0.7006   -2.0359   -1.6032 H   0  0  0  0  0  0  0  0  0  0  0  0
   -1.0479    3.2999   -0.4383 H   0  0  0  0  0  0  0  0  0  0  0  0
   -2.9158    4.4457   -0.4951 H   0  0  0  0  0  0  0  0  0  0  0  0
   -5.0240    2.0853    1.3987 H   0  0  0  0  0  0  0  0  0  0  0  0
   -7.4492    2.2290    1.5187 H   0  0  0  0  0  0  0  0  0  0  0  0
   -9.3306    3.4026    2.3640 H   0  0  0  0  0  0  0  0  0  0  0  0
  -11.7777    3.5902    2.4350 H   0  0  0  0  0  0  0  0  0  0  0  0
   -8.5434    4.6575   -3.9029 H   0  0  0  0  0  0  0  0  0  0  0  0
   -7.8178    3.9309   -2.5651 H   0  0  0  0  0  0  0  0  0  0  0  0
   -7.3237    5.8388   -0.8484 H   0  0  0  0  0  0  0  0  0  0  0  0
   -4.9079    5.6375   -1.0342 H   0  0  0  0  0  0  0  0  0  0  0  0
    0.9826    2.6190   -1.3545 H   0  0  0  0  0  0  0  0  0  0  0  0
  1  2  1  0  0  0  0
  1 30  1  0  0  0  0
  1 31  1  0  0  0  0
  1 32  1  0  0  0  0
  2  3  1  0  0  0  0
  2 29  2  0  0  0  0
  3  4  2  0  0  0  0
  3 33  1  0  0  0  0
  4  5  1  0  0  0  0
  4 34  1  0  0  0  0
  5  6  1  0  0  0  0
  5  7  2  0  0  0  0
  7  8  1  0  0  0  0
  7 29  1  0  0  0  0
  8  9  1  0  0  0  0
  8 35  1  0  0  0  0
  9 10  2  0  0  0  0
  9 11  1  0  0  0  0
 11 12  1  0  0  0  0
 11 36  1  0  0  0  0
 12 13  1  0  0  0  0
 12 28  2  0  0  0  0
 13 14  2  0  0  0  0
 13 37  1  0  0  0  0
 14 15  1  0  0  0  0
 14 38  1  0  0  0  0
 15 16  1  0  0  0  0
 15 27  2  0  0  0  0
 16 17  1  0  0  0  0
 16 26  2  0  0  0  0
 17 18  2  0  0  0  0
 17 39  1  0  0  0  0
 18 19  1  0  0  0  0
 18 40  1  0  0  0  0
 19 20  1  0  0  0  0
 19 21  2  0  0  0  0
 21 22  1  0  0  0  0
 21 26  1  0  0  0  0
 22 23  1  0  0  0  0
 23 24  2  0  0  0  0
 24 25  1  0  0  0  0
 24 26  1  0  0  0  0
 25 41  1  0  0  0  0
 25 42  1  0  0  0  0
 27 28  1  0  0  0  0
 27 43  1  0  0  0  0
 28 44  1  0  0  0  0
 29 45  1  0  0  0  0
M  END
$$$$
