CHEMBL1242113
 OpenBabel04072215363D

 36 38  0  0  0  0  0  0  0  0999 V2000
    1.1728   -0.5699    0.5558 C   0  0  0  0  0  0  0  0  0  0  0  0
    2.5143   -0.0225    0.0974 C   0  0  0  0  0  0  0  0  0  0  0  0
    2.9378    1.1126    0.8926 N   0  0  0  0  0  0  0  0  0  0  0  0
    2.5792    2.3576    0.5191 N   0  0  0  0  0  0  0  0  0  0  0  0
    3.0772    3.1485    1.4911 C   0  0  0  0  0  0  0  0  0  0  0  0
    2.8799    4.5968    1.4299 C   0  0  0  0  0  0  0  0  0  0  0  0
    1.7135    5.1370    0.8689 C   0  0  0  0  0  0  0  0  0  0  0  0
    1.4619    6.5129    0.9328 C   0  0  0  0  0  0  0  0  0  0  0  0
    2.3582    7.3574    1.5874 C   0  0  0  0  0  0  0  0  0  0  0  0
    2.2170    8.7063    1.7743 O   0  0  0  0  0  0  0  0  0  0  0  0
    1.0569    9.2942    1.2011 C   0  0  0  0  0  0  0  0  0  0  0  0
    3.5316    6.8136    2.1086 C   0  0  0  0  0  0  0  0  0  0  0  0
    4.4181    7.5906    2.8024 O   0  0  0  0  0  0  0  0  0  0  0  0
    3.8268    5.4672    1.9703 C   0  0  0  0  0  0  0  0  0  0  0  0
    3.7272    2.3804    2.5110 C   0  0  0  0  0  0  0  0  0  0  0  0
    4.3565    2.5736    3.7532 C   0  0  0  0  0  0  0  0  0  0  0  0
    4.4420    3.7589    4.4460 N   0  0  0  0  0  0  0  0  0  0  0  0
    4.9195    1.5105    4.3612 N   0  0  0  0  0  0  0  0  0  0  0  0
    4.8060    0.2992    3.7857 C   0  0  0  0  0  0  0  0  0  0  0  0
    4.1786   -0.0172    2.6423 N   0  0  0  0  0  0  0  0  0  0  0  0
    3.6641    1.0745    2.0505 C   0  0  0  0  0  0  0  0  0  0  0  0
    0.8747   -1.4208   -0.0628 H   0  0  0  0  0  0  0  0  0  0  0  0
    0.3911    0.1941    0.4839 H   0  0  0  0  0  0  0  0  0  0  0  0
    1.2164   -0.9021    1.5979 H   0  0  0  0  0  0  0  0  0  0  0  0
    2.4569    0.3028   -0.9483 H   0  0  0  0  0  0  0  0  0  0  0  0
    3.2925   -0.7924    0.1625 H   0  0  0  0  0  0  0  0  0  0  0  0
    0.9893    4.4838    0.3856 H   0  0  0  0  0  0  0  0  0  0  0  0
    0.5477    6.8804    0.4794 H   0  0  0  0  0  0  0  0  0  0  0  0
    1.1118   10.3729    1.3702 H   0  0  0  0  0  0  0  0  0  0  0  0
    0.1519    8.9196    1.6903 H   0  0  0  0  0  0  0  0  0  0  0  0
    1.0219    9.1280    0.1193 H   0  0  0  0  0  0  0  0  0  0  0  0
    4.0273    8.4859    2.8023 H   0  0  0  0  0  0  0  0  0  0  0  0
    4.7890    5.1075    2.3218 H   0  0  0  0  0  0  0  0  0  0  0  0
    3.9890    4.6044    4.1626 H   0  0  0  0  0  0  0  0  0  0  0  0
    5.0545    3.7690    5.2522 H   0  0  0  0  0  0  0  0  0  0  0  0
    5.2730   -0.5204    4.3236 H   0  0  0  0  0  0  0  0  0  0  0  0
  1  2  1  0  0  0  0
  1 22  1  0  0  0  0
  1 23  1  0  0  0  0
  1 24  1  0  0  0  0
  2  3  1  0  0  0  0
  2 25  1  0  0  0  0
  2 26  1  0  0  0  0
  3  4  1  0  0  0  0
  3 21  1  0  0  0  0
  4  5  2  0  0  0  0
  5  6  1  0  0  0  0
  5 15  1  0  0  0  0
  6  7  1  0  0  0  0
  6 14  2  0  0  0  0
  7  8  2  0  0  0  0
  7 27  1  0  0  0  0
  8  9  1  0  0  0  0
  8 28  1  0  0  0  0
  9 10  1  0  0  0  0
  9 12  2  0  0  0  0
 10 11  1  0  0  0  0
 11 29  1  0  0  0  0
 11 30  1  0  0  0  0
 11 31  1  0  0  0  0
 12 13  1  0  0  0  0
 12 14  1  0  0  0  0
 13 32  1  0  0  0  0
 14 33  1  0  0  0  0
 15 16  1  0  0  0  0
 15 21  2  0  0  0  0
 16 17  1  0  0  0  0
 16 18  2  0  0  0  0
 17 34  1  0  0  0  0
 17 35  1  0  0  0  0
 18 19  1  0  0  0  0
 19 20  2  0  0  0  0
 19 36  1  0  0  0  0
 20 21  1  0  0  0  0
M  END
$$$$
