CHEMBL447602
 OpenBabel04072215383D

 78 83  0  0  0  0  0  0  0  0999 V2000
    2.4512    1.6530    0.3745 C   0  0  0  0  0  0  0  0  0  0  0  0
    2.4350    0.2808   -0.0316 O   0  0  0  0  0  0  0  0  0  0  0  0
    3.0993   -0.5461    0.8371 C   0  0  0  0  0  0  0  0  0  0  0  0
    4.2660   -0.1223    1.4594 C   0  0  0  0  0  0  0  0  0  0  0  0
    4.7597   -0.7688    2.5910 C   0  0  0  0  0  0  0  0  0  0  0  0
    5.7536   -0.1951    3.4192 C   0  0  0  0  0  0  0  0  0  0  0  0
    6.3234    1.0470    3.2047 O   0  0  0  0  0  0  0  0  0  0  0  0
    5.5175    2.1557    3.0676 C   0  0  0  0  0  0  0  0  0  0  0  0
    6.0635    3.2445    2.3934 C   0  0  0  0  0  0  0  0  0  0  0  0
    5.2898    4.3858    2.1567 C   0  0  0  0  0  0  0  0  0  0  0  0
    3.9739    4.4249    2.6045 C   0  0  0  0  0  0  0  0  0  0  0  0
    3.1039    5.6067    2.4513 C   0  0  0  0  0  0  0  0  0  0  0  0
    2.0456    5.7794    3.2515 C   0  0  0  0  0  0  0  0  0  0  0  0
    1.1919    6.8335    3.2181 N   0  0  0  0  0  0  0  0  0  0  0  0
    1.4459    7.8563    2.4570 C   0  0  0  0  0  0  0  0  0  0  0  0
    0.5770    8.9358    2.4546 N   0  0  0  0  0  0  0  0  0  0  0  0
   -0.7252    8.9140    3.0047 C   0  0  0  0  0  0  0  0  0  0  0  0
   -1.2182   10.0254    3.7035 C   0  0  0  0  0  0  0  0  0  0  0  0
   -2.4470    9.9554    4.3735 C   0  0  0  0  0  0  0  0  0  0  0  0
   -3.1859    8.7784    4.3467 C   0  0  0  0  0  0  0  0  0  0  0  0
   -4.3405    8.7031    5.0205 F   0  0  0  0  0  0  0  0  0  0  0  0
   -2.7359    7.6759    3.6410 C   0  0  0  0  0  0  0  0  0  0  0  0
   -1.5134    7.7500    2.9710 C   0  0  0  0  0  0  0  0  0  0  0  0
    2.5845    7.8615    1.6579 N   0  0  0  0  0  0  0  0  0  0  0  0
    2.9578    8.9830    0.8125 C   0  0  0  0  0  0  0  0  0  0  0  0
    3.3052    6.6860    1.4527 C   0  0  0  0  0  0  0  0  0  0  0  0
    4.0593    6.5260    0.4925 O   0  0  0  0  0  0  0  0  0  0  0  0
    3.4368    3.3731    3.2795 N   0  0  0  0  0  0  0  0  0  0  0  0
    4.2099    2.2817    3.5085 C   0  0  0  0  0  0  0  0  0  0  0  0
    6.2318   -0.9003    4.5139 C   0  0  0  0  0  0  0  0  0  0  0  0
    5.6687   -2.1328    4.7776 C   0  0  0  0  0  0  0  0  0  0  0  0
    4.6773   -2.6855    4.0379 N   0  0  0  0  0  0  0  0  0  0  0  0
    4.2184   -2.0062    2.9706 C   0  0  0  0  0  0  0  0  0  0  0  0
    3.1594   -2.5238    2.2150 C   0  0  0  0  0  0  0  0  0  0  0  0
    2.5945   -1.8053    1.1493 C   0  0  0  0  0  0  0  0  0  0  0  0
    1.5495   -2.4244    0.5144 O   0  0  0  0  0  0  0  0  0  0  0  0
    1.4354   -2.1127   -0.8793 C   0  0  0  0  0  0  0  0  0  0  0  0
    0.8691   -3.3157   -1.6249 C   0  0  0  0  0  0  0  0  0  0  0  0
    1.7902   -4.5343   -1.4929 C   0  0  0  0  0  0  0  0  0  0  0  0
    1.3304   -5.6939   -2.2756 N   0  0  0  0  0  0  0  0  0  0  0  0
    0.0236   -6.2325   -1.8363 C   0  0  0  0  0  0  0  0  0  0  0  0
    0.0604   -7.0104   -0.5092 C   0  0  0  0  0  0  0  0  0  0  0  0
    1.0450   -8.0518   -0.5290 O   0  0  0  0  0  0  0  0  0  0  0  0
    2.3378   -7.5236   -0.8480 C   0  0  0  0  0  0  0  0  0  0  0  0
    2.3171   -6.7984   -2.2050 C   0  0  0  0  0  0  0  0  0  0  0  0
    1.6202    2.1761   -0.0955 H   0  0  0  0  0  0  0  0  0  0  0  0
    3.3778    2.1323    0.0384 H   0  0  0  0  0  0  0  0  0  0  0  0
    2.3279    1.7607    1.4606 H   0  0  0  0  0  0  0  0  0  0  0  0
    4.7530    0.7746    1.0947 H   0  0  0  0  0  0  0  0  0  0  0  0
    7.0894    3.2095    2.0366 H   0  0  0  0  0  0  0  0  0  0  0  0
    5.7366    5.2286    1.6371 H   0  0  0  0  0  0  0  0  0  0  0  0
    1.8092    5.0465    4.0190 H   0  0  0  0  0  0  0  0  0  0  0  0
    0.9252    9.8529    2.2286 H   0  0  0  0  0  0  0  0  0  0  0  0
   -0.6387   10.9422    3.7728 H   0  0  0  0  0  0  0  0  0  0  0  0
   -2.8217   10.8033    4.9400 H   0  0  0  0  0  0  0  0  0  0  0  0
   -3.3135    6.7581    3.6295 H   0  0  0  0  0  0  0  0  0  0  0  0
   -1.1681    6.8696    2.4345 H   0  0  0  0  0  0  0  0  0  0  0  0
    2.6753    9.9374    1.2605 H   0  0  0  0  0  0  0  0  0  0  0  0
    2.4717    8.8739   -0.1611 H   0  0  0  0  0  0  0  0  0  0  0  0
    4.0441    8.9930    0.6647 H   0  0  0  0  0  0  0  0  0  0  0  0
    3.6936    1.4824    4.0318 H   0  0  0  0  0  0  0  0  0  0  0  0
    7.0059   -0.4919    5.1517 H   0  0  0  0  0  0  0  0  0  0  0  0
    6.0009   -2.7290    5.6220 H   0  0  0  0  0  0  0  0  0  0  0  0
    2.7448   -3.4870    2.4888 H   0  0  0  0  0  0  0  0  0  0  0  0
    2.4044   -1.8616   -1.3296 H   0  0  0  0  0  0  0  0  0  0  0  0
    0.7437   -1.2711   -0.9945 H   0  0  0  0  0  0  0  0  0  0  0  0
    0.7432   -3.0526   -2.6820 H   0  0  0  0  0  0  0  0  0  0  0  0
   -0.1181   -3.5356   -1.2083 H   0  0  0  0  0  0  0  0  0  0  0  0
    1.9216   -4.7873   -0.4357 H   0  0  0  0  0  0  0  0  0  0  0  0
    2.7795   -4.2394   -1.8699 H   0  0  0  0  0  0  0  0  0  0  0  0
   -0.3165   -6.9177   -2.6235 H   0  0  0  0  0  0  0  0  0  0  0  0
   -0.7422   -5.4525   -1.7896 H   0  0  0  0  0  0  0  0  0  0  0  0
   -0.9109   -7.4892   -0.3462 H   0  0  0  0  0  0  0  0  0  0  0  0
    0.2491   -6.3495    0.3441 H   0  0  0  0  0  0  0  0  0  0  0  0
    3.0351   -8.3660   -0.8920 H   0  0  0  0  0  0  0  0  0  0  0  0
    2.6720   -6.8685   -0.0354 H   0  0  0  0  0  0  0  0  0  0  0  0
    2.0473   -7.5263   -2.9812 H   0  0  0  0  0  0  0  0  0  0  0  0
    3.3204   -6.4377   -2.4599 H   0  0  0  0  0  0  0  0  0  0  0  0
  1  2  1  0  0  0  0
  1 46  1  0  0  0  0
  1 47  1  0  0  0  0
  1 48  1  0  0  0  0
  2  3  1  0  0  0  0
  3  4  1  0  0  0  0
  3 35  2  0  0  0  0
  4  5  2  0  0  0  0
  4 49  1  0  0  0  0
  5  6  1  0  0  0  0
  5 33  1  0  0  0  0
  6  7  1  0  0  0  0
  6 30  2  0  0  0  0
  7  8  1  0  0  0  0
  8  9  1  0  0  0  0
  8 29  2  0  0  0  0
  9 10  2  0  0  0  0
  9 50  1  0  0  0  0
 10 11  1  0  0  0  0
 10 51  1  0  0  0  0
 11 12  1  0  0  0  0
 11 28  2  0  0  0  0
 12 13  2  0  0  0  0
 12 26  1  0  0  0  0
 13 14  1  0  0  0  0
 13 52  1  0  0  0  0
 14 15  2  0  0  0  0
 15 16  1  0  0  0  0
 15 24  1  0  0  0  0
 16 17  1  0  0  0  0
 16 53  1  0  0  0  0
 17 18  1  0  0  0  0
 17 23  2  0  0  0  0
 18 19  2  0  0  0  0
 18 54  1  0  0  0  0
 19 20  1  0  0  0  0
 19 55  1  0  0  0  0
 20 21  1  0  0  0  0
 20 22  2  0  0  0  0
 22 23  1  0  0  0  0
 22 56  1  0  0  0  0
 23 57  1  0  0  0  0
 24 25  1  0  0  0  0
 24 26  1  0  0  0  0
 25 58  1  0  0  0  0
 25 59  1  0  0  0  0
 25 60  1  0  0  0  0
 26 27  2  0  0  0  0
 28 29  1  0  0  0  0
 29 61  1  0  0  0  0
 30 31  1  0  0  0  0
 30 62  1  0  0  0  0
 31 32  2  0  0  0  0
 31 63  1  0  0  0  0
 32 33  1  0  0  0  0
 33 34  2  0  0  0  0
 34 35  1  0  0  0  0
 34 64  1  0  0  0  0
 35 36  1  0  0  0  0
 36 37  1  0  0  0  0
 37 38  1  0  0  0  0
 37 65  1  0  0  0  0
 37 66  1  0  0  0  0
 38 39  1  0  0  0  0
 38 67  1  0  0  0  0
 38 68  1  0  0  0  0
 39 40  1  0  0  0  0
 39 69  1  0  0  0  0
 39 70  1  0  0  0  0
 40 41  1  0  0  0  0
 40 45  1  0  0  0  0
 41 42  1  0  0  0  0
 41 71  1  0  0  0  0
 41 72  1  0  0  0  0
 42 43  1  0  0  0  0
 42 73  1  0  0  0  0
 42 74  1  0  0  0  0
 43 44  1  0  0  0  0
 44 45  1  0  0  0  0
 44 75  1  0  0  0  0
 44 76  1  0  0  0  0
 45 77  1  0  0  0  0
 45 78  1  0  0  0  0
M  END
$$$$
