CHEMBL3981077
 OpenBabel04072215373D

 46 49  0  0  0  0  0  0  0  0999 V2000
    2.1284   -0.5885   -1.9052 C   0  0  0  0  0  0  0  0  0  0  0  0
    3.2803   -0.3200   -1.1115 O   0  0  0  0  0  0  0  0  0  0  0  0
    3.5447   -1.1891   -0.0866 C   0  0  0  0  0  0  0  0  0  0  0  0
    2.8008   -2.3175    0.2300 C   0  0  0  0  0  0  0  0  0  0  0  0
    3.1916   -3.1000    1.3098 C   0  0  0  0  0  0  0  0  0  0  0  0
    2.4703   -4.1864    1.6183 F   0  0  0  0  0  0  0  0  0  0  0  0
    4.3021   -2.7777    2.0886 C   0  0  0  0  0  0  0  0  0  0  0  0
    5.0749   -1.6463    1.8011 C   0  0  0  0  0  0  0  0  0  0  0  0
    6.1855   -1.2596    2.5982 N   0  0  0  0  0  0  0  0  0  0  0  0
    7.0552   -2.3415    3.1408 C   0  0  0  0  0  0  0  0  0  0  0  0
    7.3106   -2.2158    4.6575 C   0  0  0  0  0  0  0  0  0  0  0  0
    6.1183   -2.3765    5.4204 O   0  0  0  0  0  0  0  0  0  0  0  0
    6.6167    0.0731    2.8146 C   0  0  0  0  0  0  0  0  0  0  0  0
    7.9671    0.4267    2.8940 C   0  0  0  0  0  0  0  0  0  0  0  0
    8.3524    1.7235    3.2409 C   0  0  0  0  0  0  0  0  0  0  0  0
    7.4096    2.7071    3.4818 C   0  0  0  0  0  0  0  0  0  0  0  0
    7.8244    3.9349    3.8363 N   0  0  0  0  0  0  0  0  0  0  0  0
    6.8513    4.8538    4.0377 C   0  0  0  0  0  0  0  0  0  0  0  0
    5.5017    4.5716    3.8883 C   0  0  0  0  0  0  0  0  0  0  0  0
    4.4858    5.5891    4.0665 C   0  0  0  0  0  0  0  0  0  0  0  0
    4.5815    6.9673    4.3808 C   0  0  0  0  0  0  0  0  0  0  0  0
    3.3956    7.5688    4.4420 N   0  0  0  0  0  0  0  0  0  0  0  0
    2.5267    6.5847    4.1621 N   0  0  0  0  0  0  0  0  0  0  0  0
    3.1274    5.3829    3.9307 C   0  0  0  0  0  0  0  0  0  0  0  0
    5.0849    3.3279    3.5481 N   0  0  0  0  0  0  0  0  0  0  0  0
    6.0390    2.3971    3.3447 C   0  0  0  0  0  0  0  0  0  0  0  0
    5.6741    1.0949    3.0205 C   0  0  0  0  0  0  0  0  0  0  0  0
    4.6720   -0.8708    0.6901 C   0  0  0  0  0  0  0  0  0  0  0  0
    2.0453    0.2021   -2.6576 H   0  0  0  0  0  0  0  0  0  0  0  0
    1.2147   -0.5678   -1.3011 H   0  0  0  0  0  0  0  0  0  0  0  0
    2.2297   -1.5418   -2.4343 H   0  0  0  0  0  0  0  0  0  0  0  0
    1.9198   -2.6163   -0.3239 H   0  0  0  0  0  0  0  0  0  0  0  0
    4.5136   -3.4116    2.9429 H   0  0  0  0  0  0  0  0  0  0  0  0
    8.0127   -2.3429    2.6059 H   0  0  0  0  0  0  0  0  0  0  0  0
    6.6334   -3.3352    2.9591 H   0  0  0  0  0  0  0  0  0  0  0  0
    7.7682   -1.2639    4.9415 H   0  0  0  0  0  0  0  0  0  0  0  0
    8.0050   -3.0019    4.9685 H   0  0  0  0  0  0  0  0  0  0  0  0
    5.6431   -1.5267    5.3664 H   0  0  0  0  0  0  0  0  0  0  0  0
    8.7555   -0.2967    2.7003 H   0  0  0  0  0  0  0  0  0  0  0  0
    9.4079    1.9659    3.3318 H   0  0  0  0  0  0  0  0  0  0  0  0
    7.2115    5.8340    4.3271 H   0  0  0  0  0  0  0  0  0  0  0  0
    5.4708    7.5581    4.5641 H   0  0  0  0  0  0  0  0  0  0  0  0
    1.5360    6.8055    4.1415 H   0  0  0  0  0  0  0  0  0  0  0  0
    2.5515    4.4996    3.6886 H   0  0  0  0  0  0  0  0  0  0  0  0
    4.6098    0.8686    2.9658 H   0  0  0  0  0  0  0  0  0  0  0  0
    5.2487    0.0079    0.4054 H   0  0  0  0  0  0  0  0  0  0  0  0
  1  2  1  0  0  0  0
  1 29  1  0  0  0  0
  1 30  1  0  0  0  0
  1 31  1  0  0  0  0
  2  3  1  0  0  0  0
  3  4  1  0  0  0  0
  3 28  2  0  0  0  0
  4  5  2  0  0  0  0
  4 32  1  0  0  0  0
  5  6  1  0  0  0  0
  5  7  1  0  0  0  0
  7  8  2  0  0  0  0
  7 33  1  0  0  0  0
  8  9  1  0  0  0  0
  8 28  1  0  0  0  0
  9 10  1  0  0  0  0
  9 13  1  0  0  0  0
 10 11  1  0  0  0  0
 10 34  1  0  0  0  0
 10 35  1  0  0  0  0
 11 12  1  0  0  0  0
 11 36  1  0  0  0  0
 11 37  1  0  0  0  0
 12 38  1  0  0  0  0
 13 14  1  0  0  0  0
 13 27  2  0  0  0  0
 14 15  2  0  0  0  0
 14 39  1  0  0  0  0
 15 16  1  0  0  0  0
 15 40  1  0  0  0  0
 16 17  1  0  0  0  0
 16 26  2  0  0  0  0
 17 18  2  0  0  0  0
 18 19  1  0  0  0  0
 18 41  1  0  0  0  0
 19 20  1  0  0  0  0
 19 25  2  0  0  0  0
 20 21  1  0  0  0  0
 20 24  2  0  0  0  0
 21 22  2  0  0  0  0
 21 42  1  0  0  0  0
 22 23  1  0  0  0  0
 23 24  1  0  0  0  0
 23 43  1  0  0  0  0
 24 44  1  0  0  0  0
 25 26  1  0  0  0  0
 26 27  1  0  0  0  0
 27 45  1  0  0  0  0
 28 46  1  0  0  0  0
M  END
$$$$
