CHEMBL243628
 OpenBabel04072215363D

 68 71  0  0  0  0  0  0  0  0999 V2000
    0.8176   -0.1809   -2.3150 C   0  0  0  0  0  0  0  0  0  0  0  0
    2.2987   -0.4528   -2.4785 C   0  0  0  0  0  0  0  0  0  0  0  0
    2.9467   -0.7085   -1.2177 O   0  0  0  0  0  0  0  0  0  0  0  0
    4.3126   -0.8899   -1.3118 C   0  0  0  0  0  0  0  0  0  0  0  0
    4.9962   -0.9355   -2.5476 C   0  0  0  0  0  0  0  0  0  0  0  0
    6.3620   -1.1050   -2.6612 C   0  0  0  0  0  0  0  0  0  0  0  0
    6.8893   -1.1472   -3.8816 N   0  0  0  0  0  0  0  0  0  0  0  0
    8.2155   -1.2828   -3.9597 C   0  0  0  0  0  0  0  0  0  0  0  0
    9.0591   -1.3838   -2.9268 N   0  0  0  0  0  0  0  0  0  0  0  0
    8.5132   -1.3544   -1.6940 C   0  0  0  0  0  0  0  0  0  0  0  0
    9.4875   -1.3980   -0.6685 N   0  0  0  0  0  0  0  0  0  0  0  0
    9.3994   -2.1128    0.5247 C   0  0  0  0  0  0  0  0  0  0  0  0
    9.2509   -1.5087    1.7103 C   0  0  0  0  0  0  0  0  0  0  0  0
    9.2866   -2.2131    3.0002 C   0  0  0  0  0  0  0  0  0  0  0  0
    9.1056   -1.5883    4.0410 O   0  0  0  0  0  0  0  0  0  0  0  0
    9.6006   -3.6721    2.9880 C   0  0  0  0  0  0  0  0  0  0  0  0
    9.7165   -4.2534    4.2328 O   0  0  0  0  0  0  0  0  0  0  0  0
    9.6001   -5.6680    4.3353 C   0  0  0  0  0  0  0  0  0  0  0  0
    9.2940   -6.0049    5.7751 C   0  0  0  0  0  0  0  0  0  0  0  0
   10.0639   -6.9435    6.4809 C   0  0  0  0  0  0  0  0  0  0  0  0
    9.7471   -7.2654    7.8041 C   0  0  0  0  0  0  0  0  0  0  0  0
    8.6606   -6.6538    8.4219 C   0  0  0  0  0  0  0  0  0  0  0  0
    8.3588   -6.9743    9.6877 F   0  0  0  0  0  0  0  0  0  0  0  0
    7.8927   -5.7241    7.7336 C   0  0  0  0  0  0  0  0  0  0  0  0
    6.8431   -5.1395    8.3279 F   0  0  0  0  0  0  0  0  0  0  0  0
    8.2005   -5.3971    6.4174 C   0  0  0  0  0  0  0  0  0  0  0  0
    9.7560   -4.2938    1.8096 C   0  0  0  0  0  0  0  0  0  0  0  0
    9.6466   -3.5916    0.5113 C   0  0  0  0  0  0  0  0  0  0  0  0
    9.8067   -4.2152   -0.5328 O   0  0  0  0  0  0  0  0  0  0  0  0
    7.1303   -1.1907   -1.5006 C   0  0  0  0  0  0  0  0  0  0  0  0
    6.4594   -1.1116   -0.2663 C   0  0  0  0  0  0  0  0  0  0  0  0
    5.0676   -1.0549   -0.1424 C   0  0  0  0  0  0  0  0  0  0  0  0
    4.4848   -1.1578    1.1499 N   0  0  0  0  0  0  0  0  0  0  0  0
    5.1291   -1.7301    2.2466 C   0  0  0  0  0  0  0  0  0  0  0  0
    6.1972   -2.3396    2.2149 O   0  0  0  0  0  0  0  0  0  0  0  0
    4.4077   -1.5854    3.5285 C   0  0  0  0  0  0  0  0  0  0  0  0
    5.1287   -1.4625    4.6589 C   0  0  0  0  0  0  0  0  0  0  0  0
    4.6084   -1.3788    6.0693 C   0  0  0  0  0  0  0  0  0  0  0  0
    3.2905   -1.9943    6.3032 N   0  0  0  0  0  0  0  0  0  0  0  0
    3.3579   -3.4559    6.1740 C   0  0  0  0  0  0  0  0  0  0  0  0
    2.8414   -1.6639    7.6623 C   0  0  0  0  0  0  0  0  0  0  0  0
    0.3919    0.1336   -3.2751 H   0  0  0  0  0  0  0  0  0  0  0  0
    0.6362    0.6017   -1.5743 H   0  0  0  0  0  0  0  0  0  0  0  0
    0.2940   -1.0842   -1.9898 H   0  0  0  0  0  0  0  0  0  0  0  0
    2.7458    0.4294   -2.9561 H   0  0  0  0  0  0  0  0  0  0  0  0
    2.4031   -1.3294   -3.1308 H   0  0  0  0  0  0  0  0  0  0  0  0
    4.4646   -0.8501   -3.4918 H   0  0  0  0  0  0  0  0  0  0  0  0
    8.6474   -1.3000   -4.9506 H   0  0  0  0  0  0  0  0  0  0  0  0
   10.3012   -1.7168   -1.2069 H   0  0  0  0  0  0  0  0  0  0  0  0
    9.0853   -0.4401    1.7768 H   0  0  0  0  0  0  0  0  0  0  0  0
   10.5384   -6.1353    4.0148 H   0  0  0  0  0  0  0  0  0  0  0  0
    8.7747   -6.0435    3.7185 H   0  0  0  0  0  0  0  0  0  0  0  0
   10.9166   -7.4276    6.0086 H   0  0  0  0  0  0  0  0  0  0  0  0
   10.3388   -7.9892    8.3561 H   0  0  0  0  0  0  0  0  0  0  0  0
    7.5904   -4.6607    5.8992 H   0  0  0  0  0  0  0  0  0  0  0  0
   10.0054   -5.3444    1.7286 H   0  0  0  0  0  0  0  0  0  0  0  0
    7.0507   -1.0633    0.6335 H   0  0  0  0  0  0  0  0  0  0  0  0
    3.5094   -0.8948    1.2299 H   0  0  0  0  0  0  0  0  0  0  0  0
    3.3281   -1.6290    3.5323 H   0  0  0  0  0  0  0  0  0  0  0  0
    6.2173   -1.4103    4.5921 H   0  0  0  0  0  0  0  0  0  0  0  0
    4.5593   -0.3094    6.3100 H   0  0  0  0  0  0  0  0  0  0  0  0
    5.3542   -1.8139    6.7470 H   0  0  0  0  0  0  0  0  0  0  0  0
    3.6009   -3.7577    5.1504 H   0  0  0  0  0  0  0  0  0  0  0  0
    2.3814   -3.9019    6.3955 H   0  0  0  0  0  0  0  0  0  0  0  0
    4.0985   -3.9015    6.8487 H   0  0  0  0  0  0  0  0  0  0  0  0
    2.7527   -0.5795    7.7905 H   0  0  0  0  0  0  0  0  0  0  0  0
    3.5261   -2.0463    8.4295 H   0  0  0  0  0  0  0  0  0  0  0  0
    1.8472   -2.0838    7.8512 H   0  0  0  0  0  0  0  0  0  0  0  0
  1  2  1  0  0  0  0
  1 42  1  0  0  0  0
  1 43  1  0  0  0  0
  1 44  1  0  0  0  0
  2  3  1  0  0  0  0
  2 45  1  0  0  0  0
  2 46  1  0  0  0  0
  3  4  1  0  0  0  0
  4  5  1  0  0  0  0
  4 32  2  0  0  0  0
  5  6  2  0  0  0  0
  5 47  1  0  0  0  0
  6  7  1  0  0  0  0
  6 30  1  0  0  0  0
  7  8  2  0  0  0  0
  8  9  1  0  0  0  0
  8 48  1  0  0  0  0
  9 10  2  0  0  0  0
 10 11  1  0  0  0  0
 10 30  1  0  0  0  0
 11 12  1  0  0  0  0
 11 49  1  0  0  0  0
 12 13  2  0  0  0  0
 12 28  1  0  0  0  0
 13 14  1  0  0  0  0
 13 50  1  0  0  0  0
 14 15  2  0  0  0  0
 14 16  1  0  0  0  0
 16 17  1  0  0  0  0
 16 27  2  0  0  0  0
 17 18  1  0  0  0  0
 18 19  1  0  0  0  0
 18 51  1  0  0  0  0
 18 52  1  0  0  0  0
 19 20  1  0  0  0  0
 19 26  2  0  0  0  0
 20 21  2  0  0  0  0
 20 53  1  0  0  0  0
 21 22  1  0  0  0  0
 21 54  1  0  0  0  0
 22 23  1  0  0  0  0
 22 24  2  0  0  0  0
 24 25  1  0  0  0  0
 24 26  1  0  0  0  0
 26 55  1  0  0  0  0
 27 28  1  0  0  0  0
 27 56  1  0  0  0  0
 28 29  2  0  0  0  0
 30 31  2  0  0  0  0
 31 32  1  0  0  0  0
 31 57  1  0  0  0  0
 32 33  1  0  0  0  0
 33 34  1  0  0  0  0
 33 58  1  0  0  0  0
 34 35  2  0  0  0  0
 34 36  1  0  0  0  0
 36 37  2  0  0  0  0
 36 59  1  0  0  0  0
 37 38  1  0  0  0  0
 37 60  1  0  0  0  0
 38 39  1  0  0  0  0
 38 61  1  0  0  0  0
 38 62  1  0  0  0  0
 39 40  1  0  0  0  0
 39 41  1  0  0  0  0
 40 63  1  0  0  0  0
 40 64  1  0  0  0  0
 40 65  1  0  0  0  0
 41 66  1  0  0  0  0
 41 67  1  0  0  0  0
 41 68  1  0  0  0  0
M  END
$$$$
