CHEMBL2006580
 OpenBabel04072215363D

 26 28  0  0  0  0  0  0  0  0999 V2000
    2.2913    0.0427    0.0556 O   0  0  0  0  0  0  0  0  0  0  0  0
    0.9294   -0.0056    0.0306 C   0  0  0  0  0  0  0  0  0  0  0  0
    0.2578   -1.0133   -0.6499 C   0  0  0  0  0  0  0  0  0  0  0  0
   -1.1375   -1.0327   -0.6368 C   0  0  0  0  0  0  0  0  0  0  0  0
   -1.8701   -0.0524    0.0488 C   0  0  0  0  0  0  0  0  0  0  0  0
   -3.2812   -0.0494    0.0627 N   0  0  0  0  0  0  0  0  0  0  0  0
   -4.1069   -1.1852   -0.0103 C   0  0  0  0  0  0  0  0  0  0  0  0
   -3.6559   -2.3525    0.5225 N   0  0  0  0  0  0  0  0  0  0  0  0
   -4.4219   -3.4449    0.4695 C   0  0  0  0  0  0  0  0  0  0  0  0
   -5.6300   -3.5518   -0.0786 N   0  0  0  0  0  0  0  0  0  0  0  0
   -6.0638   -2.3909   -0.5934 C   0  0  0  0  0  0  0  0  0  0  0  0
   -7.5894   -2.3164   -1.3502 S   0  0  0  0  0  0  0  0  0  0  0  0
   -7.4003   -0.6570   -1.6935 C   0  0  0  0  0  0  0  0  0  0  0  0
   -6.1967   -0.1705   -1.2336 C   0  0  0  0  0  0  0  0  0  0  0  0
   -5.7173    1.4656   -1.4218 Cl  0  0  0  0  0  0  0  0  0  0  0  0
   -5.3917   -1.1753   -0.5948 C   0  0  0  0  0  0  0  0  0  0  0  0
   -1.1713    0.9672    0.7054 C   0  0  0  0  0  0  0  0  0  0  0  0
    0.2267    0.9836    0.7071 C   0  0  0  0  0  0  0  0  0  0  0  0
    2.6339   -0.7268   -0.4289 H   0  0  0  0  0  0  0  0  0  0  0  0
    0.7911   -1.7888   -1.1892 H   0  0  0  0  0  0  0  0  0  0  0  0
   -1.6529   -1.8229   -1.1754 H   0  0  0  0  0  0  0  0  0  0  0  0
   -3.6673    0.7712   -0.3878 H   0  0  0  0  0  0  0  0  0  0  0  0
   -4.0066   -4.3415    0.9190 H   0  0  0  0  0  0  0  0  0  0  0  0
   -8.1801   -0.1191   -2.2153 H   0  0  0  0  0  0  0  0  0  0  0  0
   -1.7112    1.7363    1.2519 H   0  0  0  0  0  0  0  0  0  0  0  0
    0.7646    1.7599    1.2432 H   0  0  0  0  0  0  0  0  0  0  0  0
  1  2  1  0  0  0  0
  1 19  1  0  0  0  0
  2  3  1  0  0  0  0
  2 18  2  0  0  0  0
  3  4  2  0  0  0  0
  3 20  1  0  0  0  0
  4  5  1  0  0  0  0
  4 21  1  0  0  0  0
  5  6  1  0  0  0  0
  5 17  2  0  0  0  0
  6  7  1  0  0  0  0
  6 22  1  0  0  0  0
  7  8  1  0  0  0  0
  7 16  2  0  0  0  0
  8  9  2  0  0  0  0
  9 10  1  0  0  0  0
  9 23  1  0  0  0  0
 10 11  2  0  0  0  0
 11 12  1  0  0  0  0
 11 16  1  0  0  0  0
 12 13  1  0  0  0  0
 13 14  2  0  0  0  0
 13 24  1  0  0  0  0
 14 15  1  0  0  0  0
 14 16  1  0  0  0  0
 17 18  1  0  0  0  0
 17 25  1  0  0  0  0
 18 26  1  0  0  0  0
M  END
$$$$
