CHEMBL394692
 OpenBabel04072215373D

 61 64  0  0  0  0  0  0  0  0999 V2000
    4.6965  -11.1694    2.8912 C   0  0  0  0  0  0  0  0  0  0  0  0
    4.7087  -10.8996    1.4727 N   0  0  0  0  0  0  0  0  0  0  0  0
    3.9868   -9.7930    1.0590 C   0  0  0  0  0  0  0  0  0  0  0  0
    3.4000   -9.8948   -0.1373 N   0  0  0  0  0  0  0  0  0  0  0  0
    2.7664   -8.8029   -0.5978 C   0  0  0  0  0  0  0  0  0  0  0  0
    2.6977   -7.6117    0.0855 C   0  0  0  0  0  0  0  0  0  0  0  0
    3.3252   -7.5849    1.3134 C   0  0  0  0  0  0  0  0  0  0  0  0
    3.3676   -6.4055    2.2004 C   0  0  0  0  0  0  0  0  0  0  0  0
    3.3353   -6.5981    3.5989 C   0  0  0  0  0  0  0  0  0  0  0  0
    3.4438   -5.5309    4.4864 C   0  0  0  0  0  0  0  0  0  0  0  0
    3.5415   -4.2634    3.9588 C   0  0  0  0  0  0  0  0  0  0  0  0
    3.5385   -4.0142    2.6367 N   0  0  0  0  0  0  0  0  0  0  0  0
    3.5011   -5.0740    1.7800 C   0  0  0  0  0  0  0  0  0  0  0  0
    3.6523   -4.7989    0.4182 O   0  0  0  0  0  0  0  0  0  0  0  0
    4.2695   -3.6063    0.0617 C   0  0  0  0  0  0  0  0  0  0  0  0
    5.4183   -3.1451    0.7383 C   0  0  0  0  0  0  0  0  0  0  0  0
    5.9493   -1.8907    0.4412 C   0  0  0  0  0  0  0  0  0  0  0  0
    6.9706   -1.2177    1.3019 C   0  0  0  0  0  0  0  0  0  0  0  0
    7.0058    0.0114    1.2647 O   0  0  0  0  0  0  0  0  0  0  0  0
    7.8130   -2.0197    2.0498 N   0  0  0  0  0  0  0  0  0  0  0  0
    8.7673   -1.5469    2.9840 C   0  0  0  0  0  0  0  0  0  0  0  0
    8.7102   -0.2644    3.5392 C   0  0  0  0  0  0  0  0  0  0  0  0
    9.7022    0.1770    4.4141 C   0  0  0  0  0  0  0  0  0  0  0  0
   10.7743   -0.6507    4.7338 C   0  0  0  0  0  0  0  0  0  0  0  0
   10.8568   -1.9440    4.1968 C   0  0  0  0  0  0  0  0  0  0  0  0
   12.0823   -2.8137    4.4304 C   0  0  0  0  0  0  0  0  0  0  0  0
   13.3309   -2.1614    3.8242 C   0  0  0  0  0  0  0  0  0  0  0  0
   12.3156   -3.1351    5.9082 C   0  0  0  0  0  0  0  0  0  0  0  0
    9.8202   -2.3944    3.3549 C   0  0  0  0  0  0  0  0  0  0  0  0
    5.4130   -1.1508   -0.6218 C   0  0  0  0  0  0  0  0  0  0  0  0
    4.3286   -1.6430   -1.3499 C   0  0  0  0  0  0  0  0  0  0  0  0
    3.7295   -2.8633   -1.0024 C   0  0  0  0  0  0  0  0  0  0  0  0
    2.5050   -3.3044   -1.7521 C   0  0  0  0  0  0  0  0  0  0  0  0
    3.9455   -8.6853    1.8096 N   0  0  0  0  0  0  0  0  0  0  0  0
    5.3141  -12.0516    3.0906 H   0  0  0  0  0  0  0  0  0  0  0  0
    3.6843  -11.3859    3.2500 H   0  0  0  0  0  0  0  0  0  0  0  0
    5.1187  -10.3431    3.4732 H   0  0  0  0  0  0  0  0  0  0  0  0
    4.4306  -11.6697    0.8747 H   0  0  0  0  0  0  0  0  0  0  0  0
    2.3063   -8.9153   -1.5757 H   0  0  0  0  0  0  0  0  0  0  0  0
    2.1742   -6.7630   -0.3310 H   0  0  0  0  0  0  0  0  0  0  0  0
    3.2494   -7.6052    4.0055 H   0  0  0  0  0  0  0  0  0  0  0  0
    3.4590   -5.6914    5.5581 H   0  0  0  0  0  0  0  0  0  0  0  0
    3.6458   -3.3905    4.5963 H   0  0  0  0  0  0  0  0  0  0  0  0
    5.8160   -3.7290    1.5611 H   0  0  0  0  0  0  0  0  0  0  0  0
    7.8651   -3.0048    1.8093 H   0  0  0  0  0  0  0  0  0  0  0  0
    7.8964    0.4187    3.3125 H   0  0  0  0  0  0  0  0  0  0  0  0
    9.6482    1.1835    4.8236 H   0  0  0  0  0  0  0  0  0  0  0  0
   11.5574   -0.2662    5.3827 H   0  0  0  0  0  0  0  0  0  0  0  0
   11.9335   -3.7709    3.9144 H   0  0  0  0  0  0  0  0  0  0  0  0
   13.5586   -1.1969    4.2922 H   0  0  0  0  0  0  0  0  0  0  0  0
   13.1976   -1.9854    2.7508 H   0  0  0  0  0  0  0  0  0  0  0  0
   14.2071   -2.8057    3.9528 H   0  0  0  0  0  0  0  0  0  0  0  0
   12.5221   -2.2361    6.4991 H   0  0  0  0  0  0  0  0  0  0  0  0
   13.1754   -3.8063    6.0190 H   0  0  0  0  0  0  0  0  0  0  0  0
   11.4445   -3.6341    6.3453 H   0  0  0  0  0  0  0  0  0  0  0  0
    9.8743   -3.3981    2.9401 H   0  0  0  0  0  0  0  0  0  0  0  0
    5.8155   -0.1712   -0.8624 H   0  0  0  0  0  0  0  0  0  0  0  0
    3.9288   -1.0344   -2.1595 H   0  0  0  0  0  0  0  0  0  0  0  0
    2.2059   -2.5589   -2.4993 H   0  0  0  0  0  0  0  0  0  0  0  0
    1.6620   -3.4293   -1.0666 H   0  0  0  0  0  0  0  0  0  0  0  0
    2.6962   -4.2425   -2.2816 H   0  0  0  0  0  0  0  0  0  0  0  0
  1  2  1  0  0  0  0
  1 35  1  0  0  0  0
  1 36  1  0  0  0  0
  1 37  1  0  0  0  0
  2  3  1  0  0  0  0
  2 38  1  0  0  0  0
  3  4  1  0  0  0  0
  3 34  2  0  0  0  0
  4  5  2  0  0  0  0
  5  6  1  0  0  0  0
  5 39  1  0  0  0  0
  6  7  2  0  0  0  0
  6 40  1  0  0  0  0
  7  8  1  0  0  0  0
  7 34  1  0  0  0  0
  8  9  1  0  0  0  0
  8 13  2  0  0  0  0
  9 10  2  0  0  0  0
  9 41  1  0  0  0  0
 10 11  1  0  0  0  0
 10 42  1  0  0  0  0
 11 12  2  0  0  0  0
 11 43  1  0  0  0  0
 12 13  1  0  0  0  0
 13 14  1  0  0  0  0
 14 15  1  0  0  0  0
 15 16  1  0  0  0  0
 15 32  2  0  0  0  0
 16 17  2  0  0  0  0
 16 44  1  0  0  0  0
 17 18  1  0  0  0  0
 17 30  1  0  0  0  0
 18 19  2  0  0  0  0
 18 20  1  0  0  0  0
 20 21  1  0  0  0  0
 20 45  1  0  0  0  0
 21 22  1  0  0  0  0
 21 29  2  0  0  0  0
 22 23  2  0  0  0  0
 22 46  1  0  0  0  0
 23 24  1  0  0  0  0
 23 47  1  0  0  0  0
 24 25  2  0  0  0  0
 24 48  1  0  0  0  0
 25 26  1  0  0  0  0
 25 29  1  0  0  0  0
 26 27  1  0  0  0  0
 26 28  1  0  0  0  0
 26 49  1  0  0  0  0
 27 50  1  0  0  0  0
 27 51  1  0  0  0  0
 27 52  1  0  0  0  0
 28 53  1  0  0  0  0
 28 54  1  0  0  0  0
 28 55  1  0  0  0  0
 29 56  1  0  0  0  0
 30 31  2  0  0  0  0
 30 57  1  0  0  0  0
 31 32  1  0  0  0  0
 31 58  1  0  0  0  0
 32 33  1  0  0  0  0
 33 59  1  0  0  0  0
 33 60  1  0  0  0  0
 33 61  1  0  0  0  0
M  END
$$$$
