CHEMBL1973395
 OpenBabel04072215363D

 40 43  0  0  0  0  0  0  0  0999 V2000
   -1.8707    0.2675    1.4038 O   0  0  0  0  0  0  0  0  0  0  0  0
   -1.1679    0.1724    0.1627 C   0  0  0  0  0  0  0  0  0  0  0  0
   -0.2539    1.3960    0.0248 C   0  0  0  0  0  0  0  0  0  0  0  0
    1.1326    1.1198    0.5839 C   0  0  0  0  0  0  0  0  0  0  0  0
    1.5980   -0.0462   -0.1591 N   0  0  0  0  0  0  0  0  0  0  0  0
    2.9515   -0.0824   -0.4626 C   0  0  0  0  0  0  0  0  0  0  0  0
    3.8223    0.5702    0.3576 N   0  0  0  0  0  0  0  0  0  0  0  0
    5.1211    0.6507    0.0147 C   0  0  0  0  0  0  0  0  0  0  0  0
    5.7093    0.1494   -1.0726 N   0  0  0  0  0  0  0  0  0  0  0  0
    4.8263   -0.4655   -1.8703 C   0  0  0  0  0  0  0  0  0  0  0  0
    5.1713   -1.0268   -3.0648 N   0  0  0  0  0  0  0  0  0  0  0  0
    4.0620   -1.5448   -3.6710 C   0  0  0  0  0  0  0  0  0  0  0  0
    2.9704   -1.3350   -2.8398 C   0  0  0  0  0  0  0  0  0  0  0  0
    1.6344   -1.7454   -3.2710 C   0  0  0  0  0  0  0  0  0  0  0  0
    1.4337   -2.9915   -3.8848 C   0  0  0  0  0  0  0  0  0  0  0  0
    0.1546   -3.4088   -4.2805 C   0  0  0  0  0  0  0  0  0  0  0  0
   -0.9435   -2.5844   -4.0537 C   0  0  0  0  0  0  0  0  0  0  0  0
   -0.7541   -1.3263   -3.4868 C   0  0  0  0  0  0  0  0  0  0  0  0
    0.5295   -0.9035   -3.1182 C   0  0  0  0  0  0  0  0  0  0  0  0
    3.4620   -0.6361   -1.6664 C   0  0  0  0  0  0  0  0  0  0  0  0
    0.9959   -1.2789    0.3383 C   0  0  0  0  0  0  0  0  0  0  0  0
   -0.5157   -1.2208    0.0838 C   0  0  0  0  0  0  0  0  0  0  0  0
   -2.4838    1.0191    1.3230 H   0  0  0  0  0  0  0  0  0  0  0  0
   -1.9355    0.2315   -0.6205 H   0  0  0  0  0  0  0  0  0  0  0  0
   -0.6843    2.2732    0.5203 H   0  0  0  0  0  0  0  0  0  0  0  0
   -0.1460    1.6470   -1.0386 H   0  0  0  0  0  0  0  0  0  0  0  0
    1.0913    0.9272    1.6648 H   0  0  0  0  0  0  0  0  0  0  0  0
    1.7586    2.0066    0.4297 H   0  0  0  0  0  0  0  0  0  0  0  0
    5.7614    1.1979    0.6991 H   0  0  0  0  0  0  0  0  0  0  0  0
    6.1086   -1.0125   -3.4374 H   0  0  0  0  0  0  0  0  0  0  0  0
    4.1393   -1.9961   -4.6497 H   0  0  0  0  0  0  0  0  0  0  0  0
    2.2731   -3.6611   -4.0642 H   0  0  0  0  0  0  0  0  0  0  0  0
    0.0197   -4.3773   -4.7521 H   0  0  0  0  0  0  0  0  0  0  0  0
   -1.9438   -2.9210   -4.3167 H   0  0  0  0  0  0  0  0  0  0  0  0
   -1.6114   -0.6884   -3.2890 H   0  0  0  0  0  0  0  0  0  0  0  0
    0.6503    0.0763   -2.6646 H   0  0  0  0  0  0  0  0  0  0  0  0
    1.1807   -1.3899    1.4153 H   0  0  0  0  0  0  0  0  0  0  0  0
    1.4117   -2.1702   -0.1461 H   0  0  0  0  0  0  0  0  0  0  0  0
   -1.0243   -1.9283    0.7496 H   0  0  0  0  0  0  0  0  0  0  0  0
   -0.6899   -1.6169   -0.9166 H   0  0  0  0  0  0  0  0  0  0  0  0
  1  2  1  0  0  0  0
  1 23  1  0  0  0  0
  2  3  1  0  0  0  0
  2 22  1  0  0  0  0
  2 24  1  0  0  0  0
  3  4  1  0  0  0  0
  3 25  1  0  0  0  0
  3 26  1  0  0  0  0
  4  5  1  0  0  0  0
  4 27  1  0  0  0  0
  4 28  1  0  0  0  0
  5  6  1  0  0  0  0
  5 21  1  0  0  0  0
  6  7  1  0  0  0  0
  6 20  2  0  0  0  0
  7  8  2  0  0  0  0
  8  9  1  0  0  0  0
  8 29  1  0  0  0  0
  9 10  2  0  0  0  0
 10 11  1  0  0  0  0
 10 20  1  0  0  0  0
 11 12  1  0  0  0  0
 11 30  1  0  0  0  0
 12 13  2  0  0  0  0
 12 31  1  0  0  0  0
 13 14  1  0  0  0  0
 13 20  1  0  0  0  0
 14 15  1  0  0  0  0
 14 19  2  0  0  0  0
 15 16  2  0  0  0  0
 15 32  1  0  0  0  0
 16 17  1  0  0  0  0
 16 33  1  0  0  0  0
 17 18  2  0  0  0  0
 17 34  1  0  0  0  0
 18 19  1  0  0  0  0
 18 35  1  0  0  0  0
 19 36  1  0  0  0  0
 21 22  1  0  0  0  0
 21 37  1  0  0  0  0
 21 38  1  0  0  0  0
 22 39  1  0  0  0  0
 22 40  1  0  0  0  0
M  END
$$$$
