CHEMBL4786987
 OpenBabel04072215383D

 74 80  0  0  0  0  0  0  0  0999 V2000
    2.8514    1.2160   -0.3963 O   0  0  0  0  0  0  0  0  0  0  0  0
    2.3804    0.2101    0.1295 C   0  0  0  0  0  0  0  0  0  0  0  0
    3.1075   -1.1072    0.0996 C   0  0  0  0  0  0  0  0  0  0  0  0
    4.4582   -1.2774   -0.4557 C   0  0  0  0  0  0  0  0  0  0  0  0
    4.6233   -1.6268   -1.8039 C   0  0  0  0  0  0  0  0  0  0  0  0
    5.8994   -1.8659   -2.3204 C   0  0  0  0  0  0  0  0  0  0  0  0
    7.0092   -1.7555   -1.4910 C   0  0  0  0  0  0  0  0  0  0  0  0
    8.2306   -1.9901   -1.9879 F   0  0  0  0  0  0  0  0  0  0  0  0
    6.8677   -1.4172   -0.1503 C   0  0  0  0  0  0  0  0  0  0  0  0
    5.5906   -1.1800    0.3693 C   0  0  0  0  0  0  0  0  0  0  0  0
    2.4683   -2.1723    0.6088 C   0  0  0  0  0  0  0  0  0  0  0  0
    1.2339   -2.1381    1.1928 N   0  0  0  0  0  0  0  0  0  0  0  0
    0.5788   -0.9196    1.4169 C   0  0  0  0  0  0  0  0  0  0  0  0
   -0.5830   -0.8815    2.1789 C   0  0  0  0  0  0  0  0  0  0  0  0
   -1.1816    0.3424    2.3856 C   0  0  0  0  0  0  0  0  0  0  0  0
   -0.7467    1.4886    1.8286 N   0  0  0  0  0  0  0  0  0  0  0  0
    0.3546    1.4630    1.0355 C   0  0  0  0  0  0  0  0  0  0  0  0
    0.6305    2.6088    0.2610 N   0  0  0  0  0  0  0  0  0  0  0  0
    0.2897    3.9536    0.4879 C   0  0  0  0  0  0  0  0  0  0  0  0
    0.4549    4.8764   -0.5713 C   0  0  0  0  0  0  0  0  0  0  0  0
    0.4963    6.2490   -0.3290 C   0  0  0  0  0  0  0  0  0  0  0  0
    0.4550    6.6756    0.9915 C   0  0  0  0  0  0  0  0  0  0  0  0
    1.2275    7.6808    1.5428 O   0  0  0  0  0  0  0  0  0  0  0  0
    1.8076    8.6551    0.7926 C   0  0  0  0  0  0  0  0  0  0  0  0
    1.0771    9.8035    0.9711 N   0  0  0  0  0  0  0  0  0  0  0  0
    1.4891   10.8701    0.3192 C   0  0  0  0  0  0  0  0  0  0  0  0
    2.4385   10.7738   -0.5937 N   0  0  0  0  0  0  0  0  0  0  0  0
    3.0440    9.5896   -0.7715 C   0  0  0  0  0  0  0  0  0  0  0  0
    3.4740    9.5114   -2.0372 C   0  0  0  0  0  0  0  0  0  0  0  0
    4.3345    8.5535   -2.6192 C   0  0  0  0  0  0  0  0  0  0  0  0
    5.0622    7.6344   -1.8826 C   0  0  0  0  0  0  0  0  0  0  0  0
    4.3235    7.4972   -0.5924 C   0  0  0  0  0  0  0  0  0  0  0  0
    3.0577    8.4292   -0.0768 C   0  0  0  0  0  0  0  0  0  0  0  0
    6.5564    7.7002   -2.0515 O   0  0  0  0  0  0  0  0  0  0  0  0
    7.5258    6.9177   -3.0196 C   0  0  0  0  0  0  0  0  0  0  0  0
    8.9283    7.3031   -4.1251 C   0  0  0  0  0  0  0  0  0  0  0  0
    9.8319    8.4933   -4.2777 O   0  0  0  0  0  0  0  0  0  0  0  0
    9.4352    9.5504   -5.2576 C   0  0  0  0  0  0  0  0  0  0  0  0
    7.9972    9.5550   -5.0091 C   0  0  0  0  0  0  0  0  0  0  0  0
    6.9827   10.5043   -5.1200 O   0  0  0  0  0  0  0  0  0  0  0  0
    6.0906    9.7806   -4.2468 C   0  0  0  0  0  0  0  0  0  0  0  0
    4.6440    9.9087   -4.4426 C   0  0  0  0  0  0  0  0  0  0  0  0
    4.2098    8.5995   -3.9814 O   0  0  0  0  0  0  0  0  0  0  0  0
   -0.1064    5.8240    1.9435 C   0  0  0  0  0  0  0  0  0  0  0  0
   -0.4535    6.2957    3.1530 F   0  0  0  0  0  0  0  0  0  0  0  0
   -0.1619    4.4562    1.7103 C   0  0  0  0  0  0  0  0  0  0  0  0
    1.0760    0.2713    0.8575 C   0  0  0  0  0  0  0  0  0  0  0  0
    3.7585   -1.7219   -2.4561 H   0  0  0  0  0  0  0  0  0  0  0  0
    6.0329   -2.1403   -3.3620 H   0  0  0  0  0  0  0  0  0  0  0  0
    7.7489   -1.3441    0.4793 H   0  0  0  0  0  0  0  0  0  0  0  0
    5.4897   -0.9280    1.4236 H   0  0  0  0  0  0  0  0  0  0  0  0
    2.9145   -3.1647    0.6018 H   0  0  0  0  0  0  0  0  0  0  0  0
    0.8783   -2.9818    1.6282 H   0  0  0  0  0  0  0  0  0  0  0  0
   -1.0093   -1.7752    2.6162 H   0  0  0  0  0  0  0  0  0  0  0  0
   -2.0679    0.4406    3.0058 H   0  0  0  0  0  0  0  0  0  0  0  0
    1.5524    2.5351   -0.1834 H   0  0  0  0  0  0  0  0  0  0  0  0
    0.6427    4.5011   -1.5761 H   0  0  0  0  0  0  0  0  0  0  0  0
    0.6653    6.9374   -1.1512 H   0  0  0  0  0  0  0  0  0  0  0  0
    0.9909   11.8028    0.4453 H   0  0  0  0  0  0  0  0  0  0  0  0
    2.9978   10.2344   -2.6866 H   0  0  0  0  0  0  0  0  0  0  0  0
    4.5055    6.6114    0.0209 H   0  0  0  0  0  0  0  0  0  0  0  0
    8.1108    6.3504   -2.2826 H   0  0  0  0  0  0  0  0  0  0  0  0
    6.9388    6.1729   -3.5701 H   0  0  0  0  0  0  0  0  0  0  0  0
    8.6559    6.9730   -5.1426 H   0  0  0  0  0  0  0  0  0  0  0  0
    9.6758    6.5428   -3.8504 H   0  0  0  0  0  0  0  0  0  0  0  0
    9.6520    9.2896   -6.3030 H   0  0  0  0  0  0  0  0  0  0  0  0
    9.8975   10.5167   -5.0274 H   0  0  0  0  0  0  0  0  0  0  0  0
    8.0569    9.3858   -3.9216 H   0  0  0  0  0  0  0  0  0  0  0  0
    7.6447    8.6858   -5.5845 H   0  0  0  0  0  0  0  0  0  0  0  0
    6.3620    9.9672   -3.1940 H   0  0  0  0  0  0  0  0  0  0  0  0
    6.2220    8.6918   -4.3923 H   0  0  0  0  0  0  0  0  0  0  0  0
    4.3484   10.0354   -5.4681 H   0  0  0  0  0  0  0  0  0  0  0  0
    4.3301   10.7848   -3.8687 H   0  0  0  0  0  0  0  0  0  0  0  0
   -0.4278    3.8082    2.5367 H   0  0  0  0  0  0  0  0  0  0  0  0
  1  2  2  0  0  0  0
  2  3  1  0  0  0  0
  2 47  1  0  0  0  0
  3  4  1  0  0  0  0
  3 11  2  0  0  0  0
  4  5  1  0  0  0  0
  4 10  2  0  0  0  0
  5  6  2  0  0  0  0
  5 48  1  0  0  0  0
  6  7  1  0  0  0  0
  6 49  1  0  0  0  0
  7  8  1  0  0  0  0
  7  9  2  0  0  0  0
  9 10  1  0  0  0  0
  9 50  1  0  0  0  0
 10 51  1  0  0  0  0
 11 12  1  0  0  0  0
 11 52  1  0  0  0  0
 12 13  1  0  0  0  0
 12 53  1  0  0  0  0
 13 14  1  0  0  0  0
 13 47  2  0  0  0  0
 14 15  2  0  0  0  0
 14 54  1  0  0  0  0
 15 16  1  0  0  0  0
 15 55  1  0  0  0  0
 16 17  2  0  0  0  0
 17 18  1  0  0  0  0
 17 47  1  0  0  0  0
 18 19  1  0  0  0  0
 18 56  1  0  0  0  0
 19 20  1  0  0  0  0
 19 46  2  0  0  0  0
 20 21  2  0  0  0  0
 20 57  1  0  0  0  0
 21 22  1  0  0  0  0
 21 58  1  0  0  0  0
 22 23  1  0  0  0  0
 22 44  2  0  0  0  0
 23 24  1  0  0  0  0
 24 25  1  0  0  0  0
 24 33  2  0  0  0  0
 25 26  2  0  0  0  0
 26 27  1  0  0  0  0
 26 59  1  0  0  0  0
 27 28  2  0  0  0  0
 28 29  1  0  0  0  0
 28 33  1  0  0  0  0
 29 30  2  0  0  0  0
 29 60  1  0  0  0  0
 30 31  1  0  0  0  0
 30 43  1  0  0  0  0
 31 32  2  0  0  0  0
 31 34  1  0  0  0  0
 32 33  1  0  0  0  0
 32 61  1  0  0  0  0
 34 35  1  0  0  0  0
 35 36  1  0  0  0  0
 35 62  1  0  0  0  0
 35 63  1  0  0  0  0
 36 37  1  0  0  0  0
 36 64  1  0  0  0  0
 36 65  1  0  0  0  0
 37 38  1  0  0  0  0
 38 39  1  0  0  0  0
 38 66  1  0  0  0  0
 38 67  1  0  0  0  0
 39 40  1  0  0  0  0
 39 68  1  0  0  0  0
 39 69  1  0  0  0  0
 40 41  1  0  0  0  0
 41 42  1  0  0  0  0
 41 70  1  0  0  0  0
 41 71  1  0  0  0  0
 42 43  1  0  0  0  0
 42 72  1  0  0  0  0
 42 73  1  0  0  0  0
 44 45  1  0  0  0  0
 44 46  1  0  0  0  0
 46 74  1  0  0  0  0
M  END
$$$$
