CHEMBL187494
 OpenBabel04072215363D

 81 85  0  0  0  0  0  0  0  0999 V2000
   -2.9630    2.2617   -3.9184 C   0  0  0  0  0  0  0  0  0  0  0  0
   -3.6433    1.9697   -2.6600 N   0  0  0  0  0  0  0  0  0  0  0  0
   -3.6684    0.5178   -2.4243 C   0  0  0  0  0  0  0  0  0  0  0  0
   -4.4037    0.1703   -1.1256 C   0  0  0  0  0  0  0  0  0  0  0  0
   -3.8900    0.8918    0.0406 N   0  0  0  0  0  0  0  0  0  0  0  0
   -3.8691    0.4197    1.3531 C   0  0  0  0  0  0  0  0  0  0  0  0
   -3.3986    1.0829    2.2785 O   0  0  0  0  0  0  0  0  0  0  0  0
   -4.3776   -0.9430    1.6824 C   0  0  0  0  0  0  0  0  0  0  0  0
   -3.6814   -1.6703    2.6440 C   0  0  0  0  0  0  0  0  0  0  0  0
   -4.0789   -2.9695    2.9631 C   0  0  0  0  0  0  0  0  0  0  0  0
   -5.1585   -3.5844    2.3162 C   0  0  0  0  0  0  0  0  0  0  0  0
   -5.5518   -4.9263    2.5510 N   0  0  0  0  0  0  0  0  0  0  0  0
   -4.8738   -5.8158    3.3620 C   0  0  0  0  0  0  0  0  0  0  0  0
   -3.8178   -5.5499    3.9280 O   0  0  0  0  0  0  0  0  0  0  0  0
   -5.4990   -7.0449    3.4740 N   0  0  0  0  0  0  0  0  0  0  0  0
   -5.0550   -8.0323    4.3906 C   0  0  0  0  0  0  0  0  0  0  0  0
   -4.3351   -7.6966    5.5385 C   0  0  0  0  0  0  0  0  0  0  0  0
   -3.7849   -8.6753    6.3640 C   0  0  0  0  0  0  0  0  0  0  0  0
   -3.9849  -10.0335    6.1152 C   0  0  0  0  0  0  0  0  0  0  0  0
   -3.3929  -11.0199    6.9229 N   0  0  0  0  0  0  0  0  0  0  0  0
   -3.2123  -10.7566    8.3575 C   0  0  0  0  0  0  0  0  0  0  0  0
   -3.0526  -12.3469    6.5696 C   0  0  0  0  0  0  0  0  0  0  0  0
   -2.5989  -12.6455    5.3021 C   0  0  0  0  0  0  0  0  0  0  0  0
   -2.3192  -13.9693    5.0452 C   0  0  0  0  0  0  0  0  0  0  0  0
   -2.4802  -14.9552    5.9431 N   0  0  0  0  0  0  0  0  0  0  0  0
   -2.9283  -14.5850    7.1510 C   0  0  0  0  0  0  0  0  0  0  0  0
   -3.1550  -15.5970    8.0871 N   0  0  0  0  0  0  0  0  0  0  0  0
   -4.0968  -15.5810    9.1294 C   0  0  0  0  0  0  0  0  0  0  0  0
   -5.2514  -14.7912    9.0817 C   0  0  0  0  0  0  0  0  0  0  0  0
   -6.1152  -14.6978   10.1752 C   0  0  0  0  0  0  0  0  0  0  0  0
   -5.8533  -15.4061   11.3518 C   0  0  0  0  0  0  0  0  0  0  0  0
   -6.6517  -15.1573   12.6050 C   0  0  0  0  0  0  0  0  0  0  0  0
   -8.3729  -15.6158   12.4662 S   0  0  0  0  0  0  0  0  0  0  0  0
   -8.3546  -17.3434   12.0565 C   0  0  0  0  0  0  0  0  0  0  0  0
   -8.9421  -15.5100   13.7995 O   0  0  0  0  0  0  0  0  0  0  0  0
   -8.9904  -14.8984   11.3661 O   0  0  0  0  0  0  0  0  0  0  0  0
   -4.7290  -16.2459   11.3835 C   0  0  0  0  0  0  0  0  0  0  0  0
   -3.8694  -16.3405   10.2798 C   0  0  0  0  0  0  0  0  0  0  0  0
   -3.1743  -13.3124    7.4912 N   0  0  0  0  0  0  0  0  0  0  0  0
   -4.7930  -10.3587    5.0067 C   0  0  0  0  0  0  0  0  0  0  0  0
   -5.3207   -9.3763    4.1492 C   0  0  0  0  0  0  0  0  0  0  0  0
   -5.8942   -2.8300    1.4015 C   0  0  0  0  0  0  0  0  0  0  0  0
   -5.5289   -1.5053    1.1196 C   0  0  0  0  0  0  0  0  0  0  0  0
   -3.6513    2.3229   -0.1758 C   0  0  0  0  0  0  0  0  0  0  0  0
   -2.9656    2.6275   -1.5228 C   0  0  0  0  0  0  0  0  0  0  0  0
   -3.4872    1.7799   -4.7518 H   0  0  0  0  0  0  0  0  0  0  0  0
   -1.9239    1.9139   -3.9201 H   0  0  0  0  0  0  0  0  0  0  0  0
   -2.9725    3.3376   -4.1198 H   0  0  0  0  0  0  0  0  0  0  0  0
   -2.6476    0.1154   -2.3757 H   0  0  0  0  0  0  0  0  0  0  0  0
   -4.1831    0.0116   -3.2497 H   0  0  0  0  0  0  0  0  0  0  0  0
   -4.3157   -0.9079   -0.9806 H   0  0  0  0  0  0  0  0  0  0  0  0
   -5.4645    0.4330   -1.2206 H   0  0  0  0  0  0  0  0  0  0  0  0
   -2.8240   -1.2380    3.1574 H   0  0  0  0  0  0  0  0  0  0  0  0
   -3.5024   -3.4637    3.7375 H   0  0  0  0  0  0  0  0  0  0  0  0
   -6.3726   -5.2618    2.0707 H   0  0  0  0  0  0  0  0  0  0  0  0
   -6.0506   -7.3577    2.6897 H   0  0  0  0  0  0  0  0  0  0  0  0
   -4.1541   -6.6625    5.8166 H   0  0  0  0  0  0  0  0  0  0  0  0
   -3.1586   -8.3315    7.1815 H   0  0  0  0  0  0  0  0  0  0  0  0
   -3.4864   -9.7438    8.6667 H   0  0  0  0  0  0  0  0  0  0  0  0
   -2.1596  -10.8941    8.6345 H   0  0  0  0  0  0  0  0  0  0  0  0
   -3.8304  -11.4212    8.9719 H   0  0  0  0  0  0  0  0  0  0  0  0
   -2.4449  -11.8898    4.5510 H   0  0  0  0  0  0  0  0  0  0  0  0
   -1.9551  -14.2800    4.0703 H   0  0  0  0  0  0  0  0  0  0  0  0
   -2.9874  -16.4976    7.6634 H   0  0  0  0  0  0  0  0  0  0  0  0
   -5.4812  -14.2047    8.1943 H   0  0  0  0  0  0  0  0  0  0  0  0
   -6.9673  -14.0239   10.0982 H   0  0  0  0  0  0  0  0  0  0  0  0
   -6.6151  -14.0934   12.8628 H   0  0  0  0  0  0  0  0  0  0  0  0
   -6.2452  -15.7203   13.4519 H   0  0  0  0  0  0  0  0  0  0  0  0
   -7.7724  -17.8770   12.8098 H   0  0  0  0  0  0  0  0  0  0  0  0
   -7.9312  -17.4786   11.0611 H   0  0  0  0  0  0  0  0  0  0  0  0
   -9.3882  -17.6981   12.0709 H   0  0  0  0  0  0  0  0  0  0  0  0
   -4.4706  -16.7938   12.2877 H   0  0  0  0  0  0  0  0  0  0  0  0
   -2.9748  -16.9549   10.3542 H   0  0  0  0  0  0  0  0  0  0  0  0
   -5.0276  -11.3989    4.7918 H   0  0  0  0  0  0  0  0  0  0  0  0
   -5.9002   -9.6912    3.2865 H   0  0  0  0  0  0  0  0  0  0  0  0
   -6.7565   -3.2511    0.8920 H   0  0  0  0  0  0  0  0  0  0  0  0
   -6.1545   -0.9286    0.4470 H   0  0  0  0  0  0  0  0  0  0  0  0
   -3.0485    2.7429    0.6373 H   0  0  0  0  0  0  0  0  0  0  0  0
   -4.6320    2.8130   -0.1368 H   0  0  0  0  0  0  0  0  0  0  0  0
   -1.9177    2.3030   -1.4677 H   0  0  0  0  0  0  0  0  0  0  0  0
   -2.9651    3.7140   -1.6705 H   0  0  0  0  0  0  0  0  0  0  0  0
  1  2  1  0  0  0  0
  1 46  1  0  0  0  0
  1 47  1  0  0  0  0
  1 48  1  0  0  0  0
  2  3  1  0  0  0  0
  2 45  1  0  0  0  0
  3  4  1  0  0  0  0
  3 49  1  0  0  0  0
  3 50  1  0  0  0  0
  4  5  1  0  0  0  0
  4 51  1  0  0  0  0
  4 52  1  0  0  0  0
  5  6  1  0  0  0  0
  5 44  1  0  0  0  0
  6  7  2  0  0  0  0
  6  8  1  0  0  0  0
  8  9  1  0  0  0  0
  8 43  2  0  0  0  0
  9 10  2  0  0  0  0
  9 53  1  0  0  0  0
 10 11  1  0  0  0  0
 10 54  1  0  0  0  0
 11 12  1  0  0  0  0
 11 42  2  0  0  0  0
 12 13  1  0  0  0  0
 12 55  1  0  0  0  0
 13 14  2  0  0  0  0
 13 15  1  0  0  0  0
 15 16  1  0  0  0  0
 15 56  1  0  0  0  0
 16 17  1  0  0  0  0
 16 41  2  0  0  0  0
 17 18  2  0  0  0  0
 17 57  1  0  0  0  0
 18 19  1  0  0  0  0
 18 58  1  0  0  0  0
 19 20  1  0  0  0  0
 19 40  2  0  0  0  0
 20 21  1  0  0  0  0
 20 22  1  0  0  0  0
 21 59  1  0  0  0  0
 21 60  1  0  0  0  0
 21 61  1  0  0  0  0
 22 23  1  0  0  0  0
 22 39  2  0  0  0  0
 23 24  2  0  0  0  0
 23 62  1  0  0  0  0
 24 25  1  0  0  0  0
 24 63  1  0  0  0  0
 25 26  2  0  0  0  0
 26 27  1  0  0  0  0
 26 39  1  0  0  0  0
 27 28  1  0  0  0  0
 27 64  1  0  0  0  0
 28 29  1  0  0  0  0
 28 38  2  0  0  0  0
 29 30  2  0  0  0  0
 29 65  1  0  0  0  0
 30 31  1  0  0  0  0
 30 66  1  0  0  0  0
 31 32  1  0  0  0  0
 31 37  2  0  0  0  0
 32 33  1  0  0  0  0
 32 67  1  0  0  0  0
 32 68  1  0  0  0  0
 33 34  1  0  0  0  0
 33 35  2  0  0  0  0
 33 36  2  0  0  0  0
 34 69  1  0  0  0  0
 34 70  1  0  0  0  0
 34 71  1  0  0  0  0
 37 38  1  0  0  0  0
 37 72  1  0  0  0  0
 38 73  1  0  0  0  0
 40 41  1  0  0  0  0
 40 74  1  0  0  0  0
 41 75  1  0  0  0  0
 42 43  1  0  0  0  0
 42 76  1  0  0  0  0
 43 77  1  0  0  0  0
 44 45  1  0  0  0  0
 44 78  1  0  0  0  0
 44 79  1  0  0  0  0
 45 80  1  0  0  0  0
 45 81  1  0  0  0  0
M  END
$$$$
