CHEMBL3221258
 OpenBabel04072215363D

 52 53  0  0  0  0  0  0  0  0999 V2000
    2.9448    1.2318    1.0997 C   0  0  0  0  0  0  0  0  0  0  0  0
    2.5540   -0.2269    1.3071 C   0  0  0  0  0  0  0  0  0  0  0  0
    3.5601   -1.1866    0.6793 C   0  0  0  0  0  0  0  0  0  0  0  0
    4.8320   -0.9983    1.1847 O   0  0  0  0  0  0  0  0  0  0  0  0
    5.4650   -1.9293    1.9296 C   0  0  0  0  0  0  0  0  0  0  0  0
    4.8205   -2.6324    2.6980 O   0  0  0  0  0  0  0  0  0  0  0  0
    6.8177   -2.0366    1.8487 N   0  0  0  0  0  0  0  0  0  0  0  0
    7.5697   -3.0175    2.5523 C   0  0  0  0  0  0  0  0  0  0  0  0
    8.7620   -2.6200    3.1684 C   0  0  0  0  0  0  0  0  0  0  0  0
    9.4993   -3.5210    3.9351 C   0  0  0  0  0  0  0  0  0  0  0  0
    9.0679   -4.8473    4.0901 C   0  0  0  0  0  0  0  0  0  0  0  0
    9.8149   -5.7215    4.9396 N   0  0  0  0  0  0  0  0  0  0  0  0
    9.2958   -6.9221    5.5378 C   0  0  0  0  0  0  0  0  0  0  0  0
    7.9655   -7.1987    5.4372 N   0  0  0  0  0  0  0  0  0  0  0  0
    7.4014   -8.3025    5.9778 C   0  0  0  0  0  0  0  0  0  0  0  0
    8.1677   -9.1815    6.6589 N   0  0  0  0  0  0  0  0  0  0  0  0
    9.4971   -8.9631    6.8232 C   0  0  0  0  0  0  0  0  0  0  0  0
   10.2508   -9.8885    7.5337 C   0  0  0  0  0  0  0  0  0  0  0  0
   11.6384   -9.7073    7.7333 C   0  0  0  0  0  0  0  0  0  0  0  0
   12.3564  -10.6313    8.4369 O   0  0  0  0  0  0  0  0  0  0  0  0
   11.8255  -11.8053    8.9623 C   0  0  0  0  0  0  0  0  0  0  0  0
   12.2545   -8.5429    7.1937 C   0  0  0  0  0  0  0  0  0  0  0  0
   13.5693   -8.2046    7.3049 O   0  0  0  0  0  0  0  0  0  0  0  0
   14.6073   -8.8379    7.9408 C   0  0  0  0  0  0  0  0  0  0  0  0
   11.4819   -7.6286    6.4733 C   0  0  0  0  0  0  0  0  0  0  0  0
   10.1069   -7.8180    6.2708 C   0  0  0  0  0  0  0  0  0  0  0  0
    7.9207   -5.2661    3.3900 C   0  0  0  0  0  0  0  0  0  0  0  0
    7.1701   -4.3727    2.6364 C   0  0  0  0  0  0  0  0  0  0  0  0
    5.7882   -5.0500    1.7677 Cl  0  0  0  0  0  0  0  0  0  0  0  0
   -0.8182   -0.3194   -1.7770 Cl  0  0  0  0  0  0  0  0  0  0  0  0
    2.1618    1.8866    1.5357 H   0  0  0  0  0  0  0  0  0  0  0  0
    3.0380    1.4542    0.0157 H   0  0  0  0  0  0  0  0  0  0  0  0
    3.9103    1.4477    1.6045 H   0  0  0  0  0  0  0  0  0  0  0  0
    1.5658   -0.4089    0.8314 H   0  0  0  0  0  0  0  0  0  0  0  0
    2.4656   -0.4360    2.3950 H   0  0  0  0  0  0  0  0  0  0  0  0
    3.6090   -1.0241   -0.4180 H   0  0  0  0  0  0  0  0  0  0  0  0
    3.2075   -2.2278    0.8456 H   0  0  0  0  0  0  0  0  0  0  0  0
    7.3279   -1.3253    1.3045 H   0  0  0  0  0  0  0  0  0  0  0  0
    9.0947   -1.5930    3.0896 H   0  0  0  0  0  0  0  0  0  0  0  0
   10.3936   -3.1719    4.4359 H   0  0  0  0  0  0  0  0  0  0  0  0
   10.7455   -5.3866    5.2161 H   0  0  0  0  0  0  0  0  0  0  0  0
    6.3429   -8.4740    5.8613 H   0  0  0  0  0  0  0  0  0  0  0  0
    9.7299  -10.7535    7.9240 H   0  0  0  0  0  0  0  0  0  0  0  0
   12.6090  -12.3942    9.4660 H   0  0  0  0  0  0  0  0  0  0  0  0
   11.3834  -12.4316    8.1483 H   0  0  0  0  0  0  0  0  0  0  0  0
   11.0248  -11.5700    9.7020 H   0  0  0  0  0  0  0  0  0  0  0  0
   15.5130   -8.2058    7.8019 H   0  0  0  0  0  0  0  0  0  0  0  0
   14.8010   -9.8256    7.4793 H   0  0  0  0  0  0  0  0  0  0  0  0
   14.4111   -8.9186    9.0288 H   0  0  0  0  0  0  0  0  0  0  0  0
   12.0047   -6.7719    6.0804 H   0  0  0  0  0  0  0  0  0  0  0  0
    7.5819   -6.2865    3.3918 H   0  0  0  0  0  0  0  0  0  0  0  0
    0.5301   -0.5257   -1.9544 H   0  0  0  0  0  0  0  0  0  0  0  0
  1  2  1  0  0  0  0
  1 31  1  0  0  0  0
  1 32  1  0  0  0  0
  1 33  1  0  0  0  0
  2  3  1  0  0  0  0
  2 34  1  0  0  0  0
  2 35  1  0  0  0  0
  3  4  1  0  0  0  0
  3 36  1  0  0  0  0
  3 37  1  0  0  0  0
  4  5  1  0  0  0  0
  5  6  2  0  0  0  0
  5  7  1  0  0  0  0
  7  8  1  0  0  0  0
  7 38  1  0  0  0  0
  8  9  1  0  0  0  0
  8 28  2  0  0  0  0
  9 10  2  0  0  0  0
  9 39  1  0  0  0  0
 10 11  1  0  0  0  0
 10 40  1  0  0  0  0
 11 12  1  0  0  0  0
 11 27  2  0  0  0  0
 12 13  1  0  0  0  0
 12 41  1  0  0  0  0
 13 14  1  0  0  0  0
 13 26  2  0  0  0  0
 14 15  2  0  0  0  0
 15 16  1  0  0  0  0
 15 42  1  0  0  0  0
 16 17  2  0  0  0  0
 17 18  1  0  0  0  0
 17 26  1  0  0  0  0
 18 19  2  0  0  0  0
 18 43  1  0  0  0  0
 19 20  1  0  0  0  0
 19 22  1  0  0  0  0
 20 21  1  0  0  0  0
 21 44  1  0  0  0  0
 21 45  1  0  0  0  0
 21 46  1  0  0  0  0
 22 23  1  0  0  0  0
 22 25  2  0  0  0  0
 23 24  1  0  0  0  0
 24 47  1  0  0  0  0
 24 48  1  0  0  0  0
 24 49  1  0  0  0  0
 25 26  1  0  0  0  0
 25 50  1  0  0  0  0
 27 28  1  0  0  0  0
 27 51  1  0  0  0  0
 28 29  1  0  0  0  0
 30 52  1  0  0  0  0
M  END
$$$$
