CHEMBL3912505
 OpenBabel04072215373D

 77 82  0  0  0  0  0  0  0  0999 V2000
    2.4390    1.8377    1.7710 C   0  0  0  0  0  0  0  0  0  0  0  0
    3.5164    1.3926    0.9555 O   0  0  0  0  0  0  0  0  0  0  0  0
    3.5321    1.8394   -0.3377 C   0  0  0  0  0  0  0  0  0  0  0  0
    2.4725    2.4522   -0.9979 C   0  0  0  0  0  0  0  0  0  0  0  0
    2.6163    2.8452   -2.3363 C   0  0  0  0  0  0  0  0  0  0  0  0
    1.4568    3.5639   -2.9378 C   0  0  0  0  0  0  0  0  0  0  0  0
    0.3185    3.2388   -2.6065 O   0  0  0  0  0  0  0  0  0  0  0  0
    1.6894    4.6797   -3.7459 N   0  0  0  0  0  0  0  0  0  0  0  0
    2.9464    5.2141   -4.2389 C   0  0  0  0  0  0  0  0  0  0  0  0
    2.7178    6.7086   -4.3137 C   0  0  0  0  0  0  0  0  0  0  0  0
    1.2502    6.8172   -4.6990 C   0  0  0  0  0  0  0  0  0  0  0  0
    0.5957    5.5976   -4.0548 C   0  0  0  0  0  0  0  0  0  0  0  0
    3.8155    2.5622   -3.0155 C   0  0  0  0  0  0  0  0  0  0  0  0
    4.9199    1.9884   -2.3564 C   0  0  0  0  0  0  0  0  0  0  0  0
    6.0922    1.7115   -3.0710 N   0  0  0  0  0  0  0  0  0  0  0  0
    6.6980    0.3312   -3.0157 C   0  0  0  0  0  0  0  0  0  0  0  0
    6.0054   -0.8963   -2.4164 C   0  0  0  0  0  0  0  0  0  0  0  0
    4.9162   -1.6320   -3.2199 C   0  0  0  0  0  0  0  0  0  0  0  0
    4.4093   -2.7862   -2.4376 N   0  0  0  0  0  0  0  0  0  0  0  0
    5.3921   -3.8467   -2.1685 C   0  0  0  0  0  0  0  0  0  0  0  0
    5.2010   -4.8570   -3.2777 C   0  0  0  0  0  0  0  0  0  0  0  0
    3.6971   -4.8777   -3.4327 C   0  0  0  0  0  0  0  0  0  0  0  0
    3.2543   -3.4622   -3.0587 C   0  0  0  0  0  0  0  0  0  0  0  0
    7.1168    2.6343   -3.5705 C   0  0  0  0  0  0  0  0  0  0  0  0
    7.6486    2.2727   -4.7982 C   0  0  0  0  0  0  0  0  0  0  0  0
    8.9643    2.5977   -5.0981 C   0  0  0  0  0  0  0  0  0  0  0  0
    9.6992    3.4274   -4.2945 C   0  0  0  0  0  0  0  0  0  0  0  0
   10.9965    3.4633   -4.6404 N   0  0  0  0  0  0  0  0  0  0  0  0
   11.7345    4.4076   -4.0574 C   0  0  0  0  0  0  0  0  0  0  0  0
   11.1828    5.3623   -3.2298 C   0  0  0  0  0  0  0  0  0  0  0  0
   12.0088    6.5620   -3.0595 C   0  0  0  0  0  0  0  0  0  0  0  0
   11.9581    7.7955   -3.7682 C   0  0  0  0  0  0  0  0  0  0  0  0
   13.0547    8.5482   -3.6008 N   0  0  0  0  0  0  0  0  0  0  0  0
   13.8327    7.7974   -2.8042 N   0  0  0  0  0  0  0  0  0  0  0  0
   15.0534    8.3354   -2.2472 C   0  0  0  0  0  0  0  0  0  0  0  0
   13.3104    6.5526   -2.5720 C   0  0  0  0  0  0  0  0  0  0  0  0
    9.8845    5.2431   -2.7694 N   0  0  0  0  0  0  0  0  0  0  0  0
    9.1070    4.1795   -3.2666 C   0  0  0  0  0  0  0  0  0  0  0  0
    7.7858    3.6752   -2.8616 C   0  0  0  0  0  0  0  0  0  0  0  0
    4.7421    1.6336   -1.0136 C   0  0  0  0  0  0  0  0  0  0  0  0
    2.6413    1.5114    2.7957 H   0  0  0  0  0  0  0  0  0  0  0  0
    1.4906    1.3887    1.4584 H   0  0  0  0  0  0  0  0  0  0  0  0
    2.3770    2.9310    1.7768 H   0  0  0  0  0  0  0  0  0  0  0  0
    1.5279    2.6445   -0.4984 H   0  0  0  0  0  0  0  0  0  0  0  0
    3.1058    4.7892   -5.2372 H   0  0  0  0  0  0  0  0  0  0  0  0
    3.7981    4.9846   -3.5972 H   0  0  0  0  0  0  0  0  0  0  0  0
    3.3881    7.1969   -5.0250 H   0  0  0  0  0  0  0  0  0  0  0  0
    2.8809    7.1524   -3.3246 H   0  0  0  0  0  0  0  0  0  0  0  0
    1.1430    6.7748   -5.7883 H   0  0  0  0  0  0  0  0  0  0  0  0
    0.8069    7.7560   -4.3530 H   0  0  0  0  0  0  0  0  0  0  0  0
   -0.1149    5.1120   -4.7308 H   0  0  0  0  0  0  0  0  0  0  0  0
    0.0764    5.8616   -3.1276 H   0  0  0  0  0  0  0  0  0  0  0  0
    3.8932    2.7636   -4.0798 H   0  0  0  0  0  0  0  0  0  0  0  0
    7.6352    0.4338   -2.4488 H   0  0  0  0  0  0  0  0  0  0  0  0
    6.9814    0.0235   -4.0300 H   0  0  0  0  0  0  0  0  0  0  0  0
    5.6644   -0.7283   -1.3957 H   0  0  0  0  0  0  0  0  0  0  0  0
    6.8385   -1.6034   -2.3186 H   0  0  0  0  0  0  0  0  0  0  0  0
    5.3001   -1.9618   -4.1942 H   0  0  0  0  0  0  0  0  0  0  0  0
    4.0895   -0.9375   -3.4113 H   0  0  0  0  0  0  0  0  0  0  0  0
    5.1391   -4.3051   -1.2035 H   0  0  0  0  0  0  0  0  0  0  0  0
    6.4333   -3.5306   -2.0917 H   0  0  0  0  0  0  0  0  0  0  0  0
    5.6097   -5.8394   -3.0224 H   0  0  0  0  0  0  0  0  0  0  0  0
    5.6772   -4.5139   -4.2034 H   0  0  0  0  0  0  0  0  0  0  0  0
    3.2665   -5.6056   -2.7329 H   0  0  0  0  0  0  0  0  0  0  0  0
    3.3961   -5.1635   -4.4447 H   0  0  0  0  0  0  0  0  0  0  0  0
    2.4410   -3.5249   -2.3252 H   0  0  0  0  0  0  0  0  0  0  0  0
    2.8597   -2.9329   -3.9323 H   0  0  0  0  0  0  0  0  0  0  0  0
    7.1247    1.6051   -5.4664 H   0  0  0  0  0  0  0  0  0  0  0  0
    9.4345    2.1453   -5.9588 H   0  0  0  0  0  0  0  0  0  0  0  0
   12.7763    4.4210   -4.3602 H   0  0  0  0  0  0  0  0  0  0  0  0
   11.1948    8.1577   -4.4461 H   0  0  0  0  0  0  0  0  0  0  0  0
   15.2150    9.3555   -2.6073 H   0  0  0  0  0  0  0  0  0  0  0  0
   15.8963    7.7001   -2.5318 H   0  0  0  0  0  0  0  0  0  0  0  0
   14.9375    8.3459   -1.1600 H   0  0  0  0  0  0  0  0  0  0  0  0
   13.9038    5.7850   -2.0965 H   0  0  0  0  0  0  0  0  0  0  0  0
    7.3504    4.0724   -1.9490 H   0  0  0  0  0  0  0  0  0  0  0  0
    5.5575    1.1740   -0.4630 H   0  0  0  0  0  0  0  0  0  0  0  0
  1  2  1  0  0  0  0
  1 41  1  0  0  0  0
  1 42  1  0  0  0  0
  1 43  1  0  0  0  0
  2  3  1  0  0  0  0
  3  4  1  0  0  0  0
  3 40  2  0  0  0  0
  4  5  2  0  0  0  0
  4 44  1  0  0  0  0
  5  6  1  0  0  0  0
  5 13  1  0  0  0  0
  6  7  2  0  0  0  0
  6  8  1  0  0  0  0
  8  9  1  0  0  0  0
  8 12  1  0  0  0  0
  9 10  1  0  0  0  0
  9 45  1  0  0  0  0
  9 46  1  0  0  0  0
 10 11  1  0  0  0  0
 10 47  1  0  0  0  0
 10 48  1  0  0  0  0
 11 12  1  0  0  0  0
 11 49  1  0  0  0  0
 11 50  1  0  0  0  0
 12 51  1  0  0  0  0
 12 52  1  0  0  0  0
 13 14  2  0  0  0  0
 13 53  1  0  0  0  0
 14 15  1  0  0  0  0
 14 40  1  0  0  0  0
 15 16  1  0  0  0  0
 15 24  1  0  0  0  0
 16 17  1  0  0  0  0
 16 54  1  0  0  0  0
 16 55  1  0  0  0  0
 17 18  1  0  0  0  0
 17 56  1  0  0  0  0
 17 57  1  0  0  0  0
 18 19  1  0  0  0  0
 18 58  1  0  0  0  0
 18 59  1  0  0  0  0
 19 20  1  0  0  0  0
 19 23  1  0  0  0  0
 20 21  1  0  0  0  0
 20 60  1  0  0  0  0
 20 61  1  0  0  0  0
 21 22  1  0  0  0  0
 21 62  1  0  0  0  0
 21 63  1  0  0  0  0
 22 23  1  0  0  0  0
 22 64  1  0  0  0  0
 22 65  1  0  0  0  0
 23 66  1  0  0  0  0
 23 67  1  0  0  0  0
 24 25  1  0  0  0  0
 24 39  2  0  0  0  0
 25 26  2  0  0  0  0
 25 68  1  0  0  0  0
 26 27  1  0  0  0  0
 26 69  1  0  0  0  0
 27 28  1  0  0  0  0
 27 38  2  0  0  0  0
 28 29  2  0  0  0  0
 29 30  1  0  0  0  0
 29 70  1  0  0  0  0
 30 31  1  0  0  0  0
 30 37  2  0  0  0  0
 31 32  1  0  0  0  0
 31 36  2  0  0  0  0
 32 33  2  0  0  0  0
 32 71  1  0  0  0  0
 33 34  1  0  0  0  0
 34 35  1  0  0  0  0
 34 36  1  0  0  0  0
 35 72  1  0  0  0  0
 35 73  1  0  0  0  0
 35 74  1  0  0  0  0
 36 75  1  0  0  0  0
 37 38  1  0  0  0  0
 38 39  1  0  0  0  0
 39 76  1  0  0  0  0
 40 77  1  0  0  0  0
M  END
$$$$
