CHEMBL394204
 OpenBabel04072215373D

 46 48  0  0  0  0  0  0  0  0999 V2000
    2.3482    1.1440    2.0428 C   0  0  0  0  0  0  0  0  0  0  0  0
    0.8610    1.1110    1.8336 C   0  0  0  0  0  0  0  0  0  0  0  0
    0.3299    1.8250    0.7486 C   0  0  0  0  0  0  0  0  0  0  0  0
   -1.0382    1.8141    0.4720 C   0  0  0  0  0  0  0  0  0  0  0  0
   -1.9186    1.1005    1.2741 C   0  0  0  0  0  0  0  0  0  0  0  0
   -3.3151    1.0418    1.0470 N   0  0  0  0  0  0  0  0  0  0  0  0
   -3.9834    1.4423   -0.1038 C   0  0  0  0  0  0  0  0  0  0  0  0
   -3.3934    1.8590   -1.1009 O   0  0  0  0  0  0  0  0  0  0  0  0
   -5.4342    1.3466   -0.0958 C   0  0  0  0  0  0  0  0  0  0  0  0
   -6.2934    2.0182   -0.9607 C   0  0  0  0  0  0  0  0  0  0  0  0
   -5.9431    2.9495   -1.8621 N   0  0  0  0  0  0  0  0  0  0  0  0
   -6.7024    3.1400   -3.0823 C   0  0  0  0  0  0  0  0  0  0  0  0
   -5.8176    3.5480   -4.2488 C   0  0  0  0  0  0  0  0  0  0  0  0
   -4.5082    3.0740   -4.4026 C   0  0  0  0  0  0  0  0  0  0  0  0
   -3.7783    3.4580   -5.5183 C   0  0  0  0  0  0  0  0  0  0  0  0
   -4.2615    4.2499   -6.4963 N   0  0  0  0  0  0  0  0  0  0  0  0
   -5.5342    4.6748   -6.3523 C   0  0  0  0  0  0  0  0  0  0  0  0
   -6.3368    4.3526   -5.2696 C   0  0  0  0  0  0  0  0  0  0  0  0
   -7.5926    1.6574   -0.7949 N   0  0  0  0  0  0  0  0  0  0  0  0
   -7.5765    0.7998    0.1935 C   0  0  0  0  0  0  0  0  0  0  0  0
   -6.3034    0.5639    0.6434 N   0  0  0  0  0  0  0  0  0  0  0  0
   -6.0126   -0.4193    1.6584 C   0  0  0  0  0  0  0  0  0  0  0  0
   -1.4053    0.4110    2.3823 C   0  0  0  0  0  0  0  0  0  0  0  0
   -0.0179    0.3949    2.6725 C   0  0  0  0  0  0  0  0  0  0  0  0
    0.4309   -0.4162    3.8691 C   0  0  0  0  0  0  0  0  0  0  0  0
    1.7696   -0.4175    4.1112 F   0  0  0  0  0  0  0  0  0  0  0  0
   -0.1498    0.0158    5.0256 F   0  0  0  0  0  0  0  0  0  0  0  0
    0.0783   -1.7306    3.7573 F   0  0  0  0  0  0  0  0  0  0  0  0
    2.8467    1.7586    1.2858 H   0  0  0  0  0  0  0  0  0  0  0  0
    2.7638    0.1348    1.9631 H   0  0  0  0  0  0  0  0  0  0  0  0
    2.5883    1.5742    3.0198 H   0  0  0  0  0  0  0  0  0  0  0  0
    0.9812    2.4021    0.0942 H   0  0  0  0  0  0  0  0  0  0  0  0
   -1.3778    2.4058   -0.3728 H   0  0  0  0  0  0  0  0  0  0  0  0
   -3.8539    0.6657    1.8031 H   0  0  0  0  0  0  0  0  0  0  0  0
   -4.9965    3.3184   -1.8677 H   0  0  0  0  0  0  0  0  0  0  0  0
   -7.4488    3.9225   -2.9025 H   0  0  0  0  0  0  0  0  0  0  0  0
   -7.2336    2.2270   -3.3812 H   0  0  0  0  0  0  0  0  0  0  0  0
   -4.0522    2.4132   -3.6711 H   0  0  0  0  0  0  0  0  0  0  0  0
   -2.7554    3.1202   -5.6559 H   0  0  0  0  0  0  0  0  0  0  0  0
   -5.9075    5.2946   -7.1626 H   0  0  0  0  0  0  0  0  0  0  0  0
   -7.3579    4.7261   -5.2276 H   0  0  0  0  0  0  0  0  0  0  0  0
   -8.4494    0.3156    0.6125 H   0  0  0  0  0  0  0  0  0  0  0  0
   -6.9336   -0.9308    1.9523 H   0  0  0  0  0  0  0  0  0  0  0  0
   -5.6079    0.0907    2.5365 H   0  0  0  0  0  0  0  0  0  0  0  0
   -5.3065   -1.1469    1.2532 H   0  0  0  0  0  0  0  0  0  0  0  0
   -2.0737   -0.1524    3.0321 H   0  0  0  0  0  0  0  0  0  0  0  0
  1  2  1  0  0  0  0
  1 29  1  0  0  0  0
  1 30  1  0  0  0  0
  1 31  1  0  0  0  0
  2  3  1  0  0  0  0
  2 24  2  0  0  0  0
  3  4  2  0  0  0  0
  3 32  1  0  0  0  0
  4  5  1  0  0  0  0
  4 33  1  0  0  0  0
  5  6  1  0  0  0  0
  5 23  2  0  0  0  0
  6  7  1  0  0  0  0
  6 34  1  0  0  0  0
  7  8  2  0  0  0  0
  7  9  1  0  0  0  0
  9 10  2  0  0  0  0
  9 21  1  0  0  0  0
 10 11  1  0  0  0  0
 10 19  1  0  0  0  0
 11 12  1  0  0  0  0
 11 35  1  0  0  0  0
 12 13  1  0  0  0  0
 12 36  1  0  0  0  0
 12 37  1  0  0  0  0
 13 14  1  0  0  0  0
 13 18  2  0  0  0  0
 14 15  2  0  0  0  0
 14 38  1  0  0  0  0
 15 16  1  0  0  0  0
 15 39  1  0  0  0  0
 16 17  2  0  0  0  0
 17 18  1  0  0  0  0
 17 40  1  0  0  0  0
 18 41  1  0  0  0  0
 19 20  2  0  0  0  0
 20 21  1  0  0  0  0
 20 42  1  0  0  0  0
 21 22  1  0  0  0  0
 22 43  1  0  0  0  0
 22 44  1  0  0  0  0
 22 45  1  0  0  0  0
 23 24  1  0  0  0  0
 23 46  1  0  0  0  0
 24 25  1  0  0  0  0
 25 26  1  0  0  0  0
 25 27  1  0  0  0  0
 25 28  1  0  0  0  0
M  END
$$$$
