CHEMBL3949835
 OpenBabel04072215373D

 54 58  0  0  0  0  0  0  0  0999 V2000
    2.2913   -1.5566    0.2427 O   0  0  0  0  0  0  0  0  0  0  0  0
    3.3697   -1.0093    0.4322 C   0  0  0  0  0  0  0  0  0  0  0  0
    3.7062   -0.1950    1.5046 N   0  0  0  0  0  0  0  0  0  0  0  0
    2.8606    0.0798    2.6048 C   0  0  0  0  0  0  0  0  0  0  0  0
    1.7192   -0.6818    2.8795 C   0  0  0  0  0  0  0  0  0  0  0  0
    0.8430   -0.3218    3.9131 C   0  0  0  0  0  0  0  0  0  0  0  0
    1.1194    0.7740    4.6912 C   0  0  0  0  0  0  0  0  0  0  0  0
    2.3182    1.4787    4.5099 C   0  0  0  0  0  0  0  0  0  0  0  0
    2.6926    2.6044    5.4102 C   0  0  0  0  0  0  0  0  0  0  0  0
    3.3822    3.5118    4.9502 O   0  0  0  0  0  0  0  0  0  0  0  0
    2.2768    2.6540    6.8484 C   0  0  0  0  0  0  0  0  0  0  0  0
    1.9291    1.5119    7.5963 C   0  0  0  0  0  0  0  0  0  0  0  0
    1.4882    1.6063    8.9363 C   0  0  0  0  0  0  0  0  0  0  0  0
    1.5848    2.8582    9.5704 C   0  0  0  0  0  0  0  0  0  0  0  0
    1.3688    3.4677   10.8598 C   0  0  0  0  0  0  0  0  0  0  0  0
    0.1945    4.2342   11.2859 C   0  0  0  0  0  0  0  0  0  0  0  0
   -0.7804    4.6215   10.4425 C   0  0  0  0  0  0  0  0  0  0  0  0
   -1.2869    6.0154   10.3903 C   0  0  0  0  0  0  0  0  0  0  0  0
   -0.4139    7.1115   10.5392 C   0  0  0  0  0  0  0  0  0  0  0  0
   -0.8143    8.4083   10.1956 C   0  0  0  0  0  0  0  0  0  0  0  0
   -2.0963    8.6302    9.7013 C   0  0  0  0  0  0  0  0  0  0  0  0
   -2.9797    7.5594    9.5694 C   0  0  0  0  0  0  0  0  0  0  0  0
   -2.5765    6.2615    9.9083 C   0  0  0  0  0  0  0  0  0  0  0  0
    2.5114    4.1581   11.0943 N   0  0  0  0  0  0  0  0  0  0  0  0
    2.7511    4.6590    9.8573 N   0  0  0  0  0  0  0  0  0  0  0  0
    2.2305    3.8726    8.8697 C   0  0  0  0  0  0  0  0  0  0  0  0
    2.3989    3.8908    7.4888 C   0  0  0  0  0  0  0  0  0  0  0  0
    3.1751    1.1528    3.4485 C   0  0  0  0  0  0  0  0  0  0  0  0
    4.4009   -1.1850   -0.6146 C   0  0  0  0  0  0  0  0  0  0  0  0
    3.9625   -1.3152   -1.9332 C   0  0  0  0  0  0  0  0  0  0  0  0
    4.9056   -1.5560   -2.9104 C   0  0  0  0  0  0  0  0  0  0  0  0
    6.2246   -1.6763   -2.6541 N   0  0  0  0  0  0  0  0  0  0  0  0
    6.6177   -1.5601   -1.3658 C   0  0  0  0  0  0  0  0  0  0  0  0
    5.7542   -1.3110   -0.3131 C   0  0  0  0  0  0  0  0  0  0  0  0
    4.5426    0.3708    1.4267 H   0  0  0  0  0  0  0  0  0  0  0  0
    1.4675   -1.5613    2.3033 H   0  0  0  0  0  0  0  0  0  0  0  0
   -0.0487   -0.9087    4.0790 H   0  0  0  0  0  0  0  0  0  0  0  0
    0.3986    1.0712    5.4575 H   0  0  0  0  0  0  0  0  0  0  0  0
    2.0287    0.5178    7.1646 H   0  0  0  0  0  0  0  0  0  0  0  0
    1.2185    0.7103    9.4894 H   0  0  0  0  0  0  0  0  0  0  0  0
    0.3956    4.8507   12.1641 H   0  0  0  0  0  0  0  0  0  0  0  0
   -0.9871    4.0568    9.5379 H   0  0  0  0  0  0  0  0  0  0  0  0
    0.6145    6.9656   10.8635 H   0  0  0  0  0  0  0  0  0  0  0  0
   -0.1140    9.2364   10.2764 H   0  0  0  0  0  0  0  0  0  0  0  0
   -2.3994    9.6303    9.4006 H   0  0  0  0  0  0  0  0  0  0  0  0
   -3.9751    7.7296    9.1677 H   0  0  0  0  0  0  0  0  0  0  0  0
   -3.2669    5.4379    9.7482 H   0  0  0  0  0  0  0  0  0  0  0  0
    3.4002    5.4229    9.7678 H   0  0  0  0  0  0  0  0  0  0  0  0
    2.7623    4.7715    6.9678 H   0  0  0  0  0  0  0  0  0  0  0  0
    4.0654    1.7482    3.2779 H   0  0  0  0  0  0  0  0  0  0  0  0
    2.9085   -1.2463   -2.1863 H   0  0  0  0  0  0  0  0  0  0  0  0
    4.6153   -1.6733   -3.9509 H   0  0  0  0  0  0  0  0  0  0  0  0
    7.6832   -1.6953   -1.1998 H   0  0  0  0  0  0  0  0  0  0  0  0
    6.1307   -1.2691    0.7014 H   0  0  0  0  0  0  0  0  0  0  0  0
  1  2  2  0  0  0  0
  2  3  1  0  0  0  0
  2 29  1  0  0  0  0
  3  4  1  0  0  0  0
  3 35  1  0  0  0  0
  4  5  1  0  0  0  0
  4 28  2  0  0  0  0
  5  6  2  0  0  0  0
  5 36  1  0  0  0  0
  6  7  1  0  0  0  0
  6 37  1  0  0  0  0
  7  8  2  0  0  0  0
  7 38  1  0  0  0  0
  8  9  1  0  0  0  0
  8 28  1  0  0  0  0
  9 10  2  0  0  0  0
  9 11  1  0  0  0  0
 11 12  1  0  0  0  0
 11 27  2  0  0  0  0
 12 13  2  0  0  0  0
 12 39  1  0  0  0  0
 13 14  1  0  0  0  0
 13 40  1  0  0  0  0
 14 15  1  0  0  0  0
 14 26  2  0  0  0  0
 15 16  1  0  0  0  0
 15 24  2  0  0  0  0
 16 17  2  0  0  0  0
 16 41  1  0  0  0  0
 17 18  1  0  0  0  0
 17 42  1  0  0  0  0
 18 19  1  0  0  0  0
 18 23  2  0  0  0  0
 19 20  2  0  0  0  0
 19 43  1  0  0  0  0
 20 21  1  0  0  0  0
 20 44  1  0  0  0  0
 21 22  2  0  0  0  0
 21 45  1  0  0  0  0
 22 23  1  0  0  0  0
 22 46  1  0  0  0  0
 23 47  1  0  0  0  0
 24 25  1  0  0  0  0
 25 26  1  0  0  0  0
 25 48  1  0  0  0  0
 26 27  1  0  0  0  0
 27 49  1  0  0  0  0
 28 50  1  0  0  0  0
 29 30  1  0  0  0  0
 29 34  2  0  0  0  0
 30 31  2  0  0  0  0
 30 51  1  0  0  0  0
 31 32  1  0  0  0  0
 31 52  1  0  0  0  0
 32 33  2  0  0  0  0
 33 34  1  0  0  0  0
 33 53  1  0  0  0  0
 34 54  1  0  0  0  0
M  END
$$$$
