CHEMBL3966748
 OpenBabel04072215373D

 54 57  0  0  0  0  0  0  0  0999 V2000
    0.8964   -3.4565    2.6280 C   0  0  0  0  0  0  0  0  0  0  0  0
    2.2837   -3.3970    2.9670 O   0  0  0  0  0  0  0  0  0  0  0  0
    3.1083   -2.6899    2.1231 C   0  0  0  0  0  0  0  0  0  0  0  0
    2.6885   -2.1017    0.9293 C   0  0  0  0  0  0  0  0  0  0  0  0
    3.5805   -1.3339    0.1861 C   0  0  0  0  0  0  0  0  0  0  0  0
    3.2844   -0.6704   -0.9762 O   0  0  0  0  0  0  0  0  0  0  0  0
    1.9888   -0.8769   -1.5289 C   0  0  0  0  0  0  0  0  0  0  0  0
    4.8978   -1.1638    0.6399 C   0  0  0  0  0  0  0  0  0  0  0  0
    5.3732   -1.7506    1.8259 C   0  0  0  0  0  0  0  0  0  0  0  0
    6.6448   -1.4321    2.3716 N   0  0  0  0  0  0  0  0  0  0  0  0
    7.1354   -0.0104    2.1514 C   0  0  0  0  0  0  0  0  0  0  0  0
    6.2194    1.1666    2.5530 C   0  0  0  0  0  0  0  0  0  0  0  0
    5.9804    1.4677    4.0381 C   0  0  0  0  0  0  0  0  0  0  0  0
    7.1900    1.8045    4.7854 N   0  0  0  0  0  0  0  0  0  0  0  0
    7.7848   -2.2826    2.6644 C   0  0  0  0  0  0  0  0  0  0  0  0
    8.4752   -1.9033    3.8084 C   0  0  0  0  0  0  0  0  0  0  0  0
    9.8193   -2.1911    3.9283 C   0  0  0  0  0  0  0  0  0  0  0  0
   10.4728   -3.0175    3.0540 C   0  0  0  0  0  0  0  0  0  0  0  0
   11.7862   -3.0247    3.2748 N   0  0  0  0  0  0  0  0  0  0  0  0
   12.5090   -3.9194    2.5996 C   0  0  0  0  0  0  0  0  0  0  0  0
   11.9347   -4.8444    1.7541 C   0  0  0  0  0  0  0  0  0  0  0  0
   12.8510   -5.9438    1.3840 C   0  0  0  0  0  0  0  0  0  0  0  0
   13.0736   -7.1891    2.0445 C   0  0  0  0  0  0  0  0  0  0  0  0
   14.2515   -7.7528    1.7375 N   0  0  0  0  0  0  0  0  0  0  0  0
   14.8372   -6.8500    0.9394 N   0  0  0  0  0  0  0  0  0  0  0  0
   14.0759   -5.7248    0.7633 C   0  0  0  0  0  0  0  0  0  0  0  0
   10.5949   -4.7624    1.4259 N   0  0  0  0  0  0  0  0  0  0  0  0
    9.7988   -3.7603    2.0620 C   0  0  0  0  0  0  0  0  0  0  0  0
    8.4096   -3.2954    1.8526 C   0  0  0  0  0  0  0  0  0  0  0  0
    4.4469   -2.5301    2.5503 C   0  0  0  0  0  0  0  0  0  0  0  0
    0.3624   -3.9413    3.4515 H   0  0  0  0  0  0  0  0  0  0  0  0
    0.7394   -4.0626    1.7288 H   0  0  0  0  0  0  0  0  0  0  0  0
    0.4603   -2.4578    2.5054 H   0  0  0  0  0  0  0  0  0  0  0  0
    1.6697   -2.2265    0.5867 H   0  0  0  0  0  0  0  0  0  0  0  0
    1.9318   -0.3187   -2.4682 H   0  0  0  0  0  0  0  0  0  0  0  0
    1.2078   -0.4895   -0.8656 H   0  0  0  0  0  0  0  0  0  0  0  0
    1.8223   -1.9346   -1.7593 H   0  0  0  0  0  0  0  0  0  0  0  0
    5.5469   -0.5269    0.0460 H   0  0  0  0  0  0  0  0  0  0  0  0
    7.3871    0.0944    1.0889 H   0  0  0  0  0  0  0  0  0  0  0  0
    8.0862    0.1742    2.6653 H   0  0  0  0  0  0  0  0  0  0  0  0
    5.2443    1.0973    2.0631 H   0  0  0  0  0  0  0  0  0  0  0  0
    6.6879    2.0688    2.1297 H   0  0  0  0  0  0  0  0  0  0  0  0
    5.4437    0.6529    4.5313 H   0  0  0  0  0  0  0  0  0  0  0  0
    5.3302    2.3525    4.0912 H   0  0  0  0  0  0  0  0  0  0  0  0
    7.7453    0.9687    4.9401 H   0  0  0  0  0  0  0  0  0  0  0  0
    6.9229    2.1323    5.7177 H   0  0  0  0  0  0  0  0  0  0  0  0
    8.0250   -1.2281    4.5228 H   0  0  0  0  0  0  0  0  0  0  0  0
   10.3877   -1.7169    4.7191 H   0  0  0  0  0  0  0  0  0  0  0  0
   13.5728   -3.8971    2.8096 H   0  0  0  0  0  0  0  0  0  0  0  0
   12.4686   -7.6781    2.7966 H   0  0  0  0  0  0  0  0  0  0  0  0
   15.7877   -7.0277    0.6242 H   0  0  0  0  0  0  0  0  0  0  0  0
   14.5050   -4.8549    0.2860 H   0  0  0  0  0  0  0  0  0  0  0  0
    7.8660   -3.6987    0.9966 H   0  0  0  0  0  0  0  0  0  0  0  0
    4.7402   -2.9603    3.5055 H   0  0  0  0  0  0  0  0  0  0  0  0
  1  2  1  0  0  0  0
  1 31  1  0  0  0  0
  1 32  1  0  0  0  0
  1 33  1  0  0  0  0
  2  3  1  0  0  0  0
  3  4  1  0  0  0  0
  3 30  2  0  0  0  0
  4  5  2  0  0  0  0
  4 34  1  0  0  0  0
  5  6  1  0  0  0  0
  5  8  1  0  0  0  0
  6  7  1  0  0  0  0
  7 35  1  0  0  0  0
  7 36  1  0  0  0  0
  7 37  1  0  0  0  0
  8  9  2  0  0  0  0
  8 38  1  0  0  0  0
  9 10  1  0  0  0  0
  9 30  1  0  0  0  0
 10 11  1  0  0  0  0
 10 15  1  0  0  0  0
 11 12  1  0  0  0  0
 11 39  1  0  0  0  0
 11 40  1  0  0  0  0
 12 13  1  0  0  0  0
 12 41  1  0  0  0  0
 12 42  1  0  0  0  0
 13 14  1  0  0  0  0
 13 43  1  0  0  0  0
 13 44  1  0  0  0  0
 14 45  1  0  0  0  0
 14 46  1  0  0  0  0
 15 16  1  0  0  0  0
 15 29  2  0  0  0  0
 16 17  2  0  0  0  0
 16 47  1  0  0  0  0
 17 18  1  0  0  0  0
 17 48  1  0  0  0  0
 18 19  1  0  0  0  0
 18 28  2  0  0  0  0
 19 20  2  0  0  0  0
 20 21  1  0  0  0  0
 20 49  1  0  0  0  0
 21 22  1  0  0  0  0
 21 27  2  0  0  0  0
 22 23  1  0  0  0  0
 22 26  2  0  0  0  0
 23 24  2  0  0  0  0
 23 50  1  0  0  0  0
 24 25  1  0  0  0  0
 25 26  1  0  0  0  0
 25 51  1  0  0  0  0
 26 52  1  0  0  0  0
 27 28  1  0  0  0  0
 28 29  1  0  0  0  0
 29 53  1  0  0  0  0
 30 54  1  0  0  0  0
M  END
$$$$
