CHEMBL1242477
 OpenBabel04072215363D

 37 40  0  0  0  0  0  0  0  0999 V2000
    1.9452   -0.2490    1.2299 C   0  0  0  0  0  0  0  0  0  0  0  0
    2.6268    0.0599   -0.1035 C   0  0  0  0  0  0  0  0  0  0  0  0
    1.6959   -0.2393   -1.2789 C   0  0  0  0  0  0  0  0  0  0  0  0
    3.1231    1.4317   -0.1521 N   0  0  0  0  0  0  0  0  0  0  0  0
    2.2608    2.4670   -0.0725 N   0  0  0  0  0  0  0  0  0  0  0  0
    3.0338    3.5641   -0.2122 C   0  0  0  0  0  0  0  0  0  0  0  0
    2.4078    4.8950   -0.2411 C   0  0  0  0  0  0  0  0  0  0  0  0
    2.9355    5.9261   -1.0303 C   0  0  0  0  0  0  0  0  0  0  0  0
    2.3743    7.2118   -1.0421 C   0  0  0  0  0  0  0  0  0  0  0  0
    1.2096    7.4436   -0.2978 C   0  0  0  0  0  0  0  0  0  0  0  0
    0.3398    8.5338   -0.0792 C   0  0  0  0  0  0  0  0  0  0  0  0
   -0.6846    8.2239    0.7192 N   0  0  0  0  0  0  0  0  0  0  0  0
   -0.4715    6.9268    1.0100 N   0  0  0  0  0  0  0  0  0  0  0  0
    0.6620    6.4047    0.4440 C   0  0  0  0  0  0  0  0  0  0  0  0
    1.2368    5.1285    0.5083 C   0  0  0  0  0  0  0  0  0  0  0  0
    4.4193    3.2068   -0.3137 C   0  0  0  0  0  0  0  0  0  0  0  0
    5.6744    3.8259   -0.4281 C   0  0  0  0  0  0  0  0  0  0  0  0
    5.9046    5.1957   -0.4188 N   0  0  0  0  0  0  0  0  0  0  0  0
    6.7770    3.0541   -0.5323 N   0  0  0  0  0  0  0  0  0  0  0  0
    6.6333    1.7171   -0.5125 C   0  0  0  0  0  0  0  0  0  0  0  0
    5.4984    1.0164   -0.3793 N   0  0  0  0  0  0  0  0  0  0  0  0
    4.4264    1.8200   -0.2882 C   0  0  0  0  0  0  0  0  0  0  0  0
    1.6323   -1.2988    1.2690 H   0  0  0  0  0  0  0  0  0  0  0  0
    1.0555    0.3713    1.3839 H   0  0  0  0  0  0  0  0  0  0  0  0
    2.6265   -0.0707    2.0685 H   0  0  0  0  0  0  0  0  0  0  0  0
    3.4985   -0.5996   -0.1916 H   0  0  0  0  0  0  0  0  0  0  0  0
    0.8108    0.4063   -1.2689 H   0  0  0  0  0  0  0  0  0  0  0  0
    1.3529   -1.2791   -1.2485 H   0  0  0  0  0  0  0  0  0  0  0  0
    2.2110   -0.0823   -2.2330 H   0  0  0  0  0  0  0  0  0  0  0  0
    3.7923    5.7447   -1.6741 H   0  0  0  0  0  0  0  0  0  0  0  0
    2.8230    7.9984   -1.6412 H   0  0  0  0  0  0  0  0  0  0  0  0
    0.4096    9.5368   -0.4804 H   0  0  0  0  0  0  0  0  0  0  0  0
   -1.1456    6.4490    1.5966 H   0  0  0  0  0  0  0  0  0  0  0  0
    0.7847    4.3382    1.1024 H   0  0  0  0  0  0  0  0  0  0  0  0
    5.2899    5.7219    0.1895 H   0  0  0  0  0  0  0  0  0  0  0  0
    6.8947    5.3812   -0.2986 H   0  0  0  0  0  0  0  0  0  0  0  0
    7.5497    1.1397   -0.6009 H   0  0  0  0  0  0  0  0  0  0  0  0
  1  2  1  0  0  0  0
  1 23  1  0  0  0  0
  1 24  1  0  0  0  0
  1 25  1  0  0  0  0
  2  3  1  0  0  0  0
  2  4  1  0  0  0  0
  2 26  1  0  0  0  0
  3 27  1  0  0  0  0
  3 28  1  0  0  0  0
  3 29  1  0  0  0  0
  4  5  1  0  0  0  0
  4 22  1  0  0  0  0
  5  6  2  0  0  0  0
  6  7  1  0  0  0  0
  6 16  1  0  0  0  0
  7  8  1  0  0  0  0
  7 15  2  0  0  0  0
  8  9  2  0  0  0  0
  8 30  1  0  0  0  0
  9 10  1  0  0  0  0
  9 31  1  0  0  0  0
 10 11  1  0  0  0  0
 10 14  2  0  0  0  0
 11 12  2  0  0  0  0
 11 32  1  0  0  0  0
 12 13  1  0  0  0  0
 13 14  1  0  0  0  0
 13 33  1  0  0  0  0
 14 15  1  0  0  0  0
 15 34  1  0  0  0  0
 16 17  1  0  0  0  0
 16 22  2  0  0  0  0
 17 18  1  0  0  0  0
 17 19  2  0  0  0  0
 18 35  1  0  0  0  0
 18 36  1  0  0  0  0
 19 20  1  0  0  0  0
 20 21  2  0  0  0  0
 20 37  1  0  0  0  0
 21 22  1  0  0  0  0
M  END
$$$$
