CHEMBL3923888
 OpenBabel04072215373D

 52 55  0  0  0  0  0  0  0  0999 V2000
    6.9068    2.9848   -2.0339 C   0  0  0  0  0  0  0  0  0  0  0  0
    6.2615    1.8651   -1.4441 O   0  0  0  0  0  0  0  0  0  0  0  0
    5.0513    2.0795   -0.8376 C   0  0  0  0  0  0  0  0  0  0  0  0
    4.4222    3.3258   -0.7226 C   0  0  0  0  0  0  0  0  0  0  0  0
    3.1625    3.4725   -0.1026 C   0  0  0  0  0  0  0  0  0  0  0  0
    2.4929    4.7953   -0.0208 C   0  0  0  0  0  0  0  0  0  0  0  0
    1.6862    5.1399    1.0803 C   0  0  0  0  0  0  0  0  0  0  0  0
    1.0240    6.3762    1.1721 C   0  0  0  0  0  0  0  0  0  0  0  0
    1.1872    7.3160    0.1377 C   0  0  0  0  0  0  0  0  0  0  0  0
    0.7257    8.6364   -0.1506 C   0  0  0  0  0  0  0  0  0  0  0  0
   -0.1479    9.3987    0.6911 C   0  0  0  0  0  0  0  0  0  0  0  0
   -0.5914   10.6371    0.4099 C   0  0  0  0  0  0  0  0  0  0  0  0
   -1.4971   11.4033    1.2729 C   0  0  0  0  0  0  0  0  0  0  0  0
   -1.4152   12.7952    1.2878 C   0  0  0  0  0  0  0  0  0  0  0  0
   -2.2814   13.5500    2.0879 C   0  0  0  0  0  0  0  0  0  0  0  0
   -3.2559   12.9321    2.8871 C   0  0  0  0  0  0  0  0  0  0  0  0
   -4.1152   13.6292    3.6911 O   0  0  0  0  0  0  0  0  0  0  0  0
   -4.0219   15.0459    3.7182 C   0  0  0  0  0  0  0  0  0  0  0  0
   -3.3577   11.5305    2.8618 C   0  0  0  0  0  0  0  0  0  0  0  0
   -4.2200   10.7150    3.5465 O   0  0  0  0  0  0  0  0  0  0  0  0
   -5.1868   11.2997    4.4023 C   0  0  0  0  0  0  0  0  0  0  0  0
   -2.4854   10.7886    2.0477 C   0  0  0  0  0  0  0  0  0  0  0  0
    1.2119    9.0797   -1.3198 N   0  0  0  0  0  0  0  0  0  0  0  0
    1.9602    8.0622   -1.7686 N   0  0  0  0  0  0  0  0  0  0  0  0
    1.9889    6.9757   -0.9400 C   0  0  0  0  0  0  0  0  0  0  0  0
    2.6400    5.7420   -1.0564 C   0  0  0  0  0  0  0  0  0  0  0  0
    2.5619    2.3148    0.4223 C   0  0  0  0  0  0  0  0  0  0  0  0
    3.1834    1.0669    0.3343 C   0  0  0  0  0  0  0  0  0  0  0  0
    4.4173    0.9554   -0.2994 C   0  0  0  0  0  0  0  0  0  0  0  0
    5.0189   -0.2700   -0.4013 O   0  0  0  0  0  0  0  0  0  0  0  0
    7.8495    2.6395   -2.4689 H   0  0  0  0  0  0  0  0  0  0  0  0
    7.1475    3.7434   -1.2824 H   0  0  0  0  0  0  0  0  0  0  0  0
    6.3022    3.4081   -2.8437 H   0  0  0  0  0  0  0  0  0  0  0  0
    4.9128    4.2125   -1.1094 H   0  0  0  0  0  0  0  0  0  0  0  0
    1.5621    4.4434    1.9080 H   0  0  0  0  0  0  0  0  0  0  0  0
    0.4019    6.5926    2.0358 H   0  0  0  0  0  0  0  0  0  0  0  0
   -0.4562    8.9232    1.6162 H   0  0  0  0  0  0  0  0  0  0  0  0
   -0.2664   11.1295   -0.5056 H   0  0  0  0  0  0  0  0  0  0  0  0
   -0.6696   13.3099    0.6838 H   0  0  0  0  0  0  0  0  0  0  0  0
   -2.1633   14.6284    2.0633 H   0  0  0  0  0  0  0  0  0  0  0  0
   -4.7631   15.4121    4.4354 H   0  0  0  0  0  0  0  0  0  0  0  0
   -4.2651   15.4739    2.7402 H   0  0  0  0  0  0  0  0  0  0  0  0
   -3.0369   15.3743    4.0651 H   0  0  0  0  0  0  0  0  0  0  0  0
   -5.7567   10.4844    4.8593 H   0  0  0  0  0  0  0  0  0  0  0  0
   -5.8947   11.9132    3.8368 H   0  0  0  0  0  0  0  0  0  0  0  0
   -4.7142   11.8550    5.2181 H   0  0  0  0  0  0  0  0  0  0  0  0
   -2.6050    9.7084    2.0271 H   0  0  0  0  0  0  0  0  0  0  0  0
    2.4336    8.1737   -2.6561 H   0  0  0  0  0  0  0  0  0  0  0  0
    3.2336    5.5261   -1.9393 H   0  0  0  0  0  0  0  0  0  0  0  0
    1.5851    2.3659    0.8986 H   0  0  0  0  0  0  0  0  0  0  0  0
    2.6866    0.1998    0.7576 H   0  0  0  0  0  0  0  0  0  0  0  0
    4.4444   -0.9388    0.0014 H   0  0  0  0  0  0  0  0  0  0  0  0
  1  2  1  0  0  0  0
  1 31  1  0  0  0  0
  1 32  1  0  0  0  0
  1 33  1  0  0  0  0
  2  3  1  0  0  0  0
  3  4  1  0  0  0  0
  3 29  2  0  0  0  0
  4  5  2  0  0  0  0
  4 34  1  0  0  0  0
  5  6  1  0  0  0  0
  5 27  1  0  0  0  0
  6  7  1  0  0  0  0
  6 26  2  0  0  0  0
  7  8  2  0  0  0  0
  7 35  1  0  0  0  0
  8  9  1  0  0  0  0
  8 36  1  0  0  0  0
  9 10  1  0  0  0  0
  9 25  2  0  0  0  0
 10 11  1  0  0  0  0
 10 23  2  0  0  0  0
 11 12  2  0  0  0  0
 11 37  1  0  0  0  0
 12 13  1  0  0  0  0
 12 38  1  0  0  0  0
 13 14  1  0  0  0  0
 13 22  2  0  0  0  0
 14 15  2  0  0  0  0
 14 39  1  0  0  0  0
 15 16  1  0  0  0  0
 15 40  1  0  0  0  0
 16 17  1  0  0  0  0
 16 19  2  0  0  0  0
 17 18  1  0  0  0  0
 18 41  1  0  0  0  0
 18 42  1  0  0  0  0
 18 43  1  0  0  0  0
 19 20  1  0  0  0  0
 19 22  1  0  0  0  0
 20 21  1  0  0  0  0
 21 44  1  0  0  0  0
 21 45  1  0  0  0  0
 21 46  1  0  0  0  0
 22 47  1  0  0  0  0
 23 24  1  0  0  0  0
 24 25  1  0  0  0  0
 24 48  1  0  0  0  0
 25 26  1  0  0  0  0
 26 49  1  0  0  0  0
 27 28  2  0  0  0  0
 27 50  1  0  0  0  0
 28 29  1  0  0  0  0
 28 51  1  0  0  0  0
 29 30  1  0  0  0  0
 30 52  1  0  0  0  0
M  END
$$$$
