CHEMBL1240544
 OpenBabel04072215363D

 37 39  0  0  1  0  0  0  0  0999 V2000
    1.7771    1.4338    0.3020 C   0  0  0  0  0  0  0  0  0  0  0  0
    2.3933    0.0345    0.1862 C   0  0  1  0  0  0  0  0  0  0  0  0
    3.5129   -0.0238   -0.8724 C   0  0  0  0  0  0  0  0  0  0  0  0
    3.0516    0.3237   -2.2236 N   0  0  0  0  0  0  0  0  0  0  0  0
    2.8835   -0.4589    1.4751 N   0  0  0  0  0  0  0  0  0  0  0  0
    3.4264    0.3808    2.3790 N   0  0  0  0  0  0  0  0  0  0  0  0
    3.7185   -0.3957    3.4381 C   0  0  0  0  0  0  0  0  0  0  0  0
    4.3381    0.2042    4.6269 C   0  0  0  0  0  0  0  0  0  0  0  0
    5.2900   -0.4970    5.3822 C   0  0  0  0  0  0  0  0  0  0  0  0
    5.8478    0.0613    6.5368 C   0  0  0  0  0  0  0  0  0  0  0  0
    5.4999    1.3541    6.9146 C   0  0  0  0  0  0  0  0  0  0  0  0
    6.2054    2.0440    8.3271 Cl  0  0  0  0  0  0  0  0  0  0  0  0
    4.5954    2.0830    6.1419 C   0  0  0  0  0  0  0  0  0  0  0  0
    4.2559    3.3718    6.4519 O   0  0  0  0  0  0  0  0  0  0  0  0
    4.0085    1.5141    5.0125 C   0  0  0  0  0  0  0  0  0  0  0  0
    3.3552   -1.7600    3.1935 C   0  0  0  0  0  0  0  0  0  0  0  0
    3.3681   -3.0009    3.8526 C   0  0  0  0  0  0  0  0  0  0  0  0
    3.7649   -3.2164    5.1661 N   0  0  0  0  0  0  0  0  0  0  0  0
    2.9570   -4.0971    3.1799 N   0  0  0  0  0  0  0  0  0  0  0  0
    2.5322   -3.9562    1.9114 C   0  0  0  0  0  0  0  0  0  0  0  0
    2.4330   -2.8265    1.1962 N   0  0  0  0  0  0  0  0  0  0  0  0
    2.8608   -1.7626    1.8978 C   0  0  0  0  0  0  0  0  0  0  0  0
    1.3165    1.7422   -0.6420 H   0  0  0  0  0  0  0  0  0  0  0  0
    2.5294    2.1850    0.5675 H   0  0  0  0  0  0  0  0  0  0  0  0
    0.9982    1.4527    1.0721 H   0  0  0  0  0  0  0  0  0  0  0  0
    1.5903   -0.6514   -0.1091 H   0  0  0  0  0  0  0  0  0  0  0  0
    3.9468   -1.0303   -0.9086 H   0  0  0  0  0  0  0  0  0  0  0  0
    4.3246    0.6599   -0.5968 H   0  0  0  0  0  0  0  0  0  0  0  0
    2.3813   -0.3726   -2.5499 H   0  0  0  0  0  0  0  0  0  0  0  0
    3.8398    0.2808   -2.8699 H   0  0  0  0  0  0  0  0  0  0  0  0
    5.6237   -1.4861    5.0759 H   0  0  0  0  0  0  0  0  0  0  0  0
    6.5594   -0.5158    7.1212 H   0  0  0  0  0  0  0  0  0  0  0  0
    4.7986    3.6367    7.2181 H   0  0  0  0  0  0  0  0  0  0  0  0
    3.3032    2.1008    4.4269 H   0  0  0  0  0  0  0  0  0  0  0  0
    3.5507   -2.4622    5.8056 H   0  0  0  0  0  0  0  0  0  0  0  0
    3.4780   -4.1401    5.4738 H   0  0  0  0  0  0  0  0  0  0  0  0
    2.2320   -4.8701    1.4080 H   0  0  0  0  0  0  0  0  0  0  0  0
  1  2  1  0  0  0  0
  1 23  1  0  0  0  0
  1 24  1  0  0  0  0
  1 25  1  0  0  0  0
  2  3  1  0  0  0  0
  2  5  1  0  0  0  0
  2 26  1  6  0  0  0
  3  4  1  0  0  0  0
  3 27  1  0  0  0  0
  3 28  1  0  0  0  0
  4 29  1  0  0  0  0
  4 30  1  0  0  0  0
  5  6  1  0  0  0  0
  5 22  1  0  0  0  0
  6  7  2  0  0  0  0
  7  8  1  0  0  0  0
  7 16  1  0  0  0  0
  8  9  1  0  0  0  0
  8 15  2  0  0  0  0
  9 10  2  0  0  0  0
  9 31  1  0  0  0  0
 10 11  1  0  0  0  0
 10 32  1  0  0  0  0
 11 12  1  0  0  0  0
 11 13  2  0  0  0  0
 13 14  1  0  0  0  0
 13 15  1  0  0  0  0
 14 33  1  0  0  0  0
 15 34  1  0  0  0  0
 16 17  1  0  0  0  0
 16 22  2  0  0  0  0
 17 18  1  0  0  0  0
 17 19  2  0  0  0  0
 18 35  1  0  0  0  0
 18 36  1  0  0  0  0
 19 20  1  0  0  0  0
 20 21  2  0  0  0  0
 20 37  1  0  0  0  0
 21 22  1  0  0  0  0
M  END
$$$$
