CHEMBL4165320
 OpenBabel04072215383D

 48 50  0  0  0  0  0  0  0  0999 V2000
    4.8801   -3.8769    3.2877 C   0  0  0  0  0  0  0  0  0  0  0  0
    5.5049   -2.8274    3.8386 C   0  0  0  0  0  0  0  0  0  0  0  0
    5.1799   -1.4465    3.3862 C   0  0  0  0  0  0  0  0  0  0  0  0
    4.2377   -1.2285    2.6359 O   0  0  0  0  0  0  0  0  0  0  0  0
    6.0762   -0.5081    3.8470 N   0  0  0  0  0  0  0  0  0  0  0  0
    5.9819    0.8482    3.5201 C   0  0  0  0  0  0  0  0  0  0  0  0
    4.7594    1.5022    3.4795 C   0  0  0  0  0  0  0  0  0  0  0  0
    4.7348    2.8426    3.1185 C   0  0  0  0  0  0  0  0  0  0  0  0
    5.9247    3.4742    2.7739 C   0  0  0  0  0  0  0  0  0  0  0  0
    7.1196    2.7625    2.8480 C   0  0  0  0  0  0  0  0  0  0  0  0
    8.4360    3.3552    2.5090 C   0  0  0  0  0  0  0  0  0  0  0  0
    9.5984    2.8263    3.0803 C   0  0  0  0  0  0  0  0  0  0  0  0
   10.8564    3.3886    2.8459 C   0  0  0  0  0  0  0  0  0  0  0  0
   11.0140    4.4921    2.0088 C   0  0  0  0  0  0  0  0  0  0  0  0
   12.2590    5.1279    1.7928 N   0  0  0  0  0  0  0  0  0  0  0  0
   13.4823    4.6799    2.2647 C   0  0  0  0  0  0  0  0  0  0  0  0
   13.6759    3.6092    2.8203 O   0  0  0  0  0  0  0  0  0  0  0  0
   14.4902    5.6235    2.0864 N   0  0  0  0  0  0  0  0  0  0  0  0
   15.8020    5.3527    2.5325 C   0  0  0  0  0  0  0  0  0  0  0  0
   16.4967    6.3422    3.2224 C   0  0  0  0  0  0  0  0  0  0  0  0
   17.7650    6.0648    3.7392 C   0  0  0  0  0  0  0  0  0  0  0  0
   18.3718    4.8158    3.5360 C   0  0  0  0  0  0  0  0  0  0  0  0
   19.9447    4.6113    4.2140 Cl  0  0  0  0  0  0  0  0  0  0  0  0
   17.7079    3.8188    2.8192 C   0  0  0  0  0  0  0  0  0  0  0  0
   18.2578    2.4423    2.5427 C   0  0  0  0  0  0  0  0  0  0  0  0
   19.5063    2.1847    3.0136 F   0  0  0  0  0  0  0  0  0  0  0  0
   17.4675    1.4587    3.0613 F   0  0  0  0  0  0  0  0  0  0  0  0
   18.3223    2.1858    1.2029 F   0  0  0  0  0  0  0  0  0  0  0  0
   16.4161    4.1095    2.3229 C   0  0  0  0  0  0  0  0  0  0  0  0
    9.8692    5.0113    1.3942 C   0  0  0  0  0  0  0  0  0  0  0  0
    8.6027    4.4496    1.6378 C   0  0  0  0  0  0  0  0  0  0  0  0
    7.1492    1.4682    3.2748 N   0  0  0  0  0  0  0  0  0  0  0  0
    5.0678   -4.8864    3.6286 H   0  0  0  0  0  0  0  0  0  0  0  0
    4.1554   -3.7442    2.4843 H   0  0  0  0  0  0  0  0  0  0  0  0
    6.2150   -2.9584    4.6441 H   0  0  0  0  0  0  0  0  0  0  0  0
    7.0057   -0.8039    4.1077 H   0  0  0  0  0  0  0  0  0  0  0  0
    3.8386    0.9936    3.7444 H   0  0  0  0  0  0  0  0  0  0  0  0
    3.7940    3.3853    3.0982 H   0  0  0  0  0  0  0  0  0  0  0  0
    5.9035    4.5176    2.4791 H   0  0  0  0  0  0  0  0  0  0  0  0
    9.5433    1.9650    3.7436 H   0  0  0  0  0  0  0  0  0  0  0  0
   11.6934    2.9219    3.3560 H   0  0  0  0  0  0  0  0  0  0  0  0
   12.2757    5.9059    1.1494 H   0  0  0  0  0  0  0  0  0  0  0  0
   14.1765    6.5818    2.1509 H   0  0  0  0  0  0  0  0  0  0  0  0
   16.0445    7.3086    3.4265 H   0  0  0  0  0  0  0  0  0  0  0  0
   18.2762    6.8284    4.3231 H   0  0  0  0  0  0  0  0  0  0  0  0
   15.8827    3.3358    1.7686 H   0  0  0  0  0  0  0  0  0  0  0  0
    9.9417    5.8659    0.7222 H   0  0  0  0  0  0  0  0  0  0  0  0
    7.7463    4.8810    1.1242 H   0  0  0  0  0  0  0  0  0  0  0  0
  1  2  2  0  0  0  0
  1 33  1  0  0  0  0
  1 34  1  0  0  0  0
  2  3  1  0  0  0  0
  2 35  1  0  0  0  0
  3  4  2  0  0  0  0
  3  5  1  0  0  0  0
  5  6  1  0  0  0  0
  5 36  1  0  0  0  0
  6  7  1  0  0  0  0
  6 32  2  0  0  0  0
  7  8  2  0  0  0  0
  7 37  1  0  0  0  0
  8  9  1  0  0  0  0
  8 38  1  0  0  0  0
  9 10  2  0  0  0  0
  9 39  1  0  0  0  0
 10 11  1  0  0  0  0
 10 32  1  0  0  0  0
 11 12  1  0  0  0  0
 11 31  2  0  0  0  0
 12 13  2  0  0  0  0
 12 40  1  0  0  0  0
 13 14  1  0  0  0  0
 13 41  1  0  0  0  0
 14 15  1  0  0  0  0
 14 30  2  0  0  0  0
 15 16  1  0  0  0  0
 15 42  1  0  0  0  0
 16 17  2  0  0  0  0
 16 18  1  0  0  0  0
 18 19  1  0  0  0  0
 18 43  1  0  0  0  0
 19 20  1  0  0  0  0
 19 29  2  0  0  0  0
 20 21  2  0  0  0  0
 20 44  1  0  0  0  0
 21 22  1  0  0  0  0
 21 45  1  0  0  0  0
 22 23  1  0  0  0  0
 22 24  2  0  0  0  0
 24 25  1  0  0  0  0
 24 29  1  0  0  0  0
 25 26  1  0  0  0  0
 25 27  1  0  0  0  0
 25 28  1  0  0  0  0
 29 46  1  0  0  0  0
 30 31  1  0  0  0  0
 30 47  1  0  0  0  0
 31 48  1  0  0  0  0
M  END
$$$$
