CHEMBL1762528
 OpenBabel04072215363D

 67 71  0  0  0  0  0  0  0  0999 V2000
    2.1369   -0.3010    1.3357 C   0  0  0  0  0  0  0  0  0  0  0  0
    3.4250   -0.2416    0.6388 N   0  0  0  0  0  0  0  0  0  0  0  0
    4.0825   -1.4650    0.3774 C   0  0  0  0  0  0  0  0  0  0  0  0
    3.4049   -2.6763    0.1731 C   0  0  0  0  0  0  0  0  0  0  0  0
    4.0983   -3.8616   -0.0967 C   0  0  0  0  0  0  0  0  0  0  0  0
    5.4897   -3.8593   -0.1797 C   0  0  0  0  0  0  0  0  0  0  0  0
    6.2028   -2.6759    0.0290 C   0  0  0  0  0  0  0  0  0  0  0  0
    7.6954   -2.5927   -0.1470 C   0  0  0  0  0  0  0  0  0  0  0  0
    8.3448   -3.8158    0.1770 O   0  0  0  0  0  0  0  0  0  0  0  0
    5.4869   -1.4989    0.3077 C   0  0  0  0  0  0  0  0  0  0  0  0
    3.7640    1.0088    0.0453 C   0  0  0  0  0  0  0  0  0  0  0  0
    3.3222    2.1954    0.6083 C   0  0  0  0  0  0  0  0  0  0  0  0
    3.6918    3.3613   -0.0072 C   0  0  0  0  0  0  0  0  0  0  0  0
    4.4464    3.3946   -1.1050 N   0  0  0  0  0  0  0  0  0  0  0  0
    4.8572    2.2239   -1.6097 C   0  0  0  0  0  0  0  0  0  0  0  0
    5.6418    2.2403   -2.7690 N   0  0  0  0  0  0  0  0  0  0  0  0
    6.5133    3.2703   -3.1800 C   0  0  0  0  0  0  0  0  0  0  0  0
    7.1500    4.1054   -2.2524 C   0  0  0  0  0  0  0  0  0  0  0  0
    7.9525    5.1843   -2.6277 C   0  0  0  0  0  0  0  0  0  0  0  0
    8.5707    5.9847   -1.6912 N   0  0  0  0  0  0  0  0  0  0  0  0
    9.0793    5.4555   -0.4205 C   0  0  0  0  0  0  0  0  0  0  0  0
    8.4412    6.2093    0.7521 C   0  0  0  0  0  0  0  0  0  0  0  0
    8.6522    7.6280    0.6362 O   0  0  0  0  0  0  0  0  0  0  0  0
    8.0640    8.1175   -0.5827 C   0  0  0  0  0  0  0  0  0  0  0  0
    8.6644    7.4426   -1.8317 C   0  0  0  0  0  0  0  0  0  0  0  0
    8.1078    5.4002   -4.0016 C   0  0  0  0  0  0  0  0  0  0  0  0
    7.5511    4.5592   -4.9861 C   0  0  0  0  0  0  0  0  0  0  0  0
    7.7883    4.8084   -6.3261 N   0  0  0  0  0  0  0  0  0  0  0  0
    6.8632    4.4199   -7.3979 C   0  0  0  0  0  0  0  0  0  0  0  0
    7.5193    3.3866   -8.3233 C   0  0  0  0  0  0  0  0  0  0  0  0
    8.7749    3.8629   -8.8384 O   0  0  0  0  0  0  0  0  0  0  0  0
    9.6830    4.1293   -7.7568 C   0  0  0  0  0  0  0  0  0  0  0  0
    9.1321    5.1944   -6.7929 C   0  0  0  0  0  0  0  0  0  0  0  0
    6.7515    3.4944   -4.5407 C   0  0  0  0  0  0  0  0  0  0  0  0
    4.5374    1.0353   -1.0695 N   0  0  0  0  0  0  0  0  0  0  0  0
    1.9148   -1.2825    1.7676 H   0  0  0  0  0  0  0  0  0  0  0  0
    1.3157   -0.0340    0.6607 H   0  0  0  0  0  0  0  0  0  0  0  0
    2.1238    0.3753    2.1978 H   0  0  0  0  0  0  0  0  0  0  0  0
    2.3195   -2.7169    0.1746 H   0  0  0  0  0  0  0  0  0  0  0  0
    3.5469   -4.7824   -0.2704 H   0  0  0  0  0  0  0  0  0  0  0  0
    6.0115   -4.7808   -0.4302 H   0  0  0  0  0  0  0  0  0  0  0  0
    8.1187   -1.8172    0.5005 H   0  0  0  0  0  0  0  0  0  0  0  0
    7.9254   -2.3397   -1.1867 H   0  0  0  0  0  0  0  0  0  0  0  0
    8.1009   -4.0212    1.0940 H   0  0  0  0  0  0  0  0  0  0  0  0
    6.0405   -0.5757    0.4702 H   0  0  0  0  0  0  0  0  0  0  0  0
    2.7318    2.2475    1.5094 H   0  0  0  0  0  0  0  0  0  0  0  0
    3.3873    4.3277    0.3779 H   0  0  0  0  0  0  0  0  0  0  0  0
    5.8937    1.3043   -3.0487 H   0  0  0  0  0  0  0  0  0  0  0  0
    6.9677    3.9326   -1.1948 H   0  0  0  0  0  0  0  0  0  0  0  0
   10.1640    5.6165   -0.4064 H   0  0  0  0  0  0  0  0  0  0  0  0
    8.9231    4.3780   -0.3061 H   0  0  0  0  0  0  0  0  0  0  0  0
    8.8963    5.8821    1.6924 H   0  0  0  0  0  0  0  0  0  0  0  0
    7.3648    6.0119    0.8125 H   0  0  0  0  0  0  0  0  0  0  0  0
    8.2428    9.1972   -0.6239 H   0  0  0  0  0  0  0  0  0  0  0  0
    6.9798    7.9617   -0.5366 H   0  0  0  0  0  0  0  0  0  0  0  0
    9.7230    7.7127   -1.9222 H   0  0  0  0  0  0  0  0  0  0  0  0
    8.1408    7.8201   -2.7168 H   0  0  0  0  0  0  0  0  0  0  0  0
    8.6963    6.2549   -4.3231 H   0  0  0  0  0  0  0  0  0  0  0  0
    6.6391    5.3231   -7.9788 H   0  0  0  0  0  0  0  0  0  0  0  0
    5.9042    4.0463   -7.0257 H   0  0  0  0  0  0  0  0  0  0  0  0
    6.8663    3.1918   -9.1796 H   0  0  0  0  0  0  0  0  0  0  0  0
    7.6852    2.4359   -7.8033 H   0  0  0  0  0  0  0  0  0  0  0  0
   10.6246    4.4779   -8.1936 H   0  0  0  0  0  0  0  0  0  0  0  0
    9.8891    3.1907   -7.2283 H   0  0  0  0  0  0  0  0  0  0  0  0
    9.0480    6.1537   -7.3164 H   0  0  0  0  0  0  0  0  0  0  0  0
    9.8524    5.3219   -5.9775 H   0  0  0  0  0  0  0  0  0  0  0  0
    6.2827    2.8267   -5.2557 H   0  0  0  0  0  0  0  0  0  0  0  0
  1  2  1  0  0  0  0
  1 36  1  0  0  0  0
  1 37  1  0  0  0  0
  1 38  1  0  0  0  0
  2  3  1  0  0  0  0
  2 11  1  0  0  0  0
  3  4  1  0  0  0  0
  3 10  2  0  0  0  0
  4  5  2  0  0  0  0
  4 39  1  0  0  0  0
  5  6  1  0  0  0  0
  5 40  1  0  0  0  0
  6  7  2  0  0  0  0
  6 41  1  0  0  0  0
  7  8  1  0  0  0  0
  7 10  1  0  0  0  0
  8  9  1  0  0  0  0
  8 42  1  0  0  0  0
  8 43  1  0  0  0  0
  9 44  1  0  0  0  0
 10 45  1  0  0  0  0
 11 12  1  0  0  0  0
 11 35  2  0  0  0  0
 12 13  2  0  0  0  0
 12 46  1  0  0  0  0
 13 14  1  0  0  0  0
 13 47  1  0  0  0  0
 14 15  2  0  0  0  0
 15 16  1  0  0  0  0
 15 35  1  0  0  0  0
 16 17  1  0  0  0  0
 16 48  1  0  0  0  0
 17 18  1  0  0  0  0
 17 34  2  0  0  0  0
 18 19  2  0  0  0  0
 18 49  1  0  0  0  0
 19 20  1  0  0  0  0
 19 26  1  0  0  0  0
 20 21  1  0  0  0  0
 20 25  1  0  0  0  0
 21 22  1  0  0  0  0
 21 50  1  0  0  0  0
 21 51  1  0  0  0  0
 22 23  1  0  0  0  0
 22 52  1  0  0  0  0
 22 53  1  0  0  0  0
 23 24  1  0  0  0  0
 24 25  1  0  0  0  0
 24 54  1  0  0  0  0
 24 55  1  0  0  0  0
 25 56  1  0  0  0  0
 25 57  1  0  0  0  0
 26 27  2  0  0  0  0
 26 58  1  0  0  0  0
 27 28  1  0  0  0  0
 27 34  1  0  0  0  0
 28 29  1  0  0  0  0
 28 33  1  0  0  0  0
 29 30  1  0  0  0  0
 29 59  1  0  0  0  0
 29 60  1  0  0  0  0
 30 31  1  0  0  0  0
 30 61  1  0  0  0  0
 30 62  1  0  0  0  0
 31 32  1  0  0  0  0
 32 33  1  0  0  0  0
 32 63  1  0  0  0  0
 32 64  1  0  0  0  0
 33 65  1  0  0  0  0
 33 66  1  0  0  0  0
 34 67  1  0  0  0  0
M  END
$$$$
