CHEMBL3656034
 OpenBabel04072215373D

 62 66  0  0  1  0  0  0  0  0999 V2000
    1.0645   -2.0198   -1.1418 C   0  0  0  0  0  0  0  0  0  0  0  0
   -0.4054   -1.7743   -0.9465 C   0  0  0  0  0  0  0  0  0  0  0  0
   -1.2576   -2.8558   -0.7045 C   0  0  0  0  0  0  0  0  0  0  0  0
   -2.6209   -2.6427   -0.5424 C   0  0  0  0  0  0  0  0  0  0  0  0
   -3.1466   -1.3521   -0.6119 C   0  0  0  0  0  0  0  0  0  0  0  0
   -4.4806   -1.2611   -0.5503 F   0  0  0  0  0  0  0  0  0  0  0  0
   -2.3223   -0.2351   -0.8224 C   0  0  0  0  0  0  0  0  0  0  0  0
   -2.7742    1.1171   -0.8850 N   0  0  0  0  0  0  0  0  0  0  0  0
   -3.9808    1.5944   -0.3712 C   0  0  0  0  0  0  0  0  0  0  0  0
   -4.7822    0.9367    0.2697 O   0  0  0  0  0  0  0  0  0  0  0  0
   -4.2788    3.0477   -0.5307 C   0  0  0  0  0  0  0  0  0  0  0  0
   -3.7660    3.8348   -1.5666 C   0  0  0  0  0  0  0  0  0  0  0  0
   -4.1289    5.1852   -1.6590 C   0  0  0  0  0  0  0  0  0  0  0  0
   -5.0076    5.7488   -0.7309 C   0  0  0  0  0  0  0  0  0  0  0  0
   -5.5876    4.9506    0.2561 C   0  0  0  0  0  0  0  0  0  0  0  0
   -6.5255    5.3866    1.1655 O   0  0  0  0  0  0  0  0  0  0  0  0
   -7.4386    6.3507    0.8066 C   0  0  0  0  0  0  0  0  0  0  0  0
   -7.9288    6.5398   -0.4852 C   0  0  0  0  0  0  0  0  0  0  0  0
   -8.7837    7.6024   -0.7139 C   0  0  0  0  0  0  0  0  0  0  0  0
   -9.2115    8.4423    0.2523 N   0  0  0  0  0  0  0  0  0  0  0  0
   -8.7800    8.1904    1.5151 C   0  0  0  0  0  0  0  0  0  0  0  0
   -9.2656    9.1325    2.5103 C   0  0  0  0  0  0  0  0  0  0  0  0
   -9.0687    9.2239    3.8785 C   0  0  0  0  0  0  0  0  0  0  0  0
   -9.7306   10.3934    4.3627 C   0  0  0  0  0  0  0  0  0  0  0  0
   -9.7085   10.8842    5.7435 C   0  0  0  0  0  0  0  0  0  0  0  0
   -9.6481   10.0964    6.6868 O   0  0  0  0  0  0  0  0  0  0  0  0
   -9.6736   12.2545    5.9457 N   0  0  0  0  0  0  0  0  0  0  0  0
   -9.4587   12.8071    7.2710 C   0  0  0  0  0  0  0  0  0  0  0  0
   -9.2798   14.3101    7.0659 C   0  0  0  0  0  0  0  0  0  0  0  0
   -8.9774   14.4627    5.5798 C   0  0  2  0  0  0  0  0  0  0  0  0
   -9.3808   15.7233    5.0742 O   0  0  0  0  0  0  0  0  0  0  0  0
   -9.7502   13.3129    4.9587 C   0  0  0  0  0  0  0  0  0  0  0  0
  -10.3848   10.9294    3.2694 C   0  0  0  0  0  0  0  0  0  0  0  0
  -10.0655   10.1949    2.1627 N   0  0  0  0  0  0  0  0  0  0  0  0
   -7.9137    7.1571    1.8334 C   0  0  0  0  0  0  0  0  0  0  0  0
   -5.1880    3.6187    0.3776 C   0  0  0  0  0  0  0  0  0  0  0  0
   -0.9448   -0.4721   -1.0060 C   0  0  0  0  0  0  0  0  0  0  0  0
    1.3042   -3.0867   -1.0668 H   0  0  0  0  0  0  0  0  0  0  0  0
    1.6466   -1.4982   -0.3759 H   0  0  0  0  0  0  0  0  0  0  0  0
    1.3790   -1.6833   -2.1348 H   0  0  0  0  0  0  0  0  0  0  0  0
   -0.8701   -3.8710   -0.6551 H   0  0  0  0  0  0  0  0  0  0  0  0
   -3.2946   -3.4780   -0.3778 H   0  0  0  0  0  0  0  0  0  0  0  0
   -2.0907    1.8022   -1.1741 H   0  0  0  0  0  0  0  0  0  0  0  0
   -3.1150    3.4199   -2.3300 H   0  0  0  0  0  0  0  0  0  0  0  0
   -3.7466    5.8027   -2.4699 H   0  0  0  0  0  0  0  0  0  0  0  0
   -5.2632    6.8004   -0.8186 H   0  0  0  0  0  0  0  0  0  0  0  0
   -7.6363    5.9023   -1.3110 H   0  0  0  0  0  0  0  0  0  0  0  0
   -9.1426    7.8212   -1.7153 H   0  0  0  0  0  0  0  0  0  0  0  0
   -8.4771    8.5442    4.4790 H   0  0  0  0  0  0  0  0  0  0  0  0
   -8.5764   12.3448    7.7267 H   0  0  0  0  0  0  0  0  0  0  0  0
  -10.3321   12.5871    7.8942 H   0  0  0  0  0  0  0  0  0  0  0  0
   -8.4715   14.7183    7.6810 H   0  0  0  0  0  0  0  0  0  0  0  0
  -10.1947   14.8486    7.3376 H   0  0  0  0  0  0  0  0  0  0  0  0
   -7.9063   14.3314    5.3872 H   0  0  0  0  0  0  0  0  0  0  0  0
  -10.3089   15.8742    5.3231 H   0  0  0  0  0  0  0  0  0  0  0  0
   -9.3275   13.0539    3.9879 H   0  0  0  0  0  0  0  0  0  0  0  0
  -10.8114   13.5611    4.8337 H   0  0  0  0  0  0  0  0  0  0  0  0
  -11.0319   11.7892    3.1716 H   0  0  0  0  0  0  0  0  0  0  0  0
  -10.3634   10.3779    1.2120 H   0  0  0  0  0  0  0  0  0  0  0  0
   -7.5910    6.9881    2.8544 H   0  0  0  0  0  0  0  0  0  0  0  0
   -5.6128    3.0103    1.1767 H   0  0  0  0  0  0  0  0  0  0  0  0
   -0.2660    0.3617   -1.1785 H   0  0  0  0  0  0  0  0  0  0  0  0
  1  2  1  0  0  0  0
  1 38  1  0  0  0  0
  1 39  1  0  0  0  0
  1 40  1  0  0  0  0
  2  3  1  0  0  0  0
  2 37  2  0  0  0  0
  3  4  2  0  0  0  0
  3 41  1  0  0  0  0
  4  5  1  0  0  0  0
  4 42  1  0  0  0  0
  5  6  1  0  0  0  0
  5  7  2  0  0  0  0
  7  8  1  0  0  0  0
  7 37  1  0  0  0  0
  8  9  1  0  0  0  0
  8 43  1  0  0  0  0
  9 10  2  0  0  0  0
  9 11  1  0  0  0  0
 11 12  1  0  0  0  0
 11 36  2  0  0  0  0
 12 13  2  0  0  0  0
 12 44  1  0  0  0  0
 13 14  1  0  0  0  0
 13 45  1  0  0  0  0
 14 15  2  0  0  0  0
 14 46  1  0  0  0  0
 15 16  1  0  0  0  0
 15 36  1  0  0  0  0
 16 17  1  0  0  0  0
 17 18  1  0  0  0  0
 17 35  2  0  0  0  0
 18 19  2  0  0  0  0
 18 47  1  0  0  0  0
 19 20  1  0  0  0  0
 19 48  1  0  0  0  0
 20 21  2  0  0  0  0
 21 22  1  0  0  0  0
 21 35  1  0  0  0  0
 22 23  2  0  0  0  0
 22 34  1  0  0  0  0
 23 24  1  0  0  0  0
 23 49  1  0  0  0  0
 24 25  1  0  0  0  0
 24 33  2  0  0  0  0
 25 26  2  0  0  0  0
 25 27  1  0  0  0  0
 27 28  1  0  0  0  0
 27 32  1  0  0  0  0
 28 29  1  0  0  0  0
 28 50  1  0  0  0  0
 28 51  1  0  0  0  0
 29 30  1  0  0  0  0
 29 52  1  0  0  0  0
 29 53  1  0  0  0  0
 30 31  1  0  0  0  0
 30 32  1  0  0  0  0
 30 54  1  6  0  0  0
 31 55  1  0  0  0  0
 32 56  1  0  0  0  0
 32 57  1  0  0  0  0
 33 34  1  0  0  0  0
 33 58  1  0  0  0  0
 34 59  1  0  0  0  0
 35 60  1  0  0  0  0
 36 61  1  0  0  0  0
 37 62  1  0  0  0  0
M  END
$$$$
