CHEMBL270093
 OpenBabel04072215363D

 63 67  0  0  0  0  0  0  0  0999 V2000
   10.5343    2.3851   -0.4869 C   0  0  0  0  0  0  0  0  0  0  0  0
    9.6394    3.3481   -1.0568 O   0  0  0  0  0  0  0  0  0  0  0  0
    8.7687    3.9365   -0.1760 C   0  0  0  0  0  0  0  0  0  0  0  0
    9.1323    4.1480    1.1655 C   0  0  0  0  0  0  0  0  0  0  0  0
    8.2467    4.6357    2.1123 C   0  0  0  0  0  0  0  0  0  0  0  0
    8.6649    4.7222    3.3829 N   0  0  0  0  0  0  0  0  0  0  0  0
    7.7951    5.1558    4.3146 C   0  0  0  0  0  0  0  0  0  0  0  0
    6.4961    5.5124    4.0365 C   0  0  0  0  0  0  0  0  0  0  0  0
    6.0544    5.3822    2.7218 C   0  0  0  0  0  0  0  0  0  0  0  0
    4.7464    5.6588    2.3750 O   0  0  0  0  0  0  0  0  0  0  0  0
    3.7420    5.2717    3.2364 C   0  0  0  0  0  0  0  0  0  0  0  0
    2.6637    6.1434    3.3467 C   0  0  0  0  0  0  0  0  0  0  0  0
    1.5829    5.8194    4.1697 C   0  0  0  0  0  0  0  0  0  0  0  0
    1.5283    4.5904    4.8424 C   0  0  0  0  0  0  0  0  0  0  0  0
    2.6504    3.7445    4.7683 C   0  0  0  0  0  0  0  0  0  0  0  0
    3.7383    4.0723    3.9531 C   0  0  0  0  0  0  0  0  0  0  0  0
    2.7775    2.5635    5.4615 O   0  0  0  0  0  0  0  0  0  0  0  0
    1.5386    2.0586    5.9715 C   0  0  0  0  0  0  0  0  0  0  0  0
    0.6976    3.1527    6.6072 C   0  0  0  0  0  0  0  0  0  0  0  0
    0.3924    4.1701    5.6008 N   0  0  0  0  0  0  0  0  0  0  0  0
   -0.9337    4.5663    5.4443 C   0  0  0  0  0  0  0  0  0  0  0  0
   -1.8178    4.2688    6.2457 O   0  0  0  0  0  0  0  0  0  0  0  0
   -1.2054    5.2686    4.3021 N   0  0  0  0  0  0  0  0  0  0  0  0
   -2.5099    5.7912    3.9871 C   0  0  0  0  0  0  0  0  0  0  0  0
   -3.1254    5.0394    2.8380 C   0  0  0  0  0  0  0  0  0  0  0  0
   -3.9019    3.9011    3.0814 C   0  0  0  0  0  0  0  0  0  0  0  0
   -4.5225    3.2291    2.0272 C   0  0  0  0  0  0  0  0  0  0  0  0
   -4.3639    3.6750    0.7104 C   0  0  0  0  0  0  0  0  0  0  0  0
   -5.0793    3.0013   -0.4219 C   0  0  0  0  0  0  0  0  0  0  0  0
   -3.5357    4.7748    0.4594 C   0  0  0  0  0  0  0  0  0  0  0  0
   -2.9171    5.4505    1.5140 C   0  0  0  0  0  0  0  0  0  0  0  0
    6.9470    4.9809    1.7045 C   0  0  0  0  0  0  0  0  0  0  0  0
    6.6136    4.8851    0.3331 C   0  0  0  0  0  0  0  0  0  0  0  0
    7.5082    4.3586   -0.6103 C   0  0  0  0  0  0  0  0  0  0  0  0
    6.9706    4.3274   -1.8678 O   0  0  0  0  0  0  0  0  0  0  0  0
    7.6164    3.5853   -2.8894 C   0  0  0  0  0  0  0  0  0  0  0  0
   10.7180    1.6023   -1.2208 H   0  0  0  0  0  0  0  0  0  0  0  0
   10.1246    1.8906    0.4094 H   0  0  0  0  0  0  0  0  0  0  0  0
   11.4858    2.8692   -0.2432 H   0  0  0  0  0  0  0  0  0  0  0  0
   10.1353    3.9097    1.5131 H   0  0  0  0  0  0  0  0  0  0  0  0
    8.1806    5.1918    5.3288 H   0  0  0  0  0  0  0  0  0  0  0  0
    5.8445    5.8515    4.8322 H   0  0  0  0  0  0  0  0  0  0  0  0
    2.6655    7.0837    2.8011 H   0  0  0  0  0  0  0  0  0  0  0  0
    0.8016    6.5653    4.2881 H   0  0  0  0  0  0  0  0  0  0  0  0
    4.5674    3.3738    3.8809 H   0  0  0  0  0  0  0  0  0  0  0  0
    1.7790    1.2935    6.7178 H   0  0  0  0  0  0  0  0  0  0  0  0
    1.0012    1.5666    5.1524 H   0  0  0  0  0  0  0  0  0  0  0  0
    1.2459    3.6498    7.4170 H   0  0  0  0  0  0  0  0  0  0  0  0
   -0.2142    2.7206    7.0316 H   0  0  0  0  0  0  0  0  0  0  0  0
   -0.6248    5.0413    3.5091 H   0  0  0  0  0  0  0  0  0  0  0  0
   -2.3721    6.8426    3.7087 H   0  0  0  0  0  0  0  0  0  0  0  0
   -3.1681    5.7776    4.8625 H   0  0  0  0  0  0  0  0  0  0  0  0
   -4.0373    3.5437    4.1009 H   0  0  0  0  0  0  0  0  0  0  0  0
   -5.1469    2.3658    2.2441 H   0  0  0  0  0  0  0  0  0  0  0  0
   -5.7416    2.2076   -0.0606 H   0  0  0  0  0  0  0  0  0  0  0  0
   -4.3629    2.5579   -1.1203 H   0  0  0  0  0  0  0  0  0  0  0  0
   -5.6997    3.7302   -0.9540 H   0  0  0  0  0  0  0  0  0  0  0  0
   -3.3799    5.1211   -0.5602 H   0  0  0  0  0  0  0  0  0  0  0  0
   -2.2870    6.3097    1.2952 H   0  0  0  0  0  0  0  0  0  0  0  0
    5.6307    5.2066   -0.0075 H   0  0  0  0  0  0  0  0  0  0  0  0
    6.8908    3.4490   -3.6981 H   0  0  0  0  0  0  0  0  0  0  0  0
    7.9042    2.5826   -2.5579 H   0  0  0  0  0  0  0  0  0  0  0  0
    8.4658    4.1404   -3.2992 H   0  0  0  0  0  0  0  0  0  0  0  0
  1  2  1  0  0  0  0
  1 37  1  0  0  0  0
  1 38  1  0  0  0  0
  1 39  1  0  0  0  0
  2  3  1  0  0  0  0
  3  4  1  0  0  0  0
  3 34  2  0  0  0  0
  4  5  2  0  0  0  0
  4 40  1  0  0  0  0
  5  6  1  0  0  0  0
  5 32  1  0  0  0  0
  6  7  2  0  0  0  0
  7  8  1  0  0  0  0
  7 41  1  0  0  0  0
  8  9  2  0  0  0  0
  8 42  1  0  0  0  0
  9 10  1  0  0  0  0
  9 32  1  0  0  0  0
 10 11  1  0  0  0  0
 11 12  1  0  0  0  0
 11 16  2  0  0  0  0
 12 13  2  0  0  0  0
 12 43  1  0  0  0  0
 13 14  1  0  0  0  0
 13 44  1  0  0  0  0
 14 15  2  0  0  0  0
 14 20  1  0  0  0  0
 15 16  1  0  0  0  0
 15 17  1  0  0  0  0
 16 45  1  0  0  0  0
 17 18  1  0  0  0  0
 18 19  1  0  0  0  0
 18 46  1  0  0  0  0
 18 47  1  0  0  0  0
 19 20  1  0  0  0  0
 19 48  1  0  0  0  0
 19 49  1  0  0  0  0
 20 21  1  0  0  0  0
 21 22  2  0  0  0  0
 21 23  1  0  0  0  0
 23 24  1  0  0  0  0
 23 50  1  0  0  0  0
 24 25  1  0  0  0  0
 24 51  1  0  0  0  0
 24 52  1  0  0  0  0
 25 26  1  0  0  0  0
 25 31  2  0  0  0  0
 26 27  2  0  0  0  0
 26 53  1  0  0  0  0
 27 28  1  0  0  0  0
 27 54  1  0  0  0  0
 28 29  1  0  0  0  0
 28 30  2  0  0  0  0
 29 55  1  0  0  0  0
 29 56  1  0  0  0  0
 29 57  1  0  0  0  0
 30 31  1  0  0  0  0
 30 58  1  0  0  0  0
 31 59  1  0  0  0  0
 32 33  2  0  0  0  0
 33 34  1  0  0  0  0
 33 60  1  0  0  0  0
 34 35  1  0  0  0  0
 35 36  1  0  0  0  0
 36 61  1  0  0  0  0
 36 62  1  0  0  0  0
 36 63  1  0  0  0  0
M  END
$$$$
