CHEMBL86755
 OpenBabel04072215383D

 26 28  0  0  0  0  0  0  0  0999 V2000
   -2.9658    1.0093    0.1298 O   0  0  0  0  0  0  0  0  0  0  0  0
   -1.8005    0.6683    0.0808 C   0  0  0  0  0  0  0  0  0  0  0  0
   -0.7131    1.5245    0.0679 N   0  0  0  0  0  0  0  0  0  0  0  0
    0.4868    0.8271    0.0607 C   0  0  0  0  0  0  0  0  0  0  0  0
    1.7493    1.3819    0.0407 C   0  0  0  0  0  0  0  0  0  0  0  0
    2.8312    0.5034    0.0118 C   0  0  0  0  0  0  0  0  0  0  0  0
    2.6245   -0.8891    0.0006 C   0  0  0  0  0  0  0  0  0  0  0  0
    1.3303   -1.4297    0.0265 C   0  0  0  0  0  0  0  0  0  0  0  0
    0.2586   -0.5537    0.0644 C   0  0  0  0  0  0  0  0  0  0  0  0
   -1.2027   -0.7219    0.0736 C   0  0  0  0  0  0  0  0  0  0  0  0
   -1.8754   -1.8856    0.0535 C   0  0  0  0  0  0  0  0  0  0  0  0
   -3.2830   -1.9301   -0.0826 C   0  0  0  0  0  0  0  0  0  0  0  0
   -4.1107   -2.0515   -1.1805 C   0  0  0  0  0  0  0  0  0  0  0  0
   -5.4457   -1.9236   -0.7268 C   0  0  0  0  0  0  0  0  0  0  0  0
   -5.4003   -1.7682    0.6404 C   0  0  0  0  0  0  0  0  0  0  0  0
   -4.0827   -1.7890    1.0258 N   0  0  0  0  0  0  0  0  0  0  0  0
   -0.8206    2.5257    0.0664 H   0  0  0  0  0  0  0  0  0  0  0  0
    1.8984    2.4551    0.0411 H   0  0  0  0  0  0  0  0  0  0  0  0
    3.8450    0.8990   -0.0090 H   0  0  0  0  0  0  0  0  0  0  0  0
    3.4864   -1.5525   -0.0366 H   0  0  0  0  0  0  0  0  0  0  0  0
    1.1890   -2.5050    0.0048 H   0  0  0  0  0  0  0  0  0  0  0  0
   -1.3470   -2.8305    0.0463 H   0  0  0  0  0  0  0  0  0  0  0  0
   -3.7855   -2.1574   -2.2068 H   0  0  0  0  0  0  0  0  0  0  0  0
   -6.3398   -1.9152   -1.3361 H   0  0  0  0  0  0  0  0  0  0  0  0
   -6.1862   -1.6125    1.3668 H   0  0  0  0  0  0  0  0  0  0  0  0
   -3.7548   -1.6497    1.9719 H   0  0  0  0  0  0  0  0  0  0  0  0
  1  2  2  0  0  0  0
  2  3  1  0  0  0  0
  2 10  1  0  0  0  0
  3  4  1  0  0  0  0
  3 17  1  0  0  0  0
  4  5  1  0  0  0  0
  4  9  2  0  0  0  0
  5  6  2  0  0  0  0
  5 18  1  0  0  0  0
  6  7  1  0  0  0  0
  6 19  1  0  0  0  0
  7  8  2  0  0  0  0
  7 20  1  0  0  0  0
  8  9  1  0  0  0  0
  8 21  1  0  0  0  0
  9 10  1  0  0  0  0
 10 11  2  0  0  0  0
 11 12  1  0  0  0  0
 11 22  1  0  0  0  0
 12 13  2  0  0  0  0
 12 16  1  0  0  0  0
 13 14  1  0  0  0  0
 13 23  1  0  0  0  0
 14 15  2  0  0  0  0
 14 24  1  0  0  0  0
 15 16  1  0  0  0  0
 15 25  1  0  0  0  0
 16 26  1  0  0  0  0
M  END
$$$$
