CHEMBL4471675
 OpenBabel04072215383D

 45 48  0  0  0  0  0  0  0  0999 V2000
   -4.3069   -2.5293    5.5232 C   0  0  0  0  0  0  0  0  0  0  0  0
   -4.1193   -1.8269    4.2109 C   0  0  0  0  0  0  0  0  0  0  0  0
   -4.6154   -2.3798    3.0269 C   0  0  0  0  0  0  0  0  0  0  0  0
   -4.4258   -1.7287    1.8055 C   0  0  0  0  0  0  0  0  0  0  0  0
   -3.7404   -0.5082    1.7419 C   0  0  0  0  0  0  0  0  0  0  0  0
   -3.4647    0.1299    0.4033 C   0  0  0  0  0  0  0  0  0  0  0  0
   -3.8829    1.5810    0.2850 C   0  0  0  0  0  0  0  0  0  0  0  0
   -3.0539    2.4847    0.3839 O   0  0  0  0  0  0  0  0  0  0  0  0
   -5.2449    1.7653    0.0701 N   0  0  0  0  0  0  0  0  0  0  0  0
   -5.7864    3.0594   -0.0931 C   0  0  0  0  0  0  0  0  0  0  0  0
   -5.1601    3.9968   -0.9274 C   0  0  0  0  0  0  0  0  0  0  0  0
   -5.6011    5.3208   -1.0048 C   0  0  0  0  0  0  0  0  0  0  0  0
   -6.6722    5.6575   -0.1823 C   0  0  0  0  0  0  0  0  0  0  0  0
   -7.2894    6.8508    0.0733 N   0  0  0  0  0  0  0  0  0  0  0  0
   -8.2783    6.6499    1.0088 C   0  0  0  0  0  0  0  0  0  0  0  0
   -9.1216    7.7276    1.5264 C   0  0  0  0  0  0  0  0  0  0  0  0
  -10.4103    7.4320    1.9956 C   0  0  0  0  0  0  0  0  0  0  0  0
  -11.2558    8.4473    2.4506 C   0  0  0  0  0  0  0  0  0  0  0  0
  -10.8081    9.7688    2.4563 C   0  0  0  0  0  0  0  0  0  0  0  0
  -11.8577   11.0233    2.9915 Cl  0  0  0  0  0  0  0  0  0  0  0  0
   -9.5249   10.0746    2.0220 C   0  0  0  0  0  0  0  0  0  0  0  0
   -8.6822    9.0637    1.5641 C   0  0  0  0  0  0  0  0  0  0  0  0
   -8.3580    5.3660    1.3129 N   0  0  0  0  0  0  0  0  0  0  0  0
   -7.3505    4.7440    0.6125 C   0  0  0  0  0  0  0  0  0  0  0  0
   -6.9373    3.4018    0.6283 C   0  0  0  0  0  0  0  0  0  0  0  0
   -3.2445    0.0469    2.9290 C   0  0  0  0  0  0  0  0  0  0  0  0
   -3.4353   -0.6060    4.1529 C   0  0  0  0  0  0  0  0  0  0  0  0
   -4.8303   -3.4837    5.3979 H   0  0  0  0  0  0  0  0  0  0  0  0
   -4.9027   -1.9089    6.2027 H   0  0  0  0  0  0  0  0  0  0  0  0
   -3.3377   -2.7406    5.9855 H   0  0  0  0  0  0  0  0  0  0  0  0
   -5.1399   -3.3328    3.0427 H   0  0  0  0  0  0  0  0  0  0  0  0
   -4.7989   -2.2005    0.8990 H   0  0  0  0  0  0  0  0  0  0  0  0
   -3.9524   -0.4284   -0.4043 H   0  0  0  0  0  0  0  0  0  0  0  0
   -2.3866    0.0731    0.2038 H   0  0  0  0  0  0  0  0  0  0  0  0
   -5.8494    1.0579    0.4727 H   0  0  0  0  0  0  0  0  0  0  0  0
   -4.2993    3.7041   -1.5263 H   0  0  0  0  0  0  0  0  0  0  0  0
   -5.0976    6.0471   -1.6330 H   0  0  0  0  0  0  0  0  0  0  0  0
   -7.0477    7.7366   -0.3430 H   0  0  0  0  0  0  0  0  0  0  0  0
  -10.7634    6.4022    1.9940 H   0  0  0  0  0  0  0  0  0  0  0  0
  -12.2568    8.2000    2.7950 H   0  0  0  0  0  0  0  0  0  0  0  0
   -9.1708   11.1037    2.0456 H   0  0  0  0  0  0  0  0  0  0  0  0
   -7.6736    9.3296    1.2556 H   0  0  0  0  0  0  0  0  0  0  0  0
   -7.4440    2.6971    1.2758 H   0  0  0  0  0  0  0  0  0  0  0  0
   -2.6856    0.9824    2.9053 H   0  0  0  0  0  0  0  0  0  0  0  0
   -3.0323   -0.1642    5.0626 H   0  0  0  0  0  0  0  0  0  0  0  0
  1  2  1  0  0  0  0
  1 28  1  0  0  0  0
  1 29  1  0  0  0  0
  1 30  1  0  0  0  0
  2  3  1  0  0  0  0
  2 27  2  0  0  0  0
  3  4  2  0  0  0  0
  3 31  1  0  0  0  0
  4  5  1  0  0  0  0
  4 32  1  0  0  0  0
  5  6  1  0  0  0  0
  5 26  2  0  0  0  0
  6  7  1  0  0  0  0
  6 33  1  0  0  0  0
  6 34  1  0  0  0  0
  7  8  2  0  0  0  0
  7  9  1  0  0  0  0
  9 10  1  0  0  0  0
  9 35  1  0  0  0  0
 10 11  1  0  0  0  0
 10 25  2  0  0  0  0
 11 12  2  0  0  0  0
 11 36  1  0  0  0  0
 12 13  1  0  0  0  0
 12 37  1  0  0  0  0
 13 14  1  0  0  0  0
 13 24  2  0  0  0  0
 14 15  1  0  0  0  0
 14 38  1  0  0  0  0
 15 16  1  0  0  0  0
 15 23  2  0  0  0  0
 16 17  1  0  0  0  0
 16 22  2  0  0  0  0
 17 18  2  0  0  0  0
 17 39  1  0  0  0  0
 18 19  1  0  0  0  0
 18 40  1  0  0  0  0
 19 20  1  0  0  0  0
 19 21  2  0  0  0  0
 21 22  1  0  0  0  0
 21 41  1  0  0  0  0
 22 42  1  0  0  0  0
 23 24  1  0  0  0  0
 24 25  1  0  0  0  0
 25 43  1  0  0  0  0
 26 27  1  0  0  0  0
 26 44  1  0  0  0  0
 27 45  1  0  0  0  0
M  END
$$$$
