CHEMBL318728
 OpenBabel04072215363D

 30 32  0  0  0  0  0  0  0  0999 V2000
    1.0549    0.1938    1.5082 C   0  0  0  0  0  0  0  0  0  0  0  0
    0.2728   -0.9528    1.5411 C   0  0  0  0  0  0  0  0  0  0  0  0
   -0.9951   -0.9473    0.9561 C   0  0  0  0  0  0  0  0  0  0  0  0
   -1.5013    0.1877    0.3047 C   0  0  0  0  0  0  0  0  0  0  0  0
   -2.7870    0.2312   -0.2829 N   0  0  0  0  0  0  0  0  0  0  0  0
   -3.6971   -0.7584   -0.2184 C   0  0  0  0  0  0  0  0  0  0  0  0
   -3.8874   -1.6590    0.7244 N   0  0  0  0  0  0  0  0  0  0  0  0
   -4.8487   -2.4796    0.2179 C   0  0  0  0  0  0  0  0  0  0  0  0
   -5.2497   -2.0399   -1.0239 C   0  0  0  0  0  0  0  0  0  0  0  0
   -6.1809   -2.5509   -2.0205 C   0  0  0  0  0  0  0  0  0  0  0  0
   -6.9167   -3.7159   -1.7427 C   0  0  0  0  0  0  0  0  0  0  0  0
   -7.7859   -4.2667   -2.6851 C   0  0  0  0  0  0  0  0  0  0  0  0
   -7.9374   -3.6561   -3.9243 C   0  0  0  0  0  0  0  0  0  0  0  0
   -7.2235   -2.4943   -4.2171 C   0  0  0  0  0  0  0  0  0  0  0  0
   -6.3491   -1.9426   -3.2700 C   0  0  0  0  0  0  0  0  0  0  0  0
   -4.5294   -0.9019   -1.2989 O   0  0  0  0  0  0  0  0  0  0  0  0
   -0.7106    1.3455    0.3133 C   0  0  0  0  0  0  0  0  0  0  0  0
    0.5607    1.3464    0.9028 C   0  0  0  0  0  0  0  0  0  0  0  0
    2.0422    0.1889    1.9615 H   0  0  0  0  0  0  0  0  0  0  0  0
    0.6375   -1.8576    2.0200 H   0  0  0  0  0  0  0  0  0  0  0  0
   -1.5678   -1.8692    1.0047 H   0  0  0  0  0  0  0  0  0  0  0  0
   -2.8570    0.8647   -1.0694 H   0  0  0  0  0  0  0  0  0  0  0  0
   -5.1812   -3.3537    0.7600 H   0  0  0  0  0  0  0  0  0  0  0  0
   -6.8171   -4.2224   -0.7854 H   0  0  0  0  0  0  0  0  0  0  0  0
   -8.3380   -5.1732   -2.4501 H   0  0  0  0  0  0  0  0  0  0  0  0
   -8.6077   -4.0857   -4.6641 H   0  0  0  0  0  0  0  0  0  0  0  0
   -7.3409   -2.0174   -5.1865 H   0  0  0  0  0  0  0  0  0  0  0  0
   -5.7991   -1.0414   -3.5263 H   0  0  0  0  0  0  0  0  0  0  0  0
   -1.0774    2.2660   -0.1339 H   0  0  0  0  0  0  0  0  0  0  0  0
    1.1633    2.2503    0.8938 H   0  0  0  0  0  0  0  0  0  0  0  0
  1  2  1  0  0  0  0
  1 18  2  0  0  0  0
  1 19  1  0  0  0  0
  2  3  2  0  0  0  0
  2 20  1  0  0  0  0
  3  4  1  0  0  0  0
  3 21  1  0  0  0  0
  4  5  1  0  0  0  0
  4 17  2  0  0  0  0
  5  6  1  0  0  0  0
  5 22  1  0  0  0  0
  6  7  2  0  0  0  0
  6 16  1  0  0  0  0
  7  8  1  0  0  0  0
  8  9  2  0  0  0  0
  8 23  1  0  0  0  0
  9 10  1  0  0  0  0
  9 16  1  0  0  0  0
 10 11  1  0  0  0  0
 10 15  2  0  0  0  0
 11 12  2  0  0  0  0
 11 24  1  0  0  0  0
 12 13  1  0  0  0  0
 12 25  1  0  0  0  0
 13 14  2  0  0  0  0
 13 26  1  0  0  0  0
 14 15  1  0  0  0  0
 14 27  1  0  0  0  0
 15 28  1  0  0  0  0
 17 18  1  0  0  0  0
 17 29  1  0  0  0  0
 18 30  1  0  0  0  0
M  END
$$$$
