CHEMBL4463765
 OpenBabel04072215383D

 57 60  0  0  0  0  0  0  0  0999 V2000
    1.0488    0.0531   -0.2956 C   0  0  0  0  0  0  0  0  0  0  0  0
    2.4449   -0.2096   -0.1889 O   0  0  0  0  0  0  0  0  0  0  0  0
    2.9414   -0.4262    1.0663 C   0  0  0  0  0  0  0  0  0  0  0  0
    4.0481    0.3721    1.3916 C   0  0  0  0  0  0  0  0  0  0  0  0
    4.7710    0.2053    2.6028 C   0  0  0  0  0  0  0  0  0  0  0  0
    5.9060    0.9405    2.9882 C   0  0  0  0  0  0  0  0  0  0  0  0
    6.3568    2.0210    2.1753 N   0  0  0  0  0  0  0  0  0  0  0  0
    7.6447    2.5972    2.3009 C   0  0  0  0  0  0  0  0  0  0  0  0
    8.7795    1.7791    2.3269 C   0  0  0  0  0  0  0  0  0  0  0  0
   10.0449    2.3081    2.5763 C   0  0  0  0  0  0  0  0  0  0  0  0
   10.2119    3.6793    2.8007 C   0  0  0  0  0  0  0  0  0  0  0  0
   11.5732    4.1887    3.1808 C   0  0  0  0  0  0  0  0  0  0  0  0
    9.0867    4.5126    2.6938 C   0  0  0  0  0  0  0  0  0  0  0  0
    9.2174    6.3947    2.9297 Br  0  0  0  0  0  0  0  0  0  0  0  0
    7.8144    3.9784    2.4373 C   0  0  0  0  0  0  0  0  0  0  0  0
    6.5910    0.6618    4.1178 N   0  0  0  0  0  0  0  0  0  0  0  0
    6.1286   -0.3291    4.8776 C   0  0  0  0  0  0  0  0  0  0  0  0
    5.0400   -1.0633    4.6283 N   0  0  0  0  0  0  0  0  0  0  0  0
    4.3795   -0.8000    3.4946 C   0  0  0  0  0  0  0  0  0  0  0  0
    3.2785   -1.5774    3.1618 C   0  0  0  0  0  0  0  0  0  0  0  0
    2.5717   -1.4357    1.9489 C   0  0  0  0  0  0  0  0  0  0  0  0
    1.6017   -2.3881    1.8159 O   0  0  0  0  0  0  0  0  0  0  0  0
    1.2987   -2.9600    0.5481 C   0  0  0  0  0  0  0  0  0  0  0  0
    2.4936   -3.4313   -0.2906 C   0  0  0  0  0  0  0  0  0  0  0  0
    2.1101   -3.7548   -1.6542 N   0  0  0  0  0  0  0  0  0  0  0  0
    1.4816   -4.9491   -1.9419 C   0  0  0  0  0  0  0  0  0  0  0  0
    1.3002   -5.8071   -1.0832 O   0  0  0  0  0  0  0  0  0  0  0  0
    1.0317   -5.1307   -3.3685 C   0  0  0  0  0  0  0  0  0  0  0  0
   -0.3868   -5.4128   -3.4252 N   0  0  0  0  0  0  0  0  0  0  0  0
   -1.0584   -6.4538   -2.8528 C   0  0  0  0  0  0  0  0  0  0  0  0
   -2.3372   -6.3744   -3.1432 N   0  0  0  0  0  0  0  0  0  0  0  0
   -2.3978   -5.2415   -3.9174 C   0  0  0  0  0  0  0  0  0  0  0  0
   -3.6468   -4.7263   -4.4642 N   0  3  0  0  0  0  0  0  0  0  0  0
   -4.6841   -5.3395   -4.1764 O   0  0  0  0  0  0  0  0  0  0  0  0
   -3.5929   -3.7089   -5.1766 O   0  5  0  0  0  0  0  0  0  0  0  0
   -1.2209   -4.6160   -4.1259 N   0  0  0  0  0  0  0  0  0  0  0  0
    0.8903    1.0906   -0.6002 H   0  0  0  0  0  0  0  0  0  0  0  0
    0.4780   -0.1472    0.6162 H   0  0  0  0  0  0  0  0  0  0  0  0
    0.6676   -0.5693   -1.1139 H   0  0  0  0  0  0  0  0  0  0  0  0
    4.3866    1.1101    0.6652 H   0  0  0  0  0  0  0  0  0  0  0  0
    5.6225    2.7187    2.1258 H   0  0  0  0  0  0  0  0  0  0  0  0
    8.6732    0.7055    2.1897 H   0  0  0  0  0  0  0  0  0  0  0  0
   10.8921    1.6280    2.6276 H   0  0  0  0  0  0  0  0  0  0  0  0
   12.2922    3.3670    3.2771 H   0  0  0  0  0  0  0  0  0  0  0  0
   11.5313    4.6865    4.1555 H   0  0  0  0  0  0  0  0  0  0  0  0
   11.9583    4.8788    2.4255 H   0  0  0  0  0  0  0  0  0  0  0  0
    6.9547    4.6408    2.3932 H   0  0  0  0  0  0  0  0  0  0  0  0
    6.6894   -0.5596    5.7765 H   0  0  0  0  0  0  0  0  0  0  0  0
    2.9838   -2.3682    3.8534 H   0  0  0  0  0  0  0  0  0  0  0  0
    0.6348   -2.3054   -0.0105 H   0  0  0  0  0  0  0  0  0  0  0  0
    0.6628   -3.8290    0.7603 H   0  0  0  0  0  0  0  0  0  0  0  0
    2.9345   -4.3153    0.1837 H   0  0  0  0  0  0  0  0  0  0  0  0
    3.2894   -2.6852   -0.3568 H   0  0  0  0  0  0  0  0  0  0  0  0
    2.1603   -3.0128   -2.3531 H   0  0  0  0  0  0  0  0  0  0  0  0
    1.5636   -5.9816   -3.8041 H   0  0  0  0  0  0  0  0  0  0  0  0
    1.2369   -4.2419   -3.9743 H   0  0  0  0  0  0  0  0  0  0  0  0
   -0.5813   -7.2065   -2.2375 H   0  0  0  0  0  0  0  0  0  0  0  0
  1  2  1  0  0  0  0
  1 37  1  0  0  0  0
  1 38  1  0  0  0  0
  1 39  1  0  0  0  0
  2  3  1  0  0  0  0
  3  4  1  0  0  0  0
  3 21  2  0  0  0  0
  4  5  2  0  0  0  0
  4 40  1  0  0  0  0
  5  6  1  0  0  0  0
  5 19  1  0  0  0  0
  6  7  1  0  0  0  0
  6 16  2  0  0  0  0
  7  8  1  0  0  0  0
  7 41  1  0  0  0  0
  8  9  1  0  0  0  0
  8 15  2  0  0  0  0
  9 10  2  0  0  0  0
  9 42  1  0  0  0  0
 10 11  1  0  0  0  0
 10 43  1  0  0  0  0
 11 12  1  0  0  0  0
 11 13  2  0  0  0  0
 12 44  1  0  0  0  0
 12 45  1  0  0  0  0
 12 46  1  0  0  0  0
 13 14  1  0  0  0  0
 13 15  1  0  0  0  0
 15 47  1  0  0  0  0
 16 17  1  0  0  0  0
 17 18  2  0  0  0  0
 17 48  1  0  0  0  0
 18 19  1  0  0  0  0
 19 20  2  0  0  0  0
 20 21  1  0  0  0  0
 20 49  1  0  0  0  0
 21 22  1  0  0  0  0
 22 23  1  0  0  0  0
 23 24  1  0  0  0  0
 23 50  1  0  0  0  0
 23 51  1  0  0  0  0
 24 25  1  0  0  0  0
 24 52  1  0  0  0  0
 24 53  1  0  0  0  0
 25 26  1  0  0  0  0
 25 54  1  0  0  0  0
 26 27  2  0  0  0  0
 26 28  1  0  0  0  0
 28 29  1  0  0  0  0
 28 55  1  0  0  0  0
 28 56  1  0  0  0  0
 29 30  1  0  0  0  0
 29 36  1  0  0  0  0
 30 31  2  0  0  0  0
 30 57  1  0  0  0  0
 31 32  1  0  0  0  0
 32 33  1  0  0  0  0
 32 36  2  0  0  0  0
 33 34  2  0  0  0  0
 33 35  1  0  0  0  0
M  CHG  2  33   1  35  -1
M  END
$$$$
