CHEMBL1241492
 OpenBabel04072215363D

 35 38  0  0  0  0  0  0  0  0999 V2000
    1.9188    0.7081    1.2097 C   0  0  0  0  0  0  0  0  0  0  0  0
    2.5831   -0.1364    0.1223 C   0  0  0  0  0  0  0  0  0  0  0  0
    3.7450    0.6156   -0.5268 C   0  0  0  0  0  0  0  0  0  0  0  0
    3.0011   -1.4405    0.6293 N   0  0  0  0  0  0  0  0  0  0  0  0
    3.9166   -1.5308    1.6166 N   0  0  0  0  0  0  0  0  0  0  0  0
    4.0810   -2.8541    1.8101 C   0  0  0  0  0  0  0  0  0  0  0  0
    5.0923   -3.3245    2.7731 C   0  0  0  0  0  0  0  0  0  0  0  0
    5.8055   -4.5366    2.5203 C   0  0  0  0  0  0  0  0  0  0  0  0
    6.7853   -5.0772    3.3785 C   0  0  0  0  0  0  0  0  0  0  0  0
    7.0720   -4.2830    4.4986 C   0  0  0  0  0  0  0  0  0  0  0  0
    7.9625   -4.4871    5.4743 N   0  0  0  0  0  0  0  0  0  0  0  0
    7.8616   -3.3871    6.3104 O   0  0  0  0  0  0  0  0  0  0  0  0
    6.8885   -2.4994    5.8799 N   0  0  0  0  0  0  0  0  0  0  0  0
    6.3846   -3.0259    4.7583 C   0  0  0  0  0  0  0  0  0  0  0  0
    5.3750   -2.5290    3.9106 C   0  0  0  0  0  0  0  0  0  0  0  0
    3.1980   -3.6083    0.9709 C   0  0  0  0  0  0  0  0  0  0  0  0
    2.8418   -4.9466    0.7257 C   0  0  0  0  0  0  0  0  0  0  0  0
    3.3008   -6.0463    1.4393 N   0  0  0  0  0  0  0  0  0  0  0  0
    1.9672   -5.2163   -0.2631 N   0  0  0  0  0  0  0  0  0  0  0  0
    1.4459   -4.1927   -0.9640 C   0  0  0  0  0  0  0  0  0  0  0  0
    1.6700   -2.8820   -0.7921 N   0  0  0  0  0  0  0  0  0  0  0  0
    2.5553   -2.6579    0.1925 C   0  0  0  0  0  0  0  0  0  0  0  0
    1.5879    1.6702    0.8044 H   0  0  0  0  0  0  0  0  0  0  0  0
    2.6027    0.9107    2.0409 H   0  0  0  0  0  0  0  0  0  0  0  0
    1.0405    0.1956    1.6173 H   0  0  0  0  0  0  0  0  0  0  0  0
    1.8335   -0.3229   -0.6562 H   0  0  0  0  0  0  0  0  0  0  0  0
    4.5358    0.8417    0.1966 H   0  0  0  0  0  0  0  0  0  0  0  0
    3.4000    1.5628   -0.9549 H   0  0  0  0  0  0  0  0  0  0  0  0
    4.1897    0.0244   -1.3347 H   0  0  0  0  0  0  0  0  0  0  0  0
    5.6140   -5.0879    1.5977 H   0  0  0  0  0  0  0  0  0  0  0  0
    7.2943   -6.0097    3.1738 H   0  0  0  0  0  0  0  0  0  0  0  0
    4.8742   -1.5901    4.1134 H   0  0  0  0  0  0  0  0  0  0  0  0
    3.4293   -5.8803    2.4293 H   0  0  0  0  0  0  0  0  0  0  0  0
    2.7341   -6.8579    1.2129 H   0  0  0  0  0  0  0  0  0  0  0  0
    0.7597   -4.4626   -1.7595 H   0  0  0  0  0  0  0  0  0  0  0  0
  1  2  1  0  0  0  0
  1 23  1  0  0  0  0
  1 24  1  0  0  0  0
  1 25  1  0  0  0  0
  2  3  1  0  0  0  0
  2  4  1  0  0  0  0
  2 26  1  0  0  0  0
  3 27  1  0  0  0  0
  3 28  1  0  0  0  0
  3 29  1  0  0  0  0
  4  5  1  0  0  0  0
  4 22  1  0  0  0  0
  5  6  2  0  0  0  0
  6  7  1  0  0  0  0
  6 16  1  0  0  0  0
  7  8  1  0  0  0  0
  7 15  2  0  0  0  0
  8  9  2  0  0  0  0
  8 30  1  0  0  0  0
  9 10  1  0  0  0  0
  9 31  1  0  0  0  0
 10 11  2  0  0  0  0
 10 14  1  0  0  0  0
 11 12  1  0  0  0  0
 12 13  1  0  0  0  0
 13 14  2  0  0  0  0
 14 15  1  0  0  0  0
 15 32  1  0  0  0  0
 16 17  1  0  0  0  0
 16 22  2  0  0  0  0
 17 18  1  0  0  0  0
 17 19  2  0  0  0  0
 18 33  1  0  0  0  0
 18 34  1  0  0  0  0
 19 20  1  0  0  0  0
 20 21  2  0  0  0  0
 20 35  1  0  0  0  0
 21 22  1  0  0  0  0
M  END
$$$$
