CHEMBL3758940
 OpenBabel04072215373D

 50 52  0  0  0  0  0  0  0  0999 V2000
    2.6318   -1.3766    0.7682 C   0  0  0  0  0  0  0  0  0  0  0  0
    2.3624   -0.1302    0.1363 O   0  0  0  0  0  0  0  0  0  0  0  0
    3.0572    0.2105   -0.9892 C   0  0  0  0  0  0  0  0  0  0  0  0
    4.2333   -0.4290   -1.3939 C   0  0  0  0  0  0  0  0  0  0  0  0
    4.8792   -0.1192   -2.5816 C   0  0  0  0  0  0  0  0  0  0  0  0
    5.9822   -0.8084   -2.8790 N   0  0  0  0  0  0  0  0  0  0  0  0
    6.5948   -0.4899   -4.0191 C   0  0  0  0  0  0  0  0  0  0  0  0
    6.2140    0.4596   -4.8707 N   0  0  0  0  0  0  0  0  0  0  0  0
    5.0992    1.1538   -4.5725 C   0  0  0  0  0  0  0  0  0  0  0  0
    4.6723    2.1889   -5.4532 N   0  0  0  0  0  0  0  0  0  0  0  0
    5.2527    2.5415   -6.6964 C   0  0  0  0  0  0  0  0  0  0  0  0
    5.8839    1.6076   -7.5288 C   0  0  0  0  0  0  0  0  0  0  0  0
    6.4736    1.9898   -8.7363 C   0  0  0  0  0  0  0  0  0  0  0  0
    6.3873    3.3116   -9.1533 C   0  0  0  0  0  0  0  0  0  0  0  0
    7.2141    3.8403  -10.7679 Br  0  0  0  0  0  0  0  0  0  0  0  0
    5.6923    4.2440   -8.3878 C   0  0  0  0  0  0  0  0  0  0  0  0
    5.1195    3.8562   -7.1707 C   0  0  0  0  0  0  0  0  0  0  0  0
    4.3559    0.8851   -3.4047 C   0  0  0  0  0  0  0  0  0  0  0  0
    3.1689    1.5451   -3.0045 C   0  0  0  0  0  0  0  0  0  0  0  0
    2.5504    1.2442   -1.7859 C   0  0  0  0  0  0  0  0  0  0  0  0
    1.4259    1.9842   -1.5270 O   0  0  0  0  0  0  0  0  0  0  0  0
    1.3258    2.4950   -0.1933 C   0  0  0  0  0  0  0  0  0  0  0  0
    0.2248    3.5609   -0.1463 C   0  0  0  0  0  0  0  0  0  0  0  0
   -1.1175    2.9877   -0.6107 C   0  0  0  0  0  0  0  0  0  0  0  0
   -2.2743    3.9686   -0.4496 C   0  0  0  0  0  0  0  0  0  0  0  0
   -3.5750    3.3663   -0.9456 C   0  0  0  0  0  0  0  0  0  0  0  0
   -3.6927    2.2269   -1.3871 O   0  0  0  0  0  0  0  0  0  0  0  0
   -4.6502    4.2216   -0.8619 N   0  0  0  0  0  0  0  0  0  0  0  0
   -5.8978    3.6472   -1.2065 O   0  0  0  0  0  0  0  0  0  0  0  0
    3.2729   -1.2090    1.6387 H   0  0  0  0  0  0  0  0  0  0  0  0
    3.0685   -2.1355    0.1129 H   0  0  0  0  0  0  0  0  0  0  0  0
    1.6776   -1.7811    1.1184 H   0  0  0  0  0  0  0  0  0  0  0  0
    4.6926   -1.1996   -0.7828 H   0  0  0  0  0  0  0  0  0  0  0  0
    7.4855   -1.0535   -4.2756 H   0  0  0  0  0  0  0  0  0  0  0  0
    4.4646    3.0175   -4.9049 H   0  0  0  0  0  0  0  0  0  0  0  0
    5.9429    0.5614   -7.2406 H   0  0  0  0  0  0  0  0  0  0  0  0
    6.9954    1.2449   -9.3305 H   0  0  0  0  0  0  0  0  0  0  0  0
    5.5961    5.2728   -8.7225 H   0  0  0  0  0  0  0  0  0  0  0  0
    4.5802    4.6005   -6.5898 H   0  0  0  0  0  0  0  0  0  0  0  0
    2.7145    2.3015   -3.6404 H   0  0  0  0  0  0  0  0  0  0  0  0
    2.2776    2.9416    0.1203 H   0  0  0  0  0  0  0  0  0  0  0  0
    1.0444    1.7022    0.5049 H   0  0  0  0  0  0  0  0  0  0  0  0
    0.4986    4.4037   -0.7919 H   0  0  0  0  0  0  0  0  0  0  0  0
    0.1394    3.9412    0.8785 H   0  0  0  0  0  0  0  0  0  0  0  0
   -1.3364    2.0729   -0.0448 H   0  0  0  0  0  0  0  0  0  0  0  0
   -1.0421    2.6935   -1.6652 H   0  0  0  0  0  0  0  0  0  0  0  0
   -2.0762    4.8859   -1.0166 H   0  0  0  0  0  0  0  0  0  0  0  0
   -2.3966    4.2349    0.6085 H   0  0  0  0  0  0  0  0  0  0  0  0
   -4.6766    5.0069   -0.2201 H   0  0  0  0  0  0  0  0  0  0  0  0
   -5.6394    2.7421   -1.4911 H   0  0  0  0  0  0  0  0  0  0  0  0
  1  2  1  0  0  0  0
  1 30  1  0  0  0  0
  1 31  1  0  0  0  0
  1 32  1  0  0  0  0
  2  3  1  0  0  0  0
  3  4  1  0  0  0  0
  3 20  2  0  0  0  0
  4  5  2  0  0  0  0
  4 33  1  0  0  0  0
  5  6  1  0  0  0  0
  5 18  1  0  0  0  0
  6  7  2  0  0  0  0
  7  8  1  0  0  0  0
  7 34  1  0  0  0  0
  8  9  2  0  0  0  0
  9 10  1  0  0  0  0
  9 18  1  0  0  0  0
 10 11  1  0  0  0  0
 10 35  1  0  0  0  0
 11 12  1  0  0  0  0
 11 17  2  0  0  0  0
 12 13  2  0  0  0  0
 12 36  1  0  0  0  0
 13 14  1  0  0  0  0
 13 37  1  0  0  0  0
 14 15  1  0  0  0  0
 14 16  2  0  0  0  0
 16 17  1  0  0  0  0
 16 38  1  0  0  0  0
 17 39  1  0  0  0  0
 18 19  2  0  0  0  0
 19 20  1  0  0  0  0
 19 40  1  0  0  0  0
 20 21  1  0  0  0  0
 21 22  1  0  0  0  0
 22 23  1  0  0  0  0
 22 41  1  0  0  0  0
 22 42  1  0  0  0  0
 23 24  1  0  0  0  0
 23 43  1  0  0  0  0
 23 44  1  0  0  0  0
 24 25  1  0  0  0  0
 24 45  1  0  0  0  0
 24 46  1  0  0  0  0
 25 26  1  0  0  0  0
 25 47  1  0  0  0  0
 25 48  1  0  0  0  0
 26 27  2  0  0  0  0
 26 28  1  0  0  0  0
 28 29  1  0  0  0  0
 28 49  1  0  0  0  0
 29 50  1  0  0  0  0
M  END
$$$$
