CHEMBL13354
 OpenBabel04072215363D

 55 58  0  0  0  0  0  0  0  0999 V2000
    2.6333    0.5101    0.0022 C   0  0  0  0  0  0  0  0  0  0  0  0
    1.1729    0.2321   -0.0489 C   0  0  0  0  0  0  0  0  0  0  0  0
    0.7365   -1.0696    0.0417 N   0  0  0  0  0  0  0  0  0  0  0  0
   -0.6304   -1.1354    0.0370 C   0  0  0  0  0  0  0  0  0  0  0  0
   -1.3334   -2.3711    0.0690 C   0  0  0  0  0  0  0  0  0  0  0  0
   -0.8670   -3.6233    0.1184 C   0  0  0  0  0  0  0  0  0  0  0  0
    0.5384   -4.1732    0.1790 C   0  0  0  0  0  0  0  0  0  0  0  0
    1.5874   -3.5590    0.1984 O   0  0  0  0  0  0  0  0  0  0  0  0
    0.3924   -5.5506    0.2110 N   0  0  0  0  0  0  0  0  0  0  0  0
   -0.9447   -5.9245    0.1674 C   0  0  0  0  0  0  0  0  0  0  0  0
   -1.4503   -7.2110    0.1776 C   0  0  0  0  0  0  0  0  0  0  0  0
   -2.8424   -7.3539    0.1224 C   0  0  0  0  0  0  0  0  0  0  0  0
   -3.6661   -6.2178    0.0569 C   0  0  0  0  0  0  0  0  0  0  0  0
   -4.9935   -6.3822   -0.0063 F   0  0  0  0  0  0  0  0  0  0  0  0
   -3.1436   -4.9270    0.0522 C   0  0  0  0  0  0  0  0  0  0  0  0
   -1.7655   -4.7953    0.1098 C   0  0  0  0  0  0  0  0  0  0  0  0
   -1.0966    0.1705   -0.0156 C   0  0  0  0  0  0  0  0  0  0  0  0
   -2.5228    0.6205   -0.0066 C   0  0  0  0  0  0  0  0  0  0  0  0
    0.0470    1.0458   -0.1231 C   0  0  0  0  0  0  0  0  0  0  0  0
   -0.0368    2.5040   -0.2514 C   0  0  0  0  0  0  0  0  0  0  0  0
   -0.9705    3.1436    0.2260 O   0  0  0  0  0  0  0  0  0  0  0  0
    0.9473    3.0997   -1.0117 N   0  0  0  0  0  0  0  0  0  0  0  0
    0.9595    4.5368   -1.1970 C   0  0  0  0  0  0  0  0  0  0  0  0
    1.5962    4.9862   -2.5280 C   0  0  0  0  0  0  0  0  0  0  0  0
    1.6716    6.4470   -2.6350 N   0  0  0  0  0  0  0  0  0  0  0  0
    0.3768    7.1547   -2.7058 C   0  0  0  0  0  0  0  0  0  0  0  0
   -0.1434    7.5622   -4.0998 C   0  0  0  0  0  0  0  0  0  0  0  0
    0.8830    8.0751   -4.9512 O   0  0  0  0  0  0  0  0  0  0  0  0
    1.9449    7.1239   -5.0516 C   0  0  0  0  0  0  0  0  0  0  0  0
    2.5946    6.9193   -3.6794 C   0  0  0  0  0  0  0  0  0  0  0  0
    3.2109   -0.4159    0.1040 H   0  0  0  0  0  0  0  0  0  0  0  0
    2.8731    1.1459    0.8599 H   0  0  0  0  0  0  0  0  0  0  0  0
    2.9784    0.9984   -0.9123 H   0  0  0  0  0  0  0  0  0  0  0  0
    1.3577   -1.8704    0.1109 H   0  0  0  0  0  0  0  0  0  0  0  0
   -2.4162   -2.2536    0.0433 H   0  0  0  0  0  0  0  0  0  0  0  0
    1.1795   -6.1811    0.2562 H   0  0  0  0  0  0  0  0  0  0  0  0
   -0.8054   -8.0795    0.2265 H   0  0  0  0  0  0  0  0  0  0  0  0
   -3.2965   -8.3361    0.1205 H   0  0  0  0  0  0  0  0  0  0  0  0
   -3.8115   -4.0780   -0.0040 H   0  0  0  0  0  0  0  0  0  0  0  0
   -3.2249   -0.2166    0.0368 H   0  0  0  0  0  0  0  0  0  0  0  0
   -2.7483    1.1910   -0.9130 H   0  0  0  0  0  0  0  0  0  0  0  0
   -2.7195    1.2515    0.8662 H   0  0  0  0  0  0  0  0  0  0  0  0
    1.7215    2.5416   -1.3329 H   0  0  0  0  0  0  0  0  0  0  0  0
    1.5083    4.9632   -0.3493 H   0  0  0  0  0  0  0  0  0  0  0  0
   -0.0720    4.8914   -1.1324 H   0  0  0  0  0  0  0  0  0  0  0  0
    1.0745    4.5396   -3.3827 H   0  0  0  0  0  0  0  0  0  0  0  0
    2.6162    4.5762   -2.5374 H   0  0  0  0  0  0  0  0  0  0  0  0
    0.5099    8.0751   -2.1250 H   0  0  0  0  0  0  0  0  0  0  0  0
   -0.4269    6.6121   -2.1989 H   0  0  0  0  0  0  0  0  0  0  0  0
   -0.8922    8.3544   -3.9839 H   0  0  0  0  0  0  0  0  0  0  0  0
   -0.6311    6.7214   -4.6049 H   0  0  0  0  0  0  0  0  0  0  0  0
    2.6810    7.5246   -5.7555 H   0  0  0  0  0  0  0  0  0  0  0  0
    1.5607    6.1849   -5.4673 H   0  0  0  0  0  0  0  0  0  0  0  0
    2.9818    7.8881   -3.3394 H   0  0  0  0  0  0  0  0  0  0  0  0
    3.4645    6.2590   -3.7719 H   0  0  0  0  0  0  0  0  0  0  0  0
  1  2  1  0  0  0  0
  1 31  1  0  0  0  0
  1 32  1  0  0  0  0
  1 33  1  0  0  0  0
  2  3  1  0  0  0  0
  2 19  2  0  0  0  0
  3  4  1  0  0  0  0
  3 34  1  0  0  0  0
  4  5  1  0  0  0  0
  4 17  2  0  0  0  0
  5  6  2  0  0  0  0
  5 35  1  0  0  0  0
  6  7  1  0  0  0  0
  6 16  1  0  0  0  0
  7  8  2  0  0  0  0
  7  9  1  0  0  0  0
  9 10  1  0  0  0  0
  9 36  1  0  0  0  0
 10 11  1  0  0  0  0
 10 16  2  0  0  0  0
 11 12  2  0  0  0  0
 11 37  1  0  0  0  0
 12 13  1  0  0  0  0
 12 38  1  0  0  0  0
 13 14  1  0  0  0  0
 13 15  2  0  0  0  0
 15 16  1  0  0  0  0
 15 39  1  0  0  0  0
 17 18  1  0  0  0  0
 17 19  1  0  0  0  0
 18 40  1  0  0  0  0
 18 41  1  0  0  0  0
 18 42  1  0  0  0  0
 19 20  1  0  0  0  0
 20 21  2  0  0  0  0
 20 22  1  0  0  0  0
 22 23  1  0  0  0  0
 22 43  1  0  0  0  0
 23 24  1  0  0  0  0
 23 44  1  0  0  0  0
 23 45  1  0  0  0  0
 24 25  1  0  0  0  0
 24 46  1  0  0  0  0
 24 47  1  0  0  0  0
 25 26  1  0  0  0  0
 25 30  1  0  0  0  0
 26 27  1  0  0  0  0
 26 48  1  0  0  0  0
 26 49  1  0  0  0  0
 27 28  1  0  0  0  0
 27 50  1  0  0  0  0
 27 51  1  0  0  0  0
 28 29  1  0  0  0  0
 29 30  1  0  0  0  0
 29 52  1  0  0  0  0
 29 53  1  0  0  0  0
 30 54  1  0  0  0  0
 30 55  1  0  0  0  0
M  END
$$$$
