CHEMBL3931839
 OpenBabel04072215373D

 51 54  0  0  0  0  0  0  0  0999 V2000
    2.7741    1.5959    0.4221 O   0  0  0  0  0  0  0  0  0  0  0  0
    2.3160    0.4883    0.6741 C   0  0  0  0  0  0  0  0  0  0  0  0
    0.9550    0.2257    0.7994 N   0  0  0  0  0  0  0  0  0  0  0  0
   -0.0753    1.1927    0.6728 C   0  0  0  0  0  0  0  0  0  0  0  0
    0.1238    2.4473    0.1043 C   0  0  0  0  0  0  0  0  0  0  0  0
   -0.9186    3.3532    0.0962 C   0  0  0  0  0  0  0  0  0  0  0  0
   -2.1389    3.0897    0.5990 N   0  0  0  0  0  0  0  0  0  0  0  0
   -2.3482    1.8547    1.1328 C   0  0  0  0  0  0  0  0  0  0  0  0
   -3.7070    1.5364    1.7389 C   0  0  0  0  0  0  0  0  0  0  0  0
   -4.5976    2.5671    1.7057 F   0  0  0  0  0  0  0  0  0  0  0  0
   -4.3228    0.4903    1.1140 F   0  0  0  0  0  0  0  0  0  0  0  0
   -3.6145    1.1689    3.0516 F   0  0  0  0  0  0  0  0  0  0  0  0
   -1.3430    0.8802    1.1663 C   0  0  0  0  0  0  0  0  0  0  0  0
    3.0821   -0.6351    0.9138 N   0  0  0  0  0  0  0  0  0  0  0  0
    4.4957   -0.6844    0.9776 C   0  0  0  0  0  0  0  0  0  0  0  0
    5.3283    0.4331    0.8425 C   0  0  0  0  0  0  0  0  0  0  0  0
    6.7225    0.3022    0.8482 C   0  0  0  0  0  0  0  0  0  0  0  0
    7.3069   -0.9505    1.0077 C   0  0  0  0  0  0  0  0  0  0  0  0
    8.6816   -0.9883    0.9607 O   0  0  0  0  0  0  0  0  0  0  0  0
    9.3198   -2.0438    0.3430 C   0  0  0  0  0  0  0  0  0  0  0  0
    8.7550   -2.8381   -0.6489 C   0  0  0  0  0  0  0  0  0  0  0  0
    9.4883   -3.9115   -1.1029 C   0  0  0  0  0  0  0  0  0  0  0  0
   10.7410   -4.1818   -0.6943 N   0  0  0  0  0  0  0  0  0  0  0  0
   11.3166   -3.3673    0.2052 C   0  0  0  0  0  0  0  0  0  0  0  0
   12.6350   -3.6104    0.6250 N   0  0  0  0  0  0  0  0  0  0  0  0
   13.3980   -4.6791    0.1980 C   0  0  0  0  0  0  0  0  0  0  0  0
   13.0725   -5.5618   -0.5803 O   0  0  0  0  0  0  0  0  0  0  0  0
   14.7746   -4.7789    0.7726 C   0  0  0  0  0  0  0  0  0  0  0  0
   14.9419   -4.9738    2.2600 C   0  0  0  0  0  0  0  0  0  0  0  0
   15.4900   -3.7427    1.5963 C   0  0  0  0  0  0  0  0  0  0  0  0
   10.6373   -2.2828    0.7454 C   0  0  0  0  0  0  0  0  0  0  0  0
    6.4775   -2.0463    1.2541 C   0  0  0  0  0  0  0  0  0  0  0  0
    6.9923   -3.2546    1.5238 F   0  0  0  0  0  0  0  0  0  0  0  0
    5.0877   -1.9285    1.2031 C   0  0  0  0  0  0  0  0  0  0  0  0
    0.6995   -0.6609    1.2068 H   0  0  0  0  0  0  0  0  0  0  0  0
    1.0643    2.7541   -0.3358 H   0  0  0  0  0  0  0  0  0  0  0  0
   -0.7858    4.3472   -0.3216 H   0  0  0  0  0  0  0  0  0  0  0  0
   -1.5536   -0.0891    1.6086 H   0  0  0  0  0  0  0  0  0  0  0  0
    2.5982   -1.5183    0.9627 H   0  0  0  0  0  0  0  0  0  0  0  0
    4.9319    1.4361    0.7162 H   0  0  0  0  0  0  0  0  0  0  0  0
    7.3420    1.1864    0.7163 H   0  0  0  0  0  0  0  0  0  0  0  0
    7.7615   -2.6713   -1.0435 H   0  0  0  0  0  0  0  0  0  0  0  0
    9.0783   -4.6131   -1.8235 H   0  0  0  0  0  0  0  0  0  0  0  0
   13.0312   -2.9790    1.2987 H   0  0  0  0  0  0  0  0  0  0  0  0
   15.4184   -5.3822    0.1351 H   0  0  0  0  0  0  0  0  0  0  0  0
   15.6308   -5.7490    2.5769 H   0  0  0  0  0  0  0  0  0  0  0  0
   14.0716   -4.8727    2.8982 H   0  0  0  0  0  0  0  0  0  0  0  0
   16.5679   -3.6781    1.4735 H   0  0  0  0  0  0  0  0  0  0  0  0
   15.0327   -2.7885    1.8126 H   0  0  0  0  0  0  0  0  0  0  0  0
   11.0999   -1.6288    1.4763 H   0  0  0  0  0  0  0  0  0  0  0  0
    4.4946   -2.8258    1.3462 H   0  0  0  0  0  0  0  0  0  0  0  0
  1  2  2  0  0  0  0
  2  3  1  0  0  0  0
  2 14  1  0  0  0  0
  3  4  1  0  0  0  0
  3 35  1  0  0  0  0
  4  5  1  0  0  0  0
  4 13  2  0  0  0  0
  5  6  2  0  0  0  0
  5 36  1  0  0  0  0
  6  7  1  0  0  0  0
  6 37  1  0  0  0  0
  7  8  2  0  0  0  0
  8  9  1  0  0  0  0
  8 13  1  0  0  0  0
  9 10  1  0  0  0  0
  9 11  1  0  0  0  0
  9 12  1  0  0  0  0
 13 38  1  0  0  0  0
 14 15  1  0  0  0  0
 14 39  1  0  0  0  0
 15 16  1  0  0  0  0
 15 34  2  0  0  0  0
 16 17  2  0  0  0  0
 16 40  1  0  0  0  0
 17 18  1  0  0  0  0
 17 41  1  0  0  0  0
 18 19  1  0  0  0  0
 18 32  2  0  0  0  0
 19 20  1  0  0  0  0
 20 21  1  0  0  0  0
 20 31  2  0  0  0  0
 21 22  2  0  0  0  0
 21 42  1  0  0  0  0
 22 23  1  0  0  0  0
 22 43  1  0  0  0  0
 23 24  2  0  0  0  0
 24 25  1  0  0  0  0
 24 31  1  0  0  0  0
 25 26  1  0  0  0  0
 25 44  1  0  0  0  0
 26 27  2  0  0  0  0
 26 28  1  0  0  0  0
 28 29  1  0  0  0  0
 28 30  1  0  0  0  0
 28 45  1  0  0  0  0
 29 30  1  0  0  0  0
 29 46  1  0  0  0  0
 29 47  1  0  0  0  0
 30 48  1  0  0  0  0
 30 49  1  0  0  0  0
 31 50  1  0  0  0  0
 32 33  1  0  0  0  0
 32 34  1  0  0  0  0
 34 51  1  0  0  0  0
M  END
$$$$
