CHEMBL249518
 OpenBabel04072215363D

 54 58  0  0  0  0  0  0  0  0999 V2000
    7.5958   -0.4148    4.4944 C   0  0  0  0  0  0  0  0  0  0  0  0
    6.7616   -0.4538    3.3451 O   0  0  0  0  0  0  0  0  0  0  0  0
    7.3790   -1.1875    2.2868 C   0  0  0  0  0  0  0  0  0  0  0  0
    6.4514   -1.2621    1.1085 C   0  0  0  0  0  0  0  0  0  0  0  0
    5.9887   -0.0861    0.4799 C   0  0  0  0  0  0  0  0  0  0  0  0
    5.1611   -0.1289   -0.6470 C   0  0  0  0  0  0  0  0  0  0  0  0
    4.7594   -1.3455   -1.2046 C   0  0  0  0  0  0  0  0  0  0  0  0
    5.2209   -2.5015   -0.5745 C   0  0  0  0  0  0  0  0  0  0  0  0
    5.0411   -3.8328   -0.8446 N   0  0  0  0  0  0  0  0  0  0  0  0
    5.7169   -4.5600    0.0997 C   0  0  0  0  0  0  0  0  0  0  0  0
    5.7332   -6.0493    0.1223 C   0  0  0  0  0  0  0  0  0  0  0  0
    5.1300   -6.7740   -0.8371 N   0  0  0  0  0  0  0  0  0  0  0  0
    5.3763   -8.0478   -0.4558 N   0  0  0  0  0  0  0  0  0  0  0  0
    6.0823   -8.1529    0.7065 C   0  0  0  0  0  0  0  0  0  0  0  0
    6.4395   -9.2932    1.3218 N   0  0  0  0  0  0  0  0  0  0  0  0
    7.0959   -9.0657    2.4929 C   0  0  0  0  0  0  0  0  0  0  0  0
    7.4220   -7.8225    3.0576 C   0  0  0  0  0  0  0  0  0  0  0  0
    8.0663   -7.7090    4.3812 C   0  0  0  0  0  0  0  0  0  0  0  0
    9.0102   -8.6257    4.8484 C   0  0  0  0  0  0  0  0  0  0  0  0
    9.5805   -8.6011    6.0784 N   0  0  0  0  0  0  0  0  0  0  0  0
    9.2042   -7.5999    6.9046 C   0  0  0  0  0  0  0  0  0  0  0  0
    8.2899   -6.6148    6.5579 C   0  0  0  0  0  0  0  0  0  0  0  0
    7.8745   -5.5384    7.5289 C   0  0  0  0  0  0  0  0  0  0  0  0
    8.9906   -4.7447    8.0693 N   0  0  0  0  0  0  0  0  0  0  0  0
    9.6892   -3.9942    7.0232 C   0  0  0  0  0  0  0  0  0  0  0  0
    8.4800   -3.8106    9.0794 C   0  0  0  0  0  0  0  0  0  0  0  0
    7.7248   -6.6839    5.2776 C   0  0  0  0  0  0  0  0  0  0  0  0
    7.0444   -6.6849    2.3205 C   0  0  0  0  0  0  0  0  0  0  0  0
    6.3370   -6.8579    1.1178 C   0  0  0  0  0  0  0  0  0  0  0  0
    6.3307   -3.7720    0.9582 N   0  0  0  0  0  0  0  0  0  0  0  0
    6.0350   -2.4891    0.5542 C   0  0  0  0  0  0  0  0  0  0  0  0
    7.0724    0.1314    5.2835 H   0  0  0  0  0  0  0  0  0  0  0  0
    8.5312    0.1062    4.2687 H   0  0  0  0  0  0  0  0  0  0  0  0
    7.8067   -1.4273    4.8533 H   0  0  0  0  0  0  0  0  0  0  0  0
    7.6314   -2.1936    2.6397 H   0  0  0  0  0  0  0  0  0  0  0  0
    8.3051   -0.6856    1.9813 H   0  0  0  0  0  0  0  0  0  0  0  0
    6.2815    0.8825    0.8850 H   0  0  0  0  0  0  0  0  0  0  0  0
    4.8268    0.8032   -1.0988 H   0  0  0  0  0  0  0  0  0  0  0  0
    4.1217   -1.3814   -2.0815 H   0  0  0  0  0  0  0  0  0  0  0  0
    4.5037   -4.2408   -1.5960 H   0  0  0  0  0  0  0  0  0  0  0  0
    5.0270   -8.8130   -1.0189 H   0  0  0  0  0  0  0  0  0  0  0  0
    7.3463   -9.9884    3.0152 H   0  0  0  0  0  0  0  0  0  0  0  0
    9.3579   -9.4482    4.2280 H   0  0  0  0  0  0  0  0  0  0  0  0
    9.6730   -7.6109    7.8858 H   0  0  0  0  0  0  0  0  0  0  0  0
    7.3561   -6.0485    8.3529 H   0  0  0  0  0  0  0  0  0  0  0  0
    7.1322   -4.8775    7.0602 H   0  0  0  0  0  0  0  0  0  0  0  0
   10.1308   -4.6611    6.2751 H   0  0  0  0  0  0  0  0  0  0  0  0
   10.5261   -3.4316    7.4545 H   0  0  0  0  0  0  0  0  0  0  0  0
    9.0298   -3.2865    6.5083 H   0  0  0  0  0  0  0  0  0  0  0  0
    7.9683   -4.3486    9.8850 H   0  0  0  0  0  0  0  0  0  0  0  0
    7.7767   -3.0851    8.6516 H   0  0  0  0  0  0  0  0  0  0  0  0
    9.3041   -3.2585    9.5441 H   0  0  0  0  0  0  0  0  0  0  0  0
    6.9876   -5.9357    4.9925 H   0  0  0  0  0  0  0  0  0  0  0  0
    7.2613   -5.6781    2.6667 H   0  0  0  0  0  0  0  0  0  0  0  0
  1  2  1  0  0  0  0
  1 32  1  0  0  0  0
  1 33  1  0  0  0  0
  1 34  1  0  0  0  0
  2  3  1  0  0  0  0
  3  4  1  0  0  0  0
  3 35  1  0  0  0  0
  3 36  1  0  0  0  0
  4  5  1  0  0  0  0
  4 31  2  0  0  0  0
  5  6  2  0  0  0  0
  5 37  1  0  0  0  0
  6  7  1  0  0  0  0
  6 38  1  0  0  0  0
  7  8  2  0  0  0  0
  7 39  1  0  0  0  0
  8  9  1  0  0  0  0
  8 31  1  0  0  0  0
  9 10  1  0  0  0  0
  9 40  1  0  0  0  0
 10 11  1  0  0  0  0
 10 30  2  0  0  0  0
 11 12  2  0  0  0  0
 11 29  1  0  0  0  0
 12 13  1  0  0  0  0
 13 14  1  0  0  0  0
 13 41  1  0  0  0  0
 14 15  1  0  0  0  0
 14 29  2  0  0  0  0
 15 16  2  0  0  0  0
 16 17  1  0  0  0  0
 16 42  1  0  0  0  0
 17 18  1  0  0  0  0
 17 28  2  0  0  0  0
 18 19  1  0  0  0  0
 18 27  2  0  0  0  0
 19 20  2  0  0  0  0
 19 43  1  0  0  0  0
 20 21  1  0  0  0  0
 21 22  2  0  0  0  0
 21 44  1  0  0  0  0
 22 23  1  0  0  0  0
 22 27  1  0  0  0  0
 23 24  1  0  0  0  0
 23 45  1  0  0  0  0
 23 46  1  0  0  0  0
 24 25  1  0  0  0  0
 24 26  1  0  0  0  0
 25 47  1  0  0  0  0
 25 48  1  0  0  0  0
 25 49  1  0  0  0  0
 26 50  1  0  0  0  0
 26 51  1  0  0  0  0
 26 52  1  0  0  0  0
 27 53  1  0  0  0  0
 28 29  1  0  0  0  0
 28 54  1  0  0  0  0
 30 31  1  0  0  0  0
M  END
$$$$
