CHEMBL3642839
 OpenBabel04072215373D

 57 60  0  0  0  0  0  0  0  0999 V2000
    3.3529   -1.4488    1.3061 C   0  0  0  0  0  0  0  0  0  0  0  0
    3.2614   -1.7767    0.0088 C   0  0  0  0  0  0  0  0  0  0  0  0
    3.8225   -0.6873   -1.2270 S   0  0  0  0  0  0  0  0  0  0  0  0
    3.5774   -1.2927   -2.5190 O   0  0  0  0  0  0  0  0  0  0  0  0
    3.3101    0.6361   -0.9277 O   0  0  0  0  0  0  0  0  0  0  0  0
    5.5030   -0.5575   -1.0315 N   0  0  0  0  0  0  0  0  0  0  0  0
    6.2780   -1.7440   -1.1639 C   0  0  0  0  0  0  0  0  0  0  0  0
    6.7046   -2.1659   -2.4246 C   0  0  0  0  0  0  0  0  0  0  0  0
    7.4937   -3.3186   -2.5572 C   0  0  0  0  0  0  0  0  0  0  0  0
    7.8213   -4.0666   -1.4208 C   0  0  0  0  0  0  0  0  0  0  0  0
    8.7104   -5.2617   -1.4311 C   0  0  0  0  0  0  0  0  0  0  0  0
    9.3357   -5.4932   -0.4012 O   0  0  0  0  0  0  0  0  0  0  0  0
    8.7665   -6.0081   -2.5959 N   0  0  0  0  0  0  0  0  0  0  0  0
    9.5294   -7.1881   -2.7678 C   0  0  0  0  0  0  0  0  0  0  0  0
   10.0986   -7.8974   -1.7167 C   0  0  0  0  0  0  0  0  0  0  0  0
   10.9202   -8.9963   -1.9647 C   0  0  0  0  0  0  0  0  0  0  0  0
   11.1729   -9.4337   -3.2736 C   0  0  0  0  0  0  0  0  0  0  0  0
   12.1584  -10.5529   -3.4586 C   0  0  0  0  0  0  0  0  0  0  0  0
   10.4927   -8.8210   -4.3436 C   0  0  0  0  0  0  0  0  0  0  0  0
   10.5636   -9.3341   -5.6554 N   0  0  0  0  0  0  0  0  0  0  0  0
    9.5570   -9.3518   -6.6283 C   0  0  0  0  0  0  0  0  0  0  0  0
    9.8318   -9.9362   -7.7999 N   0  0  0  0  0  0  0  0  0  0  0  0
    8.8287   -9.9901   -8.6996 C   0  0  0  0  0  0  0  0  0  0  0  0
    7.5543   -9.5270   -8.4620 C   0  0  0  0  0  0  0  0  0  0  0  0
    7.3403   -8.9693   -7.2224 C   0  0  0  0  0  0  0  0  0  0  0  0
    6.0337   -8.5082   -6.7211 C   0  0  0  0  0  0  0  0  0  0  0  0
    4.9726   -8.1146   -7.5472 C   0  0  0  0  0  0  0  0  0  0  0  0
    3.7503   -7.7258   -6.9938 C   0  0  0  0  0  0  0  0  0  0  0  0
    3.6148   -7.7279   -5.6167 C   0  0  0  0  0  0  0  0  0  0  0  0
    4.6054   -8.0768   -4.7752 N   0  0  0  0  0  0  0  0  0  0  0  0
    5.7780   -8.4551   -5.3435 C   0  0  0  0  0  0  0  0  0  0  0  0
    8.3453   -8.8620   -6.3335 N   0  0  0  0  0  0  0  0  0  0  0  0
    9.7112   -7.6794   -4.0672 C   0  0  0  0  0  0  0  0  0  0  0  0
    7.3557   -3.6486   -0.1640 C   0  0  0  0  0  0  0  0  0  0  0  0
    6.5897   -2.4921   -0.0330 C   0  0  0  0  0  0  0  0  0  0  0  0
    2.9931   -2.1299    2.0719 H   0  0  0  0  0  0  0  0  0  0  0  0
    3.7654   -0.5000    1.6351 H   0  0  0  0  0  0  0  0  0  0  0  0
    2.8317   -2.7109   -0.3238 H   0  0  0  0  0  0  0  0  0  0  0  0
    5.7171    0.0196   -0.2205 H   0  0  0  0  0  0  0  0  0  0  0  0
    6.4514   -1.5800   -3.3063 H   0  0  0  0  0  0  0  0  0  0  0  0
    7.8666   -3.5798   -3.5425 H   0  0  0  0  0  0  0  0  0  0  0  0
    8.2688   -5.6831   -3.4130 H   0  0  0  0  0  0  0  0  0  0  0  0
    9.9266   -7.6200   -0.6824 H   0  0  0  0  0  0  0  0  0  0  0  0
   11.3732   -9.5006   -1.1138 H   0  0  0  0  0  0  0  0  0  0  0  0
   12.7489  -10.7064   -2.5466 H   0  0  0  0  0  0  0  0  0  0  0  0
   12.8744  -10.3034   -4.2482 H   0  0  0  0  0  0  0  0  0  0  0  0
   11.6486  -11.4895   -3.6964 H   0  0  0  0  0  0  0  0  0  0  0  0
   11.2063  -10.0907   -5.8338 H   0  0  0  0  0  0  0  0  0  0  0  0
    9.0839  -10.4531   -9.6491 H   0  0  0  0  0  0  0  0  0  0  0  0
    6.7751   -9.6408   -9.2020 H   0  0  0  0  0  0  0  0  0  0  0  0
    5.0795   -8.0949   -8.6280 H   0  0  0  0  0  0  0  0  0  0  0  0
    2.9213   -7.4261   -7.6251 H   0  0  0  0  0  0  0  0  0  0  0  0
    2.6817   -7.4428   -5.1405 H   0  0  0  0  0  0  0  0  0  0  0  0
    6.5429   -8.7403   -4.6221 H   0  0  0  0  0  0  0  0  0  0  0  0
    9.2587   -7.1384   -4.8947 H   0  0  0  0  0  0  0  0  0  0  0  0
    7.6128   -4.2189    0.7279 H   0  0  0  0  0  0  0  0  0  0  0  0
    6.2613   -2.1905    0.9566 H   0  0  0  0  0  0  0  0  0  0  0  0
  1  2  2  0  0  0  0
  1 36  1  0  0  0  0
  1 37  1  0  0  0  0
  2  3  1  0  0  0  0
  2 38  1  0  0  0  0
  3  4  2  0  0  0  0
  3  5  2  0  0  0  0
  3  6  1  0  0  0  0
  6  7  1  0  0  0  0
  6 39  1  0  0  0  0
  7  8  1  0  0  0  0
  7 35  2  0  0  0  0
  8  9  2  0  0  0  0
  8 40  1  0  0  0  0
  9 10  1  0  0  0  0
  9 41  1  0  0  0  0
 10 11  1  0  0  0  0
 10 34  2  0  0  0  0
 11 12  2  0  0  0  0
 11 13  1  0  0  0  0
 13 14  1  0  0  0  0
 13 42  1  0  0  0  0
 14 15  1  0  0  0  0
 14 33  2  0  0  0  0
 15 16  2  0  0  0  0
 15 43  1  0  0  0  0
 16 17  1  0  0  0  0
 16 44  1  0  0  0  0
 17 18  1  0  0  0  0
 17 19  2  0  0  0  0
 18 45  1  0  0  0  0
 18 46  1  0  0  0  0
 18 47  1  0  0  0  0
 19 20  1  0  0  0  0
 19 33  1  0  0  0  0
 20 21  1  0  0  0  0
 20 48  1  0  0  0  0
 21 22  1  0  0  0  0
 21 32  2  0  0  0  0
 22 23  2  0  0  0  0
 23 24  1  0  0  0  0
 23 49  1  0  0  0  0
 24 25  2  0  0  0  0
 24 50  1  0  0  0  0
 25 26  1  0  0  0  0
 25 32  1  0  0  0  0
 26 27  1  0  0  0  0
 26 31  2  0  0  0  0
 27 28  2  0  0  0  0
 27 51  1  0  0  0  0
 28 29  1  0  0  0  0
 28 52  1  0  0  0  0
 29 30  2  0  0  0  0
 29 53  1  0  0  0  0
 30 31  1  0  0  0  0
 31 54  1  0  0  0  0
 33 55  1  0  0  0  0
 34 35  1  0  0  0  0
 34 56  1  0  0  0  0
 35 57  1  0  0  0  0
M  END
$$$$
