CHEMBL3690449
 OpenBabel04072215373D

 49 52  0  0  0  0  0  0  0  0999 V2000
    1.2064   -0.1574    0.0815 C   0  0  0  0  0  0  0  0  0  0  0  0
    2.6499   -0.1202    0.0870 N   0  0  0  0  0  0  0  0  0  0  0  0
    3.4256    1.0069    0.0871 C   0  0  0  0  0  0  0  0  0  0  0  0
    4.7301    0.5618    0.0925 C   0  0  0  0  0  0  0  0  0  0  0  0
    4.6351   -0.8443    0.0950 C   0  0  0  0  0  0  0  0  0  0  0  0
    5.7095   -1.7869    0.1015 C   0  0  0  0  0  0  0  0  0  0  0  0
    6.6573   -2.5329    0.1104 C   0  0  0  0  0  0  0  0  0  0  0  0
    7.7969   -3.3979    0.1349 C   0  0  0  0  0  0  0  0  0  0  0  0
    9.1398   -2.8277    0.1466 C   0  0  0  0  0  0  0  0  0  0  0  0
   10.2036   -3.6359    0.1945 C   0  0  0  0  0  0  0  0  0  0  0  0
   10.0376   -5.0221    0.2095 N   0  0  0  0  0  0  0  0  0  0  0  0
   10.9669   -6.0548    0.2296 C   0  0  0  0  0  0  0  0  0  0  0  0
   12.4288   -5.9341    0.2112 C   0  0  0  0  0  0  0  0  0  0  0  0
   13.0730   -4.9145   -0.4757 C   0  0  0  0  0  0  0  0  0  0  0  0
   14.4670   -4.8501   -0.5171 C   0  0  0  0  0  0  0  0  0  0  0  0
   15.2200   -5.8438    0.1054 C   0  0  0  0  0  0  0  0  0  0  0  0
   14.6196   -6.8878    0.7896 C   0  0  0  0  0  0  0  0  0  0  0  0
   15.3889   -7.9343    1.3802 N   0  0  0  0  0  0  0  0  0  0  0  0
   16.7359   -7.8414    1.6532 C   0  0  0  0  0  0  0  0  0  0  0  0
   17.4583   -6.8629    1.4596 O   0  0  0  0  0  0  0  0  0  0  0  0
   17.2825   -8.9801    2.1824 N   0  0  0  0  0  0  0  0  0  0  0  0
   18.7129   -8.9492    2.5229 C   0  0  0  0  0  0  0  0  0  0  0  0
   19.0862   -8.4368    3.9162 C   0  0  0  0  0  0  0  0  0  0  0  0
   17.9969   -8.1265    4.6522 F   0  0  0  0  0  0  0  0  0  0  0  0
   19.7685   -9.3915    4.5985 F   0  0  0  0  0  0  0  0  0  0  0  0
   19.8803   -7.3466    3.8535 F   0  0  0  0  0  0  0  0  0  0  0  0
   13.2137   -6.9170    0.8570 C   0  0  0  0  0  0  0  0  0  0  0  0
   10.1868   -7.2047    0.2005 C   0  0  0  0  0  0  0  0  0  0  0  0
    8.8491   -6.9230    0.1808 N   0  0  0  0  0  0  0  0  0  0  0  0
    8.7711   -5.6072    0.1844 C   0  0  0  0  0  0  0  0  0  0  0  0
    7.6386   -4.7473    0.1478 C   0  0  0  0  0  0  0  0  0  0  0  0
    3.3649   -1.2659    0.0930 N   0  0  0  0  0  0  0  0  0  0  0  0
    0.8175    0.8642    0.0796 H   0  0  0  0  0  0  0  0  0  0  0  0
    0.8672   -0.6785    0.9795 H   0  0  0  0  0  0  0  0  0  0  0  0
    0.8743   -0.6789   -0.8203 H   0  0  0  0  0  0  0  0  0  0  0  0
    3.0002    1.9971    0.0835 H   0  0  0  0  0  0  0  0  0  0  0  0
    5.6224    1.1684    0.0940 H   0  0  0  0  0  0  0  0  0  0  0  0
    9.2514   -1.7456    0.1200 H   0  0  0  0  0  0  0  0  0  0  0  0
   11.2138   -3.2427    0.2065 H   0  0  0  0  0  0  0  0  0  0  0  0
   12.5237   -4.1423   -1.0035 H   0  0  0  0  0  0  0  0  0  0  0  0
   14.9660   -4.0411   -1.0334 H   0  0  0  0  0  0  0  0  0  0  0  0
   16.3026   -5.7841    0.0129 H   0  0  0  0  0  0  0  0  0  0  0  0
   14.9160   -8.7872    1.6132 H   0  0  0  0  0  0  0  0  0  0  0  0
   16.6973   -9.7173    2.5535 H   0  0  0  0  0  0  0  0  0  0  0  0
   19.2200   -8.3171    1.7843 H   0  0  0  0  0  0  0  0  0  0  0  0
   19.0962   -9.9630    2.3866 H   0  0  0  0  0  0  0  0  0  0  0  0
   12.6922   -7.6703    1.4368 H   0  0  0  0  0  0  0  0  0  0  0  0
   10.5345   -8.2277    0.1591 H   0  0  0  0  0  0  0  0  0  0  0  0
    6.6597   -5.2044    0.1302 H   0  0  0  0  0  0  0  0  0  0  0  0
  1  2  1  0  0  0  0
  1 33  1  0  0  0  0
  1 34  1  0  0  0  0
  1 35  1  0  0  0  0
  2  3  1  0  0  0  0
  2 32  1  0  0  0  0
  3  4  2  0  0  0  0
  3 36  1  0  0  0  0
  4  5  1  0  0  0  0
  4 37  1  0  0  0  0
  5  6  1  0  0  0  0
  5 32  2  0  0  0  0
  6  7  3  0  0  0  0
  7  8  1  0  0  0  0
  8  9  1  0  0  0  0
  8 31  2  0  0  0  0
  9 10  2  0  0  0  0
  9 38  1  0  0  0  0
 10 11  1  0  0  0  0
 10 39  1  0  0  0  0
 11 12  1  0  0  0  0
 11 30  1  0  0  0  0
 12 13  1  0  0  0  0
 12 28  2  0  0  0  0
 13 14  1  0  0  0  0
 13 27  2  0  0  0  0
 14 15  2  0  0  0  0
 14 40  1  0  0  0  0
 15 16  1  0  0  0  0
 15 41  1  0  0  0  0
 16 17  2  0  0  0  0
 16 42  1  0  0  0  0
 17 18  1  0  0  0  0
 17 27  1  0  0  0  0
 18 19  1  0  0  0  0
 18 43  1  0  0  0  0
 19 20  2  0  0  0  0
 19 21  1  0  0  0  0
 21 22  1  0  0  0  0
 21 44  1  0  0  0  0
 22 23  1  0  0  0  0
 22 45  1  0  0  0  0
 22 46  1  0  0  0  0
 23 24  1  0  0  0  0
 23 25  1  0  0  0  0
 23 26  1  0  0  0  0
 27 47  1  0  0  0  0
 28 29  1  0  0  0  0
 28 48  1  0  0  0  0
 29 30  2  0  0  0  0
 30 31  1  0  0  0  0
 31 49  1  0  0  0  0
M  END
$$$$
