CHEMBL3911919
 OpenBabel04072215373D

 69 71  0  0  0  0  0  0  0  0999 V2000
    1.5153    5.6287   -6.3654 C   0  0  0  0  0  0  0  0  0  0  0  0
    2.5763    4.6942   -6.5899 O   0  0  0  0  0  0  0  0  0  0  0  0
    3.4499    4.5961   -5.5470 C   0  0  0  0  0  0  0  0  0  0  0  0
    3.3690    5.2312   -4.5045 O   0  0  0  0  0  0  0  0  0  0  0  0
    4.5318    3.5856   -5.8683 C   0  0  0  0  0  0  0  0  0  0  0  0
    5.5332    3.4535   -4.7134 C   0  0  0  0  0  0  0  0  0  0  0  0
    6.6435    2.4362   -5.0059 C   0  0  0  0  0  0  0  0  0  0  0  0
    7.6419    2.3303   -3.8471 C   0  0  0  0  0  0  0  0  0  0  0  0
    8.9421    1.1293   -4.1615 S   0  0  3  0  0  0  0  0  0  0  0  0
    9.9141    1.2028   -2.6597 C   0  0  0  0  0  0  0  0  0  0  0  0
    8.3029   -0.1729   -4.1928 O   0  0  0  0  0  0  0  0  0  0  0  0
    9.8288    1.6662   -5.3133 N   0  0  0  0  0  0  0  0  0  0  0  0
   10.8616    0.8500   -5.8188 C   0  0  0  0  0  0  0  0  0  0  0  0
   11.4302    0.0086   -5.1225 O   0  0  0  0  0  0  0  0  0  0  0  0
   11.4137    1.0240   -7.1886 C   0  0  0  0  0  0  0  0  0  0  0  0
   10.8836    1.9433   -8.0768 C   0  0  0  0  0  0  0  0  0  0  0  0
   11.3970    2.1770   -9.3156 N   0  0  0  0  0  0  0  0  0  0  0  0
   12.4845    1.4692   -9.6946 C   0  0  0  0  0  0  0  0  0  0  0  0
   13.0537    1.8469  -10.9085 N   0  0  0  0  0  0  0  0  0  0  0  0
   13.0702    0.4956   -8.8733 C   0  0  0  0  0  0  0  0  0  0  0  0
   14.1879   -0.2938   -9.3012 C   0  0  0  0  0  0  0  0  0  0  0  0
   15.0894   -0.9924   -9.7024 C   0  0  0  0  0  0  0  0  0  0  0  0
   16.1129   -1.8305  -10.2458 C   0  0  0  0  0  0  0  0  0  0  0  0
   17.2238   -1.2521  -10.8701 C   0  0  0  0  0  0  0  0  0  0  0  0
   18.1997   -2.0591  -11.4456 C   0  0  0  0  0  0  0  0  0  0  0  0
   18.0595   -3.4450  -11.4145 C   0  0  0  0  0  0  0  0  0  0  0  0
   16.9438   -4.0400  -10.8019 C   0  0  0  0  0  0  0  0  0  0  0  0
   16.8771   -5.5289  -10.8241 C   0  0  0  0  0  0  0  0  0  0  0  0
   17.9504   -6.1263  -10.8408 O   0  0  0  0  0  0  0  0  0  0  0  0
   15.6225   -6.1138  -10.9289 N   0  0  0  0  0  0  0  0  0  0  0  0
   15.4129   -7.5121  -11.0558 C   0  0  0  0  0  0  0  0  0  0  0  0
   16.3820   -8.4567  -10.7016 C   0  0  0  0  0  0  0  0  0  0  0  0
   16.1847   -9.8143  -10.9391 C   0  0  0  0  0  0  0  0  0  0  0  0
   15.0184  -10.2468  -11.5620 C   0  0  0  0  0  0  0  0  0  0  0  0
   14.0289   -9.3244  -11.9177 C   0  0  0  0  0  0  0  0  0  0  0  0
   12.8187   -9.7709  -12.6850 C   0  0  0  0  0  0  0  0  0  0  0  0
   14.2092   -7.9639  -11.6125 C   0  0  0  0  0  0  0  0  0  0  0  0
   15.9788   -3.2277  -10.1941 C   0  0  0  0  0  0  0  0  0  0  0  0
   12.5195    0.2748   -7.6106 C   0  0  0  0  0  0  0  0  0  0  0  0
    0.8796    5.6463   -7.2555 H   0  0  0  0  0  0  0  0  0  0  0  0
    1.9158    6.6354   -6.2079 H   0  0  0  0  0  0  0  0  0  0  0  0
    0.9050    5.3175   -5.5114 H   0  0  0  0  0  0  0  0  0  0  0  0
    5.0488    3.9132   -6.7772 H   0  0  0  0  0  0  0  0  0  0  0  0
    4.0511    2.6196   -6.0586 H   0  0  0  0  0  0  0  0  0  0  0  0
    4.9956    3.1575   -3.8039 H   0  0  0  0  0  0  0  0  0  0  0  0
    5.9799    4.4350   -4.5092 H   0  0  0  0  0  0  0  0  0  0  0  0
    7.1730    2.7304   -5.9185 H   0  0  0  0  0  0  0  0  0  0  0  0
    6.1912    1.4565   -5.2032 H   0  0  0  0  0  0  0  0  0  0  0  0
    7.1299    2.0142   -2.9298 H   0  0  0  0  0  0  0  0  0  0  0  0
    8.1256    3.2935   -3.6600 H   0  0  0  0  0  0  0  0  0  0  0  0
    9.2966    0.8892   -1.8149 H   0  0  0  0  0  0  0  0  0  0  0  0
   10.2729    2.2237   -2.5132 H   0  0  0  0  0  0  0  0  0  0  0  0
   10.7624    0.5207   -2.7500 H   0  0  0  0  0  0  0  0  0  0  0  0
   10.0228    2.5550   -7.8187 H   0  0  0  0  0  0  0  0  0  0  0  0
   12.4194    2.4823  -11.3821 H   0  0  0  0  0  0  0  0  0  0  0  0
   13.3516    1.0653  -11.4784 H   0  0  0  0  0  0  0  0  0  0  0  0
   17.3328   -0.1679  -10.9157 H   0  0  0  0  0  0  0  0  0  0  0  0
   19.0692   -1.6152  -11.9299 H   0  0  0  0  0  0  0  0  0  0  0  0
   18.8229   -4.0694  -11.8798 H   0  0  0  0  0  0  0  0  0  0  0  0
   14.8415   -5.5202  -11.1789 H   0  0  0  0  0  0  0  0  0  0  0  0
   17.3213   -8.1604  -10.2435 H   0  0  0  0  0  0  0  0  0  0  0  0
   16.9599  -10.5250  -10.6668 H   0  0  0  0  0  0  0  0  0  0  0  0
   14.9012  -11.3043  -11.7849 H   0  0  0  0  0  0  0  0  0  0  0  0
   12.8713  -10.8378  -12.9282 H   0  0  0  0  0  0  0  0  0  0  0  0
   12.7639   -9.2245  -13.6327 H   0  0  0  0  0  0  0  0  0  0  0  0
   11.9061   -9.5937  -12.1102 H   0  0  0  0  0  0  0  0  0  0  0  0
   13.4281   -7.2568  -11.8785 H   0  0  0  0  0  0  0  0  0  0  0  0
   15.1339   -3.6628   -9.6671 H   0  0  0  0  0  0  0  0  0  0  0  0
   12.9635   -0.4627   -6.9457 H   0  0  0  0  0  0  0  0  0  0  0  0
  1  2  1  0  0  0  0
  1 40  1  0  0  0  0
  1 41  1  0  0  0  0
  1 42  1  0  0  0  0
  2  3  1  0  0  0  0
  3  4  2  0  0  0  0
  3  5  1  0  0  0  0
  5  6  1  0  0  0  0
  5 43  1  0  0  0  0
  5 44  1  0  0  0  0
  6  7  1  0  0  0  0
  6 45  1  0  0  0  0
  6 46  1  0  0  0  0
  7  8  1  0  0  0  0
  7 47  1  0  0  0  0
  7 48  1  0  0  0  0
  8  9  1  0  0  0  0
  8 49  1  0  0  0  0
  8 50  1  0  0  0  0
  9 10  1  0  0  0  0
  9 11  2  0  0  0  0
  9 12  2  0  0  0  0
 10 51  1  0  0  0  0
 10 52  1  0  0  0  0
 10 53  1  0  0  0  0
 12 13  1  0  0  0  0
 13 14  2  0  0  0  0
 13 15  1  0  0  0  0
 15 16  1  0  0  0  0
 15 39  2  0  0  0  0
 16 17  2  0  0  0  0
 16 54  1  0  0  0  0
 17 18  1  0  0  0  0
 18 19  1  0  0  0  0
 18 20  2  0  0  0  0
 19 55  1  0  0  0  0
 19 56  1  0  0  0  0
 20 21  1  0  0  0  0
 20 39  1  0  0  0  0
 21 22  3  0  0  0  0
 22 23  1  0  0  0  0
 23 24  1  0  0  0  0
 23 38  2  0  0  0  0
 24 25  2  0  0  0  0
 24 57  1  0  0  0  0
 25 26  1  0  0  0  0
 25 58  1  0  0  0  0
 26 27  2  0  0  0  0
 26 59  1  0  0  0  0
 27 28  1  0  0  0  0
 27 38  1  0  0  0  0
 28 29  2  0  0  0  0
 28 30  1  0  0  0  0
 30 31  1  0  0  0  0
 30 60  1  0  0  0  0
 31 32  1  0  0  0  0
 31 37  2  0  0  0  0
 32 33  2  0  0  0  0
 32 61  1  0  0  0  0
 33 34  1  0  0  0  0
 33 62  1  0  0  0  0
 34 35  2  0  0  0  0
 34 63  1  0  0  0  0
 35 36  1  0  0  0  0
 35 37  1  0  0  0  0
 36 64  1  0  0  0  0
 36 65  1  0  0  0  0
 36 66  1  0  0  0  0
 37 67  1  0  0  0  0
 38 68  1  0  0  0  0
 39 69  1  0  0  0  0
M  END
$$$$
