CHEMBL3934064
 OpenBabel04072215373D

 58 60  0  0  0  0  0  0  0  0999 V2000
    2.1624   -0.6856    1.2047 C   0  0  0  0  0  0  0  0  0  0  0  0
    0.8643   -0.2907    0.5938 C   0  0  0  0  0  0  0  0  0  0  0  0
    0.4805    1.0279    0.2210 C   0  0  0  0  0  0  0  0  0  0  0  0
   -0.7832    0.9355   -0.3034 C   0  0  0  0  0  0  0  0  0  0  0  0
   -1.2120   -0.3505   -0.2920 O   0  0  0  0  0  0  0  0  0  0  0  0
   -0.2125   -1.1094    0.2630 C   0  0  0  0  0  0  0  0  0  0  0  0
   -0.4188   -2.5447    0.4087 C   0  0  0  0  0  0  0  0  0  0  0  0
    0.4181   -3.2580    0.9548 O   0  0  0  0  0  0  0  0  0  0  0  0
   -1.6031   -3.0037   -0.1617 N   0  0  0  0  0  0  0  0  0  0  0  0
   -2.0525   -4.3455   -0.2016 C   0  0  0  0  0  0  0  0  0  0  0  0
   -1.5321   -5.3356    0.6352 C   0  0  0  0  0  0  0  0  0  0  0  0
   -1.9299   -6.6675    0.5031 C   0  0  0  0  0  0  0  0  0  0  0  0
   -2.8433   -7.0267   -0.4853 C   0  0  0  0  0  0  0  0  0  0  0  0
   -3.3920   -6.0472   -1.3182 C   0  0  0  0  0  0  0  0  0  0  0  0
   -4.2455   -6.4442   -2.3996 C   0  0  0  0  0  0  0  0  0  0  0  0
   -4.8908   -6.8315   -3.3450 C   0  0  0  0  0  0  0  0  0  0  0  0
   -5.6269   -7.3350   -4.4688 C   0  0  0  0  0  0  0  0  0  0  0  0
   -6.3571   -6.4476   -5.2671 C   0  0  0  0  0  0  0  0  0  0  0  0
   -7.0709   -6.9361   -6.3645 C   0  0  0  0  0  0  0  0  0  0  0  0
   -7.8193   -6.0463   -7.2924 C   0  0  0  0  0  0  0  0  0  0  0  0
   -8.4016   -6.5868   -8.2290 O   0  0  0  0  0  0  0  0  0  0  0  0
   -7.7520   -4.6468   -7.1585 N   0  0  0  0  0  0  0  0  0  0  0  0
   -8.9280   -3.7545   -7.6092 S   0  0  3  0  0  0  0  0  0  0  0  0
   -8.9998   -3.7827   -9.3927 C   0  0  0  0  0  0  0  0  0  0  0  0
  -10.2842   -3.9055   -7.1181 O   0  0  0  0  0  0  0  0  0  0  0  0
   -8.4548   -2.0583   -7.2889 C   0  0  0  0  0  0  0  0  0  0  0  0
   -8.1889   -1.8076   -5.8060 C   0  0  0  0  0  0  0  0  0  0  0  0
   -7.7968   -0.3615   -5.5389 C   0  0  0  0  0  0  0  0  0  0  0  0
   -6.6287   -0.0209   -6.2729 O   0  0  0  0  0  0  0  0  0  0  0  0
   -7.0499   -8.3053   -6.5929 C   0  0  0  0  0  0  0  0  0  0  0  0
   -6.3516   -9.1890   -5.8359 N   0  0  0  0  0  0  0  0  0  0  0  0
   -5.6396   -8.6997   -4.7988 C   0  0  0  0  0  0  0  0  0  0  0  0
   -4.8296   -9.6312   -4.1553 N   0  0  0  0  0  0  0  0  0  0  0  0
   -3.0311   -4.7011   -1.1419 C   0  0  0  0  0  0  0  0  0  0  0  0
    2.8335    0.1777    1.2798 H   0  0  0  0  0  0  0  0  0  0  0  0
    2.6673   -1.4436    0.5976 H   0  0  0  0  0  0  0  0  0  0  0  0
    2.0162   -1.0812    2.2145 H   0  0  0  0  0  0  0  0  0  0  0  0
    1.0647    1.9325    0.3265 H   0  0  0  0  0  0  0  0  0  0  0  0
   -1.4759    1.6584   -0.7098 H   0  0  0  0  0  0  0  0  0  0  0  0
   -2.1106   -2.3174   -0.7098 H   0  0  0  0  0  0  0  0  0  0  0  0
   -0.8077   -5.1029    1.4105 H   0  0  0  0  0  0  0  0  0  0  0  0
   -1.4980   -7.4226    1.1550 H   0  0  0  0  0  0  0  0  0  0  0  0
   -3.1014   -8.0755   -0.6119 H   0  0  0  0  0  0  0  0  0  0  0  0
   -6.3548   -5.3827   -5.0451 H   0  0  0  0  0  0  0  0  0  0  0  0
   -9.2848   -4.7817   -9.7262 H   0  0  0  0  0  0  0  0  0  0  0  0
   -8.0209   -3.5152   -9.7959 H   0  0  0  0  0  0  0  0  0  0  0  0
   -9.7557   -3.0677   -9.7240 H   0  0  0  0  0  0  0  0  0  0  0  0
   -9.2744   -1.4242   -7.6443 H   0  0  0  0  0  0  0  0  0  0  0  0
   -7.5649   -1.8504   -7.8911 H   0  0  0  0  0  0  0  0  0  0  0  0
   -7.3766   -2.4624   -5.4691 H   0  0  0  0  0  0  0  0  0  0  0  0
   -9.0748   -2.0606   -5.2127 H   0  0  0  0  0  0  0  0  0  0  0  0
   -7.5952   -0.2038   -4.4742 H   0  0  0  0  0  0  0  0  0  0  0  0
   -8.5972    0.3235   -5.8357 H   0  0  0  0  0  0  0  0  0  0  0  0
   -5.9060   -0.5920   -5.9583 H   0  0  0  0  0  0  0  0  0  0  0  0
   -7.5905   -8.7543   -7.4233 H   0  0  0  0  0  0  0  0  0  0  0  0
   -5.0814  -10.5572   -4.4907 H   0  0  0  0  0  0  0  0  0  0  0  0
   -4.8287   -9.5465   -3.1490 H   0  0  0  0  0  0  0  0  0  0  0  0
   -3.4745   -3.9493   -1.7891 H   0  0  0  0  0  0  0  0  0  0  0  0
  1  2  1  0  0  0  0
  1 35  1  0  0  0  0
  1 36  1  0  0  0  0
  1 37  1  0  0  0  0
  2  3  1  0  0  0  0
  2  6  2  0  0  0  0
  3  4  2  0  0  0  0
  3 38  1  0  0  0  0
  4  5  1  0  0  0  0
  4 39  1  0  0  0  0
  5  6  1  0  0  0  0
  6  7  1  0  0  0  0
  7  8  2  0  0  0  0
  7  9  1  0  0  0  0
  9 10  1  0  0  0  0
  9 40  1  0  0  0  0
 10 11  1  0  0  0  0
 10 34  2  0  0  0  0
 11 12  2  0  0  0  0
 11 41  1  0  0  0  0
 12 13  1  0  0  0  0
 12 42  1  0  0  0  0
 13 14  2  0  0  0  0
 13 43  1  0  0  0  0
 14 15  1  0  0  0  0
 14 34  1  0  0  0  0
 15 16  3  0  0  0  0
 16 17  1  0  0  0  0
 17 18  1  0  0  0  0
 17 32  2  0  0  0  0
 18 19  2  0  0  0  0
 18 44  1  0  0  0  0
 19 20  1  0  0  0  0
 19 30  1  0  0  0  0
 20 21  2  0  0  0  0
 20 22  1  0  0  0  0
 22 23  2  0  0  0  0
 23 24  1  0  0  0  0
 23 25  2  0  0  0  0
 23 26  1  0  0  0  0
 24 45  1  0  0  0  0
 24 46  1  0  0  0  0
 24 47  1  0  0  0  0
 26 27  1  0  0  0  0
 26 48  1  0  0  0  0
 26 49  1  0  0  0  0
 27 28  1  0  0  0  0
 27 50  1  0  0  0  0
 27 51  1  0  0  0  0
 28 29  1  0  0  0  0
 28 52  1  0  0  0  0
 28 53  1  0  0  0  0
 29 54  1  0  0  0  0
 30 31  2  0  0  0  0
 30 55  1  0  0  0  0
 31 32  1  0  0  0  0
 32 33  1  0  0  0  0
 33 56  1  0  0  0  0
 33 57  1  0  0  0  0
 34 58  1  0  0  0  0
M  END
$$$$
