CHEMBL218817
 OpenBabel04072215363D

 73 79  0  0  0  0  0  0  0  0999 V2000
    1.5092   -0.4351   -1.0387 C   0  0  0  0  0  0  0  0  0  0  0  0
    2.7163    0.0469   -0.4555 O   0  0  0  0  0  0  0  0  0  0  0  0
    3.2647   -0.7294    0.5313 C   0  0  0  0  0  0  0  0  0  0  0  0
    2.7160   -1.9177    1.0164 C   0  0  0  0  0  0  0  0  0  0  0  0
    3.3653   -2.6279    2.0202 C   0  0  0  0  0  0  0  0  0  0  0  0
    4.5806   -2.1694    2.5185 C   0  0  0  0  0  0  0  0  0  0  0  0
    5.1794   -1.0174    2.0015 C   0  0  0  0  0  0  0  0  0  0  0  0
    6.4780   -0.6000    2.3820 N   0  0  0  0  0  0  0  0  0  0  0  0
    7.4304   -1.4487    2.9277 C   0  0  0  0  0  0  0  0  0  0  0  0
    7.2479   -2.6416    3.1433 O   0  0  0  0  0  0  0  0  0  0  0  0
    8.6178   -0.7855    3.1884 N   0  0  0  0  0  0  0  0  0  0  0  0
    9.7623   -1.3968    3.7511 C   0  0  0  0  0  0  0  0  0  0  0  0
    9.9558   -2.7766    3.7734 C   0  0  0  0  0  0  0  0  0  0  0  0
   10.9483   -3.3570    4.5663 C   0  0  0  0  0  0  0  0  0  0  0  0
   11.7667   -2.4977    5.3287 C   0  0  0  0  0  0  0  0  0  0  0  0
   11.7077   -1.1516    5.1417 C   0  0  0  0  0  0  0  0  0  0  0  0
   10.7034   -0.5639    4.3600 C   0  0  0  0  0  0  0  0  0  0  0  0
   12.7491   -0.7362    5.9235 C   0  0  0  0  0  0  0  0  0  0  0  0
   13.8482   -0.2094    5.1590 C   0  0  0  0  0  0  0  0  0  0  0  0
   14.5428    0.7901    5.8921 C   0  0  0  0  0  0  0  0  0  0  0  0
   14.0606    1.1195    7.1801 C   0  0  0  0  0  0  0  0  0  0  0  0
   13.6164   -0.3248    7.7387 C   0  0  0  0  0  0  0  0  0  0  0  0
   13.2125   -1.5885    7.0252 C   0  0  0  0  0  0  0  0  0  0  0  0
   12.8065   -2.7318    6.2837 N   0  0  0  0  0  0  0  0  0  0  0  0
   13.0391   -4.1877    6.4137 C   0  0  0  0  0  0  0  0  0  0  0  0
   14.2059   -5.1141    6.8291 C   0  0  0  0  0  0  0  0  0  0  0  0
   15.4578   -4.9952    5.9675 C   0  0  0  0  0  0  0  0  0  0  0  0
   14.5381   -5.1202    8.3034 C   0  0  0  0  0  0  0  0  0  0  0  0
   13.8261   -0.3153    9.2620 C   0  0  0  0  0  0  0  0  0  0  0  0
   15.2723    0.1679    9.5402 C   0  0  0  0  0  0  0  0  0  0  0  0
   15.2291    1.6308    9.3483 C   0  0  0  0  0  0  0  0  0  0  0  0
   15.3778    2.4797   10.3589 N   0  0  0  0  0  0  0  0  0  0  0  0
   14.6499    3.5400    9.9791 N   0  0  0  0  0  0  0  0  0  0  0  0
   14.2727    4.4427   11.0617 C   0  0  0  0  0  0  0  0  0  0  0  0
   14.2060    3.4138    8.6468 C   0  0  0  0  0  0  0  0  0  0  0  0
   14.6060    2.1385    8.1845 C   0  0  0  0  0  0  0  0  0  0  0  0
   15.8914    0.8128    5.3574 C   0  0  0  0  0  0  0  0  0  0  0  0
   16.9136    1.4189    5.6663 O   0  0  0  0  0  0  0  0  0  0  0  0
   15.9228   -0.2064    4.3900 N   0  0  0  0  0  0  0  0  0  0  0  0
   14.7118   -0.9803    4.2480 C   0  0  0  0  0  0  0  0  0  0  0  0
    4.4876   -0.2701    1.0418 C   0  0  0  0  0  0  0  0  0  0  0  0
    1.2621    0.2088   -1.8874 H   0  0  0  0  0  0  0  0  0  0  0  0
    0.6849   -0.3797   -0.3196 H   0  0  0  0  0  0  0  0  0  0  0  0
    1.6253   -1.4533   -1.4268 H   0  0  0  0  0  0  0  0  0  0  0  0
    1.7872   -2.3258    0.6345 H   0  0  0  0  0  0  0  0  0  0  0  0
    2.9428   -3.5524    2.4040 H   0  0  0  0  0  0  0  0  0  0  0  0
    5.0461   -2.7483    3.3109 H   0  0  0  0  0  0  0  0  0  0  0  0
    6.8205    0.2550    1.9710 H   0  0  0  0  0  0  0  0  0  0  0  0
    8.5536    0.2162    3.2864 H   0  0  0  0  0  0  0  0  0  0  0  0
    9.3118   -3.4504    3.2130 H   0  0  0  0  0  0  0  0  0  0  0  0
   11.0237   -4.4399    4.5954 H   0  0  0  0  0  0  0  0  0  0  0  0
   10.6028    0.5139    4.3634 H   0  0  0  0  0  0  0  0  0  0  0  0
   12.9962   -4.5041    5.3539 H   0  0  0  0  0  0  0  0  0  0  0  0
   12.1212   -4.5812    6.8729 H   0  0  0  0  0  0  0  0  0  0  0  0
   13.8290   -6.1356    6.6182 H   0  0  0  0  0  0  0  0  0  0  0  0
   15.9801   -4.0621    6.1775 H   0  0  0  0  0  0  0  0  0  0  0  0
   15.2188   -5.0416    4.8989 H   0  0  0  0  0  0  0  0  0  0  0  0
   16.1422   -5.8306    6.1713 H   0  0  0  0  0  0  0  0  0  0  0  0
   14.9676   -4.1642    8.6004 H   0  0  0  0  0  0  0  0  0  0  0  0
   15.2677   -5.9125    8.5192 H   0  0  0  0  0  0  0  0  0  0  0  0
   13.6492   -5.3299    8.9060 H   0  0  0  0  0  0  0  0  0  0  0  0
   13.6151   -1.2848    9.7021 H   0  0  0  0  0  0  0  0  0  0  0  0
   13.0820    0.4012    9.6594 H   0  0  0  0  0  0  0  0  0  0  0  0
   15.9849   -0.2356    8.8094 H   0  0  0  0  0  0  0  0  0  0  0  0
   15.6004   -0.0801   10.5469 H   0  0  0  0  0  0  0  0  0  0  0  0
   13.9560    3.8331   11.9244 H   0  0  0  0  0  0  0  0  0  0  0  0
   13.4498    5.1048   10.7913 H   0  0  0  0  0  0  0  0  0  0  0  0
   15.1494    5.0184   11.3819 H   0  0  0  0  0  0  0  0  0  0  0  0
   13.5935    4.2134    8.2466 H   0  0  0  0  0  0  0  0  0  0  0  0
   16.8193   -0.5602    4.0790 H   0  0  0  0  0  0  0  0  0  0  0  0
   14.9094   -1.9939    4.6215 H   0  0  0  0  0  0  0  0  0  0  0  0
   14.3733   -1.0178    3.2129 H   0  0  0  0  0  0  0  0  0  0  0  0
    4.9077    0.6483    0.6416 H   0  0  0  0  0  0  0  0  0  0  0  0
  1  2  1  0  0  0  0
  1 42  1  0  0  0  0
  1 43  1  0  0  0  0
  1 44  1  0  0  0  0
  2  3  1  0  0  0  0
  3  4  1  0  0  0  0
  3 41  2  0  0  0  0
  4  5  2  0  0  0  0
  4 45  1  0  0  0  0
  5  6  1  0  0  0  0
  5 46  1  0  0  0  0
  6  7  2  0  0  0  0
  6 47  1  0  0  0  0
  7  8  1  0  0  0  0
  7 41  1  0  0  0  0
  8  9  1  0  0  0  0
  8 48  1  0  0  0  0
  9 10  2  0  0  0  0
  9 11  1  0  0  0  0
 11 12  1  0  0  0  0
 11 49  1  0  0  0  0
 12 13  1  0  0  0  0
 12 17  2  0  0  0  0
 13 14  2  0  0  0  0
 13 50  1  0  0  0  0
 14 15  1  0  0  0  0
 14 51  1  0  0  0  0
 15 16  2  0  0  0  0
 15 24  1  0  0  0  0
 16 17  1  0  0  0  0
 16 18  1  0  0  0  0
 17 52  1  0  0  0  0
 18 19  1  0  0  0  0
 18 23  2  0  0  0  0
 19 20  2  0  0  0  0
 19 40  1  0  0  0  0
 20 21  1  0  0  0  0
 20 37  1  0  0  0  0
 21 22  2  0  0  0  0
 21 36  1  0  0  0  0
 22 23  1  0  0  0  0
 22 29  1  0  0  0  0
 23 24  1  0  0  0  0
 24 25  1  0  0  0  0
 25 26  1  0  0  0  0
 25 53  1  0  0  0  0
 25 54  1  0  0  0  0
 26 27  1  0  0  0  0
 26 28  1  0  0  0  0
 26 55  1  0  0  0  0
 27 56  1  0  0  0  0
 27 57  1  0  0  0  0
 27 58  1  0  0  0  0
 28 59  1  0  0  0  0
 28 60  1  0  0  0  0
 28 61  1  0  0  0  0
 29 30  1  0  0  0  0
 29 62  1  0  0  0  0
 29 63  1  0  0  0  0
 30 31  1  0  0  0  0
 30 64  1  0  0  0  0
 30 65  1  0  0  0  0
 31 32  2  0  0  0  0
 31 36  1  0  0  0  0
 32 33  1  0  0  0  0
 33 34  1  0  0  0  0
 33 35  1  0  0  0  0
 34 66  1  0  0  0  0
 34 67  1  0  0  0  0
 34 68  1  0  0  0  0
 35 36  2  0  0  0  0
 35 69  1  0  0  0  0
 37 38  2  0  0  0  0
 37 39  1  0  0  0  0
 39 40  1  0  0  0  0
 39 70  1  0  0  0  0
 40 71  1  0  0  0  0
 40 72  1  0  0  0  0
 41 73  1  0  0  0  0
M  END
$$$$
