CHEMBL566003
 OpenBabel04072215383D

 58 62  0  0  0  0  0  0  0  0999 V2000
    0.6789   -4.7696   -6.6452 C   0  0  0  0  0  0  0  0  0  0  0  0
   -0.4376   -4.1891   -5.9407 N   0  0  0  0  0  0  0  0  0  0  0  0
   -1.7480   -4.3145   -6.2817 C   0  0  0  0  0  0  0  0  0  0  0  0
   -2.5182   -3.6298   -5.4652 N   0  0  0  0  0  0  0  0  0  0  0  0
   -1.6673   -3.0400   -4.5389 C   0  0  0  0  0  0  0  0  0  0  0  0
   -2.0868   -2.1416   -3.4483 C   0  0  0  0  0  0  0  0  0  0  0  0
   -1.2552   -1.6319   -2.6977 O   0  0  0  0  0  0  0  0  0  0  0  0
   -3.5179   -1.8829   -3.3633 C   0  0  0  0  0  0  0  0  0  0  0  0
   -4.5900   -2.7106   -3.6298 C   0  0  0  0  0  0  0  0  0  0  0  0
   -5.8460   -2.0680   -3.4625 C   0  0  0  0  0  0  0  0  0  0  0  0
   -7.0472   -2.6635   -3.6871 N   0  0  0  0  0  0  0  0  0  0  0  0
   -8.1283   -1.9049   -3.4512 C   0  0  0  0  0  0  0  0  0  0  0  0
   -8.0973   -0.5927   -3.0236 C   0  0  0  0  0  0  0  0  0  0  0  0
   -6.8623    0.0466   -2.8732 C   0  0  0  0  0  0  0  0  0  0  0  0
   -6.7485    1.3863   -2.5351 O   0  0  0  0  0  0  0  0  0  0  0  0
   -7.6067    2.2862   -3.1318 C   0  0  0  0  0  0  0  0  0  0  0  0
   -8.1445    2.0984   -4.4051 C   0  0  0  0  0  0  0  0  0  0  0  0
   -9.1221    2.9678   -4.8883 C   0  0  0  0  0  0  0  0  0  0  0  0
   -9.5312    4.0822   -4.1488 C   0  0  0  0  0  0  0  0  0  0  0  0
  -10.5684    4.9342   -4.5981 N   0  0  0  0  0  0  0  0  0  0  0  0
  -11.5490    4.5762   -5.5124 C   0  0  0  0  0  0  0  0  0  0  0  0
  -11.6780    3.4541   -6.0056 O   0  0  0  0  0  0  0  0  0  0  0  0
  -12.5135    5.6509   -5.9429 C   0  0  0  0  0  0  0  0  0  0  0  0
  -12.7921    6.7049   -4.9185 C   0  0  0  0  0  0  0  0  0  0  0  0
  -11.9036    7.5031   -4.6097 O   0  0  0  0  0  0  0  0  0  0  0  0
  -14.0324    6.6162   -4.3121 N   0  0  0  0  0  0  0  0  0  0  0  0
  -14.3530    7.4910   -3.2531 C   0  0  0  0  0  0  0  0  0  0  0  0
  -14.1698    8.8705   -3.3853 C   0  0  0  0  0  0  0  0  0  0  0  0
  -14.3371    9.7057   -2.2841 C   0  0  0  0  0  0  0  0  0  0  0  0
  -14.6740    9.1595   -1.0471 C   0  0  0  0  0  0  0  0  0  0  0  0
  -14.9029    7.7875   -0.9267 C   0  0  0  0  0  0  0  0  0  0  0  0
  -14.7778    6.9532   -2.0387 C   0  0  0  0  0  0  0  0  0  0  0  0
   -8.8827    4.3555   -2.9414 C   0  0  0  0  0  0  0  0  0  0  0  0
   -7.9408    3.4482   -2.4355 C   0  0  0  0  0  0  0  0  0  0  0  0
   -7.3815    3.7000   -1.2409 F   0  0  0  0  0  0  0  0  0  0  0  0
   -5.7125   -0.7418   -3.0528 C   0  0  0  0  0  0  0  0  0  0  0  0
   -4.0529   -0.3341   -2.8542 S   0  0  0  0  0  0  0  0  0  0  0  0
   -0.3635   -3.3969   -4.8300 C   0  0  0  0  0  0  0  0  0  0  0  0
    0.3134   -5.3212   -7.5155 H   0  0  0  0  0  0  0  0  0  0  0  0
    1.2030   -5.4441   -5.9673 H   0  0  0  0  0  0  0  0  0  0  0  0
    1.3368   -3.9590   -6.9715 H   0  0  0  0  0  0  0  0  0  0  0  0
   -2.0929   -4.8993   -7.1250 H   0  0  0  0  0  0  0  0  0  0  0  0
   -4.4960   -3.7405   -3.9519 H   0  0  0  0  0  0  0  0  0  0  0  0
   -9.0786   -2.4002   -3.6363 H   0  0  0  0  0  0  0  0  0  0  0  0
   -9.0313   -0.0679   -2.8541 H   0  0  0  0  0  0  0  0  0  0  0  0
   -7.8505    1.2590   -5.0279 H   0  0  0  0  0  0  0  0  0  0  0  0
   -9.5430    2.7478   -5.8641 H   0  0  0  0  0  0  0  0  0  0  0  0
  -10.6579    5.8382   -4.1255 H   0  0  0  0  0  0  0  0  0  0  0  0
  -13.4534    5.1712   -6.2372 H   0  0  0  0  0  0  0  0  0  0  0  0
  -12.1064    6.1415   -6.8337 H   0  0  0  0  0  0  0  0  0  0  0  0
  -14.4576    5.6967   -4.2821 H   0  0  0  0  0  0  0  0  0  0  0  0
  -13.8808    9.3001   -4.3415 H   0  0  0  0  0  0  0  0  0  0  0  0
  -14.1719   10.7748   -2.3865 H   0  0  0  0  0  0  0  0  0  0  0  0
  -14.7467    9.8030   -0.1745 H   0  0  0  0  0  0  0  0  0  0  0  0
  -15.1466    7.3641    0.0442 H   0  0  0  0  0  0  0  0  0  0  0  0
  -14.9230    5.8838   -1.9179 H   0  0  0  0  0  0  0  0  0  0  0  0
   -9.1271    5.2313   -2.3468 H   0  0  0  0  0  0  0  0  0  0  0  0
    0.5740   -3.1343   -4.3576 H   0  0  0  0  0  0  0  0  0  0  0  0
  1  2  1  0  0  0  0
  1 39  1  0  0  0  0
  1 40  1  0  0  0  0
  1 41  1  0  0  0  0
  2  3  1  0  0  0  0
  2 38  1  0  0  0  0
  3  4  2  0  0  0  0
  3 42  1  0  0  0  0
  4  5  1  0  0  0  0
  5  6  1  0  0  0  0
  5 38  2  0  0  0  0
  6  7  2  0  0  0  0
  6  8  1  0  0  0  0
  8  9  2  0  0  0  0
  8 37  1  0  0  0  0
  9 10  1  0  0  0  0
  9 43  1  0  0  0  0
 10 11  1  0  0  0  0
 10 36  2  0  0  0  0
 11 12  2  0  0  0  0
 12 13  1  0  0  0  0
 12 44  1  0  0  0  0
 13 14  2  0  0  0  0
 13 45  1  0  0  0  0
 14 15  1  0  0  0  0
 14 36  1  0  0  0  0
 15 16  1  0  0  0  0
 16 17  1  0  0  0  0
 16 34  2  0  0  0  0
 17 18  2  0  0  0  0
 17 46  1  0  0  0  0
 18 19  1  0  0  0  0
 18 47  1  0  0  0  0
 19 20  1  0  0  0  0
 19 33  2  0  0  0  0
 20 21  1  0  0  0  0
 20 48  1  0  0  0  0
 21 22  2  0  0  0  0
 21 23  1  0  0  0  0
 23 24  1  0  0  0  0
 23 49  1  0  0  0  0
 23 50  1  0  0  0  0
 24 25  2  0  0  0  0
 24 26  1  0  0  0  0
 26 27  1  0  0  0  0
 26 51  1  0  0  0  0
 27 28  1  0  0  0  0
 27 32  2  0  0  0  0
 28 29  2  0  0  0  0
 28 52  1  0  0  0  0
 29 30  1  0  0  0  0
 29 53  1  0  0  0  0
 30 31  2  0  0  0  0
 30 54  1  0  0  0  0
 31 32  1  0  0  0  0
 31 55  1  0  0  0  0
 32 56  1  0  0  0  0
 33 34  1  0  0  0  0
 33 57  1  0  0  0  0
 34 35  1  0  0  0  0
 36 37  1  0  0  0  0
 38 58  1  0  0  0  0
M  END
$$$$
