CHEMBL2002649
 OpenBabel04072215363D

 29 31  0  0  0  0  0  0  0  0999 V2000
    1.1705    0.4287   -0.4577 C   0  0  0  0  0  0  0  0  0  0  0  0
    2.5189    0.1060   -0.1351 O   0  0  0  0  0  0  0  0  0  0  0  0
    3.1037   -0.8337   -0.9432 C   0  0  0  0  0  0  0  0  0  0  0  0
    4.0889   -1.6181   -0.3091 C   0  0  0  0  0  0  0  0  0  0  0  0
    4.7719   -2.6161   -1.0043 C   0  0  0  0  0  0  0  0  0  0  0  0
    4.4595   -2.7794   -2.3348 C   0  0  0  0  0  0  0  0  0  0  0  0
    3.5073   -1.9903   -2.9918 C   0  0  0  0  0  0  0  0  0  0  0  0
    2.8144   -1.0082   -2.3037 C   0  0  0  0  0  0  0  0  0  0  0  0
    3.4979   -2.4545   -4.3845 C   0  0  0  0  0  0  0  0  0  0  0  0
    2.7358   -1.9955   -5.3901 C   0  0  0  0  0  0  0  0  0  0  0  0
    2.7470   -2.5233   -6.7023 C   0  0  0  0  0  0  0  0  0  0  0  0
    3.5800   -2.1735   -7.7363 C   0  0  0  0  0  0  0  0  0  0  0  0
    3.3039   -3.0907   -8.7144 N   0  0  0  0  0  0  0  0  0  0  0  0
    2.3064   -3.9036   -8.2500 C   0  0  0  0  0  0  0  0  0  0  0  0
    1.9198   -3.5550   -7.0432 N   0  0  0  0  0  0  0  0  0  0  0  0
    4.5125   -3.5690   -4.4899 C   0  0  0  0  0  0  0  0  0  0  0  0
    4.8665   -4.2060   -5.4622 O   0  0  0  0  0  0  0  0  0  0  0  0
    5.0234   -3.7001   -3.2083 N   0  0  0  0  0  0  0  0  0  0  0  0
    0.7643    1.0225    0.3667 H   0  0  0  0  0  0  0  0  0  0  0  0
    0.5580   -0.4746   -0.5537 H   0  0  0  0  0  0  0  0  0  0  0  0
    1.1175    1.0392   -1.3641 H   0  0  0  0  0  0  0  0  0  0  0  0
    4.3115   -1.4470    0.7418 H   0  0  0  0  0  0  0  0  0  0  0  0
    5.5192   -3.2272   -0.5121 H   0  0  0  0  0  0  0  0  0  0  0  0
    2.0894   -0.3897   -2.8177 H   0  0  0  0  0  0  0  0  0  0  0  0
    2.0278   -1.1938   -5.2117 H   0  0  0  0  0  0  0  0  0  0  0  0
    4.3626   -1.4360   -7.8378 H   0  0  0  0  0  0  0  0  0  0  0  0
    3.7795   -3.1859   -9.6006 H   0  0  0  0  0  0  0  0  0  0  0  0
    1.9197   -4.7343   -8.8245 H   0  0  0  0  0  0  0  0  0  0  0  0
    5.7346   -4.3768   -2.9808 H   0  0  0  0  0  0  0  0  0  0  0  0
  1  2  1  0  0  0  0
  1 19  1  0  0  0  0
  1 20  1  0  0  0  0
  1 21  1  0  0  0  0
  2  3  1  0  0  0  0
  3  4  1  0  0  0  0
  3  8  2  0  0  0  0
  4  5  2  0  0  0  0
  4 22  1  0  0  0  0
  5  6  1  0  0  0  0
  5 23  1  0  0  0  0
  6  7  2  0  0  0  0
  6 18  1  0  0  0  0
  7  8  1  0  0  0  0
  7  9  1  0  0  0  0
  8 24  1  0  0  0  0
  9 10  2  3  0  0  0
  9 16  1  0  0  0  0
 10 11  1  0  0  0  0
 10 25  1  0  0  0  0
 11 12  2  0  0  0  0
 11 15  1  0  0  0  0
 12 13  1  0  0  0  0
 12 26  1  0  0  0  0
 13 14  1  0  0  0  0
 13 27  1  0  0  0  0
 14 15  2  0  0  0  0
 14 28  1  0  0  0  0
 16 17  2  0  0  0  0
 16 18  1  0  0  0  0
 18 29  1  0  0  0  0
M  END
$$$$
