CHEMBL3676392
 OpenBabel04072215373D

 59 61  0  0  0  0  0  0  0  0999 V2000
    1.5290   -1.3781    0.0868 C   0  0  0  0  0  0  0  0  0  0  0  0
    2.5828   -0.5576    0.0214 C   0  0  0  0  0  0  0  0  0  0  0  0
    3.1475   -0.1561   -1.2956 C   0  0  0  0  0  0  0  0  0  0  0  0
    2.5120   -0.2786   -2.3351 O   0  0  0  0  0  0  0  0  0  0  0  0
    4.4463    0.3086   -1.1879 N   0  0  0  0  0  0  0  0  0  0  0  0
    5.1512    0.7325   -2.3363 C   0  0  0  0  0  0  0  0  0  0  0  0
    6.3132    0.0216   -2.6399 C   0  0  0  0  0  0  0  0  0  0  0  0
    6.9723    0.2112   -3.8769 C   0  0  0  0  0  0  0  0  0  0  0  0
    8.0513   -0.5660   -4.3350 C   0  0  0  0  0  0  0  0  0  0  0  0
    8.4730   -1.6806   -3.5753 N   0  0  0  0  0  0  0  0  0  0  0  0
    9.7585   -2.2552   -3.5126 C   0  0  0  0  0  0  0  0  0  0  0  0
   10.9109   -1.4787   -3.6779 C   0  0  0  0  0  0  0  0  0  0  0  0
   12.1678   -1.9857   -3.3412 C   0  0  0  0  0  0  0  0  0  0  0  0
   12.2836   -3.2898   -2.8647 C   0  0  0  0  0  0  0  0  0  0  0  0
   13.9564   -3.9063   -2.2376 Br  0  0  0  0  0  0  0  0  0  0  0  0
   11.1679   -4.1174   -2.7939 C   0  0  0  0  0  0  0  0  0  0  0  0
    9.9189   -3.5917   -3.1148 C   0  0  0  0  0  0  0  0  0  0  0  0
    8.8378   -4.3807   -3.0019 F   0  0  0  0  0  0  0  0  0  0  0  0
    8.6815   -0.3015   -5.4934 N   0  0  0  0  0  0  0  0  0  0  0  0
    8.2025    0.7145   -6.2155 C   0  0  0  0  0  0  0  0  0  0  0  0
    7.1608    1.4903   -5.8966 N   0  0  0  0  0  0  0  0  0  0  0  0
    6.5464    1.2287   -4.7394 C   0  0  0  0  0  0  0  0  0  0  0  0
    5.4481    1.9977   -4.3746 C   0  0  0  0  0  0  0  0  0  0  0  0
    4.7363    1.7736   -3.1890 C   0  0  0  0  0  0  0  0  0  0  0  0
    3.7271    2.6942   -2.9701 O   0  0  0  0  0  0  0  0  0  0  0  0
    3.5214    3.0090   -1.5955 C   0  0  0  0  0  0  0  0  0  0  0  0
    3.1257    4.4581   -1.3354 C   0  0  0  0  0  0  0  0  0  0  0  0
    2.9759    4.7205    0.0820 O   0  0  0  0  0  0  0  0  0  0  0  0
    4.1936    4.5512    0.8080 C   0  0  0  0  0  0  0  0  0  0  0  0
    3.9812    4.6824    2.3128 C   0  0  0  0  0  0  0  0  0  0  0  0
    5.2181    4.4163    3.0059 O   0  0  0  0  0  0  0  0  0  0  0  0
    5.5633    3.0978    3.1286 C   0  0  0  0  0  0  0  0  0  0  0  0
    4.8693    2.1527    2.7738 O   0  0  0  0  0  0  0  0  0  0  0  0
    6.8961    2.9723    3.8099 C   0  0  0  0  0  0  0  0  0  0  0  0
    7.9048    2.2371    2.9836 C   0  0  0  0  0  0  0  0  0  0  0  0
    7.7535    1.8242    1.8514 O   0  0  0  0  0  0  0  0  0  0  0  0
    9.0963    2.0909    3.6419 O   0  0  0  0  0  0  0  0  0  0  0  0
    1.0771   -1.6334    1.0371 H   0  0  0  0  0  0  0  0  0  0  0  0
    1.0850   -1.8039   -0.8120 H   0  0  0  0  0  0  0  0  0  0  0  0
    3.0118   -0.1186    0.9153 H   0  0  0  0  0  0  0  0  0  0  0  0
    4.9845   -0.0966   -0.4301 H   0  0  0  0  0  0  0  0  0  0  0  0
    6.6807   -0.7303   -1.9449 H   0  0  0  0  0  0  0  0  0  0  0  0
    7.7236   -2.3519   -3.4336 H   0  0  0  0  0  0  0  0  0  0  0  0
   10.8329   -0.4465   -4.0096 H   0  0  0  0  0  0  0  0  0  0  0  0
   13.0356   -1.3355   -3.4127 H   0  0  0  0  0  0  0  0  0  0  0  0
   11.2444   -5.1442   -2.4526 H   0  0  0  0  0  0  0  0  0  0  0  0
    8.7033    0.9279   -7.1533 H   0  0  0  0  0  0  0  0  0  0  0  0
    5.1364    2.8054   -5.0335 H   0  0  0  0  0  0  0  0  0  0  0  0
    4.4469    2.8208   -1.0552 H   0  0  0  0  0  0  0  0  0  0  0  0
    2.7287    2.3766   -1.1877 H   0  0  0  0  0  0  0  0  0  0  0  0
    2.1595    4.6761   -1.8063 H   0  0  0  0  0  0  0  0  0  0  0  0
    3.8452    5.1693   -1.7616 H   0  0  0  0  0  0  0  0  0  0  0  0
    4.9398    5.2725    0.4587 H   0  0  0  0  0  0  0  0  0  0  0  0
    4.6054    3.5567    0.6496 H   0  0  0  0  0  0  0  0  0  0  0  0
    3.1872    4.0169    2.6696 H   0  0  0  0  0  0  0  0  0  0  0  0
    3.6696    5.7022    2.5616 H   0  0  0  0  0  0  0  0  0  0  0  0
    6.7362    2.4520    4.7543 H   0  0  0  0  0  0  0  0  0  0  0  0
    7.2951    3.9708    4.0208 H   0  0  0  0  0  0  0  0  0  0  0  0
    9.1288    2.4831    4.5346 H   0  0  0  0  0  0  0  0  0  0  0  0
  1  2  2  0  0  0  0
  1 38  1  0  0  0  0
  1 39  1  0  0  0  0
  2  3  1  0  0  0  0
  2 40  1  0  0  0  0
  3  4  2  0  0  0  0
  3  5  1  0  0  0  0
  5  6  1  0  0  0  0
  5 41  1  0  0  0  0
  6  7  1  0  0  0  0
  6 24  2  0  0  0  0
  7  8  2  0  0  0  0
  7 42  1  0  0  0  0
  8  9  1  0  0  0  0
  8 22  1  0  0  0  0
  9 10  1  0  0  0  0
  9 19  2  0  0  0  0
 10 11  1  0  0  0  0
 10 43  1  0  0  0  0
 11 12  1  0  0  0  0
 11 17  2  0  0  0  0
 12 13  2  0  0  0  0
 12 44  1  0  0  0  0
 13 14  1  0  0  0  0
 13 45  1  0  0  0  0
 14 15  1  0  0  0  0
 14 16  2  0  0  0  0
 16 17  1  0  0  0  0
 16 46  1  0  0  0  0
 17 18  1  0  0  0  0
 19 20  1  0  0  0  0
 20 21  2  0  0  0  0
 20 47  1  0  0  0  0
 21 22  1  0  0  0  0
 22 23  2  0  0  0  0
 23 24  1  0  0  0  0
 23 48  1  0  0  0  0
 24 25  1  0  0  0  0
 25 26  1  0  0  0  0
 26 27  1  0  0  0  0
 26 49  1  0  0  0  0
 26 50  1  0  0  0  0
 27 28  1  0  0  0  0
 27 51  1  0  0  0  0
 27 52  1  0  0  0  0
 28 29  1  0  0  0  0
 29 30  1  0  0  0  0
 29 53  1  0  0  0  0
 29 54  1  0  0  0  0
 30 31  1  0  0  0  0
 30 55  1  0  0  0  0
 30 56  1  0  0  0  0
 31 32  1  0  0  0  0
 32 33  2  0  0  0  0
 32 34  1  0  0  0  0
 34 35  1  0  0  0  0
 34 57  1  0  0  0  0
 34 58  1  0  0  0  0
 35 36  2  0  0  0  0
 35 37  1  0  0  0  0
 37 59  1  0  0  0  0
M  END
$$$$
