CHEMBL3982410
 OpenBabel04072215373D

 55 58  0  0  0  0  0  0  0  0999 V2000
    2.0428   -0.1321    2.6046 C   0  0  0  0  0  0  0  0  0  0  0  0
    0.6344   -0.0929    2.0758 C   0  0  0  0  0  0  0  0  0  0  0  0
    0.0096    1.1530    2.0017 C   0  0  0  0  0  0  0  0  0  0  0  0
   -1.2949    1.2746    1.5251 C   0  0  0  0  0  0  0  0  0  0  0  0
   -2.0253    0.1690    1.0938 C   0  0  0  0  0  0  0  0  0  0  0  0
   -3.3608    0.2737    0.6038 N   0  0  0  0  0  0  0  0  0  0  0  0
   -4.0286    1.4696    0.3819 C   0  0  0  0  0  0  0  0  0  0  0  0
   -3.5258    2.5800    0.5099 O   0  0  0  0  0  0  0  0  0  0  0  0
   -5.3656    1.3034    0.0289 N   0  0  0  0  0  0  0  0  0  0  0  0
   -6.1549    2.4655   -0.2108 C   0  0  0  0  0  0  0  0  0  0  0  0
   -5.6674    3.5155   -1.0002 C   0  0  0  0  0  0  0  0  0  0  0  0
   -6.3684    4.7208   -1.1105 C   0  0  0  0  0  0  0  0  0  0  0  0
   -7.6064    4.8717   -0.4859 C   0  0  0  0  0  0  0  0  0  0  0  0
   -8.3449    6.0407   -0.5150 O   0  0  0  0  0  0  0  0  0  0  0  0
   -8.4318    6.7831   -1.6802 C   0  0  0  0  0  0  0  0  0  0  0  0
   -8.2832    6.2397   -2.9512 C   0  0  0  0  0  0  0  0  0  0  0  0
   -8.3740    7.0920   -4.0282 C   0  0  0  0  0  0  0  0  0  0  0  0
   -8.6555    8.4012   -3.9175 N   0  0  0  0  0  0  0  0  0  0  0  0
   -8.8705    8.9186   -2.7011 C   0  0  0  0  0  0  0  0  0  0  0  0
   -9.2143   10.2891   -2.5920 N   0  0  0  0  0  0  0  0  0  0  0  0
   -9.3465   11.1320   -3.6843 C   0  0  0  0  0  0  0  0  0  0  0  0
   -9.1873   10.8434   -4.8618 O   0  0  0  0  0  0  0  0  0  0  0  0
   -9.7205   12.5558   -3.4113 C   0  0  0  0  0  0  0  0  0  0  0  0
   -9.2180   13.3364   -2.2241 C   0  0  0  0  0  0  0  0  0  0  0  0
  -10.6766   12.9854   -2.3286 C   0  0  0  0  0  0  0  0  0  0  0  0
   -8.7558    8.1441   -1.5499 C   0  0  0  0  0  0  0  0  0  0  0  0
   -8.1041    3.8200    0.2936 C   0  0  0  0  0  0  0  0  0  0  0  0
   -7.3941    2.6112    0.4142 C   0  0  0  0  0  0  0  0  0  0  0  0
   -1.4074   -1.0866    1.1676 C   0  0  0  0  0  0  0  0  0  0  0  0
   -0.0788   -1.2365    1.6604 C   0  0  0  0  0  0  0  0  0  0  0  0
    0.5032   -2.6356    1.7191 C   0  0  0  0  0  0  0  0  0  0  0  0
    1.7762   -2.7198    2.1940 F   0  0  0  0  0  0  0  0  0  0  0  0
   -0.2349   -3.4618    2.5140 F   0  0  0  0  0  0  0  0  0  0  0  0
    0.5322   -3.2342    0.4947 F   0  0  0  0  0  0  0  0  0  0  0  0
    2.3973    0.8717    2.8676 H   0  0  0  0  0  0  0  0  0  0  0  0
    2.7253   -0.5227    1.8453 H   0  0  0  0  0  0  0  0  0  0  0  0
    2.0940   -0.7371    3.5138 H   0  0  0  0  0  0  0  0  0  0  0  0
    0.5269    2.0557    2.3124 H   0  0  0  0  0  0  0  0  0  0  0  0
   -1.6967    2.2784    1.5154 H   0  0  0  0  0  0  0  0  0  0  0  0
   -3.8072   -0.5733    0.2770 H   0  0  0  0  0  0  0  0  0  0  0  0
   -5.8295    0.5287    0.4804 H   0  0  0  0  0  0  0  0  0  0  0  0
   -4.7097    3.4218   -1.5087 H   0  0  0  0  0  0  0  0  0  0  0  0
   -5.9189    5.5319   -1.6764 H   0  0  0  0  0  0  0  0  0  0  0  0
   -8.0888    5.1887   -3.1220 H   0  0  0  0  0  0  0  0  0  0  0  0
   -8.2206    6.7398   -5.0437 H   0  0  0  0  0  0  0  0  0  0  0  0
   -9.3819   10.6616   -1.6711 H   0  0  0  0  0  0  0  0  0  0  0  0
   -9.7950   13.1225   -4.3394 H   0  0  0  0  0  0  0  0  0  0  0  0
   -8.9256   14.3667   -2.4058 H   0  0  0  0  0  0  0  0  0  0  0  0
   -8.6154   12.8407   -1.4750 H   0  0  0  0  0  0  0  0  0  0  0  0
  -11.3735   13.7807   -2.5782 H   0  0  0  0  0  0  0  0  0  0  0  0
  -11.0868   12.2476   -1.6528 H   0  0  0  0  0  0  0  0  0  0  0  0
   -8.9193    8.5648   -0.5640 H   0  0  0  0  0  0  0  0  0  0  0  0
   -9.0356    3.9494    0.8395 H   0  0  0  0  0  0  0  0  0  0  0  0
   -7.7852    1.8332    1.0638 H   0  0  0  0  0  0  0  0  0  0  0  0
   -1.9444   -1.9794    0.8469 H   0  0  0  0  0  0  0  0  0  0  0  0
  1  2  1  0  0  0  0
  1 35  1  0  0  0  0
  1 36  1  0  0  0  0
  1 37  1  0  0  0  0
  2  3  1  0  0  0  0
  2 30  2  0  0  0  0
  3  4  2  0  0  0  0
  3 38  1  0  0  0  0
  4  5  1  0  0  0  0
  4 39  1  0  0  0  0
  5  6  1  0  0  0  0
  5 29  2  0  0  0  0
  6  7  1  0  0  0  0
  6 40  1  0  0  0  0
  7  8  2  0  0  0  0
  7  9  1  0  0  0  0
  9 10  1  0  0  0  0
  9 41  1  0  0  0  0
 10 11  1  0  0  0  0
 10 28  2  0  0  0  0
 11 12  2  0  0  0  0
 11 42  1  0  0  0  0
 12 13  1  0  0  0  0
 12 43  1  0  0  0  0
 13 14  1  0  0  0  0
 13 27  2  0  0  0  0
 14 15  1  0  0  0  0
 15 16  1  0  0  0  0
 15 26  2  0  0  0  0
 16 17  2  0  0  0  0
 16 44  1  0  0  0  0
 17 18  1  0  0  0  0
 17 45  1  0  0  0  0
 18 19  2  0  0  0  0
 19 20  1  0  0  0  0
 19 26  1  0  0  0  0
 20 21  1  0  0  0  0
 20 46  1  0  0  0  0
 21 22  2  0  0  0  0
 21 23  1  0  0  0  0
 23 24  1  0  0  0  0
 23 25  1  0  0  0  0
 23 47  1  0  0  0  0
 24 25  1  0  0  0  0
 24 48  1  0  0  0  0
 24 49  1  0  0  0  0
 25 50  1  0  0  0  0
 25 51  1  0  0  0  0
 26 52  1  0  0  0  0
 27 28  1  0  0  0  0
 27 53  1  0  0  0  0
 28 54  1  0  0  0  0
 29 30  1  0  0  0  0
 29 55  1  0  0  0  0
 30 31  1  0  0  0  0
 31 32  1  0  0  0  0
 31 33  1  0  0  0  0
 31 34  1  0  0  0  0
M  END
$$$$
