CHEMBL2096808
 OpenBabel04072215363D

 58 61  0  0  0  0  0  0  0  0999 V2000
    1.2656    0.0274    0.0698 C   0  0  0  0  0  0  0  0  0  0  0  0
    2.7295    0.0712    0.1597 N   0  0  0  0  0  0  0  0  0  0  0  0
    3.3982   -1.0908    0.5752 C   0  0  0  0  0  0  0  0  0  0  0  0
    2.9609   -2.3614    0.2052 C   0  0  0  0  0  0  0  0  0  0  0  0
    3.6499   -3.5083    0.6027 C   0  0  0  0  0  0  0  0  0  0  0  0
    4.8119   -3.4227    1.3779 C   0  0  0  0  0  0  0  0  0  0  0  0
    5.5394   -4.5576    1.8048 N   0  0  0  0  0  0  0  0  0  0  0  0
    5.2738   -5.8626    1.4334 C   0  0  0  0  0  0  0  0  0  0  0  0
    4.4316   -6.2038    0.6115 O   0  0  0  0  0  0  0  0  0  0  0  0
    6.0478   -6.7750    2.1430 N   0  0  0  0  0  0  0  0  0  0  0  0
    5.8631   -8.1590    1.9073 C   0  0  0  0  0  0  0  0  0  0  0  0
    5.8107   -8.6701    0.6050 C   0  0  0  0  0  0  0  0  0  0  0  0
    5.5035  -10.0117    0.3851 C   0  0  0  0  0  0  0  0  0  0  0  0
    5.2425  -10.8466    1.4683 C   0  0  0  0  0  0  0  0  0  0  0  0
    5.3241  -10.3482    2.7698 C   0  0  0  0  0  0  0  0  0  0  0  0
    5.6592   -9.0103    2.9933 C   0  0  0  0  0  0  0  0  0  0  0  0
    5.2583   -2.1583    1.7621 C   0  0  0  0  0  0  0  0  0  0  0  0
    4.5552   -1.0117    1.3700 C   0  0  0  0  0  0  0  0  0  0  0  0
    3.2957    1.1912   -0.4941 C   0  0  0  0  0  0  0  0  0  0  0  0
    4.5725    1.1476   -1.0170 C   0  0  0  0  0  0  0  0  0  0  0  0
    5.0375    2.2840   -1.6333 C   0  0  0  0  0  0  0  0  0  0  0  0
    4.3178    3.4143   -1.7405 N   0  0  0  0  0  0  0  0  0  0  0  0
    3.0948    3.3900   -1.2045 C   0  0  0  0  0  0  0  0  0  0  0  0
    2.3440    4.5675   -1.2758 N   0  0  0  0  0  0  0  0  0  0  0  0
    1.3902    5.0097   -0.3445 C   0  0  0  0  0  0  0  0  0  0  0  0
    1.4051    4.5985    0.9990 C   0  0  0  0  0  0  0  0  0  0  0  0
    0.4144    4.9989    1.8964 C   0  0  0  0  0  0  0  0  0  0  0  0
   -0.6163    5.8241    1.4629 C   0  0  0  0  0  0  0  0  0  0  0  0
   -0.6287    6.2561    0.1360 C   0  0  0  0  0  0  0  0  0  0  0  0
   -1.9381    7.3157   -0.4158 S   0  0  0  0  0  0  0  0  0  0  0  0
   -3.0553    6.1966   -0.9502 N   0  0  0  0  0  0  0  0  0  0  0  0
   -2.5140    7.9653    0.7387 O   0  0  0  0  0  0  0  0  0  0  0  0
   -1.4740    8.0446   -1.5724 O   0  0  0  0  0  0  0  0  0  0  0  0
    0.3771    5.8779   -0.7623 C   0  0  0  0  0  0  0  0  0  0  0  0
    2.5611    2.3101   -0.6129 N   0  0  0  0  0  0  0  0  0  0  0  0
    0.8333   -0.8306    0.6005 H   0  0  0  0  0  0  0  0  0  0  0  0
    0.9405   -0.0342   -0.9767 H   0  0  0  0  0  0  0  0  0  0  0  0
    0.8090    0.9110    0.5311 H   0  0  0  0  0  0  0  0  0  0  0  0
    2.0882   -2.4916   -0.4291 H   0  0  0  0  0  0  0  0  0  0  0  0
    3.2423   -4.4522    0.2704 H   0  0  0  0  0  0  0  0  0  0  0  0
    6.3876   -4.3970    2.3292 H   0  0  0  0  0  0  0  0  0  0  0  0
    6.2271   -6.5077    3.0994 H   0  0  0  0  0  0  0  0  0  0  0  0
    5.9796   -8.0208   -0.2513 H   0  0  0  0  0  0  0  0  0  0  0  0
    5.4383  -10.3920   -0.6304 H   0  0  0  0  0  0  0  0  0  0  0  0
    4.9628  -11.8826    1.2965 H   0  0  0  0  0  0  0  0  0  0  0  0
    5.0964  -10.9979    3.6101 H   0  0  0  0  0  0  0  0  0  0  0  0
    5.6758   -8.6331    4.0110 H   0  0  0  0  0  0  0  0  0  0  0  0
    6.1519   -2.0392    2.3710 H   0  0  0  0  0  0  0  0  0  0  0  0
    4.9112   -0.0381    1.7034 H   0  0  0  0  0  0  0  0  0  0  0  0
    5.1854    0.2593   -0.9812 H   0  0  0  0  0  0  0  0  0  0  0  0
    6.0276    2.3154   -2.0713 H   0  0  0  0  0  0  0  0  0  0  0  0
    2.9056    5.2969   -1.6954 H   0  0  0  0  0  0  0  0  0  0  0  0
    2.2027    3.9549    1.3660 H   0  0  0  0  0  0  0  0  0  0  0  0
    0.4506    4.6576    2.9282 H   0  0  0  0  0  0  0  0  0  0  0  0
   -1.3965    6.1235    2.1591 H   0  0  0  0  0  0  0  0  0  0  0  0
   -3.6221    5.7724   -0.2217 H   0  0  0  0  0  0  0  0  0  0  0  0
   -2.7779    5.6446   -1.7564 H   0  0  0  0  0  0  0  0  0  0  0  0
    0.3510    6.2216   -1.7935 H   0  0  0  0  0  0  0  0  0  0  0  0
  1  2  1  0  0  0  0
  1 36  1  0  0  0  0
  1 37  1  0  0  0  0
  1 38  1  0  0  0  0
  2  3  1  0  0  0  0
  2 19  1  0  0  0  0
  3  4  1  0  0  0  0
  3 18  2  0  0  0  0
  4  5  2  0  0  0  0
  4 39  1  0  0  0  0
  5  6  1  0  0  0  0
  5 40  1  0  0  0  0
  6  7  1  0  0  0  0
  6 17  2  0  0  0  0
  7  8  1  0  0  0  0
  7 41  1  0  0  0  0
  8  9  2  0  0  0  0
  8 10  1  0  0  0  0
 10 11  1  0  0  0  0
 10 42  1  0  0  0  0
 11 12  1  0  0  0  0
 11 16  2  0  0  0  0
 12 13  2  0  0  0  0
 12 43  1  0  0  0  0
 13 14  1  0  0  0  0
 13 44  1  0  0  0  0
 14 15  2  0  0  0  0
 14 45  1  0  0  0  0
 15 16  1  0  0  0  0
 15 46  1  0  0  0  0
 16 47  1  0  0  0  0
 17 18  1  0  0  0  0
 17 48  1  0  0  0  0
 18 49  1  0  0  0  0
 19 20  1  0  0  0  0
 19 35  2  0  0  0  0
 20 21  2  0  0  0  0
 20 50  1  0  0  0  0
 21 22  1  0  0  0  0
 21 51  1  0  0  0  0
 22 23  2  0  0  0  0
 23 24  1  0  0  0  0
 23 35  1  0  0  0  0
 24 25  1  0  0  0  0
 24 52  1  0  0  0  0
 25 26  1  0  0  0  0
 25 34  2  0  0  0  0
 26 27  2  0  0  0  0
 26 53  1  0  0  0  0
 27 28  1  0  0  0  0
 27 54  1  0  0  0  0
 28 29  2  0  0  0  0
 28 55  1  0  0  0  0
 29 30  1  0  0  0  0
 29 34  1  0  0  0  0
 30 31  1  0  0  0  0
 30 32  2  0  0  0  0
 30 33  2  0  0  0  0
 31 56  1  0  0  0  0
 31 57  1  0  0  0  0
 34 58  1  0  0  0  0
M  END
$$$$
