CHEMBL3965625
 OpenBabel04072215383D

 59 64  0  0  1  0  0  0  0  0999 V2000
    1.6340   -2.4450   -3.2616 C   0  0  0  0  0  0  0  0  0  0  0  0
    1.1378   -1.9526   -2.0108 O   0  0  0  0  0  0  0  0  0  0  0  0
    1.6181   -2.5664   -0.8824 C   0  0  0  0  0  0  0  0  0  0  0  0
    2.8350   -3.2239   -0.8227 C   0  0  0  0  0  0  0  0  0  0  0  0
    3.2703   -3.8400    0.3747 C   0  0  0  0  0  0  0  0  0  0  0  0
    4.5515   -4.3609    0.5662 C   0  0  0  0  0  0  0  0  0  0  0  0
    5.5556   -3.9210   -0.3476 N   0  0  0  0  0  0  0  0  0  0  0  0
    6.8035   -4.5326   -0.5383 C   0  0  0  0  0  0  0  0  0  0  0  0
    7.9416   -3.7527   -0.7575 C   0  0  0  0  0  0  0  0  0  0  0  0
    9.1665   -4.3573   -1.0444 C   0  0  0  0  0  0  0  0  0  0  0  0
    9.2563   -5.7460   -1.1479 C   0  0  0  0  0  0  0  0  0  0  0  0
   10.9527   -6.4863   -1.5574 Br  0  0  0  0  0  0  0  0  0  0  0  0
    8.1180   -6.5333   -0.9600 C   0  0  0  0  0  0  0  0  0  0  0  0
    8.1226   -8.2518   -1.1175 Cl  0  0  0  0  0  0  0  0  0  0  0  0
    6.9065   -5.9309   -0.6507 C   0  0  0  0  0  0  0  0  0  0  0  0
    4.8870   -5.0600    1.6604 N   0  0  0  0  0  0  0  0  0  0  0  0
    3.9649   -5.1544    2.6161 C   0  0  0  0  0  0  0  0  0  0  0  0
    2.7541   -4.5821    2.5884 N   0  0  0  0  0  0  0  0  0  0  0  0
    2.4189   -3.9129    1.4718 C   0  0  0  0  0  0  0  0  0  0  0  0
    1.2621   -3.1675    1.4451 C   0  0  0  0  0  0  0  0  0  0  0  0
    0.8811   -2.4558    0.2912 C   0  0  0  0  0  0  0  0  0  0  0  0
   -0.1371   -1.5424    0.4159 O   0  0  0  0  0  0  0  0  0  0  0  0
   -1.3026   -1.9343    1.0237 C   0  0  0  0  0  0  0  0  0  0  0  0
   -2.1626   -1.1380    1.6609 C   0  0  0  0  0  0  0  0  0  0  0  0
   -3.5196   -1.5854    1.5822 O   0  0  0  0  0  0  0  0  0  0  0  0
   -3.3354   -2.3161    0.3783 C   0  0  1  0  0  0  0  0  0  0  0  0
   -2.0777   -3.1229    0.5997 C   0  0  1  0  0  0  0  0  0  0  0  0
   -1.7884   -3.7380   -0.6299 O   0  0  0  0  0  0  0  0  0  0  0  0
   -3.0608   -3.8706   -1.3017 C   0  0  0  0  0  0  0  0  0  0  0  0
   -4.2214   -3.2489   -0.3652 C   0  0  1  0  0  0  0  0  0  0  0  0
   -5.0221   -4.4185    0.0391 C   0  0  0  0  0  0  0  0  0  0  0  0
   -5.4176   -4.7462   -1.3587 O   0  0  0  0  0  0  0  0  0  0  0  0
   -5.8343   -3.4795   -1.9312 C   0  0  0  0  0  0  0  0  0  0  0  0
   -7.2616   -3.8394   -2.3551 C   0  0  0  0  0  0  0  0  0  0  0  0
   -5.3327   -2.6426   -3.1318 C   0  0  0  0  0  0  0  0  0  0  0  0
   -5.3788   -2.5468   -0.9471 O   0  0  0  0  0  0  0  0  0  0  0  0
    1.0901   -1.9438   -4.0686 H   0  0  0  0  0  0  0  0  0  0  0  0
    2.6940   -2.2022   -3.3922 H   0  0  0  0  0  0  0  0  0  0  0  0
    1.4670   -3.5239   -3.3686 H   0  0  0  0  0  0  0  0  0  0  0  0
    3.4708   -3.3171   -1.7076 H   0  0  0  0  0  0  0  0  0  0  0  0
    5.6563   -2.9165   -0.1747 H   0  0  0  0  0  0  0  0  0  0  0  0
    7.8913   -2.6672   -0.6954 H   0  0  0  0  0  0  0  0  0  0  0  0
   10.0444   -3.7299   -1.1899 H   0  0  0  0  0  0  0  0  0  0  0  0
    6.0095   -6.5311   -0.5164 H   0  0  0  0  0  0  0  0  0  0  0  0
    4.2179   -5.7417    3.4951 H   0  0  0  0  0  0  0  0  0  0  0  0
    0.6611   -3.1243    2.3440 H   0  0  0  0  0  0  0  0  0  0  0  0
   -2.0504   -0.1332    2.0248 H   0  0  0  0  0  0  0  0  0  0  0  0
   -3.1716   -1.5366   -0.4012 H   0  0  0  0  0  0  0  0  0  0  0  0
   -2.1564   -3.8695    1.4055 H   0  0  0  0  0  0  0  0  0  0  0  0
   -3.1714   -4.9490   -1.4817 H   0  0  0  0  0  0  0  0  0  0  0  0
   -2.9531   -3.3861   -2.2684 H   0  0  0  0  0  0  0  0  0  0  0  0
   -4.4964   -5.2485    0.5153 H   0  0  0  0  0  0  0  0  0  0  0  0
   -5.9115   -4.1476    0.6304 H   0  0  0  0  0  0  0  0  0  0  0  0
   -7.2984   -4.9180   -2.6005 H   0  0  0  0  0  0  0  0  0  0  0  0
   -7.5637   -3.3764   -3.3052 H   0  0  0  0  0  0  0  0  0  0  0  0
   -8.0130   -3.6340   -1.6006 H   0  0  0  0  0  0  0  0  0  0  0  0
   -6.0115   -1.7609   -3.1679 H   0  0  0  0  0  0  0  0  0  0  0  0
   -5.3674   -3.1084   -4.1123 H   0  0  0  0  0  0  0  0  0  0  0  0
   -4.3670   -2.1442   -2.9857 H   0  0  0  0  0  0  0  0  0  0  0  0
  1  2  1  0  0  0  0
  1 37  1  0  0  0  0
  1 38  1  0  0  0  0
  1 39  1  0  0  0  0
  2  3  1  0  0  0  0
  3  4  1  0  0  0  0
  3 21  2  0  0  0  0
  4  5  2  0  0  0  0
  4 40  1  0  0  0  0
  5  6  1  0  0  0  0
  5 19  1  0  0  0  0
  6  7  1  0  0  0  0
  6 16  2  0  0  0  0
  7  8  1  0  0  0  0
  7 41  1  0  0  0  0
  8  9  1  0  0  0  0
  8 15  2  0  0  0  0
  9 10  2  0  0  0  0
  9 42  1  0  0  0  0
 10 11  1  0  0  0  0
 10 43  1  0  0  0  0
 11 12  1  0  0  0  0
 11 13  2  0  0  0  0
 13 14  1  0  0  0  0
 13 15  1  0  0  0  0
 15 44  1  0  0  0  0
 16 17  1  0  0  0  0
 17 18  2  0  0  0  0
 17 45  1  0  0  0  0
 18 19  1  0  0  0  0
 19 20  2  0  0  0  0
 20 21  1  0  0  0  0
 20 46  1  0  0  0  0
 21 22  1  0  0  0  0
 22 23  1  0  0  0  0
 23 24  2  0  0  0  0
 23 27  1  0  0  0  0
 24 25  1  0  0  0  0
 24 47  1  0  0  0  0
 25 26  1  0  0  0  0
 26 27  1  0  0  0  0
 26 30  1  0  0  0  0
 26 48  1  6  0  0  0
 27 28  1  0  0  0  0
 27 49  1  1  0  0  0
 28 29  1  0  0  0  0
 29 30  1  0  0  0  0
 29 50  1  0  0  0  0
 29 51  1  0  0  0  0
 30 31  1  0  0  0  0
 30 36  1  6  0  0  0
 31 32  1  0  0  0  0
 31 52  1  0  0  0  0
 31 53  1  0  0  0  0
 32 33  1  0  0  0  0
 33 36  1  0  0  0  0
 33 34  1  0  0  0  0
 33 35  1  0  0  0  0
 34 54  1  0  0  0  0
 34 55  1  0  0  0  0
 34 56  1  0  0  0  0
 35 57  1  0  0  0  0
 35 58  1  0  0  0  0
 35 59  1  0  0  0  0
M  END
$$$$
