CHEMBL518209
 OpenBabel04072215383D

 60 65  0  0  1  0  0  0  0  0999 V2000
    0.4029    3.0737   -2.4037 C   0  0  0  0  0  0  0  0  0  0  0  0
    0.1315    1.7249   -2.8276 N   0  0  0  0  0  0  0  0  0  0  0  0
    1.0069    0.8633   -3.4196 C   0  0  0  0  0  0  0  0  0  0  0  0
    0.4668   -0.3241   -3.5924 N   0  0  0  0  0  0  0  0  0  0  0  0
   -0.8171   -0.2083   -3.1198 C   0  0  0  0  0  0  0  0  0  0  0  0
   -1.8025   -1.3258   -3.0936 C   0  0  0  0  0  0  0  0  0  0  0  0
   -1.4936   -2.6286   -3.4151 C   0  0  0  0  0  0  0  0  0  0  0  0
   -2.6069   -3.5035   -3.2469 C   0  0  0  0  0  0  0  0  0  0  0  0
   -2.5844   -4.8489   -3.4488 N   0  0  0  0  0  0  0  0  0  0  0  0
   -3.7367   -5.4994   -3.2096 C   0  0  0  0  0  0  0  0  0  0  0  0
   -4.9169   -4.9039   -2.8114 C   0  0  0  0  0  0  0  0  0  0  0  0
   -4.9605   -3.5147   -2.6793 C   0  0  0  0  0  0  0  0  0  0  0  0
   -6.1152   -2.8238   -2.3639 O   0  0  0  0  0  0  0  0  0  0  0  0
   -7.2682   -3.1439   -3.0421 C   0  0  0  0  0  0  0  0  0  0  0  0
   -7.2809   -3.7247   -4.3115 C   0  0  0  0  0  0  0  0  0  0  0  0
   -8.4793   -4.1726   -4.8614 C   0  0  0  0  0  0  0  0  0  0  0  0
   -9.6905   -3.9906   -4.1923 C   0  0  0  0  0  0  0  0  0  0  0  0
  -10.9016   -4.5270   -4.6789 N   0  0  0  0  0  0  0  0  0  0  0  0
  -10.9935   -5.5985   -5.5519 C   0  0  0  0  0  0  0  0  0  0  0  0
  -10.0363   -6.1925   -6.0469 O   0  0  0  0  0  0  0  0  0  0  0  0
  -12.3933   -6.0093   -5.9510 C   0  0  3  0  0  0  0  0  0  0  0  0
  -12.4303   -7.4969   -6.2900 C   0  0  0  0  0  0  0  0  0  0  0  0
  -13.8606   -7.8944   -6.0213 C   0  0  0  0  0  0  0  0  0  0  0  0
  -14.2857   -7.0070   -4.9635 N   0  0  0  0  0  0  0  0  0  0  0  0
  -15.4481   -7.2476   -4.1810 C   0  0  0  0  0  0  0  0  0  0  0  0
  -15.9170   -6.3115   -3.2503 C   0  0  0  0  0  0  0  0  0  0  0  0
  -17.0453   -6.5656   -2.4656 C   0  0  0  0  0  0  0  0  0  0  0  0
  -17.7282   -7.7686   -2.5929 C   0  0  0  0  0  0  0  0  0  0  0  0
  -17.2901   -8.7097   -3.5172 C   0  0  0  0  0  0  0  0  0  0  0  0
  -16.1673   -8.4467   -4.3102 C   0  0  0  0  0  0  0  0  0  0  0  0
  -13.4490   -5.8849   -4.8858 C   0  0  0  0  0  0  0  0  0  0  0  0
  -13.5083   -4.9203   -4.1340 O   0  0  0  0  0  0  0  0  0  0  0  0
   -9.6991   -3.2668   -2.9974 C   0  0  0  0  0  0  0  0  0  0  0  0
   -8.4885   -2.8612   -2.4271 C   0  0  0  0  0  0  0  0  0  0  0  0
   -8.5141   -2.2186   -1.2494 F   0  0  0  0  0  0  0  0  0  0  0  0
   -3.7559   -2.8184   -2.8502 C   0  0  0  0  0  0  0  0  0  0  0  0
   -3.4365   -1.1459   -2.6480 S   0  0  0  0  0  0  0  0  0  0  0  0
   -1.0526    1.0695   -2.6610 C   0  0  0  0  0  0  0  0  0  0  0  0
    1.3901    3.3802   -2.7564 H   0  0  0  0  0  0  0  0  0  0  0  0
    0.3706    3.0982   -1.3107 H   0  0  0  0  0  0  0  0  0  0  0  0
   -0.3644    3.7313   -2.8201 H   0  0  0  0  0  0  0  0  0  0  0  0
    2.0174    1.1399   -3.6919 H   0  0  0  0  0  0  0  0  0  0  0  0
   -0.5088   -2.9537   -3.7268 H   0  0  0  0  0  0  0  0  0  0  0  0
   -3.6936   -6.5739   -3.3701 H   0  0  0  0  0  0  0  0  0  0  0  0
   -5.7991   -5.5140   -2.6487 H   0  0  0  0  0  0  0  0  0  0  0  0
   -6.3687   -3.8872   -4.8765 H   0  0  0  0  0  0  0  0  0  0  0  0
   -8.4279   -4.6701   -5.8251 H   0  0  0  0  0  0  0  0  0  0  0  0
  -11.7574   -4.2577   -4.1886 H   0  0  0  0  0  0  0  0  0  0  0  0
  -12.7016   -5.4070   -6.8137 H   0  0  0  0  0  0  0  0  0  0  0  0
  -11.7653   -8.0672   -5.6258 H   0  0  0  0  0  0  0  0  0  0  0  0
  -12.1193   -7.7081   -7.3183 H   0  0  0  0  0  0  0  0  0  0  0  0
  -13.9005   -8.9463   -5.7265 H   0  0  0  0  0  0  0  0  0  0  0  0
  -14.4926   -7.7225   -6.8994 H   0  0  0  0  0  0  0  0  0  0  0  0
  -15.4304   -5.3516   -3.1077 H   0  0  0  0  0  0  0  0  0  0  0  0
  -17.3831   -5.8169   -1.7536 H   0  0  0  0  0  0  0  0  0  0  0  0
  -18.5976   -7.9709   -1.9744 H   0  0  0  0  0  0  0  0  0  0  0  0
  -17.8178   -9.6540   -3.6226 H   0  0  0  0  0  0  0  0  0  0  0  0
  -15.8742   -9.2173   -5.0153 H   0  0  0  0  0  0  0  0  0  0  0  0
  -10.6211   -3.0571   -2.4629 H   0  0  0  0  0  0  0  0  0  0  0  0
   -1.9190    1.5354   -2.2130 H   0  0  0  0  0  0  0  0  0  0  0  0
  1  2  1  0  0  0  0
  1 39  1  0  0  0  0
  1 40  1  0  0  0  0
  1 41  1  0  0  0  0
  2  3  1  0  0  0  0
  2 38  1  0  0  0  0
  3  4  2  0  0  0  0
  3 42  1  0  0  0  0
  4  5  1  0  0  0  0
  5  6  1  0  0  0  0
  5 38  2  0  0  0  0
  6  7  2  0  0  0  0
  6 37  1  0  0  0  0
  7  8  1  0  0  0  0
  7 43  1  0  0  0  0
  8  9  1  0  0  0  0
  8 36  2  0  0  0  0
  9 10  2  0  0  0  0
 10 11  1  0  0  0  0
 10 44  1  0  0  0  0
 11 12  2  0  0  0  0
 11 45  1  0  0  0  0
 12 13  1  0  0  0  0
 12 36  1  0  0  0  0
 13 14  1  0  0  0  0
 14 15  1  0  0  0  0
 14 34  2  0  0  0  0
 15 16  2  0  0  0  0
 15 46  1  0  0  0  0
 16 17  1  0  0  0  0
 16 47  1  0  0  0  0
 17 18  1  0  0  0  0
 17 33  2  0  0  0  0
 18 19  1  0  0  0  0
 18 48  1  0  0  0  0
 19 20  2  0  0  0  0
 19 21  1  0  0  0  0
 21 22  1  0  0  0  0
 21 31  1  0  0  0  0
 21 49  1  0  0  0  0
 22 23  1  0  0  0  0
 22 50  1  0  0  0  0
 22 51  1  0  0  0  0
 23 24  1  0  0  0  0
 23 52  1  0  0  0  0
 23 53  1  0  0  0  0
 24 25  1  0  0  0  0
 24 31  1  0  0  0  0
 25 26  1  0  0  0  0
 25 30  2  0  0  0  0
 26 27  2  0  0  0  0
 26 54  1  0  0  0  0
 27 28  1  0  0  0  0
 27 55  1  0  0  0  0
 28 29  2  0  0  0  0
 28 56  1  0  0  0  0
 29 30  1  0  0  0  0
 29 57  1  0  0  0  0
 30 58  1  0  0  0  0
 31 32  2  0  0  0  0
 33 34  1  0  0  0  0
 33 59  1  0  0  0  0
 34 35  1  0  0  0  0
 36 37  1  0  0  0  0
 38 60  1  0  0  0  0
M  END
$$$$
