CHEMBL3908068
 OpenBabel04072215373D

 65 68  0  0  1  0  0  0  0  0999 V2000
    6.5429    4.1734   -2.3560 C   0  0  0  0  0  0  0  0  0  0  0  0
    5.7204    3.0186   -2.5083 O   0  0  0  0  0  0  0  0  0  0  0  0
    4.6594    2.9645   -1.5516 C   0  0  0  0  0  0  0  0  0  0  0  0
    3.9212    1.5969   -1.6219 C   0  0  1  0  0  0  0  0  0  0  0  0
    4.8921    0.4157   -1.2985 C   0  0  0  0  0  0  0  0  0  0  0  0
    4.2820   -0.9489   -1.4793 N   0  0  0  0  0  0  0  0  0  0  0  0
    3.6611   -1.5421   -0.2883 C   0  0  0  0  0  0  0  0  0  0  0  0
    2.6429   -2.5402   -0.3757 C   0  0  0  0  0  0  0  0  0  0  0  0
    2.2544   -3.3404    0.7093 C   0  0  0  0  0  0  0  0  0  0  0  0
    1.3804   -4.3910    0.7007 O   0  0  0  0  0  0  0  0  0  0  0  0
    0.9137   -4.9031   -0.5391 C   0  0  0  0  0  0  0  0  0  0  0  0
    2.7893   -3.0819    1.9601 C   0  0  0  0  0  0  0  0  0  0  0  0
    3.6973   -2.0434    2.1221 C   0  0  0  0  0  0  0  0  0  0  0  0
    4.2437   -1.6931    3.3308 O   0  0  0  0  0  0  0  0  0  0  0  0
    4.4092   -2.7690    4.2520 C   0  0  0  0  0  0  0  0  0  0  0  0
    4.1149   -1.2800    1.0169 C   0  0  0  0  0  0  0  0  0  0  0  0
    4.8146   -1.8026   -2.5223 C   0  0  0  0  0  0  0  0  0  0  0  0
    3.9619   -2.7849   -3.0065 C   0  0  0  0  0  0  0  0  0  0  0  0
    4.4424   -3.9859   -3.4762 C   0  0  0  0  0  0  0  0  0  0  0  0
    5.7584   -4.1455   -3.7807 C   0  0  0  0  0  0  0  0  0  0  0  0
    6.0771   -5.3883   -4.1541 N   0  0  0  0  0  0  0  0  0  0  0  0
    7.2552   -5.5411   -4.7612 C   0  0  0  0  0  0  0  0  0  0  0  0
    8.0674   -4.4665   -5.0563 C   0  0  0  0  0  0  0  0  0  0  0  0
    9.0847   -4.7151   -6.0751 C   0  0  0  0  0  0  0  0  0  0  0  0
    9.0799   -4.4152   -7.4645 C   0  0  0  0  0  0  0  0  0  0  0  0
   10.0783   -5.0113   -8.1315 N   0  0  0  0  0  0  0  0  0  0  0  0
   10.7209   -5.7020   -7.1750 N   0  0  0  0  0  0  0  0  0  0  0  0
   12.0458   -6.2281   -7.4079 C   0  0  0  0  0  0  0  0  0  0  0  0
   10.0559   -5.6997   -5.9800 C   0  0  0  0  0  0  0  0  0  0  0  0
    7.8107   -3.2101   -4.5385 N   0  0  0  0  0  0  0  0  0  0  0  0
    6.6321   -3.0331   -3.8049 C   0  0  0  0  0  0  0  0  0  0  0  0
    6.1397   -1.8827   -3.0521 C   0  0  0  0  0  0  0  0  0  0  0  0
    2.6908    1.6214   -0.8386 O   0  0  0  0  0  0  0  0  0  0  0  0
    2.7371    1.9387    0.4771 C   0  0  0  0  0  0  0  0  0  0  0  0
    1.3653    2.0206    1.0775 C   0  0  0  0  0  0  0  0  0  0  0  0
    3.7652    2.1538    1.1132 O   0  0  0  0  0  0  0  0  0  0  0  0
    6.6304    4.6674   -3.3276 H   0  0  0  0  0  0  0  0  0  0  0  0
    7.5421    3.8551   -2.0432 H   0  0  0  0  0  0  0  0  0  0  0  0
    6.1510    4.8918   -1.6278 H   0  0  0  0  0  0  0  0  0  0  0  0
    3.9558    3.7827   -1.7551 H   0  0  0  0  0  0  0  0  0  0  0  0
    5.0789    3.1364   -0.5550 H   0  0  0  0  0  0  0  0  0  0  0  0
    3.5890    1.4667   -2.6592 H   0  0  0  0  0  0  0  0  0  0  0  0
    5.2973    0.5655   -0.2975 H   0  0  0  0  0  0  0  0  0  0  0  0
    5.7587    0.5300   -1.9560 H   0  0  0  0  0  0  0  0  0  0  0  0
    2.1045   -2.6963   -1.2939 H   0  0  0  0  0  0  0  0  0  0  0  0
    0.4640   -5.8836   -0.3388 H   0  0  0  0  0  0  0  0  0  0  0  0
    1.7181   -5.0578   -1.2647 H   0  0  0  0  0  0  0  0  0  0  0  0
    0.1294   -4.2572   -0.9429 H   0  0  0  0  0  0  0  0  0  0  0  0
    2.4703   -3.7051    2.7887 H   0  0  0  0  0  0  0  0  0  0  0  0
    4.9857   -2.3934    5.1017 H   0  0  0  0  0  0  0  0  0  0  0  0
    4.9742   -3.5907    3.7975 H   0  0  0  0  0  0  0  0  0  0  0  0
    3.4485   -3.1230    4.6408 H   0  0  0  0  0  0  0  0  0  0  0  0
    4.8524   -0.5155    1.2338 H   0  0  0  0  0  0  0  0  0  0  0  0
    2.8909   -2.6640   -2.9454 H   0  0  0  0  0  0  0  0  0  0  0  0
    3.7614   -4.8169   -3.6195 H   0  0  0  0  0  0  0  0  0  0  0  0
    7.4805   -6.5520   -5.0840 H   0  0  0  0  0  0  0  0  0  0  0  0
    8.3729   -3.8221   -8.0314 H   0  0  0  0  0  0  0  0  0  0  0  0
   12.3723   -5.9852   -8.4225 H   0  0  0  0  0  0  0  0  0  0  0  0
   12.0433   -7.3099   -7.2558 H   0  0  0  0  0  0  0  0  0  0  0  0
   12.7119   -5.7452   -6.6869 H   0  0  0  0  0  0  0  0  0  0  0  0
   10.3519   -6.3584   -5.1759 H   0  0  0  0  0  0  0  0  0  0  0  0
    6.8566   -1.0822   -2.8826 H   0  0  0  0  0  0  0  0  0  0  0  0
    0.6537    2.4530    0.3673 H   0  0  0  0  0  0  0  0  0  0  0  0
    1.3893    2.6828    1.9505 H   0  0  0  0  0  0  0  0  0  0  0  0
    1.0348    1.0273    1.3876 H   0  0  0  0  0  0  0  0  0  0  0  0
  1  2  1  0  0  0  0
  1 37  1  0  0  0  0
  1 38  1  0  0  0  0
  1 39  1  0  0  0  0
  2  3  1  0  0  0  0
  3  4  1  0  0  0  0
  3 40  1  0  0  0  0
  3 41  1  0  0  0  0
  4  5  1  0  0  0  0
  4 33  1  0  0  0  0
  4 42  1  6  0  0  0
  5  6  1  0  0  0  0
  5 43  1  0  0  0  0
  5 44  1  0  0  0  0
  6  7  1  0  0  0  0
  6 17  1  0  0  0  0
  7  8  1  0  0  0  0
  7 16  2  0  0  0  0
  8  9  2  0  0  0  0
  8 45  1  0  0  0  0
  9 10  1  0  0  0  0
  9 12  1  0  0  0  0
 10 11  1  0  0  0  0
 11 46  1  0  0  0  0
 11 47  1  0  0  0  0
 11 48  1  0  0  0  0
 12 13  2  0  0  0  0
 12 49  1  0  0  0  0
 13 14  1  0  0  0  0
 13 16  1  0  0  0  0
 14 15  1  0  0  0  0
 15 50  1  0  0  0  0
 15 51  1  0  0  0  0
 15 52  1  0  0  0  0
 16 53  1  0  0  0  0
 17 18  1  0  0  0  0
 17 32  2  0  0  0  0
 18 19  2  0  0  0  0
 18 54  1  0  0  0  0
 19 20  1  0  0  0  0
 19 55  1  0  0  0  0
 20 21  1  0  0  0  0
 20 31  2  0  0  0  0
 21 22  2  0  0  0  0
 22 23  1  0  0  0  0
 22 56  1  0  0  0  0
 23 24  1  0  0  0  0
 23 30  2  0  0  0  0
 24 25  1  0  0  0  0
 24 29  2  0  0  0  0
 25 26  2  0  0  0  0
 25 57  1  0  0  0  0
 26 27  1  0  0  0  0
 27 28  1  0  0  0  0
 27 29  1  0  0  0  0
 28 58  1  0  0  0  0
 28 59  1  0  0  0  0
 28 60  1  0  0  0  0
 29 61  1  0  0  0  0
 30 31  1  0  0  0  0
 31 32  1  0  0  0  0
 32 62  1  0  0  0  0
 33 34  1  0  0  0  0
 34 35  1  0  0  0  0
 34 36  2  0  0  0  0
 35 63  1  0  0  0  0
 35 64  1  0  0  0  0
 35 65  1  0  0  0  0
M  END
$$$$
