CHEMBL4083050
 OpenBabel04072215383D

 47 50  0  0  0  0  0  0  0  0999 V2000
    2.5293   -0.3380    0.0728 C   0  0  0  0  0  0  0  0  0  0  0  0
    1.0495   -0.1993   -0.1610 C   0  0  0  0  0  0  0  0  0  0  0  0
    0.5229    1.0459   -0.5242 C   0  0  0  0  0  0  0  0  0  0  0  0
   -0.8391    1.1843   -0.7458 C   0  0  0  0  0  0  0  0  0  0  0  0
   -1.6814    0.0803   -0.6038 C   0  0  0  0  0  0  0  0  0  0  0  0
   -1.1942   -1.1793   -0.2362 C   0  0  0  0  0  0  0  0  0  0  0  0
   -2.0255   -2.3268   -0.0805 N   0  0  0  0  0  0  0  0  0  0  0  0
   -3.4075   -2.3212   -0.1778 C   0  0  0  0  0  0  0  0  0  0  0  0
   -4.0679   -1.3042   -0.3591 O   0  0  0  0  0  0  0  0  0  0  0  0
   -3.9834   -3.5794   -0.0487 N   0  0  0  0  0  0  0  0  0  0  0  0
   -5.3832   -3.7908   -0.2196 C   0  0  0  0  0  0  0  0  0  0  0  0
   -6.1757   -2.9069   -0.9496 C   0  0  0  0  0  0  0  0  0  0  0  0
   -7.5683   -2.9953   -0.9244 C   0  0  0  0  0  0  0  0  0  0  0  0
   -8.2369   -4.0257   -0.2454 C   0  0  0  0  0  0  0  0  0  0  0  0
   -9.7159   -4.0258   -0.1961 C   0  0  0  0  0  0  0  0  0  0  0  0
  -10.4641   -3.5191   -1.2900 C   0  0  0  0  0  0  0  0  0  0  0  0
  -11.8458   -3.4355   -1.2399 C   0  0  0  0  0  0  0  0  0  0  0  0
  -12.5998   -3.8457   -0.2096 N   0  0  0  0  0  0  0  0  0  0  0  0
  -11.8727   -4.3334    0.8103 C   0  0  0  0  0  0  0  0  0  0  0  0
  -12.4099   -4.8120    1.9618 N   0  0  0  0  0  0  0  0  0  0  0  0
  -11.5030   -5.2152    2.8614 N   0  0  0  0  0  0  0  0  0  0  0  0
  -10.3242   -4.9363    2.2704 C   0  0  0  0  0  0  0  0  0  0  0  0
   -9.0955   -5.1754    3.0867 C   0  0  0  0  0  0  0  0  0  0  0  0
   -8.6636   -6.5361    3.0178 O   0  0  0  0  0  0  0  0  0  0  0  0
  -10.4864   -4.4433    0.9278 C   0  0  0  0  0  0  0  0  0  0  0  0
   -7.4187   -5.0133    0.3194 C   0  0  0  0  0  0  0  0  0  0  0  0
   -6.0128   -4.8868    0.3682 C   0  0  0  0  0  0  0  0  0  0  0  0
    0.1864   -1.3087   -0.0226 C   0  0  0  0  0  0  0  0  0  0  0  0
    3.0389    0.6229   -0.0604 H   0  0  0  0  0  0  0  0  0  0  0  0
    2.9548   -1.0497   -0.6368 H   0  0  0  0  0  0  0  0  0  0  0  0
    2.7146   -0.6741    1.0959 H   0  0  0  0  0  0  0  0  0  0  0  0
    1.1654    1.9127   -0.6407 H   0  0  0  0  0  0  0  0  0  0  0  0
   -1.2582    2.1465   -1.0313 H   0  0  0  0  0  0  0  0  0  0  0  0
   -2.7316    0.2660   -0.8022 H   0  0  0  0  0  0  0  0  0  0  0  0
   -1.5684   -3.2025    0.1238 H   0  0  0  0  0  0  0  0  0  0  0  0
   -3.4805   -4.2718    0.4878 H   0  0  0  0  0  0  0  0  0  0  0  0
   -5.7439   -2.0970   -1.5305 H   0  0  0  0  0  0  0  0  0  0  0  0
   -8.1124   -2.2021   -1.4323 H   0  0  0  0  0  0  0  0  0  0  0  0
   -9.9701   -3.1698   -2.1926 H   0  0  0  0  0  0  0  0  0  0  0  0
  -12.3984   -3.0109   -2.0746 H   0  0  0  0  0  0  0  0  0  0  0  0
  -13.3958   -4.8702    2.1844 H   0  0  0  0  0  0  0  0  0  0  0  0
   -9.2997   -4.9592    4.1424 H   0  0  0  0  0  0  0  0  0  0  0  0
   -8.2743   -4.5190    2.7935 H   0  0  0  0  0  0  0  0  0  0  0  0
   -9.4371   -7.0574    3.3029 H   0  0  0  0  0  0  0  0  0  0  0  0
   -7.8643   -5.8976    0.7667 H   0  0  0  0  0  0  0  0  0  0  0  0
   -5.4434   -5.6389    0.9083 H   0  0  0  0  0  0  0  0  0  0  0  0
    0.6082   -2.2671    0.2658 H   0  0  0  0  0  0  0  0  0  0  0  0
  1  2  1  0  0  0  0
  1 29  1  0  0  0  0
  1 30  1  0  0  0  0
  1 31  1  0  0  0  0
  2  3  1  0  0  0  0
  2 28  2  0  0  0  0
  3  4  2  0  0  0  0
  3 32  1  0  0  0  0
  4  5  1  0  0  0  0
  4 33  1  0  0  0  0
  5  6  2  0  0  0  0
  5 34  1  0  0  0  0
  6  7  1  0  0  0  0
  6 28  1  0  0  0  0
  7  8  1  0  0  0  0
  7 35  1  0  0  0  0
  8  9  2  0  0  0  0
  8 10  1  0  0  0  0
 10 11  1  0  0  0  0
 10 36  1  0  0  0  0
 11 12  1  0  0  0  0
 11 27  2  0  0  0  0
 12 13  2  0  0  0  0
 12 37  1  0  0  0  0
 13 14  1  0  0  0  0
 13 38  1  0  0  0  0
 14 15  1  0  0  0  0
 14 26  2  0  0  0  0
 15 16  1  0  0  0  0
 15 25  2  0  0  0  0
 16 17  2  0  0  0  0
 16 39  1  0  0  0  0
 17 18  1  0  0  0  0
 17 40  1  0  0  0  0
 18 19  2  0  0  0  0
 19 20  1  0  0  0  0
 19 25  1  0  0  0  0
 20 21  1  0  0  0  0
 20 41  1  0  0  0  0
 21 22  2  0  0  0  0
 22 23  1  0  0  0  0
 22 25  1  0  0  0  0
 23 24  1  0  0  0  0
 23 42  1  0  0  0  0
 23 43  1  0  0  0  0
 24 44  1  0  0  0  0
 26 27  1  0  0  0  0
 26 45  1  0  0  0  0
 27 46  1  0  0  0  0
 28 47  1  0  0  0  0
M  END
$$$$
