CHEMBL3975397
 OpenBabel04072215373D

 64 67  0  0  1  0  0  0  0  0999 V2000
   10.1423    5.9826    3.7518 C   0  0  0  0  0  0  0  0  0  0  0  0
    8.8314    5.6537    4.2186 O   0  0  0  0  0  0  0  0  0  0  0  0
    7.8746    5.2948    3.3046 C   0  0  0  0  0  0  0  0  0  0  0  0
    7.9421    5.5548    1.9360 C   0  0  0  0  0  0  0  0  0  0  0  0
    6.9309    5.0827    1.1009 C   0  0  0  0  0  0  0  0  0  0  0  0
    6.9163    5.1791   -0.2653 O   0  0  0  0  0  0  0  0  0  0  0  0
    7.6729    6.2363   -0.8395 C   0  0  0  0  0  0  0  0  0  0  0  0
    5.8585    4.3487    1.6321 C   0  0  0  0  0  0  0  0  0  0  0  0
    5.7698    4.0361    2.9918 C   0  0  0  0  0  0  0  0  0  0  0  0
    4.8731    3.0592    3.4998 N   0  0  0  0  0  0  0  0  0  0  0  0
    4.5983    1.8717    2.5942 C   0  0  0  0  0  0  0  0  0  0  0  0
    5.7375    0.8685    2.2338 C   0  0  2  0  0  0  0  0  0  0  0  0
    6.3057    0.2080    3.3691 O   0  0  0  0  0  0  0  0  0  0  0  0
    6.8465    1.3599    1.2830 C   0  0  0  0  0  0  0  0  0  0  0  0
    7.6544    0.2970    0.6451 N   0  0  0  0  0  0  0  0  0  0  0  0
    6.9350   -0.5481   -0.3431 C   0  0  0  0  0  0  0  0  0  0  0  0
    6.0461    0.0602   -1.4592 C   0  0  0  0  0  0  0  0  0  0  0  0
    6.2533    1.3793   -1.6526 F   0  0  0  0  0  0  0  0  0  0  0  0
    6.2605   -0.5599   -2.6418 F   0  0  0  0  0  0  0  0  0  0  0  0
    4.7349   -0.1003   -1.1515 F   0  0  0  0  0  0  0  0  0  0  0  0
    3.6507    3.2815    4.2577 C   0  0  0  0  0  0  0  0  0  0  0  0
    3.4073    2.3288    5.2466 C   0  0  0  0  0  0  0  0  0  0  0  0
    2.1144    2.0753    5.6841 C   0  0  0  0  0  0  0  0  0  0  0  0
    1.0448    2.8072    5.2484 C   0  0  0  0  0  0  0  0  0  0  0  0
   -0.1514    2.3431    5.6366 N   0  0  0  0  0  0  0  0  0  0  0  0
   -1.2225    3.0868    5.3302 C   0  0  0  0  0  0  0  0  0  0  0  0
   -1.1145    4.3148    4.7147 C   0  0  0  0  0  0  0  0  0  0  0  0
   -2.3237    5.1382    4.6904 C   0  0  0  0  0  0  0  0  0  0  0  0
   -2.7614    6.1355    5.6019 C   0  0  0  0  0  0  0  0  0  0  0  0
   -4.0204    6.5347    5.3765 N   0  0  0  0  0  0  0  0  0  0  0  0
   -4.3923    5.7974    4.3173 N   0  0  0  0  0  0  0  0  0  0  0  0
   -5.5582    6.1626    3.5465 C   0  0  0  0  0  0  0  0  0  0  0  0
   -3.4826    4.8245    3.9979 C   0  0  0  0  0  0  0  0  0  0  0  0
    0.1055    4.7625    4.2424 N   0  0  0  0  0  0  0  0  0  0  0  0
    1.2248    3.9718    4.4508 C   0  0  0  0  0  0  0  0  0  0  0  0
    2.5705    4.1584    3.9311 C   0  0  0  0  0  0  0  0  0  0  0  0
    6.7720    4.5729    3.8308 C   0  0  0  0  0  0  0  0  0  0  0  0
   10.8646    5.5848    4.4741 H   0  0  0  0  0  0  0  0  0  0  0  0
   10.2653    7.0715    3.7241 H   0  0  0  0  0  0  0  0  0  0  0  0
   10.4028    5.5479    2.7823 H   0  0  0  0  0  0  0  0  0  0  0  0
    8.7817    6.0966    1.5179 H   0  0  0  0  0  0  0  0  0  0  0  0
    7.4311    6.2703   -1.9062 H   0  0  0  0  0  0  0  0  0  0  0  0
    8.7490    6.0580   -0.7502 H   0  0  0  0  0  0  0  0  0  0  0  0
    7.3921    7.1986   -0.4003 H   0  0  0  0  0  0  0  0  0  0  0  0
    5.1178    3.9750    0.9312 H   0  0  0  0  0  0  0  0  0  0  0  0
    4.0885    2.2029    1.6851 H   0  0  0  0  0  0  0  0  0  0  0  0
    3.8812    1.2149    3.1033 H   0  0  0  0  0  0  0  0  0  0  0  0
    5.2108    0.0698    1.6975 H   0  0  0  0  0  0  0  0  0  0  0  0
    6.2872    0.8296    4.1177 H   0  0  0  0  0  0  0  0  0  0  0  0
    7.5636    1.9588    1.8555 H   0  0  0  0  0  0  0  0  0  0  0  0
    6.4302    1.9971    0.5047 H   0  0  0  0  0  0  0  0  0  0  0  0
    8.0281   -0.3060    1.3824 H   0  0  0  0  0  0  0  0  0  0  0  0
    6.3271   -1.2798    0.2036 H   0  0  0  0  0  0  0  0  0  0  0  0
    7.7076   -1.1434   -0.8454 H   0  0  0  0  0  0  0  0  0  0  0  0
    4.2116    1.6715    5.5763 H   0  0  0  0  0  0  0  0  0  0  0  0
    1.9404    1.2317    6.3483 H   0  0  0  0  0  0  0  0  0  0  0  0
   -2.1782    2.6737    5.6356 H   0  0  0  0  0  0  0  0  0  0  0  0
   -2.2333    6.5658    6.4453 H   0  0  0  0  0  0  0  0  0  0  0  0
   -6.0092    7.0685    3.9612 H   0  0  0  0  0  0  0  0  0  0  0  0
   -6.2766    5.3401    3.5543 H   0  0  0  0  0  0  0  0  0  0  0  0
   -5.2182    6.3633    2.5268 H   0  0  0  0  0  0  0  0  0  0  0  0
   -3.7220    4.0450    3.2893 H   0  0  0  0  0  0  0  0  0  0  0  0
    2.7275    4.9654    3.2200 H   0  0  0  0  0  0  0  0  0  0  0  0
    6.7532    4.3707    4.8945 H   0  0  0  0  0  0  0  0  0  0  0  0
  1  2  1  0  0  0  0
  1 38  1  0  0  0  0
  1 39  1  0  0  0  0
  1 40  1  0  0  0  0
  2  3  1  0  0  0  0
  3  4  1  0  0  0  0
  3 37  2  0  0  0  0
  4  5  2  0  0  0  0
  4 41  1  0  0  0  0
  5  6  1  0  0  0  0
  5  8  1  0  0  0  0
  6  7  1  0  0  0  0
  7 42  1  0  0  0  0
  7 43  1  0  0  0  0
  7 44  1  0  0  0  0
  8  9  2  0  0  0  0
  8 45  1  0  0  0  0
  9 10  1  0  0  0  0
  9 37  1  0  0  0  0
 10 11  1  0  0  0  0
 10 21  1  0  0  0  0
 11 46  1  0  0  0  0
 11 47  1  0  0  0  0
 12 14  1  0  0  0  0
 12 13  1  0  0  0  0
 12 11  1  0  0  0  0
 12 48  1  6  0  0  0
 13 49  1  0  0  0  0
 14 15  1  0  0  0  0
 14 50  1  0  0  0  0
 14 51  1  0  0  0  0
 15 16  1  0  0  0  0
 15 52  1  0  0  0  0
 16 17  1  0  0  0  0
 16 53  1  0  0  0  0
 16 54  1  0  0  0  0
 17 18  1  0  0  0  0
 17 19  1  0  0  0  0
 17 20  1  0  0  0  0
 21 22  1  0  0  0  0
 21 36  2  0  0  0  0
 22 23  2  0  0  0  0
 22 55  1  0  0  0  0
 23 24  1  0  0  0  0
 23 56  1  0  0  0  0
 24 25  1  0  0  0  0
 24 35  2  0  0  0  0
 25 26  2  0  0  0  0
 26 27  1  0  0  0  0
 26 57  1  0  0  0  0
 27 28  1  0  0  0  0
 27 34  2  0  0  0  0
 28 29  1  0  0  0  0
 28 33  2  0  0  0  0
 29 30  2  0  0  0  0
 29 58  1  0  0  0  0
 30 31  1  0  0  0  0
 31 32  1  0  0  0  0
 31 33  1  0  0  0  0
 32 59  1  0  0  0  0
 32 60  1  0  0  0  0
 32 61  1  0  0  0  0
 33 62  1  0  0  0  0
 34 35  1  0  0  0  0
 35 36  1  0  0  0  0
 36 63  1  0  0  0  0
 37 64  1  0  0  0  0
M  END
$$$$
