CHEMBL3939257
 OpenBabel04072215373D

 45 48  0  0  0  0  0  0  0  0999 V2000
    1.1039    0.2348   -0.8616 O   0  0  0  0  0  0  0  0  0  0  0  0
    2.2335    0.0459   -0.4224 C   0  0  0  0  0  0  0  0  0  0  0  0
    2.7751   -1.2124   -0.1829 N   0  0  0  0  0  0  0  0  0  0  0  0
    2.0656   -2.4361   -0.3499 C   0  0  0  0  0  0  0  0  0  0  0  0
    0.9007   -2.5440   -1.1171 C   0  0  0  0  0  0  0  0  0  0  0  0
    0.1242   -3.7095   -1.1017 C   0  0  0  0  0  0  0  0  0  0  0  0
    0.5138   -4.8078   -0.3382 C   0  0  0  0  0  0  0  0  0  0  0  0
   -0.3605   -5.9443   -0.2324 C   0  0  0  0  0  0  0  0  0  0  0  0
   -1.1191   -6.8782   -0.1360 C   0  0  0  0  0  0  0  0  0  0  0  0
   -1.9618   -8.0515   -0.0222 C   0  0  0  0  0  0  0  0  0  0  0  0
   -1.3642   -9.4085   -0.1223 C   0  0  0  0  0  0  0  0  0  0  0  0
   -2.1965  -10.4488   -0.0008 C   0  0  0  0  0  0  0  0  0  0  0  0
   -3.5727  -10.2112    0.2074 C   0  0  0  0  0  0  0  0  0  0  0  0
   -4.5782  -11.0472    0.3551 N   0  0  0  0  0  0  0  0  0  0  0  0
   -5.6825  -10.2511    0.5217 C   0  0  0  0  0  0  0  0  0  0  0  0
   -5.3421   -8.9180    0.4751 C   0  0  0  0  0  0  0  0  0  0  0  0
   -3.9867   -8.8860    0.2739 N   0  0  0  0  0  0  0  0  0  0  0  0
   -3.2090   -7.7630    0.1637 N   0  0  0  0  0  0  0  0  0  0  0  0
    1.7361   -4.7537    0.3380 C   0  0  0  0  0  0  0  0  0  0  0  0
    2.5134   -3.5778    0.3251 C   0  0  0  0  0  0  0  0  0  0  0  0
    3.1102    1.0752   -0.0958 N   0  0  0  0  0  0  0  0  0  0  0  0
    2.7753    2.4567   -0.1487 C   0  0  0  0  0  0  0  0  0  0  0  0
    1.4546    2.9175   -0.0940 C   0  0  0  0  0  0  0  0  0  0  0  0
    1.1550    4.2744   -0.2271 C   0  0  0  0  0  0  0  0  0  0  0  0
    2.1767    5.1947   -0.4257 C   0  0  0  0  0  0  0  0  0  0  0  0
    3.5114    4.7680   -0.4620 C   0  0  0  0  0  0  0  0  0  0  0  0
    4.6147    5.7585   -0.7438 C   0  0  0  0  0  0  0  0  0  0  0  0
    4.1636    7.0179   -1.0051 F   0  0  0  0  0  0  0  0  0  0  0  0
    5.4889    5.8823    0.2917 F   0  0  0  0  0  0  0  0  0  0  0  0
    5.3635    5.4035   -1.8253 F   0  0  0  0  0  0  0  0  0  0  0  0
    3.8043    3.3981   -0.2821 C   0  0  0  0  0  0  0  0  0  0  0  0
    3.5919   -1.2430    0.4087 H   0  0  0  0  0  0  0  0  0  0  0  0
    0.5444   -1.7193   -1.7265 H   0  0  0  0  0  0  0  0  0  0  0  0
   -0.8053   -3.7280   -1.6672 H   0  0  0  0  0  0  0  0  0  0  0  0
   -0.3031   -9.5081   -0.2831 H   0  0  0  0  0  0  0  0  0  0  0  0
   -1.8463  -11.4721   -0.0589 H   0  0  0  0  0  0  0  0  0  0  0  0
   -6.6653  -10.6833    0.6663 H   0  0  0  0  0  0  0  0  0  0  0  0
   -5.9241   -8.0147    0.5641 H   0  0  0  0  0  0  0  0  0  0  0  0
    2.0806   -5.6104    0.9131 H   0  0  0  0  0  0  0  0  0  0  0  0
    3.4398   -3.5612    0.8939 H   0  0  0  0  0  0  0  0  0  0  0  0
    4.0932    0.8451   -0.0943 H   0  0  0  0  0  0  0  0  0  0  0  0
    0.6207    2.2355    0.0505 H   0  0  0  0  0  0  0  0  0  0  0  0
    0.1185    4.6028   -0.1987 H   0  0  0  0  0  0  0  0  0  0  0  0
    1.9246    6.2451   -0.5661 H   0  0  0  0  0  0  0  0  0  0  0  0
    4.8440    3.0775   -0.3024 H   0  0  0  0  0  0  0  0  0  0  0  0
  1  2  2  0  0  0  0
  2  3  1  0  0  0  0
  2 21  1  0  0  0  0
  3  4  1  0  0  0  0
  3 32  1  0  0  0  0
  4  5  1  0  0  0  0
  4 20  2  0  0  0  0
  5  6  2  0  0  0  0
  5 33  1  0  0  0  0
  6  7  1  0  0  0  0
  6 34  1  0  0  0  0
  7  8  1  0  0  0  0
  7 19  2  0  0  0  0
  8  9  3  0  0  0  0
  9 10  1  0  0  0  0
 10 11  1  0  0  0  0
 10 18  2  0  0  0  0
 11 12  2  0  0  0  0
 11 35  1  0  0  0  0
 12 13  1  0  0  0  0
 12 36  1  0  0  0  0
 13 14  2  0  0  0  0
 13 17  1  0  0  0  0
 14 15  1  0  0  0  0
 15 16  2  0  0  0  0
 15 37  1  0  0  0  0
 16 17  1  0  0  0  0
 16 38  1  0  0  0  0
 17 18  1  0  0  0  0
 19 20  1  0  0  0  0
 19 39  1  0  0  0  0
 20 40  1  0  0  0  0
 21 22  1  0  0  0  0
 21 41  1  0  0  0  0
 22 23  1  0  0  0  0
 22 31  2  0  0  0  0
 23 24  2  0  0  0  0
 23 42  1  0  0  0  0
 24 25  1  0  0  0  0
 24 43  1  0  0  0  0
 25 26  2  0  0  0  0
 25 44  1  0  0  0  0
 26 27  1  0  0  0  0
 26 31  1  0  0  0  0
 27 28  1  0  0  0  0
 27 29  1  0  0  0  0
 27 30  1  0  0  0  0
 31 45  1  0  0  0  0
M  END
$$$$
