CHEMBL4278922
 OpenBabel04072215383D

 54 58  0  0  0  0  0  0  0  0999 V2000
    1.2376   -0.0265    0.5445 O   0  0  0  0  0  0  0  0  0  0  0  0
    2.3528    0.0047    0.0427 C   0  0  0  0  0  0  0  0  0  0  0  0
    2.9077    1.1229   -0.5613 N   0  0  0  0  0  0  0  0  0  0  0  0
    2.2630    2.3736   -0.6875 C   0  0  0  0  0  0  0  0  0  0  0  0
    1.1330    2.7226    0.0523 C   0  0  0  0  0  0  0  0  0  0  0  0
    0.5051    3.9484   -0.1425 C   0  0  0  0  0  0  0  0  0  0  0  0
    1.0184    4.8746   -1.0490 C   0  0  0  0  0  0  0  0  0  0  0  0
    0.3800    6.1097   -1.2679 N   0  0  0  0  0  0  0  0  0  0  0  0
   -0.1881    6.9010   -0.2510 C   0  0  0  0  0  0  0  0  0  0  0  0
    0.2957    6.7675    1.0113 N   0  0  0  0  0  0  0  0  0  0  0  0
   -0.1908    7.5279    1.9946 C   0  0  0  0  0  0  0  0  0  0  0  0
   -1.1196    8.4724    1.8905 N   0  0  0  0  0  0  0  0  0  0  0  0
   -1.5837    8.5986    0.6369 C   0  0  0  0  0  0  0  0  0  0  0  0
   -2.7637    9.7753    0.2890 S   0  0  0  0  0  0  0  0  0  0  0  0
   -2.8427    9.2980   -1.3363 C   0  0  0  0  0  0  0  0  0  0  0  0
   -1.9784    8.2590   -1.6369 C   0  0  0  0  0  0  0  0  0  0  0  0
   -1.2035    7.8587   -0.4783 C   0  0  0  0  0  0  0  0  0  0  0  0
   -1.9525    7.6533   -3.0126 C   0  0  0  0  0  0  0  0  0  0  0  0
   -2.6332    8.5426   -4.0608 C   0  0  0  0  0  0  0  0  0  0  0  0
   -3.9624    9.1088   -3.5508 C   0  0  0  0  0  0  0  0  0  0  0  0
   -3.7551    9.9818   -2.3071 C   0  0  0  0  0  0  0  0  0  0  0  0
    2.1351    4.5221   -1.8110 C   0  0  0  0  0  0  0  0  0  0  0  0
    2.7727    3.2911   -1.6118 C   0  0  0  0  0  0  0  0  0  0  0  0
    3.1966   -1.0905   -0.0317 N   0  0  0  0  0  0  0  0  0  0  0  0
    2.8890   -2.4050    0.3795 C   0  0  0  0  0  0  0  0  0  0  0  0
    1.6602   -2.7821    0.9159 C   0  0  0  0  0  0  0  0  0  0  0  0
    1.4270   -4.1032    1.3092 C   0  0  0  0  0  0  0  0  0  0  0  0
    2.4162   -5.0751    1.1515 C   0  0  0  0  0  0  0  0  0  0  0  0
    2.0186   -6.6645    1.6960 Cl  0  0  0  0  0  0  0  0  0  0  0  0
    3.6446   -4.7372    0.5820 C   0  0  0  0  0  0  0  0  0  0  0  0
    4.7501   -5.7178    0.2968 C   0  0  0  0  0  0  0  0  0  0  0  0
    4.5349   -7.0081    0.6549 F   0  0  0  0  0  0  0  0  0  0  0  0
    5.0456   -5.7561   -1.0368 F   0  0  0  0  0  0  0  0  0  0  0  0
    5.9156   -5.3577    0.9084 F   0  0  0  0  0  0  0  0  0  0  0  0
    3.8688   -3.3876    0.2151 C   0  0  0  0  0  0  0  0  0  0  0  0
    3.7392    0.9906   -1.1149 H   0  0  0  0  0  0  0  0  0  0  0  0
    0.7083    2.0725    0.8095 H   0  0  0  0  0  0  0  0  0  0  0  0
   -0.3843    4.1757    0.4398 H   0  0  0  0  0  0  0  0  0  0  0  0
   -0.1873    6.0763   -2.1036 H   0  0  0  0  0  0  0  0  0  0  0  0
    0.2211    7.3518    2.9830 H   0  0  0  0  0  0  0  0  0  0  0  0
   -2.4705    6.6853   -2.9686 H   0  0  0  0  0  0  0  0  0  0  0  0
   -0.9263    7.4702   -3.3414 H   0  0  0  0  0  0  0  0  0  0  0  0
   -2.7966    7.9650   -4.9776 H   0  0  0  0  0  0  0  0  0  0  0  0
   -1.9635    9.3728   -4.3199 H   0  0  0  0  0  0  0  0  0  0  0  0
   -4.6392    8.2788   -3.3108 H   0  0  0  0  0  0  0  0  0  0  0  0
   -4.4435    9.7001   -4.3375 H   0  0  0  0  0  0  0  0  0  0  0  0
   -4.7259   10.2040   -1.8507 H   0  0  0  0  0  0  0  0  0  0  0  0
   -3.3010   10.9355   -2.6042 H   0  0  0  0  0  0  0  0  0  0  0  0
    2.5368    5.2232   -2.5382 H   0  0  0  0  0  0  0  0  0  0  0  0
    3.6563    3.0625   -2.2004 H   0  0  0  0  0  0  0  0  0  0  0  0
    4.1346   -0.9203   -0.3652 H   0  0  0  0  0  0  0  0  0  0  0  0
    0.8421   -2.0855    1.0572 H   0  0  0  0  0  0  0  0  0  0  0  0
    0.4623   -4.3588    1.7383 H   0  0  0  0  0  0  0  0  0  0  0  0
    4.8335   -3.1212   -0.2203 H   0  0  0  0  0  0  0  0  0  0  0  0
  1  2  2  0  0  0  0
  2  3  1  0  0  0  0
  2 24  1  0  0  0  0
  3  4  1  0  0  0  0
  3 36  1  0  0  0  0
  4  5  1  0  0  0  0
  4 23  2  0  0  0  0
  5  6  2  0  0  0  0
  5 37  1  0  0  0  0
  6  7  1  0  0  0  0
  6 38  1  0  0  0  0
  7  8  1  0  0  0  0
  7 22  2  0  0  0  0
  8  9  1  0  0  0  0
  8 39  1  0  0  0  0
  9 10  1  0  0  0  0
  9 17  2  0  0  0  0
 10 11  2  0  0  0  0
 11 12  1  0  0  0  0
 11 40  1  0  0  0  0
 12 13  2  0  0  0  0
 13 14  1  0  0  0  0
 13 17  1  0  0  0  0
 14 15  1  0  0  0  0
 15 16  2  0  0  0  0
 15 21  1  0  0  0  0
 16 17  1  0  0  0  0
 16 18  1  0  0  0  0
 18 19  1  0  0  0  0
 18 41  1  0  0  0  0
 18 42  1  0  0  0  0
 19 20  1  0  0  0  0
 19 43  1  0  0  0  0
 19 44  1  0  0  0  0
 20 21  1  0  0  0  0
 20 45  1  0  0  0  0
 20 46  1  0  0  0  0
 21 47  1  0  0  0  0
 21 48  1  0  0  0  0
 22 23  1  0  0  0  0
 22 49  1  0  0  0  0
 23 50  1  0  0  0  0
 24 25  1  0  0  0  0
 24 51  1  0  0  0  0
 25 26  1  0  0  0  0
 25 35  2  0  0  0  0
 26 27  2  0  0  0  0
 26 52  1  0  0  0  0
 27 28  1  0  0  0  0
 27 53  1  0  0  0  0
 28 29  1  0  0  0  0
 28 30  2  0  0  0  0
 30 31  1  0  0  0  0
 30 35  1  0  0  0  0
 31 32  1  0  0  0  0
 31 33  1  0  0  0  0
 31 34  1  0  0  0  0
 35 54  1  0  0  0  0
M  END
$$$$
