CHEMBL4437943
 OpenBabel04072215383D

 62 65  0  0  0  0  0  0  0  0999 V2000
    1.1661   -0.1647    0.4721 O   0  0  0  0  0  0  0  0  0  0  0  0
    2.2623   -0.0172   -0.0603 C   0  0  0  0  0  0  0  0  0  0  0  0
    2.9956   -1.2093   -0.6521 C   0  0  0  0  0  0  0  0  0  0  0  0
    2.0210   -2.3365   -1.0170 C   0  0  0  0  0  0  0  0  0  0  0  0
    2.9667   -3.7498   -1.6753 S   0  0  0  0  0  0  0  0  0  0  0  0
    1.6875   -4.9257   -2.0249 C   0  0  0  0  0  0  0  0  0  0  0  0
    0.5248   -4.5739   -3.1911 S   0  0  0  0  0  0  0  0  0  0  0  0
    1.8407   -6.1680   -1.3951 N   0  0  0  0  0  0  0  0  0  0  0  0
    2.4551   -6.3370   -0.0550 C   0  0  0  0  0  0  0  0  0  0  0  0
    3.3041   -7.6235    0.0667 C   0  0  0  0  0  0  0  0  0  0  0  0
    2.4980   -8.7721   -0.3670 N   0  0  0  0  0  0  0  0  0  0  0  0
    2.6263  -10.0315    0.1927 C   0  0  0  0  0  0  0  0  0  0  0  0
    1.5591  -10.9416    0.1269 C   0  0  0  0  0  0  0  0  0  0  0  0
    1.6210  -12.2077    0.7167 C   0  0  0  0  0  0  0  0  0  0  0  0
    2.7684  -12.5968    1.3955 C   0  0  0  0  0  0  0  0  0  0  0  0
    3.8434  -11.7177    1.4828 C   0  0  0  0  0  0  0  0  0  0  0  0
    3.7697  -10.4481    0.8901 C   0  0  0  0  0  0  0  0  0  0  0  0
    1.9872   -8.6434   -1.7430 C   0  0  0  0  0  0  0  0  0  0  0  0
    1.1096   -7.3793   -1.8418 C   0  0  0  0  0  0  0  0  0  0  0  0
    2.9719    1.1794   -0.1643 N   0  0  0  0  0  0  0  0  0  0  0  0
    2.5743    2.4301    0.3817 C   0  0  0  0  0  0  0  0  0  0  0  0
    1.5801    2.5213    1.3564 C   0  0  0  0  0  0  0  0  0  0  0  0
    1.1659    3.7557    1.8373 C   0  0  0  0  0  0  0  0  0  0  0  0
    1.7715    4.9208    1.3777 C   0  0  0  0  0  0  0  0  0  0  0  0
    2.8318    4.8718    0.4660 C   0  0  0  0  0  0  0  0  0  0  0  0
    3.5222    6.0453    0.0685 N   0  0  0  0  0  0  0  0  0  0  0  0
    3.4315    7.2928    0.6835 C   0  0  0  0  0  0  0  0  0  0  0  0
    2.7180    7.5831    1.6401 O   0  0  0  0  0  0  0  0  0  0  0  0
    4.3239    8.3584    0.1297 C   0  0  0  0  0  0  0  0  0  0  0  0
    4.3269    9.6128    0.7434 C   0  0  0  0  0  0  0  0  0  0  0  0
    5.1771   10.5948    0.2522 C   0  0  0  0  0  0  0  0  0  0  0  0
    5.9865   10.2960   -0.8379 C   0  0  0  0  0  0  0  0  0  0  0  0
    5.9171    9.0206   -1.3875 C   0  0  0  0  0  0  0  0  0  0  0  0
    5.1098    8.0331   -0.9329 N   0  0  0  0  0  0  0  0  0  0  0  0
    3.2135    3.6160   -0.0489 C   0  0  0  0  0  0  0  0  0  0  0  0
    3.7073   -1.5549    0.1074 H   0  0  0  0  0  0  0  0  0  0  0  0
    3.5553   -0.8892   -1.5375 H   0  0  0  0  0  0  0  0  0  0  0  0
    1.3107   -1.9738   -1.7658 H   0  0  0  0  0  0  0  0  0  0  0  0
    1.4503   -2.6671   -0.1422 H   0  0  0  0  0  0  0  0  0  0  0  0
    1.6153   -6.3970    0.6501 H   0  0  0  0  0  0  0  0  0  0  0  0
    3.0503   -5.4766    0.2506 H   0  0  0  0  0  0  0  0  0  0  0  0
    3.6176   -7.7189    1.1127 H   0  0  0  0  0  0  0  0  0  0  0  0
    4.2038   -7.5400   -0.5553 H   0  0  0  0  0  0  0  0  0  0  0  0
    0.6296  -10.6520   -0.3553 H   0  0  0  0  0  0  0  0  0  0  0  0
    0.7674  -12.8762    0.6536 H   0  0  0  0  0  0  0  0  0  0  0  0
    2.8188  -13.5759    1.8613 H   0  0  0  0  0  0  0  0  0  0  0  0
    4.7422  -12.0143    2.0178 H   0  0  0  0  0  0  0  0  0  0  0  0
    4.6357   -9.7989    0.9754 H   0  0  0  0  0  0  0  0  0  0  0  0
    1.4063   -9.5103   -2.0745 H   0  0  0  0  0  0  0  0  0  0  0  0
    2.8379   -8.5536   -2.4318 H   0  0  0  0  0  0  0  0  0  0  0  0
    0.2289   -7.4847   -1.1955 H   0  0  0  0  0  0  0  0  0  0  0  0
    0.7636   -7.2847   -2.8734 H   0  0  0  0  0  0  0  0  0  0  0  0
    3.7800    1.1912   -0.7735 H   0  0  0  0  0  0  0  0  0  0  0  0
    1.1063    1.6415    1.7793 H   0  0  0  0  0  0  0  0  0  0  0  0
    0.3707    3.8163    2.5751 H   0  0  0  0  0  0  0  0  0  0  0  0
    1.3823    5.8583    1.7587 H   0  0  0  0  0  0  0  0  0  0  0  0
    4.2242    5.9783   -0.6657 H   0  0  0  0  0  0  0  0  0  0  0  0
    3.6835    9.8187    1.5938 H   0  0  0  0  0  0  0  0  0  0  0  0
    5.2079   11.5786    0.7130 H   0  0  0  0  0  0  0  0  0  0  0  0
    6.6665   11.0390   -1.2422 H   0  0  0  0  0  0  0  0  0  0  0  0
    6.5367    8.7569   -2.2406 H   0  0  0  0  0  0  0  0  0  0  0  0
    4.0125    3.5634   -0.7801 H   0  0  0  0  0  0  0  0  0  0  0  0
  1  2  2  0  0  0  0
  2  3  1  0  0  0  0
  2 20  1  0  0  0  0
  3  4  1  0  0  0  0
  3 36  1  0  0  0  0
  3 37  1  0  0  0  0
  4  5  1  0  0  0  0
  4 38  1  0  0  0  0
  4 39  1  0  0  0  0
  5  6  1  0  0  0  0
  6  7  2  0  0  0  0
  6  8  1  0  0  0  0
  8  9  1  0  0  0  0
  8 19  1  0  0  0  0
  9 10  1  0  0  0  0
  9 40  1  0  0  0  0
  9 41  1  0  0  0  0
 10 11  1  0  0  0  0
 10 42  1  0  0  0  0
 10 43  1  0  0  0  0
 11 12  1  0  0  0  0
 11 18  1  0  0  0  0
 12 13  1  0  0  0  0
 12 17  2  0  0  0  0
 13 14  2  0  0  0  0
 13 44  1  0  0  0  0
 14 15  1  0  0  0  0
 14 45  1  0  0  0  0
 15 16  2  0  0  0  0
 15 46  1  0  0  0  0
 16 17  1  0  0  0  0
 16 47  1  0  0  0  0
 17 48  1  0  0  0  0
 18 19  1  0  0  0  0
 18 49  1  0  0  0  0
 18 50  1  0  0  0  0
 19 51  1  0  0  0  0
 19 52  1  0  0  0  0
 20 21  1  0  0  0  0
 20 53  1  0  0  0  0
 21 22  1  0  0  0  0
 21 35  2  0  0  0  0
 22 23  2  0  0  0  0
 22 54  1  0  0  0  0
 23 24  1  0  0  0  0
 23 55  1  0  0  0  0
 24 25  2  0  0  0  0
 24 56  1  0  0  0  0
 25 26  1  0  0  0  0
 25 35  1  0  0  0  0
 26 27  1  0  0  0  0
 26 57  1  0  0  0  0
 27 28  2  0  0  0  0
 27 29  1  0  0  0  0
 29 30  1  0  0  0  0
 29 34  2  0  0  0  0
 30 31  2  0  0  0  0
 30 58  1  0  0  0  0
 31 32  1  0  0  0  0
 31 59  1  0  0  0  0
 32 33  2  0  0  0  0
 32 60  1  0  0  0  0
 33 34  1  0  0  0  0
 33 61  1  0  0  0  0
 35 62  1  0  0  0  0
M  END
$$$$
