CHEMBL394619
 OpenBabel04072215373D

 45 48  0  0  0  0  0  0  0  0999 V2000
    2.3608   -0.4101    1.5517 C   0  0  0  0  0  0  0  0  0  0  0  0
    0.8622   -0.3106    1.5179 C   0  0  0  0  0  0  0  0  0  0  0  0
    0.2433    0.8686    1.9431 C   0  0  0  0  0  0  0  0  0  0  0  0
   -1.1404    0.9807    1.9211 C   0  0  0  0  0  0  0  0  0  0  0  0
   -1.9167   -0.0905    1.4727 C   0  0  0  0  0  0  0  0  0  0  0  0
   -1.3291   -1.2818    1.0299 C   0  0  0  0  0  0  0  0  0  0  0  0
   -2.0911   -2.3910    0.5627 N   0  0  0  0  0  0  0  0  0  0  0  0
   -3.4630   -2.4027    0.3835 C   0  0  0  0  0  0  0  0  0  0  0  0
   -4.2010   -1.4311    0.5394 O   0  0  0  0  0  0  0  0  0  0  0  0
   -3.9533   -3.6579    0.0447 N   0  0  0  0  0  0  0  0  0  0  0  0
   -5.3491   -3.8274   -0.1556 C   0  0  0  0  0  0  0  0  0  0  0  0
   -6.0851   -2.9220   -0.9233 C   0  0  0  0  0  0  0  0  0  0  0  0
   -7.4811   -2.9910   -0.9627 C   0  0  0  0  0  0  0  0  0  0  0  0
   -8.1752   -3.9897   -0.2630 C   0  0  0  0  0  0  0  0  0  0  0  0
   -9.6500   -3.9808   -0.2063 C   0  0  0  0  0  0  0  0  0  0  0  0
  -10.3613   -3.5814   -1.3253 C   0  0  0  0  0  0  0  0  0  0  0  0
  -12.0411   -3.5779   -1.1001 S   0  0  0  0  0  0  0  0  0  0  0  0
  -11.8942   -4.1283    0.5193 C   0  0  0  0  0  0  0  0  0  0  0  0
  -12.9681   -4.3726    1.3841 C   0  0  0  0  0  0  0  0  0  0  0  0
  -12.6423   -4.8110    2.6442 C   0  0  0  0  0  0  0  0  0  0  0  0
  -11.3847   -4.9884    3.0725 N   0  0  0  0  0  0  0  0  0  0  0  0
  -10.3406   -4.7345    2.2513 C   0  0  0  0  0  0  0  0  0  0  0  0
   -9.1024   -4.9046    2.8596 N   0  0  0  0  0  0  0  0  0  0  0  0
  -10.5567   -4.3070    0.9080 C   0  0  0  0  0  0  0  0  0  0  0  0
   -7.4149   -4.9674    0.3931 C   0  0  0  0  0  0  0  0  0  0  0  0
   -6.0162   -4.8771    0.4720 C   0  0  0  0  0  0  0  0  0  0  0  0
    0.0642   -1.3859    1.0584 C   0  0  0  0  0  0  0  0  0  0  0  0
    2.8099    0.5056    1.9543 H   0  0  0  0  0  0  0  0  0  0  0  0
    2.7563   -0.5544    0.5422 H   0  0  0  0  0  0  0  0  0  0  0  0
    2.6749   -1.2386    2.1939 H   0  0  0  0  0  0  0  0  0  0  0  0
    0.8334    1.7123    2.2960 H   0  0  0  0  0  0  0  0  0  0  0  0
   -1.6255    1.8944    2.2481 H   0  0  0  0  0  0  0  0  0  0  0  0
   -2.9899    0.0590    1.4888 H   0  0  0  0  0  0  0  0  0  0  0  0
   -1.5794   -3.1902    0.2229 H   0  0  0  0  0  0  0  0  0  0  0  0
   -3.4675   -4.4302    0.4778 H   0  0  0  0  0  0  0  0  0  0  0  0
   -5.5833   -2.1217   -1.4635 H   0  0  0  0  0  0  0  0  0  0  0  0
   -8.0077   -2.2215   -1.5229 H   0  0  0  0  0  0  0  0  0  0  0  0
   -9.9762   -3.2783   -2.2895 H   0  0  0  0  0  0  0  0  0  0  0  0
  -13.9977   -4.2275    1.0802 H   0  0  0  0  0  0  0  0  0  0  0  0
  -13.4150   -5.0317    3.3754 H   0  0  0  0  0  0  0  0  0  0  0  0
   -9.2471   -5.0061    3.8588 H   0  0  0  0  0  0  0  0  0  0  0  0
   -8.4334   -4.1910    2.5982 H   0  0  0  0  0  0  0  0  0  0  0  0
   -7.9041   -5.7955    0.9014 H   0  0  0  0  0  0  0  0  0  0  0  0
   -5.4814   -5.5860    1.0975 H   0  0  0  0  0  0  0  0  0  0  0  0
    0.5602   -2.2967    0.7292 H   0  0  0  0  0  0  0  0  0  0  0  0
  1  2  1  0  0  0  0
  1 28  1  0  0  0  0
  1 29  1  0  0  0  0
  1 30  1  0  0  0  0
  2  3  1  0  0  0  0
  2 27  2  0  0  0  0
  3  4  2  0  0  0  0
  3 31  1  0  0  0  0
  4  5  1  0  0  0  0
  4 32  1  0  0  0  0
  5  6  2  0  0  0  0
  5 33  1  0  0  0  0
  6  7  1  0  0  0  0
  6 27  1  0  0  0  0
  7  8  1  0  0  0  0
  7 34  1  0  0  0  0
  8  9  2  0  0  0  0
  8 10  1  0  0  0  0
 10 11  1  0  0  0  0
 10 35  1  0  0  0  0
 11 12  1  0  0  0  0
 11 26  2  0  0  0  0
 12 13  2  0  0  0  0
 12 36  1  0  0  0  0
 13 14  1  0  0  0  0
 13 37  1  0  0  0  0
 14 15  1  0  0  0  0
 14 25  2  0  0  0  0
 15 16  2  0  0  0  0
 15 24  1  0  0  0  0
 16 17  1  0  0  0  0
 16 38  1  0  0  0  0
 17 18  1  0  0  0  0
 18 19  1  0  0  0  0
 18 24  2  0  0  0  0
 19 20  2  0  0  0  0
 19 39  1  0  0  0  0
 20 21  1  0  0  0  0
 20 40  1  0  0  0  0
 21 22  2  0  0  0  0
 22 23  1  0  0  0  0
 22 24  1  0  0  0  0
 23 41  1  0  0  0  0
 23 42  1  0  0  0  0
 25 26  1  0  0  0  0
 25 43  1  0  0  0  0
 26 44  1  0  0  0  0
 27 45  1  0  0  0  0
M  END
$$$$
