CHEMBL3593291
 OpenBabel04072215363D

 63 67  0  0  1  0  0  0  0  0999 V2000
    2.2079    7.7286    4.9418 C   0  0  0  0  0  0  0  0  0  0  0  0
    1.5555    6.3579    4.9791 C   0  0  0  0  0  0  0  0  0  0  0  0
    2.5615    5.2785    4.9003 C   0  0  0  0  0  0  0  0  0  0  0  0
    3.1744    4.5951    3.8770 C   0  0  0  0  0  0  0  0  0  0  0  0
    4.0281    3.6769    4.5269 C   0  0  0  0  0  0  0  0  0  0  0  0
    4.8457    2.7731    3.8851 N   0  0  0  0  0  0  0  0  0  0  0  0
    5.6933    1.8537    4.4485 C   0  0  0  0  0  0  0  0  0  0  0  0
    6.3778    1.1695    3.6952 O   0  0  0  0  0  0  0  0  0  0  0  0
    5.6676    1.7702    5.8161 N   0  0  0  0  0  0  0  0  0  0  0  0
    6.4472    0.9639    6.6527 C   0  0  0  0  0  0  0  0  0  0  0  0
    7.5770    0.2801    6.2187 C   0  0  0  0  0  0  0  0  0  0  0  0
    8.2976   -0.5144    7.1110 C   0  0  0  0  0  0  0  0  0  0  0  0
    7.9033   -0.6410    8.4521 C   0  0  0  0  0  0  0  0  0  0  0  0
    8.7058   -1.4580    9.3609 C   0  0  0  0  0  0  0  0  0  0  0  0
   10.0662   -1.6811    9.3298 C   0  0  0  0  0  0  0  0  0  0  0  0
   10.5557   -2.5128   10.3010 N   0  0  0  0  0  0  0  0  0  0  0  0
    9.5909   -2.9610   11.0699 C   0  0  0  0  0  0  0  0  0  0  0  0
    9.7391   -3.8545   12.0805 N   0  0  0  0  0  0  0  0  0  0  0  0
   10.8268   -4.7246   12.2343 C   0  0  0  0  0  0  0  0  0  0  0  0
   12.0862   -4.4469   11.7362 C   0  0  0  0  0  0  0  0  0  0  0  0
   13.0632   -5.4157   11.7839 C   0  0  0  0  0  0  0  0  0  0  0  0
   14.2926   -5.2256   11.1957 N   0  0  0  0  0  0  0  0  0  0  0  0
   15.2589   -6.3132   11.1466 C   0  0  0  0  0  0  0  0  0  0  0  0
   16.1909   -5.9671    9.9813 C   0  0  0  0  0  0  0  0  0  0  0  0
   15.4532   -4.9152    9.1527 C   0  0  3  0  0  0  0  0  0  0  0  0
   14.6251   -5.5217    8.1004 N   0  0  0  0  0  0  0  0  0  0  0  0
   14.5934   -4.1906   10.2076 C   0  0  0  0  0  0  0  0  0  0  0  0
   12.8141   -6.5735   12.4166 N   0  0  0  0  0  0  0  0  0  0  0  0
   11.5916   -6.7511   12.9516 C   0  0  0  0  0  0  0  0  0  0  0  0
   11.3341   -8.0314   13.6805 C   0  0  0  0  0  0  0  0  0  0  0  0
   10.5764   -5.8725   12.8783 N   0  0  0  0  0  0  0  0  0  0  0  0
    8.0316   -2.3448   10.6698 S   0  0  0  0  0  0  0  0  0  0  0  0
    6.7750    0.0637    8.8844 C   0  0  0  0  0  0  0  0  0  0  0  0
    6.0599    0.8686    7.9932 C   0  0  0  0  0  0  0  0  0  0  0  0
    3.9303    3.8014    5.8580 N   0  0  0  0  0  0  0  0  0  0  0  0
    3.0219    4.8083    6.0874 O   0  0  0  0  0  0  0  0  0  0  0  0
    1.4527    8.5098    5.0706 H   0  0  0  0  0  0  0  0  0  0  0  0
    2.7141    7.8981    3.9850 H   0  0  0  0  0  0  0  0  0  0  0  0
    2.9519    7.8386    5.7384 H   0  0  0  0  0  0  0  0  0  0  0  0
    0.8442    6.2618    4.1518 H   0  0  0  0  0  0  0  0  0  0  0  0
    0.9808    6.2545    5.9073 H   0  0  0  0  0  0  0  0  0  0  0  0
    3.0215    4.7371    2.8179 H   0  0  0  0  0  0  0  0  0  0  0  0
    4.8637    2.7788    2.8771 H   0  0  0  0  0  0  0  0  0  0  0  0
    4.9426    2.3202    6.2657 H   0  0  0  0  0  0  0  0  0  0  0  0
    7.9348    0.3607    5.1971 H   0  0  0  0  0  0  0  0  0  0  0  0
    9.1731   -1.0376    6.7319 H   0  0  0  0  0  0  0  0  0  0  0  0
   10.7560   -1.2552    8.6120 H   0  0  0  0  0  0  0  0  0  0  0  0
    8.9091   -4.2616   12.4919 H   0  0  0  0  0  0  0  0  0  0  0  0
   12.3009   -3.4884   11.2920 H   0  0  0  0  0  0  0  0  0  0  0  0
   14.7906   -7.2881   10.9714 H   0  0  0  0  0  0  0  0  0  0  0  0
   15.8243   -6.3574   12.0839 H   0  0  0  0  0  0  0  0  0  0  0  0
   16.4581   -6.8600    9.4041 H   0  0  0  0  0  0  0  0  0  0  0  0
   17.1266   -5.5450   10.3664 H   0  0  0  0  0  0  0  0  0  0  0  0
   16.1510   -4.2198    8.6750 H   0  0  0  0  0  0  0  0  0  0  0  0
   13.9056   -6.0996    8.5395 H   0  0  0  0  0  0  0  0  0  0  0  0
   15.1898   -6.1416    7.5238 H   0  0  0  0  0  0  0  0  0  0  0  0
   13.7182   -3.7330    9.7340 H   0  0  0  0  0  0  0  0  0  0  0  0
   15.1738   -3.3972   10.6924 H   0  0  0  0  0  0  0  0  0  0  0  0
   12.2022   -8.6960   13.6280 H   0  0  0  0  0  0  0  0  0  0  0  0
   10.4768   -8.5464   13.2366 H   0  0  0  0  0  0  0  0  0  0  0  0
   11.1178   -7.8249   14.7329 H   0  0  0  0  0  0  0  0  0  0  0  0
    6.4428    0.0113    9.9182 H   0  0  0  0  0  0  0  0  0  0  0  0
    5.1886    1.4057    8.3601 H   0  0  0  0  0  0  0  0  0  0  0  0
  1  2  1  0  0  0  0
  1 37  1  0  0  0  0
  1 38  1  0  0  0  0
  1 39  1  0  0  0  0
  2  3  1  0  0  0  0
  2 40  1  0  0  0  0
  2 41  1  0  0  0  0
  3  4  2  0  0  0  0
  3 36  1  0  0  0  0
  4  5  1  0  0  0  0
  4 42  1  0  0  0  0
  5  6  1  0  0  0  0
  5 35  2  0  0  0  0
  6  7  1  0  0  0  0
  6 43  1  0  0  0  0
  7  8  2  0  0  0  0
  7  9  1  0  0  0  0
  9 10  1  0  0  0  0
  9 44  1  0  0  0  0
 10 11  1  0  0  0  0
 10 34  2  0  0  0  0
 11 12  2  0  0  0  0
 11 45  1  0  0  0  0
 12 13  1  0  0  0  0
 12 46  1  0  0  0  0
 13 14  1  0  0  0  0
 13 33  2  0  0  0  0
 14 15  2  0  0  0  0
 14 32  1  0  0  0  0
 15 16  1  0  0  0  0
 15 47  1  0  0  0  0
 16 17  2  0  0  0  0
 17 18  1  0  0  0  0
 17 32  1  0  0  0  0
 18 19  1  0  0  0  0
 18 48  1  0  0  0  0
 19 20  1  0  0  0  0
 19 31  2  0  0  0  0
 20 21  2  0  0  0  0
 20 49  1  0  0  0  0
 21 22  1  0  0  0  0
 21 28  1  0  0  0  0
 22 23  1  0  0  0  0
 22 27  1  0  0  0  0
 23 24  1  0  0  0  0
 23 50  1  0  0  0  0
 23 51  1  0  0  0  0
 24 25  1  0  0  0  0
 24 52  1  0  0  0  0
 24 53  1  0  0  0  0
 25 26  1  0  0  0  0
 25 27  1  0  0  0  0
 25 54  1  0  0  0  0
 26 55  1  0  0  0  0
 26 56  1  0  0  0  0
 27 57  1  0  0  0  0
 27 58  1  0  0  0  0
 28 29  2  0  0  0  0
 29 30  1  0  0  0  0
 29 31  1  0  0  0  0
 30 59  1  0  0  0  0
 30 60  1  0  0  0  0
 30 61  1  0  0  0  0
 33 34  1  0  0  0  0
 33 62  1  0  0  0  0
 34 63  1  0  0  0  0
 35 36  1  0  0  0  0
M  END
$$$$
