CHEMBL3895175
 OpenBabel04072215373D

 49 52  0  0  0  0  0  0  0  0999 V2000
    3.3388    5.5123    1.8173 C   0  0  0  0  0  0  0  0  0  0  0  0
    1.9540    6.0491    1.5763 C   0  0  0  0  0  0  0  0  0  0  0  0
    1.6738    7.3886    1.8376 C   0  0  0  0  0  0  0  0  0  0  0  0
    0.4053    7.8991    1.5768 C   0  0  0  0  0  0  0  0  0  0  0  0
   -0.5955    7.0635    1.0797 C   0  0  0  0  0  0  0  0  0  0  0  0
   -1.7425    7.6747    0.7510 F   0  0  0  0  0  0  0  0  0  0  0  0
   -0.3787    5.6956    0.8504 C   0  0  0  0  0  0  0  0  0  0  0  0
   -1.3635    4.7591    0.4428 N   0  0  0  0  0  0  0  0  0  0  0  0
   -2.7421    4.9311    0.4281 C   0  0  0  0  0  0  0  0  0  0  0  0
   -3.3077    5.9677    0.7391 O   0  0  0  0  0  0  0  0  0  0  0  0
   -3.4220    3.7889    0.0698 N   0  0  0  0  0  0  0  0  0  0  0  0
   -4.8407    3.7107   -0.0160 C   0  0  0  0  0  0  0  0  0  0  0  0
   -5.4680    2.5527    0.4485 C   0  0  0  0  0  0  0  0  0  0  0  0
   -6.8609    2.4379    0.4136 C   0  0  0  0  0  0  0  0  0  0  0  0
   -7.6555    3.4999   -0.0285 C   0  0  0  0  0  0  0  0  0  0  0  0
   -7.0550    4.7185   -0.3701 C   0  0  0  0  0  0  0  0  0  0  0  0
   -7.8242    6.0228   -0.1450 C   0  0  0  0  0  0  0  0  0  0  0  0
   -7.1196    7.1892    0.1902 C   0  0  0  0  0  0  0  0  0  0  0  0
   -6.9283    6.9982    1.6112 C   0  0  0  0  0  0  0  0  0  0  0  0
   -5.8975    7.3028    2.5053 C   0  0  0  0  0  0  0  0  0  0  0  0
   -5.9853    6.8204    3.8228 C   0  0  0  0  0  0  0  0  0  0  0  0
   -7.1137    6.1240    4.2546 C   0  0  0  0  0  0  0  0  0  0  0  0
   -8.1754    5.8469    3.3887 C   0  0  0  0  0  0  0  0  0  0  0  0
   -8.0075    6.2376    2.0582 C   0  0  0  0  0  0  0  0  0  0  0  0
   -8.7732    6.0580    0.9171 N   0  0  0  0  0  0  0  0  0  0  0  0
  -10.1690    5.8775    0.8733 C   0  0  0  0  0  0  0  0  0  0  0  0
  -10.7269    6.5173   -0.2025 N   0  0  0  0  0  0  0  0  0  0  0  0
  -10.7861    5.3632    1.7864 O   0  0  0  0  0  0  0  0  0  0  0  0
   -5.6424    4.7677   -0.4802 C   0  0  0  0  0  0  0  0  0  0  0  0
    0.9218    5.2095    1.0939 C   0  0  0  0  0  0  0  0  0  0  0  0
    4.0068    6.2983    2.1766 H   0  0  0  0  0  0  0  0  0  0  0  0
    3.7561    5.1177    0.8933 H   0  0  0  0  0  0  0  0  0  0  0  0
    3.3125    4.7234    2.5789 H   0  0  0  0  0  0  0  0  0  0  0  0
    2.4397    8.0555    2.2283 H   0  0  0  0  0  0  0  0  0  0  0  0
    0.1834    8.9487    1.7459 H   0  0  0  0  0  0  0  0  0  0  0  0
   -1.0347    3.8313    0.2204 H   0  0  0  0  0  0  0  0  0  0  0  0
   -2.9582    2.9271    0.3337 H   0  0  0  0  0  0  0  0  0  0  0  0
   -4.8906    1.7599    0.9185 H   0  0  0  0  0  0  0  0  0  0  0  0
   -7.3397    1.5505    0.8255 H   0  0  0  0  0  0  0  0  0  0  0  0
   -8.7353    3.4068    0.0392 H   0  0  0  0  0  0  0  0  0  0  0  0
   -6.3621    7.6554   -0.4273 H   0  0  0  0  0  0  0  0  0  0  0  0
   -4.9824    7.7872    2.1598 H   0  0  0  0  0  0  0  0  0  0  0  0
   -5.1479    6.9686    4.4961 H   0  0  0  0  0  0  0  0  0  0  0  0
   -7.1633    5.7776    5.2860 H   0  0  0  0  0  0  0  0  0  0  0  0
   -9.0385    5.2845    3.7158 H   0  0  0  0  0  0  0  0  0  0  0  0
  -10.2018    7.2479   -0.6730 H   0  0  0  0  0  0  0  0  0  0  0  0
  -11.7186    6.6899   -0.1001 H   0  0  0  0  0  0  0  0  0  0  0  0
   -5.1585    5.6836   -0.7941 H   0  0  0  0  0  0  0  0  0  0  0  0
    1.1576    4.1577    0.9124 H   0  0  0  0  0  0  0  0  0  0  0  0
  1  2  1  0  0  0  0
  1 31  1  0  0  0  0
  1 32  1  0  0  0  0
  1 33  1  0  0  0  0
  2  3  1  0  0  0  0
  2 30  2  0  0  0  0
  3  4  2  0  0  0  0
  3 34  1  0  0  0  0
  4  5  1  0  0  0  0
  4 35  1  0  0  0  0
  5  6  1  0  0  0  0
  5  7  2  0  0  0  0
  7  8  1  0  0  0  0
  7 30  1  0  0  0  0
  8  9  1  0  0  0  0
  8 36  1  0  0  0  0
  9 10  2  0  0  0  0
  9 11  1  0  0  0  0
 11 12  1  0  0  0  0
 11 37  1  0  0  0  0
 12 13  1  0  0  0  0
 12 29  2  0  0  0  0
 13 14  2  0  0  0  0
 13 38  1  0  0  0  0
 14 15  1  0  0  0  0
 14 39  1  0  0  0  0
 15 16  2  0  0  0  0
 15 40  1  0  0  0  0
 16 17  1  0  0  0  0
 16 29  1  0  0  0  0
 17 18  2  0  0  0  0
 17 25  1  0  0  0  0
 18 19  1  0  0  0  0
 18 41  1  0  0  0  0
 19 20  1  0  0  0  0
 19 24  2  0  0  0  0
 20 21  2  0  0  0  0
 20 42  1  0  0  0  0
 21 22  1  0  0  0  0
 21 43  1  0  0  0  0
 22 23  2  0  0  0  0
 22 44  1  0  0  0  0
 23 24  1  0  0  0  0
 23 45  1  0  0  0  0
 24 25  1  0  0  0  0
 25 26  1  0  0  0  0
 26 27  1  0  0  0  0
 26 28  2  0  0  0  0
 27 46  1  0  0  0  0
 27 47  1  0  0  0  0
 29 48  1  0  0  0  0
 30 49  1  0  0  0  0
M  END
$$$$
