CHEMBL2018879
 OpenBabel04072215363D

 76 78  0  0  0  0  0  0  0  0999 V2000
    4.8705   -1.7120    1.6859 C   0  0  0  0  0  0  0  0  0  0  0  0
    4.1538   -0.6706    0.8368 C   0  0  0  0  0  0  0  0  0  0  0  0
    5.1493    0.1765    0.0325 C   0  0  0  0  0  0  0  0  0  0  0  0
    4.4394    1.1184   -0.9496 C   0  0  0  0  0  0  0  0  0  0  0  0
    5.0717    1.4946   -2.1928 O   0  0  0  0  0  0  0  0  0  0  0  0
    6.4248    1.6217   -2.2695 C   0  0  0  0  0  0  0  0  0  0  0  0
    6.8881    2.9339   -2.4545 C   0  0  0  0  0  0  0  0  0  0  0  0
    8.2715    3.2229   -2.6356 C   0  0  0  0  0  0  0  0  0  0  0  0
    8.8429    4.4942   -2.8687 C   0  0  0  0  0  0  0  0  0  0  0  0
    8.0044    5.6328   -2.8881 N   0  0  0  0  0  0  0  0  0  0  0  0
    8.1734    6.8421   -3.5875 C   0  0  0  0  0  0  0  0  0  0  0  0
    7.3638    7.9346   -3.2749 C   0  0  0  0  0  0  0  0  0  0  0  0
    7.3644    9.0833   -4.0738 C   0  0  0  0  0  0  0  0  0  0  0  0
    8.1358    9.1620   -5.2411 C   0  0  0  0  0  0  0  0  0  0  0  0
    8.0458   10.2803   -6.0943 N   0  0  0  0  0  0  0  0  0  0  0  0
    6.9670   11.1311   -6.1919 C   0  0  0  0  0  0  0  0  0  0  0  0
    5.9431   11.1100   -5.5313 O   0  0  0  0  0  0  0  0  0  0  0  0
    7.1695   11.9562   -7.2558 O   0  0  0  0  0  0  0  0  0  0  0  0
    5.9762   12.6223   -7.7191 C   0  0  0  0  0  0  0  0  0  0  0  0
    5.3577   11.7697   -8.8054 C   0  0  0  0  0  0  0  0  0  0  0  0
    8.9727    8.0810   -5.5674 C   0  0  0  0  0  0  0  0  0  0  0  0
    9.8287    7.9966   -6.8034 C   0  0  0  0  0  0  0  0  0  0  0  0
    8.9906    6.9498   -4.7205 C   0  0  0  0  0  0  0  0  0  0  0  0
   10.1619    4.6627   -3.0800 N   0  0  0  0  0  0  0  0  0  0  0  0
   10.9233    3.5689   -3.0412 C   0  0  0  0  0  0  0  0  0  0  0  0
   10.4963    2.3264   -2.8132 N   0  0  0  0  0  0  0  0  0  0  0  0
    9.1842    2.1629   -2.6331 C   0  0  0  0  0  0  0  0  0  0  0  0
    8.7018    0.8722   -2.4902 C   0  0  0  0  0  0  0  0  0  0  0  0
    7.3335    0.5680   -2.3849 C   0  0  0  0  0  0  0  0  0  0  0  0
    7.1314   -0.7858   -2.4501 O   0  0  0  0  0  0  0  0  0  0  0  0
    5.8438   -1.3198   -2.7431 C   0  0  0  0  0  0  0  0  0  0  0  0
    5.6717   -1.7183   -4.2020 C   0  0  0  0  0  0  0  0  0  0  0  0
    4.2701   -2.0727   -4.5379 N   0  0  0  0  0  0  0  0  0  0  0  0
    3.2945   -0.9952   -4.2728 C   0  0  0  0  0  0  0  0  0  0  0  0
    3.4746    0.2935   -5.0679 C   0  0  0  0  0  0  0  0  0  0  0  0
    4.2204   -2.5808   -5.9156 C   0  0  0  0  0  0  0  0  0  0  0  0
    2.8404   -3.0612   -6.3487 C   0  0  0  0  0  0  0  0  0  0  0  0
    4.1455   -2.3336    2.2204 H   0  0  0  0  0  0  0  0  0  0  0  0
    5.5224   -1.2328    2.4230 H   0  0  0  0  0  0  0  0  0  0  0  0
    5.4827   -2.3735    1.0637 H   0  0  0  0  0  0  0  0  0  0  0  0
    3.5405   -0.0260    1.4753 H   0  0  0  0  0  0  0  0  0  0  0  0
    3.4759   -1.1970    0.1531 H   0  0  0  0  0  0  0  0  0  0  0  0
    5.8255   -0.5168   -0.4522 H   0  0  0  0  0  0  0  0  0  0  0  0
    5.7839    0.7659    0.7035 H   0  0  0  0  0  0  0  0  0  0  0  0
    4.1157    2.0236   -0.4339 H   0  0  0  0  0  0  0  0  0  0  0  0
    3.5048    0.6276   -1.2793 H   0  0  0  0  0  0  0  0  0  0  0  0
    6.1603    3.7406   -2.5236 H   0  0  0  0  0  0  0  0  0  0  0  0
    7.5172    5.7384   -2.0034 H   0  0  0  0  0  0  0  0  0  0  0  0
    6.6992    7.9060   -2.4175 H   0  0  0  0  0  0  0  0  0  0  0  0
    6.7280    9.9061   -3.7629 H   0  0  0  0  0  0  0  0  0  0  0  0
    8.6928   10.3709   -6.8569 H   0  0  0  0  0  0  0  0  0  0  0  0
    6.2751   13.5984   -8.1172 H   0  0  0  0  0  0  0  0  0  0  0  0
    5.2638   12.8182   -6.9112 H   0  0  0  0  0  0  0  0  0  0  0  0
    6.0538   11.6622   -9.6436 H   0  0  0  0  0  0  0  0  0  0  0  0
    4.4271   12.2102   -9.1735 H   0  0  0  0  0  0  0  0  0  0  0  0
    5.1493   10.7596   -8.4387 H   0  0  0  0  0  0  0  0  0  0  0  0
    9.4824    8.6506   -7.6073 H   0  0  0  0  0  0  0  0  0  0  0  0
    9.7923    6.9788   -7.2104 H   0  0  0  0  0  0  0  0  0  0  0  0
   10.8685    8.2373   -6.5635 H   0  0  0  0  0  0  0  0  0  0  0  0
    9.6261    6.1128   -4.9977 H   0  0  0  0  0  0  0  0  0  0  0  0
   11.9847    3.7013   -3.2165 H   0  0  0  0  0  0  0  0  0  0  0  0
    9.4184    0.0553   -2.5178 H   0  0  0  0  0  0  0  0  0  0  0  0
    5.0644   -0.6355   -2.4741 H   0  0  0  0  0  0  0  0  0  0  0  0
    5.6975   -2.1953   -2.1011 H   0  0  0  0  0  0  0  0  0  0  0  0
    6.3184   -2.5911   -4.3660 H   0  0  0  0  0  0  0  0  0  0  0  0
    6.0620   -0.9332   -4.8600 H   0  0  0  0  0  0  0  0  0  0  0  0
    3.2766   -0.7551   -3.2062 H   0  0  0  0  0  0  0  0  0  0  0  0
    2.2766   -1.3688   -4.4293 H   0  0  0  0  0  0  0  0  0  0  0  0
    4.5031    0.6639   -5.0396 H   0  0  0  0  0  0  0  0  0  0  0  0
    2.8378    1.0796   -4.6480 H   0  0  0  0  0  0  0  0  0  0  0  0
    3.1848    0.1536   -6.1135 H   0  0  0  0  0  0  0  0  0  0  0  0
    4.8964   -3.4418   -5.9909 H   0  0  0  0  0  0  0  0  0  0  0  0
    4.5836   -1.8266   -6.6233 H   0  0  0  0  0  0  0  0  0  0  0  0
    2.4636   -3.8360   -5.6733 H   0  0  0  0  0  0  0  0  0  0  0  0
    2.8960   -3.4829   -7.3563 H   0  0  0  0  0  0  0  0  0  0  0  0
    2.1119   -2.2454   -6.3838 H   0  0  0  0  0  0  0  0  0  0  0  0
  1  2  1  0  0  0  0
  1 38  1  0  0  0  0
  1 39  1  0  0  0  0
  1 40  1  0  0  0  0
  2  3  1  0  0  0  0
  2 41  1  0  0  0  0
  2 42  1  0  0  0  0
  3  4  1  0  0  0  0
  3 43  1  0  0  0  0
  3 44  1  0  0  0  0
  4  5  1  0  0  0  0
  4 45  1  0  0  0  0
  4 46  1  0  0  0  0
  5  6  1  0  0  0  0
  6  7  1  0  0  0  0
  6 29  2  0  0  0  0
  7  8  2  0  0  0  0
  7 47  1  0  0  0  0
  8  9  1  0  0  0  0
  8 27  1  0  0  0  0
  9 10  1  0  0  0  0
  9 24  2  0  0  0  0
 10 11  1  0  0  0  0
 10 48  1  0  0  0  0
 11 12  1  0  0  0  0
 11 23  2  0  0  0  0
 12 13  2  0  0  0  0
 12 49  1  0  0  0  0
 13 14  1  0  0  0  0
 13 50  1  0  0  0  0
 14 15  1  0  0  0  0
 14 21  2  0  0  0  0
 15 16  1  0  0  0  0
 15 51  1  0  0  0  0
 16 17  2  0  0  0  0
 16 18  1  0  0  0  0
 18 19  1  0  0  0  0
 19 20  1  0  0  0  0
 19 52  1  0  0  0  0
 19 53  1  0  0  0  0
 20 54  1  0  0  0  0
 20 55  1  0  0  0  0
 20 56  1  0  0  0  0
 21 22  1  0  0  0  0
 21 23  1  0  0  0  0
 22 57  1  0  0  0  0
 22 58  1  0  0  0  0
 22 59  1  0  0  0  0
 23 60  1  0  0  0  0
 24 25  1  0  0  0  0
 25 26  2  0  0  0  0
 25 61  1  0  0  0  0
 26 27  1  0  0  0  0
 27 28  2  0  0  0  0
 28 29  1  0  0  0  0
 28 62  1  0  0  0  0
 29 30  1  0  0  0  0
 30 31  1  0  0  0  0
 31 32  1  0  0  0  0
 31 63  1  0  0  0  0
 31 64  1  0  0  0  0
 32 33  1  0  0  0  0
 32 65  1  0  0  0  0
 32 66  1  0  0  0  0
 33 34  1  0  0  0  0
 33 36  1  0  0  0  0
 34 35  1  0  0  0  0
 34 67  1  0  0  0  0
 34 68  1  0  0  0  0
 35 69  1  0  0  0  0
 35 70  1  0  0  0  0
 35 71  1  0  0  0  0
 36 37  1  0  0  0  0
 36 72  1  0  0  0  0
 36 73  1  0  0  0  0
 37 74  1  0  0  0  0
 37 75  1  0  0  0  0
 37 76  1  0  0  0  0
M  END
$$$$
