CHEMBL1087349
 OpenBabel04072215363D

 46 50  0  0  0  0  0  0  0  0999 V2000
    1.3393   -0.2761    0.0630 C   0  0  0  0  0  0  0  0  0  0  0  0
    0.4964   -1.3713   -0.0334 C   0  0  0  0  0  0  0  0  0  0  0  0
   -0.8786   -1.1707   -0.1392 C   0  0  0  0  0  0  0  0  0  0  0  0
   -1.4445    0.1236   -0.1214 C   0  0  0  0  0  0  0  0  0  0  0  0
   -2.8946    0.2425   -0.2840 C   0  0  0  0  0  0  0  0  0  0  0  0
   -3.7594    1.1488    0.1277 N   0  0  0  0  0  0  0  0  0  0  0  0
   -5.0028    0.7307   -0.3075 N   0  0  0  0  0  0  0  0  0  0  0  0
   -4.8171   -0.3759   -0.9949 C   0  0  0  0  0  0  0  0  0  0  0  0
   -5.7516   -1.1545   -1.5761 N   0  0  0  0  0  0  0  0  0  0  0  0
   -5.6449   -2.0573   -2.6543 C   0  0  0  0  0  0  0  0  0  0  0  0
   -4.4566   -2.2782   -3.3849 C   0  0  0  0  0  0  0  0  0  0  0  0
   -4.3949   -3.2120   -4.4298 C   0  0  0  0  0  0  0  0  0  0  0  0
   -5.5289   -3.9362   -4.7164 C   0  0  0  0  0  0  0  0  0  0  0  0
   -6.6897   -3.7518   -4.0113 C   0  0  0  0  0  0  0  0  0  0  0  0
   -6.7780   -2.8325   -2.9828 C   0  0  0  0  0  0  0  0  0  0  0  0
   -7.6926   -4.5641   -4.4427 O   0  0  0  0  0  0  0  0  0  0  0  0
   -7.0036   -5.3289   -5.4554 C   0  0  0  0  0  0  0  0  0  0  0  0
   -5.6486   -4.8869   -5.6798 O   0  0  0  0  0  0  0  0  0  0  0  0
   -3.5039   -0.7572   -1.0084 O   0  0  0  0  0  0  0  0  0  0  0  0
   -0.5899    1.2379    0.0855 C   0  0  0  0  0  0  0  0  0  0  0  0
   -1.1038    2.5445    0.1957 N   0  0  0  0  0  0  0  0  0  0  0  0
   -0.3173    3.5330    0.9312 C   0  0  0  0  0  0  0  0  0  0  0  0
   -1.1626    4.6609    1.4731 C   0  0  0  0  0  0  0  0  0  0  0  0
   -2.5128    4.4960    1.7960 C   0  0  0  0  0  0  0  0  0  0  0  0
   -3.1918    5.5503    2.3884 C   0  0  0  0  0  0  0  0  0  0  0  0
   -2.6256    6.7394    2.6892 N   0  0  0  0  0  0  0  0  0  0  0  0
   -1.3193    6.8777    2.3855 C   0  0  0  0  0  0  0  0  0  0  0  0
   -0.5573    5.8847    1.7886 C   0  0  0  0  0  0  0  0  0  0  0  0
    0.8018    1.0099    0.1131 C   0  0  0  0  0  0  0  0  0  0  0  0
    2.4161   -0.4163    0.1094 H   0  0  0  0  0  0  0  0  0  0  0  0
    0.9042   -2.3784   -0.0392 H   0  0  0  0  0  0  0  0  0  0  0  0
   -1.5206   -2.0464   -0.2249 H   0  0  0  0  0  0  0  0  0  0  0  0
   -6.7063   -0.8684   -1.3888 H   0  0  0  0  0  0  0  0  0  0  0  0
   -3.5570   -1.7083   -3.1715 H   0  0  0  0  0  0  0  0  0  0  0  0
   -3.4812   -3.3613   -4.9940 H   0  0  0  0  0  0  0  0  0  0  0  0
   -7.7143   -2.7248   -2.4456 H   0  0  0  0  0  0  0  0  0  0  0  0
   -7.5606   -5.2557   -6.3964 H   0  0  0  0  0  0  0  0  0  0  0  0
   -6.9806   -6.3798   -5.1427 H   0  0  0  0  0  0  0  0  0  0  0  0
   -1.4254    2.8967   -0.7048 H   0  0  0  0  0  0  0  0  0  0  0  0
    0.4553    3.9443    0.2699 H   0  0  0  0  0  0  0  0  0  0  0  0
    0.1711    3.0706    1.7991 H   0  0  0  0  0  0  0  0  0  0  0  0
   -3.0291    3.5592    1.6073 H   0  0  0  0  0  0  0  0  0  0  0  0
   -4.2405    5.4551    2.6551 H   0  0  0  0  0  0  0  0  0  0  0  0
   -0.8809    7.8346    2.6545 H   0  0  0  0  0  0  0  0  0  0  0  0
    0.4958    6.0614    1.5948 H   0  0  0  0  0  0  0  0  0  0  0  0
    1.5017    1.8388    0.1769 H   0  0  0  0  0  0  0  0  0  0  0  0
  1  2  1  0  0  0  0
  1 29  2  0  0  0  0
  1 30  1  0  0  0  0
  2  3  2  0  0  0  0
  2 31  1  0  0  0  0
  3  4  1  0  0  0  0
  3 32  1  0  0  0  0
  4  5  1  0  0  0  0
  4 20  2  0  0  0  0
  5  6  2  0  0  0  0
  5 19  1  0  0  0  0
  6  7  1  0  0  0  0
  7  8  2  0  0  0  0
  8  9  1  0  0  0  0
  8 19  1  0  0  0  0
  9 10  1  0  0  0  0
  9 33  1  0  0  0  0
 10 11  1  0  0  0  0
 10 15  2  0  0  0  0
 11 12  2  0  0  0  0
 11 34  1  0  0  0  0
 12 13  1  0  0  0  0
 12 35  1  0  0  0  0
 13 14  2  0  0  0  0
 13 18  1  0  0  0  0
 14 15  1  0  0  0  0
 14 16  1  0  0  0  0
 15 36  1  0  0  0  0
 16 17  1  0  0  0  0
 17 18  1  0  0  0  0
 17 37  1  0  0  0  0
 17 38  1  0  0  0  0
 20 21  1  0  0  0  0
 20 29  1  0  0  0  0
 21 22  1  0  0  0  0
 21 39  1  0  0  0  0
 22 23  1  0  0  0  0
 22 40  1  0  0  0  0
 22 41  1  0  0  0  0
 23 24  1  0  0  0  0
 23 28  2  0  0  0  0
 24 25  2  0  0  0  0
 24 42  1  0  0  0  0
 25 26  1  0  0  0  0
 25 43  1  0  0  0  0
 26 27  2  0  0  0  0
 27 28  1  0  0  0  0
 27 44  1  0  0  0  0
 28 45  1  0  0  0  0
 29 46  1  0  0  0  0
M  END
$$$$
