CHEMBL3980069
 OpenBabel04072215373D

 75 79  0  0  0  0  0  0  0  0999 V2000
    0.7501    2.3151    3.4355 C   0  0  0  0  0  0  0  0  0  0  0  0
    2.1194    2.7221    3.4266 O   0  0  0  0  0  0  0  0  0  0  0  0
    3.0108    1.9285    2.7418 C   0  0  0  0  0  0  0  0  0  0  0  0
    2.6649    0.7408    2.0987 C   0  0  0  0  0  0  0  0  0  0  0  0
    3.6275    0.0450    1.3752 C   0  0  0  0  0  0  0  0  0  0  0  0
    3.4044   -1.1103    0.6695 O   0  0  0  0  0  0  0  0  0  0  0  0
    2.0998   -1.6793    0.7477 C   0  0  0  0  0  0  0  0  0  0  0  0
    4.9448    0.5336    1.3078 C   0  0  0  0  0  0  0  0  0  0  0  0
    5.3454    1.7170    1.9513 C   0  0  0  0  0  0  0  0  0  0  0  0
    6.6169    2.3154    1.7388 N   0  0  0  0  0  0  0  0  0  0  0  0
    7.2250    2.1357    0.3551 C   0  0  0  0  0  0  0  0  0  0  0  0
    6.4132    2.5942   -0.8935 C   0  0  0  0  0  0  0  0  0  0  0  0
    6.1722    4.0173   -1.1849 N   0  0  0  0  0  0  0  0  0  0  0  0
    7.3239    4.8944   -1.4263 C   0  0  0  0  0  0  0  0  0  0  0  0
    8.2980    4.4189   -2.5092 C   0  0  0  0  0  0  0  0  0  0  0  0
    6.7935    6.2758   -1.8466 C   0  0  0  0  0  0  0  0  0  0  0  0
    7.7270    2.4819    2.6682 C   0  0  0  0  0  0  0  0  0  0  0  0
    8.4887    3.6227    2.4344 C   0  0  0  0  0  0  0  0  0  0  0  0
    9.8426    3.6272    2.7253 C   0  0  0  0  0  0  0  0  0  0  0  0
   10.4270    2.6050    3.4302 C   0  0  0  0  0  0  0  0  0  0  0  0
   11.7651    2.6461    3.4287 N   0  0  0  0  0  0  0  0  0  0  0  0
   12.3927    1.8717    4.3173 C   0  0  0  0  0  0  0  0  0  0  0  0
   11.6974    1.1704    5.2772 C   0  0  0  0  0  0  0  0  0  0  0  0
   12.4233    1.0432    6.5557 C   0  0  0  0  0  0  0  0  0  0  0  0
   13.0226   -0.0389    7.2323 C   0  0  0  0  0  0  0  0  0  0  0  0
   13.7679    0.3401    8.2832 N   0  0  0  0  0  0  0  0  0  0  0  0
   13.6856    1.6918    8.2964 N   0  0  0  0  0  0  0  0  0  0  0  0
   14.1302    2.4264    9.4926 C   0  0  0  0  0  0  0  0  0  0  0  0
   14.1237    3.9678    9.4249 C   0  0  0  0  0  0  0  0  0  0  0  0
   15.3296    4.5377    8.6942 C   0  0  0  0  0  0  0  0  0  0  0  0
   16.6046    4.0451    9.2126 N   0  0  0  0  0  0  0  0  0  0  0  0
   16.6587    2.5806    9.2393 C   0  0  0  0  0  0  0  0  0  0  0  0
   15.4993    1.9906   10.0504 C   0  0  0  0  0  0  0  0  0  0  0  0
   12.9638    2.1482    7.2193 C   0  0  0  0  0  0  0  0  0  0  0  0
   10.3331    0.9585    5.1413 N   0  0  0  0  0  0  0  0  0  0  0  0
    9.6526    1.6510    4.1182 C   0  0  0  0  0  0  0  0  0  0  0  0
    8.2784    1.5425    3.6029 C   0  0  0  0  0  0  0  0  0  0  0  0
    4.3465    2.3936    2.6831 C   0  0  0  0  0  0  0  0  0  0  0  0
    0.1579    3.1091    3.9033 H   0  0  0  0  0  0  0  0  0  0  0  0
    0.6142    1.4084    4.0375 H   0  0  0  0  0  0  0  0  0  0  0  0
    0.3491    2.1740    2.4236 H   0  0  0  0  0  0  0  0  0  0  0  0
    1.6488    0.3680    2.1476 H   0  0  0  0  0  0  0  0  0  0  0  0
    2.1009   -2.6052    0.1640 H   0  0  0  0  0  0  0  0  0  0  0  0
    1.3473   -1.0137    0.3103 H   0  0  0  0  0  0  0  0  0  0  0  0
    1.8429   -1.9386    1.7805 H   0  0  0  0  0  0  0  0  0  0  0  0
    5.6489   -0.0320    0.7065 H   0  0  0  0  0  0  0  0  0  0  0  0
    7.4877    1.0775    0.2319 H   0  0  0  0  0  0  0  0  0  0  0  0
    8.1842    2.6603    0.2667 H   0  0  0  0  0  0  0  0  0  0  0  0
    5.4342    2.1062   -0.8955 H   0  0  0  0  0  0  0  0  0  0  0  0
    6.9268    2.1712   -1.7669 H   0  0  0  0  0  0  0  0  0  0  0  0
    5.5729    4.4125   -0.4610 H   0  0  0  0  0  0  0  0  0  0  0  0
    7.8786    5.0186   -0.4912 H   0  0  0  0  0  0  0  0  0  0  0  0
    7.7964    4.2599   -3.4705 H   0  0  0  0  0  0  0  0  0  0  0  0
    8.8033    3.4892   -2.2240 H   0  0  0  0  0  0  0  0  0  0  0  0
    9.0831    5.1684   -2.6734 H   0  0  0  0  0  0  0  0  0  0  0  0
    6.2747    6.2333   -2.8131 H   0  0  0  0  0  0  0  0  0  0  0  0
    7.6168    6.9936   -1.9504 H   0  0  0  0  0  0  0  0  0  0  0  0
    6.0972    6.6835   -1.1073 H   0  0  0  0  0  0  0  0  0  0  0  0
    8.0714    4.4390    1.8540 H   0  0  0  0  0  0  0  0  0  0  0  0
   10.4547    4.4333    2.3539 H   0  0  0  0  0  0  0  0  0  0  0  0
   13.4724    1.9484    4.3167 H   0  0  0  0  0  0  0  0  0  0  0  0
   12.9815   -1.0943    6.9963 H   0  0  0  0  0  0  0  0  0  0  0  0
   13.3735    2.1423   10.2368 H   0  0  0  0  0  0  0  0  0  0  0  0
   14.1508    4.3532   10.4560 H   0  0  0  0  0  0  0  0  0  0  0  0
   13.1976    4.3535    8.9886 H   0  0  0  0  0  0  0  0  0  0  0  0
   15.3270    5.6303    8.7795 H   0  0  0  0  0  0  0  0  0  0  0  0
   15.2681    4.3193    7.6136 H   0  0  0  0  0  0  0  0  0  0  0  0
   16.7682    4.4230   10.1475 H   0  0  0  0  0  0  0  0  0  0  0  0
   17.6084    2.2875    9.7062 H   0  0  0  0  0  0  0  0  0  0  0  0
   16.6603    2.1880    8.2171 H   0  0  0  0  0  0  0  0  0  0  0  0
   15.5838    2.3510   11.0904 H   0  0  0  0  0  0  0  0  0  0  0  0
   15.5994    0.9037   10.0997 H   0  0  0  0  0  0  0  0  0  0  0  0
   12.8779    3.2051    7.0087 H   0  0  0  0  0  0  0  0  0  0  0  0
    7.6811    0.6843    3.9189 H   0  0  0  0  0  0  0  0  0  0  0  0
    4.5816    3.3426    3.1604 H   0  0  0  0  0  0  0  0  0  0  0  0
  1  2  1  0  0  0  0
  1 39  1  0  0  0  0
  1 40  1  0  0  0  0
  1 41  1  0  0  0  0
  2  3  1  0  0  0  0
  3  4  1  0  0  0  0
  3 38  2  0  0  0  0
  4  5  2  0  0  0  0
  4 42  1  0  0  0  0
  5  6  1  0  0  0  0
  5  8  1  0  0  0  0
  6  7  1  0  0  0  0
  7 43  1  0  0  0  0
  7 44  1  0  0  0  0
  7 45  1  0  0  0  0
  8  9  2  0  0  0  0
  8 46  1  0  0  0  0
  9 10  1  0  0  0  0
  9 38  1  0  0  0  0
 10 11  1  0  0  0  0
 10 17  1  0  0  0  0
 11 12  1  0  0  0  0
 11 47  1  0  0  0  0
 11 48  1  0  0  0  0
 12 13  1  0  0  0  0
 12 49  1  0  0  0  0
 12 50  1  0  0  0  0
 13 14  1  0  0  0  0
 13 51  1  0  0  0  0
 14 15  1  0  0  0  0
 14 16  1  0  0  0  0
 14 52  1  0  0  0  0
 15 53  1  0  0  0  0
 15 54  1  0  0  0  0
 15 55  1  0  0  0  0
 16 56  1  0  0  0  0
 16 57  1  0  0  0  0
 16 58  1  0  0  0  0
 17 18  1  0  0  0  0
 17 37  2  0  0  0  0
 18 19  2  0  0  0  0
 18 59  1  0  0  0  0
 19 20  1  0  0  0  0
 19 60  1  0  0  0  0
 20 21  1  0  0  0  0
 20 36  2  0  0  0  0
 21 22  2  0  0  0  0
 22 23  1  0  0  0  0
 22 61  1  0  0  0  0
 23 24  1  0  0  0  0
 23 35  2  0  0  0  0
 24 25  1  0  0  0  0
 24 34  2  0  0  0  0
 25 26  2  0  0  0  0
 25 62  1  0  0  0  0
 26 27  1  0  0  0  0
 27 28  1  0  0  0  0
 27 34  1  0  0  0  0
 28 29  1  0  0  0  0
 28 33  1  0  0  0  0
 28 63  1  0  0  0  0
 29 30  1  0  0  0  0
 29 64  1  0  0  0  0
 29 65  1  0  0  0  0
 30 31  1  0  0  0  0
 30 66  1  0  0  0  0
 30 67  1  0  0  0  0
 31 32  1  0  0  0  0
 31 68  1  0  0  0  0
 32 33  1  0  0  0  0
 32 69  1  0  0  0  0
 32 70  1  0  0  0  0
 33 71  1  0  0  0  0
 33 72  1  0  0  0  0
 34 73  1  0  0  0  0
 35 36  1  0  0  0  0
 36 37  1  0  0  0  0
 37 74  1  0  0  0  0
 38 75  1  0  0  0  0
M  END
$$$$
