CHEMBL3775672
 OpenBabel04072215373D

 36 38  0  0  0  0  0  0  0  0999 V2000
    3.3328    0.0076   -1.1081 C   0  0  0  0  0  0  0  0  0  0  0  0
    2.4439   -0.2443   -0.0141 O   0  0  0  0  0  0  0  0  0  0  0  0
    3.0280   -0.2229    1.2249 C   0  0  0  0  0  0  0  0  0  0  0  0
    4.0413    0.7039    1.5194 C   0  0  0  0  0  0  0  0  0  0  0  0
    4.7578    0.6730    2.7040 C   0  0  0  0  0  0  0  0  0  0  0  0
    5.7842    1.5158    2.8533 N   0  0  0  0  0  0  0  0  0  0  0  0
    6.5035    1.4006    3.9752 C   0  0  0  0  0  0  0  0  0  0  0  0
    6.2691    0.5456    4.9701 N   0  0  0  0  0  0  0  0  0  0  0  0
    5.1885   -0.2472    4.8176 C   0  0  0  0  0  0  0  0  0  0  0  0
    4.8755   -1.1652    5.8202 O   0  0  0  0  0  0  0  0  0  0  0  0
    5.3774   -0.9489    7.0844 C   0  0  0  0  0  0  0  0  0  0  0  0
    5.3908    0.3066    7.6960 C   0  0  0  0  0  0  0  0  0  0  0  0
    5.9226    0.4563    8.9762 C   0  0  0  0  0  0  0  0  0  0  0  0
    6.3950   -0.6595    9.6707 C   0  0  0  0  0  0  0  0  0  0  0  0
    6.3228   -1.9161    9.0731 C   0  0  0  0  0  0  0  0  0  0  0  0
    6.7483   -3.0330    9.7340 O   0  0  0  0  0  0  0  0  0  0  0  0
    5.8164   -2.0719    7.7877 C   0  0  0  0  0  0  0  0  0  0  0  0
    4.3877   -0.2569    3.6737 C   0  0  0  0  0  0  0  0  0  0  0  0
    3.2861   -1.1126    3.4432 C   0  0  0  0  0  0  0  0  0  0  0  0
    2.6096   -1.1160    2.2175 C   0  0  0  0  0  0  0  0  0  0  0  0
    1.6210   -2.0573    2.1790 O   0  0  0  0  0  0  0  0  0  0  0  0
    0.9213   -2.2821    0.9666 C   0  0  0  0  0  0  0  0  0  0  0  0
    3.1167   -0.7197   -1.8968 H   0  0  0  0  0  0  0  0  0  0  0  0
    4.3950   -0.1018   -0.8594 H   0  0  0  0  0  0  0  0  0  0  0  0
    3.1445    1.0121   -1.4985 H   0  0  0  0  0  0  0  0  0  0  0  0
    4.3172    1.4649    0.7933 H   0  0  0  0  0  0  0  0  0  0  0  0
    7.3570    2.0600    4.0819 H   0  0  0  0  0  0  0  0  0  0  0  0
    5.0147    1.1814    7.1727 H   0  0  0  0  0  0  0  0  0  0  0  0
    5.9717    1.4441    9.4254 H   0  0  0  0  0  0  0  0  0  0  0  0
    6.8091   -0.5258   10.6622 H   0  0  0  0  0  0  0  0  0  0  0  0
    7.0445   -2.7701   10.6210 H   0  0  0  0  0  0  0  0  0  0  0  0
    5.7733   -3.0583    7.3369 H   0  0  0  0  0  0  0  0  0  0  0  0
    2.9731   -1.8135    4.2155 H   0  0  0  0  0  0  0  0  0  0  0  0
    0.2846   -3.1604    1.1190 H   0  0  0  0  0  0  0  0  0  0  0  0
    1.6001   -2.5235    0.1440 H   0  0  0  0  0  0  0  0  0  0  0  0
    0.2658   -1.4390    0.7277 H   0  0  0  0  0  0  0  0  0  0  0  0
  1  2  1  0  0  0  0
  1 23  1  0  0  0  0
  1 24  1  0  0  0  0
  1 25  1  0  0  0  0
  2  3  1  0  0  0  0
  3  4  1  0  0  0  0
  3 20  2  0  0  0  0
  4  5  2  0  0  0  0
  4 26  1  0  0  0  0
  5  6  1  0  0  0  0
  5 18  1  0  0  0  0
  6  7  2  0  0  0  0
  7  8  1  0  0  0  0
  7 27  1  0  0  0  0
  8  9  2  0  0  0  0
  9 10  1  0  0  0  0
  9 18  1  0  0  0  0
 10 11  1  0  0  0  0
 11 12  1  0  0  0  0
 11 17  2  0  0  0  0
 12 13  2  0  0  0  0
 12 28  1  0  0  0  0
 13 14  1  0  0  0  0
 13 29  1  0  0  0  0
 14 15  2  0  0  0  0
 14 30  1  0  0  0  0
 15 16  1  0  0  0  0
 15 17  1  0  0  0  0
 16 31  1  0  0  0  0
 17 32  1  0  0  0  0
 18 19  2  0  0  0  0
 19 20  1  0  0  0  0
 19 33  1  0  0  0  0
 20 21  1  0  0  0  0
 21 22  1  0  0  0  0
 22 34  1  0  0  0  0
 22 35  1  0  0  0  0
 22 36  1  0  0  0  0
M  END
$$$$
