CHEMBL1991429
 OpenBabel04072215363D

 70 76  0  0  0  0  0  0  0  0999 V2000
    2.7797    1.2540    0.4083 O   0  0  0  0  0  0  0  0  0  0  0  0
    2.6201    0.3960   -0.4554 C   0  0  0  0  0  0  0  0  0  0  0  0
    1.3572    0.3770   -1.3007 C   0  0  0  0  0  0  0  0  0  0  0  0
    1.4801    0.7143   -2.7708 C   0  0  0  0  0  0  0  0  0  0  0  0
    2.6905    0.9849   -3.4213 C   0  0  0  0  0  0  0  0  0  0  0  0
    2.7176    1.2145   -4.8007 C   0  0  0  0  0  0  0  0  0  0  0  0
    1.5391    1.2045   -5.5428 C   0  0  0  0  0  0  0  0  0  0  0  0
    0.3248    0.9758   -4.9057 C   0  0  0  0  0  0  0  0  0  0  0  0
    0.2965    0.7312   -3.5321 C   0  0  0  0  0  0  0  0  0  0  0  0
    3.4780   -0.6576   -0.7281 N   0  0  0  0  0  0  0  0  0  0  0  0
    4.6753   -0.9869   -0.0557 C   0  0  0  0  0  0  0  0  0  0  0  0
    5.1761   -0.2891    1.0433 C   0  0  0  0  0  0  0  0  0  0  0  0
    6.3695   -0.6879    1.6523 C   0  0  0  0  0  0  0  0  0  0  0  0
    7.0744   -1.7867    1.1640 C   0  0  0  0  0  0  0  0  0  0  0  0
    6.5941   -2.5005    0.0606 C   0  0  0  0  0  0  0  0  0  0  0  0
    7.3303   -3.6685   -0.4084 C   0  0  0  0  0  0  0  0  0  0  0  0
    7.9853   -4.4948    0.4957 N   0  0  0  0  0  0  0  0  0  0  0  0
    8.4819   -5.4290   -0.2566 C   0  0  0  0  0  0  0  0  0  0  0  0
    9.4128   -6.8625    0.0490 S   0  0  0  0  0  0  0  0  0  0  0  0
    9.4057   -7.1944   -1.6860 C   0  0  0  0  0  0  0  0  0  0  0  0
    8.7491   -6.2604   -2.3941 C   0  0  0  0  0  0  0  0  0  0  0  0
    8.2176   -5.2717   -1.5841 N   0  0  0  0  0  0  0  0  0  0  0  0
    7.4698   -4.1212   -1.7307 C   0  0  0  0  0  0  0  0  0  0  0  0
    7.0326   -3.5723   -3.0114 C   0  0  0  0  0  0  0  0  0  0  0  0
    6.6193   -4.3630   -4.0591 C   0  0  0  0  0  0  0  0  0  0  0  0
    6.2935   -3.7000   -5.2107 C   0  0  0  0  0  0  0  0  0  0  0  0
    6.3320   -2.3674   -5.3202 N   0  0  0  0  0  0  0  0  0  0  0  0
    6.6930   -1.6601   -4.2368 C   0  0  0  0  0  0  0  0  0  0  0  0
    6.6799   -0.2660   -4.3026 N   0  0  0  0  0  0  0  0  0  0  0  0
    7.1162    0.5058   -5.3972 C   0  0  0  0  0  0  0  0  0  0  0  0
    6.6440    1.8079   -5.5552 C   0  0  0  0  0  0  0  0  0  0  0  0
    7.0054    2.5498   -6.6780 C   0  0  0  0  0  0  0  0  0  0  0  0
    7.8832    2.0153   -7.6277 C   0  0  0  0  0  0  0  0  0  0  0  0
    8.4279    0.7387   -7.4677 C   0  0  0  0  0  0  0  0  0  0  0  0
    9.3722    0.1986   -8.3826 N   0  0  0  0  0  0  0  0  0  0  0  0
   10.0775   -1.0387   -8.1383 C   0  0  0  0  0  0  0  0  0  0  0  0
   11.2466   -0.9962   -9.1035 C   0  0  0  0  0  0  0  0  0  0  0  0
   10.7030   -0.2121  -10.2800 C   0  0  0  0  0  0  0  0  0  0  0  0
    9.6931    0.7140   -9.6460 C   0  0  0  0  0  0  0  0  0  0  0  0
    9.2411    1.6944  -10.2175 O   0  0  0  0  0  0  0  0  0  0  0  0
    8.0205   -0.0014   -6.3488 C   0  0  0  0  0  0  0  0  0  0  0  0
    7.0560   -2.2259   -3.0806 N   0  0  0  0  0  0  0  0  0  0  0  0
    5.3838   -2.0999   -0.5272 C   0  0  0  0  0  0  0  0  0  0  0  0
    0.6515    1.0802   -0.8402 H   0  0  0  0  0  0  0  0  0  0  0  0
    0.9160   -0.6245   -1.2087 H   0  0  0  0  0  0  0  0  0  0  0  0
    3.6334    1.0212   -2.8810 H   0  0  0  0  0  0  0  0  0  0  0  0
    3.6635    1.3969   -5.3034 H   0  0  0  0  0  0  0  0  0  0  0  0
    1.5700    1.3786   -6.6152 H   0  0  0  0  0  0  0  0  0  0  0  0
   -0.5996    0.9817   -5.4773 H   0  0  0  0  0  0  0  0  0  0  0  0
   -0.6641    0.5502   -3.0528 H   0  0  0  0  0  0  0  0  0  0  0  0
    3.2395   -1.2366   -1.5257 H   0  0  0  0  0  0  0  0  0  0  0  0
    4.6582    0.5673    1.4626 H   0  0  0  0  0  0  0  0  0  0  0  0
    6.7446   -0.1423    2.5146 H   0  0  0  0  0  0  0  0  0  0  0  0
    7.9989   -2.0901    1.6528 H   0  0  0  0  0  0  0  0  0  0  0  0
    9.8930   -8.0685   -2.0980 H   0  0  0  0  0  0  0  0  0  0  0  0
    8.6259   -6.2501   -3.4645 H   0  0  0  0  0  0  0  0  0  0  0  0
    6.5391   -5.4379   -4.0030 H   0  0  0  0  0  0  0  0  0  0  0  0
    5.9815   -4.2287   -6.1058 H   0  0  0  0  0  0  0  0  0  0  0  0
    6.9207    0.1226   -3.3993 H   0  0  0  0  0  0  0  0  0  0  0  0
    5.9569    2.2375   -4.8313 H   0  0  0  0  0  0  0  0  0  0  0  0
    6.6015    3.5484   -6.8244 H   0  0  0  0  0  0  0  0  0  0  0  0
    8.1406    2.6398   -8.4775 H   0  0  0  0  0  0  0  0  0  0  0  0
    9.4103   -1.8797   -8.3597 H   0  0  0  0  0  0  0  0  0  0  0  0
   10.4393   -1.1058   -7.1072 H   0  0  0  0  0  0  0  0  0  0  0  0
   11.6062   -1.9898   -9.3724 H   0  0  0  0  0  0  0  0  0  0  0  0
   12.0813   -0.4470   -8.6480 H   0  0  0  0  0  0  0  0  0  0  0  0
   10.1905   -0.8628  -10.9945 H   0  0  0  0  0  0  0  0  0  0  0  0
   11.4921    0.3545  -10.7817 H   0  0  0  0  0  0  0  0  0  0  0  0
    8.3968   -1.0082   -6.2033 H   0  0  0  0  0  0  0  0  0  0  0  0
    4.9838   -2.6672   -1.3616 H   0  0  0  0  0  0  0  0  0  0  0  0
  1  2  2  0  0  0  0
  2  3  1  0  0  0  0
  2 10  1  0  0  0  0
  3  4  1  0  0  0  0
  3 44  1  0  0  0  0
  3 45  1  0  0  0  0
  4  5  1  0  0  0  0
  4  9  2  0  0  0  0
  5  6  2  0  0  0  0
  5 46  1  0  0  0  0
  6  7  1  0  0  0  0
  6 47  1  0  0  0  0
  7  8  2  0  0  0  0
  7 48  1  0  0  0  0
  8  9  1  0  0  0  0
  8 49  1  0  0  0  0
  9 50  1  0  0  0  0
 10 11  1  0  0  0  0
 10 51  1  0  0  0  0
 11 12  1  0  0  0  0
 11 43  2  0  0  0  0
 12 13  2  0  0  0  0
 12 52  1  0  0  0  0
 13 14  1  0  0  0  0
 13 53  1  0  0  0  0
 14 15  2  0  0  0  0
 14 54  1  0  0  0  0
 15 16  1  0  0  0  0
 15 43  1  0  0  0  0
 16 17  1  0  0  0  0
 16 23  2  0  0  0  0
 17 18  2  0  0  0  0
 18 19  1  0  0  0  0
 18 22  1  0  0  0  0
 19 20  1  0  0  0  0
 20 21  2  0  0  0  0
 20 55  1  0  0  0  0
 21 22  1  0  0  0  0
 21 56  1  0  0  0  0
 22 23  1  0  0  0  0
 23 24  1  0  0  0  0
 24 25  1  0  0  0  0
 24 42  2  0  0  0  0
 25 26  2  0  0  0  0
 25 57  1  0  0  0  0
 26 27  1  0  0  0  0
 26 58  1  0  0  0  0
 27 28  2  0  0  0  0
 28 29  1  0  0  0  0
 28 42  1  0  0  0  0
 29 30  1  0  0  0  0
 29 59  1  0  0  0  0
 30 31  1  0  0  0  0
 30 41  2  0  0  0  0
 31 32  2  0  0  0  0
 31 60  1  0  0  0  0
 32 33  1  0  0  0  0
 32 61  1  0  0  0  0
 33 34  2  0  0  0  0
 33 62  1  0  0  0  0
 34 35  1  0  0  0  0
 34 41  1  0  0  0  0
 35 36  1  0  0  0  0
 35 39  1  0  0  0  0
 36 37  1  0  0  0  0
 36 63  1  0  0  0  0
 36 64  1  0  0  0  0
 37 38  1  0  0  0  0
 37 65  1  0  0  0  0
 37 66  1  0  0  0  0
 38 39  1  0  0  0  0
 38 67  1  0  0  0  0
 38 68  1  0  0  0  0
 39 40  2  0  0  0  0
 41 69  1  0  0  0  0
 43 70  1  0  0  0  0
M  END
$$$$
