CHEMBL3741069
 OpenBabel04072215373D

 62 67  0  0  0  0  0  0  0  0999 V2000
    2.1742    0.1438   -0.1306 C   0  0  0  0  0  0  0  0  0  0  0  0
    0.7032   -0.0739    0.0116 C   0  0  0  0  0  0  0  0  0  0  0  0
   -0.1165    1.0250    0.0541 N   0  0  0  0  0  0  0  0  0  0  0  0
   -1.4454    0.6767    0.1027 C   0  0  0  0  0  0  0  0  0  0  0  0
   -2.4791    1.7285    0.1687 C   0  0  0  0  0  0  0  0  0  0  0  0
   -2.3197    2.9423   -0.5196 C   0  0  0  0  0  0  0  0  0  0  0  0
   -3.3230    3.9161   -0.4992 C   0  0  0  0  0  0  0  0  0  0  0  0
   -4.5124    3.6781    0.1836 C   0  0  0  0  0  0  0  0  0  0  0  0
   -4.6809    2.4871    0.8824 C   0  0  0  0  0  0  0  0  0  0  0  0
   -3.6566    1.5385    0.9034 C   0  0  0  0  0  0  0  0  0  0  0  0
   -1.4892   -0.7231    0.0709 C   0  0  0  0  0  0  0  0  0  0  0  0
   -2.7406   -1.5110    0.0452 C   0  0  0  0  0  0  0  0  0  0  0  0
   -3.8467   -1.1064   -0.7203 C   0  0  0  0  0  0  0  0  0  0  0  0
   -5.0587   -1.8052   -0.6722 C   0  0  0  0  0  0  0  0  0  0  0  0
   -5.1566   -2.9813    0.0633 C   0  0  0  0  0  0  0  0  0  0  0  0
   -4.0521   -3.4399    0.7724 C   0  0  0  0  0  0  0  0  0  0  0  0
   -2.8710   -2.6896    0.7945 C   0  0  0  0  0  0  0  0  0  0  0  0
   -0.1072   -1.2060    0.0741 C   0  0  0  0  0  0  0  0  0  0  0  0
    0.3008   -2.6228    0.0303 C   0  0  0  0  0  0  0  0  0  0  0  0
   -0.4401   -3.4728   -0.4493 O   0  0  0  0  0  0  0  0  0  0  0  0
    1.5878   -3.0152    0.6053 C   0  0  0  0  0  0  0  0  0  0  0  0
    2.2211   -2.4436    1.6932 C   0  0  0  0  0  0  0  0  0  0  0  0
    3.4226   -3.0847    1.8568 N   0  0  0  0  0  0  0  0  0  0  0  0
    4.4797   -2.7438    2.7535 C   0  0  0  0  0  0  0  0  0  0  0  0
    4.3688   -1.6468    3.6204 C   0  0  0  0  0  0  0  0  0  0  0  0
    5.4214   -1.3292    4.4851 C   0  0  0  0  0  0  0  0  0  0  0  0
    6.5837   -2.0972    4.4931 C   0  0  0  0  0  0  0  0  0  0  0  0
    6.7023   -3.1848    3.6280 C   0  0  0  0  0  0  0  0  0  0  0  0
    5.6554   -3.5079    2.7596 C   0  0  0  0  0  0  0  0  0  0  0  0
    3.5274   -4.1433    1.0229 N   0  0  0  0  0  0  0  0  0  0  0  0
    2.4120   -4.1369    0.2706 C   0  0  0  0  0  0  0  0  0  0  0  0
    2.1757   -5.2283   -0.6945 C   0  0  0  0  0  0  0  0  0  0  0  0
    2.6644   -6.5166   -0.4292 C   0  0  0  0  0  0  0  0  0  0  0  0
    2.3716   -7.5893   -1.2762 C   0  0  0  0  0  0  0  0  0  0  0  0
    1.5701   -7.3938   -2.3978 C   0  0  0  0  0  0  0  0  0  0  0  0
    1.0962   -6.1188   -2.6921 C   0  0  0  0  0  0  0  0  0  0  0  0
    1.4248   -5.0424   -1.8675 C   0  0  0  0  0  0  0  0  0  0  0  0
    2.3977    1.1740   -0.4329 H   0  0  0  0  0  0  0  0  0  0  0  0
    2.6002   -0.5204   -0.8879 H   0  0  0  0  0  0  0  0  0  0  0  0
    2.6892   -0.0128    0.8190 H   0  0  0  0  0  0  0  0  0  0  0  0
    0.2120    1.9811    0.0361 H   0  0  0  0  0  0  0  0  0  0  0  0
   -1.4259    3.1426   -1.1042 H   0  0  0  0  0  0  0  0  0  0  0  0
   -3.1828    4.8522   -1.0339 H   0  0  0  0  0  0  0  0  0  0  0  0
   -5.3082    4.4176    0.1706 H   0  0  0  0  0  0  0  0  0  0  0  0
   -5.6114    2.2844    1.4057 H   0  0  0  0  0  0  0  0  0  0  0  0
   -3.8094    0.6254    1.4749 H   0  0  0  0  0  0  0  0  0  0  0  0
   -3.7947   -0.2143   -1.3396 H   0  0  0  0  0  0  0  0  0  0  0  0
   -5.9220   -1.4281   -1.2137 H   0  0  0  0  0  0  0  0  0  0  0  0
   -6.0864   -3.5430    0.0785 H   0  0  0  0  0  0  0  0  0  0  0  0
   -4.1023   -4.3815    1.3129 H   0  0  0  0  0  0  0  0  0  0  0  0
   -2.0458   -3.0676    1.3909 H   0  0  0  0  0  0  0  0  0  0  0  0
    1.9173   -1.6271    2.3286 H   0  0  0  0  0  0  0  0  0  0  0  0
    3.4890   -1.0160    3.6527 H   0  0  0  0  0  0  0  0  0  0  0  0
    5.3329   -0.4794    5.1623 H   0  0  0  0  0  0  0  0  0  0  0  0
    7.3980   -1.8515    5.1698 H   0  0  0  0  0  0  0  0  0  0  0  0
    7.6101   -3.7823    3.6272 H   0  0  0  0  0  0  0  0  0  0  0  0
    5.7774   -4.3573    2.0880 H   0  0  0  0  0  0  0  0  0  0  0  0
    3.2655   -6.6991    0.4624 H   0  0  0  0  0  0  0  0  0  0  0  0
    2.7545   -8.5809   -1.0497 H   0  0  0  0  0  0  0  0  0  0  0  0
    1.3145   -8.2287   -3.0433 H   0  0  0  0  0  0  0  0  0  0  0  0
    0.4564   -5.9567   -3.5553 H   0  0  0  0  0  0  0  0  0  0  0  0
    1.0500   -4.0630   -2.1467 H   0  0  0  0  0  0  0  0  0  0  0  0
  1  2  1  0  0  0  0
  1 38  1  0  0  0  0
  1 39  1  0  0  0  0
  1 40  1  0  0  0  0
  2  3  1  0  0  0  0
  2 18  2  0  0  0  0
  3  4  1  0  0  0  0
  3 41  1  0  0  0  0
  4  5  1  0  0  0  0
  4 11  2  0  0  0  0
  5  6  1  0  0  0  0
  5 10  2  0  0  0  0
  6  7  2  0  0  0  0
  6 42  1  0  0  0  0
  7  8  1  0  0  0  0
  7 43  1  0  0  0  0
  8  9  2  0  0  0  0
  8 44  1  0  0  0  0
  9 10  1  0  0  0  0
  9 45  1  0  0  0  0
 10 46  1  0  0  0  0
 11 12  1  0  0  0  0
 11 18  1  0  0  0  0
 12 13  1  0  0  0  0
 12 17  2  0  0  0  0
 13 14  2  0  0  0  0
 13 47  1  0  0  0  0
 14 15  1  0  0  0  0
 14 48  1  0  0  0  0
 15 16  2  0  0  0  0
 15 49  1  0  0  0  0
 16 17  1  0  0  0  0
 16 50  1  0  0  0  0
 17 51  1  0  0  0  0
 18 19  1  0  0  0  0
 19 20  2  0  0  0  0
 19 21  1  0  0  0  0
 21 22  2  0  0  0  0
 21 31  1  0  0  0  0
 22 23  1  0  0  0  0
 22 52  1  0  0  0  0
 23 24  1  0  0  0  0
 23 30  1  0  0  0  0
 24 25  1  0  0  0  0
 24 29  2  0  0  0  0
 25 26  2  0  0  0  0
 25 53  1  0  0  0  0
 26 27  1  0  0  0  0
 26 54  1  0  0  0  0
 27 28  2  0  0  0  0
 27 55  1  0  0  0  0
 28 29  1  0  0  0  0
 28 56  1  0  0  0  0
 29 57  1  0  0  0  0
 30 31  2  0  0  0  0
 31 32  1  0  0  0  0
 32 33  1  0  0  0  0
 32 37  2  0  0  0  0
 33 34  2  0  0  0  0
 33 58  1  0  0  0  0
 34 35  1  0  0  0  0
 34 59  1  0  0  0  0
 35 36  2  0  0  0  0
 35 60  1  0  0  0  0
 36 37  1  0  0  0  0
 36 61  1  0  0  0  0
 37 62  1  0  0  0  0
M  END
$$$$
