CHEMBL1976090
 OpenBabel04072215363D

 21 23  0  0  0  0  0  0  0  0999 V2000
    0.9979   -0.2457    0.0574 N   0  0  0  0  0  0  0  0  0  0  0  0
    2.3631   -0.0825   -0.0005 C   0  0  0  0  0  0  0  0  0  0  0  0
    3.1265   -1.1902   -0.0235 N   0  0  0  0  0  0  0  0  0  0  0  0
    4.4584   -1.0473   -0.0468 C   0  0  0  0  0  0  0  0  0  0  0  0
    5.1549    0.0911   -0.0582 N   0  0  0  0  0  0  0  0  0  0  0  0
    4.3896    1.2161   -0.0505 C   0  0  0  0  0  0  0  0  0  0  0  0
    3.0000    1.1603   -0.0262 C   0  0  0  0  0  0  0  0  0  0  0  0
    2.3111    2.7327   -0.0164 S   0  0  0  0  0  0  0  0  0  0  0  0
    3.8405    3.4699   -0.0316 C   0  0  0  0  0  0  0  0  0  0  0  0
    3.9360    4.8105   -0.0230 N   0  0  0  0  0  0  0  0  0  0  0  0
    5.2118    5.2236   -0.0362 C   0  0  0  0  0  0  0  0  0  0  0  0
    6.3166    4.4634   -0.0637 N   0  0  0  0  0  0  0  0  0  0  0  0
    6.1742    3.1226   -0.0895 C   0  0  0  0  0  0  0  0  0  0  0  0
    7.3297    2.3757   -0.1652 N   0  0  0  0  0  0  0  0  0  0  0  0
    4.8864    2.5654   -0.0601 C   0  0  0  0  0  0  0  0  0  0  0  0
    0.6539   -1.1852   -0.0843 H   0  0  0  0  0  0  0  0  0  0  0  0
    0.3891    0.5442   -0.0950 H   0  0  0  0  0  0  0  0  0  0  0  0
    5.0365   -1.9670   -0.0523 H   0  0  0  0  0  0  0  0  0  0  0  0
    5.3704    6.2976   -0.0266 H   0  0  0  0  0  0  0  0  0  0  0  0
    8.1874    2.8772    0.0262 H   0  0  0  0  0  0  0  0  0  0  0  0
    7.2714    1.3831    0.0271 H   0  0  0  0  0  0  0  0  0  0  0  0
  1  2  1  0  0  0  0
  1 16  1  0  0  0  0
  1 17  1  0  0  0  0
  2  3  1  0  0  0  0
  2  7  2  0  0  0  0
  3  4  2  0  0  0  0
  4  5  1  0  0  0  0
  4 18  1  0  0  0  0
  5  6  2  0  0  0  0
  6  7  1  0  0  0  0
  6 15  1  0  0  0  0
  7  8  1  0  0  0  0
  8  9  1  0  0  0  0
  9 10  1  0  0  0  0
  9 15  2  0  0  0  0
 10 11  2  0  0  0  0
 11 12  1  0  0  0  0
 11 19  1  0  0  0  0
 12 13  2  0  0  0  0
 13 14  1  0  0  0  0
 13 15  1  0  0  0  0
 14 20  1  0  0  0  0
 14 21  1  0  0  0  0
M  END
$$$$
