CHEMBL360450
 OpenBabel04072215363D

 64 67  0  0  0  0  0  0  0  0999 V2000
    0.9526   -0.1762   -0.1892 C   0  0  0  0  0  0  0  0  0  0  0  0
    2.4696   -0.1118   -0.1976 C   0  0  0  0  0  0  0  0  0  0  0  0
    3.0081    0.6635   -1.4022 C   0  0  0  0  0  0  0  0  0  0  0  0
    4.5094    0.6690   -1.4117 C   0  0  0  0  0  0  0  0  0  0  0  0
    5.3573    1.6783   -0.8045 C   0  0  0  0  0  0  0  0  0  0  0  0
    4.9821    2.9078   -0.0916 C   0  0  0  0  0  0  0  0  0  0  0  0
    3.9091    3.4751   -0.2620 O   0  0  0  0  0  0  0  0  0  0  0  0
    5.9336    3.3584    0.7992 N   0  0  0  0  0  0  0  0  0  0  0  0
    5.7566    4.5519    1.6050 C   0  0  0  0  0  0  0  0  0  0  0  0
    6.9220    4.7201    2.5765 C   0  0  0  0  0  0  0  0  0  0  0  0
    6.8246    6.0233    3.3818 C   0  0  0  0  0  0  0  0  0  0  0  0
    7.9563    6.1898    4.3140 N   0  0  0  0  0  0  0  0  0  0  0  0
    7.8027    7.4048    5.1364 C   0  0  0  0  0  0  0  0  0  0  0  0
    8.4075    8.5137    4.2972 C   0  0  0  0  0  0  0  0  0  0  0  0
    9.6157    7.8390    3.6810 C   0  0  0  0  0  0  0  0  0  0  0  0
    9.2530    6.3595    3.6301 C   0  0  0  0  0  0  0  0  0  0  0  0
    6.6592    1.2683   -1.0413 C   0  0  0  0  0  0  0  0  0  0  0  0
    6.6417    0.0952   -1.7313 N   0  0  0  0  0  0  0  0  0  0  0  0
    7.7405   -0.5648   -2.1096 N   0  0  0  0  0  0  0  0  0  0  0  0
    7.4907   -1.6575   -2.7572 C   0  0  0  0  0  0  0  0  0  0  0  0
    6.2615   -2.1574   -3.0665 N   0  0  0  0  0  0  0  0  0  0  0  0
    5.1767   -1.5321   -2.6915 C   0  0  0  0  0  0  0  0  0  0  0  0
    3.9482   -2.0888   -2.9874 N   0  0  0  0  0  0  0  0  0  0  0  0
    3.6337   -2.8221   -4.1496 C   0  0  0  0  0  0  0  0  0  0  0  0
    4.3688   -2.6997   -5.3346 C   0  0  0  0  0  0  0  0  0  0  0  0
    4.0477   -3.4478   -6.4715 C   0  0  0  0  0  0  0  0  0  0  0  0
    2.9860   -4.3582   -6.4525 C   0  0  0  0  0  0  0  0  0  0  0  0
    2.6459   -5.1124   -7.7040 C   0  0  0  0  0  0  0  0  0  0  0  0
    2.2753   -4.5096   -5.2573 C   0  0  0  0  0  0  0  0  0  0  0  0
    1.2331   -5.3848   -5.1256 O   0  0  0  0  0  0  0  0  0  0  0  0
    2.5947   -3.7587   -4.1206 C   0  0  0  0  0  0  0  0  0  0  0  0
    5.3537   -0.2992   -1.9594 C   0  0  0  0  0  0  0  0  0  0  0  0
    0.6049   -0.7187    0.6961 H   0  0  0  0  0  0  0  0  0  0  0  0
    0.5763   -0.6976   -1.0750 H   0  0  0  0  0  0  0  0  0  0  0  0
    0.5171    0.8273   -0.1656 H   0  0  0  0  0  0  0  0  0  0  0  0
    2.8684   -1.1340   -0.1962 H   0  0  0  0  0  0  0  0  0  0  0  0
    2.8156    0.3590    0.7303 H   0  0  0  0  0  0  0  0  0  0  0  0
    2.6171    1.6869   -1.3929 H   0  0  0  0  0  0  0  0  0  0  0  0
    2.6316    0.2272   -2.3348 H   0  0  0  0  0  0  0  0  0  0  0  0
    6.7830    2.8233    0.9117 H   0  0  0  0  0  0  0  0  0  0  0  0
    4.8036    4.4760    2.1387 H   0  0  0  0  0  0  0  0  0  0  0  0
    5.6949    5.4057    0.9208 H   0  0  0  0  0  0  0  0  0  0  0  0
    7.8469    4.6908    1.9914 H   0  0  0  0  0  0  0  0  0  0  0  0
    6.9631    3.8628    3.2601 H   0  0  0  0  0  0  0  0  0  0  0  0
    5.8960    5.9833    3.9666 H   0  0  0  0  0  0  0  0  0  0  0  0
    6.7374    6.8778    2.7000 H   0  0  0  0  0  0  0  0  0  0  0  0
    8.3869    7.2813    6.0582 H   0  0  0  0  0  0  0  0  0  0  0  0
    6.7702    7.6117    5.4360 H   0  0  0  0  0  0  0  0  0  0  0  0
    8.6806    9.3947    4.8840 H   0  0  0  0  0  0  0  0  0  0  0  0
    7.7108    8.8318    3.5123 H   0  0  0  0  0  0  0  0  0  0  0  0
   10.4966    7.9837    4.3171 H   0  0  0  0  0  0  0  0  0  0  0  0
    9.8401    8.2422    2.6887 H   0  0  0  0  0  0  0  0  0  0  0  0
   10.0104    5.7719    4.1622 H   0  0  0  0  0  0  0  0  0  0  0  0
    9.2662    6.0122    2.5942 H   0  0  0  0  0  0  0  0  0  0  0  0
    7.6109    1.7170   -0.7973 H   0  0  0  0  0  0  0  0  0  0  0  0
    8.3469   -2.2632   -3.0990 H   0  0  0  0  0  0  0  0  0  0  0  0
    3.1439   -1.8020   -2.4510 H   0  0  0  0  0  0  0  0  0  0  0  0
    5.1932   -1.9939   -5.4019 H   0  0  0  0  0  0  0  0  0  0  0  0
    4.6380   -3.3022   -7.3737 H   0  0  0  0  0  0  0  0  0  0  0  0
    3.3300   -4.8644   -8.5231 H   0  0  0  0  0  0  0  0  0  0  0  0
    1.6340   -4.8540   -8.0320 H   0  0  0  0  0  0  0  0  0  0  0  0
    2.7124   -6.1914   -7.5342 H   0  0  0  0  0  0  0  0  0  0  0  0
    1.0644   -5.8126   -5.9794 H   0  0  0  0  0  0  0  0  0  0  0  0
    2.0287   -3.9268   -3.2083 H   0  0  0  0  0  0  0  0  0  0  0  0
  1  2  1  0  0  0  0
  1 33  1  0  0  0  0
  1 34  1  0  0  0  0
  1 35  1  0  0  0  0
  2  3  1  0  0  0  0
  2 36  1  0  0  0  0
  2 37  1  0  0  0  0
  3  4  1  0  0  0  0
  3 38  1  0  0  0  0
  3 39  1  0  0  0  0
  4  5  1  0  0  0  0
  4 32  2  0  0  0  0
  5  6  1  0  0  0  0
  5 17  2  0  0  0  0
  6  7  2  0  0  0  0
  6  8  1  0  0  0  0
  8  9  1  0  0  0  0
  8 40  1  0  0  0  0
  9 10  1  0  0  0  0
  9 41  1  0  0  0  0
  9 42  1  0  0  0  0
 10 11  1  0  0  0  0
 10 43  1  0  0  0  0
 10 44  1  0  0  0  0
 11 12  1  0  0  0  0
 11 45  1  0  0  0  0
 11 46  1  0  0  0  0
 12 13  1  0  0  0  0
 12 16  1  0  0  0  0
 13 14  1  0  0  0  0
 13 47  1  0  0  0  0
 13 48  1  0  0  0  0
 14 15  1  0  0  0  0
 14 49  1  0  0  0  0
 14 50  1  0  0  0  0
 15 16  1  0  0  0  0
 15 51  1  0  0  0  0
 15 52  1  0  0  0  0
 16 53  1  0  0  0  0
 16 54  1  0  0  0  0
 17 18  1  0  0  0  0
 17 55  1  0  0  0  0
 18 19  1  0  0  0  0
 18 32  1  0  0  0  0
 19 20  2  0  0  0  0
 20 21  1  0  0  0  0
 20 56  1  0  0  0  0
 21 22  2  0  0  0  0
 22 23  1  0  0  0  0
 22 32  1  0  0  0  0
 23 24  1  0  0  0  0
 23 57  1  0  0  0  0
 24 25  1  0  0  0  0
 24 31  2  0  0  0  0
 25 26  2  0  0  0  0
 25 58  1  0  0  0  0
 26 27  1  0  0  0  0
 26 59  1  0  0  0  0
 27 28  1  0  0  0  0
 27 29  2  0  0  0  0
 28 60  1  0  0  0  0
 28 61  1  0  0  0  0
 28 62  1  0  0  0  0
 29 30  1  0  0  0  0
 29 31  1  0  0  0  0
 30 63  1  0  0  0  0
 31 64  1  0  0  0  0
M  END
$$$$
