CHEMBL365064
 OpenBabel04072215373D

 43 47  0  0  0  0  0  0  0  0999 V2000
    1.8411    0.2230    1.3758 O   0  0  0  0  0  0  0  0  0  0  0  0
    2.9499   -0.0016    0.9361 C   0  0  0  0  0  0  0  0  0  0  0  0
    4.0287    0.8681    0.8734 N   0  0  0  0  0  0  0  0  0  0  0  0
    5.1237    0.4046    0.1786 N   0  0  0  0  0  0  0  0  0  0  0  0
    4.8112   -0.8071   -0.2191 C   0  0  0  0  0  0  0  0  0  0  0  0
    5.7004   -1.6503   -1.0204 C   0  0  0  0  0  0  0  0  0  0  0  0
    7.0763   -1.5276   -0.8811 C   0  0  0  0  0  0  0  0  0  0  0  0
    7.9490   -2.2461   -1.6334 N   0  0  0  0  0  0  0  0  0  0  0  0
    7.3850   -3.0663   -2.5489 C   0  0  0  0  0  0  0  0  0  0  0  0
    6.0113   -3.1795   -2.6952 C   0  0  0  0  0  0  0  0  0  0  0  0
    5.1352   -2.4851   -1.9304 N   0  0  0  0  0  0  0  0  0  0  0  0
    3.4689   -1.2162    0.2666 C   0  0  0  0  0  0  0  0  0  0  0  0
    2.9253   -2.4389    0.2133 C   0  0  0  0  0  0  0  0  0  0  0  0
    1.7849   -2.8054    0.9696 C   0  0  0  0  0  0  0  0  0  0  0  0
    0.5564   -2.6741    0.3760 N   0  0  0  0  0  0  0  0  0  0  0  0
   -0.4431   -3.0668    1.2344 C   0  0  0  0  0  0  0  0  0  0  0  0
   -1.8315   -3.0860    1.0441 C   0  0  0  0  0  0  0  0  0  0  0  0
   -2.6308   -3.5064    2.1053 C   0  0  0  0  0  0  0  0  0  0  0  0
   -2.0611   -3.9125    3.3106 C   0  0  0  0  0  0  0  0  0  0  0  0
   -0.6712   -3.9101    3.4729 C   0  0  0  0  0  0  0  0  0  0  0  0
    0.1685   -3.4670    2.4239 C   0  0  0  0  0  0  0  0  0  0  0  0
    1.5928   -3.3163    2.2494 C   0  0  0  0  0  0  0  0  0  0  0  0
    2.6809   -3.5827    3.2037 C   0  0  0  0  0  0  0  0  0  0  0  0
    3.9361   -4.0472    2.7767 C   0  0  0  0  0  0  0  0  0  0  0  0
    4.9761   -4.2674    3.6850 C   0  0  0  0  0  0  0  0  0  0  0  0
    4.7644   -4.0717    5.0453 C   0  0  0  0  0  0  0  0  0  0  0  0
    3.5197   -3.6399    5.4932 C   0  0  0  0  0  0  0  0  0  0  0  0
    2.4945   -3.3790    4.5774 C   0  0  0  0  0  0  0  0  0  0  0  0
    3.9953    1.8199    1.2184 H   0  0  0  0  0  0  0  0  0  0  0  0
    7.5234   -0.8530   -0.1582 H   0  0  0  0  0  0  0  0  0  0  0  0
    8.0715   -3.6306   -3.1707 H   0  0  0  0  0  0  0  0  0  0  0  0
    5.5765   -3.8328   -3.4440 H   0  0  0  0  0  0  0  0  0  0  0  0
    3.4394   -3.2506   -0.2938 H   0  0  0  0  0  0  0  0  0  0  0  0
    0.3918   -2.3102   -0.5513 H   0  0  0  0  0  0  0  0  0  0  0  0
   -2.2785   -2.7694    0.1071 H   0  0  0  0  0  0  0  0  0  0  0  0
   -3.7126   -3.5173    1.9940 H   0  0  0  0  0  0  0  0  0  0  0  0
   -2.6977   -4.2296    4.1321 H   0  0  0  0  0  0  0  0  0  0  0  0
   -0.2521   -4.2463    4.4158 H   0  0  0  0  0  0  0  0  0  0  0  0
    4.1282   -4.2559    1.7299 H   0  0  0  0  0  0  0  0  0  0  0  0
    5.9467   -4.5996    3.3266 H   0  0  0  0  0  0  0  0  0  0  0  0
    5.5663   -4.2560    5.7547 H   0  0  0  0  0  0  0  0  0  0  0  0
    3.3445   -3.4954    6.5560 H   0  0  0  0  0  0  0  0  0  0  0  0
    1.5514   -2.9997    4.9600 H   0  0  0  0  0  0  0  0  0  0  0  0
  1  2  2  0  0  0  0
  2  3  1  0  0  0  0
  2 12  1  0  0  0  0
  3  4  1  0  0  0  0
  3 29  1  0  0  0  0
  4  5  2  0  0  0  0
  5  6  1  0  0  0  0
  5 12  1  0  0  0  0
  6  7  1  0  0  0  0
  6 11  2  0  0  0  0
  7  8  2  0  0  0  0
  7 30  1  0  0  0  0
  8  9  1  0  0  0  0
  9 10  2  0  0  0  0
  9 31  1  0  0  0  0
 10 11  1  0  0  0  0
 10 32  1  0  0  0  0
 12 13  2  0  0  0  0
 13 14  1  0  0  0  0
 13 33  1  0  0  0  0
 14 15  1  0  0  0  0
 14 22  2  0  0  0  0
 15 16  1  0  0  0  0
 15 34  1  0  0  0  0
 16 17  1  0  0  0  0
 16 21  2  0  0  0  0
 17 18  2  0  0  0  0
 17 35  1  0  0  0  0
 18 19  1  0  0  0  0
 18 36  1  0  0  0  0
 19 20  2  0  0  0  0
 19 37  1  0  0  0  0
 20 21  1  0  0  0  0
 20 38  1  0  0  0  0
 21 22  1  0  0  0  0
 22 23  1  0  0  0  0
 23 24  1  0  0  0  0
 23 28  2  0  0  0  0
 24 25  2  0  0  0  0
 24 39  1  0  0  0  0
 25 26  1  0  0  0  0
 25 40  1  0  0  0  0
 26 27  2  0  0  0  0
 26 41  1  0  0  0  0
 27 28  1  0  0  0  0
 27 42  1  0  0  0  0
 28 43  1  0  0  0  0
M  END
$$$$
