CHEMBL2047251
 OpenBabel04072215363D

 39 42  0  0  0  0  0  0  0  0999 V2000
    2.4067    1.9857   -0.1820 C   0  0  0  0  0  0  0  0  0  0  0  0
    3.1563    0.8142    0.1236 O   0  0  0  0  0  0  0  0  0  0  0  0
    3.7981    0.2202   -0.9301 C   0  0  0  0  0  0  0  0  0  0  0  0
    3.7504    0.6617   -2.2540 C   0  0  0  0  0  0  0  0  0  0  0  0
    4.4273   -0.0397   -3.2458 C   0  0  0  0  0  0  0  0  0  0  0  0
    5.1526   -1.1769   -2.9170 C   0  0  0  0  0  0  0  0  0  0  0  0
    5.2521   -1.6217   -1.5967 C   0  0  0  0  0  0  0  0  0  0  0  0
    5.9191   -2.8115   -1.2621 N   0  0  0  0  0  0  0  0  0  0  0  0
    6.9115   -3.5058   -1.9917 C   0  0  0  0  0  0  0  0  0  0  0  0
    7.5267   -2.9418   -3.0529 N   0  0  0  0  0  0  0  0  0  0  0  0
    8.4899   -3.6257   -3.6861 C   0  0  0  0  0  0  0  0  0  0  0  0
    8.9595   -3.0681   -4.8544 N   0  0  0  0  0  0  0  0  0  0  0  0
    9.0033   -4.7915   -3.2824 N   0  0  0  0  0  0  0  0  0  0  0  0
    8.3692   -5.3290   -2.2326 C   0  0  0  0  0  0  0  0  0  0  0  0
    7.2606   -4.7714   -1.6130 C   0  0  0  0  0  0  0  0  0  0  0  0
    6.7613   -5.6697   -0.6016 C   0  0  0  0  0  0  0  0  0  0  0  0
    5.5661   -5.6672    0.0956 C   0  0  0  0  0  0  0  0  0  0  0  0
    5.3584   -6.6556    1.0573 C   0  0  0  0  0  0  0  0  0  0  0  0
    6.3506   -7.6145    1.3163 C   0  0  0  0  0  0  0  0  0  0  0  0
    7.5245   -7.6624    0.5551 C   0  0  0  0  0  0  0  0  0  0  0  0
    7.6929   -6.7141   -0.4416 C   0  0  0  0  0  0  0  0  0  0  0  0
    8.7597   -6.6211   -1.5178 C   0  0  0  0  0  0  0  0  0  0  0  0
    4.5420   -0.9225   -0.6091 C   0  0  0  0  0  0  0  0  0  0  0  0
    1.9666    2.3595    0.7465 H   0  0  0  0  0  0  0  0  0  0  0  0
    1.5863    1.7592   -0.8718 H   0  0  0  0  0  0  0  0  0  0  0  0
    3.0537    2.7731   -0.5840 H   0  0  0  0  0  0  0  0  0  0  0  0
    3.1866    1.5351   -2.5514 H   0  0  0  0  0  0  0  0  0  0  0  0
    4.3865    0.2878   -4.2802 H   0  0  0  0  0  0  0  0  0  0  0  0
    5.6403   -1.7208   -3.7222 H   0  0  0  0  0  0  0  0  0  0  0  0
    6.0988   -2.8950   -0.2635 H   0  0  0  0  0  0  0  0  0  0  0  0
    8.7862   -2.0730   -4.8609 H   0  0  0  0  0  0  0  0  0  0  0  0
    9.8808   -3.4024   -5.0838 H   0  0  0  0  0  0  0  0  0  0  0  0
    4.7826   -4.9467   -0.1211 H   0  0  0  0  0  0  0  0  0  0  0  0
    4.4188   -6.6813    1.6047 H   0  0  0  0  0  0  0  0  0  0  0  0
    6.1846   -8.3480    2.1017 H   0  0  0  0  0  0  0  0  0  0  0  0
    8.2693   -8.4291    0.7387 H   0  0  0  0  0  0  0  0  0  0  0  0
    8.6769   -7.4661   -2.2076 H   0  0  0  0  0  0  0  0  0  0  0  0
    9.7627   -6.5444   -1.0899 H   0  0  0  0  0  0  0  0  0  0  0  0
    4.5560   -1.2629    0.4241 H   0  0  0  0  0  0  0  0  0  0  0  0
  1  2  1  0  0  0  0
  1 24  1  0  0  0  0
  1 25  1  0  0  0  0
  1 26  1  0  0  0  0
  2  3  1  0  0  0  0
  3  4  1  0  0  0  0
  3 23  2  0  0  0  0
  4  5  2  0  0  0  0
  4 27  1  0  0  0  0
  5  6  1  0  0  0  0
  5 28  1  0  0  0  0
  6  7  2  0  0  0  0
  6 29  1  0  0  0  0
  7  8  1  0  0  0  0
  7 23  1  0  0  0  0
  8  9  1  0  0  0  0
  8 30  1  0  0  0  0
  9 10  1  0  0  0  0
  9 15  2  0  0  0  0
 10 11  2  0  0  0  0
 11 12  1  0  0  0  0
 11 13  1  0  0  0  0
 12 31  1  0  0  0  0
 12 32  1  0  0  0  0
 13 14  2  0  0  0  0
 14 15  1  0  0  0  0
 14 22  1  0  0  0  0
 15 16  1  0  0  0  0
 16 17  1  0  0  0  0
 16 21  2  0  0  0  0
 17 18  2  0  0  0  0
 17 33  1  0  0  0  0
 18 19  1  0  0  0  0
 18 34  1  0  0  0  0
 19 20  2  0  0  0  0
 19 35  1  0  0  0  0
 20 21  1  0  0  0  0
 20 36  1  0  0  0  0
 21 22  1  0  0  0  0
 22 37  1  0  0  0  0
 22 38  1  0  0  0  0
 23 39  1  0  0  0  0
M  END
$$$$
