CHEMBL3900296
 OpenBabel04072215373D

 46 49  0  0  0  0  0  0  0  0999 V2000
    1.0121   -0.1405   -0.0273 C   0  0  0  0  0  0  0  0  0  0  0  0
    2.4270    0.0167    0.0980 O   0  0  0  0  0  0  0  0  0  0  0  0
    2.9764    0.9000   -0.7983 C   0  0  0  0  0  0  0  0  0  0  0  0
    4.0766    0.4280   -1.5209 C   0  0  0  0  0  0  0  0  0  0  0  0
    4.7151    1.2418   -2.4982 C   0  0  0  0  0  0  0  0  0  0  0  0
    5.7956    0.8773   -3.3301 C   0  0  0  0  0  0  0  0  0  0  0  0
    6.4005   -0.4006   -3.1853 N   0  0  0  0  0  0  0  0  0  0  0  0
    7.5723   -0.8731   -3.8248 C   0  0  0  0  0  0  0  0  0  0  0  0
    8.6099   -0.0250   -4.2346 C   0  0  0  0  0  0  0  0  0  0  0  0
    9.7523   -0.5202   -4.8698 C   0  0  0  0  0  0  0  0  0  0  0  0
    9.9024   -1.8906   -5.0631 C   0  0  0  0  0  0  0  0  0  0  0  0
   11.3279   -2.4386   -5.8682 Cl  0  0  0  0  0  0  0  0  0  0  0  0
    8.9136   -2.7617   -4.5981 C   0  0  0  0  0  0  0  0  0  0  0  0
    9.0461   -4.4777   -4.7613 Cl  0  0  0  0  0  0  0  0  0  0  0  0
    7.7639   -2.2545   -3.9747 C   0  0  0  0  0  0  0  0  0  0  0  0
    6.2939    1.7268   -4.2509 N   0  0  0  0  0  0  0  0  0  0  0  0
    5.7544    2.9417   -4.3327 C   0  0  0  0  0  0  0  0  0  0  0  0
    4.7583    3.3985   -3.5796 N   0  0  0  0  0  0  0  0  0  0  0  0
    4.2523    2.5497   -2.6855 C   0  0  0  0  0  0  0  0  0  0  0  0
    3.2164    3.0231   -1.9045 C   0  0  0  0  0  0  0  0  0  0  0  0
    2.5567    2.2218   -0.9693 C   0  0  0  0  0  0  0  0  0  0  0  0
    1.5748    2.7153   -0.1499 O   0  0  0  0  0  0  0  0  0  0  0  0
    0.7662    3.7440   -0.7261 C   0  0  0  0  0  0  0  0  0  0  0  0
   -0.3314    4.0976    0.2416 C   0  0  0  0  0  0  0  0  0  0  0  0
   -0.0098    4.6127    1.5090 C   0  0  0  0  0  0  0  0  0  0  0  0
   -1.0214    4.9916    2.3826 C   0  0  0  0  0  0  0  0  0  0  0  0
   -0.6988    5.4927    3.5835 F   0  0  0  0  0  0  0  0  0  0  0  0
   -2.3574    4.8696    2.0284 C   0  0  0  0  0  0  0  0  0  0  0  0
   -2.6727    4.3560    0.7801 C   0  0  0  0  0  0  0  0  0  0  0  0
   -3.9570    4.2378    0.4200 F   0  0  0  0  0  0  0  0  0  0  0  0
   -1.6793    3.9709   -0.1159 C   0  0  0  0  0  0  0  0  0  0  0  0
    0.7034   -0.9350    0.6602 H   0  0  0  0  0  0  0  0  0  0  0  0
    0.7351   -0.4468   -1.0421 H   0  0  0  0  0  0  0  0  0  0  0  0
    0.4575    0.7528    0.2665 H   0  0  0  0  0  0  0  0  0  0  0  0
    4.4299   -0.5820   -1.3266 H   0  0  0  0  0  0  0  0  0  0  0  0
    5.6825   -1.1152   -3.1321 H   0  0  0  0  0  0  0  0  0  0  0  0
    8.5462    1.0483   -4.0753 H   0  0  0  0  0  0  0  0  0  0  0  0
   10.5149    0.1767   -5.2076 H   0  0  0  0  0  0  0  0  0  0  0  0
    7.0085   -2.9496   -3.6171 H   0  0  0  0  0  0  0  0  0  0  0  0
    6.1663    3.6170   -5.0729 H   0  0  0  0  0  0  0  0  0  0  0  0
    2.9543    4.0668   -2.0387 H   0  0  0  0  0  0  0  0  0  0  0  0
    0.3425    3.3986   -1.6755 H   0  0  0  0  0  0  0  0  0  0  0  0
    1.3438    4.6603   -0.8950 H   0  0  0  0  0  0  0  0  0  0  0  0
    1.0268    4.7228    1.8173 H   0  0  0  0  0  0  0  0  0  0  0  0
   -3.1379    5.1707    2.7140 H   0  0  0  0  0  0  0  0  0  0  0  0
   -1.9699    3.5830   -1.0895 H   0  0  0  0  0  0  0  0  0  0  0  0
  1  2  1  0  0  0  0
  1 32  1  0  0  0  0
  1 33  1  0  0  0  0
  1 34  1  0  0  0  0
  2  3  1  0  0  0  0
  3  4  1  0  0  0  0
  3 21  2  0  0  0  0
  4  5  2  0  0  0  0
  4 35  1  0  0  0  0
  5  6  1  0  0  0  0
  5 19  1  0  0  0  0
  6  7  1  0  0  0  0
  6 16  2  0  0  0  0
  7  8  1  0  0  0  0
  7 36  1  0  0  0  0
  8  9  1  0  0  0  0
  8 15  2  0  0  0  0
  9 10  2  0  0  0  0
  9 37  1  0  0  0  0
 10 11  1  0  0  0  0
 10 38  1  0  0  0  0
 11 12  1  0  0  0  0
 11 13  2  0  0  0  0
 13 14  1  0  0  0  0
 13 15  1  0  0  0  0
 15 39  1  0  0  0  0
 16 17  1  0  0  0  0
 17 18  2  0  0  0  0
 17 40  1  0  0  0  0
 18 19  1  0  0  0  0
 19 20  2  0  0  0  0
 20 21  1  0  0  0  0
 20 41  1  0  0  0  0
 21 22  1  0  0  0  0
 22 23  1  0  0  0  0
 23 24  1  0  0  0  0
 23 42  1  0  0  0  0
 23 43  1  0  0  0  0
 24 25  1  0  0  0  0
 24 31  2  0  0  0  0
 25 26  2  0  0  0  0
 25 44  1  0  0  0  0
 26 27  1  0  0  0  0
 26 28  1  0  0  0  0
 28 29  2  0  0  0  0
 28 45  1  0  0  0  0
 29 30  1  0  0  0  0
 29 31  1  0  0  0  0
 31 46  1  0  0  0  0
M  END
$$$$
