CHEMBL3656043
 OpenBabel04072215373D

 53 56  0  0  0  0  0  0  0  0999 V2000
    3.0726   -2.5421   -1.0041 C   0  0  0  0  0  0  0  0  0  0  0  0
    4.3005   -1.8478   -1.1942 O   0  0  0  0  0  0  0  0  0  0  0  0
    4.6142   -1.0134   -0.1590 C   0  0  0  0  0  0  0  0  0  0  0  0
    3.9041   -0.8505    0.8286 O   0  0  0  0  0  0  0  0  0  0  0  0
    5.8882   -0.3369   -0.3293 C   0  0  0  0  0  0  0  0  0  0  0  0
    6.7673   -0.3810   -1.3972 C   0  0  0  0  0  0  0  0  0  0  0  0
    7.8494    0.4150   -1.1026 N   0  0  0  0  0  0  0  0  0  0  0  0
    7.7105    0.9554    0.1552 C   0  0  0  0  0  0  0  0  0  0  0  0
    8.7225    1.7866    0.7949 C   0  0  0  0  0  0  0  0  0  0  0  0
    8.5232    2.2726    2.0796 C   0  0  0  0  0  0  0  0  0  0  0  0
    9.5601    2.9395    2.7155 C   0  0  0  0  0  0  0  0  0  0  0  0
    9.4973    3.3988    4.0123 O   0  0  0  0  0  0  0  0  0  0  0  0
    8.7510    2.7207    4.9563 C   0  0  0  0  0  0  0  0  0  0  0  0
    8.5429    1.3376    4.9671 C   0  0  0  0  0  0  0  0  0  0  0  0
    7.7311    0.7505    5.9418 C   0  0  0  0  0  0  0  0  0  0  0  0
    7.1931    1.5273    6.9683 C   0  0  0  0  0  0  0  0  0  0  0  0
    7.4770    2.8959    7.0184 C   0  0  0  0  0  0  0  0  0  0  0  0
    6.9798    3.7633    8.1188 C   0  0  0  0  0  0  0  0  0  0  0  0
    6.7144    4.9304    7.8462 O   0  0  0  0  0  0  0  0  0  0  0  0
    6.9414    3.1870    9.3769 N   0  0  0  0  0  0  0  0  0  0  0  0
    6.5627    3.8363   10.5785 C   0  0  0  0  0  0  0  0  0  0  0  0
    5.8811    5.0545   10.6104 C   0  0  0  0  0  0  0  0  0  0  0  0
    5.5502    5.6697   11.8290 C   0  0  0  0  0  0  0  0  0  0  0  0
    4.8038    6.9717   11.8368 C   0  0  0  0  0  0  0  0  0  0  0  0
    5.9160    5.0549   13.0334 C   0  0  0  0  0  0  0  0  0  0  0  0
    6.5811    3.8295   13.0170 C   0  0  0  0  0  0  0  0  0  0  0  0
    6.8863    3.2260   11.7962 C   0  0  0  0  0  0  0  0  0  0  0  0
    7.5283    2.0472   11.7975 F   0  0  0  0  0  0  0  0  0  0  0  0
    8.2326    3.4935    5.9966 C   0  0  0  0  0  0  0  0  0  0  0  0
   10.7185    3.2134    2.0002 C   0  0  0  0  0  0  0  0  0  0  0  0
   10.8182    2.7262    0.7046 C   0  0  0  0  0  0  0  0  0  0  0  0
    9.8576    1.9945    0.0903 N   0  0  0  0  0  0  0  0  0  0  0  0
    6.4864    0.5194    0.6325 C   0  0  0  0  0  0  0  0  0  0  0  0
    3.0058   -3.3309   -1.7607 H   0  0  0  0  0  0  0  0  0  0  0  0
    2.2293   -1.8581   -1.1395 H   0  0  0  0  0  0  0  0  0  0  0  0
    3.0280   -3.0183   -0.0185 H   0  0  0  0  0  0  0  0  0  0  0  0
    6.7157   -0.9108   -2.3396 H   0  0  0  0  0  0  0  0  0  0  0  0
    8.6549    0.5794   -1.6955 H   0  0  0  0  0  0  0  0  0  0  0  0
    7.5828    2.1023    2.5873 H   0  0  0  0  0  0  0  0  0  0  0  0
    8.9848    0.6977    4.2074 H   0  0  0  0  0  0  0  0  0  0  0  0
    7.5195   -0.3155    5.8945 H   0  0  0  0  0  0  0  0  0  0  0  0
    6.5461    1.0580    7.7044 H   0  0  0  0  0  0  0  0  0  0  0  0
    7.3605    2.2721    9.5019 H   0  0  0  0  0  0  0  0  0  0  0  0
    5.5782    5.5448    9.6906 H   0  0  0  0  0  0  0  0  0  0  0  0
    4.6030    7.3220   10.8185 H   0  0  0  0  0  0  0  0  0  0  0  0
    5.3885    7.7436   12.3462 H   0  0  0  0  0  0  0  0  0  0  0  0
    3.8409    6.8492   12.3425 H   0  0  0  0  0  0  0  0  0  0  0  0
    5.6798    5.5268   13.9851 H   0  0  0  0  0  0  0  0  0  0  0  0
    6.8708    3.3457   13.9436 H   0  0  0  0  0  0  0  0  0  0  0  0
    8.4198    4.5654    6.0168 H   0  0  0  0  0  0  0  0  0  0  0  0
   11.5245    3.7889    2.4411 H   0  0  0  0  0  0  0  0  0  0  0  0
   11.7083    2.9139    0.1099 H   0  0  0  0  0  0  0  0  0  0  0  0
    6.0548    0.7583    1.5962 H   0  0  0  0  0  0  0  0  0  0  0  0
  1  2  1  0  0  0  0
  1 34  1  0  0  0  0
  1 35  1  0  0  0  0
  1 36  1  0  0  0  0
  2  3  1  0  0  0  0
  3  4  2  0  0  0  0
  3  5  1  0  0  0  0
  5  6  2  0  0  0  0
  5 33  1  0  0  0  0
  6  7  1  0  0  0  0
  6 37  1  0  0  0  0
  7  8  1  0  0  0  0
  7 38  1  0  0  0  0
  8  9  1  0  0  0  0
  8 33  2  0  0  0  0
  9 10  1  0  0  0  0
  9 32  2  0  0  0  0
 10 11  2  0  0  0  0
 10 39  1  0  0  0  0
 11 12  1  0  0  0  0
 11 30  1  0  0  0  0
 12 13  1  0  0  0  0
 13 14  1  0  0  0  0
 13 29  2  0  0  0  0
 14 15  2  0  0  0  0
 14 40  1  0  0  0  0
 15 16  1  0  0  0  0
 15 41  1  0  0  0  0
 16 17  2  0  0  0  0
 16 42  1  0  0  0  0
 17 18  1  0  0  0  0
 17 29  1  0  0  0  0
 18 19  2  0  0  0  0
 18 20  1  0  0  0  0
 20 21  1  0  0  0  0
 20 43  1  0  0  0  0
 21 22  1  0  0  0  0
 21 27  2  0  0  0  0
 22 23  2  0  0  0  0
 22 44  1  0  0  0  0
 23 24  1  0  0  0  0
 23 25  1  0  0  0  0
 24 45  1  0  0  0  0
 24 46  1  0  0  0  0
 24 47  1  0  0  0  0
 25 26  2  0  0  0  0
 25 48  1  0  0  0  0
 26 27  1  0  0  0  0
 26 49  1  0  0  0  0
 27 28  1  0  0  0  0
 29 50  1  0  0  0  0
 30 31  2  0  0  0  0
 30 51  1  0  0  0  0
 31 32  1  0  0  0  0
 31 52  1  0  0  0  0
 33 53  1  0  0  0  0
M  END
$$$$
