CHEMBL1241859
 OpenBabel04072215363D

 44 47  0  0  0  0  0  0  0  0999 V2000
    0.9460    0.1655    0.0194 N   0  0  0  0  0  0  0  0  0  0  0  0
    2.3298    0.0497    0.0841 C   0  0  0  0  0  0  0  0  0  0  0  0
    3.0101    1.2145    0.0881 N   0  0  0  0  0  0  0  0  0  0  0  0
    4.3497    1.1812    0.1954 C   0  0  0  0  0  0  0  0  0  0  0  0
    5.1386    0.1040    0.3247 N   0  0  0  0  0  0  0  0  0  0  0  0
    4.4221   -1.0348    0.3135 C   0  0  0  0  0  0  0  0  0  0  0  0
    3.0468   -1.1563    0.1672 C   0  0  0  0  0  0  0  0  0  0  0  0
    2.8082   -2.5695    0.1162 C   0  0  0  0  0  0  0  0  0  0  0  0
    1.5615   -3.3132   -0.1402 C   0  0  0  0  0  0  0  0  0  0  0  0
    0.5204   -2.7823   -0.9208 C   0  0  0  0  0  0  0  0  0  0  0  0
   -0.6740   -3.4883   -1.1187 C   0  0  0  0  0  0  0  0  0  0  0  0
   -0.8143   -4.7674   -0.5919 C   0  0  0  0  0  0  0  0  0  0  0  0
   -2.2779   -5.6401   -0.8490 Cl  0  0  0  0  0  0  0  0  0  0  0  0
    0.2364   -5.3366    0.1261 C   0  0  0  0  0  0  0  0  0  0  0  0
    0.1687   -6.6116    0.6180 O   0  0  0  0  0  0  0  0  0  0  0  0
    1.4078   -4.6170    0.3604 C   0  0  0  0  0  0  0  0  0  0  0  0
    3.9546   -3.2520    0.3236 N   0  0  0  0  0  0  0  0  0  0  0  0
    4.9124   -2.3085    0.4148 N   0  0  0  0  0  0  0  0  0  0  0  0
    6.2966   -2.7014    0.2799 C   0  0  0  0  0  0  0  0  0  0  0  0
    7.1745   -2.8750    1.5405 C   0  0  0  0  0  0  0  0  0  0  0  0
    6.6952   -3.9350    2.5502 C   0  0  0  0  0  0  0  0  0  0  0  0
    6.0605   -3.4123    3.8389 C   0  0  0  0  0  0  0  0  0  0  0  0
    6.6938   -2.2054    4.3699 N   0  0  0  0  0  0  0  0  0  0  0  0
    6.6997   -1.1482    3.3632 C   0  0  0  0  0  0  0  0  0  0  0  0
    7.5876   -1.5508    2.1964 C   0  0  0  0  0  0  0  0  0  0  0  0
    0.6774    1.1302    0.1868 H   0  0  0  0  0  0  0  0  0  0  0  0
    0.4507   -0.5145    0.5837 H   0  0  0  0  0  0  0  0  0  0  0  0
    4.8493    2.1451    0.1821 H   0  0  0  0  0  0  0  0  0  0  0  0
    0.6222   -1.8166   -1.4103 H   0  0  0  0  0  0  0  0  0  0  0  0
   -1.4768   -3.0369   -1.6963 H   0  0  0  0  0  0  0  0  0  0  0  0
   -0.6759   -6.9935    0.3142 H   0  0  0  0  0  0  0  0  0  0  0  0
    2.2107   -5.0871    0.9250 H   0  0  0  0  0  0  0  0  0  0  0  0
    6.7721   -1.9739   -0.3901 H   0  0  0  0  0  0  0  0  0  0  0  0
    6.2992   -3.6490   -0.2759 H   0  0  0  0  0  0  0  0  0  0  0  0
    8.1082   -3.2814    1.1216 H   0  0  0  0  0  0  0  0  0  0  0  0
    7.5749   -4.5288    2.8395 H   0  0  0  0  0  0  0  0  0  0  0  0
    6.0076   -4.6440    2.0726 H   0  0  0  0  0  0  0  0  0  0  0  0
    6.1286   -4.1907    4.6055 H   0  0  0  0  0  0  0  0  0  0  0  0
    4.9902   -3.2246    3.6917 H   0  0  0  0  0  0  0  0  0  0  0  0
    7.6521   -2.4143    4.6508 H   0  0  0  0  0  0  0  0  0  0  0  0
    7.0842   -0.2311    3.8172 H   0  0  0  0  0  0  0  0  0  0  0  0
    5.6780   -0.9290    3.0354 H   0  0  0  0  0  0  0  0  0  0  0  0
    8.6141   -1.6648    2.5732 H   0  0  0  0  0  0  0  0  0  0  0  0
    7.6324   -0.7415    1.4591 H   0  0  0  0  0  0  0  0  0  0  0  0
  1  2  1  0  0  0  0
  1 26  1  0  0  0  0
  1 27  1  0  0  0  0
  2  3  1  0  0  0  0
  2  7  2  0  0  0  0
  3  4  2  0  0  0  0
  4  5  1  0  0  0  0
  4 28  1  0  0  0  0
  5  6  2  0  0  0  0
  6  7  1  0  0  0  0
  6 18  1  0  0  0  0
  7  8  1  0  0  0  0
  8  9  1  0  0  0  0
  8 17  2  0  0  0  0
  9 10  1  0  0  0  0
  9 16  2  0  0  0  0
 10 11  2  0  0  0  0
 10 29  1  0  0  0  0
 11 12  1  0  0  0  0
 11 30  1  0  0  0  0
 12 13  1  0  0  0  0
 12 14  2  0  0  0  0
 14 15  1  0  0  0  0
 14 16  1  0  0  0  0
 15 31  1  0  0  0  0
 16 32  1  0  0  0  0
 17 18  1  0  0  0  0
 18 19  1  0  0  0  0
 19 20  1  0  0  0  0
 19 33  1  0  0  0  0
 19 34  1  0  0  0  0
 20 21  1  0  0  0  0
 20 25  1  0  0  0  0
 20 35  1  0  0  0  0
 21 22  1  0  0  0  0
 21 36  1  0  0  0  0
 21 37  1  0  0  0  0
 22 23  1  0  0  0  0
 22 38  1  0  0  0  0
 22 39  1  0  0  0  0
 23 24  1  0  0  0  0
 23 40  1  0  0  0  0
 24 25  1  0  0  0  0
 24 41  1  0  0  0  0
 24 42  1  0  0  0  0
 25 43  1  0  0  0  0
 25 44  1  0  0  0  0
M  END
$$$$
