CHEMBL460989
 OpenBabel04072215383D

 52 57  0  0  0  0  0  0  0  0999 V2000
    2.2686   -0.8679    1.9733 C   0  0  0  0  0  0  0  0  0  0  0  0
    3.1901   -0.5627    0.9498 O   0  0  0  0  0  0  0  0  0  0  0  0
    4.3338    0.1505    1.0918 C   0  0  0  0  0  0  0  0  0  0  0  0
    5.1573    0.4947    2.1738 C   0  0  0  0  0  0  0  0  0  0  0  0
    6.3081    1.4359    2.0096 C   0  0  0  0  0  0  0  0  0  0  0  0
    6.5189    2.1628    0.8125 C   0  0  0  0  0  0  0  0  0  0  0  0
    5.3905    1.8945    0.0062 C   0  0  0  0  0  0  0  0  0  0  0  0
    4.6624    0.7178   -0.1069 C   0  0  0  0  0  0  0  0  0  0  0  0
    4.3590    3.0538    0.1533 C   0  0  0  0  0  0  0  0  0  0  0  0
    5.0339    4.0452   -0.6709 C   0  0  0  0  0  0  0  0  0  0  0  0
    6.1372    4.5307    0.2065 C   0  0  0  0  0  0  0  0  0  0  0  0
    7.1237    3.5875    0.6161 C   0  0  0  0  0  0  0  0  0  0  0  0
    8.4012    4.1619    0.2908 C   0  0  0  0  0  0  0  0  0  0  0  0
    8.6087    5.6224    0.0708 C   0  0  0  0  0  0  0  0  0  0  0  0
    7.5029    6.4897    0.2795 C   0  0  0  0  0  0  0  0  0  0  0  0
    7.3672    7.8758    0.0967 C   0  0  0  0  0  0  0  0  0  0  0  0
    8.1674    9.0096   -0.1664 C   0  0  0  0  0  0  0  0  0  0  0  0
    7.5759   10.2846   -0.2596 C   0  0  0  0  0  0  0  0  0  0  0  0
    6.2071   10.4641   -0.0842 C   0  0  0  0  0  0  0  0  0  0  0  0
    5.3850    9.3734    0.1867 C   0  0  0  0  0  0  0  0  0  0  0  0
    5.9875    8.1022    0.2310 C   0  0  0  0  0  0  0  0  0  0  0  0
    5.3589    6.8997    0.4294 N   0  0  0  0  0  0  0  0  0  0  0  0
    3.9862    6.6630    0.8603 C   0  0  0  0  0  0  0  0  0  0  0  0
    2.8517    6.9674   -0.1264 C   0  0  0  0  0  0  0  0  0  0  0  0
    2.9531    6.3709   -1.4116 O   0  0  0  0  0  0  0  0  0  0  0  0
    6.2956    5.8889    0.3603 C   0  0  0  0  0  0  0  0  0  0  0  0
    9.9067    5.9267   -0.5329 C   0  0  0  0  0  0  0  0  0  0  0  0
   10.4324    4.5793   -0.6381 N   0  0  0  0  0  0  0  0  0  0  0  0
    9.6231    3.5299   -0.1661 C   0  0  0  0  0  0  0  0  0  0  0  0
    9.9829    2.3634   -0.2551 O   0  0  0  0  0  0  0  0  0  0  0  0
    1.2539   -0.6638    1.5931 H   0  0  0  0  0  0  0  0  0  0  0  0
    2.4009   -0.3091    2.8990 H   0  0  0  0  0  0  0  0  0  0  0  0
    2.3155   -1.9461    2.1419 H   0  0  0  0  0  0  0  0  0  0  0  0
    4.9145    0.1167    3.1656 H   0  0  0  0  0  0  0  0  0  0  0  0
    6.8656    1.6747    2.9158 H   0  0  0  0  0  0  0  0  0  0  0  0
    3.9574    0.6306   -0.9360 H   0  0  0  0  0  0  0  0  0  0  0  0
    4.2925    3.3489    1.2234 H   0  0  0  0  0  0  0  0  0  0  0  0
    3.3473    2.8135   -0.1621 H   0  0  0  0  0  0  0  0  0  0  0  0
    4.3465    4.8300   -0.9789 H   0  0  0  0  0  0  0  0  0  0  0  0
    5.4334    3.6485   -1.6176 H   0  0  0  0  0  0  0  0  0  0  0  0
    9.2373    8.9139   -0.3113 H   0  0  0  0  0  0  0  0  0  0  0  0
    8.1932   11.1504   -0.4842 H   0  0  0  0  0  0  0  0  0  0  0  0
    5.7684   11.4567   -0.1630 H   0  0  0  0  0  0  0  0  0  0  0  0
    4.3149    9.4928    0.3351 H   0  0  0  0  0  0  0  0  0  0  0  0
    3.8498    7.2451    1.7769 H   0  0  0  0  0  0  0  0  0  0  0  0
    3.9110    5.6162    1.1766 H   0  0  0  0  0  0  0  0  0  0  0  0
    2.7231    8.0375   -0.2735 H   0  0  0  0  0  0  0  0  0  0  0  0
    1.9258    6.5801    0.3125 H   0  0  0  0  0  0  0  0  0  0  0  0
    3.7596    6.7079   -1.8433 H   0  0  0  0  0  0  0  0  0  0  0  0
   10.5592    6.5400    0.0916 H   0  0  0  0  0  0  0  0  0  0  0  0
    9.8007    6.3569   -1.5349 H   0  0  0  0  0  0  0  0  0  0  0  0
   11.2612    4.3614   -1.1775 H   0  0  0  0  0  0  0  0  0  0  0  0
  1  2  1  0  0  0  0
  1 31  1  0  0  0  0
  1 32  1  0  0  0  0
  1 33  1  0  0  0  0
  2  3  1  0  0  0  0
  3  4  1  0  0  0  0
  3  8  2  0  0  0  0
  4  5  2  0  0  0  0
  4 34  1  0  0  0  0
  5  6  1  0  0  0  0
  5 35  1  0  0  0  0
  6  7  2  0  0  0  0
  6 12  1  0  0  0  0
  7  8  1  0  0  0  0
  7  9  1  0  0  0  0
  8 36  1  0  0  0  0
  9 10  1  0  0  0  0
  9 37  1  0  0  0  0
  9 38  1  0  0  0  0
 10 11  1  0  0  0  0
 10 39  1  0  0  0  0
 10 40  1  0  0  0  0
 11 12  1  0  0  0  0
 11 26  2  0  0  0  0
 12 13  2  0  0  0  0
 13 14  1  0  0  0  0
 13 29  1  0  0  0  0
 14 15  2  0  0  0  0
 14 27  1  0  0  0  0
 15 16  1  0  0  0  0
 15 26  1  0  0  0  0
 16 17  1  0  0  0  0
 16 21  2  0  0  0  0
 17 18  2  0  0  0  0
 17 41  1  0  0  0  0
 18 19  1  0  0  0  0
 18 42  1  0  0  0  0
 19 20  2  0  0  0  0
 19 43  1  0  0  0  0
 20 21  1  0  0  0  0
 20 44  1  0  0  0  0
 21 22  1  0  0  0  0
 22 23  1  0  0  0  0
 22 26  1  0  0  0  0
 23 24  1  0  0  0  0
 23 45  1  0  0  0  0
 23 46  1  0  0  0  0
 24 25  1  0  0  0  0
 24 47  1  0  0  0  0
 24 48  1  0  0  0  0
 25 49  1  0  0  0  0
 27 28  1  0  0  0  0
 27 50  1  0  0  0  0
 27 51  1  0  0  0  0
 28 29  1  0  0  0  0
 28 52  1  0  0  0  0
 29 30  2  0  0  0  0
M  END
$$$$
