CHEMBL427998
 OpenBabel04072215383D

 44 46  0  0  0  0  0  0  0  0999 V2000
    1.0614   -0.1105    0.0524 C   0  0  0  0  0  0  0  0  0  0  0  0
    2.5622   -0.1504   -0.0420 C   0  0  0  0  0  0  0  0  0  0  0  0
    3.2674    1.0612   -0.0536 C   0  0  0  0  0  0  0  0  0  0  0  0
    4.6547    1.0686   -0.1781 C   0  0  0  0  0  0  0  0  0  0  0  0
    5.3653   -0.1333   -0.2961 C   0  0  0  0  0  0  0  0  0  0  0  0
    6.8455   -0.0246   -0.4200 C   0  0  0  0  0  0  0  0  0  0  0  0
    7.3767    0.9179    0.1650 O   0  0  0  0  0  0  0  0  0  0  0  0
    7.4795   -0.9291   -1.2555 N   0  0  0  0  0  0  0  0  0  0  0  0
    8.8563   -0.8695   -1.6050 C   0  0  0  0  0  0  0  0  0  0  0  0
    9.7938   -0.1404   -0.8657 C   0  0  0  0  0  0  0  0  0  0  0  0
   11.1169   -0.0220   -1.2920 C   0  0  0  0  0  0  0  0  0  0  0  0
   11.5235   -0.6306   -2.4729 C   0  0  0  0  0  0  0  0  0  0  0  0
   10.6134   -1.3859   -3.2247 C   0  0  0  0  0  0  0  0  0  0  0  0
   11.0348   -1.9913   -4.5413 C   0  0  0  0  0  0  0  0  0  0  0  0
   12.3051   -1.6643   -4.9112 F   0  0  0  0  0  0  0  0  0  0  0  0
   10.9860   -3.3516   -4.5351 F   0  0  0  0  0  0  0  0  0  0  0  0
   10.2368   -1.5932   -5.5716 F   0  0  0  0  0  0  0  0  0  0  0  0
    9.2869   -1.5306   -2.7620 C   0  0  0  0  0  0  0  0  0  0  0  0
    4.6798   -1.3517   -0.2548 C   0  0  0  0  0  0  0  0  0  0  0  0
    3.2769   -1.3627   -0.1360 C   0  0  0  0  0  0  0  0  0  0  0  0
    2.5859   -2.6255   -0.1295 C   0  0  0  0  0  0  0  0  0  0  0  0
    1.9910   -3.6704   -0.1586 C   0  0  0  0  0  0  0  0  0  0  0  0
    1.2938   -4.9155   -0.2394 C   0  0  0  0  0  0  0  0  0  0  0  0
   -0.0693   -5.0082   -0.4092 C   0  0  0  0  0  0  0  0  0  0  0  0
   -0.7322   -6.1814   -0.5402 N   0  0  0  0  0  0  0  0  0  0  0  0
    0.0097   -7.2936   -0.5139 C   0  0  0  0  0  0  0  0  0  0  0  0
   -0.6286   -8.4987   -0.7004 N   0  0  0  0  0  0  0  0  0  0  0  0
    1.3315   -7.3209   -0.3115 N   0  0  0  0  0  0  0  0  0  0  0  0
    1.9473   -6.1245   -0.1850 C   0  0  0  0  0  0  0  0  0  0  0  0
    0.6943    0.9190    0.1445 H   0  0  0  0  0  0  0  0  0  0  0  0
    0.7117   -0.6598    0.9323 H   0  0  0  0  0  0  0  0  0  0  0  0
    0.6158   -0.5356   -0.8518 H   0  0  0  0  0  0  0  0  0  0  0  0
    2.7433    2.0114    0.0303 H   0  0  0  0  0  0  0  0  0  0  0  0
    5.1829    2.0216   -0.1870 H   0  0  0  0  0  0  0  0  0  0  0  0
    6.8951   -1.5303   -1.8216 H   0  0  0  0  0  0  0  0  0  0  0  0
    9.5248    0.3592    0.0611 H   0  0  0  0  0  0  0  0  0  0  0  0
   11.8186    0.5687   -0.7077 H   0  0  0  0  0  0  0  0  0  0  0  0
   12.5505   -0.4995   -2.8109 H   0  0  0  0  0  0  0  0  0  0  0  0
    8.5876   -2.1202   -3.3510 H   0  0  0  0  0  0  0  0  0  0  0  0
    5.2255   -2.2905   -0.2879 H   0  0  0  0  0  0  0  0  0  0  0  0
   -0.6974   -4.1243   -0.4565 H   0  0  0  0  0  0  0  0  0  0  0  0
   -1.6058   -8.4316   -0.4572 H   0  0  0  0  0  0  0  0  0  0  0  0
   -0.0897   -9.2529   -0.3006 H   0  0  0  0  0  0  0  0  0  0  0  0
    3.0233   -6.1806   -0.0443 H   0  0  0  0  0  0  0  0  0  0  0  0
  1  2  1  0  0  0  0
  1 30  1  0  0  0  0
  1 31  1  0  0  0  0
  1 32  1  0  0  0  0
  2  3  1  0  0  0  0
  2 20  2  0  0  0  0
  3  4  2  0  0  0  0
  3 33  1  0  0  0  0
  4  5  1  0  0  0  0
  4 34  1  0  0  0  0
  5  6  1  0  0  0  0
  5 19  2  0  0  0  0
  6  7  2  0  0  0  0
  6  8  1  0  0  0  0
  8  9  1  0  0  0  0
  8 35  1  0  0  0  0
  9 10  1  0  0  0  0
  9 18  2  0  0  0  0
 10 11  2  0  0  0  0
 10 36  1  0  0  0  0
 11 12  1  0  0  0  0
 11 37  1  0  0  0  0
 12 13  2  0  0  0  0
 12 38  1  0  0  0  0
 13 14  1  0  0  0  0
 13 18  1  0  0  0  0
 14 15  1  0  0  0  0
 14 16  1  0  0  0  0
 14 17  1  0  0  0  0
 18 39  1  0  0  0  0
 19 20  1  0  0  0  0
 19 40  1  0  0  0  0
 20 21  1  0  0  0  0
 21 22  3  0  0  0  0
 22 23  1  0  0  0  0
 23 24  1  0  0  0  0
 23 29  2  0  0  0  0
 24 25  2  0  0  0  0
 24 41  1  0  0  0  0
 25 26  1  0  0  0  0
 26 27  1  0  0  0  0
 26 28  2  0  0  0  0
 27 42  1  0  0  0  0
 27 43  1  0  0  0  0
 28 29  1  0  0  0  0
 29 44  1  0  0  0  0
M  END
$$$$
