CHEMBL3093587
 OpenBabel04072215363D

 61 66  0  0  0  0  0  0  0  0999 V2000
    2.2806   -1.6509   -0.3358 C   0  0  0  0  0  0  0  0  0  0  0  0
    3.1286   -0.5903    0.2089 N   0  0  0  0  0  0  0  0  0  0  0  0
    4.3741   -0.2337   -0.2757 C   0  0  0  0  0  0  0  0  0  0  0  0
    4.7071    1.0540   -0.0708 C   0  0  0  0  0  0  0  0  0  0  0  0
    6.0269    1.6803   -0.3284 C   0  0  0  0  0  0  0  0  0  0  0  0
    6.8983    0.9817   -0.8455 O   0  0  0  0  0  0  0  0  0  0  0  0
    6.2047    2.9949    0.1023 N   0  0  0  0  0  0  0  0  0  0  0  0
    7.4338    3.7336    0.0623 C   0  0  0  0  0  0  0  0  0  0  0  0
    8.5265    3.3515   -0.7210 C   0  0  0  0  0  0  0  0  0  0  0  0
    9.7758    3.9955   -0.6227 C   0  0  0  0  0  0  0  0  0  0  0  0
    9.9539    5.0612    0.2513 C   0  0  0  0  0  0  0  0  0  0  0  0
   11.2209    5.6721    0.5291 O   0  0  0  0  0  0  0  0  0  0  0  0
   12.4169    5.4893   -0.1859 C   0  0  0  0  0  0  0  0  0  0  0  0
   13.5692    6.0796    0.6014 C   0  0  0  0  0  0  0  0  0  0  0  0
   14.6851    6.2203   -0.1561 C   0  0  0  0  0  0  0  0  0  0  0  0
   14.8980    5.2790   -1.1960 C   0  0  0  0  0  0  0  0  0  0  0  0
   15.9708    4.7219   -1.7067 N   0  0  0  0  0  0  0  0  0  0  0  0
   15.5124    3.7958   -2.6035 C   0  0  0  0  0  0  0  0  0  0  0  0
   16.2837    2.8461   -3.2391 N   0  0  0  0  0  0  0  0  0  0  0  0
   17.6071    2.6290   -2.9513 C   0  0  0  0  0  0  0  0  0  0  0  0
   18.3117    3.2712   -2.1708 O   0  0  0  0  0  0  0  0  0  0  0  0
   18.1912    1.4314   -3.6476 C   0  0  0  0  0  0  0  0  0  0  0  0
   18.8643    0.3501   -2.8280 C   0  0  0  0  0  0  0  0  0  0  0  0
   19.6967    1.2634   -3.6796 C   0  0  0  0  0  0  0  0  0  0  0  0
   14.1467    3.8902   -2.7454 C   0  0  0  0  0  0  0  0  0  0  0  0
   13.7522    4.7395   -1.7531 N   0  0  0  0  0  0  0  0  0  0  0  0
   12.4799    4.8938   -1.3294 N   0  0  0  0  0  0  0  0  0  0  0  0
    8.8522    5.5250    0.9750 C   0  0  0  0  0  0  0  0  0  0  0  0
    7.5961    4.8771    0.8644 C   0  0  0  0  0  0  0  0  0  0  0  0
    3.4712    1.6398    0.5280 C   0  0  0  0  0  0  0  0  0  0  0  0
    3.4230    2.7889    0.9034 O   0  0  0  0  0  0  0  0  0  0  0  0
    2.5107    0.6133    0.5916 N   0  0  0  0  0  0  0  0  0  0  0  0
    1.3923    0.6464    1.4532 C   0  0  0  0  0  0  0  0  0  0  0  0
    0.4583    1.6802    1.3259 C   0  0  0  0  0  0  0  0  0  0  0  0
   -0.6926    1.6995    2.1194 C   0  0  0  0  0  0  0  0  0  0  0  0
   -0.9044    0.7010    3.0700 C   0  0  0  0  0  0  0  0  0  0  0  0
    0.0263   -0.3232    3.2190 C   0  0  0  0  0  0  0  0  0  0  0  0
    1.1616   -0.3611    2.4037 C   0  0  0  0  0  0  0  0  0  0  0  0
    2.8197   -2.2868   -1.0453 H   0  0  0  0  0  0  0  0  0  0  0  0
    1.3947   -1.2513   -0.8430 H   0  0  0  0  0  0  0  0  0  0  0  0
    1.9358   -2.3045    0.4746 H   0  0  0  0  0  0  0  0  0  0  0  0
    4.9907   -0.9937   -0.7404 H   0  0  0  0  0  0  0  0  0  0  0  0
    5.4342    3.4166    0.6236 H   0  0  0  0  0  0  0  0  0  0  0  0
    8.4478    2.5338   -1.4305 H   0  0  0  0  0  0  0  0  0  0  0  0
   10.5823    3.6076   -1.2323 H   0  0  0  0  0  0  0  0  0  0  0  0
   13.6994    5.3946    1.4464 H   0  0  0  0  0  0  0  0  0  0  0  0
   15.0106    7.2347   -0.4012 H   0  0  0  0  0  0  0  0  0  0  0  0
   15.7938    2.2055   -3.8498 H   0  0  0  0  0  0  0  0  0  0  0  0
   17.6616    1.1010   -4.5373 H   0  0  0  0  0  0  0  0  0  0  0  0
   18.7720   -0.6816   -3.1458 H   0  0  0  0  0  0  0  0  0  0  0  0
   18.9178    0.4805   -1.7519 H   0  0  0  0  0  0  0  0  0  0  0  0
   20.1534    0.8580   -4.5726 H   0  0  0  0  0  0  0  0  0  0  0  0
   20.3054    2.0096   -3.1740 H   0  0  0  0  0  0  0  0  0  0  0  0
   13.4201    3.3579   -3.3331 H   0  0  0  0  0  0  0  0  0  0  0  0
    8.9674    6.3709    1.6491 H   0  0  0  0  0  0  0  0  0  0  0  0
    6.7694    5.2587    1.4598 H   0  0  0  0  0  0  0  0  0  0  0  0
    0.5989    2.4567    0.5782 H   0  0  0  0  0  0  0  0  0  0  0  0
   -1.4264    2.4918    1.9936 H   0  0  0  0  0  0  0  0  0  0  0  0
   -1.7926    0.7259    3.6974 H   0  0  0  0  0  0  0  0  0  0  0  0
   -0.1265   -1.0912    3.9728 H   0  0  0  0  0  0  0  0  0  0  0  0
    1.8867   -1.1562    2.5496 H   0  0  0  0  0  0  0  0  0  0  0  0
  1  2  1  0  0  0  0
  1 39  1  0  0  0  0
  1 40  1  0  0  0  0
  1 41  1  0  0  0  0
  2  3  1  0  0  0  0
  2 32  1  0  0  0  0
  3  4  2  0  0  0  0
  3 42  1  0  0  0  0
  4  5  1  0  0  0  0
  4 30  1  0  0  0  0
  5  6  2  0  0  0  0
  5  7  1  0  0  0  0
  7  8  1  0  0  0  0
  7 43  1  0  0  0  0
  8  9  1  0  0  0  0
  8 29  2  0  0  0  0
  9 10  2  0  0  0  0
  9 44  1  0  0  0  0
 10 11  1  0  0  0  0
 10 45  1  0  0  0  0
 11 12  1  0  0  0  0
 11 28  2  0  0  0  0
 12 13  1  0  0  0  0
 13 14  1  0  0  0  0
 13 27  2  0  0  0  0
 14 15  2  0  0  0  0
 14 46  1  0  0  0  0
 15 16  1  0  0  0  0
 15 47  1  0  0  0  0
 16 17  2  0  0  0  0
 16 26  1  0  0  0  0
 17 18  1  0  0  0  0
 18 19  1  0  0  0  0
 18 25  2  0  0  0  0
 19 20  1  0  0  0  0
 19 48  1  0  0  0  0
 20 21  2  0  0  0  0
 20 22  1  0  0  0  0
 22 23  1  0  0  0  0
 22 24  1  0  0  0  0
 22 49  1  0  0  0  0
 23 24  1  0  0  0  0
 23 50  1  0  0  0  0
 23 51  1  0  0  0  0
 24 52  1  0  0  0  0
 24 53  1  0  0  0  0
 25 26  1  0  0  0  0
 25 54  1  0  0  0  0
 26 27  1  0  0  0  0
 28 29  1  0  0  0  0
 28 55  1  0  0  0  0
 29 56  1  0  0  0  0
 30 31  2  0  0  0  0
 30 32  1  0  0  0  0
 32 33  1  0  0  0  0
 33 34  1  0  0  0  0
 33 38  2  0  0  0  0
 34 35  2  0  0  0  0
 34 57  1  0  0  0  0
 35 36  1  0  0  0  0
 35 58  1  0  0  0  0
 36 37  2  0  0  0  0
 36 59  1  0  0  0  0
 37 38  1  0  0  0  0
 37 60  1  0  0  0  0
 38 61  1  0  0  0  0
M  END
$$$$
