CHEMBL308672
 OpenBabel04072215363D

 63 66  0  0  0  0  0  0  0  0999 V2000
    4.9268   -1.2352   -0.2990 C   0  0  0  0  0  0  0  0  0  0  0  0
    4.5422    0.2337   -0.1561 C   0  0  0  0  0  0  0  0  0  0  0  0
    4.9990    1.1014   -1.2567 N   0  0  0  0  0  0  0  0  0  0  0  0
    4.5608    0.6501   -2.5919 C   0  0  0  0  0  0  0  0  0  0  0  0
    3.0570    0.6713   -2.8657 C   0  0  0  0  0  0  0  0  0  0  0  0
    4.6157    2.5137   -1.0306 C   0  0  0  0  0  0  0  0  0  0  0  0
    5.1350    3.1392    0.2727 C   0  0  0  0  0  0  0  0  0  0  0  0
    6.5793    3.1362    0.4100 N   0  0  0  0  0  0  0  0  0  0  0  0
    7.1138    3.7125    1.5441 C   0  0  0  0  0  0  0  0  0  0  0  0
    6.3852    4.2469    2.3792 O   0  0  0  0  0  0  0  0  0  0  0  0
    8.5494    3.6586    1.7157 C   0  0  0  0  0  0  0  0  0  0  0  0
    9.2263    4.1080    2.8329 C   0  0  0  0  0  0  0  0  0  0  0  0
   10.6175    3.9695    2.6186 C   0  0  0  0  0  0  0  0  0  0  0  0
   11.6560    4.3949    3.5960 C   0  0  0  0  0  0  0  0  0  0  0  0
   10.7834    3.3965    1.3588 C   0  0  0  0  0  0  0  0  0  0  0  0
   11.9764    3.0390    0.6623 C   0  0  0  0  0  0  0  0  0  0  0  0
   12.1493    2.4734   -0.5458 C   0  0  0  0  0  0  0  0  0  0  0  0
   11.1262    2.0738   -1.5802 C   0  0  0  0  0  0  0  0  0  0  0  0
    9.9147    2.1550   -1.5088 O   0  0  0  0  0  0  0  0  0  0  0  0
   11.8513    1.5966   -2.6491 N   0  0  0  0  0  0  0  0  0  0  0  0
   13.2134    1.6396   -2.4079 C   0  0  0  0  0  0  0  0  0  0  0  0
   14.1194    1.2379   -3.2991 N   0  0  0  0  0  0  0  0  0  0  0  0
   15.3764    1.3756   -2.8669 C   0  0  0  0  0  0  0  0  0  0  0  0
   15.7523    1.8609   -1.6683 N   0  0  0  0  0  0  0  0  0  0  0  0
   14.7880    2.2425   -0.7974 C   0  0  0  0  0  0  0  0  0  0  0  0
   15.1693    2.7085    0.4747 N   0  0  0  0  0  0  0  0  0  0  0  0
   16.4048    3.3057    0.8123 C   0  0  0  0  0  0  0  0  0  0  0  0
   17.1016    4.1248   -0.0845 C   0  0  0  0  0  0  0  0  0  0  0  0
   18.2861    4.7590    0.3003 C   0  0  0  0  0  0  0  0  0  0  0  0
   18.7734    4.5923    1.5952 C   0  0  0  0  0  0  0  0  0  0  0  0
   20.2332    5.3726    2.0609 Cl  0  0  0  0  0  0  0  0  0  0  0  0
   18.0835    3.8089    2.5141 C   0  0  0  0  0  0  0  0  0  0  0  0
   16.9048    3.1856    2.1176 C   0  0  0  0  0  0  0  0  0  0  0  0
   16.2309    2.4413    3.0094 F   0  0  0  0  0  0  0  0  0  0  0  0
   13.4612    2.1465   -1.1444 C   0  0  0  0  0  0  0  0  0  0  0  0
    9.5129    3.2185    0.8346 N   0  0  0  0  0  0  0  0  0  0  0  0
    4.7695   -1.7501    0.6552 H   0  0  0  0  0  0  0  0  0  0  0  0
    5.9830   -1.3458   -0.5651 H   0  0  0  0  0  0  0  0  0  0  0  0
    4.3160   -1.7429   -1.0512 H   0  0  0  0  0  0  0  0  0  0  0  0
    5.0135    0.5648    0.7751 H   0  0  0  0  0  0  0  0  0  0  0  0
    3.4588    0.3133   -0.0079 H   0  0  0  0  0  0  0  0  0  0  0  0
    4.9411   -0.3605   -2.7798 H   0  0  0  0  0  0  0  0  0  0  0  0
    5.0551    1.2704   -3.3512 H   0  0  0  0  0  0  0  0  0  0  0  0
    2.4800    0.2012   -2.0646 H   0  0  0  0  0  0  0  0  0  0  0  0
    2.8396    0.1236   -3.7889 H   0  0  0  0  0  0  0  0  0  0  0  0
    2.6915    1.6946   -3.0004 H   0  0  0  0  0  0  0  0  0  0  0  0
    3.5234    2.6179   -1.0303 H   0  0  0  0  0  0  0  0  0  0  0  0
    4.9990    3.1192   -1.8618 H   0  0  0  0  0  0  0  0  0  0  0  0
    4.7051    2.6409    1.1494 H   0  0  0  0  0  0  0  0  0  0  0  0
    4.8007    4.1828    0.3232 H   0  0  0  0  0  0  0  0  0  0  0  0
    7.1113    2.4710   -0.1372 H   0  0  0  0  0  0  0  0  0  0  0  0
    8.7451    4.5256    3.7103 H   0  0  0  0  0  0  0  0  0  0  0  0
   11.1899    4.8017    4.5011 H   0  0  0  0  0  0  0  0  0  0  0  0
   12.2898    5.1790    3.1709 H   0  0  0  0  0  0  0  0  0  0  0  0
   12.2823    3.5500    3.8951 H   0  0  0  0  0  0  0  0  0  0  0  0
   12.8711    3.2862    1.2278 H   0  0  0  0  0  0  0  0  0  0  0  0
   11.4558    1.2663   -3.5154 H   0  0  0  0  0  0  0  0  0  0  0  0
   16.1704    1.0659   -3.5383 H   0  0  0  0  0  0  0  0  0  0  0  0
   14.8686    2.0531    1.1951 H   0  0  0  0  0  0  0  0  0  0  0  0
   16.7240    4.2840   -1.0919 H   0  0  0  0  0  0  0  0  0  0  0  0
   18.8140    5.3844   -0.4149 H   0  0  0  0  0  0  0  0  0  0  0  0
   18.4441    3.6805    3.5287 H   0  0  0  0  0  0  0  0  0  0  0  0
    9.3098    2.8497   -0.0883 H   0  0  0  0  0  0  0  0  0  0  0  0
  1  2  1  0  0  0  0
  1 37  1  0  0  0  0
  1 38  1  0  0  0  0
  1 39  1  0  0  0  0
  2  3  1  0  0  0  0
  2 40  1  0  0  0  0
  2 41  1  0  0  0  0
  3  4  1  0  0  0  0
  3  6  1  0  0  0  0
  4  5  1  0  0  0  0
  4 42  1  0  0  0  0
  4 43  1  0  0  0  0
  5 44  1  0  0  0  0
  5 45  1  0  0  0  0
  5 46  1  0  0  0  0
  6  7  1  0  0  0  0
  6 47  1  0  0  0  0
  6 48  1  0  0  0  0
  7  8  1  0  0  0  0
  7 49  1  0  0  0  0
  7 50  1  0  0  0  0
  8  9  1  0  0  0  0
  8 51  1  0  0  0  0
  9 10  2  0  0  0  0
  9 11  1  0  0  0  0
 11 12  2  0  0  0  0
 11 36  1  0  0  0  0
 12 13  1  0  0  0  0
 12 52  1  0  0  0  0
 13 14  1  0  0  0  0
 13 15  2  0  0  0  0
 14 53  1  0  0  0  0
 14 54  1  0  0  0  0
 14 55  1  0  0  0  0
 15 16  1  0  0  0  0
 15 36  1  0  0  0  0
 16 17  2  0  0  0  0
 16 56  1  0  0  0  0
 17 18  1  0  0  0  0
 17 35  1  0  0  0  0
 18 19  2  0  0  0  0
 18 20  1  0  0  0  0
 20 21  1  0  0  0  0
 20 57  1  0  0  0  0
 21 22  1  0  0  0  0
 21 35  2  0  0  0  0
 22 23  2  0  0  0  0
 23 24  1  0  0  0  0
 23 58  1  0  0  0  0
 24 25  2  0  0  0  0
 25 26  1  0  0  0  0
 25 35  1  0  0  0  0
 26 27  1  0  0  0  0
 26 59  1  0  0  0  0
 27 28  1  0  0  0  0
 27 33  2  0  0  0  0
 28 29  2  0  0  0  0
 28 60  1  0  0  0  0
 29 30  1  0  0  0  0
 29 61  1  0  0  0  0
 30 31  1  0  0  0  0
 30 32  2  0  0  0  0
 32 33  1  0  0  0  0
 32 62  1  0  0  0  0
 33 34  1  0  0  0  0
 36 63  1  0  0  0  0
M  END
$$$$
