CHEMBL3958466
 OpenBabel04072215373D

 57 60  0  0  1  0  0  0  0  0999 V2000
    3.0830    0.6218   -1.0692 C   0  0  0  0  0  0  0  0  0  0  0  0
    2.6182   -0.4608   -0.2612 O   0  0  0  0  0  0  0  0  0  0  0  0
    3.3019   -0.8153    0.8699 C   0  0  0  0  0  0  0  0  0  0  0  0
    4.3722   -0.0956    1.3892 C   0  0  0  0  0  0  0  0  0  0  0  0
    5.1226   -0.5815    2.4832 C   0  0  0  0  0  0  0  0  0  0  0  0
    6.2849    0.0123    2.9758 C   0  0  0  0  0  0  0  0  0  0  0  0
    6.6941    1.2597    2.4267 N   0  0  0  0  0  0  0  0  0  0  0  0
    7.9909    1.7807    2.5749 C   0  0  0  0  0  0  0  0  0  0  0  0
    9.1060    0.9850    2.2816 C   0  0  0  0  0  0  0  0  0  0  0  0
   10.3970    1.4428    2.5373 C   0  0  0  0  0  0  0  0  0  0  0  0
   10.5833    2.7109    3.0816 C   0  0  0  0  0  0  0  0  0  0  0  0
   12.1992    3.1925    3.4503 Cl  0  0  0  0  0  0  0  0  0  0  0  0
    9.4777    3.5342    3.3296 C   0  0  0  0  0  0  0  0  0  0  0  0
    9.6350    5.1222    3.9903 Cl  0  0  0  0  0  0  0  0  0  0  0  0
    8.1848    3.0740    3.0649 C   0  0  0  0  0  0  0  0  0  0  0  0
    7.0393   -0.5605    3.9344 N   0  0  0  0  0  0  0  0  0  0  0  0
    6.5896   -1.7055    4.4484 C   0  0  0  0  0  0  0  0  0  0  0  0
    5.4547   -2.3150    4.1110 N   0  0  0  0  0  0  0  0  0  0  0  0
    4.7556   -1.7606    3.1244 C   0  0  0  0  0  0  0  0  0  0  0  0
    3.6176   -2.4024    2.6823 C   0  0  0  0  0  0  0  0  0  0  0  0
    2.9202   -1.9972    1.5352 C   0  0  0  0  0  0  0  0  0  0  0  0
    1.8923   -2.7582    1.0118 O   0  0  0  0  0  0  0  0  0  0  0  0
    1.8708   -4.1090    1.5103 C   0  0  0  0  0  0  0  0  0  0  0  0
    1.0291   -5.0541    0.6633 C   0  0  3  0  0  0  0  0  0  0  0  0
    1.4546   -4.9695   -0.8082 C   0  0  0  0  0  0  0  0  0  0  0  0
    1.0649   -6.2005   -1.5027 N   0  0  0  0  0  0  0  0  0  0  0  0
    1.9410   -7.2756   -1.3965 C   0  0  0  0  0  0  0  0  0  0  0  0
    1.5955   -8.5874   -2.0506 C   0  0  0  0  0  0  0  0  0  0  0  0
    2.9887   -7.1947   -0.7480 O   0  0  0  0  0  0  0  0  0  0  0  0
   -0.2958   -6.2517   -2.0364 C   0  0  0  0  0  0  0  0  0  0  0  0
   -1.3420   -5.4629   -1.2389 C   0  0  0  0  0  0  0  0  0  0  0  0
   -1.2473   -5.7000    0.2628 C   0  0  0  0  0  0  0  0  0  0  0  0
   -0.3606   -4.7584    0.8669 O   0  0  0  0  0  0  0  0  0  0  0  0
    3.0864    0.2921   -2.1124 H   0  0  0  0  0  0  0  0  0  0  0  0
    4.0963    0.9781   -0.8698 H   0  0  0  0  0  0  0  0  0  0  0  0
    2.3899    1.4642   -0.9774 H   0  0  0  0  0  0  0  0  0  0  0  0
    4.7080    0.8258    0.9353 H   0  0  0  0  0  0  0  0  0  0  0  0
    5.9622    1.9422    2.5988 H   0  0  0  0  0  0  0  0  0  0  0  0
    8.9631   -0.0161    1.8799 H   0  0  0  0  0  0  0  0  0  0  0  0
   11.2394    0.7879    2.3314 H   0  0  0  0  0  0  0  0  0  0  0  0
    7.3301    3.7089    3.2829 H   0  0  0  0  0  0  0  0  0  0  0  0
    7.2065   -2.1878    5.2001 H   0  0  0  0  0  0  0  0  0  0  0  0
    3.3295   -3.2817    3.2539 H   0  0  0  0  0  0  0  0  0  0  0  0
    1.4677   -4.1029    2.5305 H   0  0  0  0  0  0  0  0  0  0  0  0
    2.8895   -4.5212    1.5026 H   0  0  0  0  0  0  0  0  0  0  0  0
    1.2058   -6.0630    1.0613 H   0  0  0  0  0  0  0  0  0  0  0  0
    2.5440   -4.8638   -0.8832 H   0  0  0  0  0  0  0  0  0  0  0  0
    1.0137   -4.1089   -1.3219 H   0  0  0  0  0  0  0  0  0  0  0  0
    0.7674   -8.5352   -2.7543 H   0  0  0  0  0  0  0  0  0  0  0  0
    1.3619   -9.3169   -1.2685 H   0  0  0  0  0  0  0  0  0  0  0  0
    2.4704   -8.9317   -2.6099 H   0  0  0  0  0  0  0  0  0  0  0  0
   -0.6385   -7.2853   -2.1048 H   0  0  0  0  0  0  0  0  0  0  0  0
   -0.2471   -5.8497   -3.0549 H   0  0  0  0  0  0  0  0  0  0  0  0
   -2.3330   -5.7652   -1.5959 H   0  0  0  0  0  0  0  0  0  0  0  0
   -1.2424   -4.3908   -1.4480 H   0  0  0  0  0  0  0  0  0  0  0  0
   -0.9646   -6.7291    0.5165 H   0  0  0  0  0  0  0  0  0  0  0  0
   -2.2297   -5.5190    0.7113 H   0  0  0  0  0  0  0  0  0  0  0  0
  1  2  1  0  0  0  0
  1 34  1  0  0  0  0
  1 35  1  0  0  0  0
  1 36  1  0  0  0  0
  2  3  1  0  0  0  0
  3  4  1  0  0  0  0
  3 21  2  0  0  0  0
  4  5  2  0  0  0  0
  4 37  1  0  0  0  0
  5  6  1  0  0  0  0
  5 19  1  0  0  0  0
  6  7  1  0  0  0  0
  6 16  2  0  0  0  0
  7  8  1  0  0  0  0
  7 38  1  0  0  0  0
  8  9  1  0  0  0  0
  8 15  2  0  0  0  0
  9 10  2  0  0  0  0
  9 39  1  0  0  0  0
 10 11  1  0  0  0  0
 10 40  1  0  0  0  0
 11 12  1  0  0  0  0
 11 13  2  0  0  0  0
 13 14  1  0  0  0  0
 13 15  1  0  0  0  0
 15 41  1  0  0  0  0
 16 17  1  0  0  0  0
 17 18  2  0  0  0  0
 17 42  1  0  0  0  0
 18 19  1  0  0  0  0
 19 20  2  0  0  0  0
 20 21  1  0  0  0  0
 20 43  1  0  0  0  0
 21 22  1  0  0  0  0
 22 23  1  0  0  0  0
 23 24  1  0  0  0  0
 23 44  1  0  0  0  0
 23 45  1  0  0  0  0
 24 25  1  0  0  0  0
 24 33  1  0  0  0  0
 24 46  1  0  0  0  0
 25 26  1  0  0  0  0
 25 47  1  0  0  0  0
 25 48  1  0  0  0  0
 26 27  1  0  0  0  0
 26 30  1  0  0  0  0
 27 28  1  0  0  0  0
 27 29  2  0  0  0  0
 28 49  1  0  0  0  0
 28 50  1  0  0  0  0
 28 51  1  0  0  0  0
 30 31  1  0  0  0  0
 30 52  1  0  0  0  0
 30 53  1  0  0  0  0
 31 32  1  0  0  0  0
 31 54  1  0  0  0  0
 31 55  1  0  0  0  0
 32 33  1  0  0  0  0
 32 56  1  0  0  0  0
 32 57  1  0  0  0  0
M  END
$$$$
