CHEMBL230414
 OpenBabel04072215363D

 25 27  0  0  0  0  0  0  0  0999 V2000
   -2.9751    0.5646   -0.1098 O   0  0  0  0  0  0  0  0  0  0  0  0
   -1.7721    0.3901   -0.0801 C   0  0  0  0  0  0  0  0  0  0  0  0
   -0.7792    1.3541   -0.0424 N   0  0  0  0  0  0  0  0  0  0  0  0
    0.4878    0.7778   -0.0293 C   0  0  0  0  0  0  0  0  0  0  0  0
    1.6960    1.4463   -0.0035 C   0  0  0  0  0  0  0  0  0  0  0  0
    2.8579    0.6731   -0.0343 C   0  0  0  0  0  0  0  0  0  0  0  0
    2.7845   -0.7294   -0.0997 C   0  0  0  0  0  0  0  0  0  0  0  0
    1.5482   -1.3857   -0.1125 C   0  0  0  0  0  0  0  0  0  0  0  0
    0.3981   -0.6205   -0.0604 C   0  0  0  0  0  0  0  0  0  0  0  0
   -1.0356   -0.9248   -0.0490 C   0  0  0  0  0  0  0  0  0  0  0  0
   -1.7353   -2.0650    0.0623 C   0  0  0  0  0  0  0  0  0  0  0  0
   -1.1302   -3.3339    0.2539 C   0  0  0  0  0  0  0  0  0  0  0  0
   -0.9097   -3.9212    1.8608 S   0  0  0  0  0  0  0  0  0  0  0  0
   -0.2074   -5.3798    1.3133 C   0  0  0  0  0  0  0  0  0  0  0  0
   -0.1489   -5.4425   -0.0613 C   0  0  0  0  0  0  0  0  0  0  0  0
   -0.6813   -4.2693   -0.6566 C   0  0  0  0  0  0  0  0  0  0  0  0
   -0.7170   -4.0758   -2.5386 Br  0  0  0  0  0  0  0  0  0  0  0  0
   -0.9789    2.3424   -0.0377 H   0  0  0  0  0  0  0  0  0  0  0  0
    1.7490    2.5277    0.0383 H   0  0  0  0  0  0  0  0  0  0  0  0
    3.8316    1.1578   -0.0145 H   0  0  0  0  0  0  0  0  0  0  0  0
    3.7016   -1.3138   -0.1403 H   0  0  0  0  0  0  0  0  0  0  0  0
    1.5171   -2.4667   -0.1676 H   0  0  0  0  0  0  0  0  0  0  0  0
   -2.8231   -2.0292    0.0786 H   0  0  0  0  0  0  0  0  0  0  0  0
    0.1216   -6.1227    2.0272 H   0  0  0  0  0  0  0  0  0  0  0  0
    0.2552   -6.2918   -0.5981 H   0  0  0  0  0  0  0  0  0  0  0  0
  1  2  2  0  0  0  0
  2  3  1  0  0  0  0
  2 10  1  0  0  0  0
  3  4  1  0  0  0  0
  3 18  1  0  0  0  0
  4  5  1  0  0  0  0
  4  9  2  0  0  0  0
  5  6  2  0  0  0  0
  5 19  1  0  0  0  0
  6  7  1  0  0  0  0
  6 20  1  0  0  0  0
  7  8  2  0  0  0  0
  7 21  1  0  0  0  0
  8  9  1  0  0  0  0
  8 22  1  0  0  0  0
  9 10  1  0  0  0  0
 10 11  2  0  0  0  0
 11 12  1  0  0  0  0
 11 23  1  0  0  0  0
 12 13  1  0  0  0  0
 12 16  2  0  0  0  0
 13 14  1  0  0  0  0
 14 15  2  0  0  0  0
 14 24  1  0  0  0  0
 15 16  1  0  0  0  0
 15 25  1  0  0  0  0
 16 17  1  0  0  0  0
M  END
$$$$
