CHEMBL3690442
 OpenBabel04072215373D

 62 66  0  0  0  0  0  0  0  0999 V2000
    2.3429    1.1263   -0.1472 C   0  0  0  0  0  0  0  0  0  0  0  0
    1.0065    0.5829   -0.3736 N   0  0  0  0  0  0  0  0  0  0  0  0
    0.6312   -0.3503    0.7157 C   0  0  0  0  0  0  0  0  0  0  0  0
   -0.7960   -0.9231    0.5412 C   0  0  0  0  0  0  0  0  0  0  0  0
   -1.7419    0.1836    0.4204 N   0  0  0  0  0  0  0  0  0  0  0  0
   -3.0256    0.0535    0.8814 C   0  0  0  0  0  0  0  0  0  0  0  0
   -3.3377   -0.9997    1.6568 N   0  0  0  0  0  0  0  0  0  0  0  0
   -4.5758   -1.0453    2.1929 C   0  0  0  0  0  0  0  0  0  0  0  0
   -5.5331   -0.0786    1.9922 C   0  0  0  0  0  0  0  0  0  0  0  0
   -6.8766   -0.1490    2.5700 C   0  0  0  0  0  0  0  0  0  0  0  0
   -7.9702   -0.8486    1.9013 C   0  0  0  0  0  0  0  0  0  0  0  0
   -9.1944   -0.8641    2.4572 C   0  0  0  0  0  0  0  0  0  0  0  0
   -9.4153   -0.1950    3.6646 N   0  0  0  0  0  0  0  0  0  0  0  0
  -10.5686   -0.0235    4.4228 C   0  0  0  0  0  0  0  0  0  0  0  0
  -11.9351   -0.4890    4.1356 C   0  0  0  0  0  0  0  0  0  0  0  0
  -12.7453   -0.8633    5.2209 C   0  0  0  0  0  0  0  0  0  0  0  0
  -14.0667   -1.2533    5.0328 C   0  0  0  0  0  0  0  0  0  0  0  0
  -14.6105   -1.2550    3.7543 C   0  0  0  0  0  0  0  0  0  0  0  0
  -13.8564   -0.8359    2.6560 C   0  0  0  0  0  0  0  0  0  0  0  0
  -14.4271   -0.7351    1.3611 N   0  0  0  0  0  0  0  0  0  0  0  0
  -15.7805   -0.5844    1.1194 C   0  0  0  0  0  0  0  0  0  0  0  0
  -16.6568   -0.4376    1.9670 O   0  0  0  0  0  0  0  0  0  0  0  0
  -16.1037   -0.6429   -0.2105 N   0  0  0  0  0  0  0  0  0  0  0  0
  -17.5086   -0.4209   -0.5900 C   0  0  0  0  0  0  0  0  0  0  0  0
  -17.9885    1.0397   -0.5885 C   0  0  0  0  0  0  0  0  0  0  0  0
  -16.9725    1.9127   -0.3990 F   0  0  0  0  0  0  0  0  0  0  0  0
  -18.5417    1.3407   -1.7913 F   0  0  0  0  0  0  0  0  0  0  0  0
  -18.9279    1.2732    0.3509 F   0  0  0  0  0  0  0  0  0  0  0  0
  -12.5068   -0.4883    2.8471 C   0  0  0  0  0  0  0  0  0  0  0  0
  -10.1221    0.6687    5.5432 C   0  0  0  0  0  0  0  0  0  0  0  0
   -8.7899    0.9585    5.4882 N   0  0  0  0  0  0  0  0  0  0  0  0
   -8.3818    0.4493    4.3497 C   0  0  0  0  0  0  0  0  0  0  0  0
   -7.0873    0.4610    3.7573 C   0  0  0  0  0  0  0  0  0  0  0  0
   -5.1318    0.9510    1.1734 C   0  0  0  0  0  0  0  0  0  0  0  0
   -3.9078    1.0320    0.6137 N   0  0  0  0  0  0  0  0  0  0  0  0
   -1.4369    1.1508   -0.6323 C   0  0  0  0  0  0  0  0  0  0  0  0
    0.0060    1.6747   -0.4414 C   0  0  0  0  0  0  0  0  0  0  0  0
    3.0843    0.3201   -0.1290 H   0  0  0  0  0  0  0  0  0  0  0  0
    2.4147    1.6829    0.7942 H   0  0  0  0  0  0  0  0  0  0  0  0
    2.6261    1.7963   -0.9664 H   0  0  0  0  0  0  0  0  0  0  0  0
    0.6840    0.1638    1.6860 H   0  0  0  0  0  0  0  0  0  0  0  0
    1.3402   -1.1857    0.7481 H   0  0  0  0  0  0  0  0  0  0  0  0
   -1.0029   -1.5677    1.4030 H   0  0  0  0  0  0  0  0  0  0  0  0
   -0.8390   -1.5507   -0.3586 H   0  0  0  0  0  0  0  0  0  0  0  0
   -4.7689   -1.9145    2.8151 H   0  0  0  0  0  0  0  0  0  0  0  0
   -7.7713   -1.3537    0.9603 H   0  0  0  0  0  0  0  0  0  0  0  0
  -10.0210   -1.3914    2.0061 H   0  0  0  0  0  0  0  0  0  0  0  0
  -12.3598   -0.8465    6.2383 H   0  0  0  0  0  0  0  0  0  0  0  0
  -14.6830   -1.5361    5.8817 H   0  0  0  0  0  0  0  0  0  0  0  0
  -15.6402   -1.5835    3.6448 H   0  0  0  0  0  0  0  0  0  0  0  0
  -13.8022   -0.5292    0.5971 H   0  0  0  0  0  0  0  0  0  0  0  0
  -15.3896   -0.4391   -0.8949 H   0  0  0  0  0  0  0  0  0  0  0  0
  -18.1439   -1.0007    0.0902 H   0  0  0  0  0  0  0  0  0  0  0  0
  -17.6316   -0.8518   -1.5881 H   0  0  0  0  0  0  0  0  0  0  0  0
  -11.9246   -0.1439    1.9982 H   0  0  0  0  0  0  0  0  0  0  0  0
  -10.7135    0.9851    6.3943 H   0  0  0  0  0  0  0  0  0  0  0  0
   -6.3013    0.9816    4.2970 H   0  0  0  0  0  0  0  0  0  0  0  0
   -5.7949    1.7775    0.9336 H   0  0  0  0  0  0  0  0  0  0  0  0
   -2.1071    2.0176   -0.6233 H   0  0  0  0  0  0  0  0  0  0  0  0
   -1.5331    0.6714   -1.6153 H   0  0  0  0  0  0  0  0  0  0  0  0
    0.0397    2.2737    0.4796 H   0  0  0  0  0  0  0  0  0  0  0  0
    0.2452    2.3434   -1.2764 H   0  0  0  0  0  0  0  0  0  0  0  0
  1  2  1  0  0  0  0
  1 38  1  0  0  0  0
  1 39  1  0  0  0  0
  1 40  1  0  0  0  0
  2  3  1  0  0  0  0
  2 37  1  0  0  0  0
  3  4  1  0  0  0  0
  3 41  1  0  0  0  0
  3 42  1  0  0  0  0
  4  5  1  0  0  0  0
  4 43  1  0  0  0  0
  4 44  1  0  0  0  0
  5  6  1  0  0  0  0
  5 36  1  0  0  0  0
  6  7  1  0  0  0  0
  6 35  2  0  0  0  0
  7  8  2  0  0  0  0
  8  9  1  0  0  0  0
  8 45  1  0  0  0  0
  9 10  1  0  0  0  0
  9 34  2  0  0  0  0
 10 11  1  0  0  0  0
 10 33  2  0  0  0  0
 11 12  2  0  0  0  0
 11 46  1  0  0  0  0
 12 13  1  0  0  0  0
 12 47  1  0  0  0  0
 13 14  1  0  0  0  0
 13 32  1  0  0  0  0
 14 15  1  0  0  0  0
 14 30  2  0  0  0  0
 15 16  1  0  0  0  0
 15 29  2  0  0  0  0
 16 17  2  0  0  0  0
 16 48  1  0  0  0  0
 17 18  1  0  0  0  0
 17 49  1  0  0  0  0
 18 19  2  0  0  0  0
 18 50  1  0  0  0  0
 19 20  1  0  0  0  0
 19 29  1  0  0  0  0
 20 21  1  0  0  0  0
 20 51  1  0  0  0  0
 21 22  2  0  0  0  0
 21 23  1  0  0  0  0
 23 24  1  0  0  0  0
 23 52  1  0  0  0  0
 24 25  1  0  0  0  0
 24 53  1  0  0  0  0
 24 54  1  0  0  0  0
 25 26  1  0  0  0  0
 25 27  1  0  0  0  0
 25 28  1  0  0  0  0
 29 55  1  0  0  0  0
 30 31  1  0  0  0  0
 30 56  1  0  0  0  0
 31 32  2  0  0  0  0
 32 33  1  0  0  0  0
 33 57  1  0  0  0  0
 34 35  1  0  0  0  0
 34 58  1  0  0  0  0
 36 37  1  0  0  0  0
 36 59  1  0  0  0  0
 36 60  1  0  0  0  0
 37 61  1  0  0  0  0
 37 62  1  0  0  0  0
M  END
$$$$
