CHEMBL361642
 OpenBabel04072215363D

 44 46  0  0  0  0  0  0  0  0999 V2000
    1.2564    3.4513    1.0528 C   0  0  0  0  0  0  0  0  0  0  0  0
    2.7430    3.2730    0.7938 C   0  0  0  0  0  0  0  0  0  0  0  0
    3.0700    1.8154   -0.1934 S   0  0  0  0  0  0  0  0  0  0  0  0
    2.5660    0.6648    0.5328 O   0  0  0  0  0  0  0  0  0  0  0  0
    2.6504    2.0769   -1.5596 O   0  0  0  0  0  0  0  0  0  0  0  0
    4.8441    1.6727   -0.2199 C   0  0  0  0  0  0  0  0  0  0  0  0
    5.4895    0.5511    0.2897 C   0  0  0  0  0  0  0  0  0  0  0  0
    6.8897    0.4965    0.2840 C   0  0  0  0  0  0  0  0  0  0  0  0
    7.6443    1.5716   -0.2079 C   0  0  0  0  0  0  0  0  0  0  0  0
    9.0189    1.6360   -0.1809 O   0  0  0  0  0  0  0  0  0  0  0  0
    9.7170    0.4002   -0.0511 C   0  0  0  0  0  0  0  0  0  0  0  0
    6.9891    2.7150   -0.7196 C   0  0  0  0  0  0  0  0  0  0  0  0
    7.7545    3.8180   -1.1737 N   0  0  0  0  0  0  0  0  0  0  0  0
    7.2701    5.0522   -1.3996 C   0  0  0  0  0  0  0  0  0  0  0  0
    6.0243    5.4476   -1.5547 N   0  0  0  0  0  0  0  0  0  0  0  0
    6.0985    6.7966   -1.6780 C   0  0  0  0  0  0  0  0  0  0  0  0
    7.4074    7.2031   -1.5888 C   0  0  0  0  0  0  0  0  0  0  0  0
    8.0625    8.4959   -1.6216 C   0  0  0  0  0  0  0  0  0  0  0  0
    7.2859    9.6607   -1.7464 C   0  0  0  0  0  0  0  0  0  0  0  0
    7.8793   10.9206   -1.7786 C   0  0  0  0  0  0  0  0  0  0  0  0
    9.2649   11.0330   -1.6869 C   0  0  0  0  0  0  0  0  0  0  0  0
   10.0498    9.8855   -1.5561 C   0  0  0  0  0  0  0  0  0  0  0  0
   11.4705   10.0047   -1.4559 C   0  0  0  0  0  0  0  0  0  0  0  0
   12.6254   10.1013   -1.3746 N   0  0  0  0  0  0  0  0  0  0  0  0
    9.4528    8.6203   -1.5257 C   0  0  0  0  0  0  0  0  0  0  0  0
    8.1782    6.0779   -1.4232 O   0  0  0  0  0  0  0  0  0  0  0  0
    5.5849    2.7183   -0.7579 C   0  0  0  0  0  0  0  0  0  0  0  0
    1.0768    4.3429    1.6625 H   0  0  0  0  0  0  0  0  0  0  0  0
    0.8413    2.5900    1.5859 H   0  0  0  0  0  0  0  0  0  0  0  0
    0.7009    3.5631    0.1160 H   0  0  0  0  0  0  0  0  0  0  0  0
    3.2762    3.1610    1.7425 H   0  0  0  0  0  0  0  0  0  0  0  0
    3.1338    4.1460    0.2622 H   0  0  0  0  0  0  0  0  0  0  0  0
    4.9171   -0.2816    0.6915 H   0  0  0  0  0  0  0  0  0  0  0  0
    7.3610   -0.3885    0.6986 H   0  0  0  0  0  0  0  0  0  0  0  0
   10.7889    0.6143   -0.1151 H   0  0  0  0  0  0  0  0  0  0  0  0
    9.4621   -0.2801   -0.8704 H   0  0  0  0  0  0  0  0  0  0  0  0
    9.5388   -0.0680    0.9223 H   0  0  0  0  0  0  0  0  0  0  0  0
    8.7488    3.7064   -1.0045 H   0  0  0  0  0  0  0  0  0  0  0  0
    5.2107    7.3963   -1.8133 H   0  0  0  0  0  0  0  0  0  0  0  0
    6.2013    9.6024   -1.8184 H   0  0  0  0  0  0  0  0  0  0  0  0
    7.2601   11.8088   -1.8777 H   0  0  0  0  0  0  0  0  0  0  0  0
    9.7221   12.0191   -1.7090 H   0  0  0  0  0  0  0  0  0  0  0  0
   10.0755    7.7324   -1.4262 H   0  0  0  0  0  0  0  0  0  0  0  0
    5.0378    3.5404   -1.2049 H   0  0  0  0  0  0  0  0  0  0  0  0
  1  2  1  0  0  0  0
  1 28  1  0  0  0  0
  1 29  1  0  0  0  0
  1 30  1  0  0  0  0
  2  3  1  0  0  0  0
  2 31  1  0  0  0  0
  2 32  1  0  0  0  0
  3  4  2  0  0  0  0
  3  5  2  0  0  0  0
  3  6  1  0  0  0  0
  6  7  1  0  0  0  0
  6 27  2  0  0  0  0
  7  8  2  0  0  0  0
  7 33  1  0  0  0  0
  8  9  1  0  0  0  0
  8 34  1  0  0  0  0
  9 10  1  0  0  0  0
  9 12  2  0  0  0  0
 10 11  1  0  0  0  0
 11 35  1  0  0  0  0
 11 36  1  0  0  0  0
 11 37  1  0  0  0  0
 12 13  1  0  0  0  0
 12 27  1  0  0  0  0
 13 14  1  0  0  0  0
 13 38  1  0  0  0  0
 14 15  2  0  0  0  0
 14 26  1  0  0  0  0
 15 16  1  0  0  0  0
 16 17  2  0  0  0  0
 16 39  1  0  0  0  0
 17 18  1  0  0  0  0
 17 26  1  0  0  0  0
 18 19  1  0  0  0  0
 18 25  2  0  0  0  0
 19 20  2  0  0  0  0
 19 40  1  0  0  0  0
 20 21  1  0  0  0  0
 20 41  1  0  0  0  0
 21 22  2  0  0  0  0
 21 42  1  0  0  0  0
 22 23  1  0  0  0  0
 22 25  1  0  0  0  0
 23 24  3  0  0  0  0
 25 43  1  0  0  0  0
 27 44  1  0  0  0  0
M  END
$$$$
