CHEMBL3923692
 OpenBabel04072215373D

 61 64  0  0  1  0  0  0  0  0999 V2000
    1.1196   -0.1778   -0.4594 C   0  0  0  0  0  0  0  0  0  0  0  0
    2.5321   -0.1221   -0.3198 O   0  0  0  0  0  0  0  0  0  0  0  0
    3.1535   -1.0803    0.4342 C   0  0  0  0  0  0  0  0  0  0  0  0
    4.2521   -0.5825    1.1523 C   0  0  0  0  0  0  0  0  0  0  0  0
    5.0782   -1.4391    1.9262 C   0  0  0  0  0  0  0  0  0  0  0  0
    6.2178   -1.0740    2.6581 C   0  0  0  0  0  0  0  0  0  0  0  0
    6.5780    0.2958    2.7499 N   0  0  0  0  0  0  0  0  0  0  0  0
    7.8604    0.7183    3.1586 C   0  0  0  0  0  0  0  0  0  0  0  0
    9.0018    0.1555    2.5683 C   0  0  0  0  0  0  0  0  0  0  0  0
   10.2775    0.4834    3.0192 C   0  0  0  0  0  0  0  0  0  0  0  0
   10.4298    1.3897    4.0677 C   0  0  0  0  0  0  0  0  0  0  0  0
   12.0336    1.7193    4.6150 Cl  0  0  0  0  0  0  0  0  0  0  0  0
    9.2990    1.9825    4.6442 C   0  0  0  0  0  0  0  0  0  0  0  0
    9.4130    3.1145    5.9465 Cl  0  0  0  0  0  0  0  0  0  0  0  0
    8.0178    1.6509    4.1852 C   0  0  0  0  0  0  0  0  0  0  0  0
    6.9962   -1.9799    3.2895 N   0  0  0  0  0  0  0  0  0  0  0  0
    6.6193   -3.2556    3.2299 C   0  0  0  0  0  0  0  0  0  0  0  0
    5.5334   -3.7052    2.6112 N   0  0  0  0  0  0  0  0  0  0  0  0
    4.7975   -2.7960    1.9708 C   0  0  0  0  0  0  0  0  0  0  0  0
    3.7010   -3.2586    1.2878 C   0  0  0  0  0  0  0  0  0  0  0  0
    2.8676   -2.4443    0.4960 C   0  0  0  0  0  0  0  0  0  0  0  0
    1.8377   -2.9893   -0.2505 O   0  0  0  0  0  0  0  0  0  0  0  0
    1.7560   -4.4146   -0.1205 C   0  0  0  0  0  0  0  0  0  0  0  0
    0.6678   -5.0849   -0.9319 C   0  0  3  0  0  0  0  0  0  0  0  0
   -0.7123   -4.5674   -0.5240 C   0  0  0  0  0  0  0  0  0  0  0  0
   -1.7660   -5.3159   -1.2783 N   0  0  0  0  0  0  0  0  0  0  0  0
   -1.9194   -4.8572   -2.9107 S   0  0  0  0  0  0  0  0  0  0  0  0
   -1.5735   -3.4551   -3.0172 O   0  0  0  0  0  0  0  0  0  0  0  0
   -1.2738   -5.8527   -3.7346 O   0  0  0  0  0  0  0  0  0  0  0  0
   -3.6829   -4.9879   -3.1376 C   0  0  0  0  0  0  0  0  0  0  0  0
   -4.0261   -4.6736   -4.5897 C   0  0  0  0  0  0  0  0  0  0  0  0
   -5.5141   -4.7182   -4.8847 C   0  0  0  0  0  0  0  0  0  0  0  0
   -6.1920   -6.3393   -4.6176 Cl  0  0  0  0  0  0  0  0  0  0  0  0
   -1.6226   -6.7884   -1.0112 C   0  0  0  0  0  0  0  0  0  0  0  0
   -0.1966   -7.2774   -1.3108 C   0  0  0  0  0  0  0  0  0  0  0  0
    0.7791   -6.4956   -0.6161 O   0  0  0  0  0  0  0  0  0  0  0  0
    0.7328    0.8257   -0.2461 H   0  0  0  0  0  0  0  0  0  0  0  0
    0.6231   -0.8691    0.2247 H   0  0  0  0  0  0  0  0  0  0  0  0
    0.8729   -0.4124   -1.4983 H   0  0  0  0  0  0  0  0  0  0  0  0
    4.4921    0.4760    1.0695 H   0  0  0  0  0  0  0  0  0  0  0  0
    5.8232    0.8033    3.2011 H   0  0  0  0  0  0  0  0  0  0  0  0
    8.8935   -0.5703    1.7642 H   0  0  0  0  0  0  0  0  0  0  0  0
   11.1412    0.0113    2.5584 H   0  0  0  0  0  0  0  0  0  0  0  0
    7.1462    2.0958    4.6587 H   0  0  0  0  0  0  0  0  0  0  0  0
    7.2528   -3.9908    3.7117 H   0  0  0  0  0  0  0  0  0  0  0  0
    3.5540   -4.3284    1.3841 H   0  0  0  0  0  0  0  0  0  0  0  0
    1.5691   -4.6755    0.9317 H   0  0  0  0  0  0  0  0  0  0  0  0
    2.7015   -4.8705   -0.4455 H   0  0  0  0  0  0  0  0  0  0  0  0
    0.8572   -4.9344   -2.0007 H   0  0  0  0  0  0  0  0  0  0  0  0
   -0.8149   -3.4886   -0.6755 H   0  0  0  0  0  0  0  0  0  0  0  0
   -0.8877   -4.7461    0.5453 H   0  0  0  0  0  0  0  0  0  0  0  0
   -4.1541   -4.2732   -2.4553 H   0  0  0  0  0  0  0  0  0  0  0  0
   -3.9711   -6.0051   -2.8613 H   0  0  0  0  0  0  0  0  0  0  0  0
   -3.4949   -5.3662   -5.2545 H   0  0  0  0  0  0  0  0  0  0  0  0
   -3.6538   -3.6714   -4.8377 H   0  0  0  0  0  0  0  0  0  0  0  0
   -5.6931   -4.4565   -5.9316 H   0  0  0  0  0  0  0  0  0  0  0  0
   -6.0618   -4.0126   -4.2535 H   0  0  0  0  0  0  0  0  0  0  0  0
   -2.3665   -7.3626   -1.5702 H   0  0  0  0  0  0  0  0  0  0  0  0
   -1.8340   -6.9423    0.0554 H   0  0  0  0  0  0  0  0  0  0  0  0
    0.0495   -7.2683   -2.3747 H   0  0  0  0  0  0  0  0  0  0  0  0
   -0.0846   -8.3125   -0.9709 H   0  0  0  0  0  0  0  0  0  0  0  0
  1  2  1  0  0  0  0
  1 37  1  0  0  0  0
  1 38  1  0  0  0  0
  1 39  1  0  0  0  0
  2  3  1  0  0  0  0
  3  4  1  0  0  0  0
  3 21  2  0  0  0  0
  4  5  2  0  0  0  0
  4 40  1  0  0  0  0
  5  6  1  0  0  0  0
  5 19  1  0  0  0  0
  6  7  1  0  0  0  0
  6 16  2  0  0  0  0
  7  8  1  0  0  0  0
  7 41  1  0  0  0  0
  8  9  1  0  0  0  0
  8 15  2  0  0  0  0
  9 10  2  0  0  0  0
  9 42  1  0  0  0  0
 10 11  1  0  0  0  0
 10 43  1  0  0  0  0
 11 12  1  0  0  0  0
 11 13  2  0  0  0  0
 13 14  1  0  0  0  0
 13 15  1  0  0  0  0
 15 44  1  0  0  0  0
 16 17  1  0  0  0  0
 17 18  2  0  0  0  0
 17 45  1  0  0  0  0
 18 19  1  0  0  0  0
 19 20  2  0  0  0  0
 20 21  1  0  0  0  0
 20 46  1  0  0  0  0
 21 22  1  0  0  0  0
 22 23  1  0  0  0  0
 23 24  1  0  0  0  0
 23 47  1  0  0  0  0
 23 48  1  0  0  0  0
 24 25  1  0  0  0  0
 24 36  1  0  0  0  0
 24 49  1  0  0  0  0
 25 26  1  0  0  0  0
 25 50  1  0  0  0  0
 25 51  1  0  0  0  0
 26 27  1  0  0  0  0
 26 34  1  0  0  0  0
 27 28  2  0  0  0  0
 27 29  2  0  0  0  0
 27 30  1  0  0  0  0
 30 31  1  0  0  0  0
 30 52  1  0  0  0  0
 30 53  1  0  0  0  0
 31 32  1  0  0  0  0
 31 54  1  0  0  0  0
 31 55  1  0  0  0  0
 32 33  1  0  0  0  0
 32 56  1  0  0  0  0
 32 57  1  0  0  0  0
 34 35  1  0  0  0  0
 34 58  1  0  0  0  0
 34 59  1  0  0  0  0
 35 36  1  0  0  0  0
 35 60  1  0  0  0  0
 35 61  1  0  0  0  0
M  END
$$$$
