CHEMBL189226
 OpenBabel04072215363D

 59 62  0  0  0  0  0  0  0  0999 V2000
   -0.5698   -6.6225    0.7188 C   0  0  0  0  0  0  0  0  0  0  0  0
   -0.2482   -5.2068    0.5823 N   0  0  0  0  0  0  0  0  0  0  0  0
   -1.4507   -4.4062    0.3025 C   0  0  0  0  0  0  0  0  0  0  0  0
   -1.0948   -2.9091    0.1556 C   0  0  0  0  0  0  0  0  0  0  0  0
   -0.4320   -2.3130    1.3373 N   0  0  0  0  0  0  0  0  0  0  0  0
   -1.3125   -2.1768    2.5072 C   0  0  0  0  0  0  0  0  0  0  0  0
   -2.5653   -1.3192    2.2632 C   0  0  0  0  0  0  0  0  0  0  0  0
   -3.4284   -1.2117    3.5207 C   0  0  0  0  0  0  0  0  0  0  0  0
   -3.9766   -2.5208    3.8818 N   0  0  0  0  0  0  0  0  0  0  0  0
   -4.2513   -2.7527    5.2319 C   0  0  0  0  0  0  0  0  0  0  0  0
   -4.0674   -4.0122    5.8018 C   0  0  0  0  0  0  0  0  0  0  0  0
   -4.3344   -4.3275    7.0895 N   0  0  0  0  0  0  0  0  0  0  0  0
   -4.8663   -3.3394    7.8464 C   0  0  0  0  0  0  0  0  0  0  0  0
   -5.1322   -2.0448    7.4024 C   0  0  0  0  0  0  0  0  0  0  0  0
   -5.7874   -1.0340    8.2399 C   0  0  0  0  0  0  0  0  0  0  0  0
   -5.6850   -0.9839    9.6278 C   0  0  0  0  0  0  0  0  0  0  0  0
   -6.3847   -0.1099   10.3873 N   0  0  0  0  0  0  0  0  0  0  0  0
   -7.1987    0.7234    9.6947 C   0  0  0  0  0  0  0  0  0  0  0  0
   -7.2796    0.7515    8.3024 C   0  0  0  0  0  0  0  0  0  0  0  0
   -8.1731    1.6378    7.6527 N   0  0  0  0  0  0  0  0  0  0  0  0
   -7.9786    2.1773    6.3557 C   0  0  0  0  0  0  0  0  0  0  0  0
   -6.7026    2.4089    5.8265 C   0  0  0  0  0  0  0  0  0  0  0  0
   -6.5353    3.0323    4.5877 C   0  0  0  0  0  0  0  0  0  0  0  0
   -7.6504    3.4409    3.8630 C   0  0  0  0  0  0  0  0  0  0  0  0
   -8.9239    3.2296    4.3880 C   0  0  0  0  0  0  0  0  0  0  0  0
  -10.3049    3.7462    3.4962 Cl  0  0  0  0  0  0  0  0  0  0  0  0
   -9.0918    2.6153    5.6288 C   0  0  0  0  0  0  0  0  0  0  0  0
   -6.5696   -0.1378    7.5801 N   0  0  0  0  0  0  0  0  0  0  0  0
   -4.8038   -1.7761    6.0623 C   0  0  0  0  0  0  0  0  0  0  0  0
    0.7392   -3.1644    1.6736 C   0  0  0  0  0  0  0  0  0  0  0  0
    0.4447   -4.6870    1.7746 C   0  0  0  0  0  0  0  0  0  0  0  0
   -1.0483   -6.9955   -0.1939 H   0  0  0  0  0  0  0  0  0  0  0  0
   -1.2390   -6.8200    1.5634 H   0  0  0  0  0  0  0  0  0  0  0  0
    0.3444   -7.2104    0.8551 H   0  0  0  0  0  0  0  0  0  0  0  0
   -2.2042   -4.5391    1.0904 H   0  0  0  0  0  0  0  0  0  0  0  0
   -1.9060   -4.7425   -0.6367 H   0  0  0  0  0  0  0  0  0  0  0  0
   -1.9856   -2.3421   -0.1303 H   0  0  0  0  0  0  0  0  0  0  0  0
   -0.4157   -2.7968   -0.7006 H   0  0  0  0  0  0  0  0  0  0  0  0
   -0.7410   -1.7000    3.3149 H   0  0  0  0  0  0  0  0  0  0  0  0
   -1.6015   -3.1626    2.8814 H   0  0  0  0  0  0  0  0  0  0  0  0
   -3.1843   -1.7364    1.4628 H   0  0  0  0  0  0  0  0  0  0  0  0
   -2.2603   -0.3120    1.9530 H   0  0  0  0  0  0  0  0  0  0  0  0
   -4.2602   -0.5250    3.3227 H   0  0  0  0  0  0  0  0  0  0  0  0
   -2.8246   -0.7854    4.3316 H   0  0  0  0  0  0  0  0  0  0  0  0
   -3.5283   -3.3130    3.4327 H   0  0  0  0  0  0  0  0  0  0  0  0
   -3.6739   -4.8373    5.2141 H   0  0  0  0  0  0  0  0  0  0  0  0
   -5.1128   -3.6592    8.8566 H   0  0  0  0  0  0  0  0  0  0  0  0
   -5.0356   -1.6510   10.1827 H   0  0  0  0  0  0  0  0  0  0  0  0
   -7.7843    1.3993   10.3087 H   0  0  0  0  0  0  0  0  0  0  0  0
   -8.4583    2.3880    8.2741 H   0  0  0  0  0  0  0  0  0  0  0  0
   -5.8124    2.1134    6.3819 H   0  0  0  0  0  0  0  0  0  0  0  0
   -5.5354    3.2015    4.1949 H   0  0  0  0  0  0  0  0  0  0  0  0
   -7.5226    3.9248    2.8986 H   0  0  0  0  0  0  0  0  0  0  0  0
  -10.0918    2.4588    6.0247 H   0  0  0  0  0  0  0  0  0  0  0  0
   -5.0274   -0.7921    5.6561 H   0  0  0  0  0  0  0  0  0  0  0  0
    1.2011   -2.8198    2.6073 H   0  0  0  0  0  0  0  0  0  0  0  0
    1.4986   -3.0093    0.8955 H   0  0  0  0  0  0  0  0  0  0  0  0
   -0.1450   -4.8860    2.6784 H   0  0  0  0  0  0  0  0  0  0  0  0
    1.4009   -5.2104    1.8953 H   0  0  0  0  0  0  0  0  0  0  0  0
  1  2  1  0  0  0  0
  1 32  1  0  0  0  0
  1 33  1  0  0  0  0
  1 34  1  0  0  0  0
  2  3  1  0  0  0  0
  2 31  1  0  0  0  0
  3  4  1  0  0  0  0
  3 35  1  0  0  0  0
  3 36  1  0  0  0  0
  4  5  1  0  0  0  0
  4 37  1  0  0  0  0
  4 38  1  0  0  0  0
  5  6  1  0  0  0  0
  5 30  1  0  0  0  0
  6  7  1  0  0  0  0
  6 39  1  0  0  0  0
  6 40  1  0  0  0  0
  7  8  1  0  0  0  0
  7 41  1  0  0  0  0
  7 42  1  0  0  0  0
  8  9  1  0  0  0  0
  8 43  1  0  0  0  0
  8 44  1  0  0  0  0
  9 10  1  0  0  0  0
  9 45  1  0  0  0  0
 10 11  1  0  0  0  0
 10 29  2  0  0  0  0
 11 12  2  0  0  0  0
 11 46  1  0  0  0  0
 12 13  1  0  0  0  0
 13 14  2  0  0  0  0
 13 47  1  0  0  0  0
 14 15  1  0  0  0  0
 14 29  1  0  0  0  0
 15 16  1  0  0  0  0
 15 28  2  0  0  0  0
 16 17  2  0  0  0  0
 16 48  1  0  0  0  0
 17 18  1  0  0  0  0
 18 19  2  0  0  0  0
 18 49  1  0  0  0  0
 19 20  1  0  0  0  0
 19 28  1  0  0  0  0
 20 21  1  0  0  0  0
 20 50  1  0  0  0  0
 21 22  1  0  0  0  0
 21 27  2  0  0  0  0
 22 23  2  0  0  0  0
 22 51  1  0  0  0  0
 23 24  1  0  0  0  0
 23 52  1  0  0  0  0
 24 25  2  0  0  0  0
 24 53  1  0  0  0  0
 25 26  1  0  0  0  0
 25 27  1  0  0  0  0
 27 54  1  0  0  0  0
 29 55  1  0  0  0  0
 30 31  1  0  0  0  0
 30 56  1  0  0  0  0
 30 57  1  0  0  0  0
 31 58  1  0  0  0  0
 31 59  1  0  0  0  0
M  END
$$$$
