CHEMBL296204
 OpenBabel04072215363D

 39 42  0  0  0  0  0  0  0  0999 V2000
   -1.9967   -1.0196    2.3038 O   0  5  0  0  0  0  0  0  0  0  0  0
   -0.8396   -0.7307    1.8664 N   0  3  0  0  0  0  0  0  0  0  0  0
   -0.3139    0.5349    2.0619 C   0  0  0  0  0  0  0  0  0  0  0  0
    0.9433    0.8752    1.5831 C   0  0  0  0  0  0  0  0  0  0  0  0
    1.6859   -0.0864    0.9045 C   0  0  0  0  0  0  0  0  0  0  0  0
    1.1920   -1.3804    0.7022 C   0  0  0  0  0  0  0  0  0  0  0  0
    1.9416   -2.3725    0.0417 N   0  0  0  0  0  0  0  0  0  0  0  0
    3.3330   -2.4329   -0.0365 C   0  0  0  0  0  0  0  0  0  0  0  0
    3.8894   -3.0042   -1.1093 N   0  0  0  0  0  0  0  0  0  0  0  0
    5.2374   -2.9874   -1.1737 C   0  0  0  0  0  0  0  0  0  0  0  0
    6.0512   -2.4299   -0.2134 C   0  0  0  0  0  0  0  0  0  0  0  0
    5.3936   -1.9328    0.8862 C   0  0  0  0  0  0  0  0  0  0  0  0
    6.1073   -1.4225    2.0008 N   0  0  0  0  0  0  0  0  0  0  0  0
    7.3046   -0.7406    1.9409 C   0  0  0  0  0  0  0  0  0  0  0  0
    7.5063   -0.2343    3.1996 C   0  0  0  0  0  0  0  0  0  0  0  0
    6.5310   -0.6606    4.0536 N   0  0  0  0  0  0  0  0  0  0  0  0
    5.7177   -1.4366    3.3468 C   0  0  0  0  0  0  0  0  0  0  0  0
    4.6255   -2.2344    3.9475 C   0  0  0  0  0  0  0  0  0  0  0  0
    3.9882   -1.7746    5.1094 C   0  0  0  0  0  0  0  0  0  0  0  0
    2.9366   -2.4954    5.6881 C   0  0  0  0  0  0  0  0  0  0  0  0
    2.5007   -3.6852    5.1096 C   0  0  0  0  0  0  0  0  0  0  0  0
    3.1462   -4.1789    3.9824 C   0  0  0  0  0  0  0  0  0  0  0  0
    4.2208   -3.4764    3.4314 C   0  0  0  0  0  0  0  0  0  0  0  0
    4.0514   -1.9212    0.9657 N   0  0  0  0  0  0  0  0  0  0  0  0
   -0.0849   -1.6707    1.1811 C   0  0  0  0  0  0  0  0  0  0  0  0
   -0.9693    1.1968    2.6055 H   0  0  0  0  0  0  0  0  0  0  0  0
    1.3471    1.8698    1.7404 H   0  0  0  0  0  0  0  0  0  0  0  0
    2.6700    0.1939    0.5360 H   0  0  0  0  0  0  0  0  0  0  0  0
    1.5361   -2.7290   -0.8137 H   0  0  0  0  0  0  0  0  0  0  0  0
    5.6614   -3.4686   -2.0520 H   0  0  0  0  0  0  0  0  0  0  0  0
    7.1262   -2.4671   -0.3038 H   0  0  0  0  0  0  0  0  0  0  0  0
    7.8442   -0.5846    1.0183 H   0  0  0  0  0  0  0  0  0  0  0  0
    8.3012    0.4195    3.5357 H   0  0  0  0  0  0  0  0  0  0  0  0
    4.3115   -0.8446    5.5735 H   0  0  0  0  0  0  0  0  0  0  0  0
    2.4541   -2.1233    6.5879 H   0  0  0  0  0  0  0  0  0  0  0  0
    1.6665   -4.2318    5.5410 H   0  0  0  0  0  0  0  0  0  0  0  0
    2.8171   -5.1079    3.5245 H   0  0  0  0  0  0  0  0  0  0  0  0
    4.7181   -3.9159    2.5725 H   0  0  0  0  0  0  0  0  0  0  0  0
   -0.5742   -2.6293    1.1087 H   0  0  0  0  0  0  0  0  0  0  0  0
  1  2  1  0  0  0  0
  2  3  1  0  0  0  0
  2 25  2  0  0  0  0
  3  4  2  0  0  0  0
  3 26  1  0  0  0  0
  4  5  1  0  0  0  0
  4 27  1  0  0  0  0
  5  6  2  0  0  0  0
  5 28  1  0  0  0  0
  6  7  1  0  0  0  0
  6 25  1  0  0  0  0
  7  8  1  0  0  0  0
  7 29  1  0  0  0  0
  8  9  1  0  0  0  0
  8 24  2  0  0  0  0
  9 10  2  0  0  0  0
 10 11  1  0  0  0  0
 10 30  1  0  0  0  0
 11 12  2  0  0  0  0
 11 31  1  0  0  0  0
 12 13  1  0  0  0  0
 12 24  1  0  0  0  0
 13 14  1  0  0  0  0
 13 17  1  0  0  0  0
 14 15  2  0  0  0  0
 14 32  1  0  0  0  0
 15 16  1  0  0  0  0
 15 33  1  0  0  0  0
 16 17  2  0  0  0  0
 17 18  1  0  0  0  0
 18 19  1  0  0  0  0
 18 23  2  0  0  0  0
 19 20  2  0  0  0  0
 19 34  1  0  0  0  0
 20 21  1  0  0  0  0
 20 35  1  0  0  0  0
 21 22  2  0  0  0  0
 21 36  1  0  0  0  0
 22 23  1  0  0  0  0
 22 37  1  0  0  0  0
 23 38  1  0  0  0  0
 25 39  1  0  0  0  0
M  CHG  2   1  -1   2   1
M  END
$$$$
