CHEMBL281948
 OpenBabel04072215363D

 56 63  0  0  1  0  0  0  0  0999 V2000
    4.9932    1.5904   -3.9733 C   0  0  0  0  0  0  0  0  0  0  0  0
    4.5615    1.8141   -2.6202 O   0  0  0  0  0  0  0  0  0  0  0  0
    5.4796    1.6068   -1.6228 C   0  0  0  0  0  0  0  0  0  0  0  0
    6.6070    1.1719   -1.8325 O   0  0  0  0  0  0  0  0  0  0  0  0
    4.8453    1.7382   -0.2127 C   0  0  1  0  0  0  0  0  0  0  0  0
    4.2423    0.4388   -0.0924 O   0  0  0  0  0  0  0  0  0  0  0  0
    5.8124    2.2438    1.0033 C   0  0  0  0  0  0  0  0  0  0  0  0
    5.5397    3.9007    1.2268 C   0  0  1  0  0  0  0  0  0  0  0  0
    4.9745    3.9327   -0.0316 O   0  0  0  0  0  0  0  0  0  0  0  0
    3.8970    2.8662    0.0047 C   0  0  1  0  0  0  0  0  0  0  0  0
    3.0790    3.6423   -1.0384 C   0  0  0  0  0  0  0  0  0  0  0  0
    3.2127    2.5407    1.3645 N   0  0  0  0  0  0  0  0  0  0  0  0
    3.1304    1.4896    2.4136 C   0  0  0  0  0  0  0  0  0  0  0  0
    3.7658    0.2284    2.6180 C   0  0  0  0  0  0  0  0  0  0  0  0
    3.7096   -0.4516    3.8537 C   0  0  0  0  0  0  0  0  0  0  0  0
    3.0008    0.0441    4.9293 C   0  0  0  0  0  0  0  0  0  0  0  0
    2.2799    1.2172    4.7835 C   0  0  0  0  0  0  0  0  0  0  0  0
    2.3143    1.9531    3.5765 C   0  0  0  0  0  0  0  0  0  0  0  0
    1.8556    3.2292    3.2777 C   0  0  0  0  0  0  0  0  0  0  0  0
    1.2494    4.1905    4.1026 C   0  0  0  0  0  0  0  0  0  0  0  0
    1.3249    5.4818    3.5515 C   0  0  0  0  0  0  0  0  0  0  0  0
    2.4702    5.5991    2.7405 C   0  0  0  0  0  0  0  0  0  0  0  0
    2.8059    6.4996    1.7511 C   0  0  0  0  0  0  0  0  0  0  0  0
    2.0680    7.3871    0.9537 C   0  0  0  0  0  0  0  0  0  0  0  0
    2.7392    8.2935    0.1838 C   0  0  0  0  0  0  0  0  0  0  0  0
    4.1423    8.3165    0.2373 C   0  0  0  0  0  0  0  0  0  0  0  0
    4.9156    7.2778    0.8351 C   0  0  0  0  0  0  0  0  0  0  0  0
    4.2207    6.2301    1.4434 C   0  0  0  0  0  0  0  0  0  0  0  0
    4.5832    4.8592    1.8204 N   0  0  0  0  0  0  0  0  0  0  0  0
    3.3730    4.6213    2.3622 C   0  0  0  0  0  0  0  0  0  0  0  0
    2.6876    3.4626    2.1786 C   0  0  0  0  0  0  0  0  0  0  0  0
    0.5853    6.3970    4.3524 C   0  0  0  0  0  0  0  0  0  0  0  0
    0.3026    7.5761    4.2373 O   0  0  0  0  0  0  0  0  0  0  0  0
    0.1474    5.6050    5.4158 N   0  0  0  0  0  0  0  0  0  0  0  0
    0.6372    4.2340    5.4255 C   0  0  0  0  0  0  0  0  0  0  0  0
    4.2487    2.0313   -4.6486 H   0  0  0  0  0  0  0  0  0  0  0  0
    5.0360    0.5169   -4.1779 H   0  0  0  0  0  0  0  0  0  0  0  0
    5.9560    2.0673   -4.1816 H   0  0  0  0  0  0  0  0  0  0  0  0
    3.2694    0.5290   -0.0317 H   0  0  0  0  0  0  0  0  0  0  0  0
    6.8408    2.1212    0.6415 H   0  0  0  0  0  0  0  0  0  0  0  0
    5.7458    1.6600    1.9215 H   0  0  0  0  0  0  0  0  0  0  0  0
    6.5249    4.3618    1.3443 H   0  0  0  0  0  0  0  0  0  0  0  0
    3.6101    3.7235   -2.0009 H   0  0  0  0  0  0  0  0  0  0  0  0
    3.0530    4.7114   -0.7617 H   0  0  0  0  0  0  0  0  0  0  0  0
    2.0576    3.3385   -1.1943 H   0  0  0  0  0  0  0  0  0  0  0  0
    4.4171   -0.2350    1.8866 H   0  0  0  0  0  0  0  0  0  0  0  0
    4.2765   -1.3733    3.9810 H   0  0  0  0  0  0  0  0  0  0  0  0
    3.0247   -0.4628    5.8918 H   0  0  0  0  0  0  0  0  0  0  0  0
    1.7646    1.6202    5.6524 H   0  0  0  0  0  0  0  0  0  0  0  0
    0.9788    7.3368    0.9276 H   0  0  0  0  0  0  0  0  0  0  0  0
    2.2110    9.0014   -0.4287 H   0  0  0  0  0  0  0  0  0  0  0  0
    4.6626    9.1818   -0.1687 H   0  0  0  0  0  0  0  0  0  0  0  0
    5.9987    7.3234    0.8440 H   0  0  0  0  0  0  0  0  0  0  0  0
   -0.2914    6.0736    6.1924 H   0  0  0  0  0  0  0  0  0  0  0  0
   -0.1882    3.5480    5.5867 H   0  0  0  0  0  0  0  0  0  0  0  0
    1.4050    4.1614    6.2064 H   0  0  0  0  0  0  0  0  0  0  0  0
  1  2  1  0  0  0  0
  1 36  1  0  0  0  0
  1 37  1  0  0  0  0
  1 38  1  0  0  0  0
  2  3  1  0  0  0  0
  3  4  2  0  0  0  0
  5  7  1  0  0  0  0
  5 10  1  0  0  0  0
  5  6  1  1  0  0  0
  5  3  1  0  0  0  0
  6 39  1  0  0  0  0
  7  8  1  0  0  0  0
  7 40  1  0  0  0  0
  7 41  1  0  0  0  0
  8  9  1  0  0  0  0
  8 29  1  0  0  0  0
  8 42  1  6  0  0  0
  9 10  1  0  0  0  0
 10 11  1  6  0  0  0
 10 12  1  0  0  0  0
 11 43  1  0  0  0  0
 11 44  1  0  0  0  0
 11 45  1  0  0  0  0
 12 13  1  0  0  0  0
 12 31  1  0  0  0  0
 13 14  1  0  0  0  0
 13 18  2  0  0  0  0
 14 15  2  0  0  0  0
 14 46  1  0  0  0  0
 15 16  1  0  0  0  0
 15 47  1  0  0  0  0
 16 17  2  0  0  0  0
 16 48  1  0  0  0  0
 17 18  1  0  0  0  0
 17 49  1  0  0  0  0
 18 19  1  0  0  0  0
 19 20  1  0  0  0  0
 19 31  2  0  0  0  0
 20 21  2  0  0  0  0
 20 35  1  0  0  0  0
 21 22  1  0  0  0  0
 21 32  1  0  0  0  0
 22 23  1  0  0  0  0
 22 30  2  0  0  0  0
 23 24  1  0  0  0  0
 23 28  2  0  0  0  0
 24 25  2  0  0  0  0
 24 50  1  0  0  0  0
 25 26  1  0  0  0  0
 25 51  1  0  0  0  0
 26 27  2  0  0  0  0
 26 52  1  0  0  0  0
 27 28  1  0  0  0  0
 27 53  1  0  0  0  0
 28 29  1  0  0  0  0
 29 30  1  0  0  0  0
 30 31  1  0  0  0  0
 32 33  2  0  0  0  0
 32 34  1  0  0  0  0
 34 35  1  0  0  0  0
 34 54  1  0  0  0  0
 35 55  1  0  0  0  0
 35 56  1  0  0  0  0
M  END
$$$$
