CHEMBL2018757
 OpenBabel04072215363D

 53 55  0  0  0  0  0  0  0  0999 V2000
    7.3215    2.2812   -2.3686 C   0  0  0  0  0  0  0  0  0  0  0  0
    7.1385    1.0240   -1.5291 C   0  0  0  0  0  0  0  0  0  0  0  0
    6.3508    1.3452   -0.2629 C   0  0  0  0  0  0  0  0  0  0  0  0
    6.1738    0.1916    0.5801 O   0  0  0  0  0  0  0  0  0  0  0  0
    7.0718    0.1107    1.6068 C   0  0  0  0  0  0  0  0  0  0  0  0
    8.0782    0.8116    1.6679 O   0  0  0  0  0  0  0  0  0  0  0  0
    6.6732   -0.8479    2.4994 N   0  0  0  0  0  0  0  0  0  0  0  0
    7.2867   -1.1726    3.7338 C   0  0  0  0  0  0  0  0  0  0  0  0
    8.3338   -0.4052    4.2539 C   0  0  0  0  0  0  0  0  0  0  0  0
    8.9474   -0.7364    5.4642 C   0  0  0  0  0  0  0  0  0  0  0  0
    8.5014   -1.8153    6.2254 C   0  0  0  0  0  0  0  0  0  0  0  0
    9.1758   -2.1308    7.4243 N   0  0  0  0  0  0  0  0  0  0  0  0
    8.6771   -2.8147    8.5650 C   0  0  0  0  0  0  0  0  0  0  0  0
    7.3685   -3.0955    8.6451 N   0  0  0  0  0  0  0  0  0  0  0  0
    6.9523   -3.7786    9.7087 C   0  0  0  0  0  0  0  0  0  0  0  0
    7.7276   -4.2320   10.7028 N   0  0  0  0  0  0  0  0  0  0  0  0
    9.0358   -3.9573   10.6222 C   0  0  0  0  0  0  0  0  0  0  0  0
    9.9091   -4.4555   11.5875 C   0  0  0  0  0  0  0  0  0  0  0  0
   11.3061   -4.2328   11.5731 C   0  0  0  0  0  0  0  0  0  0  0  0
   11.9705   -5.0326   12.4613 O   0  0  0  0  0  0  0  0  0  0  0  0
   12.8163   -4.4217   13.4210 C   0  0  0  0  0  0  0  0  0  0  0  0
   11.8440   -3.4330   10.5658 C   0  0  0  0  0  0  0  0  0  0  0  0
   13.0975   -3.0152   10.2592 O   0  0  0  0  0  0  0  0  0  0  0  0
   14.2560   -3.4201   10.9427 C   0  0  0  0  0  0  0  0  0  0  0  0
   10.9693   -2.9495    9.5768 C   0  0  0  0  0  0  0  0  0  0  0  0
    9.5770   -3.2194    9.5738 C   0  0  0  0  0  0  0  0  0  0  0  0
    7.4667   -2.5936    5.6956 C   0  0  0  0  0  0  0  0  0  0  0  0
    6.8503   -2.2935    4.4609 C   0  0  0  0  0  0  0  0  0  0  0  0
    5.7637   -3.2157    3.9765 C   0  0  0  0  0  0  0  0  0  0  0  0
    7.8525    2.0576   -3.2986 H   0  0  0  0  0  0  0  0  0  0  0  0
    7.8994    3.0337   -1.8209 H   0  0  0  0  0  0  0  0  0  0  0  0
    6.3528    2.7221   -2.6271 H   0  0  0  0  0  0  0  0  0  0  0  0
    8.1174    0.5978   -1.2797 H   0  0  0  0  0  0  0  0  0  0  0  0
    6.6110    0.2594   -2.1109 H   0  0  0  0  0  0  0  0  0  0  0  0
    5.3463    1.6869   -0.5293 H   0  0  0  0  0  0  0  0  0  0  0  0
    6.8208    2.1744    0.2822 H   0  0  0  0  0  0  0  0  0  0  0  0
    5.8470   -1.3556    2.2205 H   0  0  0  0  0  0  0  0  0  0  0  0
    8.7054    0.4806    3.7495 H   0  0  0  0  0  0  0  0  0  0  0  0
    9.7797   -0.1239    5.8009 H   0  0  0  0  0  0  0  0  0  0  0  0
    9.7969   -1.3809    7.7091 H   0  0  0  0  0  0  0  0  0  0  0  0
    5.8935   -3.9918    9.7685 H   0  0  0  0  0  0  0  0  0  0  0  0
    9.4809   -5.0856   12.3683 H   0  0  0  0  0  0  0  0  0  0  0  0
   12.6623   -4.9115   14.3883 H   0  0  0  0  0  0  0  0  0  0  0  0
   12.6518   -3.3473   13.5422 H   0  0  0  0  0  0  0  0  0  0  0  0
   13.8522   -4.6397   13.1518 H   0  0  0  0  0  0  0  0  0  0  0  0
   15.1102   -3.0378   10.3729 H   0  0  0  0  0  0  0  0  0  0  0  0
   14.3495   -4.5072   10.9803 H   0  0  0  0  0  0  0  0  0  0  0  0
   14.3150   -2.9416   11.9221 H   0  0  0  0  0  0  0  0  0  0  0  0
   11.4049   -2.3817    8.7600 H   0  0  0  0  0  0  0  0  0  0  0  0
    7.1373   -3.4755    6.2416 H   0  0  0  0  0  0  0  0  0  0  0  0
    5.6969   -4.1160    4.5990 H   0  0  0  0  0  0  0  0  0  0  0  0
    5.9775   -3.5538    2.9579 H   0  0  0  0  0  0  0  0  0  0  0  0
    4.7895   -2.7181    4.0057 H   0  0  0  0  0  0  0  0  0  0  0  0
  1  2  1  0  0  0  0
  1 30  1  0  0  0  0
  1 31  1  0  0  0  0
  1 32  1  0  0  0  0
  2  3  1  0  0  0  0
  2 33  1  0  0  0  0
  2 34  1  0  0  0  0
  3  4  1  0  0  0  0
  3 35  1  0  0  0  0
  3 36  1  0  0  0  0
  4  5  1  0  0  0  0
  5  6  2  0  0  0  0
  5  7  1  0  0  0  0
  7  8  1  0  0  0  0
  7 37  1  0  0  0  0
  8  9  1  0  0  0  0
  8 28  2  0  0  0  0
  9 10  2  0  0  0  0
  9 38  1  0  0  0  0
 10 11  1  0  0  0  0
 10 39  1  0  0  0  0
 11 12  1  0  0  0  0
 11 27  2  0  0  0  0
 12 13  1  0  0  0  0
 12 40  1  0  0  0  0
 13 14  1  0  0  0  0
 13 26  2  0  0  0  0
 14 15  2  0  0  0  0
 15 16  1  0  0  0  0
 15 41  1  0  0  0  0
 16 17  2  0  0  0  0
 17 18  1  0  0  0  0
 17 26  1  0  0  0  0
 18 19  2  0  0  0  0
 18 42  1  0  0  0  0
 19 20  1  0  0  0  0
 19 22  1  0  0  0  0
 20 21  1  0  0  0  0
 21 43  1  0  0  0  0
 21 44  1  0  0  0  0
 21 45  1  0  0  0  0
 22 23  1  0  0  0  0
 22 25  2  0  0  0  0
 23 24  1  0  0  0  0
 24 46  1  0  0  0  0
 24 47  1  0  0  0  0
 24 48  1  0  0  0  0
 25 26  1  0  0  0  0
 25 49  1  0  0  0  0
 27 28  1  0  0  0  0
 27 50  1  0  0  0  0
 28 29  1  0  0  0  0
 29 51  1  0  0  0  0
 29 52  1  0  0  0  0
 29 53  1  0  0  0  0
M  END
$$$$
