CHEMBL3822938
 OpenBabel04072215373D

 36 38  0  0  0  0  0  0  0  0999 V2000
   -1.4078    3.1254    0.2781 C   0  0  0  0  0  0  0  0  0  0  0  0
   -0.5684    2.4769    1.3447 C   0  0  0  0  0  0  0  0  0  0  0  0
   -1.1575    2.2569    2.6080 C   0  0  0  0  0  0  0  0  0  0  0  0
   -0.4522    1.6348    3.6383 C   0  0  0  0  0  0  0  0  0  0  0  0
    0.8440    1.2118    3.4021 C   0  0  0  0  0  0  0  0  0  0  0  0
    1.5772    0.5729    4.3588 O   0  0  0  0  0  0  0  0  0  0  0  0
    1.4498    1.4446    2.1765 C   0  0  0  0  0  0  0  0  0  0  0  0
    0.7783    2.1158    1.1381 C   0  0  0  0  0  0  0  0  0  0  0  0
    1.4848    2.4749   -0.0330 N   0  0  0  0  0  0  0  0  0  0  0  0
    2.8853    2.6687   -0.1647 C   0  0  0  0  0  0  0  0  0  0  0  0
    3.5807    3.3312    0.8521 C   0  0  0  0  0  0  0  0  0  0  0  0
    4.9586    3.3985    0.7926 C   0  0  0  0  0  0  0  0  0  0  0  0
    5.6822    2.8577   -0.2034 N   0  0  0  0  0  0  0  0  0  0  0  0
    5.0301    2.2204   -1.1859 C   0  0  0  0  0  0  0  0  0  0  0  0
    5.7926    1.6138   -2.1707 C   0  0  0  0  0  0  0  0  0  0  0  0
    5.2124    0.8908   -3.2131 C   0  0  0  0  0  0  0  0  0  0  0  0
    3.8242    0.7768   -3.3016 C   0  0  0  0  0  0  0  0  0  0  0  0
    3.1710   -0.0154   -4.4082 C   0  0  0  0  0  0  0  0  0  0  0  0
    4.0576   -0.6873   -5.1940 F   0  0  0  0  0  0  0  0  0  0  0  0
    2.3073   -0.9552   -3.9338 F   0  0  0  0  0  0  0  0  0  0  0  0
    2.4440    0.7694   -5.2499 F   0  0  0  0  0  0  0  0  0  0  0  0
    3.0366    1.4002   -2.3192 C   0  0  0  0  0  0  0  0  0  0  0  0
    3.6206    2.1089   -1.2399 C   0  0  0  0  0  0  0  0  0  0  0  0
   -2.4741    3.0599    0.5252 H   0  0  0  0  0  0  0  0  0  0  0  0
   -1.2826    2.6106   -0.6798 H   0  0  0  0  0  0  0  0  0  0  0  0
   -1.1455    4.1811    0.1690 H   0  0  0  0  0  0  0  0  0  0  0  0
   -2.1807    2.5760    2.7970 H   0  0  0  0  0  0  0  0  0  0  0  0
   -0.9282    1.4874    4.6021 H   0  0  0  0  0  0  0  0  0  0  0  0
    1.0158    0.4415    5.1375 H   0  0  0  0  0  0  0  0  0  0  0  0
    2.4684    1.0910    2.0343 H   0  0  0  0  0  0  0  0  0  0  0  0
    0.9363    2.7205   -0.8455 H   0  0  0  0  0  0  0  0  0  0  0  0
    3.0592    3.7743    1.6935 H   0  0  0  0  0  0  0  0  0  0  0  0
    5.5267    3.8818    1.5770 H   0  0  0  0  0  0  0  0  0  0  0  0
    6.8776    1.6804   -2.1084 H   0  0  0  0  0  0  0  0  0  0  0  0
    5.8575    0.4095   -3.9489 H   0  0  0  0  0  0  0  0  0  0  0  0
    1.9535    1.3039   -2.3802 H   0  0  0  0  0  0  0  0  0  0  0  0
  1  2  1  0  0  0  0
  1 24  1  0  0  0  0
  1 25  1  0  0  0  0
  1 26  1  0  0  0  0
  2  3  1  0  0  0  0
  2  8  2  0  0  0  0
  3  4  2  0  0  0  0
  3 27  1  0  0  0  0
  4  5  1  0  0  0  0
  4 28  1  0  0  0  0
  5  6  1  0  0  0  0
  5  7  2  0  0  0  0
  6 29  1  0  0  0  0
  7  8  1  0  0  0  0
  7 30  1  0  0  0  0
  8  9  1  0  0  0  0
  9 10  1  0  0  0  0
  9 31  1  0  0  0  0
 10 11  1  0  0  0  0
 10 23  2  0  0  0  0
 11 12  2  0  0  0  0
 11 32  1  0  0  0  0
 12 13  1  0  0  0  0
 12 33  1  0  0  0  0
 13 14  2  0  0  0  0
 14 15  1  0  0  0  0
 14 23  1  0  0  0  0
 15 16  2  0  0  0  0
 15 34  1  0  0  0  0
 16 17  1  0  0  0  0
 16 35  1  0  0  0  0
 17 18  1  0  0  0  0
 17 22  2  0  0  0  0
 18 19  1  0  0  0  0
 18 20  1  0  0  0  0
 18 21  1  0  0  0  0
 22 23  1  0  0  0  0
 22 36  1  0  0  0  0
M  END
$$$$
