CHEMBL404005
 OpenBabel04072215373D

 40 43  0  0  0  0  0  0  0  0999 V2000
    3.1662    0.6368   -0.8125 C   0  0  0  0  0  0  0  0  0  0  0  0
    2.3504   -0.1775    0.0291 O   0  0  0  0  0  0  0  0  0  0  0  0
    2.9985   -0.6778    1.1374 C   0  0  0  0  0  0  0  0  0  0  0  0
    3.9512    0.0780    1.8473 C   0  0  0  0  0  0  0  0  0  0  0  0
    4.5968   -0.4364    2.9662 C   0  0  0  0  0  0  0  0  0  0  0  0
    4.2953   -1.7115    3.4341 C   0  0  0  0  0  0  0  0  0  0  0  0
    3.3166   -2.4524    2.7561 C   0  0  0  0  0  0  0  0  0  0  0  0
    2.6557   -1.9749    1.6128 C   0  0  0  0  0  0  0  0  0  0  0  0
    1.7464   -3.0153    1.1995 C   0  0  0  0  0  0  0  0  0  0  0  0
    0.8150   -2.9824    0.1123 C   0  0  0  0  0  0  0  0  0  0  0  0
    0.3423   -3.9841   -0.6478 C   0  0  0  0  0  0  0  0  0  0  0  0
    0.7608   -5.4089   -0.7117 C   0  0  0  0  0  0  0  0  0  0  0  0
    1.4328   -6.0710    0.0478 O   0  0  0  0  0  0  0  0  0  0  0  0
    0.1779   -5.8492   -1.8900 N   0  0  0  0  0  0  0  0  0  0  0  0
   -0.6791   -4.9590   -2.4879 N   0  0  0  0  0  0  0  0  0  0  0  0
   -0.6514   -3.8654   -1.7590 C   0  0  0  0  0  0  0  0  0  0  0  0
   -1.5699   -2.7938   -2.0245 C   0  0  0  0  0  0  0  0  0  0  0  0
   -2.2227   -1.8132   -0.7758 S   0  0  0  0  0  0  0  0  0  0  0  0
   -3.1820   -0.9348   -1.8100 N   0  0  0  0  0  0  0  0  0  0  0  0
   -3.1011   -1.3521   -3.0581 N   0  0  0  0  0  0  0  0  0  0  0  0
   -2.2218   -2.4237   -3.1990 C   0  0  0  0  0  0  0  0  0  0  0  0
   -2.0888   -3.0154   -4.5565 C   0  0  0  0  0  0  0  0  0  0  0  0
    1.8429   -4.0344    2.1210 C   0  0  0  0  0  0  0  0  0  0  0  0
    2.8110   -3.7046    3.0267 N   0  0  0  0  0  0  0  0  0  0  0  0
    3.2193   -4.5406    4.1333 C   0  0  0  0  0  0  0  0  0  0  0  0
    2.6042    0.8454   -1.7274 H   0  0  0  0  0  0  0  0  0  0  0  0
    4.0895    0.1169   -1.0915 H   0  0  0  0  0  0  0  0  0  0  0  0
    3.3878    1.6031   -0.3478 H   0  0  0  0  0  0  0  0  0  0  0  0
    4.1998    1.0917    1.5502 H   0  0  0  0  0  0  0  0  0  0  0  0
    5.3380    0.1657    3.4865 H   0  0  0  0  0  0  0  0  0  0  0  0
    4.7968   -2.1051    4.3127 H   0  0  0  0  0  0  0  0  0  0  0  0
    0.4893   -1.9732   -0.1264 H   0  0  0  0  0  0  0  0  0  0  0  0
    0.2523   -6.8046   -2.2213 H   0  0  0  0  0  0  0  0  0  0  0  0
   -2.8550   -2.6120   -5.2284 H   0  0  0  0  0  0  0  0  0  0  0  0
   -2.2177   -4.1005   -4.5326 H   0  0  0  0  0  0  0  0  0  0  0  0
   -1.1096   -2.7808   -4.9839 H   0  0  0  0  0  0  0  0  0  0  0  0
    1.3111   -4.9727    2.2090 H   0  0  0  0  0  0  0  0  0  0  0  0
    2.6178   -5.4528    4.1480 H   0  0  0  0  0  0  0  0  0  0  0  0
    3.0668   -3.9846    5.0623 H   0  0  0  0  0  0  0  0  0  0  0  0
    4.2745   -4.7929    4.0018 H   0  0  0  0  0  0  0  0  0  0  0  0
  1  2  1  0  0  0  0
  1 26  1  0  0  0  0
  1 27  1  0  0  0  0
  1 28  1  0  0  0  0
  2  3  1  0  0  0  0
  3  4  1  0  0  0  0
  3  8  2  0  0  0  0
  4  5  2  0  0  0  0
  4 29  1  0  0  0  0
  5  6  1  0  0  0  0
  5 30  1  0  0  0  0
  6  7  2  0  0  0  0
  6 31  1  0  0  0  0
  7  8  1  0  0  0  0
  7 24  1  0  0  0  0
  8  9  1  0  0  0  0
  9 10  1  0  0  0  0
  9 23  2  0  0  0  0
 10 11  2  0  0  0  0
 10 32  1  0  0  0  0
 11 12  1  0  0  0  0
 11 16  1  0  0  0  0
 12 13  2  0  0  0  0
 12 14  1  0  0  0  0
 14 15  1  0  0  0  0
 14 33  1  0  0  0  0
 15 16  2  0  0  0  0
 16 17  1  0  0  0  0
 17 18  1  0  0  0  0
 17 21  2  0  0  0  0
 18 19  1  0  0  0  0
 19 20  2  0  0  0  0
 20 21  1  0  0  0  0
 21 22  1  0  0  0  0
 22 34  1  0  0  0  0
 22 35  1  0  0  0  0
 22 36  1  0  0  0  0
 23 24  1  0  0  0  0
 23 37  1  0  0  0  0
 24 25  1  0  0  0  0
 25 38  1  0  0  0  0
 25 39  1  0  0  0  0
 25 40  1  0  0  0  0
M  END
$$$$
