CHEMBL1969264
 OpenBabel04072215363D

 42 45  0  0  0  0  0  0  0  0999 V2000
    3.6015    0.1096    1.5620 C   0  0  0  0  0  0  0  0  0  0  0  0
    2.7540    0.1987    0.2838 C   0  0  0  0  0  0  0  0  0  0  0  0
    2.8037   -1.1552   -0.4402 C   0  0  0  0  0  0  0  0  0  0  0  0
    1.3042    0.5187    0.7012 C   0  0  0  0  0  0  0  0  0  0  0  0
    3.2735    1.2655   -0.5876 N   0  0  0  0  0  0  0  0  0  0  0  0
    4.5649    1.2593   -1.1046 C   0  0  0  0  0  0  0  0  0  0  0  0
    5.4054    0.3973   -0.9114 O   0  0  0  0  0  0  0  0  0  0  0  0
    4.9064    2.4067   -1.9812 C   0  0  0  0  0  0  0  0  0  0  0  0
    4.3148    3.6526   -1.7995 C   0  0  0  0  0  0  0  0  0  0  0  0
    4.6585    4.6992   -2.6518 C   0  0  0  0  0  0  0  0  0  0  0  0
    5.5661    4.5269   -3.6824 C   0  0  0  0  0  0  0  0  0  0  0  0
    5.8104    5.5787   -4.4819 N   0  0  0  0  0  0  0  0  0  0  0  0
    6.6770    5.2829   -5.4643 C   0  0  0  0  0  0  0  0  0  0  0  0
    7.0940    6.1399   -6.4414 N   0  0  0  0  0  0  0  0  0  0  0  0
    7.9661    5.5021   -7.2965 C   0  0  0  0  0  0  0  0  0  0  0  0
    8.6304    5.9829   -8.4314 C   0  0  0  0  0  0  0  0  0  0  0  0
    9.4585    5.0923   -9.1215 C   0  0  0  0  0  0  0  0  0  0  0  0
    9.6138    3.7750   -8.6937 C   0  0  0  0  0  0  0  0  0  0  0  0
    8.9463    3.3095   -7.5549 C   0  0  0  0  0  0  0  0  0  0  0  0
    8.1070    4.1867   -6.8371 C   0  0  0  0  0  0  0  0  0  0  0  0
    7.2955    4.0602   -5.6754 C   0  0  0  0  0  0  0  0  0  0  0  0
    7.0644    3.0042   -4.8485 N   0  0  0  0  0  0  0  0  0  0  0  0
    6.1895    3.2548   -3.8618 C   0  0  0  0  0  0  0  0  0  0  0  0
    5.8599    2.2262   -2.9898 C   0  0  0  0  0  0  0  0  0  0  0  0
    3.2303   -0.6794    2.2241 H   0  0  0  0  0  0  0  0  0  0  0  0
    3.5861    1.0555    2.1141 H   0  0  0  0  0  0  0  0  0  0  0  0
    4.6447   -0.1191    1.3350 H   0  0  0  0  0  0  0  0  0  0  0  0
    2.4286   -1.9602    0.2000 H   0  0  0  0  0  0  0  0  0  0  0  0
    3.8286   -1.4150   -0.7161 H   0  0  0  0  0  0  0  0  0  0  0  0
    2.2126   -1.1496   -1.3635 H   0  0  0  0  0  0  0  0  0  0  0  0
    0.9050   -0.2553    1.3684 H   0  0  0  0  0  0  0  0  0  0  0  0
    0.6270    0.5912   -0.1595 H   0  0  0  0  0  0  0  0  0  0  0  0
    1.2491    1.4749    1.2362 H   0  0  0  0  0  0  0  0  0  0  0  0
    2.6243    1.9654   -0.9073 H   0  0  0  0  0  0  0  0  0  0  0  0
    3.6098    3.8314   -0.9931 H   0  0  0  0  0  0  0  0  0  0  0  0
    4.1995    5.6759   -2.5094 H   0  0  0  0  0  0  0  0  0  0  0  0
    6.7862    7.0970   -6.5191 H   0  0  0  0  0  0  0  0  0  0  0  0
    8.5105    7.0065   -8.7717 H   0  0  0  0  0  0  0  0  0  0  0  0
    9.9885    5.4334  -10.0084 H   0  0  0  0  0  0  0  0  0  0  0  0
   10.2597    3.0992   -9.2499 H   0  0  0  0  0  0  0  0  0  0  0  0
    9.0676    2.2816   -7.2256 H   0  0  0  0  0  0  0  0  0  0  0  0
    6.3440    1.2579   -3.1089 H   0  0  0  0  0  0  0  0  0  0  0  0
  1  2  1  0  0  0  0
  1 25  1  0  0  0  0
  1 26  1  0  0  0  0
  1 27  1  0  0  0  0
  2  3  1  0  0  0  0
  2  4  1  0  0  0  0
  2  5  1  0  0  0  0
  3 28  1  0  0  0  0
  3 29  1  0  0  0  0
  3 30  1  0  0  0  0
  4 31  1  0  0  0  0
  4 32  1  0  0  0  0
  4 33  1  0  0  0  0
  5  6  1  0  0  0  0
  5 34  1  0  0  0  0
  6  7  2  0  0  0  0
  6  8  1  0  0  0  0
  8  9  1  0  0  0  0
  8 24  2  0  0  0  0
  9 10  2  0  0  0  0
  9 35  1  0  0  0  0
 10 11  1  0  0  0  0
 10 36  1  0  0  0  0
 11 12  1  0  0  0  0
 11 23  2  0  0  0  0
 12 13  2  0  0  0  0
 13 14  1  0  0  0  0
 13 21  1  0  0  0  0
 14 15  1  0  0  0  0
 14 37  1  0  0  0  0
 15 16  1  0  0  0  0
 15 20  2  0  0  0  0
 16 17  2  0  0  0  0
 16 38  1  0  0  0  0
 17 18  1  0  0  0  0
 17 39  1  0  0  0  0
 18 19  2  0  0  0  0
 18 40  1  0  0  0  0
 19 20  1  0  0  0  0
 19 41  1  0  0  0  0
 20 21  1  0  0  0  0
 21 22  2  0  0  0  0
 22 23  1  0  0  0  0
 23 24  1  0  0  0  0
 24 42  1  0  0  0  0
M  END
$$$$
