CHEMBL3926038
 OpenBabel04072215373D

 47 50  0  0  1  0  0  0  0  0999 V2000
    2.7018    0.9992   -0.7152 C   0  0  0  0  0  0  0  0  0  0  0  0
    2.4958   -0.2782   -0.1307 O   0  0  0  0  0  0  0  0  0  0  0  0
    3.2065   -0.6496    0.9777 C   0  0  0  0  0  0  0  0  0  0  0  0
    4.3729    0.0142    1.3533 C   0  0  0  0  0  0  0  0  0  0  0  0
    5.0736   -0.3302    2.5254 C   0  0  0  0  0  0  0  0  0  0  0  0
    6.2162    0.3485    2.9758 C   0  0  0  0  0  0  0  0  0  0  0  0
    6.6366    1.5317    2.2993 N   0  0  0  0  0  0  0  0  0  0  0  0
    7.9246    2.0906    2.4343 C   0  0  0  0  0  0  0  0  0  0  0  0
    9.0614    1.2764    2.3201 C   0  0  0  0  0  0  0  0  0  0  0  0
   10.3395    1.7885    2.5328 C   0  0  0  0  0  0  0  0  0  0  0  0
   10.5030    3.1356    2.8511 C   0  0  0  0  0  0  0  0  0  0  0  0
   12.1032    3.6907    3.1708 Cl  0  0  0  0  0  0  0  0  0  0  0  0
    9.3824    3.9731    2.9125 C   0  0  0  0  0  0  0  0  0  0  0  0
    9.5147    5.6571    3.2826 Cl  0  0  0  0  0  0  0  0  0  0  0  0
    8.0993    3.4552    2.6897 C   0  0  0  0  0  0  0  0  0  0  0  0
    6.9034   -0.0600    4.0550 N   0  0  0  0  0  0  0  0  0  0  0  0
    6.4252   -1.1241    4.7014 C   0  0  0  0  0  0  0  0  0  0  0  0
    5.3161   -1.8121    4.3867 N   0  0  0  0  0  0  0  0  0  0  0  0
    4.6491   -1.4155    3.2966 C   0  0  0  0  0  0  0  0  0  0  0  0
    3.5042   -2.0988    2.8943 C   0  0  0  0  0  0  0  0  0  0  0  0
    2.7689   -1.7439    1.7477 C   0  0  0  0  0  0  0  0  0  0  0  0
    1.6749   -2.5603    1.5249 O   0  0  0  0  0  0  0  0  0  0  0  0
    0.9116   -2.3044    0.3456 C   0  0  0  0  0  0  0  0  0  0  0  0
   -0.2621   -3.2643    0.1457 C   0  0  3  0  0  0  0  0  0  0  0  0
    0.1186   -4.7279   -0.0348 C   0  0  0  0  0  0  0  0  0  0  0  0
   -0.9245   -5.2103   -1.0180 C   0  0  0  0  0  0  0  0  0  0  0  0
   -1.0702   -4.0093   -1.9205 C   0  0  0  0  0  0  0  0  0  0  0  0
   -0.9610   -2.8688   -1.0618 O   0  0  0  0  0  0  0  0  0  0  0  0
    3.3414    0.8896   -1.5943 H   0  0  0  0  0  0  0  0  0  0  0  0
    3.1108    1.7483   -0.0323 H   0  0  0  0  0  0  0  0  0  0  0  0
    1.7245    1.3727   -1.0405 H   0  0  0  0  0  0  0  0  0  0  0  0
    4.7877    0.7933    0.7222 H   0  0  0  0  0  0  0  0  0  0  0  0
    5.8981    2.2239    2.3751 H   0  0  0  0  0  0  0  0  0  0  0  0
    8.9406    0.2183    2.0859 H   0  0  0  0  0  0  0  0  0  0  0  0
   11.1938    1.1189    2.4677 H   0  0  0  0  0  0  0  0  0  0  0  0
    7.2392    4.1158    2.7574 H   0  0  0  0  0  0  0  0  0  0  0  0
    6.9784   -1.4530    5.5724 H   0  0  0  0  0  0  0  0  0  0  0  0
    3.1713   -2.9436    3.4952 H   0  0  0  0  0  0  0  0  0  0  0  0
    1.5543   -2.3829   -0.5396 H   0  0  0  0  0  0  0  0  0  0  0  0
    0.4795   -1.2983    0.4040 H   0  0  0  0  0  0  0  0  0  0  0  0
   -0.9710   -3.1695    0.9765 H   0  0  0  0  0  0  0  0  0  0  0  0
    0.1068   -5.2860    0.9057 H   0  0  0  0  0  0  0  0  0  0  0  0
    1.1171   -4.8275   -0.4763 H   0  0  0  0  0  0  0  0  0  0  0  0
   -1.8708   -5.3959   -0.4959 H   0  0  0  0  0  0  0  0  0  0  0  0
   -0.6408   -6.1180   -1.5562 H   0  0  0  0  0  0  0  0  0  0  0  0
   -2.0263   -3.9808   -2.4499 H   0  0  0  0  0  0  0  0  0  0  0  0
   -0.2601   -3.9626   -2.6577 H   0  0  0  0  0  0  0  0  0  0  0  0
  1  2  1  0  0  0  0
  1 29  1  0  0  0  0
  1 30  1  0  0  0  0
  1 31  1  0  0  0  0
  2  3  1  0  0  0  0
  3  4  1  0  0  0  0
  3 21  2  0  0  0  0
  4  5  2  0  0  0  0
  4 32  1  0  0  0  0
  5  6  1  0  0  0  0
  5 19  1  0  0  0  0
  6  7  1  0  0  0  0
  6 16  2  0  0  0  0
  7  8  1  0  0  0  0
  7 33  1  0  0  0  0
  8  9  1  0  0  0  0
  8 15  2  0  0  0  0
  9 10  2  0  0  0  0
  9 34  1  0  0  0  0
 10 11  1  0  0  0  0
 10 35  1  0  0  0  0
 11 12  1  0  0  0  0
 11 13  2  0  0  0  0
 13 14  1  0  0  0  0
 13 15  1  0  0  0  0
 15 36  1  0  0  0  0
 16 17  1  0  0  0  0
 17 18  2  0  0  0  0
 17 37  1  0  0  0  0
 18 19  1  0  0  0  0
 19 20  2  0  0  0  0
 20 21  1  0  0  0  0
 20 38  1  0  0  0  0
 21 22  1  0  0  0  0
 22 23  1  0  0  0  0
 23 24  1  0  0  0  0
 23 39  1  0  0  0  0
 23 40  1  0  0  0  0
 24 25  1  0  0  0  0
 24 28  1  0  0  0  0
 24 41  1  0  0  0  0
 25 26  1  0  0  0  0
 25 42  1  0  0  0  0
 25 43  1  0  0  0  0
 26 27  1  0  0  0  0
 26 44  1  0  0  0  0
 26 45  1  0  0  0  0
 27 28  1  0  0  0  0
 27 46  1  0  0  0  0
 27 47  1  0  0  0  0
M  END
$$$$
