CHEMBL3920007
 OpenBabel04072215373D

 73 77  0  0  1  0  0  0  0  0999 V2000
    1.0920   -0.0632    0.0798 C   0  0  0  0  0  0  0  0  0  0  0  0
    1.9993   -0.0186   -1.0215 O   0  0  0  0  0  0  0  0  0  0  0  0
    2.7884    1.1016   -1.1200 C   0  0  0  0  0  0  0  0  0  0  0  0
    2.5886    2.2742   -0.4037 C   0  0  0  0  0  0  0  0  0  0  0  0
    3.4328    3.3652   -0.6224 C   0  0  0  0  0  0  0  0  0  0  0  0
    3.3079    4.5795    0.0028 O   0  0  0  0  0  0  0  0  0  0  0  0
    2.3105    4.6870    1.0159 C   0  0  0  0  0  0  0  0  0  0  0  0
    4.5093    3.2506   -1.5171 C   0  0  0  0  0  0  0  0  0  0  0  0
    4.8206    2.0506   -2.1748 C   0  0  0  0  0  0  0  0  0  0  0  0
    5.9884    1.9048   -2.9920 N   0  0  0  0  0  0  0  0  0  0  0  0
    6.4696    0.4648   -3.2246 C   0  0  0  0  0  0  0  0  0  0  0  0
    6.0583   -0.2430   -4.5847 C   0  0  0  0  0  0  0  0  0  0  0  0
    6.6192   -1.6201   -4.7745 N   0  0  0  0  0  0  0  0  0  0  0  0
    8.1020   -1.6988   -4.8232 C   0  0  3  0  0  0  0  0  0  0  0  0
    8.5826   -2.9447   -4.0580 C   0  0  0  0  0  0  0  0  0  0  0  0
    8.7185   -1.6731   -6.2371 C   0  0  0  0  0  0  0  0  0  0  0  0
    8.0828   -2.6851   -7.1724 C   0  0  0  0  0  0  0  0  0  0  0  0
    6.5875   -2.4325   -7.2030 C   0  0  0  0  0  0  0  0  0  0  0  0
    5.9777   -2.5059   -5.7878 C   0  0  3  0  0  0  0  0  0  0  0  0
    4.4548   -2.4053   -5.9131 C   0  0  0  0  0  0  0  0  0  0  0  0
    7.1134    2.8012   -3.1587 C   0  0  0  0  0  0  0  0  0  0  0  0
    7.6926    2.7673   -4.4290 C   0  0  0  0  0  0  0  0  0  0  0  0
    9.0033    3.1598   -4.6043 C   0  0  0  0  0  0  0  0  0  0  0  0
    9.7228    3.7458   -3.5953 C   0  0  0  0  0  0  0  0  0  0  0  0
   11.0249    3.8907   -3.8721 N   0  0  0  0  0  0  0  0  0  0  0  0
   11.7499    4.5907   -3.0065 C   0  0  0  0  0  0  0  0  0  0  0  0
   11.1878    5.2406   -1.9323 C   0  0  0  0  0  0  0  0  0  0  0  0
   12.0175    6.3017   -1.3434 C   0  0  0  0  0  0  0  0  0  0  0  0
   12.0095    7.6995   -1.6173 C   0  0  0  0  0  0  0  0  0  0  0  0
   13.0958    8.3335   -1.1533 N   0  0  0  0  0  0  0  0  0  0  0  0
   13.8168    7.3495   -0.5914 N   0  0  0  0  0  0  0  0  0  0  0  0
   14.9680    7.6579    0.2255 C   0  0  0  0  0  0  0  0  0  0  0  0
   13.2877    6.1064   -0.8148 C   0  0  0  0  0  0  0  0  0  0  0  0
    9.8794    5.0079   -1.5655 N   0  0  0  0  0  0  0  0  0  0  0  0
    9.1156    4.1577   -2.3876 C   0  0  0  0  0  0  0  0  0  0  0  0
    7.7924    3.5927   -2.1731 C   0  0  0  0  0  0  0  0  0  0  0  0
    3.8682    1.0129   -2.0180 C   0  0  0  0  0  0  0  0  0  0  0  0
    0.6535   -1.0649    0.1248 H   0  0  0  0  0  0  0  0  0  0  0  0
    0.2726    0.6514   -0.0569 H   0  0  0  0  0  0  0  0  0  0  0  0
    1.6084    0.1112    1.0309 H   0  0  0  0  0  0  0  0  0  0  0  0
    1.7678    2.3474    0.2976 H   0  0  0  0  0  0  0  0  0  0  0  0
    2.3469    5.7024    1.4202 H   0  0  0  0  0  0  0  0  0  0  0  0
    2.5080    3.9927    1.8408 H   0  0  0  0  0  0  0  0  0  0  0  0
    1.3071    4.5321    0.6042 H   0  0  0  0  0  0  0  0  0  0  0  0
    5.1135    4.1363   -1.6798 H   0  0  0  0  0  0  0  0  0  0  0  0
    6.1648   -0.1732   -2.3862 H   0  0  0  0  0  0  0  0  0  0  0  0
    7.5611    0.4652   -3.1532 H   0  0  0  0  0  0  0  0  0  0  0  0
    6.3122    0.3704   -5.4537 H   0  0  0  0  0  0  0  0  0  0  0  0
    4.9661   -0.3077   -4.5673 H   0  0  0  0  0  0  0  0  0  0  0  0
    8.5474   -0.8535   -4.2935 H   0  0  0  0  0  0  0  0  0  0  0  0
    8.1812   -3.8778   -4.4654 H   0  0  0  0  0  0  0  0  0  0  0  0
    8.2954   -2.8853   -3.0032 H   0  0  0  0  0  0  0  0  0  0  0  0
    9.6760   -3.0191   -4.0959 H   0  0  0  0  0  0  0  0  0  0  0  0
    9.7976   -1.8634   -6.1849 H   0  0  0  0  0  0  0  0  0  0  0  0
    8.5990   -0.6707   -6.6663 H   0  0  0  0  0  0  0  0  0  0  0  0
    8.2897   -3.7100   -6.8379 H   0  0  0  0  0  0  0  0  0  0  0  0
    8.5059   -2.5947   -8.1793 H   0  0  0  0  0  0  0  0  0  0  0  0
    6.1224   -3.1824   -7.8566 H   0  0  0  0  0  0  0  0  0  0  0  0
    6.3876   -1.4521   -7.6523 H   0  0  0  0  0  0  0  0  0  0  0  0
    6.1566   -3.5311   -5.4330 H   0  0  0  0  0  0  0  0  0  0  0  0
    4.1429   -1.4566   -6.3579 H   0  0  0  0  0  0  0  0  0  0  0  0
    3.9630   -2.5412   -4.9516 H   0  0  0  0  0  0  0  0  0  0  0  0
    4.0835   -3.2043   -6.5802 H   0  0  0  0  0  0  0  0  0  0  0  0
    7.1698    2.3128   -5.2561 H   0  0  0  0  0  0  0  0  0  0  0  0
    9.4825    2.9625   -5.5549 H   0  0  0  0  0  0  0  0  0  0  0  0
   12.8036    4.6703   -3.2520 H   0  0  0  0  0  0  0  0  0  0  0  0
   11.2895    8.2755   -2.1845 H   0  0  0  0  0  0  0  0  0  0  0  0
   15.1358    8.7384    0.2459 H   0  0  0  0  0  0  0  0  0  0  0  0
   15.8485    7.1478   -0.1731 H   0  0  0  0  0  0  0  0  0  0  0  0
   14.7494    7.3040    1.2369 H   0  0  0  0  0  0  0  0  0  0  0  0
   13.8492    5.2134   -0.5816 H   0  0  0  0  0  0  0  0  0  0  0  0
    7.3424    3.7330   -1.1917 H   0  0  0  0  0  0  0  0  0  0  0  0
    3.9461    0.0897   -2.5853 H   0  0  0  0  0  0  0  0  0  0  0  0
  1  2  1  0  0  0  0
  1 38  1  0  0  0  0
  1 39  1  0  0  0  0
  1 40  1  0  0  0  0
  2  3  1  0  0  0  0
  3  4  1  0  0  0  0
  3 37  2  0  0  0  0
  4  5  2  0  0  0  0
  4 41  1  0  0  0  0
  5  6  1  0  0  0  0
  5  8  1  0  0  0  0
  6  7  1  0  0  0  0
  7 42  1  0  0  0  0
  7 43  1  0  0  0  0
  7 44  1  0  0  0  0
  8  9  2  0  0  0  0
  8 45  1  0  0  0  0
  9 10  1  0  0  0  0
  9 37  1  0  0  0  0
 10 11  1  0  0  0  0
 10 21  1  0  0  0  0
 11 12  1  0  0  0  0
 11 46  1  0  0  0  0
 11 47  1  0  0  0  0
 12 13  1  0  0  0  0
 12 48  1  0  0  0  0
 12 49  1  0  0  0  0
 13 14  1  0  0  0  0
 13 19  1  0  0  0  0
 14 15  1  0  0  0  0
 14 16  1  0  0  0  0
 14 50  1  0  0  0  0
 15 51  1  0  0  0  0
 15 52  1  0  0  0  0
 15 53  1  0  0  0  0
 16 17  1  0  0  0  0
 16 54  1  0  0  0  0
 16 55  1  0  0  0  0
 17 18  1  0  0  0  0
 17 56  1  0  0  0  0
 17 57  1  0  0  0  0
 18 19  1  0  0  0  0
 18 58  1  0  0  0  0
 18 59  1  0  0  0  0
 19 20  1  0  0  0  0
 19 60  1  0  0  0  0
 20 61  1  0  0  0  0
 20 62  1  0  0  0  0
 20 63  1  0  0  0  0
 21 22  1  0  0  0  0
 21 36  2  0  0  0  0
 22 23  2  0  0  0  0
 22 64  1  0  0  0  0
 23 24  1  0  0  0  0
 23 65  1  0  0  0  0
 24 25  1  0  0  0  0
 24 35  2  0  0  0  0
 25 26  2  0  0  0  0
 26 27  1  0  0  0  0
 26 66  1  0  0  0  0
 27 28  1  0  0  0  0
 27 34  2  0  0  0  0
 28 29  1  0  0  0  0
 28 33  2  0  0  0  0
 29 30  2  0  0  0  0
 29 67  1  0  0  0  0
 30 31  1  0  0  0  0
 31 32  1  0  0  0  0
 31 33  1  0  0  0  0
 32 68  1  0  0  0  0
 32 69  1  0  0  0  0
 32 70  1  0  0  0  0
 33 71  1  0  0  0  0
 34 35  1  0  0  0  0
 35 36  1  0  0  0  0
 36 72  1  0  0  0  0
 37 73  1  0  0  0  0
M  END
$$$$
