CHEMBL3657544
 OpenBabel04072215373D

 57 61  0  0  0  0  0  0  0  0999 V2000
    3.6035   -1.1864    3.3051 C   0  0  0  0  0  0  0  0  0  0  0  0
    4.3407   -1.2463    1.9914 C   0  0  0  0  0  0  0  0  0  0  0  0
    4.3462   -2.2935    1.3432 O   0  0  0  0  0  0  0  0  0  0  0  0
    5.0272   -0.0418    1.5162 C   0  0  0  0  0  0  0  0  0  0  0  0
    5.0695    1.1861    2.1581 C   0  0  0  0  0  0  0  0  0  0  0  0
    5.8354    2.0409    1.4104 N   0  0  0  0  0  0  0  0  0  0  0  0
    6.1730    3.3978    1.7844 C   0  0  0  0  0  0  0  0  0  0  0  0
    6.2748    1.4119    0.2684 C   0  0  0  0  0  0  0  0  0  0  0  0
    7.0551    1.8861   -0.7920 C   0  0  0  0  0  0  0  0  0  0  0  0
    7.3890    0.9872   -1.8077 C   0  0  0  0  0  0  0  0  0  0  0  0
    6.9772   -0.3498   -1.7783 C   0  0  0  0  0  0  0  0  0  0  0  0
    7.3405   -1.2686   -2.7838 N   0  0  0  0  0  0  0  0  0  0  0  0
    8.5189   -1.2246   -3.5290 C   0  0  0  0  0  0  0  0  0  0  0  0
    8.4855   -1.6927   -4.7817 N   0  0  0  0  0  0  0  0  0  0  0  0
    9.6037   -1.5698   -5.5140 C   0  0  0  0  0  0  0  0  0  0  0  0
   10.7547   -0.9650   -5.0599 C   0  0  0  0  0  0  0  0  0  0  0  0
   10.7078   -0.5396   -3.7501 C   0  0  0  0  0  0  0  0  0  0  0  0
   11.8510    0.0580   -3.1541 N   0  0  0  0  0  0  0  0  0  0  0  0
   11.9945    0.3481   -1.8123 C   0  0  0  0  0  0  0  0  0  0  0  0
   13.3319    0.6169   -1.5950 C   0  0  0  0  0  0  0  0  0  0  0  0
   14.0126    0.7771   -0.2678 C   0  0  0  0  0  0  0  0  0  0  0  0
   14.4965   -0.5226    0.2409 N   0  0  0  0  0  0  0  0  0  0  0  0
   13.4186   -1.4312    0.6993 C   0  0  0  0  0  0  0  0  0  0  0  0
   13.6044   -0.9465    2.1505 C   0  0  0  0  0  0  0  0  0  0  0  0
   12.6469    0.0051    2.6729 O   0  0  0  0  0  0  0  0  0  0  0  0
   14.9462   -0.3708    1.6502 C   0  0  0  0  0  0  0  0  0  0  0  0
   13.8321    0.8105   -2.9116 C   0  0  0  0  0  0  0  0  0  0  0  0
   15.1130    1.4247   -3.3457 C   0  0  0  0  0  0  0  0  0  0  0  0
   12.9528    0.4197   -3.8518 N   0  0  0  0  0  0  0  0  0  0  0  0
    9.6098   -0.6863   -2.9794 N   0  0  0  0  0  0  0  0  0  0  0  0
    6.1402   -0.7786   -0.7391 C   0  0  0  0  0  0  0  0  0  0  0  0
    5.7951    0.1008    0.3132 C   0  0  0  0  0  0  0  0  0  0  0  0
    3.2181   -2.1810    3.5501 H   0  0  0  0  0  0  0  0  0  0  0  0
    2.7603   -0.4955    3.2277 H   0  0  0  0  0  0  0  0  0  0  0  0
    4.2801   -0.8763    4.1057 H   0  0  0  0  0  0  0  0  0  0  0  0
    4.6304    1.5146    3.0917 H   0  0  0  0  0  0  0  0  0  0  0  0
    5.7060    3.6427    2.7415 H   0  0  0  0  0  0  0  0  0  0  0  0
    5.8083    4.0732    1.0077 H   0  0  0  0  0  0  0  0  0  0  0  0
    7.2607    3.4670    1.8770 H   0  0  0  0  0  0  0  0  0  0  0  0
    7.4091    2.9098   -0.8329 H   0  0  0  0  0  0  0  0  0  0  0  0
    7.9971    1.3524   -2.6321 H   0  0  0  0  0  0  0  0  0  0  0  0
    6.5795   -1.5146   -3.4038 H   0  0  0  0  0  0  0  0  0  0  0  0
    9.5481   -1.9783   -6.5173 H   0  0  0  0  0  0  0  0  0  0  0  0
   11.6318   -0.8707   -5.6807 H   0  0  0  0  0  0  0  0  0  0  0  0
   11.1571    0.2319   -1.1352 H   0  0  0  0  0  0  0  0  0  0  0  0
   13.3435    1.2904    0.4319 H   0  0  0  0  0  0  0  0  0  0  0  0
   14.8883    1.4264   -0.3983 H   0  0  0  0  0  0  0  0  0  0  0  0
   13.6737   -2.4920    0.5737 H   0  0  0  0  0  0  0  0  0  0  0  0
   12.4188   -1.2920    0.2838 H   0  0  0  0  0  0  0  0  0  0  0  0
   13.7237   -1.7654    2.8702 H   0  0  0  0  0  0  0  0  0  0  0  0
   11.9521    0.0706    1.9954 H   0  0  0  0  0  0  0  0  0  0  0  0
   15.8042   -1.0044    1.9043 H   0  0  0  0  0  0  0  0  0  0  0  0
   15.1714    0.6465    1.9865 H   0  0  0  0  0  0  0  0  0  0  0  0
   15.7896    1.6009   -2.5055 H   0  0  0  0  0  0  0  0  0  0  0  0
   14.9062    2.3939   -3.8119 H   0  0  0  0  0  0  0  0  0  0  0  0
   15.6280    0.7973   -4.0781 H   0  0  0  0  0  0  0  0  0  0  0  0
    5.7976   -1.8107   -0.7122 H   0  0  0  0  0  0  0  0  0  0  0  0
  1  2  1  0  0  0  0
  1 33  1  0  0  0  0
  1 34  1  0  0  0  0
  1 35  1  0  0  0  0
  2  3  2  0  0  0  0
  2  4  1  0  0  0  0
  4  5  2  0  0  0  0
  4 32  1  0  0  0  0
  5  6  1  0  0  0  0
  5 36  1  0  0  0  0
  6  7  1  0  0  0  0
  6  8  1  0  0  0  0
  7 37  1  0  0  0  0
  7 38  1  0  0  0  0
  7 39  1  0  0  0  0
  8  9  1  0  0  0  0
  8 32  2  0  0  0  0
  9 10  2  0  0  0  0
  9 40  1  0  0  0  0
 10 11  1  0  0  0  0
 10 41  1  0  0  0  0
 11 12  1  0  0  0  0
 11 31  2  0  0  0  0
 12 13  1  0  0  0  0
 12 42  1  0  0  0  0
 13 14  1  0  0  0  0
 13 30  2  0  0  0  0
 14 15  2  0  0  0  0
 15 16  1  0  0  0  0
 15 43  1  0  0  0  0
 16 17  2  0  0  0  0
 16 44  1  0  0  0  0
 17 18  1  0  0  0  0
 17 30  1  0  0  0  0
 18 19  1  0  0  0  0
 18 29  1  0  0  0  0
 19 20  2  0  0  0  0
 19 45  1  0  0  0  0
 20 21  1  0  0  0  0
 20 27  1  0  0  0  0
 21 22  1  0  0  0  0
 21 46  1  0  0  0  0
 21 47  1  0  0  0  0
 22 23  1  0  0  0  0
 22 26  1  0  0  0  0
 23 24  1  0  0  0  0
 23 48  1  0  0  0  0
 23 49  1  0  0  0  0
 24 25  1  0  0  0  0
 24 26  1  0  0  0  0
 24 50  1  0  0  0  0
 25 51  1  0  0  0  0
 26 52  1  0  0  0  0
 26 53  1  0  0  0  0
 27 28  1  0  0  0  0
 27 29  2  0  0  0  0
 28 54  1  0  0  0  0
 28 55  1  0  0  0  0
 28 56  1  0  0  0  0
 31 32  1  0  0  0  0
 31 57  1  0  0  0  0
M  END
$$$$
