CHEMBL1241777
 OpenBabel04072215363D

 57 60  0  0  0  0  0  0  0  0999 V2000
    0.7863    0.8534    2.1084 C   0  0  0  0  0  0  0  0  0  0  0  0
    2.1514    1.1475    1.8404 O   0  0  0  0  0  0  0  0  0  0  0  0
    2.9628   -0.0324    1.8816 C   0  0  0  0  0  0  0  0  0  0  0  0
    4.3991    0.3407    1.5197 C   0  0  0  0  0  0  0  0  0  0  0  0
    4.9655    1.2953    2.4585 N   0  0  0  0  0  0  0  0  0  0  0  0
    6.2980    1.6568    2.3706 C   0  0  0  0  0  0  0  0  0  0  0  0
    7.0800    1.1085    1.6034 O   0  0  0  0  0  0  0  0  0  0  0  0
    6.7349    2.7652    3.2801 C   0  0  0  0  0  0  0  0  0  0  0  0
    6.1832    2.7944    4.5732 C   0  0  0  0  0  0  0  0  0  0  0  0
    6.5545    3.7839    5.4761 C   0  0  0  0  0  0  0  0  0  0  0  0
    7.4866    4.7482    5.1021 C   0  0  0  0  0  0  0  0  0  0  0  0
    8.0704    4.7401    3.8249 C   0  0  0  0  0  0  0  0  0  0  0  0
    9.0240    5.7213    3.4852 C   0  0  0  0  0  0  0  0  0  0  0  0
    9.6335    5.7319    2.2315 C   0  0  0  0  0  0  0  0  0  0  0  0
   10.5757    6.7163    2.0005 O   0  0  0  0  0  0  0  0  0  0  0  0
   11.6583    6.4151    1.1906 C   0  0  0  0  0  0  0  0  0  0  0  0
   12.2846    5.1686    1.2573 C   0  0  0  0  0  0  0  0  0  0  0  0
   13.2941    4.9046    0.3613 C   0  0  0  0  0  0  0  0  0  0  0  0
   13.7411    5.8012   -0.5355 N   0  0  0  0  0  0  0  0  0  0  0  0
   13.1812    7.0196   -0.5486 C   0  0  0  0  0  0  0  0  0  0  0  0
   13.6659    7.9250   -1.4729 C   0  0  0  0  0  0  0  0  0  0  0  0
   13.1605    9.2286   -1.6143 C   0  0  0  0  0  0  0  0  0  0  0  0
   13.6744   10.0741   -2.5596 O   0  0  0  0  0  0  0  0  0  0  0  0
   14.2595    9.4616   -3.7127 C   0  0  0  0  0  0  0  0  0  0  0  0
   12.1556    9.6636   -0.7351 C   0  0  0  0  0  0  0  0  0  0  0  0
   11.5342   11.0389   -0.6784 C   0  0  0  0  0  0  0  0  0  0  0  0
   11.8040   12.1287   -1.6854 C   0  0  0  0  0  0  0  0  0  0  0  0
   10.7370   11.2813    0.2298 O   0  0  0  0  0  0  0  0  0  0  0  0
   11.6551    8.7362    0.2102 C   0  0  0  0  0  0  0  0  0  0  0  0
   12.1388    7.4073    0.3052 C   0  0  0  0  0  0  0  0  0  0  0  0
    9.2459    4.7912    1.2814 C   0  0  0  0  0  0  0  0  0  0  0  0
    8.3135    3.8019    1.6109 C   0  0  0  0  0  0  0  0  0  0  0  0
    7.7009    3.7397    2.8854 C   0  0  0  0  0  0  0  0  0  0  0  0
    0.2141    1.7824    2.0377 H   0  0  0  0  0  0  0  0  0  0  0  0
    0.6751    0.4495    3.1190 H   0  0  0  0  0  0  0  0  0  0  0  0
    0.3926    0.1449    1.3729 H   0  0  0  0  0  0  0  0  0  0  0  0
    2.5820   -0.7650    1.1599 H   0  0  0  0  0  0  0  0  0  0  0  0
    2.9206   -0.4625    2.8887 H   0  0  0  0  0  0  0  0  0  0  0  0
    4.4338    0.8083    0.5294 H   0  0  0  0  0  0  0  0  0  0  0  0
    5.0324   -0.5530    1.5035 H   0  0  0  0  0  0  0  0  0  0  0  0
    4.3125    1.9521    2.8710 H   0  0  0  0  0  0  0  0  0  0  0  0
    5.4782    2.0313    4.8943 H   0  0  0  0  0  0  0  0  0  0  0  0
    6.1265    3.7993    6.4754 H   0  0  0  0  0  0  0  0  0  0  0  0
    7.7645    5.5114    5.8276 H   0  0  0  0  0  0  0  0  0  0  0  0
    9.3073    6.4832    4.2093 H   0  0  0  0  0  0  0  0  0  0  0  0
   11.9720    4.4023    1.9572 H   0  0  0  0  0  0  0  0  0  0  0  0
   13.7769    3.9327    0.3278 H   0  0  0  0  0  0  0  0  0  0  0  0
   14.4836    7.5680   -2.0907 H   0  0  0  0  0  0  0  0  0  0  0  0
   14.5084   10.2495   -4.4288 H   0  0  0  0  0  0  0  0  0  0  0  0
   13.5522    8.7766   -4.1941 H   0  0  0  0  0  0  0  0  0  0  0  0
   15.1962    8.9507   -3.4662 H   0  0  0  0  0  0  0  0  0  0  0  0
   12.6255   11.9530   -2.3684 H   0  0  0  0  0  0  0  0  0  0  0  0
   12.0413   13.0485   -1.1398 H   0  0  0  0  0  0  0  0  0  0  0  0
   10.8966   12.2915   -2.2770 H   0  0  0  0  0  0  0  0  0  0  0  0
   10.8715    9.0513    0.9046 H   0  0  0  0  0  0  0  0  0  0  0  0
    9.6711    4.7915    0.2816 H   0  0  0  0  0  0  0  0  0  0  0  0
    8.0771    3.0682    0.8427 H   0  0  0  0  0  0  0  0  0  0  0  0
  1  2  1  0  0  0  0
  1 34  1  0  0  0  0
  1 35  1  0  0  0  0
  1 36  1  0  0  0  0
  2  3  1  0  0  0  0
  3  4  1  0  0  0  0
  3 37  1  0  0  0  0
  3 38  1  0  0  0  0
  4  5  1  0  0  0  0
  4 39  1  0  0  0  0
  4 40  1  0  0  0  0
  5  6  1  0  0  0  0
  5 41  1  0  0  0  0
  6  7  2  0  0  0  0
  6  8  1  0  0  0  0
  8  9  1  0  0  0  0
  8 33  2  0  0  0  0
  9 10  2  0  0  0  0
  9 42  1  0  0  0  0
 10 11  1  0  0  0  0
 10 43  1  0  0  0  0
 11 12  2  0  0  0  0
 11 44  1  0  0  0  0
 12 13  1  0  0  0  0
 12 33  1  0  0  0  0
 13 14  2  0  0  0  0
 13 45  1  0  0  0  0
 14 15  1  0  0  0  0
 14 31  1  0  0  0  0
 15 16  1  0  0  0  0
 16 17  1  0  0  0  0
 16 30  2  0  0  0  0
 17 18  2  0  0  0  0
 17 46  1  0  0  0  0
 18 19  1  0  0  0  0
 18 47  1  0  0  0  0
 19 20  2  0  0  0  0
 20 21  1  0  0  0  0
 20 30  1  0  0  0  0
 21 22  2  0  0  0  0
 21 48  1  0  0  0  0
 22 23  1  0  0  0  0
 22 25  1  0  0  0  0
 23 24  1  0  0  0  0
 24 49  1  0  0  0  0
 24 50  1  0  0  0  0
 24 51  1  0  0  0  0
 25 26  1  0  0  0  0
 25 29  2  0  0  0  0
 26 27  1  0  0  0  0
 26 28  2  0  0  0  0
 27 52  1  0  0  0  0
 27 53  1  0  0  0  0
 27 54  1  0  0  0  0
 29 30  1  0  0  0  0
 29 55  1  0  0  0  0
 31 32  2  0  0  0  0
 31 56  1  0  0  0  0
 32 33  1  0  0  0  0
 32 57  1  0  0  0  0
M  END
$$$$
