CHEMBL1289494
 OpenBabel04072215363D

 51 54  0  0  0  0  0  0  0  0999 V2000
   10.1496   -0.5099   -0.1797 C   0  0  0  0  0  0  0  0  0  0  0  0
    9.8096   -0.4780    1.2120 O   0  0  0  0  0  0  0  0  0  0  0  0
    9.0951   -1.5554    1.6710 C   0  0  0  0  0  0  0  0  0  0  0  0
    9.2957   -2.8363    1.1328 C   0  0  0  0  0  0  0  0  0  0  0  0
    8.5071   -3.9241    1.4754 C   0  0  0  0  0  0  0  0  0  0  0  0
    8.7448   -5.0858    0.8476 N   0  0  0  0  0  0  0  0  0  0  0  0
    7.9674   -6.1428    1.1469 C   0  0  0  0  0  0  0  0  0  0  0  0
    6.9286   -6.0939    2.0489 C   0  0  0  0  0  0  0  0  0  0  0  0
    6.6393   -4.8684    2.6504 C   0  0  0  0  0  0  0  0  0  0  0  0
    5.5142   -4.7271    3.4543 O   0  0  0  0  0  0  0  0  0  0  0  0
    4.3150   -5.2488    2.9941 C   0  0  0  0  0  0  0  0  0  0  0  0
    4.0188   -5.4002    1.6427 C   0  0  0  0  0  0  0  0  0  0  0  0
    2.8236   -5.9968    1.2424 C   0  0  0  0  0  0  0  0  0  0  0  0
    1.8335   -6.3612    2.1617 C   0  0  0  0  0  0  0  0  0  0  0  0
    0.5620   -6.8602    1.7442 N   0  0  0  0  0  0  0  0  0  0  0  0
    0.1164   -6.8887    0.4368 C   0  0  0  0  0  0  0  0  0  0  0  0
    0.7972   -6.5835   -0.5320 O   0  0  0  0  0  0  0  0  0  0  0  0
   -1.2088   -7.2590    0.3110 N   0  0  0  0  0  0  0  0  0  0  0  0
   -1.7770   -7.2133   -0.9589 C   0  0  0  0  0  0  0  0  0  0  0  0
   -1.1614   -7.5564   -2.1892 C   0  0  0  0  0  0  0  0  0  0  0  0
   -2.0358   -7.1168   -3.1457 C   0  0  0  0  0  0  0  0  0  0  0  0
   -1.9706   -7.0275   -4.6141 C   0  0  0  0  0  0  0  0  0  0  0  0
   -3.1575   -6.6454   -2.5365 O   0  0  0  0  0  0  0  0  0  0  0  0
   -3.0200   -6.7611   -1.1577 N   0  0  0  0  0  0  0  0  0  0  0  0
    2.1259   -6.1786    3.5267 C   0  0  0  0  0  0  0  0  0  0  0  0
    0.9685   -6.6089    4.7419 Cl  0  0  0  0  0  0  0  0  0  0  0  0
    3.3577   -5.6275    3.9394 C   0  0  0  0  0  0  0  0  0  0  0  0
    7.4830   -3.7551    2.4242 C   0  0  0  0  0  0  0  0  0  0  0  0
    7.3623   -2.4992    3.0618 C   0  0  0  0  0  0  0  0  0  0  0  0
    8.1607   -1.3991    2.7007 C   0  0  0  0  0  0  0  0  0  0  0  0
    7.8681   -0.2869    3.4410 O   0  0  0  0  0  0  0  0  0  0  0  0
    8.4522    0.9604    3.1002 C   0  0  0  0  0  0  0  0  0  0  0  0
   10.1136    0.5135   -0.5655 H   0  0  0  0  0  0  0  0  0  0  0  0
    9.4543   -1.1058   -0.7840 H   0  0  0  0  0  0  0  0  0  0  0  0
   11.1697   -0.8889   -0.3003 H   0  0  0  0  0  0  0  0  0  0  0  0
   10.0788   -3.0081    0.3977 H   0  0  0  0  0  0  0  0  0  0  0  0
    8.1943   -7.0542    0.6017 H   0  0  0  0  0  0  0  0  0  0  0  0
    6.3249   -6.9757    2.2283 H   0  0  0  0  0  0  0  0  0  0  0  0
    4.7076   -5.0871    0.8638 H   0  0  0  0  0  0  0  0  0  0  0  0
    2.7154   -6.1552    0.1756 H   0  0  0  0  0  0  0  0  0  0  0  0
   -0.0716   -7.1429    2.4839 H   0  0  0  0  0  0  0  0  0  0  0  0
   -1.8525   -6.9927    1.0414 H   0  0  0  0  0  0  0  0  0  0  0  0
   -0.1790   -7.9767   -2.3501 H   0  0  0  0  0  0  0  0  0  0  0  0
   -1.1806   -7.6762   -5.0075 H   0  0  0  0  0  0  0  0  0  0  0  0
   -1.7453   -6.0021   -4.9249 H   0  0  0  0  0  0  0  0  0  0  0  0
   -2.9167   -7.3300   -5.0694 H   0  0  0  0  0  0  0  0  0  0  0  0
    3.5712   -5.4889    4.9963 H   0  0  0  0  0  0  0  0  0  0  0  0
    6.6238   -2.3659    3.8513 H   0  0  0  0  0  0  0  0  0  0  0  0
    7.9380    1.7276    3.6896 H   0  0  0  0  0  0  0  0  0  0  0  0
    8.2915    1.2132    2.0487 H   0  0  0  0  0  0  0  0  0  0  0  0
    9.5112    0.9926    3.3747 H   0  0  0  0  0  0  0  0  0  0  0  0
  1  2  1  0  0  0  0
  1 33  1  0  0  0  0
  1 34  1  0  0  0  0
  1 35  1  0  0  0  0
  2  3  1  0  0  0  0
  3  4  1  0  0  0  0
  3 30  2  0  0  0  0
  4  5  2  0  0  0  0
  4 36  1  0  0  0  0
  5  6  1  0  0  0  0
  5 28  1  0  0  0  0
  6  7  2  0  0  0  0
  7  8  1  0  0  0  0
  7 37  1  0  0  0  0
  8  9  2  0  0  0  0
  8 38  1  0  0  0  0
  9 10  1  0  0  0  0
  9 28  1  0  0  0  0
 10 11  1  0  0  0  0
 11 12  1  0  0  0  0
 11 27  2  0  0  0  0
 12 13  2  0  0  0  0
 12 39  1  0  0  0  0
 13 14  1  0  0  0  0
 13 40  1  0  0  0  0
 14 15  1  0  0  0  0
 14 25  2  0  0  0  0
 15 16  1  0  0  0  0
 15 41  1  0  0  0  0
 16 17  2  0  0  0  0
 16 18  1  0  0  0  0
 18 19  1  0  0  0  0
 18 42  1  0  0  0  0
 19 20  1  0  0  0  0
 19 24  2  0  0  0  0
 20 21  2  0  0  0  0
 20 43  1  0  0  0  0
 21 22  1  0  0  0  0
 21 23  1  0  0  0  0
 22 44  1  0  0  0  0
 22 45  1  0  0  0  0
 22 46  1  0  0  0  0
 23 24  1  0  0  0  0
 25 26  1  0  0  0  0
 25 27  1  0  0  0  0
 27 47  1  0  0  0  0
 28 29  2  0  0  0  0
 29 30  1  0  0  0  0
 29 48  1  0  0  0  0
 30 31  1  0  0  0  0
 31 32  1  0  0  0  0
 32 49  1  0  0  0  0
 32 50  1  0  0  0  0
 32 51  1  0  0  0  0
M  END
$$$$
