CHEMBL3961267
 OpenBabel04072215373D

 63 65  0  0  0  0  0  0  0  0999 V2000
    5.4342    0.2502   -2.3089 C   0  0  0  0  0  0  0  0  0  0  0  0
    4.6054   -0.2283   -1.1955 N   0  0  0  0  0  0  0  0  0  0  0  0
    5.3528   -1.1715   -0.3510 C   0  0  0  0  0  0  0  0  0  0  0  0
    4.5399   -1.4919    0.9564 C   0  0  0  0  0  0  0  0  0  0  0  0
    5.2760   -2.2948    1.9998 N   0  0  0  0  0  0  0  0  0  0  0  0
    4.4877   -3.3161    2.7173 C   0  0  0  0  0  0  0  0  0  0  0  0
    4.8843   -3.7404    4.0018 C   0  0  0  0  0  0  0  0  0  0  0  0
    4.0734   -4.6166    4.7615 C   0  0  0  0  0  0  0  0  0  0  0  0
    4.3978   -5.0115    6.0150 O   0  0  0  0  0  0  0  0  0  0  0  0
    5.4771   -4.5587    6.7318 C   0  0  0  0  0  0  0  0  0  0  0  0
    2.8629   -5.0807    4.2430 C   0  0  0  0  0  0  0  0  0  0  0  0
    2.4357   -4.6985    2.9715 C   0  0  0  0  0  0  0  0  0  0  0  0
    1.2283   -5.1025    2.4585 O   0  0  0  0  0  0  0  0  0  0  0  0
    0.3058   -5.8882    3.1332 C   0  0  0  0  0  0  0  0  0  0  0  0
   -0.9623   -6.1128    2.3047 C   0  0  0  0  0  0  0  0  0  0  0  0
   -1.8743   -6.9066    3.0197 O   0  0  0  0  0  0  0  0  0  0  0  0
    3.2481   -3.8386    2.2203 C   0  0  0  0  0  0  0  0  0  0  0  0
    6.6476   -1.8103    2.3274 C   0  0  0  0  0  0  0  0  0  0  0  0
    6.8499   -0.4431    2.0883 C   0  0  0  0  0  0  0  0  0  0  0  0
    8.0755    0.0778    1.8850 C   0  0  0  0  0  0  0  0  0  0  0  0
    9.1898   -0.6660    2.0596 C   0  0  0  0  0  0  0  0  0  0  0  0
   10.3424   -0.1083    1.6639 N   0  0  0  0  0  0  0  0  0  0  0  0
   11.5176   -0.6970    1.8690 C   0  0  0  0  0  0  0  0  0  0  0  0
   11.5724   -1.8467    2.6420 C   0  0  0  0  0  0  0  0  0  0  0  0
   12.9536   -2.0147    3.1980 C   0  0  0  0  0  0  0  0  0  0  0  0
   13.3281   -1.9520    4.5315 C   0  0  0  0  0  0  0  0  0  0  0  0
   14.6763   -1.8406    4.6115 N   0  0  0  0  0  0  0  0  0  0  0  0
   15.1635   -1.8259    3.3798 N   0  0  0  0  0  0  0  0  0  0  0  0
   16.5832   -1.6775    3.0509 C   0  0  0  0  0  0  0  0  0  0  0  0
   14.1540   -1.9120    2.4944 C   0  0  0  0  0  0  0  0  0  0  0  0
   10.3814   -2.4979    2.9945 N   0  0  0  0  0  0  0  0  0  0  0  0
    9.1452   -1.9527    2.6306 C   0  0  0  0  0  0  0  0  0  0  0  0
    7.8193   -2.5792    2.7416 C   0  0  0  0  0  0  0  0  0  0  0  0
    0.7612    2.5408    0.6154 Cl  0  0  0  0  0  0  0  0  0  0  0  0
    4.8279    0.8916   -2.9830 H   0  0  0  0  0  0  0  0  0  0  0  0
    5.8396   -0.6023   -2.8945 H   0  0  0  0  0  0  0  0  0  0  0  0
    6.2787    0.8689   -1.9292 H   0  0  0  0  0  0  0  0  0  0  0  0
    3.7577   -0.7062   -1.5765 H   0  0  0  0  0  0  0  0  0  0  0  0
    6.3291   -0.6979   -0.1632 H   0  0  0  0  0  0  0  0  0  0  0  0
    5.5857   -2.1027   -0.8998 H   0  0  0  0  0  0  0  0  0  0  0  0
    3.6085   -1.9175    0.6004 H   0  0  0  0  0  0  0  0  0  0  0  0
    4.1930   -0.5464    1.4273 H   0  0  0  0  0  0  0  0  0  0  0  0
    5.7946   -3.3476    4.4282 H   0  0  0  0  0  0  0  0  0  0  0  0
    5.4943   -5.0690    7.7177 H   0  0  0  0  0  0  0  0  0  0  0  0
    5.3851   -3.4641    6.8950 H   0  0  0  0  0  0  0  0  0  0  0  0
    6.4162   -4.7930    6.1882 H   0  0  0  0  0  0  0  0  0  0  0  0
    2.2553   -5.7317    4.8588 H   0  0  0  0  0  0  0  0  0  0  0  0
    0.0086   -5.3873    4.0817 H   0  0  0  0  0  0  0  0  0  0  0  0
    0.7643   -6.8763    3.3611 H   0  0  0  0  0  0  0  0  0  0  0  0
   -0.7299   -6.5934    1.3289 H   0  0  0  0  0  0  0  0  0  0  0  0
   -1.4475   -5.1359    2.0946 H   0  0  0  0  0  0  0  0  0  0  0  0
   -1.4551   -7.8020    3.1251 H   0  0  0  0  0  0  0  0  0  0  0  0
    2.8360   -3.6040    1.2596 H   0  0  0  0  0  0  0  0  0  0  0  0
    6.0499    0.2366    1.8808 H   0  0  0  0  0  0  0  0  0  0  0  0
    8.1554    1.0958    1.5260 H   0  0  0  0  0  0  0  0  0  0  0  0
   12.4051   -0.1582    1.5632 H   0  0  0  0  0  0  0  0  0  0  0  0
   12.6705   -1.8713    5.3866 H   0  0  0  0  0  0  0  0  0  0  0  0
   17.1952   -1.5814    3.9725 H   0  0  0  0  0  0  0  0  0  0  0  0
   16.7537   -0.7752    2.4228 H   0  0  0  0  0  0  0  0  0  0  0  0
   16.9260   -2.5728    2.4871 H   0  0  0  0  0  0  0  0  0  0  0  0
   14.2762   -1.8589    1.4196 H   0  0  0  0  0  0  0  0  0  0  0  0
    7.7439   -3.6276    3.0304 H   0  0  0  0  0  0  0  0  0  0  0  0
    1.5047    1.6236    1.3211 H   0  0  0  0  0  0  0  0  0  0  0  0
  1  2  1  0  0  0  0
  1 35  1  0  0  0  0
  1 36  1  0  0  0  0
  1 37  1  0  0  0  0
  2  3  1  0  0  0  0
  2 38  1  0  0  0  0
  3  4  1  0  0  0  0
  3 39  1  0  0  0  0
  3 40  1  0  0  0  0
  4  5  1  0  0  0  0
  4 41  1  0  0  0  0
  4 42  1  0  0  0  0
  5  6  1  0  0  0  0
  5 18  1  0  0  0  0
  6  7  1  0  0  0  0
  6 17  2  0  0  0  0
  7  8  2  0  0  0  0
  7 43  1  0  0  0  0
  8  9  1  0  0  0  0
  8 11  1  0  0  0  0
  9 10  1  0  0  0  0
 10 44  1  0  0  0  0
 10 45  1  0  0  0  0
 10 46  1  0  0  0  0
 11 12  2  0  0  0  0
 11 47  1  0  0  0  0
 12 13  1  0  0  0  0
 12 17  1  0  0  0  0
 13 14  1  0  0  0  0
 14 15  1  0  0  0  0
 14 48  1  0  0  0  0
 14 49  1  0  0  0  0
 15 16  1  0  0  0  0
 15 50  1  0  0  0  0
 15 51  1  0  0  0  0
 16 52  1  0  0  0  0
 17 53  1  0  0  0  0
 18 19  1  0  0  0  0
 18 33  2  0  0  0  0
 19 20  2  0  0  0  0
 19 54  1  0  0  0  0
 20 21  1  0  0  0  0
 20 55  1  0  0  0  0
 21 22  1  0  0  0  0
 21 32  2  0  0  0  0
 22 23  2  0  0  0  0
 23 24  1  0  0  0  0
 23 56  1  0  0  0  0
 24 25  1  0  0  0  0
 24 31  2  0  0  0  0
 25 26  1  0  0  0  0
 25 30  2  0  0  0  0
 26 27  2  0  0  0  0
 26 57  1  0  0  0  0
 27 28  1  0  0  0  0
 28 29  1  0  0  0  0
 28 30  1  0  0  0  0
 29 58  1  0  0  0  0
 29 59  1  0  0  0  0
 29 60  1  0  0  0  0
 30 61  1  0  0  0  0
 31 32  1  0  0  0  0
 32 33  1  0  0  0  0
 33 62  1  0  0  0  0
 34 63  1  0  0  0  0
M  END
$$$$
