CHEMBL194321
 OpenBabel04072215363D

 44 47  0  0  0  0  0  0  0  0999 V2000
    5.4632    1.5501   -1.6315 C   0  0  0  0  0  0  0  0  0  0  0  0
    4.4780    0.7311   -0.8536 C   0  0  0  0  0  0  0  0  0  0  0  0
    4.8038   -0.9439   -0.7366 S   0  0  0  0  0  0  0  0  0  0  0  0
    3.4605   -1.2168    0.2519 C   0  0  0  0  0  0  0  0  0  0  0  0
    3.2399   -2.4613    0.7107 N   0  0  0  0  0  0  0  0  0  0  0  0
    2.1556   -2.5379    1.4737 C   0  0  0  0  0  0  0  0  0  0  0  0
    1.3101   -1.5480    1.7722 N   0  0  0  0  0  0  0  0  0  0  0  0
    1.5493   -0.3146    1.2818 C   0  0  0  0  0  0  0  0  0  0  0  0
    0.5854    0.6207    1.6267 N   0  0  0  0  0  0  0  0  0  0  0  0
    2.6989   -0.0768    0.4832 C   0  0  0  0  0  0  0  0  0  0  0  0
    3.3162    1.0934   -0.1659 C   0  0  0  0  0  0  0  0  0  0  0  0
    2.8666    2.4980   -0.0886 C   0  0  0  0  0  0  0  0  0  0  0  0
    2.3413    2.9899    1.1049 C   0  0  0  0  0  0  0  0  0  0  0  0
    1.8011    4.2759    1.1874 C   0  0  0  0  0  0  0  0  0  0  0  0
    1.8775    5.1651    0.1149 C   0  0  0  0  0  0  0  0  0  0  0  0
    1.3621    6.4811    0.1517 N   0  0  0  0  0  0  0  0  0  0  0  0
    0.7191    7.0468    1.2349 C   0  0  0  0  0  0  0  0  0  0  0  0
    0.5664    6.5126    2.3238 O   0  0  0  0  0  0  0  0  0  0  0  0
    0.1897    8.2995    0.9451 N   0  0  0  0  0  0  0  0  0  0  0  0
   -0.5600    8.9660    1.9581 C   0  0  0  0  0  0  0  0  0  0  0  0
   -0.0604    9.0538    3.2661 C   0  0  0  0  0  0  0  0  0  0  0  0
   -0.8592    9.5444    4.2962 C   0  0  0  0  0  0  0  0  0  0  0  0
   -2.1607    9.9613    4.0253 C   0  0  0  0  0  0  0  0  0  0  0  0
   -2.6483    9.9282    2.7170 C   0  0  0  0  0  0  0  0  0  0  0  0
   -1.8420    9.4514    1.6801 C   0  0  0  0  0  0  0  0  0  0  0  0
   -2.5026    9.3713    0.0837 Cl  0  0  0  0  0  0  0  0  0  0  0  0
    2.4784    4.7180   -1.0600 C   0  0  0  0  0  0  0  0  0  0  0  0
    2.9306    3.3903   -1.1700 C   0  0  0  0  0  0  0  0  0  0  0  0
    6.3828    0.9958   -1.8520 H   0  0  0  0  0  0  0  0  0  0  0  0
    5.7536    2.4485   -1.0782 H   0  0  0  0  0  0  0  0  0  0  0  0
    5.0374    1.8407   -2.5967 H   0  0  0  0  0  0  0  0  0  0  0  0
    1.9260   -3.5112    1.8951 H   0  0  0  0  0  0  0  0  0  0  0  0
   -0.2228    0.1639    2.0343 H   0  0  0  0  0  0  0  0  0  0  0  0
    0.3878    1.3186    0.9213 H   0  0  0  0  0  0  0  0  0  0  0  0
    2.3056    2.3770    2.0030 H   0  0  0  0  0  0  0  0  0  0  0  0
    1.3269    4.5312    2.1288 H   0  0  0  0  0  0  0  0  0  0  0  0
    1.5195    7.0743   -0.6510 H   0  0  0  0  0  0  0  0  0  0  0  0
   -0.1951    8.3846    0.0129 H   0  0  0  0  0  0  0  0  0  0  0  0
    0.9417    8.6991    3.4990 H   0  0  0  0  0  0  0  0  0  0  0  0
   -0.4757    9.5602    5.3133 H   0  0  0  0  0  0  0  0  0  0  0  0
   -2.7991   10.2966    4.8388 H   0  0  0  0  0  0  0  0  0  0  0  0
   -3.6710   10.2396    2.5213 H   0  0  0  0  0  0  0  0  0  0  0  0
    2.5866    5.3784   -1.9159 H   0  0  0  0  0  0  0  0  0  0  0  0
    3.3300    3.0797   -2.1296 H   0  0  0  0  0  0  0  0  0  0  0  0
  1  2  1  0  0  0  0
  1 29  1  0  0  0  0
  1 30  1  0  0  0  0
  1 31  1  0  0  0  0
  2  3  1  0  0  0  0
  2 11  2  0  0  0  0
  3  4  1  0  0  0  0
  4  5  1  0  0  0  0
  4 10  2  0  0  0  0
  5  6  2  0  0  0  0
  6  7  1  0  0  0  0
  6 32  1  0  0  0  0
  7  8  2  0  0  0  0
  8  9  1  0  0  0  0
  8 10  1  0  0  0  0
  9 33  1  0  0  0  0
  9 34  1  0  0  0  0
 10 11  1  0  0  0  0
 11 12  1  0  0  0  0
 12 13  1  0  0  0  0
 12 28  2  0  0  0  0
 13 14  2  0  0  0  0
 13 35  1  0  0  0  0
 14 15  1  0  0  0  0
 14 36  1  0  0  0  0
 15 16  1  0  0  0  0
 15 27  2  0  0  0  0
 16 17  1  0  0  0  0
 16 37  1  0  0  0  0
 17 18  2  0  0  0  0
 17 19  1  0  0  0  0
 19 20  1  0  0  0  0
 19 38  1  0  0  0  0
 20 21  1  0  0  0  0
 20 25  2  0  0  0  0
 21 22  2  0  0  0  0
 21 39  1  0  0  0  0
 22 23  1  0  0  0  0
 22 40  1  0  0  0  0
 23 24  2  0  0  0  0
 23 41  1  0  0  0  0
 24 25  1  0  0  0  0
 24 42  1  0  0  0  0
 25 26  1  0  0  0  0
 27 28  1  0  0  0  0
 27 43  1  0  0  0  0
 28 44  1  0  0  0  0
M  END
$$$$
