CHEMBL377081
 OpenBabel04072215373D

 55 59  0  0  0  0  0  0  0  0999 V2000
    0.8900   -0.3394    0.2506 O   0  0  0  0  0  0  0  0  0  0  0  0
    2.0699   -0.3741   -0.0689 C   0  0  0  0  0  0  0  0  0  0  0  0
    2.6004   -0.0599   -1.3087 N   0  0  0  0  0  0  0  0  0  0  0  0
    1.9005    0.3524   -2.4628 C   0  0  0  0  0  0  0  0  0  0  0  0
    0.5119    0.4060   -2.5705 C   0  0  0  0  0  0  0  0  0  0  0  0
   -0.1020    0.8002   -3.7725 C   0  0  0  0  0  0  0  0  0  0  0  0
    0.6501    1.1447   -4.8982 C   0  0  0  0  0  0  0  0  0  0  0  0
    0.0969    1.5244   -6.1114 N   0  0  0  0  0  0  0  0  0  0  0  0
   -1.2310    2.1551   -6.2093 C   0  0  0  0  0  0  0  0  0  0  0  0
   -2.3027    1.1740   -6.7096 C   0  0  0  0  0  0  0  0  0  0  0  0
   -1.8985    0.5006   -7.9126 O   0  0  0  0  0  0  0  0  0  0  0  0
   -0.6826   -0.2280   -7.6802 C   0  0  0  0  0  0  0  0  0  0  0  0
    0.4662    0.7196   -7.2947 C   0  0  0  0  0  0  0  0  0  0  0  0
    2.0459    1.1121   -4.7620 C   0  0  0  0  0  0  0  0  0  0  0  0
    2.6649    0.7204   -3.5698 C   0  0  0  0  0  0  0  0  0  0  0  0
    3.0758   -0.7642    0.9671 C   0  0  0  0  0  0  0  0  0  0  0  0
    4.2397    0.0219    1.0682 C   0  0  0  0  0  0  0  0  0  0  0  0
    5.1742   -0.2129    2.0742 C   0  0  0  0  0  0  0  0  0  0  0  0
    4.9446   -1.2154    3.0078 C   0  0  0  0  0  0  0  0  0  0  0  0
    3.7949   -2.0011    2.9187 C   0  0  0  0  0  0  0  0  0  0  0  0
    2.8456   -1.8072    1.8913 C   0  0  0  0  0  0  0  0  0  0  0  0
    1.6589   -2.7465    1.8424 C   0  0  0  0  0  0  0  0  0  0  0  0
    1.9442   -3.9758    1.0977 N   0  0  0  0  0  0  0  0  0  0  0  0
    2.5353   -5.0916    1.6451 C   0  0  0  0  0  0  0  0  0  0  0  0
    2.5210   -6.0975    0.7047 C   0  0  0  0  0  0  0  0  0  0  0  0
    1.8939   -5.5836   -0.4639 C   0  0  0  0  0  0  0  0  0  0  0  0
    1.5747   -6.1321   -1.7122 C   0  0  0  0  0  0  0  0  0  0  0  0
    0.9503   -5.3902   -2.6583 N   0  0  0  0  0  0  0  0  0  0  0  0
    0.6288   -4.1125   -2.3667 C   0  0  0  0  0  0  0  0  0  0  0  0
    0.8836   -3.4850   -1.1590 C   0  0  0  0  0  0  0  0  0  0  0  0
    1.5437   -4.2550   -0.1975 C   0  0  0  0  0  0  0  0  0  0  0  0
    3.6025   -0.1405   -1.4175 H   0  0  0  0  0  0  0  0  0  0  0  0
   -0.1330    0.1320   -1.7410 H   0  0  0  0  0  0  0  0  0  0  0  0
   -1.1873    0.7990   -3.8096 H   0  0  0  0  0  0  0  0  0  0  0  0
   -1.1424    2.9688   -6.9400 H   0  0  0  0  0  0  0  0  0  0  0  0
   -1.5427    2.6200   -5.2671 H   0  0  0  0  0  0  0  0  0  0  0  0
   -3.2225    1.7229   -6.9378 H   0  0  0  0  0  0  0  0  0  0  0  0
   -2.5451    0.4233   -5.9495 H   0  0  0  0  0  0  0  0  0  0  0  0
   -0.4316   -0.7578   -8.6045 H   0  0  0  0  0  0  0  0  0  0  0  0
   -0.8602   -0.9796   -6.9016 H   0  0  0  0  0  0  0  0  0  0  0  0
    0.6587    1.4090   -8.1221 H   0  0  0  0  0  0  0  0  0  0  0  0
    1.3771    0.1289   -7.1410 H   0  0  0  0  0  0  0  0  0  0  0  0
    2.6719    1.4242   -5.5949 H   0  0  0  0  0  0  0  0  0  0  0  0
    3.7502    0.7270   -3.5274 H   0  0  0  0  0  0  0  0  0  0  0  0
    4.4132    0.8556    0.3909 H   0  0  0  0  0  0  0  0  0  0  0  0
    6.0697    0.4000    2.1416 H   0  0  0  0  0  0  0  0  0  0  0  0
    5.6565   -1.3819    3.8132 H   0  0  0  0  0  0  0  0  0  0  0  0
    3.6383   -2.7736    3.6715 H   0  0  0  0  0  0  0  0  0  0  0  0
    0.7483   -2.3004    1.4401 H   0  0  0  0  0  0  0  0  0  0  0  0
    1.3936   -3.0592    2.8618 H   0  0  0  0  0  0  0  0  0  0  0  0
    2.9021   -5.0897    2.6642 H   0  0  0  0  0  0  0  0  0  0  0  0
    2.9065   -7.0975    0.8429 H   0  0  0  0  0  0  0  0  0  0  0  0
    1.7958   -7.1599   -1.9783 H   0  0  0  0  0  0  0  0  0  0  0  0
    0.1269   -3.5717   -3.1655 H   0  0  0  0  0  0  0  0  0  0  0  0
    0.5735   -2.4655   -0.9890 H   0  0  0  0  0  0  0  0  0  0  0  0
  1  2  2  0  0  0  0
  2  3  1  0  0  0  0
  2 16  1  0  0  0  0
  3  4  1  0  0  0  0
  3 32  1  0  0  0  0
  4  5  1  0  0  0  0
  4 15  2  0  0  0  0
  5  6  2  0  0  0  0
  5 33  1  0  0  0  0
  6  7  1  0  0  0  0
  6 34  1  0  0  0  0
  7  8  1  0  0  0  0
  7 14  2  0  0  0  0
  8  9  1  0  0  0  0
  8 13  1  0  0  0  0
  9 10  1  0  0  0  0
  9 35  1  0  0  0  0
  9 36  1  0  0  0  0
 10 11  1  0  0  0  0
 10 37  1  0  0  0  0
 10 38  1  0  0  0  0
 11 12  1  0  0  0  0
 12 13  1  0  0  0  0
 12 39  1  0  0  0  0
 12 40  1  0  0  0  0
 13 41  1  0  0  0  0
 13 42  1  0  0  0  0
 14 15  1  0  0  0  0
 14 43  1  0  0  0  0
 15 44  1  0  0  0  0
 16 17  1  0  0  0  0
 16 21  2  0  0  0  0
 17 18  2  0  0  0  0
 17 45  1  0  0  0  0
 18 19  1  0  0  0  0
 18 46  1  0  0  0  0
 19 20  2  0  0  0  0
 19 47  1  0  0  0  0
 20 21  1  0  0  0  0
 20 48  1  0  0  0  0
 21 22  1  0  0  0  0
 22 23  1  0  0  0  0
 22 49  1  0  0  0  0
 22 50  1  0  0  0  0
 23 24  1  0  0  0  0
 23 31  1  0  0  0  0
 24 25  2  0  0  0  0
 24 51  1  0  0  0  0
 25 26  1  0  0  0  0
 25 52  1  0  0  0  0
 26 27  1  0  0  0  0
 26 31  2  0  0  0  0
 27 28  2  0  0  0  0
 27 53  1  0  0  0  0
 28 29  1  0  0  0  0
 29 30  2  0  0  0  0
 29 54  1  0  0  0  0
 30 31  1  0  0  0  0
 30 55  1  0  0  0  0
M  END
$$$$
