CHEMBL3931427
 OpenBabel04072215373D

 56 60  0  0  1  0  0  0  0  0999 V2000
    1.8442   -1.5190    0.2225 C   0  0  0  0  0  0  0  0  0  0  0  0
    2.5304   -0.2806    0.1211 O   0  0  0  0  0  0  0  0  0  0  0  0
    3.1300    0.2835    1.2083 C   0  0  0  0  0  0  0  0  0  0  0  0
    4.2544    1.0563    0.8700 C   0  0  0  0  0  0  0  0  0  0  0  0
    5.0173    1.7422    1.8548 C   0  0  0  0  0  0  0  0  0  0  0  0
    6.1927    2.4731    1.6430 C   0  0  0  0  0  0  0  0  0  0  0  0
    6.6643    2.6942    0.3219 N   0  0  0  0  0  0  0  0  0  0  0  0
    7.9757    3.1702    0.0761 C   0  0  0  0  0  0  0  0  0  0  0  0
    9.0770    2.4976    0.6239 C   0  0  0  0  0  0  0  0  0  0  0  0
   10.3632    3.0239    0.5121 C   0  0  0  0  0  0  0  0  0  0  0  0
   11.6508    2.1531    1.2650 Cl  0  0  0  0  0  0  0  0  0  0  0  0
   10.5608    4.2264   -0.1742 C   0  0  0  0  0  0  0  0  0  0  0  0
   12.1170    4.9663   -0.2989 Cl  0  0  0  0  0  0  0  0  0  0  0  0
    9.4774    4.8774   -0.7702 C   0  0  0  0  0  0  0  0  0  0  0  0
    8.1979    4.3451   -0.6437 C   0  0  0  0  0  0  0  0  0  0  0  0
    7.1564    4.9980   -1.1841 F   0  0  0  0  0  0  0  0  0  0  0  0
    6.9139    2.9923    2.6643 N   0  0  0  0  0  0  0  0  0  0  0  0
    6.4330    2.8309    3.8950 C   0  0  0  0  0  0  0  0  0  0  0  0
    5.2881    2.2264    4.1996 N   0  0  0  0  0  0  0  0  0  0  0  0
    4.6130    1.6853    3.1837 C   0  0  0  0  0  0  0  0  0  0  0  0
    3.4615    1.0009    3.4892 C   0  0  0  0  0  0  0  0  0  0  0  0
    2.7362    0.2376    2.5482 C   0  0  0  0  0  0  0  0  0  0  0  0
    1.6692   -0.5353    2.9483 O   0  0  0  0  0  0  0  0  0  0  0  0
    1.7225   -0.8687    4.3397 C   0  0  0  0  0  0  0  0  0  0  0  0
    0.9737   -2.1319    4.6930 C   0  0  2  0  0  0  0  0  0  0  0  0
   -0.5306   -2.0254    4.5851 C   0  0  0  0  0  0  0  0  0  0  0  0
   -1.0362   -3.0366    5.4736 O   0  0  0  0  0  0  0  0  0  0  0  0
   -0.1303   -3.1091    6.5928 C   0  0  2  0  0  0  0  0  0  0  0  0
   -0.6079   -2.2030    7.7249 C   0  0  1  0  0  0  0  0  0  0  0  0
   -1.2483   -2.9024    8.7868 O   0  0  0  0  0  0  0  0  0  0  0  0
   -2.4550   -3.5306    8.3575 C   0  0  0  0  0  0  0  0  0  0  0  0
    0.6833   -1.5558    8.1875 C   0  0  0  0  0  0  0  0  0  0  0  0
    1.4537   -1.3712    6.9934 O   0  0  0  0  0  0  0  0  0  0  0  0
    1.1886   -2.5070    6.1512 C   0  0  2  0  0  0  0  0  0  0  0  0
    0.9064   -1.4271   -0.3349 H   0  0  0  0  0  0  0  0  0  0  0  0
    1.6127   -1.8707    1.2247 H   0  0  0  0  0  0  0  0  0  0  0  0
    2.4465   -2.2907   -0.2675 H   0  0  0  0  0  0  0  0  0  0  0  0
    4.5765    1.0784   -0.1704 H   0  0  0  0  0  0  0  0  0  0  0  0
    5.9704    3.2532   -0.1750 H   0  0  0  0  0  0  0  0  0  0  0  0
    8.9140    1.5755    1.1797 H   0  0  0  0  0  0  0  0  0  0  0  0
    9.6113    5.8105   -1.3102 H   0  0  0  0  0  0  0  0  0  0  0  0
    7.0219    3.2187    4.7181 H   0  0  0  0  0  0  0  0  0  0  0  0
    3.1564    1.0547    4.5311 H   0  0  0  0  0  0  0  0  0  0  0  0
    1.3142   -0.0216    4.9059 H   0  0  0  0  0  0  0  0  0  0  0  0
    2.7619   -1.0616    4.6404 H   0  0  0  0  0  0  0  0  0  0  0  0
    1.2945   -2.9651    4.0543 H   0  0  0  0  0  0  0  0  0  0  0  0
   -0.8958   -2.2214    3.5692 H   0  0  0  0  0  0  0  0  0  0  0  0
   -0.9140   -1.0533    4.9114 H   0  0  0  0  0  0  0  0  0  0  0  0
   -0.0230   -4.1562    6.8916 H   0  0  0  0  0  0  0  0  0  0  0  0
   -1.2841   -1.4236    7.3488 H   0  0  0  0  0  0  0  0  0  0  0  0
   -2.9522   -3.9494    9.2309 H   0  0  0  0  0  0  0  0  0  0  0  0
   -2.2357   -4.3490    7.6632 H   0  0  0  0  0  0  0  0  0  0  0  0
   -3.1219   -2.8041    7.8818 H   0  0  0  0  0  0  0  0  0  0  0  0
    1.2450   -2.1883    8.8840 H   0  0  0  0  0  0  0  0  0  0  0  0
    0.5157   -0.5878    8.6698 H   0  0  0  0  0  0  0  0  0  0  0  0
    2.0287   -3.1999    6.2696 H   0  0  0  0  0  0  0  0  0  0  0  0
  1  2  1  0  0  0  0
  1 35  1  0  0  0  0
  1 36  1  0  0  0  0
  1 37  1  0  0  0  0
  2  3  1  0  0  0  0
  3  4  1  0  0  0  0
  3 22  2  0  0  0  0
  4  5  2  0  0  0  0
  4 38  1  0  0  0  0
  5  6  1  0  0  0  0
  5 20  1  0  0  0  0
  6  7  1  0  0  0  0
  6 17  2  0  0  0  0
  7  8  1  0  0  0  0
  7 39  1  0  0  0  0
  8  9  1  0  0  0  0
  8 15  2  0  0  0  0
  9 10  2  0  0  0  0
  9 40  1  0  0  0  0
 10 11  1  0  0  0  0
 10 12  1  0  0  0  0
 12 13  1  0  0  0  0
 12 14  2  0  0  0  0
 14 15  1  0  0  0  0
 14 41  1  0  0  0  0
 15 16  1  0  0  0  0
 17 18  1  0  0  0  0
 18 19  2  0  0  0  0
 18 42  1  0  0  0  0
 19 20  1  0  0  0  0
 20 21  2  0  0  0  0
 21 22  1  0  0  0  0
 21 43  1  0  0  0  0
 22 23  1  0  0  0  0
 23 24  1  0  0  0  0
 24 25  1  0  0  0  0
 24 44  1  0  0  0  0
 24 45  1  0  0  0  0
 25 26  1  0  0  0  0
 25 34  1  0  0  0  0
 25 46  1  6  0  0  0
 26 27  1  0  0  0  0
 26 47  1  0  0  0  0
 26 48  1  0  0  0  0
 27 28  1  0  0  0  0
 28 29  1  0  0  0  0
 28 34  1  0  0  0  0
 28 49  1  1  0  0  0
 29 30  1  0  0  0  0
 29 32  1  0  0  0  0
 29 50  1  6  0  0  0
 30 31  1  0  0  0  0
 31 51  1  0  0  0  0
 31 52  1  0  0  0  0
 31 53  1  0  0  0  0
 32 33  1  0  0  0  0
 32 54  1  0  0  0  0
 32 55  1  0  0  0  0
 33 34  1  0  0  0  0
 34 56  1  1  0  0  0
M  END
$$$$
