CHEMBL2403371
 OpenBabel04072215363D

 44 47  0  0  0  0  0  0  0  0999 V2000
    2.0773   -0.9046   -0.6869 C   0  0  0  0  0  0  0  0  0  0  0  0
    2.6534    0.0441    0.1990 O   0  0  0  0  0  0  0  0  0  0  0  0
    2.9684   -0.3871    1.4595 C   0  0  0  0  0  0  0  0  0  0  0  0
    3.5328    0.6178    2.2722 C   0  0  0  0  0  0  0  0  0  0  0  0
    3.9076    0.3590    3.5856 C   0  0  0  0  0  0  0  0  0  0  0  0
    3.7043   -0.9197    4.0538 C   0  0  0  0  0  0  0  0  0  0  0  0
    3.1517   -1.9406    3.2708 C   0  0  0  0  0  0  0  0  0  0  0  0
    2.7748   -1.6831    1.9609 C   0  0  0  0  0  0  0  0  0  0  0  0
    3.1088   -3.1401    4.1353 C   0  0  0  0  0  0  0  0  0  0  0  0
    2.7255   -4.3659    3.7309 C   0  0  0  0  0  0  0  0  0  0  0  0
    2.7497   -5.5661    4.4997 C   0  0  0  0  0  0  0  0  0  0  0  0
    2.6069   -5.5376    5.8695 N   0  0  0  0  0  0  0  0  0  0  0  0
    2.7394   -6.7946    6.3788 C   0  0  0  0  0  0  0  0  0  0  0  0
    2.8960   -7.6777    5.3443 C   0  0  0  0  0  0  0  0  0  0  0  0
    2.8790   -6.9040    4.1520 C   0  0  0  0  0  0  0  0  0  0  0  0
    3.0655   -7.5447    2.5841 Cl  0  0  0  0  0  0  0  0  0  0  0  0
    3.0776   -9.1324    5.5266 C   0  0  0  0  0  0  0  0  0  0  0  0
    3.1555   -9.5507    6.9380 N   0  0  0  0  0  0  0  0  0  0  0  0
    3.2674  -10.8938    7.2895 C   0  0  0  0  0  0  0  0  0  0  0  0
    3.3823  -11.9353    6.1998 C   0  0  0  0  0  0  0  0  0  0  0  0
    3.2583  -11.2656    8.4664 O   0  0  0  0  0  0  0  0  0  0  0  0
    2.8589   -8.6296    8.0573 C   0  0  0  0  0  0  0  0  0  0  0  0
    2.7760   -7.1143    7.8144 C   0  0  0  0  0  0  0  0  0  0  0  0
    3.6317   -2.6951    5.4861 C   0  0  0  0  0  0  0  0  0  0  0  0
    3.6900   -3.3215    6.5279 O   0  0  0  0  0  0  0  0  0  0  0  0
    3.9898   -1.3736    5.3303 N   0  0  0  0  0  0  0  0  0  0  0  0
    1.8784   -0.3958   -1.6351 H   0  0  0  0  0  0  0  0  0  0  0  0
    1.1227   -1.2756   -0.3005 H   0  0  0  0  0  0  0  0  0  0  0  0
    2.7720   -1.7265   -0.8870 H   0  0  0  0  0  0  0  0  0  0  0  0
    3.6755    1.6165    1.8632 H   0  0  0  0  0  0  0  0  0  0  0  0
    4.3369    1.1340    4.2117 H   0  0  0  0  0  0  0  0  0  0  0  0
    2.3421   -2.4707    1.3569 H   0  0  0  0  0  0  0  0  0  0  0  0
    2.4208   -4.4935    2.6941 H   0  0  0  0  0  0  0  0  0  0  0  0
    2.5554   -4.6961    6.4349 H   0  0  0  0  0  0  0  0  0  0  0  0
    4.0120   -9.4469    5.0465 H   0  0  0  0  0  0  0  0  0  0  0  0
    2.2426   -9.6646    5.0586 H   0  0  0  0  0  0  0  0  0  0  0  0
    3.3597  -11.5434    5.1849 H   0  0  0  0  0  0  0  0  0  0  0  0
    2.5442  -12.6318    6.3032 H   0  0  0  0  0  0  0  0  0  0  0  0
    4.3225  -12.4773    6.3305 H   0  0  0  0  0  0  0  0  0  0  0  0
    3.6143   -8.8068    8.8356 H   0  0  0  0  0  0  0  0  0  0  0  0
    1.9086   -8.9641    8.4945 H   0  0  0  0  0  0  0  0  0  0  0  0
    3.6398   -6.6205    8.2753 H   0  0  0  0  0  0  0  0  0  0  0  0
    1.8856   -6.7155    8.3161 H   0  0  0  0  0  0  0  0  0  0  0  0
    4.3676   -0.8203    6.0852 H   0  0  0  0  0  0  0  0  0  0  0  0
  1  2  1  0  0  0  0
  1 27  1  0  0  0  0
  1 28  1  0  0  0  0
  1 29  1  0  0  0  0
  2  3  1  0  0  0  0
  3  4  1  0  0  0  0
  3  8  2  0  0  0  0
  4  5  2  0  0  0  0
  4 30  1  0  0  0  0
  5  6  1  0  0  0  0
  5 31  1  0  0  0  0
  6  7  2  0  0  0  0
  6 26  1  0  0  0  0
  7  8  1  0  0  0  0
  7  9  1  0  0  0  0
  8 32  1  0  0  0  0
  9 10  2  0  0  0  0
  9 24  1  0  0  0  0
 10 11  1  0  0  0  0
 10 33  1  0  0  0  0
 11 12  1  0  0  0  0
 11 15  2  0  0  0  0
 12 13  1  0  0  0  0
 12 34  1  0  0  0  0
 13 14  2  0  0  0  0
 13 23  1  0  0  0  0
 14 15  1  0  0  0  0
 14 17  1  0  0  0  0
 15 16  1  0  0  0  0
 17 18  1  0  0  0  0
 17 35  1  0  0  0  0
 17 36  1  0  0  0  0
 18 19  1  0  0  0  0
 18 22  1  0  0  0  0
 19 20  1  0  0  0  0
 19 21  2  0  0  0  0
 20 37  1  0  0  0  0
 20 38  1  0  0  0  0
 20 39  1  0  0  0  0
 22 23  1  0  0  0  0
 22 40  1  0  0  0  0
 22 41  1  0  0  0  0
 23 42  1  0  0  0  0
 23 43  1  0  0  0  0
 24 25  2  0  0  0  0
 24 26  1  0  0  0  0
 26 44  1  0  0  0  0
M  END
$$$$
