CHEMBL202384
 OpenBabel04072215363D

 49 51  0  0  0  0  0  0  0  0999 V2000
    2.6780    1.4159    0.4693 C   0  0  0  0  0  0  0  0  0  0  0  0
    2.5701   -0.0801    0.0807 C   0  0  0  0  0  0  0  0  0  0  0  0
    3.3600   -0.8817    1.1352 C   0  0  0  0  0  0  0  0  0  0  0  0
    1.0833   -0.4784    0.1755 C   0  0  0  0  0  0  0  0  0  0  0  0
    3.1103   -0.3525   -1.3336 C   0  0  0  0  0  0  0  0  0  0  0  0
    3.6319    0.6816   -2.1221 C   0  0  0  0  0  0  0  0  0  0  0  0
    4.1274    0.4555   -3.4050 C   0  0  0  0  0  0  0  0  0  0  0  0
    4.1222   -0.8127   -3.9622 C   0  0  0  0  0  0  0  0  0  0  0  0
    4.6269   -1.0851   -5.2532 N   0  0  0  0  0  0  0  0  0  0  0  0
    5.1855   -0.1729   -6.1434 C   0  0  0  0  0  0  0  0  0  0  0  0
    5.2989    1.0266   -5.9190 O   0  0  0  0  0  0  0  0  0  0  0  0
    5.6572   -0.7422   -7.4008 C   0  0  0  0  0  0  0  0  0  0  0  0
    5.4577   -2.4073   -7.7842 S   0  0  0  0  0  0  0  0  0  0  0  0
    6.2863   -2.1592   -9.2554 C   0  0  0  0  0  0  0  0  0  0  0  0
    6.6823   -0.9323   -9.4967 N   0  0  0  0  0  0  0  0  0  0  0  0
    6.3218   -0.0988   -8.4428 C   0  0  0  0  0  0  0  0  0  0  0  0
    6.7392    1.3491   -8.5016 C   0  0  0  0  0  0  0  0  0  0  0  0
    6.8936    1.9065   -9.9215 C   0  0  0  0  0  0  0  0  0  0  0  0
    7.3405    3.3504   -9.9025 C   0  0  0  0  0  0  0  0  0  0  0  0
    8.6991    3.6776   -9.9017 C   0  0  0  0  0  0  0  0  0  0  0  0
    9.0627    5.0153   -9.8429 C   0  0  0  0  0  0  0  0  0  0  0  0
    8.1787    6.0340   -9.7859 N   0  0  0  0  0  0  0  0  0  0  0  0
    6.8716    5.6967   -9.7858 C   0  0  0  0  0  0  0  0  0  0  0  0
    6.4088    4.3900   -9.8407 C   0  0  0  0  0  0  0  0  0  0  0  0
    3.6050   -1.8654   -3.1998 C   0  0  0  0  0  0  0  0  0  0  0  0
    3.1035   -1.6392   -1.9041 C   0  0  0  0  0  0  0  0  0  0  0  0
    2.3102    1.6016    1.4835 H   0  0  0  0  0  0  0  0  0  0  0  0
    2.0975    2.0479   -0.2106 H   0  0  0  0  0  0  0  0  0  0  0  0
    3.7225    1.7570    0.4408 H   0  0  0  0  0  0  0  0  0  0  0  0
    2.9493   -0.7098    2.1382 H   0  0  0  0  0  0  0  0  0  0  0  0
    4.4143   -0.5821    1.1566 H   0  0  0  0  0  0  0  0  0  0  0  0
    3.3221   -1.9598    0.9518 H   0  0  0  0  0  0  0  0  0  0  0  0
    0.6984   -0.3078    1.1885 H   0  0  0  0  0  0  0  0  0  0  0  0
    0.9243   -1.5374   -0.0539 H   0  0  0  0  0  0  0  0  0  0  0  0
    0.4679    0.1080   -0.5159 H   0  0  0  0  0  0  0  0  0  0  0  0
    3.6763    1.7079   -1.7730 H   0  0  0  0  0  0  0  0  0  0  0  0
    4.5139    1.3243   -3.9272 H   0  0  0  0  0  0  0  0  0  0  0  0
    4.5924   -2.0480   -5.5580 H   0  0  0  0  0  0  0  0  0  0  0  0
    6.4757   -2.9730   -9.9431 H   0  0  0  0  0  0  0  0  0  0  0  0
    7.6882    1.4470   -7.9589 H   0  0  0  0  0  0  0  0  0  0  0  0
    6.0069    1.9714   -7.9760 H   0  0  0  0  0  0  0  0  0  0  0  0
    5.9432    1.8271  -10.4653 H   0  0  0  0  0  0  0  0  0  0  0  0
    7.6178    1.3160  -10.4966 H   0  0  0  0  0  0  0  0  0  0  0  0
    9.4648    2.9102   -9.9412 H   0  0  0  0  0  0  0  0  0  0  0  0
   10.1080    5.3103   -9.8360 H   0  0  0  0  0  0  0  0  0  0  0  0
    6.1793    6.5328   -9.7352 H   0  0  0  0  0  0  0  0  0  0  0  0
    5.3421    4.1935   -9.8296 H   0  0  0  0  0  0  0  0  0  0  0  0
    3.5811   -2.8788   -3.5997 H   0  0  0  0  0  0  0  0  0  0  0  0
    2.7058   -2.4863   -1.3494 H   0  0  0  0  0  0  0  0  0  0  0  0
  1  2  1  0  0  0  0
  1 27  1  0  0  0  0
  1 28  1  0  0  0  0
  1 29  1  0  0  0  0
  2  3  1  0  0  0  0
  2  4  1  0  0  0  0
  2  5  1  0  0  0  0
  3 30  1  0  0  0  0
  3 31  1  0  0  0  0
  3 32  1  0  0  0  0
  4 33  1  0  0  0  0
  4 34  1  0  0  0  0
  4 35  1  0  0  0  0
  5  6  1  0  0  0  0
  5 26  2  0  0  0  0
  6  7  2  0  0  0  0
  6 36  1  0  0  0  0
  7  8  1  0  0  0  0
  7 37  1  0  0  0  0
  8  9  1  0  0  0  0
  8 25  2  0  0  0  0
  9 10  1  0  0  0  0
  9 38  1  0  0  0  0
 10 11  2  0  0  0  0
 10 12  1  0  0  0  0
 12 13  1  0  0  0  0
 12 16  2  0  0  0  0
 13 14  1  0  0  0  0
 14 15  2  0  0  0  0
 14 39  1  0  0  0  0
 15 16  1  0  0  0  0
 16 17  1  0  0  0  0
 17 18  1  0  0  0  0
 17 40  1  0  0  0  0
 17 41  1  0  0  0  0
 18 19  1  0  0  0  0
 18 42  1  0  0  0  0
 18 43  1  0  0  0  0
 19 20  1  0  0  0  0
 19 24  2  0  0  0  0
 20 21  2  0  0  0  0
 20 44  1  0  0  0  0
 21 22  1  0  0  0  0
 21 45  1  0  0  0  0
 22 23  2  0  0  0  0
 23 24  1  0  0  0  0
 23 46  1  0  0  0  0
 24 47  1  0  0  0  0
 25 26  1  0  0  0  0
 25 48  1  0  0  0  0
 26 49  1  0  0  0  0
M  END
$$$$
