CHEMBL452783
 OpenBabel04072215383D

 52 56  0  0  0  0  0  0  0  0999 V2000
    2.3914   -0.3729    1.3041 C   0  0  0  0  0  0  0  0  0  0  0  0
    0.8929   -0.2751    1.2993 C   0  0  0  0  0  0  0  0  0  0  0  0
    0.2826    0.9174    1.6998 C   0  0  0  0  0  0  0  0  0  0  0  0
   -1.1000    1.0234    1.7060 C   0  0  0  0  0  0  0  0  0  0  0  0
   -1.8850   -0.0596    1.3124 C   0  0  0  0  0  0  0  0  0  0  0  0
   -1.3124   -1.2639    0.8918 C   0  0  0  0  0  0  0  0  0  0  0  0
   -2.0884   -2.3852    0.4808 N   0  0  0  0  0  0  0  0  0  0  0  0
   -3.4658   -2.3884    0.3220 C   0  0  0  0  0  0  0  0  0  0  0  0
   -4.1889   -1.4034    0.4376 O   0  0  0  0  0  0  0  0  0  0  0  0
   -3.9789   -3.6563    0.0542 N   0  0  0  0  0  0  0  0  0  0  0  0
   -5.3848   -3.8103   -0.1003 C   0  0  0  0  0  0  0  0  0  0  0  0
   -6.1233   -2.9423   -0.9149 C   0  0  0  0  0  0  0  0  0  0  0  0
   -7.5207   -3.0019   -0.9449 C   0  0  0  0  0  0  0  0  0  0  0  0
   -8.2010   -3.9287   -0.1521 C   0  0  0  0  0  0  0  0  0  0  0  0
   -9.6709   -3.9394   -0.1213 C   0  0  0  0  0  0  0  0  0  0  0  0
  -10.4190   -3.1120    0.8820 C   0  0  0  0  0  0  0  0  0  0  0  0
  -11.7074   -3.0372    1.0360 N   0  0  0  0  0  0  0  0  0  0  0  0
  -12.4520   -3.7975    0.1773 C   0  0  0  0  0  0  0  0  0  0  0  0
  -13.8090   -3.9863    0.0292 C   0  0  0  0  0  0  0  0  0  0  0  0
  -14.8979   -3.3276    0.8530 C   0  0  0  0  0  0  0  0  0  0  0  0
  -16.1922   -4.0797    1.1013 C   0  0  0  0  0  0  0  0  0  0  0  0
  -16.1867   -2.9166    0.1682 C   0  0  0  0  0  0  0  0  0  0  0  0
  -13.9584   -4.8999   -1.0206 C   0  0  0  0  0  0  0  0  0  0  0  0
  -12.7863   -5.2901   -1.5336 N   0  0  0  0  0  0  0  0  0  0  0  0
  -11.8546   -4.5882   -0.8140 N   0  0  0  0  0  0  0  0  0  0  0  0
  -10.4405   -4.6496   -0.9749 C   0  0  0  0  0  0  0  0  0  0  0  0
   -9.9590   -5.4584   -2.0048 N   0  0  0  0  0  0  0  0  0  0  0  0
   -7.4593   -4.8363    0.6190 C   0  0  0  0  0  0  0  0  0  0  0  0
   -6.0559   -4.7935    0.6275 C   0  0  0  0  0  0  0  0  0  0  0  0
    0.0897   -1.3637    0.8934 C   0  0  0  0  0  0  0  0  0  0  0  0
    2.8467    0.5555    1.6715 H   0  0  0  0  0  0  0  0  0  0  0  0
    2.7661   -0.5462    0.2920 H   0  0  0  0  0  0  0  0  0  0  0  0
    2.7194   -1.1812    1.9647 H   0  0  0  0  0  0  0  0  0  0  0  0
    0.8778    1.7725    2.0127 H   0  0  0  0  0  0  0  0  0  0  0  0
   -1.5807    1.9473    2.0167 H   0  0  0  0  0  0  0  0  0  0  0  0
   -2.9578    0.0887    1.3523 H   0  0  0  0  0  0  0  0  0  0  0  0
   -1.5845   -3.1992    0.1536 H   0  0  0  0  0  0  0  0  0  0  0  0
   -3.4949   -4.4062    0.5263 H   0  0  0  0  0  0  0  0  0  0  0  0
   -5.6180   -2.1855   -1.5122 H   0  0  0  0  0  0  0  0  0  0  0  0
   -8.0656   -2.2988   -1.5721 H   0  0  0  0  0  0  0  0  0  0  0  0
   -9.7839   -2.5037    1.5524 H   0  0  0  0  0  0  0  0  0  0  0  0
  -14.5434   -2.6763    1.6468 H   0  0  0  0  0  0  0  0  0  0  0  0
  -16.6731   -3.9576    2.0605 H   0  0  0  0  0  0  0  0  0  0  0  0
  -16.3201   -5.0741    0.6804 H   0  0  0  0  0  0  0  0  0  0  0  0
  -16.6640   -2.0006    0.5011 H   0  0  0  0  0  0  0  0  0  0  0  0
  -16.3039   -3.0988   -0.8942 H   0  0  0  0  0  0  0  0  0  0  0  0
  -14.8676   -5.3085   -1.4389 H   0  0  0  0  0  0  0  0  0  0  0  0
  -10.6621   -6.1407   -2.3027 H   0  0  0  0  0  0  0  0  0  0  0  0
   -9.0387   -5.8520   -1.8371 H   0  0  0  0  0  0  0  0  0  0  0  0
   -7.9688   -5.5649    1.2465 H   0  0  0  0  0  0  0  0  0  0  0  0
   -5.5121   -5.4780    1.2723 H   0  0  0  0  0  0  0  0  0  0  0  0
    0.5769   -2.2845    0.5819 H   0  0  0  0  0  0  0  0  0  0  0  0
  1  2  1  0  0  0  0
  1 31  1  0  0  0  0
  1 32  1  0  0  0  0
  1 33  1  0  0  0  0
  2  3  1  0  0  0  0
  2 30  2  0  0  0  0
  3  4  2  0  0  0  0
  3 34  1  0  0  0  0
  4  5  1  0  0  0  0
  4 35  1  0  0  0  0
  5  6  2  0  0  0  0
  5 36  1  0  0  0  0
  6  7  1  0  0  0  0
  6 30  1  0  0  0  0
  7  8  1  0  0  0  0
  7 37  1  0  0  0  0
  8  9  2  0  0  0  0
  8 10  1  0  0  0  0
 10 11  1  0  0  0  0
 10 38  1  0  0  0  0
 11 12  1  0  0  0  0
 11 29  2  0  0  0  0
 12 13  2  0  0  0  0
 12 39  1  0  0  0  0
 13 14  1  0  0  0  0
 13 40  1  0  0  0  0
 14 15  1  0  0  0  0
 14 28  2  0  0  0  0
 15 16  1  0  0  0  0
 15 26  2  0  0  0  0
 16 17  2  0  0  0  0
 16 41  1  0  0  0  0
 17 18  1  0  0  0  0
 18 19  2  0  0  0  0
 18 25  1  0  0  0  0
 19 20  1  0  0  0  0
 19 23  1  0  0  0  0
 20 21  1  0  0  0  0
 20 22  1  0  0  0  0
 20 42  1  0  0  0  0
 21 22  1  0  0  0  0
 21 43  1  0  0  0  0
 21 44  1  0  0  0  0
 22 45  1  0  0  0  0
 22 46  1  0  0  0  0
 23 24  2  0  0  0  0
 23 47  1  0  0  0  0
 24 25  1  0  0  0  0
 25 26  1  0  0  0  0
 26 27  1  0  0  0  0
 27 48  1  0  0  0  0
 27 49  1  0  0  0  0
 28 29  1  0  0  0  0
 28 50  1  0  0  0  0
 29 51  1  0  0  0  0
 30 52  1  0  0  0  0
M  END
$$$$
