CHEMBL402279
 OpenBabel04072215373D

 64 69  0  0  1  0  0  0  0  0999 V2000
   11.8550   -6.8276    1.0295 C   0  0  0  0  0  0  0  0  0  0  0  0
   12.6059   -6.8533    2.3657 C   0  0  0  0  0  0  0  0  0  0  0  0
   12.9202   -5.4612    2.9171 C   0  0  0  0  0  0  0  0  0  0  0  0
   11.9547   -7.7287    3.4161 C   0  0  0  0  0  0  0  0  0  0  0  0
   10.5977   -7.6363    3.9053 C   0  0  0  0  0  0  0  0  0  0  0  0
    9.5089   -6.6699    3.5379 C   0  0  0  0  0  0  0  0  0  0  0  0
    9.7104   -5.5269    2.9034 N   0  0  0  0  0  0  0  0  0  0  0  0
    8.4784   -4.9872    2.6149 N   0  0  0  0  0  0  0  0  0  0  0  0
    7.6090   -5.8328    3.1084 C   0  0  0  0  0  0  0  0  0  0  0  0
    6.2890   -5.8327    2.9855 O   0  0  0  0  0  0  0  0  0  0  0  0
    5.7969   -4.9669    1.9635 C   0  0  1  0  0  0  0  0  0  0  0  0
    4.4320   -5.4661    1.5112 C   0  0  0  0  0  0  0  0  0  0  0  0
    3.7491   -4.2031    1.0372 C   0  0  0  0  0  0  0  0  0  0  0  0
    4.1322   -3.1955    2.0314 N   0  0  0  0  0  0  0  0  0  0  0  0
    5.5053   -3.5429    2.4550 C   0  0  0  0  0  0  0  0  0  0  0  0
    8.1631   -6.8926    3.7577 O   0  0  0  0  0  0  0  0  0  0  0  0
   10.4084   -8.6639    4.8010 C   0  0  0  0  0  0  0  0  0  0  0  0
   11.5762   -9.3616    4.9056 N   0  0  0  0  0  0  0  0  0  0  0  0
   11.7522  -10.4326    5.6906 N   0  0  0  0  0  0  0  0  0  0  0  0
   12.9246  -10.9697    5.5882 C   0  0  0  0  0  0  0  0  0  0  0  0
   13.9508  -10.5495    4.7877 N   0  0  0  0  0  0  0  0  0  0  0  0
   13.8113   -9.4855    4.0490 C   0  0  0  0  0  0  0  0  0  0  0  0
   14.8751   -9.0233    3.3028 N   0  0  0  0  0  0  0  0  0  0  0  0
   15.9623   -9.7710    2.8082 C   0  0  0  0  0  0  0  0  0  0  0  0
   15.8536  -11.1172    2.4394 C   0  0  0  0  0  0  0  0  0  0  0  0
   16.9484  -11.8237    1.8972 C   0  0  0  0  0  0  0  0  0  0  0  0
   16.7145  -13.2264    1.4472 C   0  0  0  0  0  0  0  0  0  0  0  0
   15.6008  -13.7218    1.6002 O   0  0  0  0  0  0  0  0  0  0  0  0
   17.7557  -13.9115    0.8453 N   0  0  0  0  0  0  0  0  0  0  0  0
   17.5533  -15.2240    0.3102 C   0  0  0  0  0  0  0  0  0  0  0  0
   17.7616  -16.4292    1.1850 C   0  0  0  0  0  0  0  0  0  0  0  0
   18.6883  -16.1691    0.0342 C   0  0  0  0  0  0  0  0  0  0  0  0
   18.1746  -11.1704    1.7690 C   0  0  0  0  0  0  0  0  0  0  0  0
   19.2449  -11.7987    1.2585 F   0  0  0  0  0  0  0  0  0  0  0  0
   18.3181   -9.8398    2.1520 C   0  0  0  0  0  0  0  0  0  0  0  0
   17.2155   -9.1553    2.6555 C   0  0  0  0  0  0  0  0  0  0  0  0
   17.3571   -7.8656    3.0007 F   0  0  0  0  0  0  0  0  0  0  0  0
   12.5260   -8.8186    4.0843 C   0  0  0  0  0  0  0  0  0  0  0  0
   12.3114   -6.1107    0.3390 H   0  0  0  0  0  0  0  0  0  0  0  0
   10.7998   -6.5706    1.1117 H   0  0  0  0  0  0  0  0  0  0  0  0
   11.8946   -7.8156    0.5562 H   0  0  0  0  0  0  0  0  0  0  0  0
   13.5743   -7.2846    2.1005 H   0  0  0  0  0  0  0  0  0  0  0  0
   12.0563   -4.9799    3.3810 H   0  0  0  0  0  0  0  0  0  0  0  0
   13.2979   -4.7983    2.1330 H   0  0  0  0  0  0  0  0  0  0  0  0
   13.6922   -5.5333    3.6927 H   0  0  0  0  0  0  0  0  0  0  0  0
    6.4600   -4.9443    1.0856 H   0  0  0  0  0  0  0  0  0  0  0  0
    3.8846   -5.9239    2.3445 H   0  0  0  0  0  0  0  0  0  0  0  0
    4.5159   -6.2176    0.7197 H   0  0  0  0  0  0  0  0  0  0  0  0
    2.6625   -4.3181    0.9783 H   0  0  0  0  0  0  0  0  0  0  0  0
    4.1137   -3.9045    0.0475 H   0  0  0  0  0  0  0  0  0  0  0  0
    3.5160   -3.2885    2.8409 H   0  0  0  0  0  0  0  0  0  0  0  0
    5.5981   -3.4499    3.5421 H   0  0  0  0  0  0  0  0  0  0  0  0
    6.2077   -2.8352    2.0009 H   0  0  0  0  0  0  0  0  0  0  0  0
    9.5487   -8.9575    5.3874 H   0  0  0  0  0  0  0  0  0  0  0  0
   13.1406  -11.8539    6.2125 H   0  0  0  0  0  0  0  0  0  0  0  0
   15.0389   -8.0237    3.3316 H   0  0  0  0  0  0  0  0  0  0  0  0
   14.8937  -11.6222    2.5334 H   0  0  0  0  0  0  0  0  0  0  0  0
   18.6562  -13.4625    0.7150 H   0  0  0  0  0  0  0  0  0  0  0  0
   16.7147  -15.2654   -0.3831 H   0  0  0  0  0  0  0  0  0  0  0  0
   17.0354  -17.2296    1.1017 H   0  0  0  0  0  0  0  0  0  0  0  0
   18.1374  -16.2760    2.1895 H   0  0  0  0  0  0  0  0  0  0  0  0
   18.6044  -16.8207   -0.8291 H   0  0  0  0  0  0  0  0  0  0  0  0
   19.7010  -15.8621    0.2614 H   0  0  0  0  0  0  0  0  0  0  0  0
   19.2736   -9.3371    2.0488 H   0  0  0  0  0  0  0  0  0  0  0  0
  1  2  1  0  0  0  0
  1 39  1  0  0  0  0
  1 40  1  0  0  0  0
  1 41  1  0  0  0  0
  2  3  1  0  0  0  0
  2  4  1  0  0  0  0
  2 42  1  0  0  0  0
  3 43  1  0  0  0  0
  3 44  1  0  0  0  0
  3 45  1  0  0  0  0
  4  5  1  0  0  0  0
  4 38  2  0  0  0  0
  5  6  1  0  0  0  0
  5 17  2  0  0  0  0
  6  7  2  0  0  0  0
  6 16  1  0  0  0  0
  7  8  1  0  0  0  0
  8  9  2  0  0  0  0
  9 10  1  0  0  0  0
  9 16  1  0  0  0  0
 11 12  1  0  0  0  0
 11 15  1  0  0  0  0
 11 10  1  0  0  0  0
 11 46  1  6  0  0  0
 12 13  1  0  0  0  0
 12 47  1  0  0  0  0
 12 48  1  0  0  0  0
 13 14  1  0  0  0  0
 13 49  1  0  0  0  0
 13 50  1  0  0  0  0
 14 15  1  0  0  0  0
 14 51  1  0  0  0  0
 15 52  1  0  0  0  0
 15 53  1  0  0  0  0
 17 18  1  0  0  0  0
 17 54  1  0  0  0  0
 18 19  1  0  0  0  0
 18 38  1  0  0  0  0
 19 20  2  0  0  0  0
 20 21  1  0  0  0  0
 20 55  1  0  0  0  0
 21 22  2  0  0  0  0
 22 23  1  0  0  0  0
 22 38  1  0  0  0  0
 23 24  1  0  0  0  0
 23 56  1  0  0  0  0
 24 25  1  0  0  0  0
 24 36  2  0  0  0  0
 25 26  2  0  0  0  0
 25 57  1  0  0  0  0
 26 27  1  0  0  0  0
 26 33  1  0  0  0  0
 27 28  2  0  0  0  0
 27 29  1  0  0  0  0
 29 30  1  0  0  0  0
 29 58  1  0  0  0  0
 30 31  1  0  0  0  0
 30 32  1  0  0  0  0
 30 59  1  0  0  0  0
 31 32  1  0  0  0  0
 31 60  1  0  0  0  0
 31 61  1  0  0  0  0
 32 62  1  0  0  0  0
 32 63  1  0  0  0  0
 33 34  1  0  0  0  0
 33 35  2  0  0  0  0
 35 36  1  0  0  0  0
 35 64  1  0  0  0  0
 36 37  1  0  0  0  0
M  END
$$$$
