CHEMBL272767
 OpenBabel04072215363D

 48 51  0  0  0  0  0  0  0  0999 V2000
   -2.3818    0.8752   -0.8444 C   0  0  0  0  0  0  0  0  0  0  0  0
   -1.1666    0.0786   -1.2212 C   0  0  0  0  0  0  0  0  0  0  0  0
   -0.1540    0.6546   -1.9982 C   0  0  0  0  0  0  0  0  0  0  0  0
    0.9855   -0.0788   -2.3367 C   0  0  0  0  0  0  0  0  0  0  0  0
    2.0810    0.5177   -3.1678 C   0  0  0  0  0  0  0  0  0  0  0  0
    1.1111   -1.3968   -1.8738 C   0  0  0  0  0  0  0  0  0  0  0  0
    0.1242   -1.9833   -1.0748 C   0  0  0  0  0  0  0  0  0  0  0  0
    0.2410   -3.2977   -0.5651 N   0  0  0  0  0  0  0  0  0  0  0  0
    1.4435   -3.9639   -0.3848 C   0  0  0  0  0  0  0  0  0  0  0  0
    2.5489   -3.4546   -0.5164 O   0  0  0  0  0  0  0  0  0  0  0  0
    1.2419   -5.3058   -0.0682 N   0  0  0  0  0  0  0  0  0  0  0  0
    2.3434   -6.1663    0.1460 C   0  0  0  0  0  0  0  0  0  0  0  0
    3.4544   -5.7604    0.8898 C   0  0  0  0  0  0  0  0  0  0  0  0
    4.6068   -6.5524    0.9252 C   0  0  0  0  0  0  0  0  0  0  0  0
    4.6834   -7.7660    0.2219 C   0  0  0  0  0  0  0  0  0  0  0  0
    5.9627   -8.4876    0.1271 C   0  0  0  0  0  0  0  0  0  0  0  0
    6.7642   -8.4590    1.2391 N   0  0  0  0  0  0  0  0  0  0  0  0
    7.9731   -9.0631    1.2258 C   0  0  0  0  0  0  0  0  0  0  0  0
    8.5002   -9.7460    0.1473 C   0  0  0  0  0  0  0  0  0  0  0  0
    7.6906   -9.7560   -0.9841 C   0  0  0  0  0  0  0  0  0  0  0  0
    7.8874  -10.3139   -2.2170 N   0  0  0  0  0  0  0  0  0  0  0  0
    6.8977  -10.0817   -3.0859 N   0  0  0  0  0  0  0  0  0  0  0  0
    6.0346   -9.3420   -2.3968 C   0  0  0  0  0  0  0  0  0  0  0  0
    4.9312   -8.8583   -2.9913 N   0  0  0  0  0  0  0  0  0  0  0  0
    6.4416   -9.1317   -1.0417 C   0  0  0  0  0  0  0  0  0  0  0  0
    3.5000   -8.2212   -0.3846 C   0  0  0  0  0  0  0  0  0  0  0  0
    2.3444   -7.4292   -0.4345 C   0  0  0  0  0  0  0  0  0  0  0  0
   -1.0281   -1.2482   -0.7782 C   0  0  0  0  0  0  0  0  0  0  0  0
   -2.3365    1.8913   -1.2515 H   0  0  0  0  0  0  0  0  0  0  0  0
   -2.4544    0.9554    0.2443 H   0  0  0  0  0  0  0  0  0  0  0  0
   -3.2842    0.3965   -1.2349 H   0  0  0  0  0  0  0  0  0  0  0  0
   -0.2504    1.6843   -2.3395 H   0  0  0  0  0  0  0  0  0  0  0  0
    1.8472    1.5463   -3.4654 H   0  0  0  0  0  0  0  0  0  0  0  0
    2.2244   -0.0712   -4.0812 H   0  0  0  0  0  0  0  0  0  0  0  0
    3.0170    0.5351   -2.6022 H   0  0  0  0  0  0  0  0  0  0  0  0
    1.9995   -1.9538   -2.1588 H   0  0  0  0  0  0  0  0  0  0  0  0
   -0.5402   -3.6602   -0.0370 H   0  0  0  0  0  0  0  0  0  0  0  0
    0.4330   -5.7148   -0.5149 H   0  0  0  0  0  0  0  0  0  0  0  0
    3.4543   -4.8084    1.4170 H   0  0  0  0  0  0  0  0  0  0  0  0
    5.4723   -6.1872    1.4783 H   0  0  0  0  0  0  0  0  0  0  0  0
    8.5347   -8.9785    2.1517 H   0  0  0  0  0  0  0  0  0  0  0  0
    9.4746  -10.2159    0.1817 H   0  0  0  0  0  0  0  0  0  0  0  0
    8.6811  -10.8576   -2.5306 H   0  0  0  0  0  0  0  0  0  0  0  0
    4.9050   -8.9764   -3.9996 H   0  0  0  0  0  0  0  0  0  0  0  0
    4.5807   -7.9490   -2.7052 H   0  0  0  0  0  0  0  0  0  0  0  0
    3.4804   -9.1929   -0.8783 H   0  0  0  0  0  0  0  0  0  0  0  0
    1.4904   -7.7861   -1.0042 H   0  0  0  0  0  0  0  0  0  0  0  0
   -1.8156   -1.6852   -0.1693 H   0  0  0  0  0  0  0  0  0  0  0  0
  1  2  1  0  0  0  0
  1 29  1  0  0  0  0
  1 30  1  0  0  0  0
  1 31  1  0  0  0  0
  2  3  1  0  0  0  0
  2 28  2  0  0  0  0
  3  4  2  0  0  0  0
  3 32  1  0  0  0  0
  4  5  1  0  0  0  0
  4  6  1  0  0  0  0
  5 33  1  0  0  0  0
  5 34  1  0  0  0  0
  5 35  1  0  0  0  0
  6  7  2  0  0  0  0
  6 36  1  0  0  0  0
  7  8  1  0  0  0  0
  7 28  1  0  0  0  0
  8  9  1  0  0  0  0
  8 37  1  0  0  0  0
  9 10  2  0  0  0  0
  9 11  1  0  0  0  0
 11 12  1  0  0  0  0
 11 38  1  0  0  0  0
 12 13  1  0  0  0  0
 12 27  2  0  0  0  0
 13 14  2  0  0  0  0
 13 39  1  0  0  0  0
 14 15  1  0  0  0  0
 14 40  1  0  0  0  0
 15 16  1  0  0  0  0
 15 26  2  0  0  0  0
 16 17  1  0  0  0  0
 16 25  2  0  0  0  0
 17 18  2  0  0  0  0
 18 19  1  0  0  0  0
 18 41  1  0  0  0  0
 19 20  2  0  0  0  0
 19 42  1  0  0  0  0
 20 21  1  0  0  0  0
 20 25  1  0  0  0  0
 21 22  1  0  0  0  0
 21 43  1  0  0  0  0
 22 23  2  0  0  0  0
 23 24  1  0  0  0  0
 23 25  1  0  0  0  0
 24 44  1  0  0  0  0
 24 45  1  0  0  0  0
 26 27  1  0  0  0  0
 26 46  1  0  0  0  0
 27 47  1  0  0  0  0
 28 48  1  0  0  0  0
M  END
$$$$
