CHEMBL4166696
 OpenBabel04072215383D

 72 77  0  0  0  0  0  0  0  0999 V2000
   19.4054   -3.9740   -4.3666 C   0  0  0  0  0  0  0  0  0  0  0  0
   18.1586   -3.3311   -4.0903 O   0  0  0  0  0  0  0  0  0  0  0  0
   18.2782   -2.2955   -3.2255 C   0  0  0  0  0  0  0  0  0  0  0  0
   19.3213   -1.9017   -2.7251 O   0  0  0  0  0  0  0  0  0  0  0  0
   16.9558   -1.6958   -2.9061 C   0  0  0  0  0  0  0  0  0  0  0  0
   15.7343   -2.1499   -3.4520 C   0  0  0  0  0  0  0  0  0  0  0  0
   14.5022   -1.5944   -3.0451 C   0  0  0  0  0  0  0  0  0  0  0  0
   14.5044   -0.5984   -2.0829 C   0  0  0  0  0  0  0  0  0  0  0  0
   15.7351   -0.1598   -1.5729 C   0  0  0  0  0  0  0  0  0  0  0  0
   16.9554   -0.6644   -1.9663 C   0  0  0  0  0  0  0  0  0  0  0  0
   15.5595    0.7789   -0.5672 N   0  0  0  0  0  0  0  0  0  0  0  0
   14.2251    0.9594   -0.2806 C   0  0  0  0  0  0  0  0  0  0  0  0
   13.8129    1.5190    0.7117 O   0  0  0  0  0  0  0  0  0  0  0  0
   13.4783    0.1862   -1.3564 C   0  0  0  0  0  0  0  0  0  0  0  0
   12.1313    0.2749   -1.4688 C   0  0  0  0  0  0  0  0  0  0  0  0
   11.3114    1.1547   -0.7712 N   0  0  0  0  0  0  0  0  0  0  0  0
   11.4358    2.5658   -0.6851 C   0  0  0  0  0  0  0  0  0  0  0  0
   10.7921    3.2194    0.3729 C   0  0  0  0  0  0  0  0  0  0  0  0
   10.8549    4.6101    0.5435 C   0  0  0  0  0  0  0  0  0  0  0  0
   11.5776    5.3564   -0.3983 C   0  0  0  0  0  0  0  0  0  0  0  0
   12.2660    4.7395   -1.4382 C   0  0  0  0  0  0  0  0  0  0  0  0
   12.2135    3.3317   -1.5684 C   0  0  0  0  0  0  0  0  0  0  0  0
   12.8840    5.7724   -2.1861 C   0  0  0  0  0  0  0  0  0  0  0  0
   12.6104    7.0006   -1.5955 C   0  0  0  0  0  0  0  0  0  0  0  0
   13.0263    8.3256   -2.0393 C   0  0  0  0  0  0  0  0  0  0  0  0
   12.2569    9.2861   -2.0011 O   0  0  0  0  0  0  0  0  0  0  0  0
   14.3292    8.4778   -2.5430 N   0  0  0  0  0  0  0  0  0  0  0  0
   14.7102    9.8224   -2.9925 C   0  0  0  0  0  0  0  0  0  0  0  0
   15.9490    9.8273   -3.9126 C   0  0  0  0  0  0  0  0  0  0  0  0
   17.1009    9.0386   -3.4282 N   0  0  0  0  0  0  0  0  0  0  0  0
   17.7709    9.6862   -2.3018 C   0  0  0  0  0  0  0  0  0  0  0  0
   16.6376    7.6833   -3.0753 C   0  0  0  0  0  0  0  0  0  0  0  0
   15.4549    7.6502   -2.0897 C   0  0  0  0  0  0  0  0  0  0  0  0
   11.7492    6.7254   -0.5446 N   0  0  0  0  0  0  0  0  0  0  0  0
   11.0530    7.6918    0.2823 C   0  0  0  0  0  0  0  0  0  0  0  0
   11.3803   -0.7301   -2.2636 C   0  0  0  0  0  0  0  0  0  0  0  0
   10.9137   -1.8857   -1.6221 C   0  0  0  0  0  0  0  0  0  0  0  0
   10.1927   -2.8500   -2.3292 C   0  0  0  0  0  0  0  0  0  0  0  0
    9.9249   -2.6669   -3.6822 C   0  0  0  0  0  0  0  0  0  0  0  0
   10.3743   -1.5141   -4.3282 C   0  0  0  0  0  0  0  0  0  0  0  0
   11.0951   -0.5427   -3.6222 C   0  0  0  0  0  0  0  0  0  0  0  0
   19.2419   -4.7096   -5.1593 H   0  0  0  0  0  0  0  0  0  0  0  0
   19.7643   -4.4966   -3.4746 H   0  0  0  0  0  0  0  0  0  0  0  0
   20.1511   -3.2518   -4.7154 H   0  0  0  0  0  0  0  0  0  0  0  0
   15.7286   -2.9566   -4.1836 H   0  0  0  0  0  0  0  0  0  0  0  0
   13.5816   -1.9814   -3.4704 H   0  0  0  0  0  0  0  0  0  0  0  0
   17.8764   -0.2962   -1.5275 H   0  0  0  0  0  0  0  0  0  0  0  0
   16.2822    1.1466    0.0274 H   0  0  0  0  0  0  0  0  0  0  0  0
   10.3432    0.8588   -0.6822 H   0  0  0  0  0  0  0  0  0  0  0  0
   10.2477    2.6328    1.1090 H   0  0  0  0  0  0  0  0  0  0  0  0
   10.3500    5.0809    1.3805 H   0  0  0  0  0  0  0  0  0  0  0  0
   12.7571    2.8640   -2.3813 H   0  0  0  0  0  0  0  0  0  0  0  0
   13.4745    5.6358   -3.0824 H   0  0  0  0  0  0  0  0  0  0  0  0
   14.8981   10.4271   -2.0970 H   0  0  0  0  0  0  0  0  0  0  0  0
   13.8702   10.2834   -3.5252 H   0  0  0  0  0  0  0  0  0  0  0  0
   16.2577   10.8607   -4.1150 H   0  0  0  0  0  0  0  0  0  0  0  0
   15.6549    9.4138   -4.8868 H   0  0  0  0  0  0  0  0  0  0  0  0
   18.1581   10.6660   -2.5995 H   0  0  0  0  0  0  0  0  0  0  0  0
   18.6349    9.0917   -1.9831 H   0  0  0  0  0  0  0  0  0  0  0  0
   17.1213    9.8295   -1.4325 H   0  0  0  0  0  0  0  0  0  0  0  0
   17.4699    7.0917   -2.6751 H   0  0  0  0  0  0  0  0  0  0  0  0
   16.3345    7.1789   -4.0026 H   0  0  0  0  0  0  0  0  0  0  0  0
   15.7542    8.0291   -1.1058 H   0  0  0  0  0  0  0  0  0  0  0  0
   15.1691    6.6119   -1.9353 H   0  0  0  0  0  0  0  0  0  0  0  0
   11.4008    8.7060    0.0961 H   0  0  0  0  0  0  0  0  0  0  0  0
   11.2326    7.4501    1.3331 H   0  0  0  0  0  0  0  0  0  0  0  0
    9.9851    7.6185    0.0532 H   0  0  0  0  0  0  0  0  0  0  0  0
   11.1065   -2.0363   -0.5620 H   0  0  0  0  0  0  0  0  0  0  0  0
    9.8344   -3.7458   -1.8235 H   0  0  0  0  0  0  0  0  0  0  0  0
    9.3591   -3.4170   -4.2297 H   0  0  0  0  0  0  0  0  0  0  0  0
   10.1557   -1.3697   -5.3845 H   0  0  0  0  0  0  0  0  0  0  0  0
   11.4292    0.3539   -4.1400 H   0  0  0  0  0  0  0  0  0  0  0  0
  1  2  1  0  0  0  0
  1 42  1  0  0  0  0
  1 43  1  0  0  0  0
  1 44  1  0  0  0  0
  2  3  1  0  0  0  0
  3  4  2  0  0  0  0
  3  5  1  0  0  0  0
  5  6  1  0  0  0  0
  5 10  2  0  0  0  0
  6  7  2  0  0  0  0
  6 45  1  0  0  0  0
  7  8  1  0  0  0  0
  7 46  1  0  0  0  0
  8  9  2  0  0  0  0
  8 14  1  0  0  0  0
  9 10  1  0  0  0  0
  9 11  1  0  0  0  0
 10 47  1  0  0  0  0
 11 12  1  0  0  0  0
 11 48  1  0  0  0  0
 12 13  2  0  0  0  0
 12 14  1  0  0  0  0
 14 15  2  0  0  0  0
 15 16  1  0  0  0  0
 15 36  1  0  0  0  0
 16 17  1  0  0  0  0
 16 49  1  0  0  0  0
 17 18  1  0  0  0  0
 17 22  2  0  0  0  0
 18 19  2  0  0  0  0
 18 50  1  0  0  0  0
 19 20  1  0  0  0  0
 19 51  1  0  0  0  0
 20 21  2  0  0  0  0
 20 34  1  0  0  0  0
 21 22  1  0  0  0  0
 21 23  1  0  0  0  0
 22 52  1  0  0  0  0
 23 24  2  0  0  0  0
 23 53  1  0  0  0  0
 24 25  1  0  0  0  0
 24 34  1  0  0  0  0
 25 26  2  0  0  0  0
 25 27  1  0  0  0  0
 27 28  1  0  0  0  0
 27 33  1  0  0  0  0
 28 29  1  0  0  0  0
 28 54  1  0  0  0  0
 28 55  1  0  0  0  0
 29 30  1  0  0  0  0
 29 56  1  0  0  0  0
 29 57  1  0  0  0  0
 30 31  1  0  0  0  0
 30 32  1  0  0  0  0
 31 58  1  0  0  0  0
 31 59  1  0  0  0  0
 31 60  1  0  0  0  0
 32 33  1  0  0  0  0
 32 61  1  0  0  0  0
 32 62  1  0  0  0  0
 33 63  1  0  0  0  0
 33 64  1  0  0  0  0
 34 35  1  0  0  0  0
 35 65  1  0  0  0  0
 35 66  1  0  0  0  0
 35 67  1  0  0  0  0
 36 37  1  0  0  0  0
 36 41  2  0  0  0  0
 37 38  2  0  0  0  0
 37 68  1  0  0  0  0
 38 39  1  0  0  0  0
 38 69  1  0  0  0  0
 39 40  2  0  0  0  0
 39 70  1  0  0  0  0
 40 41  1  0  0  0  0
 40 71  1  0  0  0  0
 41 72  1  0  0  0  0
M  END
$$$$
