CHEMBL4437124
 OpenBabel04072215383D

 39 41  0  0  0  0  0  0  0  0999 V2000
    1.7156   -0.7243   -0.7917 C   0  0  0  0  0  0  0  0  0  0  0  0
    2.6407   -0.1568    0.3253 C   0  0  0  0  0  0  0  0  0  0  0  0
    3.9338    0.3182   -0.3591 C   0  0  0  0  0  0  0  0  0  0  0  0
    1.8834    1.0412    0.9340 C   0  0  0  0  0  0  0  0  0  0  0  0
    2.9436   -1.1876    1.3441 N   0  0  0  0  0  0  0  0  0  0  0  0
    2.4412   -2.4160    1.1436 N   0  0  0  0  0  0  0  0  0  0  0  0
    2.7552   -3.1394    2.2250 C   0  0  0  0  0  0  0  0  0  0  0  0
    2.2739   -4.5291    2.2842 C   0  0  0  0  0  0  0  0  0  0  0  0
    2.9289   -5.5257    3.0100 C   0  0  0  0  0  0  0  0  0  0  0  0
    2.4269   -6.8318    3.0893 C   0  0  0  0  0  0  0  0  0  0  0  0
    1.3031   -7.1573    2.3191 C   0  0  0  0  0  0  0  0  0  0  0  0
    0.5096   -8.6756    2.1388 S   0  0  0  0  0  0  0  0  0  0  0  0
   -0.5348   -7.9773    0.9768 C   0  0  0  0  0  0  0  0  0  0  0  0
   -0.4016   -6.6882    0.7694 N   0  0  0  0  0  0  0  0  0  0  0  0
    0.6566   -6.2085    1.5260 C   0  0  0  0  0  0  0  0  0  0  0  0
    1.1272   -4.8819    1.5436 C   0  0  0  0  0  0  0  0  0  0  0  0
    3.5458   -2.3622    3.1306 C   0  0  0  0  0  0  0  0  0  0  0  0
    4.0885   -2.7556    4.4217 C   0  0  0  0  0  0  0  0  0  0  0  0
    5.2542   -2.1422    4.7895 N   0  0  0  0  0  0  0  0  0  0  0  0
    3.5960   -3.6017    5.1593 O   0  0  0  0  0  0  0  0  0  0  0  0
    3.6658   -1.1150    2.5207 C   0  0  0  0  0  0  0  0  0  0  0  0
    4.2998    0.0056    2.9606 N   0  0  0  0  0  0  0  0  0  0  0  0
    1.4744    0.0401   -1.5394 H   0  0  0  0  0  0  0  0  0  0  0  0
    0.7647   -1.0849   -0.3788 H   0  0  0  0  0  0  0  0  0  0  0  0
    2.1886   -1.5598   -1.3217 H   0  0  0  0  0  0  0  0  0  0  0  0
    3.7125    1.0221   -1.1704 H   0  0  0  0  0  0  0  0  0  0  0  0
    4.4824   -0.5261   -0.7924 H   0  0  0  0  0  0  0  0  0  0  0  0
    4.6078    0.8277    0.3356 H   0  0  0  0  0  0  0  0  0  0  0  0
    1.5982    1.7588    0.1544 H   0  0  0  0  0  0  0  0  0  0  0  0
    2.4770    1.5956    1.6638 H   0  0  0  0  0  0  0  0  0  0  0  0
    0.9646    0.7155    1.4349 H   0  0  0  0  0  0  0  0  0  0  0  0
    3.8559   -5.3175    3.5361 H   0  0  0  0  0  0  0  0  0  0  0  0
    2.9209   -7.5756    3.7066 H   0  0  0  0  0  0  0  0  0  0  0  0
   -1.2667   -8.5720    0.4469 H   0  0  0  0  0  0  0  0  0  0  0  0
    0.6027   -4.1416    0.9450 H   0  0  0  0  0  0  0  0  0  0  0  0
    5.7859   -1.6210    4.1055 H   0  0  0  0  0  0  0  0  0  0  0  0
    5.7317   -2.5352    5.5899 H   0  0  0  0  0  0  0  0  0  0  0  0
    4.4559    0.1066    3.9629 H   0  0  0  0  0  0  0  0  0  0  0  0
    4.1624    0.9085    2.5223 H   0  0  0  0  0  0  0  0  0  0  0  0
  1  2  1  0  0  0  0
  1 23  1  0  0  0  0
  1 24  1  0  0  0  0
  1 25  1  0  0  0  0
  2  3  1  0  0  0  0
  2  4  1  0  0  0  0
  2  5  1  0  0  0  0
  3 26  1  0  0  0  0
  3 27  1  0  0  0  0
  3 28  1  0  0  0  0
  4 29  1  0  0  0  0
  4 30  1  0  0  0  0
  4 31  1  0  0  0  0
  5  6  1  0  0  0  0
  5 21  1  0  0  0  0
  6  7  2  0  0  0  0
  7  8  1  0  0  0  0
  7 17  1  0  0  0  0
  8  9  1  0  0  0  0
  8 16  2  0  0  0  0
  9 10  2  0  0  0  0
  9 32  1  0  0  0  0
 10 11  1  0  0  0  0
 10 33  1  0  0  0  0
 11 12  1  0  0  0  0
 11 15  2  0  0  0  0
 12 13  1  0  0  0  0
 13 14  2  0  0  0  0
 13 34  1  0  0  0  0
 14 15  1  0  0  0  0
 15 16  1  0  0  0  0
 16 35  1  0  0  0  0
 17 18  1  0  0  0  0
 17 21  2  0  0  0  0
 18 19  1  0  0  0  0
 18 20  2  0  0  0  0
 19 36  1  0  0  0  0
 19 37  1  0  0  0  0
 21 22  1  0  0  0  0
 22 38  1  0  0  0  0
 22 39  1  0  0  0  0
M  END
$$$$
