CHEMBL270306
 OpenBabel04072215363D

 63 67  0  0  1  0  0  0  0  0999 V2000
   10.4711    1.8052    0.5328 C   0  0  0  0  0  0  0  0  0  0  0  0
    9.6927    2.9823    0.2907 O   0  0  0  0  0  0  0  0  0  0  0  0
    8.8175    3.3215    1.2910 C   0  0  0  0  0  0  0  0  0  0  0  0
    9.1072    3.0307    2.6330 C   0  0  0  0  0  0  0  0  0  0  0  0
    8.1977    3.2366    3.6566 C   0  0  0  0  0  0  0  0  0  0  0  0
    8.5486    2.8451    4.8915 N   0  0  0  0  0  0  0  0  0  0  0  0
    7.6567    3.0021    5.8887 C   0  0  0  0  0  0  0  0  0  0  0  0
    6.3983    3.5323    5.7115 C   0  0  0  0  0  0  0  0  0  0  0  0
    6.0209    3.8956    4.4199 C   0  0  0  0  0  0  0  0  0  0  0  0
    4.7431    4.3687    4.1574 O   0  0  0  0  0  0  0  0  0  0  0  0
    3.6640    3.7688    4.7808 C   0  0  0  0  0  0  0  0  0  0  0  0
    2.5730    4.5845    5.0744 C   0  0  0  0  0  0  0  0  0  0  0  0
    1.4216    4.0552    5.6866 C   0  0  0  0  0  0  0  0  0  0  0  0
    1.3263    2.6944    6.0094 C   0  0  0  0  0  0  0  0  0  0  0  0
    2.4437    1.8858    5.7053 C   0  0  0  0  0  0  0  0  0  0  0  0
    3.5854    2.4099    5.0812 C   0  0  0  0  0  0  0  0  0  0  0  0
    2.5229    0.5391    5.9789 O   0  0  0  0  0  0  0  0  0  0  0  0
    1.2413   -0.0542    6.1691 C   0  0  0  0  0  0  0  0  0  0  0  0
    0.4100    0.7474    7.1521 C   0  0  0  0  0  0  0  0  0  0  0  0
    0.1595    2.0981    6.6256 N   0  0  0  0  0  0  0  0  0  0  0  0
   -1.1068    2.6982    6.6018 C   0  0  0  0  0  0  0  0  0  0  0  0
   -1.3719    3.7592    6.0427 O   0  0  0  0  0  0  0  0  0  0  0  0
   -2.1125    1.9551    7.1936 N   0  0  0  0  0  0  0  0  0  0  0  0
   -3.4912    2.4364    7.2048 C   0  0  1  0  0  0  0  0  0  0  0  0
   -4.4770    1.2760    7.0406 C   0  0  0  0  0  0  0  0  0  0  0  0
   -3.7781    3.2071    8.4818 C   0  0  0  0  0  0  0  0  0  0  0  0
   -4.1784    4.5491    8.4102 C   0  0  0  0  0  0  0  0  0  0  0  0
   -4.4771    5.2655    9.5703 C   0  0  0  0  0  0  0  0  0  0  0  0
   -4.3643    4.6601   10.8189 C   0  0  0  0  0  0  0  0  0  0  0  0
   -3.9579    3.3242   10.9045 C   0  0  0  0  0  0  0  0  0  0  0  0
   -3.6692    2.6066    9.7454 C   0  0  0  0  0  0  0  0  0  0  0  0
    6.9491    3.8067    3.3557 C   0  0  0  0  0  0  0  0  0  0  0  0
    6.7060    4.2276    2.0287 C   0  0  0  0  0  0  0  0  0  0  0  0
    7.6223    3.9834    0.9909 C   0  0  0  0  0  0  0  0  0  0  0  0
    7.1696    4.4450   -0.2142 O   0  0  0  0  0  0  0  0  0  0  0  0
    7.7986    4.0171   -1.4118 C   0  0  0  0  0  0  0  0  0  0  0  0
   10.6661    1.3198   -0.4290 H   0  0  0  0  0  0  0  0  0  0  0  0
    9.9570    1.0673    1.1613 H   0  0  0  0  0  0  0  0  0  0  0  0
   11.4329    2.0825    0.9765 H   0  0  0  0  0  0  0  0  0  0  0  0
   10.0667    2.6022    2.9117 H   0  0  0  0  0  0  0  0  0  0  0  0
    7.9872    2.6588    6.8647 H   0  0  0  0  0  0  0  0  0  0  0  0
    5.7262    3.6254    6.5551 H   0  0  0  0  0  0  0  0  0  0  0  0
    2.6077    5.6447    4.8340 H   0  0  0  0  0  0  0  0  0  0  0  0
    0.6219    4.7523    5.9197 H   0  0  0  0  0  0  0  0  0  0  0  0
    4.3975    1.7336    4.8294 H   0  0  0  0  0  0  0  0  0  0  0  0
    1.4031   -1.0644    6.5593 H   0  0  0  0  0  0  0  0  0  0  0  0
    0.7384   -0.1490    5.1988 H   0  0  0  0  0  0  0  0  0  0  0  0
    0.9395    0.8727    8.1056 H   0  0  0  0  0  0  0  0  0  0  0  0
   -0.5121    0.1971    7.3476 H   0  0  0  0  0  0  0  0  0  0  0  0
   -1.8422    1.4539    8.0219 H   0  0  0  0  0  0  0  0  0  0  0  0
   -3.6343    3.0974    6.3412 H   0  0  0  0  0  0  0  0  0  0  0  0
   -4.3854    0.5364    7.8441 H   0  0  0  0  0  0  0  0  0  0  0  0
   -4.3063    0.7512    6.0942 H   0  0  0  0  0  0  0  0  0  0  0  0
   -5.5110    1.6403    7.0402 H   0  0  0  0  0  0  0  0  0  0  0  0
   -4.2625    5.0470    7.4455 H   0  0  0  0  0  0  0  0  0  0  0  0
   -4.7941    6.3014    9.4995 H   0  0  0  0  0  0  0  0  0  0  0  0
   -4.5975    5.2134   11.7201 H   0  0  0  0  0  0  0  0  0  0  0  0
   -3.8693    2.8476   11.8782 H   0  0  0  0  0  0  0  0  0  0  0  0
   -3.3641    1.5645    9.8408 H   0  0  0  0  0  0  0  0  0  0  0  0
    5.7744    4.7378    1.7876 H   0  0  0  0  0  0  0  0  0  0  0  0
    7.1058    4.2339   -2.2328 H   0  0  0  0  0  0  0  0  0  0  0  0
    7.9755    2.9381   -1.4291 H   0  0  0  0  0  0  0  0  0  0  0  0
    8.7148    4.5859   -1.5969 H   0  0  0  0  0  0  0  0  0  0  0  0
  1  2  1  0  0  0  0
  1 37  1  0  0  0  0
  1 38  1  0  0  0  0
  1 39  1  0  0  0  0
  2  3  1  0  0  0  0
  3  4  1  0  0  0  0
  3 34  2  0  0  0  0
  4  5  2  0  0  0  0
  4 40  1  0  0  0  0
  5  6  1  0  0  0  0
  5 32  1  0  0  0  0
  6  7  2  0  0  0  0
  7  8  1  0  0  0  0
  7 41  1  0  0  0  0
  8  9  2  0  0  0  0
  8 42  1  0  0  0  0
  9 10  1  0  0  0  0
  9 32  1  0  0  0  0
 10 11  1  0  0  0  0
 11 12  1  0  0  0  0
 11 16  2  0  0  0  0
 12 13  2  0  0  0  0
 12 43  1  0  0  0  0
 13 14  1  0  0  0  0
 13 44  1  0  0  0  0
 14 15  2  0  0  0  0
 14 20  1  0  0  0  0
 15 16  1  0  0  0  0
 15 17  1  0  0  0  0
 16 45  1  0  0  0  0
 17 18  1  0  0  0  0
 18 19  1  0  0  0  0
 18 46  1  0  0  0  0
 18 47  1  0  0  0  0
 19 20  1  0  0  0  0
 19 48  1  0  0  0  0
 19 49  1  0  0  0  0
 20 21  1  0  0  0  0
 21 22  2  0  0  0  0
 21 23  1  0  0  0  0
 23 24  1  0  0  0  0
 23 50  1  0  0  0  0
 24 25  1  0  0  0  0
 24 26  1  0  0  0  0
 24 51  1  6  0  0  0
 25 52  1  0  0  0  0
 25 53  1  0  0  0  0
 25 54  1  0  0  0  0
 26 27  1  0  0  0  0
 26 31  2  0  0  0  0
 27 28  2  0  0  0  0
 27 55  1  0  0  0  0
 28 29  1  0  0  0  0
 28 56  1  0  0  0  0
 29 30  2  0  0  0  0
 29 57  1  0  0  0  0
 30 31  1  0  0  0  0
 30 58  1  0  0  0  0
 31 59  1  0  0  0  0
 32 33  2  0  0  0  0
 33 34  1  0  0  0  0
 33 60  1  0  0  0  0
 34 35  1  0  0  0  0
 35 36  1  0  0  0  0
 36 61  1  0  0  0  0
 36 62  1  0  0  0  0
 36 63  1  0  0  0  0
M  END
$$$$
