CHEMBL3628907
 OpenBabel04072215373D

 50 54  0  0  0  0  0  0  0  0999 V2000
    2.7529   -2.1784    2.4959 O   0  0  0  0  0  0  0  0  0  0  0  0
    2.3189   -1.3632    1.6923 C   0  0  0  0  0  0  0  0  0  0  0  0
    0.9919   -1.2643    1.3045 N   0  0  0  0  0  0  0  0  0  0  0  0
   -0.0524   -2.1205    1.7392 C   0  0  0  0  0  0  0  0  0  0  0  0
    0.0576   -2.9644    2.8503 C   0  0  0  0  0  0  0  0  0  0  0  0
   -0.9678   -3.8536    3.1850 C   0  0  0  0  0  0  0  0  0  0  0  0
   -2.1272   -3.8972    2.4191 C   0  0  0  0  0  0  0  0  0  0  0  0
   -2.2615   -3.0328    1.3356 C   0  0  0  0  0  0  0  0  0  0  0  0
   -3.8375   -3.0939    0.2912 Br  0  0  0  0  0  0  0  0  0  0  0  0
   -1.2389   -2.1391    0.9981 C   0  0  0  0  0  0  0  0  0  0  0  0
    3.1170   -0.4477    1.0259 N   0  0  0  0  0  0  0  0  0  0  0  0
    4.5384   -0.4661    1.0080 C   0  0  0  0  0  0  0  0  0  0  0  0
    5.2745   -1.6173    1.3196 C   0  0  0  0  0  0  0  0  0  0  0  0
    6.6723   -1.6183    1.2648 C   0  0  0  0  0  0  0  0  0  0  0  0
    7.3583   -0.4732    0.8715 C   0  0  0  0  0  0  0  0  0  0  0  0
    8.7362   -0.5556    0.8608 O   0  0  0  0  0  0  0  0  0  0  0  0
    9.4031    0.1453   -0.1355 C   0  0  0  0  0  0  0  0  0  0  0  0
    8.8303    0.2333   -1.3590 N   0  0  0  0  0  0  0  0  0  0  0  0
    9.4300    0.9942   -2.2794 C   0  0  0  0  0  0  0  0  0  0  0  0
   10.5521    1.6991   -2.1367 N   0  0  0  0  0  0  0  0  0  0  0  0
   11.1146    1.5426   -0.9267 C   0  0  0  0  0  0  0  0  0  0  0  0
   12.5532    2.3646   -0.5379 S   0  0  0  0  0  0  0  0  0  0  0  0
   12.6047    1.6617    1.0067 C   0  0  0  0  0  0  0  0  0  0  0  0
   11.5467    0.8002    1.2424 C   0  0  0  0  0  0  0  0  0  0  0  0
   10.6353    0.7643    0.1201 C   0  0  0  0  0  0  0  0  0  0  0  0
   11.4609    0.0064    2.5176 C   0  0  0  0  0  0  0  0  0  0  0  0
   12.3693    0.5814    3.6196 C   0  0  0  0  0  0  0  0  0  0  0  0
   13.7648    0.9368    3.0873 C   0  0  0  0  0  0  0  0  0  0  0  0
   13.6916    1.9960    1.9808 C   0  0  0  0  0  0  0  0  0  0  0  0
    6.6415    0.6915    0.5779 C   0  0  0  0  0  0  0  0  0  0  0  0
    5.2425    0.6879    0.6294 C   0  0  0  0  0  0  0  0  0  0  0  0
    4.4059    2.1532    0.2397 Cl  0  0  0  0  0  0  0  0  0  0  0  0
    0.8076   -0.7075    0.4835 H   0  0  0  0  0  0  0  0  0  0  0  0
    0.9383   -2.9624    3.4855 H   0  0  0  0  0  0  0  0  0  0  0  0
   -0.8460   -4.5155    4.0385 H   0  0  0  0  0  0  0  0  0  0  0  0
   -2.9113   -4.6050    2.6743 H   0  0  0  0  0  0  0  0  0  0  0  0
   -1.3655   -1.4866    0.1392 H   0  0  0  0  0  0  0  0  0  0  0  0
    2.6836    0.4171    0.7329 H   0  0  0  0  0  0  0  0  0  0  0  0
    4.7853   -2.5476    1.5950 H   0  0  0  0  0  0  0  0  0  0  0  0
    7.2154   -2.5252    1.5177 H   0  0  0  0  0  0  0  0  0  0  0  0
    8.9379    1.0588   -3.2447 H   0  0  0  0  0  0  0  0  0  0  0  0
   11.7772   -1.0224    2.3001 H   0  0  0  0  0  0  0  0  0  0  0  0
   10.4313   -0.0378    2.8856 H   0  0  0  0  0  0  0  0  0  0  0  0
   12.4578   -0.1428    4.4377 H   0  0  0  0  0  0  0  0  0  0  0  0
   11.9067    1.4837    4.0390 H   0  0  0  0  0  0  0  0  0  0  0  0
   14.2450    0.0300    2.6978 H   0  0  0  0  0  0  0  0  0  0  0  0
   14.3954    1.3070    3.9039 H   0  0  0  0  0  0  0  0  0  0  0  0
   14.6639    2.0728    1.4815 H   0  0  0  0  0  0  0  0  0  0  0  0
   13.4723    2.9734    2.4292 H   0  0  0  0  0  0  0  0  0  0  0  0
    7.1622    1.6014    0.2948 H   0  0  0  0  0  0  0  0  0  0  0  0
  1  2  2  0  0  0  0
  2  3  1  0  0  0  0
  2 11  1  0  0  0  0
  3  4  1  0  0  0  0
  3 33  1  0  0  0  0
  4  5  1  0  0  0  0
  4 10  2  0  0  0  0
  5  6  2  0  0  0  0
  5 34  1  0  0  0  0
  6  7  1  0  0  0  0
  6 35  1  0  0  0  0
  7  8  2  0  0  0  0
  7 36  1  0  0  0  0
  8  9  1  0  0  0  0
  8 10  1  0  0  0  0
 10 37  1  0  0  0  0
 11 12  1  0  0  0  0
 11 38  1  0  0  0  0
 12 13  1  0  0  0  0
 12 31  2  0  0  0  0
 13 14  2  0  0  0  0
 13 39  1  0  0  0  0
 14 15  1  0  0  0  0
 14 40  1  0  0  0  0
 15 16  1  0  0  0  0
 15 30  2  0  0  0  0
 16 17  1  0  0  0  0
 17 18  1  0  0  0  0
 17 25  2  0  0  0  0
 18 19  2  0  0  0  0
 19 20  1  0  0  0  0
 19 41  1  0  0  0  0
 20 21  2  0  0  0  0
 21 22  1  0  0  0  0
 21 25  1  0  0  0  0
 22 23  1  0  0  0  0
 23 24  2  0  0  0  0
 23 29  1  0  0  0  0
 24 25  1  0  0  0  0
 24 26  1  0  0  0  0
 26 27  1  0  0  0  0
 26 42  1  0  0  0  0
 26 43  1  0  0  0  0
 27 28  1  0  0  0  0
 27 44  1  0  0  0  0
 27 45  1  0  0  0  0
 28 29  1  0  0  0  0
 28 46  1  0  0  0  0
 28 47  1  0  0  0  0
 29 48  1  0  0  0  0
 29 49  1  0  0  0  0
 30 31  1  0  0  0  0
 30 50  1  0  0  0  0
 31 32  1  0  0  0  0
M  END
$$$$
