CHEMBL3781927
 OpenBabel04072215373D

 46 49  0  0  0  0  0  0  0  0999 V2000
   10.8789    3.0664    0.6796 C   0  0  0  0  0  0  0  0  0  0  0  0
   10.2231    2.6947   -0.5257 O   0  0  0  0  0  0  0  0  0  0  0  0
    8.9868    3.2382   -0.7437 C   0  0  0  0  0  0  0  0  0  0  0  0
    8.3032    4.0959    0.1177 C   0  0  0  0  0  0  0  0  0  0  0  0
    7.0361    4.5878   -0.2258 C   0  0  0  0  0  0  0  0  0  0  0  0
    6.4398    4.2432   -1.4444 C   0  0  0  0  0  0  0  0  0  0  0  0
    5.0408    4.6802   -1.8219 C   0  0  0  0  0  0  0  0  0  0  0  0
    4.5537    6.0274   -1.3361 C   0  0  0  0  0  0  0  0  0  0  0  0
    3.7375    5.9763   -0.2627 N   0  0  0  0  0  0  0  0  0  0  0  0
    3.1179    7.1068    0.1889 N   0  0  0  0  0  0  0  0  0  0  0  0
    3.2742    8.2949   -0.4302 C   0  0  0  0  0  0  0  0  0  0  0  0
    2.6171    9.4495    0.0780 N   0  0  0  0  0  0  0  0  0  0  0  0
    1.9152    9.6027    1.2964 C   0  0  0  0  0  0  0  0  0  0  0  0
    2.1895    8.8349    2.4335 C   0  0  0  0  0  0  0  0  0  0  0  0
    1.5500    9.0818    3.6544 C   0  0  0  0  0  0  0  0  0  0  0  0
    0.6301   10.1246    3.7654 C   0  0  0  0  0  0  0  0  0  0  0  0
    0.0064   10.4043    5.0231 C   0  0  0  0  0  0  0  0  0  0  0  0
   -0.4935   10.6415    6.0476 N   0  0  0  0  0  0  0  0  0  0  0  0
    0.3432   10.9047    2.6439 C   0  0  0  0  0  0  0  0  0  0  0  0
    0.9860   10.6489    1.4230 C   0  0  0  0  0  0  0  0  0  0  0  0
    4.1302    8.4031   -1.5533 C   0  0  0  0  0  0  0  0  0  0  0  0
    4.3383    9.6134   -2.2660 C   0  0  0  0  0  0  0  0  0  0  0  0
    5.2092    9.6891   -3.3542 C   0  0  0  0  0  0  0  0  0  0  0  0
    5.9142    8.5635   -3.7485 C   0  0  0  0  0  0  0  0  0  0  0  0
    5.7192    7.3549   -3.0802 C   0  0  0  0  0  0  0  0  0  0  0  0
    4.8171    7.2416   -1.9946 C   0  0  0  0  0  0  0  0  0  0  0  0
    7.1254    3.3586   -2.2928 C   0  0  0  0  0  0  0  0  0  0  0  0
    8.3862    2.8664   -1.9463 C   0  0  0  0  0  0  0  0  0  0  0  0
   11.8664    2.5947    0.6848 H   0  0  0  0  0  0  0  0  0  0  0  0
   10.3290    2.7003    1.5528 H   0  0  0  0  0  0  0  0  0  0  0  0
   11.0297    4.1499    0.7320 H   0  0  0  0  0  0  0  0  0  0  0  0
    8.7198    4.3944    1.0738 H   0  0  0  0  0  0  0  0  0  0  0  0
    6.5190    5.2305    0.4845 H   0  0  0  0  0  0  0  0  0  0  0  0
    4.3548    3.9094   -1.4437 H   0  0  0  0  0  0  0  0  0  0  0  0
    4.9265    4.6526   -2.9132 H   0  0  0  0  0  0  0  0  0  0  0  0
    2.2061    9.9852   -0.6758 H   0  0  0  0  0  0  0  0  0  0  0  0
    2.9235    8.0329    2.4010 H   0  0  0  0  0  0  0  0  0  0  0  0
    1.7938    8.4607    4.5142 H   0  0  0  0  0  0  0  0  0  0  0  0
   -0.3710   11.7236    2.7107 H   0  0  0  0  0  0  0  0  0  0  0  0
    0.7477   11.2824    0.5724 H   0  0  0  0  0  0  0  0  0  0  0  0
    3.8231   10.5263   -1.9788 H   0  0  0  0  0  0  0  0  0  0  0  0
    5.3445   10.6306   -3.8804 H   0  0  0  0  0  0  0  0  0  0  0  0
    6.6176    8.6212   -4.5754 H   0  0  0  0  0  0  0  0  0  0  0  0
    6.3018    6.4976   -3.4124 H   0  0  0  0  0  0  0  0  0  0  0  0
    6.6754    3.0283   -3.2268 H   0  0  0  0  0  0  0  0  0  0  0  0
    8.8997    2.1793   -2.6145 H   0  0  0  0  0  0  0  0  0  0  0  0
  1  2  1  0  0  0  0
  1 29  1  0  0  0  0
  1 30  1  0  0  0  0
  1 31  1  0  0  0  0
  2  3  1  0  0  0  0
  3  4  1  0  0  0  0
  3 28  2  0  0  0  0
  4  5  2  0  0  0  0
  4 32  1  0  0  0  0
  5  6  1  0  0  0  0
  5 33  1  0  0  0  0
  6  7  1  0  0  0  0
  6 27  2  0  0  0  0
  7  8  1  0  0  0  0
  7 34  1  0  0  0  0
  7 35  1  0  0  0  0
  8  9  1  0  0  0  0
  8 26  2  0  0  0  0
  9 10  2  0  0  0  0
 10 11  1  0  0  0  0
 11 12  1  0  0  0  0
 11 21  2  0  0  0  0
 12 13  1  0  0  0  0
 12 36  1  0  0  0  0
 13 14  1  0  0  0  0
 13 20  2  0  0  0  0
 14 15  2  0  0  0  0
 14 37  1  0  0  0  0
 15 16  1  0  0  0  0
 15 38  1  0  0  0  0
 16 17  1  0  0  0  0
 16 19  2  0  0  0  0
 17 18  3  0  0  0  0
 19 20  1  0  0  0  0
 19 39  1  0  0  0  0
 20 40  1  0  0  0  0
 21 22  1  0  0  0  0
 21 26  1  0  0  0  0
 22 23  2  0  0  0  0
 22 41  1  0  0  0  0
 23 24  1  0  0  0  0
 23 42  1  0  0  0  0
 24 25  2  0  0  0  0
 24 43  1  0  0  0  0
 25 26  1  0  0  0  0
 25 44  1  0  0  0  0
 27 28  1  0  0  0  0
 27 45  1  0  0  0  0
 28 46  1  0  0  0  0
M  END
$$$$
