CHEMBL3656038
 OpenBabel04072215373D

 59 62  0  0  1  0  0  0  0  0999 V2000
   -0.4819    0.9568    2.4493 C   0  0  0  0  0  0  0  0  0  0  0  0
   -1.6969    0.9633    1.5934 C   0  0  0  0  0  0  0  0  0  0  0  0
   -2.3438    2.1064    1.0459 C   0  0  0  0  0  0  0  0  0  0  0  0
   -3.4128    1.6358    0.3187 C   0  0  0  0  0  0  0  0  0  0  0  0
   -3.4734    0.2828    0.3749 O   0  0  0  0  0  0  0  0  0  0  0  0
   -2.4304   -0.1356    1.1610 C   0  0  0  0  0  0  0  0  0  0  0  0
   -2.2612   -1.5573    1.4158 C   0  0  0  0  0  0  0  0  0  0  0  0
   -1.3861   -1.9752    2.1684 O   0  0  0  0  0  0  0  0  0  0  0  0
   -3.1508   -2.3615    0.7094 N   0  0  0  0  0  0  0  0  0  0  0  0
   -3.2265   -3.7712    0.7438 C   0  0  0  0  0  0  0  0  0  0  0  0
   -2.5676   -4.5433    1.7037 C   0  0  0  0  0  0  0  0  0  0  0  0
   -2.5846   -5.9365    1.6357 C   0  0  0  0  0  0  0  0  0  0  0  0
   -3.2825   -6.5759    0.6175 C   0  0  0  0  0  0  0  0  0  0  0  0
   -4.0449   -5.8257   -0.2799 C   0  0  0  0  0  0  0  0  0  0  0  0
   -4.8178   -6.3781   -1.2812 O   0  0  0  0  0  0  0  0  0  0  0  0
   -5.3807   -7.6253   -1.1061 C   0  0  0  0  0  0  0  0  0  0  0  0
   -5.8802   -8.0962    0.1053 C   0  0  0  0  0  0  0  0  0  0  0  0
   -6.3942   -9.3800    0.1438 C   0  0  0  0  0  0  0  0  0  0  0  0
   -6.4939  -10.1831   -0.9363 N   0  0  0  0  0  0  0  0  0  0  0  0
   -6.0640   -9.6768   -2.1187 C   0  0  0  0  0  0  0  0  0  0  0  0
   -6.2646  -10.5692   -3.2551 C   0  0  0  0  0  0  0  0  0  0  0  0
   -5.9984  -10.4316   -4.6054 C   0  0  0  0  0  0  0  0  0  0  0  0
   -6.4199  -11.6139   -5.2879 C   0  0  0  0  0  0  0  0  0  0  0  0
   -6.2982  -11.8565   -6.7237 C   0  0  0  0  0  0  0  0  0  0  0  0
   -5.7578  -11.0548   -7.4799 O   0  0  0  0  0  0  0  0  0  0  0  0
   -6.8395  -13.0407   -7.1655 N   0  0  0  0  0  0  0  0  0  0  0  0
   -6.8686  -13.3701   -8.5751 C   0  0  0  0  0  0  0  0  0  0  0  0
   -7.4457  -14.7696   -8.7961 C   0  0  3  0  0  0  0  0  0  0  0  0
   -8.7871  -14.8098   -8.2832 O   0  0  0  0  0  0  0  0  0  0  0  0
   -7.4144  -15.1471  -10.2817 C   0  0  0  0  0  0  0  0  0  0  0  0
   -7.9861  -16.4335  -10.5017 O   0  0  0  0  0  0  0  0  0  0  0  0
   -6.9314  -12.4512   -4.3102 C   0  0  0  0  0  0  0  0  0  0  0  0
   -6.8265  -11.8165   -3.0997 N   0  0  0  0  0  0  0  0  0  0  0  0
   -5.5015   -8.4142   -2.2465 C   0  0  0  0  0  0  0  0  0  0  0  0
   -3.9943   -4.4239   -0.2317 C   0  0  0  0  0  0  0  0  0  0  0  0
   -0.0823    1.9685    2.5721 H   0  0  0  0  0  0  0  0  0  0  0  0
    0.3047    0.3408    2.0016 H   0  0  0  0  0  0  0  0  0  0  0  0
   -0.7109    0.5634    3.4449 H   0  0  0  0  0  0  0  0  0  0  0  0
   -2.0618    3.1417    1.1676 H   0  0  0  0  0  0  0  0  0  0  0  0
   -4.1849    2.1192   -0.2636 H   0  0  0  0  0  0  0  0  0  0  0  0
   -3.7356   -1.8692    0.0418 H   0  0  0  0  0  0  0  0  0  0  0  0
   -2.0219   -4.0906    2.5254 H   0  0  0  0  0  0  0  0  0  0  0  0
   -2.0423   -6.5187    2.3761 H   0  0  0  0  0  0  0  0  0  0  0  0
   -3.2329   -7.6589    0.5526 H   0  0  0  0  0  0  0  0  0  0  0  0
   -5.8575   -7.4978    1.0083 H   0  0  0  0  0  0  0  0  0  0  0  0
   -6.7508   -9.8086    1.0763 H   0  0  0  0  0  0  0  0  0  0  0  0
   -5.5463   -9.5710   -5.0829 H   0  0  0  0  0  0  0  0  0  0  0  0
   -7.4826  -13.5341   -6.5594 H   0  0  0  0  0  0  0  0  0  0  0  0
   -5.8482  -13.2969   -8.9673 H   0  0  0  0  0  0  0  0  0  0  0  0
   -7.4854  -12.6117   -9.0714 H   0  0  0  0  0  0  0  0  0  0  0  0
   -6.8829  -15.5092   -8.2156 H   0  0  0  0  0  0  0  0  0  0  0  0
   -9.3747  -14.4215   -8.9568 H   0  0  0  0  0  0  0  0  0  0  0  0
   -6.3875  -15.1579  -10.6598 H   0  0  0  0  0  0  0  0  0  0  0  0
   -7.9968  -14.4359  -10.8758 H   0  0  0  0  0  0  0  0  0  0  0  0
   -7.6260  -17.0435   -9.8341 H   0  0  0  0  0  0  0  0  0  0  0  0
   -7.3522  -13.4461   -4.3570 H   0  0  0  0  0  0  0  0  0  0  0  0
   -7.1128  -12.1824   -2.1991 H   0  0  0  0  0  0  0  0  0  0  0  0
   -5.1647   -8.0420   -3.2068 H   0  0  0  0  0  0  0  0  0  0  0  0
   -4.5382   -3.8554   -0.9817 H   0  0  0  0  0  0  0  0  0  0  0  0
  1  2  1  0  0  0  0
  1 36  1  0  0  0  0
  1 37  1  0  0  0  0
  1 38  1  0  0  0  0
  2  3  1  0  0  0  0
  2  6  2  0  0  0  0
  3  4  2  0  0  0  0
  3 39  1  0  0  0  0
  4  5  1  0  0  0  0
  4 40  1  0  0  0  0
  5  6  1  0  0  0  0
  6  7  1  0  0  0  0
  7  8  2  0  0  0  0
  7  9  1  0  0  0  0
  9 10  1  0  0  0  0
  9 41  1  0  0  0  0
 10 11  1  0  0  0  0
 10 35  2  0  0  0  0
 11 12  2  0  0  0  0
 11 42  1  0  0  0  0
 12 13  1  0  0  0  0
 12 43  1  0  0  0  0
 13 14  2  0  0  0  0
 13 44  1  0  0  0  0
 14 15  1  0  0  0  0
 14 35  1  0  0  0  0
 15 16  1  0  0  0  0
 16 17  1  0  0  0  0
 16 34  2  0  0  0  0
 17 18  2  0  0  0  0
 17 45  1  0  0  0  0
 18 19  1  0  0  0  0
 18 46  1  0  0  0  0
 19 20  2  0  0  0  0
 20 21  1  0  0  0  0
 20 34  1  0  0  0  0
 21 22  2  0  0  0  0
 21 33  1  0  0  0  0
 22 23  1  0  0  0  0
 22 47  1  0  0  0  0
 23 24  1  0  0  0  0
 23 32  2  0  0  0  0
 24 25  2  0  0  0  0
 24 26  1  0  0  0  0
 26 27  1  0  0  0  0
 26 48  1  0  0  0  0
 27 28  1  0  0  0  0
 27 49  1  0  0  0  0
 27 50  1  0  0  0  0
 28 29  1  0  0  0  0
 28 30  1  0  0  0  0
 28 51  1  0  0  0  0
 29 52  1  0  0  0  0
 30 31  1  0  0  0  0
 30 53  1  0  0  0  0
 30 54  1  0  0  0  0
 31 55  1  0  0  0  0
 32 33  1  0  0  0  0
 32 56  1  0  0  0  0
 33 57  1  0  0  0  0
 34 58  1  0  0  0  0
 35 59  1  0  0  0  0
M  END
$$$$
