CHEMBL2322139
 OpenBabel04072215363D

 37 40  0  0  0  0  0  0  0  0999 V2000
    0.9420   -0.2401    0.7625 F   0  0  0  0  0  0  0  0  0  0  0  0
    2.1680   -0.1484    0.1790 C   0  0  0  0  0  0  0  0  0  0  0  0
    1.9779    0.5436   -0.9749 F   0  0  0  0  0  0  0  0  0  0  0  0
    2.9189    0.6325    0.9986 F   0  0  0  0  0  0  0  0  0  0  0  0
    2.7907   -1.4929   -0.0596 C   0  0  0  0  0  0  0  0  0  0  0  0
    2.1151   -2.6314    0.0618 N   0  0  0  0  0  0  0  0  0  0  0  0
    3.0050   -3.6350   -0.1568 C   0  0  0  0  0  0  0  0  0  0  0  0
    2.8460   -5.0308   -0.1139 C   0  0  0  0  0  0  0  0  0  0  0  0
    3.8702   -5.8981   -0.3485 N   0  0  0  0  0  0  0  0  0  0  0  0
    5.0503   -5.3101   -0.6188 C   0  0  0  0  0  0  0  0  0  0  0  0
    6.2290   -5.9466   -0.8827 N   0  0  0  0  0  0  0  0  0  0  0  0
    7.2135   -5.0078   -1.1043 C   0  0  0  0  0  0  0  0  0  0  0  0
    6.6593   -3.7445   -0.9737 C   0  0  0  0  0  0  0  0  0  0  0  0
    5.2906   -3.9548   -0.6770 C   0  0  0  0  0  0  0  0  0  0  0  0
    4.2468   -3.0989   -0.4453 C   0  0  0  0  0  0  0  0  0  0  0  0
    4.1255   -1.7427   -0.4160 N   0  0  0  0  0  0  0  0  0  0  0  0
    5.1939   -0.7629   -0.6436 C   0  0  0  0  0  0  0  0  0  0  0  0
    5.8886   -0.3646    0.6708 C   0  0  0  0  0  0  0  0  0  0  0  0
    7.0337    0.6225    0.4452 C   0  0  0  0  0  0  0  0  0  0  0  0
    6.5760    1.8395   -0.3503 C   0  0  0  0  0  0  0  0  0  0  0  0
    6.0030    1.4179   -1.6992 C   0  0  0  0  0  0  0  0  0  0  0  0
    4.8311    0.4546   -1.5135 C   0  0  0  0  0  0  0  0  0  0  0  0
    1.8852   -5.4769    0.1200 H   0  0  0  0  0  0  0  0  0  0  0  0
    6.3375   -6.9506   -0.9005 H   0  0  0  0  0  0  0  0  0  0  0  0
    8.2237   -5.3244   -1.3302 H   0  0  0  0  0  0  0  0  0  0  0  0
    7.2215   -2.8309   -1.0868 H   0  0  0  0  0  0  0  0  0  0  0  0
    5.9334   -1.2829   -1.2550 H   0  0  0  0  0  0  0  0  0  0  0  0
    6.2829   -1.2558    1.1748 H   0  0  0  0  0  0  0  0  0  0  0  0
    5.1662    0.0820    1.3632 H   0  0  0  0  0  0  0  0  0  0  0  0
    7.8486    0.1222   -0.0928 H   0  0  0  0  0  0  0  0  0  0  0  0
    7.4396    0.9439    1.4109 H   0  0  0  0  0  0  0  0  0  0  0  0
    7.4160    2.5262   -0.5015 H   0  0  0  0  0  0  0  0  0  0  0  0
    5.8144    2.3859    0.2204 H   0  0  0  0  0  0  0  0  0  0  0  0
    6.7847    0.9488   -2.3080 H   0  0  0  0  0  0  0  0  0  0  0  0
    5.6599    2.3051   -2.2436 H   0  0  0  0  0  0  0  0  0  0  0  0
    4.4675    0.1199   -2.4924 H   0  0  0  0  0  0  0  0  0  0  0  0
    4.0386    1.0428   -1.0560 H   0  0  0  0  0  0  0  0  0  0  0  0
  1  2  1  0  0  0  0
  2  3  1  0  0  0  0
  2  4  1  0  0  0  0
  2  5  1  0  0  0  0
  5  6  2  0  0  0  0
  5 16  1  0  0  0  0
  6  7  1  0  0  0  0
  7  8  1  0  0  0  0
  7 15  2  0  0  0  0
  8  9  2  0  0  0  0
  8 23  1  0  0  0  0
  9 10  1  0  0  0  0
 10 11  1  0  0  0  0
 10 14  2  0  0  0  0
 11 12  1  0  0  0  0
 11 24  1  0  0  0  0
 12 13  2  0  0  0  0
 12 25  1  0  0  0  0
 13 14  1  0  0  0  0
 13 26  1  0  0  0  0
 14 15  1  0  0  0  0
 15 16  1  0  0  0  0
 16 17  1  0  0  0  0
 17 18  1  0  0  0  0
 17 22  1  0  0  0  0
 17 27  1  0  0  0  0
 18 19  1  0  0  0  0
 18 28  1  0  0  0  0
 18 29  1  0  0  0  0
 19 20  1  0  0  0  0
 19 30  1  0  0  0  0
 19 31  1  0  0  0  0
 20 21  1  0  0  0  0
 20 32  1  0  0  0  0
 20 33  1  0  0  0  0
 21 22  1  0  0  0  0
 21 34  1  0  0  0  0
 21 35  1  0  0  0  0
 22 36  1  0  0  0  0
 22 37  1  0  0  0  0
M  END
$$$$
