CHEMBL1966175
 OpenBabel04072215363D

 42 45  0  0  1  0  0  0  0  0999 V2000
   -2.5237   -0.0370   -0.1119 C   0  0  0  0  0  0  0  0  0  0  0  0
   -1.0626   -0.0214    0.3656 C   0  0  3  0  0  0  0  0  0  0  0  0
   -0.3372   -1.2771   -0.1516 C   0  0  0  0  0  0  0  0  0  0  0  0
    1.1534   -1.2680    0.1852 C   0  0  0  0  0  0  0  0  0  0  0  0
    1.7831   -0.0501   -0.3125 N   0  0  0  0  0  0  0  0  0  0  0  0
    2.9142    0.0137   -1.1303 C   0  0  0  0  0  0  0  0  0  0  0  0
    3.3643    1.1000   -1.4895 O   0  0  0  0  0  0  0  0  0  0  0  0
    3.5692   -1.3044   -1.5736 C   0  0  0  0  0  0  0  0  0  0  0  0
    4.7776   -1.0209   -2.4510 C   0  0  0  0  0  0  0  0  0  0  0  0
    5.7800   -0.7857   -3.1789 N   0  0  0  0  0  0  0  0  0  0  0  0
    1.1832    1.1938    0.2069 C   0  0  0  0  0  0  0  0  0  0  0  0
   -0.3257    1.2618   -0.0946 C   0  0  3  0  0  0  0  0  0  0  0  0
   -0.9416    2.4762    0.5407 C   0  0  0  0  0  0  0  0  0  0  0  0
   -0.9500    2.7311    1.8424 N   0  0  0  0  0  0  0  0  0  0  0  0
   -1.7213    3.8575    2.0108 C   0  0  0  0  0  0  0  0  0  0  0  0
   -2.1823    4.3081    0.7996 C   0  0  0  0  0  0  0  0  0  0  0  0
   -3.0254    5.4088    0.3860 C   0  0  0  0  0  0  0  0  0  0  0  0
   -3.3449    5.6282   -0.8688 N   0  0  0  0  0  0  0  0  0  0  0  0
   -2.8156    4.7273   -1.7404 C   0  0  0  0  0  0  0  0  0  0  0  0
   -3.0076    4.7605   -3.0942 N   0  0  0  0  0  0  0  0  0  0  0  0
   -2.3390    3.7073   -3.6766 C   0  0  0  0  0  0  0  0  0  0  0  0
   -1.7007    2.9892   -2.6843 C   0  0  0  0  0  0  0  0  0  0  0  0
   -2.0027    3.6404   -1.4822 C   0  0  0  0  0  0  0  0  0  0  0  0
   -1.6734    3.4284   -0.1333 N   0  0  0  0  0  0  0  0  0  0  0  0
   -3.0330   -0.9448    0.2272 H   0  0  0  0  0  0  0  0  0  0  0  0
   -2.5851   -0.0028   -1.2054 H   0  0  0  0  0  0  0  0  0  0  0  0
   -3.0882    0.8151    0.2808 H   0  0  0  0  0  0  0  0  0  0  0  0
   -1.0692   -0.0569    1.4637 H   0  0  0  0  0  0  0  0  0  0  0  0
   -0.4567   -1.3441   -1.2409 H   0  0  0  0  0  0  0  0  0  0  0  0
   -0.8010   -2.1722    0.2788 H   0  0  0  0  0  0  0  0  0  0  0  0
    1.6267   -2.1597   -0.2280 H   0  0  0  0  0  0  0  0  0  0  0  0
    1.2982   -1.2900    1.2719 H   0  0  0  0  0  0  0  0  0  0  0  0
    2.8449   -1.8913   -2.1467 H   0  0  0  0  0  0  0  0  0  0  0  0
    3.8914   -1.8624   -0.6893 H   0  0  0  0  0  0  0  0  0  0  0  0
    1.6807    2.0759   -0.2128 H   0  0  0  0  0  0  0  0  0  0  0  0
    1.3664    1.2134    1.2885 H   0  0  0  0  0  0  0  0  0  0  0  0
   -0.4089    1.3000   -1.1791 H   0  0  0  0  0  0  0  0  0  0  0  0
   -1.9034    4.2660    2.9978 H   0  0  0  0  0  0  0  0  0  0  0  0
   -3.4184    6.0924    1.1553 H   0  0  0  0  0  0  0  0  0  0  0  0
   -3.5512    5.4582   -3.5782 H   0  0  0  0  0  0  0  0  0  0  0  0
   -2.3662    3.5579   -4.7475 H   0  0  0  0  0  0  0  0  0  0  0  0
   -1.0971    2.1136   -2.8670 H   0  0  0  0  0  0  0  0  0  0  0  0
  1  2  1  0  0  0  0
  1 25  1  0  0  0  0
  1 26  1  0  0  0  0
  1 27  1  0  0  0  0
  2  3  1  0  0  0  0
  2 12  1  0  0  0  0
  2 28  1  0  0  0  0
  3  4  1  0  0  0  0
  3 29  1  0  0  0  0
  3 30  1  0  0  0  0
  4  5  1  0  0  0  0
  4 31  1  0  0  0  0
  4 32  1  0  0  0  0
  5  6  1  0  0  0  0
  5 11  1  0  0  0  0
  6  7  2  0  0  0  0
  6  8  1  0  0  0  0
  8  9  1  0  0  0  0
  8 33  1  0  0  0  0
  8 34  1  0  0  0  0
  9 10  3  0  0  0  0
 11 12  1  0  0  0  0
 11 35  1  0  0  0  0
 11 36  1  0  0  0  0
 12 13  1  0  0  0  0
 12 37  1  0  0  0  0
 13 14  2  0  0  0  0
 13 24  1  0  0  0  0
 14 15  1  0  0  0  0
 15 16  2  0  0  0  0
 15 38  1  0  0  0  0
 16 17  1  0  0  0  0
 16 24  1  0  0  0  0
 17 18  2  0  0  0  0
 17 39  1  0  0  0  0
 18 19  1  0  0  0  0
 19 20  1  0  0  0  0
 19 23  2  0  0  0  0
 20 21  1  0  0  0  0
 20 40  1  0  0  0  0
 21 22  2  0  0  0  0
 21 41  1  0  0  0  0
 22 23  1  0  0  0  0
 22 42  1  0  0  0  0
 23 24  1  0  0  0  0
M  END
$$$$
