CHEMBL521155
 OpenBabel04072215383D

 34 37  0  0  0  0  0  0  0  0999 V2000
    0.4039   -1.7639    0.5326 N   0  0  0  0  0  0  0  0  0  0  0  0
    1.6228   -2.2965    0.9316 C   0  0  0  0  0  0  0  0  0  0  0  0
    1.6413   -3.1008    2.0188 N   0  0  0  0  0  0  0  0  0  0  0  0
    2.8193   -3.6453    2.3920 C   0  0  0  0  0  0  0  0  0  0  0  0
    4.0368   -3.4897    1.8268 N   0  0  0  0  0  0  0  0  0  0  0  0
    3.9669   -2.6670    0.7652 C   0  0  0  0  0  0  0  0  0  0  0  0
    2.8351   -2.0378    0.2672 C   0  0  0  0  0  0  0  0  0  0  0  0
    3.1507   -1.2610   -0.8280 N   0  0  0  0  0  0  0  0  0  0  0  0
    4.4430   -1.4360   -1.0082 C   0  0  0  0  0  0  0  0  0  0  0  0
    4.9785   -2.2777   -0.0704 N   0  0  0  0  0  0  0  0  0  0  0  0
    6.3482   -2.7561   -0.0507 C   0  0  0  0  0  0  0  0  0  0  0  0
    7.3558   -1.6374    0.1359 C   0  0  0  0  0  0  0  0  0  0  0  0
    7.8830   -1.1209   -0.8508 O   0  0  0  0  0  0  0  0  0  0  0  0
    7.6632   -1.1772    1.4949 C   0  0  0  0  0  0  0  0  0  0  0  0
    7.0885   -1.6765    2.6513 C   0  0  0  0  0  0  0  0  0  0  0  0
    7.5801   -0.9875    3.7205 N   0  0  0  0  0  0  0  0  0  0  0  0
    8.4850   -0.0449    3.3030 C   0  0  0  0  0  0  0  0  0  0  0  0
    9.2117    0.8827    4.0585 C   0  0  0  0  0  0  0  0  0  0  0  0
   10.0780    1.7375    3.3767 C   0  0  0  0  0  0  0  0  0  0  0  0
   10.2182    1.6549    1.9940 C   0  0  0  0  0  0  0  0  0  0  0  0
    9.4799    0.7200    1.2519 C   0  0  0  0  0  0  0  0  0  0  0  0
    8.5803   -0.1483    1.9124 C   0  0  0  0  0  0  0  0  0  0  0  0
   -0.2806   -1.7587    1.2767 H   0  0  0  0  0  0  0  0  0  0  0  0
    0.4884   -0.9345   -0.0437 H   0  0  0  0  0  0  0  0  0  0  0  0
    2.7782   -4.2928    3.2640 H   0  0  0  0  0  0  0  0  0  0  0  0
    5.0327   -0.9878   -1.8001 H   0  0  0  0  0  0  0  0  0  0  0  0
    6.5297   -3.2484   -1.0137 H   0  0  0  0  0  0  0  0  0  0  0  0
    6.4635   -3.5235    0.7200 H   0  0  0  0  0  0  0  0  0  0  0  0
    6.3555   -2.4566    2.8146 H   0  0  0  0  0  0  0  0  0  0  0  0
    7.3158   -1.1347    4.6837 H   0  0  0  0  0  0  0  0  0  0  0  0
    9.1030    0.9439    5.1364 H   0  0  0  0  0  0  0  0  0  0  0  0
   10.6483    2.4762    3.9364 H   0  0  0  0  0  0  0  0  0  0  0  0
   10.9031    2.3275    1.4841 H   0  0  0  0  0  0  0  0  0  0  0  0
    9.6028    0.6731    0.1724 H   0  0  0  0  0  0  0  0  0  0  0  0
  1  2  1  0  0  0  0
  1 23  1  0  0  0  0
  1 24  1  0  0  0  0
  2  3  1  0  0  0  0
  2  7  2  0  0  0  0
  3  4  2  0  0  0  0
  4  5  1  0  0  0  0
  4 25  1  0  0  0  0
  5  6  2  0  0  0  0
  6  7  1  0  0  0  0
  6 10  1  0  0  0  0
  7  8  1  0  0  0  0
  8  9  2  0  0  0  0
  9 10  1  0  0  0  0
  9 26  1  0  0  0  0
 10 11  1  0  0  0  0
 11 12  1  0  0  0  0
 11 27  1  0  0  0  0
 11 28  1  0  0  0  0
 12 13  2  0  0  0  0
 12 14  1  0  0  0  0
 14 15  2  0  0  0  0
 14 22  1  0  0  0  0
 15 16  1  0  0  0  0
 15 29  1  0  0  0  0
 16 17  1  0  0  0  0
 16 30  1  0  0  0  0
 17 18  1  0  0  0  0
 17 22  2  0  0  0  0
 18 19  2  0  0  0  0
 18 31  1  0  0  0  0
 19 20  1  0  0  0  0
 19 32  1  0  0  0  0
 20 21  2  0  0  0  0
 20 33  1  0  0  0  0
 21 22  1  0  0  0  0
 21 34  1  0  0  0  0
M  END
$$$$
