CHEMBL1907763
 OpenBabel04072215363D

 54 57  0  0  1  0  0  0  0  0999 V2000
    3.2861   -1.2040   -0.1885 C   0  0  0  0  0  0  0  0  0  0  0  0
    2.4853   -0.3535    0.6428 O   0  0  0  0  0  0  0  0  0  0  0  0
    3.1280    0.7458    1.1520 C   0  0  0  0  0  0  0  0  0  0  0  0
    4.1980    1.3595    0.4832 C   0  0  0  0  0  0  0  0  0  0  0  0
    4.9487    2.3930    1.1015 C   0  0  0  0  0  0  0  0  0  0  0  0
    6.0510    3.0620    0.5601 C   0  0  0  0  0  0  0  0  0  0  0  0
    6.4469    2.8217   -0.7762 N   0  0  0  0  0  0  0  0  0  0  0  0
    7.3085    3.7058   -1.4639 C   0  0  0  0  0  0  0  0  0  0  0  0
    7.0906    5.0917   -1.4116 C   0  0  0  0  0  0  0  0  0  0  0  0
    8.0273    5.9779   -1.9390 C   0  0  0  0  0  0  0  0  0  0  0  0
    9.1684    5.4771   -2.5592 C   0  0  0  0  0  0  0  0  0  0  0  0
   10.3597    6.5722   -3.1402 Cl  0  0  0  0  0  0  0  0  0  0  0  0
    9.3669    4.1025   -2.6879 C   0  0  0  0  0  0  0  0  0  0  0  0
    8.4320    3.2292   -2.1442 C   0  0  0  0  0  0  0  0  0  0  0  0
    8.6388    1.9056   -2.2303 F   0  0  0  0  0  0  0  0  0  0  0  0
    6.7439    3.9878    1.2701 N   0  0  0  0  0  0  0  0  0  0  0  0
    6.3034    4.2940    2.4873 C   0  0  0  0  0  0  0  0  0  0  0  0
    5.2270    3.7679    3.0613 N   0  0  0  0  0  0  0  0  0  0  0  0
    4.5793    2.8452    2.3626 C   0  0  0  0  0  0  0  0  0  0  0  0
    3.4536    2.3242    2.9450 C   0  0  0  0  0  0  0  0  0  0  0  0
    2.7019    1.2810    2.3789 C   0  0  0  0  0  0  0  0  0  0  0  0
    1.5789    0.7697    3.0189 O   0  0  0  0  0  0  0  0  0  0  0  0
    1.2897    1.4519    4.2508 C   0  0  0  0  0  0  0  0  0  0  0  0
    0.1091    0.9444    5.0618 C   0  0  2  0  0  0  0  0  0  0  0  0
    0.3126   -0.4911    5.5362 C   0  0  0  0  0  0  0  0  0  0  0  0
   -0.8706   -0.8984    6.4047 C   0  0  0  0  0  0  0  0  0  0  0  0
   -2.1942   -0.6675    5.6721 C   0  0  0  0  0  0  0  0  0  0  0  0
   -2.3313    0.7227    5.2121 N   0  0  0  0  0  0  0  0  0  0  0  0
   -3.6072    0.9127    4.5233 C   0  0  0  0  0  0  0  0  0  0  0  0
   -1.2197    1.1087    4.3272 C   0  0  0  0  0  0  0  0  0  0  0  0
    2.9603   -2.2379   -0.0412 H   0  0  0  0  0  0  0  0  0  0  0  0
    4.3552   -1.1738    0.0580 H   0  0  0  0  0  0  0  0  0  0  0  0
    3.1386   -0.9442   -1.2424 H   0  0  0  0  0  0  0  0  0  0  0  0
    4.4770    1.0388   -0.5159 H   0  0  0  0  0  0  0  0  0  0  0  0
    6.7079    1.8483   -0.9051 H   0  0  0  0  0  0  0  0  0  0  0  0
    6.2156    5.4866   -0.8985 H   0  0  0  0  0  0  0  0  0  0  0  0
    7.8678    7.0469   -1.8295 H   0  0  0  0  0  0  0  0  0  0  0  0
   10.2503    3.7057   -3.1772 H   0  0  0  0  0  0  0  0  0  0  0  0
    6.8679    5.0261    3.0532 H   0  0  0  0  0  0  0  0  0  0  0  0
    3.1932    2.7852    3.8898 H   0  0  0  0  0  0  0  0  0  0  0  0
    1.0921    2.5107    4.0330 H   0  0  0  0  0  0  0  0  0  0  0  0
    2.1596    1.3564    4.9139 H   0  0  0  0  0  0  0  0  0  0  0  0
    0.0715    1.5846    5.9576 H   0  0  0  0  0  0  0  0  0  0  0  0
    1.2397   -0.5726    6.1163 H   0  0  0  0  0  0  0  0  0  0  0  0
    0.4033   -1.1696    4.6801 H   0  0  0  0  0  0  0  0  0  0  0  0
   -0.8565   -0.3159    7.3360 H   0  0  0  0  0  0  0  0  0  0  0  0
   -0.7754   -1.9521    6.6873 H   0  0  0  0  0  0  0  0  0  0  0  0
   -3.0098   -0.9069    6.3646 H   0  0  0  0  0  0  0  0  0  0  0  0
   -2.2635   -1.3623    4.8259 H   0  0  0  0  0  0  0  0  0  0  0  0
   -4.4441    0.6822    5.1912 H   0  0  0  0  0  0  0  0  0  0  0  0
   -3.6891    0.2811    3.6316 H   0  0  0  0  0  0  0  0  0  0  0  0
   -3.7276    1.9580    4.2171 H   0  0  0  0  0  0  0  0  0  0  0  0
   -1.3361    2.1649    4.0498 H   0  0  0  0  0  0  0  0  0  0  0  0
   -1.2256    0.5224    3.4001 H   0  0  0  0  0  0  0  0  0  0  0  0
  1  2  1  0  0  0  0
  1 31  1  0  0  0  0
  1 32  1  0  0  0  0
  1 33  1  0  0  0  0
  2  3  1  0  0  0  0
  3  4  1  0  0  0  0
  3 21  2  0  0  0  0
  4  5  2  0  0  0  0
  4 34  1  0  0  0  0
  5  6  1  0  0  0  0
  5 19  1  0  0  0  0
  6  7  1  0  0  0  0
  6 16  2  0  0  0  0
  7  8  1  0  0  0  0
  7 35  1  0  0  0  0
  8  9  1  0  0  0  0
  8 14  2  0  0  0  0
  9 10  2  0  0  0  0
  9 36  1  0  0  0  0
 10 11  1  0  0  0  0
 10 37  1  0  0  0  0
 11 12  1  0  0  0  0
 11 13  2  0  0  0  0
 13 14  1  0  0  0  0
 13 38  1  0  0  0  0
 14 15  1  0  0  0  0
 16 17  1  0  0  0  0
 17 18  2  0  0  0  0
 17 39  1  0  0  0  0
 18 19  1  0  0  0  0
 19 20  2  0  0  0  0
 20 21  1  0  0  0  0
 20 40  1  0  0  0  0
 21 22  1  0  0  0  0
 22 23  1  0  0  0  0
 23 24  1  0  0  0  0
 23 41  1  0  0  0  0
 23 42  1  0  0  0  0
 24 25  1  0  0  0  0
 24 30  1  0  0  0  0
 24 43  1  1  0  0  0
 25 26  1  0  0  0  0
 25 44  1  0  0  0  0
 25 45  1  0  0  0  0
 26 27  1  0  0  0  0
 26 46  1  0  0  0  0
 26 47  1  0  0  0  0
 27 28  1  0  0  0  0
 27 48  1  0  0  0  0
 27 49  1  0  0  0  0
 28 29  1  0  0  0  0
 28 30  1  0  0  0  0
 29 50  1  0  0  0  0
 29 51  1  0  0  0  0
 29 52  1  0  0  0  0
 30 53  1  0  0  0  0
 30 54  1  0  0  0  0
M  END
$$$$
