CHEMBL3943862
 OpenBabel04072215373D

 52 55  0  0  0  0  0  0  0  0999 V2000
    1.3345   -0.1724    2.2194 C   0  0  0  0  0  0  0  0  0  0  0  0
   -0.1369   -0.0268    2.0576 C   0  0  0  0  0  0  0  0  0  0  0  0
   -0.8816    1.1722    2.2402 C   0  0  0  0  0  0  0  0  0  0  0  0
   -2.1937    0.8640    1.9829 C   0  0  0  0  0  0  0  0  0  0  0  0
   -2.3191   -0.4431    1.6496 O   0  0  0  0  0  0  0  0  0  0  0  0
   -1.0637   -0.9990    1.6930 C   0  0  0  0  0  0  0  0  0  0  0  0
   -0.9220   -2.4074    1.3652 C   0  0  0  0  0  0  0  0  0  0  0  0
    0.1660   -2.9722    1.4212 O   0  0  0  0  0  0  0  0  0  0  0  0
   -2.1115   -3.0052    0.9578 N   0  0  0  0  0  0  0  0  0  0  0  0
   -2.2828   -4.3480    0.5640 C   0  0  0  0  0  0  0  0  0  0  0  0
   -1.3427   -5.3414    0.8417 C   0  0  0  0  0  0  0  0  0  0  0  0
   -1.5006   -6.6376    0.3552 C   0  0  0  0  0  0  0  0  0  0  0  0
   -2.6203   -6.9601   -0.3988 C   0  0  0  0  0  0  0  0  0  0  0  0
   -3.6375   -6.0169   -0.5719 C   0  0  0  0  0  0  0  0  0  0  0  0
   -4.8337   -6.2925   -1.1981 O   0  0  0  0  0  0  0  0  0  0  0  0
   -5.3908   -7.5498   -1.0688 C   0  0  0  0  0  0  0  0  0  0  0  0
   -5.2172   -8.3693    0.0507 C   0  0  0  0  0  0  0  0  0  0  0  0
   -5.7499   -9.6419    0.0478 C   0  0  0  0  0  0  0  0  0  0  0  0
   -6.5069  -10.1555   -0.9333 N   0  0  0  0  0  0  0  0  0  0  0  0
   -6.7485   -9.3285   -1.9842 C   0  0  0  0  0  0  0  0  0  0  0  0
   -7.5547   -9.6673   -3.1028 C   0  0  0  0  0  0  0  0  0  0  0  0
   -7.6503   -8.6509   -4.0301 C   0  0  0  0  0  0  0  0  0  0  0  0
   -8.4512   -8.6055   -5.2381 C   0  0  0  0  0  0  0  0  0  0  0  0
   -8.6201   -7.6597   -5.9882 O   0  0  0  0  0  0  0  0  0  0  0  0
   -9.1219   -9.7916   -5.3399 O   0  0  0  0  0  0  0  0  0  0  0  0
  -10.5266   -9.6664   -5.5694 C   0  0  0  0  0  0  0  0  0  0  0  0
  -10.9350  -10.2179   -6.9224 C   0  0  0  0  0  0  0  0  0  0  0  0
  -10.5314  -11.6756   -7.0982 C   0  0  0  0  0  0  0  0  0  0  0  0
  -10.9546  -12.1455   -8.3717 O   0  0  0  0  0  0  0  0  0  0  0  0
   -6.7398   -7.2854   -3.5472 S   0  0  0  0  0  0  0  0  0  0  0  0
   -6.2225   -8.0426   -2.0875 C   0  0  0  0  0  0  0  0  0  0  0  0
   -3.4538   -4.7026   -0.1254 C   0  0  0  0  0  0  0  0  0  0  0  0
    1.7945    0.7953    2.4504 H   0  0  0  0  0  0  0  0  0  0  0  0
    1.7955   -0.5441    1.2986 H   0  0  0  0  0  0  0  0  0  0  0  0
    1.5751   -0.8572    3.0377 H   0  0  0  0  0  0  0  0  0  0  0  0
   -0.4989    2.1427    2.5213 H   0  0  0  0  0  0  0  0  0  0  0  0
   -3.1106    1.4372    1.9898 H   0  0  0  0  0  0  0  0  0  0  0  0
   -2.8937   -2.3701    0.8396 H   0  0  0  0  0  0  0  0  0  0  0  0
   -0.4653   -5.1375    1.4458 H   0  0  0  0  0  0  0  0  0  0  0  0
   -0.7470   -7.3908    0.5682 H   0  0  0  0  0  0  0  0  0  0  0  0
   -2.7034   -7.9641   -0.8050 H   0  0  0  0  0  0  0  0  0  0  0  0
   -4.6381   -8.0467    0.9100 H   0  0  0  0  0  0  0  0  0  0  0  0
   -5.5564  -10.3153    0.8799 H   0  0  0  0  0  0  0  0  0  0  0  0
   -8.0640  -10.6191   -3.1948 H   0  0  0  0  0  0  0  0  0  0  0  0
  -10.8656   -8.6291   -5.4532 H   0  0  0  0  0  0  0  0  0  0  0  0
  -11.0095  -10.2456   -4.7754 H   0  0  0  0  0  0  0  0  0  0  0  0
  -10.4857   -9.6226   -7.7258 H   0  0  0  0  0  0  0  0  0  0  0  0
  -12.0220  -10.1221   -7.0370 H   0  0  0  0  0  0  0  0  0  0  0  0
  -10.9843  -12.3097   -6.3286 H   0  0  0  0  0  0  0  0  0  0  0  0
   -9.4458  -11.7931   -7.0427 H   0  0  0  0  0  0  0  0  0  0  0  0
  -11.9244  -12.0870   -8.4051 H   0  0  0  0  0  0  0  0  0  0  0  0
   -4.2233   -3.9636   -0.3413 H   0  0  0  0  0  0  0  0  0  0  0  0
  1  2  1  0  0  0  0
  1 33  1  0  0  0  0
  1 34  1  0  0  0  0
  1 35  1  0  0  0  0
  2  3  1  0  0  0  0
  2  6  2  0  0  0  0
  3  4  2  0  0  0  0
  3 36  1  0  0  0  0
  4  5  1  0  0  0  0
  4 37  1  0  0  0  0
  5  6  1  0  0  0  0
  6  7  1  0  0  0  0
  7  8  2  0  0  0  0
  7  9  1  0  0  0  0
  9 10  1  0  0  0  0
  9 38  1  0  0  0  0
 10 11  1  0  0  0  0
 10 32  2  0  0  0  0
 11 12  2  0  0  0  0
 11 39  1  0  0  0  0
 12 13  1  0  0  0  0
 12 40  1  0  0  0  0
 13 14  2  0  0  0  0
 13 41  1  0  0  0  0
 14 15  1  0  0  0  0
 14 32  1  0  0  0  0
 15 16  1  0  0  0  0
 16 17  1  0  0  0  0
 16 31  2  0  0  0  0
 17 18  2  0  0  0  0
 17 42  1  0  0  0  0
 18 19  1  0  0  0  0
 18 43  1  0  0  0  0
 19 20  2  0  0  0  0
 20 21  1  0  0  0  0
 20 31  1  0  0  0  0
 21 22  2  0  0  0  0
 21 44  1  0  0  0  0
 22 23  1  0  0  0  0
 22 30  1  0  0  0  0
 23 24  2  0  0  0  0
 23 25  1  0  0  0  0
 25 26  1  0  0  0  0
 26 27  1  0  0  0  0
 26 45  1  0  0  0  0
 26 46  1  0  0  0  0
 27 28  1  0  0  0  0
 27 47  1  0  0  0  0
 27 48  1  0  0  0  0
 28 29  1  0  0  0  0
 28 49  1  0  0  0  0
 28 50  1  0  0  0  0
 29 51  1  0  0  0  0
 30 31  1  0  0  0  0
 32 52  1  0  0  0  0
M  END
$$$$
