CHEMBL372657
 OpenBabel04072215373D

 48 51  0  0  0  0  0  0  0  0999 V2000
    9.9856   -4.3093    5.8878 Cl  0  0  0  0  0  0  0  0  0  0  0  0
    9.5029   -3.4323    4.4871 C   0  0  0  0  0  0  0  0  0  0  0  0
   10.4696   -2.8081    3.7001 C   0  0  0  0  0  0  0  0  0  0  0  0
   10.0801   -2.0882    2.5709 C   0  0  0  0  0  0  0  0  0  0  0  0
    8.7267   -2.0162    2.2326 C   0  0  0  0  0  0  0  0  0  0  0  0
    7.7522   -2.6770    2.9945 C   0  0  0  0  0  0  0  0  0  0  0  0
    6.3680   -2.5533    2.7110 N   0  0  0  0  0  0  0  0  0  0  0  0
    5.8358   -2.4818    1.3979 C   0  0  0  0  0  0  0  0  0  0  0  0
    4.5903   -1.8950    1.1771 C   0  0  0  0  0  0  0  0  0  0  0  0
    3.9877   -1.8389   -0.0333 N   0  0  0  0  0  0  0  0  0  0  0  0
    4.6738   -2.4330   -1.0370 C   0  0  0  0  0  0  0  0  0  0  0  0
    5.9141   -3.0418   -0.8592 C   0  0  0  0  0  0  0  0  0  0  0  0
    6.6717   -3.6706   -1.9495 C   0  0  0  0  0  0  0  0  0  0  0  0
    7.4960   -4.7728   -1.7188 C   0  0  0  0  0  0  0  0  0  0  0  0
    8.2104   -5.4153   -2.6732 N   0  0  0  0  0  0  0  0  0  0  0  0
    8.1404   -4.9030   -3.9227 C   0  0  0  0  0  0  0  0  0  0  0  0
    7.3986   -3.7789   -4.2856 C   0  0  0  0  0  0  0  0  0  0  0  0
    7.4704   -3.2934   -5.5897 N   0  0  0  0  0  0  0  0  0  0  0  0
    7.1290   -1.9114   -5.8878 C   0  0  0  0  0  0  0  0  0  0  0  0
    7.9290   -1.4582   -7.1070 C   0  0  0  0  0  0  0  0  0  0  0  0
    7.6672    0.0137   -7.4020 C   0  0  0  0  0  0  0  0  0  0  0  0
    8.4201    0.4928   -8.5382 N   0  0  0  0  0  0  0  0  0  0  0  0
    9.6492    1.0732   -8.5405 C   0  0  0  0  0  0  0  0  0  0  0  0
    9.9667    1.4192   -9.7665 N   0  0  0  0  0  0  0  0  0  0  0  0
    8.8768    1.0216  -10.4883 C   0  0  0  0  0  0  0  0  0  0  0  0
    7.9018    0.4470   -9.7781 N   0  0  0  0  0  0  0  0  0  0  0  0
    6.6387   -3.1895   -3.2710 C   0  0  0  0  0  0  0  0  0  0  0  0
    6.4917   -3.0698    0.3670 N   0  0  0  0  0  0  0  0  0  0  0  0
    8.1493   -3.3522    4.1488 C   0  0  0  0  0  0  0  0  0  0  0  0
   11.5225   -2.8757    3.9596 H   0  0  0  0  0  0  0  0  0  0  0  0
   10.8229   -1.5904    1.9574 H   0  0  0  0  0  0  0  0  0  0  0  0
    8.4424   -1.4418    1.3527 H   0  0  0  0  0  0  0  0  0  0  0  0
    5.9889   -1.8104    3.2884 H   0  0  0  0  0  0  0  0  0  0  0  0
    4.0349   -1.4289    1.9840 H   0  0  0  0  0  0  0  0  0  0  0  0
    4.1754   -2.4127   -2.0011 H   0  0  0  0  0  0  0  0  0  0  0  0
    7.6046   -5.1927   -0.7198 H   0  0  0  0  0  0  0  0  0  0  0  0
    8.7591   -5.4147   -4.6556 H   0  0  0  0  0  0  0  0  0  0  0  0
    7.1395   -3.9728   -6.2747 H   0  0  0  0  0  0  0  0  0  0  0  0
    7.3950   -1.2577   -5.0477 H   0  0  0  0  0  0  0  0  0  0  0  0
    6.0525   -1.8158   -6.0693 H   0  0  0  0  0  0  0  0  0  0  0  0
    7.6747   -2.0759   -7.9774 H   0  0  0  0  0  0  0  0  0  0  0  0
    9.0006   -1.6140   -6.9230 H   0  0  0  0  0  0  0  0  0  0  0  0
    7.9406    0.6389   -6.5440 H   0  0  0  0  0  0  0  0  0  0  0  0
    6.6051    0.1862   -7.6123 H   0  0  0  0  0  0  0  0  0  0  0  0
   10.2493    1.2195   -7.6532 H   0  0  0  0  0  0  0  0  0  0  0  0
    8.7921    1.1589  -11.5589 H   0  0  0  0  0  0  0  0  0  0  0  0
    6.0199   -2.3290   -3.5056 H   0  0  0  0  0  0  0  0  0  0  0  0
    7.4068   -3.8450    4.7728 H   0  0  0  0  0  0  0  0  0  0  0  0
  1  2  1  0  0  0  0
  2  3  1  0  0  0  0
  2 29  2  0  0  0  0
  3  4  2  0  0  0  0
  3 30  1  0  0  0  0
  4  5  1  0  0  0  0
  4 31  1  0  0  0  0
  5  6  2  0  0  0  0
  5 32  1  0  0  0  0
  6  7  1  0  0  0  0
  6 29  1  0  0  0  0
  7  8  1  0  0  0  0
  7 33  1  0  0  0  0
  8  9  1  0  0  0  0
  8 28  2  0  0  0  0
  9 10  2  0  0  0  0
  9 34  1  0  0  0  0
 10 11  1  0  0  0  0
 11 12  2  0  0  0  0
 11 35  1  0  0  0  0
 12 13  1  0  0  0  0
 12 28  1  0  0  0  0
 13 14  1  0  0  0  0
 13 27  2  0  0  0  0
 14 15  2  0  0  0  0
 14 36  1  0  0  0  0
 15 16  1  0  0  0  0
 16 17  2  0  0  0  0
 16 37  1  0  0  0  0
 17 18  1  0  0  0  0
 17 27  1  0  0  0  0
 18 19  1  0  0  0  0
 18 38  1  0  0  0  0
 19 20  1  0  0  0  0
 19 39  1  0  0  0  0
 19 40  1  0  0  0  0
 20 21  1  0  0  0  0
 20 41  1  0  0  0  0
 20 42  1  0  0  0  0
 21 22  1  0  0  0  0
 21 43  1  0  0  0  0
 21 44  1  0  0  0  0
 22 23  1  0  0  0  0
 22 26  1  0  0  0  0
 23 24  2  0  0  0  0
 23 45  1  0  0  0  0
 24 25  1  0  0  0  0
 25 26  2  0  0  0  0
 25 46  1  0  0  0  0
 27 47  1  0  0  0  0
 29 48  1  0  0  0  0
M  END
$$$$
