CHEMBL519976
 OpenBabel04072215383D

 32 34  0  0  0  0  0  0  0  0999 V2000
    1.3015   -0.0420    0.8578 C   0  0  0  0  0  0  0  0  0  0  0  0
    2.3953   -0.2101   -0.0382 O   0  0  0  0  0  0  0  0  0  0  0  0
    3.0271    0.9802   -0.3407 C   0  0  0  0  0  0  0  0  0  0  0  0
    2.5700    2.1424    0.1946 N   0  0  0  0  0  0  0  0  0  0  0  0
    3.2102    3.2819   -0.1360 C   0  0  0  0  0  0  0  0  0  0  0  0
    4.2708    3.4435   -0.9584 N   0  0  0  0  0  0  0  0  0  0  0  0
    4.6784    2.2580   -1.4502 C   0  0  0  0  0  0  0  0  0  0  0  0
    4.1249    1.0057   -1.2088 C   0  0  0  0  0  0  0  0  0  0  0  0
    4.7976    0.0374   -1.9189 N   0  0  0  0  0  0  0  0  0  0  0  0
    5.7376    0.6834   -2.5818 C   0  0  0  0  0  0  0  0  0  0  0  0
    5.7059    2.0283   -2.3266 N   0  0  0  0  0  0  0  0  0  0  0  0
    6.4858    3.0457   -3.0074 C   0  0  0  0  0  0  0  0  0  0  0  0
    7.9829    2.9120   -2.8401 C   0  0  0  0  0  0  0  0  0  0  0  0
    8.5222    1.9518   -2.2855 O   0  0  0  0  0  0  0  0  0  0  0  0
    8.8363    4.0301   -3.3480 C   0  0  0  0  0  0  0  0  0  0  0  0
    8.3022    5.0925   -4.0914 C   0  0  0  0  0  0  0  0  0  0  0  0
    9.0891    6.2053   -4.3919 C   0  0  0  0  0  0  0  0  0  0  0  0
   10.4180    6.2531   -3.9786 C   0  0  0  0  0  0  0  0  0  0  0  0
   10.9794    5.1699   -3.3045 C   0  0  0  0  0  0  0  0  0  0  0  0
   10.1966    4.0555   -2.9983 C   0  0  0  0  0  0  0  0  0  0  0  0
    0.9005   -1.0337    1.0916 H   0  0  0  0  0  0  0  0  0  0  0  0
    0.4996    0.5412    0.3914 H   0  0  0  0  0  0  0  0  0  0  0  0
    1.6217    0.4150    1.8008 H   0  0  0  0  0  0  0  0  0  0  0  0
    2.8130    4.1911    0.3156 H   0  0  0  0  0  0  0  0  0  0  0  0
    6.4587    0.2321   -3.2548 H   0  0  0  0  0  0  0  0  0  0  0  0
    6.1695    4.0179   -2.6199 H   0  0  0  0  0  0  0  0  0  0  0  0
    6.2321    2.9682   -4.0694 H   0  0  0  0  0  0  0  0  0  0  0  0
    7.2694    5.0980   -4.4259 H   0  0  0  0  0  0  0  0  0  0  0  0
    8.6555    7.0471   -4.9259 H   0  0  0  0  0  0  0  0  0  0  0  0
   11.0161    7.1397   -4.1757 H   0  0  0  0  0  0  0  0  0  0  0  0
   12.0191    5.2045   -2.9893 H   0  0  0  0  0  0  0  0  0  0  0  0
   10.6415    3.2250   -2.4531 H   0  0  0  0  0  0  0  0  0  0  0  0
  1  2  1  0  0  0  0
  1 21  1  0  0  0  0
  1 22  1  0  0  0  0
  1 23  1  0  0  0  0
  2  3  1  0  0  0  0
  3  4  1  0  0  0  0
  3  8  2  0  0  0  0
  4  5  2  0  0  0  0
  5  6  1  0  0  0  0
  5 24  1  0  0  0  0
  6  7  2  0  0  0  0
  7  8  1  0  0  0  0
  7 11  1  0  0  0  0
  8  9  1  0  0  0  0
  9 10  2  0  0  0  0
 10 11  1  0  0  0  0
 10 25  1  0  0  0  0
 11 12  1  0  0  0  0
 12 13  1  0  0  0  0
 12 26  1  0  0  0  0
 12 27  1  0  0  0  0
 13 14  2  0  0  0  0
 13 15  1  0  0  0  0
 15 16  1  0  0  0  0
 15 20  2  0  0  0  0
 16 17  2  0  0  0  0
 16 28  1  0  0  0  0
 17 18  1  0  0  0  0
 17 29  1  0  0  0  0
 18 19  2  0  0  0  0
 18 30  1  0  0  0  0
 19 20  1  0  0  0  0
 19 31  1  0  0  0  0
 20 32  1  0  0  0  0
M  END
$$$$
