CHEMBL4060326
 OpenBabel04072215373D

 46 49  0  0  0  0  0  0  0  0999 V2000
   -1.6404   -2.8442   -1.5045 C   0  0  0  0  0  0  0  0  0  0  0  0
   -0.8907   -1.5394   -1.4526 C   0  0  0  0  0  0  0  0  0  0  0  0
   -1.5775   -0.3850   -1.8913 C   0  0  0  0  0  0  0  0  0  0  0  0
   -0.9686    0.8678   -1.8863 C   0  0  0  0  0  0  0  0  0  0  0  0
    0.3220    0.9949   -1.4101 C   0  0  0  0  0  0  0  0  0  0  0  0
    1.0036   -0.1319   -0.9548 C   0  0  0  0  0  0  0  0  0  0  0  0
    0.4394   -1.4201   -0.9904 C   0  0  0  0  0  0  0  0  0  0  0  0
    1.1818   -2.5651   -0.5852 N   0  0  0  0  0  0  0  0  0  0  0  0
    2.5476   -2.5790   -0.3864 C   0  0  0  0  0  0  0  0  0  0  0  0
    3.2859   -1.6113   -0.5333 O   0  0  0  0  0  0  0  0  0  0  0  0
    3.0587   -3.8280   -0.0457 N   0  0  0  0  0  0  0  0  0  0  0  0
    4.4594   -3.9711    0.1641 C   0  0  0  0  0  0  0  0  0  0  0  0
    5.1919   -3.0327    0.8947 C   0  0  0  0  0  0  0  0  0  0  0  0
    6.5925   -3.0753    0.9152 C   0  0  0  0  0  0  0  0  0  0  0  0
    7.3091   -4.0836    0.2458 C   0  0  0  0  0  0  0  0  0  0  0  0
    8.7903   -4.0836    0.2166 C   0  0  0  0  0  0  0  0  0  0  0  0
    9.5325   -3.6632    1.3461 C   0  0  0  0  0  0  0  0  0  0  0  0
   10.9198   -3.6573    1.3272 C   0  0  0  0  0  0  0  0  0  0  0  0
   11.6799   -4.0393    0.2884 N   0  0  0  0  0  0  0  0  0  0  0  0
   10.9533   -4.4244   -0.7750 C   0  0  0  0  0  0  0  0  0  0  0  0
   11.4890   -4.8503   -1.9491 N   0  0  0  0  0  0  0  0  0  0  0  0
   10.5808   -5.1658   -2.8801 N   0  0  0  0  0  0  0  0  0  0  0  0
    9.4057   -4.9126   -2.2794 C   0  0  0  0  0  0  0  0  0  0  0  0
    8.1820   -5.1211   -3.0960 C   0  0  0  0  0  0  0  0  0  0  0  0
    9.5663   -4.4723   -0.9166 C   0  0  0  0  0  0  0  0  0  0  0  0
    6.5410   -5.0941   -0.3534 C   0  0  0  0  0  0  0  0  0  0  0  0
    5.1380   -5.0335   -0.4214 C   0  0  0  0  0  0  0  0  0  0  0  0
   -2.5638   -2.7466   -2.0902 H   0  0  0  0  0  0  0  0  0  0  0  0
   -1.9229   -3.1625   -0.4963 H   0  0  0  0  0  0  0  0  0  0  0  0
   -1.0459   -3.6233   -1.9890 H   0  0  0  0  0  0  0  0  0  0  0  0
   -2.5994   -0.4566   -2.2577 H   0  0  0  0  0  0  0  0  0  0  0  0
   -1.4993    1.7440   -2.2452 H   0  0  0  0  0  0  0  0  0  0  0  0
    0.8202    1.9591   -1.3871 H   0  0  0  0  0  0  0  0  0  0  0  0
    1.9964    0.0463   -0.5620 H   0  0  0  0  0  0  0  0  0  0  0  0
    0.6875   -3.4388   -0.5033 H   0  0  0  0  0  0  0  0  0  0  0  0
    2.5902   -4.6086   -0.4765 H   0  0  0  0  0  0  0  0  0  0  0  0
    4.6861   -2.2237    1.4188 H   0  0  0  0  0  0  0  0  0  0  0  0
    7.1089   -2.2769    1.4448 H   0  0  0  0  0  0  0  0  0  0  0  0
    9.0331   -3.3432    2.2564 H   0  0  0  0  0  0  0  0  0  0  0  0
   11.4784   -3.3292    2.2007 H   0  0  0  0  0  0  0  0  0  0  0  0
   12.4731   -4.9394   -2.1663 H   0  0  0  0  0  0  0  0  0  0  0  0
    8.4263   -5.1941   -4.1625 H   0  0  0  0  0  0  0  0  0  0  0  0
    7.4785   -4.2931   -2.9791 H   0  0  0  0  0  0  0  0  0  0  0  0
    7.6954   -6.0631   -2.8283 H   0  0  0  0  0  0  0  0  0  0  0  0
    7.0332   -5.9497   -0.8036 H   0  0  0  0  0  0  0  0  0  0  0  0
    4.6092   -5.7860   -0.9981 H   0  0  0  0  0  0  0  0  0  0  0  0
  1  2  1  0  0  0  0
  1 28  1  0  0  0  0
  1 29  1  0  0  0  0
  1 30  1  0  0  0  0
  2  3  1  0  0  0  0
  2  7  2  0  0  0  0
  3  4  2  0  0  0  0
  3 31  1  0  0  0  0
  4  5  1  0  0  0  0
  4 32  1  0  0  0  0
  5  6  2  0  0  0  0
  5 33  1  0  0  0  0
  6  7  1  0  0  0  0
  6 34  1  0  0  0  0
  7  8  1  0  0  0  0
  8  9  1  0  0  0  0
  8 35  1  0  0  0  0
  9 10  2  0  0  0  0
  9 11  1  0  0  0  0
 11 12  1  0  0  0  0
 11 36  1  0  0  0  0
 12 13  1  0  0  0  0
 12 27  2  0  0  0  0
 13 14  2  0  0  0  0
 13 37  1  0  0  0  0
 14 15  1  0  0  0  0
 14 38  1  0  0  0  0
 15 16  1  0  0  0  0
 15 26  2  0  0  0  0
 16 17  1  0  0  0  0
 16 25  2  0  0  0  0
 17 18  2  0  0  0  0
 17 39  1  0  0  0  0
 18 19  1  0  0  0  0
 18 40  1  0  0  0  0
 19 20  2  0  0  0  0
 20 21  1  0  0  0  0
 20 25  1  0  0  0  0
 21 22  1  0  0  0  0
 21 41  1  0  0  0  0
 22 23  2  0  0  0  0
 23 24  1  0  0  0  0
 23 25  1  0  0  0  0
 24 42  1  0  0  0  0
 24 43  1  0  0  0  0
 24 44  1  0  0  0  0
 26 27  1  0  0  0  0
 26 45  1  0  0  0  0
 27 46  1  0  0  0  0
M  END
$$$$
