CHEMBL3951090
 OpenBabel04072215373D

 58 61  0  0  0  0  0  0  0  0999 V2000
    0.9100    2.0206   -1.0507 C   0  0  0  0  0  0  0  0  0  0  0  0
    2.2403    1.5285   -0.7984 N   0  0  0  0  0  0  0  0  0  0  0  0
    3.1960    2.3397   -0.2222 C   0  0  0  0  0  0  0  0  0  0  0  0
    2.9892    3.4998    0.1124 O   0  0  0  0  0  0  0  0  0  0  0  0
    4.5253    1.7165    0.0171 C   0  0  0  0  0  0  0  0  0  0  0  0
    5.0150    0.7057   -0.8049 C   0  0  0  0  0  0  0  0  0  0  0  0
    6.2534    0.1536   -0.5169 C   0  0  0  0  0  0  0  0  0  0  0  0
    6.7224   -0.8236   -1.3008 F   0  0  0  0  0  0  0  0  0  0  0  0
    7.0178    0.5914    0.5665 C   0  0  0  0  0  0  0  0  0  0  0  0
    6.5626    1.6205    1.4027 C   0  0  0  0  0  0  0  0  0  0  0  0
    7.2830    2.1048    2.5258 N   0  0  0  0  0  0  0  0  0  0  0  0
    8.7573    1.8867    2.5922 C   0  0  0  0  0  0  0  0  0  0  0  0
    9.6075    2.7844    1.6356 C   0  0  0  0  0  0  0  0  0  0  0  0
    9.3333    4.2839    1.7945 C   0  0  0  0  0  0  0  0  0  0  0  0
   11.0913    2.4816    1.9037 C   0  0  0  0  0  0  0  0  0  0  0  0
    9.3999    2.4482    0.2568 O   0  0  0  0  0  0  0  0  0  0  0  0
    6.6794    2.4308    3.7800 C   0  0  0  0  0  0  0  0  0  0  0  0
    5.5070    1.7937    4.2120 C   0  0  0  0  0  0  0  0  0  0  0  0
    4.8657    2.1830    5.3933 C   0  0  0  0  0  0  0  0  0  0  0  0
    5.3677    3.2062    6.1833 C   0  0  0  0  0  0  0  0  0  0  0  0
    4.7004    3.5881    7.2835 N   0  0  0  0  0  0  0  0  0  0  0  0
    5.2510    4.6025    7.9930 C   0  0  0  0  0  0  0  0  0  0  0  0
    6.4486    5.2135    7.6431 C   0  0  0  0  0  0  0  0  0  0  0  0
    7.0211    6.2840    8.4417 C   0  0  0  0  0  0  0  0  0  0  0  0
    6.5647    6.8856    9.6414 C   0  0  0  0  0  0  0  0  0  0  0  0
    7.3759    7.8437   10.0824 N   0  0  0  0  0  0  0  0  0  0  0  0
    8.3618    7.8692    9.1712 N   0  0  0  0  0  0  0  0  0  0  0  0
    9.4569    8.7966    9.3189 C   0  0  0  0  0  0  0  0  0  0  0  0
    8.2057    6.9543    8.1681 C   0  0  0  0  0  0  0  0  0  0  0  0
    7.1238    4.8227    6.5347 N   0  0  0  0  0  0  0  0  0  0  0  0
    6.5760    3.8315    5.8002 C   0  0  0  0  0  0  0  0  0  0  0  0
    7.1999    3.4239    4.6241 C   0  0  0  0  0  0  0  0  0  0  0  0
    5.3078    2.1816    1.0884 C   0  0  0  0  0  0  0  0  0  0  0  0
    0.3128    1.2101   -1.4750 H   0  0  0  0  0  0  0  0  0  0  0  0
    0.9650    2.8531   -1.7569 H   0  0  0  0  0  0  0  0  0  0  0  0
    0.4634    2.3647   -0.1142 H   0  0  0  0  0  0  0  0  0  0  0  0
    2.4058    0.5357   -0.8886 H   0  0  0  0  0  0  0  0  0  0  0  0
    4.4685    0.3519   -1.6725 H   0  0  0  0  0  0  0  0  0  0  0  0
    7.9685    0.0957    0.7213 H   0  0  0  0  0  0  0  0  0  0  0  0
    8.9823    0.8283    2.4141 H   0  0  0  0  0  0  0  0  0  0  0  0
    9.1223    2.0598    3.6141 H   0  0  0  0  0  0  0  0  0  0  0  0
    9.3244    4.5995    2.8379 H   0  0  0  0  0  0  0  0  0  0  0  0
    8.3824    4.5668    1.3283 H   0  0  0  0  0  0  0  0  0  0  0  0
   10.1035    4.8783    1.2888 H   0  0  0  0  0  0  0  0  0  0  0  0
   11.3151    2.4269    2.9739 H   0  0  0  0  0  0  0  0  0  0  0  0
   11.7420    3.2453    1.4633 H   0  0  0  0  0  0  0  0  0  0  0  0
   11.3798    1.5298    1.4410 H   0  0  0  0  0  0  0  0  0  0  0  0
    8.5659    2.8659   -0.0250 H   0  0  0  0  0  0  0  0  0  0  0  0
    5.0696    0.9834    3.6347 H   0  0  0  0  0  0  0  0  0  0  0  0
    3.9450    1.6883    5.6929 H   0  0  0  0  0  0  0  0  0  0  0  0
    4.6774    4.9080    8.8608 H   0  0  0  0  0  0  0  0  0  0  0  0
    5.6720    6.6637   10.2180 H   0  0  0  0  0  0  0  0  0  0  0  0
    9.2602    9.4587   10.1680 H   0  0  0  0  0  0  0  0  0  0  0  0
    9.5410    9.3845    8.4028 H   0  0  0  0  0  0  0  0  0  0  0  0
   10.3702    8.2247    9.4974 H   0  0  0  0  0  0  0  0  0  0  0  0
    8.9092    6.8537    7.3619 H   0  0  0  0  0  0  0  0  0  0  0  0
    8.1079    3.9519    4.3629 H   0  0  0  0  0  0  0  0  0  0  0  0
    4.9214    3.0038    1.6919 H   0  0  0  0  0  0  0  0  0  0  0  0
  1  2  1  0  0  0  0
  1 34  1  0  0  0  0
  1 35  1  0  0  0  0
  1 36  1  0  0  0  0
  2  3  1  0  0  0  0
  2 37  1  0  0  0  0
  3  4  2  0  0  0  0
  3  5  1  0  0  0  0
  5  6  1  0  0  0  0
  5 33  2  0  0  0  0
  6  7  2  0  0  0  0
  6 38  1  0  0  0  0
  7  8  1  0  0  0  0
  7  9  1  0  0  0  0
  9 10  2  0  0  0  0
  9 39  1  0  0  0  0
 10 11  1  0  0  0  0
 10 33  1  0  0  0  0
 11 12  1  0  0  0  0
 11 17  1  0  0  0  0
 12 13  1  0  0  0  0
 12 40  1  0  0  0  0
 12 41  1  0  0  0  0
 13 14  1  0  0  0  0
 13 15  1  0  0  0  0
 13 16  1  0  0  0  0
 14 42  1  0  0  0  0
 14 43  1  0  0  0  0
 14 44  1  0  0  0  0
 15 45  1  0  0  0  0
 15 46  1  0  0  0  0
 15 47  1  0  0  0  0
 16 48  1  0  0  0  0
 17 18  1  0  0  0  0
 17 32  2  0  0  0  0
 18 19  2  0  0  0  0
 18 49  1  0  0  0  0
 19 20  1  0  0  0  0
 19 50  1  0  0  0  0
 20 21  1  0  0  0  0
 20 31  2  0  0  0  0
 21 22  2  0  0  0  0
 22 23  1  0  0  0  0
 22 51  1  0  0  0  0
 23 24  1  0  0  0  0
 23 30  2  0  0  0  0
 24 25  1  0  0  0  0
 24 29  2  0  0  0  0
 25 26  2  0  0  0  0
 25 52  1  0  0  0  0
 26 27  1  0  0  0  0
 27 28  1  0  0  0  0
 27 29  1  0  0  0  0
 28 53  1  0  0  0  0
 28 54  1  0  0  0  0
 28 55  1  0  0  0  0
 29 56  1  0  0  0  0
 30 31  1  0  0  0  0
 31 32  1  0  0  0  0
 32 57  1  0  0  0  0
 33 58  1  0  0  0  0
M  END
$$$$
