CHEMBL3930504
 OpenBabel04072215373D

 45 48  0  0  0  0  0  0  0  0999 V2000
    2.9816    1.1630    0.0397 C   0  0  0  0  0  0  0  0  0  0  0  0
    2.3913   -0.0449   -0.0434 C   0  0  0  0  0  0  0  0  0  0  0  0
    1.1246   -0.3303    0.6909 C   0  0  0  0  0  0  0  0  0  0  0  0
    0.1582    0.6603    0.9190 C   0  0  0  0  0  0  0  0  0  0  0  0
   -1.0227    0.3645    1.6023 C   0  0  0  0  0  0  0  0  0  0  0  0
   -1.2694   -0.9352    2.0414 C   0  0  0  0  0  0  0  0  0  0  0  0
   -0.3621   -1.9579    1.7681 C   0  0  0  0  0  0  0  0  0  0  0  0
   -0.5566   -3.2348    2.3137 N   0  0  0  0  0  0  0  0  0  0  0  0
    0.8483   -1.6345    1.1417 C   0  0  0  0  0  0  0  0  0  0  0  0
    3.1009   -1.0403   -0.8832 C   0  0  0  0  0  0  0  0  0  0  0  0
    2.7392   -1.2077   -2.2249 C   0  0  0  0  0  0  0  0  0  0  0  0
    3.3708   -2.1675   -3.0334 C   0  0  0  0  0  0  0  0  0  0  0  0
    4.3799   -2.9803   -2.4761 C   0  0  0  0  0  0  0  0  0  0  0  0
    5.2272   -4.0446   -2.9208 C   0  0  0  0  0  0  0  0  0  0  0  0
    5.2466   -4.6025   -4.2461 C   0  0  0  0  0  0  0  0  0  0  0  0
    6.0723   -5.5948   -4.6283 C   0  0  0  0  0  0  0  0  0  0  0  0
    6.1808   -6.1807   -5.9736 C   0  0  0  0  0  0  0  0  0  0  0  0
    5.9011   -5.4600   -7.1415 C   0  0  0  0  0  0  0  0  0  0  0  0
    6.1069   -6.0347   -8.3997 C   0  0  0  0  0  0  0  0  0  0  0  0
    6.6023   -7.3324   -8.5056 C   0  0  0  0  0  0  0  0  0  0  0  0
    6.8871   -8.0604   -7.3536 C   0  0  0  0  0  0  0  0  0  0  0  0
    6.6797   -7.4863   -6.0963 C   0  0  0  0  0  0  0  0  0  0  0  0
    6.0315   -4.4661   -1.9326 N   0  0  0  0  0  0  0  0  0  0  0  0
    5.7125   -3.6898   -0.8899 N   0  0  0  0  0  0  0  0  0  0  0  0
    4.7261   -2.7803   -1.1440 C   0  0  0  0  0  0  0  0  0  0  0  0
    4.1220   -1.8227   -0.3216 C   0  0  0  0  0  0  0  0  0  0  0  0
    2.5823    1.9694    0.6461 H   0  0  0  0  0  0  0  0  0  0  0  0
    3.9008    1.3871   -0.4947 H   0  0  0  0  0  0  0  0  0  0  0  0
    0.3099    1.6786    0.5712 H   0  0  0  0  0  0  0  0  0  0  0  0
   -1.7488    1.1493    1.7959 H   0  0  0  0  0  0  0  0  0  0  0  0
   -2.1822   -1.1441    2.5922 H   0  0  0  0  0  0  0  0  0  0  0  0
   -1.5344   -3.4738    2.4467 H   0  0  0  0  0  0  0  0  0  0  0  0
   -0.0482   -3.9657    1.8251 H   0  0  0  0  0  0  0  0  0  0  0  0
    1.5850   -2.4216    1.0029 H   0  0  0  0  0  0  0  0  0  0  0  0
    1.9517   -0.5903   -2.6535 H   0  0  0  0  0  0  0  0  0  0  0  0
    3.0714   -2.2810   -4.0706 H   0  0  0  0  0  0  0  0  0  0  0  0
    4.5494   -4.1811   -4.9623 H   0  0  0  0  0  0  0  0  0  0  0  0
    6.7512   -6.0204   -3.8898 H   0  0  0  0  0  0  0  0  0  0  0  0
    5.5451   -4.4348   -7.0919 H   0  0  0  0  0  0  0  0  0  0  0  0
    5.8951   -5.4605   -9.2982 H   0  0  0  0  0  0  0  0  0  0  0  0
    6.7764   -7.7717   -9.4845 H   0  0  0  0  0  0  0  0  0  0  0  0
    7.2817   -9.0704   -7.4308 H   0  0  0  0  0  0  0  0  0  0  0  0
    6.9194   -8.0695   -5.2093 H   0  0  0  0  0  0  0  0  0  0  0  0
    6.2087   -3.8325   -0.0168 H   0  0  0  0  0  0  0  0  0  0  0  0
    4.4149   -1.7014    0.7169 H   0  0  0  0  0  0  0  0  0  0  0  0
  1  2  2  0  0  0  0
  1 27  1  0  0  0  0
  1 28  1  0  0  0  0
  2  3  1  0  0  0  0
  2 10  1  0  0  0  0
  3  4  1  0  0  0  0
  3  9  2  0  0  0  0
  4  5  2  0  0  0  0
  4 29  1  0  0  0  0
  5  6  1  0  0  0  0
  5 30  1  0  0  0  0
  6  7  2  0  0  0  0
  6 31  1  0  0  0  0
  7  8  1  0  0  0  0
  7  9  1  0  0  0  0
  8 32  1  0  0  0  0
  8 33  1  0  0  0  0
  9 34  1  0  0  0  0
 10 11  1  0  0  0  0
 10 26  2  0  0  0  0
 11 12  2  0  0  0  0
 11 35  1  0  0  0  0
 12 13  1  0  0  0  0
 12 36  1  0  0  0  0
 13 14  1  0  0  0  0
 13 25  2  0  0  0  0
 14 15  1  0  0  0  0
 14 23  2  0  0  0  0
 15 16  2  0  0  0  0
 15 37  1  0  0  0  0
 16 17  1  0  0  0  0
 16 38  1  0  0  0  0
 17 18  1  0  0  0  0
 17 22  2  0  0  0  0
 18 19  2  0  0  0  0
 18 39  1  0  0  0  0
 19 20  1  0  0  0  0
 19 40  1  0  0  0  0
 20 21  2  0  0  0  0
 20 41  1  0  0  0  0
 21 22  1  0  0  0  0
 21 42  1  0  0  0  0
 22 43  1  0  0  0  0
 23 24  1  0  0  0  0
 24 25  1  0  0  0  0
 24 44  1  0  0  0  0
 25 26  1  0  0  0  0
 26 45  1  0  0  0  0
M  END
$$$$
