CHEMBL3948208
 OpenBabel04072215373D

 54 57  0  0  0  0  0  0  0  0999 V2000
   -2.6557   -0.3522    0.0825 C   0  0  0  0  0  0  0  0  0  0  0  0
   -1.1746   -0.0954    0.0810 C   0  0  0  0  0  0  0  0  0  0  0  0
   -0.3625   -1.2609    0.0793 C   0  0  0  0  0  0  0  0  0  0  0  0
    1.0113   -1.1494   -0.0292 C   0  0  0  0  0  0  0  0  0  0  0  0
    1.7787   -2.3155   -0.0833 O   0  0  0  0  0  0  0  0  0  0  0  0
    3.0904   -2.2387    0.3419 C   0  0  0  0  0  0  0  0  0  0  0  0
    3.4632   -1.4345    1.4206 C   0  0  0  0  0  0  0  0  0  0  0  0
    4.7890   -1.3792    1.7507 C   0  0  0  0  0  0  0  0  0  0  0  0
    5.7384   -2.1094    1.1441 N   0  0  0  0  0  0  0  0  0  0  0  0
    5.3887   -2.9269    0.1436 C   0  0  0  0  0  0  0  0  0  0  0  0
    6.4086   -3.6874   -0.4780 N   0  0  0  0  0  0  0  0  0  0  0  0
    7.7502   -3.5974   -0.1189 C   0  0  0  0  0  0  0  0  0  0  0  0
    8.2526   -2.8989    0.7421 O   0  0  0  0  0  0  0  0  0  0  0  0
    8.7060   -4.4452   -0.8967 C   0  0  0  0  0  0  0  0  0  0  0  0
    8.8876   -4.1619   -2.3690 C   0  0  0  0  0  0  0  0  0  0  0  0
    8.3927   -5.5044   -1.9125 C   0  0  0  0  0  0  0  0  0  0  0  0
    4.0629   -3.0326   -0.2915 C   0  0  0  0  0  0  0  0  0  0  0  0
    1.6208    0.0404   -0.1194 N   0  0  0  0  0  0  0  0  0  0  0  0
    0.8473    1.1483   -0.0303 C   0  0  0  0  0  0  0  0  0  0  0  0
   -0.5517    1.1722    0.0622 C   0  0  0  0  0  0  0  0  0  0  0  0
   -1.2617    2.4184    0.1282 N   0  0  0  0  0  0  0  0  0  0  0  0
   -0.6591    3.6273    0.4883 C   0  0  0  0  0  0  0  0  0  0  0  0
    0.5199    3.7517    0.7984 O   0  0  0  0  0  0  0  0  0  0  0  0
   -1.5285    4.7080    0.5422 N   0  0  0  0  0  0  0  0  0  0  0  0
   -1.0154    5.9871    0.9372 C   0  0  0  0  0  0  0  0  0  0  0  0
    0.0811    6.5746    0.2881 C   0  0  0  0  0  0  0  0  0  0  0  0
    0.5529    7.8495    0.6652 C   0  0  0  0  0  0  0  0  0  0  0  0
    1.6903    8.5118   -0.0812 C   0  0  0  0  0  0  0  0  0  0  0  0
    2.1839    7.7605   -1.1037 F   0  0  0  0  0  0  0  0  0  0  0  0
    1.3094    9.6941   -0.6426 F   0  0  0  0  0  0  0  0  0  0  0  0
    2.7520    8.8066    0.7180 F   0  0  0  0  0  0  0  0  0  0  0  0
   -0.0759    8.5223    1.7265 C   0  0  0  0  0  0  0  0  0  0  0  0
   -1.1492    7.9309    2.3955 C   0  0  0  0  0  0  0  0  0  0  0  0
   -1.6150    6.6787    1.9923 C   0  0  0  0  0  0  0  0  0  0  0  0
   -2.6298    6.1151    2.6649 F   0  0  0  0  0  0  0  0  0  0  0  0
   -2.8629   -1.4155    0.2817 H   0  0  0  0  0  0  0  0  0  0  0  0
   -3.0767   -0.1388   -0.9035 H   0  0  0  0  0  0  0  0  0  0  0  0
   -3.1699    0.2116    0.8623 H   0  0  0  0  0  0  0  0  0  0  0  0
   -0.8093   -2.2470    0.1742 H   0  0  0  0  0  0  0  0  0  0  0  0
    2.7479   -0.8291    1.9634 H   0  0  0  0  0  0  0  0  0  0  0  0
    5.1479   -0.7231    2.5421 H   0  0  0  0  0  0  0  0  0  0  0  0
    6.1505   -4.2892   -1.2398 H   0  0  0  0  0  0  0  0  0  0  0  0
    9.6246   -4.6100   -0.3289 H   0  0  0  0  0  0  0  0  0  0  0  0
    9.9073   -4.0658   -2.7241 H   0  0  0  0  0  0  0  0  0  0  0  0
    8.1853   -3.4931   -2.8533 H   0  0  0  0  0  0  0  0  0  0  0  0
    9.0846   -6.3378   -1.9913 H   0  0  0  0  0  0  0  0  0  0  0  0
    7.3695   -5.7785   -2.1237 H   0  0  0  0  0  0  0  0  0  0  0  0
    3.7776   -3.6871   -1.0998 H   0  0  0  0  0  0  0  0  0  0  0  0
    1.4458    2.0500   -0.0735 H   0  0  0  0  0  0  0  0  0  0  0  0
   -2.2592    2.4069   -0.0312 H   0  0  0  0  0  0  0  0  0  0  0  0
   -2.4444    4.4960    0.9168 H   0  0  0  0  0  0  0  0  0  0  0  0
    0.5660    6.0516   -0.5359 H   0  0  0  0  0  0  0  0  0  0  0  0
    0.2633    9.5152    2.0254 H   0  0  0  0  0  0  0  0  0  0  0  0
   -1.6302    8.4432    3.2242 H   0  0  0  0  0  0  0  0  0  0  0  0
  1  2  1  0  0  0  0
  1 36  1  0  0  0  0
  1 37  1  0  0  0  0
  1 38  1  0  0  0  0
  2  3  1  0  0  0  0
  2 20  2  0  0  0  0
  3  4  2  0  0  0  0
  3 39  1  0  0  0  0
  4  5  1  0  0  0  0
  4 18  1  0  0  0  0
  5  6  1  0  0  0  0
  6  7  1  0  0  0  0
  6 17  2  0  0  0  0
  7  8  2  0  0  0  0
  7 40  1  0  0  0  0
  8  9  1  0  0  0  0
  8 41  1  0  0  0  0
  9 10  2  0  0  0  0
 10 11  1  0  0  0  0
 10 17  1  0  0  0  0
 11 12  1  0  0  0  0
 11 42  1  0  0  0  0
 12 13  2  0  0  0  0
 12 14  1  0  0  0  0
 14 15  1  0  0  0  0
 14 16  1  0  0  0  0
 14 43  1  0  0  0  0
 15 16  1  0  0  0  0
 15 44  1  0  0  0  0
 15 45  1  0  0  0  0
 16 46  1  0  0  0  0
 16 47  1  0  0  0  0
 17 48  1  0  0  0  0
 18 19  2  0  0  0  0
 19 20  1  0  0  0  0
 19 49  1  0  0  0  0
 20 21  1  0  0  0  0
 21 22  1  0  0  0  0
 21 50  1  0  0  0  0
 22 23  2  0  0  0  0
 22 24  1  0  0  0  0
 24 25  1  0  0  0  0
 24 51  1  0  0  0  0
 25 26  1  0  0  0  0
 25 34  2  0  0  0  0
 26 27  2  0  0  0  0
 26 52  1  0  0  0  0
 27 28  1  0  0  0  0
 27 32  1  0  0  0  0
 28 29  1  0  0  0  0
 28 30  1  0  0  0  0
 28 31  1  0  0  0  0
 32 33  2  0  0  0  0
 32 53  1  0  0  0  0
 33 34  1  0  0  0  0
 33 54  1  0  0  0  0
 34 35  1  0  0  0  0
M  END
$$$$
