CHEMBL2430261
 OpenBabel04072215363D

 54 57  0  0  0  0  0  0  0  0999 V2000
    0.9183    0.3213   -0.1069 C   0  0  0  0  0  0  0  0  0  0  0  0
    2.3793    0.0389   -0.0771 C   0  0  0  0  0  0  0  0  0  0  0  0
    3.3043    1.0755   -0.0600 N   0  0  0  0  0  0  0  0  0  0  0  0
    4.5820    0.5794   -0.0650 C   0  0  0  0  0  0  0  0  0  0  0  0
    4.4673   -0.7969   -0.0890 C   0  0  0  0  0  0  0  0  0  0  0  0
    3.0860   -1.1579   -0.1196 C   0  0  0  0  0  0  0  0  0  0  0  0
    2.6185   -2.5450   -0.2043 C   0  0  0  0  0  0  0  0  0  0  0  0
    3.2918   -3.4286   -0.7310 O   0  0  0  0  0  0  0  0  0  0  0  0
    1.4286   -2.8320    0.4103 N   0  0  0  0  0  0  0  0  0  0  0  0
    0.9840   -4.2060    0.5123 C   0  0  0  0  0  0  0  0  0  0  0  0
   -0.3906   -4.3319    1.1804 C   0  0  0  0  0  0  0  0  0  0  0  0
   -1.4431   -3.5073    0.5510 N   0  0  0  0  0  0  0  0  0  0  0  0
   -1.6867   -3.9152   -0.8363 C   0  0  0  0  0  0  0  0  0  0  0  0
   -2.6815   -3.6128    1.3241 C   0  0  0  0  0  0  0  0  0  0  0  0
    5.6086   -1.7471   -0.0766 C   0  0  0  0  0  0  0  0  0  0  0  0
    6.9809   -1.1038   -0.0316 C   0  0  0  0  0  0  0  0  0  0  0  0
    7.0782    0.4238   -0.0487 C   0  0  0  0  0  0  0  0  0  0  0  0
    5.8217    1.2985   -0.0549 C   0  0  0  0  0  0  0  0  0  0  0  0
    5.9900    2.6489   -0.0635 C   0  0  0  0  0  0  0  0  0  0  0  0
    4.9297    3.7409   -0.0788 C   0  0  0  0  0  0  0  0  0  0  0  0
    3.7193    3.6297   -0.0804 O   0  0  0  0  0  0  0  0  0  0  0  0
    5.6250    4.9445   -0.0793 N   0  0  0  0  0  0  0  0  0  0  0  0
    6.9996    4.7507   -0.0673 C   0  0  0  0  0  0  0  0  0  0  0  0
    7.9686    5.7429   -0.0627 C   0  0  0  0  0  0  0  0  0  0  0  0
    9.3072    5.3517   -0.0522 C   0  0  0  0  0  0  0  0  0  0  0  0
    9.6312    3.9994   -0.0480 C   0  0  0  0  0  0  0  0  0  0  0  0
   10.9163    3.6228   -0.0373 F   0  0  0  0  0  0  0  0  0  0  0  0
    8.6431    3.0158   -0.0541 C   0  0  0  0  0  0  0  0  0  0  0  0
    7.3024    3.3843   -0.0608 C   0  0  0  0  0  0  0  0  0  0  0  0
    0.7104    1.3951   -0.1535 H   0  0  0  0  0  0  0  0  0  0  0  0
    0.4301   -0.0653    0.7934 H   0  0  0  0  0  0  0  0  0  0  0  0
    0.4550   -0.1498   -0.9805 H   0  0  0  0  0  0  0  0  0  0  0  0
    3.0614    2.0628   -0.0624 H   0  0  0  0  0  0  0  0  0  0  0  0
    0.9293   -2.1159    0.9156 H   0  0  0  0  0  0  0  0  0  0  0  0
    1.7300   -4.7590    1.0959 H   0  0  0  0  0  0  0  0  0  0  0  0
    0.9826   -4.6460   -0.4916 H   0  0  0  0  0  0  0  0  0  0  0  0
   -0.2732   -4.0042    2.2220 H   0  0  0  0  0  0  0  0  0  0  0  0
   -0.6807   -5.3900    1.2075 H   0  0  0  0  0  0  0  0  0  0  0  0
   -0.8126   -3.7238   -1.4672 H   0  0  0  0  0  0  0  0  0  0  0  0
   -2.5034   -3.3298   -1.2728 H   0  0  0  0  0  0  0  0  0  0  0  0
   -1.9452   -4.9777   -0.9138 H   0  0  0  0  0  0  0  0  0  0  0  0
   -2.5245   -3.2608    2.3497 H   0  0  0  0  0  0  0  0  0  0  0  0
   -3.0566   -4.6419    1.3643 H   0  0  0  0  0  0  0  0  0  0  0  0
   -3.4604   -2.9764    0.8904 H   0  0  0  0  0  0  0  0  0  0  0  0
    5.5588   -2.3858   -0.9654 H   0  0  0  0  0  0  0  0  0  0  0  0
    5.5040   -2.4080    0.7935 H   0  0  0  0  0  0  0  0  0  0  0  0
    7.5722   -1.4926   -0.8720 H   0  0  0  0  0  0  0  0  0  0  0  0
    7.5121   -1.4731    0.8560 H   0  0  0  0  0  0  0  0  0  0  0  0
    7.6523    0.6692   -0.9506 H   0  0  0  0  0  0  0  0  0  0  0  0
    7.6552    0.6853    0.8465 H   0  0  0  0  0  0  0  0  0  0  0  0
    5.1609    5.8392   -0.0875 H   0  0  0  0  0  0  0  0  0  0  0  0
    7.7071    6.7972   -0.0703 H   0  0  0  0  0  0  0  0  0  0  0  0
   10.1106    6.0838   -0.0480 H   0  0  0  0  0  0  0  0  0  0  0  0
    8.9973    1.9934   -0.0526 H   0  0  0  0  0  0  0  0  0  0  0  0
  1  2  1  0  0  0  0
  1 30  1  0  0  0  0
  1 31  1  0  0  0  0
  1 32  1  0  0  0  0
  2  3  1  0  0  0  0
  2  6  2  0  0  0  0
  3  4  1  0  0  0  0
  3 33  1  0  0  0  0
  4  5  2  0  0  0  0
  4 18  1  0  0  0  0
  5  6  1  0  0  0  0
  5 15  1  0  0  0  0
  6  7  1  0  0  0  0
  7  8  2  0  0  0  0
  7  9  1  0  0  0  0
  9 10  1  0  0  0  0
  9 34  1  0  0  0  0
 10 11  1  0  0  0  0
 10 35  1  0  0  0  0
 10 36  1  0  0  0  0
 11 12  1  0  0  0  0
 11 37  1  0  0  0  0
 11 38  1  0  0  0  0
 12 13  1  0  0  0  0
 12 14  1  0  0  0  0
 13 39  1  0  0  0  0
 13 40  1  0  0  0  0
 13 41  1  0  0  0  0
 14 42  1  0  0  0  0
 14 43  1  0  0  0  0
 14 44  1  0  0  0  0
 15 16  1  0  0  0  0
 15 45  1  0  0  0  0
 15 46  1  0  0  0  0
 16 17  1  0  0  0  0
 16 47  1  0  0  0  0
 16 48  1  0  0  0  0
 17 18  1  0  0  0  0
 17 49  1  0  0  0  0
 17 50  1  0  0  0  0
 18 19  2  0  0  0  0
 19 20  1  0  0  0  0
 19 29  1  0  0  0  0
 20 21  2  0  0  0  0
 20 22  1  0  0  0  0
 22 23  1  0  0  0  0
 22 51  1  0  0  0  0
 23 24  1  0  0  0  0
 23 29  2  0  0  0  0
 24 25  2  0  0  0  0
 24 52  1  0  0  0  0
 25 26  1  0  0  0  0
 25 53  1  0  0  0  0
 26 27  1  0  0  0  0
 26 28  2  0  0  0  0
 28 29  1  0  0  0  0
 28 54  1  0  0  0  0
M  END
$$$$
