CHEMBL4110384
 OpenBabel04072215383D

 66 69  0  0  1  0  0  0  0  0999 V2000
    3.4368    1.9708    2.5251 C   0  0  0  0  0  0  0  0  0  0  0  0
    4.2862    0.8234    1.9682 C   0  0  1  0  0  0  0  0  0  0  0  0
    4.4675   -0.3639    2.9237 C   0  0  0  0  0  0  0  0  0  0  0  0
    5.3125   -1.3502    2.4767 N   0  0  0  0  0  0  0  0  0  0  0  0
    3.9751   -0.4459    4.0388 O   0  0  0  0  0  0  0  0  0  0  0  0
    3.8649    0.3806    0.5659 C   0  0  0  0  0  0  0  0  0  0  0  0
    4.8447    0.5316   -0.4438 C   0  0  0  0  0  0  0  0  0  0  0  0
    4.6131    0.1231   -1.7519 C   0  0  0  0  0  0  0  0  0  0  0  0
    3.3886   -0.4353   -2.0807 C   0  0  0  0  0  0  0  0  0  0  0  0
    2.4001   -0.5808   -1.1026 C   0  0  0  0  0  0  0  0  0  0  0  0
    2.6107   -0.2050    0.2400 C   0  0  0  0  0  0  0  0  0  0  0  0
    1.4569   -0.3372    1.2419 C   0  0  0  0  0  0  0  0  0  0  0  0
    0.4990   -1.5394    1.0362 C   0  0  0  0  0  0  0  0  0  0  0  0
   -0.7024   -1.6073    1.9651 C   0  0  0  0  0  0  0  0  0  0  0  0
   -1.1552   -0.4095    2.4272 N   0  0  0  0  0  0  0  0  0  0  0  0
   -2.3107   -0.3741    3.1119 C   0  0  0  0  0  0  0  0  0  0  0  0
   -2.7938    0.8899    3.4671 N   0  0  0  0  0  0  0  0  0  0  0  0
   -4.0710    1.2061    3.7593 C   0  0  0  0  0  0  0  0  0  0  0  0
   -5.1319    0.4102    4.2326 C   0  0  0  0  0  0  0  0  0  0  0  0
   -6.2817    1.0901    4.3120 N   0  0  0  0  0  0  0  0  0  0  0  0
   -5.9628    2.3133    3.8405 N   0  0  0  0  0  0  0  0  0  0  0  0
   -7.0047    3.3297    3.6872 C   0  0  0  0  0  0  0  0  0  0  0  0
   -8.3961    2.7521    3.3889 C   0  0  0  0  0  0  0  0  0  0  0  0
   -8.4405    2.0940    2.0104 C   0  0  0  0  0  0  0  0  0  0  0  0
   -7.9617    2.9536    0.9162 N   0  0  0  0  0  0  0  0  0  0  0  0
   -7.7556    2.1259   -0.2824 C   0  0  0  0  0  0  0  0  0  0  0  0
   -6.7323    3.7000    1.2036 C   0  0  0  0  0  0  0  0  0  0  0  0
   -6.7116    4.3544    2.5853 C   0  0  0  0  0  0  0  0  0  0  0  0
   -4.6210    2.4534    3.5831 C   0  0  0  0  0  0  0  0  0  0  0  0
   -3.0423   -1.4588    3.3692 N   0  0  0  0  0  0  0  0  0  0  0  0
   -2.5872   -2.6291    2.9070 C   0  0  0  0  0  0  0  0  0  0  0  0
   -1.4165   -2.7750    2.1954 C   0  0  0  0  0  0  0  0  0  0  0  0
   -1.0873   -4.1628    1.7645 C   0  0  0  0  0  0  0  0  0  0  0  0
    0.0624   -4.3083    1.0608 F   0  0  0  0  0  0  0  0  0  0  0  0
   -0.9766   -5.0052    2.8310 F   0  0  0  0  0  0  0  0  0  0  0  0
   -2.0660   -4.7004    0.9818 F   0  0  0  0  0  0  0  0  0  0  0  0
    3.1967    1.8508    3.5855 H   0  0  0  0  0  0  0  0  0  0  0  0
    2.5031    2.1254    1.9780 H   0  0  0  0  0  0  0  0  0  0  0  0
    3.9935    2.9129    2.4337 H   0  0  0  0  0  0  0  0  0  0  0  0
    5.3038    1.2395    1.9050 H   0  0  0  0  0  0  0  0  0  0  0  0
    5.5365   -1.4420    1.4908 H   0  0  0  0  0  0  0  0  0  0  0  0
    5.3994   -2.1680    3.0558 H   0  0  0  0  0  0  0  0  0  0  0  0
    5.8117    0.9790   -0.2127 H   0  0  0  0  0  0  0  0  0  0  0  0
    5.3814    0.2473   -2.5090 H   0  0  0  0  0  0  0  0  0  0  0  0
    3.1905   -0.7439   -3.1024 H   0  0  0  0  0  0  0  0  0  0  0  0
    1.4490   -0.9895   -1.4327 H   0  0  0  0  0  0  0  0  0  0  0  0
    0.8889    0.5996    1.1927 H   0  0  0  0  0  0  0  0  0  0  0  0
    1.8543   -0.4177    2.2573 H   0  0  0  0  0  0  0  0  0  0  0  0
    1.1037   -2.4452    1.1302 H   0  0  0  0  0  0  0  0  0  0  0  0
    0.0745   -1.5199    0.0264 H   0  0  0  0  0  0  0  0  0  0  0  0
   -2.1500    1.5774    3.1038 H   0  0  0  0  0  0  0  0  0  0  0  0
   -5.1245   -0.6336    4.5154 H   0  0  0  0  0  0  0  0  0  0  0  0
   -7.0317    3.8389    4.6584 H   0  0  0  0  0  0  0  0  0  0  0  0
   -9.1366    3.5623    3.4293 H   0  0  0  0  0  0  0  0  0  0  0  0
   -8.7000    2.0260    4.1521 H   0  0  0  0  0  0  0  0  0  0  0  0
   -9.4862    1.8315    1.8011 H   0  0  0  0  0  0  0  0  0  0  0  0
   -7.8841    1.1499    2.0434 H   0  0  0  0  0  0  0  0  0  0  0  0
   -8.6839    1.6243   -0.5754 H   0  0  0  0  0  0  0  0  0  0  0  0
   -6.9910    1.3550   -0.1156 H   0  0  0  0  0  0  0  0  0  0  0  0
   -7.4353    2.7382   -1.1324 H   0  0  0  0  0  0  0  0  0  0  0  0
   -6.6324    4.4986    0.4569 H   0  0  0  0  0  0  0  0  0  0  0  0
   -5.8487    3.0603    1.0917 H   0  0  0  0  0  0  0  0  0  0  0  0
   -7.4652    5.1517    2.6245 H   0  0  0  0  0  0  0  0  0  0  0  0
   -5.7473    4.8496    2.7453 H   0  0  0  0  0  0  0  0  0  0  0  0
   -4.1901    3.3752    3.2417 H   0  0  0  0  0  0  0  0  0  0  0  0
   -3.2395   -3.4741    3.1229 H   0  0  0  0  0  0  0  0  0  0  0  0
  1  2  1  0  0  0  0
  1 37  1  0  0  0  0
  1 38  1  0  0  0  0
  1 39  1  0  0  0  0
  2  3  1  0  0  0  0
  2  6  1  0  0  0  0
  2 40  1  6  0  0  0
  3  4  1  0  0  0  0
  3  5  2  0  0  0  0
  4 41  1  0  0  0  0
  4 42  1  0  0  0  0
  6  7  1  0  0  0  0
  6 11  2  0  0  0  0
  7  8  2  0  0  0  0
  7 43  1  0  0  0  0
  8  9  1  0  0  0  0
  8 44  1  0  0  0  0
  9 10  2  0  0  0  0
  9 45  1  0  0  0  0
 10 11  1  0  0  0  0
 10 46  1  0  0  0  0
 11 12  1  0  0  0  0
 12 13  1  0  0  0  0
 12 47  1  0  0  0  0
 12 48  1  0  0  0  0
 13 14  1  0  0  0  0
 13 49  1  0  0  0  0
 13 50  1  0  0  0  0
 14 15  1  0  0  0  0
 14 32  2  0  0  0  0
 15 16  2  0  0  0  0
 16 17  1  0  0  0  0
 16 30  1  0  0  0  0
 17 18  1  0  0  0  0
 17 51  1  0  0  0  0
 18 19  1  0  0  0  0
 18 29  2  0  0  0  0
 19 20  2  0  0  0  0
 19 52  1  0  0  0  0
 20 21  1  0  0  0  0
 21 22  1  0  0  0  0
 21 29  1  0  0  0  0
 22 23  1  0  0  0  0
 22 28  1  0  0  0  0
 22 53  1  0  0  0  0
 23 24  1  0  0  0  0
 23 54  1  0  0  0  0
 23 55  1  0  0  0  0
 24 25  1  0  0  0  0
 24 56  1  0  0  0  0
 24 57  1  0  0  0  0
 25 26  1  0  0  0  0
 25 27  1  0  0  0  0
 26 58  1  0  0  0  0
 26 59  1  0  0  0  0
 26 60  1  0  0  0  0
 27 28  1  0  0  0  0
 27 61  1  0  0  0  0
 27 62  1  0  0  0  0
 28 63  1  0  0  0  0
 28 64  1  0  0  0  0
 29 65  1  0  0  0  0
 30 31  2  0  0  0  0
 31 32  1  0  0  0  0
 31 66  1  0  0  0  0
 32 33  1  0  0  0  0
 33 34  1  0  0  0  0
 33 35  1  0  0  0  0
 33 36  1  0  0  0  0
M  END
$$$$
