CHEMBL477611
 OpenBabel04072215383D

 48 51  0  0  0  0  0  0  0  0999 V2000
    3.8956   -6.4647   -3.1859 C   0  0  0  0  0  0  0  0  0  0  0  0
    4.6726   -5.4583   -2.4201 C   0  0  0  0  0  0  0  0  0  0  0  0
    5.9504   -5.6876   -2.0899 N   0  0  0  0  0  0  0  0  0  0  0  0
    6.3107   -4.5800   -1.4149 N   0  0  0  0  0  0  0  0  0  0  0  0
    5.3187   -3.6440   -1.2975 C   0  0  0  0  0  0  0  0  0  0  0  0
    5.2821   -2.3879   -0.6693 C   0  0  0  0  0  0  0  0  0  0  0  0
    4.0752   -1.6538   -0.6779 C   0  0  0  0  0  0  0  0  0  0  0  0
    3.9897   -0.4406    0.0554 N   0  0  0  0  0  0  0  0  0  0  0  0
    2.6597    0.0227    0.4674 C   0  0  0  0  0  0  0  0  0  0  0  0
    4.9825    0.5819    0.0858 C   0  0  0  0  0  0  0  0  0  0  0  0
    5.0433    1.4819    1.1333 C   0  0  0  0  0  0  0  0  0  0  0  0
    5.9946    2.4727    1.0614 C   0  0  0  0  0  0  0  0  0  0  0  0
    6.8547    2.5972    0.0413 N   0  0  0  0  0  0  0  0  0  0  0  0
    6.7400    1.6961   -0.9410 C   0  0  0  0  0  0  0  0  0  0  0  0
    7.6145    1.8524   -2.0182 N   0  0  0  0  0  0  0  0  0  0  0  0
    7.3625    1.5677   -3.3692 C   0  0  0  0  0  0  0  0  0  0  0  0
    8.4439    1.3713   -4.2384 C   0  0  0  0  0  0  0  0  0  0  0  0
    8.2384    1.0264   -5.5784 C   0  0  0  0  0  0  0  0  0  0  0  0
    6.9432    0.8777   -6.0704 C   0  0  0  0  0  0  0  0  0  0  0  0
    5.8632    1.0757   -5.2105 C   0  0  0  0  0  0  0  0  0  0  0  0
    4.2045    0.8472   -5.7904 S   0  0  0  0  0  0  0  0  0  0  0  0
    3.9436   -0.7520   -5.3465 N   0  0  0  0  0  0  0  0  0  0  0  0
    3.3197    1.6646   -4.9950 O   0  0  0  0  0  0  0  0  0  0  0  0
    4.2208    0.8918   -7.2329 O   0  0  0  0  0  0  0  0  0  0  0  0
    6.0661    1.4376   -3.8777 C   0  0  0  0  0  0  0  0  0  0  0  0
    5.8525    0.6847   -0.9359 N   0  0  0  0  0  0  0  0  0  0  0  0
    2.9837   -2.2017   -1.3783 C   0  0  0  0  0  0  0  0  0  0  0  0
    3.0350   -3.4584   -2.0067 C   0  0  0  0  0  0  0  0  0  0  0  0
    4.2263   -4.1936   -1.9513 C   0  0  0  0  0  0  0  0  0  0  0  0
    4.5041   -7.3365   -3.4468 H   0  0  0  0  0  0  0  0  0  0  0  0
    3.5187   -6.0259   -4.1153 H   0  0  0  0  0  0  0  0  0  0  0  0
    3.0394   -6.8133   -2.5992 H   0  0  0  0  0  0  0  0  0  0  0  0
    7.2549   -4.5274   -1.0512 H   0  0  0  0  0  0  0  0  0  0  0  0
    6.1560   -2.0082   -0.1486 H   0  0  0  0  0  0  0  0  0  0  0  0
    1.8788   -0.7397    0.3920 H   0  0  0  0  0  0  0  0  0  0  0  0
    2.3456    0.8886   -0.1282 H   0  0  0  0  0  0  0  0  0  0  0  0
    2.6525    0.2999    1.5268 H   0  0  0  0  0  0  0  0  0  0  0  0
    4.3962    1.4288    1.9964 H   0  0  0  0  0  0  0  0  0  0  0  0
    6.0865    3.2181    1.8447 H   0  0  0  0  0  0  0  0  0  0  0  0
    8.1895    2.6692   -1.8580 H   0  0  0  0  0  0  0  0  0  0  0  0
    9.4619    1.4514   -3.8627 H   0  0  0  0  0  0  0  0  0  0  0  0
    9.0917    0.8565   -6.2305 H   0  0  0  0  0  0  0  0  0  0  0  0
    6.7860    0.6008   -7.1105 H   0  0  0  0  0  0  0  0  0  0  0  0
    3.8735   -0.8725   -4.3361 H   0  0  0  0  0  0  0  0  0  0  0  0
    4.5678   -1.4013   -5.8211 H   0  0  0  0  0  0  0  0  0  0  0  0
    5.2053    1.6137   -3.2361 H   0  0  0  0  0  0  0  0  0  0  0  0
    2.0476   -1.6574   -1.4662 H   0  0  0  0  0  0  0  0  0  0  0  0
    2.1599   -3.8525   -2.5147 H   0  0  0  0  0  0  0  0  0  0  0  0
  1  2  1  0  0  0  0
  1 30  1  0  0  0  0
  1 31  1  0  0  0  0
  1 32  1  0  0  0  0
  2  3  2  0  0  0  0
  2 29  1  0  0  0  0
  3  4  1  0  0  0  0
  4  5  1  0  0  0  0
  4 33  1  0  0  0  0
  5  6  1  0  0  0  0
  5 29  2  0  0  0  0
  6  7  2  0  0  0  0
  6 34  1  0  0  0  0
  7  8  1  0  0  0  0
  7 27  1  0  0  0  0
  8  9  1  0  0  0  0
  8 10  1  0  0  0  0
  9 35  1  0  0  0  0
  9 36  1  0  0  0  0
  9 37  1  0  0  0  0
 10 11  1  0  0  0  0
 10 26  2  0  0  0  0
 11 12  2  0  0  0  0
 11 38  1  0  0  0  0
 12 13  1  0  0  0  0
 12 39  1  0  0  0  0
 13 14  2  0  0  0  0
 14 15  1  0  0  0  0
 14 26  1  0  0  0  0
 15 16  1  0  0  0  0
 15 40  1  0  0  0  0
 16 17  1  0  0  0  0
 16 25  2  0  0  0  0
 17 18  2  0  0  0  0
 17 41  1  0  0  0  0
 18 19  1  0  0  0  0
 18 42  1  0  0  0  0
 19 20  2  0  0  0  0
 19 43  1  0  0  0  0
 20 21  1  0  0  0  0
 20 25  1  0  0  0  0
 21 22  1  0  0  0  0
 21 23  2  0  0  0  0
 21 24  2  0  0  0  0
 22 44  1  0  0  0  0
 22 45  1  0  0  0  0
 25 46  1  0  0  0  0
 27 28  2  0  0  0  0
 27 47  1  0  0  0  0
 28 29  1  0  0  0  0
 28 48  1  0  0  0  0
M  END
$$$$
