CHEMBL1956887
 OpenBabel04072215363D

 51 55  0  0  0  0  0  0  0  0999 V2000
    1.3271    0.2286   -0.1000 N   0  0  0  0  0  0  0  0  0  0  0  0
    2.7076    0.1919   -0.0381 C   0  0  0  0  0  0  0  0  0  0  0  0
    3.2548   -1.0261    0.0472 N   0  0  0  0  0  0  0  0  0  0  0  0
    4.6062   -1.1684    0.0403 C   0  0  0  0  0  0  0  0  0  0  0  0
    5.1874   -2.4405    0.0397 N   0  0  0  0  0  0  0  0  0  0  0  0
    4.6668   -3.6373    0.5509 C   0  0  0  0  0  0  0  0  0  0  0  0
    5.0777   -4.8574   -0.0012 C   0  0  0  0  0  0  0  0  0  0  0  0
    4.5296   -6.0641    0.4473 C   0  0  0  0  0  0  0  0  0  0  0  0
    3.5713   -6.0629    1.4554 C   0  0  0  0  0  0  0  0  0  0  0  0
    3.1533   -4.8517    2.0055 C   0  0  0  0  0  0  0  0  0  0  0  0
    1.8595   -4.8366    3.3835 Br  0  0  0  0  0  0  0  0  0  0  0  0
    3.6876   -3.6509    1.5514 C   0  0  0  0  0  0  0  0  0  0  0  0
    5.3790   -0.0037   -0.0506 C   0  0  0  0  0  0  0  0  0  0  0  0
    6.7617    0.3109   -0.1412 C   0  0  0  0  0  0  0  0  0  0  0  0
    6.8672    1.6753   -0.3525 C   0  0  0  0  0  0  0  0  0  0  0  0
    8.0428    2.5012   -0.7526 C   0  0  0  0  0  0  0  0  0  0  0  0
    8.8541    3.0049    0.4100 C   0  0  0  0  0  0  0  0  0  0  0  0
    9.8893    2.2330    0.9469 C   0  0  0  0  0  0  0  0  0  0  0  0
   10.6204    2.6904    2.0488 C   0  0  0  0  0  0  0  0  0  0  0  0
   10.3497    3.9329    2.6479 C   0  0  0  0  0  0  0  0  0  0  0  0
   11.0832    4.3954    3.8517 C   0  0  0  0  0  0  0  0  0  0  0  0
   12.4300    4.0531    4.0788 C   0  0  0  0  0  0  0  0  0  0  0  0
   13.1062    4.4702    5.2313 C   0  0  0  0  0  0  0  0  0  0  0  0
   12.4549    5.2539    6.1782 C   0  0  0  0  0  0  0  0  0  0  0  0
   11.1281    5.6147    5.9772 C   0  0  0  0  0  0  0  0  0  0  0  0
   10.4518    5.1834    4.8324 C   0  0  0  0  0  0  0  0  0  0  0  0
    9.3273    4.7083    2.0702 C   0  0  0  0  0  0  0  0  0  0  0  0
    8.5828    4.2519    0.9789 C   0  0  0  0  0  0  0  0  0  0  0  0
    5.6049    2.2055   -0.1949 N   0  0  0  0  0  0  0  0  0  0  0  0
    4.6896    1.1931   -0.0863 C   0  0  0  0  0  0  0  0  0  0  0  0
    3.3607    1.3594   -0.0638 N   0  0  0  0  0  0  0  0  0  0  0  0
    0.9517   -0.6418    0.2463 H   0  0  0  0  0  0  0  0  0  0  0  0
    0.9770    1.0911    0.2984 H   0  0  0  0  0  0  0  0  0  0  0  0
    6.1648   -2.4652   -0.2128 H   0  0  0  0  0  0  0  0  0  0  0  0
    5.8077   -4.8759   -0.8073 H   0  0  0  0  0  0  0  0  0  0  0  0
    4.8435   -7.0014   -0.0028 H   0  0  0  0  0  0  0  0  0  0  0  0
    3.1465   -7.0010    1.7990 H   0  0  0  0  0  0  0  0  0  0  0  0
    3.3543   -2.7153    1.9940 H   0  0  0  0  0  0  0  0  0  0  0  0
    7.5852   -0.3898   -0.1501 H   0  0  0  0  0  0  0  0  0  0  0  0
    7.7120    3.3481   -1.3687 H   0  0  0  0  0  0  0  0  0  0  0  0
    8.6885    1.9042   -1.4101 H   0  0  0  0  0  0  0  0  0  0  0  0
   10.1299    1.2631    0.5181 H   0  0  0  0  0  0  0  0  0  0  0  0
   11.3962    2.0405    2.4485 H   0  0  0  0  0  0  0  0  0  0  0  0
   12.9796    3.4568    3.3541 H   0  0  0  0  0  0  0  0  0  0  0  0
   14.1423    4.1812    5.3853 H   0  0  0  0  0  0  0  0  0  0  0  0
   12.9801    5.5808    7.0717 H   0  0  0  0  0  0  0  0  0  0  0  0
   10.6106    6.2248    6.7130 H   0  0  0  0  0  0  0  0  0  0  0  0
    9.4054    5.4614    4.7267 H   0  0  0  0  0  0  0  0  0  0  0  0
    9.0926    5.6934    2.4680 H   0  0  0  0  0  0  0  0  0  0  0  0
    7.7921    4.8814    0.5789 H   0  0  0  0  0  0  0  0  0  0  0  0
    5.3518    3.1815   -0.2525 H   0  0  0  0  0  0  0  0  0  0  0  0
  1  2  1  0  0  0  0
  1 32  1  0  0  0  0
  1 33  1  0  0  0  0
  2  3  1  0  0  0  0
  2 31  2  0  0  0  0
  3  4  2  0  0  0  0
  4  5  1  0  0  0  0
  4 13  1  0  0  0  0
  5  6  1  0  0  0  0
  5 34  1  0  0  0  0
  6  7  1  0  0  0  0
  6 12  2  0  0  0  0
  7  8  2  0  0  0  0
  7 35  1  0  0  0  0
  8  9  1  0  0  0  0
  8 36  1  0  0  0  0
  9 10  2  0  0  0  0
  9 37  1  0  0  0  0
 10 11  1  0  0  0  0
 10 12  1  0  0  0  0
 12 38  1  0  0  0  0
 13 14  1  0  0  0  0
 13 30  2  0  0  0  0
 14 15  2  0  0  0  0
 14 39  1  0  0  0  0
 15 16  1  0  0  0  0
 15 29  1  0  0  0  0
 16 17  1  0  0  0  0
 16 40  1  0  0  0  0
 16 41  1  0  0  0  0
 17 18  1  0  0  0  0
 17 28  2  0  0  0  0
 18 19  2  0  0  0  0
 18 42  1  0  0  0  0
 19 20  1  0  0  0  0
 19 43  1  0  0  0  0
 20 21  1  0  0  0  0
 20 27  2  0  0  0  0
 21 22  1  0  0  0  0
 21 26  2  0  0  0  0
 22 23  2  0  0  0  0
 22 44  1  0  0  0  0
 23 24  1  0  0  0  0
 23 45  1  0  0  0  0
 24 25  2  0  0  0  0
 24 46  1  0  0  0  0
 25 26  1  0  0  0  0
 25 47  1  0  0  0  0
 26 48  1  0  0  0  0
 27 28  1  0  0  0  0
 27 49  1  0  0  0  0
 28 50  1  0  0  0  0
 29 30  1  0  0  0  0
 29 51  1  0  0  0  0
 30 31  1  0  0  0  0
M  END
$$$$
