CHEMBL3962502
 OpenBabel04072215373D

 59 63  0  0  0  0  0  0  0  0999 V2000
    3.8718   -4.2293    0.6093 N   0  0  0  0  0  0  0  0  0  0  0  0
    3.6757   -3.0513    1.2001 C   0  0  0  0  0  0  0  0  0  0  0  0
    3.1150   -2.7459    2.3466 N   0  0  0  0  0  0  0  0  0  0  0  0
    3.1761   -1.3652    2.4566 N   0  0  0  0  0  0  0  0  0  0  0  0
    3.7766   -0.9369    1.3646 C   0  0  0  0  0  0  0  0  0  0  0  0
    4.1270    0.4105    0.9301 C   0  0  0  0  0  0  0  0  0  0  0  0
    4.7067    0.6224   -0.3270 C   0  0  0  0  0  0  0  0  0  0  0  0
    5.0284    1.9000   -0.7972 C   0  0  0  0  0  0  0  0  0  0  0  0
    5.5433    2.0984   -2.0995 N   0  0  0  0  0  0  0  0  0  0  0  0
    5.2730    1.2302   -3.1482 C   0  0  0  0  0  0  0  0  0  0  0  0
    4.4851    0.2921   -3.0727 O   0  0  0  0  0  0  0  0  0  0  0  0
    5.9995    1.5136   -4.2995 N   0  0  0  0  0  0  0  0  0  0  0  0
    5.7850    0.7092   -5.4506 C   0  0  0  0  0  0  0  0  0  0  0  0
    4.4829    0.3704   -5.8431 C   0  0  0  0  0  0  0  0  0  0  0  0
    4.2582   -0.5630   -6.8545 C   0  0  0  0  0  0  0  0  0  0  0  0
    5.3372   -1.1126   -7.5485 C   0  0  0  0  0  0  0  0  0  0  0  0
    5.1973   -2.0495   -8.5532 O   0  0  0  0  0  0  0  0  0  0  0  0
    4.1277   -1.9546   -9.4222 C   0  0  0  0  0  0  0  0  0  0  0  0
    3.5594   -0.7442   -9.8059 C   0  0  0  0  0  0  0  0  0  0  0  0
    2.4648   -0.7835  -10.6389 C   0  0  0  0  0  0  0  0  0  0  0  0
    1.9624   -1.9207  -11.1490 N   0  0  0  0  0  0  0  0  0  0  0  0
    2.5548   -3.0853  -10.8421 C   0  0  0  0  0  0  0  0  0  0  0  0
    2.0776   -4.2775  -11.4155 N   0  0  0  0  0  0  0  0  0  0  0  0
    1.0027   -4.3470  -12.2786 C   0  0  0  0  0  0  0  0  0  0  0  0
    0.2778   -3.4357  -12.6506 O   0  0  0  0  0  0  0  0  0  0  0  0
    0.7228   -5.7356  -12.7716 C   0  0  0  0  0  0  0  0  0  0  0  0
   -0.1279   -5.9464  -14.0075 C   0  0  0  0  0  0  0  0  0  0  0  0
   -0.6791   -6.2917  -12.6554 C   0  0  0  0  0  0  0  0  0  0  0  0
    3.6403   -3.1424   -9.9700 C   0  0  0  0  0  0  0  0  0  0  0  0
    6.6341   -0.7507   -7.1682 C   0  0  0  0  0  0  0  0  0  0  0  0
    7.6902   -1.3184   -7.7698 F   0  0  0  0  0  0  0  0  0  0  0  0
    6.8683    0.1725   -6.1428 C   0  0  0  0  0  0  0  0  0  0  0  0
    4.8312    2.9936    0.0433 C   0  0  0  0  0  0  0  0  0  0  0  0
    4.2445    2.8183    1.3124 C   0  0  0  0  0  0  0  0  0  0  0  0
    3.9626    3.9970    2.2146 C   0  0  0  0  0  0  0  0  0  0  0  0
    4.3262    5.1927    1.6729 F   0  0  0  0  0  0  0  0  0  0  0  0
    2.6416    4.1126    2.5210 F   0  0  0  0  0  0  0  0  0  0  0  0
    4.6195    3.9102    3.4031 F   0  0  0  0  0  0  0  0  0  0  0  0
    3.8907    1.5234    1.7416 C   0  0  0  0  0  0  0  0  0  0  0  0
    4.1291   -1.9635    0.5259 O   0  0  0  0  0  0  0  0  0  0  0  0
    3.7275   -5.0811    1.1347 H   0  0  0  0  0  0  0  0  0  0  0  0
    4.4704   -4.2894   -0.2041 H   0  0  0  0  0  0  0  0  0  0  0  0
    4.9014   -0.2488   -0.9500 H   0  0  0  0  0  0  0  0  0  0  0  0
    5.7941    3.0367   -2.3741 H   0  0  0  0  0  0  0  0  0  0  0  0
    6.9442    1.8314   -4.1302 H   0  0  0  0  0  0  0  0  0  0  0  0
    3.6224    0.7972   -5.3300 H   0  0  0  0  0  0  0  0  0  0  0  0
    3.2339   -0.8517   -7.0735 H   0  0  0  0  0  0  0  0  0  0  0  0
    3.9281    0.2116   -9.4554 H   0  0  0  0  0  0  0  0  0  0  0  0
    1.9402    0.1211  -10.9293 H   0  0  0  0  0  0  0  0  0  0  0  0
    2.5635   -5.1285  -11.1831 H   0  0  0  0  0  0  0  0  0  0  0  0
    1.5348   -6.4446  -12.6469 H   0  0  0  0  0  0  0  0  0  0  0  0
    0.1291   -6.7589  -14.6763 H   0  0  0  0  0  0  0  0  0  0  0  0
   -0.5354   -5.0748  -14.5110 H   0  0  0  0  0  0  0  0  0  0  0  0
   -0.7974   -7.3389  -12.4070 H   0  0  0  0  0  0  0  0  0  0  0  0
   -1.4577   -5.6484  -12.2566 H   0  0  0  0  0  0  0  0  0  0  0  0
    4.1121   -4.0881   -9.7154 H   0  0  0  0  0  0  0  0  0  0  0  0
    7.8920    0.3882   -5.8575 H   0  0  0  0  0  0  0  0  0  0  0  0
    5.0922    3.9966   -0.2916 H   0  0  0  0  0  0  0  0  0  0  0  0
    3.4263    1.3882    2.7201 H   0  0  0  0  0  0  0  0  0  0  0  0
  1  2  1  0  0  0  0
  1 41  1  0  0  0  0
  1 42  1  0  0  0  0
  2  3  2  0  0  0  0
  2 40  1  0  0  0  0
  3  4  1  0  0  0  0
  4  5  2  0  0  0  0
  5  6  1  0  0  0  0
  5 40  1  0  0  0  0
  6  7  1  0  0  0  0
  6 39  2  0  0  0  0
  7  8  2  0  0  0  0
  7 43  1  0  0  0  0
  8  9  1  0  0  0  0
  8 33  1  0  0  0  0
  9 10  1  0  0  0  0
  9 44  1  0  0  0  0
 10 11  2  0  0  0  0
 10 12  1  0  0  0  0
 12 13  1  0  0  0  0
 12 45  1  0  0  0  0
 13 14  1  0  0  0  0
 13 32  2  0  0  0  0
 14 15  2  0  0  0  0
 14 46  1  0  0  0  0
 15 16  1  0  0  0  0
 15 47  1  0  0  0  0
 16 17  1  0  0  0  0
 16 30  2  0  0  0  0
 17 18  1  0  0  0  0
 18 19  1  0  0  0  0
 18 29  2  0  0  0  0
 19 20  2  0  0  0  0
 19 48  1  0  0  0  0
 20 21  1  0  0  0  0
 20 49  1  0  0  0  0
 21 22  2  0  0  0  0
 22 23  1  0  0  0  0
 22 29  1  0  0  0  0
 23 24  1  0  0  0  0
 23 50  1  0  0  0  0
 24 25  2  0  0  0  0
 24 26  1  0  0  0  0
 26 27  1  0  0  0  0
 26 28  1  0  0  0  0
 26 51  1  0  0  0  0
 27 28  1  0  0  0  0
 27 52  1  0  0  0  0
 27 53  1  0  0  0  0
 28 54  1  0  0  0  0
 28 55  1  0  0  0  0
 29 56  1  0  0  0  0
 30 31  1  0  0  0  0
 30 32  1  0  0  0  0
 32 57  1  0  0  0  0
 33 34  2  0  0  0  0
 33 58  1  0  0  0  0
 34 35  1  0  0  0  0
 34 39  1  0  0  0  0
 35 36  1  0  0  0  0
 35 37  1  0  0  0  0
 35 38  1  0  0  0  0
 39 59  1  0  0  0  0
M  END
$$$$
