CHEMBL4458485
 OpenBabel04072215383D

 51 54  0  0  0  0  0  0  0  0999 V2000
    5.8118    0.3658    4.3812 C   0  0  0  0  0  0  0  0  0  0  0  0
    5.8862    0.2004    2.9571 N   0  0  0  0  0  0  0  0  0  0  0  0
    5.7859   -1.0233    2.3125 C   0  0  0  0  0  0  0  0  0  0  0  0
    5.5562   -2.1010    2.8111 O   0  0  0  0  0  0  0  0  0  0  0  0
    6.0346   -0.7066    0.8178 C   0  0  0  0  0  0  0  0  0  0  0  0
    6.1992   -1.4837   -0.2072 N   0  0  0  0  0  0  0  0  0  0  0  0
    6.1677   -2.8746   -0.0905 C   0  0  0  0  0  0  0  0  0  0  0  0
    5.4051   -3.6073   -1.0004 C   0  0  0  0  0  0  0  0  0  0  0  0
    5.3376   -5.0003   -0.9103 C   0  0  0  0  0  0  0  0  0  0  0  0
    6.0219   -5.6793    0.1050 C   0  0  0  0  0  0  0  0  0  0  0  0
    5.9438   -7.0748    0.2874 N   0  0  0  0  0  0  0  0  0  0  0  0
    5.6506   -7.9607   -0.7220 C   0  0  0  0  0  0  0  0  0  0  0  0
    5.5721   -7.6587   -1.9088 O   0  0  0  0  0  0  0  0  0  0  0  0
    5.4309   -9.2445   -0.2305 N   0  0  0  0  0  0  0  0  0  0  0  0
    5.0722  -10.2435   -1.1584 C   0  0  0  0  0  0  0  0  0  0  0  0
    5.8307  -10.4188   -2.3230 C   0  0  0  0  0  0  0  0  0  0  0  0
    5.3512  -11.2120   -3.3567 C   0  0  0  0  0  0  0  0  0  0  0  0
    4.1196  -11.8474   -3.2051 C   0  0  0  0  0  0  0  0  0  0  0  0
    3.4601  -12.7576   -4.5642 S   0  0  0  0  0  0  0  0  0  0  0  0
    4.1067  -14.2753   -4.2635 N   0  0  0  0  0  0  0  0  0  0  0  0
    2.0308  -12.8902   -4.4044 O   0  0  0  0  0  0  0  0  0  0  0  0
    4.0665  -12.3030   -5.7930 O   0  0  0  0  0  0  0  0  0  0  0  0
    3.3886  -11.7346   -2.0161 C   0  0  0  0  0  0  0  0  0  0  0  0
    3.8838  -10.9503   -0.9730 C   0  0  0  0  0  0  0  0  0  0  0  0
    6.8079   -4.9546    0.9938 C   0  0  0  0  0  0  0  0  0  0  0  0
    6.9226   -3.5715    0.8537 C   0  0  0  0  0  0  0  0  0  0  0  0
    6.1250    0.7463    0.7356 C   0  0  0  0  0  0  0  0  0  0  0  0
    6.2846    1.5557   -0.3731 C   0  0  0  0  0  0  0  0  0  0  0  0
    6.3650    2.9256   -0.1389 C   0  0  0  0  0  0  0  0  0  0  0  0
    6.5643    4.0034   -1.4645 Cl  0  0  0  0  0  0  0  0  0  0  0  0
    6.2957    3.4462    1.1677 C   0  0  0  0  0  0  0  0  0  0  0  0
    6.1369    2.6022    2.2737 C   0  0  0  0  0  0  0  0  0  0  0  0
    6.0514    1.2411    2.0376 C   0  0  0  0  0  0  0  0  0  0  0  0
    5.7405   -0.6074    4.8773 H   0  0  0  0  0  0  0  0  0  0  0  0
    4.9302    0.9595    4.6347 H   0  0  0  0  0  0  0  0  0  0  0  0
    6.7180    0.8687    4.7349 H   0  0  0  0  0  0  0  0  0  0  0  0
    4.8640   -3.0968   -1.7926 H   0  0  0  0  0  0  0  0  0  0  0  0
    4.7225   -5.5273   -1.6351 H   0  0  0  0  0  0  0  0  0  0  0  0
    6.4074   -7.4645    1.0937 H   0  0  0  0  0  0  0  0  0  0  0  0
    4.9352   -9.2456    0.6509 H   0  0  0  0  0  0  0  0  0  0  0  0
    6.7670   -9.8804   -2.4575 H   0  0  0  0  0  0  0  0  0  0  0  0
    5.9180  -11.2884   -4.2811 H   0  0  0  0  0  0  0  0  0  0  0  0
    3.3569  -14.9468   -4.1057 H   0  0  0  0  0  0  0  0  0  0  0  0
    4.7578  -14.5275   -5.0062 H   0  0  0  0  0  0  0  0  0  0  0  0
    2.4198  -12.2179   -1.9141 H   0  0  0  0  0  0  0  0  0  0  0  0
    3.2868  -10.8204   -0.0748 H   0  0  0  0  0  0  0  0  0  0  0  0
    7.3559   -5.4444    1.7916 H   0  0  0  0  0  0  0  0  0  0  0  0
    7.5796   -3.0345    1.5295 H   0  0  0  0  0  0  0  0  0  0  0  0
    6.3427    1.1343   -1.3706 H   0  0  0  0  0  0  0  0  0  0  0  0
    6.3599    4.5202    1.3260 H   0  0  0  0  0  0  0  0  0  0  0  0
    6.0828    3.0105    3.2753 H   0  0  0  0  0  0  0  0  0  0  0  0
  1  2  1  0  0  0  0
  1 34  1  0  0  0  0
  1 35  1  0  0  0  0
  1 36  1  0  0  0  0
  2  3  1  0  0  0  0
  2 33  1  0  0  0  0
  3  4  2  0  0  0  0
  3  5  1  0  0  0  0
  5  6  2  0  0  0  0
  5 27  1  0  0  0  0
  6  7  1  0  0  0  0
  7  8  1  0  0  0  0
  7 26  2  0  0  0  0
  8  9  2  0  0  0  0
  8 37  1  0  0  0  0
  9 10  1  0  0  0  0
  9 38  1  0  0  0  0
 10 11  1  0  0  0  0
 10 25  2  0  0  0  0
 11 12  1  0  0  0  0
 11 39  1  0  0  0  0
 12 13  2  0  0  0  0
 12 14  1  0  0  0  0
 14 15  1  0  0  0  0
 14 40  1  0  0  0  0
 15 16  1  0  0  0  0
 15 24  2  0  0  0  0
 16 17  2  0  0  0  0
 16 41  1  0  0  0  0
 17 18  1  0  0  0  0
 17 42  1  0  0  0  0
 18 19  1  0  0  0  0
 18 23  2  0  0  0  0
 19 20  1  0  0  0  0
 19 21  2  0  0  0  0
 19 22  2  0  0  0  0
 20 43  1  0  0  0  0
 20 44  1  0  0  0  0
 23 24  1  0  0  0  0
 23 45  1  0  0  0  0
 24 46  1  0  0  0  0
 25 26  1  0  0  0  0
 25 47  1  0  0  0  0
 26 48  1  0  0  0  0
 27 28  1  0  0  0  0
 27 33  2  0  0  0  0
 28 29  2  0  0  0  0
 28 49  1  0  0  0  0
 29 30  1  0  0  0  0
 29 31  1  0  0  0  0
 31 32  2  0  0  0  0
 31 50  1  0  0  0  0
 32 33  1  0  0  0  0
 32 51  1  0  0  0  0
M  END
$$$$
