CHEMBL375617
 OpenBabel04072215373D

 60 63  0  0  0  0  0  0  0  0999 V2000
    1.8816   -1.3244    0.4816 C   0  0  0  0  0  0  0  0  0  0  0  0
    3.0783   -0.5690    0.3081 O   0  0  0  0  0  0  0  0  0  0  0  0
    3.3526    0.3916    1.2443 C   0  0  0  0  0  0  0  0  0  0  0  0
    2.8583    0.3193    2.5564 C   0  0  0  0  0  0  0  0  0  0  0  0
    3.1463    1.3208    3.4881 C   0  0  0  0  0  0  0  0  0  0  0  0
    3.9473    2.3995    3.1302 C   0  0  0  0  0  0  0  0  0  0  0  0
    4.1644    3.4580    4.0731 C   0  0  0  0  0  0  0  0  0  0  0  0
    4.2633    4.3534    4.8713 C   0  0  0  0  0  0  0  0  0  0  0  0
    4.3142    5.4345    5.8016 C   0  0  0  0  0  0  0  0  0  0  0  0
    5.0438    5.3932    6.9678 C   0  0  0  0  0  0  0  0  0  0  0  0
    5.1000    6.4135    7.8556 N   0  0  0  0  0  0  0  0  0  0  0  0
    4.4160    7.5201    7.5413 C   0  0  0  0  0  0  0  0  0  0  0  0
    4.4814    8.5859    8.4115 N   0  0  0  0  0  0  0  0  0  0  0  0
    3.6466    7.6544    6.4560 N   0  0  0  0  0  0  0  0  0  0  0  0
    3.6220    6.6071    5.6011 C   0  0  0  0  0  0  0  0  0  0  0  0
    4.4921    2.4540    1.8444 C   0  0  0  0  0  0  0  0  0  0  0  0
    4.2014    1.4554    0.8930 C   0  0  0  0  0  0  0  0  0  0  0  0
    4.8414    1.6181   -0.4598 C   0  0  0  0  0  0  0  0  0  0  0  0
    5.9427    2.1492   -0.5282 O   0  0  0  0  0  0  0  0  0  0  0  0
    4.0771    1.2455   -1.5483 N   0  0  0  0  0  0  0  0  0  0  0  0
    4.5064    1.3974   -2.8898 C   0  0  0  0  0  0  0  0  0  0  0  0
    4.0556    2.5435   -3.5602 C   0  0  0  0  0  0  0  0  0  0  0  0
    4.3730    2.7596   -4.9113 C   0  0  0  0  0  0  0  0  0  0  0  0
    3.8545    3.9650   -5.6493 C   0  0  0  0  0  0  0  0  0  0  0  0
    3.0696    4.7809   -4.8881 F   0  0  0  0  0  0  0  0  0  0  0  0
    4.8472    4.7543   -6.1411 F   0  0  0  0  0  0  0  0  0  0  0  0
    3.0882    3.6206   -6.7245 F   0  0  0  0  0  0  0  0  0  0  0  0
    5.1646    1.8160   -5.5667 C   0  0  0  0  0  0  0  0  0  0  0  0
    5.6113    0.6742   -4.8979 C   0  0  0  0  0  0  0  0  0  0  0  0
    5.2743    0.4092   -3.5523 C   0  0  0  0  0  0  0  0  0  0  0  0
    5.6451   -0.7995   -2.9774 N   0  0  0  0  0  0  0  0  0  0  0  0
    6.9097   -1.4707   -3.2921 C   0  0  0  0  0  0  0  0  0  0  0  0
    6.6390   -2.8252   -3.9511 C   0  0  0  0  0  0  0  0  0  0  0  0
    5.6882   -3.6727   -3.1069 C   0  0  0  0  0  0  0  0  0  0  0  0
    4.4053   -2.9064   -2.8181 C   0  0  0  0  0  0  0  0  0  0  0  0
    4.6953   -1.5570   -2.1692 C   0  0  0  0  0  0  0  0  0  0  0  0
    1.7611   -1.9650   -0.3979 H   0  0  0  0  0  0  0  0  0  0  0  0
    1.0103   -0.6627    0.5370 H   0  0  0  0  0  0  0  0  0  0  0  0
    1.9372   -1.9822    1.3538 H   0  0  0  0  0  0  0  0  0  0  0  0
    2.2495   -0.5160    2.8982 H   0  0  0  0  0  0  0  0  0  0  0  0
    2.7327    1.2483    4.4924 H   0  0  0  0  0  0  0  0  0  0  0  0
    5.6237    4.5175    7.2439 H   0  0  0  0  0  0  0  0  0  0  0  0
    4.7265    8.2734    9.3381 H   0  0  0  0  0  0  0  0  0  0  0  0
    3.6700    9.1769    8.3072 H   0  0  0  0  0  0  0  0  0  0  0  0
    3.0013    6.7550    4.7213 H   0  0  0  0  0  0  0  0  0  0  0  0
    5.1400    3.2872    1.5652 H   0  0  0  0  0  0  0  0  0  0  0  0
    3.1154    0.9901   -1.3960 H   0  0  0  0  0  0  0  0  0  0  0  0
    3.4613    3.2816   -3.0214 H   0  0  0  0  0  0  0  0  0  0  0  0
    5.4236    1.9508   -6.6178 H   0  0  0  0  0  0  0  0  0  0  0  0
    6.1832   -0.0521   -5.4695 H   0  0  0  0  0  0  0  0  0  0  0  0
    7.4643   -1.6278   -2.3576 H   0  0  0  0  0  0  0  0  0  0  0  0
    7.5676   -0.8706   -3.9299 H   0  0  0  0  0  0  0  0  0  0  0  0
    7.5811   -3.3657   -4.0957 H   0  0  0  0  0  0  0  0  0  0  0  0
    6.1982   -2.6711   -4.9438 H   0  0  0  0  0  0  0  0  0  0  0  0
    6.1733   -3.9436   -2.1613 H   0  0  0  0  0  0  0  0  0  0  0  0
    5.4503   -4.6053   -3.6295 H   0  0  0  0  0  0  0  0  0  0  0  0
    3.7515   -3.4936   -2.1636 H   0  0  0  0  0  0  0  0  0  0  0  0
    3.8598   -2.7446   -3.7568 H   0  0  0  0  0  0  0  0  0  0  0  0
    5.1054   -1.6948   -1.1617 H   0  0  0  0  0  0  0  0  0  0  0  0
    3.7271   -1.0630   -2.0834 H   0  0  0  0  0  0  0  0  0  0  0  0
  1  2  1  0  0  0  0
  1 37  1  0  0  0  0
  1 38  1  0  0  0  0
  1 39  1  0  0  0  0
  2  3  1  0  0  0  0
  3  4  1  0  0  0  0
  3 17  2  0  0  0  0
  4  5  2  0  0  0  0
  4 40  1  0  0  0  0
  5  6  1  0  0  0  0
  5 41  1  0  0  0  0
  6  7  1  0  0  0  0
  6 16  2  0  0  0  0
  7  8  3  0  0  0  0
  8  9  1  0  0  0  0
  9 10  1  0  0  0  0
  9 15  2  0  0  0  0
 10 11  2  0  0  0  0
 10 42  1  0  0  0  0
 11 12  1  0  0  0  0
 12 13  1  0  0  0  0
 12 14  2  0  0  0  0
 13 43  1  0  0  0  0
 13 44  1  0  0  0  0
 14 15  1  0  0  0  0
 15 45  1  0  0  0  0
 16 17  1  0  0  0  0
 16 46  1  0  0  0  0
 17 18  1  0  0  0  0
 18 19  2  0  0  0  0
 18 20  1  0  0  0  0
 20 21  1  0  0  0  0
 20 47  1  0  0  0  0
 21 22  1  0  0  0  0
 21 30  2  0  0  0  0
 22 23  2  0  0  0  0
 22 48  1  0  0  0  0
 23 24  1  0  0  0  0
 23 28  1  0  0  0  0
 24 25  1  0  0  0  0
 24 26  1  0  0  0  0
 24 27  1  0  0  0  0
 28 29  2  0  0  0  0
 28 49  1  0  0  0  0
 29 30  1  0  0  0  0
 29 50  1  0  0  0  0
 30 31  1  0  0  0  0
 31 32  1  0  0  0  0
 31 36  1  0  0  0  0
 32 33  1  0  0  0  0
 32 51  1  0  0  0  0
 32 52  1  0  0  0  0
 33 34  1  0  0  0  0
 33 53  1  0  0  0  0
 33 54  1  0  0  0  0
 34 35  1  0  0  0  0
 34 55  1  0  0  0  0
 34 56  1  0  0  0  0
 35 36  1  0  0  0  0
 35 57  1  0  0  0  0
 35 58  1  0  0  0  0
 36 59  1  0  0  0  0
 36 60  1  0  0  0  0
M  END
$$$$
