CHEMBL505698
 OpenBabel04072215383D

 45 48  0  0  0  0  0  0  0  0999 V2000
    3.0178   -5.6133   -0.3998 C   0  0  0  0  0  0  0  0  0  0  0  0
    1.5839   -6.0044   -0.6251 C   0  0  0  0  0  0  0  0  0  0  0  0
    1.2902   -7.2742   -1.1325 C   0  0  0  0  0  0  0  0  0  0  0  0
   -0.0284   -7.6487   -1.3499 C   0  0  0  0  0  0  0  0  0  0  0  0
   -1.0638   -6.7616   -1.0586 C   0  0  0  0  0  0  0  0  0  0  0  0
   -0.8083   -5.4899   -0.5379 C   0  0  0  0  0  0  0  0  0  0  0  0
   -1.8367   -4.5605   -0.2306 N   0  0  0  0  0  0  0  0  0  0  0  0
   -3.1991   -4.8204   -0.2694 C   0  0  0  0  0  0  0  0  0  0  0  0
   -3.7091   -5.9148   -0.4845 O   0  0  0  0  0  0  0  0  0  0  0  0
   -3.9575   -3.6697   -0.0756 N   0  0  0  0  0  0  0  0  0  0  0  0
   -5.3744   -3.7415   -0.0895 C   0  0  0  0  0  0  0  0  0  0  0  0
   -6.0901   -2.8154   -0.8499 C   0  0  0  0  0  0  0  0  0  0  0  0
   -7.4786   -2.9281   -0.9598 C   0  0  0  0  0  0  0  0  0  0  0  0
   -8.1616   -3.9325   -0.2706 C   0  0  0  0  0  0  0  0  0  0  0  0
   -7.4607   -4.8340    0.5364 C   0  0  0  0  0  0  0  0  0  0  0  0
   -8.1855   -5.8631    1.2922 C   0  0  0  0  0  0  0  0  0  0  0  0
   -8.6726   -5.5625    2.6777 C   0  0  0  0  0  0  0  0  0  0  0  0
   -9.3379   -6.3538    3.4641 N   0  0  0  0  0  0  0  0  0  0  0  0
   -9.6098   -7.5902    2.9559 C   0  0  0  0  0  0  0  0  0  0  0  0
  -10.2735   -8.6682    3.4937 C   0  0  0  0  0  0  0  0  0  0  0  0
  -10.2148   -9.6628    2.5082 C   0  0  0  0  0  0  0  0  0  0  0  0
   -9.5690   -9.2712    1.4098 N   0  0  0  0  0  0  0  0  0  0  0  0
   -9.2078   -7.9766    1.6718 N   0  0  0  0  0  0  0  0  0  0  0  0
   -8.4918   -7.0916    0.8180 C   0  0  0  0  0  0  0  0  0  0  0  0
   -8.1527   -7.5707   -0.4506 N   0  0  0  0  0  0  0  0  0  0  0  0
   -6.0648   -4.7390    0.6155 C   0  0  0  0  0  0  0  0  0  0  0  0
    0.5307   -5.1176   -0.3273 C   0  0  0  0  0  0  0  0  0  0  0  0
    3.7004   -6.4163   -0.7033 H   0  0  0  0  0  0  0  0  0  0  0  0
    3.1957   -5.4124    0.6605 H   0  0  0  0  0  0  0  0  0  0  0  0
    3.2688   -4.7280   -0.9912 H   0  0  0  0  0  0  0  0  0  0  0  0
    2.0866   -7.9781   -1.3663 H   0  0  0  0  0  0  0  0  0  0  0  0
   -0.2525   -8.6325   -1.7509 H   0  0  0  0  0  0  0  0  0  0  0  0
   -2.0715   -7.1087   -1.2599 H   0  0  0  0  0  0  0  0  0  0  0  0
   -1.5532   -3.6806    0.1756 H   0  0  0  0  0  0  0  0  0  0  0  0
   -3.5481   -2.8330   -0.4662 H   0  0  0  0  0  0  0  0  0  0  0  0
   -5.5786   -2.0454   -1.4203 H   0  0  0  0  0  0  0  0  0  0  0  0
   -8.0303   -2.2446   -1.6008 H   0  0  0  0  0  0  0  0  0  0  0  0
   -9.2422   -4.0122   -0.3742 H   0  0  0  0  0  0  0  0  0  0  0  0
   -8.4336   -4.5509    3.0485 H   0  0  0  0  0  0  0  0  0  0  0  0
  -10.7267   -8.7170    4.4725 H   0  0  0  0  0  0  0  0  0  0  0  0
  -10.6169  -10.6679    2.5486 H   0  0  0  0  0  0  0  0  0  0  0  0
   -8.1731   -8.5921   -0.4750 H   0  0  0  0  0  0  0  0  0  0  0  0
   -7.2837   -7.1804   -0.8145 H   0  0  0  0  0  0  0  0  0  0  0  0
   -5.5119   -5.4504    1.2265 H   0  0  0  0  0  0  0  0  0  0  0  0
    0.7722   -4.1349    0.0707 H   0  0  0  0  0  0  0  0  0  0  0  0
  1  2  1  0  0  0  0
  1 28  1  0  0  0  0
  1 29  1  0  0  0  0
  1 30  1  0  0  0  0
  2  3  1  0  0  0  0
  2 27  2  0  0  0  0
  3  4  2  0  0  0  0
  3 31  1  0  0  0  0
  4  5  1  0  0  0  0
  4 32  1  0  0  0  0
  5  6  2  0  0  0  0
  5 33  1  0  0  0  0
  6  7  1  0  0  0  0
  6 27  1  0  0  0  0
  7  8  1  0  0  0  0
  7 34  1  0  0  0  0
  8  9  2  0  0  0  0
  8 10  1  0  0  0  0
 10 11  1  0  0  0  0
 10 35  1  0  0  0  0
 11 12  1  0  0  0  0
 11 26  2  0  0  0  0
 12 13  2  0  0  0  0
 12 36  1  0  0  0  0
 13 14  1  0  0  0  0
 13 37  1  0  0  0  0
 14 15  2  0  0  0  0
 14 38  1  0  0  0  0
 15 16  1  0  0  0  0
 15 26  1  0  0  0  0
 16 17  1  0  0  0  0
 16 24  2  0  0  0  0
 17 18  2  0  0  0  0
 17 39  1  0  0  0  0
 18 19  1  0  0  0  0
 19 20  2  0  0  0  0
 19 23  1  0  0  0  0
 20 21  1  0  0  0  0
 20 40  1  0  0  0  0
 21 22  2  0  0  0  0
 21 41  1  0  0  0  0
 22 23  1  0  0  0  0
 23 24  1  0  0  0  0
 24 25  1  0  0  0  0
 25 42  1  0  0  0  0
 25 43  1  0  0  0  0
 26 44  1  0  0  0  0
 27 45  1  0  0  0  0
M  END
$$$$
