CHEMBL260093
 OpenBabel04072215363D

 47 50  0  0  0  0  0  0  0  0999 V2000
    4.1712    1.5002    3.1379 N   0  0  0  0  0  0  0  0  0  0  0  0
    4.7342    1.2735    1.8744 C   0  0  0  0  0  0  0  0  0  0  0  0
    5.5531    0.2124    1.7724 N   0  0  0  0  0  0  0  0  0  0  0  0
    6.0365   -0.0298    0.5484 C   0  0  0  0  0  0  0  0  0  0  0  0
    5.7723    0.6677   -0.5668 N   0  0  0  0  0  0  0  0  0  0  0  0
    4.9346    1.7142   -0.4369 C   0  0  0  0  0  0  0  0  0  0  0  0
    4.3673    2.0814    0.7918 C   0  0  0  0  0  0  0  0  0  0  0  0
    3.5389    3.2151    1.0190 N   0  0  0  0  0  0  0  0  0  0  0  0
    2.5745    3.4648    0.1862 C   0  0  0  0  0  0  0  0  0  0  0  0
    1.7102    4.6587    0.4118 C   0  0  0  0  0  0  0  0  0  0  0  0
    1.1714    5.3375   -0.6759 C   0  0  0  0  0  0  0  0  0  0  0  0
    0.3411    6.4378   -0.4724 C   0  0  0  0  0  0  0  0  0  0  0  0
    0.0250    6.8896    0.8121 C   0  0  0  0  0  0  0  0  0  0  0  0
   -0.8314    7.9959    1.0454 N   0  0  0  0  0  0  0  0  0  0  0  0
   -1.5717    8.6453    0.0706 C   0  0  0  0  0  0  0  0  0  0  0  0
   -1.6553    8.2860   -1.0995 O   0  0  0  0  0  0  0  0  0  0  0  0
   -2.1835    9.7957    0.5485 N   0  0  0  0  0  0  0  0  0  0  0  0
   -2.9375   10.5962   -0.3454 C   0  0  0  0  0  0  0  0  0  0  0  0
   -3.8670   10.0255   -1.2239 C   0  0  0  0  0  0  0  0  0  0  0  0
   -4.5054   10.8087   -2.1851 C   0  0  0  0  0  0  0  0  0  0  0  0
   -4.2149   12.1674   -2.2728 C   0  0  0  0  0  0  0  0  0  0  0  0
   -3.3135   12.7468   -1.3782 C   0  0  0  0  0  0  0  0  0  0  0  0
   -2.6928   11.9685   -0.3969 C   0  0  0  0  0  0  0  0  0  0  0  0
    0.5998    6.2299    1.9048 C   0  0  0  0  0  0  0  0  0  0  0  0
    1.4435    5.1220    1.7052 C   0  0  0  0  0  0  0  0  0  0  0  0
    2.2757    2.5761   -1.0091 C   0  0  0  0  0  0  0  0  0  0  0  0
    3.3668    2.7288   -2.0563 C   0  0  0  0  0  0  0  0  0  0  0  0
    4.7232    2.4091   -1.6247 N   0  0  0  0  0  0  0  0  0  0  0  0
    4.6644    0.9391    3.8215 H   0  0  0  0  0  0  0  0  0  0  0  0
    4.1598    2.4986    3.3249 H   0  0  0  0  0  0  0  0  0  0  0  0
    6.7070   -0.8761    0.4469 H   0  0  0  0  0  0  0  0  0  0  0  0
    1.3851    5.0491   -1.6998 H   0  0  0  0  0  0  0  0  0  0  0  0
   -0.0381    6.9191   -1.3668 H   0  0  0  0  0  0  0  0  0  0  0  0
   -1.0312    8.2381    2.0028 H   0  0  0  0  0  0  0  0  0  0  0  0
   -1.6458   10.2905    1.2443 H   0  0  0  0  0  0  0  0  0  0  0  0
   -4.0806    8.9595   -1.1877 H   0  0  0  0  0  0  0  0  0  0  0  0
   -5.2043   10.3493   -2.8794 H   0  0  0  0  0  0  0  0  0  0  0  0
   -4.6813   12.7708   -3.0469 H   0  0  0  0  0  0  0  0  0  0  0  0
   -3.0720   13.8028   -1.4660 H   0  0  0  0  0  0  0  0  0  0  0  0
   -1.9641   12.4319    0.2608 H   0  0  0  0  0  0  0  0  0  0  0  0
    0.4013    6.5560    2.9230 H   0  0  0  0  0  0  0  0  0  0  0  0
    1.8782    4.6150    2.5650 H   0  0  0  0  0  0  0  0  0  0  0  0
    1.3033    2.8199   -1.4493 H   0  0  0  0  0  0  0  0  0  0  0  0
    2.1850    1.5370   -0.6713 H   0  0  0  0  0  0  0  0  0  0  0  0
    3.3792    3.7573   -2.4367 H   0  0  0  0  0  0  0  0  0  0  0  0
    3.1166    2.0888   -2.9114 H   0  0  0  0  0  0  0  0  0  0  0  0
    5.2552    1.9106   -2.3369 H   0  0  0  0  0  0  0  0  0  0  0  0
  1  2  1  0  0  0  0
  1 29  1  0  0  0  0
  1 30  1  0  0  0  0
  2  3  1  0  0  0  0
  2  7  2  0  0  0  0
  3  4  2  0  0  0  0
  4  5  1  0  0  0  0
  4 31  1  0  0  0  0
  5  6  2  0  0  0  0
  6  7  1  0  0  0  0
  6 28  1  0  0  0  0
  7  8  1  0  0  0  0
  8  9  2  0  0  0  0
  9 10  1  0  0  0  0
  9 26  1  0  0  0  0
 10 11  1  0  0  0  0
 10 25  2  0  0  0  0
 11 12  2  0  0  0  0
 11 32  1  0  0  0  0
 12 13  1  0  0  0  0
 12 33  1  0  0  0  0
 13 14  1  0  0  0  0
 13 24  2  0  0  0  0
 14 15  1  0  0  0  0
 14 34  1  0  0  0  0
 15 16  2  0  0  0  0
 15 17  1  0  0  0  0
 17 18  1  0  0  0  0
 17 35  1  0  0  0  0
 18 19  1  0  0  0  0
 18 23  2  0  0  0  0
 19 20  2  0  0  0  0
 19 36  1  0  0  0  0
 20 21  1  0  0  0  0
 20 37  1  0  0  0  0
 21 22  2  0  0  0  0
 21 38  1  0  0  0  0
 22 23  1  0  0  0  0
 22 39  1  0  0  0  0
 23 40  1  0  0  0  0
 24 25  1  0  0  0  0
 24 41  1  0  0  0  0
 25 42  1  0  0  0  0
 26 27  1  0  0  0  0
 26 43  1  0  0  0  0
 26 44  1  0  0  0  0
 27 28  1  0  0  0  0
 27 45  1  0  0  0  0
 27 46  1  0  0  0  0
 28 47  1  0  0  0  0
M  END
$$$$
