CHEMBL4759423
 OpenBabel04072215383D

 50 53  0  0  0  0  0  0  0  0999 V2000
   10.1609    3.0799    9.5792 C   0  0  0  0  0  0  0  0  0  0  0  0
   10.0613    1.8204    8.7374 C   0  0  0  0  0  0  0  0  0  0  0  0
    9.3539    2.1494    7.5363 O   0  0  0  0  0  0  0  0  0  0  0  0
    8.0004    2.1015    7.6168 C   0  0  0  0  0  0  0  0  0  0  0  0
    7.3674    1.5509    8.5075 O   0  0  0  0  0  0  0  0  0  0  0  0
    7.3797    2.8858    6.5261 C   0  0  0  0  0  0  0  0  0  0  0  0
    8.3324    3.7035    5.2915 S   0  0  0  0  0  0  0  0  0  0  0  0
    6.8557    4.3552    4.5418 C   0  0  0  0  0  0  0  0  0  0  0  0
    6.7764    5.1077    3.4916 N   0  0  0  0  0  0  0  0  0  0  0  0
    7.9815    5.4864    2.9241 N   0  0  0  0  0  0  0  0  0  0  0  0
    7.8685    5.8733    1.6926 C   0  0  0  0  0  0  0  0  0  0  0  0
    6.6359    5.8870    0.7698 C   0  0  0  0  0  0  0  0  0  0  0  0
    5.5123    5.5218    1.0410 O   0  0  0  0  0  0  0  0  0  0  0  0
    7.1034    6.3817   -0.4438 N   0  0  0  0  0  0  0  0  0  0  0  0
    6.3194    6.3332   -1.6576 C   0  0  0  0  0  0  0  0  0  0  0  0
    6.4810    5.0048   -2.3671 C   0  0  0  0  0  0  0  0  0  0  0  0
    5.6916    3.9037   -1.9988 C   0  0  0  0  0  0  0  0  0  0  0  0
    5.8911    2.6548   -2.5908 C   0  0  0  0  0  0  0  0  0  0  0  0
    6.8849    2.4908   -3.5531 C   0  0  0  0  0  0  0  0  0  0  0  0
    7.6687    3.5777   -3.9357 C   0  0  0  0  0  0  0  0  0  0  0  0
    7.4659    4.8285   -3.3493 C   0  0  0  0  0  0  0  0  0  0  0  0
    8.4671    6.7046   -0.3636 C   0  0  0  0  0  0  0  0  0  0  0  0
    9.2901    7.2668   -1.3231 C   0  0  0  0  0  0  0  0  0  0  0  0
   10.6302    7.5021   -0.9845 C   0  0  0  0  0  0  0  0  0  0  0  0
   11.1234    7.1667    0.2905 C   0  0  0  0  0  0  0  0  0  0  0  0
   12.7761    7.4701    0.6619 Cl  0  0  0  0  0  0  0  0  0  0  0  0
   10.2925    6.6054    1.2567 C   0  0  0  0  0  0  0  0  0  0  0  0
    8.9741    6.3980    0.8992 C   0  0  0  0  0  0  0  0  0  0  0  0
    5.7853    3.9163    5.2757 N   0  0  0  0  0  0  0  0  0  0  0  0
    6.0598    3.1236    6.3748 C   0  0  0  0  0  0  0  0  0  0  0  0
    4.9478    2.6583    7.2568 C   0  0  0  0  0  0  0  0  0  0  0  0
   10.7629    2.9138   10.4748 H   0  0  0  0  0  0  0  0  0  0  0  0
    9.1653    3.4236    9.8813 H   0  0  0  0  0  0  0  0  0  0  0  0
   10.6063    3.8923    8.9937 H   0  0  0  0  0  0  0  0  0  0  0  0
    9.5840    1.0002    9.2859 H   0  0  0  0  0  0  0  0  0  0  0  0
   11.0617    1.4835    8.4477 H   0  0  0  0  0  0  0  0  0  0  0  0
    6.5890    7.1666   -2.3153 H   0  0  0  0  0  0  0  0  0  0  0  0
    5.2617    6.4733   -1.4005 H   0  0  0  0  0  0  0  0  0  0  0  0
    4.9240    4.0083   -1.2326 H   0  0  0  0  0  0  0  0  0  0  0  0
    5.2802    1.8074   -2.2884 H   0  0  0  0  0  0  0  0  0  0  0  0
    7.0540    1.5146   -4.0004 H   0  0  0  0  0  0  0  0  0  0  0  0
    8.4463    3.4482   -4.6841 H   0  0  0  0  0  0  0  0  0  0  0  0
    8.0946    5.6585   -3.6586 H   0  0  0  0  0  0  0  0  0  0  0  0
    8.9248    7.5509   -2.3031 H   0  0  0  0  0  0  0  0  0  0  0  0
   11.2939    7.9589   -1.7167 H   0  0  0  0  0  0  0  0  0  0  0  0
   10.6529    6.3464    2.2466 H   0  0  0  0  0  0  0  0  0  0  0  0
    4.8472    4.1854    5.0180 H   0  0  0  0  0  0  0  0  0  0  0  0
    4.0017    3.1410    6.9870 H   0  0  0  0  0  0  0  0  0  0  0  0
    5.1428    2.9059    8.3054 H   0  0  0  0  0  0  0  0  0  0  0  0
    4.8086    1.5773    7.1620 H   0  0  0  0  0  0  0  0  0  0  0  0
  1  2  1  0  0  0  0
  1 32  1  0  0  0  0
  1 33  1  0  0  0  0
  1 34  1  0  0  0  0
  2  3  1  0  0  0  0
  2 35  1  0  0  0  0
  2 36  1  0  0  0  0
  3  4  1  0  0  0  0
  4  5  2  0  0  0  0
  4  6  1  0  0  0  0
  6  7  1  0  0  0  0
  6 30  2  0  0  0  0
  7  8  1  0  0  0  0
  8  9  2  0  0  0  0
  8 29  1  0  0  0  0
  9 10  1  0  0  0  0
 10 11  2  0  0  0  0
 11 12  1  0  0  0  0
 11 28  1  0  0  0  0
 12 13  2  0  0  0  0
 12 14  1  0  0  0  0
 14 15  1  0  0  0  0
 14 22  1  0  0  0  0
 15 16  1  0  0  0  0
 15 37  1  0  0  0  0
 15 38  1  0  0  0  0
 16 17  1  0  0  0  0
 16 21  2  0  0  0  0
 17 18  2  0  0  0  0
 17 39  1  0  0  0  0
 18 19  1  0  0  0  0
 18 40  1  0  0  0  0
 19 20  2  0  0  0  0
 19 41  1  0  0  0  0
 20 21  1  0  0  0  0
 20 42  1  0  0  0  0
 21 43  1  0  0  0  0
 22 23  1  0  0  0  0
 22 28  2  0  0  0  0
 23 24  2  0  0  0  0
 23 44  1  0  0  0  0
 24 25  1  0  0  0  0
 24 45  1  0  0  0  0
 25 26  1  0  0  0  0
 25 27  2  0  0  0  0
 27 28  1  0  0  0  0
 27 46  1  0  0  0  0
 29 30  1  0  0  0  0
 29 47  1  0  0  0  0
 30 31  1  0  0  0  0
 31 48  1  0  0  0  0
 31 49  1  0  0  0  0
 31 50  1  0  0  0  0
M  END
$$$$
