CHEMBL3828740
 OpenBabel04072215373D

 61 66  0  0  1  0  0  0  0  0999 V2000
    2.2079   -9.2128   -3.7017 C   0  0  0  0  0  0  0  0  0  0  0  0
    2.6068  -10.1527   -2.5567 C   0  0  3  0  0  0  0  0  0  0  0  0
    1.7982   -9.9103   -1.3940 O   0  0  0  0  0  0  0  0  0  0  0  0
    1.9492   -8.7039   -0.7607 C   0  0  0  0  0  0  0  0  0  0  0  0
    0.7933   -8.1789   -0.1729 C   0  0  0  0  0  0  0  0  0  0  0  0
    0.8046   -6.9606    0.5214 C   0  0  0  0  0  0  0  0  0  0  0  0
    2.0364   -6.3090    0.6302 C   0  0  0  0  0  0  0  0  0  0  0  0
    2.4051   -5.1437    1.2484 N   0  0  0  0  0  0  0  0  0  0  0  0
    3.7240   -4.8767    1.1877 N   0  0  0  0  0  0  0  0  0  0  0  0
    4.2120   -5.8928    0.4585 C   0  0  0  0  0  0  0  0  0  0  0  0
    5.6651   -6.0091    0.1552 C   0  0  0  0  0  0  0  0  0  0  0  0
    6.2380   -6.9152   -0.6140 N   0  0  0  0  0  0  0  0  0  0  0  0
    7.5845   -6.6428   -0.5605 C   0  0  0  0  0  0  0  0  0  0  0  0
    8.6656   -7.2862   -1.1874 C   0  0  0  0  0  0  0  0  0  0  0  0
    9.9777   -6.8311   -0.9704 C   0  0  0  0  0  0  0  0  0  0  0  0
   11.0954   -7.4412   -1.5236 N   0  0  0  0  0  0  0  0  0  0  0  0
   11.0514   -8.8229   -2.0248 C   0  0  0  0  0  0  0  0  0  0  0  0
   12.4769   -9.4264   -1.9370 C   0  0  0  0  0  0  0  0  0  0  0  0
   13.4959   -8.6292   -2.6639 N   0  0  0  0  0  0  0  0  0  0  0  0
   14.8276   -9.1951   -2.4561 C   0  0  0  0  0  0  0  0  0  0  0  0
   13.4559   -7.2246   -2.1910 C   0  0  0  0  0  0  0  0  0  0  0  0
   12.0445   -6.5987   -2.2777 C   0  0  0  0  0  0  0  0  0  0  0  0
   10.1625   -5.7451   -0.0914 C   0  0  0  0  0  0  0  0  0  0  0  0
    9.1081   -5.0845    0.5508 C   0  0  0  0  0  0  0  0  0  0  0  0
    7.8318   -5.5592    0.2752 C   0  0  0  0  0  0  0  0  0  0  0  0
    6.5938   -5.1613    0.6957 N   0  0  0  0  0  0  0  0  0  0  0  0
    3.2059   -6.8143    0.0772 C   0  0  0  0  0  0  0  0  0  0  0  0
    3.1652   -8.0287   -0.6344 C   0  0  0  0  0  0  0  0  0  0  0  0
    2.4920  -11.5968   -3.0476 C   0  0  0  0  0  0  0  0  0  0  0  0
    3.5998  -12.2031   -3.6840 C   0  0  0  0  0  0  0  0  0  0  0  0
    5.1445  -11.4390   -3.8360 Cl  0  0  0  0  0  0  0  0  0  0  0  0
    3.4654  -13.4682   -4.2525 C   0  0  0  0  0  0  0  0  0  0  0  0
    2.3268  -14.1902   -4.2291 N   0  0  0  0  0  0  0  0  0  0  0  0
    1.2778  -13.6128   -3.6018 C   0  0  0  0  0  0  0  0  0  0  0  0
    1.3017  -12.3465   -3.0125 C   0  0  0  0  0  0  0  0  0  0  0  0
   -0.1797  -11.7944   -2.3204 Cl  0  0  0  0  0  0  0  0  0  0  0  0
    2.5252   -8.1862   -3.4916 H   0  0  0  0  0  0  0  0  0  0  0  0
    1.1199   -9.1870   -3.8300 H   0  0  0  0  0  0  0  0  0  0  0  0
    2.6608   -9.5073   -4.6542 H   0  0  0  0  0  0  0  0  0  0  0  0
    3.6488   -9.9911   -2.2752 H   0  0  0  0  0  0  0  0  0  0  0  0
   -0.1429   -8.7273   -0.2613 H   0  0  0  0  0  0  0  0  0  0  0  0
   -0.0996   -6.5599    0.9667 H   0  0  0  0  0  0  0  0  0  0  0  0
    1.8067   -4.4968    1.7496 H   0  0  0  0  0  0  0  0  0  0  0  0
    8.4526   -8.1198   -1.8443 H   0  0  0  0  0  0  0  0  0  0  0  0
   10.6929   -8.8433   -3.0619 H   0  0  0  0  0  0  0  0  0  0  0  0
   10.3841   -9.4462   -1.4184 H   0  0  0  0  0  0  0  0  0  0  0  0
   12.4495  -10.4437   -2.3441 H   0  0  0  0  0  0  0  0  0  0  0  0
   12.7519   -9.5033   -0.8756 H   0  0  0  0  0  0  0  0  0  0  0  0
   14.8700  -10.2239   -2.8288 H   0  0  0  0  0  0  0  0  0  0  0  0
   15.1175   -9.2002   -1.3984 H   0  0  0  0  0  0  0  0  0  0  0  0
   15.5778   -8.6241   -3.0141 H   0  0  0  0  0  0  0  0  0  0  0  0
   14.1418   -6.6170   -2.7931 H   0  0  0  0  0  0  0  0  0  0  0  0
   13.7948   -7.1678   -1.1472 H   0  0  0  0  0  0  0  0  0  0  0  0
   11.7261   -6.5337   -3.3267 H   0  0  0  0  0  0  0  0  0  0  0  0
   12.0978   -5.5732   -1.8967 H   0  0  0  0  0  0  0  0  0  0  0  0
   11.1752   -5.4195    0.1405 H   0  0  0  0  0  0  0  0  0  0  0  0
    9.2908   -4.2616    1.2316 H   0  0  0  0  0  0  0  0  0  0  0  0
    6.3678   -4.4046    1.3250 H   0  0  0  0  0  0  0  0  0  0  0  0
    4.0941   -8.4180   -1.0334 H   0  0  0  0  0  0  0  0  0  0  0  0
    4.2952  -13.9429   -4.7708 H   0  0  0  0  0  0  0  0  0  0  0  0
    0.3718  -14.2149   -3.5987 H   0  0  0  0  0  0  0  0  0  0  0  0
  1  2  1  0  0  0  0
  1 37  1  0  0  0  0
  1 38  1  0  0  0  0
  1 39  1  0  0  0  0
  2  3  1  0  0  0  0
  2 29  1  0  0  0  0
  2 40  1  0  0  0  0
  3  4  1  0  0  0  0
  4  5  1  0  0  0  0
  4 28  2  0  0  0  0
  5  6  2  0  0  0  0
  5 41  1  0  0  0  0
  6  7  1  0  0  0  0
  6 42  1  0  0  0  0
  7  8  1  0  0  0  0
  7 27  2  0  0  0  0
  8  9  1  0  0  0  0
  8 43  1  0  0  0  0
  9 10  2  0  0  0  0
 10 11  1  0  0  0  0
 10 27  1  0  0  0  0
 11 12  2  0  0  0  0
 11 26  1  0  0  0  0
 12 13  1  0  0  0  0
 13 14  1  0  0  0  0
 13 25  2  0  0  0  0
 14 15  2  0  0  0  0
 14 44  1  0  0  0  0
 15 16  1  0  0  0  0
 15 23  1  0  0  0  0
 16 17  1  0  0  0  0
 16 22  1  0  0  0  0
 17 18  1  0  0  0  0
 17 45  1  0  0  0  0
 17 46  1  0  0  0  0
 18 19  1  0  0  0  0
 18 47  1  0  0  0  0
 18 48  1  0  0  0  0
 19 20  1  0  0  0  0
 19 21  1  0  0  0  0
 20 49  1  0  0  0  0
 20 50  1  0  0  0  0
 20 51  1  0  0  0  0
 21 22  1  0  0  0  0
 21 52  1  0  0  0  0
 21 53  1  0  0  0  0
 22 54  1  0  0  0  0
 22 55  1  0  0  0  0
 23 24  2  0  0  0  0
 23 56  1  0  0  0  0
 24 25  1  0  0  0  0
 24 57  1  0  0  0  0
 25 26  1  0  0  0  0
 26 58  1  0  0  0  0
 27 28  1  0  0  0  0
 28 59  1  0  0  0  0
 29 30  1  0  0  0  0
 29 35  2  0  0  0  0
 30 31  1  0  0  0  0
 30 32  2  0  0  0  0
 32 33  1  0  0  0  0
 32 60  1  0  0  0  0
 33 34  2  0  0  0  0
 34 35  1  0  0  0  0
 34 61  1  0  0  0  0
 35 36  1  0  0  0  0
M  END
$$$$
