CHEMBL2332849
 OpenBabel04072215363D

 43 46  0  0  0  0  0  0  0  0999 V2000
    1.0997    0.0124    0.8077 O   0  0  0  0  0  0  0  0  0  0  0  0
    2.1793    0.0530    0.2313 C   0  0  0  0  0  0  0  0  0  0  0  0
    2.7355    1.2093   -0.3004 N   0  0  0  0  0  0  0  0  0  0  0  0
    2.1231    2.4863   -0.2864 C   0  0  0  0  0  0  0  0  0  0  0  0
    1.0136    2.7903    0.5048 C   0  0  0  0  0  0  0  0  0  0  0  0
    0.3773    4.0280    0.4093 C   0  0  0  0  0  0  0  0  0  0  0  0
    0.8823    5.0160   -0.4317 C   0  0  0  0  0  0  0  0  0  0  0  0
    0.2949    6.2489   -0.6111 O   0  0  0  0  0  0  0  0  0  0  0  0
   -0.3974    6.8104    0.4542 C   0  0  0  0  0  0  0  0  0  0  0  0
    0.0075    6.5823    1.7306 N   0  0  0  0  0  0  0  0  0  0  0  0
   -0.7114    7.1239    2.7316 C   0  0  0  0  0  0  0  0  0  0  0  0
   -1.7922    7.9190    2.6362 N   0  0  0  0  0  0  0  0  0  0  0  0
   -2.1140    8.1510    1.3522 C   0  0  0  0  0  0  0  0  0  0  0  0
   -3.1373    8.9269    0.8944 N   0  0  0  0  0  0  0  0  0  0  0  0
   -3.2200    8.9726   -0.4538 N   0  0  0  0  0  0  0  0  0  0  0  0
   -2.2089    8.1876   -0.8495 C   0  0  0  0  0  0  0  0  0  0  0  0
   -1.4834    7.6501    0.2298 C   0  0  0  0  0  0  0  0  0  0  0  0
    2.0070    4.7339   -1.2101 C   0  0  0  0  0  0  0  0  0  0  0  0
    2.6311    3.4792   -1.1317 C   0  0  0  0  0  0  0  0  0  0  0  0
    2.9766   -1.0564    0.0066 N   0  0  0  0  0  0  0  0  0  0  0  0
    2.6476   -2.3952    0.3294 C   0  0  0  0  0  0  0  0  0  0  0  0
    1.4147   -2.7872    0.8603 C   0  0  0  0  0  0  0  0  0  0  0  0
    1.1572   -4.1231    1.1807 C   0  0  0  0  0  0  0  0  0  0  0  0
    2.1278   -5.1050    0.9679 C   0  0  0  0  0  0  0  0  0  0  0  0
    1.8642   -6.5433    1.3365 C   0  0  0  0  0  0  0  0  0  0  0  0
    0.6440   -6.7478    1.9076 F   0  0  0  0  0  0  0  0  0  0  0  0
    1.9163   -7.3753    0.2600 F   0  0  0  0  0  0  0  0  0  0  0  0
    2.7757   -7.0256    2.2263 F   0  0  0  0  0  0  0  0  0  0  0  0
    3.3556   -4.7220    0.4084 C   0  0  0  0  0  0  0  0  0  0  0  0
    3.6127   -3.3802    0.0942 C   0  0  0  0  0  0  0  0  0  0  0  0
    3.5310    1.0998   -0.9090 H   0  0  0  0  0  0  0  0  0  0  0  0
    0.5993    2.0838    1.2162 H   0  0  0  0  0  0  0  0  0  0  0  0
   -0.5121    4.1900    1.0109 H   0  0  0  0  0  0  0  0  0  0  0  0
   -0.3795    6.8825    3.7374 H   0  0  0  0  0  0  0  0  0  0  0  0
   -3.8074    9.4446    1.4495 H   0  0  0  0  0  0  0  0  0  0  0  0
   -2.0430    8.0416   -1.9092 H   0  0  0  0  0  0  0  0  0  0  0  0
    2.3957    5.4873   -1.8902 H   0  0  0  0  0  0  0  0  0  0  0  0
    3.4964    3.2890   -1.7605 H   0  0  0  0  0  0  0  0  0  0  0  0
    3.9074   -0.8912   -0.3425 H   0  0  0  0  0  0  0  0  0  0  0  0
    0.6138   -2.0796    1.0489 H   0  0  0  0  0  0  0  0  0  0  0  0
    0.1876   -4.3813    1.6053 H   0  0  0  0  0  0  0  0  0  0  0  0
    4.1231   -5.4713    0.2205 H   0  0  0  0  0  0  0  0  0  0  0  0
    4.5785   -3.1233   -0.3331 H   0  0  0  0  0  0  0  0  0  0  0  0
  1  2  2  0  0  0  0
  2  3  1  0  0  0  0
  2 20  1  0  0  0  0
  3  4  1  0  0  0  0
  3 31  1  0  0  0  0
  4  5  1  0  0  0  0
  4 19  2  0  0  0  0
  5  6  2  0  0  0  0
  5 32  1  0  0  0  0
  6  7  1  0  0  0  0
  6 33  1  0  0  0  0
  7  8  1  0  0  0  0
  7 18  2  0  0  0  0
  8  9  1  0  0  0  0
  9 10  1  0  0  0  0
  9 17  2  0  0  0  0
 10 11  2  0  0  0  0
 11 12  1  0  0  0  0
 11 34  1  0  0  0  0
 12 13  2  0  0  0  0
 13 14  1  0  0  0  0
 13 17  1  0  0  0  0
 14 15  1  0  0  0  0
 14 35  1  0  0  0  0
 15 16  2  0  0  0  0
 16 17  1  0  0  0  0
 16 36  1  0  0  0  0
 18 19  1  0  0  0  0
 18 37  1  0  0  0  0
 19 38  1  0  0  0  0
 20 21  1  0  0  0  0
 20 39  1  0  0  0  0
 21 22  1  0  0  0  0
 21 30  2  0  0  0  0
 22 23  2  0  0  0  0
 22 40  1  0  0  0  0
 23 24  1  0  0  0  0
 23 41  1  0  0  0  0
 24 25  1  0  0  0  0
 24 29  2  0  0  0  0
 25 26  1  0  0  0  0
 25 27  1  0  0  0  0
 25 28  1  0  0  0  0
 29 30  1  0  0  0  0
 29 42  1  0  0  0  0
 30 43  1  0  0  0  0
M  END
$$$$
