CHEMBL2023223
 OpenBabel04072215363D

 52 56  0  0  0  0  0  0  0  0999 V2000
    2.3762   -0.4370    1.5717 C   0  0  0  0  0  0  0  0  0  0  0  0
    0.8823   -0.3085    1.5461 C   0  0  0  0  0  0  0  0  0  0  0  0
    0.2771    0.8754    1.9786 C   0  0  0  0  0  0  0  0  0  0  0  0
   -1.1066    0.9948    1.9667 C   0  0  0  0  0  0  0  0  0  0  0  0
   -1.8980   -0.0645    1.5211 C   0  0  0  0  0  0  0  0  0  0  0  0
   -1.3211   -1.2561    1.0703 C   0  0  0  0  0  0  0  0  0  0  0  0
   -2.0816   -2.3631    0.6112 N   0  0  0  0  0  0  0  0  0  0  0  0
   -3.4478   -2.3648    0.4009 C   0  0  0  0  0  0  0  0  0  0  0  0
   -4.1711   -1.3806    0.4981 O   0  0  0  0  0  0  0  0  0  0  0  0
   -3.9371   -3.6366    0.1090 N   0  0  0  0  0  0  0  0  0  0  0  0
   -5.3224   -3.8214   -0.1275 C   0  0  0  0  0  0  0  0  0  0  0  0
   -6.0526   -2.8978   -0.8760 C   0  0  0  0  0  0  0  0  0  0  0  0
   -7.4448   -2.9653   -0.9204 C   0  0  0  0  0  0  0  0  0  0  0  0
   -8.1402   -3.9859   -0.2548 C   0  0  0  0  0  0  0  0  0  0  0  0
   -9.6134   -3.9677   -0.2268 C   0  0  0  0  0  0  0  0  0  0  0  0
  -10.2843   -3.5816   -1.3694 C   0  0  0  0  0  0  0  0  0  0  0  0
  -11.9526   -3.4689   -1.1617 S   0  0  0  0  0  0  0  0  0  0  0  0
  -11.8944   -4.0902    0.4522 C   0  0  0  0  0  0  0  0  0  0  0  0
  -12.9848   -4.3608    1.3143 C   0  0  0  0  0  0  0  0  0  0  0  0
  -14.3871   -4.2048    0.9158 C   0  0  0  0  0  0  0  0  0  0  0  0
  -14.9879   -4.4613   -0.3634 C   0  0  0  0  0  0  0  0  0  0  0  0
  -16.3372   -4.1850   -0.3980 C   0  0  0  0  0  0  0  0  0  0  0  0
  -16.9192   -3.6716    1.1195 S   0  0  0  0  0  0  0  0  0  0  0  0
  -15.3558   -3.7803    1.8118 C   0  0  0  0  0  0  0  0  0  0  0  0
  -12.6331   -4.7965    2.5823 C   0  0  0  0  0  0  0  0  0  0  0  0
  -11.3791   -4.9336    3.0306 N   0  0  0  0  0  0  0  0  0  0  0  0
  -10.3394   -4.6657    2.2187 C   0  0  0  0  0  0  0  0  0  0  0  0
   -9.1044   -4.7888    2.8429 N   0  0  0  0  0  0  0  0  0  0  0  0
  -10.5527   -4.2667    0.8675 C   0  0  0  0  0  0  0  0  0  0  0  0
   -7.3885   -4.9869    0.3736 C   0  0  0  0  0  0  0  0  0  0  0  0
   -5.9875   -4.9020    0.4500 C   0  0  0  0  0  0  0  0  0  0  0  0
    0.0766   -1.3716    1.0903 C   0  0  0  0  0  0  0  0  0  0  0  0
    2.8465    0.4680    1.9729 H   0  0  0  0  0  0  0  0  0  0  0  0
    2.7603   -0.5915    0.5589 H   0  0  0  0  0  0  0  0  0  0  0  0
    2.6739   -1.2752    2.2092 H   0  0  0  0  0  0  0  0  0  0  0  0
    0.8766    1.7122    2.3290 H   0  0  0  0  0  0  0  0  0  0  0  0
   -1.5821    1.9135    2.2999 H   0  0  0  0  0  0  0  0  0  0  0  0
   -2.9701    0.0863    1.5468 H   0  0  0  0  0  0  0  0  0  0  0  0
   -1.5714   -3.1654    0.2742 H   0  0  0  0  0  0  0  0  0  0  0  0
   -3.4536   -4.3922    0.5715 H   0  0  0  0  0  0  0  0  0  0  0  0
   -5.5534   -2.0797   -1.3912 H   0  0  0  0  0  0  0  0  0  0  0  0
   -7.9692   -2.1766   -1.4549 H   0  0  0  0  0  0  0  0  0  0  0  0
   -9.8638   -3.3176   -2.3304 H   0  0  0  0  0  0  0  0  0  0  0  0
  -14.4618   -4.8258   -1.2367 H   0  0  0  0  0  0  0  0  0  0  0  0
  -17.0074   -4.2733   -1.2423 H   0  0  0  0  0  0  0  0  0  0  0  0
  -15.2431   -3.5173    2.8548 H   0  0  0  0  0  0  0  0  0  0  0  0
  -13.3923   -5.0585    3.3186 H   0  0  0  0  0  0  0  0  0  0  0  0
   -9.2545   -4.8712    3.8439 H   0  0  0  0  0  0  0  0  0  0  0  0
   -8.4448   -4.0684    2.5750 H   0  0  0  0  0  0  0  0  0  0  0  0
   -7.8833   -5.8249    0.8608 H   0  0  0  0  0  0  0  0  0  0  0  0
   -5.4494   -5.6445    1.0324 H   0  0  0  0  0  0  0  0  0  0  0  0
    0.5548   -2.2868    0.7552 H   0  0  0  0  0  0  0  0  0  0  0  0
  1  2  1  0  0  0  0
  1 33  1  0  0  0  0
  1 34  1  0  0  0  0
  1 35  1  0  0  0  0
  2  3  1  0  0  0  0
  2 32  2  0  0  0  0
  3  4  2  0  0  0  0
  3 36  1  0  0  0  0
  4  5  1  0  0  0  0
  4 37  1  0  0  0  0
  5  6  2  0  0  0  0
  5 38  1  0  0  0  0
  6  7  1  0  0  0  0
  6 32  1  0  0  0  0
  7  8  1  0  0  0  0
  7 39  1  0  0  0  0
  8  9  2  0  0  0  0
  8 10  1  0  0  0  0
 10 11  1  0  0  0  0
 10 40  1  0  0  0  0
 11 12  1  0  0  0  0
 11 31  2  0  0  0  0
 12 13  2  0  0  0  0
 12 41  1  0  0  0  0
 13 14  1  0  0  0  0
 13 42  1  0  0  0  0
 14 15  1  0  0  0  0
 14 30  2  0  0  0  0
 15 16  2  0  0  0  0
 15 29  1  0  0  0  0
 16 17  1  0  0  0  0
 16 43  1  0  0  0  0
 17 18  1  0  0  0  0
 18 19  1  0  0  0  0
 18 29  2  0  0  0  0
 19 20  1  0  0  0  0
 19 25  2  0  0  0  0
 20 21  1  0  0  0  0
 20 24  2  0  0  0  0
 21 22  2  0  0  0  0
 21 44  1  0  0  0  0
 22 23  1  0  0  0  0
 22 45  1  0  0  0  0
 23 24  1  0  0  0  0
 24 46  1  0  0  0  0
 25 26  1  0  0  0  0
 25 47  1  0  0  0  0
 26 27  2  0  0  0  0
 27 28  1  0  0  0  0
 27 29  1  0  0  0  0
 28 48  1  0  0  0  0
 28 49  1  0  0  0  0
 30 31  1  0  0  0  0
 30 50  1  0  0  0  0
 31 51  1  0  0  0  0
 32 52  1  0  0  0  0
M  END
$$$$
