CHEMBL243917
 OpenBabel04072215363D

 59 63  0  0  0  0  0  0  0  0999 V2000
    1.2112    0.5184    0.3991 O   0  0  0  0  0  0  0  0  0  0  0  0
    2.3085    0.1012    0.0461 C   0  0  0  0  0  0  0  0  0  0  0  0
    2.8193    0.2454   -1.2344 N   0  0  0  0  0  0  0  0  0  0  0  0
    2.1122    0.8762   -2.2990 C   0  0  0  0  0  0  0  0  0  0  0  0
    0.9964    1.6695   -2.0803 C   0  0  0  0  0  0  0  0  0  0  0  0
    0.2306    2.1580   -3.1346 C   0  0  0  0  0  0  0  0  0  0  0  0
    0.6383    1.9369   -4.4414 C   0  0  0  0  0  0  0  0  0  0  0  0
   -0.0807    2.3364   -5.5322 O   0  0  0  0  0  0  0  0  0  0  0  0
   -0.8378    3.4911   -5.5194 C   0  0  0  0  0  0  0  0  0  0  0  0
   -1.8753    3.4687   -6.4603 C   0  0  0  0  0  0  0  0  0  0  0  0
   -2.5666    4.6281   -6.7966 C   0  0  0  0  0  0  0  0  0  0  0  0
   -2.2213    5.7648   -6.0808 C   0  0  0  0  0  0  0  0  0  0  0  0
   -2.4727    7.0899   -6.2825 N   0  0  0  0  0  0  0  0  0  0  0  0
   -2.2855    7.7434   -5.0964 C   0  0  0  0  0  0  0  0  0  0  0  0
   -2.9673    8.9282   -4.9166 N   0  0  0  0  0  0  0  0  0  0  0  0
   -2.9447    9.6897   -3.7767 C   0  0  0  0  0  0  0  0  0  0  0  0
   -2.2057    9.5266   -2.7989 O   0  0  0  0  0  0  0  0  0  0  0  0
   -3.8950   10.8594   -3.7680 C   0  0  0  0  0  0  0  0  0  0  0  0
   -5.1358   10.8426   -4.4288 C   0  0  0  0  0  0  0  0  0  0  0  0
   -5.9700   11.9712   -4.3996 C   0  0  0  0  0  0  0  0  0  0  0  0
   -5.5770   13.1144   -3.7031 C   0  0  0  0  0  0  0  0  0  0  0  0
   -4.3611   13.1299   -3.0291 C   0  0  0  0  0  0  0  0  0  0  0  0
   -3.5267   12.0093   -3.0606 C   0  0  0  0  0  0  0  0  0  0  0  0
   -1.4457    7.0378   -4.3638 N   0  0  0  0  0  0  0  0  0  0  0  0
   -1.3530    5.8003   -4.9972 C   0  0  0  0  0  0  0  0  0  0  0  0
   -0.5734    4.6525   -4.7571 C   0  0  0  0  0  0  0  0  0  0  0  0
    1.7853    1.1706   -4.6790 C   0  0  0  0  0  0  0  0  0  0  0  0
    2.5273    0.6412   -3.6155 C   0  0  0  0  0  0  0  0  0  0  0  0
    3.1453   -0.6006    0.8889 N   0  0  0  0  0  0  0  0  0  0  0  0
    2.8314   -0.9864    2.2186 C   0  0  0  0  0  0  0  0  0  0  0  0
    1.5978   -0.7443    2.8384 C   0  0  0  0  0  0  0  0  0  0  0  0
    1.3360   -1.1601    4.1554 C   0  0  0  0  0  0  0  0  0  0  0  0
   -0.0052   -0.8882    4.7969 C   0  0  0  0  0  0  0  0  0  0  0  0
   -0.8780   -0.2106    3.9976 F   0  0  0  0  0  0  0  0  0  0  0  0
   -0.6462   -2.0348    5.1553 F   0  0  0  0  0  0  0  0  0  0  0  0
    0.1044   -0.1501    5.9360 F   0  0  0  0  0  0  0  0  0  0  0  0
    2.3405   -1.8385    4.8594 C   0  0  0  0  0  0  0  0  0  0  0  0
    3.5747   -2.0902    4.2562 C   0  0  0  0  0  0  0  0  0  0  0  0
    3.8096   -1.6640    2.9499 C   0  0  0  0  0  0  0  0  0  0  0  0
    5.0011   -1.9200    2.3867 F   0  0  0  0  0  0  0  0  0  0  0  0
    3.6238   -0.3091   -1.4815 H   0  0  0  0  0  0  0  0  0  0  0  0
    0.6512    1.9334   -1.0863 H   0  0  0  0  0  0  0  0  0  0  0  0
   -0.6871    2.6905   -2.9080 H   0  0  0  0  0  0  0  0  0  0  0  0
   -2.1071    2.5426   -6.9830 H   0  0  0  0  0  0  0  0  0  0  0  0
   -3.3188    4.6374   -7.5777 H   0  0  0  0  0  0  0  0  0  0  0  0
   -2.4723    7.5403   -7.1834 H   0  0  0  0  0  0  0  0  0  0  0  0
   -3.5968    9.2041   -5.6521 H   0  0  0  0  0  0  0  0  0  0  0  0
   -5.4941    9.9570   -4.9438 H   0  0  0  0  0  0  0  0  0  0  0  0
   -6.9322   11.9564   -4.9068 H   0  0  0  0  0  0  0  0  0  0  0  0
   -6.2298   13.9874   -3.6734 H   0  0  0  0  0  0  0  0  0  0  0  0
   -4.0590   14.0163   -2.4728 H   0  0  0  0  0  0  0  0  0  0  0  0
   -2.5771   12.0343   -2.5241 H   0  0  0  0  0  0  0  0  0  0  0  0
    0.2125    4.6979   -4.0135 H   0  0  0  0  0  0  0  0  0  0  0  0
    2.0845    0.9579   -5.7059 H   0  0  0  0  0  0  0  0  0  0  0  0
    3.3956    0.0280   -3.8320 H   0  0  0  0  0  0  0  0  0  0  0  0
    4.0807   -0.8160    0.5730 H   0  0  0  0  0  0  0  0  0  0  0  0
    0.7931   -0.2268    2.3240 H   0  0  0  0  0  0  0  0  0  0  0  0
    2.1581   -2.1735    5.8792 H   0  0  0  0  0  0  0  0  0  0  0  0
    4.3535   -2.6185    4.7966 H   0  0  0  0  0  0  0  0  0  0  0  0
  1  2  2  0  0  0  0
  2  3  1  0  0  0  0
  2 29  1  0  0  0  0
  3  4  1  0  0  0  0
  3 41  1  0  0  0  0
  4  5  1  0  0  0  0
  4 28  2  0  0  0  0
  5  6  2  0  0  0  0
  5 42  1  0  0  0  0
  6  7  1  0  0  0  0
  6 43  1  0  0  0  0
  7  8  1  0  0  0  0
  7 27  2  0  0  0  0
  8  9  1  0  0  0  0
  9 10  1  0  0  0  0
  9 26  2  0  0  0  0
 10 11  2  0  0  0  0
 10 44  1  0  0  0  0
 11 12  1  0  0  0  0
 11 45  1  0  0  0  0
 12 13  1  0  0  0  0
 12 25  2  0  0  0  0
 13 14  1  0  0  0  0
 13 46  1  0  0  0  0
 14 15  1  0  0  0  0
 14 24  2  0  0  0  0
 15 16  1  0  0  0  0
 15 47  1  0  0  0  0
 16 17  2  0  0  0  0
 16 18  1  0  0  0  0
 18 19  1  0  0  0  0
 18 23  2  0  0  0  0
 19 20  2  0  0  0  0
 19 48  1  0  0  0  0
 20 21  1  0  0  0  0
 20 49  1  0  0  0  0
 21 22  2  0  0  0  0
 21 50  1  0  0  0  0
 22 23  1  0  0  0  0
 22 51  1  0  0  0  0
 23 52  1  0  0  0  0
 24 25  1  0  0  0  0
 25 26  1  0  0  0  0
 26 53  1  0  0  0  0
 27 28  1  0  0  0  0
 27 54  1  0  0  0  0
 28 55  1  0  0  0  0
 29 30  1  0  0  0  0
 29 56  1  0  0  0  0
 30 31  1  0  0  0  0
 30 39  2  0  0  0  0
 31 32  2  0  0  0  0
 31 57  1  0  0  0  0
 32 33  1  0  0  0  0
 32 37  1  0  0  0  0
 33 34  1  0  0  0  0
 33 35  1  0  0  0  0
 33 36  1  0  0  0  0
 37 38  2  0  0  0  0
 37 58  1  0  0  0  0
 38 39  1  0  0  0  0
 38 59  1  0  0  0  0
 39 40  1  0  0  0  0
M  END
$$$$
