CHEMBL3809608
 OpenBabel04072215373D

 59 61  0  0  0  0  0  0  0  0999 V2000
    2.1111    0.5836    1.2656 C   0  0  0  0  0  0  0  0  0  0  0  0
    3.5649    0.4887    0.7657 C   0  0  0  0  0  0  0  0  0  0  0  0
    4.4644    1.3278    1.6833 C   0  0  0  0  0  0  0  0  0  0  0  0
    3.9954   -0.9830    0.8048 C   0  0  0  0  0  0  0  0  0  0  0  0
    3.6309    1.0771   -0.6559 C   0  0  0  0  0  0  0  0  0  0  0  0
    2.6606    1.6579   -1.1449 O   0  0  0  0  0  0  0  0  0  0  0  0
    4.8426    0.9310   -1.3065 N   0  0  0  0  0  0  0  0  0  0  0  0
    5.0065    1.4633   -2.5638 C   0  0  0  0  0  0  0  0  0  0  0  0
    4.6276    2.7495   -2.9892 C   0  0  0  0  0  0  0  0  0  0  0  0
    4.9103    2.7968   -4.3365 C   0  0  0  0  0  0  0  0  0  0  0  0
    4.7404    3.8939   -5.2711 C   0  0  0  0  0  0  0  0  0  0  0  0
    5.0492    5.1870   -4.8296 C   0  0  0  0  0  0  0  0  0  0  0  0
    4.8192    6.2970   -5.6325 C   0  0  0  0  0  0  0  0  0  0  0  0
    4.2620    6.1359   -6.8935 C   0  0  0  0  0  0  0  0  0  0  0  0
    3.9471    7.2144   -7.7279 N   0  0  0  0  0  0  0  0  0  0  0  0
    4.1287    8.5545   -7.5083 C   0  0  0  0  0  0  0  0  0  0  0  0
    4.6200    9.0756   -6.5102 O   0  0  0  0  0  0  0  0  0  0  0  0
    3.7841    9.3834   -8.5429 N   0  0  0  0  0  0  0  0  0  0  0  0
    3.1662    9.0229   -9.7241 C   0  0  0  0  0  0  0  0  0  0  0  0
    3.0513    9.8520  -10.8513 C   0  0  0  0  0  0  0  0  0  0  0  0
    2.4309    9.0612  -11.7927 C   0  0  0  0  0  0  0  0  0  0  0  0
    2.0556    9.2637  -13.2286 C   0  0  0  0  0  0  0  0  0  0  0  0
    3.3434    9.4356  -14.0555 C   0  0  0  0  0  0  0  0  0  0  0  0
    1.2673    8.0650  -13.7851 C   0  0  0  0  0  0  0  0  0  0  0  0
    1.1881   10.5279  -13.3408 C   0  0  0  0  0  0  0  0  0  0  0  0
    2.1526    7.8536  -11.2386 O   0  0  0  0  0  0  0  0  0  0  0  0
    2.6176    7.8253   -9.9500 N   0  0  0  0  0  0  0  0  0  0  0  0
    3.9782    4.8446   -7.3615 C   0  0  0  0  0  0  0  0  0  0  0  0
    4.2202    3.7244   -6.5549 C   0  0  0  0  0  0  0  0  0  0  0  0
    5.4085    1.5563   -4.6288 N   0  0  0  0  0  0  0  0  0  0  0  0
    5.5960    0.7743   -3.5419 N   0  0  0  0  0  0  0  0  0  0  0  0
    2.0142    0.2120    2.2951 H   0  0  0  0  0  0  0  0  0  0  0  0
    1.4389   -0.0061    0.6325 H   0  0  0  0  0  0  0  0  0  0  0  0
    1.7482    1.6174    1.2516 H   0  0  0  0  0  0  0  0  0  0  0  0
    4.3669    1.0131    2.7280 H   0  0  0  0  0  0  0  0  0  0  0  0
    4.1997    2.3903    1.6260 H   0  0  0  0  0  0  0  0  0  0  0  0
    5.5201    1.2404    1.4040 H   0  0  0  0  0  0  0  0  0  0  0  0
    3.8619   -1.4021    1.8093 H   0  0  0  0  0  0  0  0  0  0  0  0
    5.0501   -1.1136    0.5415 H   0  0  0  0  0  0  0  0  0  0  0  0
    3.4040   -1.5859    0.1069 H   0  0  0  0  0  0  0  0  0  0  0  0
    5.3972    0.1062   -1.1421 H   0  0  0  0  0  0  0  0  0  0  0  0
    4.1971    3.5411   -2.3909 H   0  0  0  0  0  0  0  0  0  0  0  0
    5.4613    5.3449   -3.8349 H   0  0  0  0  0  0  0  0  0  0  0  0
    5.0623    7.2739   -5.2307 H   0  0  0  0  0  0  0  0  0  0  0  0
    3.4845    6.9829   -8.6014 H   0  0  0  0  0  0  0  0  0  0  0  0
    4.0578   10.3407   -8.4157 H   0  0  0  0  0  0  0  0  0  0  0  0
    3.4149   10.8591  -10.9897 H   0  0  0  0  0  0  0  0  0  0  0  0
    3.9625    8.5310  -14.0166 H   0  0  0  0  0  0  0  0  0  0  0  0
    3.9577   10.2629  -13.6775 H   0  0  0  0  0  0  0  0  0  0  0  0
    3.1162    9.6420  -15.1059 H   0  0  0  0  0  0  0  0  0  0  0  0
    1.8623    7.1437  -13.7559 H   0  0  0  0  0  0  0  0  0  0  0  0
    0.9726    8.2332  -14.8271 H   0  0  0  0  0  0  0  0  0  0  0  0
    0.3538    7.8826  -13.2057 H   0  0  0  0  0  0  0  0  0  0  0  0
    1.7125   11.4126  -12.9636 H   0  0  0  0  0  0  0  0  0  0  0  0
    0.2638   10.4239  -12.7581 H   0  0  0  0  0  0  0  0  0  0  0  0
    0.9072   10.7251  -14.3805 H   0  0  0  0  0  0  0  0  0  0  0  0
    3.5457    4.6962   -8.3479 H   0  0  0  0  0  0  0  0  0  0  0  0
    3.9496    2.7401   -6.9264 H   0  0  0  0  0  0  0  0  0  0  0  0
    5.6739    1.1921   -5.5370 H   0  0  0  0  0  0  0  0  0  0  0  0
  1  2  1  0  0  0  0
  1 32  1  0  0  0  0
  1 33  1  0  0  0  0
  1 34  1  0  0  0  0
  2  3  1  0  0  0  0
  2  4  1  0  0  0  0
  2  5  1  0  0  0  0
  3 35  1  0  0  0  0
  3 36  1  0  0  0  0
  3 37  1  0  0  0  0
  4 38  1  0  0  0  0
  4 39  1  0  0  0  0
  4 40  1  0  0  0  0
  5  6  2  0  0  0  0
  5  7  1  0  0  0  0
  7  8  1  0  0  0  0
  7 41  1  0  0  0  0
  8  9  1  0  0  0  0
  8 31  2  0  0  0  0
  9 10  2  0  0  0  0
  9 42  1  0  0  0  0
 10 11  1  0  0  0  0
 10 30  1  0  0  0  0
 11 12  1  0  0  0  0
 11 29  2  0  0  0  0
 12 13  2  0  0  0  0
 12 43  1  0  0  0  0
 13 14  1  0  0  0  0
 13 44  1  0  0  0  0
 14 15  1  0  0  0  0
 14 28  2  0  0  0  0
 15 16  1  0  0  0  0
 15 45  1  0  0  0  0
 16 17  2  0  0  0  0
 16 18  1  0  0  0  0
 18 19  1  0  0  0  0
 18 46  1  0  0  0  0
 19 20  1  0  0  0  0
 19 27  2  0  0  0  0
 20 21  2  0  0  0  0
 20 47  1  0  0  0  0
 21 22  1  0  0  0  0
 21 26  1  0  0  0  0
 22 23  1  0  0  0  0
 22 24  1  0  0  0  0
 22 25  1  0  0  0  0
 23 48  1  0  0  0  0
 23 49  1  0  0  0  0
 23 50  1  0  0  0  0
 24 51  1  0  0  0  0
 24 52  1  0  0  0  0
 24 53  1  0  0  0  0
 25 54  1  0  0  0  0
 25 55  1  0  0  0  0
 25 56  1  0  0  0  0
 26 27  1  0  0  0  0
 28 29  1  0  0  0  0
 28 57  1  0  0  0  0
 29 58  1  0  0  0  0
 30 31  1  0  0  0  0
 30 59  1  0  0  0  0
M  END
$$$$
