CHEMBL271154
 OpenBabel04072215363D

 70 75  0  0  0  0  0  0  0  0999 V2000
  -13.7853   -0.9487   -3.4553 C   0  0  0  0  0  0  0  0  0  0  0  0
  -12.7122   -0.0693   -3.0031 N   0  0  0  0  0  0  0  0  0  0  0  0
  -12.9539    0.3815   -1.6135 C   0  0  0  0  0  0  0  0  0  0  0  0
  -11.8339    1.3169   -1.1075 C   0  0  0  0  0  0  0  0  0  0  0  0
  -10.5248    0.6565   -1.2273 N   0  0  0  0  0  0  0  0  0  0  0  0
   -9.5960    0.6610   -0.2093 C   0  0  0  0  0  0  0  0  0  0  0  0
   -9.9953    0.6100    1.1311 C   0  0  0  0  0  0  0  0  0  0  0  0
   -9.0712    0.5201    2.1740 C   0  0  0  0  0  0  0  0  0  0  0  0
   -7.7024    0.4509    1.9145 C   0  0  0  0  0  0  0  0  0  0  0  0
   -6.7604    0.2934    2.9452 N   0  0  0  0  0  0  0  0  0  0  0  0
   -6.9536   -0.5297    4.0594 C   0  0  0  0  0  0  0  0  0  0  0  0
   -7.7864   -1.5777    3.9541 N   0  0  0  0  0  0  0  0  0  0  0  0
   -7.9469   -2.3754    5.0262 C   0  0  0  0  0  0  0  0  0  0  0  0
   -7.2870   -2.1832    6.2149 C   0  0  0  0  0  0  0  0  0  0  0  0
   -7.3788   -3.0153    7.3477 N   0  0  0  0  0  0  0  0  0  0  0  0
   -8.1851   -4.1305    7.4730 C   0  0  0  0  0  0  0  0  0  0  0  0
   -8.9712   -4.5294    6.6212 O   0  0  0  0  0  0  0  0  0  0  0  0
   -8.0298   -4.9275    8.7249 C   0  0  0  0  0  0  0  0  0  0  0  0
   -8.2231   -6.3173    8.5962 C   0  0  0  0  0  0  0  0  0  0  0  0
   -8.0627   -7.1960    9.6745 C   0  0  0  0  0  0  0  0  0  0  0  0
   -8.2405   -8.6016    9.5825 N   0  0  0  0  0  0  0  0  0  0  0  0
   -8.5407   -9.2919    8.4206 C   0  0  0  0  0  0  0  0  0  0  0  0
   -8.6209   -8.7881    7.3045 O   0  0  0  0  0  0  0  0  0  0  0  0
   -8.8017  -10.7595    8.4957 C   0  0  0  0  0  0  0  0  0  0  0  0
   -9.1640  -11.4507    9.6720 C   0  0  0  0  0  0  0  0  0  0  0  0
   -9.5846  -12.7913    9.6056 C   0  0  0  0  0  0  0  0  0  0  0  0
   -9.6654  -13.3846    8.3616 C   0  0  0  0  0  0  0  0  0  0  0  0
   -9.2775  -12.7236    7.2212 C   0  0  0  0  0  0  0  0  0  0  0  0
   -8.8151  -11.4322    7.2594 C   0  0  0  0  0  0  0  0  0  0  0  0
   -9.4767  -13.4568    6.0940 O   0  0  0  0  0  0  0  0  0  0  0  0
  -10.2478  -14.5243    6.6518 C   0  0  0  0  0  0  0  0  0  0  0  0
  -11.5470  -14.3374    6.3062 F   0  0  0  0  0  0  0  0  0  0  0  0
   -9.8409  -15.6942    6.1059 F   0  0  0  0  0  0  0  0  0  0  0  0
  -10.1686  -14.6195    8.0866 O   0  0  0  0  0  0  0  0  0  0  0  0
   -7.7129   -6.6542   10.9118 C   0  0  0  0  0  0  0  0  0  0  0  0
   -7.5465   -5.2718   11.0650 C   0  0  0  0  0  0  0  0  0  0  0  0
   -7.7071   -4.4082    9.9786 C   0  0  0  0  0  0  0  0  0  0  0  0
   -7.5391   -2.7150   10.2967 Cl  0  0  0  0  0  0  0  0  0  0  0  0
   -6.4607   -1.0735    6.2279 C   0  0  0  0  0  0  0  0  0  0  0  0
   -6.2798   -0.2341    5.1804 N   0  0  0  0  0  0  0  0  0  0  0  0
   -7.2774    0.5830    0.5953 C   0  0  0  0  0  0  0  0  0  0  0  0
   -8.2129    0.6670   -0.4479 C   0  0  0  0  0  0  0  0  0  0  0  0
  -10.2304    0.1222   -2.5642 C   0  0  0  0  0  0  0  0  0  0  0  0
  -11.4045   -0.7633   -3.0545 C   0  0  0  0  0  0  0  0  0  0  0  0
  -14.7431   -0.4167   -3.4437 H   0  0  0  0  0  0  0  0  0  0  0  0
  -13.8814   -1.8469   -2.8352 H   0  0  0  0  0  0  0  0  0  0  0  0
  -13.6117   -1.2600   -4.4911 H   0  0  0  0  0  0  0  0  0  0  0  0
  -13.0308   -0.4829   -0.9389 H   0  0  0  0  0  0  0  0  0  0  0  0
  -13.9052    0.9239   -1.5616 H   0  0  0  0  0  0  0  0  0  0  0  0
  -12.0728    1.6296   -0.0865 H   0  0  0  0  0  0  0  0  0  0  0  0
  -11.8210    2.2342   -1.7096 H   0  0  0  0  0  0  0  0  0  0  0  0
  -11.0460    0.5661    1.3988 H   0  0  0  0  0  0  0  0  0  0  0  0
   -9.4450    0.4464    3.1919 H   0  0  0  0  0  0  0  0  0  0  0  0
   -6.3269    1.1534    3.2512 H   0  0  0  0  0  0  0  0  0  0  0  0
   -8.6400   -3.1902    4.8525 H   0  0  0  0  0  0  0  0  0  0  0  0
   -6.8045   -2.7649    8.1384 H   0  0  0  0  0  0  0  0  0  0  0  0
   -8.4999   -6.6815    7.6106 H   0  0  0  0  0  0  0  0  0  0  0  0
   -8.1009   -9.1279   10.4337 H   0  0  0  0  0  0  0  0  0  0  0  0
   -9.1894  -10.9570   10.6389 H   0  0  0  0  0  0  0  0  0  0  0  0
   -9.8989  -13.3283   10.4955 H   0  0  0  0  0  0  0  0  0  0  0  0
   -8.5460  -10.9262    6.3355 H   0  0  0  0  0  0  0  0  0  0  0  0
   -7.5711   -7.2913   11.7814 H   0  0  0  0  0  0  0  0  0  0  0  0
   -7.2930   -4.8715   12.0447 H   0  0  0  0  0  0  0  0  0  0  0  0
   -5.8884   -0.8073    7.1114 H   0  0  0  0  0  0  0  0  0  0  0  0
   -6.2171    0.5547    0.3594 H   0  0  0  0  0  0  0  0  0  0  0  0
   -7.8307    0.7355   -1.4623 H   0  0  0  0  0  0  0  0  0  0  0  0
   -9.3300   -0.5025   -2.5707 H   0  0  0  0  0  0  0  0  0  0  0  0
  -10.0676    0.9529   -3.2613 H   0  0  0  0  0  0  0  0  0  0  0  0
  -11.4380   -1.6729   -2.4381 H   0  0  0  0  0  0  0  0  0  0  0  0
  -11.1925   -1.0749   -4.0839 H   0  0  0  0  0  0  0  0  0  0  0  0
  1  2  1  0  0  0  0
  1 45  1  0  0  0  0
  1 46  1  0  0  0  0
  1 47  1  0  0  0  0
  2  3  1  0  0  0  0
  2 44  1  0  0  0  0
  3  4  1  0  0  0  0
  3 48  1  0  0  0  0
  3 49  1  0  0  0  0
  4  5  1  0  0  0  0
  4 50  1  0  0  0  0
  4 51  1  0  0  0  0
  5  6  1  0  0  0  0
  5 43  1  0  0  0  0
  6  7  1  0  0  0  0
  6 42  2  0  0  0  0
  7  8  2  0  0  0  0
  7 52  1  0  0  0  0
  8  9  1  0  0  0  0
  8 53  1  0  0  0  0
  9 10  1  0  0  0  0
  9 41  2  0  0  0  0
 10 11  1  0  0  0  0
 10 54  1  0  0  0  0
 11 12  1  0  0  0  0
 11 40  2  0  0  0  0
 12 13  2  0  0  0  0
 13 14  1  0  0  0  0
 13 55  1  0  0  0  0
 14 15  1  0  0  0  0
 14 39  2  0  0  0  0
 15 16  1  0  0  0  0
 15 56  1  0  0  0  0
 16 17  2  0  0  0  0
 16 18  1  0  0  0  0
 18 19  1  0  0  0  0
 18 37  2  0  0  0  0
 19 20  2  0  0  0  0
 19 57  1  0  0  0  0
 20 21  1  0  0  0  0
 20 35  1  0  0  0  0
 21 22  1  0  0  0  0
 21 58  1  0  0  0  0
 22 23  2  0  0  0  0
 22 24  1  0  0  0  0
 24 25  1  0  0  0  0
 24 29  2  0  0  0  0
 25 26  2  0  0  0  0
 25 59  1  0  0  0  0
 26 27  1  0  0  0  0
 26 60  1  0  0  0  0
 27 28  2  0  0  0  0
 27 34  1  0  0  0  0
 28 29  1  0  0  0  0
 28 30  1  0  0  0  0
 29 61  1  0  0  0  0
 30 31  1  0  0  0  0
 31 32  1  0  0  0  0
 31 33  1  0  0  0  0
 31 34  1  0  0  0  0
 35 36  2  0  0  0  0
 35 62  1  0  0  0  0
 36 37  1  0  0  0  0
 36 63  1  0  0  0  0
 37 38  1  0  0  0  0
 39 40  1  0  0  0  0
 39 64  1  0  0  0  0
 41 42  1  0  0  0  0
 41 65  1  0  0  0  0
 42 66  1  0  0  0  0
 43 44  1  0  0  0  0
 43 67  1  0  0  0  0
 43 68  1  0  0  0  0
 44 69  1  0  0  0  0
 44 70  1  0  0  0  0
M  END
$$$$
