CHEMBL240642
 OpenBabel04072215363D

 40 42  0  0  0  0  0  0  0  0999 V2000
   -2.1062   -0.0246   -0.0426 C   0  0  0  0  0  0  0  0  0  0  0  0
   -0.6634   -0.1417   -0.0162 N   0  0  0  0  0  0  0  0  0  0  0  0
    0.0740    0.9855   -0.0046 N   0  0  0  0  0  0  0  0  0  0  0  0
    1.3230    0.5366    0.0778 C   0  0  0  0  0  0  0  0  0  0  0  0
    1.3914   -0.8751    0.1183 C   0  0  0  0  0  0  0  0  0  0  0  0
    2.5532   -1.5754    0.1956 N   0  0  0  0  0  0  0  0  0  0  0  0
    2.8144   -2.7559   -0.6296 C   0  0  0  0  0  0  0  0  0  0  0  0
    3.3217   -3.8964    0.2246 C   0  0  0  0  0  0  0  0  0  0  0  0
    3.0044   -5.2138   -0.1247 C   0  0  0  0  0  0  0  0  0  0  0  0
    3.4549   -6.2492    0.6797 C   0  0  0  0  0  0  0  0  0  0  0  0
    4.2076   -6.0675    1.7841 N   0  0  0  0  0  0  0  0  0  0  0  0
    4.5359   -4.7956    2.0898 C   0  0  0  0  0  0  0  0  0  0  0  0
    4.1286   -3.6953    1.3510 C   0  0  0  0  0  0  0  0  0  0  0  0
    0.0775   -1.3063    0.0698 C   0  0  0  0  0  0  0  0  0  0  0  0
   -0.5531   -2.6050    0.0630 C   0  0  0  0  0  0  0  0  0  0  0  0
   -1.6153   -2.7751   -0.5269 O   0  0  0  0  0  0  0  0  0  0  0  0
    0.0749   -3.5925    0.8060 N   0  0  0  0  0  0  0  0  0  0  0  0
   -0.3569   -4.9354    0.9175 C   0  0  0  0  0  0  0  0  0  0  0  0
   -1.2708   -5.5136    0.0284 C   0  0  0  0  0  0  0  0  0  0  0  0
   -1.7279   -6.8210    0.2111 C   0  0  0  0  0  0  0  0  0  0  0  0
   -1.2559   -7.5718    1.2797 C   0  0  0  0  0  0  0  0  0  0  0  0
   -1.8631   -9.1590    1.5390 Cl  0  0  0  0  0  0  0  0  0  0  0  0
   -0.3009   -7.0359    2.1410 C   0  0  0  0  0  0  0  0  0  0  0  0
    0.1551   -5.7230    1.9550 C   0  0  0  0  0  0  0  0  0  0  0  0
   -2.3868    1.0290    0.0380 H   0  0  0  0  0  0  0  0  0  0  0  0
   -2.5177   -0.5748    0.8068 H   0  0  0  0  0  0  0  0  0  0  0  0
   -2.4703   -0.4270   -0.9906 H   0  0  0  0  0  0  0  0  0  0  0  0
    2.1317    1.2546    0.0845 H   0  0  0  0  0  0  0  0  0  0  0  0
    3.4022   -1.0120    0.2490 H   0  0  0  0  0  0  0  0  0  0  0  0
    3.5849   -2.5112   -1.3731 H   0  0  0  0  0  0  0  0  0  0  0  0
    1.9263   -3.0634   -1.1879 H   0  0  0  0  0  0  0  0  0  0  0  0
    2.3867   -5.4370   -0.9893 H   0  0  0  0  0  0  0  0  0  0  0  0
    3.2010   -7.2814    0.4552 H   0  0  0  0  0  0  0  0  0  0  0  0
    5.1531   -4.6771    2.9761 H   0  0  0  0  0  0  0  0  0  0  0  0
    4.4278   -2.7021    1.6686 H   0  0  0  0  0  0  0  0  0  0  0  0
    0.8469   -3.2914    1.3952 H   0  0  0  0  0  0  0  0  0  0  0  0
   -1.6482   -4.9733   -0.8344 H   0  0  0  0  0  0  0  0  0  0  0  0
   -2.4588   -7.2319   -0.4802 H   0  0  0  0  0  0  0  0  0  0  0  0
    0.0822   -7.6283    2.9678 H   0  0  0  0  0  0  0  0  0  0  0  0
    0.8986   -5.3289    2.6441 H   0  0  0  0  0  0  0  0  0  0  0  0
  1  2  1  0  0  0  0
  1 25  1  0  0  0  0
  1 26  1  0  0  0  0
  1 27  1  0  0  0  0
  2  3  1  0  0  0  0
  2 14  1  0  0  0  0
  3  4  2  0  0  0  0
  4  5  1  0  0  0  0
  4 28  1  0  0  0  0
  5  6  1  0  0  0  0
  5 14  2  0  0  0  0
  6  7  1  0  0  0  0
  6 29  1  0  0  0  0
  7  8  1  0  0  0  0
  7 30  1  0  0  0  0
  7 31  1  0  0  0  0
  8  9  1  0  0  0  0
  8 13  2  0  0  0  0
  9 10  2  0  0  0  0
  9 32  1  0  0  0  0
 10 11  1  0  0  0  0
 10 33  1  0  0  0  0
 11 12  2  0  0  0  0
 12 13  1  0  0  0  0
 12 34  1  0  0  0  0
 13 35  1  0  0  0  0
 14 15  1  0  0  0  0
 15 16  2  0  0  0  0
 15 17  1  0  0  0  0
 17 18  1  0  0  0  0
 17 36  1  0  0  0  0
 18 19  1  0  0  0  0
 18 24  2  0  0  0  0
 19 20  2  0  0  0  0
 19 37  1  0  0  0  0
 20 21  1  0  0  0  0
 20 38  1  0  0  0  0
 21 22  1  0  0  0  0
 21 23  2  0  0  0  0
 23 24  1  0  0  0  0
 23 39  1  0  0  0  0
 24 40  1  0  0  0  0
M  END
$$$$
