CHEMBL1241578
 OpenBabel04072215363D

 35 37  0  0  0  0  0  0  0  0999 V2000
    3.6423   -0.1985    0.7909 C   0  0  0  0  0  0  0  0  0  0  0  0
    2.5521    0.0483   -0.2510 C   0  0  0  0  0  0  0  0  0  0  0  0
    1.2061    0.3071    0.4329 C   0  0  0  0  0  0  0  0  0  0  0  0
    2.9373    1.1188   -1.1664 N   0  0  0  0  0  0  0  0  0  0  0  0
    2.6356    2.4018   -0.8827 N   0  0  0  0  0  0  0  0  0  0  0  0
    3.1370    3.1064   -1.9144 C   0  0  0  0  0  0  0  0  0  0  0  0
    2.9783    4.5637   -1.9332 C   0  0  0  0  0  0  0  0  0  0  0  0
    1.8142    5.1521   -1.4071 C   0  0  0  0  0  0  0  0  0  0  0  0
    1.6313    6.5393   -1.4385 C   0  0  0  0  0  0  0  0  0  0  0  0
    2.6075    7.3487   -2.0165 C   0  0  0  0  0  0  0  0  0  0  0  0
    2.3418    9.2228   -2.0813 Br  0  0  0  0  0  0  0  0  0  0  0  0
    3.7691    6.7736   -2.5276 C   0  0  0  0  0  0  0  0  0  0  0  0
    4.7468    7.5082   -3.1383 O   0  0  0  0  0  0  0  0  0  0  0  0
    3.9717    5.3981   -2.4567 C   0  0  0  0  0  0  0  0  0  0  0  0
    3.7573    2.2430   -2.8774 C   0  0  0  0  0  0  0  0  0  0  0  0
    4.4118    2.3228   -4.1185 C   0  0  0  0  0  0  0  0  0  0  0  0
    4.6338    3.4807   -4.8466 N   0  0  0  0  0  0  0  0  0  0  0  0
    4.8739    1.1872   -4.6835 N   0  0  0  0  0  0  0  0  0  0  0  0
    4.6814    0.0210   -4.0458 C   0  0  0  0  0  0  0  0  0  0  0  0
    4.0546   -0.1855   -2.8767 N   0  0  0  0  0  0  0  0  0  0  0  0
    3.6155    0.9694   -2.3449 C   0  0  0  0  0  0  0  0  0  0  0  0
    3.3540   -1.0079    1.4704 H   0  0  0  0  0  0  0  0  0  0  0  0
    3.8313    0.6980    1.3914 H   0  0  0  0  0  0  0  0  0  0  0  0
    4.5858   -0.4837    0.3131 H   0  0  0  0  0  0  0  0  0  0  0  0
    2.4406   -0.8563   -0.8621 H   0  0  0  0  0  0  0  0  0  0  0  0
    1.2482    1.1841    1.0890 H   0  0  0  0  0  0  0  0  0  0  0  0
    0.9130   -0.5514    1.0467 H   0  0  0  0  0  0  0  0  0  0  0  0
    0.4165    0.4787   -0.3066 H   0  0  0  0  0  0  0  0  0  0  0  0
    1.0410    4.5270   -0.9631 H   0  0  0  0  0  0  0  0  0  0  0  0
    0.7272    6.9693   -1.0148 H   0  0  0  0  0  0  0  0  0  0  0  0
    4.4586    8.4387   -3.1351 H   0  0  0  0  0  0  0  0  0  0  0  0
    4.9132    4.9913   -2.8138 H   0  0  0  0  0  0  0  0  0  0  0  0
    3.9342    4.2055   -4.7633 H   0  0  0  0  0  0  0  0  0  0  0  0
    4.9382    3.2670   -5.7895 H   0  0  0  0  0  0  0  0  0  0  0  0
    5.0786   -0.8610   -4.5389 H   0  0  0  0  0  0  0  0  0  0  0  0
  1  2  1  0  0  0  0
  1 22  1  0  0  0  0
  1 23  1  0  0  0  0
  1 24  1  0  0  0  0
  2  3  1  0  0  0  0
  2  4  1  0  0  0  0
  2 25  1  0  0  0  0
  3 26  1  0  0  0  0
  3 27  1  0  0  0  0
  3 28  1  0  0  0  0
  4  5  1  0  0  0  0
  4 21  1  0  0  0  0
  5  6  2  0  0  0  0
  6  7  1  0  0  0  0
  6 15  1  0  0  0  0
  7  8  1  0  0  0  0
  7 14  2  0  0  0  0
  8  9  2  0  0  0  0
  8 29  1  0  0  0  0
  9 10  1  0  0  0  0
  9 30  1  0  0  0  0
 10 11  1  0  0  0  0
 10 12  2  0  0  0  0
 12 13  1  0  0  0  0
 12 14  1  0  0  0  0
 13 31  1  0  0  0  0
 14 32  1  0  0  0  0
 15 16  1  0  0  0  0
 15 21  2  0  0  0  0
 16 17  1  0  0  0  0
 16 18  2  0  0  0  0
 17 33  1  0  0  0  0
 17 34  1  0  0  0  0
 18 19  1  0  0  0  0
 19 20  2  0  0  0  0
 19 35  1  0  0  0  0
 20 21  1  0  0  0  0
M  END
$$$$
