CHEMBL208500
 OpenBabel04072215363D

 36 39  0  0  0  0  0  0  0  0999 V2000
    1.0775   -0.3365   -1.0279 C   0  0  0  0  0  0  0  0  0  0  0  0
    2.4135   -0.1701   -0.5032 N   0  0  0  0  0  0  0  0  0  0  0  0
    3.1874    0.9406   -0.7066 C   0  0  0  0  0  0  0  0  0  0  0  0
    4.3515    0.7883    0.0095 C   0  0  0  0  0  0  0  0  0  0  0  0
    5.4214    1.7273    0.1053 C   0  0  0  0  0  0  0  0  0  0  0  0
    5.4106    3.0686    0.0621 C   0  0  0  0  0  0  0  0  0  0  0  0
    4.2876    4.0179   -0.1368 C   0  0  0  0  0  0  0  0  0  0  0  0
    3.0882    3.8327   -0.1356 O   0  0  0  0  0  0  0  0  0  0  0  0
    4.9342    5.2325   -0.3187 N   0  0  0  0  0  0  0  0  0  0  0  0
    6.2964    5.2124   -0.1360 N   0  0  0  0  0  0  0  0  0  0  0  0
    6.6040    3.9641    0.1307 C   0  0  0  0  0  0  0  0  0  0  0  0
    7.9583    3.5179    0.4775 C   0  0  0  0  0  0  0  0  0  0  0  0
    9.0677    4.2315    0.0505 C   0  0  0  0  0  0  0  0  0  0  0  0
   10.3368    3.8382    0.3368 N   0  0  0  0  0  0  0  0  0  0  0  0
   10.4433    2.7158    1.0862 C   0  0  0  0  0  0  0  0  0  0  0  0
    9.3357    2.0225    1.5408 C   0  0  0  0  0  0  0  0  0  0  0  0
    8.0751    2.4110    1.2520 N   0  0  0  0  0  0  0  0  0  0  0  0
    4.3282   -0.5238    0.5846 C   0  0  0  0  0  0  0  0  0  0  0  0
    5.2258   -1.2911    1.3587 C   0  0  0  0  0  0  0  0  0  0  0  0
    6.4362   -0.8114    1.6838 F   0  0  0  0  0  0  0  0  0  0  0  0
    4.8772   -2.5705    1.7946 C   0  0  0  0  0  0  0  0  0  0  0  0
    3.6327   -3.1053    1.4722 C   0  0  0  0  0  0  0  0  0  0  0  0
    2.7208   -2.3769    0.7011 C   0  0  0  0  0  0  0  0  0  0  0  0
    3.0902   -1.0945    0.2625 C   0  0  0  0  0  0  0  0  0  0  0  0
    0.7925    0.5531   -1.5945 H   0  0  0  0  0  0  0  0  0  0  0  0
    0.3932   -0.4724   -0.1862 H   0  0  0  0  0  0  0  0  0  0  0  0
    1.0685   -1.2116   -1.6826 H   0  0  0  0  0  0  0  0  0  0  0  0
    2.8275    1.7521   -1.3243 H   0  0  0  0  0  0  0  0  0  0  0  0
    6.3820    1.2378    0.2362 H   0  0  0  0  0  0  0  0  0  0  0  0
    4.4396    6.1063   -0.4526 H   0  0  0  0  0  0  0  0  0  0  0  0
    8.9777    5.1342   -0.5445 H   0  0  0  0  0  0  0  0  0  0  0  0
   11.4496    2.3837    1.3124 H   0  0  0  0  0  0  0  0  0  0  0  0
    9.4280    1.1280    2.1469 H   0  0  0  0  0  0  0  0  0  0  0  0
    5.5850   -3.1410    2.3879 H   0  0  0  0  0  0  0  0  0  0  0  0
    3.3666   -4.0988    1.8231 H   0  0  0  0  0  0  0  0  0  0  0  0
    1.7529   -2.8021    0.4520 H   0  0  0  0  0  0  0  0  0  0  0  0
  1  2  1  0  0  0  0
  1 25  1  0  0  0  0
  1 26  1  0  0  0  0
  1 27  1  0  0  0  0
  2  3  1  0  0  0  0
  2 24  1  0  0  0  0
  3  4  2  0  0  0  0
  3 28  1  0  0  0  0
  4  5  1  0  0  0  0
  4 18  1  0  0  0  0
  5  6  2  0  0  0  0
  5 29  1  0  0  0  0
  6  7  1  0  0  0  0
  6 11  1  0  0  0  0
  7  8  2  0  0  0  0
  7  9  1  0  0  0  0
  9 10  1  0  0  0  0
  9 30  1  0  0  0  0
 10 11  2  0  0  0  0
 11 12  1  0  0  0  0
 12 13  1  0  0  0  0
 12 17  2  0  0  0  0
 13 14  2  0  0  0  0
 13 31  1  0  0  0  0
 14 15  1  0  0  0  0
 15 16  2  0  0  0  0
 15 32  1  0  0  0  0
 16 17  1  0  0  0  0
 16 33  1  0  0  0  0
 18 19  1  0  0  0  0
 18 24  2  0  0  0  0
 19 20  1  0  0  0  0
 19 21  2  0  0  0  0
 21 22  1  0  0  0  0
 21 34  1  0  0  0  0
 22 23  2  0  0  0  0
 22 35  1  0  0  0  0
 23 24  1  0  0  0  0
 23 36  1  0  0  0  0
M  END
$$$$
