CHEMBL4293385
 OpenBabel04072215383D

 42 44  0  0  0  0  0  0  0  0999 V2000
    2.0990    3.9373   -2.2122 C   0  0  0  0  0  0  0  0  0  0  0  0
    3.4451    3.4787   -2.0045 N   0  0  0  0  0  0  0  0  0  0  0  0
    3.7380    2.1381   -1.8784 C   0  0  0  0  0  0  0  0  0  0  0  0
    2.8978    1.2497   -1.9759 O   0  0  0  0  0  0  0  0  0  0  0  0
    5.1808    1.8255   -1.6238 C   0  0  0  0  0  0  0  0  0  0  0  0
    5.5693    0.4967   -1.5158 C   0  0  0  0  0  0  0  0  0  0  0  0
    6.9288    0.2218   -1.3971 C   0  0  0  0  0  0  0  0  0  0  0  0
    7.4681   -1.0490   -1.3581 O   0  0  0  0  0  0  0  0  0  0  0  0
    6.8578   -2.0628   -2.0638 C   0  0  0  0  0  0  0  0  0  0  0  0
    6.1787   -1.8758   -3.2691 C   0  0  0  0  0  0  0  0  0  0  0  0
    5.4812   -2.9318   -3.8559 C   0  0  0  0  0  0  0  0  0  0  0  0
    5.5320   -4.2122   -3.2981 C   0  0  0  0  0  0  0  0  0  0  0  0
    4.7376   -5.3267   -3.8267 C   0  0  0  0  0  0  0  0  0  0  0  0
    4.3643   -5.4792   -5.1108 C   0  0  0  0  0  0  0  0  0  0  0  0
    3.5358   -6.6081   -5.5633 C   0  0  0  0  0  0  0  0  0  0  0  0
    3.1533   -6.7113   -6.8961 C   0  0  0  0  0  0  0  0  0  0  0  0
    2.3646   -7.7925   -7.2847 C   0  0  0  0  0  0  0  0  0  0  0  0
    1.9813   -8.7325   -6.3355 C   0  0  0  0  0  0  0  0  0  0  0  0
    2.4046   -8.5529   -5.0318 C   0  0  0  0  0  0  0  0  0  0  0  0
    3.1689   -7.5186   -4.6313 N   0  0  0  0  0  0  0  0  0  0  0  0
    6.3012   -4.4154   -2.1437 C   0  0  0  0  0  0  0  0  0  0  0  0
    6.9633   -3.3466   -1.5290 C   0  0  0  0  0  0  0  0  0  0  0  0
    7.8325    1.2730   -1.2723 C   0  0  0  0  0  0  0  0  0  0  0  0
    7.3441    2.5701   -1.3496 C   0  0  0  0  0  0  0  0  0  0  0  0
    6.0432    2.8766   -1.5460 N   0  0  0  0  0  0  0  0  0  0  0  0
    2.0989    5.0273   -2.2737 H   0  0  0  0  0  0  0  0  0  0  0  0
    1.4749    3.6097   -1.3757 H   0  0  0  0  0  0  0  0  0  0  0  0
    1.7088    3.5075   -3.1389 H   0  0  0  0  0  0  0  0  0  0  0  0
    4.2239    4.1294   -1.9479 H   0  0  0  0  0  0  0  0  0  0  0  0
    4.8237   -0.2891   -1.5666 H   0  0  0  0  0  0  0  0  0  0  0  0
    6.1310   -0.8998   -3.7428 H   0  0  0  0  0  0  0  0  0  0  0  0
    4.8727   -2.7246   -4.7320 H   0  0  0  0  0  0  0  0  0  0  0  0
    4.4321   -6.0653   -3.0858 H   0  0  0  0  0  0  0  0  0  0  0  0
    4.6625   -4.7680   -5.8697 H   0  0  0  0  0  0  0  0  0  0  0  0
    3.4561   -5.9699   -7.6288 H   0  0  0  0  0  0  0  0  0  0  0  0
    2.0513   -7.8990   -8.3190 H   0  0  0  0  0  0  0  0  0  0  0  0
    1.3650   -9.5855   -6.6060 H   0  0  0  0  0  0  0  0  0  0  0  0
    2.1332   -9.2554   -4.2498 H   0  0  0  0  0  0  0  0  0  0  0  0
    6.3733   -5.4082   -1.7010 H   0  0  0  0  0  0  0  0  0  0  0  0
    7.5354   -3.5204   -0.6216 H   0  0  0  0  0  0  0  0  0  0  0  0
    8.8900    1.0858   -1.1286 H   0  0  0  0  0  0  0  0  0  0  0  0
    8.0132    3.4184   -1.2607 H   0  0  0  0  0  0  0  0  0  0  0  0
  1  2  1  0  0  0  0
  1 26  1  0  0  0  0
  1 27  1  0  0  0  0
  1 28  1  0  0  0  0
  2  3  1  0  0  0  0
  2 29  1  0  0  0  0
  3  4  2  0  0  0  0
  3  5  1  0  0  0  0
  5  6  1  0  0  0  0
  5 25  2  0  0  0  0
  6  7  2  0  0  0  0
  6 30  1  0  0  0  0
  7  8  1  0  0  0  0
  7 23  1  0  0  0  0
  8  9  1  0  0  0  0
  9 10  1  0  0  0  0
  9 22  2  0  0  0  0
 10 11  2  0  0  0  0
 10 31  1  0  0  0  0
 11 12  1  0  0  0  0
 11 32  1  0  0  0  0
 12 13  1  0  0  0  0
 12 21  2  0  0  0  0
 13 14  2  0  0  0  0
 13 33  1  0  0  0  0
 14 15  1  0  0  0  0
 14 34  1  0  0  0  0
 15 16  1  0  0  0  0
 15 20  2  0  0  0  0
 16 17  2  0  0  0  0
 16 35  1  0  0  0  0
 17 18  1  0  0  0  0
 17 36  1  0  0  0  0
 18 19  2  0  0  0  0
 18 37  1  0  0  0  0
 19 20  1  0  0  0  0
 19 38  1  0  0  0  0
 21 22  1  0  0  0  0
 21 39  1  0  0  0  0
 22 40  1  0  0  0  0
 23 24  2  0  0  0  0
 23 41  1  0  0  0  0
 24 25  1  0  0  0  0
 24 42  1  0  0  0  0
M  END
$$$$
