CHEMBL2016910
 OpenBabel04072215363D

 52 56  0  0  0  0  0  0  0  0999 V2000
    1.0852   -0.3975   -0.3529 O   0  0  0  0  0  0  0  0  0  0  0  0
    2.2519   -0.0836   -0.1123 C   0  0  0  0  0  0  0  0  0  0  0  0
    2.8782    1.1497   -0.7798 C   0  0  0  0  0  0  0  0  0  0  0  0
    3.5528    0.7636   -2.0372 N   0  0  0  0  0  0  0  0  0  0  0  0
    4.1748    1.9384   -2.6850 C   0  0  0  0  0  0  0  0  0  0  0  0
    3.1587    2.9218   -3.2921 C   0  0  0  0  0  0  0  0  0  0  0  0
    2.2822    2.2679   -4.2173 O   0  0  0  0  0  0  0  0  0  0  0  0
    1.6055    1.1643   -3.5993 C   0  0  0  0  0  0  0  0  0  0  0  0
    2.6074    0.1592   -3.0091 C   0  0  0  0  0  0  0  0  0  0  0  0
    3.0898   -0.8574    0.7014 N   0  0  0  0  0  0  0  0  0  0  0  0
    2.4763   -2.1041    1.1974 C   0  0  0  0  0  0  0  0  0  0  0  0
    3.3375   -3.0818    2.0087 C   0  0  0  0  0  0  0  0  0  0  0  0
    4.5146   -2.4193    2.5812 C   0  0  0  0  0  0  0  0  0  0  0  0
    5.4177   -3.0173    3.4068 N   0  0  0  0  0  0  0  0  0  0  0  0
    6.3634   -2.1197    3.6123 C   0  0  0  0  0  0  0  0  0  0  0  0
    7.5841   -2.2191    4.3330 C   0  0  0  0  0  0  0  0  0  0  0  0
    7.8776   -3.3766    4.9570 C   0  0  0  0  0  0  0  0  0  0  0  0
    9.1376   -3.5386    5.6846 C   0  0  0  0  0  0  0  0  0  0  0  0
    9.4485   -4.7216    6.3611 C   0  0  0  0  0  0  0  0  0  0  0  0
   10.6580   -4.8210    7.0508 C   0  0  0  0  0  0  0  0  0  0  0  0
   11.0382   -6.2668    7.9025 Cl  0  0  0  0  0  0  0  0  0  0  0  0
   11.5633   -3.7584    7.0620 C   0  0  0  0  0  0  0  0  0  0  0  0
   11.2633   -2.5821    6.3742 C   0  0  0  0  0  0  0  0  0  0  0  0
   10.0541   -2.4802    5.6959 C   0  0  0  0  0  0  0  0  0  0  0  0
    9.7418   -1.2935    5.0233 N   0  0  0  0  0  0  0  0  0  0  0  0
    8.5583   -1.0801    4.3748 C   0  0  0  0  0  0  0  0  0  0  0  0
    8.3234    0.0053    3.8460 O   0  0  0  0  0  0  0  0  0  0  0  0
    6.0503   -0.9344    2.9642 N   0  0  0  0  0  0  0  0  0  0  0  0
    4.8767   -1.1361    2.2971 C   0  0  0  0  0  0  0  0  0  0  0  0
    4.1734   -0.1871    1.4355 C   0  0  0  0  0  0  0  0  0  0  0  0
    3.6026    1.6058   -0.1035 H   0  0  0  0  0  0  0  0  0  0  0  0
    2.0976    1.9054   -0.9081 H   0  0  0  0  0  0  0  0  0  0  0  0
    4.8217    1.5660   -3.4900 H   0  0  0  0  0  0  0  0  0  0  0  0
    4.8345    2.4590   -1.9808 H   0  0  0  0  0  0  0  0  0  0  0  0
    3.6903    3.7057   -3.8405 H   0  0  0  0  0  0  0  0  0  0  0  0
    2.5624    3.4167   -2.5172 H   0  0  0  0  0  0  0  0  0  0  0  0
    1.0048    0.6717   -4.3701 H   0  0  0  0  0  0  0  0  0  0  0  0
    0.9123    1.5447   -2.8403 H   0  0  0  0  0  0  0  0  0  0  0  0
    3.2046   -0.2662   -3.8254 H   0  0  0  0  0  0  0  0  0  0  0  0
    2.0757   -0.6932   -2.5753 H   0  0  0  0  0  0  0  0  0  0  0  0
    2.1033   -2.6443    0.3162 H   0  0  0  0  0  0  0  0  0  0  0  0
    1.5907   -1.8244    1.7790 H   0  0  0  0  0  0  0  0  0  0  0  0
    3.6704   -3.9042    1.3660 H   0  0  0  0  0  0  0  0  0  0  0  0
    2.7302   -3.5187    2.8072 H   0  0  0  0  0  0  0  0  0  0  0  0
    7.1931   -4.2219    4.9290 H   0  0  0  0  0  0  0  0  0  0  0  0
    8.7569   -5.5604    6.3586 H   0  0  0  0  0  0  0  0  0  0  0  0
   12.5006   -3.8388    7.6065 H   0  0  0  0  0  0  0  0  0  0  0  0
   11.9711   -1.7583    6.3850 H   0  0  0  0  0  0  0  0  0  0  0  0
   10.3916   -0.5199    5.0170 H   0  0  0  0  0  0  0  0  0  0  0  0
    6.6259   -0.1032    2.9652 H   0  0  0  0  0  0  0  0  0  0  0  0
    4.8780    0.2537    0.7213 H   0  0  0  0  0  0  0  0  0  0  0  0
    3.7262    0.6163    2.0312 H   0  0  0  0  0  0  0  0  0  0  0  0
  1  2  2  0  0  0  0
  2  3  1  0  0  0  0
  2 10  1  0  0  0  0
  3  4  1  0  0  0  0
  3 31  1  0  0  0  0
  3 32  1  0  0  0  0
  4  5  1  0  0  0  0
  4  9  1  0  0  0  0
  5  6  1  0  0  0  0
  5 33  1  0  0  0  0
  5 34  1  0  0  0  0
  6  7  1  0  0  0  0
  6 35  1  0  0  0  0
  6 36  1  0  0  0  0
  7  8  1  0  0  0  0
  8  9  1  0  0  0  0
  8 37  1  0  0  0  0
  8 38  1  0  0  0  0
  9 39  1  0  0  0  0
  9 40  1  0  0  0  0
 10 11  1  0  0  0  0
 10 30  1  0  0  0  0
 11 12  1  0  0  0  0
 11 41  1  0  0  0  0
 11 42  1  0  0  0  0
 12 13  1  0  0  0  0
 12 43  1  0  0  0  0
 12 44  1  0  0  0  0
 13 14  1  0  0  0  0
 13 29  2  0  0  0  0
 14 15  2  0  0  0  0
 15 16  1  0  0  0  0
 15 28  1  0  0  0  0
 16 17  2  0  0  0  0
 16 26  1  0  0  0  0
 17 18  1  0  0  0  0
 17 45  1  0  0  0  0
 18 19  1  0  0  0  0
 18 24  2  0  0  0  0
 19 20  2  0  0  0  0
 19 46  1  0  0  0  0
 20 21  1  0  0  0  0
 20 22  1  0  0  0  0
 22 23  2  0  0  0  0
 22 47  1  0  0  0  0
 23 24  1  0  0  0  0
 23 48  1  0  0  0  0
 24 25  1  0  0  0  0
 25 26  1  0  0  0  0
 25 49  1  0  0  0  0
 26 27  2  0  0  0  0
 28 29  1  0  0  0  0
 28 50  1  0  0  0  0
 29 30  1  0  0  0  0
 30 51  1  0  0  0  0
 30 52  1  0  0  0  0
M  END
$$$$
