CHEMBL2018760
 OpenBabel04072215363D

 47 49  0  0  0  0  0  0  0  0999 V2000
    4.0782   -3.9503   -2.4133 C   0  0  0  0  0  0  0  0  0  0  0  0
    3.1459   -3.6681   -1.2467 C   0  0  0  0  0  0  0  0  0  0  0  0
    3.7116   -2.6181   -0.4441 O   0  0  0  0  0  0  0  0  0  0  0  0
    4.5933   -3.0665    0.4887 C   0  0  0  0  0  0  0  0  0  0  0  0
    4.7230   -4.2480    0.7779 O   0  0  0  0  0  0  0  0  0  0  0  0
    5.3123   -2.0140    0.9899 N   0  0  0  0  0  0  0  0  0  0  0  0
    6.4759   -2.1012    1.7854 C   0  0  0  0  0  0  0  0  0  0  0  0
    7.1290   -3.3257    2.0035 C   0  0  0  0  0  0  0  0  0  0  0  0
    8.3040   -3.4175    2.7572 C   0  0  0  0  0  0  0  0  0  0  0  0
    8.8725   -4.6836    3.0071 N   0  0  0  0  0  0  0  0  0  0  0  0
   10.2357   -4.9628    3.2746 C   0  0  0  0  0  0  0  0  0  0  0  0
   11.1652   -4.1693    2.7204 N   0  0  0  0  0  0  0  0  0  0  0  0
   12.4350   -4.4204    3.0426 C   0  0  0  0  0  0  0  0  0  0  0  0
   12.8607   -5.3601    3.9006 N   0  0  0  0  0  0  0  0  0  0  0  0
   11.9226   -6.1422    4.4570 C   0  0  0  0  0  0  0  0  0  0  0  0
   12.2770   -7.0641    5.4484 C   0  0  0  0  0  0  0  0  0  0  0  0
   11.3452   -7.8944    6.1159 C   0  0  0  0  0  0  0  0  0  0  0  0
   11.8611   -8.4736    7.2454 O   0  0  0  0  0  0  0  0  0  0  0  0
   11.8818   -9.8903    7.3249 C   0  0  0  0  0  0  0  0  0  0  0  0
   10.0044   -7.8415    5.7349 C   0  0  0  0  0  0  0  0  0  0  0  0
    8.8830   -8.4776    6.1621 O   0  0  0  0  0  0  0  0  0  0  0  0
    8.8775   -9.4426    7.1852 C   0  0  0  0  0  0  0  0  0  0  0  0
    9.6420   -6.8993    4.7469 C   0  0  0  0  0  0  0  0  0  0  0  0
   10.5747   -6.0221    4.1364 C   0  0  0  0  0  0  0  0  0  0  0  0
    8.8144   -2.2457    3.3244 C   0  0  0  0  0  0  0  0  0  0  0  0
    8.1877   -1.0140    3.1190 C   0  0  0  0  0  0  0  0  0  0  0  0
    7.0245   -0.9442    2.3498 C   0  0  0  0  0  0  0  0  0  0  0  0
    6.2779    0.6049    2.1355 Cl  0  0  0  0  0  0  0  0  0  0  0  0
    3.7068   -4.7777   -3.0231 H   0  0  0  0  0  0  0  0  0  0  0  0
    5.0868   -4.1981   -2.0639 H   0  0  0  0  0  0  0  0  0  0  0  0
    4.1747   -3.0599   -3.0431 H   0  0  0  0  0  0  0  0  0  0  0  0
    2.9632   -4.5778   -0.6618 H   0  0  0  0  0  0  0  0  0  0  0  0
    2.1725   -3.3272   -1.6101 H   0  0  0  0  0  0  0  0  0  0  0  0
    4.9802   -1.0912    0.7355 H   0  0  0  0  0  0  0  0  0  0  0  0
    6.7542   -4.2412    1.5609 H   0  0  0  0  0  0  0  0  0  0  0  0
    8.4419   -5.4452    2.4928 H   0  0  0  0  0  0  0  0  0  0  0  0
   13.1869   -3.7939    2.5772 H   0  0  0  0  0  0  0  0  0  0  0  0
   13.3242   -7.0902    5.7500 H   0  0  0  0  0  0  0  0  0  0  0  0
   12.8564  -10.2089    7.7099 H   0  0  0  0  0  0  0  0  0  0  0  0
   11.6946  -10.3962    6.3734 H   0  0  0  0  0  0  0  0  0  0  0  0
   11.1596  -10.2010    8.0843 H   0  0  0  0  0  0  0  0  0  0  0  0
    7.8310   -9.7145    7.3600 H   0  0  0  0  0  0  0  0  0  0  0  0
    9.2685   -9.0410    8.1218 H   0  0  0  0  0  0  0  0  0  0  0  0
    9.3753  -10.3594    6.8615 H   0  0  0  0  0  0  0  0  0  0  0  0
    8.5855   -6.8135    4.5000 H   0  0  0  0  0  0  0  0  0  0  0  0
    9.7038   -2.2848    3.9468 H   0  0  0  0  0  0  0  0  0  0  0  0
    8.6073   -0.1224    3.5765 H   0  0  0  0  0  0  0  0  0  0  0  0
  1  2  1  0  0  0  0
  1 29  1  0  0  0  0
  1 30  1  0  0  0  0
  1 31  1  0  0  0  0
  2  3  1  0  0  0  0
  2 32  1  0  0  0  0
  2 33  1  0  0  0  0
  3  4  1  0  0  0  0
  4  5  2  0  0  0  0
  4  6  1  0  0  0  0
  6  7  1  0  0  0  0
  6 34  1  0  0  0  0
  7  8  1  0  0  0  0
  7 27  2  0  0  0  0
  8  9  2  0  0  0  0
  8 35  1  0  0  0  0
  9 10  1  0  0  0  0
  9 25  1  0  0  0  0
 10 11  1  0  0  0  0
 10 36  1  0  0  0  0
 11 12  1  0  0  0  0
 11 24  2  0  0  0  0
 12 13  2  0  0  0  0
 13 14  1  0  0  0  0
 13 37  1  0  0  0  0
 14 15  2  0  0  0  0
 15 16  1  0  0  0  0
 15 24  1  0  0  0  0
 16 17  2  0  0  0  0
 16 38  1  0  0  0  0
 17 18  1  0  0  0  0
 17 20  1  0  0  0  0
 18 19  1  0  0  0  0
 19 39  1  0  0  0  0
 19 40  1  0  0  0  0
 19 41  1  0  0  0  0
 20 21  1  0  0  0  0
 20 23  2  0  0  0  0
 21 22  1  0  0  0  0
 22 42  1  0  0  0  0
 22 43  1  0  0  0  0
 22 44  1  0  0  0  0
 23 24  1  0  0  0  0
 23 45  1  0  0  0  0
 25 26  2  0  0  0  0
 25 46  1  0  0  0  0
 26 27  1  0  0  0  0
 26 47  1  0  0  0  0
 27 28  1  0  0  0  0
M  END
$$$$
