CHEMBL3985332
 OpenBabel04072215373D

 51 53  0  0  0  0  0  0  0  0999 V2000
    1.2001   -4.4453    2.4155 C   0  0  0  0  0  0  0  0  0  0  0  0
    2.0409   -3.5192    2.9905 O   0  0  0  0  0  0  0  0  0  0  0  0
    2.7646   -2.5570    2.3534 C   0  0  0  0  0  0  0  0  0  0  0  0
    2.6626   -2.2969    0.9958 C   0  0  0  0  0  0  0  0  0  0  0  0
    3.4862   -1.3380    0.4239 C   0  0  0  0  0  0  0  0  0  0  0  0
    4.4431   -0.6339    1.1844 C   0  0  0  0  0  0  0  0  0  0  0  0
    5.4587    0.4016    0.1744 Cl  0  0  0  0  0  0  0  0  0  0  0  0
    4.5737   -0.8573    2.6106 C   0  0  0  0  0  0  0  0  0  0  0  0
    5.6027   -0.1871    3.4560 N   0  0  0  0  0  0  0  0  0  0  0  0
    6.1112    1.1395    3.0491 C   0  0  0  0  0  0  0  0  0  0  0  0
    6.0858    2.1680    4.1914 C   0  0  0  0  0  0  0  0  0  0  0  0
    4.7647    2.4420    4.5743 O   0  0  0  0  0  0  0  0  0  0  0  0
    6.3195   -0.8450    4.5652 C   0  0  0  0  0  0  0  0  0  0  0  0
    7.7061   -0.5804    4.7965 C   0  0  0  0  0  0  0  0  0  0  0  0
    8.4372   -1.2267    5.8162 C   0  0  0  0  0  0  0  0  0  0  0  0
    7.8123   -2.1732    6.6284 C   0  0  0  0  0  0  0  0  0  0  0  0
    8.4894   -2.8504    7.5962 N   0  0  0  0  0  0  0  0  0  0  0  0
    7.8681   -3.7875    8.3694 C   0  0  0  0  0  0  0  0  0  0  0  0
    6.5041   -4.0611    8.1672 C   0  0  0  0  0  0  0  0  0  0  0  0
    5.7733   -5.0842    8.9420 C   0  0  0  0  0  0  0  0  0  0  0  0
    4.4619   -5.5018    8.7517 C   0  0  0  0  0  0  0  0  0  0  0  0
    4.1668   -6.4443    9.6710 N   0  0  0  0  0  0  0  0  0  0  0  0
    5.2477   -6.6274   10.4167 N   0  0  0  0  0  0  0  0  0  0  0  0
    5.3247   -7.5545   11.5359 C   0  0  0  0  0  0  0  0  0  0  0  0
    6.2408   -5.8252   10.0043 C   0  0  0  0  0  0  0  0  0  0  0  0
    5.8396   -3.3613    7.2174 N   0  0  0  0  0  0  0  0  0  0  0  0
    6.4581   -2.4317    6.4460 C   0  0  0  0  0  0  0  0  0  0  0  0
    5.7364   -1.7634    5.4735 C   0  0  0  0  0  0  0  0  0  0  0  0
    3.6718   -1.8347    3.1184 C   0  0  0  0  0  0  0  0  0  0  0  0
    1.6145    1.9942    1.8925 Cl  0  0  0  0  0  0  0  0  0  0  0  0
    0.8472   -5.1418    3.2063 H   0  0  0  0  0  0  0  0  0  0  0  0
    1.7483   -5.0408    1.6543 H   0  0  0  0  0  0  0  0  0  0  0  0
    0.3249   -3.9386    1.9643 H   0  0  0  0  0  0  0  0  0  0  0  0
    1.9584   -2.8407    0.3766 H   0  0  0  0  0  0  0  0  0  0  0  0
    3.3993   -1.1654   -0.6418 H   0  0  0  0  0  0  0  0  0  0  0  0
    5.4888    1.6136    2.2788 H   0  0  0  0  0  0  0  0  0  0  0  0
    7.1438    1.0487    2.6523 H   0  0  0  0  0  0  0  0  0  0  0  0
    6.5906    3.1049    3.8505 H   0  0  0  0  0  0  0  0  0  0  0  0
    6.6569    1.8326    5.0784 H   0  0  0  0  0  0  0  0  0  0  0  0
    4.4670    3.2174    4.0276 H   0  0  0  0  0  0  0  0  0  0  0  0
    8.2686    0.1154    4.1955 H   0  0  0  0  0  0  0  0  0  0  0  0
    9.4859   -1.0030    5.9548 H   0  0  0  0  0  0  0  0  0  0  0  0
    8.4380   -4.3166    9.1160 H   0  0  0  0  0  0  0  0  0  0  0  0
    3.7683   -5.1509    7.9988 H   0  0  0  0  0  0  0  0  0  0  0  0
    4.3619   -8.0923   11.6671 H   0  0  0  0  0  0  0  0  0  0  0  0
    5.5530   -6.9912   12.4662 H   0  0  0  0  0  0  0  0  0  0  0  0
    6.1331   -8.2944   11.3531 H   0  0  0  0  0  0  0  0  0  0  0  0
    7.2221   -5.7834   10.4521 H   0  0  0  0  0  0  0  0  0  0  0  0
    4.7307   -2.0202    5.5434 H   0  0  0  0  0  0  0  0  0  0  0  0
    3.5725   -2.1230    4.1029 H   0  0  0  0  0  0  0  0  0  0  0  0
    1.9966    0.8605    2.5695 H   0  0  0  0  0  0  0  0  0  0  0  0
  1  2  1  0  0  0  0
  1 31  1  0  0  0  0
  1 32  1  0  0  0  0
  1 33  1  0  0  0  0
  2  3  1  0  0  0  0
  3  4  1  0  0  0  0
  3 29  2  0  0  0  0
  4  5  2  0  0  0  0
  4 34  1  0  0  0  0
  5  6  1  0  0  0  0
  5 35  1  0  0  0  0
  6  7  1  0  0  0  0
  6  8  2  0  0  0  0
  8  9  1  0  0  0  0
  8 29  1  0  0  0  0
  9 10  1  0  0  0  0
  9 13  1  0  0  0  0
 10 11  1  0  0  0  0
 10 36  1  0  0  0  0
 10 37  1  0  0  0  0
 11 12  1  0  0  0  0
 11 38  1  0  0  0  0
 11 39  1  0  0  0  0
 12 40  1  0  0  0  0
 13 14  1  0  0  0  0
 13 28  2  0  0  0  0
 14 15  2  0  0  0  0
 14 41  1  0  0  0  0
 15 16  1  0  0  0  0
 15 42  1  0  0  0  0
 16 17  1  0  0  0  0
 16 27  2  0  0  0  0
 17 18  2  0  0  0  0
 18 19  1  0  0  0  0
 18 43  1  0  0  0  0
 19 20  1  0  0  0  0
 19 26  2  0  0  0  0
 20 21  1  0  0  0  0
 20 25  2  0  0  0  0
 21 22  2  0  0  0  0
 21 44  1  0  0  0  0
 22 23  1  0  0  0  0
 23 24  1  0  0  0  0
 23 25  1  0  0  0  0
 24 45  1  0  0  0  0
 24 46  1  0  0  0  0
 24 47  1  0  0  0  0
 25 48  1  0  0  0  0
 26 27  1  0  0  0  0
 27 28  1  0  0  0  0
 28 49  1  0  0  0  0
 29 50  1  0  0  0  0
 30 51  1  0  0  0  0
M  END
$$$$
