CHEMBL3288512
 OpenBabel04072215363D

 47 51  0  0  0  0  0  0  0  0999 V2000
   -3.4945    3.0111    1.5134 N   0  0  0  0  0  0  0  0  0  0  0  0
   -3.2539    1.6993    1.3578 C   0  0  0  0  0  0  0  0  0  0  0  0
   -4.1497    0.8157    1.7840 N   0  0  0  0  0  0  0  0  0  0  0  0
   -3.6241   -0.3607    1.4394 N   0  0  0  0  0  0  0  0  0  0  0  0
   -2.4177   -0.2760    0.8018 C   0  0  0  0  0  0  0  0  0  0  0  0
   -1.6086   -1.2957    0.2917 C   0  0  0  0  0  0  0  0  0  0  0  0
   -0.4088   -0.9175   -0.2938 C   0  0  0  0  0  0  0  0  0  0  0  0
   -0.0355    0.4238   -0.3430 C   0  0  0  0  0  0  0  0  0  0  0  0
   -0.8472    1.4698    0.1724 C   0  0  0  0  0  0  0  0  0  0  0  0
   -0.3756    2.8740    0.1007 C   0  0  0  0  0  0  0  0  0  0  0  0
    0.4056    3.3376   -0.9679 C   0  0  0  0  0  0  0  0  0  0  0  0
    0.8659    4.6619   -1.0315 C   0  0  0  0  0  0  0  0  0  0  0  0
    0.4686    5.6282   -0.0795 C   0  0  0  0  0  0  0  0  0  0  0  0
    0.7898    7.0152   -0.1106 C   0  0  0  0  0  0  0  0  0  0  0  0
    1.6553    7.6689   -1.1334 C   0  0  0  0  0  0  0  0  0  0  0  0
    2.4480    8.5174   -0.7354 O   0  0  0  0  0  0  0  0  0  0  0  0
    1.4317    7.3255   -2.4565 N   0  0  0  0  0  0  0  0  0  0  0  0
    2.1058    7.8585   -3.5798 C   0  0  0  0  0  0  0  0  0  0  0  0
    3.2319    8.6858   -3.4870 C   0  0  0  0  0  0  0  0  0  0  0  0
    3.7925    9.2690   -4.6278 C   0  0  0  0  0  0  0  0  0  0  0  0
    3.2422    9.0126   -5.8784 C   0  0  0  0  0  0  0  0  0  0  0  0
    2.1597    8.1479   -5.9772 C   0  0  0  0  0  0  0  0  0  0  0  0
    1.6354    7.8883   -7.1823 F   0  0  0  0  0  0  0  0  0  0  0  0
    1.5955    7.5606   -4.8463 C   0  0  0  0  0  0  0  0  0  0  0  0
    0.3221    7.8814    0.8994 C   0  0  0  0  0  0  0  0  0  0  0  0
   -0.4550    7.4005    1.9438 C   0  0  0  0  0  0  0  0  0  0  0  0
   -0.7544    6.0460    2.0013 C   0  0  0  0  0  0  0  0  0  0  0  0
   -0.3027    5.1595    1.0097 C   0  0  0  0  0  0  0  0  0  0  0  0
   -0.6350    3.8007    1.1155 C   0  0  0  0  0  0  0  0  0  0  0  0
   -2.0998    1.0847    0.7526 C   0  0  0  0  0  0  0  0  0  0  0  0
   -4.4265    3.2399    1.8428 H   0  0  0  0  0  0  0  0  0  0  0  0
   -3.1487    3.6666    0.8226 H   0  0  0  0  0  0  0  0  0  0  0  0
   -4.1436   -1.1991    1.6666 H   0  0  0  0  0  0  0  0  0  0  0  0
   -1.8980   -2.3397    0.3499 H   0  0  0  0  0  0  0  0  0  0  0  0
    0.2538   -1.6756   -0.7053 H   0  0  0  0  0  0  0  0  0  0  0  0
    0.9335    0.6530   -0.7836 H   0  0  0  0  0  0  0  0  0  0  0  0
    0.6889    2.6689   -1.7786 H   0  0  0  0  0  0  0  0  0  0  0  0
    1.5382    4.9100   -1.8461 H   0  0  0  0  0  0  0  0  0  0  0  0
    0.6309    6.7375   -2.6505 H   0  0  0  0  0  0  0  0  0  0  0  0
    3.6991    8.9078   -2.5321 H   0  0  0  0  0  0  0  0  0  0  0  0
    4.6487    9.9315   -4.5276 H   0  0  0  0  0  0  0  0  0  0  0  0
    3.6486    9.4786   -6.7694 H   0  0  0  0  0  0  0  0  0  0  0  0
    0.7443    6.9014   -4.9791 H   0  0  0  0  0  0  0  0  0  0  0  0
    0.5740    8.9409    0.8710 H   0  0  0  0  0  0  0  0  0  0  0  0
   -0.8156    8.0754    2.7158 H   0  0  0  0  0  0  0  0  0  0  0  0
   -1.3610    5.6815    2.8300 H   0  0  0  0  0  0  0  0  0  0  0  0
   -1.1308    3.4595    2.0239 H   0  0  0  0  0  0  0  0  0  0  0  0
  1  2  1  0  0  0  0
  1 31  1  0  0  0  0
  1 32  1  0  0  0  0
  2  3  2  0  0  0  0
  2 30  1  0  0  0  0
  3  4  1  0  0  0  0
  4  5  1  0  0  0  0
  4 33  1  0  0  0  0
  5  6  1  0  0  0  0
  5 30  2  0  0  0  0
  6  7  2  0  0  0  0
  6 34  1  0  0  0  0
  7  8  1  0  0  0  0
  7 35  1  0  0  0  0
  8  9  2  0  0  0  0
  8 36  1  0  0  0  0
  9 10  1  0  0  0  0
  9 30  1  0  0  0  0
 10 11  1  0  0  0  0
 10 29  2  0  0  0  0
 11 12  2  0  0  0  0
 11 37  1  0  0  0  0
 12 13  1  0  0  0  0
 12 38  1  0  0  0  0
 13 14  1  0  0  0  0
 13 28  2  0  0  0  0
 14 15  1  0  0  0  0
 14 25  2  0  0  0  0
 15 16  2  0  0  0  0
 15 17  1  0  0  0  0
 17 18  1  0  0  0  0
 17 39  1  0  0  0  0
 18 19  1  0  0  0  0
 18 24  2  0  0  0  0
 19 20  2  0  0  0  0
 19 40  1  0  0  0  0
 20 21  1  0  0  0  0
 20 41  1  0  0  0  0
 21 22  2  0  0  0  0
 21 42  1  0  0  0  0
 22 23  1  0  0  0  0
 22 24  1  0  0  0  0
 24 43  1  0  0  0  0
 25 26  1  0  0  0  0
 25 44  1  0  0  0  0
 26 27  2  0  0  0  0
 26 45  1  0  0  0  0
 27 28  1  0  0  0  0
 27 46  1  0  0  0  0
 28 29  1  0  0  0  0
 29 47  1  0  0  0  0
M  END
$$$$
