CHEMBL473354
 OpenBabel04072215383D

 43 47  0  0  0  0  0  0  0  0999 V2000
    1.2315   -0.1084    0.0259 C   0  0  0  0  0  0  0  0  0  0  0  0
    2.6958    0.0361   -0.2764 C   0  0  0  0  0  0  0  0  0  0  0  0
    3.3327    1.2880   -0.1536 C   0  0  0  0  0  0  0  0  0  0  0  0
    4.7368    1.4416   -0.3586 C   0  0  0  0  0  0  0  0  0  0  0  0
    5.4990    2.6324   -0.2032 C   0  0  0  0  0  0  0  0  0  0  0  0
    4.8548    3.8572    0.1695 N   0  0  0  0  0  0  0  0  0  0  0  0
    5.4720    5.1237    0.3864 C   0  0  0  0  0  0  0  0  0  0  0  0
    6.5982    5.5546   -0.3158 C   0  0  0  0  0  0  0  0  0  0  0  0
    7.2316    6.7688   -0.0051 C   0  0  0  0  0  0  0  0  0  0  0  0
    6.7537    7.6160    1.0089 C   0  0  0  0  0  0  0  0  0  0  0  0
    7.5443    8.7818    1.4805 C   0  0  0  0  0  0  0  0  0  0  0  0
    7.0860    9.8961    2.0218 N   0  0  0  0  0  0  0  0  0  0  0  0
    8.1485   10.7473    2.3596 C   0  0  0  0  0  0  0  0  0  0  0  0
    8.0627   12.0429    2.9246 C   0  0  0  0  0  0  0  0  0  0  0  0
    9.2317   12.7756    3.1910 C   0  0  0  0  0  0  0  0  0  0  0  0
   10.4830   12.2379    2.9125 C   0  0  0  0  0  0  0  0  0  0  0  0
   10.5964   10.9572    2.3707 C   0  0  0  0  0  0  0  0  0  0  0  0
    9.4185   10.2383    2.1018 C   0  0  0  0  0  0  0  0  0  0  0  0
    9.2708    8.6693    1.4406 S   0  0  0  0  0  0  0  0  0  0  0  0
    5.5344    7.2662    1.6000 C   0  0  0  0  0  0  0  0  0  0  0  0
    4.9014    6.0415    1.2861 C   0  0  0  0  0  0  0  0  0  0  0  0
    6.8303    2.6351   -0.4019 N   0  0  0  0  0  0  0  0  0  0  0  0
    7.4096    1.4854   -0.7506 C   0  0  0  0  0  0  0  0  0  0  0  0
    6.7916    0.3178   -0.9273 N   0  0  0  0  0  0  0  0  0  0  0  0
    5.4767    0.3040   -0.7255 C   0  0  0  0  0  0  0  0  0  0  0  0
    4.8379   -0.9167   -0.8784 C   0  0  0  0  0  0  0  0  0  0  0  0
    3.4722   -1.0630   -0.6492 C   0  0  0  0  0  0  0  0  0  0  0  0
    2.7865   -2.6393   -0.8372 Cl  0  0  0  0  0  0  0  0  0  0  0  0
    0.7720    0.8536    0.2717 H   0  0  0  0  0  0  0  0  0  0  0  0
    1.0927   -0.7706    0.8879 H   0  0  0  0  0  0  0  0  0  0  0  0
    0.6963   -0.5210   -0.8355 H   0  0  0  0  0  0  0  0  0  0  0  0
    2.7329    2.1559    0.1129 H   0  0  0  0  0  0  0  0  0  0  0  0
    4.2044    3.6593    0.9220 H   0  0  0  0  0  0  0  0  0  0  0  0
    7.0363    4.9387   -1.0963 H   0  0  0  0  0  0  0  0  0  0  0  0
    8.1336    7.0187   -0.5601 H   0  0  0  0  0  0  0  0  0  0  0  0
    7.0916   12.4739    3.1478 H   0  0  0  0  0  0  0  0  0  0  0  0
    9.1633   13.7767    3.6158 H   0  0  0  0  0  0  0  0  0  0  0  0
   11.3855   12.8121    3.1158 H   0  0  0  0  0  0  0  0  0  0  0  0
   11.5707   10.5268    2.1569 H   0  0  0  0  0  0  0  0  0  0  0  0
    5.0846    7.9203    2.3454 H   0  0  0  0  0  0  0  0  0  0  0  0
    3.9725    5.7988    1.7964 H   0  0  0  0  0  0  0  0  0  0  0  0
    8.4832    1.4990   -0.9001 H   0  0  0  0  0  0  0  0  0  0  0  0
    5.4346   -1.7834   -1.1639 H   0  0  0  0  0  0  0  0  0  0  0  0
  1  2  1  0  0  0  0
  1 29  1  0  0  0  0
  1 30  1  0  0  0  0
  1 31  1  0  0  0  0
  2  3  1  0  0  0  0
  2 27  2  0  0  0  0
  3  4  2  0  0  0  0
  3 32  1  0  0  0  0
  4  5  1  0  0  0  0
  4 25  1  0  0  0  0
  5  6  1  0  0  0  0
  5 22  2  0  0  0  0
  6  7  1  0  0  0  0
  6 33  1  0  0  0  0
  7  8  1  0  0  0  0
  7 21  2  0  0  0  0
  8  9  2  0  0  0  0
  8 34  1  0  0  0  0
  9 10  1  0  0  0  0
  9 35  1  0  0  0  0
 10 11  1  0  0  0  0
 10 20  2  0  0  0  0
 11 12  2  0  0  0  0
 11 19  1  0  0  0  0
 12 13  1  0  0  0  0
 13 14  1  0  0  0  0
 13 18  2  0  0  0  0
 14 15  2  0  0  0  0
 14 36  1  0  0  0  0
 15 16  1  0  0  0  0
 15 37  1  0  0  0  0
 16 17  2  0  0  0  0
 16 38  1  0  0  0  0
 17 18  1  0  0  0  0
 17 39  1  0  0  0  0
 18 19  1  0  0  0  0
 20 21  1  0  0  0  0
 20 40  1  0  0  0  0
 21 41  1  0  0  0  0
 22 23  1  0  0  0  0
 23 24  2  0  0  0  0
 23 42  1  0  0  0  0
 24 25  1  0  0  0  0
 25 26  2  0  0  0  0
 26 27  1  0  0  0  0
 26 43  1  0  0  0  0
 27 28  1  0  0  0  0
M  END
$$$$
