CHEMBL429138
 OpenBabel04072215383D

 66 71  0  0  0  0  0  0  0  0999 V2000
    3.1381    1.3721   -0.3196 C   0  0  0  0  0  0  0  0  0  0  0  0
    2.5222   -0.0039   -0.1323 C   0  0  0  0  0  0  0  0  0  0  0  0
    1.4321   -0.3924   -0.7372 N   0  0  0  0  0  0  0  0  0  0  0  0
    0.8957    0.6039   -1.5618 O   0  0  0  0  0  0  0  0  0  0  0  0
   -0.2499    0.0945   -2.2549 C   0  0  0  0  0  0  0  0  0  0  0  0
   -1.5033    0.3224   -1.4181 C   0  0  0  0  0  0  0  0  0  0  0  0
   -0.3510    0.8448   -3.5795 C   0  0  0  0  0  0  0  0  0  0  0  0
    3.1933   -0.9445    0.8433 C   0  0  0  0  0  0  0  0  0  0  0  0
    2.5644   -2.1666    1.1011 C   0  0  0  0  0  0  0  0  0  0  0  0
    3.0310   -3.0409    2.1019 C   0  0  0  0  0  0  0  0  0  0  0  0
    4.1671   -2.6637    2.8234 C   0  0  0  0  0  0  0  0  0  0  0  0
    4.8940   -1.4770    2.5143 C   0  0  0  0  0  0  0  0  0  0  0  0
    4.3896   -0.6155    1.5160 C   0  0  0  0  0  0  0  0  0  0  0  0
    6.0075   -1.5765    3.3444 C   0  0  0  0  0  0  0  0  0  0  0  0
    7.1261   -0.7319    3.5484 C   0  0  0  0  0  0  0  0  0  0  0  0
    8.1419   -1.2207    4.5103 C   0  0  0  0  0  0  0  0  0  0  0  0
    7.9543   -2.4137    5.2935 C   0  0  0  0  0  0  0  0  0  0  0  0
    6.5500   -2.5163    5.4603 C   0  0  0  0  0  0  0  0  0  0  0  0
    5.8258   -2.5053    4.3039 C   0  0  0  0  0  0  0  0  0  0  0  0
    4.7808   -3.2811    3.9106 N   0  0  0  0  0  0  0  0  0  0  0  0
    4.5778   -4.6054    4.5037 C   0  0  0  0  0  0  0  0  0  0  0  0
    3.3947   -4.7103    5.4444 C   0  0  0  0  0  0  0  0  0  0  0  0
    4.6573   -5.7295    3.4840 C   0  0  0  0  0  0  0  0  0  0  0  0
    6.1018   -1.7184    6.7029 C   0  0  0  0  0  0  0  0  0  0  0  0
    6.3679   -2.6741    7.8234 C   0  0  0  0  0  0  0  0  0  0  0  0
    7.8364   -2.9853    7.7886 C   0  0  0  0  0  0  0  0  0  0  0  0
    8.3188   -3.7789    8.7351 N   0  0  0  0  0  0  0  0  0  0  0  0
    8.8953   -4.7309    7.9938 N   0  0  0  0  0  0  0  0  0  0  0  0
    8.9078   -6.0410    8.6234 C   0  0  0  0  0  0  0  0  0  0  0  0
    9.0376   -4.3430    6.6506 C   0  0  0  0  0  0  0  0  0  0  0  0
    8.5956   -3.0027    6.5265 C   0  0  0  0  0  0  0  0  0  0  0  0
    9.0539   -0.0577    4.6617 C   0  0  0  0  0  0  0  0  0  0  0  0
   10.0162    0.0886    5.4337 O   0  0  0  0  0  0  0  0  0  0  0  0
    8.5350    0.9475    3.8711 N   0  0  0  0  0  0  0  0  0  0  0  0
    7.3431    0.6537    3.1277 C   0  0  0  0  0  0  0  0  0  0  0  0
    2.6201    1.9725   -1.0706 H   0  0  0  0  0  0  0  0  0  0  0  0
    4.1792    1.2716   -0.6465 H   0  0  0  0  0  0  0  0  0  0  0  0
    3.0979    1.9164    0.6286 H   0  0  0  0  0  0  0  0  0  0  0  0
   -0.1240   -0.9721   -2.4653 H   0  0  0  0  0  0  0  0  0  0  0  0
   -1.6139    1.3803   -1.1524 H   0  0  0  0  0  0  0  0  0  0  0  0
   -1.4476   -0.2353   -0.4780 H   0  0  0  0  0  0  0  0  0  0  0  0
   -2.4030    0.0030   -1.9559 H   0  0  0  0  0  0  0  0  0  0  0  0
   -0.4621    1.9234   -3.4142 H   0  0  0  0  0  0  0  0  0  0  0  0
   -1.2031    0.4944   -4.1723 H   0  0  0  0  0  0  0  0  0  0  0  0
    0.5622    0.7089   -4.1663 H   0  0  0  0  0  0  0  0  0  0  0  0
    1.6658   -2.4551    0.5582 H   0  0  0  0  0  0  0  0  0  0  0  0
    2.4930   -3.9593    2.3076 H   0  0  0  0  0  0  0  0  0  0  0  0
    4.9010    0.3170    1.3207 H   0  0  0  0  0  0  0  0  0  0  0  0
    5.4696   -4.7676    5.1407 H   0  0  0  0  0  0  0  0  0  0  0  0
    2.4524   -4.4936    4.9368 H   0  0  0  0  0  0  0  0  0  0  0  0
    3.4981   -4.0204    6.2887 H   0  0  0  0  0  0  0  0  0  0  0  0
    3.3409   -5.7230    5.8592 H   0  0  0  0  0  0  0  0  0  0  0  0
    3.7317   -5.8148    2.9089 H   0  0  0  0  0  0  0  0  0  0  0  0
    4.8246   -6.6821    3.9952 H   0  0  0  0  0  0  0  0  0  0  0  0
    5.4896   -5.5756    2.7866 H   0  0  0  0  0  0  0  0  0  0  0  0
    5.0709   -1.3785    6.6188 H   0  0  0  0  0  0  0  0  0  0  0  0
    6.7301   -0.8186    6.8286 H   0  0  0  0  0  0  0  0  0  0  0  0
    5.8263   -3.6135    7.6028 H   0  0  0  0  0  0  0  0  0  0  0  0
    6.0289   -2.3187    8.7936 H   0  0  0  0  0  0  0  0  0  0  0  0
    9.1794   -5.9079    9.6819 H   0  0  0  0  0  0  0  0  0  0  0  0
    9.6131   -6.7173    8.1421 H   0  0  0  0  0  0  0  0  0  0  0  0
    7.8869   -6.4479    8.5941 H   0  0  0  0  0  0  0  0  0  0  0  0
    9.2815   -5.0991    5.9215 H   0  0  0  0  0  0  0  0  0  0  0  0
    8.9189    1.8690    3.9930 H   0  0  0  0  0  0  0  0  0  0  0  0
    7.5063    0.7747    2.0489 H   0  0  0  0  0  0  0  0  0  0  0  0
    6.5270    1.2915    3.4782 H   0  0  0  0  0  0  0  0  0  0  0  0
  1  2  1  0  0  0  0
  1 36  1  0  0  0  0
  1 37  1  0  0  0  0
  1 38  1  0  0  0  0
  2  3  2  0  0  0  0
  2  8  1  0  0  0  0
  3  4  1  0  0  0  0
  4  5  1  0  0  0  0
  5  6  1  0  0  0  0
  5  7  1  0  0  0  0
  5 39  1  0  0  0  0
  6 40  1  0  0  0  0
  6 41  1  0  0  0  0
  6 42  1  0  0  0  0
  7 43  1  0  0  0  0
  7 44  1  0  0  0  0
  7 45  1  0  0  0  0
  8  9  1  0  0  0  0
  8 13  2  0  0  0  0
  9 10  2  0  0  0  0
  9 46  1  0  0  0  0
 10 11  1  0  0  0  0
 10 47  1  0  0  0  0
 11 12  2  0  0  0  0
 11 20  1  0  0  0  0
 12 13  1  0  0  0  0
 12 14  1  0  0  0  0
 13 48  1  0  0  0  0
 14 15  1  0  0  0  0
 14 19  2  0  0  0  0
 15 16  2  0  0  0  0
 15 35  1  0  0  0  0
 16 17  1  0  0  0  0
 16 32  1  0  0  0  0
 17 18  2  0  0  0  0
 17 31  1  0  0  0  0
 18 19  1  0  0  0  0
 18 24  1  0  0  0  0
 19 20  1  0  0  0  0
 20 21  1  0  0  0  0
 21 22  1  0  0  0  0
 21 23  1  0  0  0  0
 21 49  1  0  0  0  0
 22 50  1  0  0  0  0
 22 51  1  0  0  0  0
 22 52  1  0  0  0  0
 23 53  1  0  0  0  0
 23 54  1  0  0  0  0
 23 55  1  0  0  0  0
 24 25  1  0  0  0  0
 24 56  1  0  0  0  0
 24 57  1  0  0  0  0
 25 26  1  0  0  0  0
 25 58  1  0  0  0  0
 25 59  1  0  0  0  0
 26 27  2  0  0  0  0
 26 31  1  0  0  0  0
 27 28  1  0  0  0  0
 28 29  1  0  0  0  0
 28 30  1  0  0  0  0
 29 60  1  0  0  0  0
 29 61  1  0  0  0  0
 29 62  1  0  0  0  0
 30 31  2  0  0  0  0
 30 63  1  0  0  0  0
 32 33  2  0  0  0  0
 32 34  1  0  0  0  0
 34 35  1  0  0  0  0
 34 64  1  0  0  0  0
 35 65  1  0  0  0  0
 35 66  1  0  0  0  0
M  END
$$$$
