CHEMBL212986
 OpenBabel04072215363D

 69 74  0  0  0  0  0  0  0  0999 V2000
   -3.3859    4.3957    2.6439 C   0  0  0  0  0  0  0  0  0  0  0  0
   -2.4180    3.3589    2.9892 N   0  0  0  0  0  0  0  0  0  0  0  0
   -3.0915    2.1653    3.5270 C   0  0  0  0  0  0  0  0  0  0  0  0
   -2.0811    1.0389    3.8435 C   0  0  0  0  0  0  0  0  0  0  0  0
   -1.2746    0.6006    2.6833 N   0  0  0  0  0  0  0  0  0  0  0  0
   -2.0594   -0.0791    1.6387 C   0  0  0  0  0  0  0  0  0  0  0  0
   -2.7321   -1.3708    2.0672 C   0  0  0  0  0  0  0  0  0  0  0  0
   -2.0445   -2.6041    1.9439 C   0  0  0  0  0  0  0  0  0  0  0  0
   -2.6615   -3.8231    2.2523 C   0  0  0  0  0  0  0  0  0  0  0  0
   -3.9522   -3.7737    2.7151 C   0  0  0  0  0  0  0  0  0  0  0  0
   -4.6496   -2.5515    2.9026 C   0  0  0  0  0  0  0  0  0  0  0  0
   -4.0514   -1.3515    2.5584 C   0  0  0  0  0  0  0  0  0  0  0  0
   -6.0507   -2.7365    3.5160 C   0  0  0  0  0  0  0  0  0  0  0  0
   -6.0237   -4.2231    3.5978 C   0  0  0  0  0  0  0  0  0  0  0  0
   -6.7795   -5.3107    4.0556 C   0  0  0  0  0  0  0  0  0  0  0  0
   -8.1058   -5.2486    4.7410 C   0  0  0  0  0  0  0  0  0  0  0  0
   -8.7793   -6.3447    5.2372 C   0  0  0  0  0  0  0  0  0  0  0  0
  -10.0070   -5.9808    5.8653 C   0  0  0  0  0  0  0  0  0  0  0  0
  -10.2321   -4.6204    5.8120 C   0  0  0  0  0  0  0  0  0  0  0  0
  -11.3809   -3.8429    6.3457 C   0  0  0  0  0  0  0  0  0  0  0  0
  -12.4034   -3.7420    5.3265 N   0  0  0  0  0  0  0  0  0  0  0  0
  -13.5437   -3.0638    5.6732 C   0  0  0  0  0  0  0  0  0  0  0  0
  -13.6965   -2.6115    6.7997 O   0  0  0  0  0  0  0  0  0  0  0  0
  -14.4590   -3.0158    4.6401 N   0  0  0  0  0  0  0  0  0  0  0  0
  -15.7260   -2.4033    4.7524 C   0  0  0  0  0  0  0  0  0  0  0  0
  -15.9797   -1.3798    5.6712 C   0  0  0  0  0  0  0  0  0  0  0  0
  -17.2668   -0.8788    5.8462 C   0  0  0  0  0  0  0  0  0  0  0  0
  -18.3172   -1.3951    5.0947 C   0  0  0  0  0  0  0  0  0  0  0  0
  -18.0819   -2.3921    4.1353 C   0  0  0  0  0  0  0  0  0  0  0  0
  -19.2247   -2.9760    3.3451 C   0  0  0  0  0  0  0  0  0  0  0  0
  -20.4472   -2.5148    3.7323 F   0  0  0  0  0  0  0  0  0  0  0  0
  -19.1296   -2.7109    2.0136 F   0  0  0  0  0  0  0  0  0  0  0  0
  -19.2901   -4.3323    3.4528 F   0  0  0  0  0  0  0  0  0  0  0  0
  -16.7692   -2.8686    3.9468 C   0  0  0  0  0  0  0  0  0  0  0  0
   -8.9577   -3.8005    5.0256 S   0  0  0  0  0  0  0  0  0  0  0  0
   -6.1342   -6.4762    3.8275 N   0  0  0  0  0  0  0  0  0  0  0  0
   -4.9547   -6.1093    3.2631 N   0  0  0  0  0  0  0  0  0  0  0  0
   -4.8621   -4.7754    3.1364 C   0  0  0  0  0  0  0  0  0  0  0  0
   -0.6208    1.8115    2.1236 C   0  0  0  0  0  0  0  0  0  0  0  0
   -1.5771    3.0009    1.8318 C   0  0  0  0  0  0  0  0  0  0  0  0
   -3.9955    4.6586    3.5158 H   0  0  0  0  0  0  0  0  0  0  0  0
   -4.0597    4.0841    1.8375 H   0  0  0  0  0  0  0  0  0  0  0  0
   -2.8716    5.3108    2.3315 H   0  0  0  0  0  0  0  0  0  0  0  0
   -3.8503    1.8044    2.8222 H   0  0  0  0  0  0  0  0  0  0  0  0
   -3.6165    2.4258    4.4535 H   0  0  0  0  0  0  0  0  0  0  0  0
   -2.5931    0.1923    4.3119 H   0  0  0  0  0  0  0  0  0  0  0  0
   -1.3906    1.4025    4.6180 H   0  0  0  0  0  0  0  0  0  0  0  0
   -1.3817   -0.3369    0.8127 H   0  0  0  0  0  0  0  0  0  0  0  0
   -2.8177    0.5731    1.1901 H   0  0  0  0  0  0  0  0  0  0  0  0
   -1.0145   -2.6094    1.5916 H   0  0  0  0  0  0  0  0  0  0  0  0
   -2.1297   -4.7596    2.1371 H   0  0  0  0  0  0  0  0  0  0  0  0
   -4.5934   -0.4194    2.6747 H   0  0  0  0  0  0  0  0  0  0  0  0
   -6.8272   -2.3644    2.8429 H   0  0  0  0  0  0  0  0  0  0  0  0
   -6.1003   -2.2706    4.5040 H   0  0  0  0  0  0  0  0  0  0  0  0
   -8.4023   -7.3584    5.1646 H   0  0  0  0  0  0  0  0  0  0  0  0
  -10.6881   -6.6826    6.3326 H   0  0  0  0  0  0  0  0  0  0  0  0
  -11.0805   -2.8304    6.6446 H   0  0  0  0  0  0  0  0  0  0  0  0
  -11.8075   -4.3342    7.2272 H   0  0  0  0  0  0  0  0  0  0  0  0
  -12.0795   -3.6122    4.3762 H   0  0  0  0  0  0  0  0  0  0  0  0
  -14.3452   -3.7355    3.9386 H   0  0  0  0  0  0  0  0  0  0  0  0
  -15.1832   -0.9581    6.2790 H   0  0  0  0  0  0  0  0  0  0  0  0
  -17.4464   -0.1104    6.5931 H   0  0  0  0  0  0  0  0  0  0  0  0
  -19.3248   -1.0228    5.2712 H   0  0  0  0  0  0  0  0  0  0  0  0
  -16.5906   -3.6475    3.2077 H   0  0  0  0  0  0  0  0  0  0  0  0
   -4.2856   -6.8290    3.0138 H   0  0  0  0  0  0  0  0  0  0  0  0
   -0.0684    1.5545    1.2110 H   0  0  0  0  0  0  0  0  0  0  0  0
    0.1408    2.1468    2.8406 H   0  0  0  0  0  0  0  0  0  0  0  0
   -2.2032    2.7545    0.9646 H   0  0  0  0  0  0  0  0  0  0  0  0
   -0.9675    3.8676    1.5491 H   0  0  0  0  0  0  0  0  0  0  0  0
  1  2  1  0  0  0  0
  1 41  1  0  0  0  0
  1 42  1  0  0  0  0
  1 43  1  0  0  0  0
  2  3  1  0  0  0  0
  2 40  1  0  0  0  0
  3  4  1  0  0  0  0
  3 44  1  0  0  0  0
  3 45  1  0  0  0  0
  4  5  1  0  0  0  0
  4 46  1  0  0  0  0
  4 47  1  0  0  0  0
  5  6  1  0  0  0  0
  5 39  1  0  0  0  0
  6  7  1  0  0  0  0
  6 48  1  0  0  0  0
  6 49  1  0  0  0  0
  7  8  1  0  0  0  0
  7 12  2  0  0  0  0
  8  9  2  0  0  0  0
  8 50  1  0  0  0  0
  9 10  1  0  0  0  0
  9 51  1  0  0  0  0
 10 11  2  0  0  0  0
 10 38  1  0  0  0  0
 11 12  1  0  0  0  0
 11 13  1  0  0  0  0
 12 52  1  0  0  0  0
 13 14  1  0  0  0  0
 13 53  1  0  0  0  0
 13 54  1  0  0  0  0
 14 15  1  0  0  0  0
 14 38  2  0  0  0  0
 15 16  1  0  0  0  0
 15 36  2  0  0  0  0
 16 17  2  0  0  0  0
 16 35  1  0  0  0  0
 17 18  1  0  0  0  0
 17 55  1  0  0  0  0
 18 19  2  0  0  0  0
 18 56  1  0  0  0  0
 19 20  1  0  0  0  0
 19 35  1  0  0  0  0
 20 21  1  0  0  0  0
 20 57  1  0  0  0  0
 20 58  1  0  0  0  0
 21 22  1  0  0  0  0
 21 59  1  0  0  0  0
 22 23  2  0  0  0  0
 22 24  1  0  0  0  0
 24 25  1  0  0  0  0
 24 60  1  0  0  0  0
 25 26  1  0  0  0  0
 25 34  2  0  0  0  0
 26 27  2  0  0  0  0
 26 61  1  0  0  0  0
 27 28  1  0  0  0  0
 27 62  1  0  0  0  0
 28 29  2  0  0  0  0
 28 63  1  0  0  0  0
 29 30  1  0  0  0  0
 29 34  1  0  0  0  0
 30 31  1  0  0  0  0
 30 32  1  0  0  0  0
 30 33  1  0  0  0  0
 34 64  1  0  0  0  0
 36 37  1  0  0  0  0
 37 38  1  0  0  0  0
 37 65  1  0  0  0  0
 39 40  1  0  0  0  0
 39 66  1  0  0  0  0
 39 67  1  0  0  0  0
 40 68  1  0  0  0  0
 40 69  1  0  0  0  0
M  END
$$$$
