CHEMBL3912594
 OpenBabel04072215373D

 51 54  0  0  0  0  0  0  0  0999 V2000
    1.2239   -0.6298    0.1622 O   0  0  0  0  0  0  0  0  0  0  0  0
    2.3345   -0.1152    0.1039 C   0  0  0  0  0  0  0  0  0  0  0  0
    2.9162    0.6032    1.1405 N   0  0  0  0  0  0  0  0  0  0  0  0
    2.2947    0.8732    2.3861 C   0  0  0  0  0  0  0  0  0  0  0  0
    1.1564    0.1965    2.8285 C   0  0  0  0  0  0  0  0  0  0  0  0
    0.5033    0.5744    4.0013 C   0  0  0  0  0  0  0  0  0  0  0  0
    1.0180    1.5966    4.7958 C   0  0  0  0  0  0  0  0  0  0  0  0
    0.3915    2.0571    5.9349 O   0  0  0  0  0  0  0  0  0  0  0  0
   -0.2541    1.1317    6.7522 C   0  0  0  0  0  0  0  0  0  0  0  0
   -1.2675    1.6077    7.5591 C   0  0  0  0  0  0  0  0  0  0  0  0
   -1.8464    0.6815    8.4011 C   0  0  0  0  0  0  0  0  0  0  0  0
   -2.8303    1.1134    9.3090 N   0  0  0  0  0  0  0  0  0  0  0  0
   -3.4005    0.2983   10.2658 C   0  0  0  0  0  0  0  0  0  0  0  0
   -3.1755   -0.8902   10.4554 O   0  0  0  0  0  0  0  0  0  0  0  0
   -4.4048    0.9325   11.1721 C   0  0  0  0  0  0  0  0  0  0  0  0
   -5.6989    1.4427   10.5812 C   0  0  0  0  0  0  0  0  0  0  0  0
   -4.7572    2.3937   11.2641 C   0  0  0  0  0  0  0  0  0  0  0  0
   -1.4803   -0.6062    8.3920 N   0  0  0  0  0  0  0  0  0  0  0  0
   -0.4905   -0.9633    7.5745 C   0  0  0  0  0  0  0  0  0  0  0  0
    0.1735   -0.1426    6.7641 N   0  0  0  0  0  0  0  0  0  0  0  0
    2.1790    2.2564    4.3867 C   0  0  0  0  0  0  0  0  0  0  0  0
    2.8215    1.8892    3.1922 C   0  0  0  0  0  0  0  0  0  0  0  0
    3.1387   -0.1476   -1.0248 N   0  0  0  0  0  0  0  0  0  0  0  0
    2.7835   -0.6910   -2.2836 C   0  0  0  0  0  0  0  0  0  0  0  0
    1.5414   -1.2719   -2.5604 C   0  0  0  0  0  0  0  0  0  0  0  0
    1.2515   -1.7864   -3.8240 C   0  0  0  0  0  0  0  0  0  0  0  0
    2.1999   -1.7070   -4.8348 C   0  0  0  0  0  0  0  0  0  0  0  0
    1.8892   -2.2059   -6.0361 F   0  0  0  0  0  0  0  0  0  0  0  0
    3.4375   -1.1157   -4.6057 C   0  0  0  0  0  0  0  0  0  0  0  0
    4.4370   -0.9792   -5.7139 C   0  0  0  0  0  0  0  0  0  0  0  0
    4.0527   -1.4847   -6.9138 F   0  0  0  0  0  0  0  0  0  0  0  0
    4.7531    0.3272   -5.9481 F   0  0  0  0  0  0  0  0  0  0  0  0
    5.6200   -1.5889   -5.4151 F   0  0  0  0  0  0  0  0  0  0  0  0
    3.7282   -0.6202   -3.3166 C   0  0  0  0  0  0  0  0  0  0  0  0
    3.7396    1.1428    0.9259 H   0  0  0  0  0  0  0  0  0  0  0  0
    0.7312   -0.6388    2.2822 H   0  0  0  0  0  0  0  0  0  0  0  0
   -0.4042    0.0453    4.2756 H   0  0  0  0  0  0  0  0  0  0  0  0
   -1.5605    2.6469    7.5305 H   0  0  0  0  0  0  0  0  0  0  0  0
   -3.1056    2.0801    9.2758 H   0  0  0  0  0  0  0  0  0  0  0  0
   -4.4901    0.3857   12.1091 H   0  0  0  0  0  0  0  0  0  0  0  0
   -6.6138    1.1558   11.0872 H   0  0  0  0  0  0  0  0  0  0  0  0
   -5.7907    1.4931    9.5024 H   0  0  0  0  0  0  0  0  0  0  0  0
   -5.0525    2.7702   12.2392 H   0  0  0  0  0  0  0  0  0  0  0  0
   -4.2374    3.1295   10.6678 H   0  0  0  0  0  0  0  0  0  0  0  0
   -0.2066   -2.0089    7.5726 H   0  0  0  0  0  0  0  0  0  0  0  0
    2.5842    3.0634    4.9905 H   0  0  0  0  0  0  0  0  0  0  0  0
    3.7133    2.4329    2.8943 H   0  0  0  0  0  0  0  0  0  0  0  0
    4.0747    0.2141   -0.9298 H   0  0  0  0  0  0  0  0  0  0  0  0
    0.7553   -1.3474   -1.8152 H   0  0  0  0  0  0  0  0  0  0  0  0
    0.2865   -2.2413   -4.0215 H   0  0  0  0  0  0  0  0  0  0  0  0
    4.7002   -0.1622   -3.1410 H   0  0  0  0  0  0  0  0  0  0  0  0
  1  2  2  0  0  0  0
  2  3  1  0  0  0  0
  2 23  1  0  0  0  0
  3  4  1  0  0  0  0
  3 35  1  0  0  0  0
  4  5  1  0  0  0  0
  4 22  2  0  0  0  0
  5  6  2  0  0  0  0
  5 36  1  0  0  0  0
  6  7  1  0  0  0  0
  6 37  1  0  0  0  0
  7  8  1  0  0  0  0
  7 21  2  0  0  0  0
  8  9  1  0  0  0  0
  9 10  1  0  0  0  0
  9 20  2  0  0  0  0
 10 11  2  0  0  0  0
 10 38  1  0  0  0  0
 11 12  1  0  0  0  0
 11 18  1  0  0  0  0
 12 13  1  0  0  0  0
 12 39  1  0  0  0  0
 13 14  2  0  0  0  0
 13 15  1  0  0  0  0
 15 16  1  0  0  0  0
 15 17  1  0  0  0  0
 15 40  1  0  0  0  0
 16 17  1  0  0  0  0
 16 41  1  0  0  0  0
 16 42  1  0  0  0  0
 17 43  1  0  0  0  0
 17 44  1  0  0  0  0
 18 19  2  0  0  0  0
 19 20  1  0  0  0  0
 19 45  1  0  0  0  0
 21 22  1  0  0  0  0
 21 46  1  0  0  0  0
 22 47  1  0  0  0  0
 23 24  1  0  0  0  0
 23 48  1  0  0  0  0
 24 25  1  0  0  0  0
 24 34  2  0  0  0  0
 25 26  2  0  0  0  0
 25 49  1  0  0  0  0
 26 27  1  0  0  0  0
 26 50  1  0  0  0  0
 27 28  1  0  0  0  0
 27 29  2  0  0  0  0
 29 30  1  0  0  0  0
 29 34  1  0  0  0  0
 30 31  1  0  0  0  0
 30 32  1  0  0  0  0
 30 33  1  0  0  0  0
 34 51  1  0  0  0  0
M  END
$$$$
