CHEMBL608533
 OpenBabel04072215383D

 73 81  0  0  1  0  0  0  0  0999 V2000
    1.3741   -0.8785    1.8848 C   0  0  0  0  0  0  0  0  0  0  0  0
    1.2438    0.4466    1.4690 O   0  0  0  0  0  0  0  0  0  0  0  0
    1.7963    0.9801    0.2454 C   0  0  2  0  0  0  0  0  0  0  0  0
    2.3139    2.3883    0.8324 C   0  0  2  0  0  0  0  0  0  0  0  0
    3.6401    2.7496    1.4805 N   0  0  0  0  0  0  0  0  0  0  0  0
    3.6003    3.9753    2.2950 C   0  0  0  0  0  0  0  0  0  0  0  0
    4.9769    2.6565    0.9046 C   0  0  0  0  0  0  0  0  0  0  0  0
    5.8796    3.4361    1.2393 O   0  0  0  0  0  0  0  0  0  0  0  0
    5.4199    1.5704   -0.0065 C   0  0  0  0  0  0  0  0  0  0  0  0
    4.5625    0.9936   -0.9024 C   0  0  0  0  0  0  0  0  0  0  0  0
    4.7658   -0.3010   -1.3736 C   0  0  0  0  0  0  0  0  0  0  0  0
    5.9910   -0.9059   -1.1654 C   0  0  0  0  0  0  0  0  0  0  0  0
    7.0099   -0.1662   -0.5722 C   0  0  0  0  0  0  0  0  0  0  0  0
    6.7221    1.0690    0.0236 C   0  0  0  0  0  0  0  0  0  0  0  0
    0.9200    2.7328    1.7012 C   0  0  0  0  0  0  0  0  0  0  0  0
   -0.3893    2.1496    0.8938 C   0  0  1  0  0  0  0  0  0  0  0  0
    0.3316    2.7519   -0.2840 O   0  0  0  0  0  0  0  0  0  0  0  0
    0.7647    1.6894   -1.0396 C   0  0  1  0  0  0  0  0  0  0  0  0
    1.6461    1.6036   -2.3023 C   0  0  0  0  0  0  0  0  0  0  0  0
   -0.4815    1.8165   -1.7219 N   0  0  0  0  0  0  0  0  0  0  0  0
   -1.5656    2.8500   -1.7515 C   0  0  0  0  0  0  0  0  0  0  0  0
   -1.7665    4.0213   -0.9402 C   0  0  0  0  0  0  0  0  0  0  0  0
   -3.0578    4.3787   -0.5331 C   0  0  0  0  0  0  0  0  0  0  0  0
   -4.1603    3.8080   -1.1331 C   0  0  0  0  0  0  0  0  0  0  0  0
   -3.9940    2.8364   -2.1311 C   0  0  0  0  0  0  0  0  0  0  0  0
   -2.7064    2.2635   -2.4074 C   0  0  0  0  0  0  0  0  0  0  0  0
   -2.2855    0.9224   -2.9029 C   0  0  0  0  0  0  0  0  0  0  0  0
   -3.3886    0.0793   -3.0416 C   0  0  0  0  0  0  0  0  0  0  0  0
   -3.7833   -0.5743   -1.8762 C   0  0  0  0  0  0  0  0  0  0  0  0
   -2.8947   -0.3593   -0.7812 C   0  0  0  0  0  0  0  0  0  0  0  0
   -3.2787   -0.2715    0.5545 C   0  0  0  0  0  0  0  0  0  0  0  0
   -4.4878   -0.4088    1.2456 C   0  0  0  0  0  0  0  0  0  0  0  0
   -4.3941   -0.5835    2.6111 C   0  0  0  0  0  0  0  0  0  0  0  0
   -3.2326   -1.2035    3.0309 C   0  0  0  0  0  0  0  0  0  0  0  0
   -2.0080   -0.8501    2.4493 C   0  0  0  0  0  0  0  0  0  0  0  0
   -2.0647    0.0271    1.3520 C   0  0  0  0  0  0  0  0  0  0  0  0
   -1.0843    0.7393    0.5675 N   0  0  0  0  0  0  0  0  0  0  0  0
   -1.6408    0.2700   -0.6805 C   0  0  0  0  0  0  0  0  0  0  0  0
   -1.2565    0.7715   -1.9180 C   0  0  0  0  0  0  0  0  0  0  0  0
   -5.0688   -1.1867   -2.1368 C   0  0  0  0  0  0  0  0  0  0  0  0
   -5.8629   -1.8237   -1.4708 O   0  0  0  0  0  0  0  0  0  0  0  0
   -5.3053   -0.8512   -3.5005 N   0  0  0  0  0  0  0  0  0  0  0  0
   -4.2912   -0.0632   -4.1652 C   0  0  0  0  0  0  0  0  0  0  0  0
    2.3953   -1.1455    2.1514 H   0  0  0  0  0  0  0  0  0  0  0  0
    0.9325   -1.5412    1.1450 H   0  0  0  0  0  0  0  0  0  0  0  0
    0.7981   -0.9455    2.8167 H   0  0  0  0  0  0  0  0  0  0  0  0
    2.5045    0.2545   -0.1223 H   0  0  0  0  0  0  0  0  0  0  0  0
    2.4008    3.0798   -0.0243 H   0  0  0  0  0  0  0  0  0  0  0  0
    2.6120    4.2074    2.6840 H   0  0  0  0  0  0  0  0  0  0  0  0
    4.2764    3.8564    3.1476 H   0  0  0  0  0  0  0  0  0  0  0  0
    3.9364    4.8392    1.7022 H   0  0  0  0  0  0  0  0  0  0  0  0
    3.7116    1.5765   -1.1796 H   0  0  0  0  0  0  0  0  0  0  0  0
    3.9663   -0.8400   -1.8757 H   0  0  0  0  0  0  0  0  0  0  0  0
    6.1583   -1.9246   -1.5013 H   0  0  0  0  0  0  0  0  0  0  0  0
    8.0154   -0.5733   -0.5297 H   0  0  0  0  0  0  0  0  0  0  0  0
    7.5106    1.6202    0.5297 H   0  0  0  0  0  0  0  0  0  0  0  0
    0.8317    3.8355    1.6266 H   0  0  0  0  0  0  0  0  0  0  0  0
    0.9743    2.4887    2.7611 H   0  0  0  0  0  0  0  0  0  0  0  0
   -1.2523    2.7424    1.2019 H   0  0  0  0  0  0  0  0  0  0  0  0
    2.2142    2.5050   -2.5065 H   0  0  0  0  0  0  0  0  0  0  0  0
    1.0937    1.3333   -3.2199 H   0  0  0  0  0  0  0  0  0  0  0  0
    2.2834    0.7128   -2.2494 H   0  0  0  0  0  0  0  0  0  0  0  0
   -0.9548    4.4746   -0.3714 H   0  0  0  0  0  0  0  0  0  0  0  0
   -3.1918    5.0614    0.3083 H   0  0  0  0  0  0  0  0  0  0  0  0
   -5.1575    4.0730   -0.7844 H   0  0  0  0  0  0  0  0  0  0  0  0
   -4.8970    2.3693   -2.5145 H   0  0  0  0  0  0  0  0  0  0  0  0
   -5.4484   -0.3589    0.7463 H   0  0  0  0  0  0  0  0  0  0  0  0
   -4.6425    0.3498    3.1456 H   0  0  0  0  0  0  0  0  0  0  0  0
   -3.3249   -2.1395    3.5820 H   0  0  0  0  0  0  0  0  0  0  0  0
   -1.1430   -1.4698    2.6446 H   0  0  0  0  0  0  0  0  0  0  0  0
   -6.1651   -1.1385   -3.9411 H   0  0  0  0  0  0  0  0  0  0  0  0
   -4.7037    0.8834   -4.5241 H   0  0  0  0  0  0  0  0  0  0  0  0
   -3.8388   -0.6337   -4.9820 H   0  0  0  0  0  0  0  0  0  0  0  0
  1  2  1  0  0  0  0
  1 44  1  0  0  0  0
  1 45  1  0  0  0  0
  1 46  1  0  0  0  0
  2  3  1  0  0  0  0
  3  4  1  0  0  0  0
  3 18  1  0  0  0  0
  3 47  1  6  0  0  0
  4 15  1  0  0  0  0
  4  5  1  0  0  0  0
  4 48  1  6  0  0  0
  5  6  1  0  0  0  0
  5  7  1  0  0  0  0
  6 49  1  0  0  0  0
  6 50  1  0  0  0  0
  6 51  1  0  0  0  0
  7  8  2  0  0  0  0
  7  9  1  0  0  0  0
  9 10  1  0  0  0  0
  9 14  2  0  0  0  0
 10 11  2  0  0  0  0
 10 52  1  0  0  0  0
 11 12  1  0  0  0  0
 11 53  1  0  0  0  0
 12 13  2  0  0  0  0
 12 54  1  0  0  0  0
 13 14  1  0  0  0  0
 13 55  1  0  0  0  0
 14 56  1  0  0  0  0
 15 16  1  0  0  0  0
 15 57  1  0  0  0  0
 15 58  1  0  0  0  0
 16 17  1  0  0  0  0
 16 37  1  0  0  0  0
 16 59  1  1  0  0  0
 17 18  1  0  0  0  0
 18 19  1  6  0  0  0
 18 20  1  0  0  0  0
 19 60  1  0  0  0  0
 19 61  1  0  0  0  0
 19 62  1  0  0  0  0
 20 21  1  0  0  0  0
 20 39  1  0  0  0  0
 21 22  1  0  0  0  0
 21 26  2  0  0  0  0
 22 23  2  0  0  0  0
 22 63  1  0  0  0  0
 23 24  1  0  0  0  0
 23 64  1  0  0  0  0
 24 25  2  0  0  0  0
 24 65  1  0  0  0  0
 25 26  1  0  0  0  0
 25 66  1  0  0  0  0
 26 27  1  0  0  0  0
 27 28  1  0  0  0  0
 27 39  2  0  0  0  0
 28 29  2  0  0  0  0
 28 43  1  0  0  0  0
 29 30  1  0  0  0  0
 29 40  1  0  0  0  0
 30 31  1  0  0  0  0
 30 38  2  0  0  0  0
 31 32  1  0  0  0  0
 31 36  2  0  0  0  0
 32 33  2  0  0  0  0
 32 67  1  0  0  0  0
 33 34  1  0  0  0  0
 33 68  1  0  0  0  0
 34 35  2  0  0  0  0
 34 69  1  0  0  0  0
 35 36  1  0  0  0  0
 35 70  1  0  0  0  0
 36 37  1  0  0  0  0
 37 38  1  0  0  0  0
 38 39  1  0  0  0  0
 40 41  2  0  0  0  0
 40 42  1  0  0  0  0
 42 43  1  0  0  0  0
 42 71  1  0  0  0  0
 43 72  1  0  0  0  0
 43 73  1  0  0  0  0
M  END
$$$$
