CHEMBL1086736
 OpenBabel04072215363D

 35 37  0  0  0  0  0  0  0  0999 V2000
    0.7409    0.4772   -1.4478 C   0  0  0  0  0  0  0  0  0  0  0  0
    2.0496    0.0759   -1.0539 O   0  0  0  0  0  0  0  0  0  0  0  0
    3.0012    1.0623   -1.0103 C   0  0  0  0  0  0  0  0  0  0  0  0
    2.6982    2.3946   -0.7142 C   0  0  0  0  0  0  0  0  0  0  0  0
    3.7335    3.3104   -0.6265 C   0  0  0  0  0  0  0  0  0  0  0  0
    5.0281    2.9910   -0.8059 N   0  0  0  0  0  0  0  0  0  0  0  0
    5.3043    1.6940   -1.0837 C   0  0  0  0  0  0  0  0  0  0  0  0
    4.3421    0.6953   -1.1961 C   0  0  0  0  0  0  0  0  0  0  0  0
    4.7428   -0.6609   -1.5953 C   0  0  0  0  0  0  0  0  0  0  0  0
    4.0164   -1.5004   -2.2916 N   0  0  0  0  0  0  0  0  0  0  0  0
    4.7891   -2.6212   -2.5635 N   0  0  0  0  0  0  0  0  0  0  0  0
    6.0812   -2.5649   -2.1055 C   0  0  0  0  0  0  0  0  0  0  0  0
    7.0179   -3.3211   -2.2406 O   0  0  0  0  0  0  0  0  0  0  0  0
    6.0871   -1.2672   -1.3541 C   0  0  0  0  0  0  0  0  0  0  0  0
    7.0064   -0.7620   -0.5946 N   0  0  0  0  0  0  0  0  0  0  0  0
    8.1931   -1.4221   -0.5561 N   0  0  0  0  0  0  0  0  0  0  0  0
    8.9724   -1.3862    0.6175 C   0  0  0  0  0  0  0  0  0  0  0  0
    8.5907   -0.6774    1.7630 C   0  0  0  0  0  0  0  0  0  0  0  0
    9.4127   -0.6442    2.8939 C   0  0  0  0  0  0  0  0  0  0  0  0
   10.6474   -1.2889    2.8793 C   0  0  0  0  0  0  0  0  0  0  0  0
   11.0622   -1.9613    1.7330 C   0  0  0  0  0  0  0  0  0  0  0  0
   10.2316   -2.0040    0.6102 C   0  0  0  0  0  0  0  0  0  0  0  0
    0.1476   -0.4285   -1.6026 H   0  0  0  0  0  0  0  0  0  0  0  0
    0.7630    1.0323   -2.3916 H   0  0  0  0  0  0  0  0  0  0  0  0
    0.2508    1.0584   -0.6613 H   0  0  0  0  0  0  0  0  0  0  0  0
    1.6882    2.7373   -0.5299 H   0  0  0  0  0  0  0  0  0  0  0  0
    3.5421    4.3550   -0.3970 H   0  0  0  0  0  0  0  0  0  0  0  0
    6.3629    1.5072   -1.2422 H   0  0  0  0  0  0  0  0  0  0  0  0
    4.4153   -3.3741   -3.1292 H   0  0  0  0  0  0  0  0  0  0  0  0
    8.3486   -2.2611   -1.1275 H   0  0  0  0  0  0  0  0  0  0  0  0
    7.6360   -0.1592    1.7901 H   0  0  0  0  0  0  0  0  0  0  0  0
    9.0874   -0.1103    3.7827 H   0  0  0  0  0  0  0  0  0  0  0  0
   11.2890   -1.2584    3.7556 H   0  0  0  0  0  0  0  0  0  0  0  0
   12.0331   -2.4485    1.7074 H   0  0  0  0  0  0  0  0  0  0  0  0
   10.5790   -2.5197   -0.2814 H   0  0  0  0  0  0  0  0  0  0  0  0
  1  2  1  0  0  0  0
  1 23  1  0  0  0  0
  1 24  1  0  0  0  0
  1 25  1  0  0  0  0
  2  3  1  0  0  0  0
  3  4  1  0  0  0  0
  3  8  2  0  0  0  0
  4  5  2  0  0  0  0
  4 26  1  0  0  0  0
  5  6  1  0  0  0  0
  5 27  1  0  0  0  0
  6  7  2  0  0  0  0
  7  8  1  0  0  0  0
  7 28  1  0  0  0  0
  8  9  1  0  0  0  0
  9 10  2  0  0  0  0
  9 14  1  0  0  0  0
 10 11  1  0  0  0  0
 11 12  1  0  0  0  0
 11 29  1  0  0  0  0
 12 13  2  0  0  0  0
 12 14  1  0  0  0  0
 14 15  2  0  0  0  0
 15 16  1  0  0  0  0
 16 17  1  0  0  0  0
 16 30  1  0  0  0  0
 17 18  1  0  0  0  0
 17 22  2  0  0  0  0
 18 19  2  0  0  0  0
 18 31  1  0  0  0  0
 19 20  1  0  0  0  0
 19 32  1  0  0  0  0
 20 21  2  0  0  0  0
 20 33  1  0  0  0  0
 21 22  1  0  0  0  0
 21 34  1  0  0  0  0
 22 35  1  0  0  0  0
M  END
$$$$
