CHEMBL2018770
 OpenBabel04072215363D

 64 66  0  0  0  0  0  0  0  0999 V2000
    0.7356    0.5517    3.0745 C   0  0  0  0  0  0  0  0  0  0  0  0
    2.2577    0.4797    3.1004 C   0  0  0  0  0  0  0  0  0  0  0  0
    2.8406   -0.6380    2.3492 N   0  0  0  0  0  0  0  0  0  0  0  0
    2.3765   -0.7576    0.9572 C   0  0  0  0  0  0  0  0  0  0  0  0
    2.8487    0.3322   -0.0006 C   0  0  0  0  0  0  0  0  0  0  0  0
    4.3123   -0.6133    2.5076 C   0  0  0  0  0  0  0  0  0  0  0  0
    4.9967   -1.8238    1.8786 C   0  0  0  0  0  0  0  0  0  0  0  0
    6.4082   -1.8028    2.0809 O   0  0  0  0  0  0  0  0  0  0  0  0
    6.9478   -2.8645    2.7570 C   0  0  0  0  0  0  0  0  0  0  0  0
    8.0124   -2.4861    3.5947 C   0  0  0  0  0  0  0  0  0  0  0  0
    8.6528   -3.3711    4.4563 C   0  0  0  0  0  0  0  0  0  0  0  0
    9.6198   -2.9201    5.2606 N   0  0  0  0  0  0  0  0  0  0  0  0
   10.1571   -3.8034    6.1087 C   0  0  0  0  0  0  0  0  0  0  0  0
    9.8340   -5.0932    6.2136 N   0  0  0  0  0  0  0  0  0  0  0  0
    8.8752   -5.5435    5.3868 C   0  0  0  0  0  0  0  0  0  0  0  0
    8.5156   -6.9079    5.4348 N   0  0  0  0  0  0  0  0  0  0  0  0
    8.5250   -7.7989    6.5192 C   0  0  0  0  0  0  0  0  0  0  0  0
    8.2845   -9.1499    6.2831 C   0  0  0  0  0  0  0  0  0  0  0  0
    8.1011  -10.0431    7.3404 C   0  0  0  0  0  0  0  0  0  0  0  0
    8.1071   -9.6168    8.6756 C   0  0  0  0  0  0  0  0  0  0  0  0
    7.8372  -10.5143    9.7328 N   0  0  0  0  0  0  0  0  0  0  0  0
    7.5295  -11.8510    9.6353 C   0  0  0  0  0  0  0  0  0  0  0  0
    7.5107  -12.5454    8.6277 O   0  0  0  0  0  0  0  0  0  0  0  0
    7.2045  -12.3317   10.8644 O   0  0  0  0  0  0  0  0  0  0  0  0
    6.8089  -13.7100   10.8403 C   0  0  0  0  0  0  0  0  0  0  0  0
    8.3403   -8.2533    8.9343 C   0  0  0  0  0  0  0  0  0  0  0  0
    8.3616   -7.6324   10.3053 C   0  0  0  0  0  0  0  0  0  0  0  0
    8.5728   -7.3766    7.8502 C   0  0  0  0  0  0  0  0  0  0  0  0
    8.2254   -4.7038    4.4640 C   0  0  0  0  0  0  0  0  0  0  0  0
    7.1686   -5.0958    3.6034 C   0  0  0  0  0  0  0  0  0  0  0  0
    6.5563   -4.2031    2.7163 C   0  0  0  0  0  0  0  0  0  0  0  0
    5.5629   -4.7759    1.9711 O   0  0  0  0  0  0  0  0  0  0  0  0
    5.5368   -4.4824    0.5766 C   0  0  0  0  0  0  0  0  0  0  0  0
    0.3902    1.2754    3.8192 H   0  0  0  0  0  0  0  0  0  0  0  0
    0.2832   -0.4168    3.3116 H   0  0  0  0  0  0  0  0  0  0  0  0
    0.3661    0.8841    2.0993 H   0  0  0  0  0  0  0  0  0  0  0  0
    2.5505    0.3682    4.1522 H   0  0  0  0  0  0  0  0  0  0  0  0
    2.6669    1.4367    2.7560 H   0  0  0  0  0  0  0  0  0  0  0  0
    1.2818   -0.8038    0.9319 H   0  0  0  0  0  0  0  0  0  0  0  0
    2.6737   -1.7307    0.5559 H   0  0  0  0  0  0  0  0  0  0  0  0
    2.6788    1.3318    0.4007 H   0  0  0  0  0  0  0  0  0  0  0  0
    2.3007    0.2540   -0.9462 H   0  0  0  0  0  0  0  0  0  0  0  0
    3.9141    0.2238   -0.2312 H   0  0  0  0  0  0  0  0  0  0  0  0
    4.5579   -0.6271    3.5782 H   0  0  0  0  0  0  0  0  0  0  0  0
    4.7476    0.3125    2.1117 H   0  0  0  0  0  0  0  0  0  0  0  0
    4.8598   -1.7911    0.7949 H   0  0  0  0  0  0  0  0  0  0  0  0
    4.5076   -2.7078    2.2927 H   0  0  0  0  0  0  0  0  0  0  0  0
    8.3339   -1.4441    3.6030 H   0  0  0  0  0  0  0  0  0  0  0  0
   10.9280   -3.4377    6.7813 H   0  0  0  0  0  0  0  0  0  0  0  0
    8.6402   -7.3520    4.5334 H   0  0  0  0  0  0  0  0  0  0  0  0
    8.2096   -9.5313    5.2685 H   0  0  0  0  0  0  0  0  0  0  0  0
    7.9166  -11.0763    7.0666 H   0  0  0  0  0  0  0  0  0  0  0  0
    7.8163  -10.1596   10.6765 H   0  0  0  0  0  0  0  0  0  0  0  0
    6.3915  -13.9729   11.8168 H   0  0  0  0  0  0  0  0  0  0  0  0
    7.6791  -14.3450   10.6484 H   0  0  0  0  0  0  0  0  0  0  0  0
    6.0316  -13.8823   10.0883 H   0  0  0  0  0  0  0  0  0  0  0  0
    7.6582   -8.1124   10.9888 H   0  0  0  0  0  0  0  0  0  0  0  0
    8.0515   -6.5800   10.2497 H   0  0  0  0  0  0  0  0  0  0  0  0
    9.3709   -7.6661   10.7256 H   0  0  0  0  0  0  0  0  0  0  0  0
    8.7522   -6.3251    8.0641 H   0  0  0  0  0  0  0  0  0  0  0  0
    6.7917   -6.1176    3.6392 H   0  0  0  0  0  0  0  0  0  0  0  0
    5.3549   -5.4160    0.0368 H   0  0  0  0  0  0  0  0  0  0  0  0
    6.4572   -4.0277    0.1996 H   0  0  0  0  0  0  0  0  0  0  0  0
    4.6740   -3.8487    0.3534 H   0  0  0  0  0  0  0  0  0  0  0  0
  1  2  1  0  0  0  0
  1 34  1  0  0  0  0
  1 35  1  0  0  0  0
  1 36  1  0  0  0  0
  2  3  1  0  0  0  0
  2 37  1  0  0  0  0
  2 38  1  0  0  0  0
  3  4  1  0  0  0  0
  3  6  1  0  0  0  0
  4  5  1  0  0  0  0
  4 39  1  0  0  0  0
  4 40  1  0  0  0  0
  5 41  1  0  0  0  0
  5 42  1  0  0  0  0
  5 43  1  0  0  0  0
  6  7  1  0  0  0  0
  6 44  1  0  0  0  0
  6 45  1  0  0  0  0
  7  8  1  0  0  0  0
  7 46  1  0  0  0  0
  7 47  1  0  0  0  0
  8  9  1  0  0  0  0
  9 10  1  0  0  0  0
  9 31  2  0  0  0  0
 10 11  2  0  0  0  0
 10 48  1  0  0  0  0
 11 12  1  0  0  0  0
 11 29  1  0  0  0  0
 12 13  2  0  0  0  0
 13 14  1  0  0  0  0
 13 49  1  0  0  0  0
 14 15  2  0  0  0  0
 15 16  1  0  0  0  0
 15 29  1  0  0  0  0
 16 17  1  0  0  0  0
 16 50  1  0  0  0  0
 17 18  1  0  0  0  0
 17 28  2  0  0  0  0
 18 19  2  0  0  0  0
 18 51  1  0  0  0  0
 19 20  1  0  0  0  0
 19 52  1  0  0  0  0
 20 21  1  0  0  0  0
 20 26  2  0  0  0  0
 21 22  1  0  0  0  0
 21 53  1  0  0  0  0
 22 23  2  0  0  0  0
 22 24  1  0  0  0  0
 24 25  1  0  0  0  0
 25 54  1  0  0  0  0
 25 55  1  0  0  0  0
 25 56  1  0  0  0  0
 26 27  1  0  0  0  0
 26 28  1  0  0  0  0
 27 57  1  0  0  0  0
 27 58  1  0  0  0  0
 27 59  1  0  0  0  0
 28 60  1  0  0  0  0
 29 30  2  0  0  0  0
 30 31  1  0  0  0  0
 30 61  1  0  0  0  0
 31 32  1  0  0  0  0
 32 33  1  0  0  0  0
 33 62  1  0  0  0  0
 33 63  1  0  0  0  0
 33 64  1  0  0  0  0
M  END
$$$$
