CHEMBL2032018
 OpenBabel04072215363D

 65 70  0  0  0  0  0  0  0  0999 V2000
    3.3977    1.1671    0.0164 C   0  0  0  0  0  0  0  0  0  0  0  0
    4.6452    0.9586   -0.6423 O   0  0  0  0  0  0  0  0  0  0  0  0
    4.8805   -0.3326   -1.0294 C   0  0  0  0  0  0  0  0  0  0  0  0
    3.8878   -1.2695   -1.2740 C   0  0  0  0  0  0  0  0  0  0  0  0
    4.2384   -2.5607   -1.6455 C   0  0  0  0  0  0  0  0  0  0  0  0
    5.5822   -2.9227   -1.8773 C   0  0  0  0  0  0  0  0  0  0  0  0
    5.9936   -4.1803   -2.3816 C   0  0  0  0  0  0  0  0  0  0  0  0
    5.1369   -5.2151   -2.7240 O   0  0  0  0  0  0  0  0  0  0  0  0
    4.0802   -4.9921   -3.5778 C   0  0  0  0  0  0  0  0  0  0  0  0
    3.0221   -5.9000   -3.5354 C   0  0  0  0  0  0  0  0  0  0  0  0
    1.8759   -5.6903   -4.3230 C   0  0  0  0  0  0  0  0  0  0  0  0
    1.8100   -4.5644   -5.1371 C   0  0  0  0  0  0  0  0  0  0  0  0
    0.6493   -4.3250   -5.9083 N   0  0  0  0  0  0  0  0  0  0  0  0
    0.4634   -3.1717   -6.6475 C   0  0  0  0  0  0  0  0  0  0  0  0
    1.2341   -2.2146   -6.6774 O   0  0  0  0  0  0  0  0  0  0  0  0
   -0.7372   -3.1168   -7.5085 C   0  0  0  0  0  0  0  0  0  0  0  0
   -1.2505   -2.0036   -8.0764 C   0  0  0  0  0  0  0  0  0  0  0  0
   -0.9227   -0.6574   -7.7116 C   0  0  0  0  0  0  0  0  0  0  0  0
    0.0378    0.1529   -8.3529 C   0  0  0  0  0  0  0  0  0  0  0  0
   -0.0630    1.3632   -7.7171 C   0  0  0  0  0  0  0  0  0  0  0  0
    0.6110    2.6643   -7.8652 C   0  0  0  0  0  0  0  0  0  0  0  0
   -1.0196    1.2908   -6.7533 O   0  0  0  0  0  0  0  0  0  0  0  0
   -1.5776    0.0213   -6.7524 N   0  0  0  0  0  0  0  0  0  0  0  0
   -2.2232   -2.2989   -9.0436 N   0  0  0  0  0  0  0  0  0  0  0  0
   -3.3286   -1.3996   -9.3804 C   0  0  0  0  0  0  0  0  0  0  0  0
   -2.5150   -3.6622   -8.8883 N   0  0  0  0  0  0  0  0  0  0  0  0
   -3.3483   -4.3634   -9.7760 C   0  0  0  0  0  0  0  0  0  0  0  0
   -4.3077   -5.2383   -9.2583 C   0  0  0  0  0  0  0  0  0  0  0  0
   -5.2033   -5.8874  -10.1116 C   0  0  0  0  0  0  0  0  0  0  0  0
   -5.1131   -5.7027  -11.4906 C   0  0  0  0  0  0  0  0  0  0  0  0
   -4.1463   -4.8466  -12.0163 C   0  0  0  0  0  0  0  0  0  0  0  0
   -3.2805   -4.1604  -11.1600 C   0  0  0  0  0  0  0  0  0  0  0  0
   -1.5935   -4.2258   -7.9955 C   0  0  0  0  0  0  0  0  0  0  0  0
   -1.4523   -5.3889   -7.6476 O   0  0  0  0  0  0  0  0  0  0  0  0
    2.8467   -3.7100   -5.2103 N   0  0  0  0  0  0  0  0  0  0  0  0
    3.9540   -3.9383   -4.4642 C   0  0  0  0  0  0  0  0  0  0  0  0
    7.3502   -4.4756   -2.4854 C   0  0  0  0  0  0  0  0  0  0  0  0
    8.2552   -3.4905   -2.1436 C   0  0  0  0  0  0  0  0  0  0  0  0
    7.9012   -2.2540   -1.7322 N   0  0  0  0  0  0  0  0  0  0  0  0
    6.5923   -1.9730   -1.6068 C   0  0  0  0  0  0  0  0  0  0  0  0
    6.2195   -0.6963   -1.1960 C   0  0  0  0  0  0  0  0  0  0  0  0
    3.3768    2.1946    0.3883 H   0  0  0  0  0  0  0  0  0  0  0  0
    3.2950    0.4940    0.8754 H   0  0  0  0  0  0  0  0  0  0  0  0
    2.5552    1.0515   -0.6737 H   0  0  0  0  0  0  0  0  0  0  0  0
    2.8321   -1.0298   -1.2093 H   0  0  0  0  0  0  0  0  0  0  0  0
    3.4309   -3.2732   -1.7843 H   0  0  0  0  0  0  0  0  0  0  0  0
    3.0762   -6.7617   -2.8745 H   0  0  0  0  0  0  0  0  0  0  0  0
    1.0537   -6.3953   -4.2655 H   0  0  0  0  0  0  0  0  0  0  0  0
   -0.0584   -5.0506   -5.9407 H   0  0  0  0  0  0  0  0  0  0  0  0
    0.7115   -0.1116   -9.1525 H   0  0  0  0  0  0  0  0  0  0  0  0
    1.4198    2.6004   -8.6049 H   0  0  0  0  0  0  0  0  0  0  0  0
    1.0436    2.9958   -6.9175 H   0  0  0  0  0  0  0  0  0  0  0  0
   -0.0991    3.4218   -8.2082 H   0  0  0  0  0  0  0  0  0  0  0  0
   -3.1177   -0.3569   -9.1224 H   0  0  0  0  0  0  0  0  0  0  0  0
   -4.2553   -1.6896   -8.8744 H   0  0  0  0  0  0  0  0  0  0  0  0
   -3.4981   -1.4134  -10.4622 H   0  0  0  0  0  0  0  0  0  0  0  0
   -4.4023   -5.3737   -8.1837 H   0  0  0  0  0  0  0  0  0  0  0  0
   -5.9747   -6.5327   -9.6988 H   0  0  0  0  0  0  0  0  0  0  0  0
   -5.7971   -6.2257  -12.1548 H   0  0  0  0  0  0  0  0  0  0  0  0
   -4.0666   -4.7165  -13.0931 H   0  0  0  0  0  0  0  0  0  0  0  0
   -2.5287   -3.5000  -11.5844 H   0  0  0  0  0  0  0  0  0  0  0  0
    4.7270   -3.1873   -4.5922 H   0  0  0  0  0  0  0  0  0  0  0  0
    7.6951   -5.4462   -2.8227 H   0  0  0  0  0  0  0  0  0  0  0  0
    9.3269   -3.6682   -2.1938 H   0  0  0  0  0  0  0  0  0  0  0  0
    6.9979    0.0381   -0.9977 H   0  0  0  0  0  0  0  0  0  0  0  0
  1  2  1  0  0  0  0
  1 42  1  0  0  0  0
  1 43  1  0  0  0  0
  1 44  1  0  0  0  0
  2  3  1  0  0  0  0
  3  4  1  0  0  0  0
  3 41  2  0  0  0  0
  4  5  2  0  0  0  0
  4 45  1  0  0  0  0
  5  6  1  0  0  0  0
  5 46  1  0  0  0  0
  6  7  1  0  0  0  0
  6 40  2  0  0  0  0
  7  8  1  0  0  0  0
  7 37  2  0  0  0  0
  8  9  1  0  0  0  0
  9 10  1  0  0  0  0
  9 36  2  0  0  0  0
 10 11  2  0  0  0  0
 10 47  1  0  0  0  0
 11 12  1  0  0  0  0
 11 48  1  0  0  0  0
 12 13  1  0  0  0  0
 12 35  2  0  0  0  0
 13 14  1  0  0  0  0
 13 49  1  0  0  0  0
 14 15  2  0  0  0  0
 14 16  1  0  0  0  0
 16 17  2  0  0  0  0
 16 33  1  0  0  0  0
 17 18  1  0  0  0  0
 17 24  1  0  0  0  0
 18 19  1  0  0  0  0
 18 23  2  0  0  0  0
 19 20  2  0  0  0  0
 19 50  1  0  0  0  0
 20 21  1  0  0  0  0
 20 22  1  0  0  0  0
 21 51  1  0  0  0  0
 21 52  1  0  0  0  0
 21 53  1  0  0  0  0
 22 23  1  0  0  0  0
 24 25  1  0  0  0  0
 24 26  1  0  0  0  0
 25 54  1  0  0  0  0
 25 55  1  0  0  0  0
 25 56  1  0  0  0  0
 26 27  1  0  0  0  0
 26 33  1  0  0  0  0
 27 28  1  0  0  0  0
 27 32  2  0  0  0  0
 28 29  2  0  0  0  0
 28 57  1  0  0  0  0
 29 30  1  0  0  0  0
 29 58  1  0  0  0  0
 30 31  2  0  0  0  0
 30 59  1  0  0  0  0
 31 32  1  0  0  0  0
 31 60  1  0  0  0  0
 32 61  1  0  0  0  0
 33 34  2  0  0  0  0
 35 36  1  0  0  0  0
 36 62  1  0  0  0  0
 37 38  1  0  0  0  0
 37 63  1  0  0  0  0
 38 39  2  0  0  0  0
 38 64  1  0  0  0  0
 39 40  1  0  0  0  0
 40 41  1  0  0  0  0
 41 65  1  0  0  0  0
M  END
$$$$
