CHEMBL3648101
 OpenBabel04072215373D

 40 41  0  0  1  0  0  0  0  0999 V2000
    2.4681    0.3200    0.9278 C   0  0  0  0  0  0  0  0  0  0  0  0
    3.2395    1.6297    1.0469 C   0  0  3  0  0  0  0  0  0  0  0  0
    4.3050    1.4567    1.9834 O   0  0  0  0  0  0  0  0  0  0  0  0
    3.7792    2.1748   -0.2855 C   0  0  0  0  0  0  0  0  0  0  0  0
    5.0220    1.0511   -1.0316 S   0  0  0  0  0  0  0  0  0  0  0  0
    5.3786    1.9233   -2.5551 C   0  0  0  0  0  0  0  0  0  0  0  0
    5.3711    3.2769   -2.4704 N   0  0  0  0  0  0  0  0  0  0  0  0
    5.5898    3.9673   -3.5970 C   0  0  0  0  0  0  0  0  0  0  0  0
    5.5776    5.3582   -3.5226 N   0  0  0  0  0  0  0  0  0  0  0  0
    5.3127    6.2639   -4.5564 C   0  0  0  0  0  0  0  0  0  0  0  0
    4.4224    5.9323   -5.5919 C   0  0  0  0  0  0  0  0  0  0  0  0
    4.2609    6.7539   -6.7051 C   0  0  0  0  0  0  0  0  0  0  0  0
    5.0090    7.9237   -6.8057 C   0  0  0  0  0  0  0  0  0  0  0  0
    4.9007    8.8799   -8.3103 S   0  0  3  0  0  0  0  0  0  0  0  0
    4.3230   10.4638   -7.7671 C   0  0  0  0  0  0  0  0  0  0  0  0
    6.3483    9.0323   -8.8182 N   0  0  0  0  0  0  0  0  0  0  0  0
    3.8165    8.3156   -9.0921 O   0  0  0  0  0  0  0  0  0  0  0  0
    5.8786    8.2971   -5.7735 C   0  0  0  0  0  0  0  0  0  0  0  0
    6.0204    7.4678   -4.6503 C   0  0  0  0  0  0  0  0  0  0  0  0
    5.8448    3.3816   -4.7772 N   0  0  0  0  0  0  0  0  0  0  0  0
    5.9011    2.0397   -4.8172 C   0  0  0  0  0  0  0  0  0  0  0  0
    5.6709    1.2434   -3.7258 C   0  0  0  0  0  0  0  0  0  0  0  0
    5.7588   -0.6317   -3.9227 Br  0  0  0  0  0  0  0  0  0  0  0  0
    2.0917    0.0166    1.9113 H   0  0  0  0  0  0  0  0  0  0  0  0
    3.1038   -0.5015    0.5822 H   0  0  0  0  0  0  0  0  0  0  0  0
    1.6179    0.4201    0.2467 H   0  0  0  0  0  0  0  0  0  0  0  0
    2.5674    2.3819    1.4754 H   0  0  0  0  0  0  0  0  0  0  0  0
    4.9697    0.8894    1.5491 H   0  0  0  0  0  0  0  0  0  0  0  0
    4.2683    3.1361   -0.0969 H   0  0  0  0  0  0  0  0  0  0  0  0
    2.9541    2.3307   -0.9893 H   0  0  0  0  0  0  0  0  0  0  0  0
    5.6734    5.7085   -2.5831 H   0  0  0  0  0  0  0  0  0  0  0  0
    3.8516    5.0076   -5.5446 H   0  0  0  0  0  0  0  0  0  0  0  0
    3.5803    6.4469   -7.4955 H   0  0  0  0  0  0  0  0  0  0  0  0
    5.0494   10.9152   -7.0912 H   0  0  0  0  0  0  0  0  0  0  0  0
    3.3592   10.3356   -7.2688 H   0  0  0  0  0  0  0  0  0  0  0  0
    4.1931   11.0941   -8.6507 H   0  0  0  0  0  0  0  0  0  0  0  0
    6.9498    9.5734   -8.2001 H   0  0  0  0  0  0  0  0  0  0  0  0
    6.4879    9.1932   -5.8461 H   0  0  0  0  0  0  0  0  0  0  0  0
    6.7449    7.7338   -3.8832 H   0  0  0  0  0  0  0  0  0  0  0  0
    6.1456    1.6274   -5.7918 H   0  0  0  0  0  0  0  0  0  0  0  0
  1  2  1  0  0  0  0
  1 24  1  0  0  0  0
  1 25  1  0  0  0  0
  1 26  1  0  0  0  0
  2  3  1  0  0  0  0
  2  4  1  0  0  0  0
  2 27  1  0  0  0  0
  3 28  1  0  0  0  0
  4  5  1  0  0  0  0
  4 29  1  0  0  0  0
  4 30  1  0  0  0  0
  5  6  1  0  0  0  0
  6  7  1  0  0  0  0
  6 22  2  0  0  0  0
  7  8  2  0  0  0  0
  8  9  1  0  0  0  0
  8 20  1  0  0  0  0
  9 10  1  0  0  0  0
  9 31  1  0  0  0  0
 10 11  1  0  0  0  0
 10 19  2  0  0  0  0
 11 12  2  0  0  0  0
 11 32  1  0  0  0  0
 12 13  1  0  0  0  0
 12 33  1  0  0  0  0
 13 14  1  0  0  0  0
 13 18  2  0  0  0  0
 14 15  1  0  0  0  0
 14 16  2  0  0  0  0
 14 17  2  0  0  0  0
 15 34  1  0  0  0  0
 15 35  1  0  0  0  0
 15 36  1  0  0  0  0
 16 37  1  0  0  0  0
 18 19  1  0  0  0  0
 18 38  1  0  0  0  0
 19 39  1  0  0  0  0
 20 21  2  0  0  0  0
 21 22  1  0  0  0  0
 21 40  1  0  0  0  0
 22 23  1  0  0  0  0
M  END
$$$$
