CHEMBL212128
 OpenBabel04072215363D

 51 54  0  0  0  0  0  0  0  0999 V2000
    2.0701   -0.4331   -0.1969 C   0  0  0  0  0  0  0  0  0  0  0  0
    2.7910   -1.1178    0.8532 N   0  0  0  0  0  0  0  0  0  0  0  0
    3.3588   -0.2620    1.7878 C   0  0  0  0  0  0  0  0  0  0  0  0
    4.5229   -0.6663    2.3071 N   0  0  0  0  0  0  0  0  0  0  0  0
    5.1115    0.1703    3.1825 C   0  0  0  0  0  0  0  0  0  0  0  0
    4.5870    1.3961    3.5551 C   0  0  0  0  0  0  0  0  0  0  0  0
    5.2202    2.2833    4.4569 C   0  0  0  0  0  0  0  0  0  0  0  0
    4.6107    3.4761    4.8653 C   0  0  0  0  0  0  0  0  0  0  0  0
    5.2108    4.4194    5.8585 C   0  0  0  0  0  0  0  0  0  0  0  0
    5.0266    5.8123    5.6495 C   0  0  0  0  0  0  0  0  0  0  0  0
    5.4397    6.7915    6.5601 C   0  0  0  0  0  0  0  0  0  0  0  0
    5.2639    8.1794    6.3502 N   0  0  0  0  0  0  0  0  0  0  0  0
    4.9202    8.7900    5.1515 C   0  0  0  0  0  0  0  0  0  0  0  0
    4.7392    8.2260    4.0779 O   0  0  0  0  0  0  0  0  0  0  0  0
    4.8260   10.2721    5.1633 C   0  0  0  0  0  0  0  0  0  0  0  0
    4.3329   10.9889    6.2585 C   0  0  0  0  0  0  0  0  0  0  0  0
    4.2161   12.3791    6.1823 C   0  0  0  0  0  0  0  0  0  0  0  0
    4.5953   13.0596    5.0209 C   0  0  0  0  0  0  0  0  0  0  0  0
    5.0949   12.3567    3.9143 C   0  0  0  0  0  0  0  0  0  0  0  0
    5.5140   13.0694    2.6529 C   0  0  0  0  0  0  0  0  0  0  0  0
    5.3548   14.4216    2.7132 F   0  0  0  0  0  0  0  0  0  0  0  0
    6.8258   12.8655    2.3546 F   0  0  0  0  0  0  0  0  0  0  0  0
    4.8125   12.6610    1.5603 F   0  0  0  0  0  0  0  0  0  0  0  0
    5.1997   10.9601    3.9963 C   0  0  0  0  0  0  0  0  0  0  0  0
    6.0528    6.3799    7.7370 C   0  0  0  0  0  0  0  0  0  0  0  0
    6.3106    5.0247    7.9540 C   0  0  0  0  0  0  0  0  0  0  0  0
    5.9117    4.0364    7.0291 C   0  0  0  0  0  0  0  0  0  0  0  0
    6.2837    2.6146    7.3641 C   0  0  0  0  0  0  0  0  0  0  0  0
    3.3655    3.7610    4.2696 C   0  0  0  0  0  0  0  0  0  0  0  0
    2.7724    2.9037    3.3300 C   0  0  0  0  0  0  0  0  0  0  0  0
    3.3628    1.7058    2.9726 C   0  0  0  0  0  0  0  0  0  0  0  0
    2.7580    0.8958    2.0953 N   0  0  0  0  0  0  0  0  0  0  0  0
    1.7499   -1.1614   -0.9492 H   0  0  0  0  0  0  0  0  0  0  0  0
    2.6973    0.3124   -0.6991 H   0  0  0  0  0  0  0  0  0  0  0  0
    1.1677    0.0543    0.1891 H   0  0  0  0  0  0  0  0  0  0  0  0
    3.5430   -1.7246    0.5446 H   0  0  0  0  0  0  0  0  0  0  0  0
    6.0469   -0.1939    3.5975 H   0  0  0  0  0  0  0  0  0  0  0  0
    6.2070    2.0166    4.8159 H   0  0  0  0  0  0  0  0  0  0  0  0
    4.5250    6.1242    4.7380 H   0  0  0  0  0  0  0  0  0  0  0  0
    5.5414    8.7838    7.1164 H   0  0  0  0  0  0  0  0  0  0  0  0
    3.9956   10.4804    7.1570 H   0  0  0  0  0  0  0  0  0  0  0  0
    3.8159   12.9389    7.0253 H   0  0  0  0  0  0  0  0  0  0  0  0
    4.4866   14.1422    4.9774 H   0  0  0  0  0  0  0  0  0  0  0  0
    5.5710   10.3987    3.1351 H   0  0  0  0  0  0  0  0  0  0  0  0
    6.3706    7.0964    8.4887 H   0  0  0  0  0  0  0  0  0  0  0  0
    6.8312    4.7377    8.8658 H   0  0  0  0  0  0  0  0  0  0  0  0
    6.7125    2.5346    8.3694 H   0  0  0  0  0  0  0  0  0  0  0  0
    7.0607    2.2560    6.6830 H   0  0  0  0  0  0  0  0  0  0  0  0
    5.4101    1.9575    7.3339 H   0  0  0  0  0  0  0  0  0  0  0  0
    2.8223    4.6705    4.5238 H   0  0  0  0  0  0  0  0  0  0  0  0
    1.8212    3.1798    2.8807 H   0  0  0  0  0  0  0  0  0  0  0  0
  1  2  1  0  0  0  0
  1 33  1  0  0  0  0
  1 34  1  0  0  0  0
  1 35  1  0  0  0  0
  2  3  1  0  0  0  0
  2 36  1  0  0  0  0
  3  4  1  0  0  0  0
  3 32  2  0  0  0  0
  4  5  2  0  0  0  0
  5  6  1  0  0  0  0
  5 37  1  0  0  0  0
  6  7  1  0  0  0  0
  6 31  2  0  0  0  0
  7  8  2  0  0  0  0
  7 38  1  0  0  0  0
  8  9  1  0  0  0  0
  8 29  1  0  0  0  0
  9 10  1  0  0  0  0
  9 27  2  0  0  0  0
 10 11  2  0  0  0  0
 10 39  1  0  0  0  0
 11 12  1  0  0  0  0
 11 25  1  0  0  0  0
 12 13  1  0  0  0  0
 12 40  1  0  0  0  0
 13 14  2  0  0  0  0
 13 15  1  0  0  0  0
 15 16  1  0  0  0  0
 15 24  2  0  0  0  0
 16 17  2  0  0  0  0
 16 41  1  0  0  0  0
 17 18  1  0  0  0  0
 17 42  1  0  0  0  0
 18 19  2  0  0  0  0
 18 43  1  0  0  0  0
 19 20  1  0  0  0  0
 19 24  1  0  0  0  0
 20 21  1  0  0  0  0
 20 22  1  0  0  0  0
 20 23  1  0  0  0  0
 24 44  1  0  0  0  0
 25 26  2  0  0  0  0
 25 45  1  0  0  0  0
 26 27  1  0  0  0  0
 26 46  1  0  0  0  0
 27 28  1  0  0  0  0
 28 47  1  0  0  0  0
 28 48  1  0  0  0  0
 28 49  1  0  0  0  0
 29 30  2  0  0  0  0
 29 50  1  0  0  0  0
 30 31  1  0  0  0  0
 30 51  1  0  0  0  0
 31 32  1  0  0  0  0
M  END
$$$$
