CHEMBL48834
 OpenBabel04072215383D

 44 47  0  0  0  0  0  0  0  0999 V2000
   -4.1577   -1.6774   -2.0545 C   0  0  0  0  0  0  0  0  0  0  0  0
   -3.2930   -2.8033   -1.5662 C   0  0  0  0  0  0  0  0  0  0  0  0
   -3.6936   -4.1333   -1.7256 C   0  0  0  0  0  0  0  0  0  0  0  0
   -2.8667   -5.1810   -1.3073 C   0  0  0  0  0  0  0  0  0  0  0  0
   -3.2683   -6.6160   -1.4583 C   0  0  0  0  0  0  0  0  0  0  0  0
   -1.6262   -4.8783   -0.7381 C   0  0  0  0  0  0  0  0  0  0  0  0
   -1.2094   -3.5575   -0.5480 C   0  0  0  0  0  0  0  0  0  0  0  0
    0.0520   -3.2567   -0.0158 N   0  0  0  0  0  0  0  0  0  0  0  0
    1.1929   -4.0490    0.0017 C   0  0  0  0  0  0  0  0  0  0  0  0
    1.4526   -4.8904   -1.0080 N   0  0  0  0  0  0  0  0  0  0  0  0
    2.6257   -5.5410   -0.9897 C   0  0  0  0  0  0  0  0  0  0  0  0
    3.5457   -5.4174    0.0211 C   0  0  0  0  0  0  0  0  0  0  0  0
    3.2001   -4.5416    1.0273 C   0  0  0  0  0  0  0  0  0  0  0  0
    4.1180   -4.2924    2.0931 N   0  0  0  0  0  0  0  0  0  0  0  0
    5.1118   -5.1558    2.5167 C   0  0  0  0  0  0  0  0  0  0  0  0
    5.6818   -4.5711    3.6167 C   0  0  0  0  0  0  0  0  0  0  0  0
    5.1040   -3.3630    3.8707 N   0  0  0  0  0  0  0  0  0  0  0  0
    4.1834   -3.1735    2.9334 C   0  0  0  0  0  0  0  0  0  0  0  0
    3.3952   -1.9345    2.8275 C   0  0  0  0  0  0  0  0  0  0  0  0
    2.9749   -1.2683    3.9814 C   0  0  0  0  0  0  0  0  0  0  0  0
    2.1789   -0.1267    3.8824 C   0  0  0  0  0  0  0  0  0  0  0  0
    1.8275    0.3247    2.6214 C   0  0  0  0  0  0  0  0  0  0  0  0
    2.2546   -0.2481    1.4799 N   0  0  0  0  0  0  0  0  0  0  0  0
    3.0504   -1.3395    1.6146 C   0  0  0  0  0  0  0  0  0  0  0  0
    2.0356   -3.8643    1.0235 N   0  0  0  0  0  0  0  0  0  0  0  0
   -2.0561   -2.5241   -0.9642 C   0  0  0  0  0  0  0  0  0  0  0  0
   -5.0814   -2.0504   -2.5090 H   0  0  0  0  0  0  0  0  0  0  0  0
   -3.6248   -1.0953   -2.8136 H   0  0  0  0  0  0  0  0  0  0  0  0
   -4.4322   -1.0218   -1.2226 H   0  0  0  0  0  0  0  0  0  0  0  0
   -4.6509   -4.3590   -2.1879 H   0  0  0  0  0  0  0  0  0  0  0  0
   -4.2570   -6.7131   -1.9182 H   0  0  0  0  0  0  0  0  0  0  0  0
   -3.3032   -7.0988   -0.4758 H   0  0  0  0  0  0  0  0  0  0  0  0
   -2.5461   -7.1441   -2.0898 H   0  0  0  0  0  0  0  0  0  0  0  0
   -0.9845   -5.6967   -0.4187 H   0  0  0  0  0  0  0  0  0  0  0  0
    0.0779   -2.5489    0.7074 H   0  0  0  0  0  0  0  0  0  0  0  0
    2.8189   -6.1614   -1.8593 H   0  0  0  0  0  0  0  0  0  0  0  0
    4.4926   -5.9338   -0.0404 H   0  0  0  0  0  0  0  0  0  0  0  0
    5.2842   -6.1211    2.0640 H   0  0  0  0  0  0  0  0  0  0  0  0
    6.4711   -4.9645    4.2461 H   0  0  0  0  0  0  0  0  0  0  0  0
    3.2630   -1.6411    4.9624 H   0  0  0  0  0  0  0  0  0  0  0  0
    1.8376    0.3937    4.7693 H   0  0  0  0  0  0  0  0  0  0  0  0
    1.1831    1.1891    2.4918 H   0  0  0  0  0  0  0  0  0  0  0  0
    3.3934   -1.7427    0.6661 H   0  0  0  0  0  0  0  0  0  0  0  0
   -1.7330   -1.4901   -0.8544 H   0  0  0  0  0  0  0  0  0  0  0  0
  1  2  1  0  0  0  0
  1 27  1  0  0  0  0
  1 28  1  0  0  0  0
  1 29  1  0  0  0  0
  2  3  1  0  0  0  0
  2 26  2  0  0  0  0
  3  4  2  0  0  0  0
  3 30  1  0  0  0  0
  4  5  1  0  0  0  0
  4  6  1  0  0  0  0
  5 31  1  0  0  0  0
  5 32  1  0  0  0  0
  5 33  1  0  0  0  0
  6  7  2  0  0  0  0
  6 34  1  0  0  0  0
  7  8  1  0  0  0  0
  7 26  1  0  0  0  0
  8  9  1  0  0  0  0
  8 35  1  0  0  0  0
  9 10  1  0  0  0  0
  9 25  2  0  0  0  0
 10 11  2  0  0  0  0
 11 12  1  0  0  0  0
 11 36  1  0  0  0  0
 12 13  2  0  0  0  0
 12 37  1  0  0  0  0
 13 14  1  0  0  0  0
 13 25  1  0  0  0  0
 14 15  1  0  0  0  0
 14 18  1  0  0  0  0
 15 16  2  0  0  0  0
 15 38  1  0  0  0  0
 16 17  1  0  0  0  0
 16 39  1  0  0  0  0
 17 18  2  0  0  0  0
 18 19  1  0  0  0  0
 19 20  1  0  0  0  0
 19 24  2  0  0  0  0
 20 21  2  0  0  0  0
 20 40  1  0  0  0  0
 21 22  1  0  0  0  0
 21 41  1  0  0  0  0
 22 23  2  0  0  0  0
 22 42  1  0  0  0  0
 23 24  1  0  0  0  0
 24 43  1  0  0  0  0
 26 44  1  0  0  0  0
M  END
$$$$
