CHEMBL1240554
 OpenBabel04072215363D

 49 52  0  0  0  0  0  0  0  0999 V2000
    0.6596   -1.9680    0.7339 C   0  0  0  0  0  0  0  0  0  0  0  0
    2.0884   -2.4736    0.6723 C   0  0  0  0  0  0  0  0  0  0  0  0
    2.9124   -1.4208    0.1758 O   0  0  0  0  0  0  0  0  0  0  0  0
    4.2505   -1.6755    0.0379 C   0  0  0  0  0  0  0  0  0  0  0  0
    4.8513   -2.8977    0.3628 C   0  0  0  0  0  0  0  0  0  0  0  0
    6.2176   -3.1138    0.1362 C   0  0  0  0  0  0  0  0  0  0  0  0
    7.0200   -2.1027   -0.3999 C   0  0  0  0  0  0  0  0  0  0  0  0
    8.4418   -2.3355   -0.6625 C   0  0  0  0  0  0  0  0  0  0  0  0
    9.1515   -3.1259    0.1660 N   0  0  0  0  0  0  0  0  0  0  0  0
   10.4125   -3.0720   -0.3142 N   0  0  0  0  0  0  0  0  0  0  0  0
   11.4897   -3.7488    0.3778 C   0  0  0  0  0  0  0  0  0  0  0  0
   11.2951   -5.2581    0.5294 C   0  0  0  0  0  0  0  0  0  0  0  0
   12.2006   -5.6598    1.6928 C   0  0  0  0  0  0  0  0  0  0  0  0
   12.5573   -4.3729    2.4357 C   0  0  0  0  0  0  0  0  0  0  0  0
   11.6974   -3.2786    1.8174 C   0  0  0  0  0  0  0  0  0  0  0  0
   10.5231   -2.3265   -1.4557 C   0  0  0  0  0  0  0  0  0  0  0  0
   11.6474   -2.1112   -2.1621 N   0  0  0  0  0  0  0  0  0  0  0  0
   11.4142   -1.3226   -3.2204 C   0  0  0  0  0  0  0  0  0  0  0  0
   10.2460   -0.7815   -3.6067 N   0  0  0  0  0  0  0  0  0  0  0  0
    9.1411   -1.0284   -2.8729 C   0  0  0  0  0  0  0  0  0  0  0  0
    7.9774   -0.4418   -3.3406 N   0  0  0  0  0  0  0  0  0  0  0  0
    9.2600   -1.8318   -1.7255 C   0  0  0  0  0  0  0  0  0  0  0  0
    6.4309   -0.8655   -0.6647 C   0  0  0  0  0  0  0  0  0  0  0  0
    5.0601   -0.6519   -0.4768 C   0  0  0  0  0  0  0  0  0  0  0  0
    4.6401    0.5712   -0.9308 O   0  0  0  0  0  0  0  0  0  0  0  0
    3.7017    1.2475   -0.1069 C   0  0  0  0  0  0  0  0  0  0  0  0
   -0.0124   -2.7513    1.0959 H   0  0  0  0  0  0  0  0  0  0  0  0
    0.3229   -1.6411   -0.2552 H   0  0  0  0  0  0  0  0  0  0  0  0
    0.5851   -1.1024    1.4002 H   0  0  0  0  0  0  0  0  0  0  0  0
    2.1320   -3.3367   -0.0016 H   0  0  0  0  0  0  0  0  0  0  0  0
    2.4054   -2.7635    1.6813 H   0  0  0  0  0  0  0  0  0  0  0  0
    4.2847   -3.7234    0.7808 H   0  0  0  0  0  0  0  0  0  0  0  0
    6.6493   -4.0841    0.3786 H   0  0  0  0  0  0  0  0  0  0  0  0
   12.4153   -3.5715   -0.1851 H   0  0  0  0  0  0  0  0  0  0  0  0
   11.5519   -5.7965   -0.3891 H   0  0  0  0  0  0  0  0  0  0  0  0
   10.2564   -5.5113    0.7731 H   0  0  0  0  0  0  0  0  0  0  0  0
   13.1109   -6.1496    1.3291 H   0  0  0  0  0  0  0  0  0  0  0  0
   11.6907   -6.3712    2.3512 H   0  0  0  0  0  0  0  0  0  0  0  0
   13.6198   -4.1456    2.2891 H   0  0  0  0  0  0  0  0  0  0  0  0
   12.3876   -4.4614    3.5135 H   0  0  0  0  0  0  0  0  0  0  0  0
   12.1854   -2.2995    1.8665 H   0  0  0  0  0  0  0  0  0  0  0  0
   10.7476   -3.2028    2.3603 H   0  0  0  0  0  0  0  0  0  0  0  0
   12.2726   -1.0925   -3.8438 H   0  0  0  0  0  0  0  0  0  0  0  0
    8.0914   -0.0751   -4.2781 H   0  0  0  0  0  0  0  0  0  0  0  0
    7.1101   -0.9265   -3.1536 H   0  0  0  0  0  0  0  0  0  0  0  0
    7.0318   -0.0328   -1.0234 H   0  0  0  0  0  0  0  0  0  0  0  0
    3.7809    2.3159   -0.3345 H   0  0  0  0  0  0  0  0  0  0  0  0
    3.9184    1.1167    0.9580 H   0  0  0  0  0  0  0  0  0  0  0  0
    2.6813    0.9410   -0.3504 H   0  0  0  0  0  0  0  0  0  0  0  0
  1  2  1  0  0  0  0
  1 27  1  0  0  0  0
  1 28  1  0  0  0  0
  1 29  1  0  0  0  0
  2  3  1  0  0  0  0
  2 30  1  0  0  0  0
  2 31  1  0  0  0  0
  3  4  1  0  0  0  0
  4  5  1  0  0  0  0
  4 24  2  0  0  0  0
  5  6  2  0  0  0  0
  5 32  1  0  0  0  0
  6  7  1  0  0  0  0
  6 33  1  0  0  0  0
  7  8  1  0  0  0  0
  7 23  2  0  0  0  0
  8  9  2  0  0  0  0
  8 22  1  0  0  0  0
  9 10  1  0  0  0  0
 10 11  1  0  0  0  0
 10 16  1  0  0  0  0
 11 12  1  0  0  0  0
 11 15  1  0  0  0  0
 11 34  1  0  0  0  0
 12 13  1  0  0  0  0
 12 35  1  0  0  0  0
 12 36  1  0  0  0  0
 13 14  1  0  0  0  0
 13 37  1  0  0  0  0
 13 38  1  0  0  0  0
 14 15  1  0  0  0  0
 14 39  1  0  0  0  0
 14 40  1  0  0  0  0
 15 41  1  0  0  0  0
 15 42  1  0  0  0  0
 16 17  1  0  0  0  0
 16 22  2  0  0  0  0
 17 18  2  0  0  0  0
 18 19  1  0  0  0  0
 18 43  1  0  0  0  0
 19 20  2  0  0  0  0
 20 21  1  0  0  0  0
 20 22  1  0  0  0  0
 21 44  1  0  0  0  0
 21 45  1  0  0  0  0
 23 24  1  0  0  0  0
 23 46  1  0  0  0  0
 24 25  1  0  0  0  0
 25 26  1  0  0  0  0
 26 47  1  0  0  0  0
 26 48  1  0  0  0  0
 26 49  1  0  0  0  0
M  END
$$$$
