CHEMBL2023229
 OpenBabel04072215363D

 52 56  0  0  0  0  0  0  0  0999 V2000
   -2.1439    0.9263    0.9049 C   0  0  0  0  0  0  0  0  0  0  0  0
   -0.7134    0.8119    1.0498 N   0  0  0  0  0  0  0  0  0  0  0  0
   -0.0308    0.1392    2.0223 C   0  0  0  0  0  0  0  0  0  0  0  0
    1.3075    0.2755    1.7240 C   0  0  0  0  0  0  0  0  0  0  0  0
    2.3858   -0.2975    2.5094 C   0  0  0  0  0  0  0  0  0  0  0  0
    2.2932   -0.4179    3.8853 C   0  0  0  0  0  0  0  0  0  0  0  0
    3.2597   -0.9102    4.6782 N   0  0  0  0  0  0  0  0  0  0  0  0
    4.4196   -1.3359    4.1430 C   0  0  0  0  0  0  0  0  0  0  0  0
    5.3226   -1.7780    5.0983 N   0  0  0  0  0  0  0  0  0  0  0  0
    4.6316   -1.3026    2.7282 C   0  0  0  0  0  0  0  0  0  0  0  0
    5.7702   -1.7227    1.8860 C   0  0  0  0  0  0  0  0  0  0  0  0
    7.0401   -2.3538    2.2663 C   0  0  0  0  0  0  0  0  0  0  0  0
    7.0705   -3.3021    3.2823 C   0  0  0  0  0  0  0  0  0  0  0  0
    8.2778   -3.8257    3.7359 C   0  0  0  0  0  0  0  0  0  0  0  0
    9.4800   -3.5358    3.0889 C   0  0  0  0  0  0  0  0  0  0  0  0
   10.7037   -4.1242    3.4831 N   0  0  0  0  0  0  0  0  0  0  0  0
   10.7827   -5.2752    4.2421 C   0  0  0  0  0  0  0  0  0  0  0  0
    9.8222   -5.9798    4.5399 O   0  0  0  0  0  0  0  0  0  0  0  0
   12.0762   -5.5377    4.6746 N   0  0  0  0  0  0  0  0  0  0  0  0
   12.2777   -6.6506    5.5272 C   0  0  0  0  0  0  0  0  0  0  0  0
   11.7227   -7.9004    5.2194 C   0  0  0  0  0  0  0  0  0  0  0  0
   11.7444   -8.9329    6.1551 C   0  0  0  0  0  0  0  0  0  0  0  0
   12.3285   -8.7142    7.3988 C   0  0  0  0  0  0  0  0  0  0  0  0
   12.2716   -9.9491    8.5948 Cl  0  0  0  0  0  0  0  0  0  0  0  0
   12.9353   -7.4910    7.6902 C   0  0  0  0  0  0  0  0  0  0  0  0
   12.9356   -6.4633    6.7422 C   0  0  0  0  0  0  0  0  0  0  0  0
    9.4606   -2.6409    2.0200 C   0  0  0  0  0  0  0  0  0  0  0  0
    8.2516   -2.0446    1.6213 C   0  0  0  0  0  0  0  0  0  0  0  0
    5.5130   -1.5175    0.5471 C   0  0  0  0  0  0  0  0  0  0  0  0
    3.9973   -0.8375    0.2571 S   0  0  0  0  0  0  0  0  0  0  0  0
    3.5904   -0.7779    1.9363 C   0  0  0  0  0  0  0  0  0  0  0  0
    1.3153    1.0903    0.5706 C   0  0  0  0  0  0  0  0  0  0  0  0
    0.0879    1.4132    0.1562 N   0  0  0  0  0  0  0  0  0  0  0  0
   -2.6335    0.5005    1.7840 H   0  0  0  0  0  0  0  0  0  0  0  0
   -2.4395    0.3786    0.0065 H   0  0  0  0  0  0  0  0  0  0  0  0
   -2.4000    1.9849    0.8111 H   0  0  0  0  0  0  0  0  0  0  0  0
   -0.5547   -0.3849    2.8114 H   0  0  0  0  0  0  0  0  0  0  0  0
    1.4139   -0.0841    4.4243 H   0  0  0  0  0  0  0  0  0  0  0  0
    4.9803   -1.5452    6.0241 H   0  0  0  0  0  0  0  0  0  0  0  0
    6.2874   -1.5384    4.9129 H   0  0  0  0  0  0  0  0  0  0  0  0
    6.1583   -3.6445    3.7654 H   0  0  0  0  0  0  0  0  0  0  0  0
    8.2312   -4.4686    4.6099 H   0  0  0  0  0  0  0  0  0  0  0  0
   11.5369   -3.8625    2.9740 H   0  0  0  0  0  0  0  0  0  0  0  0
   12.6037   -4.7041    4.8923 H   0  0  0  0  0  0  0  0  0  0  0  0
   11.2183   -8.0613    4.2678 H   0  0  0  0  0  0  0  0  0  0  0  0
   11.2673   -9.8800    5.9197 H   0  0  0  0  0  0  0  0  0  0  0  0
   13.3720   -7.3187    8.6700 H   0  0  0  0  0  0  0  0  0  0  0  0
   13.3659   -5.5017    7.0048 H   0  0  0  0  0  0  0  0  0  0  0  0
   10.3690   -2.4020    1.4738 H   0  0  0  0  0  0  0  0  0  0  0  0
    8.2757   -1.3435    0.7900 H   0  0  0  0  0  0  0  0  0  0  0  0
    6.1493   -1.7390   -0.2987 H   0  0  0  0  0  0  0  0  0  0  0  0
    2.1591    1.4692    0.0091 H   0  0  0  0  0  0  0  0  0  0  0  0
  1  2  1  0  0  0  0
  1 34  1  0  0  0  0
  1 35  1  0  0  0  0
  1 36  1  0  0  0  0
  2  3  1  0  0  0  0
  2 33  1  0  0  0  0
  3  4  2  0  0  0  0
  3 37  1  0  0  0  0
  4  5  1  0  0  0  0
  4 32  1  0  0  0  0
  5  6  1  0  0  0  0
  5 31  2  0  0  0  0
  6  7  2  0  0  0  0
  6 38  1  0  0  0  0
  7  8  1  0  0  0  0
  8  9  1  0  0  0  0
  8 10  2  0  0  0  0
  9 39  1  0  0  0  0
  9 40  1  0  0  0  0
 10 11  1  0  0  0  0
 10 31  1  0  0  0  0
 11 12  1  0  0  0  0
 11 29  2  0  0  0  0
 12 13  1  0  0  0  0
 12 28  2  0  0  0  0
 13 14  2  0  0  0  0
 13 41  1  0  0  0  0
 14 15  1  0  0  0  0
 14 42  1  0  0  0  0
 15 16  1  0  0  0  0
 15 27  2  0  0  0  0
 16 17  1  0  0  0  0
 16 43  1  0  0  0  0
 17 18  2  0  0  0  0
 17 19  1  0  0  0  0
 19 20  1  0  0  0  0
 19 44  1  0  0  0  0
 20 21  1  0  0  0  0
 20 26  2  0  0  0  0
 21 22  2  0  0  0  0
 21 45  1  0  0  0  0
 22 23  1  0  0  0  0
 22 46  1  0  0  0  0
 23 24  1  0  0  0  0
 23 25  2  0  0  0  0
 25 26  1  0  0  0  0
 25 47  1  0  0  0  0
 26 48  1  0  0  0  0
 27 28  1  0  0  0  0
 27 49  1  0  0  0  0
 28 50  1  0  0  0  0
 29 30  1  0  0  0  0
 29 51  1  0  0  0  0
 30 31  1  0  0  0  0
 32 33  2  0  0  0  0
 32 52  1  0  0  0  0
M  END
$$$$
