CHEMBL3706840
 OpenBabel04072215373D

 57 60  0  0  0  0  0  0  0  0999 V2000
    1.1254    0.9498    0.3742 C   0  0  0  0  0  0  0  0  0  0  0  0
    2.3756    0.4224   -0.0253 O   0  0  0  0  0  0  0  0  0  0  0  0
    2.8600    0.9718   -1.2555 C   0  0  0  0  0  0  0  0  0  0  0  0
    4.1715    0.2459   -1.5241 C   0  0  0  0  0  0  0  0  0  0  0  0
    4.8409    0.6749   -2.6907 O   0  0  0  0  0  0  0  0  0  0  0  0
    6.1975    0.4718   -2.7666 C   0  0  0  0  0  0  0  0  0  0  0  0
    6.7768    1.3936   -3.6730 C   0  0  0  0  0  0  0  0  0  0  0  0
    8.1444    1.4864   -3.9213 C   0  0  0  0  0  0  0  0  0  0  0  0
    8.6103    2.4385   -4.7412 N   0  0  0  0  0  0  0  0  0  0  0  0
    9.9354    2.4891   -4.9193 C   0  0  0  0  0  0  0  0  0  0  0  0
   10.8327    1.6573   -4.3852 N   0  0  0  0  0  0  0  0  0  0  0  0
   10.3546    0.6897   -3.5797 C   0  0  0  0  0  0  0  0  0  0  0  0
   11.2714   -0.2456   -3.0226 N   0  0  0  0  0  0  0  0  0  0  0  0
   12.6497   -0.0548   -3.0921 C   0  0  0  0  0  0  0  0  0  0  0  0
   13.2821    1.0740   -2.7549 C   0  0  0  0  0  0  0  0  0  0  0  0
   14.7315    1.2699   -2.9071 C   0  0  0  0  0  0  0  0  0  0  0  0
   15.2201    2.3498   -2.5937 O   0  0  0  0  0  0  0  0  0  0  0  0
   15.5322    0.1292   -3.4537 C   0  0  0  0  0  0  0  0  0  0  0  0
   16.8963    0.2099   -3.7044 O   0  0  0  0  0  0  0  0  0  0  0  0
   17.6364    1.2084   -2.9989 C   0  0  0  0  0  0  0  0  0  0  0  0
   19.0716    0.7696   -2.9951 C   0  0  0  0  0  0  0  0  0  0  0  0
   19.9664    1.1832   -3.9847 C   0  0  0  0  0  0  0  0  0  0  0  0
   19.5564    2.0250   -4.9443 F   0  0  0  0  0  0  0  0  0  0  0  0
   21.2849    0.7330   -3.9863 C   0  0  0  0  0  0  0  0  0  0  0  0
   22.1285    1.1445   -4.9439 F   0  0  0  0  0  0  0  0  0  0  0  0
   21.7221   -0.1393   -3.0019 C   0  0  0  0  0  0  0  0  0  0  0  0
   22.9938   -0.5696   -3.0064 F   0  0  0  0  0  0  0  0  0  0  0  0
   20.8477   -0.5681   -2.0167 C   0  0  0  0  0  0  0  0  0  0  0  0
   21.2630   -1.4174   -1.0666 F   0  0  0  0  0  0  0  0  0  0  0  0
   19.5313   -0.1187   -2.0188 C   0  0  0  0  0  0  0  0  0  0  0  0
   18.6891   -0.5436   -1.0659 F   0  0  0  0  0  0  0  0  0  0  0  0
   14.9135   -1.0194   -3.7455 C   0  0  0  0  0  0  0  0  0  0  0  0
   13.4583   -1.2154   -3.5571 C   0  0  0  0  0  0  0  0  0  0  0  0
   12.9367   -2.3009   -3.7870 O   0  0  0  0  0  0  0  0  0  0  0  0
    8.9844    0.5776   -3.2833 C   0  0  0  0  0  0  0  0  0  0  0  0
    8.4270   -0.3449   -2.3689 C   0  0  0  0  0  0  0  0  0  0  0  0
    7.0476   -0.4155   -2.0955 C   0  0  0  0  0  0  0  0  0  0  0  0
    6.8330   -1.3006   -1.0807 O   0  0  0  0  0  0  0  0  0  0  0  0
    5.7339   -2.1909   -1.0635 C   0  0  0  0  0  0  0  0  0  0  0  0
    0.8564    0.4811    1.3256 H   0  0  0  0  0  0  0  0  0  0  0  0
    0.3551    0.7083   -0.3626 H   0  0  0  0  0  0  0  0  0  0  0  0
    1.1953    2.0299    0.5238 H   0  0  0  0  0  0  0  0  0  0  0  0
    3.0130    2.0521   -1.1683 H   0  0  0  0  0  0  0  0  0  0  0  0
    2.1440    0.7831   -2.0648 H   0  0  0  0  0  0  0  0  0  0  0  0
    3.8749   -0.7923   -1.6713 H   0  0  0  0  0  0  0  0  0  0  0  0
    4.8064    0.3538   -0.6387 H   0  0  0  0  0  0  0  0  0  0  0  0
    6.1256    2.1079   -4.1776 H   0  0  0  0  0  0  0  0  0  0  0  0
   10.3199    3.2760   -5.5606 H   0  0  0  0  0  0  0  0  0  0  0  0
   11.0225   -1.1911   -3.3319 H   0  0  0  0  0  0  0  0  0  0  0  0
   12.7374    1.9341   -2.3812 H   0  0  0  0  0  0  0  0  0  0  0  0
   17.3027    1.2988   -1.9582 H   0  0  0  0  0  0  0  0  0  0  0  0
   17.5339    2.1797   -3.4975 H   0  0  0  0  0  0  0  0  0  0  0  0
   15.4517   -1.8712   -4.1386 H   0  0  0  0  0  0  0  0  0  0  0  0
    9.0917   -1.0077   -1.8155 H   0  0  0  0  0  0  0  0  0  0  0  0
    6.0860   -3.1815   -0.7607 H   0  0  0  0  0  0  0  0  0  0  0  0
    5.2301   -2.2958   -2.0273 H   0  0  0  0  0  0  0  0  0  0  0  0
    5.0522   -1.8695   -0.2687 H   0  0  0  0  0  0  0  0  0  0  0  0
  1  2  1  0  0  0  0
  1 40  1  0  0  0  0
  1 41  1  0  0  0  0
  1 42  1  0  0  0  0
  2  3  1  0  0  0  0
  3  4  1  0  0  0  0
  3 43  1  0  0  0  0
  3 44  1  0  0  0  0
  4  5  1  0  0  0  0
  4 45  1  0  0  0  0
  4 46  1  0  0  0  0
  5  6  1  0  0  0  0
  6  7  1  0  0  0  0
  6 37  2  0  0  0  0
  7  8  2  0  0  0  0
  7 47  1  0  0  0  0
  8  9  1  0  0  0  0
  8 35  1  0  0  0  0
  9 10  2  0  0  0  0
 10 11  1  0  0  0  0
 10 48  1  0  0  0  0
 11 12  2  0  0  0  0
 12 13  1  0  0  0  0
 12 35  1  0  0  0  0
 13 14  1  0  0  0  0
 13 49  1  0  0  0  0
 14 15  2  0  0  0  0
 14 33  1  0  0  0  0
 15 16  1  0  0  0  0
 15 50  1  0  0  0  0
 16 17  2  0  0  0  0
 16 18  1  0  0  0  0
 18 19  1  0  0  0  0
 18 32  2  0  0  0  0
 19 20  1  0  0  0  0
 20 21  1  0  0  0  0
 20 51  1  0  0  0  0
 20 52  1  0  0  0  0
 21 22  1  0  0  0  0
 21 30  2  0  0  0  0
 22 23  1  0  0  0  0
 22 24  2  0  0  0  0
 24 25  1  0  0  0  0
 24 26  1  0  0  0  0
 26 27  1  0  0  0  0
 26 28  2  0  0  0  0
 28 29  1  0  0  0  0
 28 30  1  0  0  0  0
 30 31  1  0  0  0  0
 32 33  1  0  0  0  0
 32 53  1  0  0  0  0
 33 34  2  0  0  0  0
 35 36  2  0  0  0  0
 36 37  1  0  0  0  0
 36 54  1  0  0  0  0
 37 38  1  0  0  0  0
 38 39  1  0  0  0  0
 39 55  1  0  0  0  0
 39 56  1  0  0  0  0
 39 57  1  0  0  0  0
M  END
$$$$
