CHEMBL1983025
 OpenBabel04072215363D

 64 67  0  0  0  0  0  0  0  0999 V2000
    0.8906    0.1723    0.0743 C   0  0  0  0  0  0  0  0  0  0  0  0
    2.4150    0.0393    0.0621 C   0  0  0  0  0  0  0  0  0  0  0  0
    2.9458   -1.4036   -0.1266 C   0  0  0  0  0  0  0  0  0  0  0  0
    2.4664   -2.2768    0.9466 N   0  0  0  0  0  0  0  0  0  0  0  0
    2.4391   -1.9561   -1.4489 C   0  0  0  0  0  0  0  0  0  0  0  0
    2.0045   -2.4300   -2.5831 C   0  0  0  0  0  0  0  0  0  0  0  0
    1.5741   -2.9394   -3.8388 C   0  0  0  0  0  0  0  0  0  0  0  0
    1.0572   -2.1201   -4.8104 C   0  0  0  0  0  0  0  0  0  0  0  0
    0.6457   -2.5540   -6.0083 N   0  0  0  0  0  0  0  0  0  0  0  0
    0.7445   -3.8675   -6.3233 C   0  0  0  0  0  0  0  0  0  0  0  0
    0.2641   -4.1565   -7.5888 N   0  0  0  0  0  0  0  0  0  0  0  0
    1.2892   -4.8070   -5.3926 C   0  0  0  0  0  0  0  0  0  0  0  0
    1.5804   -6.2577   -5.4668 C   0  0  0  0  0  0  0  0  0  0  0  0
    1.4532   -7.1765   -6.6047 C   0  0  0  0  0  0  0  0  0  0  0  0
    1.6958   -6.7116   -7.8914 C   0  0  0  0  0  0  0  0  0  0  0  0
    1.4867   -7.5210   -9.0036 C   0  0  0  0  0  0  0  0  0  0  0  0
    1.1759   -8.8717   -8.8671 C   0  0  0  0  0  0  0  0  0  0  0  0
    1.0281   -9.7349   -9.9789 N   0  0  0  0  0  0  0  0  0  0  0  0
    1.2409   -9.3770  -11.3005 C   0  0  0  0  0  0  0  0  0  0  0  0
    1.6360   -8.2808  -11.6819 O   0  0  0  0  0  0  0  0  0  0  0  0
    0.9000  -10.3917  -12.1797 N   0  0  0  0  0  0  0  0  0  0  0  0
    1.0205  -10.1774  -13.5747 C   0  0  0  0  0  0  0  0  0  0  0  0
   -0.0595  -10.5056  -14.3952 C   0  0  0  0  0  0  0  0  0  0  0  0
   -0.0019  -10.2269  -15.7613 C   0  0  0  0  0  0  0  0  0  0  0  0
    1.1495   -9.6698  -16.3205 C   0  0  0  0  0  0  0  0  0  0  0  0
    2.2541   -9.3710  -15.5166 C   0  0  0  0  0  0  0  0  0  0  0  0
    3.5101   -8.8011  -16.1071 C   0  0  0  0  0  0  0  0  0  0  0  0
    2.1731   -9.6179  -14.1394 C   0  0  0  0  0  0  0  0  0  0  0  0
    1.0150   -9.3818   -7.5763 C   0  0  0  0  0  0  0  0  0  0  0  0
    1.1273   -8.5352   -6.4570 C   0  0  0  0  0  0  0  0  0  0  0  0
    2.1036   -6.7335   -4.2806 C   0  0  0  0  0  0  0  0  0  0  0  0
    2.2727   -5.5428   -3.0935 S   0  0  0  0  0  0  0  0  0  0  0  0
    1.6777   -4.3102   -4.1341 C   0  0  0  0  0  0  0  0  0  0  0  0
    4.4940   -1.4143   -0.1329 C   0  0  0  0  0  0  0  0  0  0  0  0
    5.1207   -2.8006   -0.3059 C   0  0  0  0  0  0  0  0  0  0  0  0
    0.6079    1.2236    0.1884 H   0  0  0  0  0  0  0  0  0  0  0  0
    0.4416   -0.3802    0.9052 H   0  0  0  0  0  0  0  0  0  0  0  0
    0.4454   -0.1875   -0.8587 H   0  0  0  0  0  0  0  0  0  0  0  0
    2.8018    0.4550    1.0015 H   0  0  0  0  0  0  0  0  0  0  0  0
    2.8014    0.6786   -0.7427 H   0  0  0  0  0  0  0  0  0  0  0  0
    1.4515   -2.3407    0.9118 H   0  0  0  0  0  0  0  0  0  0  0  0
    2.7047   -1.8725    1.8492 H   0  0  0  0  0  0  0  0  0  0  0  0
    0.9592   -1.0532   -4.6534 H   0  0  0  0  0  0  0  0  0  0  0  0
   -0.2135   -3.3508   -7.9773 H   0  0  0  0  0  0  0  0  0  0  0  0
   -0.2066   -5.0442   -7.6853 H   0  0  0  0  0  0  0  0  0  0  0  0
    2.0422   -5.6980   -8.0734 H   0  0  0  0  0  0  0  0  0  0  0  0
    1.5964   -7.0362   -9.9662 H   0  0  0  0  0  0  0  0  0  0  0  0
    0.8874  -10.7160   -9.7879 H   0  0  0  0  0  0  0  0  0  0  0  0
    0.1158  -10.9520  -11.8826 H   0  0  0  0  0  0  0  0  0  0  0  0
   -0.9738  -10.9112  -13.9756 H   0  0  0  0  0  0  0  0  0  0  0  0
   -0.8630  -10.4322  -16.3909 H   0  0  0  0  0  0  0  0  0  0  0  0
    1.1759   -9.4642  -17.3880 H   0  0  0  0  0  0  0  0  0  0  0  0
    3.4131   -8.6510  -17.1876 H   0  0  0  0  0  0  0  0  0  0  0  0
    4.3463   -9.4882  -15.9403 H   0  0  0  0  0  0  0  0  0  0  0  0
    3.7440   -7.8327  -15.6534 H   0  0  0  0  0  0  0  0  0  0  0  0
    3.0221   -9.3613  -13.5042 H   0  0  0  0  0  0  0  0  0  0  0  0
    0.7946  -10.4340   -7.4135 H   0  0  0  0  0  0  0  0  0  0  0  0
    0.9643   -8.9641   -5.4700 H   0  0  0  0  0  0  0  0  0  0  0  0
    2.4244   -7.7397   -4.0464 H   0  0  0  0  0  0  0  0  0  0  0  0
    4.8709   -0.9828    0.8035 H   0  0  0  0  0  0  0  0  0  0  0  0
    4.8640   -0.7725   -0.9434 H   0  0  0  0  0  0  0  0  0  0  0  0
    4.8252   -3.4815    0.4984 H   0  0  0  0  0  0  0  0  0  0  0  0
    6.2122   -2.7234   -0.2902 H   0  0  0  0  0  0  0  0  0  0  0  0
    4.8373   -3.2551   -1.2606 H   0  0  0  0  0  0  0  0  0  0  0  0
  1  2  1  0  0  0  0
  1 36  1  0  0  0  0
  1 37  1  0  0  0  0
  1 38  1  0  0  0  0
  2  3  1  0  0  0  0
  2 39  1  0  0  0  0
  2 40  1  0  0  0  0
  3  4  1  0  0  0  0
  3  5  1  0  0  0  0
  3 34  1  0  0  0  0
  4 41  1  0  0  0  0
  4 42  1  0  0  0  0
  5  6  3  0  0  0  0
  6  7  1  0  0  0  0
  7  8  1  0  0  0  0
  7 33  2  0  0  0  0
  8  9  2  0  0  0  0
  8 43  1  0  0  0  0
  9 10  1  0  0  0  0
 10 11  1  0  0  0  0
 10 12  2  0  0  0  0
 11 44  1  0  0  0  0
 11 45  1  0  0  0  0
 12 13  1  0  0  0  0
 12 33  1  0  0  0  0
 13 14  1  0  0  0  0
 13 31  2  0  0  0  0
 14 15  1  0  0  0  0
 14 30  2  0  0  0  0
 15 16  2  0  0  0  0
 15 46  1  0  0  0  0
 16 17  1  0  0  0  0
 16 47  1  0  0  0  0
 17 18  1  0  0  0  0
 17 29  2  0  0  0  0
 18 19  1  0  0  0  0
 18 48  1  0  0  0  0
 19 20  2  0  0  0  0
 19 21  1  0  0  0  0
 21 22  1  0  0  0  0
 21 49  1  0  0  0  0
 22 23  1  0  0  0  0
 22 28  2  0  0  0  0
 23 24  2  0  0  0  0
 23 50  1  0  0  0  0
 24 25  1  0  0  0  0
 24 51  1  0  0  0  0
 25 26  2  0  0  0  0
 25 52  1  0  0  0  0
 26 27  1  0  0  0  0
 26 28  1  0  0  0  0
 27 53  1  0  0  0  0
 27 54  1  0  0  0  0
 27 55  1  0  0  0  0
 28 56  1  0  0  0  0
 29 30  1  0  0  0  0
 29 57  1  0  0  0  0
 30 58  1  0  0  0  0
 31 32  1  0  0  0  0
 31 59  1  0  0  0  0
 32 33  1  0  0  0  0
 34 35  1  0  0  0  0
 34 60  1  0  0  0  0
 34 61  1  0  0  0  0
 35 62  1  0  0  0  0
 35 63  1  0  0  0  0
 35 64  1  0  0  0  0
M  END
$$$$
