CHEMBL4793877
 OpenBabel04072215383D

 50 53  0  0  0  0  0  0  0  0999 V2000
    6.8240    0.1230    7.2421 C   0  0  0  0  0  0  0  0  0  0  0  0
    5.7219   -0.7536    7.4953 O   0  0  0  0  0  0  0  0  0  0  0  0
    5.3735   -1.5402    6.4259 C   0  0  0  0  0  0  0  0  0  0  0  0
    5.5577   -1.1006    5.1071 C   0  0  0  0  0  0  0  0  0  0  0  0
    5.3598   -1.9238    4.0156 C   0  0  0  0  0  0  0  0  0  0  0  0
    5.6315   -1.4202    2.8107 N   0  0  0  0  0  0  0  0  0  0  0  0
    5.4587   -2.2375    1.7735 C   0  0  0  0  0  0  0  0  0  0  0  0
    5.0164   -3.4912    1.8397 N   0  0  0  0  0  0  0  0  0  0  0  0
    4.7203   -3.9842    3.0607 C   0  0  0  0  0  0  0  0  0  0  0  0
    4.1764   -5.2956    3.1431 N   0  0  0  0  0  0  0  0  0  0  0  0
    3.6400   -5.9961    2.0401 C   0  0  0  0  0  0  0  0  0  0  0  0
    3.8241   -7.3722    1.9121 C   0  0  0  0  0  0  0  0  0  0  0  0
    3.3911   -8.0431    0.7611 C   0  0  0  0  0  0  0  0  0  0  0  0
    2.7530   -7.3542   -0.2749 C   0  0  0  0  0  0  0  0  0  0  0  0
    2.4241   -7.9340   -1.5206 N   0  0  0  0  0  0  0  0  0  0  0  0
    2.7411   -9.2131   -1.9361 C   0  0  0  0  0  0  0  0  0  0  0  0
    3.2602  -10.0963   -1.2621 O   0  0  0  0  0  0  0  0  0  0  0  0
    2.4739   -9.5243   -3.3666 C   0  0  0  0  0  0  0  0  0  0  0  0
    1.3729   -9.0012   -4.0595 C   0  0  0  0  0  0  0  0  0  0  0  0
    1.1740   -9.3439   -5.4016 C   0  0  0  0  0  0  0  0  0  0  0  0
    2.0665  -10.2024   -6.0461 C   0  0  0  0  0  0  0  0  0  0  0  0
    3.1531  -10.7257   -5.3490 C   0  0  0  0  0  0  0  0  0  0  0  0
    4.2510  -11.7856   -6.1438 Cl  0  0  0  0  0  0  0  0  0  0  0  0
    3.3561  -10.3946   -4.0136 C   0  0  0  0  0  0  0  0  0  0  0  0
    2.4624   -6.0019   -0.0947 C   0  0  0  0  0  0  0  0  0  0  0  0
    2.8848   -5.3398    1.0584 C   0  0  0  0  0  0  0  0  0  0  0  0
    4.9069   -3.2290    4.2283 C   0  0  0  0  0  0  0  0  0  0  0  0
    4.6484   -3.6631    5.5525 C   0  0  0  0  0  0  0  0  0  0  0  0
    4.8525   -2.8177    6.6486 C   0  0  0  0  0  0  0  0  0  0  0  0
    4.5688   -3.4035    7.8517 O   0  0  0  0  0  0  0  0  0  0  0  0
    4.0748   -2.5533    8.8813 C   0  0  0  0  0  0  0  0  0  0  0  0
    7.2609    0.4139    8.2004 H   0  0  0  0  0  0  0  0  0  0  0  0
    6.4798    1.0324    6.7374 H   0  0  0  0  0  0  0  0  0  0  0  0
    7.6119   -0.3677    6.6562 H   0  0  0  0  0  0  0  0  0  0  0  0
    5.8886   -0.0869    4.8989 H   0  0  0  0  0  0  0  0  0  0  0  0
    5.6936   -1.8492    0.7895 H   0  0  0  0  0  0  0  0  0  0  0  0
    4.7781   -5.8763    3.7192 H   0  0  0  0  0  0  0  0  0  0  0  0
    4.3473   -7.9396    2.6767 H   0  0  0  0  0  0  0  0  0  0  0  0
    3.6029   -9.1055    0.6963 H   0  0  0  0  0  0  0  0  0  0  0  0
    2.0572   -7.2887   -2.2131 H   0  0  0  0  0  0  0  0  0  0  0  0
    0.6462   -8.3598   -3.5664 H   0  0  0  0  0  0  0  0  0  0  0  0
    0.3168   -8.9507   -5.9420 H   0  0  0  0  0  0  0  0  0  0  0  0
    1.9047  -10.4673   -7.0883 H   0  0  0  0  0  0  0  0  0  0  0  0
    4.2021  -10.8145   -3.4698 H   0  0  0  0  0  0  0  0  0  0  0  0
    1.9365   -5.4275   -0.8526 H   0  0  0  0  0  0  0  0  0  0  0  0
    2.6592   -4.2809    1.1677 H   0  0  0  0  0  0  0  0  0  0  0  0
    4.2822   -4.6709    5.7371 H   0  0  0  0  0  0  0  0  0  0  0  0
    3.3967   -3.1505    9.5014 H   0  0  0  0  0  0  0  0  0  0  0  0
    3.4993   -1.7020    8.5026 H   0  0  0  0  0  0  0  0  0  0  0  0
    4.8995   -2.2228    9.5190 H   0  0  0  0  0  0  0  0  0  0  0  0
  1  2  1  0  0  0  0
  1 32  1  0  0  0  0
  1 33  1  0  0  0  0
  1 34  1  0  0  0  0
  2  3  1  0  0  0  0
  3  4  1  0  0  0  0
  3 29  2  0  0  0  0
  4  5  2  0  0  0  0
  4 35  1  0  0  0  0
  5  6  1  0  0  0  0
  5 27  1  0  0  0  0
  6  7  2  0  0  0  0
  7  8  1  0  0  0  0
  7 36  1  0  0  0  0
  8  9  2  0  0  0  0
  9 10  1  0  0  0  0
  9 27  1  0  0  0  0
 10 11  1  0  0  0  0
 10 37  1  0  0  0  0
 11 12  1  0  0  0  0
 11 26  2  0  0  0  0
 12 13  2  0  0  0  0
 12 38  1  0  0  0  0
 13 14  1  0  0  0  0
 13 39  1  0  0  0  0
 14 15  1  0  0  0  0
 14 25  2  0  0  0  0
 15 16  1  0  0  0  0
 15 40  1  0  0  0  0
 16 17  2  0  0  0  0
 16 18  1  0  0  0  0
 18 19  1  0  0  0  0
 18 24  2  0  0  0  0
 19 20  2  0  0  0  0
 19 41  1  0  0  0  0
 20 21  1  0  0  0  0
 20 42  1  0  0  0  0
 21 22  2  0  0  0  0
 21 43  1  0  0  0  0
 22 23  1  0  0  0  0
 22 24  1  0  0  0  0
 24 44  1  0  0  0  0
 25 26  1  0  0  0  0
 25 45  1  0  0  0  0
 26 46  1  0  0  0  0
 27 28  2  0  0  0  0
 28 29  1  0  0  0  0
 28 47  1  0  0  0  0
 29 30  1  0  0  0  0
 30 31  1  0  0  0  0
 31 48  1  0  0  0  0
 31 49  1  0  0  0  0
 31 50  1  0  0  0  0
M  END
$$$$
