CHEMBL3690415
 OpenBabel04072215373D

 46 49  0  0  0  0  0  0  0  0999 V2000
    2.5077    0.8203    1.2565 O   0  0  0  0  0  0  0  0  0  0  0  0
    2.2154   -0.1027    0.5089 C   0  0  0  0  0  0  0  0  0  0  0  0
    0.9120   -0.3031    0.1027 N   0  0  0  0  0  0  0  0  0  0  0  0
   -0.1476    0.5250    0.6951 C   0  0  0  0  0  0  0  0  0  0  0  0
   -0.7048    0.0085    2.0290 C   0  0  0  0  0  0  0  0  0  0  0  0
   -0.1299   -1.1612    2.3957 F   0  0  0  0  0  0  0  0  0  0  0  0
   -0.5395    0.8915    3.0341 F   0  0  0  0  0  0  0  0  0  0  0  0
   -2.0347   -0.2320    1.9128 F   0  0  0  0  0  0  0  0  0  0  0  0
    3.0666   -1.0361   -0.0453 N   0  0  0  0  0  0  0  0  0  0  0  0
    4.4650   -1.1263    0.1382 C   0  0  0  0  0  0  0  0  0  0  0  0
    5.1790   -0.2403    0.9477 C   0  0  0  0  0  0  0  0  0  0  0  0
    6.5640   -0.3168    1.0264 C   0  0  0  0  0  0  0  0  0  0  0  0
    7.2470   -1.2913    0.3103 C   0  0  0  0  0  0  0  0  0  0  0  0
    6.5622   -2.2716   -0.4180 C   0  0  0  0  0  0  0  0  0  0  0  0
    7.2872   -3.3879   -1.0476 C   0  0  0  0  0  0  0  0  0  0  0  0
    7.0121   -4.0887   -2.2138 C   0  0  0  0  0  0  0  0  0  0  0  0
    7.9457   -5.0572   -2.4747 N   0  0  0  0  0  0  0  0  0  0  0  0
    8.8073   -4.9832   -1.4860 C   0  0  0  0  0  0  0  0  0  0  0  0
    9.9934   -5.7353   -1.2247 C   0  0  0  0  0  0  0  0  0  0  0  0
   10.6967   -5.5126   -0.0974 C   0  0  0  0  0  0  0  0  0  0  0  0
   11.9088   -6.3379    0.1592 C   0  0  0  0  0  0  0  0  0  0  0  0
   11.8768   -7.0869    1.4370 C   0  0  0  0  0  0  0  0  0  0  0  0
   12.9598   -7.8011    1.7513 C   0  0  0  0  0  0  0  0  0  0  0  0
   14.1209   -7.8270    0.8428 C   0  0  0  0  0  0  0  0  0  0  0  0
   15.1271   -8.4617    1.1320 O   0  0  0  0  0  0  0  0  0  0  0  0
   13.9875   -7.1037   -0.3193 N   0  0  0  0  0  0  0  0  0  0  0  0
   12.9045   -6.3534   -0.6759 N   0  0  0  0  0  0  0  0  0  0  0  0
   10.2863   -4.4955    0.8575 C   0  0  0  0  0  0  0  0  0  0  0  0
    9.1656   -3.7977    0.6233 C   0  0  0  0  0  0  0  0  0  0  0  0
    8.4359   -4.0107   -0.5540 N   0  0  0  0  0  0  0  0  0  0  0  0
    5.1632   -2.1499   -0.5299 C   0  0  0  0  0  0  0  0  0  0  0  0
    0.6619   -1.2620   -0.0938 H   0  0  0  0  0  0  0  0  0  0  0  0
   -0.9511    0.5681   -0.0471 H   0  0  0  0  0  0  0  0  0  0  0  0
    0.2243    1.5474    0.8274 H   0  0  0  0  0  0  0  0  0  0  0  0
    2.6601   -1.6628   -0.7229 H   0  0  0  0  0  0  0  0  0  0  0  0
    4.6916    0.5433    1.5158 H   0  0  0  0  0  0  0  0  0  0  0  0
    7.1112    0.3947    1.6397 H   0  0  0  0  0  0  0  0  0  0  0  0
    8.3315   -1.2658    0.3417 H   0  0  0  0  0  0  0  0  0  0  0  0
    6.1865   -3.9304   -2.8962 H   0  0  0  0  0  0  0  0  0  0  0  0
   10.2858   -6.4932   -1.9471 H   0  0  0  0  0  0  0  0  0  0  0  0
   11.0006   -7.0535    2.0733 H   0  0  0  0  0  0  0  0  0  0  0  0
   13.0373   -8.3847    2.6583 H   0  0  0  0  0  0  0  0  0  0  0  0
   14.7757   -7.0966   -0.9583 H   0  0  0  0  0  0  0  0  0  0  0  0
   10.8923   -4.3051    1.7372 H   0  0  0  0  0  0  0  0  0  0  0  0
    8.8157   -3.0611    1.3302 H   0  0  0  0  0  0  0  0  0  0  0  0
    4.6112   -2.8684   -1.1327 H   0  0  0  0  0  0  0  0  0  0  0  0
  1  2  2  0  0  0  0
  2  3  1  0  0  0  0
  2  9  1  0  0  0  0
  3  4  1  0  0  0  0
  3 32  1  0  0  0  0
  4  5  1  0  0  0  0
  4 33  1  0  0  0  0
  4 34  1  0  0  0  0
  5  6  1  0  0  0  0
  5  7  1  0  0  0  0
  5  8  1  0  0  0  0
  9 10  1  0  0  0  0
  9 35  1  0  0  0  0
 10 11  1  0  0  0  0
 10 31  2  0  0  0  0
 11 12  2  0  0  0  0
 11 36  1  0  0  0  0
 12 13  1  0  0  0  0
 12 37  1  0  0  0  0
 13 14  2  0  0  0  0
 13 38  1  0  0  0  0
 14 15  1  0  0  0  0
 14 31  1  0  0  0  0
 15 16  2  0  0  0  0
 15 30  1  0  0  0  0
 16 17  1  0  0  0  0
 16 39  1  0  0  0  0
 17 18  2  0  0  0  0
 18 19  1  0  0  0  0
 18 30  1  0  0  0  0
 19 20  2  0  0  0  0
 19 40  1  0  0  0  0
 20 21  1  0  0  0  0
 20 28  1  0  0  0  0
 21 22  1  0  0  0  0
 21 27  2  0  0  0  0
 22 23  2  0  0  0  0
 22 41  1  0  0  0  0
 23 24  1  0  0  0  0
 23 42  1  0  0  0  0
 24 25  2  0  0  0  0
 24 26  1  0  0  0  0
 26 27  1  0  0  0  0
 26 43  1  0  0  0  0
 28 29  2  0  0  0  0
 28 44  1  0  0  0  0
 29 30  1  0  0  0  0
 29 45  1  0  0  0  0
 31 46  1  0  0  0  0
M  END
$$$$
