CHEMBL3909723
 OpenBabel04072215373D

 56 58  0  0  0  0  0  0  0  0999 V2000
    2.1964   -0.5166    0.9570 C   0  0  0  0  0  0  0  0  0  0  0  0
    0.8798   -0.1741    0.3578 C   0  0  0  0  0  0  0  0  0  0  0  0
    0.4499    1.1108   -0.0716 C   0  0  0  0  0  0  0  0  0  0  0  0
   -0.8229    0.9560   -0.5582 C   0  0  0  0  0  0  0  0  0  0  0  0
   -1.2165   -0.3397   -0.4698 O   0  0  0  0  0  0  0  0  0  0  0  0
   -0.1832   -1.0362    0.0987 C   0  0  0  0  0  0  0  0  0  0  0  0
   -0.3245   -2.4641    0.3362 C   0  0  0  0  0  0  0  0  0  0  0  0
    0.5640   -3.1031    0.8927 O   0  0  0  0  0  0  0  0  0  0  0  0
   -1.5055   -3.0166   -0.1583 N   0  0  0  0  0  0  0  0  0  0  0  0
   -1.8731   -4.3810   -0.0827 C   0  0  0  0  0  0  0  0  0  0  0  0
   -1.2553   -5.2678    0.8065 C   0  0  0  0  0  0  0  0  0  0  0  0
   -1.5547   -6.6278    0.7936 C   0  0  0  0  0  0  0  0  0  0  0  0
   -2.4964   -7.1204   -0.1009 C   0  0  0  0  0  0  0  0  0  0  0  0
   -3.1712   -6.2454   -0.9593 C   0  0  0  0  0  0  0  0  0  0  0  0
   -4.1370   -6.7969   -1.8618 C   0  0  0  0  0  0  0  0  0  0  0  0
   -4.9182   -7.3776   -2.5715 C   0  0  0  0  0  0  0  0  0  0  0  0
   -5.8257   -8.1522   -3.3587 C   0  0  0  0  0  0  0  0  0  0  0  0
   -6.5335   -9.2057   -2.7881 C   0  0  0  0  0  0  0  0  0  0  0  0
   -7.4065   -9.9885   -3.4664 N   0  0  0  0  0  0  0  0  0  0  0  0
   -7.5752   -9.7071   -4.7816 C   0  0  0  0  0  0  0  0  0  0  0  0
   -6.9056   -8.6856   -5.4463 C   0  0  0  0  0  0  0  0  0  0  0  0
   -7.1514   -8.4747   -6.8969 C   0  0  0  0  0  0  0  0  0  0  0  0
   -7.9268   -9.2522   -7.4459 O   0  0  0  0  0  0  0  0  0  0  0  0
   -6.4364   -7.4991   -7.6145 N   0  0  0  0  0  0  0  0  0  0  0  0
   -7.0731   -6.8016   -8.8355 S   0  0  1  0  0  0  0  0  0  0  0  0
   -7.1999   -7.9937  -10.1564 C   0  0  0  0  0  0  0  0  0  0  0  0
   -8.3273   -6.0751   -8.7832 O   0  0  0  0  0  0  0  0  0  0  0  0
   -5.8528   -5.6686   -9.4873 C   0  0  0  0  0  0  0  0  0  0  0  0
   -5.4729   -4.5961   -8.4698 C   0  0  0  0  0  0  0  0  0  0  0  0
   -4.4434   -3.6268   -9.0300 C   0  0  0  0  0  0  0  0  0  0  0  0
   -3.2670   -4.3235   -9.4164 O   0  0  0  0  0  0  0  0  0  0  0  0
   -6.0137   -7.8920   -4.7151 C   0  0  0  0  0  0  0  0  0  0  0  0
   -2.8735   -4.8729   -0.9375 C   0  0  0  0  0  0  0  0  0  0  0  0
    2.8520    0.3604    0.9880 H   0  0  0  0  0  0  0  0  0  0  0  0
    2.7020   -1.2888    0.3687 H   0  0  0  0  0  0  0  0  0  0  0  0
    2.0749   -0.8801    1.9820 H   0  0  0  0  0  0  0  0  0  0  0  0
    1.0098    2.0373   -0.0259 H   0  0  0  0  0  0  0  0  0  0  0  0
   -1.5462    1.6390   -0.9835 H   0  0  0  0  0  0  0  0  0  0  0  0
   -2.0712   -2.3961   -0.7266 H   0  0  0  0  0  0  0  0  0  0  0  0
   -0.5292   -4.9261    1.5376 H   0  0  0  0  0  0  0  0  0  0  0  0
   -1.0378   -7.2980    1.4762 H   0  0  0  0  0  0  0  0  0  0  0  0
   -2.6998   -8.1882   -0.1231 H   0  0  0  0  0  0  0  0  0  0  0  0
   -6.4159   -9.4639   -1.7382 H   0  0  0  0  0  0  0  0  0  0  0  0
   -8.2850  -10.3529   -5.2947 H   0  0  0  0  0  0  0  0  0  0  0  0
   -7.9329   -8.7552   -9.8862 H   0  0  0  0  0  0  0  0  0  0  0  0
   -6.2219   -8.4509  -10.3195 H   0  0  0  0  0  0  0  0  0  0  0  0
   -7.5357   -7.4798  -11.0591 H   0  0  0  0  0  0  0  0  0  0  0  0
   -6.2849   -5.2128  -10.3848 H   0  0  0  0  0  0  0  0  0  0  0  0
   -4.9823   -6.2637   -9.7810 H   0  0  0  0  0  0  0  0  0  0  0  0
   -5.0579   -5.0773   -7.5764 H   0  0  0  0  0  0  0  0  0  0  0  0
   -6.3632   -4.0410   -8.1534 H   0  0  0  0  0  0  0  0  0  0  0  0
   -4.1718   -2.8746   -8.2821 H   0  0  0  0  0  0  0  0  0  0  0  0
   -4.8343   -3.1043   -9.9085 H   0  0  0  0  0  0  0  0  0  0  0  0
   -2.8824   -4.7191   -8.6144 H   0  0  0  0  0  0  0  0  0  0  0  0
   -5.4702   -7.0850   -5.1996 H   0  0  0  0  0  0  0  0  0  0  0  0
   -3.3972   -4.2060   -1.6174 H   0  0  0  0  0  0  0  0  0  0  0  0
  1  2  1  0  0  0  0
  1 34  1  0  0  0  0
  1 35  1  0  0  0  0
  1 36  1  0  0  0  0
  2  3  1  0  0  0  0
  2  6  2  0  0  0  0
  3  4  2  0  0  0  0
  3 37  1  0  0  0  0
  4  5  1  0  0  0  0
  4 38  1  0  0  0  0
  5  6  1  0  0  0  0
  6  7  1  0  0  0  0
  7  8  2  0  0  0  0
  7  9  1  0  0  0  0
  9 10  1  0  0  0  0
  9 39  1  0  0  0  0
 10 11  1  0  0  0  0
 10 33  2  0  0  0  0
 11 12  2  0  0  0  0
 11 40  1  0  0  0  0
 12 13  1  0  0  0  0
 12 41  1  0  0  0  0
 13 14  2  0  0  0  0
 13 42  1  0  0  0  0
 14 15  1  0  0  0  0
 14 33  1  0  0  0  0
 15 16  3  0  0  0  0
 16 17  1  0  0  0  0
 17 18  1  0  0  0  0
 17 32  2  0  0  0  0
 18 19  2  0  0  0  0
 18 43  1  0  0  0  0
 19 20  1  0  0  0  0
 20 21  2  0  0  0  0
 20 44  1  0  0  0  0
 21 22  1  0  0  0  0
 21 32  1  0  0  0  0
 22 23  2  0  0  0  0
 22 24  1  0  0  0  0
 24 25  2  0  0  0  0
 25 26  1  0  0  0  0
 25 27  2  1  0  0  0
 25 28  1  0  0  0  0
 26 45  1  0  0  0  0
 26 46  1  0  0  0  0
 26 47  1  0  0  0  0
 28 29  1  0  0  0  0
 28 48  1  0  0  0  0
 28 49  1  0  0  0  0
 29 30  1  0  0  0  0
 29 50  1  0  0  0  0
 29 51  1  0  0  0  0
 30 31  1  0  0  0  0
 30 52  1  0  0  0  0
 30 53  1  0  0  0  0
 31 54  1  0  0  0  0
 32 55  1  0  0  0  0
 33 56  1  0  0  0  0
M  END
$$$$
