CHEMBL333021
 OpenBabel04072215363D

 53 57  0  0  0  0  0  0  0  0999 V2000
   -0.3144   -2.0308   -1.9824 C   0  0  0  0  0  0  0  0  0  0  0  0
    0.4327   -1.1963   -1.1833 C   0  0  0  0  0  0  0  0  0  0  0  0
    1.5817   -1.8505   -0.6430 C   0  0  0  0  0  0  0  0  0  0  0  0
    2.5393   -1.1805    0.2387 C   0  0  0  0  0  0  0  0  0  0  0  0
    2.4682    0.1559    0.6729 C   0  0  0  0  0  0  0  0  0  0  0  0
    3.4713    0.4953    1.4828 N   0  0  0  0  0  0  0  0  0  0  0  0
    4.2154   -0.6340    1.5789 N   0  0  0  0  0  0  0  0  0  0  0  0
    5.3788   -0.8060    2.3187 C   0  0  0  0  0  0  0  0  0  0  0  0
    6.0169   -1.9844    2.3123 C   0  0  0  0  0  0  0  0  0  0  0  0
    7.2365   -2.2314    3.0684 C   0  0  0  0  0  0  0  0  0  0  0  0
    7.1624   -2.6870    4.3861 C   0  0  0  0  0  0  0  0  0  0  0  0
    8.3309   -2.9299    5.1118 C   0  0  0  0  0  0  0  0  0  0  0  0
    9.5846   -2.7220    4.5284 C   0  0  0  0  0  0  0  0  0  0  0  0
   10.7859   -2.9221    5.1654 O   0  0  0  0  0  0  0  0  0  0  0  0
   10.7578   -3.9699    6.1457 C   0  0  0  0  0  0  0  0  0  0  0  0
   12.1460   -4.1703    6.7791 C   0  0  0  0  0  0  0  0  0  0  0  0
   12.1730   -5.2085    7.8379 N   0  0  0  0  0  0  0  0  0  0  0  0
   11.8351   -6.5497    7.3315 C   0  0  0  0  0  0  0  0  0  0  0  0
   11.8387   -7.5979    8.4485 C   0  0  0  0  0  0  0  0  0  0  0  0
   13.1803   -7.6308    9.1651 C   0  0  0  0  0  0  0  0  0  0  0  0
   13.5466   -6.2325    9.6444 C   0  0  0  0  0  0  0  0  0  0  0  0
   13.4889   -5.2156    8.5012 C   0  0  0  0  0  0  0  0  0  0  0  0
    9.6560   -2.2445    3.2187 C   0  0  0  0  0  0  0  0  0  0  0  0
    8.4878   -2.0039    2.4877 C   0  0  0  0  0  0  0  0  0  0  0  0
    5.3848   -3.0401    1.4574 C   0  0  0  0  0  0  0  0  0  0  0  0
    4.2945   -2.9132    0.7613 N   0  0  0  0  0  0  0  0  0  0  0  0
    3.6873   -1.6835    0.8199 C   0  0  0  0  0  0  0  0  0  0  0  0
    1.6511   -3.1669   -1.0498 C   0  0  0  0  0  0  0  0  0  0  0  0
    0.3542   -3.6009   -2.0793 S   0  0  0  0  0  0  0  0  0  0  0  0
   -1.2252   -1.7945   -2.5163 H   0  0  0  0  0  0  0  0  0  0  0  0
    0.1545   -0.1651   -1.0061 H   0  0  0  0  0  0  0  0  0  0  0  0
    1.7258    0.9057    0.4384 H   0  0  0  0  0  0  0  0  0  0  0  0
    5.7075    0.0559    2.8839 H   0  0  0  0  0  0  0  0  0  0  0  0
    6.1987   -2.8537    4.8651 H   0  0  0  0  0  0  0  0  0  0  0  0
    8.2232   -3.2664    6.1370 H   0  0  0  0  0  0  0  0  0  0  0  0
   10.4359   -4.8881    5.6439 H   0  0  0  0  0  0  0  0  0  0  0  0
   10.0660   -3.7124    6.9534 H   0  0  0  0  0  0  0  0  0  0  0  0
   12.4337   -3.2068    7.2231 H   0  0  0  0  0  0  0  0  0  0  0  0
   12.8896   -4.3718    5.9975 H   0  0  0  0  0  0  0  0  0  0  0  0
   12.5327   -6.8548    6.5412 H   0  0  0  0  0  0  0  0  0  0  0  0
   10.8281   -6.5559    6.9023 H   0  0  0  0  0  0  0  0  0  0  0  0
   11.6185   -8.5867    8.0300 H   0  0  0  0  0  0  0  0  0  0  0  0
   11.0416   -7.3741    9.1697 H   0  0  0  0  0  0  0  0  0  0  0  0
   13.9526   -8.0016    8.4801 H   0  0  0  0  0  0  0  0  0  0  0  0
   13.1405   -8.3244   10.0124 H   0  0  0  0  0  0  0  0  0  0  0  0
   14.5525   -6.2446   10.0788 H   0  0  0  0  0  0  0  0  0  0  0  0
   12.8568   -5.9281   10.4418 H   0  0  0  0  0  0  0  0  0  0  0  0
   14.2861   -5.4333    7.7783 H   0  0  0  0  0  0  0  0  0  0  0  0
   13.6940   -4.2246    8.9240 H   0  0  0  0  0  0  0  0  0  0  0  0
   10.6241   -2.0709    2.7558 H   0  0  0  0  0  0  0  0  0  0  0  0
    8.5644   -1.6385    1.4658 H   0  0  0  0  0  0  0  0  0  0  0  0
    5.9126   -4.0089    1.4350 H   0  0  0  0  0  0  0  0  0  0  0  0
    2.3996   -3.9030   -0.7977 H   0  0  0  0  0  0  0  0  0  0  0  0
  1  2  2  0  0  0  0
  1 29  1  0  0  0  0
  1 30  1  0  0  0  0
  2  3  1  0  0  0  0
  2 31  1  0  0  0  0
  3  4  1  0  0  0  0
  3 28  2  0  0  0  0
  4  5  1  0  0  0  0
  4 27  2  0  0  0  0
  5  6  2  0  0  0  0
  5 32  1  0  0  0  0
  6  7  1  0  0  0  0
  7  8  1  0  0  0  0
  7 27  1  0  0  0  0
  8  9  2  0  0  0  0
  8 33  1  0  0  0  0
  9 10  1  0  0  0  0
  9 25  1  0  0  0  0
 10 11  1  0  0  0  0
 10 24  2  0  0  0  0
 11 12  2  0  0  0  0
 11 34  1  0  0  0  0
 12 13  1  0  0  0  0
 12 35  1  0  0  0  0
 13 14  1  0  0  0  0
 13 23  2  0  0  0  0
 14 15  1  0  0  0  0
 15 16  1  0  0  0  0
 15 36  1  0  0  0  0
 15 37  1  0  0  0  0
 16 17  1  0  0  0  0
 16 38  1  0  0  0  0
 16 39  1  0  0  0  0
 17 18  1  0  0  0  0
 17 22  1  0  0  0  0
 18 19  1  0  0  0  0
 18 40  1  0  0  0  0
 18 41  1  0  0  0  0
 19 20  1  0  0  0  0
 19 42  1  0  0  0  0
 19 43  1  0  0  0  0
 20 21  1  0  0  0  0
 20 44  1  0  0  0  0
 20 45  1  0  0  0  0
 21 22  1  0  0  0  0
 21 46  1  0  0  0  0
 21 47  1  0  0  0  0
 22 48  1  0  0  0  0
 22 49  1  0  0  0  0
 23 24  1  0  0  0  0
 23 50  1  0  0  0  0
 24 51  1  0  0  0  0
 25 26  2  0  0  0  0
 25 52  1  0  0  0  0
 26 27  1  0  0  0  0
 28 29  1  0  0  0  0
 28 53  1  0  0  0  0
M  END
$$$$
