CHEMBL3926547
 OpenBabel04072215373D

 57 60  0  0  0  0  0  0  0  0999 V2000
    2.6033    0.2240    0.0973 C   0  0  0  0  0  0  0  0  0  0  0  0
    1.1062    0.0826    0.1395 C   0  0  0  0  0  0  0  0  0  0  0  0
    0.3596    1.2794    0.2104 C   0  0  0  0  0  0  0  0  0  0  0  0
   -1.0348    1.2811    0.1492 C   0  0  0  0  0  0  0  0  0  0  0  0
   -1.7994    2.4270    0.2321 O   0  0  0  0  0  0  0  0  0  0  0  0
   -1.3507    3.5573   -0.4442 C   0  0  0  0  0  0  0  0  0  0  0  0
   -1.7890    4.7810    0.0183 C   0  0  0  0  0  0  0  0  0  0  0  0
   -1.3260    5.8799   -0.6740 C   0  0  0  0  0  0  0  0  0  0  0  0
   -1.7534    7.1613   -0.2828 N   0  0  0  0  0  0  0  0  0  0  0  0
   -1.4322    8.3210   -0.9654 C   0  0  0  0  0  0  0  0  0  0  0  0
   -0.7550    8.4232   -1.9776 O   0  0  0  0  0  0  0  0  0  0  0  0
   -1.9845    9.5555   -0.3382 C   0  0  0  0  0  0  0  0  0  0  0  0
   -1.8404   10.8914   -1.0353 C   0  0  0  0  0  0  0  0  0  0  0  0
   -1.0239   10.5977    0.1903 C   0  0  0  0  0  0  0  0  0  0  0  0
   -0.4816    5.7611   -1.7066 N   0  0  0  0  0  0  0  0  0  0  0  0
   -0.1340    4.5315   -2.0821 C   0  0  0  0  0  0  0  0  0  0  0  0
   -0.5453    3.4024   -1.5121 N   0  0  0  0  0  0  0  0  0  0  0  0
   -1.7048    0.0713    0.0642 C   0  0  0  0  0  0  0  0  0  0  0  0
   -0.9799   -1.1250    0.0301 C   0  0  0  0  0  0  0  0  0  0  0  0
    0.4240   -1.1512    0.0893 C   0  0  0  0  0  0  0  0  0  0  0  0
    1.1453   -2.3811    0.1271 N   0  0  0  0  0  0  0  0  0  0  0  0
    0.5899   -3.6346    0.3630 C   0  0  0  0  0  0  0  0  0  0  0  0
   -0.6039   -3.8644    0.5276 O   0  0  0  0  0  0  0  0  0  0  0  0
    1.5519   -4.6330    0.4839 N   0  0  0  0  0  0  0  0  0  0  0  0
    1.1584   -5.9669    0.7810 C   0  0  0  0  0  0  0  0  0  0  0  0
    1.8025   -6.6423    1.8147 C   0  0  0  0  0  0  0  0  0  0  0  0
    1.3664   -7.9130    2.1789 C   0  0  0  0  0  0  0  0  0  0  0  0
    1.9394   -8.5286    3.2216 F   0  0  0  0  0  0  0  0  0  0  0  0
    0.3382   -8.5526    1.4949 C   0  0  0  0  0  0  0  0  0  0  0  0
   -0.2863   -7.9149    0.4155 C   0  0  0  0  0  0  0  0  0  0  0  0
   -1.3674   -8.6306   -0.3668 C   0  0  0  0  0  0  0  0  0  0  0  0
   -2.7535   -8.4174    0.2203 C   0  0  0  0  0  0  0  0  0  0  0  0
   -1.4042   -8.2423   -1.6754 F   0  0  0  0  0  0  0  0  0  0  0  0
   -1.1490   -9.9809   -0.4063 F   0  0  0  0  0  0  0  0  0  0  0  0
    0.1227   -6.6096    0.0774 C   0  0  0  0  0  0  0  0  0  0  0  0
    2.9080    1.2624    0.2827 H   0  0  0  0  0  0  0  0  0  0  0  0
    2.9780   -0.0471   -0.8946 H   0  0  0  0  0  0  0  0  0  0  0  0
    3.0834   -0.3887    0.8635 H   0  0  0  0  0  0  0  0  0  0  0  0
    0.8845    2.2281    0.2948 H   0  0  0  0  0  0  0  0  0  0  0  0
   -2.4564    4.8490    0.8656 H   0  0  0  0  0  0  0  0  0  0  0  0
   -2.3445    7.2333    0.5299 H   0  0  0  0  0  0  0  0  0  0  0  0
   -2.9151    9.4209    0.2100 H   0  0  0  0  0  0  0  0  0  0  0  0
   -2.6479   11.6073   -0.9523 H   0  0  0  0  0  0  0  0  0  0  0  0
   -1.3255   10.9202   -1.9915 H   0  0  0  0  0  0  0  0  0  0  0  0
   -1.2798   11.1175    1.1044 H   0  0  0  0  0  0  0  0  0  0  0  0
    0.0380   10.4317    0.0505 H   0  0  0  0  0  0  0  0  0  0  0  0
    0.5506    4.4479   -2.9186 H   0  0  0  0  0  0  0  0  0  0  0  0
   -2.7896    0.0366    0.0183 H   0  0  0  0  0  0  0  0  0  0  0  0
   -1.5638   -2.0343   -0.0643 H   0  0  0  0  0  0  0  0  0  0  0  0
    2.1478   -2.3289    0.0271 H   0  0  0  0  0  0  0  0  0  0  0  0
    2.4190   -4.3259    0.9012 H   0  0  0  0  0  0  0  0  0  0  0  0
    2.5939   -6.1794    2.3939 H   0  0  0  0  0  0  0  0  0  0  0  0
    0.0381   -9.5513    1.8032 H   0  0  0  0  0  0  0  0  0  0  0  0
   -3.0497   -7.3649    0.1785 H   0  0  0  0  0  0  0  0  0  0  0  0
   -2.8089   -8.7619    1.2582 H   0  0  0  0  0  0  0  0  0  0  0  0
   -3.4904   -8.9915   -0.3530 H   0  0  0  0  0  0  0  0  0  0  0  0
   -0.3661   -6.0982   -0.7524 H   0  0  0  0  0  0  0  0  0  0  0  0
  1  2  1  0  0  0  0
  1 36  1  0  0  0  0
  1 37  1  0  0  0  0
  1 38  1  0  0  0  0
  2  3  1  0  0  0  0
  2 20  2  0  0  0  0
  3  4  2  0  0  0  0
  3 39  1  0  0  0  0
  4  5  1  0  0  0  0
  4 18  1  0  0  0  0
  5  6  1  0  0  0  0
  6  7  1  0  0  0  0
  6 17  2  0  0  0  0
  7  8  2  0  0  0  0
  7 40  1  0  0  0  0
  8  9  1  0  0  0  0
  8 15  1  0  0  0  0
  9 10  1  0  0  0  0
  9 41  1  0  0  0  0
 10 11  2  0  0  0  0
 10 12  1  0  0  0  0
 12 13  1  0  0  0  0
 12 14  1  0  0  0  0
 12 42  1  0  0  0  0
 13 14  1  0  0  0  0
 13 43  1  0  0  0  0
 13 44  1  0  0  0  0
 14 45  1  0  0  0  0
 14 46  1  0  0  0  0
 15 16  2  0  0  0  0
 16 17  1  0  0  0  0
 16 47  1  0  0  0  0
 18 19  2  0  0  0  0
 18 48  1  0  0  0  0
 19 20  1  0  0  0  0
 19 49  1  0  0  0  0
 20 21  1  0  0  0  0
 21 22  1  0  0  0  0
 21 50  1  0  0  0  0
 22 23  2  0  0  0  0
 22 24  1  0  0  0  0
 24 25  1  0  0  0  0
 24 51  1  0  0  0  0
 25 26  1  0  0  0  0
 25 35  2  0  0  0  0
 26 27  2  0  0  0  0
 26 52  1  0  0  0  0
 27 28  1  0  0  0  0
 27 29  1  0  0  0  0
 29 30  2  0  0  0  0
 29 53  1  0  0  0  0
 30 31  1  0  0  0  0
 30 35  1  0  0  0  0
 31 32  1  0  0  0  0
 31 33  1  0  0  0  0
 31 34  1  0  0  0  0
 32 54  1  0  0  0  0
 32 55  1  0  0  0  0
 32 56  1  0  0  0  0
 35 57  1  0  0  0  0
M  END
$$$$
