CHEMBL3979437
 OpenBabel04072215373D

 72 76  0  0  0  0  0  0  0  0999 V2000
    4.8800    1.3047    2.3017 C   0  0  0  0  0  0  0  0  0  0  0  0
    3.6429    0.6050    1.9464 N   0  0  0  0  0  0  0  0  0  0  0  0
    2.7451    1.5213    1.2268 C   0  0  0  0  0  0  0  0  0  0  0  0
    1.4627    0.8232    0.7677 C   0  0  0  0  0  0  0  0  0  0  0  0
    1.7607   -0.4221   -0.0756 C   0  0  0  0  0  0  0  0  0  0  0  0
    2.3376   -0.0549   -1.4595 C   0  0  0  0  0  0  0  0  0  0  0  0
    2.4960    1.1067   -1.8315 O   0  0  0  0  0  0  0  0  0  0  0  0
    2.7077   -1.1385   -2.4144 C   0  0  0  0  0  0  0  0  0  0  0  0
    2.1237   -2.3971   -2.3209 C   0  0  0  0  0  0  0  0  0  0  0  0
    2.4743   -3.4503   -3.1651 C   0  0  0  0  0  0  0  0  0  0  0  0
    1.9116   -4.7513   -3.0253 N   0  0  0  0  0  0  0  0  0  0  0  0
    0.9060   -5.0835   -2.1317 C   0  0  0  0  0  0  0  0  0  0  0  0
    0.3430   -4.2894   -1.3834 O   0  0  0  0  0  0  0  0  0  0  0  0
    0.5909   -6.4361   -2.1235 N   0  0  0  0  0  0  0  0  0  0  0  0
   -0.4707   -6.8748   -1.2835 C   0  0  0  0  0  0  0  0  0  0  0  0
   -1.6879   -6.1776   -1.2491 C   0  0  0  0  0  0  0  0  0  0  0  0
   -2.6842   -6.5117   -0.3286 C   0  0  0  0  0  0  0  0  0  0  0  0
   -2.5071   -7.5985    0.5289 C   0  0  0  0  0  0  0  0  0  0  0  0
   -3.4472   -7.9910    1.4644 O   0  0  0  0  0  0  0  0  0  0  0  0
   -4.7915   -7.9454    1.1375 C   0  0  0  0  0  0  0  0  0  0  0  0
   -5.2683   -8.1036   -0.1581 C   0  0  0  0  0  0  0  0  0  0  0  0
   -6.6226   -7.9785   -0.3662 C   0  0  0  0  0  0  0  0  0  0  0  0
   -7.5047   -7.7758    0.6253 N   0  0  0  0  0  0  0  0  0  0  0  0
   -7.0638   -7.7035    1.8924 C   0  0  0  0  0  0  0  0  0  0  0  0
   -8.0016   -7.5549    2.9362 N   0  0  0  0  0  0  0  0  0  0  0  0
   -9.3672   -7.4790    2.7269 C   0  0  0  0  0  0  0  0  0  0  0  0
   -9.9546   -7.5162    1.6571 O   0  0  0  0  0  0  0  0  0  0  0  0
  -10.2366   -7.3490    3.9381 C   0  0  0  0  0  0  0  0  0  0  0  0
   -9.8039   -7.1059    5.3558 C   0  0  0  0  0  0  0  0  0  0  0  0
  -10.2832   -8.4696    4.9469 C   0  0  0  0  0  0  0  0  0  0  0  0
   -5.7031   -7.7792    2.1904 C   0  0  0  0  0  0  0  0  0  0  0  0
   -1.2916   -8.2899    0.4887 C   0  0  0  0  0  0  0  0  0  0  0  0
   -1.0596   -9.2873    1.3556 F   0  0  0  0  0  0  0  0  0  0  0  0
   -0.2827   -7.9540   -0.4231 C   0  0  0  0  0  0  0  0  0  0  0  0
    3.4142   -3.2011   -4.1722 C   0  0  0  0  0  0  0  0  0  0  0  0
    3.9781   -1.9131   -4.3302 C   0  0  0  0  0  0  0  0  0  0  0  0
    4.9193   -1.5865   -5.4660 C   0  0  0  0  0  0  0  0  0  0  0  0
    5.1311   -2.6325   -6.3112 F   0  0  0  0  0  0  0  0  0  0  0  0
    4.4551   -0.5683   -6.2421 F   0  0  0  0  0  0  0  0  0  0  0  0
    6.1495   -1.1982   -5.0327 F   0  0  0  0  0  0  0  0  0  0  0  0
    3.6336   -0.8922   -3.4285 C   0  0  0  0  0  0  0  0  0  0  0  0
    2.6929   -1.3336    0.7335 C   0  0  0  0  0  0  0  0  0  0  0  0
    3.9585   -0.5945    1.1645 C   0  0  0  0  0  0  0  0  0  0  0  0
    4.6639    2.1826    2.9195 H   0  0  0  0  0  0  0  0  0  0  0  0
    5.4332    1.6355    1.4143 H   0  0  0  0  0  0  0  0  0  0  0  0
    5.5349    0.6537    2.8910 H   0  0  0  0  0  0  0  0  0  0  0  0
    3.2571    1.9722    0.3691 H   0  0  0  0  0  0  0  0  0  0  0  0
    2.4597    2.3446    1.8927 H   0  0  0  0  0  0  0  0  0  0  0  0
    0.8357    1.5283    0.2095 H   0  0  0  0  0  0  0  0  0  0  0  0
    0.8836    0.5232    1.6518 H   0  0  0  0  0  0  0  0  0  0  0  0
    0.8009   -0.9250   -0.2472 H   0  0  0  0  0  0  0  0  0  0  0  0
    1.3702   -2.5264   -1.5570 H   0  0  0  0  0  0  0  0  0  0  0  0
    2.1867   -5.4559   -3.6955 H   0  0  0  0  0  0  0  0  0  0  0  0
    1.3847   -7.0539   -2.2143 H   0  0  0  0  0  0  0  0  0  0  0  0
   -1.8609   -5.3365   -1.9190 H   0  0  0  0  0  0  0  0  0  0  0  0
   -3.5863   -5.9064   -0.2963 H   0  0  0  0  0  0  0  0  0  0  0  0
   -4.6188   -8.2951   -1.0032 H   0  0  0  0  0  0  0  0  0  0  0  0
   -7.0529   -8.0341   -1.3606 H   0  0  0  0  0  0  0  0  0  0  0  0
   -7.6525   -7.5322    3.8758 H   0  0  0  0  0  0  0  0  0  0  0  0
  -11.2006   -6.9097    3.6750 H   0  0  0  0  0  0  0  0  0  0  0  0
  -10.4669   -6.5109    5.9774 H   0  0  0  0  0  0  0  0  0  0  0  0
   -8.7595   -6.9741    5.6001 H   0  0  0  0  0  0  0  0  0  0  0  0
  -11.2639   -8.7976    5.2738 H   0  0  0  0  0  0  0  0  0  0  0  0
   -9.5564   -9.2701    4.8714 H   0  0  0  0  0  0  0  0  0  0  0  0
   -5.3434   -7.7114    3.2101 H   0  0  0  0  0  0  0  0  0  0  0  0
    0.6559   -8.4960   -0.3871 H   0  0  0  0  0  0  0  0  0  0  0  0
    3.7070   -3.9923   -4.8607 H   0  0  0  0  0  0  0  0  0  0  0  0
    4.0777    0.0991   -3.5256 H   0  0  0  0  0  0  0  0  0  0  0  0
    2.9838   -2.2295    0.1781 H   0  0  0  0  0  0  0  0  0  0  0  0
    2.1592   -1.6932    1.6240 H   0  0  0  0  0  0  0  0  0  0  0  0
    4.5588   -0.3456    0.2800 H   0  0  0  0  0  0  0  0  0  0  0  0
    4.5571   -1.2811    1.7761 H   0  0  0  0  0  0  0  0  0  0  0  0
  1  2  1  0  0  0  0
  1 44  1  0  0  0  0
  1 45  1  0  0  0  0
  1 46  1  0  0  0  0
  2  3  1  0  0  0  0
  2 43  1  0  0  0  0
  3  4  1  0  0  0  0
  3 47  1  0  0  0  0
  3 48  1  0  0  0  0
  4  5  1  0  0  0  0
  4 49  1  0  0  0  0
  4 50  1  0  0  0  0
  5  6  1  0  0  0  0
  5 42  1  0  0  0  0
  5 51  1  0  0  0  0
  6  7  2  0  0  0  0
  6  8  1  0  0  0  0
  8  9  1  0  0  0  0
  8 41  2  0  0  0  0
  9 10  2  0  0  0  0
  9 52  1  0  0  0  0
 10 11  1  0  0  0  0
 10 35  1  0  0  0  0
 11 12  1  0  0  0  0
 11 53  1  0  0  0  0
 12 13  2  0  0  0  0
 12 14  1  0  0  0  0
 14 15  1  0  0  0  0
 14 54  1  0  0  0  0
 15 16  1  0  0  0  0
 15 34  2  0  0  0  0
 16 17  2  0  0  0  0
 16 55  1  0  0  0  0
 17 18  1  0  0  0  0
 17 56  1  0  0  0  0
 18 19  1  0  0  0  0
 18 32  2  0  0  0  0
 19 20  1  0  0  0  0
 20 21  1  0  0  0  0
 20 31  2  0  0  0  0
 21 22  2  0  0  0  0
 21 57  1  0  0  0  0
 22 23  1  0  0  0  0
 22 58  1  0  0  0  0
 23 24  2  0  0  0  0
 24 25  1  0  0  0  0
 24 31  1  0  0  0  0
 25 26  1  0  0  0  0
 25 59  1  0  0  0  0
 26 27  2  0  0  0  0
 26 28  1  0  0  0  0
 28 29  1  0  0  0  0
 28 30  1  0  0  0  0
 28 60  1  0  0  0  0
 29 30  1  0  0  0  0
 29 61  1  0  0  0  0
 29 62  1  0  0  0  0
 30 63  1  0  0  0  0
 30 64  1  0  0  0  0
 31 65  1  0  0  0  0
 32 33  1  0  0  0  0
 32 34  1  0  0  0  0
 34 66  1  0  0  0  0
 35 36  2  0  0  0  0
 35 67  1  0  0  0  0
 36 37  1  0  0  0  0
 36 41  1  0  0  0  0
 37 38  1  0  0  0  0
 37 39  1  0  0  0  0
 37 40  1  0  0  0  0
 41 68  1  0  0  0  0
 42 43  1  0  0  0  0
 42 69  1  0  0  0  0
 42 70  1  0  0  0  0
 43 71  1  0  0  0  0
 43 72  1  0  0  0  0
M  END
$$$$
