CHEMBL439068
 OpenBabel04072215383D

 45 48  0  0  0  0  0  0  0  0999 V2000
    1.2414    1.7381    2.3660 C   0  0  0  0  0  0  0  0  0  0  0  0
    0.0762    0.9007    1.9358 C   0  0  0  0  0  0  0  0  0  0  0  0
   -1.0930    1.5103    1.4660 C   0  0  0  0  0  0  0  0  0  0  0  0
   -2.1901    0.7612    1.0215 C   0  0  0  0  0  0  0  0  0  0  0  0
   -3.3806    1.3501    0.5233 N   0  0  0  0  0  0  0  0  0  0  0  0
   -3.5578    2.6984    0.2681 C   0  0  0  0  0  0  0  0  0  0  0  0
   -2.6804    3.5472    0.3677 O   0  0  0  0  0  0  0  0  0  0  0  0
   -4.8672    3.0054   -0.0851 N   0  0  0  0  0  0  0  0  0  0  0  0
   -5.2155    4.3556   -0.3456 C   0  0  0  0  0  0  0  0  0  0  0  0
   -4.3937    5.1876   -1.1062 C   0  0  0  0  0  0  0  0  0  0  0  0
   -4.6368    6.5627   -1.1629 C   0  0  0  0  0  0  0  0  0  0  0  0
   -5.7122    7.1430   -0.4699 C   0  0  0  0  0  0  0  0  0  0  0  0
   -5.8419    8.6081   -0.4047 C   0  0  0  0  0  0  0  0  0  0  0  0
   -5.4693    9.3029   -1.5287 N   0  0  0  0  0  0  0  0  0  0  0  0
   -5.5148   10.6517   -1.5443 C   0  0  0  0  0  0  0  0  0  0  0  0
   -5.9264   11.4383   -0.4864 C   0  0  0  0  0  0  0  0  0  0  0  0
   -6.2853   10.7300    0.6557 C   0  0  0  0  0  0  0  0  0  0  0  0
   -6.7229   11.1662    1.8752 N   0  0  0  0  0  0  0  0  0  0  0  0
   -6.9341   10.1908    2.7636 N   0  0  0  0  0  0  0  0  0  0  0  0
   -6.6163    9.0823    2.1012 C   0  0  0  0  0  0  0  0  0  0  0  0
   -6.6457    7.8913    2.7218 N   0  0  0  0  0  0  0  0  0  0  0  0
   -6.2394    9.3355    0.7445 C   0  0  0  0  0  0  0  0  0  0  0  0
   -6.6139    6.2627    0.1527 C   0  0  0  0  0  0  0  0  0  0  0  0
   -6.3666    4.8841    0.2314 C   0  0  0  0  0  0  0  0  0  0  0  0
   -2.1193   -0.6356    1.0906 C   0  0  0  0  0  0  0  0  0  0  0  0
   -0.9618   -1.2568    1.5736 C   0  0  0  0  0  0  0  0  0  0  0  0
    0.1240   -0.4876    1.9864 C   0  0  0  0  0  0  0  0  0  0  0  0
    1.2244   -1.1034    2.4391 F   0  0  0  0  0  0  0  0  0  0  0  0
    1.0346    2.8076    2.2361 H   0  0  0  0  0  0  0  0  0  0  0  0
    2.1239    1.5004    1.7635 H   0  0  0  0  0  0  0  0  0  0  0  0
    1.4633    1.5696    3.4242 H   0  0  0  0  0  0  0  0  0  0  0  0
   -1.1090    2.5948    1.4557 H   0  0  0  0  0  0  0  0  0  0  0  0
   -4.0994    0.7286    0.1826 H   0  0  0  0  0  0  0  0  0  0  0  0
   -5.5668    2.4434    0.3765 H   0  0  0  0  0  0  0  0  0  0  0  0
   -3.5216    4.7891   -1.6207 H   0  0  0  0  0  0  0  0  0  0  0  0
   -3.9431    7.1915   -1.7201 H   0  0  0  0  0  0  0  0  0  0  0  0
   -5.1940   11.1079   -2.4777 H   0  0  0  0  0  0  0  0  0  0  0  0
   -5.9481   12.5187   -0.5438 H   0  0  0  0  0  0  0  0  0  0  0  0
   -6.8832   12.1225    2.1699 H   0  0  0  0  0  0  0  0  0  0  0  0
   -6.7755    7.9414    3.7272 H   0  0  0  0  0  0  0  0  0  0  0  0
   -5.9608    7.1892    2.4606 H   0  0  0  0  0  0  0  0  0  0  0  0
   -7.5067    6.6524    0.6382 H   0  0  0  0  0  0  0  0  0  0  0  0
   -7.0374    4.2647    0.8191 H   0  0  0  0  0  0  0  0  0  0  0  0
   -2.9508   -1.2579    0.7702 H   0  0  0  0  0  0  0  0  0  0  0  0
   -0.8949   -2.3387    1.6289 H   0  0  0  0  0  0  0  0  0  0  0  0
  1  2  1  0  0  0  0
  1 29  1  0  0  0  0
  1 30  1  0  0  0  0
  1 31  1  0  0  0  0
  2  3  1  0  0  0  0
  2 27  2  0  0  0  0
  3  4  2  0  0  0  0
  3 32  1  0  0  0  0
  4  5  1  0  0  0  0
  4 25  1  0  0  0  0
  5  6  1  0  0  0  0
  5 33  1  0  0  0  0
  6  7  2  0  0  0  0
  6  8  1  0  0  0  0
  8  9  1  0  0  0  0
  8 34  1  0  0  0  0
  9 10  1  0  0  0  0
  9 24  2  0  0  0  0
 10 11  2  0  0  0  0
 10 35  1  0  0  0  0
 11 12  1  0  0  0  0
 11 36  1  0  0  0  0
 12 13  1  0  0  0  0
 12 23  2  0  0  0  0
 13 14  1  0  0  0  0
 13 22  2  0  0  0  0
 14 15  2  0  0  0  0
 15 16  1  0  0  0  0
 15 37  1  0  0  0  0
 16 17  2  0  0  0  0
 16 38  1  0  0  0  0
 17 18  1  0  0  0  0
 17 22  1  0  0  0  0
 18 19  1  0  0  0  0
 18 39  1  0  0  0  0
 19 20  2  0  0  0  0
 20 21  1  0  0  0  0
 20 22  1  0  0  0  0
 21 40  1  0  0  0  0
 21 41  1  0  0  0  0
 23 24  1  0  0  0  0
 23 42  1  0  0  0  0
 24 43  1  0  0  0  0
 25 26  2  0  0  0  0
 25 44  1  0  0  0  0
 26 27  1  0  0  0  0
 26 45  1  0  0  0  0
 27 28  1  0  0  0  0
M  END
$$$$
