CHEMBL4442620
 OpenBabel04072215383D

 50 52  0  0  1  0  0  0  0  0999 V2000
    5.4827    0.8417   -1.1162 C   0  0  0  0  0  0  0  0  0  0  0  0
    4.2285    0.8283   -0.2526 C   0  0  1  0  0  0  0  0  0  0  0  0
    3.1082    0.5705   -1.1049 O   0  0  0  0  0  0  0  0  0  0  0  0
    4.3000   -0.2030    0.9022 C   0  0  1  0  0  0  0  0  0  0  0  0
    3.0032   -0.1553    1.7156 C   0  0  0  0  0  0  0  0  0  0  0  0
    4.4341   -1.5170    0.3272 O   0  0  0  0  0  0  0  0  0  0  0  0
    5.1627   -2.4500    1.0378 C   0  0  0  0  0  0  0  0  0  0  0  0
    6.0982   -2.0256    1.9206 N   0  0  0  0  0  0  0  0  0  0  0  0
    6.8435   -2.9724    2.5143 C   0  0  0  0  0  0  0  0  0  0  0  0
    7.9186   -2.5942    3.3243 N   0  0  0  0  0  0  0  0  0  0  0  0
    9.0852   -3.3510    3.5584 C   0  0  0  0  0  0  0  0  0  0  0  0
    9.5898   -4.2534    2.6055 C   0  0  0  0  0  0  0  0  0  0  0  0
   10.6693   -5.0976    2.8899 C   0  0  0  0  0  0  0  0  0  0  0  0
   11.2597   -5.0543    4.1515 C   0  0  0  0  0  0  0  0  0  0  0  0
   12.6500   -6.1020    4.5336 S   0  0  3  0  0  0  0  0  0  0  0  0
   13.3622   -6.4292    3.2069 N   0  0  0  0  0  0  0  0  0  0  0  0
   13.3285   -5.4871    5.6588 O   0  0  0  0  0  0  0  0  0  0  0  0
   12.0848   -7.7038    5.1710 C   0  0  0  0  0  0  0  0  0  0  0  0
   11.2367   -8.5143    4.2248 C   0  0  0  0  0  0  0  0  0  0  0  0
   10.6254   -7.9066    5.4585 C   0  0  0  0  0  0  0  0  0  0  0  0
   10.8196   -4.1133    5.0893 C   0  0  0  0  0  0  0  0  0  0  0  0
    9.7442   -3.2618    4.7889 C   0  0  0  0  0  0  0  0  0  0  0  0
    6.6256   -4.2853    2.3464 N   0  0  0  0  0  0  0  0  0  0  0  0
    5.6996   -4.6613    1.4597 C   0  0  0  0  0  0  0  0  0  0  0  0
    4.9590   -3.7739    0.7278 C   0  0  0  0  0  0  0  0  0  0  0  0
    4.0651   -4.3079   -0.3266 C   0  0  0  0  0  0  0  0  0  0  0  0
    3.3598   -3.3892   -1.0323 F   0  0  0  0  0  0  0  0  0  0  0  0
    4.7682   -5.0223   -1.2531 F   0  0  0  0  0  0  0  0  0  0  0  0
    3.1450   -5.1820    0.1724 F   0  0  0  0  0  0  0  0  0  0  0  0
    5.3571    1.5374   -1.9537 H   0  0  0  0  0  0  0  0  0  0  0  0
    5.6784   -0.1415   -1.5560 H   0  0  0  0  0  0  0  0  0  0  0  0
    6.3570    1.1494   -0.5356 H   0  0  0  0  0  0  0  0  0  0  0  0
    4.0823    1.8303    0.1673 H   0  0  0  0  0  0  0  0  0  0  0  0
    3.1938   -0.3479   -1.4194 H   0  0  0  0  0  0  0  0  0  0  0  0
    5.1483    0.0672    1.5406 H   0  0  0  0  0  0  0  0  0  0  0  0
    2.1423   -0.4726    1.1157 H   0  0  0  0  0  0  0  0  0  0  0  0
    2.8095    0.8563    2.0888 H   0  0  0  0  0  0  0  0  0  0  0  0
    3.0543   -0.8345    2.5720 H   0  0  0  0  0  0  0  0  0  0  0  0
    8.0088   -1.5924    3.3995 H   0  0  0  0  0  0  0  0  0  0  0  0
    9.1368   -4.3138    1.6179 H   0  0  0  0  0  0  0  0  0  0  0  0
   11.0242   -5.7796    2.1209 H   0  0  0  0  0  0  0  0  0  0  0  0
   13.9119   -5.6271    2.8991 H   0  0  0  0  0  0  0  0  0  0  0  0
   12.8090   -8.2350    5.7731 H   0  0  0  0  0  0  0  0  0  0  0  0
   11.4058   -9.5860    4.2062 H   0  0  0  0  0  0  0  0  0  0  0  0
   10.9600   -8.1063    3.2611 H   0  0  0  0  0  0  0  0  0  0  0  0
   10.3678   -8.5834    6.2685 H   0  0  0  0  0  0  0  0  0  0  0  0
    9.9118   -7.1060    5.3302 H   0  0  0  0  0  0  0  0  0  0  0  0
   11.2978   -4.0366    6.0642 H   0  0  0  0  0  0  0  0  0  0  0  0
    9.3957   -2.5627    5.5455 H   0  0  0  0  0  0  0  0  0  0  0  0
    5.6016   -5.7379    1.3373 H   0  0  0  0  0  0  0  0  0  0  0  0
  1  2  1  0  0  0  0
  1 30  1  0  0  0  0
  1 31  1  0  0  0  0
  1 32  1  0  0  0  0
  2  3  1  0  0  0  0
  2  4  1  0  0  0  0
  2 33  1  1  0  0  0
  3 34  1  0  0  0  0
  4  5  1  0  0  0  0
  4  6  1  0  0  0  0
  4 35  1  1  0  0  0
  5 36  1  0  0  0  0
  5 37  1  0  0  0  0
  5 38  1  0  0  0  0
  6  7  1  0  0  0  0
  7  8  1  0  0  0  0
  7 25  2  0  0  0  0
  8  9  2  0  0  0  0
  9 10  1  0  0  0  0
  9 23  1  0  0  0  0
 10 11  1  0  0  0  0
 10 39  1  0  0  0  0
 11 12  1  0  0  0  0
 11 22  2  0  0  0  0
 12 13  2  0  0  0  0
 12 40  1  0  0  0  0
 13 14  1  0  0  0  0
 13 41  1  0  0  0  0
 14 15  1  0  0  0  0
 14 21  2  0  0  0  0
 15 16  2  0  0  0  0
 15 17  2  0  0  0  0
 15 18  1  0  0  0  0
 16 42  1  0  0  0  0
 18 19  1  0  0  0  0
 18 20  1  0  0  0  0
 18 43  1  0  0  0  0
 19 20  1  0  0  0  0
 19 44  1  0  0  0  0
 19 45  1  0  0  0  0
 20 46  1  0  0  0  0
 20 47  1  0  0  0  0
 21 22  1  0  0  0  0
 21 48  1  0  0  0  0
 22 49  1  0  0  0  0
 23 24  2  0  0  0  0
 24 25  1  0  0  0  0
 24 50  1  0  0  0  0
 25 26  1  0  0  0  0
 26 27  1  0  0  0  0
 26 28  1  0  0  0  0
 26 29  1  0  0  0  0
M  END
$$$$
