CHEMBL194270
 OpenBabel04072215363D

 44 47  0  0  0  0  0  0  0  0999 V2000
    5.3259    1.6251   -1.5695 C   0  0  0  0  0  0  0  0  0  0  0  0
    4.3402    0.8108   -0.7907 C   0  0  0  0  0  0  0  0  0  0  0  0
    4.6641   -0.8660   -0.6651 S   0  0  0  0  0  0  0  0  0  0  0  0
    3.3170   -1.1338    0.3203 C   0  0  0  0  0  0  0  0  0  0  0  0
    3.0955   -2.3719    0.7919 N   0  0  0  0  0  0  0  0  0  0  0  0
    2.0075   -2.4422    1.5500 C   0  0  0  0  0  0  0  0  0  0  0  0
    1.1597   -1.4502    1.8384 N   0  0  0  0  0  0  0  0  0  0  0  0
    1.3992   -0.2230    1.3351 C   0  0  0  0  0  0  0  0  0  0  0  0
    0.4331    0.7154    1.6694 N   0  0  0  0  0  0  0  0  0  0  0  0
    2.5539    0.0058    0.5426 C   0  0  0  0  0  0  0  0  0  0  0  0
    3.1739    1.1746   -0.1158 C   0  0  0  0  0  0  0  0  0  0  0  0
    2.7244    2.5845   -0.0414 C   0  0  0  0  0  0  0  0  0  0  0  0
    2.1910    3.0743    1.1478 C   0  0  0  0  0  0  0  0  0  0  0  0
    1.6441    4.3571    1.2254 C   0  0  0  0  0  0  0  0  0  0  0  0
    1.7251    5.2465    0.1544 C   0  0  0  0  0  0  0  0  0  0  0  0
    1.2033    6.5605    0.1947 N   0  0  0  0  0  0  0  0  0  0  0  0
    0.5482    7.1231    1.2718 C   0  0  0  0  0  0  0  0  0  0  0  0
    0.3808    6.5772    2.3566 O   0  0  0  0  0  0  0  0  0  0  0  0
    0.0396    8.3840    0.9892 N   0  0  0  0  0  0  0  0  0  0  0  0
   -0.7091    9.0389    2.0037 C   0  0  0  0  0  0  0  0  0  0  0  0
   -0.2341    9.1241    3.3186 C   0  0  0  0  0  0  0  0  0  0  0  0
   -1.0627    9.5970    4.3365 C   0  0  0  0  0  0  0  0  0  0  0  0
   -2.3678    9.9908    4.0421 C   0  0  0  0  0  0  0  0  0  0  0  0
   -2.8295    9.9561    2.7249 C   0  0  0  0  0  0  0  0  0  0  0  0
   -1.9912    9.5011    1.7104 C   0  0  0  0  0  0  0  0  0  0  0  0
   -2.4578    9.4187    0.4561 F   0  0  0  0  0  0  0  0  0  0  0  0
    2.3437    4.8038   -1.0141 C   0  0  0  0  0  0  0  0  0  0  0  0
    2.7984    3.4754   -1.1216 C   0  0  0  0  0  0  0  0  0  0  0  0
    6.2455    1.0703   -1.7894 H   0  0  0  0  0  0  0  0  0  0  0  0
    5.6186    2.5250   -1.0162 H   0  0  0  0  0  0  0  0  0  0  0  0
    4.9024    1.9182   -2.5347 H   0  0  0  0  0  0  0  0  0  0  0  0
    1.7779   -3.4113    1.9825 H   0  0  0  0  0  0  0  0  0  0  0  0
   -0.3764    0.2638    2.0808 H   0  0  0  0  0  0  0  0  0  0  0  0
    0.2387    1.4119    0.9630 H   0  0  0  0  0  0  0  0  0  0  0  0
    2.1498    2.4632    2.0477 H   0  0  0  0  0  0  0  0  0  0  0  0
    1.1613    4.6112    2.1625 H   0  0  0  0  0  0  0  0  0  0  0  0
    1.3800    7.1588   -0.5987 H   0  0  0  0  0  0  0  0  0  0  0  0
   -0.3477    8.4749    0.0594 H   0  0  0  0  0  0  0  0  0  0  0  0
    0.7681    8.7795    3.5688 H   0  0  0  0  0  0  0  0  0  0  0  0
   -0.6996    9.6173    5.3611 H   0  0  0  0  0  0  0  0  0  0  0  0
   -3.0294   10.3062    4.8460 H   0  0  0  0  0  0  0  0  0  0  0  0
   -3.8514   10.2348    2.4919 H   0  0  0  0  0  0  0  0  0  0  0  0
    2.4593    5.4663   -1.8683 H   0  0  0  0  0  0  0  0  0  0  0  0
    3.2075    3.1683   -2.0779 H   0  0  0  0  0  0  0  0  0  0  0  0
  1  2  1  0  0  0  0
  1 29  1  0  0  0  0
  1 30  1  0  0  0  0
  1 31  1  0  0  0  0
  2  3  1  0  0  0  0
  2 11  2  0  0  0  0
  3  4  1  0  0  0  0
  4  5  1  0  0  0  0
  4 10  2  0  0  0  0
  5  6  2  0  0  0  0
  6  7  1  0  0  0  0
  6 32  1  0  0  0  0
  7  8  2  0  0  0  0
  8  9  1  0  0  0  0
  8 10  1  0  0  0  0
  9 33  1  0  0  0  0
  9 34  1  0  0  0  0
 10 11  1  0  0  0  0
 11 12  1  0  0  0  0
 12 13  1  0  0  0  0
 12 28  2  0  0  0  0
 13 14  2  0  0  0  0
 13 35  1  0  0  0  0
 14 15  1  0  0  0  0
 14 36  1  0  0  0  0
 15 16  1  0  0  0  0
 15 27  2  0  0  0  0
 16 17  1  0  0  0  0
 16 37  1  0  0  0  0
 17 18  2  0  0  0  0
 17 19  1  0  0  0  0
 19 20  1  0  0  0  0
 19 38  1  0  0  0  0
 20 21  1  0  0  0  0
 20 25  2  0  0  0  0
 21 22  2  0  0  0  0
 21 39  1  0  0  0  0
 22 23  1  0  0  0  0
 22 40  1  0  0  0  0
 23 24  2  0  0  0  0
 23 41  1  0  0  0  0
 24 25  1  0  0  0  0
 24 42  1  0  0  0  0
 25 26  1  0  0  0  0
 27 28  1  0  0  0  0
 27 43  1  0  0  0  0
 28 44  1  0  0  0  0
M  END
$$$$
