CHEMBL4209569
 OpenBabel04072215383D

 44 47  0  0  0  0  0  0  0  0999 V2000
    1.1981    0.0554    0.2738 C   0  0  0  0  0  0  0  0  0  0  0  0
    2.6033    0.0049   -0.0720 N   0  0  0  0  0  0  0  0  0  0  0  0
    3.1365    1.2385   -0.4328 C   0  0  0  0  0  0  0  0  0  0  0  0
    2.6027    2.3488    0.1113 N   0  0  0  0  0  0  0  0  0  0  0  0
    3.1022    3.5540   -0.2220 C   0  0  0  0  0  0  0  0  0  0  0  0
    4.1695    3.6312   -1.1019 C   0  0  0  0  0  0  0  0  0  0  0  0
    5.0014    4.6382   -1.6635 C   0  0  0  0  0  0  0  0  0  0  0  0
    4.9573    6.0723   -1.3702 C   0  0  0  0  0  0  0  0  0  0  0  0
    4.6220    6.5237   -0.0845 C   0  0  0  0  0  0  0  0  0  0  0  0
    4.4786    7.8873    0.1882 C   0  0  0  0  0  0  0  0  0  0  0  0
    4.6974    8.8256   -0.8166 C   0  0  0  0  0  0  0  0  0  0  0  0
    4.5720   10.1807   -0.6826 O   0  0  0  0  0  0  0  0  0  0  0  0
    4.1197   10.6580    0.5798 C   0  0  0  0  0  0  0  0  0  0  0  0
    5.0833    8.3860   -2.0860 C   0  0  0  0  0  0  0  0  0  0  0  0
    5.2134    7.0198   -2.3644 C   0  0  0  0  0  0  0  0  0  0  0  0
    5.8755    4.1050   -2.5383 N   0  0  0  0  0  0  0  0  0  0  0  0
    5.6332    2.7704   -2.4809 N   0  0  0  0  0  0  0  0  0  0  0  0
    6.4946    1.8532   -3.1966 C   0  0  0  0  0  0  0  0  0  0  0  0
    6.0162    1.5608   -4.6127 C   0  0  0  0  0  0  0  0  0  0  0  0
    4.7834    0.8241   -4.6296 O   0  0  0  0  0  0  0  0  0  0  0  0
    5.1060   -0.4549   -5.1706 C   0  0  0  0  0  0  0  0  0  0  0  0
    6.3178   -0.1967   -6.0218 C   0  0  0  0  0  0  0  0  0  0  0  0
    7.0341    0.7929   -5.2876 O   0  0  0  0  0  0  0  0  0  0  0  0
    4.6203    2.4338   -1.6210 C   0  0  0  0  0  0  0  0  0  0  0  0
    4.1489    1.2089   -1.3173 N   0  0  0  0  0  0  0  0  0  0  0  0
    0.8469   -0.9519    0.5160 H   0  0  0  0  0  0  0  0  0  0  0  0
    0.5936    0.4296   -0.5605 H   0  0  0  0  0  0  0  0  0  0  0  0
    1.0153    0.6782    1.1578 H   0  0  0  0  0  0  0  0  0  0  0  0
    2.8539   -0.6411   -0.8105 H   0  0  0  0  0  0  0  0  0  0  0  0
    2.6254    4.4110    0.2365 H   0  0  0  0  0  0  0  0  0  0  0  0
    4.4715    5.8238    0.7338 H   0  0  0  0  0  0  0  0  0  0  0  0
    4.1948    8.1766    1.1947 H   0  0  0  0  0  0  0  0  0  0  0  0
    4.0314   11.7465    0.5155 H   0  0  0  0  0  0  0  0  0  0  0  0
    4.8439   10.4280    1.3685 H   0  0  0  0  0  0  0  0  0  0  0  0
    3.1294   10.2587    0.8250 H   0  0  0  0  0  0  0  0  0  0  0  0
    5.2747    9.1133   -2.8714 H   0  0  0  0  0  0  0  0  0  0  0  0
    5.5011    6.7027   -3.3645 H   0  0  0  0  0  0  0  0  0  0  0  0
    6.5743    0.9314   -2.6096 H   0  0  0  0  0  0  0  0  0  0  0  0
    7.4969    2.2981   -3.2220 H   0  0  0  0  0  0  0  0  0  0  0  0
    5.8584    2.4873   -5.1769 H   0  0  0  0  0  0  0  0  0  0  0  0
    4.2622   -0.8584   -5.7369 H   0  0  0  0  0  0  0  0  0  0  0  0
    5.3346   -1.1287   -4.3386 H   0  0  0  0  0  0  0  0  0  0  0  0
    6.0480    0.2251   -6.9957 H   0  0  0  0  0  0  0  0  0  0  0  0
    6.9343   -1.0868   -6.1738 H   0  0  0  0  0  0  0  0  0  0  0  0
  1  2  1  0  0  0  0
  1 26  1  0  0  0  0
  1 27  1  0  0  0  0
  1 28  1  0  0  0  0
  2  3  1  0  0  0  0
  2 29  1  0  0  0  0
  3  4  1  0  0  0  0
  3 25  2  0  0  0  0
  4  5  2  0  0  0  0
  5  6  1  0  0  0  0
  5 30  1  0  0  0  0
  6  7  1  0  0  0  0
  6 24  2  0  0  0  0
  7  8  1  0  0  0  0
  7 16  2  0  0  0  0
  8  9  1  0  0  0  0
  8 15  2  0  0  0  0
  9 10  2  0  0  0  0
  9 31  1  0  0  0  0
 10 11  1  0  0  0  0
 10 32  1  0  0  0  0
 11 12  1  0  0  0  0
 11 14  2  0  0  0  0
 12 13  1  0  0  0  0
 13 33  1  0  0  0  0
 13 34  1  0  0  0  0
 13 35  1  0  0  0  0
 14 15  1  0  0  0  0
 14 36  1  0  0  0  0
 15 37  1  0  0  0  0
 16 17  1  0  0  0  0
 17 18  1  0  0  0  0
 17 24  1  0  0  0  0
 18 19  1  0  0  0  0
 18 38  1  0  0  0  0
 18 39  1  0  0  0  0
 19 20  1  0  0  0  0
 19 23  1  0  0  0  0
 19 40  1  0  0  0  0
 20 21  1  0  0  0  0
 21 22  1  0  0  0  0
 21 41  1  0  0  0  0
 21 42  1  0  0  0  0
 22 23  1  0  0  0  0
 22 43  1  0  0  0  0
 22 44  1  0  0  0  0
 24 25  1  0  0  0  0
M  END
$$$$
