CHEMBL428961
 OpenBabel04072215383D

 56 60  0  0  0  0  0  0  0  0999 V2000
    5.0647   -1.8741    0.4309 C   0  0  0  0  0  0  0  0  0  0  0  0
    3.9317   -1.0567    0.7262 O   0  0  0  0  0  0  0  0  0  0  0  0
    4.2025    0.2032    1.1882 C   0  0  0  0  0  0  0  0  0  0  0  0
    5.4029    0.8692    0.8911 C   0  0  0  0  0  0  0  0  0  0  0  0
    5.7672    2.0646    1.4977 C   0  0  0  0  0  0  0  0  0  0  0  0
    7.0022    2.5364    1.2606 N   0  0  0  0  0  0  0  0  0  0  0  0
    7.4123    3.6267    1.9373 C   0  0  0  0  0  0  0  0  0  0  0  0
    6.6461    4.2670    2.8857 C   0  0  0  0  0  0  0  0  0  0  0  0
    5.3619    3.7853    3.1323 C   0  0  0  0  0  0  0  0  0  0  0  0
    4.7257    4.4662    4.1615 O   0  0  0  0  0  0  0  0  0  0  0  0
    3.8005    3.8356    4.9600 C   0  0  0  0  0  0  0  0  0  0  0  0
    3.8764    2.5041    5.3455 C   0  0  0  0  0  0  0  0  0  0  0  0
    2.7223    1.8693    5.8185 C   0  0  0  0  0  0  0  0  0  0  0  0
    1.5211    2.5734    6.1012 C   0  0  0  0  0  0  0  0  0  0  0  0
    0.2805    1.9984    6.5127 C   0  0  0  0  0  0  0  0  0  0  0  0
    0.0075    0.5323    6.6130 C   0  0  0  0  0  0  0  0  0  0  0  0
   -1.0981    0.1093    6.2826 O   0  0  0  0  0  0  0  0  0  0  0  0
    1.0088   -0.2705    7.1233 N   0  0  0  0  0  0  0  0  0  0  0  0
    0.8352   -1.6828    7.3528 C   0  0  0  0  0  0  0  0  0  0  0  0
    0.3819   -2.0128    8.7509 C   0  0  0  0  0  0  0  0  0  0  0  0
    1.7964   -2.6522    6.6948 C   0  0  0  0  0  0  0  0  0  0  0  0
    0.3785   -2.5800    6.2206 C   0  0  0  0  0  0  0  0  0  0  0  0
   -0.8292    2.8200    6.7903 C   0  0  0  0  0  0  0  0  0  0  0  0
   -0.7460    4.1991    6.6528 C   0  0  0  0  0  0  0  0  0  0  0  0
    0.4346    4.7729    6.1958 C   0  0  0  0  0  0  0  0  0  0  0  0
    1.5563    3.9811    5.8952 C   0  0  0  0  0  0  0  0  0  0  0  0
    2.6826    4.5883    5.3164 C   0  0  0  0  0  0  0  0  0  0  0  0
    4.8604    2.6923    2.3679 C   0  0  0  0  0  0  0  0  0  0  0  0
    3.5560    2.1472    2.4333 C   0  0  0  0  0  0  0  0  0  0  0  0
    3.2501    0.8696    1.9539 C   0  0  0  0  0  0  0  0  0  0  0  0
    2.0189    0.4533    2.3748 O   0  0  0  0  0  0  0  0  0  0  0  0
    1.6955   -0.9275    2.3451 C   0  0  0  0  0  0  0  0  0  0  0  0
    4.7843   -2.9175    0.6021 H   0  0  0  0  0  0  0  0  0  0  0  0
    5.9274   -1.6679    1.0760 H   0  0  0  0  0  0  0  0  0  0  0  0
    5.3360   -1.7581   -0.6227 H   0  0  0  0  0  0  0  0  0  0  0  0
    6.1228    0.4322    0.2045 H   0  0  0  0  0  0  0  0  0  0  0  0
    8.4188    3.9640    1.7066 H   0  0  0  0  0  0  0  0  0  0  0  0
    7.0443    5.1111    3.4368 H   0  0  0  0  0  0  0  0  0  0  0  0
    4.7598    1.9051    5.1337 H   0  0  0  0  0  0  0  0  0  0  0  0
    2.7719    0.7862    5.8771 H   0  0  0  0  0  0  0  0  0  0  0  0
    1.7828    0.1799    7.5950 H   0  0  0  0  0  0  0  0  0  0  0  0
    1.0568   -1.5495    9.4792 H   0  0  0  0  0  0  0  0  0  0  0  0
    0.3742   -3.0910    8.9400 H   0  0  0  0  0  0  0  0  0  0  0  0
   -0.6276   -1.6270    8.9241 H   0  0  0  0  0  0  0  0  0  0  0  0
    2.0912   -3.5473    7.2314 H   0  0  0  0  0  0  0  0  0  0  0  0
    2.5630   -2.2660    6.0337 H   0  0  0  0  0  0  0  0  0  0  0  0
   -0.2955   -3.3961    6.4548 H   0  0  0  0  0  0  0  0  0  0  0  0
    0.1882   -2.1341    5.2504 H   0  0  0  0  0  0  0  0  0  0  0  0
   -1.7750    2.3739    7.0969 H   0  0  0  0  0  0  0  0  0  0  0  0
   -1.6117    4.8218    6.8637 H   0  0  0  0  0  0  0  0  0  0  0  0
    0.4649    5.8516    6.0502 H   0  0  0  0  0  0  0  0  0  0  0  0
    2.6667    5.6480    5.0655 H   0  0  0  0  0  0  0  0  0  0  0  0
    2.7657    2.6748    2.9603 H   0  0  0  0  0  0  0  0  0  0  0  0
    0.8804   -1.0859    3.0603 H   0  0  0  0  0  0  0  0  0  0  0  0
    2.5203   -1.5727    2.6633 H   0  0  0  0  0  0  0  0  0  0  0  0
    1.3235   -1.1993    1.3543 H   0  0  0  0  0  0  0  0  0  0  0  0
  1  2  1  0  0  0  0
  1 33  1  0  0  0  0
  1 34  1  0  0  0  0
  1 35  1  0  0  0  0
  2  3  1  0  0  0  0
  3  4  1  0  0  0  0
  3 30  2  0  0  0  0
  4  5  2  0  0  0  0
  4 36  1  0  0  0  0
  5  6  1  0  0  0  0
  5 28  1  0  0  0  0
  6  7  2  0  0  0  0
  7  8  1  0  0  0  0
  7 37  1  0  0  0  0
  8  9  2  0  0  0  0
  8 38  1  0  0  0  0
  9 10  1  0  0  0  0
  9 28  1  0  0  0  0
 10 11  1  0  0  0  0
 11 12  1  0  0  0  0
 11 27  2  0  0  0  0
 12 13  2  0  0  0  0
 12 39  1  0  0  0  0
 13 14  1  0  0  0  0
 13 40  1  0  0  0  0
 14 15  1  0  0  0  0
 14 26  2  0  0  0  0
 15 16  1  0  0  0  0
 15 23  2  0  0  0  0
 16 17  2  0  0  0  0
 16 18  1  0  0  0  0
 18 19  1  0  0  0  0
 18 41  1  0  0  0  0
 19 20  1  0  0  0  0
 19 21  1  0  0  0  0
 19 22  1  0  0  0  0
 20 42  1  0  0  0  0
 20 43  1  0  0  0  0
 20 44  1  0  0  0  0
 21 22  1  0  0  0  0
 21 45  1  0  0  0  0
 21 46  1  0  0  0  0
 22 47  1  0  0  0  0
 22 48  1  0  0  0  0
 23 24  1  0  0  0  0
 23 49  1  0  0  0  0
 24 25  2  0  0  0  0
 24 50  1  0  0  0  0
 25 26  1  0  0  0  0
 25 51  1  0  0  0  0
 26 27  1  0  0  0  0
 27 52  1  0  0  0  0
 28 29  2  0  0  0  0
 29 30  1  0  0  0  0
 29 53  1  0  0  0  0
 30 31  1  0  0  0  0
 31 32  1  0  0  0  0
 32 54  1  0  0  0  0
 32 55  1  0  0  0  0
 32 56  1  0  0  0  0
M  END
$$$$
