CHEMBL3660284
 OpenBabel04072215373D

 59 62  0  0  0  0  0  0  0  0999 V2000
    2.7957    0.7637   -2.4061 C   0  0  0  0  0  0  0  0  0  0  0  0
    1.3902    0.4933   -1.9510 C   0  0  0  0  0  0  0  0  0  0  0  0
    0.8775   -0.8054   -2.0211 C   0  0  0  0  0  0  0  0  0  0  0  0
   -0.4101   -1.0675   -1.5716 C   0  0  0  0  0  0  0  0  0  0  0  0
   -1.1987   -0.0354   -1.0679 C   0  0  0  0  0  0  0  0  0  0  0  0
   -2.3684   -0.4039   -0.5310 F   0  0  0  0  0  0  0  0  0  0  0  0
   -0.7425    1.2923   -1.0411 C   0  0  0  0  0  0  0  0  0  0  0  0
   -1.5194    2.4090   -0.6250 N   0  0  0  0  0  0  0  0  0  0  0  0
   -2.9037    2.4377   -0.5671 C   0  0  0  0  0  0  0  0  0  0  0  0
   -3.6383    1.5163   -0.9033 O   0  0  0  0  0  0  0  0  0  0  0  0
   -3.4031    3.6667   -0.1491 N   0  0  0  0  0  0  0  0  0  0  0  0
   -4.8067    3.7839    0.0454 C   0  0  0  0  0  0  0  0  0  0  0  0
   -5.4862    2.8440    0.8291 C   0  0  0  0  0  0  0  0  0  0  0  0
   -6.8793    2.8545    0.9035 C   0  0  0  0  0  0  0  0  0  0  0  0
   -7.6094    3.8454    0.2465 C   0  0  0  0  0  0  0  0  0  0  0  0
   -8.9902    3.9148    0.2508 O   0  0  0  0  0  0  0  0  0  0  0  0
   -9.6843    3.5209    1.3765 C   0  0  0  0  0  0  0  0  0  0  0  0
   -9.2149    3.7161    2.6706 C   0  0  0  0  0  0  0  0  0  0  0  0
   -9.9756    3.2444    3.7167 C   0  0  0  0  0  0  0  0  0  0  0  0
  -11.1799    2.6570    3.5585 N   0  0  0  0  0  0  0  0  0  0  0  0
  -11.6639    2.5339    2.2976 C   0  0  0  0  0  0  0  0  0  0  0  0
  -12.9973    1.9374    2.2239 C   0  0  0  0  0  0  0  0  0  0  0  0
  -13.7550    1.7662    1.0814 C   0  0  0  0  0  0  0  0  0  0  0  0
  -14.9548    1.2025    1.4374 N   0  0  0  0  0  0  0  0  0  0  0  0
  -15.0217    1.0341    2.8028 C   0  0  0  0  0  0  0  0  0  0  0  0
  -16.2144    0.5578    3.4579 C   0  0  0  0  0  0  0  0  0  0  0  0
  -17.2604    0.2970    2.8793 O   0  0  0  0  0  0  0  0  0  0  0  0
  -16.0378    0.5134    4.8066 O   0  0  0  0  0  0  0  0  0  0  0  0
  -17.2475    0.4939    5.5874 C   0  0  0  0  0  0  0  0  0  0  0  0
  -17.9264   -0.8731    5.6145 C   0  0  0  0  0  0  0  0  0  0  0  0
  -17.0794   -1.8451    6.2200 O   0  0  0  0  0  0  0  0  0  0  0  0
  -13.8032    1.4591    3.3047 C   0  0  0  0  0  0  0  0  0  0  0  0
  -10.9475    2.9521    1.1798 C   0  0  0  0  0  0  0  0  0  0  0  0
   -6.9310    4.7952   -0.5266 C   0  0  0  0  0  0  0  0  0  0  0  0
   -5.5298    4.7824   -0.6092 C   0  0  0  0  0  0  0  0  0  0  0  0
    0.5775    1.5361   -1.4587 C   0  0  0  0  0  0  0  0  0  0  0  0
    3.2871   -0.1560   -2.7449 H   0  0  0  0  0  0  0  0  0  0  0  0
    3.3893    1.1702   -1.5818 H   0  0  0  0  0  0  0  0  0  0  0  0
    2.7966    1.4684   -3.2428 H   0  0  0  0  0  0  0  0  0  0  0  0
    1.4791   -1.6248   -2.4073 H   0  0  0  0  0  0  0  0  0  0  0  0
   -0.8133   -2.0752   -1.5910 H   0  0  0  0  0  0  0  0  0  0  0  0
   -1.0417    3.2878   -0.4983 H   0  0  0  0  0  0  0  0  0  0  0  0
   -2.9510    4.4619   -0.5788 H   0  0  0  0  0  0  0  0  0  0  0  0
   -4.9359    2.0682    1.3571 H   0  0  0  0  0  0  0  0  0  0  0  0
   -7.3720    2.0670    1.4669 H   0  0  0  0  0  0  0  0  0  0  0  0
   -8.2633    4.2004    2.8723 H   0  0  0  0  0  0  0  0  0  0  0  0
   -9.6285    3.3205    4.7432 H   0  0  0  0  0  0  0  0  0  0  0  0
  -13.5630    2.0013    0.0434 H   0  0  0  0  0  0  0  0  0  0  0  0
  -15.7141    0.9785    0.8053 H   0  0  0  0  0  0  0  0  0  0  0  0
  -17.9326    1.2667    5.2200 H   0  0  0  0  0  0  0  0  0  0  0  0
  -16.9519    0.7741    6.6045 H   0  0  0  0  0  0  0  0  0  0  0  0
  -18.1887   -1.2316    4.6163 H   0  0  0  0  0  0  0  0  0  0  0  0
  -18.8444   -0.8155    6.2081 H   0  0  0  0  0  0  0  0  0  0  0  0
  -16.2720   -1.8892    5.6774 H   0  0  0  0  0  0  0  0  0  0  0  0
  -13.5226    1.4706    4.3516 H   0  0  0  0  0  0  0  0  0  0  0  0
  -11.3376    2.8437    0.1770 H   0  0  0  0  0  0  0  0  0  0  0  0
   -7.4955    5.5322   -1.0933 H   0  0  0  0  0  0  0  0  0  0  0  0
   -5.0309    5.5031   -1.2505 H   0  0  0  0  0  0  0  0  0  0  0  0
    0.9836    2.5447   -1.4307 H   0  0  0  0  0  0  0  0  0  0  0  0
  1  2  1  0  0  0  0
  1 37  1  0  0  0  0
  1 38  1  0  0  0  0
  1 39  1  0  0  0  0
  2  3  1  0  0  0  0
  2 36  2  0  0  0  0
  3  4  2  0  0  0  0
  3 40  1  0  0  0  0
  4  5  1  0  0  0  0
  4 41  1  0  0  0  0
  5  6  1  0  0  0  0
  5  7  2  0  0  0  0
  7  8  1  0  0  0  0
  7 36  1  0  0  0  0
  8  9  1  0  0  0  0
  8 42  1  0  0  0  0
  9 10  2  0  0  0  0
  9 11  1  0  0  0  0
 11 12  1  0  0  0  0
 11 43  1  0  0  0  0
 12 13  1  0  0  0  0
 12 35  2  0  0  0  0
 13 14  2  0  0  0  0
 13 44  1  0  0  0  0
 14 15  1  0  0  0  0
 14 45  1  0  0  0  0
 15 16  1  0  0  0  0
 15 34  2  0  0  0  0
 16 17  1  0  0  0  0
 17 18  1  0  0  0  0
 17 33  2  0  0  0  0
 18 19  2  0  0  0  0
 18 46  1  0  0  0  0
 19 20  1  0  0  0  0
 19 47  1  0  0  0  0
 20 21  2  0  0  0  0
 21 22  1  0  0  0  0
 21 33  1  0  0  0  0
 22 23  2  0  0  0  0
 22 32  1  0  0  0  0
 23 24  1  0  0  0  0
 23 48  1  0  0  0  0
 24 25  1  0  0  0  0
 24 49  1  0  0  0  0
 25 26  1  0  0  0  0
 25 32  2  0  0  0  0
 26 27  2  0  0  0  0
 26 28  1  0  0  0  0
 28 29  1  0  0  0  0
 29 30  1  0  0  0  0
 29 50  1  0  0  0  0
 29 51  1  0  0  0  0
 30 31  1  0  0  0  0
 30 52  1  0  0  0  0
 30 53  1  0  0  0  0
 31 54  1  0  0  0  0
 32 55  1  0  0  0  0
 33 56  1  0  0  0  0
 34 35  1  0  0  0  0
 34 57  1  0  0  0  0
 35 58  1  0  0  0  0
 36 59  1  0  0  0  0
M  END
$$$$
