CHEMBL1688351
 OpenBabel04072215363D

 52 57  0  0  0  0  0  0  0  0999 V2000
    0.7212    1.2389    0.0270 C   0  0  0  0  0  0  0  0  0  0  0  0
   -0.6410    1.0825    0.1276 C   0  0  0  0  0  0  0  0  0  0  0  0
   -1.2497   -0.1204    0.2060 N   0  0  0  0  0  0  0  0  0  0  0  0
   -0.5006   -1.2532    0.1526 C   0  0  0  0  0  0  0  0  0  0  0  0
   -1.1973   -2.4780    0.1778 N   0  0  0  0  0  0  0  0  0  0  0  0
   -2.4623   -2.3921    0.9055 C   0  0  0  0  0  0  0  0  0  0  0  0
   -3.1665   -3.7307    0.8918 C   0  0  0  0  0  0  0  0  0  0  0  0
   -3.4737   -4.3983    2.0908 C   0  0  0  0  0  0  0  0  0  0  0  0
   -4.1990   -5.5970    2.1022 C   0  0  0  0  0  0  0  0  0  0  0  0
   -4.6118   -6.1036    0.8675 C   0  0  0  0  0  0  0  0  0  0  0  0
   -5.3440   -7.2117    0.5300 N   0  0  0  0  0  0  0  0  0  0  0  0
   -5.5384   -7.3616   -0.7923 N   0  0  0  0  0  0  0  0  0  0  0  0
   -4.9187   -6.3016   -1.3174 C   0  0  0  0  0  0  0  0  0  0  0  0
   -4.3194   -5.4774   -0.3393 C   0  0  0  0  0  0  0  0  0  0  0  0
   -3.5852   -4.2827   -0.3341 C   0  0  0  0  0  0  0  0  0  0  0  0
    0.8933   -1.1887   -0.0119 C   0  0  0  0  0  0  0  0  0  0  0  0
    1.7856   -2.3316   -0.1516 C   0  0  0  0  0  0  0  0  0  0  0  0
    3.1034   -2.3403   -0.1564 N   0  0  0  0  0  0  0  0  0  0  0  0
    3.4817   -3.6219   -0.4648 N   0  0  0  0  0  0  0  0  0  0  0  0
    2.3797   -4.3211   -0.6305 C   0  0  0  0  0  0  0  0  0  0  0  0
    2.1617   -5.5853   -1.0427 N   0  0  0  0  0  0  0  0  0  0  0  0
    3.0486   -6.3483   -1.8338 C   0  0  0  0  0  0  0  0  0  0  0  0
    2.5373   -7.4298   -2.5724 C   0  0  0  0  0  0  0  0  0  0  0  0
    3.3608   -8.1888   -3.4129 C   0  0  0  0  0  0  0  0  0  0  0  0
    4.7159   -7.8918   -3.5102 C   0  0  0  0  0  0  0  0  0  0  0  0
    5.2440   -6.8298   -2.7772 C   0  0  0  0  0  0  0  0  0  0  0  0
    4.4226   -6.0825   -1.9313 C   0  0  0  0  0  0  0  0  0  0  0  0
    6.5639   -6.4590   -2.8312 O   0  0  0  0  0  0  0  0  0  0  0  0
    7.2219   -7.0338   -3.9643 C   0  0  0  0  0  0  0  0  0  0  0  0
    6.8690   -8.5051   -4.0982 C   0  0  0  0  0  0  0  0  0  0  0  0
    5.4679   -8.6745   -4.3470 O   0  0  0  0  0  0  0  0  0  0  0  0
    1.2551   -3.5734   -0.3908 O   0  0  0  0  0  0  0  0  0  0  0  0
    1.4920    0.0880   -0.0364 C   0  0  0  0  0  0  0  0  0  0  0  0
    1.1743    2.2229   -0.0162 H   0  0  0  0  0  0  0  0  0  0  0  0
   -1.3056    1.9413    0.1460 H   0  0  0  0  0  0  0  0  0  0  0  0
   -0.6146   -3.2191    0.5539 H   0  0  0  0  0  0  0  0  0  0  0  0
   -3.1485   -1.6601    0.4607 H   0  0  0  0  0  0  0  0  0  0  0  0
   -2.2700   -2.0888    1.9430 H   0  0  0  0  0  0  0  0  0  0  0  0
   -3.1630   -3.9725    3.0436 H   0  0  0  0  0  0  0  0  0  0  0  0
   -4.4440   -6.0945    3.0353 H   0  0  0  0  0  0  0  0  0  0  0  0
   -5.7462   -7.9008    1.1551 H   0  0  0  0  0  0  0  0  0  0  0  0
   -4.9305   -6.1642   -2.3914 H   0  0  0  0  0  0  0  0  0  0  0  0
   -3.3607   -3.7695   -1.2663 H   0  0  0  0  0  0  0  0  0  0  0  0
    1.1906   -5.8550   -1.1351 H   0  0  0  0  0  0  0  0  0  0  0  0
    1.4812   -7.6839   -2.5193 H   0  0  0  0  0  0  0  0  0  0  0  0
    2.9431   -9.0107   -3.9876 H   0  0  0  0  0  0  0  0  0  0  0  0
    4.8861   -5.2791   -1.3678 H   0  0  0  0  0  0  0  0  0  0  0  0
    8.3003   -6.9151   -3.8141 H   0  0  0  0  0  0  0  0  0  0  0  0
    6.9381   -6.4660   -4.8590 H   0  0  0  0  0  0  0  0  0  0  0  0
    7.1295   -9.0629   -3.1902 H   0  0  0  0  0  0  0  0  0  0  0  0
    7.4119   -8.9482   -4.9388 H   0  0  0  0  0  0  0  0  0  0  0  0
    2.5737    0.1854   -0.1250 H   0  0  0  0  0  0  0  0  0  0  0  0
  1  2  1  0  0  0  0
  1 33  2  0  0  0  0
  1 34  1  0  0  0  0
  2  3  2  0  0  0  0
  2 35  1  0  0  0  0
  3  4  1  0  0  0  0
  4  5  1  0  0  0  0
  4 16  2  0  0  0  0
  5  6  1  0  0  0  0
  5 36  1  0  0  0  0
  6  7  1  0  0  0  0
  6 37  1  0  0  0  0
  6 38  1  0  0  0  0
  7  8  1  0  0  0  0
  7 15  2  0  0  0  0
  8  9  2  0  0  0  0
  8 39  1  0  0  0  0
  9 10  1  0  0  0  0
  9 40  1  0  0  0  0
 10 11  1  0  0  0  0
 10 14  2  0  0  0  0
 11 12  1  0  0  0  0
 11 41  1  0  0  0  0
 12 13  2  0  0  0  0
 13 14  1  0  0  0  0
 13 42  1  0  0  0  0
 14 15  1  0  0  0  0
 15 43  1  0  0  0  0
 16 17  1  0  0  0  0
 16 33  1  0  0  0  0
 17 18  2  0  0  0  0
 17 32  1  0  0  0  0
 18 19  1  0  0  0  0
 19 20  2  0  0  0  0
 20 21  1  0  0  0  0
 20 32  1  0  0  0  0
 21 22  1  0  0  0  0
 21 44  1  0  0  0  0
 22 23  1  0  0  0  0
 22 27  2  0  0  0  0
 23 24  2  0  0  0  0
 23 45  1  0  0  0  0
 24 25  1  0  0  0  0
 24 46  1  0  0  0  0
 25 26  2  0  0  0  0
 25 31  1  0  0  0  0
 26 27  1  0  0  0  0
 26 28  1  0  0  0  0
 27 47  1  0  0  0  0
 28 29  1  0  0  0  0
 29 30  1  0  0  0  0
 29 48  1  0  0  0  0
 29 49  1  0  0  0  0
 30 31  1  0  0  0  0
 30 50  1  0  0  0  0
 30 51  1  0  0  0  0
 33 52  1  0  0  0  0
M  END
$$$$
