CHEMBL3927875
 OpenBabel04072215373D

 63 65  0  0  0  0  0  0  0  0999 V2000
   10.3119    3.2769    2.8330 C   0  0  0  0  0  0  0  0  0  0  0  0
    8.9322    3.4062    2.8961 O   0  0  0  0  0  0  0  0  0  0  0  0
    7.8053    2.7446    2.8127 C   0  0  0  0  0  0  0  0  0  0  0  0
    6.7521    3.4140    2.9616 C   0  0  0  0  0  0  0  0  0  0  0  0
    5.5860    2.8012    3.1866 C   0  0  0  0  0  0  0  0  0  0  0  0
    4.5542    3.5932    3.4680 O   0  0  0  0  0  0  0  0  0  0  0  0
    3.2953    3.0624    3.7178 C   0  0  0  0  0  0  0  0  0  0  0  0
    5.5153    1.4069    3.1311 C   0  0  0  0  0  0  0  0  0  0  0  0
    6.6185    0.6467    2.7254 C   0  0  0  0  0  0  0  0  0  0  0  0
    6.4839   -0.7954    2.4755 N   0  0  0  0  0  0  0  0  0  0  0  0
    5.2137   -1.3727    1.9917 C   0  0  0  0  0  0  0  0  0  0  0  0
    4.5896   -2.4142    2.8962 C   0  0  0  0  0  0  0  0  0  0  0  0
    3.4049   -2.9751    2.4828 O   0  0  0  0  0  0  0  0  0  0  0  0
    7.5074   -1.7439    2.9821 C   0  0  0  0  0  0  0  0  0  0  0  0
    7.6343   -2.8457    2.1872 C   0  0  0  0  0  0  0  0  0  0  0  0
    8.4470   -3.7571    2.4599 C   0  0  0  0  0  0  0  0  0  0  0  0
    9.1763   -3.7727    3.4660 C   0  0  0  0  0  0  0  0  0  0  0  0
    9.5543   -4.8766    3.5680 N   0  0  0  0  0  0  0  0  0  0  0  0
    9.8803   -5.9402    3.6383 C   0  0  0  0  0  0  0  0  0  0  0  0
   11.0514   -5.7211    4.3667 C   0  0  0  0  0  0  0  0  0  0  0  0
   11.8982   -7.3578    3.8961 C   0  0  0  0  0  0  0  0  0  0  0  0
   13.3694   -7.5575    3.7863 C   0  0  0  0  0  0  0  0  0  0  0  0
   13.7390   -8.5744    2.9006 N   0  0  0  0  0  0  0  0  0  0  0  0
   12.6350   -9.1220    2.4208 N   0  0  0  0  0  0  0  0  0  0  0  0
   12.6322  -10.2339    1.3932 C   0  0  0  0  0  0  0  0  0  0  0  0
   13.3741  -11.4350    1.9633 C   0  0  0  0  0  0  0  0  0  0  0  0
   12.7522  -11.9702    3.2300 C   0  0  0  0  0  0  0  0  0  0  0  0
   13.5226  -13.1127    3.7061 N   0  0  0  0  0  0  0  0  0  0  0  0
   11.5202   -8.4597    2.9902 C   0  0  0  0  0  0  0  0  0  0  0  0
   10.8441   -4.0674    5.0465 N   0  0  0  0  0  0  0  0  0  0  0  0
    9.5919   -3.0196    4.4588 C   0  0  0  0  0  0  0  0  0  0  0  0
    8.4443   -1.6818    4.2150 C   0  0  0  0  0  0  0  0  0  0  0  0
    7.8139    1.4153    2.6753 C   0  0  0  0  0  0  0  0  0  0  0  0
    2.1806    1.6557   -1.2372 Cl  0  0  0  0  0  0  0  0  0  0  0  0
   11.0816    3.8701    3.5210 H   0  0  0  0  0  0  0  0  0  0  0  0
   10.3535    4.0632    2.0980 H   0  0  0  0  0  0  0  0  0  0  0  0
   10.5958    2.3521    3.3400 H   0  0  0  0  0  0  0  0  0  0  0  0
    6.9383    4.4512    2.9973 H   0  0  0  0  0  0  0  0  0  0  0  0
    2.6094    3.8581    3.9546 H   0  0  0  0  0  0  0  0  0  0  0  0
    3.3311    2.3331    4.5716 H   0  0  0  0  0  0  0  0  0  0  0  0
    2.9300    2.5047    2.8194 H   0  0  0  0  0  0  0  0  0  0  0  0
    4.6189    0.9376    3.3819 H   0  0  0  0  0  0  0  0  0  0  0  0
    5.3490   -1.8743    1.0135 H   0  0  0  0  0  0  0  0  0  0  0  0
    4.5170   -0.5481    1.9366 H   0  0  0  0  0  0  0  0  0  0  0  0
    4.3335   -1.7990    3.8138 H   0  0  0  0  0  0  0  0  0  0  0  0
    5.3195   -3.2831    2.9208 H   0  0  0  0  0  0  0  0  0  0  0  0
    2.7816   -2.2173    2.5103 H   0  0  0  0  0  0  0  0  0  0  0  0
    7.1099   -3.1748    1.3273 H   0  0  0  0  0  0  0  0  0  0  0  0
    8.6371   -4.5999    1.8018 H   0  0  0  0  0  0  0  0  0  0  0  0
    9.1734   -6.7276    2.9024 H   0  0  0  0  0  0  0  0  0  0  0  0
   14.1757   -6.9730    4.1543 H   0  0  0  0  0  0  0  0  0  0  0  0
   13.1518   -9.9164    0.4544 H   0  0  0  0  0  0  0  0  0  0  0  0
   11.6021  -10.5740    1.0848 H   0  0  0  0  0  0  0  0  0  0  0  0
   14.4197  -11.1325    2.1728 H   0  0  0  0  0  0  0  0  0  0  0  0
   13.3731  -12.2355    1.1952 H   0  0  0  0  0  0  0  0  0  0  0  0
   11.7069  -12.2673    3.0199 H   0  0  0  0  0  0  0  0  0  0  0  0
   12.7600  -11.1724    3.9946 H   0  0  0  0  0  0  0  0  0  0  0  0
   13.4959  -13.8692    2.9838 H   0  0  0  0  0  0  0  0  0  0  0  0
   13.0696  -13.4770    4.5729 H   0  0  0  0  0  0  0  0  0  0  0  0
   10.5860   -8.7161    2.6284 H   0  0  0  0  0  0  0  0  0  0  0  0
    8.0245   -0.6924    4.7194 H   0  0  0  0  0  0  0  0  0  0  0  0
    8.8295    1.1942    2.5597 H   0  0  0  0  0  0  0  0  0  0  0  0
    2.2350    0.5487   -0.8680 H   0  0  0  0  0  0  0  0  0  0  0  0
  1  2  1  0  0  0  0
  1 35  1  0  0  0  0
  1 36  1  0  0  0  0
  1 37  1  0  0  0  0
  2  3  1  0  0  0  0
  3  4  1  0  0  0  0
  3 33  2  0  0  0  0
  4  5  2  0  0  0  0
  4 38  1  0  0  0  0
  5  6  1  0  0  0  0
  5  8  1  0  0  0  0
  6  7  1  0  0  0  0
  7 39  1  0  0  0  0
  7 40  1  0  0  0  0
  7 41  1  0  0  0  0
  8  9  2  0  0  0  0
  8 42  1  0  0  0  0
  9 10  1  0  0  0  0
  9 33  1  0  0  0  0
 10 11  1  0  0  0  0
 10 14  1  0  0  0  0
 11 12  1  0  0  0  0
 11 43  1  0  0  0  0
 11 44  1  0  0  0  0
 12 13  1  0  0  0  0
 12 45  1  0  0  0  0
 12 46  1  0  0  0  0
 13 47  1  0  0  0  0
 14 15  1  0  0  0  0
 14 32  2  0  0  0  0
 15 16  2  0  0  0  0
 15 48  1  0  0  0  0
 16 17  1  0  0  0  0
 16 49  1  0  0  0  0
 17 18  1  0  0  0  0
 17 31  2  0  0  0  0
 18 19  2  0  0  0  0
 19 20  1  0  0  0  0
 19 50  1  0  0  0  0
 20 21  1  0  0  0  0
 20 30  2  0  0  0  0
 21 22  1  0  0  0  0
 21 29  2  0  0  0  0
 22 23  2  0  0  0  0
 22 51  1  0  0  0  0
 23 24  1  0  0  0  0
 24 25  1  0  0  0  0
 24 29  1  0  0  0  0
 25 26  1  0  0  0  0
 25 52  1  0  0  0  0
 25 53  1  0  0  0  0
 26 27  1  0  0  0  0
 26 54  1  0  0  0  0
 26 55  1  0  0  0  0
 27 28  1  0  0  0  0
 27 56  1  0  0  0  0
 27 57  1  0  0  0  0
 28 58  1  0  0  0  0
 28 59  1  0  0  0  0
 29 60  1  0  0  0  0
 30 31  1  0  0  0  0
 31 32  1  0  0  0  0
 32 61  1  0  0  0  0
 33 62  1  0  0  0  0
 34 63  1  0  0  0  0
M  END
$$$$
