CHEMBL379080
 OpenBabel04072215373D

 92 96  0  0  0  0  0  0  0  0999 V2000
    0.9766   -0.9422    0.0017 C   0  0  0  0  0  0  0  0  0  0  0  0
    2.3936   -0.8036   -0.0114 O   0  0  0  0  0  0  0  0  0  0  0  0
    3.0050   -0.7501   -1.2347 C   0  0  0  0  0  0  0  0  0  0  0  0
    2.3664   -0.8369   -2.4690 C   0  0  0  0  0  0  0  0  0  0  0  0
    3.1132   -0.7925   -3.6539 C   0  0  0  0  0  0  0  0  0  0  0  0
    4.5130   -0.6620   -3.6252 C   0  0  0  0  0  0  0  0  0  0  0  0
    5.2675   -0.6879   -4.8297 N   0  0  0  0  0  0  0  0  0  0  0  0
    6.2475   -1.6494   -5.0994 C   0  0  0  0  0  0  0  0  0  0  0  0
    7.1741   -1.4734   -5.8906 O   0  0  0  0  0  0  0  0  0  0  0  0
    6.0322   -2.8548   -4.4198 O   0  0  0  0  0  0  0  0  0  0  0  0
    6.4345   -4.1452   -4.8895 C   0  0  0  0  0  0  0  0  0  0  0  0
    6.2197   -4.5977   -6.2074 C   0  0  0  0  0  0  0  0  0  0  0  0
    5.8225   -3.7721   -7.3996 C   0  0  0  0  0  0  0  0  0  0  0  0
    6.3525   -5.9760   -6.4692 C   0  0  0  0  0  0  0  0  0  0  0  0
    6.7205   -6.8774   -5.4762 C   0  0  0  0  0  0  0  0  0  0  0  0
    6.9889   -6.4141   -4.1959 C   0  0  0  0  0  0  0  0  0  0  0  0
    6.8464   -5.0520   -3.8821 C   0  0  0  0  0  0  0  0  0  0  0  0
    7.1700   -4.5989   -2.4858 C   0  0  0  0  0  0  0  0  0  0  0  0
    4.7473    0.0488   -5.9223 C   0  0  0  0  0  0  0  0  0  0  0  0
    4.8074    1.4264   -5.8747 C   0  0  0  0  0  0  0  0  0  0  0  0
    4.3701    2.0827   -6.9921 C   0  0  0  0  0  0  0  0  0  0  0  0
    3.8802    1.4423   -8.0558 N   0  0  0  0  0  0  0  0  0  0  0  0
    3.7941    0.1040   -8.0045 C   0  0  0  0  0  0  0  0  0  0  0  0
    3.2002   -0.5726   -9.0616 N   0  0  0  0  0  0  0  0  0  0  0  0
    3.2102   -0.2200  -10.4104 C   0  0  0  0  0  0  0  0  0  0  0  0
    4.2272    0.5616  -10.9615 C   0  0  0  0  0  0  0  0  0  0  0  0
    4.1791    1.0074  -12.2796 C   0  0  0  0  0  0  0  0  0  0  0  0
    3.0786    0.6924  -13.0851 C   0  0  0  0  0  0  0  0  0  0  0  0
    2.9160    1.2255  -14.3306 O   0  0  0  0  0  0  0  0  0  0  0  0
    4.0926    1.5132  -15.0835 C   0  0  0  0  0  0  0  0  0  0  0  0
    3.6204    2.0502  -16.4275 C   0  0  0  0  0  0  0  0  0  0  0  0
    4.7987    2.4155  -17.3284 C   0  0  0  0  0  0  0  0  0  0  0  0
    4.3734    2.9087  -18.6440 N   0  0  0  0  0  0  0  0  0  0  0  0
    3.5885    4.1573  -18.5721 C   0  0  0  0  0  0  0  0  0  0  0  0
    3.1833    4.6675  -19.9748 C   0  0  0  0  0  0  0  0  0  0  0  0
    4.3041    4.8621  -20.9142 N   0  0  0  0  0  0  0  0  0  0  0  0
    5.0830    6.0510  -20.5790 C   0  0  0  0  0  0  0  0  0  0  0  0
    5.1390    3.6436  -20.9210 C   0  0  0  0  0  0  0  0  0  0  0  0
    5.5424    3.1155  -19.5231 C   0  0  0  0  0  0  0  0  0  0  0  0
    2.0501   -0.1022  -12.5563 C   0  0  0  0  0  0  0  0  0  0  0  0
    0.8858   -0.4732  -13.1838 O   0  0  0  0  0  0  0  0  0  0  0  0
    0.9354   -0.6077  -14.5976 C   0  0  0  0  0  0  0  0  0  0  0  0
    2.1251   -0.5490  -11.2287 C   0  0  0  0  0  0  0  0  0  0  0  0
    4.2075   -0.6254   -6.9557 N   0  0  0  0  0  0  0  0  0  0  0  0
    5.1429   -0.5008   -2.3804 C   0  0  0  0  0  0  0  0  0  0  0  0
    6.4809   -0.2239   -2.2147 O   0  0  0  0  0  0  0  0  0  0  0  0
    6.9371    0.8914   -2.9830 C   0  0  0  0  0  0  0  0  0  0  0  0
    4.3933   -0.5799   -1.1977 C   0  0  0  0  0  0  0  0  0  0  0  0
    0.6524   -0.9952    1.0462 H   0  0  0  0  0  0  0  0  0  0  0  0
    0.6601   -1.8685   -0.4889 H   0  0  0  0  0  0  0  0  0  0  0  0
    0.4935   -0.0700   -0.4520 H   0  0  0  0  0  0  0  0  0  0  0  0
    1.2905   -0.9572   -2.5503 H   0  0  0  0  0  0  0  0  0  0  0  0
    2.5855   -0.9136   -4.5979 H   0  0  0  0  0  0  0  0  0  0  0  0
    5.8676   -2.7044   -7.2609 H   0  0  0  0  0  0  0  0  0  0  0  0
    4.8058   -4.0231   -7.7105 H   0  0  0  0  0  0  0  0  0  0  0  0
    6.5101   -3.9945   -8.2304 H   0  0  0  0  0  0  0  0  0  0  0  0
    6.1520   -6.3577   -7.4696 H   0  0  0  0  0  0  0  0  0  0  0  0
    6.8000   -7.9371   -5.7061 H   0  0  0  0  0  0  0  0  0  0  0  0
    7.2929   -7.1285   -3.4341 H   0  0  0  0  0  0  0  0  0  0  0  0
    7.3556   -5.4570   -1.8251 H   0  0  0  0  0  0  0  0  0  0  0  0
    6.3465   -4.0285   -2.0527 H   0  0  0  0  0  0  0  0  0  0  0  0
    8.0815   -3.9925   -2.4948 H   0  0  0  0  0  0  0  0  0  0  0  0
    5.2208    1.9769   -5.0501 H   0  0  0  0  0  0  0  0  0  0  0  0
    4.4126    3.1631   -7.0722 H   0  0  0  0  0  0  0  0  0  0  0  0
    2.8583   -1.4841   -8.8087 H   0  0  0  0  0  0  0  0  0  0  0  0
    5.0880    0.8491  -10.3528 H   0  0  0  0  0  0  0  0  0  0  0  0
    4.9848    1.6414  -12.6238 H   0  0  0  0  0  0  0  0  0  0  0  0
    4.6845    0.6002  -15.2180 H   0  0  0  0  0  0  0  0  0  0  0  0
    4.6957    2.2859  -14.5955 H   0  0  0  0  0  0  0  0  0  0  0  0
    2.9862    2.9218  -16.2282 H   0  0  0  0  0  0  0  0  0  0  0  0
    2.9742    1.3097  -16.9159 H   0  0  0  0  0  0  0  0  0  0  0  0
    5.3974    1.5063  -17.4725 H   0  0  0  0  0  0  0  0  0  0  0  0
    5.4436    3.1475  -16.8262 H   0  0  0  0  0  0  0  0  0  0  0  0
    4.1494    4.9352  -18.0383 H   0  0  0  0  0  0  0  0  0  0  0  0
    2.6576    3.9928  -18.0203 H   0  0  0  0  0  0  0  0  0  0  0  0
    2.6058    5.5949  -19.8750 H   0  0  0  0  0  0  0  0  0  0  0  0
    2.4915    3.9392  -20.4197 H   0  0  0  0  0  0  0  0  0  0  0  0
    4.4439    6.9411  -20.5937 H   0  0  0  0  0  0  0  0  0  0  0  0
    5.8626    6.2165  -21.3305 H   0  0  0  0  0  0  0  0  0  0  0  0
    5.5631    5.9957  -19.5970 H   0  0  0  0  0  0  0  0  0  0  0  0
    6.0395    3.8064  -21.5258 H   0  0  0  0  0  0  0  0  0  0  0  0
    4.5763    2.8542  -21.4373 H   0  0  0  0  0  0  0  0  0  0  0  0
    6.2530    3.8118  -19.0592 H   0  0  0  0  0  0  0  0  0  0  0  0
    6.0686    2.1631  -19.6601 H   0  0  0  0  0  0  0  0  0  0  0  0
    0.0656   -1.1985  -14.9018 H   0  0  0  0  0  0  0  0  0  0  0  0
    1.8311   -1.1468  -14.9259 H   0  0  0  0  0  0  0  0  0  0  0  0
    0.8452    0.3649  -15.0891 H   0  0  0  0  0  0  0  0  0  0  0  0
    1.2971   -1.1248  -10.8233 H   0  0  0  0  0  0  0  0  0  0  0  0
    7.7263    1.4076   -2.4326 H   0  0  0  0  0  0  0  0  0  0  0  0
    6.1448    1.6261   -3.1690 H   0  0  0  0  0  0  0  0  0  0  0  0
    7.3743    0.5468   -3.9249 H   0  0  0  0  0  0  0  0  0  0  0  0
    4.8920   -0.4782   -0.2368 H   0  0  0  0  0  0  0  0  0  0  0  0
  1  2  1  0  0  0  0
  1 49  1  0  0  0  0
  1 50  1  0  0  0  0
  1 51  1  0  0  0  0
  2  3  1  0  0  0  0
  3  4  1  0  0  0  0
  3 48  2  0  0  0  0
  4  5  2  0  0  0  0
  4 52  1  0  0  0  0
  5  6  1  0  0  0  0
  5 53  1  0  0  0  0
  6  7  1  0  0  0  0
  6 45  2  0  0  0  0
  7  8  1  0  0  0  0
  7 19  1  0  0  0  0
  8  9  2  0  0  0  0
  8 10  1  0  0  0  0
 10 11  1  0  0  0  0
 11 12  1  0  0  0  0
 11 17  2  0  0  0  0
 12 13  1  0  0  0  0
 12 14  2  0  0  0  0
 13 54  1  0  0  0  0
 13 55  1  0  0  0  0
 13 56  1  0  0  0  0
 14 15  1  0  0  0  0
 14 57  1  0  0  0  0
 15 16  2  0  0  0  0
 15 58  1  0  0  0  0
 16 17  1  0  0  0  0
 16 59  1  0  0  0  0
 17 18  1  0  0  0  0
 18 60  1  0  0  0  0
 18 61  1  0  0  0  0
 18 62  1  0  0  0  0
 19 20  1  0  0  0  0
 19 44  2  0  0  0  0
 20 21  2  0  0  0  0
 20 63  1  0  0  0  0
 21 22  1  0  0  0  0
 21 64  1  0  0  0  0
 22 23  2  0  0  0  0
 23 24  1  0  0  0  0
 23 44  1  0  0  0  0
 24 25  1  0  0  0  0
 24 65  1  0  0  0  0
 25 26  1  0  0  0  0
 25 43  2  0  0  0  0
 26 27  2  0  0  0  0
 26 66  1  0  0  0  0
 27 28  1  0  0  0  0
 27 67  1  0  0  0  0
 28 29  1  0  0  0  0
 28 40  2  0  0  0  0
 29 30  1  0  0  0  0
 30 31  1  0  0  0  0
 30 68  1  0  0  0  0
 30 69  1  0  0  0  0
 31 32  1  0  0  0  0
 31 70  1  0  0  0  0
 31 71  1  0  0  0  0
 32 33  1  0  0  0  0
 32 72  1  0  0  0  0
 32 73  1  0  0  0  0
 33 34  1  0  0  0  0
 33 39  1  0  0  0  0
 34 35  1  0  0  0  0
 34 74  1  0  0  0  0
 34 75  1  0  0  0  0
 35 36  1  0  0  0  0
 35 76  1  0  0  0  0
 35 77  1  0  0  0  0
 36 37  1  0  0  0  0
 36 38  1  0  0  0  0
 37 78  1  0  0  0  0
 37 79  1  0  0  0  0
 37 80  1  0  0  0  0
 38 39  1  0  0  0  0
 38 81  1  0  0  0  0
 38 82  1  0  0  0  0
 39 83  1  0  0  0  0
 39 84  1  0  0  0  0
 40 41  1  0  0  0  0
 40 43  1  0  0  0  0
 41 42  1  0  0  0  0
 42 85  1  0  0  0  0
 42 86  1  0  0  0  0
 42 87  1  0  0  0  0
 43 88  1  0  0  0  0
 45 46  1  0  0  0  0
 45 48  1  0  0  0  0
 46 47  1  0  0  0  0
 47 89  1  0  0  0  0
 47 90  1  0  0  0  0
 47 91  1  0  0  0  0
 48 92  1  0  0  0  0
M  END
$$$$
