CHEMBL185592
 OpenBabel04072215363D

 65 70  0  0  1  0  0  0  0  0999 V2000
    3.2791   -1.7134   -0.0404 O   0  0  0  0  0  0  0  0  0  0  0  0
    4.2129   -1.4376    0.7163 C   0  0  0  0  0  0  0  0  0  0  0  0
    4.9548   -2.4680    1.2102 N   0  0  0  0  0  0  0  0  0  0  0  0
    6.0409   -2.3985    2.0832 C   0  0  0  0  0  0  0  0  0  0  0  0
    6.6856   -3.5959    2.4168 C   0  0  0  0  0  0  0  0  0  0  0  0
    7.7689   -3.5917    3.2954 C   0  0  0  0  0  0  0  0  0  0  0  0
    8.2101   -2.3926    3.8443 C   0  0  0  0  0  0  0  0  0  0  0  0
    7.5681   -1.1996    3.5109 C   0  0  0  0  0  0  0  0  0  0  0  0
    6.4787   -1.1924    2.6274 C   0  0  0  0  0  0  0  0  0  0  0  0
    5.7132    0.3628    2.2890 S   0  0  0  0  0  0  0  0  0  0  0  0
    4.5589   -0.0207    1.0643 C   0  0  0  0  0  0  0  0  0  0  0  0
    3.9038    0.9325    0.3763 C   0  0  0  0  0  0  0  0  0  0  0  0
    4.0611    2.3429    0.5068 C   0  0  0  0  0  0  0  0  0  0  0  0
    4.8901    3.0961   -0.2915 C   0  0  0  0  0  0  0  0  0  0  0  0
    4.7254    4.4029    0.0740 N   0  0  0  0  0  0  0  0  0  0  0  0
    3.7811    4.5117    1.0779 C   0  0  0  0  0  0  0  0  0  0  0  0
    3.2564    5.6625    1.6991 C   0  0  0  0  0  0  0  0  0  0  0  0
    3.7460    6.9976    1.2477 C   0  0  0  0  0  0  0  0  0  0  0  0
    4.0719    7.0866    0.0595 O   0  0  0  0  0  0  0  0  0  0  0  0
    3.8919    8.0827    2.1256 N   0  0  0  0  0  0  0  0  0  0  0  0
    4.1466    9.3812    1.5040 C   0  0  0  0  0  0  0  0  0  0  0  0
    4.9408   10.3242    2.3930 C   0  0  0  0  0  0  0  0  0  0  0  0
    4.3790   10.4837    3.8189 C   0  0  3  0  0  0  0  0  0  0  0  0
    3.2409   11.4175    4.0322 N   0  0  0  0  0  0  0  0  0  0  0  0
    3.5975   12.7910    3.6439 C   0  0  0  0  0  0  0  0  0  0  0  0
    2.4838   13.8060    3.8927 C   0  0  0  0  0  0  0  0  0  0  0  0
    1.2140   13.3743    3.1790 C   0  0  0  0  0  0  0  0  0  0  0  0
    0.8042   12.0102    3.7042 C   0  0  0  0  0  0  0  0  0  0  0  0
    1.9313   10.9860    3.5420 C   0  0  0  0  0  0  0  0  0  0  0  0
    4.1974    9.0805    4.4158 C   0  0  0  0  0  0  0  0  0  0  0  0
    3.4596    8.0918    3.5211 C   0  0  0  0  0  0  0  0  0  0  0  0
    2.2241    5.4484    2.6264 C   0  0  0  0  0  0  0  0  0  0  0  0
    1.8363    4.1633    3.0073 C   0  0  0  0  0  0  0  0  0  0  0  0
    2.4048    3.0397    2.4022 C   0  0  0  0  0  0  0  0  0  0  0  0
    3.3672    3.2165    1.3889 C   0  0  0  0  0  0  0  0  0  0  0  0
    4.6560   -3.3740    0.8715 H   0  0  0  0  0  0  0  0  0  0  0  0
    6.3535   -4.5419    1.9972 H   0  0  0  0  0  0  0  0  0  0  0  0
    8.2659   -4.5242    3.5525 H   0  0  0  0  0  0  0  0  0  0  0  0
    9.0504   -2.3821    4.5342 H   0  0  0  0  0  0  0  0  0  0  0  0
    7.9233   -0.2699    3.9522 H   0  0  0  0  0  0  0  0  0  0  0  0
    3.1723    0.6346   -0.3729 H   0  0  0  0  0  0  0  0  0  0  0  0
    5.5662    2.8239   -1.0890 H   0  0  0  0  0  0  0  0  0  0  0  0
    5.1598    5.2074   -0.3648 H   0  0  0  0  0  0  0  0  0  0  0  0
    3.1846    9.8041    1.2061 H   0  0  0  0  0  0  0  0  0  0  0  0
    4.7049    9.2482    0.5707 H   0  0  0  0  0  0  0  0  0  0  0  0
    5.0721   11.2859    1.8897 H   0  0  0  0  0  0  0  0  0  0  0  0
    5.9557    9.9107    2.4841 H   0  0  0  0  0  0  0  0  0  0  0  0
    5.1967   10.9234    4.4099 H   0  0  0  0  0  0  0  0  0  0  0  0
    3.8598   12.8426    2.5822 H   0  0  0  0  0  0  0  0  0  0  0  0
    4.4772   13.1130    4.2149 H   0  0  0  0  0  0  0  0  0  0  0  0
    2.7970   14.7911    3.5301 H   0  0  0  0  0  0  0  0  0  0  0  0
    2.2948   13.9019    4.9691 H   0  0  0  0  0  0  0  0  0  0  0  0
    1.3906   13.3220    2.0969 H   0  0  0  0  0  0  0  0  0  0  0  0
    0.4137   14.1024    3.3439 H   0  0  0  0  0  0  0  0  0  0  0  0
   -0.0835   11.6590    3.1644 H   0  0  0  0  0  0  0  0  0  0  0  0
    0.5242   12.0900    4.7616 H   0  0  0  0  0  0  0  0  0  0  0  0
    1.9717   10.7260    2.4852 H   0  0  0  0  0  0  0  0  0  0  0  0
    1.6089   10.1032    4.1005 H   0  0  0  0  0  0  0  0  0  0  0  0
    3.7145    9.1317    5.3985 H   0  0  0  0  0  0  0  0  0  0  0  0
    5.1992    8.6662    4.5987 H   0  0  0  0  0  0  0  0  0  0  0  0
    2.3886    8.2872    3.5202 H   0  0  0  0  0  0  0  0  0  0  0  0
    3.6130    7.1021    3.9543 H   0  0  0  0  0  0  0  0  0  0  0  0
    1.6854    6.2823    3.0616 H   0  0  0  0  0  0  0  0  0  0  0  0
    1.0659    4.0325    3.7638 H   0  0  0  0  0  0  0  0  0  0  0  0
    2.0796    2.0430    2.6858 H   0  0  0  0  0  0  0  0  0  0  0  0
  1  2  2  0  0  0  0
  2  3  1  0  0  0  0
  2 11  1  0  0  0  0
  3  4  1  0  0  0  0
  3 36  1  0  0  0  0
  4  5  1  0  0  0  0
  4  9  2  0  0  0  0
  5  6  2  0  0  0  0
  5 37  1  0  0  0  0
  6  7  1  0  0  0  0
  6 38  1  0  0  0  0
  7  8  2  0  0  0  0
  7 39  1  0  0  0  0
  8  9  1  0  0  0  0
  8 40  1  0  0  0  0
  9 10  1  0  0  0  0
 10 11  1  0  0  0  0
 11 12  2  0  0  0  0
 12 13  1  0  0  0  0
 12 41  1  0  0  0  0
 13 14  2  0  0  0  0
 13 35  1  0  0  0  0
 14 15  1  0  0  0  0
 14 42  1  0  0  0  0
 15 16  1  0  0  0  0
 15 43  1  0  0  0  0
 16 17  1  0  0  0  0
 16 35  2  0  0  0  0
 17 18  1  0  0  0  0
 17 32  2  0  0  0  0
 18 19  2  0  0  0  0
 18 20  1  0  0  0  0
 20 21  1  0  0  0  0
 20 31  1  0  0  0  0
 21 22  1  0  0  0  0
 21 44  1  0  0  0  0
 21 45  1  0  0  0  0
 22 23  1  0  0  0  0
 22 46  1  0  0  0  0
 22 47  1  0  0  0  0
 23 24  1  0  0  0  0
 23 30  1  0  0  0  0
 23 48  1  0  0  0  0
 24 25  1  0  0  0  0
 24 29  1  0  0  0  0
 25 26  1  0  0  0  0
 25 49  1  0  0  0  0
 25 50  1  0  0  0  0
 26 27  1  0  0  0  0
 26 51  1  0  0  0  0
 26 52  1  0  0  0  0
 27 28  1  0  0  0  0
 27 53  1  0  0  0  0
 27 54  1  0  0  0  0
 28 29  1  0  0  0  0
 28 55  1  0  0  0  0
 28 56  1  0  0  0  0
 29 57  1  0  0  0  0
 29 58  1  0  0  0  0
 30 31  1  0  0  0  0
 30 59  1  0  0  0  0
 30 60  1  0  0  0  0
 31 61  1  0  0  0  0
 31 62  1  0  0  0  0
 32 33  1  0  0  0  0
 32 63  1  0  0  0  0
 33 34  2  0  0  0  0
 33 64  1  0  0  0  0
 34 35  1  0  0  0  0
 34 65  1  0  0  0  0
M  END
$$$$
