CHEMBL4085974
 OpenBabel04072215383D

 46 49  0  0  0  0  0  0  0  0999 V2000
   -1.0783    2.1941   -3.3696 C   0  0  0  0  0  0  0  0  0  0  0  0
   -1.3179    1.0201   -2.4865 C   0  0  0  0  0  0  0  0  0  0  0  0
   -1.7072   -0.1177   -3.0873 N   0  0  0  0  0  0  0  0  0  0  0  0
   -1.8747   -0.9752   -2.0731 N   0  0  0  0  0  0  0  0  0  0  0  0
   -1.6028   -0.4500   -0.8502 C   0  0  0  0  0  0  0  0  0  0  0  0
   -1.7055   -1.1256    0.3085 N   0  0  0  0  0  0  0  0  0  0  0  0
   -1.3681   -0.3846    1.3786 C   0  0  0  0  0  0  0  0  0  0  0  0
   -0.9536    0.9375    1.3392 C   0  0  0  0  0  0  0  0  0  0  0  0
   -0.8598    1.6211    0.1087 C   0  0  0  0  0  0  0  0  0  0  0  0
   -0.3903    3.0150    0.0520 C   0  0  0  0  0  0  0  0  0  0  0  0
    0.5229    3.4118   -0.9220 C   0  0  0  0  0  0  0  0  0  0  0  0
    0.9138    4.7420   -1.0663 C   0  0  0  0  0  0  0  0  0  0  0  0
    0.5002    5.7193   -0.1644 C   0  0  0  0  0  0  0  0  0  0  0  0
    0.8942    7.0745   -0.2716 N   0  0  0  0  0  0  0  0  0  0  0  0
    1.6317    7.6109   -1.3118 C   0  0  0  0  0  0  0  0  0  0  0  0
    2.0867    7.0007   -2.2664 O   0  0  0  0  0  0  0  0  0  0  0  0
    1.7814    8.9762   -1.2006 N   0  0  0  0  0  0  0  0  0  0  0  0
    2.4745    9.6641   -2.2807 C   0  0  0  0  0  0  0  0  0  0  0  0
    2.6401   11.1571   -2.0285 C   0  0  0  0  0  0  0  0  0  0  0  0
    2.7782   11.7897   -3.4129 C   0  0  0  0  0  0  0  0  0  0  0  0
    2.2932   10.7528   -4.4209 C   0  0  0  0  0  0  0  0  0  0  0  0
    1.6929    9.6273   -3.5972 C   0  0  0  0  0  0  0  0  0  0  0  0
   -0.3332    5.3290    0.8848 C   0  0  0  0  0  0  0  0  0  0  0  0
   -0.7855    3.9963    0.9796 C   0  0  0  0  0  0  0  0  0  0  0  0
   -1.2115    0.8708   -1.0552 C   0  0  0  0  0  0  0  0  0  0  0  0
   -1.4063    1.9893   -4.3958 H   0  0  0  0  0  0  0  0  0  0  0  0
   -0.0135    2.4275   -3.4423 H   0  0  0  0  0  0  0  0  0  0  0  0
   -1.6264    3.0719   -3.0179 H   0  0  0  0  0  0  0  0  0  0  0  0
   -2.1808   -1.9187   -2.2702 H   0  0  0  0  0  0  0  0  0  0  0  0
   -1.4346   -0.9090    2.3295 H   0  0  0  0  0  0  0  0  0  0  0  0
   -0.6808    1.4271    2.2701 H   0  0  0  0  0  0  0  0  0  0  0  0
    0.9553    2.6859   -1.6017 H   0  0  0  0  0  0  0  0  0  0  0  0
    1.5564    4.9605   -1.9117 H   0  0  0  0  0  0  0  0  0  0  0  0
    0.5186    7.7250    0.4016 H   0  0  0  0  0  0  0  0  0  0  0  0
    1.9553    9.3100   -0.2615 H   0  0  0  0  0  0  0  0  0  0  0  0
    3.4598    9.1988   -2.4158 H   0  0  0  0  0  0  0  0  0  0  0  0
    3.5106   11.3677   -1.3985 H   0  0  0  0  0  0  0  0  0  0  0  0
    1.7616   11.5701   -1.5183 H   0  0  0  0  0  0  0  0  0  0  0  0
    3.8205   12.0564   -3.6216 H   0  0  0  0  0  0  0  0  0  0  0  0
    2.1877   12.7098   -3.4760 H   0  0  0  0  0  0  0  0  0  0  0  0
    3.1404   10.3789   -5.0078 H   0  0  0  0  0  0  0  0  0  0  0  0
    1.5651   11.1691   -5.1244 H   0  0  0  0  0  0  0  0  0  0  0  0
    1.7788    8.6683   -4.1190 H   0  0  0  0  0  0  0  0  0  0  0  0
    0.6260    9.8112   -3.4220 H   0  0  0  0  0  0  0  0  0  0  0  0
   -0.6601    6.0444    1.6337 H   0  0  0  0  0  0  0  0  0  0  0  0
   -1.4590    3.7394    1.7973 H   0  0  0  0  0  0  0  0  0  0  0  0
  1  2  1  0  0  0  0
  1 26  1  0  0  0  0
  1 27  1  0  0  0  0
  1 28  1  0  0  0  0
  2  3  2  0  0  0  0
  2 25  1  0  0  0  0
  3  4  1  0  0  0  0
  4  5  1  0  0  0  0
  4 29  1  0  0  0  0
  5  6  1  0  0  0  0
  5 25  2  0  0  0  0
  6  7  2  0  0  0  0
  7  8  1  0  0  0  0
  7 30  1  0  0  0  0
  8  9  2  0  0  0  0
  8 31  1  0  0  0  0
  9 10  1  0  0  0  0
  9 25  1  0  0  0  0
 10 11  1  0  0  0  0
 10 24  2  0  0  0  0
 11 12  2  0  0  0  0
 11 32  1  0  0  0  0
 12 13  1  0  0  0  0
 12 33  1  0  0  0  0
 13 14  1  0  0  0  0
 13 23  2  0  0  0  0
 14 15  1  0  0  0  0
 14 34  1  0  0  0  0
 15 16  2  0  0  0  0
 15 17  1  0  0  0  0
 17 18  1  0  0  0  0
 17 35  1  0  0  0  0
 18 19  1  0  0  0  0
 18 22  1  0  0  0  0
 18 36  1  0  0  0  0
 19 20  1  0  0  0  0
 19 37  1  0  0  0  0
 19 38  1  0  0  0  0
 20 21  1  0  0  0  0
 20 39  1  0  0  0  0
 20 40  1  0  0  0  0
 21 22  1  0  0  0  0
 21 41  1  0  0  0  0
 21 42  1  0  0  0  0
 22 43  1  0  0  0  0
 22 44  1  0  0  0  0
 23 24  1  0  0  0  0
 23 45  1  0  0  0  0
 24 46  1  0  0  0  0
M  END
$$$$
