CHEMBL3919864
 OpenBabel04072215373D

 54 57  0  0  0  0  0  0  0  0999 V2000
    2.4903   -0.2335   -0.0321 C   0  0  0  0  0  0  0  0  0  0  0  0
    0.9981   -0.0912    0.0345 C   0  0  0  0  0  0  0  0  0  0  0  0
    0.4222    1.1846    0.0064 C   0  0  0  0  0  0  0  0  0  0  0  0
   -0.9609    1.3709    0.0758 C   0  0  0  0  0  0  0  0  0  0  0  0
   -1.5647    2.6546    0.0584 N   0  0  0  0  0  0  0  0  0  0  0  0
   -0.9065    3.8578   -0.1420 C   0  0  0  0  0  0  0  0  0  0  0  0
    0.2764    3.9863   -0.4377 O   0  0  0  0  0  0  0  0  0  0  0  0
   -1.7384    4.9470    0.0895 N   0  0  0  0  0  0  0  0  0  0  0  0
   -1.2321    6.2660   -0.0372 C   0  0  0  0  0  0  0  0  0  0  0  0
   -1.4698    7.1766    0.9888 C   0  0  0  0  0  0  0  0  0  0  0  0
   -0.9130    8.4497    0.9117 C   0  0  0  0  0  0  0  0  0  0  0  0
   -1.0876    9.3031    1.9285 F   0  0  0  0  0  0  0  0  0  0  0  0
   -0.1706    8.8528   -0.1939 C   0  0  0  0  0  0  0  0  0  0  0  0
    0.0389    7.9642   -1.2550 C   0  0  0  0  0  0  0  0  0  0  0  0
    0.7936    8.3901   -2.4893 C   0  0  0  0  0  0  0  0  0  0  0  0
    1.1718    9.7002   -2.4639 F   0  0  0  0  0  0  0  0  0  0  0  0
    1.9346    7.6784   -2.6912 F   0  0  0  0  0  0  0  0  0  0  0  0
    0.0525    8.2460   -3.6235 F   0  0  0  0  0  0  0  0  0  0  0  0
   -0.4828    6.6606   -1.1545 C   0  0  0  0  0  0  0  0  0  0  0  0
   -1.7798    0.2418    0.2023 C   0  0  0  0  0  0  0  0  0  0  0  0
   -1.2214   -1.0473    0.2122 C   0  0  0  0  0  0  0  0  0  0  0  0
   -1.9479   -2.2036    0.4209 O   0  0  0  0  0  0  0  0  0  0  0  0
   -3.1885   -2.3492   -0.1905 C   0  0  0  0  0  0  0  0  0  0  0  0
   -4.0224   -3.3220    0.3286 C   0  0  0  0  0  0  0  0  0  0  0  0
   -5.2383   -3.4676   -0.3031 C   0  0  0  0  0  0  0  0  0  0  0  0
   -6.1394   -4.4506    0.1469 N   0  0  0  0  0  0  0  0  0  0  0  0
   -7.3573   -4.6937   -0.4498 C   0  0  0  0  0  0  0  0  0  0  0  0
   -7.8521   -4.0921   -1.3963 O   0  0  0  0  0  0  0  0  0  0  0  0
   -8.1422   -5.8112    0.1660 C   0  0  0  0  0  0  0  0  0  0  0  0
   -9.3086   -6.4083   -0.5992 C   0  0  0  0  0  0  0  0  0  0  0  0
   -9.5663   -5.5531    0.6062 C   0  0  0  0  0  0  0  0  0  0  0  0
   -5.5805   -2.7026   -1.3463 N   0  0  0  0  0  0  0  0  0  0  0  0
   -4.6962   -1.8094   -1.7848 C   0  0  0  0  0  0  0  0  0  0  0  0
   -3.4915   -1.5930   -1.2589 N   0  0  0  0  0  0  0  0  0  0  0  0
    0.1656   -1.2084    0.1310 C   0  0  0  0  0  0  0  0  0  0  0  0
    2.9845    0.7453   -0.0293 H   0  0  0  0  0  0  0  0  0  0  0  0
    2.7840   -0.7518   -0.9493 H   0  0  0  0  0  0  0  0  0  0  0  0
    2.8569   -0.7858    0.8383 H   0  0  0  0  0  0  0  0  0  0  0  0
    1.0997    2.0295   -0.0627 H   0  0  0  0  0  0  0  0  0  0  0  0
   -2.5745    2.6822    0.0525 H   0  0  0  0  0  0  0  0  0  0  0  0
   -2.4153    4.7950    0.8235 H   0  0  0  0  0  0  0  0  0  0  0  0
   -2.0224    6.9023    1.8802 H   0  0  0  0  0  0  0  0  0  0  0  0
    0.2363    9.8612   -0.2168 H   0  0  0  0  0  0  0  0  0  0  0  0
   -0.3019    5.9545   -1.9662 H   0  0  0  0  0  0  0  0  0  0  0  0
   -2.8551    0.3593    0.2958 H   0  0  0  0  0  0  0  0  0  0  0  0
   -3.7201   -3.9230    1.1721 H   0  0  0  0  0  0  0  0  0  0  0  0
   -5.8668   -5.0169    0.9414 H   0  0  0  0  0  0  0  0  0  0  0  0
   -7.5683   -6.5134    0.7624 H   0  0  0  0  0  0  0  0  0  0  0  0
   -9.4897   -7.4731   -0.5196 H   0  0  0  0  0  0  0  0  0  0  0  0
   -9.5546   -5.9947   -1.5719 H   0  0  0  0  0  0  0  0  0  0  0  0
   -9.9299   -6.0411    1.5016 H   0  0  0  0  0  0  0  0  0  0  0  0
   -9.9836   -4.5655    0.4375 H   0  0  0  0  0  0  0  0  0  0  0  0
   -4.9891   -1.2062   -2.6353 H   0  0  0  0  0  0  0  0  0  0  0  0
    0.5969   -2.2061    0.1534 H   0  0  0  0  0  0  0  0  0  0  0  0
  1  2  1  0  0  0  0
  1 36  1  0  0  0  0
  1 37  1  0  0  0  0
  1 38  1  0  0  0  0
  2  3  1  0  0  0  0
  2 35  2  0  0  0  0
  3  4  2  0  0  0  0
  3 39  1  0  0  0  0
  4  5  1  0  0  0  0
  4 20  1  0  0  0  0
  5  6  1  0  0  0  0
  5 40  1  0  0  0  0
  6  7  2  0  0  0  0
  6  8  1  0  0  0  0
  8  9  1  0  0  0  0
  8 41  1  0  0  0  0
  9 10  1  0  0  0  0
  9 19  2  0  0  0  0
 10 11  2  0  0  0  0
 10 42  1  0  0  0  0
 11 12  1  0  0  0  0
 11 13  1  0  0  0  0
 13 14  2  0  0  0  0
 13 43  1  0  0  0  0
 14 15  1  0  0  0  0
 14 19  1  0  0  0  0
 15 16  1  0  0  0  0
 15 17  1  0  0  0  0
 15 18  1  0  0  0  0
 19 44  1  0  0  0  0
 20 21  2  0  0  0  0
 20 45  1  0  0  0  0
 21 22  1  0  0  0  0
 21 35  1  0  0  0  0
 22 23  1  0  0  0  0
 23 24  1  0  0  0  0
 23 34  2  0  0  0  0
 24 25  2  0  0  0  0
 24 46  1  0  0  0  0
 25 26  1  0  0  0  0
 25 32  1  0  0  0  0
 26 27  1  0  0  0  0
 26 47  1  0  0  0  0
 27 28  2  0  0  0  0
 27 29  1  0  0  0  0
 29 30  1  0  0  0  0
 29 31  1  0  0  0  0
 29 48  1  0  0  0  0
 30 31  1  0  0  0  0
 30 49  1  0  0  0  0
 30 50  1  0  0  0  0
 31 51  1  0  0  0  0
 31 52  1  0  0  0  0
 32 33  2  0  0  0  0
 33 34  1  0  0  0  0
 33 53  1  0  0  0  0
 35 54  1  0  0  0  0
M  END
$$$$
