CHEMBL214530
 OpenBabel04072215363D

 73 77  0  0  0  0  0  0  0  0999 V2000
   -1.8463   -2.0572   -1.2479 C   0  0  0  0  0  0  0  0  0  0  0  0
   -1.0202   -0.9833   -0.5782 C   0  0  0  0  0  0  0  0  0  0  0  0
   -1.5846    0.3136   -0.5564 C   0  0  0  0  0  0  0  0  0  0  0  0
   -0.9413    1.3847    0.0651 C   0  0  0  0  0  0  0  0  0  0  0  0
    0.2932    1.1725    0.6642 C   0  0  0  0  0  0  0  0  0  0  0  0
    1.0752    2.2595    1.3131 C   0  0  0  0  0  0  0  0  0  0  0  0
    2.2925    2.1896    1.2261 O   0  0  0  0  0  0  0  0  0  0  0  0
    0.3501    3.2151    2.0066 N   0  0  0  0  0  0  0  0  0  0  0  0
    0.9053    4.3065    2.7447 C   0  0  0  0  0  0  0  0  0  0  0  0
    2.2415    4.6961    2.5556 C   0  0  0  0  0  0  0  0  0  0  0  0
    2.8141    5.7206    3.2988 C   0  0  0  0  0  0  0  0  0  0  0  0
    2.0598    6.3820    4.2546 C   0  0  0  0  0  0  0  0  0  0  0  0
    0.7080    6.0478    4.4645 C   0  0  0  0  0  0  0  0  0  0  0  0
   -0.0520    6.8082    5.5313 C   0  0  0  0  0  0  0  0  0  0  0  0
    0.7043    7.7351    6.1880 F   0  0  0  0  0  0  0  0  0  0  0  0
   -1.1158    7.4965    5.0311 F   0  0  0  0  0  0  0  0  0  0  0  0
   -0.5496    5.9939    6.5041 F   0  0  0  0  0  0  0  0  0  0  0  0
    0.1156    5.0092    3.6889 C   0  0  0  0  0  0  0  0  0  0  0  0
   -1.3383    4.6400    3.8848 C   0  0  0  0  0  0  0  0  0  0  0  0
    0.8813   -0.1023    0.6096 C   0  0  0  0  0  0  0  0  0  0  0  0
    0.2566   -1.2126    0.0007 C   0  0  0  0  0  0  0  0  0  0  0  0
    0.9725   -2.5229    0.0105 C   0  0  0  0  0  0  0  0  0  0  0  0
    1.7546   -2.9381    1.1052 C   0  0  0  0  0  0  0  0  0  0  0  0
    2.4197   -4.1776    1.1154 C   0  0  0  0  0  0  0  0  0  0  0  0
    2.3043   -5.0732    0.0621 C   0  0  0  0  0  0  0  0  0  0  0  0
    2.8587   -6.2905    0.1246 N   0  0  0  0  0  0  0  0  0  0  0  0
    2.6928   -7.1176   -0.9234 C   0  0  0  0  0  0  0  0  0  0  0  0
    3.1332   -8.4279   -0.8654 N   0  0  0  0  0  0  0  0  0  0  0  0
    3.4523   -8.9475    0.4454 C   0  0  0  0  0  0  0  0  0  0  0  0
    2.1797   -9.1709    1.2883 C   0  0  0  0  0  0  0  0  0  0  0  0
    2.6037   -9.8282    2.6023 C   0  0  0  0  0  0  0  0  0  0  0  0
    1.5469  -10.2356    3.5362 N   0  0  0  0  0  0  0  0  0  0  0  0
    0.7125   -9.1442    4.0848 C   0  0  0  0  0  0  0  0  0  0  0  0
    1.3498   -8.2966    5.2072 C   0  0  0  0  0  0  0  0  0  0  0  0
    1.9641   -9.0944    6.2285 O   0  0  0  0  0  0  0  0  0  0  0  0
    2.8951  -10.0150    5.6535 C   0  0  0  0  0  0  0  0  0  0  0  0
    2.1704  -10.9545    4.6760 C   0  0  0  0  0  0  0  0  0  0  0  0
    2.0685   -6.7789   -2.0514 N   0  0  0  0  0  0  0  0  0  0  0  0
    1.4902   -5.5693   -2.0758 C   0  0  0  0  0  0  0  0  0  0  0  0
    1.5705   -4.6614   -1.0428 C   0  0  0  0  0  0  0  0  0  0  0  0
    0.9440   -3.3970   -1.0813 C   0  0  0  0  0  0  0  0  0  0  0  0
   -2.8702   -1.7154   -1.4376 H   0  0  0  0  0  0  0  0  0  0  0  0
   -1.9224   -2.9451   -0.6133 H   0  0  0  0  0  0  0  0  0  0  0  0
   -1.4317   -2.3169   -2.2254 H   0  0  0  0  0  0  0  0  0  0  0  0
   -2.5449    0.4949   -1.0392 H   0  0  0  0  0  0  0  0  0  0  0  0
   -1.3965    2.3698    0.0334 H   0  0  0  0  0  0  0  0  0  0  0  0
   -0.6334    3.0374    2.1421 H   0  0  0  0  0  0  0  0  0  0  0  0
    2.8743    4.2203    1.8137 H   0  0  0  0  0  0  0  0  0  0  0  0
    3.8558    5.9858    3.1409 H   0  0  0  0  0  0  0  0  0  0  0  0
    2.5314    7.1709    4.8410 H   0  0  0  0  0  0  0  0  0  0  0  0
   -1.8400    5.2387    4.6477 H   0  0  0  0  0  0  0  0  0  0  0  0
   -1.4207    3.5944    4.1962 H   0  0  0  0  0  0  0  0  0  0  0  0
   -1.8907    4.7917    2.9520 H   0  0  0  0  0  0  0  0  0  0  0  0
    1.8734   -0.2173    1.0489 H   0  0  0  0  0  0  0  0  0  0  0  0
    1.8643   -2.3041    1.9840 H   0  0  0  0  0  0  0  0  0  0  0  0
    3.0262   -4.4510    1.9778 H   0  0  0  0  0  0  0  0  0  0  0  0
    3.8690   -8.5171   -1.5574 H   0  0  0  0  0  0  0  0  0  0  0  0
    4.1763   -8.3131    0.9725 H   0  0  0  0  0  0  0  0  0  0  0  0
    3.9472   -9.9154    0.2981 H   0  0  0  0  0  0  0  0  0  0  0  0
    1.4727   -9.8069    0.7407 H   0  0  0  0  0  0  0  0  0  0  0  0
    1.6714   -8.2204    1.4817 H   0  0  0  0  0  0  0  0  0  0  0  0
    3.3296   -9.1695    3.0859 H   0  0  0  0  0  0  0  0  0  0  0  0
    3.1376  -10.7421    2.3157 H   0  0  0  0  0  0  0  0  0  0  0  0
   -0.1783   -9.6253    4.5122 H   0  0  0  0  0  0  0  0  0  0  0  0
    0.3321   -8.4878    3.2951 H   0  0  0  0  0  0  0  0  0  0  0  0
    0.5695   -7.7059    5.7007 H   0  0  0  0  0  0  0  0  0  0  0  0
    2.0917   -7.5977    4.8080 H   0  0  0  0  0  0  0  0  0  0  0  0
    3.3446  -10.5956    6.4642 H   0  0  0  0  0  0  0  0  0  0  0  0
    3.7083   -9.4543    5.1769 H   0  0  0  0  0  0  0  0  0  0  0  0
    1.3761  -11.4851    5.2149 H   0  0  0  0  0  0  0  0  0  0  0  0
    2.8618  -11.7225    4.3092 H   0  0  0  0  0  0  0  0  0  0  0  0
    0.9139   -5.3647   -2.9729 H   0  0  0  0  0  0  0  0  0  0  0  0
    0.4391   -3.1174   -1.9980 H   0  0  0  0  0  0  0  0  0  0  0  0
  1  2  1  0  0  0  0
  1 42  1  0  0  0  0
  1 43  1  0  0  0  0
  1 44  1  0  0  0  0
  2  3  1  0  0  0  0
  2 21  2  0  0  0  0
  3  4  2  0  0  0  0
  3 45  1  0  0  0  0
  4  5  1  0  0  0  0
  4 46  1  0  0  0  0
  5  6  1  0  0  0  0
  5 20  2  0  0  0  0
  6  7  2  0  0  0  0
  6  8  1  0  0  0  0
  8  9  1  0  0  0  0
  8 47  1  0  0  0  0
  9 10  1  0  0  0  0
  9 18  2  0  0  0  0
 10 11  2  0  0  0  0
 10 48  1  0  0  0  0
 11 12  1  0  0  0  0
 11 49  1  0  0  0  0
 12 13  2  0  0  0  0
 12 50  1  0  0  0  0
 13 14  1  0  0  0  0
 13 18  1  0  0  0  0
 14 15  1  0  0  0  0
 14 16  1  0  0  0  0
 14 17  1  0  0  0  0
 18 19  1  0  0  0  0
 19 51  1  0  0  0  0
 19 52  1  0  0  0  0
 19 53  1  0  0  0  0
 20 21  1  0  0  0  0
 20 54  1  0  0  0  0
 21 22  1  0  0  0  0
 22 23  1  0  0  0  0
 22 41  2  0  0  0  0
 23 24  2  0  0  0  0
 23 55  1  0  0  0  0
 24 25  1  0  0  0  0
 24 56  1  0  0  0  0
 25 26  1  0  0  0  0
 25 40  2  0  0  0  0
 26 27  2  0  0  0  0
 27 28  1  0  0  0  0
 27 38  1  0  0  0  0
 28 29  1  0  0  0  0
 28 57  1  0  0  0  0
 29 30  1  0  0  0  0
 29 58  1  0  0  0  0
 29 59  1  0  0  0  0
 30 31  1  0  0  0  0
 30 60  1  0  0  0  0
 30 61  1  0  0  0  0
 31 32  1  0  0  0  0
 31 62  1  0  0  0  0
 31 63  1  0  0  0  0
 32 33  1  0  0  0  0
 32 37  1  0  0  0  0
 33 34  1  0  0  0  0
 33 64  1  0  0  0  0
 33 65  1  0  0  0  0
 34 35  1  0  0  0  0
 34 66  1  0  0  0  0
 34 67  1  0  0  0  0
 35 36  1  0  0  0  0
 36 37  1  0  0  0  0
 36 68  1  0  0  0  0
 36 69  1  0  0  0  0
 37 70  1  0  0  0  0
 37 71  1  0  0  0  0
 38 39  2  0  0  0  0
 39 40  1  0  0  0  0
 39 72  1  0  0  0  0
 40 41  1  0  0  0  0
 41 73  1  0  0  0  0
M  END
$$$$
