CHEMBL1973145
 OpenBabel04072215363D

 46 49  0  0  0  0  0  0  0  0999 V2000
    2.3823   -0.4646    1.5015 C   0  0  0  0  0  0  0  0  0  0  0  0
    0.8887   -0.3333    1.4921 C   0  0  0  0  0  0  0  0  0  0  0  0
    0.2963    0.8541    1.9299 C   0  0  0  0  0  0  0  0  0  0  0  0
   -1.0897    0.9812    1.9322 C   0  0  0  0  0  0  0  0  0  0  0  0
   -1.8878   -0.0759    1.4981 C   0  0  0  0  0  0  0  0  0  0  0  0
   -1.3233   -1.2699    1.0398 C   0  0  0  0  0  0  0  0  0  0  0  0
   -2.1040   -2.3687    0.5863 N   0  0  0  0  0  0  0  0  0  0  0  0
   -3.4779   -2.3556    0.4131 C   0  0  0  0  0  0  0  0  0  0  0  0
   -4.1948   -1.3678    0.5403 O   0  0  0  0  0  0  0  0  0  0  0  0
   -3.9920   -3.6160    0.1157 N   0  0  0  0  0  0  0  0  0  0  0  0
   -5.3857   -3.7805   -0.0857 C   0  0  0  0  0  0  0  0  0  0  0  0
   -6.1284   -2.8549   -0.8222 C   0  0  0  0  0  0  0  0  0  0  0  0
   -7.5230   -2.9346   -0.8683 C   0  0  0  0  0  0  0  0  0  0  0  0
   -8.2062   -3.9675   -0.2106 C   0  0  0  0  0  0  0  0  0  0  0  0
   -9.6776   -4.0182   -0.2167 C   0  0  0  0  0  0  0  0  0  0  0  0
  -10.3655   -3.6187   -1.3533 C   0  0  0  0  0  0  0  0  0  0  0  0
  -12.0554   -3.7596   -1.2072 S   0  0  0  0  0  0  0  0  0  0  0  0
  -11.9156   -4.3888    0.3641 C   0  0  0  0  0  0  0  0  0  0  0  0
  -13.0260   -4.7513    1.0229 N   0  0  0  0  0  0  0  0  0  0  0  0
  -12.7849   -5.2439    2.2281 C   0  0  0  0  0  0  0  0  0  0  0  0
  -13.8725   -5.6788    2.9596 N   0  0  0  0  0  0  0  0  0  0  0  0
  -11.5921   -5.3149    2.8189 N   0  0  0  0  0  0  0  0  0  0  0  0
  -10.4902   -4.9231    2.1492 C   0  0  0  0  0  0  0  0  0  0  0  0
   -9.3058   -5.0077    2.8732 N   0  0  0  0  0  0  0  0  0  0  0  0
  -10.6063   -4.4571    0.8230 C   0  0  0  0  0  0  0  0  0  0  0  0
   -7.4416   -4.9500    0.4330 C   0  0  0  0  0  0  0  0  0  0  0  0
   -6.0431   -4.8553    0.5074 C   0  0  0  0  0  0  0  0  0  0  0  0
    0.0725   -1.3927    1.0469 C   0  0  0  0  0  0  0  0  0  0  0  0
    2.8544    0.4411    1.8976 H   0  0  0  0  0  0  0  0  0  0  0  0
    2.7555   -0.6187    0.4854 H   0  0  0  0  0  0  0  0  0  0  0  0
    2.6849   -1.3012    2.1377 H   0  0  0  0  0  0  0  0  0  0  0  0
    0.8986    1.6863    2.2731 H   0  0  0  0  0  0  0  0  0  0  0  0
   -1.5569    1.9025    2.2693 H   0  0  0  0  0  0  0  0  0  0  0  0
   -2.9599    0.0857    1.5343 H   0  0  0  0  0  0  0  0  0  0  0  0
   -1.6088   -3.1768    0.2385 H   0  0  0  0  0  0  0  0  0  0  0  0
   -3.5062   -4.3830    0.5564 H   0  0  0  0  0  0  0  0  0  0  0  0
   -5.6345   -2.0358   -1.3415 H   0  0  0  0  0  0  0  0  0  0  0  0
   -8.0545   -2.1548   -1.4091 H   0  0  0  0  0  0  0  0  0  0  0  0
   -9.9620   -3.2510   -2.2873 H   0  0  0  0  0  0  0  0  0  0  0  0
  -14.7145   -5.2217    2.6402 H   0  0  0  0  0  0  0  0  0  0  0  0
  -13.6632   -5.6432    3.9460 H   0  0  0  0  0  0  0  0  0  0  0  0
   -9.5133   -5.1685    3.8534 H   0  0  0  0  0  0  0  0  0  0  0  0
   -8.6521   -4.2568    2.6870 H   0  0  0  0  0  0  0  0  0  0  0  0
   -7.9231   -5.7981    0.9148 H   0  0  0  0  0  0  0  0  0  0  0  0
   -5.4995   -5.5930    1.0902 H   0  0  0  0  0  0  0  0  0  0  0  0
    0.5555   -2.3113    0.7052 H   0  0  0  0  0  0  0  0  0  0  0  0
  1  2  1  0  0  0  0
  1 29  1  0  0  0  0
  1 30  1  0  0  0  0
  1 31  1  0  0  0  0
  2  3  1  0  0  0  0
  2 28  2  0  0  0  0
  3  4  2  0  0  0  0
  3 32  1  0  0  0  0
  4  5  1  0  0  0  0
  4 33  1  0  0  0  0
  5  6  2  0  0  0  0
  5 34  1  0  0  0  0
  6  7  1  0  0  0  0
  6 28  1  0  0  0  0
  7  8  1  0  0  0  0
  7 35  1  0  0  0  0
  8  9  2  0  0  0  0
  8 10  1  0  0  0  0
 10 11  1  0  0  0  0
 10 36  1  0  0  0  0
 11 12  1  0  0  0  0
 11 27  2  0  0  0  0
 12 13  2  0  0  0  0
 12 37  1  0  0  0  0
 13 14  1  0  0  0  0
 13 38  1  0  0  0  0
 14 15  1  0  0  0  0
 14 26  2  0  0  0  0
 15 16  2  0  0  0  0
 15 25  1  0  0  0  0
 16 17  1  0  0  0  0
 16 39  1  0  0  0  0
 17 18  1  0  0  0  0
 18 19  1  0  0  0  0
 18 25  2  0  0  0  0
 19 20  2  0  0  0  0
 20 21  1  0  0  0  0
 20 22  1  0  0  0  0
 21 40  1  0  0  0  0
 21 41  1  0  0  0  0
 22 23  2  0  0  0  0
 23 24  1  0  0  0  0
 23 25  1  0  0  0  0
 24 42  1  0  0  0  0
 24 43  1  0  0  0  0
 26 27  1  0  0  0  0
 26 44  1  0  0  0  0
 27 45  1  0  0  0  0
 28 46  1  0  0  0  0
M  END
$$$$
