CHEMBL1988608
 OpenBabel04072215363D

 45 48  0  0  0  0  0  0  0  0999 V2000
    6.8325   -5.3872   -1.1853 C   0  0  0  0  0  0  0  0  0  0  0  0
    6.6328   -3.8980   -1.0763 C   0  0  0  0  0  0  0  0  0  0  0  0
    6.3257   -3.2404   -2.0654 O   0  0  0  0  0  0  0  0  0  0  0  0
    6.8411   -3.4184    0.2073 N   0  0  0  0  0  0  0  0  0  0  0  0
    6.6870   -2.0780    0.6288 C   0  0  0  0  0  0  0  0  0  0  0  0
    6.0157   -1.1173   -0.1294 C   0  0  0  0  0  0  0  0  0  0  0  0
    5.9280    0.2044    0.3098 C   0  0  0  0  0  0  0  0  0  0  0  0
    6.4964    0.5785    1.5250 C   0  0  0  0  0  0  0  0  0  0  0  0
    7.1352   -0.3751    2.3283 C   0  0  0  0  0  0  0  0  0  0  0  0
    7.7042    0.0146    3.6688 C   0  0  0  0  0  0  0  0  0  0  0  0
    9.0864    0.4967    3.5358 N   0  0  0  0  0  0  0  0  0  0  0  0
    9.8931    0.3474    4.5799 C   0  0  0  0  0  0  0  0  0  0  0  0
   10.7462   -0.6017    5.0980 C   0  0  0  0  0  0  0  0  0  0  0  0
   11.2162   -1.7980    4.8168 N   0  0  0  0  0  0  0  0  0  0  0  0
   11.4307   -2.3419    3.5264 C   0  0  0  0  0  0  0  0  0  0  0  0
   11.6063   -1.5308    2.3946 C   0  0  0  0  0  0  0  0  0  0  0  0
   11.7422   -2.0604    1.1064 C   0  0  0  0  0  0  0  0  0  0  0  0
   11.6859   -3.4482    0.9913 C   0  0  0  0  0  0  0  0  0  0  0  0
   11.7275   -4.2734   -0.1012 N   0  0  0  0  0  0  0  0  0  0  0  0
   11.6945   -5.5842    0.2029 N   0  0  0  0  0  0  0  0  0  0  0  0
   11.6096   -5.5909    1.5361 C   0  0  0  0  0  0  0  0  0  0  0  0
   11.5542   -4.2920    2.0866 C   0  0  0  0  0  0  0  0  0  0  0  0
   11.4154   -3.7356    3.3728 C   0  0  0  0  0  0  0  0  0  0  0  0
   11.0091    0.2227    6.3009 C   0  0  0  0  0  0  0  0  0  0  0  0
   11.6215    0.1393    7.3368 O   0  0  0  0  0  0  0  0  0  0  0  0
   10.1912    1.2925    5.6825 C   0  0  0  0  0  0  0  0  0  0  0  0
    9.8711    2.3955    6.0340 O   0  0  0  0  0  0  0  0  0  0  0  0
    7.2275   -1.7032    1.8679 C   0  0  0  0  0  0  0  0  0  0  0  0
    6.8225   -5.6735   -2.2421 H   0  0  0  0  0  0  0  0  0  0  0  0
    6.0184   -5.9064   -0.6732 H   0  0  0  0  0  0  0  0  0  0  0  0
    7.7957   -5.6785   -0.7590 H   0  0  0  0  0  0  0  0  0  0  0  0
    7.2531   -4.0575    0.8762 H   0  0  0  0  0  0  0  0  0  0  0  0
    5.5365   -1.3693   -1.0705 H   0  0  0  0  0  0  0  0  0  0  0  0
    5.4119    0.9378   -0.3050 H   0  0  0  0  0  0  0  0  0  0  0  0
    6.4224    1.6154    1.8439 H   0  0  0  0  0  0  0  0  0  0  0  0
    7.6369   -0.8371    4.3578 H   0  0  0  0  0  0  0  0  0  0  0  0
    7.0910    0.8130    4.1077 H   0  0  0  0  0  0  0  0  0  0  0  0
    9.0188    1.4434    3.1503 H   0  0  0  0  0  0  0  0  0  0  0  0
   11.7275   -2.3270    5.5237 H   0  0  0  0  0  0  0  0  0  0  0  0
   11.6622   -0.4486    2.5008 H   0  0  0  0  0  0  0  0  0  0  0  0
   11.8800   -1.4124    0.2473 H   0  0  0  0  0  0  0  0  0  0  0  0
   11.7650   -4.0033   -1.0777 H   0  0  0  0  0  0  0  0  0  0  0  0
   11.5882   -6.5398    2.0548 H   0  0  0  0  0  0  0  0  0  0  0  0
   11.2650   -4.3883    4.2283 H   0  0  0  0  0  0  0  0  0  0  0  0
    7.7466   -2.4354    2.4835 H   0  0  0  0  0  0  0  0  0  0  0  0
  1  2  1  0  0  0  0
  1 29  1  0  0  0  0
  1 30  1  0  0  0  0
  1 31  1  0  0  0  0
  2  3  2  0  0  0  0
  2  4  1  0  0  0  0
  4  5  1  0  0  0  0
  4 32  1  0  0  0  0
  5  6  1  0  0  0  0
  5 28  2  0  0  0  0
  6  7  2  0  0  0  0
  6 33  1  0  0  0  0
  7  8  1  0  0  0  0
  7 34  1  0  0  0  0
  8  9  2  0  0  0  0
  8 35  1  0  0  0  0
  9 10  1  0  0  0  0
  9 28  1  0  0  0  0
 10 11  1  0  0  0  0
 10 36  1  0  0  0  0
 10 37  1  0  0  0  0
 11 12  1  0  0  0  0
 11 38  1  0  0  0  0
 12 13  2  0  0  0  0
 12 26  1  0  0  0  0
 13 14  1  0  0  0  0
 13 24  1  0  0  0  0
 14 15  1  0  0  0  0
 14 39  1  0  0  0  0
 15 16  1  0  0  0  0
 15 23  2  0  0  0  0
 16 17  2  0  0  0  0
 16 40  1  0  0  0  0
 17 18  1  0  0  0  0
 17 41  1  0  0  0  0
 18 19  1  0  0  0  0
 18 22  2  0  0  0  0
 19 20  1  0  0  0  0
 19 42  1  0  0  0  0
 20 21  2  0  0  0  0
 21 22  1  0  0  0  0
 21 43  1  0  0  0  0
 22 23  1  0  0  0  0
 23 44  1  0  0  0  0
 24 25  2  0  0  0  0
 24 26  1  0  0  0  0
 26 27  2  0  0  0  0
 28 45  1  0  0  0  0
M  END
$$$$
