CHEMBL3648118
 OpenBabel04072215373D

 48 49  0  0  1  0  0  0  0  0999 V2000
    7.3883    0.4918    2.9509 C   0  0  0  0  0  0  0  0  0  0  0  0
    6.8049    0.6927    1.6677 O   0  0  0  0  0  0  0  0  0  0  0  0
    6.5214    2.0761    1.4326 C   0  0  0  0  0  0  0  0  0  0  0  0
    5.9999    2.3321   -0.0061 C   0  0  1  0  0  0  0  0  0  0  0  0
    4.7307    1.6035   -0.2150 N   0  0  0  0  0  0  0  0  0  0  0  0
    4.4148    1.1930   -1.5275 C   0  0  0  0  0  0  0  0  0  0  0  0
    5.4059    0.9052   -2.4070 N   0  0  0  0  0  0  0  0  0  0  0  0
    5.0495    0.3907   -3.5980 C   0  0  0  0  0  0  0  0  0  0  0  0
    6.0236    0.2595   -4.5940 N   0  0  0  0  0  0  0  0  0  0  0  0
    5.7925    0.3617   -5.9777 C   0  0  0  0  0  0  0  0  0  0  0  0
    4.6826    1.0514   -6.4915 C   0  0  0  0  0  0  0  0  0  0  0  0
    4.3455    0.9997   -7.8399 C   0  0  0  0  0  0  0  0  0  0  0  0
    5.1375    0.2608   -8.7105 C   0  0  0  0  0  0  0  0  0  0  0  0
    4.5882    0.0617  -10.3982 S   0  0  3  0  0  0  0  0  0  0  0  0
    5.9003    0.7654  -11.3545 C   0  0  0  0  0  0  0  0  0  0  0  0
    4.5554   -1.4589  -10.6522 N   0  0  0  0  0  0  0  0  0  0  0  0
    3.4502    0.9427  -10.5861 O   0  0  0  0  0  0  0  0  0  0  0  0
    6.2982   -0.3762   -8.2517 C   0  0  0  0  0  0  0  0  0  0  0  0
    6.6245   -0.3136   -6.8884 C   0  0  0  0  0  0  0  0  0  0  0  0
    3.7837    0.0634   -3.9183 N   0  0  0  0  0  0  0  0  0  0  0  0
    2.8161    0.4081   -3.0631 C   0  0  0  0  0  0  0  0  0  0  0  0
    3.0757    1.0077   -1.8622 C   0  0  0  0  0  0  0  0  0  0  0  0
    1.6487    1.6728   -0.8151 Br  0  0  0  0  0  0  0  0  0  0  0  0
    5.7198    3.8560   -0.2078 C   0  0  1  0  0  0  0  0  0  0  0  0
    6.9498    4.7399   -0.0779 C   0  0  0  0  0  0  0  0  0  0  0  0
    5.1436    4.1206   -1.4939 O   0  0  0  0  0  0  0  0  0  0  0  0
    7.3987   -0.5795    3.1683 H   0  0  0  0  0  0  0  0  0  0  0  0
    6.8135    1.0005    3.7319 H   0  0  0  0  0  0  0  0  0  0  0  0
    8.4197    0.8579    2.9513 H   0  0  0  0  0  0  0  0  0  0  0  0
    7.4494    2.6348    1.5915 H   0  0  0  0  0  0  0  0  0  0  0  0
    5.7783    2.4114    2.1664 H   0  0  0  0  0  0  0  0  0  0  0  0
    6.7640    1.9815   -0.7101 H   0  0  0  0  0  0  0  0  0  0  0  0
    3.9398    2.1218    0.1634 H   0  0  0  0  0  0  0  0  0  0  0  0
    6.9350    0.5349   -4.2637 H   0  0  0  0  0  0  0  0  0  0  0  0
    4.0289    1.6156   -5.8304 H   0  0  0  0  0  0  0  0  0  0  0  0
    3.4379    1.4978   -8.1785 H   0  0  0  0  0  0  0  0  0  0  0  0
    6.8286    0.2245  -11.1691 H   0  0  0  0  0  0  0  0  0  0  0  0
    6.0050    1.8179  -11.0838 H   0  0  0  0  0  0  0  0  0  0  0  0
    5.6247    0.6873  -12.4091 H   0  0  0  0  0  0  0  0  0  0  0  0
    5.4762   -1.8870  -10.7153 H   0  0  0  0  0  0  0  0  0  0  0  0
    6.9269   -0.9588   -8.9143 H   0  0  0  0  0  0  0  0  0  0  0  0
    7.4875   -0.8675   -6.5232 H   0  0  0  0  0  0  0  0  0  0  0  0
    1.8072    0.2075   -3.4074 H   0  0  0  0  0  0  0  0  0  0  0  0
    4.9752    4.1833    0.5292 H   0  0  0  0  0  0  0  0  0  0  0  0
    7.7322    4.4212   -0.7737 H   0  0  0  0  0  0  0  0  0  0  0  0
    7.3524    4.7362    0.9379 H   0  0  0  0  0  0  0  0  0  0  0  0
    6.6972    5.7745   -0.3353 H   0  0  0  0  0  0  0  0  0  0  0  0
    5.6541    3.6133   -2.1515 H   0  0  0  0  0  0  0  0  0  0  0  0
  1  2  1  0  0  0  0
  1 27  1  0  0  0  0
  1 28  1  0  0  0  0
  1 29  1  0  0  0  0
  2  3  1  0  0  0  0
  3  4  1  0  0  0  0
  3 30  1  0  0  0  0
  3 31  1  0  0  0  0
  4  5  1  0  0  0  0
  4 24  1  0  0  0  0
  4 32  1  6  0  0  0
  5  6  1  0  0  0  0
  5 33  1  0  0  0  0
  6  7  1  0  0  0  0
  6 22  2  0  0  0  0
  7  8  2  0  0  0  0
  8  9  1  0  0  0  0
  8 20  1  0  0  0  0
  9 10  1  0  0  0  0
  9 34  1  0  0  0  0
 10 11  1  0  0  0  0
 10 19  2  0  0  0  0
 11 12  2  0  0  0  0
 11 35  1  0  0  0  0
 12 13  1  0  0  0  0
 12 36  1  0  0  0  0
 13 14  1  0  0  0  0
 13 18  2  0  0  0  0
 14 15  1  0  0  0  0
 14 16  2  0  0  0  0
 14 17  2  0  0  0  0
 15 37  1  0  0  0  0
 15 38  1  0  0  0  0
 15 39  1  0  0  0  0
 16 40  1  0  0  0  0
 18 19  1  0  0  0  0
 18 41  1  0  0  0  0
 19 42  1  0  0  0  0
 20 21  2  0  0  0  0
 21 22  1  0  0  0  0
 21 43  1  0  0  0  0
 22 23  1  0  0  0  0
 24 25  1  0  0  0  0
 24 26  1  0  0  0  0
 24 44  1  1  0  0  0
 25 45  1  0  0  0  0
 25 46  1  0  0  0  0
 25 47  1  0  0  0  0
 26 48  1  0  0  0  0
M  END
$$$$
