CHEMBL223535
 OpenBabel04072215363D

 45 47  0  0  0  0  0  0  0  0999 V2000
    1.1181   -1.1541    0.4258 C   0  0  0  0  0  0  0  0  0  0  0  0
    2.5699   -1.2757    0.3611 N   0  0  0  0  0  0  0  0  0  0  0  0
    3.0309   -1.2723   -1.0339 C   0  0  0  0  0  0  0  0  0  0  0  0
    4.5546   -1.3858   -1.1481 C   0  0  0  0  0  0  0  0  0  0  0  0
    4.9129   -1.3683   -2.5380 O   0  0  0  0  0  0  0  0  0  0  0  0
    6.3109   -1.3935   -2.6316 N   0  0  0  0  0  0  0  0  0  0  0  0
    6.6802   -1.3573   -3.8787 C   0  0  0  0  0  0  0  0  0  0  0  0
    8.1083   -1.3988   -4.2408 C   0  0  0  0  0  0  0  0  0  0  0  0
    9.0481   -1.9873   -3.3980 C   0  0  0  0  0  0  0  0  0  0  0  0
    8.6914   -2.6930   -2.2472 N   0  0  0  0  0  0  0  0  0  0  0  0
   10.3597   -2.0360   -3.6859 N   0  0  0  0  0  0  0  0  0  0  0  0
   10.7454   -1.4564   -4.8214 C   0  0  0  0  0  0  0  0  0  0  0  0
    9.9366   -0.8407   -5.6904 N   0  0  0  0  0  0  0  0  0  0  0  0
    8.6154   -0.8536   -5.4065 C   0  0  0  0  0  0  0  0  0  0  0  0
    7.7543   -0.2788   -6.3413 O   0  0  0  0  0  0  0  0  0  0  0  0
    8.2322   -0.1440   -7.6393 C   0  0  0  0  0  0  0  0  0  0  0  0
    8.9246   -1.1799   -8.2835 C   0  0  0  0  0  0  0  0  0  0  0  0
    9.4473   -1.0278   -9.5710 C   0  0  0  0  0  0  0  0  0  0  0  0
    9.1557    0.1584  -10.2453 C   0  0  0  0  0  0  0  0  0  0  0  0
    9.4784    0.5476  -11.5257 N   0  0  0  0  0  0  0  0  0  0  0  0
    8.7795    1.6808  -11.8563 C   0  0  0  0  0  0  0  0  0  0  0  0
    8.6505    2.1460  -13.2591 C   0  0  0  0  0  0  0  0  0  0  0  0
    8.2387    2.1776  -10.6853 C   0  0  0  0  0  0  0  0  0  0  0  0
    8.4069    1.1887   -9.6709 C   0  0  0  0  0  0  0  0  0  0  0  0
    7.9639    1.0402   -8.3370 C   0  0  0  0  0  0  0  0  0  0  0  0
    7.2496    2.0171   -7.7559 F   0  0  0  0  0  0  0  0  0  0  0  0
    0.7966   -1.1586    1.4724 H   0  0  0  0  0  0  0  0  0  0  0  0
    0.6224   -1.9886   -0.0811 H   0  0  0  0  0  0  0  0  0  0  0  0
    0.7782   -0.2128   -0.0180 H   0  0  0  0  0  0  0  0  0  0  0  0
    2.8519   -2.1457    0.8123 H   0  0  0  0  0  0  0  0  0  0  0  0
    2.7153   -0.3468   -1.5312 H   0  0  0  0  0  0  0  0  0  0  0  0
    2.5718   -2.0996   -1.5889 H   0  0  0  0  0  0  0  0  0  0  0  0
    4.9053   -2.3229   -0.6966 H   0  0  0  0  0  0  0  0  0  0  0  0
    5.0374   -0.5432   -0.6384 H   0  0  0  0  0  0  0  0  0  0  0  0
    5.9392   -1.2935   -4.6943 H   0  0  0  0  0  0  0  0  0  0  0  0
    7.9622   -2.2103   -1.7216 H   0  0  0  0  0  0  0  0  0  0  0  0
    9.5231   -2.9135   -1.7134 H   0  0  0  0  0  0  0  0  0  0  0  0
   11.7941   -1.5042   -5.0820 H   0  0  0  0  0  0  0  0  0  0  0  0
    9.1007   -2.1216   -7.7701 H   0  0  0  0  0  0  0  0  0  0  0  0
   10.0254   -1.8218  -10.0312 H   0  0  0  0  0  0  0  0  0  0  0  0
   10.0389   -0.0022  -12.1636 H   0  0  0  0  0  0  0  0  0  0  0  0
    9.2189    1.5159  -13.9517 H   0  0  0  0  0  0  0  0  0  0  0  0
    8.9867    3.1793  -13.3710 H   0  0  0  0  0  0  0  0  0  0  0  0
    7.5972    2.0916  -13.5593 H   0  0  0  0  0  0  0  0  0  0  0  0
    7.6703    3.0943  -10.5939 H   0  0  0  0  0  0  0  0  0  0  0  0
  1  2  1  0  0  0  0
  1 27  1  0  0  0  0
  1 28  1  0  0  0  0
  1 29  1  0  0  0  0
  2  3  1  0  0  0  0
  2 30  1  0  0  0  0
  3  4  1  0  0  0  0
  3 31  1  0  0  0  0
  3 32  1  0  0  0  0
  4  5  1  0  0  0  0
  4 33  1  0  0  0  0
  4 34  1  0  0  0  0
  5  6  1  0  0  0  0
  6  7  2  0  0  0  0
  7  8  1  0  0  0  0
  7 35  1  0  0  0  0
  8  9  1  0  0  0  0
  8 14  2  0  0  0  0
  9 10  1  0  0  0  0
  9 11  2  0  0  0  0
 10 36  1  0  0  0  0
 10 37  1  0  0  0  0
 11 12  1  0  0  0  0
 12 13  2  0  0  0  0
 12 38  1  0  0  0  0
 13 14  1  0  0  0  0
 14 15  1  0  0  0  0
 15 16  1  0  0  0  0
 16 17  1  0  0  0  0
 16 25  2  0  0  0  0
 17 18  2  0  0  0  0
 17 39  1  0  0  0  0
 18 19  1  0  0  0  0
 18 40  1  0  0  0  0
 19 20  1  0  0  0  0
 19 24  2  0  0  0  0
 20 21  1  0  0  0  0
 20 41  1  0  0  0  0
 21 22  1  0  0  0  0
 21 23  2  0  0  0  0
 22 42  1  0  0  0  0
 22 43  1  0  0  0  0
 22 44  1  0  0  0  0
 23 24  1  0  0  0  0
 23 45  1  0  0  0  0
 24 25  1  0  0  0  0
 25 26  1  0  0  0  0
M  END
$$$$
