CHEMBL3967645
 OpenBabel04072215373D

 71 74  0  0  1  0  0  0  0  0999 V2000
    1.6737   -5.4044   -1.1303 C   0  0  0  0  0  0  0  0  0  0  0  0
    1.7012   -4.0489   -1.6211 O   0  0  0  0  0  0  0  0  0  0  0  0
    2.7532   -3.2231   -1.3971 C   0  0  0  0  0  0  0  0  0  0  0  0
    2.3996   -2.0140   -1.3268 C   0  0  0  0  0  0  0  0  0  0  0  0
    3.1861   -1.0337   -0.8615 C   0  0  0  0  0  0  0  0  0  0  0  0
    2.6401    0.1769   -0.7322 O   0  0  0  0  0  0  0  0  0  0  0  0
    3.3944    1.3313   -0.8609 C   0  0  0  0  0  0  0  0  0  0  0  0
    4.4680   -1.3305   -0.4500 C   0  0  0  0  0  0  0  0  0  0  0  0
    4.9367   -2.6355   -0.4907 C   0  0  0  0  0  0  0  0  0  0  0  0
    6.2113   -2.9713    0.1439 N   0  0  0  0  0  0  0  0  0  0  0  0
    6.7016   -2.2442    1.3278 C   0  0  0  0  0  0  0  0  0  0  0  0
    5.6294   -1.6916    2.2242 C   0  0  0  0  0  0  0  0  0  0  0  0
    4.6672   -2.5882    2.8512 C   0  0  0  0  0  0  0  0  0  0  0  0
    3.7065   -1.8284    3.6888 N   0  0  0  0  0  0  0  0  0  0  0  0
    4.3733   -1.0715    4.7775 C   0  0  0  0  0  0  0  0  0  0  0  0
    3.4586   -1.1346    6.0011 C   0  0  0  0  0  0  0  0  0  0  0  0
    2.2396   -1.9362    5.5527 C   0  0  3  0  0  0  0  0  0  0  0  0
    1.1627   -1.0470    5.1232 N   0  0  0  0  0  0  0  0  0  0  0  0
    2.7600   -2.7334    4.3658 C   0  0  0  0  0  0  0  0  0  0  0  0
    7.1584   -3.9063   -0.5058 C   0  0  0  0  0  0  0  0  0  0  0  0
    7.9397   -4.6335    0.3655 C   0  0  0  0  0  0  0  0  0  0  0  0
    8.7661   -5.4758   -0.0885 C   0  0  0  0  0  0  0  0  0  0  0  0
    8.9533   -5.6656   -1.3253 C   0  0  0  0  0  0  0  0  0  0  0  0
    9.9510   -6.1927   -1.3518 N   0  0  0  0  0  0  0  0  0  0  0  0
   10.9354   -6.7157   -1.3237 C   0  0  0  0  0  0  0  0  0  0  0  0
   10.9883   -7.3784   -2.4618 C   0  0  0  0  0  0  0  0  0  0  0  0
   12.4971   -8.5846   -1.8773 C   0  0  0  0  0  0  0  0  0  0  0  0
   13.0616   -9.1887   -0.6188 C   0  0  0  0  0  0  0  0  0  0  0  0
   13.9046  -10.2775   -0.8673 N   0  0  0  0  0  0  0  0  0  0  0  0
   13.9906  -10.4965   -2.1662 N   0  0  0  0  0  0  0  0  0  0  0  0
   14.7589  -11.6923   -2.7254 C   0  0  0  0  0  0  0  0  0  0  0  0
   13.2016   -9.5271   -2.8219 C   0  0  0  0  0  0  0  0  0  0  0  0
    9.6779   -6.4579   -3.3944 N   0  0  0  0  0  0  0  0  0  0  0  0
    8.5850   -5.3669   -2.5159 C   0  0  0  0  0  0  0  0  0  0  0  0
    7.3882   -4.1602   -2.0266 C   0  0  0  0  0  0  0  0  0  0  0  0
    4.0435   -3.5472   -1.1505 C   0  0  0  0  0  0  0  0  0  0  0  0
    1.4359    0.0581    2.1696 Cl  0  0  0  0  0  0  0  0  0  0  0  0
    0.5709   -5.8271   -1.0377 H   0  0  0  0  0  0  0  0  0  0  0  0
    2.2500   -5.4963   -0.0824 H   0  0  0  0  0  0  0  0  0  0  0  0
    2.2085   -6.1021   -1.7036 H   0  0  0  0  0  0  0  0  0  0  0  0
    1.4156   -1.8834   -1.6418 H   0  0  0  0  0  0  0  0  0  0  0  0
    2.7705    2.2108   -0.7322 H   0  0  0  0  0  0  0  0  0  0  0  0
    3.8877    1.3826   -1.8635 H   0  0  0  0  0  0  0  0  0  0  0  0
    4.1941    1.3325   -0.0900 H   0  0  0  0  0  0  0  0  0  0  0  0
    5.0864   -0.5567   -0.0923 H   0  0  0  0  0  0  0  0  0  0  0  0
    7.3214   -1.3717    1.0423 H   0  0  0  0  0  0  0  0  0  0  0  0
    7.2620   -2.9549    1.9203 H   0  0  0  0  0  0  0  0  0  0  0  0
    4.9835   -1.1124    1.5102 H   0  0  0  0  0  0  0  0  0  0  0  0
    6.1746   -1.2122    3.1060 H   0  0  0  0  0  0  0  0  0  0  0  0
    5.2765   -3.2800    3.4272 H   0  0  0  0  0  0  0  0  0  0  0  0
    4.1719   -3.0601    2.0008 H   0  0  0  0  0  0  0  0  0  0  0  0
    4.5667   -0.0138    4.5006 H   0  0  0  0  0  0  0  0  0  0  0  0
    5.3709   -1.4914    5.0475 H   0  0  0  0  0  0  0  0  0  0  0  0
    3.1741   -0.1261    6.3521 H   0  0  0  0  0  0  0  0  0  0  0  0
    3.9760   -1.6364    6.8451 H   0  0  0  0  0  0  0  0  0  0  0  0
    1.8193   -2.5634    6.3604 H   0  0  0  0  0  0  0  0  0  0  0  0
    1.5016   -0.4181    4.3831 H   0  0  0  0  0  0  0  0  0  0  0  0
    0.8542   -0.4578    5.9312 H   0  0  0  0  0  0  0  0  0  0  0  0
    1.9354   -3.0666    3.7017 H   0  0  0  0  0  0  0  0  0  0  0  0
    3.2580   -3.6761    4.6943 H   0  0  0  0  0  0  0  0  0  0  0  0
    8.0130   -4.6127    1.4202 H   0  0  0  0  0  0  0  0  0  0  0  0
    9.3848   -6.1090    0.5603 H   0  0  0  0  0  0  0  0  0  0  0  0
   11.3682   -6.6342   -0.3158 H   0  0  0  0  0  0  0  0  0  0  0  0
   12.8472   -9.0430    0.3941 H   0  0  0  0  0  0  0  0  0  0  0  0
   15.3267  -12.3011   -1.9502 H   0  0  0  0  0  0  0  0  0  0  0  0
   15.5198  -11.4080   -3.4877 H   0  0  0  0  0  0  0  0  0  0  0  0
   14.0757  -12.4346   -3.2121 H   0  0  0  0  0  0  0  0  0  0  0  0
   13.1525   -9.6066   -3.8886 H   0  0  0  0  0  0  0  0  0  0  0  0
    6.6991   -3.3327   -2.4511 H   0  0  0  0  0  0  0  0  0  0  0  0
    4.1231   -4.5051   -1.4822 H   0  0  0  0  0  0  0  0  0  0  0  0
    1.9682    0.0342    1.1931 H   0  0  0  0  0  0  0  0  0  0  0  0
  1  2  1  0  0  0  0
  1 38  1  0  0  0  0
  1 39  1  0  0  0  0
  1 40  1  0  0  0  0
  2  3  1  0  0  0  0
  3  4  1  0  0  0  0
  3 36  2  0  0  0  0
  4  5  2  0  0  0  0
  4 41  1  0  0  0  0
  5  6  1  0  0  0  0
  5  8  1  0  0  0  0
  6  7  1  0  0  0  0
  7 42  1  0  0  0  0
  7 43  1  0  0  0  0
  7 44  1  0  0  0  0
  8  9  2  0  0  0  0
  8 45  1  0  0  0  0
  9 10  1  0  0  0  0
  9 36  1  0  0  0  0
 10 11  1  0  0  0  0
 10 20  1  0  0  0  0
 11 12  1  0  0  0  0
 11 46  1  0  0  0  0
 11 47  1  0  0  0  0
 12 13  1  0  0  0  0
 12 48  1  0  0  0  0
 12 49  1  0  0  0  0
 13 14  1  0  0  0  0
 13 50  1  0  0  0  0
 13 51  1  0  0  0  0
 14 15  1  0  0  0  0
 14 19  1  0  0  0  0
 15 16  1  0  0  0  0
 15 52  1  0  0  0  0
 15 53  1  0  0  0  0
 16 17  1  0  0  0  0
 16 54  1  0  0  0  0
 16 55  1  0  0  0  0
 17 18  1  0  0  0  0
 17 19  1  0  0  0  0
 17 56  1  0  0  0  0
 18 57  1  0  0  0  0
 18 58  1  0  0  0  0
 19 59  1  0  0  0  0
 19 60  1  0  0  0  0
 20 21  1  0  0  0  0
 20 35  2  0  0  0  0
 21 22  2  0  0  0  0
 21 61  1  0  0  0  0
 22 23  1  0  0  0  0
 22 62  1  0  0  0  0
 23 24  1  0  0  0  0
 23 34  2  0  0  0  0
 24 25  2  0  0  0  0
 25 26  1  0  0  0  0
 25 63  1  0  0  0  0
 26 27  1  0  0  0  0
 26 33  2  0  0  0  0
 27 28  1  0  0  0  0
 27 32  2  0  0  0  0
 28 29  2  0  0  0  0
 28 64  1  0  0  0  0
 29 30  1  0  0  0  0
 30 31  1  0  0  0  0
 30 32  1  0  0  0  0
 31 65  1  0  0  0  0
 31 66  1  0  0  0  0
 31 67  1  0  0  0  0
 32 68  1  0  0  0  0
 33 34  1  0  0  0  0
 34 35  1  0  0  0  0
 35 69  1  0  0  0  0
 36 70  1  0  0  0  0
 37 71  1  0  0  0  0
M  END
$$$$
