CHEMBL390467
 OpenBabel04072215373D

 39 42  0  0  0  0  0  0  0  0999 V2000
   -3.1730    0.2621    0.2078 N   0  0  0  0  0  0  0  0  0  0  0  0
   -2.0175    0.1611    0.1616 C   0  0  0  0  0  0  0  0  0  0  0  0
   -0.6019    0.0631    0.0735 C   0  0  0  0  0  0  0  0  0  0  0  0
    0.1489    1.2206    0.0458 C   0  0  0  0  0  0  0  0  0  0  0  0
    1.4961    1.2529   -0.0072 N   0  0  0  0  0  0  0  0  0  0  0  0
    2.1198    0.0712    0.0143 C   0  0  0  0  0  0  0  0  0  0  0  0
    3.5100    0.0837   -0.0120 N   0  0  0  0  0  0  0  0  0  0  0  0
    4.3944   -0.8604    0.5297 C   0  0  0  0  0  0  0  0  0  0  0  0
    5.6661   -1.0100   -0.0275 C   0  0  0  0  0  0  0  0  0  0  0  0
    6.5362   -2.0033    0.4342 C   0  0  0  0  0  0  0  0  0  0  0  0
    6.1581   -2.8637    1.4770 C   0  0  0  0  0  0  0  0  0  0  0  0
    7.0100   -3.8739    1.9488 C   0  0  0  0  0  0  0  0  0  0  0  0
    6.6102   -4.7156    2.9880 C   0  0  0  0  0  0  0  0  0  0  0  0
    5.3550   -4.5581    3.5700 C   0  0  0  0  0  0  0  0  0  0  0  0
    4.4960   -3.5608    3.1099 C   0  0  0  0  0  0  0  0  0  0  0  0
    4.8837   -2.7095    2.0625 C   0  0  0  0  0  0  0  0  0  0  0  0
    4.0234   -1.7141    1.5776 C   0  0  0  0  0  0  0  0  0  0  0  0
    1.4658   -1.1024    0.0285 N   0  0  0  0  0  0  0  0  0  0  0  0
    0.1088   -1.1215    0.0253 C   0  0  0  0  0  0  0  0  0  0  0  0
   -0.4669   -2.4918   -0.0398 C   0  0  0  0  0  0  0  0  0  0  0  0
    0.2160   -3.5901    0.5240 C   0  0  0  0  0  0  0  0  0  0  0  0
   -0.3000   -4.8909    0.4628 C   0  0  0  0  0  0  0  0  0  0  0  0
   -1.5198   -5.1277   -0.1609 C   0  0  0  0  0  0  0  0  0  0  0  0
   -2.2072   -4.0710   -0.7444 C   0  0  0  0  0  0  0  0  0  0  0  0
   -1.6759   -2.7775   -0.7013 C   0  0  0  0  0  0  0  0  0  0  0  0
   -0.3248    2.2006    0.0666 H   0  0  0  0  0  0  0  0  0  0  0  0
    3.8715    1.0184   -0.1321 H   0  0  0  0  0  0  0  0  0  0  0  0
    5.9760   -0.3798   -0.8585 H   0  0  0  0  0  0  0  0  0  0  0  0
    7.5075   -2.1133   -0.0449 H   0  0  0  0  0  0  0  0  0  0  0  0
    7.9939   -4.0134    1.5063 H   0  0  0  0  0  0  0  0  0  0  0  0
    7.2788   -5.4958    3.3422 H   0  0  0  0  0  0  0  0  0  0  0  0
    5.0420   -5.2131    4.3785 H   0  0  0  0  0  0  0  0  0  0  0  0
    3.5164   -3.4526    3.5714 H   0  0  0  0  0  0  0  0  0  0  0  0
    3.0446   -1.5990    2.0378 H   0  0  0  0  0  0  0  0  0  0  0  0
    1.1809   -3.4440    1.0098 H   0  0  0  0  0  0  0  0  0  0  0  0
    0.2570   -5.7178    0.8965 H   0  0  0  0  0  0  0  0  0  0  0  0
   -1.9274   -6.1338   -0.2077 H   0  0  0  0  0  0  0  0  0  0  0  0
   -3.1552   -4.2464   -1.2472 H   0  0  0  0  0  0  0  0  0  0  0  0
   -2.2329   -2.0056   -1.2252 H   0  0  0  0  0  0  0  0  0  0  0  0
  1  2  3  0  0  0  0
  2  3  1  0  0  0  0
  3  4  1  0  0  0  0
  3 19  2  0  0  0  0
  4  5  2  0  0  0  0
  4 26  1  0  0  0  0
  5  6  1  0  0  0  0
  6  7  1  0  0  0  0
  6 18  2  0  0  0  0
  7  8  1  0  0  0  0
  7 27  1  0  0  0  0
  8  9  1  0  0  0  0
  8 17  2  0  0  0  0
  9 10  2  0  0  0  0
  9 28  1  0  0  0  0
 10 11  1  0  0  0  0
 10 29  1  0  0  0  0
 11 12  1  0  0  0  0
 11 16  2  0  0  0  0
 12 13  2  0  0  0  0
 12 30  1  0  0  0  0
 13 14  1  0  0  0  0
 13 31  1  0  0  0  0
 14 15  2  0  0  0  0
 14 32  1  0  0  0  0
 15 16  1  0  0  0  0
 15 33  1  0  0  0  0
 16 17  1  0  0  0  0
 17 34  1  0  0  0  0
 18 19  1  0  0  0  0
 19 20  1  0  0  0  0
 20 21  1  0  0  0  0
 20 25  2  0  0  0  0
 21 22  2  0  0  0  0
 21 35  1  0  0  0  0
 22 23  1  0  0  0  0
 22 36  1  0  0  0  0
 23 24  2  0  0  0  0
 23 37  1  0  0  0  0
 24 25  1  0  0  0  0
 24 38  1  0  0  0  0
 25 39  1  0  0  0  0
M  END
$$$$
