CHEMBL258014
 OpenBabel04072215363D

 60 65  0  0  0  0  0  0  0  0999 V2000
    3.4703   -2.6051   -0.6244 C   0  0  0  0  0  0  0  0  0  0  0  0
    3.1405   -1.3229    0.1250 C   0  0  0  0  0  0  0  0  0  0  0  0
    3.6483   -1.2839    1.5774 C   0  0  0  0  0  0  0  0  0  0  0  0
    5.0952   -1.1773    1.7392 N   0  0  0  0  0  0  0  0  0  0  0  0
    5.8127    0.0431    1.6711 C   0  0  0  0  0  0  0  0  0  0  0  0
    5.3972    1.3812    1.5461 C   0  0  0  0  0  0  0  0  0  0  0  0
    6.3869    2.3910    1.4096 C   0  0  0  0  0  0  0  0  0  0  0  0
    7.7555    2.1047    1.4230 C   0  0  0  0  0  0  0  0  0  0  0  0
    8.8648    3.1151    1.2407 C   0  0  0  0  0  0  0  0  0  0  0  0
    8.5314    4.5804    1.0736 C   0  0  0  0  0  0  0  0  0  0  0  0
   10.1087    2.7097    1.2226 N   0  0  0  0  0  0  0  0  0  0  0  0
   10.9994    3.7870    0.9937 O   0  0  0  0  0  0  0  0  0  0  0  0
   12.3281    3.2894    0.9899 C   0  0  0  0  0  0  0  0  0  0  0  0
    8.1397    0.7636    1.5654 C   0  0  0  0  0  0  0  0  0  0  0  0
    7.1798   -0.2607    1.6562 C   0  0  0  0  0  0  0  0  0  0  0  0
    7.1806   -1.6375    1.6354 C   0  0  0  0  0  0  0  0  0  0  0  0
    8.2753   -2.3775    1.1674 C   0  0  0  0  0  0  0  0  0  0  0  0
    7.9645   -3.6603    0.6770 C   0  0  0  0  0  0  0  0  0  0  0  0
    6.7037   -4.2711    0.8149 C   0  0  0  0  0  0  0  0  0  0  0  0
    5.9023   -3.6668    1.8446 C   0  0  0  0  0  0  0  0  0  0  0  0
    5.9835   -2.2541    1.8445 C   0  0  0  0  0  0  0  0  0  0  0  0
    5.9537   -4.5231    3.1881 C   0  0  0  0  0  0  0  0  0  0  0  0
    7.0152   -5.7029    3.1813 C   0  0  0  0  0  0  0  0  0  0  0  0
    6.8003   -6.4560    1.9171 C   0  0  0  0  0  0  0  0  0  0  0  0
    6.4301   -7.7281    1.7796 N   0  0  0  0  0  0  0  0  0  0  0  0
    5.9517   -7.7575    0.5092 N   0  0  0  0  0  0  0  0  0  0  0  0
    5.3069   -8.9508    0.0174 C   0  0  0  0  0  0  0  0  0  0  0  0
    5.9362   -6.5269   -0.1034 C   0  0  0  0  0  0  0  0  0  0  0  0
    6.6430   -5.7107    0.7397 C   0  0  0  0  0  0  0  0  0  0  0  0
    9.1945   -4.2310    0.1813 C   0  0  0  0  0  0  0  0  0  0  0  0
    9.4756   -5.3007   -0.3378 O   0  0  0  0  0  0  0  0  0  0  0  0
   10.1628   -3.2765    0.4727 N   0  0  0  0  0  0  0  0  0  0  0  0
    9.6834   -2.0303    1.0138 C   0  0  0  0  0  0  0  0  0  0  0  0
    2.9895   -2.6007   -1.6113 H   0  0  0  0  0  0  0  0  0  0  0  0
    3.1089   -3.4847   -0.0827 H   0  0  0  0  0  0  0  0  0  0  0  0
    4.5460   -2.7055   -0.7857 H   0  0  0  0  0  0  0  0  0  0  0  0
    2.0465   -1.2221    0.1431 H   0  0  0  0  0  0  0  0  0  0  0  0
    3.5213   -0.4669   -0.4436 H   0  0  0  0  0  0  0  0  0  0  0  0
    3.3056   -2.1607    2.1365 H   0  0  0  0  0  0  0  0  0  0  0  0
    3.2134   -0.4065    2.0701 H   0  0  0  0  0  0  0  0  0  0  0  0
    4.3466    1.6526    1.5128 H   0  0  0  0  0  0  0  0  0  0  0  0
    6.0285    3.4074    1.2795 H   0  0  0  0  0  0  0  0  0  0  0  0
    7.4832    4.8098    1.1997 H   0  0  0  0  0  0  0  0  0  0  0  0
    8.8424    4.9004    0.0745 H   0  0  0  0  0  0  0  0  0  0  0  0
    9.0849    5.1558    1.8219 H   0  0  0  0  0  0  0  0  0  0  0  0
   12.9985    4.1292    0.7721 H   0  0  0  0  0  0  0  0  0  0  0  0
   12.4643    2.5267    0.2157 H   0  0  0  0  0  0  0  0  0  0  0  0
   12.5908    2.8817    1.9726 H   0  0  0  0  0  0  0  0  0  0  0  0
    9.1932    0.5146    1.5837 H   0  0  0  0  0  0  0  0  0  0  0  0
    4.9598   -4.9579    3.3395 H   0  0  0  0  0  0  0  0  0  0  0  0
    6.1828   -3.8624    4.0318 H   0  0  0  0  0  0  0  0  0  0  0  0
    6.9373   -6.3399    4.0641 H   0  0  0  0  0  0  0  0  0  0  0  0
    8.0345   -5.2830    3.1715 H   0  0  0  0  0  0  0  0  0  0  0  0
    5.5612   -9.7943    0.6637 H   0  0  0  0  0  0  0  0  0  0  0  0
    5.6547   -9.1406   -1.0005 H   0  0  0  0  0  0  0  0  0  0  0  0
    4.2271   -8.7805    0.0291 H   0  0  0  0  0  0  0  0  0  0  0  0
    5.3956   -6.3495   -1.0226 H   0  0  0  0  0  0  0  0  0  0  0  0
   11.1307   -3.4746    0.2714 H   0  0  0  0  0  0  0  0  0  0  0  0
    9.8508   -1.2418    0.2809 H   0  0  0  0  0  0  0  0  0  0  0  0
   10.1669   -1.8257    1.9737 H   0  0  0  0  0  0  0  0  0  0  0  0
  1  2  1  0  0  0  0
  1 34  1  0  0  0  0
  1 35  1  0  0  0  0
  1 36  1  0  0  0  0
  2  3  1  0  0  0  0
  2 37  1  0  0  0  0
  2 38  1  0  0  0  0
  3  4  1  0  0  0  0
  3 39  1  0  0  0  0
  3 40  1  0  0  0  0
  4  5  1  0  0  0  0
  4 21  1  0  0  0  0
  5  6  1  0  0  0  0
  5 15  2  0  0  0  0
  6  7  2  0  0  0  0
  6 41  1  0  0  0  0
  7  8  1  0  0  0  0
  7 42  1  0  0  0  0
  8  9  1  0  0  0  0
  8 14  2  0  0  0  0
  9 10  1  0  0  0  0
  9 11  2  0  0  0  0
 10 43  1  0  0  0  0
 10 44  1  0  0  0  0
 10 45  1  0  0  0  0
 11 12  1  0  0  0  0
 12 13  1  0  0  0  0
 13 46  1  0  0  0  0
 13 47  1  0  0  0  0
 13 48  1  0  0  0  0
 14 15  1  0  0  0  0
 14 49  1  0  0  0  0
 15 16  1  0  0  0  0
 16 17  1  0  0  0  0
 16 21  2  0  0  0  0
 17 18  2  0  0  0  0
 17 33  1  0  0  0  0
 18 19  1  0  0  0  0
 18 30  1  0  0  0  0
 19 20  2  0  0  0  0
 19 29  1  0  0  0  0
 20 21  1  0  0  0  0
 20 22  1  0  0  0  0
 22 23  1  0  0  0  0
 22 50  1  0  0  0  0
 22 51  1  0  0  0  0
 23 24  1  0  0  0  0
 23 52  1  0  0  0  0
 23 53  1  0  0  0  0
 24 25  2  0  0  0  0
 24 29  1  0  0  0  0
 25 26  1  0  0  0  0
 26 27  1  0  0  0  0
 26 28  1  0  0  0  0
 27 54  1  0  0  0  0
 27 55  1  0  0  0  0
 27 56  1  0  0  0  0
 28 29  2  0  0  0  0
 28 57  1  0  0  0  0
 30 31  2  0  0  0  0
 30 32  1  0  0  0  0
 32 33  1  0  0  0  0
 32 58  1  0  0  0  0
 33 59  1  0  0  0  0
 33 60  1  0  0  0  0
M  END
$$$$
