CHEMBL460466
 OpenBabel04072215383D

 66 70  0  0  0  0  0  0  0  0999 V2000
    3.7773   -2.6085    4.1277 C   0  0  0  0  0  0  0  0  0  0  0  0
    4.2371   -2.5139    2.6768 C   0  0  0  0  0  0  0  0  0  0  0  0
    4.8854   -1.1582    2.4177 C   0  0  0  0  0  0  0  0  0  0  0  0
    5.3655   -0.9782    1.0425 N   0  0  0  0  0  0  0  0  0  0  0  0
    6.6245   -1.3337    0.5422 C   0  0  0  0  0  0  0  0  0  0  0  0
    7.7941   -1.6399    1.4252 C   0  0  0  0  0  0  0  0  0  0  0  0
    6.6444   -1.3758   -0.8083 C   0  0  0  0  0  0  0  0  0  0  0  0
    7.8057   -1.5680   -1.7221 C   0  0  0  0  0  0  0  0  0  0  0  0
    8.9248   -1.7910   -1.2708 O   0  0  0  0  0  0  0  0  0  0  0  0
    7.5012   -1.4013   -3.0616 N   0  0  0  0  0  0  0  0  0  0  0  0
    8.3730   -1.4619   -4.1731 C   0  0  0  0  0  0  0  0  0  0  0  0
    9.6927   -1.9254   -4.1309 C   0  0  0  0  0  0  0  0  0  0  0  0
   10.5091   -1.8830   -5.2792 C   0  0  0  0  0  0  0  0  0  0  0  0
   10.0152   -1.3675   -6.4818 C   0  0  0  0  0  0  0  0  0  0  0  0
   10.8887   -1.2724   -7.5469 O   0  0  0  0  0  0  0  0  0  0  0  0
   10.8661   -0.1316   -8.3454 C   0  0  0  0  0  0  0  0  0  0  0  0
   10.4260    1.1019   -7.8648 C   0  0  0  0  0  0  0  0  0  0  0  0
   10.3420    2.1574   -8.7449 C   0  0  0  0  0  0  0  0  0  0  0  0
   10.7471    2.0944  -10.0269 N   0  0  0  0  0  0  0  0  0  0  0  0
   11.2667    0.9390  -10.4707 C   0  0  0  0  0  0  0  0  0  0  0  0
   11.7460    0.9144  -11.7713 C   0  0  0  0  0  0  0  0  0  0  0  0
   12.3285   -0.2275  -12.3301 C   0  0  0  0  0  0  0  0  0  0  0  0
   12.7723   -0.0666  -13.6097 O   0  0  0  0  0  0  0  0  0  0  0  0
   13.4230   -1.1765  -14.2176 C   0  0  0  0  0  0  0  0  0  0  0  0
   12.4125   -1.3850  -11.5668 C   0  0  0  0  0  0  0  0  0  0  0  0
   11.9128   -1.3904  -10.2505 C   0  0  0  0  0  0  0  0  0  0  0  0
   11.3521   -0.2275   -9.6751 C   0  0  0  0  0  0  0  0  0  0  0  0
    8.6691   -1.0035   -6.5383 C   0  0  0  0  0  0  0  0  0  0  0  0
    8.1200   -0.5720   -7.6850 F   0  0  0  0  0  0  0  0  0  0  0  0
    7.8641   -1.0217   -5.3991 C   0  0  0  0  0  0  0  0  0  0  0  0
    5.2281   -1.1692   -1.2193 C   0  0  0  0  0  0  0  0  0  0  0  0
    4.8810   -1.0932   -2.3912 O   0  0  0  0  0  0  0  0  0  0  0  0
    4.4696   -1.0330   -0.0488 N   0  0  0  0  0  0  0  0  0  0  0  0
    3.1703   -0.4837   -0.0442 C   0  0  0  0  0  0  0  0  0  0  0  0
    2.1690   -1.0795   -0.8245 C   0  0  0  0  0  0  0  0  0  0  0  0
    0.8580   -0.5990   -0.7899 C   0  0  0  0  0  0  0  0  0  0  0  0
    0.5403    0.4995    0.0060 C   0  0  0  0  0  0  0  0  0  0  0  0
    1.5333    1.1247    0.7558 C   0  0  0  0  0  0  0  0  0  0  0  0
    2.8425    0.6360    0.7270 C   0  0  0  0  0  0  0  0  0  0  0  0
    3.2513   -3.5509    4.3056 H   0  0  0  0  0  0  0  0  0  0  0  0
    3.0955   -1.7882    4.3793 H   0  0  0  0  0  0  0  0  0  0  0  0
    4.6308   -2.5596    4.8123 H   0  0  0  0  0  0  0  0  0  0  0  0
    3.3699   -2.6558    2.0228 H   0  0  0  0  0  0  0  0  0  0  0  0
    4.9418   -3.3243    2.4614 H   0  0  0  0  0  0  0  0  0  0  0  0
    5.7068   -1.0052    3.1253 H   0  0  0  0  0  0  0  0  0  0  0  0
    4.1775   -0.3680    2.6806 H   0  0  0  0  0  0  0  0  0  0  0  0
    7.5566   -1.5809    2.4896 H   0  0  0  0  0  0  0  0  0  0  0  0
    8.6208   -0.9493    1.2444 H   0  0  0  0  0  0  0  0  0  0  0  0
    8.1359   -2.6664    1.2472 H   0  0  0  0  0  0  0  0  0  0  0  0
    6.5379   -1.1331   -3.2724 H   0  0  0  0  0  0  0  0  0  0  0  0
   10.1154   -2.3309   -3.2150 H   0  0  0  0  0  0  0  0  0  0  0  0
   11.5338   -2.2383   -5.2186 H   0  0  0  0  0  0  0  0  0  0  0  0
   10.1075    1.2495   -6.8397 H   0  0  0  0  0  0  0  0  0  0  0  0
    9.9241    3.1090   -8.4367 H   0  0  0  0  0  0  0  0  0  0  0  0
   11.6741    1.8168  -12.3709 H   0  0  0  0  0  0  0  0  0  0  0  0
   13.7085   -0.8817  -15.2330 H   0  0  0  0  0  0  0  0  0  0  0  0
   12.7507   -2.0343  -14.2973 H   0  0  0  0  0  0  0  0  0  0  0  0
   14.3406   -1.4374  -13.6781 H   0  0  0  0  0  0  0  0  0  0  0  0
   12.8490   -2.2965  -11.9512 H   0  0  0  0  0  0  0  0  0  0  0  0
   11.9903   -2.3050   -9.6672 H   0  0  0  0  0  0  0  0  0  0  0  0
    6.8449   -0.6544   -5.4881 H   0  0  0  0  0  0  0  0  0  0  0  0
    2.3946   -1.9493   -1.4396 H   0  0  0  0  0  0  0  0  0  0  0  0
    0.0833   -1.0848   -1.3768 H   0  0  0  0  0  0  0  0  0  0  0  0
   -0.4797    0.8775    0.0342 H   0  0  0  0  0  0  0  0  0  0  0  0
    1.2958    1.9964    1.3579 H   0  0  0  0  0  0  0  0  0  0  0  0
    3.6107    1.1670    1.2830 H   0  0  0  0  0  0  0  0  0  0  0  0
  1  2  1  0  0  0  0
  1 40  1  0  0  0  0
  1 41  1  0  0  0  0
  1 42  1  0  0  0  0
  2  3  1  0  0  0  0
  2 43  1  0  0  0  0
  2 44  1  0  0  0  0
  3  4  1  0  0  0  0
  3 45  1  0  0  0  0
  3 46  1  0  0  0  0
  4  5  1  0  0  0  0
  4 33  1  0  0  0  0
  5  6  1  0  0  0  0
  5  7  2  0  0  0  0
  6 47  1  0  0  0  0
  6 48  1  0  0  0  0
  6 49  1  0  0  0  0
  7  8  1  0  0  0  0
  7 31  1  0  0  0  0
  8  9  2  0  0  0  0
  8 10  1  0  0  0  0
 10 11  1  0  0  0  0
 10 50  1  0  0  0  0
 11 12  1  0  0  0  0
 11 30  2  0  0  0  0
 12 13  2  0  0  0  0
 12 51  1  0  0  0  0
 13 14  1  0  0  0  0
 13 52  1  0  0  0  0
 14 15  1  0  0  0  0
 14 28  2  0  0  0  0
 15 16  1  0  0  0  0
 16 17  1  0  0  0  0
 16 27  2  0  0  0  0
 17 18  2  0  0  0  0
 17 53  1  0  0  0  0
 18 19  1  0  0  0  0
 18 54  1  0  0  0  0
 19 20  2  0  0  0  0
 20 21  1  0  0  0  0
 20 27  1  0  0  0  0
 21 22  2  0  0  0  0
 21 55  1  0  0  0  0
 22 23  1  0  0  0  0
 22 25  1  0  0  0  0
 23 24  1  0  0  0  0
 24 56  1  0  0  0  0
 24 57  1  0  0  0  0
 24 58  1  0  0  0  0
 25 26  2  0  0  0  0
 25 59  1  0  0  0  0
 26 27  1  0  0  0  0
 26 60  1  0  0  0  0
 28 29  1  0  0  0  0
 28 30  1  0  0  0  0
 30 61  1  0  0  0  0
 31 32  2  0  0  0  0
 31 33  1  0  0  0  0
 33 34  1  0  0  0  0
 34 35  1  0  0  0  0
 34 39  2  0  0  0  0
 35 36  2  0  0  0  0
 35 62  1  0  0  0  0
 36 37  1  0  0  0  0
 36 63  1  0  0  0  0
 37 38  2  0  0  0  0
 37 64  1  0  0  0  0
 38 39  1  0  0  0  0
 38 65  1  0  0  0  0
 39 66  1  0  0  0  0
M  END
$$$$
