CHEMBL3905711
 OpenBabel04072215373D

 54 57  0  0  0  0  0  0  0  0999 V2000
    2.6093    0.0399   -0.1745 C   0  0  0  0  0  0  0  0  0  0  0  0
    1.1151    0.0684   -0.0806 C   0  0  0  0  0  0  0  0  0  0  0  0
    0.4846    1.3200   -0.1197 C   0  0  0  0  0  0  0  0  0  0  0  0
   -0.8940    1.4594    0.0025 C   0  0  0  0  0  0  0  0  0  0  0  0
   -1.5447    2.7198    0.0395 N   0  0  0  0  0  0  0  0  0  0  0  0
   -0.8945    3.9175    0.2598 C   0  0  0  0  0  0  0  0  0  0  0  0
    0.3197    4.0462    0.3977 O   0  0  0  0  0  0  0  0  0  0  0  0
   -1.7549    4.9947    0.3688 N   0  0  0  0  0  0  0  0  0  0  0  0
   -1.2157    6.2867    0.6066 C   0  0  0  0  0  0  0  0  0  0  0  0
   -0.1406    6.7824   -0.1459 C   0  0  0  0  0  0  0  0  0  0  0  0
    0.4059    8.0475    0.1274 C   0  0  0  0  0  0  0  0  0  0  0  0
    1.5408    8.5996   -0.7030 C   0  0  0  0  0  0  0  0  0  0  0  0
    1.9670    7.7582   -1.6848 F   0  0  0  0  0  0  0  0  0  0  0  0
    1.1935    9.7571   -1.3330 F   0  0  0  0  0  0  0  0  0  0  0  0
    2.6407    8.8978    0.0415 F   0  0  0  0  0  0  0  0  0  0  0  0
   -0.1294    8.8023    1.1847 C   0  0  0  0  0  0  0  0  0  0  0  0
   -1.1960    8.3084    1.9408 C   0  0  0  0  0  0  0  0  0  0  0  0
   -1.7421    7.0656    1.6345 C   0  0  0  0  0  0  0  0  0  0  0  0
   -2.7463    6.5852    2.3838 F   0  0  0  0  0  0  0  0  0  0  0  0
   -1.6171    0.2831    0.1206 C   0  0  0  0  0  0  0  0  0  0  0  0
   -1.0547   -0.9484    0.1902 N   0  0  0  0  0  0  0  0  0  0  0  0
    0.2981   -1.0463    0.0791 C   0  0  0  0  0  0  0  0  0  0  0  0
    0.8769   -2.3195    0.1271 O   0  0  0  0  0  0  0  0  0  0  0  0
    0.0830   -3.3877   -0.2639 C   0  0  0  0  0  0  0  0  0  0  0  0
   -0.7819   -3.2909   -1.3507 C   0  0  0  0  0  0  0  0  0  0  0  0
   -1.6011   -4.3602   -1.6231 C   0  0  0  0  0  0  0  0  0  0  0  0
   -1.5517   -5.5170   -0.9517 N   0  0  0  0  0  0  0  0  0  0  0  0
   -0.6594   -5.6566    0.0526 C   0  0  0  0  0  0  0  0  0  0  0  0
   -0.5979   -6.8910    0.7248 N   0  0  0  0  0  0  0  0  0  0  0  0
   -1.4194   -7.9665    0.4212 C   0  0  0  0  0  0  0  0  0  0  0  0
   -2.3008   -8.0120   -0.4286 O   0  0  0  0  0  0  0  0  0  0  0  0
   -1.1861   -9.2020    1.2457 C   0  0  0  0  0  0  0  0  0  0  0  0
   -1.3974  -10.5645    0.6119 C   0  0  0  0  0  0  0  0  0  0  0  0
   -2.3701  -10.0655    1.6382 C   0  0  0  0  0  0  0  0  0  0  0  0
    0.1810   -4.6048    0.4287 C   0  0  0  0  0  0  0  0  0  0  0  0
    2.9913    1.0084   -0.5306 H   0  0  0  0  0  0  0  0  0  0  0  0
    2.9556   -0.7109   -0.8866 H   0  0  0  0  0  0  0  0  0  0  0  0
    3.0503   -0.1335    0.8112 H   0  0  0  0  0  0  0  0  0  0  0  0
    1.1197    2.1874   -0.2685 H   0  0  0  0  0  0  0  0  0  0  0  0
   -2.5543    2.7318    0.0004 H   0  0  0  0  0  0  0  0  0  0  0  0
   -2.6179    4.7987    0.8619 H   0  0  0  0  0  0  0  0  0  0  0  0
    0.2821    6.1801   -0.9503 H   0  0  0  0  0  0  0  0  0  0  0  0
    0.2881    9.7805    1.4213 H   0  0  0  0  0  0  0  0  0  0  0  0
   -1.5956    8.8802    2.7727 H   0  0  0  0  0  0  0  0  0  0  0  0
   -2.6999    0.2775    0.1939 H   0  0  0  0  0  0  0  0  0  0  0  0
   -0.8669   -2.3889   -1.9427 H   0  0  0  0  0  0  0  0  0  0  0  0
   -2.3496   -4.3163   -2.4043 H   0  0  0  0  0  0  0  0  0  0  0  0
    0.0829   -6.9926    1.4635 H   0  0  0  0  0  0  0  0  0  0  0  0
   -0.3823   -9.1358    1.9730 H   0  0  0  0  0  0  0  0  0  0  0  0
   -0.7410  -11.3787    0.8909 H   0  0  0  0  0  0  0  0  0  0  0  0
   -1.7394  -10.6091   -0.4188 H   0  0  0  0  0  0  0  0  0  0  0  0
   -2.3691  -10.5468    2.6082 H   0  0  0  0  0  0  0  0  0  0  0  0
   -3.3580   -9.7774    1.2909 H   0  0  0  0  0  0  0  0  0  0  0  0
    0.8837   -4.7078    1.2448 H   0  0  0  0  0  0  0  0  0  0  0  0
  1  2  1  0  0  0  0
  1 36  1  0  0  0  0
  1 37  1  0  0  0  0
  1 38  1  0  0  0  0
  2  3  1  0  0  0  0
  2 22  2  0  0  0  0
  3  4  2  0  0  0  0
  3 39  1  0  0  0  0
  4  5  1  0  0  0  0
  4 20  1  0  0  0  0
  5  6  1  0  0  0  0
  5 40  1  0  0  0  0
  6  7  2  0  0  0  0
  6  8  1  0  0  0  0
  8  9  1  0  0  0  0
  8 41  1  0  0  0  0
  9 10  1  0  0  0  0
  9 18  2  0  0  0  0
 10 11  2  0  0  0  0
 10 42  1  0  0  0  0
 11 12  1  0  0  0  0
 11 16  1  0  0  0  0
 12 13  1  0  0  0  0
 12 14  1  0  0  0  0
 12 15  1  0  0  0  0
 16 17  2  0  0  0  0
 16 43  1  0  0  0  0
 17 18  1  0  0  0  0
 17 44  1  0  0  0  0
 18 19  1  0  0  0  0
 20 21  2  0  0  0  0
 20 45  1  0  0  0  0
 21 22  1  0  0  0  0
 22 23  1  0  0  0  0
 23 24  1  0  0  0  0
 24 25  1  0  0  0  0
 24 35  2  0  0  0  0
 25 26  2  0  0  0  0
 25 46  1  0  0  0  0
 26 27  1  0  0  0  0
 26 47  1  0  0  0  0
 27 28  2  0  0  0  0
 28 29  1  0  0  0  0
 28 35  1  0  0  0  0
 29 30  1  0  0  0  0
 29 48  1  0  0  0  0
 30 31  2  0  0  0  0
 30 32  1  0  0  0  0
 32 33  1  0  0  0  0
 32 34  1  0  0  0  0
 32 49  1  0  0  0  0
 33 34  1  0  0  0  0
 33 50  1  0  0  0  0
 33 51  1  0  0  0  0
 34 52  1  0  0  0  0
 34 53  1  0  0  0  0
 35 54  1  0  0  0  0
M  END
$$$$
