CHEMBL189353
 OpenBabel04072215363D

 62 65  0  0  0  0  0  0  0  0999 V2000
    1.1924    0.0165   -0.1031 C   0  0  0  0  0  0  0  0  0  0  0  0
    2.6527    0.1699   -0.0978 N   0  0  0  0  0  0  0  0  0  0  0  0
    3.3041    0.1824    1.1460 C   0  0  0  0  0  0  0  0  0  0  0  0
    2.8740   -0.6088    2.2076 C   0  0  0  0  0  0  0  0  0  0  0  0
    3.5414   -0.5904    3.4306 C   0  0  0  0  0  0  0  0  0  0  0  0
    4.6558    0.2234    3.6407 C   0  0  0  0  0  0  0  0  0  0  0  0
    5.3182    0.3114    4.8877 N   0  0  0  0  0  0  0  0  0  0  0  0
    4.9516   -0.3642    6.0359 C   0  0  0  0  0  0  0  0  0  0  0  0
    3.9913   -1.1152    6.1522 O   0  0  0  0  0  0  0  0  0  0  0  0
    5.7812   -0.0650    7.1096 N   0  0  0  0  0  0  0  0  0  0  0  0
    5.5418   -0.7234    8.3557 C   0  0  0  0  0  0  0  0  0  0  0  0
    5.5546   -2.1274    8.4964 C   0  0  0  0  0  0  0  0  0  0  0  0
    6.0169   -3.1972    7.2138 Cl  0  0  0  0  0  0  0  0  0  0  0  0
    5.2831   -2.7186    9.7375 C   0  0  0  0  0  0  0  0  0  0  0  0
    5.0160   -1.9264   10.8529 C   0  0  0  0  0  0  0  0  0  0  0  0
    5.0107   -0.5387   10.7303 C   0  0  0  0  0  0  0  0  0  0  0  0
    5.2723    0.0567    9.4921 C   0  0  0  0  0  0  0  0  0  0  0  0
    5.1928    1.7831    9.3856 Cl  0  0  0  0  0  0  0  0  0  0  0  0
    5.1273    0.9897    2.5729 C   0  0  0  0  0  0  0  0  0  0  0  0
    4.4515    0.9714    1.3451 C   0  0  0  0  0  0  0  0  0  0  0  0
    3.2555   -0.1245   -1.3437 C   0  0  0  0  0  0  0  0  0  0  0  0
    4.5519   -0.5972   -1.4108 C   0  0  0  0  0  0  0  0  0  0  0  0
    5.0627   -0.8549   -2.6584 C   0  0  0  0  0  0  0  0  0  0  0  0
    4.3811   -0.6578   -3.7936 N   0  0  0  0  0  0  0  0  0  0  0  0
    3.1333   -0.1963   -3.6563 C   0  0  0  0  0  0  0  0  0  0  0  0
    2.4178    0.0624   -4.8293 N   0  0  0  0  0  0  0  0  0  0  0  0
    1.4664    1.0872   -4.9859 C   0  0  0  0  0  0  0  0  0  0  0  0
    0.4723    0.9668   -5.9556 C   0  0  0  0  0  0  0  0  0  0  0  0
   -0.4795    1.9772   -6.1138 C   0  0  0  0  0  0  0  0  0  0  0  0
   -0.4392    3.1246   -5.3136 C   0  0  0  0  0  0  0  0  0  0  0  0
    0.5484    3.2736   -4.3345 C   0  0  0  0  0  0  0  0  0  0  0  0
    0.6965    4.5055   -3.4799 C   0  0  0  0  0  0  0  0  0  0  0  0
   -0.7088    4.8259   -2.4245 S   0  0  0  0  0  0  0  0  0  0  0  0
   -0.8609    3.3845   -1.3893 C   0  0  0  0  0  0  0  0  0  0  0  0
   -0.3315    5.9202   -1.5478 O   0  0  0  0  0  0  0  0  0  0  0  0
   -1.9060    4.9304   -3.2240 O   0  0  0  0  0  0  0  0  0  0  0  0
    1.5055    2.2566   -4.2098 C   0  0  0  0  0  0  0  0  0  0  0  0
    2.5505    0.0543   -2.4697 N   0  0  0  0  0  0  0  0  0  0  0  0
    0.7420    0.2187    0.8777 H   0  0  0  0  0  0  0  0  0  0  0  0
    0.9019   -0.9999   -0.3957 H   0  0  0  0  0  0  0  0  0  0  0  0
    0.7219    0.7303   -0.7889 H   0  0  0  0  0  0  0  0  0  0  0  0
    2.0276   -1.2820    2.1027 H   0  0  0  0  0  0  0  0  0  0  0  0
    3.1482   -1.2457    4.1977 H   0  0  0  0  0  0  0  0  0  0  0  0
    6.1284    0.9106    4.9388 H   0  0  0  0  0  0  0  0  0  0  0  0
    5.9534    0.9296    7.1905 H   0  0  0  0  0  0  0  0  0  0  0  0
    5.2942   -3.8017    9.8414 H   0  0  0  0  0  0  0  0  0  0  0  0
    4.8198   -2.3923   11.8161 H   0  0  0  0  0  0  0  0  0  0  0  0
    4.7932    0.0746   11.6016 H   0  0  0  0  0  0  0  0  0  0  0  0
    6.0117    1.6139    2.6690 H   0  0  0  0  0  0  0  0  0  0  0  0
    4.8256    1.5896    0.5308 H   0  0  0  0  0  0  0  0  0  0  0  0
    5.1466   -0.7924   -0.5300 H   0  0  0  0  0  0  0  0  0  0  0  0
    6.0728   -1.2404   -2.7683 H   0  0  0  0  0  0  0  0  0  0  0  0
    3.0492   -0.0404   -5.6141 H   0  0  0  0  0  0  0  0  0  0  0  0
    0.4122    0.0707   -6.5684 H   0  0  0  0  0  0  0  0  0  0  0  0
   -1.2604    1.8658   -6.8627 H   0  0  0  0  0  0  0  0  0  0  0  0
   -1.1888    3.8978   -5.4759 H   0  0  0  0  0  0  0  0  0  0  0  0
    0.8563    5.3894   -4.1034 H   0  0  0  0  0  0  0  0  0  0  0  0
    1.5567    4.4140   -2.8054 H   0  0  0  0  0  0  0  0  0  0  0  0
    0.0875    3.2076   -0.8798 H   0  0  0  0  0  0  0  0  0  0  0  0
   -1.1551    2.5280   -1.9947 H   0  0  0  0  0  0  0  0  0  0  0  0
   -1.6360    3.5942   -0.6480 H   0  0  0  0  0  0  0  0  0  0  0  0
    2.3120    2.3824   -3.4893 H   0  0  0  0  0  0  0  0  0  0  0  0
  1  2  1  0  0  0  0
  1 39  1  0  0  0  0
  1 40  1  0  0  0  0
  1 41  1  0  0  0  0
  2  3  1  0  0  0  0
  2 21  1  0  0  0  0
  3  4  1  0  0  0  0
  3 20  2  0  0  0  0
  4  5  2  0  0  0  0
  4 42  1  0  0  0  0
  5  6  1  0  0  0  0
  5 43  1  0  0  0  0
  6  7  1  0  0  0  0
  6 19  2  0  0  0  0
  7  8  1  0  0  0  0
  7 44  1  0  0  0  0
  8  9  2  0  0  0  0
  8 10  1  0  0  0  0
 10 11  1  0  0  0  0
 10 45  1  0  0  0  0
 11 12  1  0  0  0  0
 11 17  2  0  0  0  0
 12 13  1  0  0  0  0
 12 14  2  0  0  0  0
 14 15  1  0  0  0  0
 14 46  1  0  0  0  0
 15 16  2  0  0  0  0
 15 47  1  0  0  0  0
 16 17  1  0  0  0  0
 16 48  1  0  0  0  0
 17 18  1  0  0  0  0
 19 20  1  0  0  0  0
 19 49  1  0  0  0  0
 20 50  1  0  0  0  0
 21 22  1  0  0  0  0
 21 38  2  0  0  0  0
 22 23  2  0  0  0  0
 22 51  1  0  0  0  0
 23 24  1  0  0  0  0
 23 52  1  0  0  0  0
 24 25  2  0  0  0  0
 25 26  1  0  0  0  0
 25 38  1  0  0  0  0
 26 27  1  0  0  0  0
 26 53  1  0  0  0  0
 27 28  1  0  0  0  0
 27 37  2  0  0  0  0
 28 29  2  0  0  0  0
 28 54  1  0  0  0  0
 29 30  1  0  0  0  0
 29 55  1  0  0  0  0
 30 31  2  0  0  0  0
 30 56  1  0  0  0  0
 31 32  1  0  0  0  0
 31 37  1  0  0  0  0
 32 33  1  0  0  0  0
 32 57  1  0  0  0  0
 32 58  1  0  0  0  0
 33 34  1  0  0  0  0
 33 35  2  0  0  0  0
 33 36  2  0  0  0  0
 34 59  1  0  0  0  0
 34 60  1  0  0  0  0
 34 61  1  0  0  0  0
 37 62  1  0  0  0  0
M  END
$$$$
