CHEMBL191779
 OpenBabel04072215363D

 47 49  0  0  0  0  0  0  0  0999 V2000
    1.4418    2.1394   -3.1607 C   0  0  0  0  0  0  0  0  0  0  0  0
    2.9005    1.8403   -2.8762 C   0  0  0  0  0  0  0  0  0  0  0  0
    3.1251    1.0978   -1.2628 S   0  0  0  0  0  0  0  0  0  0  0  0
    2.6219    2.0255   -0.2695 O   0  0  0  0  0  0  0  0  0  0  0  0
    2.6584   -0.2749   -1.3075 O   0  0  0  0  0  0  0  0  0  0  0  0
    4.8919    1.0389   -1.0747 C   0  0  0  0  0  0  0  0  0  0  0  0
    5.5285    1.7189   -0.0420 C   0  0  0  0  0  0  0  0  0  0  0  0
    6.9263    1.7219    0.0150 C   0  0  0  0  0  0  0  0  0  0  0  0
    7.6804    1.0738   -0.9749 C   0  0  0  0  0  0  0  0  0  0  0  0
    9.0551    1.0829   -1.0395 O   0  0  0  0  0  0  0  0  0  0  0  0
    9.7462    1.4320    0.1549 C   0  0  0  0  0  0  0  0  0  0  0  0
    7.0322    0.3955   -2.0321 C   0  0  0  0  0  0  0  0  0  0  0  0
    7.8072   -0.1981   -3.0581 N   0  0  0  0  0  0  0  0  0  0  0  0
    7.3490   -0.6079   -4.2537 C   0  0  0  0  0  0  0  0  0  0  0  0
    6.1111   -0.8087   -4.6551 N   0  0  0  0  0  0  0  0  0  0  0  0
    6.2257   -1.1597   -5.9628 C   0  0  0  0  0  0  0  0  0  0  0  0
    7.5473   -1.1513   -6.3409 C   0  0  0  0  0  0  0  0  0  0  0  0
    8.2333   -1.4070   -7.5951 C   0  0  0  0  0  0  0  0  0  0  0  0
    7.4766   -1.7036   -8.7395 C   0  0  0  0  0  0  0  0  0  0  0  0
    8.0889   -1.9691   -9.9660 C   0  0  0  0  0  0  0  0  0  0  0  0
    9.4761   -1.9433  -10.0710 C   0  0  0  0  0  0  0  0  0  0  0  0
   10.1915   -2.1987  -11.2079 O   0  0  0  0  0  0  0  0  0  0  0  0
    9.4386   -2.5351  -12.3682 C   0  0  0  0  0  0  0  0  0  0  0  0
   10.2391   -1.6371   -8.9414 C   0  0  0  0  0  0  0  0  0  0  0  0
    9.6255   -1.3691   -7.7114 C   0  0  0  0  0  0  0  0  0  0  0  0
    8.2865   -0.8107   -5.2342 O   0  0  0  0  0  0  0  0  0  0  0  0
    5.6320    0.3473   -2.0290 C   0  0  0  0  0  0  0  0  0  0  0  0
    1.3340    2.6001   -4.1479 H   0  0  0  0  0  0  0  0  0  0  0  0
    1.0283    2.8288   -2.4180 H   0  0  0  0  0  0  0  0  0  0  0  0
    0.8403    1.2252   -3.1426 H   0  0  0  0  0  0  0  0  0  0  0  0
    3.4840    2.7655   -2.8983 H   0  0  0  0  0  0  0  0  0  0  0  0
    3.2923    1.1502   -3.6290 H   0  0  0  0  0  0  0  0  0  0  0  0
    4.9534    2.2518    0.7117 H   0  0  0  0  0  0  0  0  0  0  0  0
    7.3962    2.2674    0.8268 H   0  0  0  0  0  0  0  0  0  0  0  0
   10.8180    1.3209   -0.0362 H   0  0  0  0  0  0  0  0  0  0  0  0
    9.4790    0.7557    0.9738 H   0  0  0  0  0  0  0  0  0  0  0  0
    9.5703    2.4769    0.4292 H   0  0  0  0  0  0  0  0  0  0  0  0
    8.8012   -0.0227   -2.9540 H   0  0  0  0  0  0  0  0  0  0  0  0
    5.3556   -1.3876   -6.5609 H   0  0  0  0  0  0  0  0  0  0  0  0
    6.3902   -1.7348   -8.6976 H   0  0  0  0  0  0  0  0  0  0  0  0
    7.4484   -2.1941  -10.8119 H   0  0  0  0  0  0  0  0  0  0  0  0
   10.1433   -2.7510  -13.1760 H   0  0  0  0  0  0  0  0  0  0  0  0
    8.8123   -1.6941  -12.6852 H   0  0  0  0  0  0  0  0  0  0  0  0
    8.8358   -3.4353  -12.2045 H   0  0  0  0  0  0  0  0  0  0  0  0
   11.3237   -1.6105   -9.0172 H   0  0  0  0  0  0  0  0  0  0  0  0
   10.2487   -1.1360   -6.8509 H   0  0  0  0  0  0  0  0  0  0  0  0
    5.0908   -0.2195   -2.7790 H   0  0  0  0  0  0  0  0  0  0  0  0
  1  2  1  0  0  0  0
  1 28  1  0  0  0  0
  1 29  1  0  0  0  0
  1 30  1  0  0  0  0
  2  3  1  0  0  0  0
  2 31  1  0  0  0  0
  2 32  1  0  0  0  0
  3  4  2  0  0  0  0
  3  5  2  0  0  0  0
  3  6  1  0  0  0  0
  6  7  1  0  0  0  0
  6 27  2  0  0  0  0
  7  8  2  0  0  0  0
  7 33  1  0  0  0  0
  8  9  1  0  0  0  0
  8 34  1  0  0  0  0
  9 10  1  0  0  0  0
  9 12  2  0  0  0  0
 10 11  1  0  0  0  0
 11 35  1  0  0  0  0
 11 36  1  0  0  0  0
 11 37  1  0  0  0  0
 12 13  1  0  0  0  0
 12 27  1  0  0  0  0
 13 14  1  0  0  0  0
 13 38  1  0  0  0  0
 14 15  2  0  0  0  0
 14 26  1  0  0  0  0
 15 16  1  0  0  0  0
 16 17  2  0  0  0  0
 16 39  1  0  0  0  0
 17 18  1  0  0  0  0
 17 26  1  0  0  0  0
 18 19  1  0  0  0  0
 18 25  2  0  0  0  0
 19 20  2  0  0  0  0
 19 40  1  0  0  0  0
 20 21  1  0  0  0  0
 20 41  1  0  0  0  0
 21 22  1  0  0  0  0
 21 24  2  0  0  0  0
 22 23  1  0  0  0  0
 23 42  1  0  0  0  0
 23 43  1  0  0  0  0
 23 44  1  0  0  0  0
 24 25  1  0  0  0  0
 24 45  1  0  0  0  0
 25 46  1  0  0  0  0
 27 47  1  0  0  0  0
M  END
$$$$
