CHEMBL187361
 OpenBabel04072215363D

 64 67  0  0  0  0  0  0  0  0999 V2000
    1.0511   -0.0079    0.0142 C   0  0  0  0  0  0  0  0  0  0  0  0
    2.5132    0.0215   -0.1018 N   0  0  0  0  0  0  0  0  0  0  0  0
    3.1303    1.2389   -0.4356 C   0  0  0  0  0  0  0  0  0  0  0  0
    2.6946    2.4696    0.0755 C   0  0  0  0  0  0  0  0  0  0  0  0
    3.3585    3.6589   -0.2423 C   0  0  0  0  0  0  0  0  0  0  0  0
    4.4631    3.6324   -1.0893 C   0  0  0  0  0  0  0  0  0  0  0  0
    5.0947    4.8355   -1.4829 N   0  0  0  0  0  0  0  0  0  0  0  0
    6.2673    5.5649   -0.5380 S   0  0  0  0  0  0  0  0  0  0  0  0
    6.6363    6.7591   -1.2763 O   0  0  0  0  0  0  0  0  0  0  0  0
    5.7596    5.6504    0.8186 O   0  0  0  0  0  0  0  0  0  0  0  0
    7.6327    4.4004   -0.6039 C   0  0  0  0  0  0  0  0  0  0  0  0
    8.8218    4.9327    0.1569 C   0  0  0  0  0  0  0  0  0  0  0  0
    8.9758    4.6771    1.5264 C   0  0  0  0  0  0  0  0  0  0  0  0
   10.1072    5.1276    2.2132 C   0  0  0  0  0  0  0  0  0  0  0  0
   11.0964    5.8415    1.5411 C   0  0  0  0  0  0  0  0  0  0  0  0
   10.9468    6.1212    0.1840 C   0  0  0  0  0  0  0  0  0  0  0  0
    9.8172    5.6724   -0.5051 C   0  0  0  0  0  0  0  0  0  0  0  0
    4.9154    2.4272   -1.6111 C   0  0  0  0  0  0  0  0  0  0  0  0
    4.2520    1.2434   -1.2848 C   0  0  0  0  0  0  0  0  0  0  0  0
    3.1472   -1.1234    0.4442 C   0  0  0  0  0  0  0  0  0  0  0  0
    4.4488   -1.0605    0.9022 C   0  0  0  0  0  0  0  0  0  0  0  0
    4.9859   -2.2059    1.4377 C   0  0  0  0  0  0  0  0  0  0  0  0
    4.3222   -3.3666    1.5159 N   0  0  0  0  0  0  0  0  0  0  0  0
    3.0729   -3.3642    1.0378 C   0  0  0  0  0  0  0  0  0  0  0  0
    2.3876   -4.5808    1.0852 N   0  0  0  0  0  0  0  0  0  0  0  0
    1.4357   -5.0343    0.1564 C   0  0  0  0  0  0  0  0  0  0  0  0
    1.4132   -4.5958   -1.1710 C   0  0  0  0  0  0  0  0  0  0  0  0
    0.4205   -5.0290   -2.0474 C   0  0  0  0  0  0  0  0  0  0  0  0
   -0.5565   -5.9197   -1.6109 C   0  0  0  0  0  0  0  0  0  0  0  0
   -0.5308   -6.4199   -0.3016 C   0  0  0  0  0  0  0  0  0  0  0  0
   -1.6153   -7.3234    0.2253 C   0  0  0  0  0  0  0  0  0  0  0  0
   -1.6911   -8.8977   -0.6208 S   0  0  0  0  0  0  0  0  0  0  0  0
   -0.0762   -9.6111   -0.4138 C   0  0  0  0  0  0  0  0  0  0  0  0
   -2.6138   -9.7327    0.1301 O   0  0  0  0  0  0  0  0  0  0  0  0
   -1.9110   -8.6853   -2.0395 O   0  0  0  0  0  0  0  0  0  0  0  0
    0.4766   -5.9683    0.5697 C   0  0  0  0  0  0  0  0  0  0  0  0
    2.4648   -2.2784    0.5293 N   0  0  0  0  0  0  0  0  0  0  0  0
    0.5757    0.8810   -0.4187 H   0  0  0  0  0  0  0  0  0  0  0  0
    0.7460   -0.0665    1.0661 H   0  0  0  0  0  0  0  0  0  0  0  0
    0.6230   -0.8614   -0.5262 H   0  0  0  0  0  0  0  0  0  0  0  0
    1.8463    2.5131    0.7551 H   0  0  0  0  0  0  0  0  0  0  0  0
    3.0016    4.6003    0.1695 H   0  0  0  0  0  0  0  0  0  0  0  0
    5.0678    5.1152   -2.4607 H   0  0  0  0  0  0  0  0  0  0  0  0
    7.8860    4.2420   -1.6564 H   0  0  0  0  0  0  0  0  0  0  0  0
    7.3026    3.4532   -0.1693 H   0  0  0  0  0  0  0  0  0  0  0  0
    8.2151    4.1253    2.0759 H   0  0  0  0  0  0  0  0  0  0  0  0
   10.2198    4.9181    3.2733 H   0  0  0  0  0  0  0  0  0  0  0  0
   11.9780    6.1856    2.0731 H   0  0  0  0  0  0  0  0  0  0  0  0
   11.7143    6.6866   -0.3403 H   0  0  0  0  0  0  0  0  0  0  0  0
    9.7221    5.9060   -1.5631 H   0  0  0  0  0  0  0  0  0  0  0  0
    5.7730    2.3901   -2.2751 H   0  0  0  0  0  0  0  0  0  0  0  0
    4.6097    0.3081   -1.7119 H   0  0  0  0  0  0  0  0  0  0  0  0
    5.0293   -0.1496    0.8832 H   0  0  0  0  0  0  0  0  0  0  0  0
    5.9978   -2.2118    1.8297 H   0  0  0  0  0  0  0  0  0  0  0  0
    3.0369   -5.2913    1.3981 H   0  0  0  0  0  0  0  0  0  0  0  0
    2.1585   -3.8923   -1.5347 H   0  0  0  0  0  0  0  0  0  0  0  0
    0.4008   -4.6474   -3.0669 H   0  0  0  0  0  0  0  0  0  0  0  0
   -1.3437   -6.2052   -2.3067 H   0  0  0  0  0  0  0  0  0  0  0  0
   -2.5942   -6.8429    0.1315 H   0  0  0  0  0  0  0  0  0  0  0  0
   -1.4547   -7.5548    1.2843 H   0  0  0  0  0  0  0  0  0  0  0  0
    0.1607   -9.6461    0.6512 H   0  0  0  0  0  0  0  0  0  0  0  0
    0.6587   -9.0214   -0.9622 H   0  0  0  0  0  0  0  0  0  0  0  0
   -0.1087  -10.6269   -0.8159 H   0  0  0  0  0  0  0  0  0  0  0  0
    0.4825   -6.2918    1.6094 H   0  0  0  0  0  0  0  0  0  0  0  0
  1  2  1  0  0  0  0
  1 38  1  0  0  0  0
  1 39  1  0  0  0  0
  1 40  1  0  0  0  0
  2  3  1  0  0  0  0
  2 20  1  0  0  0  0
  3  4  1  0  0  0  0
  3 19  2  0  0  0  0
  4  5  2  0  0  0  0
  4 41  1  0  0  0  0
  5  6  1  0  0  0  0
  5 42  1  0  0  0  0
  6  7  1  0  0  0  0
  6 18  2  0  0  0  0
  7  8  1  0  0  0  0
  7 43  1  0  0  0  0
  8  9  2  0  0  0  0
  8 10  2  0  0  0  0
  8 11  1  0  0  0  0
 11 12  1  0  0  0  0
 11 44  1  0  0  0  0
 11 45  1  0  0  0  0
 12 13  1  0  0  0  0
 12 17  2  0  0  0  0
 13 14  2  0  0  0  0
 13 46  1  0  0  0  0
 14 15  1  0  0  0  0
 14 47  1  0  0  0  0
 15 16  2  0  0  0  0
 15 48  1  0  0  0  0
 16 17  1  0  0  0  0
 16 49  1  0  0  0  0
 17 50  1  0  0  0  0
 18 19  1  0  0  0  0
 18 51  1  0  0  0  0
 19 52  1  0  0  0  0
 20 21  1  0  0  0  0
 20 37  2  0  0  0  0
 21 22  2  0  0  0  0
 21 53  1  0  0  0  0
 22 23  1  0  0  0  0
 22 54  1  0  0  0  0
 23 24  2  0  0  0  0
 24 25  1  0  0  0  0
 24 37  1  0  0  0  0
 25 26  1  0  0  0  0
 25 55  1  0  0  0  0
 26 27  1  0  0  0  0
 26 36  2  0  0  0  0
 27 28  2  0  0  0  0
 27 56  1  0  0  0  0
 28 29  1  0  0  0  0
 28 57  1  0  0  0  0
 29 30  2  0  0  0  0
 29 58  1  0  0  0  0
 30 31  1  0  0  0  0
 30 36  1  0  0  0  0
 31 32  1  0  0  0  0
 31 59  1  0  0  0  0
 31 60  1  0  0  0  0
 32 33  1  0  0  0  0
 32 34  2  0  0  0  0
 32 35  2  0  0  0  0
 33 61  1  0  0  0  0
 33 62  1  0  0  0  0
 33 63  1  0  0  0  0
 36 64  1  0  0  0  0
M  END
$$$$
