CHEMBL3930387
 OpenBabel04072215373D

 54 57  0  0  0  0  0  0  0  0999 V2000
    3.1013   -0.6046   -5.7140 C   0  0  0  0  0  0  0  0  0  0  0  0
    1.7766   -0.8412   -5.0013 C   0  0  0  0  0  0  0  0  0  0  0  0
    1.0360    0.3004   -5.0785 F   0  0  0  0  0  0  0  0  0  0  0  0
    1.0760   -1.7483   -5.7510 F   0  0  0  0  0  0  0  0  0  0  0  0
    2.0024   -1.3304   -3.5875 C   0  0  0  0  0  0  0  0  0  0  0  0
    2.0860   -2.7221   -3.3752 C   0  0  0  0  0  0  0  0  0  0  0  0
    2.3869   -3.2691   -2.1223 C   0  0  0  0  0  0  0  0  0  0  0  0
    2.5393   -4.6607   -1.9262 N   0  0  0  0  0  0  0  0  0  0  0  0
    2.8895   -5.5468   -2.9366 C   0  0  0  0  0  0  0  0  0  0  0  0
    3.2683   -5.2053   -4.0482 O   0  0  0  0  0  0  0  0  0  0  0  0
    2.7242   -6.8700   -2.5425 N   0  0  0  0  0  0  0  0  0  0  0  0
    2.9454   -7.9125   -3.4767 C   0  0  0  0  0  0  0  0  0  0  0  0
    4.0723   -7.9266   -4.3098 C   0  0  0  0  0  0  0  0  0  0  0  0
    4.2028   -8.8905   -5.3166 C   0  0  0  0  0  0  0  0  0  0  0  0
    3.2005   -9.8445   -5.4995 C   0  0  0  0  0  0  0  0  0  0  0  0
    3.3834  -10.7626   -6.5104 O   0  0  0  0  0  0  0  0  0  0  0  0
    2.2994  -11.0369   -7.3443 C   0  0  0  0  0  0  0  0  0  0  0  0
    2.3669  -12.2053   -8.0769 C   0  0  0  0  0  0  0  0  0  0  0  0
    1.2931  -12.4586   -8.9064 C   0  0  0  0  0  0  0  0  0  0  0  0
    1.3114  -13.6209   -9.6983 N   0  0  0  0  0  0  0  0  0  0  0  0
    0.3229  -13.9464  -10.6081 C   0  0  0  0  0  0  0  0  0  0  0  0
   -0.7021  -13.3293  -10.8512 O   0  0  0  0  0  0  0  0  0  0  0  0
    0.5863  -15.2265  -11.3419 C   0  0  0  0  0  0  0  0  0  0  0  0
   -0.2969  -15.6238  -12.5091 C   0  0  0  0  0  0  0  0  0  0  0  0
   -0.3980  -16.3679  -11.2102 C   0  0  0  0  0  0  0  0  0  0  0  0
    0.2469  -11.6282   -8.9724 N   0  0  0  0  0  0  0  0  0  0  0  0
    0.2910  -10.5215   -8.2333 C   0  0  0  0  0  0  0  0  0  0  0  0
    1.2888  -10.1534   -7.4339 N   0  0  0  0  0  0  0  0  0  0  0  0
    2.1233   -9.8745   -4.6092 C   0  0  0  0  0  0  0  0  0  0  0  0
    1.1827  -10.8265   -4.7032 F   0  0  0  0  0  0  0  0  0  0  0  0
    1.9921   -8.9212   -3.5981 C   0  0  0  0  0  0  0  0  0  0  0  0
    2.5348   -2.4102   -1.0353 C   0  0  0  0  0  0  0  0  0  0  0  0
    2.4448   -1.0251   -1.2206 C   0  0  0  0  0  0  0  0  0  0  0  0
    2.1950   -0.4867   -2.4890 C   0  0  0  0  0  0  0  0  0  0  0  0
    2.1737    1.2344   -2.6233 Cl  0  0  0  0  0  0  0  0  0  0  0  0
    2.9215   -0.2186   -6.7226 H   0  0  0  0  0  0  0  0  0  0  0  0
    3.6679   -1.5369   -5.8148 H   0  0  0  0  0  0  0  0  0  0  0  0
    3.7229    0.1250   -5.1857 H   0  0  0  0  0  0  0  0  0  0  0  0
    1.9114   -3.3754   -4.2301 H   0  0  0  0  0  0  0  0  0  0  0  0
    2.7016   -4.9853   -0.9826 H   0  0  0  0  0  0  0  0  0  0  0  0
    1.9664   -7.0078   -1.8884 H   0  0  0  0  0  0  0  0  0  0  0  0
    4.8500   -7.1732   -4.1981 H   0  0  0  0  0  0  0  0  0  0  0  0
    5.0721   -8.8710   -5.9681 H   0  0  0  0  0  0  0  0  0  0  0  0
    3.2177  -12.8636   -7.9952 H   0  0  0  0  0  0  0  0  0  0  0  0
    2.1014  -14.2387   -9.6078 H   0  0  0  0  0  0  0  0  0  0  0  0
    1.6331  -15.4940  -11.4474 H   0  0  0  0  0  0  0  0  0  0  0  0
    0.1593  -16.1259  -13.3535 H   0  0  0  0  0  0  0  0  0  0  0  0
   -1.1204  -14.9691  -12.7830 H   0  0  0  0  0  0  0  0  0  0  0  0
   -0.0128  -17.3792  -11.1766 H   0  0  0  0  0  0  0  0  0  0  0  0
   -1.2913  -16.2096  -10.6141 H   0  0  0  0  0  0  0  0  0  0  0  0
   -0.5724   -9.8603   -8.2919 H   0  0  0  0  0  0  0  0  0  0  0  0
    1.1074   -8.9499   -2.9727 H   0  0  0  0  0  0  0  0  0  0  0  0
    2.7580   -2.7915   -0.0429 H   0  0  0  0  0  0  0  0  0  0  0  0
    2.5941   -0.3640   -0.3702 H   0  0  0  0  0  0  0  0  0  0  0  0
  1  2  1  0  0  0  0
  1 36  1  0  0  0  0
  1 37  1  0  0  0  0
  1 38  1  0  0  0  0
  2  3  1  0  0  0  0
  2  4  1  0  0  0  0
  2  5  1  0  0  0  0
  5  6  1  0  0  0  0
  5 34  2  0  0  0  0
  6  7  2  0  0  0  0
  6 39  1  0  0  0  0
  7  8  1  0  0  0  0
  7 32  1  0  0  0  0
  8  9  1  0  0  0  0
  8 40  1  0  0  0  0
  9 10  2  0  0  0  0
  9 11  1  0  0  0  0
 11 12  1  0  0  0  0
 11 41  1  0  0  0  0
 12 13  1  0  0  0  0
 12 31  2  0  0  0  0
 13 14  2  0  0  0  0
 13 42  1  0  0  0  0
 14 15  1  0  0  0  0
 14 43  1  0  0  0  0
 15 16  1  0  0  0  0
 15 29  2  0  0  0  0
 16 17  1  0  0  0  0
 17 18  1  0  0  0  0
 17 28  2  0  0  0  0
 18 19  2  0  0  0  0
 18 44  1  0  0  0  0
 19 20  1  0  0  0  0
 19 26  1  0  0  0  0
 20 21  1  0  0  0  0
 20 45  1  0  0  0  0
 21 22  2  0  0  0  0
 21 23  1  0  0  0  0
 23 24  1  0  0  0  0
 23 25  1  0  0  0  0
 23 46  1  0  0  0  0
 24 25  1  0  0  0  0
 24 47  1  0  0  0  0
 24 48  1  0  0  0  0
 25 49  1  0  0  0  0
 25 50  1  0  0  0  0
 26 27  2  0  0  0  0
 27 28  1  0  0  0  0
 27 51  1  0  0  0  0
 29 30  1  0  0  0  0
 29 31  1  0  0  0  0
 31 52  1  0  0  0  0
 32 33  2  0  0  0  0
 32 53  1  0  0  0  0
 33 34  1  0  0  0  0
 33 54  1  0  0  0  0
 34 35  1  0  0  0  0
M  END
$$$$
