CHEMBL340384
 OpenBabel04072215363D

 42 45  0  0  0  0  0  0  0  0999 V2000
    2.7471    0.5880    1.2292 N   0  0  0  0  0  0  0  0  0  0  0  0
    2.3734    0.2385   -0.0287 C   0  0  0  0  0  0  0  0  0  0  0  0
    1.4512    0.8181   -0.5941 O   0  0  0  0  0  0  0  0  0  0  0  0
    3.1542   -0.8633   -0.6560 C   0  0  0  0  0  0  0  0  0  0  0  0
    2.8720   -1.2270   -1.9174 C   0  0  0  0  0  0  0  0  0  0  0  0
    3.5253   -2.1741   -2.7189 N   0  0  0  0  0  0  0  0  0  0  0  0
    3.0234   -2.4248   -4.0647 C   0  0  0  0  0  0  0  0  0  0  0  0
    2.9321   -3.7551   -4.5418 C   0  0  0  0  0  0  0  0  0  0  0  0
    2.5496   -4.0655   -5.8528 C   0  0  0  0  0  0  0  0  0  0  0  0
    2.1252   -3.0509   -6.6907 C   0  0  0  0  0  0  0  0  0  0  0  0
    1.7361   -3.3015   -7.9717 O   0  0  0  0  0  0  0  0  0  0  0  0
    2.1043   -1.7397   -6.2469 C   0  0  0  0  0  0  0  0  0  0  0  0
    2.5888   -1.4152   -4.9674 C   0  0  0  0  0  0  0  0  0  0  0  0
    2.7079    0.2893   -4.6581 Cl  0  0  0  0  0  0  0  0  0  0  0  0
    4.5736   -2.9331   -2.0622 C   0  0  0  0  0  0  0  0  0  0  0  0
    5.3515   -3.9138   -2.7108 C   0  0  0  0  0  0  0  0  0  0  0  0
    6.2307   -4.7896   -2.0294 C   0  0  0  0  0  0  0  0  0  0  0  0
    6.8762   -5.9295   -2.7263 C   0  0  0  0  0  0  0  0  0  0  0  0
    7.2620   -5.8523   -4.0716 C   0  0  0  0  0  0  0  0  0  0  0  0
    7.8151   -6.9646   -4.6902 C   0  0  0  0  0  0  0  0  0  0  0  0
    8.0232   -8.1426   -4.0715 N   0  0  0  0  0  0  0  0  0  0  0  0
    7.6607   -8.2117   -2.7764 C   0  0  0  0  0  0  0  0  0  0  0  0
    7.0915   -7.1564   -2.0776 C   0  0  0  0  0  0  0  0  0  0  0  0
    6.4238   -4.5696   -0.6601 C   0  0  0  0  0  0  0  0  0  0  0  0
    5.7749   -3.5253   -0.0081 C   0  0  0  0  0  0  0  0  0  0  0  0
    4.8640   -2.7177   -0.7032 C   0  0  0  0  0  0  0  0  0  0  0  0
    4.2264   -1.6087    0.0322 C   0  0  0  0  0  0  0  0  0  0  0  0
    4.5736   -1.3411    1.1804 O   0  0  0  0  0  0  0  0  0  0  0  0
    2.2745    1.3504    1.6888 H   0  0  0  0  0  0  0  0  0  0  0  0
    3.5176    0.1244    1.7097 H   0  0  0  0  0  0  0  0  0  0  0  0
    2.0176   -0.7558   -2.3945 H   0  0  0  0  0  0  0  0  0  0  0  0
    3.1674   -4.5941   -3.8907 H   0  0  0  0  0  0  0  0  0  0  0  0
    2.5779   -5.0986   -6.1861 H   0  0  0  0  0  0  0  0  0  0  0  0
    1.9268   -4.2278   -8.1926 H   0  0  0  0  0  0  0  0  0  0  0  0
    1.7416   -0.9618   -6.9157 H   0  0  0  0  0  0  0  0  0  0  0  0
    5.2640   -4.0312   -3.7851 H   0  0  0  0  0  0  0  0  0  0  0  0
    7.1438   -4.9418   -4.6493 H   0  0  0  0  0  0  0  0  0  0  0  0
    8.1109   -6.9314   -5.7349 H   0  0  0  0  0  0  0  0  0  0  0  0
    7.8390   -9.1689   -2.2949 H   0  0  0  0  0  0  0  0  0  0  0  0
    6.8033   -7.3145   -1.0431 H   0  0  0  0  0  0  0  0  0  0  0  0
    7.0995   -5.1958   -0.0807 H   0  0  0  0  0  0  0  0  0  0  0  0
    5.9672   -3.3565    1.0500 H   0  0  0  0  0  0  0  0  0  0  0  0
  1  2  1  0  0  0  0
  1 29  1  0  0  0  0
  1 30  1  0  0  0  0
  2  3  2  0  0  0  0
  2  4  1  0  0  0  0
  4  5  2  0  0  0  0
  4 27  1  0  0  0  0
  5  6  1  0  0  0  0
  5 31  1  0  0  0  0
  6  7  1  0  0  0  0
  6 15  1  0  0  0  0
  7  8  1  0  0  0  0
  7 13  2  0  0  0  0
  8  9  2  0  0  0  0
  8 32  1  0  0  0  0
  9 10  1  0  0  0  0
  9 33  1  0  0  0  0
 10 11  1  0  0  0  0
 10 12  2  0  0  0  0
 11 34  1  0  0  0  0
 12 13  1  0  0  0  0
 12 35  1  0  0  0  0
 13 14  1  0  0  0  0
 15 16  1  0  0  0  0
 15 26  2  0  0  0  0
 16 17  2  0  0  0  0
 16 36  1  0  0  0  0
 17 18  1  0  0  0  0
 17 24  1  0  0  0  0
 18 19  1  0  0  0  0
 18 23  2  0  0  0  0
 19 20  2  0  0  0  0
 19 37  1  0  0  0  0
 20 21  1  0  0  0  0
 20 38  1  0  0  0  0
 21 22  2  0  0  0  0
 22 23  1  0  0  0  0
 22 39  1  0  0  0  0
 23 40  1  0  0  0  0
 24 25  2  0  0  0  0
 24 41  1  0  0  0  0
 25 26  1  0  0  0  0
 25 42  1  0  0  0  0
 26 27  1  0  0  0  0
 27 28  2  0  0  0  0
M  END
$$$$
