CHEMBL3746370
 OpenBabel04072215373D

 51 56  0  0  0  0  0  0  0  0999 V2000
    2.3879   -2.8002    0.5782 C   0  0  0  0  0  0  0  0  0  0  0  0
    2.2074   -2.6114    2.0640 C   0  0  0  0  0  0  0  0  0  0  0  0
    1.8564   -1.1926    2.5358 C   0  0  0  0  0  0  0  0  0  0  0  0
    1.6290   -0.7507    3.8203 C   0  0  0  0  0  0  0  0  0  0  0  0
    1.5652    0.6592    3.7116 C   0  0  0  0  0  0  0  0  0  0  0  0
    1.4851    1.5269    4.7862 N   0  0  0  0  0  0  0  0  0  0  0  0
    1.3218    2.8862    4.6211 C   0  0  0  0  0  0  0  0  0  0  0  0
    1.1375    3.5428    3.6141 O   0  0  0  0  0  0  0  0  0  0  0  0
    1.2159    3.5373    5.8589 N   0  0  0  0  0  0  0  0  0  0  0  0
    0.2259    4.4539    6.1529 C   0  0  0  0  0  0  0  0  0  0  0  0
    0.3663    4.8745    7.4515 C   0  0  0  0  0  0  0  0  0  0  0  0
    1.5506    4.2823    7.9622 C   0  0  0  0  0  0  0  0  0  0  0  0
    2.2378    4.4019    9.1884 C   0  0  0  0  0  0  0  0  0  0  0  0
    3.4580    3.7366    9.3589 C   0  0  0  0  0  0  0  0  0  0  0  0
    4.0434    3.8262   10.5974 O   0  0  0  0  0  0  0  0  0  0  0  0
    5.4072    4.0811   10.6935 C   0  0  0  0  0  0  0  0  0  0  0  0
    6.1367    4.4593    9.6230 N   0  0  0  0  0  0  0  0  0  0  0  0
    7.3928    4.8859    9.8752 C   0  0  0  0  0  0  0  0  0  0  0  0
    7.9630    5.0286   11.0842 N   0  0  0  0  0  0  0  0  0  0  0  0
    7.1774    4.6440   12.0950 C   0  0  0  0  0  0  0  0  0  0  0  0
    5.9183    4.1135   11.9537 C   0  0  0  0  0  0  0  0  0  0  0  0
    5.3286    3.8578   13.2845 C   0  0  0  0  0  0  0  0  0  0  0  0
    6.0057    4.8522   14.1557 N   0  0  0  0  0  0  0  0  0  0  0  0
    7.3754    4.9675   13.5563 C   0  0  0  0  0  0  0  0  0  0  0  0
    3.9767    2.9379    8.3455 C   0  0  0  0  0  0  0  0  0  0  0  0
    3.3056    2.7929    7.1280 C   0  0  0  0  0  0  0  0  0  0  0  0
    2.0733    3.4564    6.9597 C   0  0  0  0  0  0  0  0  0  0  0  0
    1.6292    1.0291    2.4313 N   0  0  0  0  0  0  0  0  0  0  0  0
    1.7995   -0.1229    1.6981 O   0  0  0  0  0  0  0  0  0  0  0  0
    3.1220   -3.3977    3.0000 C   0  0  0  0  0  0  0  0  0  0  0  0
    1.6953   -3.8021    2.8595 C   0  0  0  0  0  0  0  0  0  0  0  0
    2.8847   -1.9370    0.1228 H   0  0  0  0  0  0  0  0  0  0  0  0
    1.4160   -2.9333    0.0912 H   0  0  0  0  0  0  0  0  0  0  0  0
    2.9989   -3.6813    0.3528 H   0  0  0  0  0  0  0  0  0  0  0  0
    1.5886   -1.3551    4.7124 H   0  0  0  0  0  0  0  0  0  0  0  0
    1.4393    1.1185    5.7104 H   0  0  0  0  0  0  0  0  0  0  0  0
   -0.5184    4.6872    5.4024 H   0  0  0  0  0  0  0  0  0  0  0  0
   -0.2875    5.5721    7.9594 H   0  0  0  0  0  0  0  0  0  0  0  0
    1.8356    5.0298    9.9790 H   0  0  0  0  0  0  0  0  0  0  0  0
    7.9924    5.1701    9.0165 H   0  0  0  0  0  0  0  0  0  0  0  0
    5.5904    2.8488   13.6295 H   0  0  0  0  0  0  0  0  0  0  0  0
    4.2418    3.9679   13.3128 H   0  0  0  0  0  0  0  0  0  0  0  0
    5.5412    5.7455   13.9644 H   0  0  0  0  0  0  0  0  0  0  0  0
    8.0462    4.2477   14.0338 H   0  0  0  0  0  0  0  0  0  0  0  0
    7.7585    5.9841   13.6839 H   0  0  0  0  0  0  0  0  0  0  0  0
    4.9288    2.4330    8.4866 H   0  0  0  0  0  0  0  0  0  0  0  0
    3.7604    2.2123    6.3316 H   0  0  0  0  0  0  0  0  0  0  0  0
    3.4405   -2.9429    3.9314 H   0  0  0  0  0  0  0  0  0  0  0  0
    3.8873   -4.0257    2.5574 H   0  0  0  0  0  0  0  0  0  0  0  0
    1.0204   -3.6324    3.6898 H   0  0  0  0  0  0  0  0  0  0  0  0
    1.4888   -4.7262    2.3283 H   0  0  0  0  0  0  0  0  0  0  0  0
  1  2  1  0  0  0  0
  1 32  1  0  0  0  0
  1 33  1  0  0  0  0
  1 34  1  0  0  0  0
  2  3  1  0  0  0  0
  2 30  1  0  0  0  0
  2 31  1  0  0  0  0
  3  4  2  0  0  0  0
  3 29  1  0  0  0  0
  4  5  1  0  0  0  0
  4 35  1  0  0  0  0
  5  6  1  0  0  0  0
  5 28  2  0  0  0  0
  6  7  1  0  0  0  0
  6 36  1  0  0  0  0
  7  8  2  0  0  0  0
  7  9  1  0  0  0  0
  9 10  1  0  0  0  0
  9 27  1  0  0  0  0
 10 11  2  0  0  0  0
 10 37  1  0  0  0  0
 11 12  1  0  0  0  0
 11 38  1  0  0  0  0
 12 13  1  0  0  0  0
 12 27  2  0  0  0  0
 13 14  2  0  0  0  0
 13 39  1  0  0  0  0
 14 15  1  0  0  0  0
 14 25  1  0  0  0  0
 15 16  1  0  0  0  0
 16 17  1  0  0  0  0
 16 21  2  0  0  0  0
 17 18  2  0  0  0  0
 18 19  1  0  0  0  0
 18 40  1  0  0  0  0
 19 20  2  0  0  0  0
 20 21  1  0  0  0  0
 20 24  1  0  0  0  0
 21 22  1  0  0  0  0
 22 23  1  0  0  0  0
 22 41  1  0  0  0  0
 22 42  1  0  0  0  0
 23 24  1  0  0  0  0
 23 43  1  0  0  0  0
 24 44  1  0  0  0  0
 24 45  1  0  0  0  0
 25 26  2  0  0  0  0
 25 46  1  0  0  0  0
 26 27  1  0  0  0  0
 26 47  1  0  0  0  0
 28 29  1  0  0  0  0
 30 31  1  0  0  0  0
 30 48  1  0  0  0  0
 30 49  1  0  0  0  0
 31 50  1  0  0  0  0
 31 51  1  0  0  0  0
M  END
$$$$
