CHEMBL3980022
 OpenBabel04072215373D

 63 67  0  0  0  0  0  0  0  0999 V2000
    5.8234    4.9423    3.3663 N   0  0  0  0  0  0  0  0  0  0  0  0
    4.8428    4.0270    3.1516 C   0  0  0  0  0  0  0  0  0  0  0  0
    4.5738    3.2013    4.0298 O   0  0  0  0  0  0  0  0  0  0  0  0
    4.0138    4.0368    1.8716 C   0  0  0  0  0  0  0  0  0  0  0  0
    4.5270    3.1895    0.5953 C   0  0  0  0  0  0  0  0  0  0  0  0
    4.6393    3.8019   -0.6912 C   0  0  0  0  0  0  0  0  0  0  0  0
    5.4633    3.3128   -1.7238 C   0  0  0  0  0  0  0  0  0  0  0  0
    6.0999    2.1041   -1.5726 C   0  0  0  0  0  0  0  0  0  0  0  0
    5.8501    1.3700   -0.4244 C   0  0  0  0  0  0  0  0  0  0  0  0
    5.0995    1.8830    0.6731 C   0  0  0  0  0  0  0  0  0  0  0  0
    5.0442    1.0680    1.9595 C   0  0  0  0  0  0  0  0  0  0  0  0
    5.6445   -0.3567    1.9706 C   0  0  0  0  0  0  0  0  0  0  0  0
    7.1658   -0.4611    1.8437 C   0  0  0  0  0  0  0  0  0  0  0  0
    7.8923    0.6807    1.9519 N   0  0  0  0  0  0  0  0  0  0  0  0
    9.1985    0.7124    1.6093 C   0  0  0  0  0  0  0  0  0  0  0  0
    9.8979    1.9466    1.5156 N   0  0  0  0  0  0  0  0  0  0  0  0
    9.3794    3.2463    1.2905 C   0  0  0  0  0  0  0  0  0  0  0  0
    8.0295    3.4898    1.2857 C   0  0  0  0  0  0  0  0  0  0  0  0
    7.4845    4.7340    0.9637 C   0  0  0  0  0  0  0  0  0  0  0  0
    8.2445    5.8650    0.9438 C   0  0  0  0  0  0  0  0  0  0  0  0
    7.6052    7.2780    0.9735 C   0  0  0  0  0  0  0  0  0  0  0  0
    6.1146    7.5965    1.3486 C   0  0  0  0  0  0  0  0  0  0  0  0
    5.1115    7.2008    0.2750 C   0  0  0  0  0  0  0  0  0  0  0  0
    5.4050    7.6583   -1.0676 N   0  0  0  0  0  0  0  0  0  0  0  0
    6.8095    7.4563   -1.4245 C   0  0  0  0  0  0  0  0  0  0  0  0
    7.7823    7.9886   -0.3673 C   0  0  0  0  0  0  0  0  0  0  0  0
    9.5935    5.7074    1.0125 N   0  0  0  0  0  0  0  0  0  0  0  0
   10.1157    4.4166    1.1401 C   0  0  0  0  0  0  0  0  0  0  0  0
    9.8629   -0.4074    1.2768 N   0  0  0  0  0  0  0  0  0  0  0  0
    9.1331   -1.5628    1.2493 C   0  0  0  0  0  0  0  0  0  0  0  0
    7.7745   -1.6440    1.5181 C   0  0  0  0  0  0  0  0  0  0  0  0
    6.9466   -3.1440    1.3422 Cl  0  0  0  0  0  0  0  0  0  0  0  0
    3.1576    5.2868    1.5940 C   0  0  0  0  0  0  0  0  0  0  0  0
    2.5193    4.1110    2.2296 C   0  0  0  0  0  0  0  0  0  0  0  0
    6.5168    4.7470    4.0680 H   0  0  0  0  0  0  0  0  0  0  0  0
    6.1591    5.5051    2.6043 H   0  0  0  0  0  0  0  0  0  0  0  0
    4.1736    4.7589   -0.9046 H   0  0  0  0  0  0  0  0  0  0  0  0
    5.6388    3.9021   -2.6216 H   0  0  0  0  0  0  0  0  0  0  0  0
    6.7889    1.7268   -2.3247 H   0  0  0  0  0  0  0  0  0  0  0  0
    6.3424    0.4057   -0.3760 H   0  0  0  0  0  0  0  0  0  0  0  0
    3.9833    0.9902    2.2298 H   0  0  0  0  0  0  0  0  0  0  0  0
    5.5634    1.6178    2.7431 H   0  0  0  0  0  0  0  0  0  0  0  0
    5.1725   -0.9178    1.1536 H   0  0  0  0  0  0  0  0  0  0  0  0
    5.3513   -0.8420    2.9091 H   0  0  0  0  0  0  0  0  0  0  0  0
   10.8206    1.7705    1.1398 H   0  0  0  0  0  0  0  0  0  0  0  0
    7.3284    2.7180    1.5466 H   0  0  0  0  0  0  0  0  0  0  0  0
    6.4275    4.7786    0.8250 H   0  0  0  0  0  0  0  0  0  0  0  0
    8.1844    7.7980    1.7472 H   0  0  0  0  0  0  0  0  0  0  0  0
    6.0178    8.6846    1.4728 H   0  0  0  0  0  0  0  0  0  0  0  0
    5.7983    7.2226    2.3217 H   0  0  0  0  0  0  0  0  0  0  0  0
    4.1070    7.5518    0.5412 H   0  0  0  0  0  0  0  0  0  0  0  0
    5.0654    6.1251    0.2499 H   0  0  0  0  0  0  0  0  0  0  0  0
    5.1494    8.6401   -1.1590 H   0  0  0  0  0  0  0  0  0  0  0  0
    6.9855    7.9753   -2.3694 H   0  0  0  0  0  0  0  0  0  0  0  0
    6.9826    6.3904   -1.6106 H   0  0  0  0  0  0  0  0  0  0  0  0
    7.5733    9.0573   -0.2146 H   0  0  0  0  0  0  0  0  0  0  0  0
    8.8140    7.9114   -0.7168 H   0  0  0  0  0  0  0  0  0  0  0  0
   11.2029    4.3920    1.1400 H   0  0  0  0  0  0  0  0  0  0  0  0
    9.6924   -2.4496    0.9594 H   0  0  0  0  0  0  0  0  0  0  0  0
    2.7927    5.5125    0.5995 H   0  0  0  0  0  0  0  0  0  0  0  0
    3.3157    6.1703    2.2042 H   0  0  0  0  0  0  0  0  0  0  0  0
    1.7976    3.5581    1.6642 H   0  0  0  0  0  0  0  0  0  0  0  0
    2.2584    4.2644    3.2780 H   0  0  0  0  0  0  0  0  0  0  0  0
  1  2  1  0  0  0  0
  1 35  1  0  0  0  0
  1 36  1  0  0  0  0
  2  3  2  0  0  0  0
  2  4  1  0  0  0  0
  4  5  1  0  0  0  0
  4 33  1  0  0  0  0
  4 34  1  0  0  0  0
  5  6  1  0  0  0  0
  5 10  2  0  0  0  0
  6  7  2  0  0  0  0
  6 37  1  0  0  0  0
  7  8  1  0  0  0  0
  7 38  1  0  0  0  0
  8  9  2  0  0  0  0
  8 39  1  0  0  0  0
  9 10  1  0  0  0  0
  9 40  1  0  0  0  0
 10 11  1  0  0  0  0
 11 12  1  0  0  0  0
 11 41  1  0  0  0  0
 11 42  1  0  0  0  0
 12 13  1  0  0  0  0
 12 43  1  0  0  0  0
 12 44  1  0  0  0  0
 13 14  1  0  0  0  0
 13 31  2  0  0  0  0
 14 15  2  0  0  0  0
 15 16  1  0  0  0  0
 15 29  1  0  0  0  0
 16 17  1  0  0  0  0
 16 45  1  0  0  0  0
 17 18  1  0  0  0  0
 17 28  2  0  0  0  0
 18 19  2  0  0  0  0
 18 46  1  0  0  0  0
 19 20  1  0  0  0  0
 19 47  1  0  0  0  0
 20 21  1  0  0  0  0
 20 27  2  0  0  0  0
 21 22  1  0  0  0  0
 21 26  1  0  0  0  0
 21 48  1  0  0  0  0
 22 23  1  0  0  0  0
 22 49  1  0  0  0  0
 22 50  1  0  0  0  0
 23 24  1  0  0  0  0
 23 51  1  0  0  0  0
 23 52  1  0  0  0  0
 24 25  1  0  0  0  0
 24 53  1  0  0  0  0
 25 26  1  0  0  0  0
 25 54  1  0  0  0  0
 25 55  1  0  0  0  0
 26 56  1  0  0  0  0
 26 57  1  0  0  0  0
 27 28  1  0  0  0  0
 28 58  1  0  0  0  0
 29 30  2  0  0  0  0
 30 31  1  0  0  0  0
 30 59  1  0  0  0  0
 31 32  1  0  0  0  0
 33 34  1  0  0  0  0
 33 60  1  0  0  0  0
 33 61  1  0  0  0  0
 34 62  1  0  0  0  0
 34 63  1  0  0  0  0
M  END
$$$$
