CHEMBL1083344
 OpenBabel04072215363D

 57 61  0  0  0  0  0  0  0  0999 V2000
    1.0840    0.2974   -0.0443 C   0  0  0  0  0  0  0  0  0  0  0  0
    2.5621    0.1407   -0.1033 C   0  0  0  0  0  0  0  0  0  0  0  0
    3.3290    1.2357   -0.0906 N   0  0  0  0  0  0  0  0  0  0  0  0
    4.6093    0.7633   -0.0749 N   0  0  0  0  0  0  0  0  0  0  0  0
    5.8016    1.5376   -0.0061 C   0  0  0  0  0  0  0  0  0  0  0  0
    5.6556    2.9224    0.1066 N   0  0  0  0  0  0  0  0  0  0  0  0
    6.9849    0.8868   -0.0626 C   0  0  0  0  0  0  0  0  0  0  0  0
    8.2982    1.5299   -0.0249 C   0  0  0  0  0  0  0  0  0  0  0  0
    8.9496    1.7428    1.1959 C   0  0  0  0  0  0  0  0  0  0  0  0
   10.2232    2.3150    1.2199 C   0  0  0  0  0  0  0  0  0  0  0  0
   10.8460    2.6866    0.0276 C   0  0  0  0  0  0  0  0  0  0  0  0
   10.1867    2.4837   -1.1809 C   0  0  0  0  0  0  0  0  0  0  0  0
   10.7500    2.8444   -2.3684 O   0  0  0  0  0  0  0  0  0  0  0  0
    8.9243    1.9029   -1.2183 C   0  0  0  0  0  0  0  0  0  0  0  0
    6.9053   -0.5991   -0.1728 C   0  0  0  0  0  0  0  0  0  0  0  0
    5.8277   -1.3160   -0.2237 N   0  0  0  0  0  0  0  0  0  0  0  0
    4.6444   -0.6284   -0.1639 C   0  0  0  0  0  0  0  0  0  0  0  0
    3.3277   -1.0596   -0.1464 C   0  0  0  0  0  0  0  0  0  0  0  0
    2.9362   -2.4652   -0.1447 C   0  0  0  0  0  0  0  0  0  0  0  0
    3.7216   -3.4224    0.5080 C   0  0  0  0  0  0  0  0  0  0  0  0
    3.3501   -4.7683    0.5287 C   0  0  0  0  0  0  0  0  0  0  0  0
    2.1624   -5.2042   -0.0654 C   0  0  0  0  0  0  0  0  0  0  0  0
    1.7826   -6.5308    0.0899 N   0  0  0  0  0  0  0  0  0  0  0  0
    0.3553   -6.8737    0.0437 C   0  0  0  0  0  0  0  0  0  0  0  0
    0.1490   -8.2419    0.7275 C   0  0  0  0  0  0  0  0  0  0  0  0
    0.9447   -9.3166    0.0895 N   0  0  0  0  0  0  0  0  0  0  0  0
    0.7551  -10.5735    0.8106 C   0  0  0  0  0  0  0  0  0  0  0  0
    2.3795   -8.9296    0.0819 C   0  0  0  0  0  0  0  0  0  0  0  0
    2.6362   -7.5438   -0.5627 C   0  0  0  0  0  0  0  0  0  0  0  0
    1.3835   -4.2469   -0.7241 C   0  0  0  0  0  0  0  0  0  0  0  0
    1.7684   -2.8992   -0.7757 C   0  0  0  0  0  0  0  0  0  0  0  0
    0.7940    1.3492    0.0559 H   0  0  0  0  0  0  0  0  0  0  0  0
    0.6728   -0.2461    0.8123 H   0  0  0  0  0  0  0  0  0  0  0  0
    0.6151   -0.0782   -0.9577 H   0  0  0  0  0  0  0  0  0  0  0  0
    4.7227    3.2175   -0.1941 H   0  0  0  0  0  0  0  0  0  0  0  0
    6.4097    3.4517   -0.3221 H   0  0  0  0  0  0  0  0  0  0  0  0
    8.4722    1.4611    2.1327 H   0  0  0  0  0  0  0  0  0  0  0  0
   10.7290    2.4693    2.1700 H   0  0  0  0  0  0  0  0  0  0  0  0
   11.8377    3.1266    0.0611 H   0  0  0  0  0  0  0  0  0  0  0  0
   11.5896    3.2996   -2.1897 H   0  0  0  0  0  0  0  0  0  0  0  0
    8.4391    1.7412   -2.1778 H   0  0  0  0  0  0  0  0  0  0  0  0
    7.8756   -1.1231   -0.2067 H   0  0  0  0  0  0  0  0  0  0  0  0
    4.6328   -3.1381    1.0279 H   0  0  0  0  0  0  0  0  0  0  0  0
    3.9779   -5.4730    1.0678 H   0  0  0  0  0  0  0  0  0  0  0  0
   -0.0006   -6.9121   -0.9937 H   0  0  0  0  0  0  0  0  0  0  0  0
   -0.2401   -6.1292    0.5859 H   0  0  0  0  0  0  0  0  0  0  0  0
   -0.9169   -8.4927    0.6824 H   0  0  0  0  0  0  0  0  0  0  0  0
    0.4223   -8.1480    1.7886 H   0  0  0  0  0  0  0  0  0  0  0  0
   -0.3016  -10.8630    0.7998 H   0  0  0  0  0  0  0  0  0  0  0  0
    1.0828  -10.5092    1.8546 H   0  0  0  0  0  0  0  0  0  0  0  0
    1.3108  -11.3815    0.3237 H   0  0  0  0  0  0  0  0  0  0  0  0
    2.9530   -9.6818   -0.4729 H   0  0  0  0  0  0  0  0  0  0  0  0
    2.7660   -8.9096    1.1098 H   0  0  0  0  0  0  0  0  0  0  0  0
    2.4087   -7.5838   -1.6361 H   0  0  0  0  0  0  0  0  0  0  0  0
    3.7022   -7.3096   -0.4610 H   0  0  0  0  0  0  0  0  0  0  0  0
    0.4618   -4.5336   -1.2217 H   0  0  0  0  0  0  0  0  0  0  0  0
    1.1357   -2.2105   -1.3248 H   0  0  0  0  0  0  0  0  0  0  0  0
  1  2  1  0  0  0  0
  1 32  1  0  0  0  0
  1 33  1  0  0  0  0
  1 34  1  0  0  0  0
  2  3  2  0  0  0  0
  2 18  1  0  0  0  0
  3  4  1  0  0  0  0
  4  5  1  0  0  0  0
  4 17  1  0  0  0  0
  5  6  1  0  0  0  0
  5  7  2  0  0  0  0
  6 35  1  0  0  0  0
  6 36  1  0  0  0  0
  7  8  1  0  0  0  0
  7 15  1  0  0  0  0
  8  9  1  0  0  0  0
  8 14  2  0  0  0  0
  9 10  2  0  0  0  0
  9 37  1  0  0  0  0
 10 11  1  0  0  0  0
 10 38  1  0  0  0  0
 11 12  2  0  0  0  0
 11 39  1  0  0  0  0
 12 13  1  0  0  0  0
 12 14  1  0  0  0  0
 13 40  1  0  0  0  0
 14 41  1  0  0  0  0
 15 16  2  0  0  0  0
 15 42  1  0  0  0  0
 16 17  1  0  0  0  0
 17 18  2  0  0  0  0
 18 19  1  0  0  0  0
 19 20  1  0  0  0  0
 19 31  2  0  0  0  0
 20 21  2  0  0  0  0
 20 43  1  0  0  0  0
 21 22  1  0  0  0  0
 21 44  1  0  0  0  0
 22 23  1  0  0  0  0
 22 30  2  0  0  0  0
 23 24  1  0  0  0  0
 23 29  1  0  0  0  0
 24 25  1  0  0  0  0
 24 45  1  0  0  0  0
 24 46  1  0  0  0  0
 25 26  1  0  0  0  0
 25 47  1  0  0  0  0
 25 48  1  0  0  0  0
 26 27  1  0  0  0  0
 26 28  1  0  0  0  0
 27 49  1  0  0  0  0
 27 50  1  0  0  0  0
 27 51  1  0  0  0  0
 28 29  1  0  0  0  0
 28 52  1  0  0  0  0
 28 53  1  0  0  0  0
 29 54  1  0  0  0  0
 29 55  1  0  0  0  0
 30 31  1  0  0  0  0
 30 56  1  0  0  0  0
 31 57  1  0  0  0  0
M  END
$$$$
