CHEMBL3964305
 OpenBabel04072215373D

 52 56  0  0  1  0  0  0  0  0999 V2000
    1.1867   -0.0250   -0.9459 O   0  0  0  0  0  0  0  0  0  0  0  0
    2.2401   -0.0384   -0.3265 C   0  0  0  0  0  0  0  0  0  0  0  0
    2.8223   -1.1804    0.2092 N   0  0  0  0  0  0  0  0  0  0  0  0
    2.2700   -2.4816    0.1884 C   0  0  0  0  0  0  0  0  0  0  0  0
    1.1953   -2.8589   -0.6187 C   0  0  0  0  0  0  0  0  0  0  0  0
    0.5955   -4.1169   -0.4795 C   0  0  0  0  0  0  0  0  0  0  0  0
    1.0650   -5.0290    0.4722 C   0  0  0  0  0  0  0  0  0  0  0  0
    0.2863   -6.3128    0.7400 C   0  0  3  0  0  0  0  0  0  0  0  0
    1.0852   -7.5709    0.3777 C   0  0  0  0  0  0  0  0  0  0  0  0
    0.6866   -8.7781    1.1478 N   0  0  0  0  0  0  0  0  0  0  0  0
    0.6992   -8.5689    2.4244 C   0  0  0  0  0  0  0  0  0  0  0  0
    0.8924   -9.6440    3.4020 C   0  0  0  0  0  0  0  0  0  0  0  0
    0.3507  -10.9181    3.2881 C   0  0  0  0  0  0  0  0  0  0  0  0
    0.7268  -11.8857    4.2223 C   0  0  0  0  0  0  0  0  0  0  0  0
    1.7011  -11.5961    5.1876 C   0  0  0  0  0  0  0  0  0  0  0  0
    2.2133  -10.3035    5.3106 C   0  0  0  0  0  0  0  0  0  0  0  0
    1.7281   -9.3126    4.4682 C   0  0  0  0  0  0  0  0  0  0  0  0
    1.9340   -7.9579    4.7684 N   0  0  0  0  0  0  0  0  0  0  0  0
    1.0997   -7.0006    4.2257 C   0  0  0  0  0  0  0  0  0  0  0  0
    0.8493   -5.9713    4.8458 O   0  0  0  0  0  0  0  0  0  0  0  0
    0.6230   -7.2994    2.9633 N   0  0  0  0  0  0  0  0  0  0  0  0
   -0.1753   -6.3600    2.2026 C   0  0  0  0  0  0  0  0  0  0  0  0
    2.2012   -4.6862    1.2251 C   0  0  0  0  0  0  0  0  0  0  0  0
    2.8004   -3.4319    1.0736 C   0  0  0  0  0  0  0  0  0  0  0  0
    3.0074    1.0857   -0.0314 N   0  0  0  0  0  0  0  0  0  0  0  0
    2.6648    2.4324   -0.2818 C   0  0  0  0  0  0  0  0  0  0  0  0
    1.4425    2.8392   -0.8317 C   0  0  0  0  0  0  0  0  0  0  0  0
    1.1681    4.1863   -1.0546 C   0  0  0  0  0  0  0  0  0  0  0  0
    2.1064    5.1526   -0.7216 C   0  0  0  0  0  0  0  0  0  0  0  0
    3.3225    4.7605   -0.1652 C   0  0  0  0  0  0  0  0  0  0  0  0
    4.6041    6.0743    0.2961 Br  0  0  0  0  0  0  0  0  0  0  0  0
    3.6048    3.4096    0.0560 C   0  0  0  0  0  0  0  0  0  0  0  0
    3.5736   -1.0425    0.8585 H   0  0  0  0  0  0  0  0  0  0  0  0
    0.7729   -2.1826   -1.3561 H   0  0  0  0  0  0  0  0  0  0  0  0
   -0.2720   -4.3484   -1.0950 H   0  0  0  0  0  0  0  0  0  0  0  0
   -0.6175   -6.3016    0.1159 H   0  0  0  0  0  0  0  0  0  0  0  0
    2.1627   -7.4203    0.5458 H   0  0  0  0  0  0  0  0  0  0  0  0
    0.9946   -7.7828   -0.6940 H   0  0  0  0  0  0  0  0  0  0  0  0
   -0.3755  -11.1439    2.5126 H   0  0  0  0  0  0  0  0  0  0  0  0
    0.2751  -12.8745    4.1925 H   0  0  0  0  0  0  0  0  0  0  0  0
    2.0337  -12.3736    5.8714 H   0  0  0  0  0  0  0  0  0  0  0  0
    2.9387  -10.0769    6.0859 H   0  0  0  0  0  0  0  0  0  0  0  0
    2.3841   -7.7048    5.6369 H   0  0  0  0  0  0  0  0  0  0  0  0
   -0.2013   -5.3751    2.6815 H   0  0  0  0  0  0  0  0  0  0  0  0
   -1.2051   -6.7447    2.2253 H   0  0  0  0  0  0  0  0  0  0  0  0
    2.6044   -5.3715    1.9603 H   0  0  0  0  0  0  0  0  0  0  0  0
    3.6520   -3.1924    1.7032 H   0  0  0  0  0  0  0  0  0  0  0  0
    3.9246    0.9133    0.3448 H   0  0  0  0  0  0  0  0  0  0  0  0
    0.6684    2.1191   -1.0930 H   0  0  0  0  0  0  0  0  0  0  0  0
    0.2127    4.4737   -1.4852 H   0  0  0  0  0  0  0  0  0  0  0  0
    1.8858    6.2013   -0.8994 H   0  0  0  0  0  0  0  0  0  0  0  0
    4.5591    3.1315    0.4947 H   0  0  0  0  0  0  0  0  0  0  0  0
  1  2  2  0  0  0  0
  2  3  1  0  0  0  0
  2 25  1  0  0  0  0
  3  4  1  0  0  0  0
  3 33  1  0  0  0  0
  4  5  1  0  0  0  0
  4 24  2  0  0  0  0
  5  6  2  0  0  0  0
  5 34  1  0  0  0  0
  6  7  1  0  0  0  0
  6 35  1  0  0  0  0
  7  8  1  0  0  0  0
  7 23  2  0  0  0  0
  8  9  1  0  0  0  0
  8 22  1  0  0  0  0
  8 36  1  0  0  0  0
  9 10  1  0  0  0  0
  9 37  1  0  0  0  0
  9 38  1  0  0  0  0
 10 11  2  0  0  0  0
 11 12  1  0  0  0  0
 11 21  1  0  0  0  0
 12 13  1  0  0  0  0
 12 17  2  0  0  0  0
 13 14  2  0  0  0  0
 13 39  1  0  0  0  0
 14 15  1  0  0  0  0
 14 40  1  0  0  0  0
 15 16  2  0  0  0  0
 15 41  1  0  0  0  0
 16 17  1  0  0  0  0
 16 42  1  0  0  0  0
 17 18  1  0  0  0  0
 18 19  1  0  0  0  0
 18 43  1  0  0  0  0
 19 20  2  0  0  0  0
 19 21  1  0  0  0  0
 21 22  1  0  0  0  0
 22 44  1  0  0  0  0
 22 45  1  0  0  0  0
 23 24  1  0  0  0  0
 23 46  1  0  0  0  0
 24 47  1  0  0  0  0
 25 26  1  0  0  0  0
 25 48  1  0  0  0  0
 26 27  1  0  0  0  0
 26 32  2  0  0  0  0
 27 28  2  0  0  0  0
 27 49  1  0  0  0  0
 28 29  1  0  0  0  0
 28 50  1  0  0  0  0
 29 30  2  0  0  0  0
 29 51  1  0  0  0  0
 30 31  1  0  0  0  0
 30 32  1  0  0  0  0
 32 52  1  0  0  0  0
M  END
$$$$
