CHEMBL406388
 OpenBabel04072215383D

 55 59  0  0  0  0  0  0  0  0999 V2000
    4.3849   -1.4856   -0.1415 C   0  0  0  0  0  0  0  0  0  0  0  0
    3.9570   -0.2651    0.4639 O   0  0  0  0  0  0  0  0  0  0  0  0
    4.1938    0.8386   -0.3122 C   0  0  0  0  0  0  0  0  0  0  0  0
    5.3621    0.9726   -1.0700 C   0  0  0  0  0  0  0  0  0  0  0  0
    5.5834    2.0468   -1.9207 C   0  0  0  0  0  0  0  0  0  0  0  0
    6.7412    2.0479   -2.5994 N   0  0  0  0  0  0  0  0  0  0  0  0
    6.9862    3.0695   -3.4396 C   0  0  0  0  0  0  0  0  0  0  0  0
    6.1385    4.1377   -3.6056 C   0  0  0  0  0  0  0  0  0  0  0  0
    4.9480    4.1579   -2.8752 C   0  0  0  0  0  0  0  0  0  0  0  0
    4.2176    5.3132   -3.0981 O   0  0  0  0  0  0  0  0  0  0  0  0
    3.4340    5.8462   -2.1051 C   0  0  0  0  0  0  0  0  0  0  0  0
    3.7402    5.7880   -0.7539 C   0  0  0  0  0  0  0  0  0  0  0  0
    2.7292    6.0237    0.1811 C   0  0  0  0  0  0  0  0  0  0  0  0
    1.4480    6.5156   -0.1880 C   0  0  0  0  0  0  0  0  0  0  0  0
    0.3481    6.7593    0.6923 C   0  0  0  0  0  0  0  0  0  0  0  0
    0.3177    6.4472    2.1595 C   0  0  0  0  0  0  0  0  0  0  0  0
   -0.7333    6.0170    2.6259 O   0  0  0  0  0  0  0  0  0  0  0  0
    1.4662    6.7020    2.8832 N   0  0  0  0  0  0  0  0  0  0  0  0
    1.6660    6.4803    4.2654 C   0  0  0  0  0  0  0  0  0  0  0  0
    0.6625    6.1245    5.1629 C   0  0  0  0  0  0  0  0  0  0  0  0
    0.9541    6.0100    6.5230 C   0  0  0  0  0  0  0  0  0  0  0  0
    2.2547    6.2296    6.9430 C   0  0  0  0  0  0  0  0  0  0  0  0
    3.2662    6.5366    6.1053 N   0  0  0  0  0  0  0  0  0  0  0  0
    2.9456    6.6553    4.7938 C   0  0  0  0  0  0  0  0  0  0  0  0
   -0.8690    7.2561    0.1838 C   0  0  0  0  0  0  0  0  0  0  0  0
   -1.0292    7.5169   -1.1708 C   0  0  0  0  0  0  0  0  0  0  0  0
    0.0169    7.2543   -2.0443 C   0  0  0  0  0  0  0  0  0  0  0  0
    1.2376    6.7457   -1.5773 C   0  0  0  0  0  0  0  0  0  0  0  0
    2.2225    6.3968   -2.5129 C   0  0  0  0  0  0  0  0  0  0  0  0
    4.6043    3.0520   -2.0369 C   0  0  0  0  0  0  0  0  0  0  0  0
    3.3985    2.8709   -1.3033 C   0  0  0  0  0  0  0  0  0  0  0  0
    3.2346    1.8415   -0.3705 C   0  0  0  0  0  0  0  0  0  0  0  0
    2.0793    1.9189    0.3595 O   0  0  0  0  0  0  0  0  0  0  0  0
    2.1766    1.5198    1.7269 C   0  0  0  0  0  0  0  0  0  0  0  0
    3.7980   -2.3040    0.2838 H   0  0  0  0  0  0  0  0  0  0  0  0
    5.4398   -1.6678    0.0882 H   0  0  0  0  0  0  0  0  0  0  0  0
    4.2214   -1.4912   -1.2267 H   0  0  0  0  0  0  0  0  0  0  0  0
    6.1494    0.2256   -1.0028 H   0  0  0  0  0  0  0  0  0  0  0  0
    7.9219    3.0008   -3.9879 H   0  0  0  0  0  0  0  0  0  0  0  0
    6.3962    4.9447   -4.2828 H   0  0  0  0  0  0  0  0  0  0  0  0
    4.7006    5.4093   -0.4141 H   0  0  0  0  0  0  0  0  0  0  0  0
    2.9603    5.7276    1.1990 H   0  0  0  0  0  0  0  0  0  0  0  0
    2.2391    7.1299    2.3927 H   0  0  0  0  0  0  0  0  0  0  0  0
   -0.3621    5.9610    4.8463 H   0  0  0  0  0  0  0  0  0  0  0  0
    0.1744    5.7682    7.2370 H   0  0  0  0  0  0  0  0  0  0  0  0
    2.5218    6.1666    7.9939 H   0  0  0  0  0  0  0  0  0  0  0  0
    3.7916    6.8956    4.1562 H   0  0  0  0  0  0  0  0  0  0  0  0
   -1.7113    7.4276    0.8533 H   0  0  0  0  0  0  0  0  0  0  0  0
   -1.9772    7.8925   -1.5478 H   0  0  0  0  0  0  0  0  0  0  0  0
   -0.1393    7.4282   -3.1085 H   0  0  0  0  0  0  0  0  0  0  0  0
    2.0226    6.4834   -3.5802 H   0  0  0  0  0  0  0  0  0  0  0  0
    2.5709    3.5568   -1.4162 H   0  0  0  0  0  0  0  0  0  0  0  0
    1.4966    2.1509    2.3093 H   0  0  0  0  0  0  0  0  0  0  0  0
    3.1784    1.6492    2.1526 H   0  0  0  0  0  0  0  0  0  0  0  0
    1.8380    0.4852    1.8327 H   0  0  0  0  0  0  0  0  0  0  0  0
  1  2  1  0  0  0  0
  1 35  1  0  0  0  0
  1 36  1  0  0  0  0
  1 37  1  0  0  0  0
  2  3  1  0  0  0  0
  3  4  1  0  0  0  0
  3 32  2  0  0  0  0
  4  5  2  0  0  0  0
  4 38  1  0  0  0  0
  5  6  1  0  0  0  0
  5 30  1  0  0  0  0
  6  7  2  0  0  0  0
  7  8  1  0  0  0  0
  7 39  1  0  0  0  0
  8  9  2  0  0  0  0
  8 40  1  0  0  0  0
  9 10  1  0  0  0  0
  9 30  1  0  0  0  0
 10 11  1  0  0  0  0
 11 12  1  0  0  0  0
 11 29  2  0  0  0  0
 12 13  2  0  0  0  0
 12 41  1  0  0  0  0
 13 14  1  0  0  0  0
 13 42  1  0  0  0  0
 14 15  1  0  0  0  0
 14 28  2  0  0  0  0
 15 16  1  0  0  0  0
 15 25  2  0  0  0  0
 16 17  2  0  0  0  0
 16 18  1  0  0  0  0
 18 19  1  0  0  0  0
 18 43  1  0  0  0  0
 19 20  1  0  0  0  0
 19 24  2  0  0  0  0
 20 21  2  0  0  0  0
 20 44  1  0  0  0  0
 21 22  1  0  0  0  0
 21 45  1  0  0  0  0
 22 23  2  0  0  0  0
 22 46  1  0  0  0  0
 23 24  1  0  0  0  0
 24 47  1  0  0  0  0
 25 26  1  0  0  0  0
 25 48  1  0  0  0  0
 26 27  2  0  0  0  0
 26 49  1  0  0  0  0
 27 28  1  0  0  0  0
 27 50  1  0  0  0  0
 28 29  1  0  0  0  0
 29 51  1  0  0  0  0
 30 31  2  0  0  0  0
 31 32  1  0  0  0  0
 31 52  1  0  0  0  0
 32 33  1  0  0  0  0
 33 34  1  0  0  0  0
 34 53  1  0  0  0  0
 34 54  1  0  0  0  0
 34 55  1  0  0  0  0
M  END
$$$$
