CHEMBL204984
 OpenBabel04072215363D

 55 58  0  0  0  0  0  0  0  0999 V2000
    2.2121    1.1349    1.2887 C   0  0  0  0  0  0  0  0  0  0  0  0
    1.3758   -0.0737    0.8057 C   0  0  0  0  0  0  0  0  0  0  0  0
    0.0325   -0.0770    1.5600 C   0  0  0  0  0  0  0  0  0  0  0  0
    1.0830    0.1652   -0.6927 C   0  0  0  0  0  0  0  0  0  0  0  0
    2.0885   -1.4125    1.0688 C   0  0  0  0  0  0  0  0  0  0  0  0
    2.9803   -1.5636    2.1398 C   0  0  0  0  0  0  0  0  0  0  0  0
    3.6080   -2.7860    2.4072 C   0  0  0  0  0  0  0  0  0  0  0  0
    3.3632   -3.9201    1.6362 C   0  0  0  0  0  0  0  0  0  0  0  0
    3.9059   -5.1906    1.9093 N   0  0  0  0  0  0  0  0  0  0  0  0
    4.6452   -5.5808    2.9664 C   0  0  0  0  0  0  0  0  0  0  0  0
    5.5224   -6.5591    3.0302 N   0  0  0  0  0  0  0  0  0  0  0  0
    6.0344   -6.5462    4.3118 N   0  0  0  0  0  0  0  0  0  0  0  0
    5.4146   -5.5767    4.9593 C   0  0  0  0  0  0  0  0  0  0  0  0
    5.6404   -5.0973    6.3295 C   0  0  0  0  0  0  0  0  0  0  0  0
    6.6380   -5.7853    7.0529 C   0  0  0  0  0  0  0  0  0  0  0  0
    6.9488   -5.4083    8.3468 C   0  0  0  0  0  0  0  0  0  0  0  0
    6.3247   -4.4105    8.9837 N   0  0  0  0  0  0  0  0  0  0  0  0
    5.3635   -3.7635    8.2978 C   0  0  0  0  0  0  0  0  0  0  0  0
    4.9800   -4.0250    6.9746 C   0  0  0  0  0  0  0  0  0  0  0  0
    3.8456   -3.2116    6.3822 C   0  0  0  0  0  0  0  0  0  0  0  0
    3.7506   -1.7494    6.8676 C   0  0  0  0  0  0  0  0  0  0  0  0
    2.6293   -0.9151    6.3029 C   0  0  0  0  0  0  0  0  0  0  0  0
    1.4087   -1.4625    5.8984 C   0  0  0  0  0  0  0  0  0  0  0  0
    0.3856   -0.6095    5.5237 C   0  0  0  0  0  0  0  0  0  0  0  0
    0.4848    0.7360    5.5211 N   0  0  0  0  0  0  0  0  0  0  0  0
    1.6654    1.2510    5.9184 C   0  0  0  0  0  0  0  0  0  0  0  0
    2.7468    0.4829    6.3109 C   0  0  0  0  0  0  0  0  0  0  0  0
    4.4886   -4.9537    4.1733 O   0  0  0  0  0  0  0  0  0  0  0  0
    2.4592   -3.7835    0.5766 C   0  0  0  0  0  0  0  0  0  0  0  0
    1.8413   -2.5545    0.2917 C   0  0  0  0  0  0  0  0  0  0  0  0
    1.7224    2.0837    1.0400 H   0  0  0  0  0  0  0  0  0  0  0  0
    3.2040    1.1383    0.8217 H   0  0  0  0  0  0  0  0  0  0  0  0
    2.3502    1.1381    2.3752 H   0  0  0  0  0  0  0  0  0  0  0  0
   -0.5180    0.8559    1.3918 H   0  0  0  0  0  0  0  0  0  0  0  0
    0.1802   -0.1826    2.6392 H   0  0  0  0  0  0  0  0  0  0  0  0
   -0.6099   -0.9036    1.2346 H   0  0  0  0  0  0  0  0  0  0  0  0
    0.6004    1.1385   -0.8456 H   0  0  0  0  0  0  0  0  0  0  0  0
    0.4014   -0.5833   -1.1097 H   0  0  0  0  0  0  0  0  0  0  0  0
    2.0044    0.1535   -1.2852 H   0  0  0  0  0  0  0  0  0  0  0  0
    3.2148   -0.7365    2.8046 H   0  0  0  0  0  0  0  0  0  0  0  0
    4.3199   -2.8055    3.2231 H   0  0  0  0  0  0  0  0  0  0  0  0
    4.0314   -5.7511    1.0741 H   0  0  0  0  0  0  0  0  0  0  0  0
    7.1822   -6.6170    6.6088 H   0  0  0  0  0  0  0  0  0  0  0  0
    7.7148   -5.9216    8.9154 H   0  0  0  0  0  0  0  0  0  0  0  0
    4.8883   -2.9898    8.8956 H   0  0  0  0  0  0  0  0  0  0  0  0
    2.9181   -3.7540    6.5986 H   0  0  0  0  0  0  0  0  0  0  0  0
    3.9433   -3.1486    5.3025 H   0  0  0  0  0  0  0  0  0  0  0  0
    4.7077   -1.2556    6.6494 H   0  0  0  0  0  0  0  0  0  0  0  0
    3.6076   -1.7175    7.9540 H   0  0  0  0  0  0  0  0  0  0  0  0
    1.2284   -2.5309    5.8876 H   0  0  0  0  0  0  0  0  0  0  0  0
   -0.5799   -1.0030    5.2176 H   0  0  0  0  0  0  0  0  0  0  0  0
    1.7166    2.3366    5.9285 H   0  0  0  0  0  0  0  0  0  0  0  0
    3.6597    0.9685    6.6468 H   0  0  0  0  0  0  0  0  0  0  0  0
    2.2121   -4.6411   -0.0453 H   0  0  0  0  0  0  0  0  0  0  0  0
    1.1500   -2.5240   -0.5459 H   0  0  0  0  0  0  0  0  0  0  0  0
  1  2  1  0  0  0  0
  1 31  1  0  0  0  0
  1 32  1  0  0  0  0
  1 33  1  0  0  0  0
  2  3  1  0  0  0  0
  2  4  1  0  0  0  0
  2  5  1  0  0  0  0
  3 34  1  0  0  0  0
  3 35  1  0  0  0  0
  3 36  1  0  0  0  0
  4 37  1  0  0  0  0
  4 38  1  0  0  0  0
  4 39  1  0  0  0  0
  5  6  1  0  0  0  0
  5 30  2  0  0  0  0
  6  7  2  0  0  0  0
  6 40  1  0  0  0  0
  7  8  1  0  0  0  0
  7 41  1  0  0  0  0
  8  9  1  0  0  0  0
  8 29  2  0  0  0  0
  9 10  1  0  0  0  0
  9 42  1  0  0  0  0
 10 11  2  0  0  0  0
 10 28  1  0  0  0  0
 11 12  1  0  0  0  0
 12 13  2  0  0  0  0
 13 14  1  0  0  0  0
 13 28  1  0  0  0  0
 14 15  1  0  0  0  0
 14 19  2  0  0  0  0
 15 16  2  0  0  0  0
 15 43  1  0  0  0  0
 16 17  1  0  0  0  0
 16 44  1  0  0  0  0
 17 18  2  0  0  0  0
 18 19  1  0  0  0  0
 18 45  1  0  0  0  0
 19 20  1  0  0  0  0
 20 21  1  0  0  0  0
 20 46  1  0  0  0  0
 20 47  1  0  0  0  0
 21 22  1  0  0  0  0
 21 48  1  0  0  0  0
 21 49  1  0  0  0  0
 22 23  1  0  0  0  0
 22 27  2  0  0  0  0
 23 24  2  0  0  0  0
 23 50  1  0  0  0  0
 24 25  1  0  0  0  0
 24 51  1  0  0  0  0
 25 26  2  0  0  0  0
 26 27  1  0  0  0  0
 26 52  1  0  0  0  0
 27 53  1  0  0  0  0
 29 30  1  0  0  0  0
 29 54  1  0  0  0  0
 30 55  1  0  0  0  0
M  END
$$$$
