CHEMBL3109402
 OpenBabel04072215373D

 61 64  0  0  1  0  0  0  0  0999 V2000
    5.7143   -0.8322    2.4631 C   0  0  0  0  0  0  0  0  0  0  0  0
    5.5614    0.4325    1.8292 O   0  0  0  0  0  0  0  0  0  0  0  0
    4.3342    0.7612    1.3117 C   0  0  0  0  0  0  0  0  0  0  0  0
    4.4077    1.7329    0.3035 C   0  0  0  0  0  0  0  0  0  0  0  0
    3.2625    1.9757   -0.4573 C   0  0  0  0  0  0  0  0  0  0  0  0
    3.1230    2.6649   -1.6343 N   0  0  0  0  0  0  0  0  0  0  0  0
    2.0108    2.1530   -2.1256 C   0  0  0  0  0  0  0  0  0  0  0  0
    1.7332    1.8042   -3.5304 C   0  0  0  0  0  0  0  0  0  0  0  0
    1.2644    1.4465   -1.2375 O   0  0  0  0  0  0  0  0  0  0  0  0
    2.1170    1.2426   -0.2012 C   0  0  0  0  0  0  0  0  0  0  0  0
    1.9755    0.2597    0.7727 C   0  0  0  0  0  0  0  0  0  0  0  0
    1.0851   -0.9376    0.5207 C   0  0  0  0  0  0  0  0  0  0  0  0
   -0.4199   -1.0946    0.9397 C   0  0  2  0  0  0  0  0  0  0  0  0
   -0.4760   -1.0556    2.4870 C   0  0  0  0  0  0  0  0  0  0  0  0
   -0.8094   -2.5326    0.4385 C   0  0  1  0  0  0  0  0  0  0  0  0
   -0.1644   -3.7213    1.1773 C   0  0  0  0  0  0  0  0  0  0  0  0
   -2.3197   -2.7156    0.4161 C   0  0  0  0  0  0  0  0  0  0  0  0
   -2.8704   -1.9157   -0.7371 C   0  0  0  0  0  0  0  0  0  0  0  0
   -2.6271   -0.3862   -0.6372 C   0  0  1  0  0  0  0  0  0  0  0  0
   -2.3609    0.0838   -2.1121 C   0  0  0  0  0  0  0  0  0  0  0  0
   -3.9361    0.3867   -0.2878 C   0  0  0  0  0  0  0  0  0  0  0  0
   -5.2771   -0.1313   -0.7275 C   0  0  0  0  0  0  0  0  0  0  0  0
   -3.8744    1.6075    0.2931 C   0  0  0  0  0  0  0  0  0  0  0  0
   -2.5913    2.2450    0.6819 C   0  0  0  0  0  0  0  0  0  0  0  0
   -1.6329    1.2022    1.2230 C   0  0  0  0  0  0  0  0  0  0  0  0
   -1.3437    0.0333    0.2449 C   0  0  1  0  0  0  0  0  0  0  0  0
    3.1014    0.1523    1.6157 C   0  0  0  0  0  0  0  0  0  0  0  0
    2.9503   -0.6141    2.7415 O   0  0  0  0  0  0  0  0  0  0  0  0
    5.0313   -1.6139    2.1111 H   0  0  0  0  0  0  0  0  0  0  0  0
    5.6157   -0.6801    3.5403 H   0  0  0  0  0  0  0  0  0  0  0  0
    6.7289   -1.2038    2.2693 H   0  0  0  0  0  0  0  0  0  0  0  0
    5.3527    2.1775    0.0119 H   0  0  0  0  0  0  0  0  0  0  0  0
    1.6062    2.6841   -4.1502 H   0  0  0  0  0  0  0  0  0  0  0  0
    0.8528    1.1597   -3.6128 H   0  0  0  0  0  0  0  0  0  0  0  0
    2.5913    1.2217   -3.8911 H   0  0  0  0  0  0  0  0  0  0  0  0
    1.1287   -1.0959   -0.5685 H   0  0  0  0  0  0  0  0  0  0  0  0
    1.6480   -1.7939    0.9081 H   0  0  0  0  0  0  0  0  0  0  0  0
   -0.1404   -0.0930    2.8861 H   0  0  0  0  0  0  0  0  0  0  0  0
   -1.4877   -1.2494    2.8569 H   0  0  0  0  0  0  0  0  0  0  0  0
    0.1829   -1.8021    2.9413 H   0  0  0  0  0  0  0  0  0  0  0  0
   -0.4519   -2.6160   -0.5999 H   0  0  0  0  0  0  0  0  0  0  0  0
    0.8199   -3.5010    1.5951 H   0  0  0  0  0  0  0  0  0  0  0  0
   -0.0236   -4.5511    0.4758 H   0  0  0  0  0  0  0  0  0  0  0  0
   -0.7981   -4.0815    1.9938 H   0  0  0  0  0  0  0  0  0  0  0  0
   -2.7884   -2.4215    1.3602 H   0  0  0  0  0  0  0  0  0  0  0  0
   -2.5684   -3.7714    0.2503 H   0  0  0  0  0  0  0  0  0  0  0  0
   -3.9265   -2.1762   -0.8459 H   0  0  0  0  0  0  0  0  0  0  0  0
   -2.4082   -2.3041   -1.6582 H   0  0  0  0  0  0  0  0  0  0  0  0
   -3.0946   -0.3383   -2.8127 H   0  0  0  0  0  0  0  0  0  0  0  0
   -1.3718   -0.2307   -2.4583 H   0  0  0  0  0  0  0  0  0  0  0  0
   -2.4145    1.1757   -2.2145 H   0  0  0  0  0  0  0  0  0  0  0  0
   -6.0109    0.6761   -0.8050 H   0  0  0  0  0  0  0  0  0  0  0  0
   -5.6612   -0.8765   -0.0256 H   0  0  0  0  0  0  0  0  0  0  0  0
   -5.2050   -0.5733   -1.7243 H   0  0  0  0  0  0  0  0  0  0  0  0
   -4.7856    2.1771    0.4848 H   0  0  0  0  0  0  0  0  0  0  0  0
   -2.1677    2.7748   -0.1749 H   0  0  0  0  0  0  0  0  0  0  0  0
   -2.7772    2.9923    1.4602 H   0  0  0  0  0  0  0  0  0  0  0  0
   -0.6931    1.6984    1.4931 H   0  0  0  0  0  0  0  0  0  0  0  0
   -2.0754    0.8190    2.1490 H   0  0  0  0  0  0  0  0  0  0  0  0
   -0.6864    0.4902   -0.4968 H   0  0  0  0  0  0  0  0  0  0  0  0
    3.2883   -0.0600    3.4701 H   0  0  0  0  0  0  0  0  0  0  0  0
  1  2  1  0  0  0  0
  1 29  1  0  0  0  0
  1 30  1  0  0  0  0
  1 31  1  0  0  0  0
  2  3  1  0  0  0  0
  3  4  1  0  0  0  0
  3 27  2  0  0  0  0
  4  5  2  0  0  0  0
  4 32  1  0  0  0  0
  5  6  1  0  0  0  0
  5 10  1  0  0  0  0
  6  7  2  0  0  0  0
  7  8  1  0  0  0  0
  7  9  1  0  0  0  0
  8 33  1  0  0  0  0
  8 34  1  0  0  0  0
  8 35  1  0  0  0  0
  9 10  1  0  0  0  0
 10 11  2  0  0  0  0
 11 12  1  0  0  0  0
 11 27  1  0  0  0  0
 12 36  1  0  0  0  0
 12 37  1  0  0  0  0
 13 12  1  6  0  0  0
 13 14  1  0  0  0  0
 13 15  1  0  0  0  0
 13 26  1  0  0  0  0
 14 38  1  0  0  0  0
 14 39  1  0  0  0  0
 14 40  1  0  0  0  0
 15 16  1  0  0  0  0
 15 17  1  0  0  0  0
 15 41  1  6  0  0  0
 16 42  1  0  0  0  0
 16 43  1  0  0  0  0
 16 44  1  0  0  0  0
 17 18  1  0  0  0  0
 17 45  1  0  0  0  0
 17 46  1  0  0  0  0
 18 19  1  0  0  0  0
 18 47  1  0  0  0  0
 18 48  1  0  0  0  0
 19 20  1  6  0  0  0
 19 21  1  0  0  0  0
 19 26  1  0  0  0  0
 20 49  1  0  0  0  0
 20 50  1  0  0  0  0
 20 51  1  0  0  0  0
 21 22  1  0  0  0  0
 21 23  2  0  0  0  0
 22 52  1  0  0  0  0
 22 53  1  0  0  0  0
 22 54  1  0  0  0  0
 23 24  1  0  0  0  0
 23 55  1  0  0  0  0
 24 25  1  0  0  0  0
 24 56  1  0  0  0  0
 24 57  1  0  0  0  0
 25 26  1  0  0  0  0
 25 58  1  0  0  0  0
 25 59  1  0  0  0  0
 26 60  1  6  0  0  0
 27 28  1  0  0  0  0
 28 61  1  0  0  0  0
M  END
$$$$
