CHEMBL259461
 OpenBabel04072215363D

 55 59  0  0  0  0  0  0  0  0999 V2000
    5.1792   -1.7983    0.7944 C   0  0  0  0  0  0  0  0  0  0  0  0
    4.0229   -0.9690    0.9159 O   0  0  0  0  0  0  0  0  0  0  0  0
    4.2579    0.3620    1.1334 C   0  0  0  0  0  0  0  0  0  0  0  0
    5.4437    0.9926    0.7135 C   0  0  0  0  0  0  0  0  0  0  0  0
    5.7693    2.2904    1.0806 C   0  0  0  0  0  0  0  0  0  0  0  0
    6.9887    2.7499    0.7475 N   0  0  0  0  0  0  0  0  0  0  0  0
    7.3612    3.9641    1.1963 C   0  0  0  0  0  0  0  0  0  0  0  0
    6.5760    4.7469    2.0125 C   0  0  0  0  0  0  0  0  0  0  0  0
    5.3115    4.2767    2.3605 C   0  0  0  0  0  0  0  0  0  0  0  0
    4.6531    5.1150    3.2479 O   0  0  0  0  0  0  0  0  0  0  0  0
    3.7560    4.6207    4.1664 C   0  0  0  0  0  0  0  0  0  0  0  0
    3.8654    3.3895    4.7983 C   0  0  0  0  0  0  0  0  0  0  0  0
    2.7431    2.8445    5.4388 C   0  0  0  0  0  0  0  0  0  0  0  0
    1.5433    3.5802    5.6276 C   0  0  0  0  0  0  0  0  0  0  0  0
    0.3328    3.1005    6.2241 C   0  0  0  0  0  0  0  0  0  0  0  0
    0.0497    1.6864    6.6371 C   0  0  0  0  0  0  0  0  0  0  0  0
   -1.0798    1.2632    6.4021 O   0  0  0  0  0  0  0  0  0  0  0  0
    1.0527    0.9816    7.2722 N   0  0  0  0  0  0  0  0  0  0  0  0
    0.9108   -0.3415    7.6700 C   0  0  0  0  0  0  0  0  0  0  0  0
    1.9620   -1.1456    8.1840 C   0  0  0  0  0  0  0  0  0  0  0  0
    1.3801   -2.3678    8.4264 C   0  0  0  0  0  0  0  0  0  0  0  0
    1.8469   -3.6723    8.9251 C   0  0  0  0  0  0  0  0  0  0  0  0
    0.0662   -2.3024    8.0977 O   0  0  0  0  0  0  0  0  0  0  0  0
   -0.2220   -1.0476    7.6181 N   0  0  0  0  0  0  0  0  0  0  0  0
   -0.7824    3.9546    6.3502 C   0  0  0  0  0  0  0  0  0  0  0  0
   -0.7366    5.2679    5.8991 C   0  0  0  0  0  0  0  0  0  0  0  0
    0.4133    5.7354    5.2819 C   0  0  0  0  0  0  0  0  0  0  0  0
    1.5368    4.9114    5.1254 C   0  0  0  0  0  0  0  0  0  0  0  0
    2.6315    5.4060    4.3982 C   0  0  0  0  0  0  0  0  0  0  0  0
    4.8446    3.0438    1.8224 C   0  0  0  0  0  0  0  0  0  0  0  0
    3.5568    2.4845    1.9975 C   0  0  0  0  0  0  0  0  0  0  0  0
    3.2872    1.1344    1.7666 C   0  0  0  0  0  0  0  0  0  0  0  0
    2.0698    0.7687    2.2703 O   0  0  0  0  0  0  0  0  0  0  0  0
    1.7780   -0.6040    2.4775 C   0  0  0  0  0  0  0  0  0  0  0  0
    4.9198   -2.7959    1.1594 H   0  0  0  0  0  0  0  0  0  0  0  0
    6.0270   -1.4492    1.3948 H   0  0  0  0  0  0  0  0  0  0  0  0
    5.4613   -1.8793   -0.2603 H   0  0  0  0  0  0  0  0  0  0  0  0
    6.1731    0.4530    0.1174 H   0  0  0  0  0  0  0  0  0  0  0  0
    8.3520    4.2892    0.8907 H   0  0  0  0  0  0  0  0  0  0  0  0
    6.9437    5.6959    2.3867 H   0  0  0  0  0  0  0  0  0  0  0  0
    4.7515    2.7742    4.6707 H   0  0  0  0  0  0  0  0  0  0  0  0
    2.8177    1.7951    5.7068 H   0  0  0  0  0  0  0  0  0  0  0  0
    1.9325    1.4246    7.4788 H   0  0  0  0  0  0  0  0  0  0  0  0
    2.9981   -0.8850    8.3307 H   0  0  0  0  0  0  0  0  0  0  0  0
    2.8852   -3.6215    9.2643 H   0  0  0  0  0  0  0  0  0  0  0  0
    1.7808   -4.4261    8.1338 H   0  0  0  0  0  0  0  0  0  0  0  0
    1.2283   -4.0059    9.7645 H   0  0  0  0  0  0  0  0  0  0  0  0
   -1.7105    3.5814    6.7832 H   0  0  0  0  0  0  0  0  0  0  0  0
   -1.6141    5.9044    5.9912 H   0  0  0  0  0  0  0  0  0  0  0  0
    0.4129    6.7549    4.8965 H   0  0  0  0  0  0  0  0  0  0  0  0
    2.5832    6.3945    3.9394 H   0  0  0  0  0  0  0  0  0  0  0  0
    2.7530    3.0792    2.4231 H   0  0  0  0  0  0  0  0  0  0  0  0
    0.9639   -0.6573    3.2094 H   0  0  0  0  0  0  0  0  0  0  0  0
    2.6171   -1.1624    2.9037 H   0  0  0  0  0  0  0  0  0  0  0  0
    1.4202   -1.0512    1.5472 H   0  0  0  0  0  0  0  0  0  0  0  0
  1  2  1  0  0  0  0
  1 35  1  0  0  0  0
  1 36  1  0  0  0  0
  1 37  1  0  0  0  0
  2  3  1  0  0  0  0
  3  4  1  0  0  0  0
  3 32  2  0  0  0  0
  4  5  2  0  0  0  0
  4 38  1  0  0  0  0
  5  6  1  0  0  0  0
  5 30  1  0  0  0  0
  6  7  2  0  0  0  0
  7  8  1  0  0  0  0
  7 39  1  0  0  0  0
  8  9  2  0  0  0  0
  8 40  1  0  0  0  0
  9 10  1  0  0  0  0
  9 30  1  0  0  0  0
 10 11  1  0  0  0  0
 11 12  1  0  0  0  0
 11 29  2  0  0  0  0
 12 13  2  0  0  0  0
 12 41  1  0  0  0  0
 13 14  1  0  0  0  0
 13 42  1  0  0  0  0
 14 15  1  0  0  0  0
 14 28  2  0  0  0  0
 15 16  1  0  0  0  0
 15 25  2  0  0  0  0
 16 17  2  0  0  0  0
 16 18  1  0  0  0  0
 18 19  1  0  0  0  0
 18 43  1  0  0  0  0
 19 20  1  0  0  0  0
 19 24  2  0  0  0  0
 20 21  2  0  0  0  0
 20 44  1  0  0  0  0
 21 22  1  0  0  0  0
 21 23  1  0  0  0  0
 22 45  1  0  0  0  0
 22 46  1  0  0  0  0
 22 47  1  0  0  0  0
 23 24  1  0  0  0  0
 25 26  1  0  0  0  0
 25 48  1  0  0  0  0
 26 27  2  0  0  0  0
 26 49  1  0  0  0  0
 27 28  1  0  0  0  0
 27 50  1  0  0  0  0
 28 29  1  0  0  0  0
 29 51  1  0  0  0  0
 30 31  2  0  0  0  0
 31 32  1  0  0  0  0
 31 52  1  0  0  0  0
 32 33  1  0  0  0  0
 33 34  1  0  0  0  0
 34 53  1  0  0  0  0
 34 54  1  0  0  0  0
 34 55  1  0  0  0  0
M  END
$$$$
