CHEMBL3827137
 OpenBabel04072215373D

 67 71  0  0  0  0  0  0  0  0999 V2000
    4.1338   -9.2108    9.6806 C   0  0  0  0  0  0  0  0  0  0  0  0
    3.9860   -8.5406    8.3216 C   0  0  0  0  0  0  0  0  0  0  0  0
    5.2556   -8.2267    7.6478 N   0  0  0  0  0  0  0  0  0  0  0  0
    6.1553   -9.3797    7.4844 C   0  0  0  0  0  0  0  0  0  0  0  0
    5.6896  -10.4627    6.5171 C   0  0  0  0  0  0  0  0  0  0  0  0
    4.9584   -7.5073    6.3915 C   0  0  0  0  0  0  0  0  0  0  0  0
    6.1978   -7.0193    5.6469 C   0  0  0  0  0  0  0  0  0  0  0  0
    5.8017   -6.2178    4.5315 O   0  0  0  0  0  0  0  0  0  0  0  0
    6.8436   -5.8346    3.7310 C   0  0  0  0  0  0  0  0  0  0  0  0
    8.1928   -6.0160    4.0269 C   0  0  0  0  0  0  0  0  0  0  0  0
    9.1650   -5.8283    3.0534 C   0  0  0  0  0  0  0  0  0  0  0  0
    8.7617   -5.5784    1.7581 C   0  0  0  0  0  0  0  0  0  0  0  0
    9.3895   -6.3020    0.6761 N   0  0  0  0  0  0  0  0  0  0  0  0
    8.9839   -5.9422   -0.6383 C   0  0  0  0  0  0  0  0  0  0  0  0
    8.1794   -6.7816   -1.3048 C   0  0  0  0  0  0  0  0  0  0  0  0
    7.4284   -7.8050   -0.6578 C   0  0  0  0  0  0  0  0  0  0  0  0
    6.1729   -8.1016   -1.1427 C   0  0  0  0  0  0  0  0  0  0  0  0
    5.3908   -8.9713   -0.4274 C   0  0  0  0  0  0  0  0  0  0  0  0
    5.8640   -9.5867    0.7295 C   0  0  0  0  0  0  0  0  0  0  0  0
    5.0953  -10.4392    1.4798 O   0  0  0  0  0  0  0  0  0  0  0  0
    3.7286  -10.5265    1.0848 C   0  0  0  0  0  0  0  0  0  0  0  0
    7.1733   -9.3197    1.1936 C   0  0  0  0  0  0  0  0  0  0  0  0
    7.9475   -8.3685    0.5074 C   0  0  0  0  0  0  0  0  0  0  0  0
    9.2297   -7.7354    1.0201 C   0  0  0  0  0  0  0  0  0  0  0  0
    9.9695   -8.3622    1.7869 O   0  0  0  0  0  0  0  0  0  0  0  0
    8.3565   -6.5930   -2.7291 C   0  0  0  0  0  0  0  0  0  0  0  0
    7.6699   -6.9872   -3.6498 O   0  0  0  0  0  0  0  0  0  0  0  0
    9.5502   -5.8038   -2.8049 C   0  0  0  0  0  0  0  0  0  0  0  0
   10.6636   -6.1109   -3.5250 C   0  0  0  0  0  0  0  0  0  0  0  0
   11.7705   -5.3161   -3.2971 C   0  0  0  0  0  0  0  0  0  0  0  0
   13.0181   -5.6677   -3.7264 O   0  0  0  0  0  0  0  0  0  0  0  0
   13.2800   -7.0656   -3.5063 C   0  0  0  0  0  0  0  0  0  0  0  0
   11.6125   -4.1367   -2.5543 C   0  0  0  0  0  0  0  0  0  0  0  0
   10.5449   -4.0464   -1.6482 C   0  0  0  0  0  0  0  0  0  0  0  0
    9.6868   -5.1193   -1.6170 C   0  0  0  0  0  0  0  0  0  0  0  0
    7.4340   -5.0819    1.5119 C   0  0  0  0  0  0  0  0  0  0  0  0
    6.4722   -5.2803    2.5049 C   0  0  0  0  0  0  0  0  0  0  0  0
    3.1781   -9.1719   10.2136 H   0  0  0  0  0  0  0  0  0  0  0  0
    4.8833   -8.7065   10.2989 H   0  0  0  0  0  0  0  0  0  0  0  0
    4.4111  -10.2646    9.5788 H   0  0  0  0  0  0  0  0  0  0  0  0
    3.4493   -7.5983    8.4896 H   0  0  0  0  0  0  0  0  0  0  0  0
    3.3435   -9.1585    7.6831 H   0  0  0  0  0  0  0  0  0  0  0  0
    6.3538   -9.8349    8.4613 H   0  0  0  0  0  0  0  0  0  0  0  0
    7.1460   -9.0271    7.1668 H   0  0  0  0  0  0  0  0  0  0  0  0
    4.6577  -10.7663    6.7098 H   0  0  0  0  0  0  0  0  0  0  0  0
    6.3198  -11.3520    6.6251 H   0  0  0  0  0  0  0  0  0  0  0  0
    5.7647  -10.1300    5.4770 H   0  0  0  0  0  0  0  0  0  0  0  0
    4.3546   -6.6189    6.6213 H   0  0  0  0  0  0  0  0  0  0  0  0
    4.3413   -8.1159    5.7175 H   0  0  0  0  0  0  0  0  0  0  0  0
    6.7743   -7.8837    5.2939 H   0  0  0  0  0  0  0  0  0  0  0  0
    6.7990   -6.4048    6.3259 H   0  0  0  0  0  0  0  0  0  0  0  0
    8.5322   -6.4238    4.9774 H   0  0  0  0  0  0  0  0  0  0  0  0
   10.1865   -6.1330    3.2527 H   0  0  0  0  0  0  0  0  0  0  0  0
    5.7818   -7.6067   -2.0275 H   0  0  0  0  0  0  0  0  0  0  0  0
    4.3729   -9.1055   -0.8046 H   0  0  0  0  0  0  0  0  0  0  0  0
    3.2052  -11.2071    1.7632 H   0  0  0  0  0  0  0  0  0  0  0  0
    3.6230  -10.9444    0.0717 H   0  0  0  0  0  0  0  0  0  0  0  0
    3.2252   -9.5504    1.1523 H   0  0  0  0  0  0  0  0  0  0  0  0
    7.5385   -9.7826    2.1007 H   0  0  0  0  0  0  0  0  0  0  0  0
   10.6753   -7.0290   -4.0959 H   0  0  0  0  0  0  0  0  0  0  0  0
   14.3510   -7.2432   -3.6249 H   0  0  0  0  0  0  0  0  0  0  0  0
   12.7587   -7.6820   -4.2477 H   0  0  0  0  0  0  0  0  0  0  0  0
   12.9992   -7.3837   -2.4907 H   0  0  0  0  0  0  0  0  0  0  0  0
   12.3539   -3.3453   -2.6246 H   0  0  0  0  0  0  0  0  0  0  0  0
   10.3840   -3.1518   -1.0535 H   0  0  0  0  0  0  0  0  0  0  0  0
    7.0852   -4.8129    0.5355 H   0  0  0  0  0  0  0  0  0  0  0  0
    5.4252   -5.1283    2.2617 H   0  0  0  0  0  0  0  0  0  0  0  0
  1  2  1  0  0  0  0
  1 38  1  0  0  0  0
  1 39  1  0  0  0  0
  1 40  1  0  0  0  0
  2  3  1  0  0  0  0
  2 41  1  0  0  0  0
  2 42  1  0  0  0  0
  3  4  1  0  0  0  0
  3  6  1  0  0  0  0
  4  5  1  0  0  0  0
  4 43  1  0  0  0  0
  4 44  1  0  0  0  0
  5 45  1  0  0  0  0
  5 46  1  0  0  0  0
  5 47  1  0  0  0  0
  6  7  1  0  0  0  0
  6 48  1  0  0  0  0
  6 49  1  0  0  0  0
  7  8  1  0  0  0  0
  7 50  1  0  0  0  0
  7 51  1  0  0  0  0
  8  9  1  0  0  0  0
  9 10  1  0  0  0  0
  9 37  2  0  0  0  0
 10 11  2  0  0  0  0
 10 52  1  0  0  0  0
 11 12  1  0  0  0  0
 11 53  1  0  0  0  0
 12 13  1  0  0  0  0
 12 36  2  0  0  0  0
 13 14  1  0  0  0  0
 13 24  1  0  0  0  0
 14 15  2  0  0  0  0
 14 35  1  0  0  0  0
 15 16  1  0  0  0  0
 15 26  1  0  0  0  0
 16 17  1  0  0  0  0
 16 23  2  0  0  0  0
 17 18  2  0  0  0  0
 17 54  1  0  0  0  0
 18 19  1  0  0  0  0
 18 55  1  0  0  0  0
 19 20  1  0  0  0  0
 19 22  2  0  0  0  0
 20 21  1  0  0  0  0
 21 56  1  0  0  0  0
 21 57  1  0  0  0  0
 21 58  1  0  0  0  0
 22 23  1  0  0  0  0
 22 59  1  0  0  0  0
 23 24  1  0  0  0  0
 24 25  2  0  0  0  0
 26 27  2  0  0  0  0
 26 28  1  0  0  0  0
 28 29  1  0  0  0  0
 28 35  2  0  0  0  0
 29 30  2  0  0  0  0
 29 60  1  0  0  0  0
 30 31  1  0  0  0  0
 30 33  1  0  0  0  0
 31 32  1  0  0  0  0
 32 61  1  0  0  0  0
 32 62  1  0  0  0  0
 32 63  1  0  0  0  0
 33 34  2  0  0  0  0
 33 64  1  0  0  0  0
 34 35  1  0  0  0  0
 34 65  1  0  0  0  0
 36 37  1  0  0  0  0
 36 66  1  0  0  0  0
 37 67  1  0  0  0  0
M  END
$$$$
