CHEMBL1996510
 OpenBabel04072215363D

 52 57  0  0  0  0  0  0  0  0999 V2000
    1.2532   -2.3403   -0.9154 O   0  0  0  0  0  0  0  0  0  0  0  0
    0.6931   -1.4010   -0.3815 C   0  0  0  0  0  0  0  0  0  0  0  0
    1.2222   -0.1863   -0.1542 N   0  0  0  0  0  0  0  0  0  0  0  0
    0.3493    0.6040    0.5063 C   0  0  0  0  0  0  0  0  0  0  0  0
    0.5967    1.7309    0.8833 O   0  0  0  0  0  0  0  0  0  0  0  0
   -0.9100   -0.1749    0.6751 C   0  0  0  0  0  0  0  0  0  0  0  0
   -2.0626    0.3121    1.3461 C   0  0  0  0  0  0  0  0  0  0  0  0
   -2.9162   -0.4683    2.1021 C   0  0  0  0  0  0  0  0  0  0  0  0
   -3.8674    0.3464    2.6502 N   0  0  0  0  0  0  0  0  0  0  0  0
   -3.6741    1.6429    2.2384 C   0  0  0  0  0  0  0  0  0  0  0  0
   -4.3998    2.7993    2.5439 C   0  0  0  0  0  0  0  0  0  0  0  0
   -3.9821    4.0017    1.9673 C   0  0  0  0  0  0  0  0  0  0  0  0
   -2.8868    4.0453    1.1126 C   0  0  0  0  0  0  0  0  0  0  0  0
   -2.1761    2.8798    0.8165 C   0  0  0  0  0  0  0  0  0  0  0  0
   -2.5588    1.6517    1.3980 C   0  0  0  0  0  0  0  0  0  0  0  0
   -0.6852   -1.3819    0.1274 C   0  0  0  0  0  0  0  0  0  0  0  0
   -1.5707   -2.5381    0.0505 C   0  0  0  0  0  0  0  0  0  0  0  0
   -1.4558   -3.3717    1.1029 N   0  0  0  0  0  0  0  0  0  0  0  0
   -2.1788   -4.4932    1.1015 C   0  0  0  0  0  0  0  0  0  0  0  0
   -2.0319   -5.3685    2.1485 N   0  0  0  0  0  0  0  0  0  0  0  0
   -1.1063   -5.0802    3.2449 C   0  0  0  0  0  0  0  0  0  0  0  0
    0.0087   -6.1456    3.3453 C   0  0  0  0  0  0  0  0  0  0  0  0
   -0.4933   -7.5362    3.3470 N   0  0  0  0  0  0  0  0  0  0  0  0
   -1.3145   -7.7382    2.1347 C   0  0  0  0  0  0  0  0  0  0  0  0
   -2.4947   -6.7472    2.0116 C   0  0  0  0  0  0  0  0  0  0  0  0
   -3.0571   -4.7778    0.1274 N   0  0  0  0  0  0  0  0  0  0  0  0
   -3.1968   -3.9291   -0.8994 C   0  0  0  0  0  0  0  0  0  0  0  0
   -4.1196   -4.2212   -1.9003 C   0  0  0  0  0  0  0  0  0  0  0  0
   -4.3028   -3.3849   -3.0079 C   0  0  0  0  0  0  0  0  0  0  0  0
   -3.5440   -2.2296   -3.1314 C   0  0  0  0  0  0  0  0  0  0  0  0
   -2.6233   -1.9103   -2.1373 C   0  0  0  0  0  0  0  0  0  0  0  0
   -2.4494   -2.7566   -1.0113 C   0  0  0  0  0  0  0  0  0  0  0  0
    2.1663    0.0818   -0.3730 H   0  0  0  0  0  0  0  0  0  0  0  0
   -2.9218   -1.5265    2.3289 H   0  0  0  0  0  0  0  0  0  0  0  0
   -4.6042    0.0405    3.2706 H   0  0  0  0  0  0  0  0  0  0  0  0
   -5.2572    2.7712    3.2087 H   0  0  0  0  0  0  0  0  0  0  0  0
   -4.5243    4.9187    2.1865 H   0  0  0  0  0  0  0  0  0  0  0  0
   -2.5714    4.9865    0.6714 H   0  0  0  0  0  0  0  0  0  0  0  0
   -1.3255    2.9421    0.1448 H   0  0  0  0  0  0  0  0  0  0  0  0
   -1.6826   -5.0837    4.1778 H   0  0  0  0  0  0  0  0  0  0  0  0
   -0.6395   -4.0906    3.1810 H   0  0  0  0  0  0  0  0  0  0  0  0
    0.5712   -5.9828    4.2718 H   0  0  0  0  0  0  0  0  0  0  0  0
    0.7224   -6.0235    2.5211 H   0  0  0  0  0  0  0  0  0  0  0  0
   -1.0974   -7.6529    4.1605 H   0  0  0  0  0  0  0  0  0  0  0  0
   -1.7082   -8.7606    2.1484 H   0  0  0  0  0  0  0  0  0  0  0  0
   -0.6693   -7.6610    1.2509 H   0  0  0  0  0  0  0  0  0  0  0  0
   -3.2212   -6.9452    2.8082 H   0  0  0  0  0  0  0  0  0  0  0  0
   -3.0081   -6.9451    1.0647 H   0  0  0  0  0  0  0  0  0  0  0  0
   -4.7161   -5.1276   -1.8202 H   0  0  0  0  0  0  0  0  0  0  0  0
   -5.0353   -3.6414   -3.7696 H   0  0  0  0  0  0  0  0  0  0  0  0
   -3.6680   -1.5791   -3.9936 H   0  0  0  0  0  0  0  0  0  0  0  0
   -2.0414   -0.9981   -2.2443 H   0  0  0  0  0  0  0  0  0  0  0  0
  1  2  2  0  0  0  0
  2  3  1  0  0  0  0
  2 16  1  0  0  0  0
  3  4  1  0  0  0  0
  3 33  1  0  0  0  0
  4  5  2  0  0  0  0
  4  6  1  0  0  0  0
  6  7  1  0  0  0  0
  6 16  2  0  0  0  0
  7  8  2  0  0  0  0
  7 15  1  0  0  0  0
  8  9  1  0  0  0  0
  8 34  1  0  0  0  0
  9 10  1  0  0  0  0
  9 35  1  0  0  0  0
 10 11  1  0  0  0  0
 10 15  2  0  0  0  0
 11 12  2  0  0  0  0
 11 36  1  0  0  0  0
 12 13  1  0  0  0  0
 12 37  1  0  0  0  0
 13 14  2  0  0  0  0
 13 38  1  0  0  0  0
 14 15  1  0  0  0  0
 14 39  1  0  0  0  0
 16 17  1  0  0  0  0
 17 18  1  0  0  0  0
 17 32  2  0  0  0  0
 18 19  2  0  0  0  0
 19 20  1  0  0  0  0
 19 26  1  0  0  0  0
 20 21  1  0  0  0  0
 20 25  1  0  0  0  0
 21 22  1  0  0  0  0
 21 40  1  0  0  0  0
 21 41  1  0  0  0  0
 22 23  1  0  0  0  0
 22 42  1  0  0  0  0
 22 43  1  0  0  0  0
 23 24  1  0  0  0  0
 23 44  1  0  0  0  0
 24 25  1  0  0  0  0
 24 45  1  0  0  0  0
 24 46  1  0  0  0  0
 25 47  1  0  0  0  0
 25 48  1  0  0  0  0
 26 27  2  0  0  0  0
 27 28  1  0  0  0  0
 27 32  1  0  0  0  0
 28 29  2  0  0  0  0
 28 49  1  0  0  0  0
 29 30  1  0  0  0  0
 29 50  1  0  0  0  0
 30 31  2  0  0  0  0
 30 51  1  0  0  0  0
 31 32  1  0  0  0  0
 31 52  1  0  0  0  0
M  END
$$$$
