CHEMBL4091355
 OpenBabel04072215383D

 45 48  0  0  0  0  0  0  0  0999 V2000
    0.0643    1.0084   -5.6936 C   0  0  0  0  0  0  0  0  0  0  0  0
    0.4287    0.0039   -4.7486 O   0  0  0  0  0  0  0  0  0  0  0  0
    0.8553    0.4440   -3.5157 C   0  0  0  0  0  0  0  0  0  0  0  0
    0.5870    1.7498   -3.0483 C   0  0  0  0  0  0  0  0  0  0  0  0
    0.9927    2.1495   -1.7806 C   0  0  0  0  0  0  0  0  0  0  0  0
    1.6731    1.2511   -0.9713 C   0  0  0  0  0  0  0  0  0  0  0  0
    1.9400   -0.0536   -1.4281 C   0  0  0  0  0  0  0  0  0  0  0  0
    1.5692   -0.4819   -2.7122 C   0  0  0  0  0  0  0  0  0  0  0  0
    1.7783   -1.9436   -3.1800 C   0  0  0  0  0  0  0  0  0  0  0  0
    2.9728   -2.5762   -2.6123 N   0  0  0  0  0  0  0  0  0  0  0  0
    3.2127   -3.9754   -2.7530 C   0  0  0  0  0  0  0  0  0  0  0  0
    4.5481   -4.2718   -2.7235 N   0  0  0  0  0  0  0  0  0  0  0  0
    4.9902   -4.8622   -1.5962 C   0  0  0  0  0  0  0  0  0  0  0  0
    6.2421   -5.4509   -1.5995 N   0  0  0  0  0  0  0  0  0  0  0  0
    4.2680   -5.0088   -0.4699 N   0  0  0  0  0  0  0  0  0  0  0  0
    2.9403   -4.9188   -0.7317 C   0  0  0  0  0  0  0  0  0  0  0  0
    1.9292   -5.5531   -0.0361 N   0  0  0  0  0  0  0  0  0  0  0  0
    1.9521   -6.7828   -0.6908 C   0  0  0  0  0  0  0  0  0  0  0  0
    1.9885   -8.0569   -0.1334 C   0  0  0  0  0  0  0  0  0  0  0  0
    2.3629   -9.1139   -0.9628 C   0  0  0  0  0  0  0  0  0  0  0  0
    2.7449  -10.4028   -0.2849 C   0  0  0  0  0  0  0  0  0  0  0  0
    2.4388   -8.8852   -2.3486 C   0  0  0  0  0  0  0  0  0  0  0  0
    2.6195   -9.9365   -3.2024 O   0  0  0  0  0  0  0  0  0  0  0  0
    2.3706   -7.5727   -2.9032 C   0  0  0  0  0  0  0  0  0  0  0  0
    2.2211   -6.4472   -2.0403 C   0  0  0  0  0  0  0  0  0  0  0  0
    2.4328   -4.9440   -2.0424 C   0  0  0  0  0  0  0  0  0  0  0  0
   -0.2317    0.5081   -6.6200 H   0  0  0  0  0  0  0  0  0  0  0  0
    0.9162    1.6606   -5.9170 H   0  0  0  0  0  0  0  0  0  0  0  0
   -0.8004    1.5932   -5.3609 H   0  0  0  0  0  0  0  0  0  0  0  0
    0.0332    2.4737   -3.6378 H   0  0  0  0  0  0  0  0  0  0  0  0
    0.7628    3.1490   -1.4253 H   0  0  0  0  0  0  0  0  0  0  0  0
    1.9773    1.5587    0.0259 H   0  0  0  0  0  0  0  0  0  0  0  0
    2.4755   -0.7319   -0.7514 H   0  0  0  0  0  0  0  0  0  0  0  0
    1.8907   -1.9484   -4.2670 H   0  0  0  0  0  0  0  0  0  0  0  0
    0.8802   -2.5120   -2.9088 H   0  0  0  0  0  0  0  0  0  0  0  0
    3.8333   -2.1073   -2.8840 H   0  0  0  0  0  0  0  0  0  0  0  0
    6.9343   -4.8608   -2.0295 H   0  0  0  0  0  0  0  0  0  0  0  0
    6.4404   -5.8294   -0.6846 H   0  0  0  0  0  0  0  0  0  0  0  0
    1.0326   -5.1039    0.0331 H   0  0  0  0  0  0  0  0  0  0  0  0
    1.9169   -8.1818    0.9447 H   0  0  0  0  0  0  0  0  0  0  0  0
    3.2310  -10.1888    0.6787 H   0  0  0  0  0  0  0  0  0  0  0  0
    3.4845  -10.9658   -0.8619 H   0  0  0  0  0  0  0  0  0  0  0  0
    1.8693  -11.0287   -0.0927 H   0  0  0  0  0  0  0  0  0  0  0  0
    2.4070  -10.7639   -2.7300 H   0  0  0  0  0  0  0  0  0  0  0  0
    2.5739   -7.4479   -3.9702 H   0  0  0  0  0  0  0  0  0  0  0  0
  1  2  1  0  0  0  0
  1 27  1  0  0  0  0
  1 28  1  0  0  0  0
  1 29  1  0  0  0  0
  2  3  1  0  0  0  0
  3  4  1  0  0  0  0
  3  8  2  0  0  0  0
  4  5  2  0  0  0  0
  4 30  1  0  0  0  0
  5  6  1  0  0  0  0
  5 31  1  0  0  0  0
  6  7  2  0  0  0  0
  6 32  1  0  0  0  0
  7  8  1  0  0  0  0
  7 33  1  0  0  0  0
  8  9  1  0  0  0  0
  9 10  1  0  0  0  0
  9 34  1  0  0  0  0
  9 35  1  0  0  0  0
 10 11  1  0  0  0  0
 10 36  1  0  0  0  0
 11 12  1  0  0  0  0
 11 26  2  0  0  0  0
 12 13  2  0  0  0  0
 13 14  1  0  0  0  0
 13 15  1  0  0  0  0
 14 37  1  0  0  0  0
 14 38  1  0  0  0  0
 15 16  2  0  0  0  0
 16 17  1  0  0  0  0
 16 26  1  0  0  0  0
 17 18  1  0  0  0  0
 17 39  1  0  0  0  0
 18 19  1  0  0  0  0
 18 25  2  0  0  0  0
 19 20  2  0  0  0  0
 19 40  1  0  0  0  0
 20 21  1  0  0  0  0
 20 22  1  0  0  0  0
 21 41  1  0  0  0  0
 21 42  1  0  0  0  0
 21 43  1  0  0  0  0
 22 23  1  0  0  0  0
 22 24  2  0  0  0  0
 23 44  1  0  0  0  0
 24 25  1  0  0  0  0
 24 45  1  0  0  0  0
 25 26  1  0  0  0  0
M  END
$$$$
