CHEMBL272888
 OpenBabel04072215363D

 73 77  0  0  0  0  0  0  0  0999 V2000
    2.5441    0.3088    0.0662 C   0  0  0  0  0  0  0  0  0  0  0  0
    1.0532    0.1198    0.1126 C   0  0  0  0  0  0  0  0  0  0  0  0
    0.2757    1.2451    0.4275 C   0  0  0  0  0  0  0  0  0  0  0  0
   -1.1216    1.2013    0.4014 C   0  0  0  0  0  0  0  0  0  0  0  0
   -1.7938    0.0305    0.0676 C   0  0  0  0  0  0  0  0  0  0  0  0
   -3.2064   -0.0671   -0.0251 N   0  0  0  0  0  0  0  0  0  0  0  0
   -4.1192    0.9621    0.1801 C   0  0  0  0  0  0  0  0  0  0  0  0
   -3.8491    2.1140    0.4964 O   0  0  0  0  0  0  0  0  0  0  0  0
   -5.5644    0.6217    0.0274 C   0  0  0  0  0  0  0  0  0  0  0  0
   -6.0348   -0.3343   -0.8791 C   0  0  0  0  0  0  0  0  0  0  0  0
   -7.4111   -0.5601   -1.0025 C   0  0  0  0  0  0  0  0  0  0  0  0
   -8.3198    0.1579   -0.2197 C   0  0  0  0  0  0  0  0  0  0  0  0
   -7.8682    1.1161    0.6975 C   0  0  0  0  0  0  0  0  0  0  0  0
   -8.8301    1.8835    1.5739 C   0  0  0  0  0  0  0  0  0  0  0  0
  -10.1343    1.5434    1.3751 F   0  0  0  0  0  0  0  0  0  0  0  0
   -8.5922    1.6792    2.8994 F   0  0  0  0  0  0  0  0  0  0  0  0
   -8.7614    3.2287    1.3820 F   0  0  0  0  0  0  0  0  0  0  0  0
   -6.4865    1.3481    0.8019 C   0  0  0  0  0  0  0  0  0  0  0  0
   -1.0300   -1.1133   -0.2017 C   0  0  0  0  0  0  0  0  0  0  0  0
    0.3865   -1.0881   -0.1675 C   0  0  0  0  0  0  0  0  0  0  0  0
    1.0646   -2.3813   -0.5016 C   0  0  0  0  0  0  0  0  0  0  0  0
    0.5415   -3.1043   -1.3434 O   0  0  0  0  0  0  0  0  0  0  0  0
    2.2109   -2.6878    0.2125 N   0  0  0  0  0  0  0  0  0  0  0  0
    2.9794   -3.8685    0.0896 C   0  0  0  0  0  0  0  0  0  0  0  0
    2.6851   -4.9420   -0.7164 C   0  0  0  0  0  0  0  0  0  0  0  0
    3.4359   -6.0628   -0.7699 N   0  0  0  0  0  0  0  0  0  0  0  0
    4.5335   -6.1371    0.0035 C   0  0  0  0  0  0  0  0  0  0  0  0
    5.3021   -7.3007   -0.0131 N   0  0  0  0  0  0  0  0  0  0  0  0
    5.4597   -8.1738   -1.1019 C   0  0  0  0  0  0  0  0  0  0  0  0
    5.3401   -7.7296   -2.4187 C   0  0  0  0  0  0  0  0  0  0  0  0
    5.4076   -8.6233   -3.4847 C   0  0  0  0  0  0  0  0  0  0  0  0
    5.5921   -9.9971   -3.2888 C   0  0  0  0  0  0  0  0  0  0  0  0
    5.6268  -10.8309   -4.3898 N   0  0  0  0  0  0  0  0  0  0  0  0
    6.2698  -12.1484   -4.3575 C   0  0  0  0  0  0  0  0  0  0  0  0
    6.7642  -12.4899   -5.7872 C   0  0  0  0  0  0  0  0  0  0  0  0
    5.6830  -12.4476   -6.8033 N   0  0  0  0  0  0  0  0  0  0  0  0
    6.2217  -12.6957   -8.1378 C   0  0  0  0  0  0  0  0  0  0  0  0
    5.0196  -11.1222   -6.7579 C   0  0  0  0  0  0  0  0  0  0  0  0
    4.5036  -10.7644   -5.3470 C   0  0  0  0  0  0  0  0  0  0  0  0
    5.7774  -10.4277   -1.9699 C   0  0  0  0  0  0  0  0  0  0  0  0
    5.7204   -9.5296   -0.8902 C   0  0  0  0  0  0  0  0  0  0  0  0
    4.9157   -5.1446    0.8206 N   0  0  0  0  0  0  0  0  0  0  0  0
    4.1349   -4.0357    0.8333 C   0  0  0  0  0  0  0  0  0  0  0  0
    2.8029    1.3717   -0.0023 H   0  0  0  0  0  0  0  0  0  0  0  0
    2.9737   -0.1736   -0.8169 H   0  0  0  0  0  0  0  0  0  0  0  0
    3.0134   -0.0749    0.9761 H   0  0  0  0  0  0  0  0  0  0  0  0
    0.7507    2.1951    0.6713 H   0  0  0  0  0  0  0  0  0  0  0  0
   -1.6493    2.1201    0.6372 H   0  0  0  0  0  0  0  0  0  0  0  0
   -3.5728   -0.9852   -0.2387 H   0  0  0  0  0  0  0  0  0  0  0  0
   -5.3590   -0.8831   -1.5280 H   0  0  0  0  0  0  0  0  0  0  0  0
   -7.7812   -1.2902   -1.7199 H   0  0  0  0  0  0  0  0  0  0  0  0
   -9.3874   -0.0292   -0.3351 H   0  0  0  0  0  0  0  0  0  0  0  0
   -6.1226    2.1088    1.4944 H   0  0  0  0  0  0  0  0  0  0  0  0
   -1.5279   -2.0467   -0.4589 H   0  0  0  0  0  0  0  0  0  0  0  0
    2.5016   -2.0440    0.9337 H   0  0  0  0  0  0  0  0  0  0  0  0
    1.8151   -4.9792   -1.3616 H   0  0  0  0  0  0  0  0  0  0  0  0
    6.1024   -7.2122    0.5941 H   0  0  0  0  0  0  0  0  0  0  0  0
    5.1858   -6.6771   -2.6388 H   0  0  0  0  0  0  0  0  0  0  0  0
    5.3297   -8.2216   -4.4915 H   0  0  0  0  0  0  0  0  0  0  0  0
    5.5637  -12.9110   -4.0048 H   0  0  0  0  0  0  0  0  0  0  0  0
    7.1387  -12.1509   -3.6890 H   0  0  0  0  0  0  0  0  0  0  0  0
    7.2135  -13.4892   -5.7697 H   0  0  0  0  0  0  0  0  0  0  0  0
    7.5558  -11.7760   -6.0562 H   0  0  0  0  0  0  0  0  0  0  0  0
    6.6869  -13.6868   -8.1857 H   0  0  0  0  0  0  0  0  0  0  0  0
    6.9684  -11.9498   -8.4316 H   0  0  0  0  0  0  0  0  0  0  0  0
    5.4168  -12.6878   -8.8818 H   0  0  0  0  0  0  0  0  0  0  0  0
    4.1705  -11.1116   -7.4513 H   0  0  0  0  0  0  0  0  0  0  0  0
    5.7183  -10.3377   -7.0808 H   0  0  0  0  0  0  0  0  0  0  0  0
    3.7181  -11.4693   -5.0434 H   0  0  0  0  0  0  0  0  0  0  0  0
    4.0370   -9.7742   -5.3933 H   0  0  0  0  0  0  0  0  0  0  0  0
    5.9248  -11.4826   -1.7506 H   0  0  0  0  0  0  0  0  0  0  0  0
    5.8240   -9.9121    0.1218 H   0  0  0  0  0  0  0  0  0  0  0  0
    4.4996   -3.2528    1.4921 H   0  0  0  0  0  0  0  0  0  0  0  0
  1  2  1  0  0  0  0
  1 44  1  0  0  0  0
  1 45  1  0  0  0  0
  1 46  1  0  0  0  0
  2  3  1  0  0  0  0
  2 20  2  0  0  0  0
  3  4  2  0  0  0  0
  3 47  1  0  0  0  0
  4  5  1  0  0  0  0
  4 48  1  0  0  0  0
  5  6  1  0  0  0  0
  5 19  2  0  0  0  0
  6  7  1  0  0  0  0
  6 49  1  0  0  0  0
  7  8  2  0  0  0  0
  7  9  1  0  0  0  0
  9 10  1  0  0  0  0
  9 18  2  0  0  0  0
 10 11  2  0  0  0  0
 10 50  1  0  0  0  0
 11 12  1  0  0  0  0
 11 51  1  0  0  0  0
 12 13  2  0  0  0  0
 12 52  1  0  0  0  0
 13 14  1  0  0  0  0
 13 18  1  0  0  0  0
 14 15  1  0  0  0  0
 14 16  1  0  0  0  0
 14 17  1  0  0  0  0
 18 53  1  0  0  0  0
 19 20  1  0  0  0  0
 19 54  1  0  0  0  0
 20 21  1  0  0  0  0
 21 22  2  0  0  0  0
 21 23  1  0  0  0  0
 23 24  1  0  0  0  0
 23 55  1  0  0  0  0
 24 25  1  0  0  0  0
 24 43  2  0  0  0  0
 25 26  2  0  0  0  0
 25 56  1  0  0  0  0
 26 27  1  0  0  0  0
 27 28  1  0  0  0  0
 27 42  2  0  0  0  0
 28 29  1  0  0  0  0
 28 57  1  0  0  0  0
 29 30  1  0  0  0  0
 29 41  2  0  0  0  0
 30 31  2  0  0  0  0
 30 58  1  0  0  0  0
 31 32  1  0  0  0  0
 31 59  1  0  0  0  0
 32 33  1  0  0  0  0
 32 40  2  0  0  0  0
 33 34  1  0  0  0  0
 33 39  1  0  0  0  0
 34 35  1  0  0  0  0
 34 60  1  0  0  0  0
 34 61  1  0  0  0  0
 35 36  1  0  0  0  0
 35 62  1  0  0  0  0
 35 63  1  0  0  0  0
 36 37  1  0  0  0  0
 36 38  1  0  0  0  0
 37 64  1  0  0  0  0
 37 65  1  0  0  0  0
 37 66  1  0  0  0  0
 38 39  1  0  0  0  0
 38 67  1  0  0  0  0
 38 68  1  0  0  0  0
 39 69  1  0  0  0  0
 39 70  1  0  0  0  0
 40 41  1  0  0  0  0
 40 71  1  0  0  0  0
 41 72  1  0  0  0  0
 42 43  1  0  0  0  0
 43 73  1  0  0  0  0
M  END
$$$$
