CHEMBL3922285
 OpenBabel04072215373D

 61 64  0  0  0  0  0  0  0  0999 V2000
    0.4639    3.9139    1.0006 C   0  0  0  0  0  0  0  0  0  0  0  0
    1.8023    4.3060    0.6702 O   0  0  0  0  0  0  0  0  0  0  0  0
    2.7579    3.3188    0.6467 C   0  0  0  0  0  0  0  0  0  0  0  0
    2.5043    1.9812    0.9825 C   0  0  0  0  0  0  0  0  0  0  0  0
    3.5275    1.0441    0.8655 C   0  0  0  0  0  0  0  0  0  0  0  0
    3.3974   -0.2964    1.1218 O   0  0  0  0  0  0  0  0  0  0  0  0
    2.1435   -0.7397    1.6310 C   0  0  0  0  0  0  0  0  0  0  0  0
    4.7999    1.4412    0.4214 C   0  0  0  0  0  0  0  0  0  0  0  0
    5.1013    2.7719    0.0792 C   0  0  0  0  0  0  0  0  0  0  0  0
    6.3148    3.1415   -0.5668 N   0  0  0  0  0  0  0  0  0  0  0  0
    6.9045    2.1069   -1.5151 C   0  0  0  0  0  0  0  0  0  0  0  0
    6.0216    1.5337   -2.6416 C   0  0  0  0  0  0  0  0  0  0  0  0
    5.6661    2.4115   -3.8539 C   0  0  0  0  0  0  0  0  0  0  0  0
    6.8203    2.8911   -4.6053 N   0  0  0  0  0  0  0  0  0  0  0  0
    7.4076    3.9811   -0.0963 C   0  0  0  0  0  0  0  0  0  0  0  0
    8.0544    4.6761   -1.1129 C   0  0  0  0  0  0  0  0  0  0  0  0
    9.3883    5.0039   -0.9870 C   0  0  0  0  0  0  0  0  0  0  0  0
   10.0642    4.8631    0.1986 C   0  0  0  0  0  0  0  0  0  0  0  0
   11.3814    5.0464    0.0832 N   0  0  0  0  0  0  0  0  0  0  0  0
   12.0684    5.2230    1.2153 C   0  0  0  0  0  0  0  0  0  0  0  0
   11.4433    5.3233    2.4392 C   0  0  0  0  0  0  0  0  0  0  0  0
   12.1508    6.1859    3.4061 C   0  0  0  0  0  0  0  0  0  0  0  0
   12.8515    5.9538    4.6139 C   0  0  0  0  0  0  0  0  0  0  0  0
   13.5229    7.0326    5.0595 N   0  0  0  0  0  0  0  0  0  0  0  0
   13.2823    7.9740    4.1256 N   0  0  0  0  0  0  0  0  0  0  0  0
   13.5490    9.3852    4.3705 C   0  0  0  0  0  0  0  0  0  0  0  0
   14.8992    9.7688    4.9758 C   0  0  0  0  0  0  0  0  0  0  0  0
   15.9653    9.6303    4.0411 O   0  0  0  0  0  0  0  0  0  0  0  0
   12.5594    7.4747    3.0710 C   0  0  0  0  0  0  0  0  0  0  0  0
   10.1203    4.9288    2.5776 N   0  0  0  0  0  0  0  0  0  0  0  0
    9.3807    4.6086    1.4067 C   0  0  0  0  0  0  0  0  0  0  0  0
    8.0233    4.0478    1.1961 C   0  0  0  0  0  0  0  0  0  0  0  0
    4.0518    3.7056    0.2221 C   0  0  0  0  0  0  0  0  0  0  0  0
   -0.1885    4.7880    0.9034 H   0  0  0  0  0  0  0  0  0  0  0  0
    0.3992    3.5696    2.0391 H   0  0  0  0  0  0  0  0  0  0  0  0
    0.0833    3.1492    0.3130 H   0  0  0  0  0  0  0  0  0  0  0  0
    1.5188    1.6839    1.3116 H   0  0  0  0  0  0  0  0  0  0  0  0
    2.2218   -1.8125    1.8319 H   0  0  0  0  0  0  0  0  0  0  0  0
    1.3436   -0.5978    0.8955 H   0  0  0  0  0  0  0  0  0  0  0  0
    1.9017   -0.2420    2.5763 H   0  0  0  0  0  0  0  0  0  0  0  0
    5.5506    0.6643    0.3131 H   0  0  0  0  0  0  0  0  0  0  0  0
    7.2835    1.2757   -0.9087 H   0  0  0  0  0  0  0  0  0  0  0  0
    7.7941    2.4912   -2.0256 H   0  0  0  0  0  0  0  0  0  0  0  0
    5.0942    1.1031   -2.2409 H   0  0  0  0  0  0  0  0  0  0  0  0
    6.5778    0.6692   -3.0432 H   0  0  0  0  0  0  0  0  0  0  0  0
    5.0241    3.2415   -3.5561 H   0  0  0  0  0  0  0  0  0  0  0  0
    5.0699    1.7827   -4.5378 H   0  0  0  0  0  0  0  0  0  0  0  0
    7.2722    3.6361   -4.0983 H   0  0  0  0  0  0  0  0  0  0  0  0
    6.4785    3.3163   -5.4792 H   0  0  0  0  0  0  0  0  0  0  0  0
    7.5758    4.8041   -2.0814 H   0  0  0  0  0  0  0  0  0  0  0  0
    9.9334    5.3568   -1.8572 H   0  0  0  0  0  0  0  0  0  0  0  0
   13.1255    5.4228    1.0854 H   0  0  0  0  0  0  0  0  0  0  0  0
   12.9387    5.0339    5.1770 H   0  0  0  0  0  0  0  0  0  0  0  0
   12.7533    9.7105    5.0498 H   0  0  0  0  0  0  0  0  0  0  0  0
   13.4215    9.9090    3.4155 H   0  0  0  0  0  0  0  0  0  0  0  0
   15.1392    9.2173    5.8897 H   0  0  0  0  0  0  0  0  0  0  0  0
   14.8674   10.8337    5.2417 H   0  0  0  0  0  0  0  0  0  0  0  0
   16.3167    8.7283    4.1506 H   0  0  0  0  0  0  0  0  0  0  0  0
   12.3780    8.0802    2.1917 H   0  0  0  0  0  0  0  0  0  0  0  0
    7.4985    3.6320    2.0582 H   0  0  0  0  0  0  0  0  0  0  0  0
    4.2099    4.7398   -0.0737 H   0  0  0  0  0  0  0  0  0  0  0  0
  1  2  1  0  0  0  0
  1 34  1  0  0  0  0
  1 35  1  0  0  0  0
  1 36  1  0  0  0  0
  2  3  1  0  0  0  0
  3  4  1  0  0  0  0
  3 33  2  0  0  0  0
  4  5  2  0  0  0  0
  4 37  1  0  0  0  0
  5  6  1  0  0  0  0
  5  8  1  0  0  0  0
  6  7  1  0  0  0  0
  7 38  1  0  0  0  0
  7 39  1  0  0  0  0
  7 40  1  0  0  0  0
  8  9  2  0  0  0  0
  8 41  1  0  0  0  0
  9 10  1  0  0  0  0
  9 33  1  0  0  0  0
 10 11  1  0  0  0  0
 10 15  1  0  0  0  0
 11 12  1  0  0  0  0
 11 42  1  0  0  0  0
 11 43  1  0  0  0  0
 12 13  1  0  0  0  0
 12 44  1  0  0  0  0
 12 45  1  0  0  0  0
 13 14  1  0  0  0  0
 13 46  1  0  0  0  0
 13 47  1  0  0  0  0
 14 48  1  0  0  0  0
 14 49  1  0  0  0  0
 15 16  1  0  0  0  0
 15 32  2  0  0  0  0
 16 17  2  0  0  0  0
 16 50  1  0  0  0  0
 17 18  1  0  0  0  0
 17 51  1  0  0  0  0
 18 19  1  0  0  0  0
 18 31  2  0  0  0  0
 19 20  2  0  0  0  0
 20 21  1  0  0  0  0
 20 52  1  0  0  0  0
 21 22  1  0  0  0  0
 21 30  2  0  0  0  0
 22 23  1  0  0  0  0
 22 29  2  0  0  0  0
 23 24  2  0  0  0  0
 23 53  1  0  0  0  0
 24 25  1  0  0  0  0
 25 26  1  0  0  0  0
 25 29  1  0  0  0  0
 26 27  1  0  0  0  0
 26 54  1  0  0  0  0
 26 55  1  0  0  0  0
 27 28  1  0  0  0  0
 27 56  1  0  0  0  0
 27 57  1  0  0  0  0
 28 58  1  0  0  0  0
 29 59  1  0  0  0  0
 30 31  1  0  0  0  0
 31 32  1  0  0  0  0
 32 60  1  0  0  0  0
 33 61  1  0  0  0  0
M  END
$$$$
