CHEMBL1683650
 OpenBabel04072215363D

 53 55  0  0  1  0  0  0  0  0999 V2000
    5.4563    4.1245    4.9106 C   0  0  0  0  0  0  0  0  0  0  0  0
    4.0778    3.7810    4.3663 C   0  0  0  0  0  0  0  0  0  0  0  0
    4.1925    2.8578    3.1594 C   0  0  0  0  0  0  0  0  0  0  0  0
    2.8307    2.4807    2.5752 C   0  0  0  0  0  0  0  0  0  0  0  0
    3.0486    1.5855    1.3528 C   0  0  0  0  0  0  0  0  0  0  0  0
    1.7778    1.2093    0.6466 C   0  0  0  0  0  0  0  0  0  0  0  0
    1.0947    2.1509   -0.1303 C   0  0  0  0  0  0  0  0  0  0  0  0
   -0.1205    1.8174   -0.6998 C   0  0  0  0  0  0  0  0  0  0  0  0
   -0.7329    2.6995   -1.5448 O   0  0  0  0  0  0  0  0  0  0  0  0
   -0.6891    0.5678   -0.4835 C   0  0  0  0  0  0  0  0  0  0  0  0
    0.1306   -0.4365    0.0376 C   0  0  0  0  0  0  0  0  0  0  0  0
    1.3087   -0.1094    0.6944 C   0  0  0  0  0  0  0  0  0  0  0  0
   -0.1557   -1.7812   -0.1131 O   0  0  0  0  0  0  0  0  0  0  0  0
   -1.2863   -2.0494   -1.0001 C   0  0  0  0  0  0  0  0  0  0  0  0
   -0.8944   -1.7628   -2.4708 C   0  0  0  0  0  0  0  0  0  0  0  0
   -1.5754   -3.5493   -0.8952 C   0  0  0  0  0  0  0  0  0  0  0  0
   -2.4351   -1.1950   -0.4263 C   0  0  2  0  0  0  0  0  0  0  0  0
   -3.8904   -1.5037   -0.7823 C   0  0  0  0  0  0  0  0  0  0  0  0
   -4.7944   -0.5788    0.0056 C   0  0  0  0  0  0  0  0  0  0  0  0
   -4.3848    0.6040    0.5095 C   0  0  0  0  0  0  0  0  0  0  0  0
   -5.2142    1.4596    1.4301 C   0  0  0  0  0  0  0  0  0  0  0  0
   -6.4218    0.8929    1.7013 F   0  0  0  0  0  0  0  0  0  0  0  0
   -3.0004    1.1511    0.2415 C   0  0  0  0  0  0  0  0  0  0  0  0
   -2.1495    0.2874   -0.7149 C   0  0  1  0  0  0  0  0  0  0  0  0
    5.8952    3.2618    5.4225 H   0  0  0  0  0  0  0  0  0  0  0  0
    6.1376    4.4258    4.1078 H   0  0  0  0  0  0  0  0  0  0  0  0
    5.3890    4.9482    5.6269 H   0  0  0  0  0  0  0  0  0  0  0  0
    3.5620    4.7032    4.0763 H   0  0  0  0  0  0  0  0  0  0  0  0
    3.4823    3.3058    5.1541 H   0  0  0  0  0  0  0  0  0  0  0  0
    4.7342    1.9464    3.4410 H   0  0  0  0  0  0  0  0  0  0  0  0
    4.7857    3.3560    2.3819 H   0  0  0  0  0  0  0  0  0  0  0  0
    2.2261    1.9604    3.3297 H   0  0  0  0  0  0  0  0  0  0  0  0
    2.2798    3.3900    2.3023 H   0  0  0  0  0  0  0  0  0  0  0  0
    3.7012    2.0890    0.6298 H   0  0  0  0  0  0  0  0  0  0  0  0
    3.5777    0.6775    1.6644 H   0  0  0  0  0  0  0  0  0  0  0  0
    1.4946    3.1552   -0.2593 H   0  0  0  0  0  0  0  0  0  0  0  0
   -0.1665    2.7211   -2.3363 H   0  0  0  0  0  0  0  0  0  0  0  0
    1.8571   -0.8801    1.2264 H   0  0  0  0  0  0  0  0  0  0  0  0
   -0.1861   -0.9350   -2.5777 H   0  0  0  0  0  0  0  0  0  0  0  0
   -1.7718   -1.5500   -3.0884 H   0  0  0  0  0  0  0  0  0  0  0  0
   -0.3790   -2.6229   -2.9152 H   0  0  0  0  0  0  0  0  0  0  0  0
   -2.3672   -3.8614   -1.5791 H   0  0  0  0  0  0  0  0  0  0  0  0
   -0.6738   -4.1319   -1.1245 H   0  0  0  0  0  0  0  0  0  0  0  0
   -1.8607   -3.8241    0.1262 H   0  0  0  0  0  0  0  0  0  0  0  0
   -2.3725   -1.3406    0.6680 H   0  0  0  0  0  0  0  0  0  0  0  0
   -4.1321   -2.5352   -0.5023 H   0  0  0  0  0  0  0  0  0  0  0  0
   -4.0898   -1.3920   -1.8530 H   0  0  0  0  0  0  0  0  0  0  0  0
   -5.7945   -0.9431    0.2361 H   0  0  0  0  0  0  0  0  0  0  0  0
   -5.3967    2.4421    0.9854 H   0  0  0  0  0  0  0  0  0  0  0  0
   -4.6977    1.5999    2.3863 H   0  0  0  0  0  0  0  0  0  0  0  0
   -3.0822    2.1683   -0.1607 H   0  0  0  0  0  0  0  0  0  0  0  0
   -2.4887    1.2396    1.2110 H   0  0  0  0  0  0  0  0  0  0  0  0
   -2.4044    0.5229   -1.7579 H   0  0  0  0  0  0  0  0  0  0  0  0
  1  2  1  0  0  0  0
  1 25  1  0  0  0  0
  1 26  1  0  0  0  0
  1 27  1  0  0  0  0
  2  3  1  0  0  0  0
  2 28  1  0  0  0  0
  2 29  1  0  0  0  0
  3  4  1  0  0  0  0
  3 30  1  0  0  0  0
  3 31  1  0  0  0  0
  4  5  1  0  0  0  0
  4 32  1  0  0  0  0
  4 33  1  0  0  0  0
  5  6  1  0  0  0  0
  5 34  1  0  0  0  0
  5 35  1  0  0  0  0
  6  7  1  0  0  0  0
  6 12  2  0  0  0  0
  7  8  2  0  0  0  0
  7 36  1  0  0  0  0
  8  9  1  0  0  0  0
  8 10  1  0  0  0  0
  9 37  1  0  0  0  0
 10 11  2  0  0  0  0
 10 24  1  0  0  0  0
 11 12  1  0  0  0  0
 11 13  1  0  0  0  0
 12 38  1  0  0  0  0
 13 14  1  0  0  0  0
 14 15  1  0  0  0  0
 14 16  1  0  0  0  0
 14 17  1  0  0  0  0
 15 39  1  0  0  0  0
 15 40  1  0  0  0  0
 15 41  1  0  0  0  0
 16 42  1  0  0  0  0
 16 43  1  0  0  0  0
 16 44  1  0  0  0  0
 17 18  1  0  0  0  0
 17 24  1  0  0  0  0
 17 45  1  1  0  0  0
 18 19  1  0  0  0  0
 18 46  1  0  0  0  0
 18 47  1  0  0  0  0
 19 20  2  0  0  0  0
 19 48  1  0  0  0  0
 20 21  1  0  0  0  0
 20 23  1  0  0  0  0
 21 22  1  0  0  0  0
 21 49  1  0  0  0  0
 21 50  1  0  0  0  0
 23 24  1  0  0  0  0
 23 51  1  0  0  0  0
 23 52  1  0  0  0  0
 24 53  1  6  0  0  0
M  END
$$$$
