CHEMBL1975212
 OpenBabel04072215363D

 25 27  0  0  0  0  0  0  0  0999 V2000
    1.1652    0.2665    0.1683 N   0  0  0  0  0  0  0  0  0  0  0  0
    2.5431    0.1078    0.0961 C   0  0  0  0  0  0  0  0  0  0  0  0
    3.2390    1.2599    0.0911 N   0  0  0  0  0  0  0  0  0  0  0  0
    4.5754    1.2082    0.0639 C   0  0  0  0  0  0  0  0  0  0  0  0
    5.3375    0.1173    0.0504 N   0  0  0  0  0  0  0  0  0  0  0  0
    4.6155   -1.0144    0.0387 C   0  0  0  0  0  0  0  0  0  0  0  0
    5.4181   -2.5122    0.0276 S   0  0  0  0  0  0  0  0  0  0  0  0
    3.9450   -3.3637   -0.0124 C   0  0  0  0  0  0  0  0  0  0  0  0
    2.8320   -2.5369    0.0021 C   0  0  0  0  0  0  0  0  0  0  0  0
    1.4854   -3.1299   -0.0217 C   0  0  0  0  0  0  0  0  0  0  0  0
    1.2016   -4.3112    0.6855 C   0  0  0  0  0  0  0  0  0  0  0  0
   -0.0930   -4.8401    0.7114 C   0  0  0  0  0  0  0  0  0  0  0  0
   -1.1286   -4.1816    0.0553 C   0  0  0  0  0  0  0  0  0  0  0  0
   -0.8583   -3.0287   -0.6753 C   0  0  0  0  0  0  0  0  0  0  0  0
    0.4460   -2.5308   -0.7429 C   0  0  0  0  0  0  0  0  0  0  0  0
    3.2277   -1.1286    0.0454 C   0  0  0  0  0  0  0  0  0  0  0  0
    0.9406    1.2287    0.3970 H   0  0  0  0  0  0  0  0  0  0  0  0
    0.6969   -0.4331    0.7307 H   0  0  0  0  0  0  0  0  0  0  0  0
    5.0918    2.1616    0.0633 H   0  0  0  0  0  0  0  0  0  0  0  0
    3.9776   -4.4444   -0.0467 H   0  0  0  0  0  0  0  0  0  0  0  0
    1.9793   -4.8374    1.2342 H   0  0  0  0  0  0  0  0  0  0  0  0
   -0.2927   -5.7602    1.2548 H   0  0  0  0  0  0  0  0  0  0  0  0
   -2.1424   -4.5706    0.1058 H   0  0  0  0  0  0  0  0  0  0  0  0
   -1.6615   -2.5113   -1.1943 H   0  0  0  0  0  0  0  0  0  0  0  0
    0.6308   -1.6584   -1.3663 H   0  0  0  0  0  0  0  0  0  0  0  0
  1  2  1  0  0  0  0
  1 17  1  0  0  0  0
  1 18  1  0  0  0  0
  2  3  1  0  0  0  0
  2 16  2  0  0  0  0
  3  4  2  0  0  0  0
  4  5  1  0  0  0  0
  4 19  1  0  0  0  0
  5  6  2  0  0  0  0
  6  7  1  0  0  0  0
  6 16  1  0  0  0  0
  7  8  1  0  0  0  0
  8  9  2  0  0  0  0
  8 20  1  0  0  0  0
  9 10  1  0  0  0  0
  9 16  1  0  0  0  0
 10 11  1  0  0  0  0
 10 15  2  0  0  0  0
 11 12  2  0  0  0  0
 11 21  1  0  0  0  0
 12 13  1  0  0  0  0
 12 22  1  0  0  0  0
 13 14  2  0  0  0  0
 13 23  1  0  0  0  0
 14 15  1  0  0  0  0
 14 24  1  0  0  0  0
 15 25  1  0  0  0  0
M  END
$$$$
