CHEMBL429430
 OpenBabel04072215383D

 57 61  0  0  0  0  0  0  0  0999 V2000
   10.7850   -4.6766   -7.8101 C   0  0  0  0  0  0  0  0  0  0  0  0
    9.4685   -4.1775   -8.0586 O   0  0  0  0  0  0  0  0  0  0  0  0
    8.6275   -4.2059   -6.9769 C   0  0  0  0  0  0  0  0  0  0  0  0
    9.1074   -4.0169   -5.6684 C   0  0  0  0  0  0  0  0  0  0  0  0
    8.2955   -4.1137   -4.5464 C   0  0  0  0  0  0  0  0  0  0  0  0
    8.8748   -4.0020   -3.3383 N   0  0  0  0  0  0  0  0  0  0  0  0
    8.1091   -4.1733   -2.2425 C   0  0  0  0  0  0  0  0  0  0  0  0
    6.7567   -4.4218   -2.2919 C   0  0  0  0  0  0  0  0  0  0  0  0
    6.1484   -4.4951   -3.5423 C   0  0  0  0  0  0  0  0  0  0  0  0
    4.8229   -4.8650   -3.4873 O   0  0  0  0  0  0  0  0  0  0  0  0
    3.8712   -4.2547   -4.2635 C   0  0  0  0  0  0  0  0  0  0  0  0
    2.7610   -5.0452   -4.5461 C   0  0  0  0  0  0  0  0  0  0  0  0
    1.7196   -4.5522   -5.3357 C   0  0  0  0  0  0  0  0  0  0  0  0
    1.7470   -3.2470   -5.8448 C   0  0  0  0  0  0  0  0  0  0  0  0
    2.8913   -2.4687   -5.5670 C   0  0  0  0  0  0  0  0  0  0  0  0
    3.9311   -2.9571   -4.7628 C   0  0  0  0  0  0  0  0  0  0  0  0
    3.0931   -1.1954   -6.0454 O   0  0  0  0  0  0  0  0  0  0  0  0
    1.8826   -0.5637   -6.4516 C   0  0  0  0  0  0  0  0  0  0  0  0
    1.0542   -1.4683   -7.3489 C   0  0  0  0  0  0  0  0  0  0  0  0
    0.6628   -2.6844   -6.6204 N   0  0  0  0  0  0  0  0  0  0  0  0
   -0.6430   -3.1927   -6.5314 C   0  0  0  0  0  0  0  0  0  0  0  0
   -0.9358   -4.1434   -5.8077 O   0  0  0  0  0  0  0  0  0  0  0  0
   -1.6012   -2.5322   -7.2803 N   0  0  0  0  0  0  0  0  0  0  0  0
   -3.0007   -2.7551   -7.2244 C   0  0  0  0  0  0  0  0  0  0  0  0
   -3.6328   -3.5240   -6.2424 C   0  0  0  0  0  0  0  0  0  0  0  0
   -5.0055   -3.7716   -6.2863 C   0  0  0  0  0  0  0  0  0  0  0  0
   -5.7799   -3.2165   -7.2962 C   0  0  0  0  0  0  0  0  0  0  0  0
   -5.1796   -2.3954   -8.2505 C   0  0  0  0  0  0  0  0  0  0  0  0
   -3.7976   -2.1648   -8.2109 C   0  0  0  0  0  0  0  0  0  0  0  0
    6.9240   -4.3682   -4.7198 C   0  0  0  0  0  0  0  0  0  0  0  0
    6.4399   -4.5049   -6.0406 C   0  0  0  0  0  0  0  0  0  0  0  0
    7.2626   -4.4090   -7.1668 C   0  0  0  0  0  0  0  0  0  0  0  0
    6.5427   -4.5455   -8.3178 O   0  0  0  0  0  0  0  0  0  0  0  0
    7.2044   -4.7973   -9.5423 C   0  0  0  0  0  0  0  0  0  0  0  0
   11.1751   -5.0872   -8.7457 H   0  0  0  0  0  0  0  0  0  0  0  0
   10.8010   -5.4873   -7.0707 H   0  0  0  0  0  0  0  0  0  0  0  0
   11.4394   -3.8576   -7.4955 H   0  0  0  0  0  0  0  0  0  0  0  0
   10.1584   -3.8023   -5.4916 H   0  0  0  0  0  0  0  0  0  0  0  0
    8.6363   -4.1233   -1.2941 H   0  0  0  0  0  0  0  0  0  0  0  0
    6.1882   -4.5806   -1.3825 H   0  0  0  0  0  0  0  0  0  0  0  0
    2.7052   -6.0624   -4.1653 H   0  0  0  0  0  0  0  0  0  0  0  0
    0.9099   -5.2406   -5.5535 H   0  0  0  0  0  0  0  0  0  0  0  0
    4.7816   -2.3147   -4.5565 H   0  0  0  0  0  0  0  0  0  0  0  0
    2.1552    0.3458   -6.9969 H   0  0  0  0  0  0  0  0  0  0  0  0
    1.3207   -0.2612   -5.5599 H   0  0  0  0  0  0  0  0  0  0  0  0
    1.6374   -1.7951   -8.2202 H   0  0  0  0  0  0  0  0  0  0  0  0
    0.1949   -0.9026   -7.7100 H   0  0  0  0  0  0  0  0  0  0  0  0
   -1.2863   -2.0065   -8.0763 H   0  0  0  0  0  0  0  0  0  0  0  0
   -3.0796   -3.9813   -5.4233 H   0  0  0  0  0  0  0  0  0  0  0  0
   -5.4621   -4.4078   -5.5285 H   0  0  0  0  0  0  0  0  0  0  0  0
   -6.8509   -3.4134   -7.3391 H   0  0  0  0  0  0  0  0  0  0  0  0
   -5.7812   -1.9469   -9.0298 H   0  0  0  0  0  0  0  0  0  0  0  0
   -3.3590   -1.5250   -8.9723 H   0  0  0  0  0  0  0  0  0  0  0  0
    5.3904   -4.7118   -6.2267 H   0  0  0  0  0  0  0  0  0  0  0  0
    6.4631   -5.2455  -10.2134 H   0  0  0  0  0  0  0  0  0  0  0  0
    8.0165   -5.5209   -9.4436 H   0  0  0  0  0  0  0  0  0  0  0  0
    7.5388   -3.8605   -9.9965 H   0  0  0  0  0  0  0  0  0  0  0  0
  1  2  1  0  0  0  0
  1 35  1  0  0  0  0
  1 36  1  0  0  0  0
  1 37  1  0  0  0  0
  2  3  1  0  0  0  0
  3  4  1  0  0  0  0
  3 32  2  0  0  0  0
  4  5  2  0  0  0  0
  4 38  1  0  0  0  0
  5  6  1  0  0  0  0
  5 30  1  0  0  0  0
  6  7  2  0  0  0  0
  7  8  1  0  0  0  0
  7 39  1  0  0  0  0
  8  9  2  0  0  0  0
  8 40  1  0  0  0  0
  9 10  1  0  0  0  0
  9 30  1  0  0  0  0
 10 11  1  0  0  0  0
 11 12  1  0  0  0  0
 11 16  2  0  0  0  0
 12 13  2  0  0  0  0
 12 41  1  0  0  0  0
 13 14  1  0  0  0  0
 13 42  1  0  0  0  0
 14 15  2  0  0  0  0
 14 20  1  0  0  0  0
 15 16  1  0  0  0  0
 15 17  1  0  0  0  0
 16 43  1  0  0  0  0
 17 18  1  0  0  0  0
 18 19  1  0  0  0  0
 18 44  1  0  0  0  0
 18 45  1  0  0  0  0
 19 20  1  0  0  0  0
 19 46  1  0  0  0  0
 19 47  1  0  0  0  0
 20 21  1  0  0  0  0
 21 22  2  0  0  0  0
 21 23  1  0  0  0  0
 23 24  1  0  0  0  0
 23 48  1  0  0  0  0
 24 25  1  0  0  0  0
 24 29  2  0  0  0  0
 25 26  2  0  0  0  0
 25 49  1  0  0  0  0
 26 27  1  0  0  0  0
 26 50  1  0  0  0  0
 27 28  2  0  0  0  0
 27 51  1  0  0  0  0
 28 29  1  0  0  0  0
 28 52  1  0  0  0  0
 29 53  1  0  0  0  0
 30 31  2  0  0  0  0
 31 32  1  0  0  0  0
 31 54  1  0  0  0  0
 32 33  1  0  0  0  0
 33 34  1  0  0  0  0
 34 55  1  0  0  0  0
 34 56  1  0  0  0  0
 34 57  1  0  0  0  0
M  END
$$$$
