CHEMBL4580040
 OpenBabel04072215383D

 51 54  0  0  0  0  0  0  0  0999 V2000
    0.7615    0.6358    0.7907 C   0  0  0  0  0  0  0  0  0  0  0  0
    2.1494    0.9443    0.7110 O   0  0  0  0  0  0  0  0  0  0  0  0
    2.7676    1.2456    1.8988 C   0  0  0  0  0  0  0  0  0  0  0  0
    2.1448    1.3091    3.1423 C   0  0  0  0  0  0  0  0  0  0  0  0
    2.8866    1.6234    4.2790 C   0  0  0  0  0  0  0  0  0  0  0  0
    4.2552    1.8449    4.1768 C   0  0  0  0  0  0  0  0  0  0  0  0
    4.9074    1.7322    2.9490 C   0  0  0  0  0  0  0  0  0  0  0  0
    6.3104    1.8766    2.8229 N   0  0  0  0  0  0  0  0  0  0  0  0
    7.2007    1.6452    3.8573 C   0  0  0  0  0  0  0  0  0  0  0  0
    6.8804    1.1823    4.9522 O   0  0  0  0  0  0  0  0  0  0  0  0
    8.4956    1.9953    3.5152 N   0  0  0  0  0  0  0  0  0  0  0  0
    9.5184    1.8243    4.4664 C   0  0  0  0  0  0  0  0  0  0  0  0
    9.6350    0.6281    5.1893 C   0  0  0  0  0  0  0  0  0  0  0  0
   10.5259    0.5409    6.2546 C   0  0  0  0  0  0  0  0  0  0  0  0
   11.3022    1.6532    6.5991 C   0  0  0  0  0  0  0  0  0  0  0  0
   12.1535    1.5712    7.8051 C   0  0  0  0  0  0  0  0  0  0  0  0
   12.5703    0.4709    8.1566 O   0  0  0  0  0  0  0  0  0  0  0  0
   12.3556    2.7794    8.4970 N   0  0  0  0  0  0  0  0  0  0  0  0
   12.8010    2.7135    9.7947 N   0  0  0  0  0  0  0  0  0  0  0  0
   13.9361    2.1055    9.9548 C   0  0  0  0  0  0  0  0  0  0  0  0
   15.0993    1.9257    8.9681 C   0  0  0  0  0  0  0  0  0  0  0  0
   15.4166    2.6951    8.0860 O   0  0  0  0  0  0  0  0  0  0  0  0
   15.6871    0.7280    9.3226 N   0  0  0  0  0  0  0  0  0  0  0  0
   14.9420    0.1243   10.3357 C   0  0  0  0  0  0  0  0  0  0  0  0
   14.8126   -1.2251   10.5785 C   0  0  0  0  0  0  0  0  0  0  0  0
   13.8045   -1.6199   11.4748 C   0  0  0  0  0  0  0  0  0  0  0  0
   13.0226   -0.6699   12.1648 C   0  0  0  0  0  0  0  0  0  0  0  0
   11.7924   -1.1983   13.2450 Cl  0  0  0  0  0  0  0  0  0  0  0  0
   13.1506    0.6880   11.9056 C   0  0  0  0  0  0  0  0  0  0  0  0
   14.0745    1.0359   10.9403 C   0  0  0  0  0  0  0  0  0  0  0  0
   11.2511    2.8157    5.8230 C   0  0  0  0  0  0  0  0  0  0  0  0
   10.3724    2.8918    4.7411 C   0  0  0  0  0  0  0  0  0  0  0  0
    4.1440    1.4709    1.8054 C   0  0  0  0  0  0  0  0  0  0  0  0
    0.4200    0.3611   -0.2103 H   0  0  0  0  0  0  0  0  0  0  0  0
    0.1863    1.5106    1.1133 H   0  0  0  0  0  0  0  0  0  0  0  0
    0.5767   -0.2211    1.4492 H   0  0  0  0  0  0  0  0  0  0  0  0
    1.0851    1.1231    3.2685 H   0  0  0  0  0  0  0  0  0  0  0  0
    2.4042    1.6830    5.2506 H   0  0  0  0  0  0  0  0  0  0  0  0
    4.7973    2.0993    5.0835 H   0  0  0  0  0  0  0  0  0  0  0  0
    6.7000    1.8166    1.8929 H   0  0  0  0  0  0  0  0  0  0  0  0
    8.5342    2.8298    2.9406 H   0  0  0  0  0  0  0  0  0  0  0  0
    9.0004   -0.2243    4.9576 H   0  0  0  0  0  0  0  0  0  0  0  0
   10.5738   -0.3773    6.8397 H   0  0  0  0  0  0  0  0  0  0  0  0
   11.6439    3.4899    8.3559 H   0  0  0  0  0  0  0  0  0  0  0  0
   16.4462    0.3138    8.8059 H   0  0  0  0  0  0  0  0  0  0  0  0
   15.3318   -1.9639    9.9765 H   0  0  0  0  0  0  0  0  0  0  0  0
   13.5698   -2.6779   11.5803 H   0  0  0  0  0  0  0  0  0  0  0  0
   12.4751    1.4251   12.3207 H   0  0  0  0  0  0  0  0  0  0  0  0
   11.8802    3.6692    6.0593 H   0  0  0  0  0  0  0  0  0  0  0  0
   10.3069    3.8216    4.1842 H   0  0  0  0  0  0  0  0  0  0  0  0
    4.6194    1.3884    0.8299 H   0  0  0  0  0  0  0  0  0  0  0  0
  1  2  1  0  0  0  0
  1 34  1  0  0  0  0
  1 35  1  0  0  0  0
  1 36  1  0  0  0  0
  2  3  1  0  0  0  0
  3  4  1  0  0  0  0
  3 33  2  0  0  0  0
  4  5  2  0  0  0  0
  4 37  1  0  0  0  0
  5  6  1  0  0  0  0
  5 38  1  0  0  0  0
  6  7  2  0  0  0  0
  6 39  1  0  0  0  0
  7  8  1  0  0  0  0
  7 33  1  0  0  0  0
  8  9  1  0  0  0  0
  8 40  1  0  0  0  0
  9 10  2  0  0  0  0
  9 11  1  0  0  0  0
 11 12  1  0  0  0  0
 11 41  1  0  0  0  0
 12 13  1  0  0  0  0
 12 32  2  0  0  0  0
 13 14  2  0  0  0  0
 13 42  1  0  0  0  0
 14 15  1  0  0  0  0
 14 43  1  0  0  0  0
 15 16  1  0  0  0  0
 15 31  2  0  0  0  0
 16 17  2  0  0  0  0
 16 18  1  0  0  0  0
 18 19  1  0  0  0  0
 18 44  1  0  0  0  0
 19 20  2  0  0  0  0
 20 21  1  0  0  0  0
 20 30  1  0  0  0  0
 21 22  2  0  0  0  0
 21 23  1  0  0  0  0
 23 24  1  0  0  0  0
 23 45  1  0  0  0  0
 24 25  1  0  0  0  0
 24 30  2  0  0  0  0
 25 26  2  0  0  0  0
 25 46  1  0  0  0  0
 26 27  1  0  0  0  0
 26 47  1  0  0  0  0
 27 28  1  0  0  0  0
 27 29  2  0  0  0  0
 29 30  1  0  0  0  0
 29 48  1  0  0  0  0
 31 32  1  0  0  0  0
 31 49  1  0  0  0  0
 32 50  1  0  0  0  0
 33 51  1  0  0  0  0
M  END
$$$$
