CHEMBL3753353
 OpenBabel04072215373D

 53 57  0  0  0  0  0  0  0  0999 V2000
    4.9533   -1.1831    0.1479 O   0  0  0  0  0  0  0  0  0  0  0  0
    4.5103   -0.9759   -0.9820 C   0  0  0  0  0  0  0  0  0  0  0  0
    3.1555   -0.2891   -1.1205 C   0  0  0  0  0  0  0  0  0  0  0  0
    2.2293   -0.9896   -2.0320 N   0  0  0  0  0  0  0  0  0  0  0  0
    0.9057   -0.2799   -1.9957 C   0  0  0  0  0  0  0  0  0  0  0  0
    0.0106   -0.5523   -0.7459 C   0  0  0  0  0  0  0  0  0  0  0  0
   -0.1298   -2.0039   -0.6319 N   0  0  0  0  0  0  0  0  0  0  0  0
   -1.2965   -2.5281   -0.0908 C   0  0  0  0  0  0  0  0  0  0  0  0
   -2.0044   -1.7832    0.7817 N   0  0  0  0  0  0  0  0  0  0  0  0
   -3.1815   -2.2474    1.3214 N   0  0  0  0  0  0  0  0  0  0  0  0
   -3.6963   -3.4454    0.9549 C   0  0  0  0  0  0  0  0  0  0  0  0
   -4.9234   -3.8269    1.7086 C   0  0  0  0  0  0  0  0  0  0  0  0
   -5.8342   -2.8499    2.1580 C   0  0  0  0  0  0  0  0  0  0  0  0
   -6.9875   -3.1941    2.8752 C   0  0  0  0  0  0  0  0  0  0  0  0
   -7.2733   -4.5293    3.1414 C   0  0  0  0  0  0  0  0  0  0  0  0
   -6.3845   -5.5146    2.7330 C   0  0  0  0  0  0  0  0  0  0  0  0
   -5.2100   -5.1598    2.0634 C   0  0  0  0  0  0  0  0  0  0  0  0
   -3.0518   -4.2313   -0.0312 C   0  0  0  0  0  0  0  0  0  0  0  0
   -3.5787   -5.4357   -0.5835 C   0  0  0  0  0  0  0  0  0  0  0  0
   -2.8685   -6.2346   -1.4796 C   0  0  0  0  0  0  0  0  0  0  0  0
   -1.6377   -5.8114   -1.9309 C   0  0  0  0  0  0  0  0  0  0  0  0
   -1.1481   -4.5820   -1.5012 C   0  0  0  0  0  0  0  0  0  0  0  0
   -1.8066   -3.7772   -0.5309 C   0  0  0  0  0  0  0  0  0  0  0  0
    1.1537   -2.6704   -0.3955 C   0  0  0  0  0  0  0  0  0  0  0  0
    2.0213   -2.4175   -1.6571 C   0  0  0  0  0  0  0  0  0  0  0  0
    5.1238   -1.2908   -2.1775 N   0  0  0  0  0  0  0  0  0  0  0  0
    6.3757   -1.8495   -2.1838 C   0  0  0  0  0  0  0  0  0  0  0  0
    7.2027   -1.9662   -1.1801 N   0  0  0  0  0  0  0  0  0  0  0  0
    8.3416   -2.6214   -1.5866 C   0  0  0  0  0  0  0  0  0  0  0  0
    8.3654   -2.9885   -2.9146 C   0  0  0  0  0  0  0  0  0  0  0  0
    6.9167   -2.4596   -3.6819 S   0  0  0  0  0  0  0  0  0  0  0  0
    3.3561    0.7216   -1.4990 H   0  0  0  0  0  0  0  0  0  0  0  0
    2.7386   -0.1896   -0.1114 H   0  0  0  0  0  0  0  0  0  0  0  0
    0.3422   -0.6034   -2.8813 H   0  0  0  0  0  0  0  0  0  0  0  0
    1.0517    0.8009   -2.1139 H   0  0  0  0  0  0  0  0  0  0  0  0
   -0.9554   -0.0545   -0.8924 H   0  0  0  0  0  0  0  0  0  0  0  0
    0.4656   -0.1338    0.1614 H   0  0  0  0  0  0  0  0  0  0  0  0
   -5.6427   -1.7949    1.9637 H   0  0  0  0  0  0  0  0  0  0  0  0
   -7.6589   -2.4153    3.2277 H   0  0  0  0  0  0  0  0  0  0  0  0
   -8.1751   -4.8005    3.6835 H   0  0  0  0  0  0  0  0  0  0  0  0
   -6.5893   -6.5605    2.9464 H   0  0  0  0  0  0  0  0  0  0  0  0
   -4.5091   -5.9586    1.8329 H   0  0  0  0  0  0  0  0  0  0  0  0
   -4.5829   -5.7693   -0.3352 H   0  0  0  0  0  0  0  0  0  0  0  0
   -3.2905   -7.1707   -1.8343 H   0  0  0  0  0  0  0  0  0  0  0  0
   -1.0693   -6.4083   -2.6384 H   0  0  0  0  0  0  0  0  0  0  0  0
   -0.2222   -4.2463   -1.9548 H   0  0  0  0  0  0  0  0  0  0  0  0
    1.0571   -3.7479   -0.2271 H   0  0  0  0  0  0  0  0  0  0  0  0
    1.6438   -2.2637    0.4976 H   0  0  0  0  0  0  0  0  0  0  0  0
    1.5198   -2.8873   -2.5155 H   0  0  0  0  0  0  0  0  0  0  0  0
    2.9712   -2.9529   -1.5650 H   0  0  0  0  0  0  0  0  0  0  0  0
    4.5922   -1.2485   -3.0359 H   0  0  0  0  0  0  0  0  0  0  0  0
    9.1239   -2.8106   -0.8614 H   0  0  0  0  0  0  0  0  0  0  0  0
    9.1421   -3.5193   -3.4463 H   0  0  0  0  0  0  0  0  0  0  0  0
  1  2  2  0  0  0  0
  2  3  1  0  0  0  0
  2 26  1  0  0  0  0
  3  4  1  0  0  0  0
  3 32  1  0  0  0  0
  3 33  1  0  0  0  0
  4  5  1  0  0  0  0
  4 25  1  0  0  0  0
  5  6  1  0  0  0  0
  5 34  1  0  0  0  0
  5 35  1  0  0  0  0
  6  7  1  0  0  0  0
  6 36  1  0  0  0  0
  6 37  1  0  0  0  0
  7  8  1  0  0  0  0
  7 24  1  0  0  0  0
  8  9  1  0  0  0  0
  8 23  2  0  0  0  0
  9 10  2  0  0  0  0
 10 11  1  0  0  0  0
 11 12  1  0  0  0  0
 11 18  2  0  0  0  0
 12 13  1  0  0  0  0
 12 17  2  0  0  0  0
 13 14  2  0  0  0  0
 13 38  1  0  0  0  0
 14 15  1  0  0  0  0
 14 39  1  0  0  0  0
 15 16  2  0  0  0  0
 15 40  1  0  0  0  0
 16 17  1  0  0  0  0
 16 41  1  0  0  0  0
 17 42  1  0  0  0  0
 18 19  1  0  0  0  0
 18 23  1  0  0  0  0
 19 20  2  0  0  0  0
 19 43  1  0  0  0  0
 20 21  1  0  0  0  0
 20 44  1  0  0  0  0
 21 22  2  0  0  0  0
 21 45  1  0  0  0  0
 22 23  1  0  0  0  0
 22 46  1  0  0  0  0
 24 25  1  0  0  0  0
 24 47  1  0  0  0  0
 24 48  1  0  0  0  0
 25 49  1  0  0  0  0
 25 50  1  0  0  0  0
 26 27  1  0  0  0  0
 26 51  1  0  0  0  0
 27 28  2  0  0  0  0
 27 31  1  0  0  0  0
 28 29  1  0  0  0  0
 29 30  2  0  0  0  0
 29 52  1  0  0  0  0
 30 31  1  0  0  0  0
 30 53  1  0  0  0  0
M  END
$$$$
