CHEMBL3901963
 OpenBabel04072215373D

 70 74  0  0  0  0  0  0  0  0999 V2000
   -2.3147    0.9469    0.1598 C   0  0  0  0  0  0  0  0  0  0  0  0
   -0.9609    0.5865    0.6059 N   0  0  0  0  0  0  0  0  0  0  0  0
   -0.6451   -0.7819    0.1722 C   0  0  0  0  0  0  0  0  0  0  0  0
    0.8362   -1.1631    0.2395 C   0  0  0  0  0  0  0  0  0  0  0  0
    1.7910   -0.1121   -0.3538 C   0  0  0  0  0  0  0  0  0  0  0  0
    1.8418   -0.0784   -1.8869 C   0  0  0  0  0  0  0  0  0  0  0  0
    0.6631    0.2564   -2.5604 C   0  0  0  0  0  0  0  0  0  0  0  0
    0.5679    0.3633   -3.9358 C   0  0  0  0  0  0  0  0  0  0  0  0
    1.6485    0.1020   -4.7534 C   0  0  0  0  0  0  0  0  0  0  0  0
    1.5155    0.1142   -6.1646 N   0  0  0  0  0  0  0  0  0  0  0  0
    0.2863    0.0409   -6.8102 C   0  0  0  0  0  0  0  0  0  0  0  0
   -0.8005   -0.0521   -6.2404 O   0  0  0  0  0  0  0  0  0  0  0  0
    0.3745    0.0116   -8.1930 N   0  0  0  0  0  0  0  0  0  0  0  0
   -0.8342   -0.0758   -8.9400 C   0  0  0  0  0  0  0  0  0  0  0  0
   -1.9265    0.7582   -8.6425 C   0  0  0  0  0  0  0  0  0  0  0  0
   -3.1603    0.5751   -9.2728 C   0  0  0  0  0  0  0  0  0  0  0  0
   -3.3008   -0.3976  -10.2626 C   0  0  0  0  0  0  0  0  0  0  0  0
   -4.4824   -0.6282  -10.9405 O   0  0  0  0  0  0  0  0  0  0  0  0
   -5.2647    0.4450  -11.3223 C   0  0  0  0  0  0  0  0  0  0  0  0
   -4.7525    1.7079  -11.6069 C   0  0  0  0  0  0  0  0  0  0  0  0
   -5.6456    2.7084  -11.9121 C   0  0  0  0  0  0  0  0  0  0  0  0
   -6.9709    2.5127  -12.0138 N   0  0  0  0  0  0  0  0  0  0  0  0
   -7.4628    1.2766  -11.8212 C   0  0  0  0  0  0  0  0  0  0  0  0
   -8.8375    1.0514  -11.9984 N   0  0  0  0  0  0  0  0  0  0  0  0
   -9.7440    2.0442  -12.3205 C   0  0  0  0  0  0  0  0  0  0  0  0
   -9.5384    3.2416  -12.4342 O   0  0  0  0  0  0  0  0  0  0  0  0
  -11.1321    1.5306  -12.5645 C   0  0  0  0  0  0  0  0  0  0  0  0
  -11.7547    1.7359  -13.9284 C   0  0  0  0  0  0  0  0  0  0  0  0
  -12.2754    2.5065  -12.7525 C   0  0  0  0  0  0  0  0  0  0  0  0
   -6.6379    0.2124  -11.4684 C   0  0  0  0  0  0  0  0  0  0  0  0
   -2.2125   -1.2272  -10.5513 C   0  0  0  0  0  0  0  0  0  0  0  0
   -2.3452   -2.2304  -11.4282 F   0  0  0  0  0  0  0  0  0  0  0  0
   -0.9763   -1.0598   -9.9117 C   0  0  0  0  0  0  0  0  0  0  0  0
    2.8606   -0.2050   -4.1298 C   0  0  0  0  0  0  0  0  0  0  0  0
    2.9754   -0.3312   -2.6999 C   0  0  0  0  0  0  0  0  0  0  0  0
    4.3431   -0.7720   -2.2021 C   0  0  0  0  0  0  0  0  0  0  0  0
    4.4592   -1.0255   -0.8740 F   0  0  0  0  0  0  0  0  0  0  0  0
    4.7512   -1.9221   -2.8167 F   0  0  0  0  0  0  0  0  0  0  0  0
    5.3091    0.1484   -2.4858 F   0  0  0  0  0  0  0  0  0  0  0  0
    1.4613    1.2464    0.2909 C   0  0  0  0  0  0  0  0  0  0  0  0
   -0.0152    1.6393    0.2116 C   0  0  0  0  0  0  0  0  0  0  0  0
   -3.0527    0.2226    0.5199 H   0  0  0  0  0  0  0  0  0  0  0  0
   -2.3862    0.9837   -0.9357 H   0  0  0  0  0  0  0  0  0  0  0  0
   -2.6069    1.9284    0.5477 H   0  0  0  0  0  0  0  0  0  0  0  0
   -1.0235   -0.9926   -0.8346 H   0  0  0  0  0  0  0  0  0  0  0  0
   -1.1972   -1.4747    0.8209 H   0  0  0  0  0  0  0  0  0  0  0  0
    0.9888   -2.1367   -0.2423 H   0  0  0  0  0  0  0  0  0  0  0  0
    1.0946   -1.3002    1.2990 H   0  0  0  0  0  0  0  0  0  0  0  0
    2.7808   -0.3689    0.0195 H   0  0  0  0  0  0  0  0  0  0  0  0
   -0.2650    0.4528   -2.0463 H   0  0  0  0  0  0  0  0  0  0  0  0
   -0.4011    0.6696   -4.3127 H   0  0  0  0  0  0  0  0  0  0  0  0
    2.3564    0.0650   -6.7216 H   0  0  0  0  0  0  0  0  0  0  0  0
    1.1640   -0.5019   -8.5525 H   0  0  0  0  0  0  0  0  0  0  0  0
   -1.8372    1.5343   -7.8866 H   0  0  0  0  0  0  0  0  0  0  0  0
   -3.9953    1.2051   -8.9768 H   0  0  0  0  0  0  0  0  0  0  0  0
   -3.6937    1.9322  -11.5694 H   0  0  0  0  0  0  0  0  0  0  0  0
   -5.3176    3.7293  -12.0862 H   0  0  0  0  0  0  0  0  0  0  0  0
   -9.1709    0.1021  -11.9201 H   0  0  0  0  0  0  0  0  0  0  0  0
  -11.3856    0.6126  -12.0442 H   0  0  0  0  0  0  0  0  0  0  0  0
  -12.3794    0.9504  -14.3357 H   0  0  0  0  0  0  0  0  0  0  0  0
  -11.1895    2.2869  -14.6747 H   0  0  0  0  0  0  0  0  0  0  0  0
  -13.2494    2.2423  -12.3580 H   0  0  0  0  0  0  0  0  0  0  0  0
  -12.0614    3.5702  -12.7117 H   0  0  0  0  0  0  0  0  0  0  0  0
   -7.0356   -0.7823  -11.3019 H   0  0  0  0  0  0  0  0  0  0  0  0
   -0.1749   -1.7573  -10.1360 H   0  0  0  0  0  0  0  0  0  0  0  0
    3.7433   -0.3999   -4.7390 H   0  0  0  0  0  0  0  0  0  0  0  0
    2.0778    2.0384   -0.1517 H   0  0  0  0  0  0  0  0  0  0  0  0
    1.7366    1.1980    1.3535 H   0  0  0  0  0  0  0  0  0  0  0  0
   -0.2300    2.0323   -0.7885 H   0  0  0  0  0  0  0  0  0  0  0  0
   -0.1682    2.4984    0.8772 H   0  0  0  0  0  0  0  0  0  0  0  0
  1  2  1  0  0  0  0
  1 42  1  0  0  0  0
  1 43  1  0  0  0  0
  1 44  1  0  0  0  0
  2  3  1  0  0  0  0
  2 41  1  0  0  0  0
  3  4  1  0  0  0  0
  3 45  1  0  0  0  0
  3 46  1  0  0  0  0
  4  5  1  0  0  0  0
  4 47  1  0  0  0  0
  4 48  1  0  0  0  0
  5  6  1  0  0  0  0
  5 40  1  0  0  0  0
  5 49  1  0  0  0  0
  6  7  1  0  0  0  0
  6 35  2  0  0  0  0
  7  8  2  0  0  0  0
  7 50  1  0  0  0  0
  8  9  1  0  0  0  0
  8 51  1  0  0  0  0
  9 10  1  0  0  0  0
  9 34  2  0  0  0  0
 10 11  1  0  0  0  0
 10 52  1  0  0  0  0
 11 12  2  0  0  0  0
 11 13  1  0  0  0  0
 13 14  1  0  0  0  0
 13 53  1  0  0  0  0
 14 15  1  0  0  0  0
 14 33  2  0  0  0  0
 15 16  2  0  0  0  0
 15 54  1  0  0  0  0
 16 17  1  0  0  0  0
 16 55  1  0  0  0  0
 17 18  1  0  0  0  0
 17 31  2  0  0  0  0
 18 19  1  0  0  0  0
 19 20  1  0  0  0  0
 19 30  2  0  0  0  0
 20 21  2  0  0  0  0
 20 56  1  0  0  0  0
 21 22  1  0  0  0  0
 21 57  1  0  0  0  0
 22 23  2  0  0  0  0
 23 24  1  0  0  0  0
 23 30  1  0  0  0  0
 24 25  1  0  0  0  0
 24 58  1  0  0  0  0
 25 26  2  0  0  0  0
 25 27  1  0  0  0  0
 27 28  1  0  0  0  0
 27 29  1  0  0  0  0
 27 59  1  0  0  0  0
 28 29  1  0  0  0  0
 28 60  1  0  0  0  0
 28 61  1  0  0  0  0
 29 62  1  0  0  0  0
 29 63  1  0  0  0  0
 30 64  1  0  0  0  0
 31 32  1  0  0  0  0
 31 33  1  0  0  0  0
 33 65  1  0  0  0  0
 34 35  1  0  0  0  0
 34 66  1  0  0  0  0
 35 36  1  0  0  0  0
 36 37  1  0  0  0  0
 36 38  1  0  0  0  0
 36 39  1  0  0  0  0
 40 41  1  0  0  0  0
 40 67  1  0  0  0  0
 40 68  1  0  0  0  0
 41 69  1  0  0  0  0
 41 70  1  0  0  0  0
M  END
$$$$
