CHEMBL3986301
 OpenBabel04072215373D

 62 65  0  0  1  0  0  0  0  0999 V2000
    2.6154   10.1042    2.3370 C   0  0  0  0  0  0  0  0  0  0  0  0
    3.9694   10.0238    1.9109 O   0  0  0  0  0  0  0  0  0  0  0  0
    4.0627    9.6921    0.5249 C   0  0  0  0  0  0  0  0  0  0  0  0
    5.5361    9.5503    0.0877 C   0  0  0  0  0  0  0  0  0  0  0  0
    6.3529    8.5206    0.7852 N   0  0  0  0  0  0  0  0  0  0  0  0
    7.7367    8.5777    0.2772 C   0  0  0  0  0  0  0  0  0  0  0  0
    8.7363    7.9947    1.2662 C   0  0  0  0  0  0  0  0  0  0  0  0
    8.8591    6.4754    1.2684 C   0  0  0  0  0  0  0  0  0  0  0  0
    7.7360    5.7145    0.8597 O   0  0  0  0  0  0  0  0  0  0  0  0
    6.4614    6.0157    1.4247 C   0  0  3  0  0  0  0  0  0  0  0  0
    6.3907    6.2914    2.9326 C   0  0  0  0  0  0  0  0  0  0  0  0
    6.6415    5.1584    3.8001 O   0  0  0  0  0  0  0  0  0  0  0  0
    6.2094    5.3926    5.0984 C   0  0  0  0  0  0  0  0  0  0  0  0
    5.9854    6.7180    5.5613 C   0  0  0  0  0  0  0  0  0  0  0  0
    5.3587    7.0201    6.7516 C   0  0  0  0  0  0  0  0  0  0  0  0
    5.0707    8.3024    7.0337 N   0  0  0  0  0  0  0  0  0  0  0  0
    4.4068    8.5310    8.1663 C   0  0  0  0  0  0  0  0  0  0  0  0
    4.0542    7.6100    9.0676 N   0  0  0  0  0  0  0  0  0  0  0  0
    4.3870    6.3351    8.7918 C   0  0  0  0  0  0  0  0  0  0  0  0
    4.0991    5.3185    9.7421 N   0  0  0  0  0  0  0  0  0  0  0  0
    3.2637    5.4993   10.8619 C   0  0  0  0  0  0  0  0  0  0  0  0
    1.9928    6.0803   10.7150 C   0  0  0  0  0  0  0  0  0  0  0  0
    1.1949    6.3259   11.8267 C   0  0  0  0  0  0  0  0  0  0  0  0
    1.6517    5.9974   13.0997 C   0  0  0  0  0  0  0  0  0  0  0  0
    0.6344    6.3812   14.4433 Cl  0  0  0  0  0  0  0  0  0  0  0  0
    2.9017    5.3899   13.2552 C   0  0  0  0  0  0  0  0  0  0  0  0
    3.5332    4.9473   14.8032 Cl  0  0  0  0  0  0  0  0  0  0  0  0
    3.6991    5.1304   12.1357 C   0  0  0  0  0  0  0  0  0  0  0  0
    5.0278    5.9754    7.5959 C   0  0  0  0  0  0  0  0  0  0  0  0
    5.3085    4.6528    7.1971 C   0  0  0  0  0  0  0  0  0  0  0  0
    5.9019    4.3424    5.9668 C   0  0  0  0  0  0  0  0  0  0  0  0
    6.0070    2.9932    5.8414 O   0  0  0  0  0  0  0  0  0  0  0  0
    6.7931    2.3795    4.8420 C   0  0  0  0  0  0  0  0  0  0  0  0
    5.7741    7.1685    0.6375 C   0  0  0  0  0  0  0  0  0  0  0  0
    2.5992   10.3336    3.4058 H   0  0  0  0  0  0  0  0  0  0  0  0
    2.1079    9.1476    2.1786 H   0  0  0  0  0  0  0  0  0  0  0  0
    2.0906   10.9005    1.7999 H   0  0  0  0  0  0  0  0  0  0  0  0
    3.6009   10.4974   -0.0594 H   0  0  0  0  0  0  0  0  0  0  0  0
    3.5028    8.7740    0.3201 H   0  0  0  0  0  0  0  0  0  0  0  0
    6.0050   10.5278    0.2651 H   0  0  0  0  0  0  0  0  0  0  0  0
    5.5573    9.3700   -0.9948 H   0  0  0  0  0  0  0  0  0  0  0  0
    8.0270    9.6298    0.1469 H   0  0  0  0  0  0  0  0  0  0  0  0
    7.8300    8.1108   -0.7109 H   0  0  0  0  0  0  0  0  0  0  0  0
    8.5005    8.3541    2.2753 H   0  0  0  0  0  0  0  0  0  0  0  0
    9.7315    8.4134    1.0643 H   0  0  0  0  0  0  0  0  0  0  0  0
    9.1937    6.1221    2.2506 H   0  0  0  0  0  0  0  0  0  0  0  0
    9.6607    6.2062    0.5702 H   0  0  0  0  0  0  0  0  0  0  0  0
    5.8644    5.1138    1.2385 H   0  0  0  0  0  0  0  0  0  0  0  0
    5.3656    6.6376    3.1229 H   0  0  0  0  0  0  0  0  0  0  0  0
    7.1025    7.0758    3.1917 H   0  0  0  0  0  0  0  0  0  0  0  0
    6.2475    7.5868    4.9643 H   0  0  0  0  0  0  0  0  0  0  0  0
    4.1240    9.5592    8.3756 H   0  0  0  0  0  0  0  0  0  0  0  0
    4.9602    4.8263    9.9661 H   0  0  0  0  0  0  0  0  0  0  0  0
    1.6367    6.3485    9.7248 H   0  0  0  0  0  0  0  0  0  0  0  0
    0.2230    6.7928   11.6866 H   0  0  0  0  0  0  0  0  0  0  0  0
    4.6774    4.6738   12.2679 H   0  0  0  0  0  0  0  0  0  0  0  0
    5.0120    3.8234    7.8405 H   0  0  0  0  0  0  0  0  0  0  0  0
    7.1542    1.4343    5.2724 H   0  0  0  0  0  0  0  0  0  0  0  0
    7.6689    2.9557    4.5453 H   0  0  0  0  0  0  0  0  0  0  0  0
    6.1602    2.1206    3.9903 H   0  0  0  0  0  0  0  0  0  0  0  0
    4.7420    7.1942    1.0051 H   0  0  0  0  0  0  0  0  0  0  0  0
    5.7296    6.9036   -0.4258 H   0  0  0  0  0  0  0  0  0  0  0  0
  1  2  1  0  0  0  0
  1 35  1  0  0  0  0
  1 36  1  0  0  0  0
  1 37  1  0  0  0  0
  2  3  1  0  0  0  0
  3  4  1  0  0  0  0
  3 38  1  0  0  0  0
  3 39  1  0  0  0  0
  4  5  1  0  0  0  0
  4 40  1  0  0  0  0
  4 41  1  0  0  0  0
  5  6  1  0  0  0  0
  5 34  1  0  0  0  0
  6  7  1  0  0  0  0
  6 42  1  0  0  0  0
  6 43  1  0  0  0  0
  7  8  1  0  0  0  0
  7 44  1  0  0  0  0
  7 45  1  0  0  0  0
  8  9  1  0  0  0  0
  8 46  1  0  0  0  0
  8 47  1  0  0  0  0
  9 10  1  0  0  0  0
 10 11  1  0  0  0  0
 10 34  1  0  0  0  0
 10 48  1  0  0  0  0
 11 12  1  0  0  0  0
 11 49  1  0  0  0  0
 11 50  1  0  0  0  0
 12 13  1  0  0  0  0
 13 14  1  0  0  0  0
 13 31  2  0  0  0  0
 14 15  2  0  0  0  0
 14 51  1  0  0  0  0
 15 16  1  0  0  0  0
 15 29  1  0  0  0  0
 16 17  2  0  0  0  0
 17 18  1  0  0  0  0
 17 52  1  0  0  0  0
 18 19  2  0  0  0  0
 19 20  1  0  0  0  0
 19 29  1  0  0  0  0
 20 21  1  0  0  0  0
 20 53  1  0  0  0  0
 21 22  1  0  0  0  0
 21 28  2  0  0  0  0
 22 23  2  0  0  0  0
 22 54  1  0  0  0  0
 23 24  1  0  0  0  0
 23 55  1  0  0  0  0
 24 25  1  0  0  0  0
 24 26  2  0  0  0  0
 26 27  1  0  0  0  0
 26 28  1  0  0  0  0
 28 56  1  0  0  0  0
 29 30  2  0  0  0  0
 30 31  1  0  0  0  0
 30 57  1  0  0  0  0
 31 32  1  0  0  0  0
 32 33  1  0  0  0  0
 33 58  1  0  0  0  0
 33 59  1  0  0  0  0
 33 60  1  0  0  0  0
 34 61  1  0  0  0  0
 34 62  1  0  0  0  0
M  END
$$$$
