CHEMBL3690495
 OpenBabel04072215373D

 48 51  0  0  0  0  0  0  0  0999 V2000
    4.8381   -2.3530    0.2552 C   0  0  0  0  0  0  0  0  0  0  0  0
    4.2438   -0.9862    0.1575 C   0  0  0  0  0  0  0  0  0  0  0  0
    2.8744   -0.7876    0.1184 C   0  0  0  0  0  0  0  0  0  0  0  0
    2.3025    0.4320    0.0153 N   0  0  0  0  0  0  0  0  0  0  0  0
    3.1000    1.5367   -0.0482 N   0  0  0  0  0  0  0  0  0  0  0  0
    4.4362    1.3918   -0.0025 C   0  0  0  0  0  0  0  0  0  0  0  0
    5.2453    2.6071   -0.0273 C   0  0  0  0  0  0  0  0  0  0  0  0
    5.6549    3.3022   -1.2622 C   0  0  0  0  0  0  0  0  0  0  0  0
    6.2129    4.5307   -1.1757 C   0  0  0  0  0  0  0  0  0  0  0  0
    6.5886    4.9976    0.1054 N   0  0  0  0  0  0  0  0  0  0  0  0
    7.5420    5.9554    0.4928 C   0  0  0  0  0  0  0  0  0  0  0  0
    7.3556    6.9815    1.5787 C   0  0  0  0  0  0  0  0  0  0  0  0
    8.5083    7.4048    2.2746 C   0  0  0  0  0  0  0  0  0  0  0  0
    8.4262    8.1957    3.4128 C   0  0  0  0  0  0  0  0  0  0  0  0
    7.1838    8.6032    3.8732 C   0  0  0  0  0  0  0  0  0  0  0  0
    6.0121    8.2436    3.1974 C   0  0  0  0  0  0  0  0  0  0  0  0
    4.7439    8.6584    3.6795 N   0  0  0  0  0  0  0  0  0  0  0  0
    4.5447    9.7274    4.5253 C   0  0  0  0  0  0  0  0  0  0  0  0
    5.4040   10.5352    4.8966 O   0  0  0  0  0  0  0  0  0  0  0  0
    3.2637    9.8353    4.9985 N   0  0  0  0  0  0  0  0  0  0  0  0
    2.9612   10.9690    5.8882 C   0  0  0  0  0  0  0  0  0  0  0  0
    2.7764   12.3313    5.2012 C   0  0  0  0  0  0  0  0  0  0  0  0
    2.7786   12.2269    3.8520 F   0  0  0  0  0  0  0  0  0  0  0  0
    1.5756   12.8611    5.5481 F   0  0  0  0  0  0  0  0  0  0  0  0
    3.7236   13.2227    5.5582 F   0  0  0  0  0  0  0  0  0  0  0  0
    6.1003    7.4122    2.0573 C   0  0  0  0  0  0  0  0  0  0  0  0
    8.5563    4.9895    0.6278 C   0  0  0  0  0  0  0  0  0  0  0  0
    8.0288    3.9340    1.3219 N   0  0  0  0  0  0  0  0  0  0  0  0
    6.7098    4.0413    1.1164 C   0  0  0  0  0  0  0  0  0  0  0  0
    5.7033    3.0488    1.1655 C   0  0  0  0  0  0  0  0  0  0  0  0
    5.0494    0.1474    0.0992 C   0  0  0  0  0  0  0  0  0  0  0  0
    4.0600   -3.1241    0.2389 H   0  0  0  0  0  0  0  0  0  0  0  0
    5.4021   -2.4644    1.1875 H   0  0  0  0  0  0  0  0  0  0  0  0
    5.5031   -2.5361   -0.5937 H   0  0  0  0  0  0  0  0  0  0  0  0
    2.1686   -1.6176    0.1643 H   0  0  0  0  0  0  0  0  0  0  0  0
    5.5383    2.7840   -2.2116 H   0  0  0  0  0  0  0  0  0  0  0  0
    6.5656    5.0879   -2.0313 H   0  0  0  0  0  0  0  0  0  0  0  0
    9.4981    7.0668    1.9765 H   0  0  0  0  0  0  0  0  0  0  0  0
    9.3224    8.4702    3.9630 H   0  0  0  0  0  0  0  0  0  0  0  0
    7.1643    9.1819    4.7917 H   0  0  0  0  0  0  0  0  0  0  0  0
    3.9295    8.2140    3.2897 H   0  0  0  0  0  0  0  0  0  0  0  0
    2.5230    9.5019    4.4014 H   0  0  0  0  0  0  0  0  0  0  0  0
    3.7688   11.0537    6.6256 H   0  0  0  0  0  0  0  0  0  0  0  0
    2.0552   10.7013    6.4407 H   0  0  0  0  0  0  0  0  0  0  0  0
    5.1931    7.0949    1.5521 H   0  0  0  0  0  0  0  0  0  0  0  0
    9.6293    5.1281    0.5577 H   0  0  0  0  0  0  0  0  0  0  0  0
    5.4263    2.6262    2.1222 H   0  0  0  0  0  0  0  0  0  0  0  0
    6.1300    0.0649    0.1319 H   0  0  0  0  0  0  0  0  0  0  0  0
  1  2  1  0  0  0  0
  1 32  1  0  0  0  0
  1 33  1  0  0  0  0
  1 34  1  0  0  0  0
  2  3  1  0  0  0  0
  2 31  2  0  0  0  0
  3  4  2  0  0  0  0
  3 35  1  0  0  0  0
  4  5  1  0  0  0  0
  5  6  2  0  0  0  0
  6  7  1  0  0  0  0
  6 31  1  0  0  0  0
  7  8  1  0  0  0  0
  7 30  2  0  0  0  0
  8  9  2  0  0  0  0
  8 36  1  0  0  0  0
  9 10  1  0  0  0  0
  9 37  1  0  0  0  0
 10 11  1  0  0  0  0
 10 29  1  0  0  0  0
 11 12  1  0  0  0  0
 11 27  2  0  0  0  0
 12 13  1  0  0  0  0
 12 26  2  0  0  0  0
 13 14  2  0  0  0  0
 13 38  1  0  0  0  0
 14 15  1  0  0  0  0
 14 39  1  0  0  0  0
 15 16  2  0  0  0  0
 15 40  1  0  0  0  0
 16 17  1  0  0  0  0
 16 26  1  0  0  0  0
 17 18  1  0  0  0  0
 17 41  1  0  0  0  0
 18 19  2  0  0  0  0
 18 20  1  0  0  0  0
 20 21  1  0  0  0  0
 20 42  1  0  0  0  0
 21 22  1  0  0  0  0
 21 43  1  0  0  0  0
 21 44  1  0  0  0  0
 22 23  1  0  0  0  0
 22 24  1  0  0  0  0
 22 25  1  0  0  0  0
 26 45  1  0  0  0  0
 27 28  1  0  0  0  0
 27 46  1  0  0  0  0
 28 29  2  0  0  0  0
 29 30  1  0  0  0  0
 30 47  1  0  0  0  0
 31 48  1  0  0  0  0
M  END
$$$$
