CHEMBL370586
 OpenBabel04072215373D

 54 57  0  0  0  0  0  0  0  0999 V2000
    1.9266    1.2824    0.8591 C   0  0  0  0  0  0  0  0  0  0  0  0
    1.3097   -0.0718    0.4287 C   0  0  0  0  0  0  0  0  0  0  0  0
   -0.1644   -0.0995    0.8803 C   0  0  0  0  0  0  0  0  0  0  0  0
    1.3528   -0.0993   -1.1143 C   0  0  0  0  0  0  0  0  0  0  0  0
    2.0249   -1.2704    1.0724 C   0  0  0  0  0  0  0  0  0  0  0  0
    2.6448   -1.1437    2.3228 C   0  0  0  0  0  0  0  0  0  0  0  0
    3.2199   -2.2364    2.9767 C   0  0  0  0  0  0  0  0  0  0  0  0
    3.2283   -3.5089    2.4135 C   0  0  0  0  0  0  0  0  0  0  0  0
    3.7029   -4.6675    3.0753 N   0  0  0  0  0  0  0  0  0  0  0  0
    4.2971   -4.8113    4.3604 C   0  0  0  0  0  0  0  0  0  0  0  0
    4.4873   -3.7365    5.1426 N   0  0  0  0  0  0  0  0  0  0  0  0
    5.0613   -3.8273    6.3830 N   0  0  0  0  0  0  0  0  0  0  0  0
    5.4393   -5.0214    6.8834 C   0  0  0  0  0  0  0  0  0  0  0  0
    6.1093   -4.9022    8.2063 C   0  0  0  0  0  0  0  0  0  0  0  0
    5.6907   -3.9321    9.1396 C   0  0  0  0  0  0  0  0  0  0  0  0
    6.3381   -3.7666   10.3728 C   0  0  0  0  0  0  0  0  0  0  0  0
    7.4080   -4.5943   10.7180 C   0  0  0  0  0  0  0  0  0  0  0  0
    8.0940   -4.3770   12.0169 C   0  0  0  0  0  0  0  0  0  0  0  0
    8.7223   -5.4505   12.5834 N   0  0  0  0  0  0  0  0  0  0  0  0
    8.0821   -3.2867   12.5775 O   0  0  0  0  0  0  0  0  0  0  0  0
    7.8524   -5.5538    9.8093 C   0  0  0  0  0  0  0  0  0  0  0  0
    7.2304   -5.6773    8.5585 C   0  0  0  0  0  0  0  0  0  0  0  0
    5.2122   -6.2077    6.1477 C   0  0  0  0  0  0  0  0  0  0  0  0
    5.5171   -7.5108    6.6217 C   0  0  0  0  0  0  0  0  0  0  0  0
    5.3373   -8.6536    5.8443 C   0  0  0  0  0  0  0  0  0  0  0  0
    4.7698   -8.5412    4.5892 C   0  0  0  0  0  0  0  0  0  0  0  0
    4.3960   -7.2860    4.1137 C   0  0  0  0  0  0  0  0  0  0  0  0
    4.6256   -6.0962    4.8552 C   0  0  0  0  0  0  0  0  0  0  0  0
    2.6042   -3.6509    1.1653 C   0  0  0  0  0  0  0  0  0  0  0  0
    2.0150   -2.5561    0.5064 C   0  0  0  0  0  0  0  0  0  0  0  0
    1.4485    2.1221    0.3370 H   0  0  0  0  0  0  0  0  0  0  0  0
    2.9988    1.3172    0.6339 H   0  0  0  0  0  0  0  0  0  0  0  0
    1.7979    1.4781    1.9276 H   0  0  0  0  0  0  0  0  0  0  0  0
   -0.7264    0.7388    0.4521 H   0  0  0  0  0  0  0  0  0  0  0  0
   -0.2503   -0.0322    1.9713 H   0  0  0  0  0  0  0  0  0  0  0  0
   -0.6619   -1.0259    0.5692 H   0  0  0  0  0  0  0  0  0  0  0  0
    0.8396    0.7737   -1.5342 H   0  0  0  0  0  0  0  0  0  0  0  0
    0.8557   -0.9805   -1.5318 H   0  0  0  0  0  0  0  0  0  0  0  0
    2.3850   -0.0856   -1.4819 H   0  0  0  0  0  0  0  0  0  0  0  0
    2.6796   -0.1936    2.8496 H   0  0  0  0  0  0  0  0  0  0  0  0
    3.6616   -2.0357    3.9461 H   0  0  0  0  0  0  0  0  0  0  0  0
    4.1323   -5.2959    2.4068 H   0  0  0  0  0  0  0  0  0  0  0  0
    4.8621   -3.2647    8.9006 H   0  0  0  0  0  0  0  0  0  0  0  0
    6.0082   -2.9851   11.0530 H   0  0  0  0  0  0  0  0  0  0  0  0
    8.5601   -6.4012   12.2833 H   0  0  0  0  0  0  0  0  0  0  0  0
    9.1125   -5.3059   13.5063 H   0  0  0  0  0  0  0  0  0  0  0  0
    8.7100   -6.1817   10.0278 H   0  0  0  0  0  0  0  0  0  0  0  0
    7.6656   -6.3742    7.8470 H   0  0  0  0  0  0  0  0  0  0  0  0
    5.8979   -7.6660    7.6275 H   0  0  0  0  0  0  0  0  0  0  0  0
    5.6279   -9.6266    6.2315 H   0  0  0  0  0  0  0  0  0  0  0  0
    4.5998   -9.4292    3.9848 H   0  0  0  0  0  0  0  0  0  0  0  0
    3.9035   -7.2528    3.1438 H   0  0  0  0  0  0  0  0  0  0  0  0
    2.5370   -4.6306    0.6962 H   0  0  0  0  0  0  0  0  0  0  0  0
    1.5202   -2.7437   -0.4414 H   0  0  0  0  0  0  0  0  0  0  0  0
  1  2  1  0  0  0  0
  1 31  1  0  0  0  0
  1 32  1  0  0  0  0
  1 33  1  0  0  0  0
  2  3  1  0  0  0  0
  2  4  1  0  0  0  0
  2  5  1  0  0  0  0
  3 34  1  0  0  0  0
  3 35  1  0  0  0  0
  3 36  1  0  0  0  0
  4 37  1  0  0  0  0
  4 38  1  0  0  0  0
  4 39  1  0  0  0  0
  5  6  1  0  0  0  0
  5 30  2  0  0  0  0
  6  7  2  0  0  0  0
  6 40  1  0  0  0  0
  7  8  1  0  0  0  0
  7 41  1  0  0  0  0
  8  9  1  0  0  0  0
  8 29  2  0  0  0  0
  9 10  1  0  0  0  0
  9 42  1  0  0  0  0
 10 11  1  0  0  0  0
 10 28  2  0  0  0  0
 11 12  2  0  0  0  0
 12 13  1  0  0  0  0
 13 14  1  0  0  0  0
 13 23  2  0  0  0  0
 14 15  1  0  0  0  0
 14 22  2  0  0  0  0
 15 16  2  0  0  0  0
 15 43  1  0  0  0  0
 16 17  1  0  0  0  0
 16 44  1  0  0  0  0
 17 18  1  0  0  0  0
 17 21  2  0  0  0  0
 18 19  1  0  0  0  0
 18 20  2  0  0  0  0
 19 45  1  0  0  0  0
 19 46  1  0  0  0  0
 21 22  1  0  0  0  0
 21 47  1  0  0  0  0
 22 48  1  0  0  0  0
 23 24  1  0  0  0  0
 23 28  1  0  0  0  0
 24 25  2  0  0  0  0
 24 49  1  0  0  0  0
 25 26  1  0  0  0  0
 25 50  1  0  0  0  0
 26 27  2  0  0  0  0
 26 51  1  0  0  0  0
 27 28  1  0  0  0  0
 27 52  1  0  0  0  0
 29 30  1  0  0  0  0
 29 53  1  0  0  0  0
 30 54  1  0  0  0  0
M  END
$$$$
