CHEMBL3985116
 OpenBabel04072215373D

 66 71  0  0  1  0  0  0  0  0999 V2000
   -2.9428    4.4490    2.9388 C   0  0  0  0  0  0  0  0  0  0  0  0
   -1.8261    3.7587    2.3848 O   0  0  0  0  0  0  0  0  0  0  0  0
   -0.5916    4.3363    2.5338 C   0  0  0  0  0  0  0  0  0  0  0  0
   -0.3526    5.4997    3.2609 C   0  0  0  0  0  0  0  0  0  0  0  0
    0.9385    6.0542    3.4215 C   0  0  0  0  0  0  0  0  0  0  0  0
    1.2432    7.2251    4.1635 C   0  0  0  0  0  0  0  0  0  0  0  0
    0.1885    7.9270    4.8041 N   0  0  0  0  0  0  0  0  0  0  0  0
    0.0760    9.2429    5.3436 C   0  0  0  0  0  0  0  0  0  0  0  0
    1.2114   10.0591    5.4781 C   0  0  0  0  0  0  0  0  0  0  0  0
    1.1376   11.3401    6.0156 C   0  0  0  0  0  0  0  0  0  0  0  0
   -0.0880   11.8578    6.4083 C   0  0  0  0  0  0  0  0  0  0  0  0
   -0.0801   13.4577    7.0729 Cl  0  0  0  0  0  0  0  0  0  0  0  0
   -1.2615   11.1044    6.2315 C   0  0  0  0  0  0  0  0  0  0  0  0
   -2.7929   11.8869    6.5584 Cl  0  0  0  0  0  0  0  0  0  0  0  0
   -1.2196    9.7770    5.6905 C   0  0  0  0  0  0  0  0  0  0  0  0
   -2.4242    9.1014    5.4166 N   0  0  0  0  0  0  0  0  0  0  0  0
   -2.5386    8.1914    4.2752 C   0  0  0  0  0  0  0  0  0  0  0  0
   -3.9837    8.1042    3.7631 C   0  0  0  0  0  0  0  0  0  0  0  0
   -4.8982    7.6594    4.8359 N   0  0  0  0  0  0  0  0  0  0  0  0
   -6.2634    7.5915    4.3221 C   0  0  0  0  0  0  0  0  0  0  0  0
   -4.7883    8.6100    5.9729 C   0  0  0  0  0  0  0  0  0  0  0  0
   -3.3326    8.7184    6.5205 C   0  0  0  0  0  0  0  0  0  0  0  0
    2.4995    7.7000    4.2122 N   0  0  0  0  0  0  0  0  0  0  0  0
    3.4372    7.0141    3.5561 C   0  0  0  0  0  0  0  0  0  0  0  0
    3.2571    5.8895    2.8545 N   0  0  0  0  0  0  0  0  0  0  0  0
    2.0099    5.4215    2.7898 C   0  0  0  0  0  0  0  0  0  0  0  0
    1.7743    4.2607    2.0575 C   0  0  0  0  0  0  0  0  0  0  0  0
    0.4966    3.6954    1.9447 C   0  0  0  0  0  0  0  0  0  0  0  0
    0.2293    2.5338    1.2668 O   0  0  0  0  0  0  0  0  0  0  0  0
    1.2639    1.5473    1.2250 C   0  0  1  0  0  0  0  0  0  0  0  0
    1.6624    1.0343    2.6120 C   0  0  0  0  0  0  0  0  0  0  0  0
    1.5670   -0.3978    2.6288 O   0  0  0  0  0  0  0  0  0  0  0  0
    1.3631   -0.8423    1.2882 C   0  0  2  0  0  0  0  0  0  0  0  0
    2.6639   -1.0718    0.5472 C   0  0  1  0  0  0  0  0  0  0  0  0
    3.0324   -2.3734    0.6203 F   0  0  0  0  0  0  0  0  0  0  0  0
    2.3137   -0.6917   -0.8750 C   0  0  0  0  0  0  0  0  0  0  0  0
    1.1944    0.2108   -0.8331 O   0  0  0  0  0  0  0  0  0  0  0  0
    0.7336    0.2976    0.5256 C   0  0  2  0  0  0  0  0  0  0  0  0
   -3.8543    3.8982    2.6891 H   0  0  0  0  0  0  0  0  0  0  0  0
   -3.0334    5.4469    2.5009 H   0  0  0  0  0  0  0  0  0  0  0  0
   -2.8720    4.5014    4.0311 H   0  0  0  0  0  0  0  0  0  0  0  0
   -1.1847    6.0034    3.7085 H   0  0  0  0  0  0  0  0  0  0  0  0
   -0.3735    7.2984    5.3699 H   0  0  0  0  0  0  0  0  0  0  0  0
    2.1955    9.7092    5.1868 H   0  0  0  0  0  0  0  0  0  0  0  0
    2.0473   11.9279    6.1126 H   0  0  0  0  0  0  0  0  0  0  0  0
   -2.2907    7.1933    4.6429 H   0  0  0  0  0  0  0  0  0  0  0  0
   -1.8906    8.4719    3.4429 H   0  0  0  0  0  0  0  0  0  0  0  0
   -4.0114    7.3789    2.9427 H   0  0  0  0  0  0  0  0  0  0  0  0
   -4.2856    9.0758    3.3552 H   0  0  0  0  0  0  0  0  0  0  0  0
   -6.3284    6.8337    3.5318 H   0  0  0  0  0  0  0  0  0  0  0  0
   -6.5992    8.5481    3.9074 H   0  0  0  0  0  0  0  0  0  0  0  0
   -6.9594    7.2864    5.1094 H   0  0  0  0  0  0  0  0  0  0  0  0
   -5.4426    8.2818    6.7882 H   0  0  0  0  0  0  0  0  0  0  0  0
   -5.1231    9.6068    5.6558 H   0  0  0  0  0  0  0  0  0  0  0  0
   -3.0195    7.7451    6.9215 H   0  0  0  0  0  0  0  0  0  0  0  0
   -3.3140    9.4157    7.3617 H   0  0  0  0  0  0  0  0  0  0  0  0
    4.4460    7.4073    3.5942 H   0  0  0  0  0  0  0  0  0  0  0  0
    2.6271    3.8107    1.5599 H   0  0  0  0  0  0  0  0  0  0  0  0
    2.1217    1.9410    0.6674 H   0  0  0  0  0  0  0  0  0  0  0  0
    1.0509    1.4319    3.4268 H   0  0  0  0  0  0  0  0  0  0  0  0
    2.7081    1.2895    2.8171 H   0  0  0  0  0  0  0  0  0  0  0  0
    0.7469   -1.7473    1.2893 H   0  0  0  0  0  0  0  0  0  0  0  0
    3.4837   -0.4631    0.9437 H   0  0  0  0  0  0  0  0  0  0  0  0
    2.0321   -1.5672   -1.4683 H   0  0  0  0  0  0  0  0  0  0  0  0
    3.1488   -0.1935   -1.3763 H   0  0  0  0  0  0  0  0  0  0  0  0
   -0.3613    0.2598    0.5357 H   0  0  0  0  0  0  0  0  0  0  0  0
  1  2  1  0  0  0  0
  1 39  1  0  0  0  0
  1 40  1  0  0  0  0
  1 41  1  0  0  0  0
  2  3  1  0  0  0  0
  3  4  1  0  0  0  0
  3 28  2  0  0  0  0
  4  5  2  0  0  0  0
  4 42  1  0  0  0  0
  5  6  1  0  0  0  0
  5 26  1  0  0  0  0
  6  7  1  0  0  0  0
  6 23  2  0  0  0  0
  7  8  1  0  0  0  0
  7 43  1  0  0  0  0
  8  9  1  0  0  0  0
  8 15  2  0  0  0  0
  9 10  2  0  0  0  0
  9 44  1  0  0  0  0
 10 11  1  0  0  0  0
 10 45  1  0  0  0  0
 11 12  1  0  0  0  0
 11 13  2  0  0  0  0
 13 14  1  0  0  0  0
 13 15  1  0  0  0  0
 15 16  1  0  0  0  0
 16 17  1  0  0  0  0
 16 22  1  0  0  0  0
 17 18  1  0  0  0  0
 17 46  1  0  0  0  0
 17 47  1  0  0  0  0
 18 19  1  0  0  0  0
 18 48  1  0  0  0  0
 18 49  1  0  0  0  0
 19 20  1  0  0  0  0
 19 21  1  0  0  0  0
 20 50  1  0  0  0  0
 20 51  1  0  0  0  0
 20 52  1  0  0  0  0
 21 22  1  0  0  0  0
 21 53  1  0  0  0  0
 21 54  1  0  0  0  0
 22 55  1  0  0  0  0
 22 56  1  0  0  0  0
 23 24  1  0  0  0  0
 24 25  2  0  0  0  0
 24 57  1  0  0  0  0
 25 26  1  0  0  0  0
 26 27  2  0  0  0  0
 27 28  1  0  0  0  0
 27 58  1  0  0  0  0
 28 29  1  0  0  0  0
 30 31  1  0  0  0  0
 30 38  1  0  0  0  0
 30 29  1  0  0  0  0
 30 59  1  6  0  0  0
 31 32  1  0  0  0  0
 31 60  1  0  0  0  0
 31 61  1  0  0  0  0
 32 33  1  0  0  0  0
 33 34  1  0  0  0  0
 33 38  1  0  0  0  0
 33 62  1  6  0  0  0
 34 35  1  0  0  0  0
 34 36  1  0  0  0  0
 34 63  1  1  0  0  0
 36 37  1  0  0  0  0
 36 64  1  0  0  0  0
 36 65  1  0  0  0  0
 37 38  1  0  0  0  0
 38 66  1  1  0  0  0
M  END
$$$$
