CHEMBL398460
 OpenBabel04072215373D

 37 40  0  0  0  0  0  0  0  0999 V2000
    0.9767   -0.2318   -0.2906 C   0  0  0  0  0  0  0  0  0  0  0  0
    2.3448    0.0098    0.0193 O   0  0  0  0  0  0  0  0  0  0  0  0
    3.0475   -1.0284    0.5821 C   0  0  0  0  0  0  0  0  0  0  0  0
    2.7044   -2.3619    0.3899 C   0  0  0  0  0  0  0  0  0  0  0  0
    3.4641   -3.3872    0.9511 C   0  0  0  0  0  0  0  0  0  0  0  0
    4.6013   -3.0516    1.6987 C   0  0  0  0  0  0  0  0  0  0  0  0
    5.0051   -1.7220    1.9233 C   0  0  0  0  0  0  0  0  0  0  0  0
    6.2039   -1.8012    2.7379 C   0  0  0  0  0  0  0  0  0  0  0  0
    7.0209   -0.7295    3.2326 C   0  0  0  0  0  0  0  0  0  0  0  0
    7.7520   -0.6411    4.3580 C   0  0  0  0  0  0  0  0  0  0  0  0
    7.9290   -1.5926    5.4858 C   0  0  0  0  0  0  0  0  0  0  0  0
    7.6604   -2.7721    5.5738 O   0  0  0  0  0  0  0  0  0  0  0  0
    8.5336   -0.8174    6.4598 N   0  0  0  0  0  0  0  0  0  0  0  0
    8.8858    0.4468    6.0662 N   0  0  0  0  0  0  0  0  0  0  0  0
    8.4796    0.5790    4.8246 C   0  0  0  0  0  0  0  0  0  0  0  0
    8.7781    1.7495    4.0606 C   0  0  0  0  0  0  0  0  0  0  0  0
    9.0531    1.9409    2.7186 C   0  0  0  0  0  0  0  0  0  0  0  0
    9.3611    3.2404    2.3498 N   0  0  0  0  0  0  0  0  0  0  0  0
    9.3425    4.0572    3.3889 N   0  0  0  0  0  0  0  0  0  0  0  0
    8.9662    3.2793    4.8198 S   0  0  0  0  0  0  0  0  0  0  0  0
    6.4905   -3.1346    2.9162 C   0  0  0  0  0  0  0  0  0  0  0  0
    5.5089   -3.8754    2.3263 N   0  0  0  0  0  0  0  0  0  0  0  0
    5.4511   -5.3205    2.3432 C   0  0  0  0  0  0  0  0  0  0  0  0
    4.1959   -0.6977    1.3473 C   0  0  0  0  0  0  0  0  0  0  0  0
    4.6105    1.1483    1.6095 Br  0  0  0  0  0  0  0  0  0  0  0  0
    0.5325    0.7184   -0.6026 H   0  0  0  0  0  0  0  0  0  0  0  0
    0.4299   -0.5856    0.5899 H   0  0  0  0  0  0  0  0  0  0  0  0
    0.8715   -0.9288   -1.1280 H   0  0  0  0  0  0  0  0  0  0  0  0
    1.8484   -2.6493   -0.2125 H   0  0  0  0  0  0  0  0  0  0  0  0
    3.1851   -4.4245    0.7847 H   0  0  0  0  0  0  0  0  0  0  0  0
    6.9952    0.1532    2.6059 H   0  0  0  0  0  0  0  0  0  0  0  0
    8.8231   -1.1803    7.3610 H   0  0  0  0  0  0  0  0  0  0  0  0
    9.0736    1.1756    1.9540 H   0  0  0  0  0  0  0  0  0  0  0  0
    7.3035   -3.6323    3.4288 H   0  0  0  0  0  0  0  0  0  0  0  0
    6.2926   -5.7153    2.9157 H   0  0  0  0  0  0  0  0  0  0  0  0
    5.5024   -5.6786    1.3122 H   0  0  0  0  0  0  0  0  0  0  0  0
    4.5117   -5.6216    2.8137 H   0  0  0  0  0  0  0  0  0  0  0  0
  1  2  1  0  0  0  0
  1 26  1  0  0  0  0
  1 27  1  0  0  0  0
  1 28  1  0  0  0  0
  2  3  1  0  0  0  0
  3  4  1  0  0  0  0
  3 24  2  0  0  0  0
  4  5  2  0  0  0  0
  4 29  1  0  0  0  0
  5  6  1  0  0  0  0
  5 30  1  0  0  0  0
  6  7  2  0  0  0  0
  6 22  1  0  0  0  0
  7  8  1  0  0  0  0
  7 24  1  0  0  0  0
  8  9  1  0  0  0  0
  8 21  2  0  0  0  0
  9 10  2  0  0  0  0
  9 31  1  0  0  0  0
 10 11  1  0  0  0  0
 10 15  1  0  0  0  0
 11 12  2  0  0  0  0
 11 13  1  0  0  0  0
 13 14  1  0  0  0  0
 13 32  1  0  0  0  0
 14 15  2  0  0  0  0
 15 16  1  0  0  0  0
 16 17  2  0  0  0  0
 16 20  1  0  0  0  0
 17 18  1  0  0  0  0
 17 33  1  0  0  0  0
 18 19  2  0  0  0  0
 19 20  1  0  0  0  0
 21 22  1  0  0  0  0
 21 34  1  0  0  0  0
 22 23  1  0  0  0  0
 23 35  1  0  0  0  0
 23 36  1  0  0  0  0
 23 37  1  0  0  0  0
 24 25  1  0  0  0  0
M  END
$$$$
