CHEMBL223086
 OpenBabel04072215363D

 52 55  0  0  0  0  0  0  0  0999 V2000
    4.0850   -0.7018    4.2093 C   0  0  0  0  0  0  0  0  0  0  0  0
    5.0959   -0.6488    3.1225 C   0  0  0  0  0  0  0  0  0  0  0  0
    5.6977   -1.6554    2.3932 C   0  0  0  0  0  0  0  0  0  0  0  0
    6.4281   -1.0510    1.3295 C   0  0  0  0  0  0  0  0  0  0  0  0
    7.1329   -1.5377    0.2088 C   0  0  0  0  0  0  0  0  0  0  0  0
    7.2399   -2.8618    0.0111 F   0  0  0  0  0  0  0  0  0  0  0  0
    7.6740   -0.6468   -0.7280 C   0  0  0  0  0  0  0  0  0  0  0  0
    8.2307   -1.1999   -1.8692 O   0  0  0  0  0  0  0  0  0  0  0  0
    9.3386   -0.5800   -2.4453 C   0  0  0  0  0  0  0  0  0  0  0  0
   10.1128    0.1879   -1.6527 N   0  0  0  0  0  0  0  0  0  0  0  0
   11.1584    0.7757   -2.2404 C   0  0  0  0  0  0  0  0  0  0  0  0
   11.5094    0.6432   -3.5189 N   0  0  0  0  0  0  0  0  0  0  0  0
   10.7456   -0.1637   -4.2758 C   0  0  0  0  0  0  0  0  0  0  0  0
   11.1370   -0.2061   -5.6090 N   0  0  0  0  0  0  0  0  0  0  0  0
    9.6140   -0.8184   -3.7812 C   0  0  0  0  0  0  0  0  0  0  0  0
    8.8189   -1.7462   -4.6106 C   0  0  0  0  0  0  0  0  0  0  0  0
    9.1889   -2.0419   -5.8168 N   0  0  0  0  0  0  0  0  0  0  0  0
    8.3352   -2.9780   -6.4121 O   0  0  0  0  0  0  0  0  0  0  0  0
    9.0812   -3.5896   -7.4780 C   0  0  0  0  0  0  0  0  0  0  0  0
    8.2031   -4.5852   -8.2452 C   0  0  0  0  0  0  0  0  0  0  0  0
    8.9221   -5.3841   -9.2619 N   0  0  0  0  0  0  0  0  0  0  0  0
    9.5018   -4.5877  -10.3556 C   0  0  0  0  0  0  0  0  0  0  0  0
    8.3888   -4.4603  -11.3755 C   0  0  0  0  0  0  0  0  0  0  0  0
    7.7731   -5.8437  -11.3457 C   0  0  0  0  0  0  0  0  0  0  0  0
    8.0022   -6.3376   -9.9189 C   0  0  0  0  0  0  0  0  0  0  0  0
    7.5226    0.7316   -0.5328 C   0  0  0  0  0  0  0  0  0  0  0  0
    6.8765    1.2439    0.6004 C   0  0  0  0  0  0  0  0  0  0  0  0
    6.3194    0.3294    1.4999 C   0  0  0  0  0  0  0  0  0  0  0  0
    5.5744    0.5438    2.6381 N   0  0  0  0  0  0  0  0  0  0  0  0
    3.7950   -1.7336    4.4255 H   0  0  0  0  0  0  0  0  0  0  0  0
    3.1824   -0.1604    3.9028 H   0  0  0  0  0  0  0  0  0  0  0  0
    4.4650   -0.2468    5.1281 H   0  0  0  0  0  0  0  0  0  0  0  0
    5.5541   -2.7184    2.5437 H   0  0  0  0  0  0  0  0  0  0  0  0
   11.7715    1.4271   -1.6262 H   0  0  0  0  0  0  0  0  0  0  0  0
   12.0433    0.2314   -5.7238 H   0  0  0  0  0  0  0  0  0  0  0  0
   11.0607   -1.1434   -6.0048 H   0  0  0  0  0  0  0  0  0  0  0  0
    7.9212   -2.2180   -4.1654 H   0  0  0  0  0  0  0  0  0  0  0  0
    9.9355   -4.1111   -7.0314 H   0  0  0  0  0  0  0  0  0  0  0  0
    9.4535   -2.8017   -8.1418 H   0  0  0  0  0  0  0  0  0  0  0  0
    7.3429   -4.0562   -8.6748 H   0  0  0  0  0  0  0  0  0  0  0  0
    7.7853   -5.2750   -7.5001 H   0  0  0  0  0  0  0  0  0  0  0  0
   10.3335   -5.1571  -10.7915 H   0  0  0  0  0  0  0  0  0  0  0  0
    9.9106   -3.6198  -10.0587 H   0  0  0  0  0  0  0  0  0  0  0  0
    8.7553   -4.1890  -12.3695 H   0  0  0  0  0  0  0  0  0  0  0  0
    7.6569   -3.7072  -11.0617 H   0  0  0  0  0  0  0  0  0  0  0  0
    8.2990   -6.4956  -12.0539 H   0  0  0  0  0  0  0  0  0  0  0  0
    6.7149   -5.8243  -11.6214 H   0  0  0  0  0  0  0  0  0  0  0  0
    8.4671   -7.3299   -9.9408 H   0  0  0  0  0  0  0  0  0  0  0  0
    7.0491   -6.4460   -9.3880 H   0  0  0  0  0  0  0  0  0  0  0  0
    7.9068    1.4389   -1.2629 H   0  0  0  0  0  0  0  0  0  0  0  0
    6.7793    2.3154    0.7452 H   0  0  0  0  0  0  0  0  0  0  0  0
    5.3346    1.4563    3.0014 H   0  0  0  0  0  0  0  0  0  0  0  0
  1  2  1  0  0  0  0
  1 30  1  0  0  0  0
  1 31  1  0  0  0  0
  1 32  1  0  0  0  0
  2  3  2  0  0  0  0
  2 29  1  0  0  0  0
  3  4  1  0  0  0  0
  3 33  1  0  0  0  0
  4  5  1  0  0  0  0
  4 28  2  0  0  0  0
  5  6  1  0  0  0  0
  5  7  2  0  0  0  0
  7  8  1  0  0  0  0
  7 26  1  0  0  0  0
  8  9  1  0  0  0  0
  9 10  1  0  0  0  0
  9 15  2  0  0  0  0
 10 11  2  0  0  0  0
 11 12  1  0  0  0  0
 11 34  1  0  0  0  0
 12 13  2  0  0  0  0
 13 14  1  0  0  0  0
 13 15  1  0  0  0  0
 14 35  1  0  0  0  0
 14 36  1  0  0  0  0
 15 16  1  0  0  0  0
 16 17  2  0  0  0  0
 16 37  1  0  0  0  0
 17 18  1  0  0  0  0
 18 19  1  0  0  0  0
 19 20  1  0  0  0  0
 19 38  1  0  0  0  0
 19 39  1  0  0  0  0
 20 21  1  0  0  0  0
 20 40  1  0  0  0  0
 20 41  1  0  0  0  0
 21 22  1  0  0  0  0
 21 25  1  0  0  0  0
 22 23  1  0  0  0  0
 22 42  1  0  0  0  0
 22 43  1  0  0  0  0
 23 24  1  0  0  0  0
 23 44  1  0  0  0  0
 23 45  1  0  0  0  0
 24 25  1  0  0  0  0
 24 46  1  0  0  0  0
 24 47  1  0  0  0  0
 25 48  1  0  0  0  0
 25 49  1  0  0  0  0
 26 27  2  0  0  0  0
 26 50  1  0  0  0  0
 27 28  1  0  0  0  0
 27 51  1  0  0  0  0
 28 29  1  0  0  0  0
 29 52  1  0  0  0  0
M  END
$$$$
