CHEMBL150657
 OpenBabel04072215363D

 39 41  0  0  0  0  0  0  0  0999 V2000
    0.7642   -1.0279    0.8925 C   0  0  0  0  0  0  0  0  0  0  0  0
    2.1776   -1.1457    0.9076 O   0  0  0  0  0  0  0  0  0  0  0  0
    2.6853   -1.7083   -0.3047 C   0  0  0  0  0  0  0  0  0  0  0  0
    4.1986   -1.7826   -0.1776 C   0  0  0  0  0  0  0  0  0  0  0  0
    4.7857   -2.3090   -1.3680 O   0  0  0  0  0  0  0  0  0  0  0  0
    6.1537   -2.4269   -1.3432 C   0  0  0  0  0  0  0  0  0  0  0  0
    6.9697   -2.0759   -0.2748 C   0  0  0  0  0  0  0  0  0  0  0  0
    8.3440   -2.2923   -0.3494 C   0  0  0  0  0  0  0  0  0  0  0  0
    8.9211   -2.8557   -1.5068 C   0  0  0  0  0  0  0  0  0  0  0  0
   10.2774   -3.1872   -1.6412 C   0  0  0  0  0  0  0  0  0  0  0  0
   11.1477   -3.0399   -0.5313 N   0  0  0  0  0  0  0  0  0  0  0  0
   12.3843   -3.7101   -0.3949 C   0  0  0  0  0  0  0  0  0  0  0  0
   12.5142   -5.0629   -0.7388 C   0  0  0  0  0  0  0  0  0  0  0  0
   13.7516   -5.7040   -0.6674 C   0  0  0  0  0  0  0  0  0  0  0  0
   14.8686   -4.9958   -0.2285 C   0  0  0  0  0  0  0  0  0  0  0  0
   16.4035   -5.7712   -0.1951 Cl  0  0  0  0  0  0  0  0  0  0  0  0
   14.7534   -3.6672    0.1720 C   0  0  0  0  0  0  0  0  0  0  0  0
   13.5124   -3.0420    0.0960 C   0  0  0  0  0  0  0  0  0  0  0  0
   13.4049   -1.7581    0.4739 F   0  0  0  0  0  0  0  0  0  0  0  0
   10.7744   -3.6987   -2.7818 N   0  0  0  0  0  0  0  0  0  0  0  0
    9.9155   -3.8993   -3.7822 C   0  0  0  0  0  0  0  0  0  0  0  0
    8.5990   -3.6715   -3.7442 N   0  0  0  0  0  0  0  0  0  0  0  0
    8.1076   -3.1642   -2.6075 C   0  0  0  0  0  0  0  0  0  0  0  0
    6.7359   -2.9558   -2.4999 C   0  0  0  0  0  0  0  0  0  0  0  0
    0.4510   -0.5842    1.8418 H   0  0  0  0  0  0  0  0  0  0  0  0
    0.3007   -2.0134    0.7963 H   0  0  0  0  0  0  0  0  0  0  0  0
    0.4439   -0.3733    0.0773 H   0  0  0  0  0  0  0  0  0  0  0  0
    2.4051   -1.0814   -1.1614 H   0  0  0  0  0  0  0  0  0  0  0  0
    2.2611   -2.7078   -0.4646 H   0  0  0  0  0  0  0  0  0  0  0  0
    4.4410   -2.4199    0.6833 H   0  0  0  0  0  0  0  0  0  0  0  0
    4.5794   -0.7719    0.0135 H   0  0  0  0  0  0  0  0  0  0  0  0
    6.5790   -1.6481    0.6428 H   0  0  0  0  0  0  0  0  0  0  0  0
    8.9577   -2.0336    0.5104 H   0  0  0  0  0  0  0  0  0  0  0  0
   11.2012   -2.0668   -0.2377 H   0  0  0  0  0  0  0  0  0  0  0  0
   11.6478   -5.6212   -1.0864 H   0  0  0  0  0  0  0  0  0  0  0  0
   13.8328   -6.7437   -0.9686 H   0  0  0  0  0  0  0  0  0  0  0  0
   15.6141   -3.1099    0.5249 H   0  0  0  0  0  0  0  0  0  0  0  0
   10.3236   -4.2913   -4.7063 H   0  0  0  0  0  0  0  0  0  0  0  0
    6.1010   -3.2279   -3.3395 H   0  0  0  0  0  0  0  0  0  0  0  0
  1  2  1  0  0  0  0
  1 25  1  0  0  0  0
  1 26  1  0  0  0  0
  1 27  1  0  0  0  0
  2  3  1  0  0  0  0
  3  4  1  0  0  0  0
  3 28  1  0  0  0  0
  3 29  1  0  0  0  0
  4  5  1  0  0  0  0
  4 30  1  0  0  0  0
  4 31  1  0  0  0  0
  5  6  1  0  0  0  0
  6  7  1  0  0  0  0
  6 24  2  0  0  0  0
  7  8  2  0  0  0  0
  7 32  1  0  0  0  0
  8  9  1  0  0  0  0
  8 33  1  0  0  0  0
  9 10  1  0  0  0  0
  9 23  2  0  0  0  0
 10 11  1  0  0  0  0
 10 20  2  0  0  0  0
 11 12  1  0  0  0  0
 11 34  1  0  0  0  0
 12 13  1  0  0  0  0
 12 18  2  0  0  0  0
 13 14  2  0  0  0  0
 13 35  1  0  0  0  0
 14 15  1  0  0  0  0
 14 36  1  0  0  0  0
 15 16  1  0  0  0  0
 15 17  2  0  0  0  0
 17 18  1  0  0  0  0
 17 37  1  0  0  0  0
 18 19  1  0  0  0  0
 20 21  1  0  0  0  0
 21 22  2  0  0  0  0
 21 38  1  0  0  0  0
 22 23  1  0  0  0  0
 23 24  1  0  0  0  0
 24 39  1  0  0  0  0
M  END
$$$$
