CHEMBL179360
 OpenBabel04072215363D

 54 57  0  0  0  0  0  0  0  0999 V2000
    5.6952    1.5136    0.3035 C   0  0  0  0  0  0  0  0  0  0  0  0
    4.4922    0.9930   -0.2628 O   0  0  0  0  0  0  0  0  0  0  0  0
    4.6522   -0.0431   -1.1452 C   0  0  0  0  0  0  0  0  0  0  0  0
    5.7479   -0.9200   -1.0675 C   0  0  0  0  0  0  0  0  0  0  0  0
    5.9684   -1.9431   -1.9788 C   0  0  0  0  0  0  0  0  0  0  0  0
    7.0967   -2.6583   -1.8445 N   0  0  0  0  0  0  0  0  0  0  0  0
    7.3554   -3.6244   -2.7476 C   0  0  0  0  0  0  0  0  0  0  0  0
    6.5380   -3.9031   -3.8194 C   0  0  0  0  0  0  0  0  0  0  0  0
    5.3629   -3.1640   -3.9690 C   0  0  0  0  0  0  0  0  0  0  0  0
    4.6286   -3.5340   -5.0824 O   0  0  0  0  0  0  0  0  0  0  0  0
    3.8892   -2.6159   -5.7915 C   0  0  0  0  0  0  0  0  0  0  0  0
    4.2489   -1.2844   -5.9607 C   0  0  0  0  0  0  0  0  0  0  0  0
    3.3118   -0.3738   -6.4605 C   0  0  0  0  0  0  0  0  0  0  0  0
    2.0450   -0.7870   -6.8892 C   0  0  0  0  0  0  0  0  0  0  0  0
    1.0190    0.1131   -7.2827 N   0  0  0  0  0  0  0  0  0  0  0  0
    1.1223    1.4911   -7.3088 C   0  0  0  0  0  0  0  0  0  0  0  0
    2.1566    2.1217   -7.0999 O   0  0  0  0  0  0  0  0  0  0  0  0
   -0.0899    2.1243   -7.5602 N   0  0  0  0  0  0  0  0  0  0  0  0
   -0.1381    3.5434   -7.6244 C   0  0  0  0  0  0  0  0  0  0  0  0
    0.8232    4.2630   -8.3507 C   0  0  0  0  0  0  0  0  0  0  0  0
    0.8442    5.6585   -8.3337 C   0  0  0  0  0  0  0  0  0  0  0  0
   -0.0975    6.3550   -7.5825 C   0  0  0  0  0  0  0  0  0  0  0  0
   -1.0741    5.6391   -6.8746 C   0  0  0  0  0  0  0  0  0  0  0  0
   -2.0347    6.3745   -6.0450 N   0  3  0  0  0  0  0  0  0  0  0  0
   -1.9595    7.6078   -6.0245 O   0  0  0  0  0  0  0  0  0  0  0  0
   -2.8726    5.7124   -5.4095 O   0  5  0  0  0  0  0  0  0  0  0  0
   -1.1188    4.2344   -6.9129 C   0  0  0  0  0  0  0  0  0  0  0  0
    1.7637   -2.1577   -6.8787 C   0  0  0  0  0  0  0  0  0  0  0  0
    2.6803   -3.0674   -6.3280 C   0  0  0  0  0  0  0  0  0  0  0  0
    5.0275   -2.1735   -2.9959 C   0  0  0  0  0  0  0  0  0  0  0  0
    3.8477   -1.3888   -2.9608 C   0  0  0  0  0  0  0  0  0  0  0  0
    3.6810   -0.2835   -2.1138 C   0  0  0  0  0  0  0  0  0  0  0  0
    2.5510    0.4084   -2.4338 O   0  0  0  0  0  0  0  0  0  0  0  0
    2.2690    1.6831   -1.8877 C   0  0  0  0  0  0  0  0  0  0  0  0
    5.4596    2.4657    0.7871 H   0  0  0  0  0  0  0  0  0  0  0  0
    6.4524    1.7086   -0.4657 H   0  0  0  0  0  0  0  0  0  0  0  0
    6.0852    0.8415    1.0750 H   0  0  0  0  0  0  0  0  0  0  0  0
    6.4902   -0.8137   -0.2812 H   0  0  0  0  0  0  0  0  0  0  0  0
    8.2747   -4.1731   -2.5839 H   0  0  0  0  0  0  0  0  0  0  0  0
    6.8020   -4.6787   -4.5245 H   0  0  0  0  0  0  0  0  0  0  0  0
    5.2024   -0.9067   -5.6029 H   0  0  0  0  0  0  0  0  0  0  0  0
    3.6048    0.6704   -6.4424 H   0  0  0  0  0  0  0  0  0  0  0  0
    0.1509   -0.2889   -7.5988 H   0  0  0  0  0  0  0  0  0  0  0  0
   -0.8959    1.6598   -7.1657 H   0  0  0  0  0  0  0  0  0  0  0  0
    1.5862    3.7378   -8.9237 H   0  0  0  0  0  0  0  0  0  0  0  0
    1.6134    6.1946   -8.8857 H   0  0  0  0  0  0  0  0  0  0  0  0
   -0.0487    7.4417   -7.5488 H   0  0  0  0  0  0  0  0  0  0  0  0
   -1.8596    3.6905   -6.3330 H   0  0  0  0  0  0  0  0  0  0  0  0
    0.8145   -2.5392   -7.2469 H   0  0  0  0  0  0  0  0  0  0  0  0
    2.4269   -4.1230   -6.2688 H   0  0  0  0  0  0  0  0  0  0  0  0
    3.0345   -1.5927   -3.6523 H   0  0  0  0  0  0  0  0  0  0  0  0
    1.7876    2.2759   -2.6748 H   0  0  0  0  0  0  0  0  0  0  0  0
    3.1370    2.2576   -1.5646 H   0  0  0  0  0  0  0  0  0  0  0  0
    1.5452    1.5637   -1.0775 H   0  0  0  0  0  0  0  0  0  0  0  0
  1  2  1  0  0  0  0
  1 35  1  0  0  0  0
  1 36  1  0  0  0  0
  1 37  1  0  0  0  0
  2  3  1  0  0  0  0
  3  4  1  0  0  0  0
  3 32  2  0  0  0  0
  4  5  2  0  0  0  0
  4 38  1  0  0  0  0
  5  6  1  0  0  0  0
  5 30  1  0  0  0  0
  6  7  2  0  0  0  0
  7  8  1  0  0  0  0
  7 39  1  0  0  0  0
  8  9  2  0  0  0  0
  8 40  1  0  0  0  0
  9 10  1  0  0  0  0
  9 30  1  0  0  0  0
 10 11  1  0  0  0  0
 11 12  1  0  0  0  0
 11 29  2  0  0  0  0
 12 13  2  0  0  0  0
 12 41  1  0  0  0  0
 13 14  1  0  0  0  0
 13 42  1  0  0  0  0
 14 15  1  0  0  0  0
 14 28  2  0  0  0  0
 15 16  1  0  0  0  0
 15 43  1  0  0  0  0
 16 17  2  0  0  0  0
 16 18  1  0  0  0  0
 18 19  1  0  0  0  0
 18 44  1  0  0  0  0
 19 20  1  0  0  0  0
 19 27  2  0  0  0  0
 20 21  2  0  0  0  0
 20 45  1  0  0  0  0
 21 22  1  0  0  0  0
 21 46  1  0  0  0  0
 22 23  2  0  0  0  0
 22 47  1  0  0  0  0
 23 24  1  0  0  0  0
 23 27  1  0  0  0  0
 24 25  2  0  0  0  0
 24 26  1  0  0  0  0
 27 48  1  0  0  0  0
 28 29  1  0  0  0  0
 28 49  1  0  0  0  0
 29 50  1  0  0  0  0
 30 31  2  0  0  0  0
 31 32  1  0  0  0  0
 31 51  1  0  0  0  0
 32 33  1  0  0  0  0
 33 34  1  0  0  0  0
 34 52  1  0  0  0  0
 34 53  1  0  0  0  0
 34 54  1  0  0  0  0
M  CHG  2  24   1  26  -1
M  END
$$$$
