CHEMBL3686062
 OpenBabel04072215373D

 46 49  0  0  0  0  0  0  0  0999 V2000
    2.5646   -0.8664   -1.3307 O   0  0  0  0  0  0  0  0  0  0  0  0
    2.2777    0.0825   -0.6148 C   0  0  0  0  0  0  0  0  0  0  0  0
    0.9788    0.3036   -0.2012 N   0  0  0  0  0  0  0  0  0  0  0  0
   -0.0865   -0.5152   -0.7787 C   0  0  0  0  0  0  0  0  0  0  0  0
   -0.5817   -0.0540   -2.1576 C   0  0  0  0  0  0  0  0  0  0  0  0
    0.0025    1.1074   -2.5373 F   0  0  0  0  0  0  0  0  0  0  0  0
   -0.3605   -0.9713   -3.1198 F   0  0  0  0  0  0  0  0  0  0  0  0
   -1.9173    0.1797   -2.1158 F   0  0  0  0  0  0  0  0  0  0  0  0
    3.1316    1.0326   -0.1071 N   0  0  0  0  0  0  0  0  0  0  0  0
    4.5275    1.1147   -0.2883 C   0  0  0  0  0  0  0  0  0  0  0  0
    5.2811    0.1735   -0.9853 C   0  0  0  0  0  0  0  0  0  0  0  0
    6.6682    0.3041   -1.0693 C   0  0  0  0  0  0  0  0  0  0  0  0
    7.3135    1.3754   -0.4513 C   0  0  0  0  0  0  0  0  0  0  0  0
    6.5784    2.3464    0.2384 C   0  0  0  0  0  0  0  0  0  0  0  0
    7.2650    3.4926    0.8437 C   0  0  0  0  0  0  0  0  0  0  0  0
    8.3737    4.1903    0.3867 C   0  0  0  0  0  0  0  0  0  0  0  0
    8.7064    5.2327    1.2061 N   0  0  0  0  0  0  0  0  0  0  0  0
    7.8311    5.1870    2.1845 C   0  0  0  0  0  0  0  0  0  0  0  0
    7.7040    6.0095    3.3413 C   0  0  0  0  0  0  0  0  0  0  0  0
    6.7709    5.7467    4.2891 C   0  0  0  0  0  0  0  0  0  0  0  0
    6.7116    6.5464    5.5401 C   0  0  0  0  0  0  0  0  0  0  0  0
    7.8564    7.0622    6.1463 C   0  0  0  0  0  0  0  0  0  0  0  0
    7.7408    7.7073    7.3753 C   0  0  0  0  0  0  0  0  0  0  0  0
    6.4914    7.8167    7.9695 C   0  0  0  0  0  0  0  0  0  0  0  0
    5.4032    7.2789    7.3061 C   0  0  0  0  0  0  0  0  0  0  0  0
    5.4863    6.6491    6.1139 N   0  0  0  0  0  0  0  0  0  0  0  0
    5.8390    4.6300    4.0707 C   0  0  0  0  0  0  0  0  0  0  0  0
    5.9634    3.8434    2.9918 C   0  0  0  0  0  0  0  0  0  0  0  0
    6.9438    4.1242    2.0401 N   0  0  0  0  0  0  0  0  0  0  0  0
    5.1818    2.2114    0.2887 C   0  0  0  0  0  0  0  0  0  0  0  0
    0.7390    1.2679   -0.0122 H   0  0  0  0  0  0  0  0  0  0  0  0
   -0.9151   -0.4908   -0.0628 H   0  0  0  0  0  0  0  0  0  0  0  0
    0.2553   -1.5550   -0.8429 H   0  0  0  0  0  0  0  0  0  0  0  0
    2.7182    1.7160    0.5083 H   0  0  0  0  0  0  0  0  0  0  0  0
    4.8220   -0.6813   -1.4711 H   0  0  0  0  0  0  0  0  0  0  0  0
    7.2457   -0.4380   -1.6149 H   0  0  0  0  0  0  0  0  0  0  0  0
    8.3973    1.4400   -0.5197 H   0  0  0  0  0  0  0  0  0  0  0  0
    8.9413    3.9977   -0.5156 H   0  0  0  0  0  0  0  0  0  0  0  0
    8.4096    6.8288    3.4253 H   0  0  0  0  0  0  0  0  0  0  0  0
    8.8377    6.9409    5.7010 H   0  0  0  0  0  0  0  0  0  0  0  0
    8.6227    8.1056    7.8675 H   0  0  0  0  0  0  0  0  0  0  0  0
    6.3704    8.2990    8.9333 H   0  0  0  0  0  0  0  0  0  0  0  0
    4.4061    7.3305    7.7333 H   0  0  0  0  0  0  0  0  0  0  0  0
    5.0659    4.4505    4.8122 H   0  0  0  0  0  0  0  0  0  0  0  0
    5.3203    2.9894    2.8422 H   0  0  0  0  0  0  0  0  0  0  0  0
    4.5857    2.9857    0.7629 H   0  0  0  0  0  0  0  0  0  0  0  0
  1  2  2  0  0  0  0
  2  3  1  0  0  0  0
  2  9  1  0  0  0  0
  3  4  1  0  0  0  0
  3 31  1  0  0  0  0
  4  5  1  0  0  0  0
  4 32  1  0  0  0  0
  4 33  1  0  0  0  0
  5  6  1  0  0  0  0
  5  7  1  0  0  0  0
  5  8  1  0  0  0  0
  9 10  1  0  0  0  0
  9 34  1  0  0  0  0
 10 11  1  0  0  0  0
 10 30  2  0  0  0  0
 11 12  2  0  0  0  0
 11 35  1  0  0  0  0
 12 13  1  0  0  0  0
 12 36  1  0  0  0  0
 13 14  2  0  0  0  0
 13 37  1  0  0  0  0
 14 15  1  0  0  0  0
 14 30  1  0  0  0  0
 15 16  2  0  0  0  0
 15 29  1  0  0  0  0
 16 17  1  0  0  0  0
 16 38  1  0  0  0  0
 17 18  2  0  0  0  0
 18 19  1  0  0  0  0
 18 29  1  0  0  0  0
 19 20  2  0  0  0  0
 19 39  1  0  0  0  0
 20 21  1  0  0  0  0
 20 27  1  0  0  0  0
 21 22  1  0  0  0  0
 21 26  2  0  0  0  0
 22 23  2  0  0  0  0
 22 40  1  0  0  0  0
 23 24  1  0  0  0  0
 23 41  1  0  0  0  0
 24 25  2  0  0  0  0
 24 42  1  0  0  0  0
 25 26  1  0  0  0  0
 25 43  1  0  0  0  0
 27 28  2  0  0  0  0
 27 44  1  0  0  0  0
 28 29  1  0  0  0  0
 28 45  1  0  0  0  0
 30 46  1  0  0  0  0
M  END
$$$$
