CHEMBL3644555
 OpenBabel04072215373D

 53 56  0  0  0  0  0  0  0  0999 V2000
    8.2784   -0.0371   -2.6100 C   0  0  0  0  0  0  0  0  0  0  0  0
    8.2218   -0.7128   -1.3504 O   0  0  0  0  0  0  0  0  0  0  0  0
    8.2460    0.1345   -0.2921 C   0  0  0  0  0  0  0  0  0  0  0  0
    8.3216    1.3480   -0.3611 O   0  0  0  0  0  0  0  0  0  0  0  0
    8.1116   -0.6166    0.9756 C   0  0  0  0  0  0  0  0  0  0  0  0
    8.6567   -1.8906    1.0910 C   0  0  0  0  0  0  0  0  0  0  0  0
    8.6391   -2.6249    2.2302 N   0  0  0  0  0  0  0  0  0  0  0  0
    8.0736   -2.0505    3.3137 C   0  0  0  0  0  0  0  0  0  0  0  0
    7.4984   -0.7810    3.3159 C   0  0  0  0  0  0  0  0  0  0  0  0
    7.4880   -0.0563    2.1053 C   0  0  0  0  0  0  0  0  0  0  0  0
    6.8534    1.3179    2.0612 C   0  0  0  0  0  0  0  0  0  0  0  0
    5.9150    1.5633    3.2385 C   0  0  0  0  0  0  0  0  0  0  0  0
    6.5974    1.1929    4.4739 N   0  0  0  0  0  0  0  0  0  0  0  0
    6.9082    2.1169    5.4535 C   0  0  0  0  0  0  0  0  0  0  0  0
    7.0099    1.7351    6.8027 C   0  0  0  0  0  0  0  0  0  0  0  0
    7.3267    2.6479    7.8093 C   0  0  0  0  0  0  0  0  0  0  0  0
    7.5430    3.9790    7.4860 C   0  0  0  0  0  0  0  0  0  0  0  0
    7.4447    4.4043    6.1572 C   0  0  0  0  0  0  0  0  0  0  0  0
    7.7325    5.8370    5.8852 C   0  0  0  0  0  0  0  0  0  0  0  0
    8.5577    6.3805    6.6149 O   0  0  0  0  0  0  0  0  0  0  0  0
    6.9849    6.4628    4.9025 N   0  0  0  0  0  0  0  0  0  0  0  0
    7.0293    7.8547    4.6184 C   0  0  0  0  0  0  0  0  0  0  0  0
    8.0877    8.6721    5.0263 C   0  0  0  0  0  0  0  0  0  0  0  0
    8.0501   10.0529    4.8373 C   0  0  0  0  0  0  0  0  0  0  0  0
    6.9451   10.6425    4.2353 C   0  0  0  0  0  0  0  0  0  0  0  0
    5.8790    9.8485    3.7903 C   0  0  0  0  0  0  0  0  0  0  0  0
    4.6493   10.4936    3.2003 C   0  0  0  0  0  0  0  0  0  0  0  0
    4.6875   11.8567    3.2135 F   0  0  0  0  0  0  0  0  0  0  0  0
    4.4372   10.1392    1.9036 F   0  0  0  0  0  0  0  0  0  0  0  0
    3.5138   10.1517    3.8719 F   0  0  0  0  0  0  0  0  0  0  0  0
    5.9473    8.4473    3.9526 C   0  0  0  0  0  0  0  0  0  0  0  0
    7.1420    3.4747    5.1520 C   0  0  0  0  0  0  0  0  0  0  0  0
    6.9099   -0.2360    4.5999 C   0  0  0  0  0  0  0  0  0  0  0  0
    8.2373   -0.7873   -3.4028 H   0  0  0  0  0  0  0  0  0  0  0  0
    9.2169    0.5190   -2.7023 H   0  0  0  0  0  0  0  0  0  0  0  0
    7.4203    0.6340   -2.7209 H   0  0  0  0  0  0  0  0  0  0  0  0
    9.1549   -2.3756    0.2560 H   0  0  0  0  0  0  0  0  0  0  0  0
    8.1059   -2.6583    4.2150 H   0  0  0  0  0  0  0  0  0  0  0  0
    6.2681    1.4358    1.1426 H   0  0  0  0  0  0  0  0  0  0  0  0
    7.6530    2.0684    2.0718 H   0  0  0  0  0  0  0  0  0  0  0  0
    5.0149    0.9413    3.1361 H   0  0  0  0  0  0  0  0  0  0  0  0
    5.5567    2.5979    3.2310 H   0  0  0  0  0  0  0  0  0  0  0  0
    6.8213    0.7081    7.1041 H   0  0  0  0  0  0  0  0  0  0  0  0
    7.4030    2.3178    8.8420 H   0  0  0  0  0  0  0  0  0  0  0  0
    7.7974    4.6884    8.2721 H   0  0  0  0  0  0  0  0  0  0  0  0
    6.2066    5.9451    4.5061 H   0  0  0  0  0  0  0  0  0  0  0  0
    8.9700    8.2607    5.5083 H   0  0  0  0  0  0  0  0  0  0  0  0
    8.8777   10.6662    5.1877 H   0  0  0  0  0  0  0  0  0  0  0  0
    6.9141   11.7259    4.1297 H   0  0  0  0  0  0  0  0  0  0  0  0
    5.1153    7.8381    3.6041 H   0  0  0  0  0  0  0  0  0  0  0  0
    7.1598    3.8037    4.1177 H   0  0  0  0  0  0  0  0  0  0  0  0
    5.9916   -0.7866    4.8363 H   0  0  0  0  0  0  0  0  0  0  0  0
    7.6405   -0.4215    5.3976 H   0  0  0  0  0  0  0  0  0  0  0  0
  1  2  1  0  0  0  0
  1 34  1  0  0  0  0
  1 35  1  0  0  0  0
  1 36  1  0  0  0  0
  2  3  1  0  0  0  0
  3  4  2  0  0  0  0
  3  5  1  0  0  0  0
  5  6  1  0  0  0  0
  5 10  2  0  0  0  0
  6  7  2  0  0  0  0
  6 37  1  0  0  0  0
  7  8  1  0  0  0  0
  8  9  2  0  0  0  0
  8 38  1  0  0  0  0
  9 10  1  0  0  0  0
  9 33  1  0  0  0  0
 10 11  1  0  0  0  0
 11 12  1  0  0  0  0
 11 39  1  0  0  0  0
 11 40  1  0  0  0  0
 12 13  1  0  0  0  0
 12 41  1  0  0  0  0
 12 42  1  0  0  0  0
 13 14  1  0  0  0  0
 13 33  1  0  0  0  0
 14 15  1  0  0  0  0
 14 32  2  0  0  0  0
 15 16  2  0  0  0  0
 15 43  1  0  0  0  0
 16 17  1  0  0  0  0
 16 44  1  0  0  0  0
 17 18  2  0  0  0  0
 17 45  1  0  0  0  0
 18 19  1  0  0  0  0
 18 32  1  0  0  0  0
 19 20  2  0  0  0  0
 19 21  1  0  0  0  0
 21 22  1  0  0  0  0
 21 46  1  0  0  0  0
 22 23  1  0  0  0  0
 22 31  2  0  0  0  0
 23 24  2  0  0  0  0
 23 47  1  0  0  0  0
 24 25  1  0  0  0  0
 24 48  1  0  0  0  0
 25 26  2  0  0  0  0
 25 49  1  0  0  0  0
 26 27  1  0  0  0  0
 26 31  1  0  0  0  0
 27 28  1  0  0  0  0
 27 29  1  0  0  0  0
 27 30  1  0  0  0  0
 31 50  1  0  0  0  0
 32 51  1  0  0  0  0
 33 52  1  0  0  0  0
 33 53  1  0  0  0  0
M  END
$$$$
