CHEMBL380465
 OpenBabel04072215373D

 34 37  0  0  0  0  0  0  0  0999 V2000
    1.0172   -0.2182    0.0618 C   0  0  0  0  0  0  0  0  0  0  0  0
    2.4581   -0.1131    0.0719 N   0  0  0  0  0  0  0  0  0  0  0  0
    3.1444    1.0673    0.1119 C   0  0  0  0  0  0  0  0  0  0  0  0
    4.4905    0.7904    0.1055 C   0  0  0  0  0  0  0  0  0  0  0  0
    5.5159    1.7851    0.2099 C   0  0  0  0  0  0  0  0  0  0  0  0
    5.5709    3.0345   -0.2842 C   0  0  0  0  0  0  0  0  0  0  0  0
    4.6338    3.7747   -1.1643 C   0  0  0  0  0  0  0  0  0  0  0  0
    3.5159    3.4915   -1.5423 O   0  0  0  0  0  0  0  0  0  0  0  0
    5.3368    4.9262   -1.4769 N   0  0  0  0  0  0  0  0  0  0  0  0
    6.5508    5.0608   -0.8526 N   0  0  0  0  0  0  0  0  0  0  0  0
    6.7130    3.9822   -0.1190 C   0  0  0  0  0  0  0  0  0  0  0  0
    7.8366    3.8005    0.7687 C   0  0  0  0  0  0  0  0  0  0  0  0
    7.7984    3.0388    1.8436 N   0  0  0  0  0  0  0  0  0  0  0  0
    8.9956    3.1317    2.5247 C   0  0  0  0  0  0  0  0  0  0  0  0
    9.9449    3.9444    1.9466 C   0  0  0  0  0  0  0  0  0  0  0  0
    9.3152    4.6383    0.5119 S   0  0  0  0  0  0  0  0  0  0  0  0
    4.6373   -0.6479    0.0896 C   0  0  0  0  0  0  0  0  0  0  0  0
    5.7073   -1.5828    0.0881 C   0  0  0  0  0  0  0  0  0  0  0  0
    7.5319   -1.0549    0.0511 Br  0  0  0  0  0  0  0  0  0  0  0  0
    5.4490   -2.9638    0.0954 C   0  0  0  0  0  0  0  0  0  0  0  0
    4.1464   -3.4416    0.0936 C   0  0  0  0  0  0  0  0  0  0  0  0
    3.0694   -2.5578    0.0788 C   0  0  0  0  0  0  0  0  0  0  0  0
    3.3332   -1.1768    0.0780 C   0  0  0  0  0  0  0  0  0  0  0  0
    0.5754    0.7811    0.0599 H   0  0  0  0  0  0  0  0  0  0  0  0
    0.7053   -0.7570    0.9616 H   0  0  0  0  0  0  0  0  0  0  0  0
    0.7133   -0.7574   -0.8390 H   0  0  0  0  0  0  0  0  0  0  0  0
    2.6088    2.0079    0.1486 H   0  0  0  0  0  0  0  0  0  0  0  0
    6.3752    1.4525    0.7831 H   0  0  0  0  0  0  0  0  0  0  0  0
    4.9627    5.6715   -2.0530 H   0  0  0  0  0  0  0  0  0  0  0  0
    9.1234    2.5819    3.4495 H   0  0  0  0  0  0  0  0  0  0  0  0
   10.9446    4.1654    2.2925 H   0  0  0  0  0  0  0  0  0  0  0  0
    6.2712   -3.6767    0.1012 H   0  0  0  0  0  0  0  0  0  0  0  0
    3.9616   -4.5146    0.0989 H   0  0  0  0  0  0  0  0  0  0  0  0
    2.0516   -2.9378    0.0712 H   0  0  0  0  0  0  0  0  0  0  0  0
  1  2  1  0  0  0  0
  1 24  1  0  0  0  0
  1 25  1  0  0  0  0
  1 26  1  0  0  0  0
  2  3  1  0  0  0  0
  2 23  1  0  0  0  0
  3  4  2  0  0  0  0
  3 27  1  0  0  0  0
  4  5  1  0  0  0  0
  4 17  1  0  0  0  0
  5  6  2  0  0  0  0
  5 28  1  0  0  0  0
  6  7  1  0  0  0  0
  6 11  1  0  0  0  0
  7  8  2  0  0  0  0
  7  9  1  0  0  0  0
  9 10  1  0  0  0  0
  9 29  1  0  0  0  0
 10 11  2  0  0  0  0
 11 12  1  0  0  0  0
 12 13  2  0  0  0  0
 12 16  1  0  0  0  0
 13 14  1  0  0  0  0
 14 15  2  0  0  0  0
 14 30  1  0  0  0  0
 15 16  1  0  0  0  0
 15 31  1  0  0  0  0
 17 18  1  0  0  0  0
 17 23  2  0  0  0  0
 18 19  1  0  0  0  0
 18 20  2  0  0  0  0
 20 21  1  0  0  0  0
 20 32  1  0  0  0  0
 21 22  2  0  0  0  0
 21 33  1  0  0  0  0
 22 23  1  0  0  0  0
 22 34  1  0  0  0  0
M  END
$$$$
