CHEMBL1202478
 OpenBabel04072215363D

 57 59  0  0  0  0  0  0  0  0999 V2000
    1.2299    0.0444   -0.8379 C   0  0  0  0  0  0  0  0  0  0  0  0
    2.5575   -0.2045   -0.5296 O   0  0  0  0  0  0  0  0  0  0  0  0
    3.1511   -1.0965    0.3226 C   0  0  0  0  0  0  0  0  0  0  0  0
    4.2506   -0.5669    1.0197 C   0  0  0  0  0  0  0  0  0  0  0  0
    4.9910   -1.3280    1.9414 C   0  0  0  0  0  0  0  0  0  0  0  0
    6.0754   -0.8113    2.6860 C   0  0  0  0  0  0  0  0  0  0  0  0
    6.5556    0.5308    2.5474 N   0  0  0  0  0  0  0  0  0  0  0  0
    7.2943    1.1726    3.5903 C   0  0  0  0  0  0  0  0  0  0  0  0
    7.0705    0.8367    4.9440 C   0  0  0  0  0  0  0  0  0  0  0  0
    7.7917    1.4549    5.9623 C   0  0  0  0  0  0  0  0  0  0  0  0
    8.7501    2.4184    5.6521 C   0  0  0  0  0  0  0  0  0  0  0  0
    9.7502    3.2400    7.0565 Br  0  0  0  0  0  0  0  0  0  0  0  0
    8.9723    2.7784    4.3181 C   0  0  0  0  0  0  0  0  0  0  0  0
    8.2381    2.1705    3.2905 C   0  0  0  0  0  0  0  0  0  0  0  0
    8.4768    2.5276    2.0034 F   0  0  0  0  0  0  0  0  0  0  0  0
    6.7274   -1.6412    3.5514 N   0  0  0  0  0  0  0  0  0  0  0  0
    6.3708   -2.9337    3.7226 C   0  0  0  0  0  0  0  0  0  0  0  0
    5.3141   -3.4369    3.0502 N   0  0  0  0  0  0  0  0  0  0  0  0
    4.6131   -2.6664    2.1691 C   0  0  0  0  0  0  0  0  0  0  0  0
    3.5310   -3.2203    1.4978 C   0  0  0  0  0  0  0  0  0  0  0  0
    2.7873   -2.4806    0.5645 C   0  0  0  0  0  0  0  0  0  0  0  0
    1.7906   -3.1776   -0.0504 O   0  0  0  0  0  0  0  0  0  0  0  0
    1.2102   -2.8637   -1.2470 C   0  0  0  0  0  0  0  0  0  0  0  0
    1.1651   -3.9746   -2.2311 C   0  0  0  0  0  0  0  0  0  0  0  0
    0.6924   -3.6354   -3.4400 C   0  0  0  0  0  0  0  0  0  0  0  0
    0.5727   -4.5771   -4.5871 C   0  0  0  0  0  0  0  0  0  0  0  0
    1.4202   -4.1773   -5.7430 N   0  0  0  0  0  0  0  0  0  0  0  0
    1.0676   -2.8666   -6.3284 C   0  0  0  0  0  0  0  0  0  0  0  0
   -0.0688   -3.1489   -7.2868 C   0  0  0  0  0  0  0  0  0  0  0  0
    0.4786   -4.3714   -7.9808 C   0  0  0  0  0  0  0  0  0  0  0  0
    1.1849   -5.1340   -6.8552 C   0  0  0  0  0  0  0  0  0  0  0  0
    1.2573    0.9425    2.5874 Cl  0  0  0  0  0  0  0  0  0  0  0  0
    1.0104    1.1150   -0.6642 H   0  0  0  0  0  0  0  0  0  0  0  0
    0.5312   -0.5466   -0.2169 H   0  0  0  0  0  0  0  0  0  0  0  0
    1.0594   -0.1269   -1.9257 H   0  0  0  0  0  0  0  0  0  0  0  0
    4.5018    0.4674    0.8308 H   0  0  0  0  0  0  0  0  0  0  0  0
    6.4265    1.0295    1.6556 H   0  0  0  0  0  0  0  0  0  0  0  0
    6.3228    0.1075    5.2244 H   0  0  0  0  0  0  0  0  0  0  0  0
    7.6022    1.1808    6.9924 H   0  0  0  0  0  0  0  0  0  0  0  0
    9.7177    3.5256    4.0808 H   0  0  0  0  0  0  0  0  0  0  0  0
    6.9309   -3.5573    4.4058 H   0  0  0  0  0  0  0  0  0  0  0  0
    3.2690   -4.2551    1.6853 H   0  0  0  0  0  0  0  0  0  0  0  0
    1.8412   -2.1271   -1.7631 H   0  0  0  0  0  0  0  0  0  0  0  0
    0.1634   -2.5347   -1.0690 H   0  0  0  0  0  0  0  0  0  0  0  0
    1.5112   -4.9779   -1.9956 H   0  0  0  0  0  0  0  0  0  0  0  0
    0.3681   -2.6093   -3.5926 H   0  0  0  0  0  0  0  0  0  0  0  0
   -0.5019   -4.6200   -4.8671 H   0  0  0  0  0  0  0  0  0  0  0  0
    0.8815   -5.5918   -4.2524 H   0  0  0  0  0  0  0  0  0  0  0  0
    1.9474   -2.5042   -6.9123 H   0  0  0  0  0  0  0  0  0  0  0  0
    0.8370   -2.0637   -5.6030 H   0  0  0  0  0  0  0  0  0  0  0  0
   -0.3111   -2.3113   -7.9772 H   0  0  0  0  0  0  0  0  0  0  0  0
   -0.9756   -3.4060   -6.7007 H   0  0  0  0  0  0  0  0  0  0  0  0
    1.2565   -4.0159   -8.6911 H   0  0  0  0  0  0  0  0  0  0  0  0
   -0.2728   -4.9683   -8.5406 H   0  0  0  0  0  0  0  0  0  0  0  0
    2.1424   -5.5558   -7.2224 H   0  0  0  0  0  0  0  0  0  0  0  0
    0.5506   -5.9938   -6.5359 H   0  0  0  0  0  0  0  0  0  0  0  0
    1.2001   -0.3937    2.2656 H   0  0  0  0  0  0  0  0  0  0  0  0
  1  2  1  0  0  0  0
  1 33  1  0  0  0  0
  1 34  1  0  0  0  0
  1 35  1  0  0  0  0
  2  3  1  0  0  0  0
  3  4  1  0  0  0  0
  3 21  2  0  0  0  0
  4  5  2  0  0  0  0
  4 36  1  0  0  0  0
  5  6  1  0  0  0  0
  5 19  1  0  0  0  0
  6  7  1  0  0  0  0
  6 16  2  0  0  0  0
  7  8  1  0  0  0  0
  7 37  1  0  0  0  0
  8  9  1  0  0  0  0
  8 14  2  0  0  0  0
  9 10  2  0  0  0  0
  9 38  1  0  0  0  0
 10 11  1  0  0  0  0
 10 39  1  0  0  0  0
 11 12  1  0  0  0  0
 11 13  2  0  0  0  0
 13 14  1  0  0  0  0
 13 40  1  0  0  0  0
 14 15  1  0  0  0  0
 16 17  1  0  0  0  0
 17 18  2  0  0  0  0
 17 41  1  0  0  0  0
 18 19  1  0  0  0  0
 19 20  2  0  0  0  0
 20 21  1  0  0  0  0
 20 42  1  0  0  0  0
 21 22  1  0  0  0  0
 22 23  1  0  0  0  0
 23 24  1  0  0  0  0
 23 43  1  0  0  0  0
 23 44  1  0  0  0  0
 24 25  2  0  0  0  0
 24 45  1  0  0  0  0
 25 26  1  0  0  0  0
 25 46  1  0  0  0  0
 26 27  1  0  0  0  0
 26 47  1  0  0  0  0
 26 48  1  0  0  0  0
 27 28  1  0  0  0  0
 27 31  1  0  0  0  0
 28 29  1  0  0  0  0
 28 49  1  0  0  0  0
 28 50  1  0  0  0  0
 29 30  1  0  0  0  0
 29 51  1  0  0  0  0
 29 52  1  0  0  0  0
 30 31  1  0  0  0  0
 30 53  1  0  0  0  0
 30 54  1  0  0  0  0
 31 55  1  0  0  0  0
 31 56  1  0  0  0  0
 32 57  1  0  0  0  0
M  END
$$$$
