CHEMBL2303627
 OpenBabel04072215363D

 56 56  0  0  1  0  0  0  0  0999 V2000
    3.6512    4.5549   -0.2599 C   0  0  0  0  0  0  0  0  0  0  0  0
    4.9007    3.7547   -0.5465 C   0  0  0  0  0  0  0  0  0  0  0  0
    5.2004    3.1551   -1.7133 C   0  0  0  0  0  0  0  0  0  0  0  0
    4.3808    3.2204   -2.8911 C   0  0  0  0  0  0  0  0  0  0  0  0
    4.6943    2.6655   -4.0739 C   0  0  0  0  0  0  0  0  0  0  0  0
    3.7681    2.8297   -5.2379 C   0  0  0  0  0  0  0  0  0  0  0  0
    3.1861    1.5105   -5.7612 C   0  0  3  0  0  0  0  0  0  0  0  0
    2.3799    0.7164   -4.7316 C   0  0  0  0  0  0  0  0  0  0  0  0
    2.3969    1.7216   -7.0813 C   0  0  3  0  0  0  0  0  0  0  0  0
    1.0481    2.4570   -6.9877 C   0  0  0  0  0  0  0  0  0  0  0  0
    1.0648    3.9034   -6.5617 C   0  0  0  0  0  0  0  0  0  0  0  0
    0.2446    4.3894   -5.7976 O   0  0  0  0  0  0  0  0  0  0  0  0
    2.0209    4.6442   -7.1582 O   0  0  0  0  0  0  0  0  0  0  0  0
    3.2160    2.3701   -8.0945 O   0  0  0  0  0  0  0  0  0  0  0  0
    4.2863    1.5194   -8.5405 C   0  0  1  0  0  0  0  0  0  0  0  0
    3.7896    0.2836   -9.0711 O   0  0  0  0  0  0  0  0  0  0  0  0
    3.1939    0.3469  -10.3773 C   0  0  1  0  0  0  0  0  0  0  0  0
    1.8728    1.1337  -10.4676 C   0  0  0  0  0  0  0  0  0  0  0  0
    0.8732    0.5763   -9.6138 O   0  0  0  0  0  0  0  0  0  0  0  0
    4.2565    0.8558  -11.3544 C   0  0  2  0  0  0  0  0  0  0  0  0
    5.3980   -0.0330  -11.3259 O   0  0  0  0  0  0  0  0  0  0  0  0
    4.7314    2.2536  -10.9331 C   0  0  2  0  0  0  0  0  0  0  0  0
    5.7416    2.7031  -11.8405 O   0  0  0  0  0  0  0  0  0  0  0  0
    5.2659    2.2440   -9.4946 C   0  0  2  0  0  0  0  0  0  0  0  0
    6.5528    1.5888   -9.4481 O   0  0  0  0  0  0  0  0  0  0  0  0
    5.7812    3.6168    0.6466 C   0  0  0  0  0  0  0  0  0  0  0  0
    5.3691    3.7510    1.7860 O   0  0  0  0  0  0  0  0  0  0  0  0
    7.0791    3.3752    0.3837 O   0  0  0  0  0  0  0  0  0  0  0  0
    2.9909    4.6819   -1.1195 H   0  0  0  0  0  0  0  0  0  0  0  0
    3.9132    5.5605    0.0816 H   0  0  0  0  0  0  0  0  0  0  0  0
    3.0580    4.0602    0.5148 H   0  0  0  0  0  0  0  0  0  0  0  0
    6.0895    2.5392   -1.8195 H   0  0  0  0  0  0  0  0  0  0  0  0
    3.4504    3.7800   -2.8444 H   0  0  0  0  0  0  0  0  0  0  0  0
    5.6138    2.1078   -4.2232 H   0  0  0  0  0  0  0  0  0  0  0  0
    4.3317    3.3354   -6.0311 H   0  0  0  0  0  0  0  0  0  0  0  0
    2.9522    3.5021   -4.9580 H   0  0  0  0  0  0  0  0  0  0  0  0
    4.0432    0.8617   -5.9773 H   0  0  0  0  0  0  0  0  0  0  0  0
    1.4872    1.2498   -4.3995 H   0  0  0  0  0  0  0  0  0  0  0  0
    2.9874    0.4834   -3.8509 H   0  0  0  0  0  0  0  0  0  0  0  0
    2.0706   -0.2443   -5.1620 H   0  0  0  0  0  0  0  0  0  0  0  0
    2.1374    0.7209   -7.4451 H   0  0  0  0  0  0  0  0  0  0  0  0
    0.3818    1.9186   -6.3056 H   0  0  0  0  0  0  0  0  0  0  0  0
    0.5613    2.4649   -7.9684 H   0  0  0  0  0  0  0  0  0  0  0  0
    2.5916    4.1002   -7.7470 H   0  0  0  0  0  0  0  0  0  0  0  0
    4.9001    1.2478   -7.6791 H   0  0  0  0  0  0  0  0  0  0  0  0
    2.9643   -0.6997  -10.6128 H   0  0  0  0  0  0  0  0  0  0  0  0
    1.4840    1.1161  -11.4883 H   0  0  0  0  0  0  0  0  0  0  0  0
    1.9864    2.1794  -10.1782 H   0  0  0  0  0  0  0  0  0  0  0  0
    0.5850   -0.2747   -9.9902 H   0  0  0  0  0  0  0  0  0  0  0  0
    3.8821    0.8670  -12.3831 H   0  0  0  0  0  0  0  0  0  0  0  0
    5.1604   -0.8161  -10.7923 H   0  0  0  0  0  0  0  0  0  0  0  0
    3.9059    2.9678  -11.0042 H   0  0  0  0  0  0  0  0  0  0  0  0
    6.4689    2.0524  -11.7671 H   0  0  0  0  0  0  0  0  0  0  0  0
    5.4426    3.2716   -9.1590 H   0  0  0  0  0  0  0  0  0  0  0  0
    6.4318    0.6849   -9.7999 H   0  0  0  0  0  0  0  0  0  0  0  0
    7.3387    3.4719   -0.5468 H   0  0  0  0  0  0  0  0  0  0  0  0
  1  2  1  0  0  0  0
  1 29  1  0  0  0  0
  1 30  1  0  0  0  0
  1 31  1  0  0  0  0
  2  3  2  0  0  0  0
  2 26  1  0  0  0  0
  3  4  1  0  0  0  0
  3 32  1  0  0  0  0
  4  5  2  0  0  0  0
  4 33  1  0  0  0  0
  5  6  1  0  0  0  0
  5 34  1  0  0  0  0
  6  7  1  0  0  0  0
  6 35  1  0  0  0  0
  6 36  1  0  0  0  0
  7  8  1  0  0  0  0
  7  9  1  0  0  0  0
  7 37  1  0  0  0  0
  8 38  1  0  0  0  0
  8 39  1  0  0  0  0
  8 40  1  0  0  0  0
  9 10  1  0  0  0  0
  9 14  1  0  0  0  0
  9 41  1  0  0  0  0
 10 11  1  0  0  0  0
 10 42  1  0  0  0  0
 10 43  1  0  0  0  0
 11 12  2  0  0  0  0
 11 13  1  0  0  0  0
 13 44  1  0  0  0  0
 14 15  1  0  0  0  0
 15 16  1  0  0  0  0
 15 24  1  0  0  0  0
 15 45  1  1  0  0  0
 16 17  1  0  0  0  0
 17 18  1  0  0  0  0
 17 20  1  0  0  0  0
 17 46  1  6  0  0  0
 18 19  1  0  0  0  0
 18 47  1  0  0  0  0
 18 48  1  0  0  0  0
 19 49  1  0  0  0  0
 20 21  1  0  0  0  0
 20 22  1  0  0  0  0
 20 50  1  6  0  0  0
 21 51  1  0  0  0  0
 22 23  1  0  0  0  0
 22 24  1  0  0  0  0
 22 52  1  6  0  0  0
 23 53  1  0  0  0  0
 24 25  1  0  0  0  0
 24 54  1  1  0  0  0
 25 55  1  0  0  0  0
 26 27  2  0  0  0  0
 26 28  1  0  0  0  0
 28 56  1  0  0  0  0
M  END
$$$$
