CHEMBL233456
 OpenBabel04072215363D

 54 57  0  0  0  0  0  0  0  0999 V2000
    1.3595   -3.0434   -5.6451 N   0  0  0  0  0  0  0  0  0  0  0  0
    1.7592   -2.4517   -4.7304 C   0  0  0  0  0  0  0  0  0  0  0  0
    2.2769   -1.7594   -3.6008 C   0  0  0  0  0  0  0  0  0  0  0  0
    1.9443   -2.1945   -2.3335 C   0  0  0  0  0  0  0  0  0  0  0  0
    2.3512   -1.6030   -1.1907 N   0  0  0  0  0  0  0  0  0  0  0  0
    3.1342   -0.5272   -1.3231 C   0  0  0  0  0  0  0  0  0  0  0  0
    3.5333    0.1193   -0.1546 N   0  0  0  0  0  0  0  0  0  0  0  0
    4.3674    1.2372   -0.0047 C   0  0  0  0  0  0  0  0  0  0  0  0
    4.1613    2.1226    1.0585 C   0  0  0  0  0  0  0  0  0  0  0  0
    4.8773    3.3272    1.1397 C   0  0  0  0  0  0  0  0  0  0  0  0
    5.8207    3.6648    0.1628 C   0  0  0  0  0  0  0  0  0  0  0  0
    6.5468    4.9891    0.1689 C   0  0  0  0  0  0  0  0  0  0  0  0
    7.3795    5.2049    1.4278 C   0  0  0  0  0  0  0  0  0  0  0  0
    8.0957    6.5427    1.4127 C   0  0  0  0  0  0  0  0  0  0  0  0
    8.0362    7.2952    0.4410 O   0  0  0  0  0  0  0  0  0  0  0  0
    8.7903    6.8773    2.5625 N   0  0  0  0  0  0  0  0  0  0  0  0
    8.9720    6.0305    3.7463 C   0  0  0  0  0  0  0  0  0  0  0  0
    8.5009    6.7669    5.0055 C   0  0  0  0  0  0  0  0  0  0  0  0
    9.1396    8.0475    5.1306 O   0  0  0  0  0  0  0  0  0  0  0  0
    8.8702    8.8710    3.9815 C   0  0  0  0  0  0  0  0  0  0  0  0
    9.3854    8.2081    2.6993 C   0  0  0  0  0  0  0  0  0  0  0  0
    6.0490    2.7693   -0.8828 C   0  0  0  0  0  0  0  0  0  0  0  0
    5.3329    1.5745   -0.9566 C   0  0  0  0  0  0  0  0  0  0  0  0
    3.4998   -0.0451   -2.5226 N   0  0  0  0  0  0  0  0  0  0  0  0
    3.0940   -0.6464   -3.6608 C   0  0  0  0  0  0  0  0  0  0  0  0
    3.6026    0.0063   -4.8975 C   0  0  0  0  0  0  0  0  0  0  0  0
    3.8850   -0.7095   -6.0729 C   0  0  0  0  0  0  0  0  0  0  0  0
    4.3159   -0.0747   -7.2413 C   0  0  0  0  0  0  0  0  0  0  0  0
    4.5238    1.2982   -7.2528 C   0  0  0  0  0  0  0  0  0  0  0  0
    4.3036    2.0346   -6.0941 C   0  0  0  0  0  0  0  0  0  0  0  0
    3.8492    1.3972   -4.9322 C   0  0  0  0  0  0  0  0  0  0  0  0
    1.3127   -3.0687   -2.1898 H   0  0  0  0  0  0  0  0  0  0  0  0
    3.0616   -0.2457    0.6559 H   0  0  0  0  0  0  0  0  0  0  0  0
    3.4061    1.9111    1.8100 H   0  0  0  0  0  0  0  0  0  0  0  0
    4.6593    4.0114    1.9571 H   0  0  0  0  0  0  0  0  0  0  0  0
    5.8053    5.7897    0.0526 H   0  0  0  0  0  0  0  0  0  0  0  0
    7.2016    5.0556   -0.7104 H   0  0  0  0  0  0  0  0  0  0  0  0
    8.1247    4.4067    1.5212 H   0  0  0  0  0  0  0  0  0  0  0  0
    6.7232    5.1874    2.3047 H   0  0  0  0  0  0  0  0  0  0  0  0
   10.0468    5.8268    3.8158 H   0  0  0  0  0  0  0  0  0  0  0  0
    8.4577    5.0724    3.6577 H   0  0  0  0  0  0  0  0  0  0  0  0
    8.7520    6.1802    5.8946 H   0  0  0  0  0  0  0  0  0  0  0  0
    7.4141    6.9118    4.9934 H   0  0  0  0  0  0  0  0  0  0  0  0
    9.3678    9.8329    4.1364 H   0  0  0  0  0  0  0  0  0  0  0  0
    7.7903    9.0533    3.9233 H   0  0  0  0  0  0  0  0  0  0  0  0
   10.4703    8.0648    2.7590 H   0  0  0  0  0  0  0  0  0  0  0  0
    9.1687    8.8405    1.8333 H   0  0  0  0  0  0  0  0  0  0  0  0
    6.7607    2.9990   -1.6709 H   0  0  0  0  0  0  0  0  0  0  0  0
    5.5413    0.9182   -1.7974 H   0  0  0  0  0  0  0  0  0  0  0  0
    3.7879   -1.7904   -6.1171 H   0  0  0  0  0  0  0  0  0  0  0  0
    4.4885   -0.6642   -8.1381 H   0  0  0  0  0  0  0  0  0  0  0  0
    4.8648    1.7877   -8.1608 H   0  0  0  0  0  0  0  0  0  0  0  0
    4.4804    3.1076   -6.0925 H   0  0  0  0  0  0  0  0  0  0  0  0
    3.6856    2.0061   -4.0424 H   0  0  0  0  0  0  0  0  0  0  0  0
  1  2  3  0  0  0  0
  2  3  1  0  0  0  0
  3  4  1  0  0  0  0
  3 25  2  0  0  0  0
  4  5  2  0  0  0  0
  4 32  1  0  0  0  0
  5  6  1  0  0  0  0
  6  7  1  0  0  0  0
  6 24  2  0  0  0  0
  7  8  1  0  0  0  0
  7 33  1  0  0  0  0
  8  9  1  0  0  0  0
  8 23  2  0  0  0  0
  9 10  2  0  0  0  0
  9 34  1  0  0  0  0
 10 11  1  0  0  0  0
 10 35  1  0  0  0  0
 11 12  1  0  0  0  0
 11 22  2  0  0  0  0
 12 13  1  0  0  0  0
 12 36  1  0  0  0  0
 12 37  1  0  0  0  0
 13 14  1  0  0  0  0
 13 38  1  0  0  0  0
 13 39  1  0  0  0  0
 14 15  2  0  0  0  0
 14 16  1  0  0  0  0
 16 17  1  0  0  0  0
 16 21  1  0  0  0  0
 17 18  1  0  0  0  0
 17 40  1  0  0  0  0
 17 41  1  0  0  0  0
 18 19  1  0  0  0  0
 18 42  1  0  0  0  0
 18 43  1  0  0  0  0
 19 20  1  0  0  0  0
 20 21  1  0  0  0  0
 20 44  1  0  0  0  0
 20 45  1  0  0  0  0
 21 46  1  0  0  0  0
 21 47  1  0  0  0  0
 22 23  1  0  0  0  0
 22 48  1  0  0  0  0
 23 49  1  0  0  0  0
 24 25  1  0  0  0  0
 25 26  1  0  0  0  0
 26 27  1  0  0  0  0
 26 31  2  0  0  0  0
 27 28  2  0  0  0  0
 27 50  1  0  0  0  0
 28 29  1  0  0  0  0
 28 51  1  0  0  0  0
 29 30  2  0  0  0  0
 29 52  1  0  0  0  0
 30 31  1  0  0  0  0
 30 53  1  0  0  0  0
 31 54  1  0  0  0  0
M  END
$$$$
