CHEMBL272902
 OpenBabel04072215363D

 46 48  0  0  0  0  0  0  0  0999 V2000
    2.5220    0.1911   -0.0704 C   0  0  0  0  0  0  0  0  0  0  0  0
    1.0272    0.0489    0.0066 C   0  0  0  0  0  0  0  0  0  0  0  0
    0.2632    1.2305    0.0816 C   0  0  0  0  0  0  0  0  0  0  0  0
   -1.1325    1.1915    0.1053 C   0  0  0  0  0  0  0  0  0  0  0  0
   -1.8014   -0.0333    0.0777 C   0  0  0  0  0  0  0  0  0  0  0  0
   -3.2912   -0.0361    0.0786 C   0  0  0  0  0  0  0  0  0  0  0  0
   -3.8662    0.9069   -0.4528 O   0  0  0  0  0  0  0  0  0  0  0  0
   -3.8840   -1.0888    0.7576 N   0  0  0  0  0  0  0  0  0  0  0  0
   -5.2718   -1.3056    0.9049 C   0  0  0  0  0  0  0  0  0  0  0  0
   -6.2348   -0.6727    0.1176 C   0  0  0  0  0  0  0  0  0  0  0  0
   -7.5953   -0.8941    0.3415 C   0  0  0  0  0  0  0  0  0  0  0  0
   -8.0082   -1.7455    1.3633 C   0  0  0  0  0  0  0  0  0  0  0  0
   -7.0608   -2.4038    2.1580 C   0  0  0  0  0  0  0  0  0  0  0  0
   -7.4895   -3.3004    3.2924 C   0  0  0  0  0  0  0  0  0  0  0  0
   -8.8382   -3.3465    3.4762 F   0  0  0  0  0  0  0  0  0  0  0  0
   -7.0907   -4.5905    3.1176 F   0  0  0  0  0  0  0  0  0  0  0  0
   -6.9650   -2.9081    4.4874 F   0  0  0  0  0  0  0  0  0  0  0  0
   -5.6918   -2.1960    1.9018 C   0  0  0  0  0  0  0  0  0  0  0  0
   -1.0614   -1.2153    0.0004 C   0  0  0  0  0  0  0  0  0  0  0  0
    0.3488   -1.1870   -0.0281 C   0  0  0  0  0  0  0  0  0  0  0  0
    0.9932   -2.5231   -0.1874 C   0  0  0  0  0  0  0  0  0  0  0  0
    0.4301   -3.3433   -0.9071 O   0  0  0  0  0  0  0  0  0  0  0  0
    2.1268   -2.7789    0.5627 N   0  0  0  0  0  0  0  0  0  0  0  0
    2.8348   -4.0061    0.5743 C   0  0  0  0  0  0  0  0  0  0  0  0
    2.6268   -5.0762   -0.2738 C   0  0  0  0  0  0  0  0  0  0  0  0
    3.3176   -6.2408   -0.2085 N   0  0  0  0  0  0  0  0  0  0  0  0
    4.2587   -6.3310    0.7328 C   0  0  0  0  0  0  0  0  0  0  0  0
    4.9381   -7.5251    0.8401 N   0  0  0  0  0  0  0  0  0  0  0  0
    4.5506   -5.3706    1.6108 N   0  0  0  0  0  0  0  0  0  0  0  0
    3.8360   -4.2236    1.5003 C   0  0  0  0  0  0  0  0  0  0  0  0
    2.8123    1.2284   -0.2756 H   0  0  0  0  0  0  0  0  0  0  0  0
    2.9332   -0.4188   -0.8799 H   0  0  0  0  0  0  0  0  0  0  0  0
    2.9824   -0.0855    0.8823 H   0  0  0  0  0  0  0  0  0  0  0  0
    0.7516    2.2052    0.0886 H   0  0  0  0  0  0  0  0  0  0  0  0
   -1.6977    2.1221    0.1308 H   0  0  0  0  0  0  0  0  0  0  0  0
   -3.2817   -1.6771    1.3183 H   0  0  0  0  0  0  0  0  0  0  0  0
   -5.9551   -0.0043   -0.6917 H   0  0  0  0  0  0  0  0  0  0  0  0
   -8.3309   -0.3878   -0.2794 H   0  0  0  0  0  0  0  0  0  0  0  0
   -9.0736   -1.8864    1.5397 H   0  0  0  0  0  0  0  0  0  0  0  0
   -4.9599   -2.7115    2.5216 H   0  0  0  0  0  0  0  0  0  0  0  0
   -1.5744   -2.1718   -0.0884 H   0  0  0  0  0  0  0  0  0  0  0  0
    2.4120   -2.0831    1.2385 H   0  0  0  0  0  0  0  0  0  0  0  0
    1.8920   -5.0598   -1.0704 H   0  0  0  0  0  0  0  0  0  0  0  0
    4.3796   -8.2641    0.4325 H   0  0  0  0  0  0  0  0  0  0  0  0
    5.2553   -7.6548    1.7901 H   0  0  0  0  0  0  0  0  0  0  0  0
    4.1113   -3.4662    2.2310 H   0  0  0  0  0  0  0  0  0  0  0  0
  1  2  1  0  0  0  0
  1 31  1  0  0  0  0
  1 32  1  0  0  0  0
  1 33  1  0  0  0  0
  2  3  1  0  0  0  0
  2 20  2  0  0  0  0
  3  4  2  0  0  0  0
  3 34  1  0  0  0  0
  4  5  1  0  0  0  0
  4 35  1  0  0  0  0
  5  6  1  0  0  0  0
  5 19  2  0  0  0  0
  6  7  2  0  0  0  0
  6  8  1  0  0  0  0
  8  9  1  0  0  0  0
  8 36  1  0  0  0  0
  9 10  1  0  0  0  0
  9 18  2  0  0  0  0
 10 11  2  0  0  0  0
 10 37  1  0  0  0  0
 11 12  1  0  0  0  0
 11 38  1  0  0  0  0
 12 13  2  0  0  0  0
 12 39  1  0  0  0  0
 13 14  1  0  0  0  0
 13 18  1  0  0  0  0
 14 15  1  0  0  0  0
 14 16  1  0  0  0  0
 14 17  1  0  0  0  0
 18 40  1  0  0  0  0
 19 20  1  0  0  0  0
 19 41  1  0  0  0  0
 20 21  1  0  0  0  0
 21 22  2  0  0  0  0
 21 23  1  0  0  0  0
 23 24  1  0  0  0  0
 23 42  1  0  0  0  0
 24 25  1  0  0  0  0
 24 30  2  0  0  0  0
 25 26  2  0  0  0  0
 25 43  1  0  0  0  0
 26 27  1  0  0  0  0
 27 28  1  0  0  0  0
 27 29  2  0  0  0  0
 28 44  1  0  0  0  0
 28 45  1  0  0  0  0
 29 30  1  0  0  0  0
 30 46  1  0  0  0  0
M  END
$$$$
