CHEMBL515625
 OpenBabel04072215383D

 42 45  0  0  0  0  0  0  0  0999 V2000
    3.2770   -0.7808    1.0742 C   0  0  0  0  0  0  0  0  0  0  0  0
    2.4154    0.0728    0.3134 O   0  0  0  0  0  0  0  0  0  0  0  0
    3.0414    0.8414   -0.6308 C   0  0  0  0  0  0  0  0  0  0  0  0
    4.1833    0.3711   -1.3011 C   0  0  0  0  0  0  0  0  0  0  0  0
    4.9368    1.1788   -2.1341 C   0  0  0  0  0  0  0  0  0  0  0  0
    6.0824    0.6855   -2.6274 N   0  0  0  0  0  0  0  0  0  0  0  0
    6.8164    1.5215   -3.3611 C   0  0  0  0  0  0  0  0  0  0  0  0
    6.5076    2.7864   -3.6474 N   0  0  0  0  0  0  0  0  0  0  0  0
    5.3430    3.2669   -3.1749 C   0  0  0  0  0  0  0  0  0  0  0  0
    4.9713    4.6153   -3.4564 N   0  0  0  0  0  0  0  0  0  0  0  0
    5.6396    5.5192   -4.3183 C   0  0  0  0  0  0  0  0  0  0  0  0
    6.3551    5.0720   -5.4358 C   0  0  0  0  0  0  0  0  0  0  0  0
    7.0708    5.9465   -6.2587 C   0  0  0  0  0  0  0  0  0  0  0  0
    7.0182    7.3185   -5.9830 C   0  0  0  0  0  0  0  0  0  0  0  0
    7.6193    8.4858   -6.5154 C   0  0  0  0  0  0  0  0  0  0  0  0
    8.6234    8.5716   -7.6034 C   0  0  0  0  0  0  0  0  0  0  0  0
    7.1927    9.5935   -5.8967 N   0  0  0  0  0  0  0  0  0  0  0  0
    6.3402    9.1304   -4.9649 N   0  0  0  0  0  0  0  0  0  0  0  0
    6.2200    7.7677   -4.9393 C   0  0  0  0  0  0  0  0  0  0  0  0
    5.5033    6.9031   -4.0996 C   0  0  0  0  0  0  0  0  0  0  0  0
    4.4936    2.4805   -2.3896 C   0  0  0  0  0  0  0  0  0  0  0  0
    3.2653    2.9038   -1.8432 C   0  0  0  0  0  0  0  0  0  0  0  0
    2.5454    2.1100   -0.9453 C   0  0  0  0  0  0  0  0  0  0  0  0
    1.4419    2.7670   -0.4835 O   0  0  0  0  0  0  0  0  0  0  0  0
    0.6499    2.1918    0.5394 C   0  0  0  0  0  0  0  0  0  0  0  0
    2.9238   -0.7884    2.1090 H   0  0  0  0  0  0  0  0  0  0  0  0
    4.3218   -0.4460    1.1016 H   0  0  0  0  0  0  0  0  0  0  0  0
    3.2200   -1.7996    0.6785 H   0  0  0  0  0  0  0  0  0  0  0  0
    4.5368   -0.6460   -1.1482 H   0  0  0  0  0  0  0  0  0  0  0  0
    7.7532    1.1443   -3.7552 H   0  0  0  0  0  0  0  0  0  0  0  0
    4.6979    5.0724   -2.5922 H   0  0  0  0  0  0  0  0  0  0  0  0
    6.3949    4.0130   -5.6751 H   0  0  0  0  0  0  0  0  0  0  0  0
    7.6584    5.5552   -7.0825 H   0  0  0  0  0  0  0  0  0  0  0  0
    8.9457    7.5764   -7.9270 H   0  0  0  0  0  0  0  0  0  0  0  0
    9.5122    9.1100   -7.2597 H   0  0  0  0  0  0  0  0  0  0  0  0
    8.2095    9.0922   -8.4714 H   0  0  0  0  0  0  0  0  0  0  0  0
    5.8843    9.8012   -4.3583 H   0  0  0  0  0  0  0  0  0  0  0  0
    4.8992    7.2928   -3.2873 H   0  0  0  0  0  0  0  0  0  0  0  0
    2.8680    3.8851   -2.0901 H   0  0  0  0  0  0  0  0  0  0  0  0
   -0.0248    2.9776    0.8968 H   0  0  0  0  0  0  0  0  0  0  0  0
    1.2465    1.8770    1.3990 H   0  0  0  0  0  0  0  0  0  0  0  0
    0.0334    1.3807    0.1425 H   0  0  0  0  0  0  0  0  0  0  0  0
  1  2  1  0  0  0  0
  1 26  1  0  0  0  0
  1 27  1  0  0  0  0
  1 28  1  0  0  0  0
  2  3  1  0  0  0  0
  3  4  1  0  0  0  0
  3 23  2  0  0  0  0
  4  5  2  0  0  0  0
  4 29  1  0  0  0  0
  5  6  1  0  0  0  0
  5 21  1  0  0  0  0
  6  7  2  0  0  0  0
  7  8  1  0  0  0  0
  7 30  1  0  0  0  0
  8  9  2  0  0  0  0
  9 10  1  0  0  0  0
  9 21  1  0  0  0  0
 10 11  1  0  0  0  0
 10 31  1  0  0  0  0
 11 12  1  0  0  0  0
 11 20  2  0  0  0  0
 12 13  2  0  0  0  0
 12 32  1  0  0  0  0
 13 14  1  0  0  0  0
 13 33  1  0  0  0  0
 14 15  1  0  0  0  0
 14 19  2  0  0  0  0
 15 16  1  0  0  0  0
 15 17  2  0  0  0  0
 16 34  1  0  0  0  0
 16 35  1  0  0  0  0
 16 36  1  0  0  0  0
 17 18  1  0  0  0  0
 18 19  1  0  0  0  0
 18 37  1  0  0  0  0
 19 20  1  0  0  0  0
 20 38  1  0  0  0  0
 21 22  2  0  0  0  0
 22 23  1  0  0  0  0
 22 39  1  0  0  0  0
 23 24  1  0  0  0  0
 24 25  1  0  0  0  0
 25 40  1  0  0  0  0
 25 41  1  0  0  0  0
 25 42  1  0  0  0  0
M  END
$$$$
