CHEMBL3904954
 OpenBabel04072215373D

 74 78  0  0  1  0  0  0  0  0999 V2000
    2.7200    7.3814    3.5522 C   0  0  0  0  0  0  0  0  0  0  0  0
    1.6285    6.4047    3.2115 C   0  0  0  0  0  0  0  0  0  0  0  0
    1.9741    5.1445    2.7167 C   0  0  0  0  0  0  0  0  0  0  0  0
    0.9803    4.2282    2.4082 C   0  0  0  0  0  0  0  0  0  0  0  0
   -0.3611    4.5569    2.5792 C   0  0  0  0  0  0  0  0  0  0  0  0
   -1.2348    3.5643    2.3768 F   0  0  0  0  0  0  0  0  0  0  0  0
   -0.7581    5.8292    3.0338 C   0  0  0  0  0  0  0  0  0  0  0  0
   -2.1151    6.2563    3.1735 N   0  0  0  0  0  0  0  0  0  0  0  0
   -3.1995    5.6700    2.5333 C   0  0  0  0  0  0  0  0  0  0  0  0
   -3.1309    4.7354    1.7431 O   0  0  0  0  0  0  0  0  0  0  0  0
   -4.4127    6.3033    2.8122 N   0  0  0  0  0  0  0  0  0  0  0  0
   -5.5934    5.7557    2.2340 C   0  0  0  0  0  0  0  0  0  0  0  0
   -5.9038    4.4088    2.4388 C   0  0  0  0  0  0  0  0  0  0  0  0
   -6.9929    3.8246    1.7922 C   0  0  0  0  0  0  0  0  0  0  0  0
   -7.8369    4.5979    0.9912 C   0  0  0  0  0  0  0  0  0  0  0  0
   -8.9706    4.1013    0.3738 O   0  0  0  0  0  0  0  0  0  0  0  0
   -9.7106    3.1229    1.0229 C   0  0  0  0  0  0  0  0  0  0  0  0
   -9.8044    3.0436    2.4146 C   0  0  0  0  0  0  0  0  0  0  0  0
  -10.4694    1.9819    2.9902 C   0  0  0  0  0  0  0  0  0  0  0  0
  -11.1269    1.0289    2.3142 N   0  0  0  0  0  0  0  0  0  0  0  0
  -11.1268    1.1555    0.9608 C   0  0  0  0  0  0  0  0  0  0  0  0
  -11.7996    0.2702    0.0744 C   0  0  0  0  0  0  0  0  0  0  0  0
  -11.6397    0.6053   -1.2550 C   0  0  0  0  0  0  0  0  0  0  0  0
  -12.1982   -0.0993   -2.3955 C   0  0  0  0  0  0  0  0  0  0  0  0
  -12.9096   -1.1020   -2.2795 O   0  0  0  0  0  0  0  0  0  0  0  0
  -11.9026    0.4292   -3.6327 N   0  0  0  0  0  0  0  0  0  0  0  0
  -12.4092   -0.0957   -4.8841 C   0  0  0  0  0  0  0  0  0  0  0  0
  -13.2770    0.9600   -5.5755 C   0  0  0  0  0  0  0  0  0  0  0  0
  -13.8180    0.4664   -6.9201 C   0  0  0  0  0  0  0  0  0  0  0  0
  -14.6470    1.4417   -7.6424 N   0  0  0  0  0  0  0  0  0  0  0  0
  -15.8654    1.9100   -6.9542 C   0  0  0  0  0  0  0  0  0  0  0  0
  -17.0668    0.9508   -7.0174 C   0  0  0  0  0  0  0  0  0  0  0  0
  -17.3784    0.5301   -8.3511 O   0  0  0  0  0  0  0  0  0  0  0  0
  -16.2368   -0.0037   -9.0540 C   0  0  3  0  0  0  0  0  0  0  0  0
  -15.9157   -1.4287   -8.5788 C   0  0  0  0  0  0  0  0  0  0  0  0
  -17.0062   -2.3097   -8.8452 O   0  0  0  0  0  0  0  0  0  0  0  0
  -15.0420    0.9801   -8.9927 C   0  0  0  0  0  0  0  0  0  0  0  0
  -10.6666    2.0122   -1.4140 S   0  0  0  0  0  0  0  0  0  0  0  0
  -10.4450    2.1716    0.2868 C   0  0  0  0  0  0  0  0  0  0  0  0
   -7.5195    5.9410    0.7668 C   0  0  0  0  0  0  0  0  0  0  0  0
   -6.4102    6.5272    1.4028 C   0  0  0  0  0  0  0  0  0  0  0  0
    0.2647    6.7401    3.3701 C   0  0  0  0  0  0  0  0  0  0  0  0
    3.7107    6.9440    3.3759 H   0  0  0  0  0  0  0  0  0  0  0  0
    2.6676    7.6552    4.6099 H   0  0  0  0  0  0  0  0  0  0  0  0
    2.6432    8.2793    2.9321 H   0  0  0  0  0  0  0  0  0  0  0  0
    3.0168    4.8641    2.5746 H   0  0  0  0  0  0  0  0  0  0  0  0
    1.2329    3.2367    2.0434 H   0  0  0  0  0  0  0  0  0  0  0  0
   -2.2795    7.1162    3.6677 H   0  0  0  0  0  0  0  0  0  0  0  0
   -4.3608    7.3103    2.8422 H   0  0  0  0  0  0  0  0  0  0  0  0
   -5.2866    3.7939    3.0896 H   0  0  0  0  0  0  0  0  0  0  0  0
   -7.1715    2.7633    1.9416 H   0  0  0  0  0  0  0  0  0  0  0  0
   -9.3225    3.7712    3.0587 H   0  0  0  0  0  0  0  0  0  0  0  0
  -10.4725    1.8643    4.0709 H   0  0  0  0  0  0  0  0  0  0  0  0
  -12.3744   -0.5875    0.4050 H   0  0  0  0  0  0  0  0  0  0  0  0
  -11.3423    1.2779   -3.6551 H   0  0  0  0  0  0  0  0  0  0  0  0
  -12.9814   -1.0097   -4.7068 H   0  0  0  0  0  0  0  0  0  0  0  0
  -11.5404   -0.3550   -5.4966 H   0  0  0  0  0  0  0  0  0  0  0  0
  -12.6942    1.8760   -5.7231 H   0  0  0  0  0  0  0  0  0  0  0  0
  -14.1019    1.2025   -4.8985 H   0  0  0  0  0  0  0  0  0  0  0  0
  -14.3431   -0.4659   -6.7310 H   0  0  0  0  0  0  0  0  0  0  0  0
  -12.9559    0.2193   -7.5549 H   0  0  0  0  0  0  0  0  0  0  0  0
  -16.1629    2.8439   -7.4511 H   0  0  0  0  0  0  0  0  0  0  0  0
  -15.6697    2.1943   -5.9166 H   0  0  0  0  0  0  0  0  0  0  0  0
  -17.9552    1.4695   -6.6394 H   0  0  0  0  0  0  0  0  0  0  0  0
  -16.9149    0.0721   -6.3845 H   0  0  0  0  0  0  0  0  0  0  0  0
  -16.5579   -0.0762  -10.1007 H   0  0  0  0  0  0  0  0  0  0  0  0
  -15.7630   -1.4940   -7.5036 H   0  0  0  0  0  0  0  0  0  0  0  0
  -15.0282   -1.8171   -9.0870 H   0  0  0  0  0  0  0  0  0  0  0  0
  -17.7675   -1.9402   -8.3591 H   0  0  0  0  0  0  0  0  0  0  0  0
  -15.3428    1.8835   -9.5443 H   0  0  0  0  0  0  0  0  0  0  0  0
  -14.1793    0.5825   -9.5395 H   0  0  0  0  0  0  0  0  0  0  0  0
   -8.1251    6.5308    0.0825 H   0  0  0  0  0  0  0  0  0  0  0  0
   -6.1613    7.5601    1.1781 H   0  0  0  0  0  0  0  0  0  0  0  0
    0.0121    7.7331    3.7352 H   0  0  0  0  0  0  0  0  0  0  0  0
  1  2  1  0  0  0  0
  1 43  1  0  0  0  0
  1 44  1  0  0  0  0
  1 45  1  0  0  0  0
  2  3  1  0  0  0  0
  2 42  2  0  0  0  0
  3  4  2  0  0  0  0
  3 46  1  0  0  0  0
  4  5  1  0  0  0  0
  4 47  1  0  0  0  0
  5  6  1  0  0  0  0
  5  7  2  0  0  0  0
  7  8  1  0  0  0  0
  7 42  1  0  0  0  0
  8  9  1  0  0  0  0
  8 48  1  0  0  0  0
  9 10  2  0  0  0  0
  9 11  1  0  0  0  0
 11 12  1  0  0  0  0
 11 49  1  0  0  0  0
 12 13  1  0  0  0  0
 12 41  2  0  0  0  0
 13 14  2  0  0  0  0
 13 50  1  0  0  0  0
 14 15  1  0  0  0  0
 14 51  1  0  0  0  0
 15 16  1  0  0  0  0
 15 40  2  0  0  0  0
 16 17  1  0  0  0  0
 17 18  1  0  0  0  0
 17 39  2  0  0  0  0
 18 19  2  0  0  0  0
 18 52  1  0  0  0  0
 19 20  1  0  0  0  0
 19 53  1  0  0  0  0
 20 21  2  0  0  0  0
 21 22  1  0  0  0  0
 21 39  1  0  0  0  0
 22 23  2  0  0  0  0
 22 54  1  0  0  0  0
 23 24  1  0  0  0  0
 23 38  1  0  0  0  0
 24 25  2  0  0  0  0
 24 26  1  0  0  0  0
 26 27  1  0  0  0  0
 26 55  1  0  0  0  0
 27 28  1  0  0  0  0
 27 56  1  0  0  0  0
 27 57  1  0  0  0  0
 28 29  1  0  0  0  0
 28 58  1  0  0  0  0
 28 59  1  0  0  0  0
 29 30  1  0  0  0  0
 29 60  1  0  0  0  0
 29 61  1  0  0  0  0
 30 31  1  0  0  0  0
 30 37  1  0  0  0  0
 31 32  1  0  0  0  0
 31 62  1  0  0  0  0
 31 63  1  0  0  0  0
 32 33  1  0  0  0  0
 32 64  1  0  0  0  0
 32 65  1  0  0  0  0
 33 34  1  0  0  0  0
 34 35  1  0  0  0  0
 34 37  1  0  0  0  0
 34 66  1  0  0  0  0
 35 36  1  0  0  0  0
 35 67  1  0  0  0  0
 35 68  1  0  0  0  0
 36 69  1  0  0  0  0
 37 70  1  0  0  0  0
 37 71  1  0  0  0  0
 38 39  1  0  0  0  0
 40 41  1  0  0  0  0
 40 72  1  0  0  0  0
 41 73  1  0  0  0  0
 42 74  1  0  0  0  0
M  END
$$$$
