CHEMBL182904
 OpenBabel04072215363D

 34 37  0  0  0  0  0  0  0  0999 V2000
    1.4997   -1.4183   -0.4468 O   0  0  0  0  0  0  0  0  0  0  0  0
    2.4144   -0.6542   -0.1747 C   0  0  0  0  0  0  0  0  0  0  0  0
    2.8483   -0.2775    1.0734 N   0  0  0  0  0  0  0  0  0  0  0  0
    2.2853   -0.7192    2.2798 C   0  0  0  0  0  0  0  0  0  0  0  0
    1.2439   -1.5724    2.3041 N   0  0  0  0  0  0  0  0  0  0  0  0
    0.7276   -1.9447    3.4875 C   0  0  0  0  0  0  0  0  0  0  0  0
    1.1263   -1.5677    4.7076 N   0  0  0  0  0  0  0  0  0  0  0  0
    2.1613   -0.7215    4.6411 C   0  0  0  0  0  0  0  0  0  0  0  0
    2.7403   -0.1728    5.7452 O   0  0  0  0  0  0  0  0  0  0  0  0
    3.7442    0.6516    5.3228 C   0  0  0  0  0  0  0  0  0  0  0  0
    4.4758    1.3771    6.3586 C   0  0  0  0  0  0  0  0  0  0  0  0
    4.1299    1.2709    7.7154 C   0  0  0  0  0  0  0  0  0  0  0  0
    4.8331    1.9831    8.6942 C   0  0  0  0  0  0  0  0  0  0  0  0
    5.8908    2.8087    8.3243 C   0  0  0  0  0  0  0  0  0  0  0  0
    6.7611    3.6818    9.5232 Cl  0  0  0  0  0  0  0  0  0  0  0  0
    6.2484    2.9316    6.9854 C   0  0  0  0  0  0  0  0  0  0  0  0
    5.5442    2.2193    6.0097 C   0  0  0  0  0  0  0  0  0  0  0  0
    3.8242    0.6107    3.9431 C   0  0  0  0  0  0  0  0  0  0  0  0
    2.7930   -0.2573    3.4972 C   0  0  0  0  0  0  0  0  0  0  0  0
    3.1741    0.0079   -1.2837 C   0  0  0  0  0  0  0  0  0  0  0  0
    2.4263    0.8575   -2.2863 C   0  0  0  0  0  0  0  0  0  0  0  0
    2.9987   -0.4635   -2.7104 C   0  0  0  0  0  0  0  0  0  0  0  0
    3.6076    0.3825    1.1356 H   0  0  0  0  0  0  0  0  0  0  0  0
   -0.1153   -2.6284    3.4424 H   0  0  0  0  0  0  0  0  0  0  0  0
    3.3034    0.6340    8.0270 H   0  0  0  0  0  0  0  0  0  0  0  0
    4.5473    1.8879    9.7385 H   0  0  0  0  0  0  0  0  0  0  0  0
    7.0707    3.5783    6.6915 H   0  0  0  0  0  0  0  0  0  0  0  0
    5.8454    2.3375    4.9721 H   0  0  0  0  0  0  0  0  0  0  0  0
    4.5271    1.1585    3.3339 H   0  0  0  0  0  0  0  0  0  0  0  0
    4.1759    0.3375   -1.0255 H   0  0  0  0  0  0  0  0  0  0  0  0
    2.9020    1.7567   -2.6589 H   0  0  0  0  0  0  0  0  0  0  0  0
    1.3469    0.9293   -2.1966 H   0  0  0  0  0  0  0  0  0  0  0  0
    3.8664   -0.4628   -3.3585 H   0  0  0  0  0  0  0  0  0  0  0  0
    2.3067   -1.2778   -2.9016 H   0  0  0  0  0  0  0  0  0  0  0  0
  1  2  2  0  0  0  0
  2  3  1  0  0  0  0
  2 20  1  0  0  0  0
  3  4  1  0  0  0  0
  3 23  1  0  0  0  0
  4  5  1  0  0  0  0
  4 19  2  0  0  0  0
  5  6  2  0  0  0  0
  6  7  1  0  0  0  0
  6 24  1  0  0  0  0
  7  8  2  0  0  0  0
  8  9  1  0  0  0  0
  8 19  1  0  0  0  0
  9 10  1  0  0  0  0
 10 11  1  0  0  0  0
 10 18  2  0  0  0  0
 11 12  1  0  0  0  0
 11 17  2  0  0  0  0
 12 13  2  0  0  0  0
 12 25  1  0  0  0  0
 13 14  1  0  0  0  0
 13 26  1  0  0  0  0
 14 15  1  0  0  0  0
 14 16  2  0  0  0  0
 16 17  1  0  0  0  0
 16 27  1  0  0  0  0
 17 28  1  0  0  0  0
 18 19  1  0  0  0  0
 18 29  1  0  0  0  0
 20 21  1  0  0  0  0
 20 22  1  0  0  0  0
 20 30  1  0  0  0  0
 21 22  1  0  0  0  0
 21 31  1  0  0  0  0
 21 32  1  0  0  0  0
 22 33  1  0  0  0  0
 22 34  1  0  0  0  0
M  END
$$$$
