CHEMBL363389
 OpenBabel04072215373D

 43 46  0  0  0  0  0  0  0  0999 V2000
    1.4604   -0.1354    0.6568 C   0  0  0  0  0  0  0  0  0  0  0  0
    2.5763    0.3482   -0.0807 O   0  0  0  0  0  0  0  0  0  0  0  0
    3.1534   -0.5224   -0.9618 C   0  0  0  0  0  0  0  0  0  0  0  0
    2.6678   -1.7830   -1.3030 C   0  0  0  0  0  0  0  0  0  0  0  0
    3.3520   -2.5743   -2.2341 C   0  0  0  0  0  0  0  0  0  0  0  0
    4.5733   -2.1576   -2.7742 C   0  0  0  0  0  0  0  0  0  0  0  0
    5.3208   -3.0269   -3.6793 C   0  0  0  0  0  0  0  0  0  0  0  0
    5.9068   -2.5939   -4.8669 C   0  0  0  0  0  0  0  0  0  0  0  0
    5.9262   -1.3505   -5.6339 C   0  0  0  0  0  0  0  0  0  0  0  0
    7.0753   -0.9306   -6.3174 C   0  0  0  0  0  0  0  0  0  0  0  0
    7.0694    0.2563   -7.0566 C   0  0  0  0  0  0  0  0  0  0  0  0
    5.9074    1.0244   -7.1364 C   0  0  0  0  0  0  0  0  0  0  0  0
    4.7469    0.6042   -6.4813 C   0  0  0  0  0  0  0  0  0  0  0  0
    3.5084    1.4211   -6.5991 C   0  0  0  0  0  0  0  0  0  0  0  0
    2.3174    0.8061   -6.3439 N   0  0  0  0  0  0  0  0  0  0  0  0
    3.5456    2.5964   -6.9452 O   0  0  0  0  0  0  0  0  0  0  0  0
    4.7663   -0.5717   -5.7234 C   0  0  0  0  0  0  0  0  0  0  0  0
    6.5454   -3.6273   -5.4793 O   0  0  0  0  0  0  0  0  0  0  0  0
    6.3397   -4.7398   -4.7346 C   0  0  0  0  0  0  0  0  0  0  0  0
    6.8153   -5.9345   -5.1130 N   0  0  0  0  0  0  0  0  0  0  0  0
    6.4712   -6.8892   -4.2484 C   0  0  0  0  0  0  0  0  0  0  0  0
    5.7572   -6.7534   -3.1186 N   0  0  0  0  0  0  0  0  0  0  0  0
    5.3205   -5.5287   -2.7599 C   0  0  0  0  0  0  0  0  0  0  0  0
    4.6310   -5.4857   -1.5728 N   0  0  0  0  0  0  0  0  0  0  0  0
    5.5917   -4.4402   -3.6045 C   0  0  0  0  0  0  0  0  0  0  0  0
    5.0488   -0.8839   -2.4325 C   0  0  0  0  0  0  0  0  0  0  0  0
    4.3274   -0.0642   -1.5586 C   0  0  0  0  0  0  0  0  0  0  0  0
    1.1434    0.6543    1.3443 H   0  0  0  0  0  0  0  0  0  0  0  0
    1.7327   -1.0109    1.2563 H   0  0  0  0  0  0  0  0  0  0  0  0
    0.6183   -0.3575   -0.0067 H   0  0  0  0  0  0  0  0  0  0  0  0
    1.7549   -2.1789   -0.8704 H   0  0  0  0  0  0  0  0  0  0  0  0
    2.9122   -3.5255   -2.5259 H   0  0  0  0  0  0  0  0  0  0  0  0
    7.9875   -1.5241   -6.2766 H   0  0  0  0  0  0  0  0  0  0  0  0
    7.9693    0.5779   -7.5769 H   0  0  0  0  0  0  0  0  0  0  0  0
    5.9053    1.9454   -7.7170 H   0  0  0  0  0  0  0  0  0  0  0  0
    2.2151   -0.1980   -6.2707 H   0  0  0  0  0  0  0  0  0  0  0  0
    1.4819    1.3468   -6.5128 H   0  0  0  0  0  0  0  0  0  0  0  0
    3.8787   -0.8802   -5.1834 H   0  0  0  0  0  0  0  0  0  0  0  0
    6.8080   -7.8947   -4.4826 H   0  0  0  0  0  0  0  0  0  0  0  0
    4.3551   -6.3880   -1.2073 H   0  0  0  0  0  0  0  0  0  0  0  0
    4.1889   -4.6522   -1.2299 H   0  0  0  0  0  0  0  0  0  0  0  0
    5.9787   -0.4996   -2.8471 H   0  0  0  0  0  0  0  0  0  0  0  0
    4.6939    0.9349   -1.3320 H   0  0  0  0  0  0  0  0  0  0  0  0
  1  2  1  0  0  0  0
  1 28  1  0  0  0  0
  1 29  1  0  0  0  0
  1 30  1  0  0  0  0
  2  3  1  0  0  0  0
  3  4  1  0  0  0  0
  3 27  2  0  0  0  0
  4  5  2  0  0  0  0
  4 31  1  0  0  0  0
  5  6  1  0  0  0  0
  5 32  1  0  0  0  0
  6  7  1  0  0  0  0
  6 26  2  0  0  0  0
  7  8  2  0  0  0  0
  7 25  1  0  0  0  0
  8  9  1  0  0  0  0
  8 18  1  0  0  0  0
  9 10  1  0  0  0  0
  9 17  2  0  0  0  0
 10 11  2  0  0  0  0
 10 33  1  0  0  0  0
 11 12  1  0  0  0  0
 11 34  1  0  0  0  0
 12 13  2  0  0  0  0
 12 35  1  0  0  0  0
 13 14  1  0  0  0  0
 13 17  1  0  0  0  0
 14 15  1  0  0  0  0
 14 16  2  0  0  0  0
 15 36  1  0  0  0  0
 15 37  1  0  0  0  0
 17 38  1  0  0  0  0
 18 19  1  0  0  0  0
 19 20  1  0  0  0  0
 19 25  2  0  0  0  0
 20 21  2  0  0  0  0
 21 22  1  0  0  0  0
 21 39  1  0  0  0  0
 22 23  2  0  0  0  0
 23 24  1  0  0  0  0
 23 25  1  0  0  0  0
 24 40  1  0  0  0  0
 24 41  1  0  0  0  0
 26 27  1  0  0  0  0
 26 42  1  0  0  0  0
 27 43  1  0  0  0  0
M  END
$$$$
