CHEMBL4083641
 OpenBabel04072215383D

 70 76  0  0  1  0  0  0  0  0999 V2000
    8.6828    1.8942    0.2742 C   0  0  0  0  0  0  0  0  0  0  0  0
    7.5011    1.1392   -0.2481 C   0  0  0  0  0  0  0  0  0  0  0  0
    7.4187   -0.1691    0.0215 N   0  0  0  0  0  0  0  0  0  0  0  0
    6.3566   -0.8305   -0.5077 C   0  0  0  0  0  0  0  0  0  0  0  0
    6.3629   -2.2499   -0.3654 N   0  0  0  0  0  0  0  0  0  0  0  0
    5.7746   -3.0469   -1.2701 N   0  0  0  0  0  0  0  0  0  0  0  0
    6.0856   -4.2732   -0.8625 C   0  0  0  0  0  0  0  0  0  0  0  0
    5.7309   -5.4219   -1.4741 N   0  0  0  0  0  0  0  0  0  0  0  0
    5.1401   -5.5654   -2.7459 C   0  0  0  0  0  0  0  0  0  0  0  0
    5.2627   -4.5840   -3.7275 C   0  0  0  0  0  0  0  0  0  0  0  0
    4.5326   -4.6349   -4.9174 C   0  0  0  0  0  0  0  0  0  0  0  0
    3.6649   -5.6899   -5.2284 C   0  0  0  0  0  0  0  0  0  0  0  0
    2.9162   -5.6919   -6.4171 N   0  0  0  0  0  0  0  0  0  0  0  0
    3.4828   -4.9504   -7.5656 C   0  0  0  0  0  0  0  0  0  0  0  0
    2.4174   -4.7282   -8.6585 C   0  0  0  0  0  0  0  0  0  0  0  0
    1.8364   -5.9768   -9.2075 N   0  0  0  0  0  0  0  0  0  0  0  0
    2.8315   -6.7287   -9.9831 C   0  0  3  0  0  0  0  0  0  0  0  0
    3.3117   -5.9619  -11.2494 C   0  0  0  0  0  0  0  0  0  0  0  0
    3.2589   -7.0274  -12.3563 C   0  0  3  0  0  0  0  0  0  0  0  0
    1.7877   -7.2453  -12.7460 C   0  0  0  0  0  0  0  0  0  0  0  0
    1.2219   -7.9971  -11.5332 C   0  0  0  0  0  0  0  0  0  0  0  0
    2.4287   -8.1033  -10.5916 C   0  0  3  0  0  0  0  0  0  0  0  0
    3.5735   -8.3089  -11.5884 C   0  0  0  0  0  0  0  0  0  0  0  0
    1.2740   -6.7180   -8.0552 C   0  0  0  0  0  0  0  0  0  0  0  0
    2.1891   -6.9223   -6.8116 C   0  0  0  0  0  0  0  0  0  0  0  0
    3.5547   -6.6806   -4.2366 C   0  0  0  0  0  0  0  0  0  0  0  0
    4.2761   -6.6240   -3.0221 C   0  0  0  0  0  0  0  0  0  0  0  0
    6.7783   -4.3144    0.3121 N   0  0  0  0  0  0  0  0  0  0  0  0
    6.9713   -3.0456    0.6054 C   0  0  0  0  0  0  0  0  0  0  0  0
    7.5716   -2.5674    1.7136 N   0  0  0  0  0  0  0  0  0  0  0  0
    5.2985   -0.1855   -1.1942 C   0  0  0  0  0  0  0  0  0  0  0  0
    4.0674   -0.7476   -1.6523 C   0  0  0  0  0  0  0  0  0  0  0  0
    3.0811    0.0300   -2.2531 C   0  0  0  0  0  0  0  0  0  0  0  0
    3.3048    1.3813   -2.4240 C   0  0  0  0  0  0  0  0  0  0  0  0
    4.5052    1.9429   -1.9900 C   0  0  0  0  0  0  0  0  0  0  0  0
    5.4978    1.1901   -1.3726 C   0  0  0  0  0  0  0  0  0  0  0  0
    6.5834    1.8349   -0.9346 N   0  0  0  0  0  0  0  0  0  0  0  0
    9.3819    1.2261    0.7859 H   0  0  0  0  0  0  0  0  0  0  0  0
    8.3457    2.6550    0.9840 H   0  0  0  0  0  0  0  0  0  0  0  0
    9.2120    2.3860   -0.5478 H   0  0  0  0  0  0  0  0  0  0  0  0
    5.8976   -6.2821   -0.9716 H   0  0  0  0  0  0  0  0  0  0  0  0
    5.9218   -3.7315   -3.5861 H   0  0  0  0  0  0  0  0  0  0  0  0
    4.6594   -3.7774   -5.5671 H   0  0  0  0  0  0  0  0  0  0  0  0
    4.3523   -5.4943   -7.9547 H   0  0  0  0  0  0  0  0  0  0  0  0
    3.8275   -3.9494   -7.2992 H   0  0  0  0  0  0  0  0  0  0  0  0
    2.8427   -4.1073   -9.4543 H   0  0  0  0  0  0  0  0  0  0  0  0
    1.6035   -4.1261   -8.2310 H   0  0  0  0  0  0  0  0  0  0  0  0
    3.7119   -6.9277   -9.3590 H   0  0  0  0  0  0  0  0  0  0  0  0
    4.3340   -5.5972  -11.0971 H   0  0  0  0  0  0  0  0  0  0  0  0
    2.6849   -5.1001  -11.5087 H   0  0  0  0  0  0  0  0  0  0  0  0
    3.9083   -6.8079  -13.2061 H   0  0  0  0  0  0  0  0  0  0  0  0
    1.7113   -7.8645  -13.6474 H   0  0  0  0  0  0  0  0  0  0  0  0
    1.2549   -6.3075  -12.9329 H   0  0  0  0  0  0  0  0  0  0  0  0
    0.9006   -8.9991  -11.8441 H   0  0  0  0  0  0  0  0  0  0  0  0
    0.3609   -7.4901  -11.0905 H   0  0  0  0  0  0  0  0  0  0  0  0
    2.3332   -8.8950   -9.8423 H   0  0  0  0  0  0  0  0  0  0  0  0
    3.4634   -9.2132  -12.1927 H   0  0  0  0  0  0  0  0  0  0  0  0
    4.5660   -8.2967  -11.1235 H   0  0  0  0  0  0  0  0  0  0  0  0
    0.8767   -7.6874   -8.3765 H   0  0  0  0  0  0  0  0  0  0  0  0
    0.3903   -6.1551   -7.7211 H   0  0  0  0  0  0  0  0  0  0  0  0
    2.9071   -7.7245   -7.0164 H   0  0  0  0  0  0  0  0  0  0  0  0
    1.5288   -7.2452   -5.9974 H   0  0  0  0  0  0  0  0  0  0  0  0
    2.8814   -7.5227   -4.3603 H   0  0  0  0  0  0  0  0  0  0  0  0
    4.1110   -7.4018   -2.2810 H   0  0  0  0  0  0  0  0  0  0  0  0
    7.7088   -3.1968    2.4958 H   0  0  0  0  0  0  0  0  0  0  0  0
    7.5093   -1.5796    1.9467 H   0  0  0  0  0  0  0  0  0  0  0  0
    3.8387   -1.8026   -1.5159 H   0  0  0  0  0  0  0  0  0  0  0  0
    2.1441   -0.4253   -2.5693 H   0  0  0  0  0  0  0  0  0  0  0  0
    2.5395    2.0106   -2.8791 H   0  0  0  0  0  0  0  0  0  0  0  0
    4.6654    3.0123   -2.1226 H   0  0  0  0  0  0  0  0  0  0  0  0
  1  2  1  0  0  0  0
  1 38  1  0  0  0  0
  1 39  1  0  0  0  0
  1 40  1  0  0  0  0
  2  3  1  0  0  0  0
  2 37  2  0  0  0  0
  3  4  2  0  0  0  0
  4  5  1  0  0  0  0
  4 31  1  0  0  0  0
  5  6  1  0  0  0  0
  5 29  1  0  0  0  0
  6  7  2  0  0  0  0
  7  8  1  0  0  0  0
  7 28  1  0  0  0  0
  8  9  1  0  0  0  0
  8 41  1  0  0  0  0
  9 10  1  0  0  0  0
  9 27  2  0  0  0  0
 10 11  2  0  0  0  0
 10 42  1  0  0  0  0
 11 12  1  0  0  0  0
 11 43  1  0  0  0  0
 12 13  1  0  0  0  0
 12 26  2  0  0  0  0
 13 14  1  0  0  0  0
 13 25  1  0  0  0  0
 14 15  1  0  0  0  0
 14 44  1  0  0  0  0
 14 45  1  0  0  0  0
 15 16  1  0  0  0  0
 15 46  1  0  0  0  0
 15 47  1  0  0  0  0
 16 17  1  0  0  0  0
 16 24  1  0  0  0  0
 17 18  1  0  0  0  0
 17 22  1  0  0  0  0
 17 48  1  0  0  0  0
 18 19  1  0  0  0  0
 18 49  1  0  0  0  0
 18 50  1  0  0  0  0
 19 20  1  0  0  0  0
 19 23  1  0  0  0  0
 19 51  1  0  0  0  0
 20 21  1  0  0  0  0
 20 52  1  0  0  0  0
 20 53  1  0  0  0  0
 21 22  1  0  0  0  0
 21 54  1  0  0  0  0
 21 55  1  0  0  0  0
 22 23  1  0  0  0  0
 22 56  1  0  0  0  0
 23 57  1  0  0  0  0
 23 58  1  0  0  0  0
 24 25  1  0  0  0  0
 24 59  1  0  0  0  0
 24 60  1  0  0  0  0
 25 61  1  0  0  0  0
 25 62  1  0  0  0  0
 26 27  1  0  0  0  0
 26 63  1  0  0  0  0
 27 64  1  0  0  0  0
 28 29  2  0  0  0  0
 29 30  1  0  0  0  0
 30 65  1  0  0  0  0
 30 66  1  0  0  0  0
 31 32  1  0  0  0  0
 31 36  2  0  0  0  0
 32 33  2  0  0  0  0
 32 67  1  0  0  0  0
 33 34  1  0  0  0  0
 33 68  1  0  0  0  0
 34 35  2  0  0  0  0
 34 69  1  0  0  0  0
 35 36  1  0  0  0  0
 35 70  1  0  0  0  0
 36 37  1  0  0  0  0
M  END
$$$$
