CHEMBL3940400
 OpenBabel04072215373D

 51 54  0  0  0  0  0  0  0  0999 V2000
    4.8995    0.0520    2.2766 O   0  0  0  0  0  0  0  0  0  0  0  0
    4.2604    0.0445    1.2318 C   0  0  0  0  0  0  0  0  0  0  0  0
    2.9488   -0.3994    1.1398 N   0  0  0  0  0  0  0  0  0  0  0  0
    2.1843   -0.8266    2.2586 C   0  0  0  0  0  0  0  0  0  0  0  0
    2.5298   -0.5456    3.5801 C   0  0  0  0  0  0  0  0  0  0  0  0
    1.8595   -0.9993    4.6628 N   0  0  0  0  0  0  0  0  0  0  0  0
    0.7987   -1.8061    4.4443 C   0  0  0  0  0  0  0  0  0  0  0  0
    0.1965   -2.3854    5.5565 O   0  0  0  0  0  0  0  0  0  0  0  0
    1.0217   -2.6822    6.6281 C   0  0  0  0  0  0  0  0  0  0  0  0
    2.3009   -3.2161    6.4647 C   0  0  0  0  0  0  0  0  0  0  0  0
    3.0490   -3.4550    7.5959 C   0  0  0  0  0  0  0  0  0  0  0  0
    2.5929   -3.2463    8.8435 N   0  0  0  0  0  0  0  0  0  0  0  0
    1.3482   -2.7676    9.0039 C   0  0  0  0  0  0  0  0  0  0  0  0
    0.8476   -2.5748   10.3034 N   0  0  0  0  0  0  0  0  0  0  0  0
    1.5595   -2.8343   11.4580 C   0  0  0  0  0  0  0  0  0  0  0  0
    2.7152   -3.2161   11.5653 O   0  0  0  0  0  0  0  0  0  0  0  0
    0.7485   -2.6438   12.7035 C   0  0  0  0  0  0  0  0  0  0  0  0
    1.3880   -2.7823   14.0693 C   0  0  0  0  0  0  0  0  0  0  0  0
    0.4573   -3.8487   13.5719 C   0  0  0  0  0  0  0  0  0  0  0  0
    0.5274   -2.4746    7.9166 C   0  0  0  0  0  0  0  0  0  0  0  0
    0.3176   -2.0786    3.1654 C   0  0  0  0  0  0  0  0  0  0  0  0
   -1.0858   -3.0410    2.8968 Cl  0  0  0  0  0  0  0  0  0  0  0  0
    1.0225   -1.5768    2.0591 C   0  0  0  0  0  0  0  0  0  0  0  0
    4.7622    0.4784    0.0166 N   0  0  0  0  0  0  0  0  0  0  0  0
    6.0998    0.9012   -0.1865 C   0  0  0  0  0  0  0  0  0  0  0  0
    7.1452    0.5625    0.6734 C   0  0  0  0  0  0  0  0  0  0  0  0
    8.4351    1.0512    0.4618 C   0  0  0  0  0  0  0  0  0  0  0  0
    8.7122    1.8751   -0.6298 C   0  0  0  0  0  0  0  0  0  0  0  0
   10.3368    2.4325   -0.7757 Cl  0  0  0  0  0  0  0  0  0  0  0  0
    7.6941    2.2039   -1.5309 C   0  0  0  0  0  0  0  0  0  0  0  0
    7.8859    3.0784   -2.7440 C   0  0  0  0  0  0  0  0  0  0  0  0
    9.1165    3.6186   -2.9256 F   0  0  0  0  0  0  0  0  0  0  0  0
    7.6107    2.3969   -3.8943 F   0  0  0  0  0  0  0  0  0  0  0  0
    7.0213    4.1346   -2.7398 F   0  0  0  0  0  0  0  0  0  0  0  0
    6.3902    1.6955   -1.2987 C   0  0  0  0  0  0  0  0  0  0  0  0
    2.6159   -0.6533    0.2207 H   0  0  0  0  0  0  0  0  0  0  0  0
    3.3822    0.0691    3.8498 H   0  0  0  0  0  0  0  0  0  0  0  0
    2.7299   -3.4097    5.4896 H   0  0  0  0  0  0  0  0  0  0  0  0
    4.0656   -3.8302    7.5348 H   0  0  0  0  0  0  0  0  0  0  0  0
   -0.1021   -2.2516   10.3900 H   0  0  0  0  0  0  0  0  0  0  0  0
   -0.0294   -1.8900   12.6339 H   0  0  0  0  0  0  0  0  0  0  0  0
    1.0415   -2.1373   14.8678 H   0  0  0  0  0  0  0  0  0  0  0  0
    2.4462   -3.0194   14.1245 H   0  0  0  0  0  0  0  0  0  0  0  0
   -0.5202   -3.9266   14.0313 H   0  0  0  0  0  0  0  0  0  0  0  0
    0.8978   -4.8017   13.2950 H   0  0  0  0  0  0  0  0  0  0  0  0
   -0.4723   -2.0796    8.0522 H   0  0  0  0  0  0  0  0  0  0  0  0
    0.6762   -1.8086    1.0558 H   0  0  0  0  0  0  0  0  0  0  0  0
    4.0844    0.7516   -0.6797 H   0  0  0  0  0  0  0  0  0  0  0  0
    6.9957   -0.0839    1.5334 H   0  0  0  0  0  0  0  0  0  0  0  0
    9.2189    0.7844    1.1676 H   0  0  0  0  0  0  0  0  0  0  0  0
    5.5974    1.9615   -1.9973 H   0  0  0  0  0  0  0  0  0  0  0  0
  1  2  2  0  0  0  0
  2  3  1  0  0  0  0
  2 24  1  0  0  0  0
  3  4  1  0  0  0  0
  3 36  1  0  0  0  0
  4  5  1  0  0  0  0
  4 23  2  0  0  0  0
  5  6  2  0  0  0  0
  5 37  1  0  0  0  0
  6  7  1  0  0  0  0
  7  8  1  0  0  0  0
  7 21  2  0  0  0  0
  8  9  1  0  0  0  0
  9 10  1  0  0  0  0
  9 20  2  0  0  0  0
 10 11  2  0  0  0  0
 10 38  1  0  0  0  0
 11 12  1  0  0  0  0
 11 39  1  0  0  0  0
 12 13  2  0  0  0  0
 13 14  1  0  0  0  0
 13 20  1  0  0  0  0
 14 15  1  0  0  0  0
 14 40  1  0  0  0  0
 15 16  2  0  0  0  0
 15 17  1  0  0  0  0
 17 18  1  0  0  0  0
 17 19  1  0  0  0  0
 17 41  1  0  0  0  0
 18 19  1  0  0  0  0
 18 42  1  0  0  0  0
 18 43  1  0  0  0  0
 19 44  1  0  0  0  0
 19 45  1  0  0  0  0
 20 46  1  0  0  0  0
 21 22  1  0  0  0  0
 21 23  1  0  0  0  0
 23 47  1  0  0  0  0
 24 25  1  0  0  0  0
 24 48  1  0  0  0  0
 25 26  1  0  0  0  0
 25 35  2  0  0  0  0
 26 27  2  0  0  0  0
 26 49  1  0  0  0  0
 27 28  1  0  0  0  0
 27 50  1  0  0  0  0
 28 29  1  0  0  0  0
 28 30  2  0  0  0  0
 30 31  1  0  0  0  0
 30 35  1  0  0  0  0
 31 32  1  0  0  0  0
 31 33  1  0  0  0  0
 31 34  1  0  0  0  0
 35 51  1  0  0  0  0
M  END
$$$$
