CHEMBL3656121
 OpenBabel04072215373D

 73 76  0  0  0  0  0  0  0  0999 V2000
    1.7067   -3.7866    0.0184 C   0  0  0  0  0  0  0  0  0  0  0  0
    3.1270   -3.7214    0.2094 O   0  0  0  0  0  0  0  0  0  0  0  0
    3.4799   -3.3330    1.4626 C   0  0  0  0  0  0  0  0  0  0  0  0
    2.6922   -3.0616    2.3610 O   0  0  0  0  0  0  0  0  0  0  0  0
    4.9870   -3.2835    1.5949 C   0  0  0  0  0  0  0  0  0  0  0  0
    5.3883   -2.7985    2.9833 C   0  0  0  0  0  0  0  0  0  0  0  0
    6.8876   -2.6764    3.1172 C   0  0  0  0  0  0  0  0  0  0  0  0
    7.9562   -1.3291    2.8588 S   0  0  3  0  0  0  0  0  0  0  0  0
    7.6531   -0.6388    1.2950 C   0  0  0  0  0  0  0  0  0  0  0  0
    7.3959   -0.3311    3.7329 O   0  0  0  0  0  0  0  0  0  0  0  0
    9.5180   -1.5299    3.2519 N   0  0  0  0  0  0  0  0  0  0  0  0
   10.2759   -2.5090    2.6636 C   0  0  0  0  0  0  0  0  0  0  0  0
    9.8252   -3.2998    1.8341 O   0  0  0  0  0  0  0  0  0  0  0  0
   11.6706   -2.5623    3.1078 C   0  0  0  0  0  0  0  0  0  0  0  0
   12.3458   -1.7712    4.0254 C   0  0  0  0  0  0  0  0  0  0  0  0
   13.6381   -2.2348    4.1383 N   0  0  0  0  0  0  0  0  0  0  0  0
   13.8328   -3.3117    3.3055 C   0  0  0  0  0  0  0  0  0  0  0  0
   15.1006   -4.0296    3.2027 C   0  0  0  0  0  0  0  0  0  0  0  0
   15.2381   -5.1070    2.3385 C   0  0  0  0  0  0  0  0  0  0  0  0
   16.4885   -5.6978    2.1791 C   0  0  0  0  0  0  0  0  0  0  0  0
   16.7444   -6.7213    1.2833 O   0  0  0  0  0  0  0  0  0  0  0  0
   16.0285   -6.7671    0.1020 C   0  0  0  0  0  0  0  0  0  0  0  0
   15.6264   -5.6274   -0.5855 C   0  0  0  0  0  0  0  0  0  0  0  0
   14.7980   -5.7332   -1.7030 C   0  0  0  0  0  0  0  0  0  0  0  0
   14.4186   -6.9775   -2.2184 C   0  0  0  0  0  0  0  0  0  0  0  0
   13.5407   -7.1100   -3.3257 N   0  0  0  0  0  0  0  0  0  0  0  0
   12.9789   -6.0601   -4.0317 C   0  0  0  0  0  0  0  0  0  0  0  0
   13.2232   -4.8705   -3.8458 O   0  0  0  0  0  0  0  0  0  0  0  0
   12.0542   -6.4800   -4.9806 N   0  0  0  0  0  0  0  0  0  0  0  0
   11.3750   -5.4876   -5.7419 C   0  0  0  0  0  0  0  0  0  0  0  0
   12.0714   -4.4722   -6.4122 C   0  0  0  0  0  0  0  0  0  0  0  0
   11.3807   -3.4385   -7.0623 C   0  0  0  0  0  0  0  0  0  0  0  0
   12.1233   -2.3446   -7.7740 C   0  0  0  0  0  0  0  0  0  0  0  0
    9.9802   -3.4232   -7.0214 C   0  0  0  0  0  0  0  0  0  0  0  0
    9.2812   -4.4446   -6.3737 C   0  0  0  0  0  0  0  0  0  0  0  0
    9.9807   -5.4799   -5.7607 C   0  0  0  0  0  0  0  0  0  0  0  0
    9.3011   -6.4385   -5.1121 F   0  0  0  0  0  0  0  0  0  0  0  0
   14.9201   -8.1244   -1.5904 C   0  0  0  0  0  0  0  0  0  0  0  0
   15.7170   -8.0197   -0.4319 C   0  0  0  0  0  0  0  0  0  0  0  0
   17.5371   -5.2672    2.9814 C   0  0  0  0  0  0  0  0  0  0  0  0
   17.3002   -4.2124    3.8541 C   0  0  0  0  0  0  0  0  0  0  0  0
   16.1138   -3.5670    3.9708 N   0  0  0  0  0  0  0  0  0  0  0  0
   12.6317   -3.5086    2.6467 C   0  0  0  0  0  0  0  0  0  0  0  0
    1.5109   -4.1035   -1.0096 H   0  0  0  0  0  0  0  0  0  0  0  0
    1.2558   -2.8009    0.1678 H   0  0  0  0  0  0  0  0  0  0  0  0
    1.2625   -4.5206    0.6970 H   0  0  0  0  0  0  0  0  0  0  0  0
    5.3787   -2.6047    0.8299 H   0  0  0  0  0  0  0  0  0  0  0  0
    5.3916   -4.2849    1.4100 H   0  0  0  0  0  0  0  0  0  0  0  0
    5.0275   -3.4848    3.7565 H   0  0  0  0  0  0  0  0  0  0  0  0
    4.9558   -1.8109    3.1767 H   0  0  0  0  0  0  0  0  0  0  0  0
    7.4010   -3.6153    3.3913 H   0  0  0  0  0  0  0  0  0  0  0  0
    6.5830   -0.4549    1.1859 H   0  0  0  0  0  0  0  0  0  0  0  0
    7.9882   -1.3409    0.5291 H   0  0  0  0  0  0  0  0  0  0  0  0
    8.2018    0.3008    1.2072 H   0  0  0  0  0  0  0  0  0  0  0  0
    9.9218   -0.8471    3.8637 H   0  0  0  0  0  0  0  0  0  0  0  0
   12.0346   -0.9278    4.6249 H   0  0  0  0  0  0  0  0  0  0  0  0
   14.3620   -1.8628    4.7453 H   0  0  0  0  0  0  0  0  0  0  0  0
   14.3863   -5.4534    1.7671 H   0  0  0  0  0  0  0  0  0  0  0  0
   15.8986   -4.6316   -0.2471 H   0  0  0  0  0  0  0  0  0  0  0  0
   14.4617   -4.7971   -2.1299 H   0  0  0  0  0  0  0  0  0  0  0  0
   13.3447   -8.0458   -3.6588 H   0  0  0  0  0  0  0  0  0  0  0  0
   11.4648   -7.2411   -4.6663 H   0  0  0  0  0  0  0  0  0  0  0  0
   13.1600   -4.4727   -6.4078 H   0  0  0  0  0  0  0  0  0  0  0  0
   13.2064   -2.5030   -7.7401 H   0  0  0  0  0  0  0  0  0  0  0  0
   11.9102   -1.3754   -7.3115 H   0  0  0  0  0  0  0  0  0  0  0  0
   11.8248   -2.3132   -8.8271 H   0  0  0  0  0  0  0  0  0  0  0  0
    9.4295   -2.6084   -7.4874 H   0  0  0  0  0  0  0  0  0  0  0  0
    8.1978   -4.4241   -6.3233 H   0  0  0  0  0  0  0  0  0  0  0  0
   14.6869   -9.1147   -1.9717 H   0  0  0  0  0  0  0  0  0  0  0  0
   16.0772   -8.9201    0.0585 H   0  0  0  0  0  0  0  0  0  0  0  0
   18.5141   -5.7325    2.9249 H   0  0  0  0  0  0  0  0  0  0  0  0
   18.0922   -3.8425    4.5012 H   0  0  0  0  0  0  0  0  0  0  0  0
   12.4319   -4.2736    1.9058 H   0  0  0  0  0  0  0  0  0  0  0  0
  1  2  1  0  0  0  0
  1 44  1  0  0  0  0
  1 45  1  0  0  0  0
  1 46  1  0  0  0  0
  2  3  1  0  0  0  0
  3  4  2  0  0  0  0
  3  5  1  0  0  0  0
  5  6  1  0  0  0  0
  5 47  1  0  0  0  0
  5 48  1  0  0  0  0
  6  7  1  0  0  0  0
  6 49  1  0  0  0  0
  6 50  1  0  0  0  0
  7  8  2  0  0  0  0
  7 51  1  0  0  0  0
  8  9  1  0  0  0  0
  8 10  2  0  0  0  0
  8 11  1  0  0  0  0
  9 52  1  0  0  0  0
  9 53  1  0  0  0  0
  9 54  1  0  0  0  0
 11 12  1  0  0  0  0
 11 55  1  0  0  0  0
 12 13  2  0  0  0  0
 12 14  1  0  0  0  0
 14 15  2  0  0  0  0
 14 43  1  0  0  0  0
 15 16  1  0  0  0  0
 15 56  1  0  0  0  0
 16 17  1  0  0  0  0
 16 57  1  0  0  0  0
 17 18  1  0  0  0  0
 17 43  2  0  0  0  0
 18 19  1  0  0  0  0
 18 42  2  0  0  0  0
 19 20  2  0  0  0  0
 19 58  1  0  0  0  0
 20 21  1  0  0  0  0
 20 40  1  0  0  0  0
 21 22  1  0  0  0  0
 22 23  1  0  0  0  0
 22 39  2  0  0  0  0
 23 24  2  0  0  0  0
 23 59  1  0  0  0  0
 24 25  1  0  0  0  0
 24 60  1  0  0  0  0
 25 26  1  0  0  0  0
 25 38  2  0  0  0  0
 26 27  1  0  0  0  0
 26 61  1  0  0  0  0
 27 28  2  0  0  0  0
 27 29  1  0  0  0  0
 29 30  1  0  0  0  0
 29 62  1  0  0  0  0
 30 31  1  0  0  0  0
 30 36  2  0  0  0  0
 31 32  2  0  0  0  0
 31 63  1  0  0  0  0
 32 33  1  0  0  0  0
 32 34  1  0  0  0  0
 33 64  1  0  0  0  0
 33 65  1  0  0  0  0
 33 66  1  0  0  0  0
 34 35  2  0  0  0  0
 34 67  1  0  0  0  0
 35 36  1  0  0  0  0
 35 68  1  0  0  0  0
 36 37  1  0  0  0  0
 38 39  1  0  0  0  0
 38 69  1  0  0  0  0
 39 70  1  0  0  0  0
 40 41  2  0  0  0  0
 40 71  1  0  0  0  0
 41 42  1  0  0  0  0
 41 72  1  0  0  0  0
 43 73  1  0  0  0  0
M  END
$$$$
