CHEMBL2005899
 OpenBabel04072215363D

 44 45  0  0  1  0  0  0  0  0999 V2000
    3.4310    0.3188   -1.4463 C   0  0  0  0  0  0  0  0  0  0  0  0
    2.5610   -0.2613   -0.3494 C   0  0  0  0  0  0  0  0  0  0  0  0
    1.3373   -0.1615   -0.4654 O   0  0  0  0  0  0  0  0  0  0  0  0
    3.2190   -0.8774    0.7282 N   0  0  0  0  0  0  0  0  0  0  0  0
    2.5271   -1.4832    1.8392 C   0  0  0  0  0  0  0  0  0  0  0  0
    1.1944   -1.8943    1.7605 C   0  0  0  0  0  0  0  0  0  0  0  0
    0.5566   -2.3451    2.9101 C   0  0  0  0  0  0  0  0  0  0  0  0
    1.1524   -2.4385    4.1162 N   0  0  0  0  0  0  0  0  0  0  0  0
    2.4475   -2.0869    4.1730 C   0  0  0  0  0  0  0  0  0  0  0  0
    3.1623   -1.6218    3.0845 C   0  0  0  0  0  0  0  0  0  0  0  0
    4.6112   -0.8689    0.8528 C   0  0  0  0  0  0  0  0  0  0  0  0
    5.5558    0.1118    0.9360 C   0  0  0  0  0  0  0  0  0  0  0  0
    5.6142    1.4291    0.9689 N   0  0  0  0  0  0  0  0  0  0  0  0
    5.0048    2.2781    2.0221 C   0  0  3  0  0  0  0  0  0  0  0  0
    5.5894    1.9118    3.4038 C   0  0  0  0  0  0  0  0  0  0  0  0
    5.2079    3.8070    1.6830 C   0  0  0  0  0  0  0  0  0  0  0  0
    4.5347    4.1722    0.3412 C   0  0  0  0  0  0  0  0  0  0  0  0
    4.5888    4.7035    2.7814 C   0  0  0  0  0  0  0  0  0  0  0  0
    6.7031    4.1768    1.5844 C   0  0  0  0  0  0  0  0  0  0  0  0
    6.6555   -0.9081    0.9387 C   0  0  0  0  0  0  0  0  0  0  0  0
    7.8424   -0.9631    1.0632 O   0  0  0  0  0  0  0  0  0  0  0  0
    5.5968   -1.9596    0.8442 C   0  0  0  0  0  0  0  0  0  0  0  0
    5.6316   -3.1533    0.7252 O   0  0  0  0  0  0  0  0  0  0  0  0
    2.7941    0.5936   -2.2952 H   0  0  0  0  0  0  0  0  0  0  0  0
    4.1598   -0.4134   -1.8058 H   0  0  0  0  0  0  0  0  0  0  0  0
    3.9272    1.2303   -1.1092 H   0  0  0  0  0  0  0  0  0  0  0  0
    0.6303   -1.8886    0.8350 H   0  0  0  0  0  0  0  0  0  0  0  0
   -0.4865   -2.6481    2.8886 H   0  0  0  0  0  0  0  0  0  0  0  0
    2.9145   -2.1691    5.1493 H   0  0  0  0  0  0  0  0  0  0  0  0
    4.1905   -1.3271    3.2551 H   0  0  0  0  0  0  0  0  0  0  0  0
    6.3393    1.9070    0.4327 H   0  0  0  0  0  0  0  0  0  0  0  0
    3.9274    2.0685    2.0509 H   0  0  0  0  0  0  0  0  0  0  0  0
    6.6704    2.0815    3.4513 H   0  0  0  0  0  0  0  0  0  0  0  0
    5.4236    0.8599    3.6531 H   0  0  0  0  0  0  0  0  0  0  0  0
    5.1214    2.4899    4.2071 H   0  0  0  0  0  0  0  0  0  0  0  0
    3.4581    3.9677    0.3557 H   0  0  0  0  0  0  0  0  0  0  0  0
    4.9727    3.6193   -0.4963 H   0  0  0  0  0  0  0  0  0  0  0  0
    4.6621    5.2394    0.1193 H   0  0  0  0  0  0  0  0  0  0  0  0
    3.5130    4.5307    2.8922 H   0  0  0  0  0  0  0  0  0  0  0  0
    4.7341    5.7653    2.5509 H   0  0  0  0  0  0  0  0  0  0  0  0
    5.0617    4.5374    3.7542 H   0  0  0  0  0  0  0  0  0  0  0  0
    7.2071    3.6469    0.7716 H   0  0  0  0  0  0  0  0  0  0  0  0
    7.2341    3.9528    2.5132 H   0  0  0  0  0  0  0  0  0  0  0  0
    6.8306    5.2471    1.3906 H   0  0  0  0  0  0  0  0  0  0  0  0
  1  2  1  0  0  0  0
  1 24  1  0  0  0  0
  1 25  1  0  0  0  0
  1 26  1  0  0  0  0
  2  3  2  0  0  0  0
  2  4  1  0  0  0  0
  4  5  1  0  0  0  0
  4 11  1  0  0  0  0
  5  6  1  0  0  0  0
  5 10  2  0  0  0  0
  6  7  2  0  0  0  0
  6 27  1  0  0  0  0
  7  8  1  0  0  0  0
  7 28  1  0  0  0  0
  8  9  2  0  0  0  0
  9 10  1  0  0  0  0
  9 29  1  0  0  0  0
 10 30  1  0  0  0  0
 11 12  2  0  0  0  0
 11 22  1  0  0  0  0
 12 13  1  0  0  0  0
 12 20  1  0  0  0  0
 13 14  1  0  0  0  0
 13 31  1  0  0  0  0
 14 15  1  0  0  0  0
 14 16  1  0  0  0  0
 14 32  1  0  0  0  0
 15 33  1  0  0  0  0
 15 34  1  0  0  0  0
 15 35  1  0  0  0  0
 16 17  1  0  0  0  0
 16 18  1  0  0  0  0
 16 19  1  0  0  0  0
 17 36  1  0  0  0  0
 17 37  1  0  0  0  0
 17 38  1  0  0  0  0
 18 39  1  0  0  0  0
 18 40  1  0  0  0  0
 18 41  1  0  0  0  0
 19 42  1  0  0  0  0
 19 43  1  0  0  0  0
 19 44  1  0  0  0  0
 20 21  2  0  0  0  0
 20 22  1  0  0  0  0
 22 23  2  0  0  0  0
M  END
$$$$
