CHEMBL1085996
 OpenBabel04072215363D

 73 77  0  0  0  0  0  0  0  0999 V2000
    2.1959   -0.2332   -1.2698 C   0  0  0  0  0  0  0  0  0  0  0  0
    0.8510   -0.1221   -0.6018 C   0  0  0  0  0  0  0  0  0  0  0  0
    0.2186    1.1254   -0.5914 C   0  0  0  0  0  0  0  0  0  0  0  0
   -1.0336    1.3228   -0.0006 C   0  0  0  0  0  0  0  0  0  0  0  0
   -1.6780    2.5756    0.0019 N   0  0  0  0  0  0  0  0  0  0  0  0
   -1.1300    3.7593   -0.4217 C   0  0  0  0  0  0  0  0  0  0  0  0
   -0.0024    3.9242   -0.8722 O   0  0  0  0  0  0  0  0  0  0  0  0
   -1.9898    4.7890   -0.1991 O   0  0  0  0  0  0  0  0  0  0  0  0
   -1.3494    6.0781   -0.2042 C   0  0  0  0  0  0  0  0  0  0  0  0
   -0.9571    6.5982   -1.6005 C   0  0  0  0  0  0  0  0  0  0  0  0
   -2.1801    6.8288   -2.4823 C   0  0  0  0  0  0  0  0  0  0  0  0
   -0.1337    7.8786   -1.4590 C   0  0  0  0  0  0  0  0  0  0  0  0
   -1.6631    0.2336    0.6066 C   0  0  0  0  0  0  0  0  0  0  0  0
   -1.0466   -1.0241    0.6118 C   0  0  0  0  0  0  0  0  0  0  0  0
    0.2046   -1.2085    0.0048 C   0  0  0  0  0  0  0  0  0  0  0  0
    0.8225   -2.5350   -0.0060 C   0  0  0  0  0  0  0  0  0  0  0  0
    1.7583   -2.9248    1.0866 C   0  0  0  0  0  0  0  0  0  0  0  0
    2.4477   -4.0195    1.1577 N   0  0  0  0  0  0  0  0  0  0  0  0
    2.3028   -4.8901    0.1100 C   0  0  0  0  0  0  0  0  0  0  0  0
    2.8988   -6.1055   -0.1681 C   0  0  0  0  0  0  0  0  0  0  0  0
    3.8469   -6.7824    0.7035 C   0  0  0  0  0  0  0  0  0  0  0  0
    4.7164   -6.0651    1.5308 C   0  0  0  0  0  0  0  0  0  0  0  0
    5.5555   -6.7317    2.4141 C   0  0  0  0  0  0  0  0  0  0  0  0
    5.5564   -8.1255    2.4492 C   0  0  0  0  0  0  0  0  0  0  0  0
    4.7450   -8.8899    1.5974 C   0  0  0  0  0  0  0  0  0  0  0  0
    4.8142  -10.2667    1.5734 N   0  0  0  0  0  0  0  0  0  0  0  0
    6.0446  -10.9841    1.9356 C   0  0  0  0  0  0  0  0  0  0  0  0
    6.3516  -12.0626    0.8719 C   0  0  0  0  0  0  0  0  0  0  0  0
    5.2210  -12.9950    0.6630 N   0  0  0  0  0  0  0  0  0  0  0  0
    5.5545  -13.9847   -0.3560 C   0  0  0  0  0  0  0  0  0  0  0  0
    4.0225  -12.2172    0.2717 C   0  0  0  0  0  0  0  0  0  0  0  0
    3.6567  -11.1341    1.3141 C   0  0  0  0  0  0  0  0  0  0  0  0
    3.8848   -8.1853    0.7397 C   0  0  0  0  0  0  0  0  0  0  0  0
    2.3318   -6.5016   -1.3975 C   0  0  0  0  0  0  0  0  0  0  0  0
    1.4548   -5.6233   -1.8849 N   0  0  0  0  0  0  0  0  0  0  0  0
    1.4182   -4.6337   -0.9433 N   0  0  0  0  0  0  0  0  0  0  0  0
    0.6526   -3.4383   -0.9970 C   0  0  0  0  0  0  0  0  0  0  0  0
   -0.1852   -3.2682   -2.1012 N   0  0  0  0  0  0  0  0  0  0  0  0
    2.5076    0.7244   -1.7036 H   0  0  0  0  0  0  0  0  0  0  0  0
    2.1598   -0.9576   -2.0887 H   0  0  0  0  0  0  0  0  0  0  0  0
    2.9621   -0.5252   -0.5455 H   0  0  0  0  0  0  0  0  0  0  0  0
    0.7442    1.9402   -1.0768 H   0  0  0  0  0  0  0  0  0  0  0  0
   -2.5900    2.6572    0.4275 H   0  0  0  0  0  0  0  0  0  0  0  0
   -0.4685    6.0303    0.4511 H   0  0  0  0  0  0  0  0  0  0  0  0
   -2.0450    6.7760    0.2738 H   0  0  0  0  0  0  0  0  0  0  0  0
   -0.3316    5.8654   -2.1205 H   0  0  0  0  0  0  0  0  0  0  0  0
   -2.8496    7.5767   -2.0464 H   0  0  0  0  0  0  0  0  0  0  0  0
   -2.7433    5.9005   -2.6215 H   0  0  0  0  0  0  0  0  0  0  0  0
   -1.8756    7.1837   -3.4733 H   0  0  0  0  0  0  0  0  0  0  0  0
   -0.7121    8.6735   -0.9775 H   0  0  0  0  0  0  0  0  0  0  0  0
    0.1984    8.2399   -2.4375 H   0  0  0  0  0  0  0  0  0  0  0  0
    0.7614    7.6961   -0.8533 H   0  0  0  0  0  0  0  0  0  0  0  0
   -2.6320    0.3423    1.0869 H   0  0  0  0  0  0  0  0  0  0  0  0
   -1.5523   -1.8633    1.0861 H   0  0  0  0  0  0  0  0  0  0  0  0
    1.8636   -2.1937    1.9052 H   0  0  0  0  0  0  0  0  0  0  0  0
    4.7401   -4.9789    1.5111 H   0  0  0  0  0  0  0  0  0  0  0  0
    6.2008   -6.1679    3.0810 H   0  0  0  0  0  0  0  0  0  0  0  0
    6.1985   -8.6108    3.1787 H   0  0  0  0  0  0  0  0  0  0  0  0
    5.9229  -11.4445    2.9234 H   0  0  0  0  0  0  0  0  0  0  0  0
    6.9156  -10.3209    1.9807 H   0  0  0  0  0  0  0  0  0  0  0  0
    7.2386  -12.6196    1.1947 H   0  0  0  0  0  0  0  0  0  0  0  0
    6.6052  -11.5607   -0.0730 H   0  0  0  0  0  0  0  0  0  0  0  0
    6.4281  -14.5692   -0.0464 H   0  0  0  0  0  0  0  0  0  0  0  0
    5.7722  -13.5276   -1.3278 H   0  0  0  0  0  0  0  0  0  0  0  0
    4.7298  -14.6939   -0.4829 H   0  0  0  0  0  0  0  0  0  0  0  0
    3.1668  -12.8922    0.1609 H   0  0  0  0  0  0  0  0  0  0  0  0
    4.1858  -11.7300   -0.6998 H   0  0  0  0  0  0  0  0  0  0  0  0
    3.3621  -11.6186    2.2556 H   0  0  0  0  0  0  0  0  0  0  0  0
    2.7741  -10.5893    0.9667 H   0  0  0  0  0  0  0  0  0  0  0  0
    3.2420   -8.7392    0.0636 H   0  0  0  0  0  0  0  0  0  0  0  0
    2.5280   -7.4021   -1.9665 H   0  0  0  0  0  0  0  0  0  0  0  0
    0.0907   -3.8795   -2.8742 H   0  0  0  0  0  0  0  0  0  0  0  0
   -0.3232   -2.2988   -2.3729 H   0  0  0  0  0  0  0  0  0  0  0  0
  1  2  1  0  0  0  0
  1 39  1  0  0  0  0
  1 40  1  0  0  0  0
  1 41  1  0  0  0  0
  2  3  1  0  0  0  0
  2 15  2  0  0  0  0
  3  4  2  0  0  0  0
  3 42  1  0  0  0  0
  4  5  1  0  0  0  0
  4 13  1  0  0  0  0
  5  6  1  0  0  0  0
  5 43  1  0  0  0  0
  6  7  2  0  0  0  0
  6  8  1  0  0  0  0
  8  9  1  0  0  0  0
  9 10  1  0  0  0  0
  9 44  1  0  0  0  0
  9 45  1  0  0  0  0
 10 11  1  0  0  0  0
 10 12  1  0  0  0  0
 10 46  1  0  0  0  0
 11 47  1  0  0  0  0
 11 48  1  0  0  0  0
 11 49  1  0  0  0  0
 12 50  1  0  0  0  0
 12 51  1  0  0  0  0
 12 52  1  0  0  0  0
 13 14  2  0  0  0  0
 13 53  1  0  0  0  0
 14 15  1  0  0  0  0
 14 54  1  0  0  0  0
 15 16  1  0  0  0  0
 16 17  1  0  0  0  0
 16 37  2  0  0  0  0
 17 18  2  0  0  0  0
 17 55  1  0  0  0  0
 18 19  1  0  0  0  0
 19 20  2  0  0  0  0
 19 36  1  0  0  0  0
 20 21  1  0  0  0  0
 20 34  1  0  0  0  0
 21 22  1  0  0  0  0
 21 33  2  0  0  0  0
 22 23  2  0  0  0  0
 22 56  1  0  0  0  0
 23 24  1  0  0  0  0
 23 57  1  0  0  0  0
 24 25  2  0  0  0  0
 24 58  1  0  0  0  0
 25 26  1  0  0  0  0
 25 33  1  0  0  0  0
 26 27  1  0  0  0  0
 26 32  1  0  0  0  0
 27 28  1  0  0  0  0
 27 59  1  0  0  0  0
 27 60  1  0  0  0  0
 28 29  1  0  0  0  0
 28 61  1  0  0  0  0
 28 62  1  0  0  0  0
 29 30  1  0  0  0  0
 29 31  1  0  0  0  0
 30 63  1  0  0  0  0
 30 64  1  0  0  0  0
 30 65  1  0  0  0  0
 31 32  1  0  0  0  0
 31 66  1  0  0  0  0
 31 67  1  0  0  0  0
 32 68  1  0  0  0  0
 32 69  1  0  0  0  0
 33 70  1  0  0  0  0
 34 35  2  0  0  0  0
 34 71  1  0  0  0  0
 35 36  1  0  0  0  0
 36 37  1  0  0  0  0
 37 38  1  0  0  0  0
 38 72  1  0  0  0  0
 38 73  1  0  0  0  0
M  END
$$$$
