CHEMBL3633686
 OpenBabel04072215373D

 58 61  0  0  0  0  0  0  0  0999 V2000
    0.7615    4.1697    1.0044 C   0  0  0  0  0  0  0  0  0  0  0  0
    1.9753    4.1894    1.8236 N   0  0  0  0  0  0  0  0  0  0  0  0
    1.6204    4.0855    3.2392 C   0  0  0  0  0  0  0  0  0  0  0  0
    2.8967    3.1158    1.3983 C   0  0  0  0  0  0  0  0  0  0  0  0
    4.2367    3.1070    2.1554 C   0  0  0  0  0  0  0  0  0  0  0  0
    5.0871    2.0992    1.5965 O   0  0  0  0  0  0  0  0  0  0  0  0
    6.4301    2.2890    1.8003 C   0  0  0  0  0  0  0  0  0  0  0  0
    7.2504    1.7041    0.8476 C   0  0  0  0  0  0  0  0  0  0  0  0
    8.6316    1.8937    0.8979 C   0  0  0  0  0  0  0  0  0  0  0  0
    9.2174    2.6783    1.8987 C   0  0  0  0  0  0  0  0  0  0  0  0
   10.6055    2.9620    1.9332 N   0  0  0  0  0  0  0  0  0  0  0  0
   11.4225    2.9257    0.8220 C   0  0  0  0  0  0  0  0  0  0  0  0
   11.0200    2.7437   -0.3304 O   0  0  0  0  0  0  0  0  0  0  0  0
   12.7588    3.0933    1.1432 N   0  0  0  0  0  0  0  0  0  0  0  0
   13.7345    3.0511    0.1196 C   0  0  0  0  0  0  0  0  0  0  0  0
   13.5732    3.7600   -1.0748 C   0  0  0  0  0  0  0  0  0  0  0  0
   14.4659    3.5764   -2.1382 C   0  0  0  0  0  0  0  0  0  0  0  0
   15.5535    2.6972   -2.0326 C   0  0  0  0  0  0  0  0  0  0  0  0
   16.4715    2.4409   -3.1675 C   0  0  0  0  0  0  0  0  0  0  0  0
   16.8241    3.4585   -4.0897 C   0  0  0  0  0  0  0  0  0  0  0  0
   17.7877    3.2687   -5.0821 C   0  0  0  0  0  0  0  0  0  0  0  0
   18.4977    2.0739   -5.1671 C   0  0  0  0  0  0  0  0  0  0  0  0
   18.1238    1.0573   -4.2889 C   0  0  0  0  0  0  0  0  0  0  0  0
   18.6419   -0.1973   -4.1004 N   0  0  0  0  0  0  0  0  0  0  0  0
   17.9228   -0.9736   -3.2818 N   0  0  0  0  0  0  0  0  0  0  0  0
   16.9582   -0.1651   -2.8514 C   0  0  0  0  0  0  0  0  0  0  0  0
   15.9759   -0.6075   -2.0506 N   0  0  0  0  0  0  0  0  0  0  0  0
   17.0910    1.1701   -3.3576 C   0  0  0  0  0  0  0  0  0  0  0  0
   15.7516    2.0911   -0.7742 C   0  0  0  0  0  0  0  0  0  0  0  0
   14.8484    2.2437    0.2826 C   0  0  0  0  0  0  0  0  0  0  0  0
    8.4011    3.1936    2.9070 C   0  0  0  0  0  0  0  0  0  0  0  0
    7.0230    2.9961    2.8502 C   0  0  0  0  0  0  0  0  0  0  0  0
    6.2816    3.5242    3.8413 F   0  0  0  0  0  0  0  0  0  0  0  0
    0.1010    5.0009    1.2791 H   0  0  0  0  0  0  0  0  0  0  0  0
    0.2012    3.2345    1.1179 H   0  0  0  0  0  0  0  0  0  0  0  0
    1.0043    4.3032   -0.0552 H   0  0  0  0  0  0  0  0  0  0  0  0
    0.9070    4.8695    3.5166 H   0  0  0  0  0  0  0  0  0  0  0  0
    2.4952    4.2440    3.8781 H   0  0  0  0  0  0  0  0  0  0  0  0
    1.1783    3.1134    3.4838 H   0  0  0  0  0  0  0  0  0  0  0  0
    3.1260    3.2460    0.3314 H   0  0  0  0  0  0  0  0  0  0  0  0
    2.4236    2.1280    1.4812 H   0  0  0  0  0  0  0  0  0  0  0  0
    4.0742    2.8612    3.2102 H   0  0  0  0  0  0  0  0  0  0  0  0
    4.6913    4.1017    2.0628 H   0  0  0  0  0  0  0  0  0  0  0  0
    6.8194    1.1200    0.0400 H   0  0  0  0  0  0  0  0  0  0  0  0
    9.2291    1.4143    0.1247 H   0  0  0  0  0  0  0  0  0  0  0  0
   10.9527    3.5023    2.7132 H   0  0  0  0  0  0  0  0  0  0  0  0
   13.0228    2.6841    2.0282 H   0  0  0  0  0  0  0  0  0  0  0  0
   12.7329    4.4383   -1.2042 H   0  0  0  0  0  0  0  0  0  0  0  0
   14.2714    4.1172   -3.0619 H   0  0  0  0  0  0  0  0  0  0  0  0
   16.3575    4.4396   -4.0225 H   0  0  0  0  0  0  0  0  0  0  0  0
   18.0137    4.0780   -5.7739 H   0  0  0  0  0  0  0  0  0  0  0  0
   19.2864    1.9404   -5.8995 H   0  0  0  0  0  0  0  0  0  0  0  0
   19.4800   -0.5848   -4.5152 H   0  0  0  0  0  0  0  0  0  0  0  0
   15.8957   -1.6097   -1.9271 H   0  0  0  0  0  0  0  0  0  0  0  0
   15.0876   -0.1161   -2.0197 H   0  0  0  0  0  0  0  0  0  0  0  0
   16.6055    1.4342   -0.6122 H   0  0  0  0  0  0  0  0  0  0  0  0
   14.9996    1.6611    1.1867 H   0  0  0  0  0  0  0  0  0  0  0  0
    8.8105    3.7786    3.7255 H   0  0  0  0  0  0  0  0  0  0  0  0
  1  2  1  0  0  0  0
  1 34  1  0  0  0  0
  1 35  1  0  0  0  0
  1 36  1  0  0  0  0
  2  3  1  0  0  0  0
  2  4  1  0  0  0  0
  3 37  1  0  0  0  0
  3 38  1  0  0  0  0
  3 39  1  0  0  0  0
  4  5  1  0  0  0  0
  4 40  1  0  0  0  0
  4 41  1  0  0  0  0
  5  6  1  0  0  0  0
  5 42  1  0  0  0  0
  5 43  1  0  0  0  0
  6  7  1  0  0  0  0
  7  8  1  0  0  0  0
  7 32  2  0  0  0  0
  8  9  2  0  0  0  0
  8 44  1  0  0  0  0
  9 10  1  0  0  0  0
  9 45  1  0  0  0  0
 10 11  1  0  0  0  0
 10 31  2  0  0  0  0
 11 12  1  0  0  0  0
 11 46  1  0  0  0  0
 12 13  2  0  0  0  0
 12 14  1  0  0  0  0
 14 15  1  0  0  0  0
 14 47  1  0  0  0  0
 15 16  1  0  0  0  0
 15 30  2  0  0  0  0
 16 17  2  0  0  0  0
 16 48  1  0  0  0  0
 17 18  1  0  0  0  0
 17 49  1  0  0  0  0
 18 19  1  0  0  0  0
 18 29  2  0  0  0  0
 19 20  1  0  0  0  0
 19 28  2  0  0  0  0
 20 21  2  0  0  0  0
 20 50  1  0  0  0  0
 21 22  1  0  0  0  0
 21 51  1  0  0  0  0
 22 23  2  0  0  0  0
 22 52  1  0  0  0  0
 23 24  1  0  0  0  0
 23 28  1  0  0  0  0
 24 25  1  0  0  0  0
 24 53  1  0  0  0  0
 25 26  2  0  0  0  0
 26 27  1  0  0  0  0
 26 28  1  0  0  0  0
 27 54  1  0  0  0  0
 27 55  1  0  0  0  0
 29 30  1  0  0  0  0
 29 56  1  0  0  0  0
 30 57  1  0  0  0  0
 31 32  1  0  0  0  0
 31 58  1  0  0  0  0
 32 33  1  0  0  0  0
M  END
$$$$
