CHEMBL3935733
 OpenBabel04072215373D

 56 59  0  0  0  0  0  0  0  0999 V2000
   10.8212    1.9736   -1.6717 C   0  0  0  0  0  0  0  0  0  0  0  0
    9.8618    2.7418   -2.2079 C   0  0  0  0  0  0  0  0  0  0  0  0
    8.4269    2.8366   -1.7524 C   0  0  0  0  0  0  0  0  0  0  0  0
    8.1820    1.9267   -0.6857 O   0  0  0  0  0  0  0  0  0  0  0  0
    6.9276    1.8976   -0.1389 C   0  0  0  0  0  0  0  0  0  0  0  0
    6.0630    2.9981   -0.0678 C   0  0  0  0  0  0  0  0  0  0  0  0
    4.8365    2.9314    0.6297 C   0  0  0  0  0  0  0  0  0  0  0  0
    3.9520    4.1168    0.7595 C   0  0  0  0  0  0  0  0  0  0  0  0
    3.2054    4.3378    1.9340 C   0  0  0  0  0  0  0  0  0  0  0  0
    2.3567    5.4451    2.0930 C   0  0  0  0  0  0  0  0  0  0  0  0
    2.2632    6.3820    1.0539 C   0  0  0  0  0  0  0  0  0  0  0  0
    1.5749    7.6139    0.8152 C   0  0  0  0  0  0  0  0  0  0  0  0
    0.6921    8.2487    1.7486 C   0  0  0  0  0  0  0  0  0  0  0  0
    0.0370    9.4015    1.5210 C   0  0  0  0  0  0  0  0  0  0  0  0
   -0.8742   10.0348    2.4820 C   0  0  0  0  0  0  0  0  0  0  0  0
   -1.0083   11.4234    2.4935 C   0  0  0  0  0  0  0  0  0  0  0  0
   -1.8929   12.0451    3.3835 C   0  0  0  0  0  0  0  0  0  0  0  0
   -2.6694   11.2931    4.2775 C   0  0  0  0  0  0  0  0  0  0  0  0
   -3.5406   11.8567    5.1678 O   0  0  0  0  0  0  0  0  0  0  0  0
   -3.6736   13.2703    5.1873 C   0  0  0  0  0  0  0  0  0  0  0  0
   -2.5511    9.8927    4.2594 C   0  0  0  0  0  0  0  0  0  0  0  0
   -3.2021    8.9630    5.0292 O   0  0  0  0  0  0  0  0  0  0  0  0
   -4.1548    9.4071    5.9795 C   0  0  0  0  0  0  0  0  0  0  0  0
   -1.6643    9.2856    3.3573 C   0  0  0  0  0  0  0  0  0  0  0  0
    1.8612    8.1096   -0.3976 N   0  0  0  0  0  0  0  0  0  0  0  0
    2.7146    7.2199   -0.9203 N   0  0  0  0  0  0  0  0  0  0  0  0
    3.0043    6.1656   -0.1028 C   0  0  0  0  0  0  0  0  0  0  0  0
    3.8404    5.0567   -0.2836 C   0  0  0  0  0  0  0  0  0  0  0  0
    4.4935    1.7051    1.2291 C   0  0  0  0  0  0  0  0  0  0  0  0
    5.3306    0.5945    1.1447 C   0  0  0  0  0  0  0  0  0  0  0  0
    6.5423    0.6988    0.4690 C   0  0  0  0  0  0  0  0  0  0  0  0
    7.3687   -0.3901    0.3890 O   0  0  0  0  0  0  0  0  0  0  0  0
   11.8277    1.9671   -2.0775 H   0  0  0  0  0  0  0  0  0  0  0  0
   10.6232    1.3305   -0.8181 H   0  0  0  0  0  0  0  0  0  0  0  0
   10.1230    3.3689   -3.0572 H   0  0  0  0  0  0  0  0  0  0  0  0
    7.7769    2.5867   -2.5988 H   0  0  0  0  0  0  0  0  0  0  0  0
    8.2510    3.8731   -1.4449 H   0  0  0  0  0  0  0  0  0  0  0  0
    6.3572    3.9432   -0.5097 H   0  0  0  0  0  0  0  0  0  0  0  0
    3.2822    3.6449    2.7709 H   0  0  0  0  0  0  0  0  0  0  0  0
    1.7950    5.5667    3.0142 H   0  0  0  0  0  0  0  0  0  0  0  0
    0.5655    7.7472    2.7034 H   0  0  0  0  0  0  0  0  0  0  0  0
    0.1779    9.9229    0.5755 H   0  0  0  0  0  0  0  0  0  0  0  0
   -0.4217   12.0401    1.8153 H   0  0  0  0  0  0  0  0  0  0  0  0
   -1.9489   13.1285    3.3500 H   0  0  0  0  0  0  0  0  0  0  0  0
   -4.3806   13.5243    5.9830 H   0  0  0  0  0  0  0  0  0  0  0  0
   -4.0879   13.6373    4.2429 H   0  0  0  0  0  0  0  0  0  0  0  0
   -2.7220   13.7573    5.4238 H   0  0  0  0  0  0  0  0  0  0  0  0
   -4.5326    8.5245    6.5052 H   0  0  0  0  0  0  0  0  0  0  0  0
   -5.0091    9.8833    5.4880 H   0  0  0  0  0  0  0  0  0  0  0  0
   -3.6963   10.0533    6.7344 H   0  0  0  0  0  0  0  0  0  0  0  0
   -1.6139    8.1989    3.3475 H   0  0  0  0  0  0  0  0  0  0  0  0
    3.0720    7.3938   -1.8526 H   0  0  0  0  0  0  0  0  0  0  0  0
    4.3820    4.9339   -1.2161 H   0  0  0  0  0  0  0  0  0  0  0  0
    3.5589    1.5994    1.7767 H   0  0  0  0  0  0  0  0  0  0  0  0
    5.0306   -0.3307    1.6265 H   0  0  0  0  0  0  0  0  0  0  0  0
    6.9272   -1.1491    0.7988 H   0  0  0  0  0  0  0  0  0  0  0  0
  1  2  2  0  0  0  0
  1 33  1  0  0  0  0
  1 34  1  0  0  0  0
  2  3  1  0  0  0  0
  2 35  1  0  0  0  0
  3  4  1  0  0  0  0
  3 36  1  0  0  0  0
  3 37  1  0  0  0  0
  4  5  1  0  0  0  0
  5  6  1  0  0  0  0
  5 31  2  0  0  0  0
  6  7  2  0  0  0  0
  6 38  1  0  0  0  0
  7  8  1  0  0  0  0
  7 29  1  0  0  0  0
  8  9  1  0  0  0  0
  8 28  2  0  0  0  0
  9 10  2  0  0  0  0
  9 39  1  0  0  0  0
 10 11  1  0  0  0  0
 10 40  1  0  0  0  0
 11 12  1  0  0  0  0
 11 27  2  0  0  0  0
 12 13  1  0  0  0  0
 12 25  2  0  0  0  0
 13 14  2  0  0  0  0
 13 41  1  0  0  0  0
 14 15  1  0  0  0  0
 14 42  1  0  0  0  0
 15 16  1  0  0  0  0
 15 24  2  0  0  0  0
 16 17  2  0  0  0  0
 16 43  1  0  0  0  0
 17 18  1  0  0  0  0
 17 44  1  0  0  0  0
 18 19  1  0  0  0  0
 18 21  2  0  0  0  0
 19 20  1  0  0  0  0
 20 45  1  0  0  0  0
 20 46  1  0  0  0  0
 20 47  1  0  0  0  0
 21 22  1  0  0  0  0
 21 24  1  0  0  0  0
 22 23  1  0  0  0  0
 23 48  1  0  0  0  0
 23 49  1  0  0  0  0
 23 50  1  0  0  0  0
 24 51  1  0  0  0  0
 25 26  1  0  0  0  0
 26 27  1  0  0  0  0
 26 52  1  0  0  0  0
 27 28  1  0  0  0  0
 28 53  1  0  0  0  0
 29 30  2  0  0  0  0
 29 54  1  0  0  0  0
 30 31  1  0  0  0  0
 30 55  1  0  0  0  0
 31 32  1  0  0  0  0
 32 56  1  0  0  0  0
M  END
$$$$
