CHEMBL150606
 OpenBabel04072215363D

 45 48  0  0  0  0  0  0  0  0999 V2000
    2.3310    0.2572    1.1133 C   0  0  0  0  0  0  0  0  0  0  0  0
    2.3751    0.1115   -0.3049 O   0  0  0  0  0  0  0  0  0  0  0  0
    3.1041   -0.9111   -0.8360 C   0  0  0  0  0  0  0  0  0  0  0  0
    4.1243   -1.5540   -0.1349 C   0  0  0  0  0  0  0  0  0  0  0  0
    4.7662   -2.6994   -0.6496 C   0  0  0  0  0  0  0  0  0  0  0  0
    5.7040   -3.4653    0.0579 C   0  0  0  0  0  0  0  0  0  0  0  0
    5.9978   -3.1343    1.4080 N   0  0  0  0  0  0  0  0  0  0  0  0
    6.6199   -4.0135    2.3232 C   0  0  0  0  0  0  0  0  0  0  0  0
    6.2433   -5.3595    2.4087 C   0  0  0  0  0  0  0  0  0  0  0  0
    6.9193   -6.2355    3.2601 C   0  0  0  0  0  0  0  0  0  0  0  0
    7.9647   -5.7610    4.0493 C   0  0  0  0  0  0  0  0  0  0  0  0
    8.8328   -6.8550    5.0521 Cl  0  0  0  0  0  0  0  0  0  0  0  0
    8.3177   -4.4160    4.0239 C   0  0  0  0  0  0  0  0  0  0  0  0
    7.6347   -3.5529    3.1709 C   0  0  0  0  0  0  0  0  0  0  0  0
    7.9827   -2.2578    3.1373 F   0  0  0  0  0  0  0  0  0  0  0  0
    6.2933   -4.5436   -0.4877 N   0  0  0  0  0  0  0  0  0  0  0  0
    5.9368   -4.8692   -1.7315 C   0  0  0  0  0  0  0  0  0  0  0  0
    5.0280   -4.2324   -2.4776 N   0  0  0  0  0  0  0  0  0  0  0  0
    4.4452   -3.1625   -1.9295 C   0  0  0  0  0  0  0  0  0  0  0  0
    3.4734   -2.4757   -2.6487 C   0  0  0  0  0  0  0  0  0  0  0  0
    2.8214   -1.3468   -2.1387 C   0  0  0  0  0  0  0  0  0  0  0  0
    1.9238   -0.7975   -3.0210 O   0  0  0  0  0  0  0  0  0  0  0  0
    1.6302    0.5949   -2.8689 C   0  0  0  0  0  0  0  0  0  0  0  0
    1.2446    1.1808   -4.2205 C   0  0  0  0  0  0  0  0  0  0  0  0
   -0.0277    0.6855   -4.6925 N   0  0  0  0  0  0  0  0  0  0  0  0
   -0.2520   -0.2816   -5.6215 C   0  0  0  0  0  0  0  0  0  0  0  0
   -1.5458   -0.4245   -5.7978 N   0  0  0  0  0  0  0  0  0  0  0  0
   -2.0753    0.4973   -4.9412 C   0  0  0  0  0  0  0  0  0  0  0  0
   -1.1830    1.2172   -4.2535 N   0  0  0  0  0  0  0  0  0  0  0  0
    2.9378    1.1209    1.3986 H   0  0  0  0  0  0  0  0  0  0  0  0
    2.6444   -0.6247    1.6795 H   0  0  0  0  0  0  0  0  0  0  0  0
    1.2940    0.4537    1.3984 H   0  0  0  0  0  0  0  0  0  0  0  0
    4.4308   -1.1863    0.8396 H   0  0  0  0  0  0  0  0  0  0  0  0
    6.3731   -2.1929    1.4750 H   0  0  0  0  0  0  0  0  0  0  0  0
    5.4323   -5.7401    1.7894 H   0  0  0  0  0  0  0  0  0  0  0  0
    6.6326   -7.2830    3.2845 H   0  0  0  0  0  0  0  0  0  0  0  0
    9.1246   -4.0329    4.6409 H   0  0  0  0  0  0  0  0  0  0  0  0
    6.4227   -5.7315   -2.1694 H   0  0  0  0  0  0  0  0  0  0  0  0
    3.2123   -2.8406   -3.6410 H   0  0  0  0  0  0  0  0  0  0  0  0
    2.5185    1.1418   -2.5297 H   0  0  0  0  0  0  0  0  0  0  0  0
    0.8126    0.7157   -2.1490 H   0  0  0  0  0  0  0  0  0  0  0  0
    1.9955    0.9365   -4.9805 H   0  0  0  0  0  0  0  0  0  0  0  0
    1.1632    2.2712   -4.1551 H   0  0  0  0  0  0  0  0  0  0  0  0
    0.5341   -0.8319   -6.1181 H   0  0  0  0  0  0  0  0  0  0  0  0
   -3.1395    0.6494   -4.8153 H   0  0  0  0  0  0  0  0  0  0  0  0
  1  2  1  0  0  0  0
  1 30  1  0  0  0  0
  1 31  1  0  0  0  0
  1 32  1  0  0  0  0
  2  3  1  0  0  0  0
  3  4  1  0  0  0  0
  3 21  2  0  0  0  0
  4  5  2  0  0  0  0
  4 33  1  0  0  0  0
  5  6  1  0  0  0  0
  5 19  1  0  0  0  0
  6  7  1  0  0  0  0
  6 16  2  0  0  0  0
  7  8  1  0  0  0  0
  7 34  1  0  0  0  0
  8  9  1  0  0  0  0
  8 14  2  0  0  0  0
  9 10  2  0  0  0  0
  9 35  1  0  0  0  0
 10 11  1  0  0  0  0
 10 36  1  0  0  0  0
 11 12  1  0  0  0  0
 11 13  2  0  0  0  0
 13 14  1  0  0  0  0
 13 37  1  0  0  0  0
 14 15  1  0  0  0  0
 16 17  1  0  0  0  0
 17 18  2  0  0  0  0
 17 38  1  0  0  0  0
 18 19  1  0  0  0  0
 19 20  2  0  0  0  0
 20 21  1  0  0  0  0
 20 39  1  0  0  0  0
 21 22  1  0  0  0  0
 22 23  1  0  0  0  0
 23 24  1  0  0  0  0
 23 40  1  0  0  0  0
 23 41  1  0  0  0  0
 24 25  1  0  0  0  0
 24 42  1  0  0  0  0
 24 43  1  0  0  0  0
 25 26  1  0  0  0  0
 25 29  1  0  0  0  0
 26 27  2  0  0  0  0
 26 44  1  0  0  0  0
 27 28  1  0  0  0  0
 28 29  2  0  0  0  0
 28 45  1  0  0  0  0
M  END
$$$$
