CHEMBL359947
 OpenBabel04072215363D

 61 64  0  0  0  0  0  0  0  0999 V2000
    2.6670   -6.4185    1.4225 C   0  0  0  0  0  0  0  0  0  0  0  0
    1.1933   -6.6788    1.3247 C   0  0  0  0  0  0  0  0  0  0  0  0
    0.7056   -7.9811    1.4722 C   0  0  0  0  0  0  0  0  0  0  0  0
   -0.6567   -8.2294    1.3795 C   0  0  0  0  0  0  0  0  0  0  0  0
   -1.5395   -7.1794    1.1396 C   0  0  0  0  0  0  0  0  0  0  0  0
   -1.0862   -5.8632    1.0041 C   0  0  0  0  0  0  0  0  0  0  0  0
   -1.9526   -4.7680    0.7652 N   0  0  0  0  0  0  0  0  0  0  0  0
   -3.3339   -4.8296    0.7776 C   0  0  0  0  0  0  0  0  0  0  0  0
   -3.9898   -5.8237    1.0750 O   0  0  0  0  0  0  0  0  0  0  0  0
   -3.9236   -3.6431    0.3602 N   0  0  0  0  0  0  0  0  0  0  0  0
   -5.3348   -3.5708    0.2804 C   0  0  0  0  0  0  0  0  0  0  0  0
   -6.1435   -4.0668    1.3034 C   0  0  0  0  0  0  0  0  0  0  0  0
   -7.5273   -4.1416    1.1369 C   0  0  0  0  0  0  0  0  0  0  0  0
   -8.1498   -3.6896   -0.0394 C   0  0  0  0  0  0  0  0  0  0  0  0
   -9.6160   -3.7927   -0.1979 C   0  0  0  0  0  0  0  0  0  0  0  0
  -10.4553   -3.5438    0.9037 C   0  0  0  0  0  0  0  0  0  0  0  0
  -11.8560   -3.6567    0.8374 C   0  0  0  0  0  0  0  0  0  0  0  0
  -12.5028   -4.0402   -0.3385 C   0  0  0  0  0  0  0  0  0  0  0  0
  -13.9054   -4.1993   -0.4168 N   0  0  0  0  0  0  0  0  0  0  0  0
  -14.7746   -4.2496    0.6638 C   0  0  0  0  0  0  0  0  0  0  0  0
  -14.4628   -4.1850    1.8520 O   0  0  0  0  0  0  0  0  0  0  0  0
  -16.2473   -4.4028    0.2826 C   0  0  0  0  0  0  0  0  0  0  0  0
  -16.4735   -5.5772   -0.5868 N   0  0  0  0  0  0  0  0  0  0  0  0
  -16.0867   -6.8194    0.0960 C   0  0  0  0  0  0  0  0  0  0  0  0
  -17.8957   -5.6433   -0.9390 C   0  0  0  0  0  0  0  0  0  0  0  0
  -11.6750   -4.2584   -1.4315 C   0  0  0  0  0  0  0  0  0  0  0  0
  -10.2672   -4.1471   -1.3799 C   0  0  0  0  0  0  0  0  0  0  0  0
   -9.6937   -4.5085   -2.7145 C   0  0  0  0  0  0  0  0  0  0  0  0
  -10.8596   -4.8194   -3.4991 N   0  0  0  0  0  0  0  0  0  0  0  0
  -12.0319   -4.6696   -2.7892 C   0  0  0  0  0  0  0  0  0  0  0  0
  -13.1583   -4.8310   -3.2119 O   0  0  0  0  0  0  0  0  0  0  0  0
   -7.3201   -3.1235   -1.0224 C   0  0  0  0  0  0  0  0  0  0  0  0
   -5.9281   -3.0624   -0.8695 C   0  0  0  0  0  0  0  0  0  0  0  0
    0.2919   -5.6223    1.0925 C   0  0  0  0  0  0  0  0  0  0  0  0
    3.2240   -7.3493    1.5777 H   0  0  0  0  0  0  0  0  0  0  0  0
    2.8787   -5.7574    2.2680 H   0  0  0  0  0  0  0  0  0  0  0  0
    3.0341   -5.9624    0.4982 H   0  0  0  0  0  0  0  0  0  0  0  0
    1.3808   -8.8126    1.6582 H   0  0  0  0  0  0  0  0  0  0  0  0
   -1.0434   -9.2391    1.4936 H   0  0  0  0  0  0  0  0  0  0  0  0
   -2.5899   -7.4430    1.0674 H   0  0  0  0  0  0  0  0  0  0  0  0
   -1.5382   -3.8496    0.7229 H   0  0  0  0  0  0  0  0  0  0  0  0
   -3.4069   -3.1475   -0.3508 H   0  0  0  0  0  0  0  0  0  0  0  0
   -5.7062   -4.4374    2.2284 H   0  0  0  0  0  0  0  0  0  0  0  0
   -8.1080   -4.5879    1.9432 H   0  0  0  0  0  0  0  0  0  0  0  0
  -10.0347   -3.2549    1.8653 H   0  0  0  0  0  0  0  0  0  0  0  0
  -12.4036   -3.4266    1.7471 H   0  0  0  0  0  0  0  0  0  0  0  0
  -14.2967   -4.4576   -1.3260 H   0  0  0  0  0  0  0  0  0  0  0  0
  -16.5450   -3.4783   -0.2267 H   0  0  0  0  0  0  0  0  0  0  0  0
  -16.8335   -4.4767    1.2086 H   0  0  0  0  0  0  0  0  0  0  0  0
  -15.0216   -6.8230    0.3510 H   0  0  0  0  0  0  0  0  0  0  0  0
  -16.2417   -7.6780   -0.5665 H   0  0  0  0  0  0  0  0  0  0  0  0
  -16.6595   -6.9839    1.0162 H   0  0  0  0  0  0  0  0  0  0  0  0
  -18.2118   -4.7256   -1.4470 H   0  0  0  0  0  0  0  0  0  0  0  0
  -18.5354   -5.7839   -0.0589 H   0  0  0  0  0  0  0  0  0  0  0  0
  -18.0795   -6.4696   -1.6339 H   0  0  0  0  0  0  0  0  0  0  0  0
   -9.0496   -5.3909   -2.6732 H   0  0  0  0  0  0  0  0  0  0  0  0
   -9.1895   -3.6706   -3.2002 H   0  0  0  0  0  0  0  0  0  0  0  0
  -10.8538   -5.0666   -4.4805 H   0  0  0  0  0  0  0  0  0  0  0  0
   -7.7416   -2.7165   -1.9354 H   0  0  0  0  0  0  0  0  0  0  0  0
   -5.3262   -2.6777   -1.6870 H   0  0  0  0  0  0  0  0  0  0  0  0
    0.6801   -4.6131    0.9838 H   0  0  0  0  0  0  0  0  0  0  0  0
  1  2  1  0  0  0  0
  1 35  1  0  0  0  0
  1 36  1  0  0  0  0
  1 37  1  0  0  0  0
  2  3  1  0  0  0  0
  2 34  2  0  0  0  0
  3  4  2  0  0  0  0
  3 38  1  0  0  0  0
  4  5  1  0  0  0  0
  4 39  1  0  0  0  0
  5  6  2  0  0  0  0
  5 40  1  0  0  0  0
  6  7  1  0  0  0  0
  6 34  1  0  0  0  0
  7  8  1  0  0  0  0
  7 41  1  0  0  0  0
  8  9  2  0  0  0  0
  8 10  1  0  0  0  0
 10 11  1  0  0  0  0
 10 42  1  0  0  0  0
 11 12  1  0  0  0  0
 11 33  2  0  0  0  0
 12 13  2  0  0  0  0
 12 43  1  0  0  0  0
 13 14  1  0  0  0  0
 13 44  1  0  0  0  0
 14 15  1  0  0  0  0
 14 32  2  0  0  0  0
 15 16  1  0  0  0  0
 15 27  2  0  0  0  0
 16 17  2  0  0  0  0
 16 45  1  0  0  0  0
 17 18  1  0  0  0  0
 17 46  1  0  0  0  0
 18 19  1  0  0  0  0
 18 26  2  0  0  0  0
 19 20  1  0  0  0  0
 19 47  1  0  0  0  0
 20 21  2  0  0  0  0
 20 22  1  0  0  0  0
 22 23  1  0  0  0  0
 22 48  1  0  0  0  0
 22 49  1  0  0  0  0
 23 24  1  0  0  0  0
 23 25  1  0  0  0  0
 24 50  1  0  0  0  0
 24 51  1  0  0  0  0
 24 52  1  0  0  0  0
 25 53  1  0  0  0  0
 25 54  1  0  0  0  0
 25 55  1  0  0  0  0
 26 27  1  0  0  0  0
 26 30  1  0  0  0  0
 27 28  1  0  0  0  0
 28 29  1  0  0  0  0
 28 56  1  0  0  0  0
 28 57  1  0  0  0  0
 29 30  1  0  0  0  0
 29 58  1  0  0  0  0
 30 31  2  0  0  0  0
 32 33  1  0  0  0  0
 32 59  1  0  0  0  0
 33 60  1  0  0  0  0
 34 61  1  0  0  0  0
M  END
$$$$
