CHEMBL1967720
 OpenBabel04072215363D

 62 66  0  0  0  0  0  0  0  0999 V2000
    0.3497   -3.4168    0.9623 C   0  0  0  0  0  0  0  0  0  0  0  0
    1.7098   -2.9072    1.4694 C   0  0  0  0  0  0  0  0  0  0  0  0
    1.4968   -1.5820    2.2282 C   0  0  0  0  0  0  0  0  0  0  0  0
    2.3083   -3.9220    2.4622 C   0  0  0  0  0  0  0  0  0  0  0  0
    3.5423   -3.6406    2.9855 N   0  0  0  0  0  0  0  0  0  0  0  0
    1.7344   -4.9475    2.8239 O   0  0  0  0  0  0  0  0  0  0  0  0
    2.5994   -2.7409    0.3072 N   0  0  0  0  0  0  0  0  0  0  0  0
    3.3952   -3.6928   -0.2769 C   0  0  0  0  0  0  0  0  0  0  0  0
    3.9840   -3.1077   -1.3825 C   0  0  0  0  0  0  0  0  0  0  0  0
    4.8976   -3.7981   -2.2737 C   0  0  0  0  0  0  0  0  0  0  0  0
    4.8304   -5.1703   -2.4418 C   0  0  0  0  0  0  0  0  0  0  0  0
    5.6666   -5.8972   -3.1946 N   0  0  0  0  0  0  0  0  0  0  0  0
    6.6480   -5.2884   -3.8844 C   0  0  0  0  0  0  0  0  0  0  0  0
    7.4635   -6.1808   -4.5613 N   0  0  0  0  0  0  0  0  0  0  0  0
    6.7863   -3.8654   -3.8626 C   0  0  0  0  0  0  0  0  0  0  0  0
    7.6884   -2.9476   -4.5872 C   0  0  0  0  0  0  0  0  0  0  0  0
    8.6863   -3.2513   -5.6225 C   0  0  0  0  0  0  0  0  0  0  0  0
    8.4469   -4.2769   -6.5302 C   0  0  0  0  0  0  0  0  0  0  0  0
    9.4359   -4.6982   -7.4111 C   0  0  0  0  0  0  0  0  0  0  0  0
   10.6359   -4.0004   -7.5323 C   0  0  0  0  0  0  0  0  0  0  0  0
   11.6146   -4.3667   -8.4805 N   0  0  0  0  0  0  0  0  0  0  0  0
   11.3477   -5.1508   -9.5889 C   0  0  0  0  0  0  0  0  0  0  0  0
   10.2305   -5.5130   -9.9396 O   0  0  0  0  0  0  0  0  0  0  0  0
   12.5051   -5.5114  -10.2655 N   0  0  0  0  0  0  0  0  0  0  0  0
   12.4356   -6.2420  -11.4653 C   0  0  0  0  0  0  0  0  0  0  0  0
   11.4609   -5.9606  -12.4374 C   0  0  0  0  0  0  0  0  0  0  0  0
   11.3608   -6.7271  -13.6019 C   0  0  0  0  0  0  0  0  0  0  0  0
   12.2388   -7.7861  -13.7989 C   0  0  0  0  0  0  0  0  0  0  0  0
   13.2080   -8.0587  -12.8377 C   0  0  0  0  0  0  0  0  0  0  0  0
   14.0317   -9.1011  -13.0167 F   0  0  0  0  0  0  0  0  0  0  0  0
   13.3282   -7.2854  -11.6834 C   0  0  0  0  0  0  0  0  0  0  0  0
   10.8616   -2.9107   -6.6911 C   0  0  0  0  0  0  0  0  0  0  0  0
    9.8991   -2.5489   -5.7324 C   0  0  0  0  0  0  0  0  0  0  0  0
    7.4811   -1.6353   -4.2196 C   0  0  0  0  0  0  0  0  0  0  0  0
    6.3123   -1.4634   -3.0143 S   0  0  0  0  0  0  0  0  0  0  0  0
    5.9133   -3.1473   -3.0138 C   0  0  0  0  0  0  0  0  0  0  0  0
    3.4369   -1.8047   -1.3963 C   0  0  0  0  0  0  0  0  0  0  0  0
    2.6149   -1.5747   -0.3701 N   0  0  0  0  0  0  0  0  0  0  0  0
   -0.3607   -3.5525    1.7879 H   0  0  0  0  0  0  0  0  0  0  0  0
    0.4495   -4.3836    0.4539 H   0  0  0  0  0  0  0  0  0  0  0  0
   -0.0980   -2.7163    0.2477 H   0  0  0  0  0  0  0  0  0  0  0  0
    0.8491   -1.7314    3.0998 H   0  0  0  0  0  0  0  0  0  0  0  0
    1.0247   -0.8217    1.5953 H   0  0  0  0  0  0  0  0  0  0  0  0
    2.4432   -1.1643    2.5913 H   0  0  0  0  0  0  0  0  0  0  0  0
    4.1694   -2.9680    2.5603 H   0  0  0  0  0  0  0  0  0  0  0  0
    3.9531   -4.3487    3.5824 H   0  0  0  0  0  0  0  0  0  0  0  0
    3.4658   -4.6933    0.1326 H   0  0  0  0  0  0  0  0  0  0  0  0
    4.0659   -5.7655   -1.9490 H   0  0  0  0  0  0  0  0  0  0  0  0
    7.2601   -7.1298   -4.2685 H   0  0  0  0  0  0  0  0  0  0  0  0
    8.4409   -5.9272   -4.6006 H   0  0  0  0  0  0  0  0  0  0  0  0
    7.4964   -4.8044   -6.5550 H   0  0  0  0  0  0  0  0  0  0  0  0
    9.2241   -5.5915   -7.9906 H   0  0  0  0  0  0  0  0  0  0  0  0
   12.4623   -3.8191   -8.5173 H   0  0  0  0  0  0  0  0  0  0  0  0
   13.2986   -5.6889   -9.6640 H   0  0  0  0  0  0  0  0  0  0  0  0
   10.7508   -5.1424  -12.2935 H   0  0  0  0  0  0  0  0  0  0  0  0
   10.5921   -6.5007  -14.3379 H   0  0  0  0  0  0  0  0  0  0  0  0
   12.1657   -8.4087  -14.6865 H   0  0  0  0  0  0  0  0  0  0  0  0
   14.0743   -7.5618  -10.9464 H   0  0  0  0  0  0  0  0  0  0  0  0
   11.7732   -2.3240   -6.7664 H   0  0  0  0  0  0  0  0  0  0  0  0
   10.1166   -1.7072   -5.0788 H   0  0  0  0  0  0  0  0  0  0  0  0
    7.9707   -0.7487   -4.5998 H   0  0  0  0  0  0  0  0  0  0  0  0
    3.5879   -1.0072   -2.1126 H   0  0  0  0  0  0  0  0  0  0  0  0
  1  2  1  0  0  0  0
  1 39  1  0  0  0  0
  1 40  1  0  0  0  0
  1 41  1  0  0  0  0
  2  3  1  0  0  0  0
  2  4  1  0  0  0  0
  2  7  1  0  0  0  0
  3 42  1  0  0  0  0
  3 43  1  0  0  0  0
  3 44  1  0  0  0  0
  4  5  1  0  0  0  0
  4  6  2  0  0  0  0
  5 45  1  0  0  0  0
  5 46  1  0  0  0  0
  7  8  1  0  0  0  0
  7 38  1  0  0  0  0
  8  9  2  0  0  0  0
  8 47  1  0  0  0  0
  9 10  1  0  0  0  0
  9 37  1  0  0  0  0
 10 11  1  0  0  0  0
 10 36  2  0  0  0  0
 11 12  2  0  0  0  0
 11 48  1  0  0  0  0
 12 13  1  0  0  0  0
 13 14  1  0  0  0  0
 13 15  2  0  0  0  0
 14 49  1  0  0  0  0
 14 50  1  0  0  0  0
 15 16  1  0  0  0  0
 15 36  1  0  0  0  0
 16 17  1  0  0  0  0
 16 34  2  0  0  0  0
 17 18  1  0  0  0  0
 17 33  2  0  0  0  0
 18 19  2  0  0  0  0
 18 51  1  0  0  0  0
 19 20  1  0  0  0  0
 19 52  1  0  0  0  0
 20 21  1  0  0  0  0
 20 32  2  0  0  0  0
 21 22  1  0  0  0  0
 21 53  1  0  0  0  0
 22 23  2  0  0  0  0
 22 24  1  0  0  0  0
 24 25  1  0  0  0  0
 24 54  1  0  0  0  0
 25 26  1  0  0  0  0
 25 31  2  0  0  0  0
 26 27  2  0  0  0  0
 26 55  1  0  0  0  0
 27 28  1  0  0  0  0
 27 56  1  0  0  0  0
 28 29  2  0  0  0  0
 28 57  1  0  0  0  0
 29 30  1  0  0  0  0
 29 31  1  0  0  0  0
 31 58  1  0  0  0  0
 32 33  1  0  0  0  0
 32 59  1  0  0  0  0
 33 60  1  0  0  0  0
 34 35  1  0  0  0  0
 34 61  1  0  0  0  0
 35 36  1  0  0  0  0
 37 38  2  0  0  0  0
 37 62  1  0  0  0  0
M  END
$$$$
