CHEMBL4066302
 OpenBabel04072215383D

 63 67  0  0  0  0  0  0  0  0999 V2000
    2.6102    0.1128   -0.0320 C   0  0  0  0  0  0  0  0  0  0  0  0
    1.1103   -0.0135    0.0625 C   0  0  0  0  0  0  0  0  0  0  0  0
    0.4397    1.2161    0.1766 C   0  0  0  0  0  0  0  0  0  0  0  0
   -0.9471    1.3479    0.1163 C   0  0  0  0  0  0  0  0  0  0  0  0
   -1.6014    2.6074    0.1146 N   0  0  0  0  0  0  0  0  0  0  0  0
   -0.9443    3.8219   -0.0135 C   0  0  0  0  0  0  0  0  0  0  0  0
    0.2530    3.9547   -0.2333 O   0  0  0  0  0  0  0  0  0  0  0  0
   -1.7864    4.9108    0.1732 N   0  0  0  0  0  0  0  0  0  0  0  0
   -1.2434    6.2226    0.1494 C   0  0  0  0  0  0  0  0  0  0  0  0
   -0.2717    6.5999   -0.7792 C   0  0  0  0  0  0  0  0  0  0  0  0
    0.4007    7.8197   -0.6521 C   0  0  0  0  0  0  0  0  0  0  0  0
    0.0867    8.7269    0.3753 C   0  0  0  0  0  0  0  0  0  0  0  0
    0.8389    9.9902    0.5359 C   0  0  0  0  0  0  0  0  0  0  0  0
    1.2912   10.7051   -0.5985 C   0  0  0  0  0  0  0  0  0  0  0  0
    1.9931   11.8929   -0.4599 C   0  0  0  0  0  0  0  0  0  0  0  0
    2.2970   12.4774    0.7096 N   0  0  0  0  0  0  0  0  0  0  0  0
    1.8651   11.7752    1.7716 C   0  0  0  0  0  0  0  0  0  0  0  0
    2.0505   12.1553    3.0628 N   0  0  0  0  0  0  0  0  0  0  0  0
    1.5564   11.2954    3.9614 N   0  0  0  0  0  0  0  0  0  0  0  0
    1.0446   10.3057    3.2100 C   0  0  0  0  0  0  0  0  0  0  0  0
    0.4612    9.1489    3.9390 C   0  0  0  0  0  0  0  0  0  0  0  0
    1.1690   10.5672    1.7982 C   0  0  0  0  0  0  0  0  0  0  0  0
   -0.9911    8.3810    1.2042 C   0  0  0  0  0  0  0  0  0  0  0  0
   -1.6322    7.1362    1.1214 C   0  0  0  0  0  0  0  0  0  0  0  0
   -1.6847    0.1763    0.0545 C   0  0  0  0  0  0  0  0  0  0  0  0
   -1.0282   -1.0744    0.0110 C   0  0  0  0  0  0  0  0  0  0  0  0
    0.3791   -1.2185    0.0039 C   0  0  0  0  0  0  0  0  0  0  0  0
    0.9793   -2.4633   -0.1356 N   0  0  0  0  0  0  0  0  0  0  0  0
    2.1897   -2.8557    0.6137 C   0  0  0  0  0  0  0  0  0  0  0  0
    3.0992   -3.7018   -0.3074 C   0  0  0  0  0  0  0  0  0  0  0  0
    2.4162   -4.9454   -0.7288 N   0  0  0  0  0  0  0  0  0  0  0  0
    3.2750   -5.7360   -1.6055 C   0  0  0  0  0  0  0  0  0  0  0  0
    1.1518   -4.5879   -1.4139 C   0  0  0  0  0  0  0  0  0  0  0  0
    0.2280   -3.6570   -0.5801 C   0  0  0  0  0  0  0  0  0  0  0  0
    2.9109    1.1217   -0.3413 H   0  0  0  0  0  0  0  0  0  0  0  0
    3.0232   -0.5683   -0.7820 H   0  0  0  0  0  0  0  0  0  0  0  0
    3.0679   -0.0470    0.9479 H   0  0  0  0  0  0  0  0  0  0  0  0
    1.0666    2.0991    0.2727 H   0  0  0  0  0  0  0  0  0  0  0  0
   -2.6048    2.6123    0.0236 H   0  0  0  0  0  0  0  0  0  0  0  0
   -2.5476    4.7485    0.8144 H   0  0  0  0  0  0  0  0  0  0  0  0
    0.0140    5.9296   -1.5880 H   0  0  0  0  0  0  0  0  0  0  0  0
    1.1962    8.0285   -1.3658 H   0  0  0  0  0  0  0  0  0  0  0  0
    1.0908   10.3442   -1.6033 H   0  0  0  0  0  0  0  0  0  0  0  0
    2.3394   12.4303   -1.3398 H   0  0  0  0  0  0  0  0  0  0  0  0
    2.5157   12.9944    3.3836 H   0  0  0  0  0  0  0  0  0  0  0  0
    0.7756    9.1450    4.9895 H   0  0  0  0  0  0  0  0  0  0  0  0
    0.7790    8.1993    3.5008 H   0  0  0  0  0  0  0  0  0  0  0  0
   -0.6305    9.2068    3.9487 H   0  0  0  0  0  0  0  0  0  0  0  0
   -1.3434    9.0818    1.9533 H   0  0  0  0  0  0  0  0  0  0  0  0
   -2.3793    6.8785    1.8654 H   0  0  0  0  0  0  0  0  0  0  0  0
   -2.7705    0.1936    0.0295 H   0  0  0  0  0  0  0  0  0  0  0  0
   -1.6655   -1.9554   -0.0136 H   0  0  0  0  0  0  0  0  0  0  0  0
    1.9005   -3.4463    1.4929 H   0  0  0  0  0  0  0  0  0  0  0  0
    2.7720   -2.0299    1.0105 H   0  0  0  0  0  0  0  0  0  0  0  0
    4.0183   -3.9483    0.2355 H   0  0  0  0  0  0  0  0  0  0  0  0
    3.3851   -3.1050   -1.1856 H   0  0  0  0  0  0  0  0  0  0  0  0
    4.2055   -6.0033   -1.0933 H   0  0  0  0  0  0  0  0  0  0  0  0
    3.5320   -5.2064   -2.5295 H   0  0  0  0  0  0  0  0  0  0  0  0
    2.7856   -6.6790   -1.8704 H   0  0  0  0  0  0  0  0  0  0  0  0
    0.5959   -5.5034   -1.6473 H   0  0  0  0  0  0  0  0  0  0  0  0
    1.3720   -4.0850   -2.3656 H   0  0  0  0  0  0  0  0  0  0  0  0
   -0.1537   -4.1969    0.2965 H   0  0  0  0  0  0  0  0  0  0  0  0
   -0.6227   -3.3979   -1.2186 H   0  0  0  0  0  0  0  0  0  0  0  0
  1  2  1  0  0  0  0
  1 35  1  0  0  0  0
  1 36  1  0  0  0  0
  1 37  1  0  0  0  0
  2  3  1  0  0  0  0
  2 27  2  0  0  0  0
  3  4  2  0  0  0  0
  3 38  1  0  0  0  0
  4  5  1  0  0  0  0
  4 25  1  0  0  0  0
  5  6  1  0  0  0  0
  5 39  1  0  0  0  0
  6  7  2  0  0  0  0
  6  8  1  0  0  0  0
  8  9  1  0  0  0  0
  8 40  1  0  0  0  0
  9 10  1  0  0  0  0
  9 24  2  0  0  0  0
 10 11  2  0  0  0  0
 10 41  1  0  0  0  0
 11 12  1  0  0  0  0
 11 42  1  0  0  0  0
 12 13  1  0  0  0  0
 12 23  2  0  0  0  0
 13 14  1  0  0  0  0
 13 22  2  0  0  0  0
 14 15  2  0  0  0  0
 14 43  1  0  0  0  0
 15 16  1  0  0  0  0
 15 44  1  0  0  0  0
 16 17  2  0  0  0  0
 17 18  1  0  0  0  0
 17 22  1  0  0  0  0
 18 19  1  0  0  0  0
 18 45  1  0  0  0  0
 19 20  2  0  0  0  0
 20 21  1  0  0  0  0
 20 22  1  0  0  0  0
 21 46  1  0  0  0  0
 21 47  1  0  0  0  0
 21 48  1  0  0  0  0
 23 24  1  0  0  0  0
 23 49  1  0  0  0  0
 24 50  1  0  0  0  0
 25 26  2  0  0  0  0
 25 51  1  0  0  0  0
 26 27  1  0  0  0  0
 26 52  1  0  0  0  0
 27 28  1  0  0  0  0
 28 29  1  0  0  0  0
 28 34  1  0  0  0  0
 29 30  1  0  0  0  0
 29 53  1  0  0  0  0
 29 54  1  0  0  0  0
 30 31  1  0  0  0  0
 30 55  1  0  0  0  0
 30 56  1  0  0  0  0
 31 32  1  0  0  0  0
 31 33  1  0  0  0  0
 32 57  1  0  0  0  0
 32 58  1  0  0  0  0
 32 59  1  0  0  0  0
 33 34  1  0  0  0  0
 33 60  1  0  0  0  0
 33 61  1  0  0  0  0
 34 62  1  0  0  0  0
 34 63  1  0  0  0  0
M  END
$$$$
