CHEMBL201708
 OpenBabel04072215363D

 49 52  0  0  0  0  0  0  0  0999 V2000
    0.4682   -1.9866    0.1850 C   0  0  0  0  0  0  0  0  0  0  0  0
    1.7448   -1.4117    0.4404 O   0  0  0  0  0  0  0  0  0  0  0  0
    2.7434   -1.6948   -0.4535 C   0  0  0  0  0  0  0  0  0  0  0  0
    2.4839   -2.0870   -1.7797 C   0  0  0  0  0  0  0  0  0  0  0  0
    3.5237   -2.3185   -2.6900 C   0  0  0  0  0  0  0  0  0  0  0  0
    3.2150   -2.7125   -4.0691 C   0  0  0  0  0  0  0  0  0  0  0  0
    2.9513   -1.9041   -5.1212 C   0  0  0  0  0  0  0  0  0  0  0  0
    2.9060   -0.4933   -5.0569 C   0  0  0  0  0  0  0  0  0  0  0  0
    4.0352    0.2885   -5.0778 C   0  0  0  0  0  0  0  0  0  0  0  0
    3.7714    1.3483   -4.2421 N   0  0  0  0  0  0  0  0  0  0  0  0
    4.7998    2.1799   -3.6577 C   0  0  0  0  0  0  0  0  0  0  0  0
    2.4413    1.3458   -3.8651 C   0  0  0  0  0  0  0  0  0  0  0  0
    1.7365    2.1402   -2.9467 C   0  0  0  0  0  0  0  0  0  0  0  0
    0.3740    1.8798   -2.7635 C   0  0  0  0  0  0  0  0  0  0  0  0
   -0.2715    0.8817   -3.4872 C   0  0  0  0  0  0  0  0  0  0  0  0
    0.4518    0.0539   -4.3500 C   0  0  0  0  0  0  0  0  0  0  0  0
    1.8366    0.2690   -4.5199 C   0  0  0  0  0  0  0  0  0  0  0  0
    2.6744   -2.7605   -6.2856 C   0  0  0  0  0  0  0  0  0  0  0  0
    2.3938   -2.3925   -7.4108 O   0  0  0  0  0  0  0  0  0  0  0  0
    2.7832   -4.0387   -5.8622 N   0  0  0  0  0  0  0  0  0  0  0  0
    3.0580   -4.1002   -4.5526 C   0  0  0  0  0  0  0  0  0  0  0  0
    3.1310   -5.1011   -3.8552 O   0  0  0  0  0  0  0  0  0  0  0  0
    4.8443   -2.1104   -2.2793 C   0  0  0  0  0  0  0  0  0  0  0  0
    5.1232   -1.6922   -0.9695 C   0  0  0  0  0  0  0  0  0  0  0  0
    6.4001   -1.5029   -0.4966 O   0  0  0  0  0  0  0  0  0  0  0  0
    7.3483   -1.0203   -1.4383 C   0  0  0  0  0  0  0  0  0  0  0  0
    4.0788   -1.5151   -0.0368 C   0  0  0  0  0  0  0  0  0  0  0  0
    4.4692   -1.0857    1.2100 O   0  0  0  0  0  0  0  0  0  0  0  0
    3.7178   -1.5603    2.3208 C   0  0  0  0  0  0  0  0  0  0  0  0
   -0.1609   -1.8069    1.0624 H   0  0  0  0  0  0  0  0  0  0  0  0
    0.5427   -3.0704    0.0435 H   0  0  0  0  0  0  0  0  0  0  0  0
   -0.0170   -1.5058   -0.6700 H   0  0  0  0  0  0  0  0  0  0  0  0
    1.4641   -2.1890   -2.1333 H   0  0  0  0  0  0  0  0  0  0  0  0
    5.0433    0.0890   -5.4120 H   0  0  0  0  0  0  0  0  0  0  0  0
    5.7356    2.0358   -4.2050 H   0  0  0  0  0  0  0  0  0  0  0  0
    4.9316    1.8624   -2.6185 H   0  0  0  0  0  0  0  0  0  0  0  0
    4.4922    3.2258   -3.7129 H   0  0  0  0  0  0  0  0  0  0  0  0
    2.2316    2.9095   -2.3632 H   0  0  0  0  0  0  0  0  0  0  0  0
   -0.1880    2.4652   -2.0387 H   0  0  0  0  0  0  0  0  0  0  0  0
   -1.3381    0.7195   -3.3545 H   0  0  0  0  0  0  0  0  0  0  0  0
   -0.0482   -0.7518   -4.8792 H   0  0  0  0  0  0  0  0  0  0  0  0
    2.6052   -4.8430   -6.4423 H   0  0  0  0  0  0  0  0  0  0  0  0
    5.6509   -2.2870   -2.9816 H   0  0  0  0  0  0  0  0  0  0  0  0
    8.2143   -0.6487   -0.8817 H   0  0  0  0  0  0  0  0  0  0  0  0
    6.9469   -0.1834   -2.0244 H   0  0  0  0  0  0  0  0  0  0  0  0
    7.6949   -1.8256   -2.0923 H   0  0  0  0  0  0  0  0  0  0  0  0
    4.3550   -1.4864    3.2093 H   0  0  0  0  0  0  0  0  0  0  0  0
    3.4265   -2.6106    2.2118 H   0  0  0  0  0  0  0  0  0  0  0  0
    2.8502   -0.9198    2.5033 H   0  0  0  0  0  0  0  0  0  0  0  0
  1  2  1  0  0  0  0
  1 30  1  0  0  0  0
  1 31  1  0  0  0  0
  1 32  1  0  0  0  0
  2  3  1  0  0  0  0
  3  4  1  0  0  0  0
  3 27  2  0  0  0  0
  4  5  2  0  0  0  0
  4 33  1  0  0  0  0
  5  6  1  0  0  0  0
  5 23  1  0  0  0  0
  6  7  2  0  0  0  0
  6 21  1  0  0  0  0
  7  8  1  0  0  0  0
  7 18  1  0  0  0  0
  8  9  2  0  0  0  0
  8 17  1  0  0  0  0
  9 10  1  0  0  0  0
  9 34  1  0  0  0  0
 10 11  1  0  0  0  0
 10 12  1  0  0  0  0
 11 35  1  0  0  0  0
 11 36  1  0  0  0  0
 11 37  1  0  0  0  0
 12 13  1  0  0  0  0
 12 17  2  0  0  0  0
 13 14  2  0  0  0  0
 13 38  1  0  0  0  0
 14 15  1  0  0  0  0
 14 39  1  0  0  0  0
 15 16  2  0  0  0  0
 15 40  1  0  0  0  0
 16 17  1  0  0  0  0
 16 41  1  0  0  0  0
 18 19  2  0  0  0  0
 18 20  1  0  0  0  0
 20 21  1  0  0  0  0
 20 42  1  0  0  0  0
 21 22  2  0  0  0  0
 23 24  2  0  0  0  0
 23 43  1  0  0  0  0
 24 25  1  0  0  0  0
 24 27  1  0  0  0  0
 25 26  1  0  0  0  0
 26 44  1  0  0  0  0
 26 45  1  0  0  0  0
 26 46  1  0  0  0  0
 27 28  1  0  0  0  0
 28 29  1  0  0  0  0
 29 47  1  0  0  0  0
 29 48  1  0  0  0  0
 29 49  1  0  0  0  0
M  END
$$$$
