CHEMBL3890870
 OpenBabel04072215373D

 61 65  0  0  0  0  0  0  0  0999 V2000
    0.8418   -3.3053    2.5916 C   0  0  0  0  0  0  0  0  0  0  0  0
    2.2123   -3.2318    2.9942 O   0  0  0  0  0  0  0  0  0  0  0  0
    3.0930   -2.6016    2.1472 C   0  0  0  0  0  0  0  0  0  0  0  0
    2.7503   -2.0850    0.8978 C   0  0  0  0  0  0  0  0  0  0  0  0
    3.7064   -1.4033    0.1483 C   0  0  0  0  0  0  0  0  0  0  0  0
    3.4913   -0.8147   -1.0706 O   0  0  0  0  0  0  0  0  0  0  0  0
    2.2239   -1.0274   -1.6832 C   0  0  0  0  0  0  0  0  0  0  0  0
    5.0088   -1.2401    0.6514 C   0  0  0  0  0  0  0  0  0  0  0  0
    5.4013   -1.7525    1.8970 C   0  0  0  0  0  0  0  0  0  0  0  0
    6.6466   -1.4238    2.5044 N   0  0  0  0  0  0  0  0  0  0  0  0
    7.1534   -0.0132    2.2636 C   0  0  0  0  0  0  0  0  0  0  0  0
    6.2173    1.1810    2.5243 C   0  0  0  0  0  0  0  0  0  0  0  0
    5.9684    1.5583    3.8986 N   0  0  0  0  0  0  0  0  0  0  0  0
    5.1810    0.9273    4.8103 C   0  0  0  0  0  0  0  0  0  0  0  0
    4.9808    1.7059    5.8502 N   0  0  0  0  0  0  0  0  0  0  0  0
    5.6588    2.8508    5.5265 C   0  0  0  0  0  0  0  0  0  0  0  0
    5.6554    4.0455    6.4038 C   0  0  0  0  0  0  0  0  0  0  0  0
    6.2892    2.8037    4.3404 N   0  0  0  0  0  0  0  0  0  0  0  0
    7.8053   -2.2583    2.7301 C   0  0  0  0  0  0  0  0  0  0  0  0
    8.5078   -1.9473    3.8946 C   0  0  0  0  0  0  0  0  0  0  0  0
    9.8591   -2.2341    3.9993 C   0  0  0  0  0  0  0  0  0  0  0  0
   10.5133   -2.9912    3.0636 C   0  0  0  0  0  0  0  0  0  0  0  0
   11.8298   -3.0349    3.2493 N   0  0  0  0  0  0  0  0  0  0  0  0
   12.5154   -3.9235    2.5173 C   0  0  0  0  0  0  0  0  0  0  0  0
   11.8805   -4.8182    1.6847 C   0  0  0  0  0  0  0  0  0  0  0  0
   12.6133   -6.0651    1.4499 C   0  0  0  0  0  0  0  0  0  0  0  0
   13.2610   -6.6355    0.3310 C   0  0  0  0  0  0  0  0  0  0  0  0
   13.9592   -7.7408    0.6365 N   0  0  0  0  0  0  0  0  0  0  0  0
   13.7507   -7.8940    1.9563 N   0  0  0  0  0  0  0  0  0  0  0  0
   14.1309   -9.1127    2.6356 C   0  0  0  0  0  0  0  0  0  0  0  0
   13.0809   -6.8403    2.5055 C   0  0  0  0  0  0  0  0  0  0  0  0
   10.5321   -4.6663    1.3673 N   0  0  0  0  0  0  0  0  0  0  0  0
    9.8050   -3.6731    2.0431 C   0  0  0  0  0  0  0  0  0  0  0  0
    8.4218   -3.2049    1.8581 C   0  0  0  0  0  0  0  0  0  0  0  0
    4.4164   -2.4533    2.6253 C   0  0  0  0  0  0  0  0  0  0  0  0
    0.2594   -3.7133    3.4249 H   0  0  0  0  0  0  0  0  0  0  0  0
    0.7201   -3.9838    1.7398 H   0  0  0  0  0  0  0  0  0  0  0  0
    0.4259   -2.3165    2.3641 H   0  0  0  0  0  0  0  0  0  0  0  0
    1.7435   -2.1994    0.5169 H   0  0  0  0  0  0  0  0  0  0  0  0
    2.2486   -0.5585   -2.6717 H   0  0  0  0  0  0  0  0  0  0  0  0
    1.4218   -0.5507   -1.1094 H   0  0  0  0  0  0  0  0  0  0  0  0
    2.0259   -2.0948   -1.8270 H   0  0  0  0  0  0  0  0  0  0  0  0
    5.7091   -0.6743    0.0446 H   0  0  0  0  0  0  0  0  0  0  0  0
    7.5044    0.0407    1.2261 H   0  0  0  0  0  0  0  0  0  0  0  0
    8.0461    0.1899    2.8750 H   0  0  0  0  0  0  0  0  0  0  0  0
    5.2451    1.0918    2.0364 H   0  0  0  0  0  0  0  0  0  0  0  0
    6.7095    2.0546    2.0736 H   0  0  0  0  0  0  0  0  0  0  0  0
    4.7647   -0.0586    4.6600 H   0  0  0  0  0  0  0  0  0  0  0  0
    5.1551    3.8294    7.3548 H   0  0  0  0  0  0  0  0  0  0  0  0
    5.1231    4.8807    5.9350 H   0  0  0  0  0  0  0  0  0  0  0  0
    6.6751    4.3717    6.6312 H   0  0  0  0  0  0  0  0  0  0  0  0
    8.0567   -1.3282    4.6614 H   0  0  0  0  0  0  0  0  0  0  0  0
   10.4213   -1.8392    4.8358 H   0  0  0  0  0  0  0  0  0  0  0  0
   13.5765   -3.9730    2.7146 H   0  0  0  0  0  0  0  0  0  0  0  0
   13.2909   -6.2848   -0.6925 H   0  0  0  0  0  0  0  0  0  0  0  0
   14.2000   -9.9265    1.9088 H   0  0  0  0  0  0  0  0  0  0  0  0
   13.3527   -9.3536    3.3669 H   0  0  0  0  0  0  0  0  0  0  0  0
   15.0886   -8.9681    3.1416 H   0  0  0  0  0  0  0  0  0  0  0  0
   12.9672   -6.7491    3.5780 H   0  0  0  0  0  0  0  0  0  0  0  0
    7.8859   -3.5658    0.9814 H   0  0  0  0  0  0  0  0  0  0  0  0
    4.6484   -2.8347    3.6186 H   0  0  0  0  0  0  0  0  0  0  0  0
  1  2  1  0  0  0  0
  1 36  1  0  0  0  0
  1 37  1  0  0  0  0
  1 38  1  0  0  0  0
  2  3  1  0  0  0  0
  3  4  1  0  0  0  0
  3 35  2  0  0  0  0
  4  5  2  0  0  0  0
  4 39  1  0  0  0  0
  5  6  1  0  0  0  0
  5  8  1  0  0  0  0
  6  7  1  0  0  0  0
  7 40  1  0  0  0  0
  7 41  1  0  0  0  0
  7 42  1  0  0  0  0
  8  9  2  0  0  0  0
  8 43  1  0  0  0  0
  9 10  1  0  0  0  0
  9 35  1  0  0  0  0
 10 11  1  0  0  0  0
 10 19  1  0  0  0  0
 11 12  1  0  0  0  0
 11 44  1  0  0  0  0
 11 45  1  0  0  0  0
 12 13  1  0  0  0  0
 12 46  1  0  0  0  0
 12 47  1  0  0  0  0
 13 14  1  0  0  0  0
 13 18  1  0  0  0  0
 14 15  2  0  0  0  0
 14 48  1  0  0  0  0
 15 16  1  0  0  0  0
 16 17  1  0  0  0  0
 16 18  2  0  0  0  0
 17 49  1  0  0  0  0
 17 50  1  0  0  0  0
 17 51  1  0  0  0  0
 19 20  1  0  0  0  0
 19 34  2  0  0  0  0
 20 21  2  0  0  0  0
 20 52  1  0  0  0  0
 21 22  1  0  0  0  0
 21 53  1  0  0  0  0
 22 23  1  0  0  0  0
 22 33  2  0  0  0  0
 23 24  2  0  0  0  0
 24 25  1  0  0  0  0
 24 54  1  0  0  0  0
 25 26  1  0  0  0  0
 25 32  2  0  0  0  0
 26 27  1  0  0  0  0
 26 31  2  0  0  0  0
 27 28  2  0  0  0  0
 27 55  1  0  0  0  0
 28 29  1  0  0  0  0
 29 30  1  0  0  0  0
 29 31  1  0  0  0  0
 30 56  1  0  0  0  0
 30 57  1  0  0  0  0
 30 58  1  0  0  0  0
 31 59  1  0  0  0  0
 32 33  1  0  0  0  0
 33 34  1  0  0  0  0
 34 60  1  0  0  0  0
 35 61  1  0  0  0  0
M  END
$$$$
