CHEMBL214376
 OpenBabel04072215363D

 63 67  0  0  0  0  0  0  0  0999 V2000
    2.6318   -3.8958    2.4196 C   0  0  0  0  0  0  0  0  0  0  0  0
    2.1729   -2.6398    1.6726 C   0  0  0  0  0  0  0  0  0  0  0  0
    0.9100   -2.0539    2.2952 C   0  0  0  0  0  0  0  0  0  0  0  0
    3.1276   -1.5926    1.5350 O   0  0  0  0  0  0  0  0  0  0  0  0
    4.3760   -1.8045    1.0043 C   0  0  0  0  0  0  0  0  0  0  0  0
    5.2630   -0.7815    1.4216 C   0  0  0  0  0  0  0  0  0  0  0  0
    6.6295   -0.8827    1.1927 C   0  0  0  0  0  0  0  0  0  0  0  0
    7.4190    0.1915    1.5311 O   0  0  0  0  0  0  0  0  0  0  0  0
    8.6885    0.2508    0.8539 C   0  0  0  0  0  0  0  0  0  0  0  0
    9.2057    1.6865    0.7521 C   0  0  0  0  0  0  0  0  0  0  0  0
    9.5552    2.3297    2.1030 C   0  0  0  0  0  0  0  0  0  0  0  0
   10.1124    3.6876    1.9343 N   0  0  0  0  0  0  0  0  0  0  0  0
   10.5359    4.2768    3.2162 C   0  0  0  0  0  0  0  0  0  0  0  0
    9.3894    5.1681    3.6506 C   0  0  0  0  0  0  0  0  0  0  0  0
    8.9144    5.7507    2.3389 C   0  0  0  0  0  0  0  0  0  0  0  0
    9.1482    4.6317    1.3356 C   0  0  0  0  0  0  0  0  0  0  0  0
    7.0954   -2.0814    0.6810 C   0  0  0  0  0  0  0  0  0  0  0  0
    6.2477   -3.0844    0.2236 C   0  0  0  0  0  0  0  0  0  0  0  0
    6.8779   -4.1678   -0.2107 N   0  0  0  0  0  0  0  0  0  0  0  0
    6.1330   -5.1179   -0.7696 C   0  0  0  0  0  0  0  0  0  0  0  0
    4.8479   -5.0072   -1.0489 N   0  0  0  0  0  0  0  0  0  0  0  0
    4.1959   -3.9413   -0.5727 C   0  0  0  0  0  0  0  0  0  0  0  0
    2.8265   -3.8699   -0.9053 N   0  0  0  0  0  0  0  0  0  0  0  0
    1.8152   -4.8693   -0.9219 C   0  0  0  0  0  0  0  0  0  0  0  0
    0.4695   -4.5332   -1.2321 C   0  0  0  0  0  0  0  0  0  0  0  0
    0.0612   -2.9329   -1.7628 Cl  0  0  0  0  0  0  0  0  0  0  0  0
   -0.5958   -5.4496   -1.0819 C   0  0  0  0  0  0  0  0  0  0  0  0
   -0.3574   -6.7445   -0.6296 C   0  0  0  0  0  0  0  0  0  0  0  0
    0.9478   -7.0779   -0.3543 C   0  0  0  0  0  0  0  0  0  0  0  0
    1.9944   -6.1739   -0.4716 C   0  0  0  0  0  0  0  0  0  0  0  0
    3.1550   -6.7497   -0.0410 O   0  0  0  0  0  0  0  0  0  0  0  0
    2.7803   -8.1304    0.0164 C   0  0  0  0  0  0  0  0  0  0  0  0
    1.3555   -8.3034    0.0861 O   0  0  0  0  0  0  0  0  0  0  0  0
    4.8577   -2.9107    0.2139 C   0  0  0  0  0  0  0  0  0  0  0  0
    1.8306   -4.6444    2.4372 H   0  0  0  0  0  0  0  0  0  0  0  0
    2.9344   -3.6786    3.4466 H   0  0  0  0  0  0  0  0  0  0  0  0
    3.4900   -4.3818    1.9492 H   0  0  0  0  0  0  0  0  0  0  0  0
    1.8257   -2.8807    0.6869 H   0  0  0  0  0  0  0  0  0  0  0  0
    1.1274   -1.4523    3.1797 H   0  0  0  0  0  0  0  0  0  0  0  0
    0.1854   -2.8368    2.5407 H   0  0  0  0  0  0  0  0  0  0  0  0
    0.4347   -1.3874    1.5636 H   0  0  0  0  0  0  0  0  0  0  0  0
    4.8795    0.0871    1.9552 H   0  0  0  0  0  0  0  0  0  0  0  0
    8.5858   -0.1094   -0.1790 H   0  0  0  0  0  0  0  0  0  0  0  0
    9.4150   -0.3783    1.3824 H   0  0  0  0  0  0  0  0  0  0  0  0
    8.4409    2.2759    0.2357 H   0  0  0  0  0  0  0  0  0  0  0  0
   10.1004    1.6898    0.1160 H   0  0  0  0  0  0  0  0  0  0  0  0
   10.3188    1.7025    2.5826 H   0  0  0  0  0  0  0  0  0  0  0  0
    8.6811    2.3413    2.7640 H   0  0  0  0  0  0  0  0  0  0  0  0
   11.4263    4.8930    3.0349 H   0  0  0  0  0  0  0  0  0  0  0  0
   10.8072    3.5411    3.9808 H   0  0  0  0  0  0  0  0  0  0  0  0
    9.6983    5.9441    4.3569 H   0  0  0  0  0  0  0  0  0  0  0  0
    8.5933    4.5736    4.1138 H   0  0  0  0  0  0  0  0  0  0  0  0
    9.5138    6.6289    2.0730 H   0  0  0  0  0  0  0  0  0  0  0  0
    7.8631    6.0529    2.3813 H   0  0  0  0  0  0  0  0  0  0  0  0
    9.5531    5.0312    0.3994 H   0  0  0  0  0  0  0  0  0  0  0  0
    8.1832    4.1697    1.1043 H   0  0  0  0  0  0  0  0  0  0  0  0
    8.1664   -2.2701    0.6264 H   0  0  0  0  0  0  0  0  0  0  0  0
    6.6115   -6.0599   -0.9852 H   0  0  0  0  0  0  0  0  0  0  0  0
    2.5652   -2.9980   -1.3541 H   0  0  0  0  0  0  0  0  0  0  0  0
   -1.6180   -5.1475   -1.3034 H   0  0  0  0  0  0  0  0  0  0  0  0
   -1.1597   -7.4615   -0.4942 H   0  0  0  0  0  0  0  0  0  0  0  0
    3.2482   -8.5920    0.8912 H   0  0  0  0  0  0  0  0  0  0  0  0
    3.1529   -8.6324   -0.8867 H   0  0  0  0  0  0  0  0  0  0  0  0
  1  2  1  0  0  0  0
  1 35  1  0  0  0  0
  1 36  1  0  0  0  0
  1 37  1  0  0  0  0
  2  3  1  0  0  0  0
  2  4  1  0  0  0  0
  2 38  1  0  0  0  0
  3 39  1  0  0  0  0
  3 40  1  0  0  0  0
  3 41  1  0  0  0  0
  4  5  1  0  0  0  0
  5  6  1  0  0  0  0
  5 34  2  0  0  0  0
  6  7  2  0  0  0  0
  6 42  1  0  0  0  0
  7  8  1  0  0  0  0
  7 17  1  0  0  0  0
  8  9  1  0  0  0  0
  9 10  1  0  0  0  0
  9 43  1  0  0  0  0
  9 44  1  0  0  0  0
 10 11  1  0  0  0  0
 10 45  1  0  0  0  0
 10 46  1  0  0  0  0
 11 12  1  0  0  0  0
 11 47  1  0  0  0  0
 11 48  1  0  0  0  0
 12 13  1  0  0  0  0
 12 16  1  0  0  0  0
 13 14  1  0  0  0  0
 13 49  1  0  0  0  0
 13 50  1  0  0  0  0
 14 15  1  0  0  0  0
 14 51  1  0  0  0  0
 14 52  1  0  0  0  0
 15 16  1  0  0  0  0
 15 53  1  0  0  0  0
 15 54  1  0  0  0  0
 16 55  1  0  0  0  0
 16 56  1  0  0  0  0
 17 18  2  0  0  0  0
 17 57  1  0  0  0  0
 18 19  1  0  0  0  0
 18 34  1  0  0  0  0
 19 20  2  0  0  0  0
 20 21  1  0  0  0  0
 20 58  1  0  0  0  0
 21 22  2  0  0  0  0
 22 23  1  0  0  0  0
 22 34  1  0  0  0  0
 23 24  1  0  0  0  0
 23 59  1  0  0  0  0
 24 25  1  0  0  0  0
 24 30  2  0  0  0  0
 25 26  1  0  0  0  0
 25 27  2  0  0  0  0
 27 28  1  0  0  0  0
 27 60  1  0  0  0  0
 28 29  2  0  0  0  0
 28 61  1  0  0  0  0
 29 30  1  0  0  0  0
 29 33  1  0  0  0  0
 30 31  1  0  0  0  0
 31 32  1  0  0  0  0
 32 33  1  0  0  0  0
 32 62  1  0  0  0  0
 32 63  1  0  0  0  0
M  END
$$$$
