CHEMBL1269661
 OpenBabel04072215363D

 30 32  0  0  0  0  0  0  0  0999 V2000
    1.2980   -0.1131   -0.7571 O   0  0  0  0  0  0  0  0  0  0  0  0
    2.3920   -0.0558   -0.2075 C   0  0  0  0  0  0  0  0  0  0  0  0
    2.8840   -0.9199    0.7507 N   0  0  0  0  0  0  0  0  0  0  0  0
    2.2281   -2.0736    1.2578 C   0  0  0  0  0  0  0  0  0  0  0  0
    1.1422   -2.6612    0.5973 C   0  0  0  0  0  0  0  0  0  0  0  0
    0.4958   -3.7635    1.1445 C   0  0  0  0  0  0  0  0  0  0  0  0
    0.9304   -4.2865    2.3561 C   0  0  0  0  0  0  0  0  0  0  0  0
    2.0309   -3.7179    3.0181 C   0  0  0  0  0  0  0  0  0  0  0  0
    2.4689   -4.2328    4.2434 C   0  0  0  0  0  0  0  0  0  0  0  0
    3.5561   -3.6600    4.8855 C   0  0  0  0  0  0  0  0  0  0  0  0
    4.1774   -2.5885    4.2731 C   0  0  0  0  0  0  0  0  0  0  0  0
    3.7829   -2.0555    3.0906 N   0  0  0  0  0  0  0  0  0  0  0  0
    2.7119   -2.6078    2.4662 C   0  0  0  0  0  0  0  0  0  0  0  0
    3.2647    1.0853   -0.5488 C   0  0  0  0  0  0  0  0  0  0  0  0
    4.6523    0.9741   -0.6505 C   0  0  0  0  0  0  0  0  0  0  0  0
    5.3954    2.1006   -1.0035 C   0  0  0  0  0  0  0  0  0  0  0  0
    4.7168    3.2878   -1.2374 C   0  0  0  0  0  0  0  0  0  0  0  0
    5.5638    4.7171   -1.6574 Cl  0  0  0  0  0  0  0  0  0  0  0  0
    3.3779    3.4274   -1.1608 N   0  0  0  0  0  0  0  0  0  0  0  0
    2.6771    2.3150   -0.8302 C   0  0  0  0  0  0  0  0  0  0  0  0
    3.6958   -0.6491    1.3022 H   0  0  0  0  0  0  0  0  0  0  0  0
    0.7847   -2.2828   -0.3556 H   0  0  0  0  0  0  0  0  0  0  0  0
   -0.3510   -4.2065    0.6262 H   0  0  0  0  0  0  0  0  0  0  0  0
    0.4066   -5.1372    2.7809 H   0  0  0  0  0  0  0  0  0  0  0  0
    1.9591   -5.0758    4.7049 H   0  0  0  0  0  0  0  0  0  0  0  0
    3.9055   -4.0387    5.8391 H   0  0  0  0  0  0  0  0  0  0  0  0
    5.0363   -2.1094    4.7354 H   0  0  0  0  0  0  0  0  0  0  0  0
    5.1538    0.0238   -0.4914 H   0  0  0  0  0  0  0  0  0  0  0  0
    6.4739    2.0482   -1.1006 H   0  0  0  0  0  0  0  0  0  0  0  0
    1.5987    2.4463   -0.7905 H   0  0  0  0  0  0  0  0  0  0  0  0
  1  2  2  0  0  0  0
  2  3  1  0  0  0  0
  2 14  1  0  0  0  0
  3  4  1  0  0  0  0
  3 21  1  0  0  0  0
  4  5  1  0  0  0  0
  4 13  2  0  0  0  0
  5  6  2  0  0  0  0
  5 22  1  0  0  0  0
  6  7  1  0  0  0  0
  6 23  1  0  0  0  0
  7  8  2  0  0  0  0
  7 24  1  0  0  0  0
  8  9  1  0  0  0  0
  8 13  1  0  0  0  0
  9 10  2  0  0  0  0
  9 25  1  0  0  0  0
 10 11  1  0  0  0  0
 10 26  1  0  0  0  0
 11 12  2  0  0  0  0
 11 27  1  0  0  0  0
 12 13  1  0  0  0  0
 14 15  1  0  0  0  0
 14 20  2  0  0  0  0
 15 16  2  0  0  0  0
 15 28  1  0  0  0  0
 16 17  1  0  0  0  0
 16 29  1  0  0  0  0
 17 18  1  0  0  0  0
 17 19  2  0  0  0  0
 19 20  1  0  0  0  0
 20 30  1  0  0  0  0
M  END
$$$$
