CHEMBL1271559
 OpenBabel04072215363D

 33 35  0  0  0  0  0  0  0  0999 V2000
    1.0559    0.2070   -0.2545 O   0  0  0  0  0  0  0  0  0  0  0  0
    2.2502   -0.0527   -0.1254 C   0  0  0  0  0  0  0  0  0  0  0  0
    2.8532   -1.2740   -0.3512 N   0  0  0  0  0  0  0  0  0  0  0  0
    2.1805   -2.4536   -0.7875 C   0  0  0  0  0  0  0  0  0  0  0  0
    0.9084   -2.4023   -1.3755 C   0  0  0  0  0  0  0  0  0  0  0  0
    0.2362   -3.5674   -1.7254 C   0  0  0  0  0  0  0  0  0  0  0  0
    0.8355   -4.7972   -1.4984 C   0  0  0  0  0  0  0  0  0  0  0  0
    2.1217   -4.8649   -0.9431 C   0  0  0  0  0  0  0  0  0  0  0  0
    2.7254   -6.1063   -0.7117 C   0  0  0  0  0  0  0  0  0  0  0  0
    3.9975   -6.1645   -0.1630 C   0  0  0  0  0  0  0  0  0  0  0  0
    4.6279   -4.9700    0.1342 C   0  0  0  0  0  0  0  0  0  0  0  0
    4.0756   -3.7485   -0.0619 N   0  0  0  0  0  0  0  0  0  0  0  0
    2.8277   -3.6876   -0.5932 C   0  0  0  0  0  0  0  0  0  0  0  0
    3.1105    1.0442    0.3832 C   0  0  0  0  0  0  0  0  0  0  0  0
    2.5407    1.9387    1.3052 C   0  0  0  0  0  0  0  0  0  0  0  0
    3.2553    3.0499    1.7539 C   0  0  0  0  0  0  0  0  0  0  0  0
    4.5472    3.2728    1.2654 C   0  0  0  0  0  0  0  0  0  0  0  0
    5.2938    4.4553    1.7155 N   0  3  0  0  0  0  0  0  0  0  0  0
    4.7438    5.2123    2.5284 O   0  0  0  0  0  0  0  0  0  0  0  0
    6.4333    4.6244    1.2569 O   0  5  0  0  0  0  0  0  0  0  0  0
    5.1247    2.3866    0.3398 C   0  0  0  0  0  0  0  0  0  0  0  0
    4.4042    1.2673   -0.1004 C   0  0  0  0  0  0  0  0  0  0  0  0
    3.7911   -1.4474    0.0015 H   0  0  0  0  0  0  0  0  0  0  0  0
    0.4144   -1.4574   -1.5799 H   0  0  0  0  0  0  0  0  0  0  0  0
   -0.7560   -3.5070   -2.1656 H   0  0  0  0  0  0  0  0  0  0  0  0
    0.2930   -5.7026   -1.7606 H   0  0  0  0  0  0  0  0  0  0  0  0
    2.2042   -7.0303   -0.9511 H   0  0  0  0  0  0  0  0  0  0  0  0
    4.4808   -7.1161    0.0272 H   0  0  0  0  0  0  0  0  0  0  0  0
    5.6282   -4.9662    0.5574 H   0  0  0  0  0  0  0  0  0  0  0  0
    1.5233    1.7767    1.6610 H   0  0  0  0  0  0  0  0  0  0  0  0
    2.7849    3.7311    2.4604 H   0  0  0  0  0  0  0  0  0  0  0  0
    6.1207    2.5668   -0.0614 H   0  0  0  0  0  0  0  0  0  0  0  0
    4.8404    0.6117   -0.8504 H   0  0  0  0  0  0  0  0  0  0  0  0
  1  2  2  0  0  0  0
  2  3  1  0  0  0  0
  2 14  1  0  0  0  0
  3  4  1  0  0  0  0
  3 23  1  0  0  0  0
  4  5  1  0  0  0  0
  4 13  2  0  0  0  0
  5  6  2  0  0  0  0
  5 24  1  0  0  0  0
  6  7  1  0  0  0  0
  6 25  1  0  0  0  0
  7  8  2  0  0  0  0
  7 26  1  0  0  0  0
  8  9  1  0  0  0  0
  8 13  1  0  0  0  0
  9 10  2  0  0  0  0
  9 27  1  0  0  0  0
 10 11  1  0  0  0  0
 10 28  1  0  0  0  0
 11 12  2  0  0  0  0
 11 29  1  0  0  0  0
 12 13  1  0  0  0  0
 14 15  1  0  0  0  0
 14 22  2  0  0  0  0
 15 16  2  0  0  0  0
 15 30  1  0  0  0  0
 16 17  1  0  0  0  0
 16 31  1  0  0  0  0
 17 18  1  0  0  0  0
 17 21  2  0  0  0  0
 18 19  2  0  0  0  0
 18 20  1  0  0  0  0
 21 22  1  0  0  0  0
 21 32  1  0  0  0  0
 22 33  1  0  0  0  0
M  CHG  2  18   1  20  -1
M  END
$$$$
