CHEMBL231109
 OpenBabel04072215363D

 48 51  0  0  0  0  0  0  0  0999 V2000
    1.9148    0.3131    0.2960 C   0  0  0  0  0  0  0  0  0  0  0  0
    1.7002   -0.1442   -1.1392 C   0  0  0  0  0  0  0  0  0  0  0  0
    2.1180    0.8966   -2.1455 C   0  0  0  0  0  0  0  0  0  0  0  0
    1.1833    1.8517   -2.5726 C   0  0  0  0  0  0  0  0  0  0  0  0
    1.5396    2.8057   -3.5120 C   0  0  0  0  0  0  0  0  0  0  0  0
    2.8437    2.8422   -4.0029 C   0  0  0  0  0  0  0  0  0  0  0  0
    3.8194    1.9508   -3.5387 C   0  0  0  0  0  0  0  0  0  0  0  0
    5.1706    2.0346   -3.9571 N   0  0  0  0  0  0  0  0  0  0  0  0
    5.7497    3.2141   -4.4031 C   0  0  0  0  0  0  0  0  0  0  0  0
    5.1912    4.3089   -4.3794 O   0  0  0  0  0  0  0  0  0  0  0  0
    7.0373    3.0269   -4.9001 N   0  0  0  0  0  0  0  0  0  0  0  0
    7.7668    4.1464   -5.3759 C   0  0  0  0  0  0  0  0  0  0  0  0
    7.7454    5.3607   -4.6865 C   0  0  0  0  0  0  0  0  0  0  0  0
    8.2330    6.5254   -5.2816 C   0  0  0  0  0  0  0  0  0  0  0  0
    8.7921    6.4912   -6.5665 C   0  0  0  0  0  0  0  0  0  0  0  0
    9.1436    7.7423   -7.2601 C   0  0  0  0  0  0  0  0  0  0  0  0
    9.6984    8.7841   -6.5388 C   0  0  0  0  0  0  0  0  0  0  0  0
   10.0313   10.1561   -7.4785 S   0  0  0  0  0  0  0  0  0  0  0  0
    9.4469    9.4045   -8.9076 C   0  0  0  0  0  0  0  0  0  0  0  0
    9.4333    9.9896  -10.1794 C   0  0  0  0  0  0  0  0  0  0  0  0
    8.9124    9.2214  -11.1929 C   0  0  0  0  0  0  0  0  0  0  0  0
    8.3987    7.9957  -11.0159 N   0  0  0  0  0  0  0  0  0  0  0  0
    8.3860    7.4332   -9.7866 C   0  0  0  0  0  0  0  0  0  0  0  0
    7.7471    6.1990   -9.7402 N   0  0  0  0  0  0  0  0  0  0  0  0
    8.9563    8.1110   -8.6708 C   0  0  0  0  0  0  0  0  0  0  0  0
    8.9649    5.2388   -7.1712 C   0  0  0  0  0  0  0  0  0  0  0  0
    8.4439    4.0705   -6.5903 C   0  0  0  0  0  0  0  0  0  0  0  0
    3.4410    0.9514   -2.6311 C   0  0  0  0  0  0  0  0  0  0  0  0
    1.5541   -0.4518    0.9914 H   0  0  0  0  0  0  0  0  0  0  0  0
    1.3724    1.2415    0.5056 H   0  0  0  0  0  0  0  0  0  0  0  0
    2.9753    0.4882    0.5025 H   0  0  0  0  0  0  0  0  0  0  0  0
    0.6394   -0.3820   -1.2885 H   0  0  0  0  0  0  0  0  0  0  0  0
    2.2467   -1.0770   -1.3220 H   0  0  0  0  0  0  0  0  0  0  0  0
    0.1709    1.8480   -2.1749 H   0  0  0  0  0  0  0  0  0  0  0  0
    0.8133    3.5377   -3.8592 H   0  0  0  0  0  0  0  0  0  0  0  0
    3.0769    3.5986   -4.7516 H   0  0  0  0  0  0  0  0  0  0  0  0
    5.8107    1.3386   -3.6052 H   0  0  0  0  0  0  0  0  0  0  0  0
    7.1659    2.1561   -5.3968 H   0  0  0  0  0  0  0  0  0  0  0  0
    7.2852    5.4303   -3.7031 H   0  0  0  0  0  0  0  0  0  0  0  0
    8.1125    7.4591   -4.7378 H   0  0  0  0  0  0  0  0  0  0  0  0
    9.9336    8.8159   -5.4831 H   0  0  0  0  0  0  0  0  0  0  0  0
    9.8150   10.9871  -10.3591 H   0  0  0  0  0  0  0  0  0  0  0  0
    8.8814    9.5921  -12.2137 H   0  0  0  0  0  0  0  0  0  0  0  0
    7.2423    6.0695  -10.6111 H   0  0  0  0  0  0  0  0  0  0  0  0
    7.1877    6.0781   -8.9041 H   0  0  0  0  0  0  0  0  0  0  0  0
    9.4498    5.1610   -8.1428 H   0  0  0  0  0  0  0  0  0  0  0  0
    8.4984    3.1404   -7.1492 H   0  0  0  0  0  0  0  0  0  0  0  0
    4.1694    0.2295   -2.2761 H   0  0  0  0  0  0  0  0  0  0  0  0
  1  2  1  0  0  0  0
  1 29  1  0  0  0  0
  1 30  1  0  0  0  0
  1 31  1  0  0  0  0
  2  3  1  0  0  0  0
  2 32  1  0  0  0  0
  2 33  1  0  0  0  0
  3  4  1  0  0  0  0
  3 28  2  0  0  0  0
  4  5  2  0  0  0  0
  4 34  1  0  0  0  0
  5  6  1  0  0  0  0
  5 35  1  0  0  0  0
  6  7  2  0  0  0  0
  6 36  1  0  0  0  0
  7  8  1  0  0  0  0
  7 28  1  0  0  0  0
  8  9  1  0  0  0  0
  8 37  1  0  0  0  0
  9 10  2  0  0  0  0
  9 11  1  0  0  0  0
 11 12  1  0  0  0  0
 11 38  1  0  0  0  0
 12 13  1  0  0  0  0
 12 27  2  0  0  0  0
 13 14  2  0  0  0  0
 13 39  1  0  0  0  0
 14 15  1  0  0  0  0
 14 40  1  0  0  0  0
 15 16  1  0  0  0  0
 15 26  2  0  0  0  0
 16 17  2  0  0  0  0
 16 25  1  0  0  0  0
 17 18  1  0  0  0  0
 17 41  1  0  0  0  0
 18 19  1  0  0  0  0
 19 20  1  0  0  0  0
 19 25  2  0  0  0  0
 20 21  2  0  0  0  0
 20 42  1  0  0  0  0
 21 22  1  0  0  0  0
 21 43  1  0  0  0  0
 22 23  2  0  0  0  0
 23 24  1  0  0  0  0
 23 25  1  0  0  0  0
 24 44  1  0  0  0  0
 24 45  1  0  0  0  0
 26 27  1  0  0  0  0
 26 46  1  0  0  0  0
 27 47  1  0  0  0  0
 28 48  1  0  0  0  0
M  END
$$$$
