CHEMBL1289976
 OpenBabel04072215363D

 35 38  0  0  0  0  0  0  0  0999 V2000
    1.0814    0.9570    0.0710 C   0  0  0  0  0  0  0  0  0  0  0  0
    0.7869    0.4690   -1.2015 C   0  0  0  0  0  0  0  0  0  0  0  0
   -0.5273    0.4849   -1.6663 C   0  0  0  0  0  0  0  0  0  0  0  0
   -1.5583    0.9864   -0.8597 C   0  0  0  0  0  0  0  0  0  0  0  0
   -2.9869    0.9977   -1.3336 C   0  0  0  0  0  0  0  0  0  0  0  0
   -3.7423   -0.0011   -0.6064 N   0  0  0  0  0  0  0  0  0  0  0  0
   -5.1421   -0.0141   -0.5854 C   0  0  0  0  0  0  0  0  0  0  0  0
   -5.7555   -0.8295    0.3835 C   0  0  0  0  0  0  0  0  0  0  0  0
   -7.1066   -1.1382    0.3074 C   0  0  0  0  0  0  0  0  0  0  0  0
   -7.9054   -0.8456   -0.7318 N   0  0  0  0  0  0  0  0  0  0  0  0
   -7.2585   -0.1667   -1.6950 C   0  0  0  0  0  0  0  0  0  0  0  0
   -7.6493   -0.2162   -3.0039 O   0  0  0  0  0  0  0  0  0  0  0  0
   -6.6749    0.4160   -3.7116 C   0  0  0  0  0  0  0  0  0  0  0  0
   -6.3961    0.2727   -5.0651 C   0  0  0  0  0  0  0  0  0  0  0  0
   -5.3530    1.0566   -5.5697 C   0  0  0  0  0  0  0  0  0  0  0  0
   -4.7502    2.0353   -4.7815 C   0  0  0  0  0  0  0  0  0  0  0  0
   -5.0166    2.1193   -3.4125 C   0  0  0  0  0  0  0  0  0  0  0  0
   -5.8694    1.1481   -2.8549 C   0  0  0  0  0  0  0  0  0  0  0  0
   -5.9976    0.4331   -1.6253 C   0  0  0  0  0  0  0  0  0  0  0  0
   -1.2481    1.4704    0.4190 C   0  0  0  0  0  0  0  0  0  0  0  0
    0.0644    1.4518    0.8840 C   0  0  0  0  0  0  0  0  0  0  0  0
    2.1091    0.9481    0.4267 H   0  0  0  0  0  0  0  0  0  0  0  0
    1.5836    0.0884   -1.8231 H   0  0  0  0  0  0  0  0  0  0  0  0
   -0.7429    0.0881   -2.6569 H   0  0  0  0  0  0  0  0  0  0  0  0
   -3.0082    0.7986   -2.4100 H   0  0  0  0  0  0  0  0  0  0  0  0
   -3.3862    1.9984   -1.1405 H   0  0  0  0  0  0  0  0  0  0  0  0
   -3.2888   -0.3194    0.2418 H   0  0  0  0  0  0  0  0  0  0  0  0
   -5.1612   -1.2804    1.1721 H   0  0  0  0  0  0  0  0  0  0  0  0
   -7.5736   -1.7376    1.0847 H   0  0  0  0  0  0  0  0  0  0  0  0
   -6.8925   -0.4879   -5.6536 H   0  0  0  0  0  0  0  0  0  0  0  0
   -5.0156    0.8995   -6.5877 H   0  0  0  0  0  0  0  0  0  0  0  0
   -4.0081    2.6987   -5.2201 H   0  0  0  0  0  0  0  0  0  0  0  0
   -4.5070    2.8539   -2.8008 H   0  0  0  0  0  0  0  0  0  0  0  0
   -2.0375    1.8652    1.0554 H   0  0  0  0  0  0  0  0  0  0  0  0
    0.2925    1.8350    1.8753 H   0  0  0  0  0  0  0  0  0  0  0  0
  1  2  1  0  0  0  0
  1 21  2  0  0  0  0
  1 22  1  0  0  0  0
  2  3  2  0  0  0  0
  2 23  1  0  0  0  0
  3  4  1  0  0  0  0
  3 24  1  0  0  0  0
  4  5  1  0  0  0  0
  4 20  2  0  0  0  0
  5  6  1  0  0  0  0
  5 25  1  0  0  0  0
  5 26  1  0  0  0  0
  6  7  1  0  0  0  0
  6 27  1  0  0  0  0
  7  8  1  0  0  0  0
  7 19  2  0  0  0  0
  8  9  2  0  0  0  0
  8 28  1  0  0  0  0
  9 10  1  0  0  0  0
  9 29  1  0  0  0  0
 10 11  2  0  0  0  0
 11 12  1  0  0  0  0
 11 19  1  0  0  0  0
 12 13  1  0  0  0  0
 13 14  1  0  0  0  0
 13 18  2  0  0  0  0
 14 15  2  0  0  0  0
 14 30  1  0  0  0  0
 15 16  1  0  0  0  0
 15 31  1  0  0  0  0
 16 17  2  0  0  0  0
 16 32  1  0  0  0  0
 17 18  1  0  0  0  0
 17 33  1  0  0  0  0
 18 19  1  0  0  0  0
 20 21  1  0  0  0  0
 20 34  1  0  0  0  0
 21 35  1  0  0  0  0
M  END
$$$$
