CHEMBL188025
 OpenBabel04072215363D

 62 65  0  0  0  0  0  0  0  0999 V2000
    1.2792    0.0916    0.0150 C   0  0  0  0  0  0  0  0  0  0  0  0
    2.7424    0.1923    0.0780 N   0  0  0  0  0  0  0  0  0  0  0  0
    3.3916   -0.4370    1.1518 C   0  0  0  0  0  0  0  0  0  0  0  0
    2.9448   -1.6483    1.6768 C   0  0  0  0  0  0  0  0  0  0  0  0
    3.6191   -2.2669    2.7300 C   0  0  0  0  0  0  0  0  0  0  0  0
    4.7679   -1.7019    3.2892 C   0  0  0  0  0  0  0  0  0  0  0  0
    5.4713   -2.2865    4.3659 N   0  0  0  0  0  0  0  0  0  0  0  0
    5.1891   -3.5136    4.9304 C   0  0  0  0  0  0  0  0  0  0  0  0
    4.3493   -4.3055    4.5088 O   0  0  0  0  0  0  0  0  0  0  0  0
    5.9403   -3.7578    6.0708 N   0  0  0  0  0  0  0  0  0  0  0  0
    5.7666   -4.9801    6.7606 C   0  0  0  0  0  0  0  0  0  0  0  0
    5.7084   -6.1962    6.0684 C   0  0  0  0  0  0  0  0  0  0  0  0
    5.4279   -7.3885    6.7381 C   0  0  0  0  0  0  0  0  0  0  0  0
    5.2449   -7.3805    8.1163 C   0  0  0  0  0  0  0  0  0  0  0  0
    4.9639   -8.4645    8.8882 O   0  0  0  0  0  0  0  0  0  0  0  0
    5.4580   -9.7398    8.5017 C   0  0  0  0  0  0  0  0  0  0  0  0
    6.3781   -9.7071    7.5150 F   0  0  0  0  0  0  0  0  0  0  0  0
    6.0404  -10.3116    9.5808 F   0  0  0  0  0  0  0  0  0  0  0  0
    4.4293  -10.5246    8.1157 F   0  0  0  0  0  0  0  0  0  0  0  0
    5.2918   -6.1623    8.8057 C   0  0  0  0  0  0  0  0  0  0  0  0
    5.5792   -4.9672    8.1396 C   0  0  0  0  0  0  0  0  0  0  0  0
    5.2274   -0.4908    2.7746 C   0  0  0  0  0  0  0  0  0  0  0  0
    4.5410    0.1343    1.7239 C   0  0  0  0  0  0  0  0  0  0  0  0
    3.3255    0.5405   -1.1666 C   0  0  0  0  0  0  0  0  0  0  0  0
    4.6008    0.1393   -1.5070 C   0  0  0  0  0  0  0  0  0  0  0  0
    5.0519    0.4858   -2.7573 C   0  0  0  0  0  0  0  0  0  0  0  0
    4.3274    1.1817   -3.6488 N   0  0  0  0  0  0  0  0  0  0  0  0
    3.1178    1.5703   -3.2367 C   0  0  0  0  0  0  0  0  0  0  0  0
    2.3474    2.3225   -4.1176 N   0  0  0  0  0  0  0  0  0  0  0  0
    1.3792    3.2794   -3.7866 C   0  0  0  0  0  0  0  0  0  0  0  0
    1.4346    3.9780   -2.5692 C   0  0  0  0  0  0  0  0  0  0  0  0
    0.4069    4.8381   -2.1844 C   0  0  0  0  0  0  0  0  0  0  0  0
   -0.6926    4.9974   -3.0192 C   0  0  0  0  0  0  0  0  0  0  0  0
   -2.0270    6.0292   -2.5039 S   0  0  0  0  0  0  0  0  0  0  0  0
   -1.5612    7.5042   -3.1600 N   0  0  0  0  0  0  0  0  0  0  0  0
   -3.2317    5.6445   -3.2057 O   0  0  0  0  0  0  0  0  0  0  0  0
   -1.9825    6.2055   -1.0699 O   0  0  0  0  0  0  0  0  0  0  0  0
   -0.7630    4.3244   -4.2484 C   0  0  0  0  0  0  0  0  0  0  0  0
    0.2809    3.4797   -4.6273 C   0  0  0  0  0  0  0  0  0  0  0  0
    2.6005    1.2580   -2.0389 N   0  0  0  0  0  0  0  0  0  0  0  0
    0.8337   -0.1764    0.9822 H   0  0  0  0  0  0  0  0  0  0  0  0
    0.9674   -0.6686   -0.7130 H   0  0  0  0  0  0  0  0  0  0  0  0
    0.8233    1.0510   -0.2569 H   0  0  0  0  0  0  0  0  0  0  0  0
    2.0770   -2.1544    1.2612 H   0  0  0  0  0  0  0  0  0  0  0  0
    3.2025   -3.2059    3.0758 H   0  0  0  0  0  0  0  0  0  0  0  0
    6.3149   -1.8260    4.6755 H   0  0  0  0  0  0  0  0  0  0  0  0
    6.1175   -2.9404    6.6375 H   0  0  0  0  0  0  0  0  0  0  0  0
    5.8533   -6.2238    4.9901 H   0  0  0  0  0  0  0  0  0  0  0  0
    5.3367   -8.2923    6.1426 H   0  0  0  0  0  0  0  0  0  0  0  0
    5.0857   -6.1405    9.8734 H   0  0  0  0  0  0  0  0  0  0  0  0
    5.5789   -4.0360    8.6979 H   0  0  0  0  0  0  0  0  0  0  0  0
    6.1135   -0.0072    3.1759 H   0  0  0  0  0  0  0  0  0  0  0  0
    4.9024    1.0918    1.3537 H   0  0  0  0  0  0  0  0  0  0  0  0
    5.2202   -0.4539   -0.8509 H   0  0  0  0  0  0  0  0  0  0  0  0
    6.0451    0.1955   -3.0892 H   0  0  0  0  0  0  0  0  0  0  0  0
    2.7382    2.3458   -5.0470 H   0  0  0  0  0  0  0  0  0  0  0  0
    2.2824    3.8590   -1.9016 H   0  0  0  0  0  0  0  0  0  0  0  0
    0.4670    5.3511   -1.2277 H   0  0  0  0  0  0  0  0  0  0  0  0
   -2.2470    7.8093   -3.8486 H   0  0  0  0  0  0  0  0  0  0  0  0
   -1.3783    8.1733   -2.4136 H   0  0  0  0  0  0  0  0  0  0  0  0
   -1.6335    4.4294   -4.8894 H   0  0  0  0  0  0  0  0  0  0  0  0
    0.2051    2.9282   -5.5634 H   0  0  0  0  0  0  0  0  0  0  0  0
  1  2  1  0  0  0  0
  1 41  1  0  0  0  0
  1 42  1  0  0  0  0
  1 43  1  0  0  0  0
  2  3  1  0  0  0  0
  2 24  1  0  0  0  0
  3  4  1  0  0  0  0
  3 23  2  0  0  0  0
  4  5  2  0  0  0  0
  4 44  1  0  0  0  0
  5  6  1  0  0  0  0
  5 45  1  0  0  0  0
  6  7  1  0  0  0  0
  6 22  2  0  0  0  0
  7  8  1  0  0  0  0
  7 46  1  0  0  0  0
  8  9  2  0  0  0  0
  8 10  1  0  0  0  0
 10 11  1  0  0  0  0
 10 47  1  0  0  0  0
 11 12  1  0  0  0  0
 11 21  2  0  0  0  0
 12 13  2  0  0  0  0
 12 48  1  0  0  0  0
 13 14  1  0  0  0  0
 13 49  1  0  0  0  0
 14 15  1  0  0  0  0
 14 20  2  0  0  0  0
 15 16  1  0  0  0  0
 16 17  1  0  0  0  0
 16 18  1  0  0  0  0
 16 19  1  0  0  0  0
 20 21  1  0  0  0  0
 20 50  1  0  0  0  0
 21 51  1  0  0  0  0
 22 23  1  0  0  0  0
 22 52  1  0  0  0  0
 23 53  1  0  0  0  0
 24 25  1  0  0  0  0
 24 40  2  0  0  0  0
 25 26  2  0  0  0  0
 25 54  1  0  0  0  0
 26 27  1  0  0  0  0
 26 55  1  0  0  0  0
 27 28  2  0  0  0  0
 28 29  1  0  0  0  0
 28 40  1  0  0  0  0
 29 30  1  0  0  0  0
 29 56  1  0  0  0  0
 30 31  1  0  0  0  0
 30 39  2  0  0  0  0
 31 32  2  0  0  0  0
 31 57  1  0  0  0  0
 32 33  1  0  0  0  0
 32 58  1  0  0  0  0
 33 34  1  0  0  0  0
 33 38  2  0  0  0  0
 34 35  1  0  0  0  0
 34 36  2  0  0  0  0
 34 37  2  0  0  0  0
 35 59  1  0  0  0  0
 35 60  1  0  0  0  0
 38 39  1  0  0  0  0
 38 61  1  0  0  0  0
 39 62  1  0  0  0  0
M  END
$$$$
