CHEMBL1794074
 OpenBabel04072215363D

 55 56  0  0  0  0  0  0  0  0999 V2000
    0.9103   -0.0621   -0.0514 C   0  0  0  0  0  0  0  0  0  0  0  0
    2.4121   -0.0679    0.0217 C   0  0  0  0  0  0  0  0  0  0  0  0
    3.2257   -1.1735   -0.0209 C   0  0  0  0  0  0  0  0  0  0  0  0
    2.9510   -2.5183   -0.1594 C   0  0  0  0  0  0  0  0  0  0  0  0
    4.0295   -3.4039   -0.1985 C   0  0  0  0  0  0  0  0  0  0  0  0
    5.3944   -2.9700   -0.0552 C   0  0  0  0  0  0  0  0  0  0  0  0
    6.5055   -3.9195   -0.0974 N   0  0  0  0  0  0  0  0  0  0  0  0
    7.9055   -3.4854   -0.0713 C   0  0  0  0  0  0  0  0  0  0  0  0
    6.2862   -5.3505   -0.0668 C   0  0  0  0  0  0  0  0  0  0  0  0
    7.2360   -6.2585   -0.5925 C   0  0  0  0  0  0  0  0  0  0  0  0
    6.9953   -7.6258   -0.4786 C   0  0  0  0  0  0  0  0  0  0  0  0
    5.8844   -8.0659    0.1580 N   0  0  0  0  0  0  0  0  0  0  0  0
    4.9738   -7.1933    0.6586 C   0  0  0  0  0  0  0  0  0  0  0  0
    3.8083   -7.6786    1.3082 N   0  0  0  0  0  0  0  0  0  0  0  0
    3.8509   -8.8477    2.1140 C   0  0  0  0  0  0  0  0  0  0  0  0
    2.6955   -9.6117    2.3308 C   0  0  0  0  0  0  0  0  0  0  0  0
    2.7521  -10.7472    3.1489 C   0  0  0  0  0  0  0  0  0  0  0  0
    3.9496  -11.1034    3.7810 C   0  0  0  0  0  0  0  0  0  0  0  0
    5.0965  -10.3254    3.5922 C   0  0  0  0  0  0  0  0  0  0  0  0
    6.6350  -10.6982    4.4291 S   0  0  0  0  0  0  0  0  0  0  0  0
    8.0364  -11.0529    3.4196 N   0  0  0  0  0  0  0  0  0  0  0  0
    7.0920   -9.5487    5.3415 O   0  0  0  0  0  0  0  0  0  0  0  0
    6.5376  -11.8677    5.4186 O   0  0  0  0  0  0  0  0  0  0  0  0
    5.0473   -9.2178    2.7546 C   0  0  0  0  0  0  0  0  0  0  0  0
    5.1829   -5.8628    0.5316 N   0  0  0  0  0  0  0  0  0  0  0  0
    5.6032   -1.5574    0.0832 C   0  0  0  0  0  0  0  0  0  0  0  0
    4.4992   -0.7078    0.0839 C   0  0  0  0  0  0  0  0  0  0  0  0
    4.4951    0.6345    0.1637 N   0  0  0  0  0  0  0  0  0  0  0  0
    3.2225    1.0189    0.1125 N   0  0  0  0  0  0  0  0  0  0  0  0
    2.8182    2.4196    0.1042 C   0  0  0  0  0  0  0  0  0  0  0  0
    1.7446    1.1152    3.3957 Cl  0  0  0  0  0  0  0  0  0  0  0  0
    1.6008   -0.9331   -3.2950 Cl  0  0  0  0  0  0  0  0  0  0  0  0
    0.5169   -1.0916   -0.1804 H   0  0  0  0  0  0  0  0  0  0  0  0
    0.5635    0.5547   -0.9021 H   0  0  0  0  0  0  0  0  0  0  0  0
    0.4808    0.3396    0.8836 H   0  0  0  0  0  0  0  0  0  0  0  0
    1.9391   -2.8849   -0.2610 H   0  0  0  0  0  0  0  0  0  0  0  0
    3.7349   -4.4192   -0.3623 H   0  0  0  0  0  0  0  0  0  0  0  0
    8.0687   -2.4041   -0.0144 H   0  0  0  0  0  0  0  0  0  0  0  0
    8.4409   -3.8117   -0.9837 H   0  0  0  0  0  0  0  0  0  0  0  0
    8.4031   -3.9189    0.8235 H   0  0  0  0  0  0  0  0  0  0  0  0
    8.1341   -5.9429   -1.0939 H   0  0  0  0  0  0  0  0  0  0  0  0
    7.6941   -8.3380   -0.8955 H   0  0  0  0  0  0  0  0  0  0  0  0
    2.9332   -7.1358    1.2468 H   0  0  0  0  0  0  0  0  0  0  0  0
    1.7620   -9.3375    1.8546 H   0  0  0  0  0  0  0  0  0  0  0  0
    1.8648  -11.3471    3.3001 H   0  0  0  0  0  0  0  0  0  0  0  0
    3.9814  -11.9717    4.4247 H   0  0  0  0  0  0  0  0  0  0  0  0
    8.2008  -10.2258    2.8025 H   0  0  0  0  0  0  0  0  0  0  0  0
    7.7861  -11.8651    2.8126 H   0  0  0  0  0  0  0  0  0  0  0  0
    5.9426   -8.6195    2.6388 H   0  0  0  0  0  0  0  0  0  0  0  0
    6.5618   -1.0831    0.1801 H   0  0  0  0  0  0  0  0  0  0  0  0
    3.7156    3.0738    0.1428 H   0  0  0  0  0  0  0  0  0  0  0  0
    2.1760    2.6484    0.9721 H   0  0  0  0  0  0  0  0  0  0  0  0
    2.2635    2.6381   -0.8324 H   0  0  0  0  0  0  0  0  0  0  0  0
    0.8444    1.7940    2.6058 H   0  0  0  0  0  0  0  0  0  0  0  0
    2.0033    0.2755   -2.7728 H   0  0  0  0  0  0  0  0  0  0  0  0
  1  2  1  0  0  0  0
  1 33  1  0  0  0  0
  1 34  1  0  0  0  0
  1 35  1  0  0  0  0
  2  3  2  0  0  0  0
  2 29  1  0  0  0  0
  3  4  1  0  0  0  0
  3 27  1  0  0  0  0
  4  5  2  0  0  0  0
  4 36  1  0  0  0  0
  5  6  1  0  0  0  0
  5 37  1  0  0  0  0
  6  7  1  0  0  0  0
  6 26  2  0  0  0  0
  7  8  1  0  0  0  0
  7  9  1  0  0  0  0
  8 38  1  0  0  0  0
  8 39  1  0  0  0  0
  8 40  1  0  0  0  0
  9 10  1  0  0  0  0
  9 25  2  0  0  0  0
 10 11  2  0  0  0  0
 10 41  1  0  0  0  0
 11 12  1  0  0  0  0
 11 42  1  0  0  0  0
 12 13  2  0  0  0  0
 13 14  1  0  0  0  0
 13 25  1  0  0  0  0
 14 15  1  0  0  0  0
 14 43  1  0  0  0  0
 15 16  1  0  0  0  0
 15 24  2  0  0  0  0
 16 17  2  0  0  0  0
 16 44  1  0  0  0  0
 17 18  1  0  0  0  0
 17 45  1  0  0  0  0
 18 19  2  0  0  0  0
 18 46  1  0  0  0  0
 19 20  1  0  0  0  0
 19 24  1  0  0  0  0
 20 21  1  0  0  0  0
 20 22  2  0  0  0  0
 20 23  2  0  0  0  0
 21 47  1  0  0  0  0
 21 48  1  0  0  0  0
 24 49  1  0  0  0  0
 26 27  1  0  0  0  0
 26 50  1  0  0  0  0
 27 28  2  0  0  0  0
 28 29  1  0  0  0  0
 29 30  1  0  0  0  0
 30 51  1  0  0  0  0
 30 52  1  0  0  0  0
 30 53  1  0  0  0  0
 31 54  1  0  0  0  0
 32 55  1  0  0  0  0
M  END
$$$$
