CHEMBL1241485
 OpenBabel04072215363D

 40 42  0  0  0  0  0  0  0  0999 V2000
    3.6376    5.0091   -1.1599 C   0  0  0  0  0  0  0  0  0  0  0  0
    3.9900    4.1221   -2.2187 O   0  0  0  0  0  0  0  0  0  0  0  0
    3.9659    2.7813   -1.9192 C   0  0  0  0  0  0  0  0  0  0  0  0
    5.0433    2.0499   -2.4499 C   0  0  0  0  0  0  0  0  0  0  0  0
    5.1455    0.6640   -2.2605 C   0  0  0  0  0  0  0  0  0  0  0  0
    6.2636   -0.0929   -2.8277 C   0  0  0  0  0  0  0  0  0  0  0  0
    7.5097    0.4213   -2.8075 N   0  0  0  0  0  0  0  0  0  0  0  0
    8.2814   -0.5435   -3.3538 N   0  0  0  0  0  0  0  0  0  0  0  0
    9.7218   -0.3472   -3.4810 C   0  0  0  0  0  0  0  0  0  0  0  0
   10.0455    0.8460   -4.3801 C   0  0  0  0  0  0  0  0  0  0  0  0
   10.3933   -0.2082   -2.1138 C   0  0  0  0  0  0  0  0  0  0  0  0
    7.5761   -1.6439   -3.7544 C   0  0  0  0  0  0  0  0  0  0  0  0
    8.0691   -2.7522   -4.3361 N   0  0  0  0  0  0  0  0  0  0  0  0
    7.0995   -3.6385   -4.6062 C   0  0  0  0  0  0  0  0  0  0  0  0
    5.7795   -3.5133   -4.3775 N   0  0  0  0  0  0  0  0  0  0  0  0
    5.3269   -2.3821   -3.7970 C   0  0  0  0  0  0  0  0  0  0  0  0
    3.9519   -2.3021   -3.6179 N   0  0  0  0  0  0  0  0  0  0  0  0
    6.2504   -1.3859   -3.4457 C   0  0  0  0  0  0  0  0  0  0  0  0
    4.1697    0.0275   -1.4896 C   0  0  0  0  0  0  0  0  0  0  0  0
    3.0847    0.7455   -0.9792 C   0  0  0  0  0  0  0  0  0  0  0  0
    2.9316    2.1134   -1.2381 C   0  0  0  0  0  0  0  0  0  0  0  0
    1.8302    2.7729   -0.6649 N   0  0  0  0  0  0  0  0  0  0  0  0
    4.1732    5.9507   -1.3209 H   0  0  0  0  0  0  0  0  0  0  0  0
    3.9147    4.6321   -0.1698 H   0  0  0  0  0  0  0  0  0  0  0  0
    2.5720    5.2500   -1.2090 H   0  0  0  0  0  0  0  0  0  0  0  0
    5.8162    2.5780   -3.0071 H   0  0  0  0  0  0  0  0  0  0  0  0
   10.1256   -1.2447   -3.9604 H   0  0  0  0  0  0  0  0  0  0  0  0
    9.6433    1.7806   -3.9719 H   0  0  0  0  0  0  0  0  0  0  0  0
    9.6160    0.7064   -5.3771 H   0  0  0  0  0  0  0  0  0  0  0  0
   11.1278    0.9658   -4.4907 H   0  0  0  0  0  0  0  0  0  0  0  0
   10.0380    0.6756   -1.5741 H   0  0  0  0  0  0  0  0  0  0  0  0
   11.4807   -0.1184   -2.2256 H   0  0  0  0  0  0  0  0  0  0  0  0
   10.1931   -1.0850   -1.4883 H   0  0  0  0  0  0  0  0  0  0  0  0
    7.4141   -4.5686   -5.0705 H   0  0  0  0  0  0  0  0  0  0  0  0
    3.4883   -3.0208   -4.1636 H   0  0  0  0  0  0  0  0  0  0  0  0
    3.5685   -1.3699   -3.7134 H   0  0  0  0  0  0  0  0  0  0  0  0
    4.2360   -1.0363   -1.2726 H   0  0  0  0  0  0  0  0  0  0  0  0
    2.3372    0.2117   -0.3978 H   0  0  0  0  0  0  0  0  0  0  0  0
    1.0723    2.1512   -0.4030 H   0  0  0  0  0  0  0  0  0  0  0  0
    1.4968    3.5275   -1.2565 H   0  0  0  0  0  0  0  0  0  0  0  0
  1  2  1  0  0  0  0
  1 23  1  0  0  0  0
  1 24  1  0  0  0  0
  1 25  1  0  0  0  0
  2  3  1  0  0  0  0
  3  4  1  0  0  0  0
  3 21  2  0  0  0  0
  4  5  2  0  0  0  0
  4 26  1  0  0  0  0
  5  6  1  0  0  0  0
  5 19  1  0  0  0  0
  6  7  2  0  0  0  0
  6 18  1  0  0  0  0
  7  8  1  0  0  0  0
  8  9  1  0  0  0  0
  8 12  1  0  0  0  0
  9 10  1  0  0  0  0
  9 11  1  0  0  0  0
  9 27  1  0  0  0  0
 10 28  1  0  0  0  0
 10 29  1  0  0  0  0
 10 30  1  0  0  0  0
 11 31  1  0  0  0  0
 11 32  1  0  0  0  0
 11 33  1  0  0  0  0
 12 13  1  0  0  0  0
 12 18  2  0  0  0  0
 13 14  2  0  0  0  0
 14 15  1  0  0  0  0
 14 34  1  0  0  0  0
 15 16  2  0  0  0  0
 16 17  1  0  0  0  0
 16 18  1  0  0  0  0
 17 35  1  0  0  0  0
 17 36  1  0  0  0  0
 19 20  2  0  0  0  0
 19 37  1  0  0  0  0
 20 21  1  0  0  0  0
 20 38  1  0  0  0  0
 21 22  1  0  0  0  0
 22 39  1  0  0  0  0
 22 40  1  0  0  0  0
M  END
$$$$
