CHEMBL225248
 OpenBabel04072215363D

 72 77  0  0  0  0  0  0  0  0999 V2000
   -5.4090   -9.5996   -0.7377 C   0  0  0  0  0  0  0  0  0  0  0  0
   -4.1339   -8.7734    0.0333 C   0  0  0  0  0  0  0  0  0  0  0  0
   -2.1462   -9.1109    0.2217 C   0  0  0  0  0  0  0  0  0  0  0  0
   -1.6192   -9.1026    2.0275 C   0  0  0  0  0  0  0  0  0  0  0  0
   -2.7663   -8.4513    3.2275 C   0  0  0  0  0  0  0  0  0  0  0  0
   -4.3571   -7.9091    2.8513 C   0  0  0  0  0  0  0  0  0  0  0  0
   -4.8779   -6.5368    3.1598 N   0  0  0  0  0  0  0  0  0  0  0  0
   -4.4170   -5.3369    3.6897 C   0  0  0  0  0  0  0  0  0  0  0  0
   -3.2516   -5.0438    3.9383 O   0  0  0  0  0  0  0  0  0  0  0  0
   -5.5004   -4.3830    3.8987 N   0  0  0  0  0  0  0  0  0  0  0  0
   -5.2123   -3.3001    4.8698 C   0  0  0  0  0  0  0  0  0  0  0  0
   -6.9488   -4.7487    3.8669 C   0  0  0  0  0  0  0  0  0  0  0  0
   -7.4764   -5.3930    2.6014 C   0  0  0  0  0  0  0  0  0  0  0  0
   -7.5416   -4.8482    1.3425 C   0  0  0  0  0  0  0  0  0  0  0  0
   -7.7995   -5.8553    0.3834 C   0  0  0  0  0  0  0  0  0  0  0  0
   -8.2951   -7.0567    0.8775 C   0  0  0  0  0  0  0  0  0  0  0  0
   -8.7988   -8.1892   -0.0610 C   0  0  0  0  0  0  0  0  0  0  0  0
   -8.6849   -9.5244    0.0736 N   0  0  0  0  0  0  0  0  0  0  0  0
   -8.8150  -10.0221   -1.2222 N   0  0  0  0  0  0  0  0  0  0  0  0
   -9.1046   -9.0615   -2.1658 C   0  0  0  0  0  0  0  0  0  0  0  0
   -9.2478   -7.9245   -1.3718 C   0  0  0  0  0  0  0  0  0  0  0  0
   -9.1534   -6.7223   -2.2027 C   0  0  0  0  0  0  0  0  0  0  0  0
   -8.0074   -7.3330   -3.0373 C   0  0  0  0  0  0  0  0  0  0  0  0
   -6.5957   -7.3955   -2.7640 C   0  0  0  0  0  0  0  0  0  0  0  0
   -5.7192   -8.2797   -3.4879 C   0  0  0  0  0  0  0  0  0  0  0  0
   -4.2353   -8.9107   -3.2703 C   0  0  0  0  0  0  0  0  0  0  0  0
   -3.3170   -8.9449   -2.0295 N   0  0  0  0  0  0  0  0  0  0  0  0
   -3.2557  -10.4251   -0.8326 C   0  0  0  0  0  0  0  0  0  0  0  0
   -3.3751   -9.8956    1.1934 C   0  0  0  0  0  0  0  0  0  0  0  0
   -2.9488   -7.8140    1.2382 N   0  0  0  0  0  0  0  0  0  0  0  0
   -1.3269   -7.1635    0.9059 C   0  0  0  0  0  0  0  0  0  0  0  0
   -3.4789   -6.7772    0.1052 C   0  0  0  0  0  0  0  0  0  0  0  0
   -3.4140   -7.3244   -1.4534 C   0  0  0  0  0  0  0  0  0  0  0  0
   -6.3735   -8.8054   -4.5951 C   0  0  0  0  0  0  0  0  0  0  0  0
   -7.7550   -9.0874   -4.5076 C   0  0  0  0  0  0  0  0  0  0  0  0
   -8.4914   -8.5620   -3.4706 C   0  0  0  0  0  0  0  0  0  0  0  0
   -8.1328   -7.0223    2.5900 S   0  0  0  0  0  0  0  0  0  0  0  0
   -5.0670   -8.3043    1.4183 C   0  0  0  0  0  0  0  0  0  0  0  0
   -5.2887  -10.3757   -1.5060 H   0  0  0  0  0  0  0  0  0  0  0  0
   -5.8927   -8.7994   -1.2204 H   0  0  0  0  0  0  0  0  0  0  0  0
   -6.1257  -10.0177   -0.0340 H   0  0  0  0  0  0  0  0  0  0  0  0
   -1.3563   -9.5246   -0.4050 H   0  0  0  0  0  0  0  0  0  0  0  0
   -0.6202   -9.3137    2.3708 H   0  0  0  0  0  0  0  0  0  0  0  0
   -2.2702   -7.7147    3.8848 H   0  0  0  0  0  0  0  0  0  0  0  0
   -5.4717   -6.2520    2.3912 H   0  0  0  0  0  0  0  0  0  0  0  0
   -4.1466   -3.1169    5.0363 H   0  0  0  0  0  0  0  0  0  0  0  0
   -5.6445   -3.5922    5.8373 H   0  0  0  0  0  0  0  0  0  0  0  0
   -5.6862   -2.3540    4.5722 H   0  0  0  0  0  0  0  0  0  0  0  0
   -7.5218   -3.8172    3.9997 H   0  0  0  0  0  0  0  0  0  0  0  0
   -7.1164   -5.3865    4.7340 H   0  0  0  0  0  0  0  0  0  0  0  0
   -7.2733   -3.8304    1.0804 H   0  0  0  0  0  0  0  0  0  0  0  0
   -7.5966   -5.6451   -0.6492 H   0  0  0  0  0  0  0  0  0  0  0  0
   -8.7801  -11.0298   -1.3503 H   0  0  0  0  0  0  0  0  0  0  0  0
   -9.0403   -5.7551   -1.7422 H   0  0  0  0  0  0  0  0  0  0  0  0
  -10.0772   -6.6485   -2.7990 H   0  0  0  0  0  0  0  0  0  0  0  0
   -6.3211   -6.9951   -1.7902 H   0  0  0  0  0  0  0  0  0  0  0  0
   -3.6291   -8.4327   -4.0556 H   0  0  0  0  0  0  0  0  0  0  0  0
   -4.3315   -9.9622   -3.5467 H   0  0  0  0  0  0  0  0  0  0  0  0
   -2.2599  -10.8114   -1.1421 H   0  0  0  0  0  0  0  0  0  0  0  0
   -3.8297  -11.3021   -1.1927 H   0  0  0  0  0  0  0  0  0  0  0  0
   -2.7196  -10.7235    1.6546 H   0  0  0  0  0  0  0  0  0  0  0  0
   -4.3925  -10.2715    1.5473 H   0  0  0  0  0  0  0  0  0  0  0  0
   -0.4375   -7.8082    1.0547 H   0  0  0  0  0  0  0  0  0  0  0  0
   -1.2531   -6.3035    1.5455 H   0  0  0  0  0  0  0  0  0  0  0  0
   -1.2529   -6.9412   -0.1712 H   0  0  0  0  0  0  0  0  0  0  0  0
   -2.9674   -5.8257    0.2602 H   0  0  0  0  0  0  0  0  0  0  0  0
   -4.4951   -6.4563    0.3709 H   0  0  0  0  0  0  0  0  0  0  0  0
   -2.7251   -6.6941   -2.0134 H   0  0  0  0  0  0  0  0  0  0  0  0
   -4.4070   -6.9892   -1.7416 H   0  0  0  0  0  0  0  0  0  0  0  0
   -5.8202   -8.9889   -5.5131 H   0  0  0  0  0  0  0  0  0  0  0  0
   -8.2644   -9.1902   -5.4727 H   0  0  0  0  0  0  0  0  0  0  0  0
   -6.0014   -7.8859    1.1094 H   0  0  0  0  0  0  0  0  0  0  0  0
  1  2  1  0  0  0  0
  1 39  1  0  0  0  0
  1 40  1  0  0  0  0
  1 41  1  0  0  0  0
  2  3  1  0  0  0  0
  2 38  2  0  0  0  0
  3  4  2  0  0  0  0
  3 42  1  0  0  0  0
  4  5  1  0  0  0  0
  4 43  1  0  0  0  0
  5  6  2  0  0  0  0
  5 44  1  0  0  0  0
  6  7  1  0  0  0  0
  6 38  1  0  0  0  0
  7  8  1  0  0  0  0
  7 45  1  0  0  0  0
  8  9  2  0  0  0  0
  8 10  1  0  0  0  0
 10 11  1  0  0  0  0
 10 12  1  0  0  0  0
 11 46  1  0  0  0  0
 11 47  1  0  0  0  0
 11 48  1  0  0  0  0
 12 13  1  0  0  0  0
 12 49  1  0  0  0  0
 12 50  1  0  0  0  0
 13 14  2  0  0  0  0
 13 37  1  0  0  0  0
 14 15  1  0  0  0  0
 14 51  1  0  0  0  0
 15 16  2  0  0  0  0
 15 52  1  0  0  0  0
 16 17  1  0  0  0  0
 16 37  1  0  0  0  0
 17 18  2  0  0  0  0
 17 21  1  0  0  0  0
 18 19  1  0  0  0  0
 19 20  1  0  0  0  0
 19 53  1  0  0  0  0
 20 21  2  0  0  0  0
 20 36  1  0  0  0  0
 21 22  1  0  0  0  0
 22 23  1  0  0  0  0
 22 54  1  0  0  0  0
 22 55  1  0  0  0  0
 23 24  1  0  0  0  0
 23 36  2  0  0  0  0
 24 25  2  0  0  0  0
 24 56  1  0  0  0  0
 25 26  1  0  0  0  0
 25 34  1  0  0  0  0
 26 27  1  0  0  0  0
 26 57  1  0  0  0  0
 26 58  1  0  0  0  0
 27 28  1  0  0  0  0
 27 33  1  0  0  0  0
 28 29  1  0  0  0  0
 28 59  1  0  0  0  0
 28 60  1  0  0  0  0
 29 30  1  0  0  0  0
 29 61  1  0  0  0  0
 29 62  1  0  0  0  0
 30 31  1  0  0  0  0
 30 32  1  0  0  0  0
 31 63  1  0  0  0  0
 31 64  1  0  0  0  0
 31 65  1  0  0  0  0
 32 33  1  0  0  0  0
 32 66  1  0  0  0  0
 32 67  1  0  0  0  0
 33 68  1  0  0  0  0
 33 69  1  0  0  0  0
 34 35  2  0  0  0  0
 34 70  1  0  0  0  0
 35 36  1  0  0  0  0
 35 71  1  0  0  0  0
 38 72  1  0  0  0  0
M  END
$$$$
