CHEMBL3639935
 OpenBabel04072215373D

 44 47  0  0  0  0  0  0  0  0999 V2000
   -2.3290   -2.0442    0.1223 N   0  0  0  0  0  0  0  0  0  0  0  0
   -1.0360   -1.7587    0.3595 C   0  0  0  0  0  0  0  0  0  0  0  0
   -0.6176   -0.9016    1.2585 N   0  0  0  0  0  0  0  0  0  0  0  0
    0.7568   -0.8071    1.2978 N   0  0  0  0  0  0  0  0  0  0  0  0
    1.3635   -1.5732    0.4049 C   0  0  0  0  0  0  0  0  0  0  0  0
    2.7940   -1.6802    0.2502 C   0  0  0  0  0  0  0  0  0  0  0  0
    3.6977   -1.4076    1.3788 C   0  0  0  0  0  0  0  0  0  0  0  0
    5.0303   -1.4579    1.2187 C   0  0  0  0  0  0  0  0  0  0  0  0
    5.5715   -1.8026   -0.0225 N   0  0  0  0  0  0  0  0  0  0  0  0
    6.8925   -1.9906   -0.4430 C   0  0  0  0  0  0  0  0  0  0  0  0
    8.1084   -1.9803    0.3935 C   0  0  0  0  0  0  0  0  0  0  0  0
    8.0652   -2.4470    1.7128 C   0  0  0  0  0  0  0  0  0  0  0  0
    9.1972   -2.4298    2.5180 C   0  0  0  0  0  0  0  0  0  0  0  0
   10.4178   -2.0176    1.9948 C   0  0  0  0  0  0  0  0  0  0  0  0
   10.5350   -1.6266    0.6610 C   0  0  0  0  0  0  0  0  0  0  0  0
   11.7842   -1.2851    0.0811 N   0  0  0  0  0  0  0  0  0  0  0  0
   13.0205   -1.3912    0.6853 C   0  0  0  0  0  0  0  0  0  0  0  0
   13.2543   -1.7906    1.8192 O   0  0  0  0  0  0  0  0  0  0  0  0
   14.0467   -0.9398   -0.1133 N   0  0  0  0  0  0  0  0  0  0  0  0
   15.4153   -0.9968    0.4261 C   0  0  0  0  0  0  0  0  0  0  0  0
   16.0892   -2.3814    0.4205 C   0  0  0  0  0  0  0  0  0  0  0  0
   15.3803   -3.2918   -0.2862 F   0  0  0  0  0  0  0  0  0  0  0  0
   17.3077   -2.2924   -0.1727 F   0  0  0  0  0  0  0  0  0  0  0  0
   16.2867   -2.8690    1.6624 F   0  0  0  0  0  0  0  0  0  0  0  0
    9.3641   -1.5802   -0.1262 C   0  0  0  0  0  0  0  0  0  0  0  0
    6.7674   -2.2406   -1.8032 C   0  0  0  0  0  0  0  0  0  0  0  0
    5.4620   -2.2658   -2.2135 N   0  0  0  0  0  0  0  0  0  0  0  0
    4.7567   -2.0324   -1.1308 C   0  0  0  0  0  0  0  0  0  0  0  0
    3.3406   -1.9652   -0.9570 C   0  0  0  0  0  0  0  0  0  0  0  0
    0.2296   -2.5038   -0.5242 S   0  0  0  0  0  0  0  0  0  0  0  0
   -3.0106   -1.3877    0.4918 H   0  0  0  0  0  0  0  0  0  0  0  0
   -2.5840   -2.4631   -0.7627 H   0  0  0  0  0  0  0  0  0  0  0  0
    3.2566   -1.1545    2.3402 H   0  0  0  0  0  0  0  0  0  0  0  0
    5.7028   -1.2284    2.0327 H   0  0  0  0  0  0  0  0  0  0  0  0
    7.1556   -2.8557    2.1412 H   0  0  0  0  0  0  0  0  0  0  0  0
    9.1406   -2.7588    3.5519 H   0  0  0  0  0  0  0  0  0  0  0  0
   11.2662   -2.0302    2.6698 H   0  0  0  0  0  0  0  0  0  0  0  0
   11.7700   -0.9711   -0.8786 H   0  0  0  0  0  0  0  0  0  0  0  0
   13.9400   -1.0761   -1.1088 H   0  0  0  0  0  0  0  0  0  0  0  0
   15.3973   -0.6182    1.4571 H   0  0  0  0  0  0  0  0  0  0  0  0
   16.0061   -0.2985   -0.1654 H   0  0  0  0  0  0  0  0  0  0  0  0
    9.4270   -1.2457   -1.1594 H   0  0  0  0  0  0  0  0  0  0  0  0
    7.5657   -2.4398   -2.5054 H   0  0  0  0  0  0  0  0  0  0  0  0
    2.7469   -2.1365   -1.8485 H   0  0  0  0  0  0  0  0  0  0  0  0
  1  2  1  0  0  0  0
  1 31  1  0  0  0  0
  1 32  1  0  0  0  0
  2  3  2  0  0  0  0
  2 30  1  0  0  0  0
  3  4  1  0  0  0  0
  4  5  2  0  0  0  0
  5  6  1  0  0  0  0
  5 30  1  0  0  0  0
  6  7  1  0  0  0  0
  6 29  2  0  0  0  0
  7  8  2  0  0  0  0
  7 33  1  0  0  0  0
  8  9  1  0  0  0  0
  8 34  1  0  0  0  0
  9 10  1  0  0  0  0
  9 28  1  0  0  0  0
 10 11  1  0  0  0  0
 10 26  2  0  0  0  0
 11 12  1  0  0  0  0
 11 25  2  0  0  0  0
 12 13  2  0  0  0  0
 12 35  1  0  0  0  0
 13 14  1  0  0  0  0
 13 36  1  0  0  0  0
 14 15  2  0  0  0  0
 14 37  1  0  0  0  0
 15 16  1  0  0  0  0
 15 25  1  0  0  0  0
 16 17  1  0  0  0  0
 16 38  1  0  0  0  0
 17 18  2  0  0  0  0
 17 19  1  0  0  0  0
 19 20  1  0  0  0  0
 19 39  1  0  0  0  0
 20 21  1  0  0  0  0
 20 40  1  0  0  0  0
 20 41  1  0  0  0  0
 21 22  1  0  0  0  0
 21 23  1  0  0  0  0
 21 24  1  0  0  0  0
 25 42  1  0  0  0  0
 26 27  1  0  0  0  0
 26 43  1  0  0  0  0
 27 28  2  0  0  0  0
 28 29  1  0  0  0  0
 29 44  1  0  0  0  0
M  END
$$$$
