CHEMBL3745924
 OpenBabel04072215373D

 57 61  0  0  0  0  0  0  0  0999 V2000
    0.8178    8.5218   -4.0625 C   0  0  0  0  0  0  0  0  0  0  0  0
    1.5558    7.9822   -5.2878 C   0  0  0  0  0  0  0  0  0  0  0  0
    2.3866    6.8065   -4.9925 N   0  0  0  0  0  0  0  0  0  0  0  0
    3.1467    6.3638   -6.1749 C   0  0  0  0  0  0  0  0  0  0  0  0
    4.1954    5.3044   -5.7705 C   0  0  0  0  0  0  0  0  0  0  0  0
    3.6318    4.2317   -4.8835 C   0  0  0  0  0  0  0  0  0  0  0  0
    2.4077    4.4185   -4.2476 C   0  0  0  0  0  0  0  0  0  0  0  0
    1.8569    3.5071   -3.4147 N   0  0  0  0  0  0  0  0  0  0  0  0
    2.5944    2.4272   -3.1549 C   0  0  0  0  0  0  0  0  0  0  0  0
    3.7926    2.1609   -3.6734 N   0  0  0  0  0  0  0  0  0  0  0  0
    4.2782    3.0483   -4.5694 C   0  0  0  0  0  0  0  0  0  0  0  0
    5.4772    2.7310   -5.2190 O   0  0  0  0  0  0  0  0  0  0  0  0
    5.7951    1.3817   -5.3085 C   0  0  0  0  0  0  0  0  0  0  0  0
    4.8360    0.4171   -5.6373 C   0  0  0  0  0  0  0  0  0  0  0  0
    5.1167   -0.9510   -5.5586 C   0  0  0  0  0  0  0  0  0  0  0  0
    6.4172   -1.3465   -5.2148 C   0  0  0  0  0  0  0  0  0  0  0  0
    7.4254   -0.3930   -4.9879 C   0  0  0  0  0  0  0  0  0  0  0  0
    8.6125   -1.1035   -4.6720 C   0  0  0  0  0  0  0  0  0  0  0  0
    8.2852   -2.4334   -4.5857 C   0  0  0  0  0  0  0  0  0  0  0  0
    6.9426   -2.6042   -4.8942 N   0  0  0  0  0  0  0  0  0  0  0  0
    6.2497   -3.8220   -4.6796 C   0  0  0  0  0  0  0  0  0  0  0  0
    6.5848   -4.4955   -3.7175 O   0  0  0  0  0  0  0  0  0  0  0  0
    5.3655   -4.1445   -5.6945 N   0  0  0  0  0  0  0  0  0  0  0  0
    4.5693   -5.3217   -5.6376 C   0  0  0  0  0  0  0  0  0  0  0  0
    4.1466   -5.8446   -4.4095 C   0  0  0  0  0  0  0  0  0  0  0  0
    3.4257   -7.0348   -4.3404 C   0  0  0  0  0  0  0  0  0  0  0  0
    3.1127   -7.7220   -5.5082 C   0  0  0  0  0  0  0  0  0  0  0  0
    3.4927   -7.2073   -6.7571 C   0  0  0  0  0  0  0  0  0  0  0  0
    3.1642   -7.9779   -8.0131 C   0  0  0  0  0  0  0  0  0  0  0  0
    2.5537   -9.1751   -7.7780 F   0  0  0  0  0  0  0  0  0  0  0  0
    2.3277   -7.2954   -8.8437 F   0  0  0  0  0  0  0  0  0  0  0  0
    4.2705   -8.2696   -8.7540 F   0  0  0  0  0  0  0  0  0  0  0  0
    4.2020   -5.9847   -6.8154 C   0  0  0  0  0  0  0  0  0  0  0  0
    7.1117    0.9885   -5.0497 C   0  0  0  0  0  0  0  0  0  0  0  0
    1.5864    5.6680   -4.5003 C   0  0  0  0  0  0  0  0  0  0  0  0
    0.3278    9.4706   -4.3046 H   0  0  0  0  0  0  0  0  0  0  0  0
    1.5082    8.7031   -3.2317 H   0  0  0  0  0  0  0  0  0  0  0  0
    0.0369    7.8353   -3.7201 H   0  0  0  0  0  0  0  0  0  0  0  0
    2.2067    8.7888   -5.6476 H   0  0  0  0  0  0  0  0  0  0  0  0
    0.8321    7.7714   -6.0847 H   0  0  0  0  0  0  0  0  0  0  0  0
    3.6706    7.2090   -6.6377 H   0  0  0  0  0  0  0  0  0  0  0  0
    2.4697    5.9514   -6.9365 H   0  0  0  0  0  0  0  0  0  0  0  0
    5.0055    5.8058   -5.2253 H   0  0  0  0  0  0  0  0  0  0  0  0
    4.6221    4.8660   -6.6793 H   0  0  0  0  0  0  0  0  0  0  0  0
    2.1768    1.6935   -2.4756 H   0  0  0  0  0  0  0  0  0  0  0  0
    3.8211    0.7231   -5.8677 H   0  0  0  0  0  0  0  0  0  0  0  0
    4.3096   -1.6651   -5.6868 H   0  0  0  0  0  0  0  0  0  0  0  0
    9.5868   -0.6856   -4.4520 H   0  0  0  0  0  0  0  0  0  0  0  0
    8.8787   -3.2963   -4.3058 H   0  0  0  0  0  0  0  0  0  0  0  0
    5.5058   -3.7062   -6.5981 H   0  0  0  0  0  0  0  0  0  0  0  0
    4.3664   -5.3321   -3.4758 H   0  0  0  0  0  0  0  0  0  0  0  0
    3.1254   -7.4290   -3.3738 H   0  0  0  0  0  0  0  0  0  0  0  0
    2.5762   -8.6685   -5.4355 H   0  0  0  0  0  0  0  0  0  0  0  0
    4.5050   -5.5990   -7.7867 H   0  0  0  0  0  0  0  0  0  0  0  0
    7.8744    1.7267   -4.8147 H   0  0  0  0  0  0  0  0  0  0  0  0
    1.1167    5.9297   -3.5463 H   0  0  0  0  0  0  0  0  0  0  0  0
    0.7886    5.4135   -5.2113 H   0  0  0  0  0  0  0  0  0  0  0  0
  1  2  1  0  0  0  0
  1 36  1  0  0  0  0
  1 37  1  0  0  0  0
  1 38  1  0  0  0  0
  2  3  1  0  0  0  0
  2 39  1  0  0  0  0
  2 40  1  0  0  0  0
  3  4  1  0  0  0  0
  3 35  1  0  0  0  0
  4  5  1  0  0  0  0
  4 41  1  0  0  0  0
  4 42  1  0  0  0  0
  5  6  1  0  0  0  0
  5 43  1  0  0  0  0
  5 44  1  0  0  0  0
  6  7  1  0  0  0  0
  6 11  2  0  0  0  0
  7  8  2  0  0  0  0
  7 35  1  0  0  0  0
  8  9  1  0  0  0  0
  9 10  2  0  0  0  0
  9 45  1  0  0  0  0
 10 11  1  0  0  0  0
 11 12  1  0  0  0  0
 12 13  1  0  0  0  0
 13 14  1  0  0  0  0
 13 34  2  0  0  0  0
 14 15  2  0  0  0  0
 14 46  1  0  0  0  0
 15 16  1  0  0  0  0
 15 47  1  0  0  0  0
 16 17  2  0  0  0  0
 16 20  1  0  0  0  0
 17 18  1  0  0  0  0
 17 34  1  0  0  0  0
 18 19  2  0  0  0  0
 18 48  1  0  0  0  0
 19 20  1  0  0  0  0
 19 49  1  0  0  0  0
 20 21  1  0  0  0  0
 21 22  2  0  0  0  0
 21 23  1  0  0  0  0
 23 24  1  0  0  0  0
 23 50  1  0  0  0  0
 24 25  1  0  0  0  0
 24 33  2  0  0  0  0
 25 26  2  0  0  0  0
 25 51  1  0  0  0  0
 26 27  1  0  0  0  0
 26 52  1  0  0  0  0
 27 28  2  0  0  0  0
 27 53  1  0  0  0  0
 28 29  1  0  0  0  0
 28 33  1  0  0  0  0
 29 30  1  0  0  0  0
 29 31  1  0  0  0  0
 29 32  1  0  0  0  0
 33 54  1  0  0  0  0
 34 55  1  0  0  0  0
 35 56  1  0  0  0  0
 35 57  1  0  0  0  0
M  END
$$$$
