CHEMBL3297892
 OpenBabel04072215363D

 33 35  0  0  0  0  0  0  0  0999 V2000
   -2.7116   -0.5386   -1.5355 C   0  0  0  0  0  0  0  0  0  0  0  0
   -1.6316   -0.0573   -1.7519 C   0  0  0  0  0  0  0  0  0  0  0  0
   -0.3485    0.5060   -2.0182 C   0  0  0  0  0  0  0  0  0  0  0  0
    0.2110    0.3755   -3.2882 C   0  0  0  0  0  0  0  0  0  0  0  0
    1.4605    0.9258   -3.5468 C   0  0  0  0  0  0  0  0  0  0  0  0
    2.1475    1.5926   -2.5311 C   0  0  0  0  0  0  0  0  0  0  0  0
    1.6149    1.7168   -1.2396 C   0  0  0  0  0  0  0  0  0  0  0  0
    2.3174    2.3160   -0.1783 N   0  0  0  0  0  0  0  0  0  0  0  0
    3.6997    2.4931   -0.0183 C   0  0  0  0  0  0  0  0  0  0  0  0
    4.5664    1.9550   -0.9090 N   0  0  0  0  0  0  0  0  0  0  0  0
    5.8957    2.0773   -0.7455 C   0  0  0  0  0  0  0  0  0  0  0  0
    6.7468    1.4195   -1.7871 C   0  0  0  0  0  0  0  0  0  0  0  0
    6.5115    2.7118    0.2590 N   0  0  0  0  0  0  0  0  0  0  0  0
    5.6369    3.2361    1.1274 C   0  0  0  0  0  0  0  0  0  0  0  0
    6.0239    3.9204    2.2424 O   0  0  0  0  0  0  0  0  0  0  0  0
    4.8941    4.3053    2.8987 C   0  0  0  0  0  0  0  0  0  0  0  0
    5.0829    5.0556    4.1570 C   0  0  0  0  0  0  0  0  0  0  0  0
    3.7766    3.8832    2.2103 C   0  0  0  0  0  0  0  0  0  0  0  0
    4.2513    3.1783    1.0703 C   0  0  0  0  0  0  0  0  0  0  0  0
    0.3461    1.1725   -1.0023 C   0  0  0  0  0  0  0  0  0  0  0  0
   -3.6657   -0.9687   -1.3491 H   0  0  0  0  0  0  0  0  0  0  0  0
   -0.3189   -0.1517   -4.0771 H   0  0  0  0  0  0  0  0  0  0  0  0
    1.9084    0.8343   -4.5321 H   0  0  0  0  0  0  0  0  0  0  0  0
    3.1151    2.0223   -2.7742 H   0  0  0  0  0  0  0  0  0  0  0  0
    1.7805    2.4798    0.6612 H   0  0  0  0  0  0  0  0  0  0  0  0
    6.1218    0.9486   -2.5556 H   0  0  0  0  0  0  0  0  0  0  0  0
    7.3658    0.6429   -1.3298 H   0  0  0  0  0  0  0  0  0  0  0  0
    7.3878    2.1581   -2.2746 H   0  0  0  0  0  0  0  0  0  0  0  0
    6.1440    5.1918    4.3876 H   0  0  0  0  0  0  0  0  0  0  0  0
    4.6212    4.5175    4.9908 H   0  0  0  0  0  0  0  0  0  0  0  0
    4.6192    6.0441    4.0865 H   0  0  0  0  0  0  0  0  0  0  0  0
    2.7504    4.0605    2.4982 H   0  0  0  0  0  0  0  0  0  0  0  0
   -0.1031    1.2462   -0.0152 H   0  0  0  0  0  0  0  0  0  0  0  0
  1  2  3  0  0  0  0
  1 21  1  0  0  0  0
  2  3  1  0  0  0  0
  3  4  1  0  0  0  0
  3 20  2  0  0  0  0
  4  5  2  0  0  0  0
  4 22  1  0  0  0  0
  5  6  1  0  0  0  0
  5 23  1  0  0  0  0
  6  7  2  0  0  0  0
  6 24  1  0  0  0  0
  7  8  1  0  0  0  0
  7 20  1  0  0  0  0
  8  9  1  0  0  0  0
  8 25  1  0  0  0  0
  9 10  1  0  0  0  0
  9 19  2  0  0  0  0
 10 11  2  0  0  0  0
 11 12  1  0  0  0  0
 11 13  1  0  0  0  0
 12 26  1  0  0  0  0
 12 27  1  0  0  0  0
 12 28  1  0  0  0  0
 13 14  2  0  0  0  0
 14 15  1  0  0  0  0
 14 19  1  0  0  0  0
 15 16  1  0  0  0  0
 16 17  1  0  0  0  0
 16 18  2  0  0  0  0
 17 29  1  0  0  0  0
 17 30  1  0  0  0  0
 17 31  1  0  0  0  0
 18 19  1  0  0  0  0
 18 32  1  0  0  0  0
 20 33  1  0  0  0  0
M  END
$$$$
