CHEMBL403158
 OpenBabel04072215373D

 62 68  0  0  0  0  0  0  0  0999 V2000
    3.9698   -0.6728   -3.5193 C   0  0  0  0  0  0  0  0  0  0  0  0
    3.3600    0.2263   -2.4439 C   0  0  0  0  0  0  0  0  0  0  0  0
    1.8343    0.2419   -2.5835 C   0  0  0  0  0  0  0  0  0  0  0  0
    3.7868   -0.1922   -1.0101 C   0  0  0  0  0  0  0  0  0  0  0  0
    5.2227   -0.0806   -0.7418 N   0  0  0  0  0  0  0  0  0  0  0  0
    5.9304    1.1427   -0.8211 C   0  0  0  0  0  0  0  0  0  0  0  0
    5.5003    2.4760   -0.9968 C   0  0  0  0  0  0  0  0  0  0  0  0
    6.4689    3.4740   -1.2350 C   0  0  0  0  0  0  0  0  0  0  0  0
    7.8335    3.1808   -1.2045 C   0  0  0  0  0  0  0  0  0  0  0  0
    8.9317    4.1393   -1.5363 C   0  0  0  0  0  0  0  0  0  0  0  0
    9.8977    3.6412   -2.1218 O   0  0  0  0  0  0  0  0  0  0  0  0
    8.8948    5.5465   -1.1753 C   0  0  0  0  0  0  0  0  0  0  0  0
    7.9365    6.1296    0.1255 S   0  0  0  0  0  0  0  0  0  0  0  0
    8.4781    7.7331   -0.0888 C   0  0  0  0  0  0  0  0  0  0  0  0
    9.4132    7.8342   -1.0910 C   0  0  0  0  0  0  0  0  0  0  0  0
    9.6587    6.5759   -1.6961 C   0  0  0  0  0  0  0  0  0  0  0  0
   10.9431    6.4541   -3.0860 Br  0  0  0  0  0  0  0  0  0  0  0  0
    8.2428    1.8663   -0.9772 C   0  0  0  0  0  0  0  0  0  0  0  0
    7.2979    0.8427   -0.8397 C   0  0  0  0  0  0  0  0  0  0  0  0
    7.3079   -0.5331   -0.8428 C   0  0  0  0  0  0  0  0  0  0  0  0
    8.4006   -1.2644   -1.3342 C   0  0  0  0  0  0  0  0  0  0  0  0
    8.1099   -2.5693   -1.7795 C   0  0  0  0  0  0  0  0  0  0  0  0
    6.8421   -3.1696   -1.6587 C   0  0  0  0  0  0  0  0  0  0  0  0
    6.0381   -2.5690   -0.6275 C   0  0  0  0  0  0  0  0  0  0  0  0
    6.1150   -1.1553   -0.6156 C   0  0  0  0  0  0  0  0  0  0  0  0
    6.0919   -3.4424    0.7082 C   0  0  0  0  0  0  0  0  0  0  0  0
    7.1409   -4.6355    0.6838 C   0  0  0  0  0  0  0  0  0  0  0  0
    6.9088   -5.3710   -0.5884 C   0  0  0  0  0  0  0  0  0  0  0  0
    6.5070   -6.6320   -0.7432 N   0  0  0  0  0  0  0  0  0  0  0  0
    6.0301   -6.6324   -2.0146 N   0  0  0  0  0  0  0  0  0  0  0  0
    5.3593   -7.8025   -2.5263 C   0  0  0  0  0  0  0  0  0  0  0  0
    6.0433   -5.3935   -2.6092 C   0  0  0  0  0  0  0  0  0  0  0  0
    6.7624   -4.6029   -1.7536 C   0  0  0  0  0  0  0  0  0  0  0  0
    9.3559   -3.1614   -2.1940 C   0  0  0  0  0  0  0  0  0  0  0  0
    9.6702   -4.2920   -2.5818 O   0  0  0  0  0  0  0  0  0  0  0  0
   10.3025   -2.1674   -1.9996 N   0  0  0  0  0  0  0  0  0  0  0  0
    9.8013   -0.9001   -1.5229 C   0  0  0  0  0  0  0  0  0  0  0  0
    3.6393   -0.3587   -4.5164 H   0  0  0  0  0  0  0  0  0  0  0  0
    3.6759   -1.7173   -3.3791 H   0  0  0  0  0  0  0  0  0  0  0  0
    5.0623   -0.6143   -3.5103 H   0  0  0  0  0  0  0  0  0  0  0  0
    3.6996    1.2470   -2.6513 H   0  0  0  0  0  0  0  0  0  0  0  0
    1.3991   -0.7368   -2.3590 H   0  0  0  0  0  0  0  0  0  0  0  0
    1.5398    0.5146   -3.6044 H   0  0  0  0  0  0  0  0  0  0  0  0
    1.3881    0.9804   -1.9089 H   0  0  0  0  0  0  0  0  0  0  0  0
    3.4799   -1.2221   -0.8025 H   0  0  0  0  0  0  0  0  0  0  0  0
    3.2916    0.4515   -0.2705 H   0  0  0  0  0  0  0  0  0  0  0  0
    4.4450    2.7301   -1.0345 H   0  0  0  0  0  0  0  0  0  0  0  0
    6.1213    4.4743   -1.4846 H   0  0  0  0  0  0  0  0  0  0  0  0
    8.0988    8.5243    0.5438 H   0  0  0  0  0  0  0  0  0  0  0  0
    9.8969    8.7642   -1.3648 H   0  0  0  0  0  0  0  0  0  0  0  0
    9.3030    1.6344   -0.9738 H   0  0  0  0  0  0  0  0  0  0  0  0
    5.0950   -3.8696    0.8608 H   0  0  0  0  0  0  0  0  0  0  0  0
    6.3332   -2.7942    1.5578 H   0  0  0  0  0  0  0  0  0  0  0  0
    7.0616   -5.2839    1.5596 H   0  0  0  0  0  0  0  0  0  0  0  0
    8.1648   -4.2288    0.6742 H   0  0  0  0  0  0  0  0  0  0  0  0
    5.5809   -8.6590   -1.8852 H   0  0  0  0  0  0  0  0  0  0  0  0
    5.7158   -7.9915   -3.5414 H   0  0  0  0  0  0  0  0  0  0  0  0
    4.2845   -7.6023   -2.5283 H   0  0  0  0  0  0  0  0  0  0  0  0
    5.5049   -5.1906   -3.5248 H   0  0  0  0  0  0  0  0  0  0  0  0
   11.2803   -2.3797   -2.1258 H   0  0  0  0  0  0  0  0  0  0  0  0
    9.9427   -0.1516   -2.3064 H   0  0  0  0  0  0  0  0  0  0  0  0
   10.2956   -0.6311   -0.5886 H   0  0  0  0  0  0  0  0  0  0  0  0
  1  2  1  0  0  0  0
  1 38  1  0  0  0  0
  1 39  1  0  0  0  0
  1 40  1  0  0  0  0
  2  3  1  0  0  0  0
  2  4  1  0  0  0  0
  2 41  1  0  0  0  0
  3 42  1  0  0  0  0
  3 43  1  0  0  0  0
  3 44  1  0  0  0  0
  4  5  1  0  0  0  0
  4 45  1  0  0  0  0
  4 46  1  0  0  0  0
  5  6  1  0  0  0  0
  5 25  1  0  0  0  0
  6  7  1  0  0  0  0
  6 19  2  0  0  0  0
  7  8  2  0  0  0  0
  7 47  1  0  0  0  0
  8  9  1  0  0  0  0
  8 48  1  0  0  0  0
  9 10  1  0  0  0  0
  9 18  2  0  0  0  0
 10 11  2  0  0  0  0
 10 12  1  0  0  0  0
 12 13  1  0  0  0  0
 12 16  2  0  0  0  0
 13 14  1  0  0  0  0
 14 15  2  0  0  0  0
 14 49  1  0  0  0  0
 15 16  1  0  0  0  0
 15 50  1  0  0  0  0
 16 17  1  0  0  0  0
 18 19  1  0  0  0  0
 18 51  1  0  0  0  0
 19 20  1  0  0  0  0
 20 21  1  0  0  0  0
 20 25  2  0  0  0  0
 21 22  2  0  0  0  0
 21 37  1  0  0  0  0
 22 23  1  0  0  0  0
 22 34  1  0  0  0  0
 23 24  2  0  0  0  0
 23 33  1  0  0  0  0
 24 25  1  0  0  0  0
 24 26  1  0  0  0  0
 26 27  1  0  0  0  0
 26 52  1  0  0  0  0
 26 53  1  0  0  0  0
 27 28  1  0  0  0  0
 27 54  1  0  0  0  0
 27 55  1  0  0  0  0
 28 29  2  0  0  0  0
 28 33  1  0  0  0  0
 29 30  1  0  0  0  0
 30 31  1  0  0  0  0
 30 32  1  0  0  0  0
 31 56  1  0  0  0  0
 31 57  1  0  0  0  0
 31 58  1  0  0  0  0
 32 33  2  0  0  0  0
 32 59  1  0  0  0  0
 34 35  2  0  0  0  0
 34 36  1  0  0  0  0
 36 37  1  0  0  0  0
 36 60  1  0  0  0  0
 37 61  1  0  0  0  0
 37 62  1  0  0  0  0
M  END
$$$$
