CHEMBL241681
 OpenBabel04072215363D

 55 59  0  0  0  0  0  0  0  0999 V2000
    1.1197   -0.1382   -1.9143 N   0  0  0  0  0  0  0  0  0  0  0  0
    2.4579   -0.1824   -1.5495 C   0  0  0  0  0  0  0  0  0  0  0  0
    3.1937    0.8849   -1.9292 N   0  0  0  0  0  0  0  0  0  0  0  0
    4.5006    0.9547   -1.5840 C   0  0  0  0  0  0  0  0  0  0  0  0
    5.2182    0.0210   -0.8353 C   0  0  0  0  0  0  0  0  0  0  0  0
    6.6461    0.1677   -0.5081 C   0  0  0  0  0  0  0  0  0  0  0  0
    7.2206    1.4393   -0.3093 C   0  0  0  0  0  0  0  0  0  0  0  0
    8.5934    1.5983   -0.0960 C   0  0  0  0  0  0  0  0  0  0  0  0
    9.4252    0.4856   -0.0564 C   0  0  0  0  0  0  0  0  0  0  0  0
    8.8817   -0.7849   -0.2124 C   0  0  0  0  0  0  0  0  0  0  0  0
    7.5096   -0.9393   -0.4365 C   0  0  0  0  0  0  0  0  0  0  0  0
    4.4150   -1.0628   -0.4770 C   0  0  0  0  0  0  0  0  0  0  0  0
    4.8232   -2.1308    0.2764 O   0  0  0  0  0  0  0  0  0  0  0  0
    3.7695   -2.9655    0.4063 C   0  0  0  0  0  0  0  0  0  0  0  0
    2.6557   -2.4696   -0.2451 C   0  0  0  0  0  0  0  0  0  0  0  0
    1.3664   -3.1463   -0.2085 C   0  0  0  0  0  0  0  0  0  0  0  0
    0.9746   -3.8151    0.9494 C   0  0  0  0  0  0  0  0  0  0  0  0
   -0.2857   -4.4073    1.0374 C   0  0  0  0  0  0  0  0  0  0  0  0
   -1.2078   -4.3204   -0.0095 C   0  0  0  0  0  0  0  0  0  0  0  0
   -2.5157   -4.8602    0.0662 N   0  0  0  0  0  0  0  0  0  0  0  0
   -3.0666   -5.4283    1.1938 C   0  0  0  0  0  0  0  0  0  0  0  0
   -2.5073   -5.5070    2.2879 O   0  0  0  0  0  0  0  0  0  0  0  0
   -4.3337   -5.9533    0.9830 N   0  0  0  0  0  0  0  0  0  0  0  0
   -4.9528   -6.5977    2.0898 C   0  0  0  0  0  0  0  0  0  0  0  0
   -5.0242   -5.9600    3.3369 C   0  0  0  0  0  0  0  0  0  0  0  0
   -5.4106   -6.6677    4.4838 C   0  0  0  0  0  0  0  0  0  0  0  0
   -5.4176   -5.9932    5.8350 C   0  0  0  0  0  0  0  0  0  0  0  0
   -5.0841   -4.6734    5.7946 F   0  0  0  0  0  0  0  0  0  0  0  0
   -6.6443   -6.0452    6.4265 F   0  0  0  0  0  0  0  0  0  0  0  0
   -4.5551   -6.5719    6.7153 F   0  0  0  0  0  0  0  0  0  0  0  0
   -5.7495   -8.0245    4.3563 C   0  0  0  0  0  0  0  0  0  0  0  0
   -5.7386   -8.6458    3.1020 C   0  0  0  0  0  0  0  0  0  0  0  0
   -5.3600   -7.9235    1.9743 C   0  0  0  0  0  0  0  0  0  0  0  0
   -5.2913   -8.5426    0.7858 F   0  0  0  0  0  0  0  0  0  0  0  0
   -0.8100   -3.6793   -1.1829 C   0  0  0  0  0  0  0  0  0  0  0  0
    0.4773   -3.1237   -1.2902 C   0  0  0  0  0  0  0  0  0  0  0  0
    3.0685   -1.2166   -0.8138 C   0  0  0  0  0  0  0  0  0  0  0  0
    0.8929    0.8014   -2.2211 H   0  0  0  0  0  0  0  0  0  0  0  0
    0.5018   -0.5195   -1.2090 H   0  0  0  0  0  0  0  0  0  0  0  0
    4.9903    1.8473   -1.9684 H   0  0  0  0  0  0  0  0  0  0  0  0
    6.6030    2.3351   -0.3206 H   0  0  0  0  0  0  0  0  0  0  0  0
    9.0099    2.5942    0.0317 H   0  0  0  0  0  0  0  0  0  0  0  0
   10.4942    0.6071    0.0961 H   0  0  0  0  0  0  0  0  0  0  0  0
    9.5242   -1.6609   -0.1745 H   0  0  0  0  0  0  0  0  0  0  0  0
    7.1291   -1.9492   -0.5776 H   0  0  0  0  0  0  0  0  0  0  0  0
    3.9619   -3.8540    0.9915 H   0  0  0  0  0  0  0  0  0  0  0  0
    1.6229   -3.8791    1.8191 H   0  0  0  0  0  0  0  0  0  0  0  0
   -0.5024   -4.9156    1.9692 H   0  0  0  0  0  0  0  0  0  0  0  0
   -3.1369   -4.6928   -0.7122 H   0  0  0  0  0  0  0  0  0  0  0  0
   -4.4290   -6.4414    0.0997 H   0  0  0  0  0  0  0  0  0  0  0  0
   -4.7141   -4.9192    3.4278 H   0  0  0  0  0  0  0  0  0  0  0  0
   -6.0079   -8.6056    5.2407 H   0  0  0  0  0  0  0  0  0  0  0  0
   -5.9823   -9.6999    3.0068 H   0  0  0  0  0  0  0  0  0  0  0  0
   -1.4844   -3.5937   -2.0315 H   0  0  0  0  0  0  0  0  0  0  0  0
    0.7651   -2.6609   -2.2322 H   0  0  0  0  0  0  0  0  0  0  0  0
  1  2  1  0  0  0  0
  1 38  1  0  0  0  0
  1 39  1  0  0  0  0
  2  3  1  0  0  0  0
  2 37  2  0  0  0  0
  3  4  2  0  0  0  0
  4  5  1  0  0  0  0
  4 40  1  0  0  0  0
  5  6  1  0  0  0  0
  5 12  2  0  0  0  0
  6  7  1  0  0  0  0
  6 11  2  0  0  0  0
  7  8  2  0  0  0  0
  7 41  1  0  0  0  0
  8  9  1  0  0  0  0
  8 42  1  0  0  0  0
  9 10  2  0  0  0  0
  9 43  1  0  0  0  0
 10 11  1  0  0  0  0
 10 44  1  0  0  0  0
 11 45  1  0  0  0  0
 12 13  1  0  0  0  0
 12 37  1  0  0  0  0
 13 14  1  0  0  0  0
 14 15  2  0  0  0  0
 14 46  1  0  0  0  0
 15 16  1  0  0  0  0
 15 37  1  0  0  0  0
 16 17  1  0  0  0  0
 16 36  2  0  0  0  0
 17 18  2  0  0  0  0
 17 47  1  0  0  0  0
 18 19  1  0  0  0  0
 18 48  1  0  0  0  0
 19 20  1  0  0  0  0
 19 35  2  0  0  0  0
 20 21  1  0  0  0  0
 20 49  1  0  0  0  0
 21 22  2  0  0  0  0
 21 23  1  0  0  0  0
 23 24  1  0  0  0  0
 23 50  1  0  0  0  0
 24 25  1  0  0  0  0
 24 33  2  0  0  0  0
 25 26  2  0  0  0  0
 25 51  1  0  0  0  0
 26 27  1  0  0  0  0
 26 31  1  0  0  0  0
 27 28  1  0  0  0  0
 27 29  1  0  0  0  0
 27 30  1  0  0  0  0
 31 32  2  0  0  0  0
 31 52  1  0  0  0  0
 32 33  1  0  0  0  0
 32 53  1  0  0  0  0
 33 34  1  0  0  0  0
 35 36  1  0  0  0  0
 35 54  1  0  0  0  0
 36 55  1  0  0  0  0
M  END
$$$$
