CHEMBL3985896
 OpenBabel04072215373D

 64 67  0  0  1  0  0  0  0  0999 V2000
    4.3596   -1.7047   -1.9462 C   0  0  0  0  0  0  0  0  0  0  0  0
    5.0890   -0.4728   -1.4159 C   0  0  0  0  0  0  0  0  0  0  0  0
    4.3553    0.1917   -0.2315 C   0  0  1  0  0  0  0  0  0  0  0  0
    4.2638   -0.7818    0.9557 C   0  0  0  0  0  0  0  0  0  0  0  0
    5.0274    1.4950    0.2690 C   0  0  0  0  0  0  0  0  0  0  0  0
    5.3691    2.5233   -0.7127 N   0  0  0  0  0  0  0  0  0  0  0  0
    5.9732    3.7069   -0.0743 C   0  0  0  0  0  0  0  0  0  0  0  0
    4.9295    4.7081    0.4311 C   0  0  0  0  0  0  0  0  0  0  0  0
    4.1200    5.1975   -0.6425 O   0  0  0  0  0  0  0  0  0  0  0  0
    3.4473    4.1630   -1.3954 C   0  0  3  0  0  0  0  0  0  0  0  0
    2.0369    3.9048   -0.8206 C   0  0  0  0  0  0  0  0  0  0  0  0
    1.2278    2.9514   -1.5600 O   0  0  0  0  0  0  0  0  0  0  0  0
   -0.1289    2.9318   -1.2322 C   0  0  0  0  0  0  0  0  0  0  0  0
   -0.6658    3.7231   -0.1899 C   0  0  0  0  0  0  0  0  0  0  0  0
   -2.0190    3.7890    0.1288 C   0  0  0  0  0  0  0  0  0  0  0  0
   -2.3973    4.6158    1.1016 N   0  0  0  0  0  0  0  0  0  0  0  0
   -3.7057    4.6771    1.3608 C   0  0  0  0  0  0  0  0  0  0  0  0
   -4.6615    3.9842    0.7409 N   0  0  0  0  0  0  0  0  0  0  0  0
   -4.2778    3.1543   -0.2478 C   0  0  0  0  0  0  0  0  0  0  0  0
   -5.2758    2.4296   -0.9620 N   0  0  0  0  0  0  0  0  0  0  0  0
   -6.6772    2.6246   -0.9042 C   0  0  0  0  0  0  0  0  0  0  0  0
   -7.2484    3.8718   -0.6201 C   0  0  0  0  0  0  0  0  0  0  0  0
   -8.6329    4.0439   -0.5434 C   0  0  0  0  0  0  0  0  0  0  0  0
   -9.4837    2.9740   -0.8021 C   0  0  0  0  0  0  0  0  0  0  0  0
  -11.1831    3.2399   -0.6475 Cl  0  0  0  0  0  0  0  0  0  0  0  0
   -8.9386    1.7437   -1.1784 C   0  0  0  0  0  0  0  0  0  0  0  0
   -9.9307    0.3892   -1.5895 Cl  0  0  0  0  0  0  0  0  0  0  0  0
   -7.5454    1.5760   -1.2408 C   0  0  0  0  0  0  0  0  0  0  0  0
   -2.9197    3.0193   -0.6061 C   0  0  0  0  0  0  0  0  0  0  0  0
   -2.4145    2.2034   -1.6376 C   0  0  0  0  0  0  0  0  0  0  0  0
   -1.0368    2.1413   -1.9516 C   0  0  0  0  0  0  0  0  0  0  0  0
   -0.8604    1.2952   -3.0114 O   0  0  0  0  0  0  0  0  0  0  0  0
    0.4164    0.7846   -3.3273 C   0  0  0  0  0  0  0  0  0  0  0  0
    4.3376    2.9295   -1.6822 C   0  0  0  0  0  0  0  0  0  0  0  0
    4.8838   -2.1129   -2.8160 H   0  0  0  0  0  0  0  0  0  0  0  0
    3.3390   -1.4526   -2.2525 H   0  0  0  0  0  0  0  0  0  0  0  0
    4.3074   -2.5000   -1.1967 H   0  0  0  0  0  0  0  0  0  0  0  0
    5.1911    0.2346   -2.2458 H   0  0  0  0  0  0  0  0  0  0  0  0
    6.1058   -0.7582   -1.1203 H   0  0  0  0  0  0  0  0  0  0  0  0
    3.3314    0.4349   -0.5416 H   0  0  0  0  0  0  0  0  0  0  0  0
    5.2480   -1.2024    1.1954 H   0  0  0  0  0  0  0  0  0  0  0  0
    3.5847   -1.6113    0.7384 H   0  0  0  0  0  0  0  0  0  0  0  0
    3.8862   -0.2805    1.8524 H   0  0  0  0  0  0  0  0  0  0  0  0
    5.9670    1.1989    0.7591 H   0  0  0  0  0  0  0  0  0  0  0  0
    4.3934    1.9232    1.0551 H   0  0  0  0  0  0  0  0  0  0  0  0
    6.6078    4.2043   -0.8185 H   0  0  0  0  0  0  0  0  0  0  0  0
    6.6430    3.4149    0.7457 H   0  0  0  0  0  0  0  0  0  0  0  0
    5.4467    5.5713    0.8670 H   0  0  0  0  0  0  0  0  0  0  0  0
    4.2963    4.2858    1.2188 H   0  0  0  0  0  0  0  0  0  0  0  0
    3.2698    4.6252   -2.3753 H   0  0  0  0  0  0  0  0  0  0  0  0
    1.5466    4.8891   -0.8526 H   0  0  0  0  0  0  0  0  0  0  0  0
    2.1127    3.5923    0.2278 H   0  0  0  0  0  0  0  0  0  0  0  0
   -0.0250    4.3560    0.4186 H   0  0  0  0  0  0  0  0  0  0  0  0
   -4.0239    5.3600    2.1407 H   0  0  0  0  0  0  0  0  0  0  0  0
   -5.0261    1.4455   -0.9856 H   0  0  0  0  0  0  0  0  0  0  0  0
   -6.6185    4.7384   -0.4393 H   0  0  0  0  0  0  0  0  0  0  0  0
   -9.0315    5.0191   -0.2771 H   0  0  0  0  0  0  0  0  0  0  0  0
   -7.1455    0.6117   -1.5438 H   0  0  0  0  0  0  0  0  0  0  0  0
   -3.1006    1.5966   -2.2280 H   0  0  0  0  0  0  0  0  0  0  0  0
    0.2496   -0.0570   -4.0121 H   0  0  0  0  0  0  0  0  0  0  0  0
    0.9393    0.3924   -2.4520 H   0  0  0  0  0  0  0  0  0  0  0  0
    1.0022    1.5322   -3.8648 H   0  0  0  0  0  0  0  0  0  0  0  0
    4.9246    3.2102   -2.5694 H   0  0  0  0  0  0  0  0  0  0  0  0
    3.7281    2.0912   -2.0255 H   0  0  0  0  0  0  0  0  0  0  0  0
  1  2  1  0  0  0  0
  1 35  1  0  0  0  0
  1 36  1  0  0  0  0
  1 37  1  0  0  0  0
  2  3  1  0  0  0  0
  2 38  1  0  0  0  0
  2 39  1  0  0  0  0
  3  4  1  0  0  0  0
  3  5  1  0  0  0  0
  3 40  1  6  0  0  0
  4 41  1  0  0  0  0
  4 42  1  0  0  0  0
  4 43  1  0  0  0  0
  5  6  1  0  0  0  0
  5 44  1  0  0  0  0
  5 45  1  0  0  0  0
  6  7  1  0  0  0  0
  6 34  1  0  0  0  0
  7  8  1  0  0  0  0
  7 46  1  0  0  0  0
  7 47  1  0  0  0  0
  8  9  1  0  0  0  0
  8 48  1  0  0  0  0
  8 49  1  0  0  0  0
  9 10  1  0  0  0  0
 10 11  1  0  0  0  0
 10 34  1  0  0  0  0
 10 50  1  0  0  0  0
 11 12  1  0  0  0  0
 11 51  1  0  0  0  0
 11 52  1  0  0  0  0
 12 13  1  0  0  0  0
 13 14  1  0  0  0  0
 13 31  2  0  0  0  0
 14 15  2  0  0  0  0
 14 53  1  0  0  0  0
 15 16  1  0  0  0  0
 15 29  1  0  0  0  0
 16 17  2  0  0  0  0
 17 18  1  0  0  0  0
 17 54  1  0  0  0  0
 18 19  2  0  0  0  0
 19 20  1  0  0  0  0
 19 29  1  0  0  0  0
 20 21  1  0  0  0  0
 20 55  1  0  0  0  0
 21 22  1  0  0  0  0
 21 28  2  0  0  0  0
 22 23  2  0  0  0  0
 22 56  1  0  0  0  0
 23 24  1  0  0  0  0
 23 57  1  0  0  0  0
 24 25  1  0  0  0  0
 24 26  2  0  0  0  0
 26 27  1  0  0  0  0
 26 28  1  0  0  0  0
 28 58  1  0  0  0  0
 29 30  2  0  0  0  0
 30 31  1  0  0  0  0
 30 59  1  0  0  0  0
 31 32  1  0  0  0  0
 32 33  1  0  0  0  0
 33 60  1  0  0  0  0
 33 61  1  0  0  0  0
 33 62  1  0  0  0  0
 34 63  1  0  0  0  0
 34 64  1  0  0  0  0
M  END
$$$$
