CHEMBL45388
 OpenBabel04072215383D

 39 42  0  0  0  0  0  0  0  0999 V2000
    2.5353   -5.9083    3.8008 Cl  0  0  0  0  0  0  0  0  0  0  0  0
    2.4972   -4.9791    2.3516 C   0  0  0  0  0  0  0  0  0  0  0  0
    3.6804   -4.5150    1.7966 C   0  0  0  0  0  0  0  0  0  0  0  0
    3.6239   -3.7676    0.6267 C   0  0  0  0  0  0  0  0  0  0  0  0
    5.0827   -3.1720   -0.0669 Cl  0  0  0  0  0  0  0  0  0  0  0  0
    2.3980   -3.4978    0.0062 C   0  0  0  0  0  0  0  0  0  0  0  0
    1.1980   -3.9889    0.5430 C   0  0  0  0  0  0  0  0  0  0  0  0
   -0.0111   -3.7267   -0.1161 N   0  0  0  0  0  0  0  0  0  0  0  0
   -1.2711   -4.3066    0.0200 C   0  0  0  0  0  0  0  0  0  0  0  0
   -1.5655   -5.1172    1.0369 N   0  0  0  0  0  0  0  0  0  0  0  0
   -2.7724   -5.7091    1.0536 C   0  0  0  0  0  0  0  0  0  0  0  0
   -3.7144   -5.5250    0.0785 C   0  0  0  0  0  0  0  0  0  0  0  0
   -3.3263   -4.7056   -0.9582 C   0  0  0  0  0  0  0  0  0  0  0  0
   -4.1617   -4.6069   -2.1070 N   0  0  0  0  0  0  0  0  0  0  0  0
   -5.5394   -4.6748   -2.1005 C   0  0  0  0  0  0  0  0  0  0  0  0
   -5.9347   -4.4047   -3.3845 C   0  0  0  0  0  0  0  0  0  0  0  0
   -4.8496   -4.2551   -4.1990 N   0  0  0  0  0  0  0  0  0  0  0  0
   -3.7746   -4.4423   -3.4423 C   0  0  0  0  0  0  0  0  0  0  0  0
   -2.4045   -4.5335   -3.9888 C   0  0  0  0  0  0  0  0  0  0  0  0
   -2.0674   -3.8020   -5.1352 C   0  0  0  0  0  0  0  0  0  0  0  0
   -0.7661   -3.8306   -5.6494 C   0  0  0  0  0  0  0  0  0  0  0  0
    0.2211   -4.5840   -5.0176 C   0  0  0  0  0  0  0  0  0  0  0  0
   -0.1060   -5.3569   -3.9103 C   0  0  0  0  0  0  0  0  0  0  0  0
   -1.4179   -5.3645   -3.4324 C   0  0  0  0  0  0  0  0  0  0  0  0
   -2.1323   -4.0679   -0.9782 N   0  0  0  0  0  0  0  0  0  0  0  0
    1.2720   -4.7108    1.7416 C   0  0  0  0  0  0  0  0  0  0  0  0
    4.6308   -4.7329    2.2717 H   0  0  0  0  0  0  0  0  0  0  0  0
    2.3885   -2.9140   -0.9114 H   0  0  0  0  0  0  0  0  0  0  0  0
    0.0397   -3.2671   -1.0183 H   0  0  0  0  0  0  0  0  0  0  0  0
   -2.9402   -6.3906    1.8829 H   0  0  0  0  0  0  0  0  0  0  0  0
   -4.6451   -6.0755    0.1020 H   0  0  0  0  0  0  0  0  0  0  0  0
   -6.1156   -4.8206   -1.1971 H   0  0  0  0  0  0  0  0  0  0  0  0
   -6.9449   -4.3104   -3.7627 H   0  0  0  0  0  0  0  0  0  0  0  0
   -2.8249   -3.2021   -5.6372 H   0  0  0  0  0  0  0  0  0  0  0  0
   -0.5243   -3.2588   -6.5413 H   0  0  0  0  0  0  0  0  0  0  0  0
    1.2388   -4.5837   -5.3981 H   0  0  0  0  0  0  0  0  0  0  0  0
    0.6516   -5.9584   -3.4146 H   0  0  0  0  0  0  0  0  0  0  0  0
   -1.6431   -6.0185   -2.5953 H   0  0  0  0  0  0  0  0  0  0  0  0
    0.3749   -5.0789    2.2282 H   0  0  0  0  0  0  0  0  0  0  0  0
  1  2  1  0  0  0  0
  2  3  1  0  0  0  0
  2 26  2  0  0  0  0
  3  4  2  0  0  0  0
  3 27  1  0  0  0  0
  4  5  1  0  0  0  0
  4  6  1  0  0  0  0
  6  7  2  0  0  0  0
  6 28  1  0  0  0  0
  7  8  1  0  0  0  0
  7 26  1  0  0  0  0
  8  9  1  0  0  0  0
  8 29  1  0  0  0  0
  9 10  1  0  0  0  0
  9 25  2  0  0  0  0
 10 11  2  0  0  0  0
 11 12  1  0  0  0  0
 11 30  1  0  0  0  0
 12 13  2  0  0  0  0
 12 31  1  0  0  0  0
 13 14  1  0  0  0  0
 13 25  1  0  0  0  0
 14 15  1  0  0  0  0
 14 18  1  0  0  0  0
 15 16  2  0  0  0  0
 15 32  1  0  0  0  0
 16 17  1  0  0  0  0
 16 33  1  0  0  0  0
 17 18  2  0  0  0  0
 18 19  1  0  0  0  0
 19 20  1  0  0  0  0
 19 24  2  0  0  0  0
 20 21  2  0  0  0  0
 20 34  1  0  0  0  0
 21 22  1  0  0  0  0
 21 35  1  0  0  0  0
 22 23  2  0  0  0  0
 22 36  1  0  0  0  0
 23 24  1  0  0  0  0
 23 37  1  0  0  0  0
 24 38  1  0  0  0  0
 26 39  1  0  0  0  0
M  END
$$$$
