CHEMBL4441199
 OpenBabel04072215383D

 45 48  0  0  0  0  0  0  0  0999 V2000
   10.2146   -1.1731   -0.3464 C   0  0  0  0  0  0  0  0  0  0  0  0
   10.4809   -2.1216   -1.3742 O   0  0  0  0  0  0  0  0  0  0  0  0
    9.5914   -3.1526   -1.5217 C   0  0  0  0  0  0  0  0  0  0  0  0
    8.4246   -3.3396   -0.7884 C   0  0  0  0  0  0  0  0  0  0  0  0
    7.6136   -4.4627   -1.0229 C   0  0  0  0  0  0  0  0  0  0  0  0
    7.9480   -5.4231   -1.9949 C   0  0  0  0  0  0  0  0  0  0  0  0
    7.1416   -6.7029   -2.1063 C   0  0  0  0  0  0  0  0  0  0  0  0
    6.6903   -7.1202   -3.4964 C   0  0  0  0  0  0  0  0  0  0  0  0
    7.3311   -7.9108   -4.1815 O   0  0  0  0  0  0  0  0  0  0  0  0
    5.5064   -6.5123   -3.8989 N   0  0  0  0  0  0  0  0  0  0  0  0
    4.9060   -6.6866   -5.1710 C   0  0  0  0  0  0  0  0  0  0  0  0
    4.4758   -5.5085   -5.7961 C   0  0  0  0  0  0  0  0  0  0  0  0
    3.8523   -5.5223   -7.0426 C   0  0  0  0  0  0  0  0  0  0  0  0
    3.6195   -6.7759   -7.5811 C   0  0  0  0  0  0  0  0  0  0  0  0
    2.9596   -7.0294   -8.7372 O   0  0  0  0  0  0  0  0  0  0  0  0
    2.8968   -8.3988   -8.8039 C   0  0  0  0  0  0  0  0  0  0  0  0
    2.1073   -8.8935   -9.9294 C   0  0  0  0  0  0  0  0  0  0  0  0
    2.5227   -9.9746  -10.7164 C   0  0  0  0  0  0  0  0  0  0  0  0
    1.7600  -10.3874  -11.8191 C   0  0  0  0  0  0  0  0  0  0  0  0
    0.5653   -9.7378  -12.1385 C   0  0  0  0  0  0  0  0  0  0  0  0
    0.1335   -8.6711  -11.3586 C   0  0  0  0  0  0  0  0  0  0  0  0
    0.9003   -8.2604  -10.2711 C   0  0  0  0  0  0  0  0  0  0  0  0
    0.4431   -7.2279   -9.5441 F   0  0  0  0  0  0  0  0  0  0  0  0
    3.5487   -9.0158   -7.8299 N   0  0  0  0  0  0  0  0  0  0  0  0
    3.9938   -7.9806   -7.0120 C   0  0  0  0  0  0  0  0  0  0  0  0
    4.6850   -7.9481   -5.7766 C   0  0  0  0  0  0  0  0  0  0  0  0
    9.1206   -5.2181   -2.7351 C   0  0  0  0  0  0  0  0  0  0  0  0
    9.9289   -4.0940   -2.4989 C   0  0  0  0  0  0  0  0  0  0  0  0
   11.0045   -0.4151   -0.3735 H   0  0  0  0  0  0  0  0  0  0  0  0
   10.2398   -1.6427    0.6428 H   0  0  0  0  0  0  0  0  0  0  0  0
    9.2615   -0.6613   -0.5162 H   0  0  0  0  0  0  0  0  0  0  0  0
    8.1239   -2.6445   -0.0112 H   0  0  0  0  0  0  0  0  0  0  0  0
    6.7295   -4.5940   -0.4025 H   0  0  0  0  0  0  0  0  0  0  0  0
    6.2504   -6.6371   -1.4701 H   0  0  0  0  0  0  0  0  0  0  0  0
    7.7441   -7.5215   -1.6936 H   0  0  0  0  0  0  0  0  0  0  0  0
    5.3132   -5.6332   -3.4365 H   0  0  0  0  0  0  0  0  0  0  0  0
    4.6695   -4.5428   -5.3338 H   0  0  0  0  0  0  0  0  0  0  0  0
    3.5451   -4.6188   -7.5515 H   0  0  0  0  0  0  0  0  0  0  0  0
    3.4590  -10.4876  -10.4914 H   0  0  0  0  0  0  0  0  0  0  0  0
    2.0992  -11.2164  -12.4367 H   0  0  0  0  0  0  0  0  0  0  0  0
   -0.0262  -10.0601  -12.9929 H   0  0  0  0  0  0  0  0  0  0  0  0
   -0.7910   -8.1496  -11.5869 H   0  0  0  0  0  0  0  0  0  0  0  0
    4.9732   -8.8745   -5.2914 H   0  0  0  0  0  0  0  0  0  0  0  0
    9.4409   -5.9472   -3.4784 H   0  0  0  0  0  0  0  0  0  0  0  0
   10.8473   -3.9636   -3.0685 H   0  0  0  0  0  0  0  0  0  0  0  0
  1  2  1  0  0  0  0
  1 29  1  0  0  0  0
  1 30  1  0  0  0  0
  1 31  1  0  0  0  0
  2  3  1  0  0  0  0
  3  4  1  0  0  0  0
  3 28  2  0  0  0  0
  4  5  2  0  0  0  0
  4 32  1  0  0  0  0
  5  6  1  0  0  0  0
  5 33  1  0  0  0  0
  6  7  1  0  0  0  0
  6 27  2  0  0  0  0
  7  8  1  0  0  0  0
  7 34  1  0  0  0  0
  7 35  1  0  0  0  0
  8  9  2  0  0  0  0
  8 10  1  0  0  0  0
 10 11  1  0  0  0  0
 10 36  1  0  0  0  0
 11 12  1  0  0  0  0
 11 26  2  0  0  0  0
 12 13  2  0  0  0  0
 12 37  1  0  0  0  0
 13 14  1  0  0  0  0
 13 38  1  0  0  0  0
 14 15  1  0  0  0  0
 14 25  2  0  0  0  0
 15 16  1  0  0  0  0
 16 17  1  0  0  0  0
 16 24  2  0  0  0  0
 17 18  1  0  0  0  0
 17 22  2  0  0  0  0
 18 19  2  0  0  0  0
 18 39  1  0  0  0  0
 19 20  1  0  0  0  0
 19 40  1  0  0  0  0
 20 21  2  0  0  0  0
 20 41  1  0  0  0  0
 21 22  1  0  0  0  0
 21 42  1  0  0  0  0
 22 23  1  0  0  0  0
 24 25  1  0  0  0  0
 25 26  1  0  0  0  0
 26 43  1  0  0  0  0
 27 28  1  0  0  0  0
 27 44  1  0  0  0  0
 28 45  1  0  0  0  0
M  END
$$$$
