CHEMBL215152
 OpenBabel04072215363D

 67 70  0  0  0  0  0  0  0  0999 V2000
    4.9448   -0.6152   -1.1086 C   0  0  0  0  0  0  0  0  0  0  0  0
    4.4646   -0.5099    0.3359 C   0  0  0  0  0  0  0  0  0  0  0  0
    4.7576    0.7677    1.0344 N   0  0  0  0  0  0  0  0  0  0  0  0
    4.1509    1.9181    0.3112 C   0  0  0  0  0  0  0  0  0  0  0  0
    4.4784    3.3149    0.8817 C   0  0  0  0  0  0  0  0  0  0  0  0
    5.8827    3.5433    0.9365 O   0  0  0  0  0  0  0  0  0  0  0  0
    4.2565    0.6931    2.4294 C   0  0  0  0  0  0  0  0  0  0  0  0
    4.8909   -0.4087    3.2959 C   0  0  0  0  0  0  0  0  0  0  0  0
    6.4035   -0.2548    3.3612 C   0  0  0  0  0  0  0  0  0  0  0  0
    6.9668   -1.2807    4.1780 O   0  0  0  0  0  0  0  0  0  0  0  0
    8.3350   -1.2398    4.2899 C   0  0  0  0  0  0  0  0  0  0  0  0
    9.1509   -0.2834    3.6923 C   0  0  0  0  0  0  0  0  0  0  0  0
   10.5293   -0.3355    3.8805 C   0  0  0  0  0  0  0  0  0  0  0  0
   11.1130   -1.3368    4.6767 C   0  0  0  0  0  0  0  0  0  0  0  0
   12.4836   -1.4510    4.9333 C   0  0  0  0  0  0  0  0  0  0  0  0
   13.3773   -0.5052    4.3552 N   0  0  0  0  0  0  0  0  0  0  0  0
   14.7188   -0.5668    4.2983 C   0  0  0  0  0  0  0  0  0  0  0  0
   15.4983   -1.7438    4.3765 C   0  0  0  0  0  0  0  0  0  0  0  0
   16.8010   -1.3168    4.4751 C   0  0  0  0  0  0  0  0  0  0  0  0
   18.0339   -2.0843    4.8088 C   0  0  0  0  0  0  0  0  0  0  0  0
   19.2892   -1.2173    4.8605 C   0  0  0  0  0  0  0  0  0  0  0  0
   19.2596   -0.0446    5.2368 O   0  0  0  0  0  0  0  0  0  0  0  0
   20.4242   -1.8686    4.4150 N   0  0  0  0  0  0  0  0  0  0  0  0
   21.6705   -1.2153    4.3710 C   0  0  0  0  0  0  0  0  0  0  0  0
   22.4146   -1.2826    3.1900 C   0  0  0  0  0  0  0  0  0  0  0  0
   23.6339   -0.6092    3.0935 C   0  0  0  0  0  0  0  0  0  0  0  0
   24.1370    0.0791    4.1967 C   0  0  0  0  0  0  0  0  0  0  0  0
   23.4062    0.1090    5.3795 C   0  0  0  0  0  0  0  0  0  0  0  0
   23.9090    0.7444    6.4459 F   0  0  0  0  0  0  0  0  0  0  0  0
   22.1681   -0.5160    5.4729 C   0  0  0  0  0  0  0  0  0  0  0  0
   16.7455    0.0414    4.2931 N   0  0  0  0  0  0  0  0  0  0  0  0
   15.4939    0.5179    4.1664 N   0  0  0  0  0  0  0  0  0  0  0  0
   12.9850   -2.4591    5.6659 N   0  0  0  0  0  0  0  0  0  0  0  0
   12.1114   -3.3438    6.1689 C   0  0  0  0  0  0  0  0  0  0  0  0
   10.7816   -3.3129    6.0054 N   0  0  0  0  0  0  0  0  0  0  0  0
   10.2906   -2.3196    5.2675 C   0  0  0  0  0  0  0  0  0  0  0  0
    8.9211   -2.2496    5.0589 C   0  0  0  0  0  0  0  0  0  0  0  0
    4.9520   -1.6689   -1.4127 H   0  0  0  0  0  0  0  0  0  0  0  0
    5.9628   -0.2315   -1.2259 H   0  0  0  0  0  0  0  0  0  0  0  0
    4.2794   -0.0838   -1.7952 H   0  0  0  0  0  0  0  0  0  0  0  0
    4.9746   -1.3239    0.8608 H   0  0  0  0  0  0  0  0  0  0  0  0
    3.3897   -0.7288    0.3696 H   0  0  0  0  0  0  0  0  0  0  0  0
    3.0615    1.8038    0.2603 H   0  0  0  0  0  0  0  0  0  0  0  0
    4.5336    1.9220   -0.7159 H   0  0  0  0  0  0  0  0  0  0  0  0
    4.0656    3.4625    1.8832 H   0  0  0  0  0  0  0  0  0  0  0  0
    4.0420    4.0847    0.2366 H   0  0  0  0  0  0  0  0  0  0  0  0
    6.2599    2.7706    1.3946 H   0  0  0  0  0  0  0  0  0  0  0  0
    3.1666    0.5673    2.4353 H   0  0  0  0  0  0  0  0  0  0  0  0
    4.4700    1.6379    2.9410 H   0  0  0  0  0  0  0  0  0  0  0  0
    4.6266   -1.4116    2.9419 H   0  0  0  0  0  0  0  0  0  0  0  0
    4.4782   -0.3523    4.3105 H   0  0  0  0  0  0  0  0  0  0  0  0
    6.6333    0.7288    3.7921 H   0  0  0  0  0  0  0  0  0  0  0  0
    6.8202   -0.3291    2.3486 H   0  0  0  0  0  0  0  0  0  0  0  0
    8.7617    0.5165    3.0731 H   0  0  0  0  0  0  0  0  0  0  0  0
   11.1425    0.4179    3.3808 H   0  0  0  0  0  0  0  0  0  0  0  0
   13.0336    0.4377    4.4719 H   0  0  0  0  0  0  0  0  0  0  0  0
   15.1456   -2.7560    4.4718 H   0  0  0  0  0  0  0  0  0  0  0  0
   18.1591   -2.8989    4.0884 H   0  0  0  0  0  0  0  0  0  0  0  0
   17.9178   -2.5326    5.8034 H   0  0  0  0  0  0  0  0  0  0  0  0
   20.2814   -2.6198    3.7497 H   0  0  0  0  0  0  0  0  0  0  0  0
   22.0238   -1.7977    2.3167 H   0  0  0  0  0  0  0  0  0  0  0  0
   24.1839   -0.6127    2.1564 H   0  0  0  0  0  0  0  0  0  0  0  0
   25.0907    0.5947    4.1428 H   0  0  0  0  0  0  0  0  0  0  0  0
   21.6225   -0.4681    6.4098 H   0  0  0  0  0  0  0  0  0  0  0  0
   17.5205    0.7016    4.3099 H   0  0  0  0  0  0  0  0  0  0  0  0
   12.5248   -4.1575    6.7534 H   0  0  0  0  0  0  0  0  0  0  0  0
    8.2860   -3.0097    5.5094 H   0  0  0  0  0  0  0  0  0  0  0  0
  1  2  1  0  0  0  0
  1 38  1  0  0  0  0
  1 39  1  0  0  0  0
  1 40  1  0  0  0  0
  2  3  1  0  0  0  0
  2 41  1  0  0  0  0
  2 42  1  0  0  0  0
  3  4  1  0  0  0  0
  3  7  1  0  0  0  0
  4  5  1  0  0  0  0
  4 43  1  0  0  0  0
  4 44  1  0  0  0  0
  5  6  1  0  0  0  0
  5 45  1  0  0  0  0
  5 46  1  0  0  0  0
  6 47  1  0  0  0  0
  7  8  1  0  0  0  0
  7 48  1  0  0  0  0
  7 49  1  0  0  0  0
  8  9  1  0  0  0  0
  8 50  1  0  0  0  0
  8 51  1  0  0  0  0
  9 10  1  0  0  0  0
  9 52  1  0  0  0  0
  9 53  1  0  0  0  0
 10 11  1  0  0  0  0
 11 12  1  0  0  0  0
 11 37  2  0  0  0  0
 12 13  2  0  0  0  0
 12 54  1  0  0  0  0
 13 14  1  0  0  0  0
 13 55  1  0  0  0  0
 14 15  1  0  0  0  0
 14 36  2  0  0  0  0
 15 16  1  0  0  0  0
 15 33  2  0  0  0  0
 16 17  1  0  0  0  0
 16 56  1  0  0  0  0
 17 18  1  0  0  0  0
 17 32  2  0  0  0  0
 18 19  2  0  0  0  0
 18 57  1  0  0  0  0
 19 20  1  0  0  0  0
 19 31  1  0  0  0  0
 20 21  1  0  0  0  0
 20 58  1  0  0  0  0
 20 59  1  0  0  0  0
 21 22  2  0  0  0  0
 21 23  1  0  0  0  0
 23 24  1  0  0  0  0
 23 60  1  0  0  0  0
 24 25  1  0  0  0  0
 24 30  2  0  0  0  0
 25 26  2  0  0  0  0
 25 61  1  0  0  0  0
 26 27  1  0  0  0  0
 26 62  1  0  0  0  0
 27 28  2  0  0  0  0
 27 63  1  0  0  0  0
 28 29  1  0  0  0  0
 28 30  1  0  0  0  0
 30 64  1  0  0  0  0
 31 32  1  0  0  0  0
 31 65  1  0  0  0  0
 33 34  1  0  0  0  0
 34 35  2  0  0  0  0
 34 66  1  0  0  0  0
 35 36  1  0  0  0  0
 36 37  1  0  0  0  0
 37 67  1  0  0  0  0
M  END
$$$$
