CHEMBL196939
 OpenBabel04072215363D

 45 48  0  0  0  0  0  0  0  0999 V2000
    1.2035    1.1613   -1.3972 C   0  0  0  0  0  0  0  0  0  0  0  0
    2.6272    0.9472   -1.4347 N   0  0  0  0  0  0  0  0  0  0  0  0
    3.1667   -0.3059   -1.2522 C   0  0  0  0  0  0  0  0  0  0  0  0
    2.4830   -1.3161   -1.0573 O   0  0  0  0  0  0  0  0  0  0  0  0
    4.6509   -0.4021   -1.2690 C   0  0  0  0  0  0  0  0  0  0  0  0
    5.2804   -1.4127   -0.5461 C   0  0  0  0  0  0  0  0  0  0  0  0
    6.6779   -1.5292   -0.5695 C   0  0  0  0  0  0  0  0  0  0  0  0
    7.5121   -0.5750   -1.1953 C   0  0  0  0  0  0  0  0  0  0  0  0
    9.0101   -0.5868   -1.0478 C   0  0  0  0  0  0  0  0  0  0  0  0
    9.6902   -0.0979   -2.1045 N   0  0  0  0  0  0  0  0  0  0  0  0
   11.0821   -0.1148   -2.1336 N   0  0  0  0  0  0  0  0  0  0  0  0
   11.8030   -0.6797   -1.1427 C   0  0  0  0  0  0  0  0  0  0  0  0
   13.2311   -0.7387   -1.2352 N   0  0  0  0  0  0  0  0  0  0  0  0
   14.0549    0.1785   -1.9350 C   0  0  0  0  0  0  0  0  0  0  0  0
   13.7218    1.5314   -2.0872 C   0  0  0  0  0  0  0  0  0  0  0  0
   14.5808    2.4081   -2.7578 C   0  0  0  0  0  0  0  0  0  0  0  0
   15.7947    1.9428   -3.2550 C   0  0  0  0  0  0  0  0  0  0  0  0
   16.8171    3.0005   -4.1465 Cl  0  0  0  0  0  0  0  0  0  0  0  0
   16.1809    0.6229   -3.0394 C   0  0  0  0  0  0  0  0  0  0  0  0
   15.3208   -0.2493   -2.3638 C   0  0  0  0  0  0  0  0  0  0  0  0
   11.1398   -1.2689   -0.0437 C   0  0  0  0  0  0  0  0  0  0  0  0
   11.8105   -2.0055    0.9736 C   0  0  0  0  0  0  0  0  0  0  0  0
   11.1436   -2.5169    2.0838 C   0  0  0  0  0  0  0  0  0  0  0  0
    9.8094   -2.2071    2.2684 C   0  0  0  0  0  0  0  0  0  0  0  0
    9.1384   -1.4671    1.2991 C   0  0  0  0  0  0  0  0  0  0  0  0
    9.7298   -1.1030    0.0645 C   0  0  0  0  0  0  0  0  0  0  0  0
    6.8437    0.3710   -1.9980 C   0  0  0  0  0  0  0  0  0  0  0  0
    5.4376    0.4510   -2.0471 C   0  0  0  0  0  0  0  0  0  0  0  0
    0.9961    2.2051   -1.6457 H   0  0  0  0  0  0  0  0  0  0  0  0
    0.8257    0.9346   -0.3963 H   0  0  0  0  0  0  0  0  0  0  0  0
    0.7250    0.5011   -2.1243 H   0  0  0  0  0  0  0  0  0  0  0  0
    3.2291    1.7514   -1.5641 H   0  0  0  0  0  0  0  0  0  0  0  0
    4.6892   -2.1220    0.0330 H   0  0  0  0  0  0  0  0  0  0  0  0
    7.1070   -2.4059   -0.0832 H   0  0  0  0  0  0  0  0  0  0  0  0
   13.6301   -0.8265   -0.3078 H   0  0  0  0  0  0  0  0  0  0  0  0
   12.7849    1.9181   -1.6945 H   0  0  0  0  0  0  0  0  0  0  0  0
   14.2871    3.4447   -2.8972 H   0  0  0  0  0  0  0  0  0  0  0  0
   17.1375    0.2616   -3.4062 H   0  0  0  0  0  0  0  0  0  0  0  0
   15.6300   -1.2789   -2.2035 H   0  0  0  0  0  0  0  0  0  0  0  0
   12.8733   -2.2258    0.9028 H   0  0  0  0  0  0  0  0  0  0  0  0
   11.6740   -3.1211    2.8158 H   0  0  0  0  0  0  0  0  0  0  0  0
    9.2840   -2.5490    3.1562 H   0  0  0  0  0  0  0  0  0  0  0  0
    8.1159   -1.1619    1.5334 H   0  0  0  0  0  0  0  0  0  0  0  0
    7.4153    1.0606   -2.6214 H   0  0  0  0  0  0  0  0  0  0  0  0
    4.9731    1.1625   -2.7202 H   0  0  0  0  0  0  0  0  0  0  0  0
  1  2  1  0  0  0  0
  1 29  1  0  0  0  0
  1 30  1  0  0  0  0
  1 31  1  0  0  0  0
  2  3  1  0  0  0  0
  2 32  1  0  0  0  0
  3  4  2  0  0  0  0
  3  5  1  0  0  0  0
  5  6  1  0  0  0  0
  5 28  2  0  0  0  0
  6  7  2  0  0  0  0
  6 33  1  0  0  0  0
  7  8  1  0  0  0  0
  7 34  1  0  0  0  0
  8  9  1  0  0  0  0
  8 27  2  0  0  0  0
  9 10  1  0  0  0  0
  9 26  2  0  0  0  0
 10 11  2  0  0  0  0
 11 12  1  0  0  0  0
 12 13  1  0  0  0  0
 12 21  2  0  0  0  0
 13 14  1  0  0  0  0
 13 35  1  0  0  0  0
 14 15  1  0  0  0  0
 14 20  2  0  0  0  0
 15 16  2  0  0  0  0
 15 36  1  0  0  0  0
 16 17  1  0  0  0  0
 16 37  1  0  0  0  0
 17 18  1  0  0  0  0
 17 19  2  0  0  0  0
 19 20  1  0  0  0  0
 19 38  1  0  0  0  0
 20 39  1  0  0  0  0
 21 22  1  0  0  0  0
 21 26  1  0  0  0  0
 22 23  2  0  0  0  0
 22 40  1  0  0  0  0
 23 24  1  0  0  0  0
 23 41  1  0  0  0  0
 24 25  2  0  0  0  0
 24 42  1  0  0  0  0
 25 26  1  0  0  0  0
 25 43  1  0  0  0  0
 27 28  1  0  0  0  0
 27 44  1  0  0  0  0
 28 45  1  0  0  0  0
M  END
$$$$
