CHEMBL409734
 OpenBabel04072215383D

 74 78  0  0  0  0  0  0  0  0999 V2000
    0.2347   -1.6821   -0.9745 C   0  0  0  0  0  0  0  0  0  0  0  0
    1.5856   -2.0575   -0.7113 O   0  0  0  0  0  0  0  0  0  0  0  0
    2.4617   -2.0163   -1.7682 C   0  0  0  0  0  0  0  0  0  0  0  0
    2.0617   -1.7755   -3.0935 C   0  0  0  0  0  0  0  0  0  0  0  0
    2.9881   -1.7360   -4.1389 C   0  0  0  0  0  0  0  0  0  0  0  0
    4.3363   -1.9376   -3.8768 C   0  0  0  0  0  0  0  0  0  0  0  0
    4.7504   -2.1848   -2.5696 C   0  0  0  0  0  0  0  0  0  0  0  0
    3.8294   -2.2368   -1.5011 C   0  0  0  0  0  0  0  0  0  0  0  0
    4.4228   -2.5251   -0.1494 C   0  0  0  0  0  0  0  0  0  0  0  0
    5.6514   -2.5847   -0.0770 O   0  0  0  0  0  0  0  0  0  0  0  0
    3.5622   -2.7510    0.9124 N   0  0  0  0  0  0  0  0  0  0  0  0
    3.9427   -3.0587    2.2398 C   0  0  0  0  0  0  0  0  0  0  0  0
    5.2430   -2.9125    2.7135 C   0  0  0  0  0  0  0  0  0  0  0  0
    5.5880   -3.2931    4.0119 C   0  0  0  0  0  0  0  0  0  0  0  0
    4.6408   -3.8399    4.8867 C   0  0  0  0  0  0  0  0  0  0  0  0
    5.1378   -4.3112    6.2249 C   0  0  0  0  0  0  0  0  0  0  0  0
    3.3060   -3.9289    4.4446 C   0  0  0  0  0  0  0  0  0  0  0  0
    2.1791   -4.4627    5.2727 C   0  0  0  0  0  0  0  0  0  0  0  0
    1.3290   -5.1542    4.7220 O   0  0  0  0  0  0  0  0  0  0  0  0
    2.1663   -4.0809    6.6002 N   0  0  0  0  0  0  0  0  0  0  0  0
    1.1834   -4.4157    7.5554 C   0  0  0  0  0  0  0  0  0  0  0  0
    0.0304   -5.1225    7.3139 C   0  0  0  0  0  0  0  0  0  0  0  0
   -0.8988   -5.3721    8.2599 N   0  0  0  0  0  0  0  0  0  0  0  0
   -0.6851   -4.9063    9.5027 C   0  0  0  0  0  0  0  0  0  0  0  0
   -1.6542   -5.1108   10.4847 N   0  0  0  0  0  0  0  0  0  0  0  0
   -2.5348   -6.1992   10.5701 C   0  0  0  0  0  0  0  0  0  0  0  0
   -2.2175   -7.4438   10.0262 C   0  0  0  0  0  0  0  0  0  0  0  0
   -3.1354   -8.4914   10.0506 C   0  0  0  0  0  0  0  0  0  0  0  0
   -4.4093   -8.3440   10.6107 C   0  0  0  0  0  0  0  0  0  0  0  0
   -5.2762   -9.4204   10.5997 N   0  0  0  0  0  0  0  0  0  0  0  0
   -6.3922   -9.5351   11.5440 C   0  0  0  0  0  0  0  0  0  0  0  0
   -6.6907  -11.0386   11.7742 C   0  0  0  0  0  0  0  0  0  0  0  0
   -6.9753  -11.7751   10.5180 N   0  0  0  0  0  0  0  0  0  0  0  0
   -7.1659  -13.1974   10.7912 C   0  0  0  0  0  0  0  0  0  0  0  0
   -5.8524  -11.5812    9.5693 C   0  0  0  0  0  0  0  0  0  0  0  0
   -5.5419  -10.0901    9.3108 C   0  0  0  0  0  0  0  0  0  0  0  0
   -4.7035   -7.1092   11.2008 C   0  0  0  0  0  0  0  0  0  0  0  0
   -3.7773   -6.0522   11.1894 C   0  0  0  0  0  0  0  0  0  0  0  0
    0.4118   -4.2181    9.8485 N   0  0  0  0  0  0  0  0  0  0  0  0
    1.3204   -4.0017    8.8684 C   0  0  0  0  0  0  0  0  0  0  0  0
    2.9698   -3.5450    3.1230 C   0  0  0  0  0  0  0  0  0  0  0  0
   -0.3044   -1.6807   -0.0226 H   0  0  0  0  0  0  0  0  0  0  0  0
   -0.2513   -2.4115   -1.6312 H   0  0  0  0  0  0  0  0  0  0  0  0
    0.1750   -0.6703   -1.3906 H   0  0  0  0  0  0  0  0  0  0  0  0
    1.0192   -1.6163   -3.3579 H   0  0  0  0  0  0  0  0  0  0  0  0
    2.6568   -1.5510   -5.1558 H   0  0  0  0  0  0  0  0  0  0  0  0
    5.0669   -1.9056   -4.6809 H   0  0  0  0  0  0  0  0  0  0  0  0
    5.8129   -2.3425   -2.3865 H   0  0  0  0  0  0  0  0  0  0  0  0
    2.5717   -2.7762    0.6885 H   0  0  0  0  0  0  0  0  0  0  0  0
    6.0318   -2.5013    2.0921 H   0  0  0  0  0  0  0  0  0  0  0  0
    6.6287   -3.1815    4.3175 H   0  0  0  0  0  0  0  0  0  0  0  0
    6.2233   -4.4655    6.2093 H   0  0  0  0  0  0  0  0  0  0  0  0
    4.6913   -5.2718    6.4969 H   0  0  0  0  0  0  0  0  0  0  0  0
    4.9327   -3.5643    6.9975 H   0  0  0  0  0  0  0  0  0  0  0  0
    2.8909   -3.4510    6.9124 H   0  0  0  0  0  0  0  0  0  0  0  0
   -0.2317   -5.5168    6.3388 H   0  0  0  0  0  0  0  0  0  0  0  0
   -1.3590   -4.7187   11.3665 H   0  0  0  0  0  0  0  0  0  0  0  0
   -1.2469   -7.6214    9.5714 H   0  0  0  0  0  0  0  0  0  0  0  0
   -2.8272   -9.4479    9.6379 H   0  0  0  0  0  0  0  0  0  0  0  0
   -7.2806   -9.0250   11.1508 H   0  0  0  0  0  0  0  0  0  0  0  0
   -6.1417   -9.0892   12.5134 H   0  0  0  0  0  0  0  0  0  0  0  0
   -7.5477  -11.1225   12.4519 H   0  0  0  0  0  0  0  0  0  0  0  0
   -5.8243  -11.4873   12.2807 H   0  0  0  0  0  0  0  0  0  0  0  0
   -8.0129  -13.3460   11.4693 H   0  0  0  0  0  0  0  0  0  0  0  0
   -6.2788  -13.6585   11.2408 H   0  0  0  0  0  0  0  0  0  0  0  0
   -7.4016  -13.7358    9.8666 H   0  0  0  0  0  0  0  0  0  0  0  0
   -6.0945  -12.0563    8.6114 H   0  0  0  0  0  0  0  0  0  0  0  0
   -4.9430  -12.0630    9.9553 H   0  0  0  0  0  0  0  0  0  0  0  0
   -6.3956   -9.6087    8.8156 H   0  0  0  0  0  0  0  0  0  0  0  0
   -4.6985  -10.0306    8.6143 H   0  0  0  0  0  0  0  0  0  0  0  0
   -5.6771   -6.9293   11.6469 H   0  0  0  0  0  0  0  0  0  0  0  0
   -4.0603   -5.0966   11.6227 H   0  0  0  0  0  0  0  0  0  0  0  0
    2.2019   -3.4609    9.1998 H   0  0  0  0  0  0  0  0  0  0  0  0
    1.9412   -3.6626    2.7842 H   0  0  0  0  0  0  0  0  0  0  0  0
  1  2  1  0  0  0  0
  1 42  1  0  0  0  0
  1 43  1  0  0  0  0
  1 44  1  0  0  0  0
  2  3  1  0  0  0  0
  3  4  1  0  0  0  0
  3  8  2  0  0  0  0
  4  5  2  0  0  0  0
  4 45  1  0  0  0  0
  5  6  1  0  0  0  0
  5 46  1  0  0  0  0
  6  7  2  0  0  0  0
  6 47  1  0  0  0  0
  7  8  1  0  0  0  0
  7 48  1  0  0  0  0
  8  9  1  0  0  0  0
  9 10  2  0  0  0  0
  9 11  1  0  0  0  0
 11 12  1  0  0  0  0
 11 49  1  0  0  0  0
 12 13  1  0  0  0  0
 12 41  2  0  0  0  0
 13 14  2  0  0  0  0
 13 50  1  0  0  0  0
 14 15  1  0  0  0  0
 14 51  1  0  0  0  0
 15 16  1  0  0  0  0
 15 17  2  0  0  0  0
 16 52  1  0  0  0  0
 16 53  1  0  0  0  0
 16 54  1  0  0  0  0
 17 18  1  0  0  0  0
 17 41  1  0  0  0  0
 18 19  2  0  0  0  0
 18 20  1  0  0  0  0
 20 21  1  0  0  0  0
 20 55  1  0  0  0  0
 21 22  1  0  0  0  0
 21 40  2  0  0  0  0
 22 23  2  0  0  0  0
 22 56  1  0  0  0  0
 23 24  1  0  0  0  0
 24 25  1  0  0  0  0
 24 39  2  0  0  0  0
 25 26  1  0  0  0  0
 25 57  1  0  0  0  0
 26 27  1  0  0  0  0
 26 38  2  0  0  0  0
 27 28  2  0  0  0  0
 27 58  1  0  0  0  0
 28 29  1  0  0  0  0
 28 59  1  0  0  0  0
 29 30  1  0  0  0  0
 29 37  2  0  0  0  0
 30 31  1  0  0  0  0
 30 36  1  0  0  0  0
 31 32  1  0  0  0  0
 31 60  1  0  0  0  0
 31 61  1  0  0  0  0
 32 33  1  0  0  0  0
 32 62  1  0  0  0  0
 32 63  1  0  0  0  0
 33 34  1  0  0  0  0
 33 35  1  0  0  0  0
 34 64  1  0  0  0  0
 34 65  1  0  0  0  0
 34 66  1  0  0  0  0
 35 36  1  0  0  0  0
 35 67  1  0  0  0  0
 35 68  1  0  0  0  0
 36 69  1  0  0  0  0
 36 70  1  0  0  0  0
 37 38  1  0  0  0  0
 37 71  1  0  0  0  0
 38 72  1  0  0  0  0
 39 40  1  0  0  0  0
 40 73  1  0  0  0  0
 41 74  1  0  0  0  0
M  END
$$$$
