CHEMBL191389
 OpenBabel04072215363D

 72 75  0  0  0  0  0  0  0  0999 V2000
    0.8157   -6.3682    1.4947 C   0  0  0  0  0  0  0  0  0  0  0  0
    0.8976   -4.9252    1.3031 N   0  0  0  0  0  0  0  0  0  0  0  0
   -0.3872   -4.3698    0.8476 C   0  0  0  0  0  0  0  0  0  0  0  0
   -0.2799   -2.8437    0.6340 C   0  0  0  0  0  0  0  0  0  0  0  0
    0.1215   -2.0778    1.8350 N   0  0  0  0  0  0  0  0  0  0  0  0
   -0.9190   -2.0424    2.8796 C   0  0  0  0  0  0  0  0  0  0  0  0
   -2.2368   -1.3871    2.4213 C   0  0  0  0  0  0  0  0  0  0  0  0
   -3.2680   -1.3781    3.5483 C   0  0  0  0  0  0  0  0  0  0  0  0
   -3.5282   -2.7610    3.9458 N   0  0  0  0  0  0  0  0  0  0  0  0
   -3.9411   -2.9358    5.2571 C   0  0  0  0  0  0  0  0  0  0  0  0
   -3.7031   -4.1665    5.8769 C   0  0  0  0  0  0  0  0  0  0  0  0
   -3.8600   -4.2884    7.2485 C   0  0  0  0  0  0  0  0  0  0  0  0
   -3.5584   -5.4311    7.9010 N   0  0  0  0  0  0  0  0  0  0  0  0
   -3.5302   -5.4324    9.2682 C   0  0  0  0  0  0  0  0  0  0  0  0
   -3.0456   -6.6013    9.8657 N   0  0  0  0  0  0  0  0  0  0  0  0
   -3.2476   -7.9047    9.5286 C   0  0  0  0  0  0  0  0  0  0  0  0
   -2.6342   -8.7789   10.1427 O   0  0  0  0  0  0  0  0  0  0  0  0
   -4.2379   -8.1347    8.6300 N   0  0  0  0  0  0  0  0  0  0  0  0
   -4.7326   -9.4596    8.2527 C   0  0  0  0  0  0  0  0  0  0  0  0
   -5.3653  -10.1688    9.4653 C   0  0  0  0  0  0  0  0  0  0  0  0
   -5.8131   -9.2757    7.1743 C   0  0  0  0  0  0  0  0  0  0  0  0
   -3.6000  -10.3291    7.6715 C   0  0  0  0  0  0  0  0  0  0  0  0
   -3.8648   -4.3137   10.0652 C   0  0  0  0  0  0  0  0  0  0  0  0
   -3.9566   -4.2529   11.5698 C   0  0  0  0  0  0  0  0  0  0  0  0
   -2.9410   -4.7131   12.4447 C   0  0  0  0  0  0  0  0  0  0  0  0
   -1.3970   -5.2987   11.9107 Cl  0  0  0  0  0  0  0  0  0  0  0  0
   -3.0628   -4.6303   13.8440 C   0  0  0  0  0  0  0  0  0  0  0  0
   -4.1380   -3.9783   14.4283 C   0  0  0  0  0  0  0  0  0  0  0  0
   -5.1267   -3.4574   13.6151 C   0  0  0  0  0  0  0  0  0  0  0  0
   -5.0718   -3.6385   12.2232 C   0  0  0  0  0  0  0  0  0  0  0  0
   -6.4967   -3.0623   11.3984 Cl  0  0  0  0  0  0  0  0  0  0  0  0
   -4.2359   -3.1724    9.3367 C   0  0  0  0  0  0  0  0  0  0  0  0
   -4.2675   -3.1553    7.9433 C   0  0  0  0  0  0  0  0  0  0  0  0
   -4.6521   -2.0258    7.2373 C   0  0  0  0  0  0  0  0  0  0  0  0
   -4.4825   -1.9034    5.9149 N   0  0  0  0  0  0  0  0  0  0  0  0
    1.3651   -2.6921    2.3666 C   0  0  0  0  0  0  0  0  0  0  0  0
    1.3313   -4.2366    2.5332 C   0  0  0  0  0  0  0  0  0  0  0  0
    0.5215   -6.8612    0.5611 H   0  0  0  0  0  0  0  0  0  0  0  0
    0.0968   -6.6478    2.2726 H   0  0  0  0  0  0  0  0  0  0  0  0
    1.7967   -6.7734    1.7660 H   0  0  0  0  0  0  0  0  0  0  0  0
   -1.1902   -4.5971    1.5613 H   0  0  0  0  0  0  0  0  0  0  0  0
   -0.6689   -4.8286   -0.1074 H   0  0  0  0  0  0  0  0  0  0  0  0
   -1.2126   -2.4617    0.2103 H   0  0  0  0  0  0  0  0  0  0  0  0
    0.4697   -2.6536   -0.1473 H   0  0  0  0  0  0  0  0  0  0  0  0
   -0.5380   -1.4578    3.7258 H   0  0  0  0  0  0  0  0  0  0  0  0
   -1.1150   -3.0486    3.2629 H   0  0  0  0  0  0  0  0  0  0  0  0
   -2.6733   -1.9285    1.5758 H   0  0  0  0  0  0  0  0  0  0  0  0
   -2.0446   -0.3587    2.0932 H   0  0  0  0  0  0  0  0  0  0  0  0
   -4.1941   -0.8964    3.2120 H   0  0  0  0  0  0  0  0  0  0  0  0
   -2.8574   -0.7822    4.3761 H   0  0  0  0  0  0  0  0  0  0  0  0
   -4.0984   -3.2922    3.2938 H   0  0  0  0  0  0  0  0  0  0  0  0
   -3.2683   -4.9766    5.3082 H   0  0  0  0  0  0  0  0  0  0  0  0
   -2.3819   -6.4904   10.6176 H   0  0  0  0  0  0  0  0  0  0  0  0
   -4.4133   -7.3549    8.0095 H   0  0  0  0  0  0  0  0  0  0  0  0
   -6.1199   -9.5261    9.9426 H   0  0  0  0  0  0  0  0  0  0  0  0
   -4.6278  -10.4228   10.2241 H   0  0  0  0  0  0  0  0  0  0  0  0
   -5.8603  -11.0996    9.1613 H   0  0  0  0  0  0  0  0  0  0  0  0
   -6.6724   -8.7205    7.5650 H   0  0  0  0  0  0  0  0  0  0  0  0
   -6.1764  -10.2412    6.8032 H   0  0  0  0  0  0  0  0  0  0  0  0
   -5.4244   -8.7123    6.3188 H   0  0  0  0  0  0  0  0  0  0  0  0
   -2.8299  -10.5459    8.4166 H   0  0  0  0  0  0  0  0  0  0  0  0
   -3.1113   -9.8217    6.8362 H   0  0  0  0  0  0  0  0  0  0  0  0
   -3.9822  -11.2872    7.3125 H   0  0  0  0  0  0  0  0  0  0  0  0
   -2.2860   -5.0414   14.4870 H   0  0  0  0  0  0  0  0  0  0  0  0
   -4.1954   -3.8663   15.5080 H   0  0  0  0  0  0  0  0  0  0  0  0
   -5.9551   -2.9159   14.0683 H   0  0  0  0  0  0  0  0  0  0  0  0
   -4.4921   -2.2503    9.8547 H   0  0  0  0  0  0  0  0  0  0  0  0
   -5.0788   -1.1577    7.7319 H   0  0  0  0  0  0  0  0  0  0  0  0
    1.6408   -2.2279    3.3221 H   0  0  0  0  0  0  0  0  0  0  0  0
    2.1801   -2.4398    1.6743 H   0  0  0  0  0  0  0  0  0  0  0  0
    0.6749   -4.4989    3.3731 H   0  0  0  0  0  0  0  0  0  0  0  0
    2.3412   -4.5725    2.7980 H   0  0  0  0  0  0  0  0  0  0  0  0
  1  2  1  0  0  0  0
  1 38  1  0  0  0  0
  1 39  1  0  0  0  0
  1 40  1  0  0  0  0
  2  3  1  0  0  0  0
  2 37  1  0  0  0  0
  3  4  1  0  0  0  0
  3 41  1  0  0  0  0
  3 42  1  0  0  0  0
  4  5  1  0  0  0  0
  4 43  1  0  0  0  0
  4 44  1  0  0  0  0
  5  6  1  0  0  0  0
  5 36  1  0  0  0  0
  6  7  1  0  0  0  0
  6 45  1  0  0  0  0
  6 46  1  0  0  0  0
  7  8  1  0  0  0  0
  7 47  1  0  0  0  0
  7 48  1  0  0  0  0
  8  9  1  0  0  0  0
  8 49  1  0  0  0  0
  8 50  1  0  0  0  0
  9 10  1  0  0  0  0
  9 51  1  0  0  0  0
 10 11  1  0  0  0  0
 10 35  2  0  0  0  0
 11 12  2  0  0  0  0
 11 52  1  0  0  0  0
 12 13  1  0  0  0  0
 12 33  1  0  0  0  0
 13 14  2  0  0  0  0
 14 15  1  0  0  0  0
 14 23  1  0  0  0  0
 15 16  1  0  0  0  0
 15 53  1  0  0  0  0
 16 17  2  0  0  0  0
 16 18  1  0  0  0  0
 18 19  1  0  0  0  0
 18 54  1  0  0  0  0
 19 20  1  0  0  0  0
 19 21  1  0  0  0  0
 19 22  1  0  0  0  0
 20 55  1  0  0  0  0
 20 56  1  0  0  0  0
 20 57  1  0  0  0  0
 21 58  1  0  0  0  0
 21 59  1  0  0  0  0
 21 60  1  0  0  0  0
 22 61  1  0  0  0  0
 22 62  1  0  0  0  0
 22 63  1  0  0  0  0
 23 24  1  0  0  0  0
 23 32  2  0  0  0  0
 24 25  1  0  0  0  0
 24 30  2  0  0  0  0
 25 26  1  0  0  0  0
 25 27  2  0  0  0  0
 27 28  1  0  0  0  0
 27 64  1  0  0  0  0
 28 29  2  0  0  0  0
 28 65  1  0  0  0  0
 29 30  1  0  0  0  0
 29 66  1  0  0  0  0
 30 31  1  0  0  0  0
 32 33  1  0  0  0  0
 32 67  1  0  0  0  0
 33 34  2  0  0  0  0
 34 35  1  0  0  0  0
 34 68  1  0  0  0  0
 36 37  1  0  0  0  0
 36 69  1  0  0  0  0
 36 70  1  0  0  0  0
 37 71  1  0  0  0  0
 37 72  1  0  0  0  0
M  END
$$$$
