CHEMBL3931421
 OpenBabel04072215373D

 64 68  0  0  0  0  0  0  0  0999 V2000
    2.0250    5.8917   -0.2768 C   0  0  0  0  0  0  0  0  0  0  0  0
    1.8234    4.6221    0.3252 O   0  0  0  0  0  0  0  0  0  0  0  0
    2.8909    3.7684    0.3922 C   0  0  0  0  0  0  0  0  0  0  0  0
    2.5556    2.5011    0.8677 C   0  0  0  0  0  0  0  0  0  0  0  0
    3.5248    1.5079    0.9628 C   0  0  0  0  0  0  0  0  0  0  0  0
    3.2805    0.2412    1.4271 O   0  0  0  0  0  0  0  0  0  0  0  0
    2.2757    0.1628    2.4382 C   0  0  0  0  0  0  0  0  0  0  0  0
    4.8238    1.7594    0.5022 C   0  0  0  0  0  0  0  0  0  0  0  0
    5.1917    3.0186    0.0011 C   0  0  0  0  0  0  0  0  0  0  0  0
    6.4237    3.2720   -0.6494 N   0  0  0  0  0  0  0  0  0  0  0  0
    6.9869    2.1666   -1.5160 C   0  0  0  0  0  0  0  0  0  0  0  0
    6.0858    1.4727   -2.5524 C   0  0  0  0  0  0  0  0  0  0  0  0
    5.6730    2.2533   -3.8205 C   0  0  0  0  0  0  0  0  0  0  0  0
    5.1333    1.3514   -4.8744 N   0  0  0  0  0  0  0  0  0  0  0  0
    4.7113    2.0692   -6.0927 C   0  0  0  0  0  0  0  0  0  0  0  0
    3.2853    2.5087   -5.8116 C   0  0  0  0  0  0  0  0  0  0  0  0
    2.7163    1.3642   -4.9925 C   0  0  0  0  0  0  0  0  0  0  0  0
    3.9311    0.5957   -4.4839 C   0  0  0  0  0  0  0  0  0  0  0  0
    7.5600    3.9995   -0.1213 C   0  0  0  0  0  0  0  0  0  0  0  0
    8.3230    4.6490   -1.0921 C   0  0  0  0  0  0  0  0  0  0  0  0
    9.6727    4.8241   -0.8890 C   0  0  0  0  0  0  0  0  0  0  0  0
   10.2583    4.5504    0.3198 C   0  0  0  0  0  0  0  0  0  0  0  0
   11.5964    4.5773    0.3122 N   0  0  0  0  0  0  0  0  0  0  0  0
   12.2036    4.5245    1.5043 C   0  0  0  0  0  0  0  0  0  0  0  0
   11.4940    4.5500    2.6875 C   0  0  0  0  0  0  0  0  0  0  0  0
   12.2353    5.0078    3.8605 C   0  0  0  0  0  0  0  0  0  0  0  0
   12.2762    6.3111    4.4237 C   0  0  0  0  0  0  0  0  0  0  0  0
   13.2842    6.4795    5.2873 N   0  0  0  0  0  0  0  0  0  0  0  0
   13.9235    5.3013    5.2623 N   0  0  0  0  0  0  0  0  0  0  0  0
   13.3932    4.4256    4.3510 C   0  0  0  0  0  0  0  0  0  0  0  0
   10.1260    4.3802    2.6993 N   0  0  0  0  0  0  0  0  0  0  0  0
    9.4768    4.2924    1.4650 C   0  0  0  0  0  0  0  0  0  0  0  0
    8.1059    3.9392    1.1938 C   0  0  0  0  0  0  0  0  0  0  0  0
    4.2121    4.0353    0.0065 C   0  0  0  0  0  0  0  0  0  0  0  0
    1.0387    6.3273   -0.4680 H   0  0  0  0  0  0  0  0  0  0  0  0
    2.5394    5.8183   -1.2395 H   0  0  0  0  0  0  0  0  0  0  0  0
    2.5584    6.5523    0.4131 H   0  0  0  0  0  0  0  0  0  0  0  0
    1.5194    2.3091    1.1304 H   0  0  0  0  0  0  0  0  0  0  0  0
    2.3127   -0.8404    2.8732 H   0  0  0  0  0  0  0  0  0  0  0  0
    1.2740    0.3009    2.0179 H   0  0  0  0  0  0  0  0  0  0  0  0
    2.4647    0.8836    3.2420 H   0  0  0  0  0  0  0  0  0  0  0  0
    5.5405    0.9438    0.5237 H   0  0  0  0  0  0  0  0  0  0  0  0
    7.3940    1.3953   -0.8494 H   0  0  0  0  0  0  0  0  0  0  0  0
    7.8465    2.5254   -2.0977 H   0  0  0  0  0  0  0  0  0  0  0  0
    5.2059    1.0681   -2.0559 H   0  0  0  0  0  0  0  0  0  0  0  0
    6.6698    0.6075   -2.9020 H   0  0  0  0  0  0  0  0  0  0  0  0
    6.5684    2.7328   -4.2401 H   0  0  0  0  0  0  0  0  0  0  0  0
    4.9662    3.0491   -3.5662 H   0  0  0  0  0  0  0  0  0  0  0  0
    4.7081    1.3632   -6.9355 H   0  0  0  0  0  0  0  0  0  0  0  0
    5.3673    2.8978   -6.3765 H   0  0  0  0  0  0  0  0  0  0  0  0
    2.7058    2.6874   -6.7226 H   0  0  0  0  0  0  0  0  0  0  0  0
    3.2764    3.4313   -5.2206 H   0  0  0  0  0  0  0  0  0  0  0  0
    2.0911    0.7146   -5.6163 H   0  0  0  0  0  0  0  0  0  0  0  0
    2.0992    1.7409   -4.1710 H   0  0  0  0  0  0  0  0  0  0  0  0
    3.9683   -0.3786   -4.9858 H   0  0  0  0  0  0  0  0  0  0  0  0
    3.8441    0.3752   -3.4187 H   0  0  0  0  0  0  0  0  0  0  0  0
    7.9072    4.8377   -2.0797 H   0  0  0  0  0  0  0  0  0  0  0  0
   10.2943    5.1399   -1.7171 H   0  0  0  0  0  0  0  0  0  0  0  0
   13.2878    4.5596    1.4732 H   0  0  0  0  0  0  0  0  0  0  0  0
   11.6519    7.1654    4.1933 H   0  0  0  0  0  0  0  0  0  0  0  0
   14.7496    5.1905    5.8373 H   0  0  0  0  0  0  0  0  0  0  0  0
   13.9038    3.5002    4.1206 H   0  0  0  0  0  0  0  0  0  0  0  0
    7.5047    3.5580    2.0043 H   0  0  0  0  0  0  0  0  0  0  0  0
    4.4910    5.0150   -0.3683 H   0  0  0  0  0  0  0  0  0  0  0  0
  1  2  1  0  0  0  0
  1 35  1  0  0  0  0
  1 36  1  0  0  0  0
  1 37  1  0  0  0  0
  2  3  1  0  0  0  0
  3  4  1  0  0  0  0
  3 34  2  0  0  0  0
  4  5  2  0  0  0  0
  4 38  1  0  0  0  0
  5  6  1  0  0  0  0
  5  8  1  0  0  0  0
  6  7  1  0  0  0  0
  7 39  1  0  0  0  0
  7 40  1  0  0  0  0
  7 41  1  0  0  0  0
  8  9  2  0  0  0  0
  8 42  1  0  0  0  0
  9 10  1  0  0  0  0
  9 34  1  0  0  0  0
 10 11  1  0  0  0  0
 10 19  1  0  0  0  0
 11 12  1  0  0  0  0
 11 43  1  0  0  0  0
 11 44  1  0  0  0  0
 12 13  1  0  0  0  0
 12 45  1  0  0  0  0
 12 46  1  0  0  0  0
 13 14  1  0  0  0  0
 13 47  1  0  0  0  0
 13 48  1  0  0  0  0
 14 15  1  0  0  0  0
 14 18  1  0  0  0  0
 15 16  1  0  0  0  0
 15 49  1  0  0  0  0
 15 50  1  0  0  0  0
 16 17  1  0  0  0  0
 16 51  1  0  0  0  0
 16 52  1  0  0  0  0
 17 18  1  0  0  0  0
 17 53  1  0  0  0  0
 17 54  1  0  0  0  0
 18 55  1  0  0  0  0
 18 56  1  0  0  0  0
 19 20  1  0  0  0  0
 19 33  2  0  0  0  0
 20 21  2  0  0  0  0
 20 57  1  0  0  0  0
 21 22  1  0  0  0  0
 21 58  1  0  0  0  0
 22 23  1  0  0  0  0
 22 32  2  0  0  0  0
 23 24  2  0  0  0  0
 24 25  1  0  0  0  0
 24 59  1  0  0  0  0
 25 26  1  0  0  0  0
 25 31  2  0  0  0  0
 26 27  1  0  0  0  0
 26 30  2  0  0  0  0
 27 28  2  0  0  0  0
 27 60  1  0  0  0  0
 28 29  1  0  0  0  0
 29 30  1  0  0  0  0
 29 61  1  0  0  0  0
 30 62  1  0  0  0  0
 31 32  1  0  0  0  0
 32 33  1  0  0  0  0
 33 63  1  0  0  0  0
 34 64  1  0  0  0  0
M  END
$$$$
