CHEMBL4283690
 OpenBabel04072215383D

 55 58  0  0  0  0  0  0  0  0999 V2000
    1.1870    0.2385    0.6664 O   0  0  0  0  0  0  0  0  0  0  0  0
    2.1593   -0.1277    0.0089 C   0  0  0  0  0  0  0  0  0  0  0  0
    2.7062   -1.3871    0.1147 N   0  0  0  0  0  0  0  0  0  0  0  0
    2.1641   -2.3629    1.0503 C   0  0  0  0  0  0  0  0  0  0  0  0
    2.7673   -2.1983    2.4527 C   0  0  0  0  0  0  0  0  0  0  0  0
    2.2209   -3.2435    3.4255 C   0  0  0  0  0  0  0  0  0  0  0  0
    2.4065   -4.6609    2.8921 C   0  0  0  0  0  0  0  0  0  0  0  0
    1.7943   -4.8195    1.5037 C   0  0  0  0  0  0  0  0  0  0  0  0
    2.3492   -3.7878    0.5243 C   0  0  0  0  0  0  0  0  0  0  0  0
    2.8113    0.8118   -0.9568 C   0  0  0  0  0  0  0  0  0  0  0  0
    2.2864    2.0911   -1.0705 C   0  0  0  0  0  0  0  0  0  0  0  0
    2.9428    3.0082   -1.8812 C   0  0  0  0  0  0  0  0  0  0  0  0
    2.5597    4.3240   -2.0251 O   0  0  0  0  0  0  0  0  0  0  0  0
    1.9735    4.9817   -0.9627 C   0  0  0  0  0  0  0  0  0  0  0  0
    2.3143    4.7673    0.3748 C   0  0  0  0  0  0  0  0  0  0  0  0
    1.6273    5.4345    1.3931 C   0  0  0  0  0  0  0  0  0  0  0  0
    0.6465    6.3865    1.0922 C   0  0  0  0  0  0  0  0  0  0  0  0
   -0.1352    7.0683    2.1376 C   0  0  0  0  0  0  0  0  0  0  0  0
    0.2987    7.2987    3.3886 C   0  0  0  0  0  0  0  0  0  0  0  0
   -0.5024    7.9508    4.4371 C   0  0  0  0  0  0  0  0  0  0  0  0
   -1.8918    7.8313    4.5047 C   0  0  0  0  0  0  0  0  0  0  0  0
   -2.5632    8.4552    5.5443 C   0  0  0  0  0  0  0  0  0  0  0  0
   -1.9539    9.1668    6.5140 N   0  0  0  0  0  0  0  0  0  0  0  0
   -0.6090    9.2506    6.4447 C   0  0  0  0  0  0  0  0  0  0  0  0
    0.1507    8.6636    5.4447 C   0  0  0  0  0  0  0  0  0  0  0  0
    0.3553    6.6419   -0.2555 C   0  0  0  0  0  0  0  0  0  0  0  0
    1.0150    5.9453   -1.2762 C   0  0  0  0  0  0  0  0  0  0  0  0
    4.0267    2.5826   -2.6394 C   0  0  0  0  0  0  0  0  0  0  0  0
    4.4612    1.2712   -2.4927 C   0  0  0  0  0  0  0  0  0  0  0  0
    3.8986    0.3733   -1.6486 N   0  0  0  0  0  0  0  0  0  0  0  0
    3.5741   -1.5611   -0.3871 H   0  0  0  0  0  0  0  0  0  0  0  0
    1.0847   -2.1739    1.1287 H   0  0  0  0  0  0  0  0  0  0  0  0
    2.5522   -1.1963    2.8434 H   0  0  0  0  0  0  0  0  0  0  0  0
    3.8605   -2.2835    2.4024 H   0  0  0  0  0  0  0  0  0  0  0  0
    1.1534   -3.0574    3.5994 H   0  0  0  0  0  0  0  0  0  0  0  0
    2.7218   -3.1457    4.3954 H   0  0  0  0  0  0  0  0  0  0  0  0
    1.9485   -5.3787    3.5820 H   0  0  0  0  0  0  0  0  0  0  0  0
    3.4769   -4.8970    2.8482 H   0  0  0  0  0  0  0  0  0  0  0  0
    0.7043   -4.7098    1.5719 H   0  0  0  0  0  0  0  0  0  0  0  0
    1.9895   -5.8294    1.1261 H   0  0  0  0  0  0  0  0  0  0  0  0
    1.8419   -3.8943   -0.4425 H   0  0  0  0  0  0  0  0  0  0  0  0
    3.4131   -3.9870    0.3434 H   0  0  0  0  0  0  0  0  0  0  0  0
    1.3992    2.3612   -0.5064 H   0  0  0  0  0  0  0  0  0  0  0  0
    3.0882    4.0579    0.6528 H   0  0  0  0  0  0  0  0  0  0  0  0
    1.8610    5.1778    2.4232 H   0  0  0  0  0  0  0  0  0  0  0  0
   -1.1255    7.3948    1.8292 H   0  0  0  0  0  0  0  0  0  0  0  0
    1.3051    7.0160    3.6867 H   0  0  0  0  0  0  0  0  0  0  0  0
   -2.4539    7.2559    3.7779 H   0  0  0  0  0  0  0  0  0  0  0  0
   -3.6448    8.3897    5.6272 H   0  0  0  0  0  0  0  0  0  0  0  0
   -0.1395    9.8197    7.2420 H   0  0  0  0  0  0  0  0  0  0  0  0
    1.2299    8.7715    5.4575 H   0  0  0  0  0  0  0  0  0  0  0  0
   -0.3942    7.3824   -0.5260 H   0  0  0  0  0  0  0  0  0  0  0  0
    0.7666    6.1499   -2.3145 H   0  0  0  0  0  0  0  0  0  0  0  0
    4.5281    3.2590   -3.3256 H   0  0  0  0  0  0  0  0  0  0  0  0
    5.3069    0.9027   -3.0689 H   0  0  0  0  0  0  0  0  0  0  0  0
  1  2  2  0  0  0  0
  2  3  1  0  0  0  0
  2 10  1  0  0  0  0
  3  4  1  0  0  0  0
  3 31  1  0  0  0  0
  4  5  1  0  0  0  0
  4  9  1  0  0  0  0
  4 32  1  0  0  0  0
  5  6  1  0  0  0  0
  5 33  1  0  0  0  0
  5 34  1  0  0  0  0
  6  7  1  0  0  0  0
  6 35  1  0  0  0  0
  6 36  1  0  0  0  0
  7  8  1  0  0  0  0
  7 37  1  0  0  0  0
  7 38  1  0  0  0  0
  8  9  1  0  0  0  0
  8 39  1  0  0  0  0
  8 40  1  0  0  0  0
  9 41  1  0  0  0  0
  9 42  1  0  0  0  0
 10 11  1  0  0  0  0
 10 30  2  0  0  0  0
 11 12  2  0  0  0  0
 11 43  1  0  0  0  0
 12 13  1  0  0  0  0
 12 28  1  0  0  0  0
 13 14  1  0  0  0  0
 14 15  1  0  0  0  0
 14 27  2  0  0  0  0
 15 16  2  0  0  0  0
 15 44  1  0  0  0  0
 16 17  1  0  0  0  0
 16 45  1  0  0  0  0
 17 18  1  0  0  0  0
 17 26  2  0  0  0  0
 18 19  2  0  0  0  0
 18 46  1  0  0  0  0
 19 20  1  0  0  0  0
 19 47  1  0  0  0  0
 20 21  1  0  0  0  0
 20 25  2  0  0  0  0
 21 22  2  0  0  0  0
 21 48  1  0  0  0  0
 22 23  1  0  0  0  0
 22 49  1  0  0  0  0
 23 24  2  0  0  0  0
 24 25  1  0  0  0  0
 24 50  1  0  0  0  0
 25 51  1  0  0  0  0
 26 27  1  0  0  0  0
 26 52  1  0  0  0  0
 27 53  1  0  0  0  0
 28 29  2  0  0  0  0
 28 54  1  0  0  0  0
 29 30  1  0  0  0  0
 29 55  1  0  0  0  0
M  END
$$$$
