CHEMBL497343
 OpenBabel04072215383D

 48 52  0  0  0  0  0  0  0  0999 V2000
    0.9867    0.1405    0.0364 C   0  0  0  0  0  0  0  0  0  0  0  0
    2.4966    0.0712    0.0172 C   0  0  0  0  0  0  0  0  0  0  0  0
    3.2475    1.3054   -0.0331 C   0  0  0  0  0  0  0  0  0  0  0  0
    4.5259    1.3012    0.3711 C   0  0  0  0  0  0  0  0  0  0  0  0
    5.2817    0.1283    0.3081 N   0  0  0  0  0  0  0  0  0  0  0  0
    6.7088    0.1321    0.2633 C   0  0  0  0  0  0  0  0  0  0  0  0
    7.4341   -0.9100   -0.3562 C   0  0  0  0  0  0  0  0  0  0  0  0
    8.8084   -1.0394   -0.1857 C   0  0  0  0  0  0  0  0  0  0  0  0
    9.5053   -0.0393    0.4931 C   0  0  0  0  0  0  0  0  0  0  0  0
   10.8925   -0.1884    0.7446 N   0  0  0  0  0  0  0  0  0  0  0  0
   11.6845   -1.2604    0.3879 C   0  0  0  0  0  0  0  0  0  0  0  0
   12.9556   -0.9874    0.8183 C   0  0  0  0  0  0  0  0  0  0  0  0
   12.8513    0.2637    1.4434 C   0  0  0  0  0  0  0  0  0  0  0  0
   11.6232    0.7778    1.3653 N   0  0  0  0  0  0  0  0  0  0  0  0
    8.8140    1.0889    0.9529 C   0  0  0  0  0  0  0  0  0  0  0  0
    7.4205    1.1408    0.8998 C   0  0  0  0  0  0  0  0  0  0  0  0
    4.6563   -1.1054    0.1396 C   0  0  0  0  0  0  0  0  0  0  0  0
    5.2164   -2.1914   -0.0061 O   0  0  0  0  0  0  0  0  0  0  0  0
    3.1750   -1.0660    0.2361 C   0  0  0  0  0  0  0  0  0  0  0  0
    2.4736   -2.3147    0.4313 C   0  0  0  0  0  0  0  0  0  0  0  0
    2.2614   -2.9522   -0.7753 C   0  0  0  0  0  0  0  0  0  0  0  0
    1.7628   -4.1902   -0.7268 C   0  0  0  0  0  0  0  0  0  0  0  0
    1.1345   -4.5151    0.3881 C   0  0  0  0  0  0  0  0  0  0  0  0
    0.3016   -5.4764    0.2893 N   0  0  0  0  0  0  0  0  0  0  0  0
   -0.5169   -6.4204    0.1396 C   0  0  0  0  0  0  0  0  0  0  0  0
   -0.3362   -6.3464   -1.2388 N   0  0  0  0  0  0  0  0  0  0  0  0
   -0.5384   -6.1842    1.4767 N   0  0  0  0  0  0  0  0  0  0  0  0
    0.2851   -5.0198    2.2974 C   0  0  0  0  0  0  0  0  0  0  0  0
    1.1806   -4.0431    1.6466 C   0  0  0  0  0  0  0  0  0  0  0  0
    2.0985   -2.9000    1.6762 C   0  0  0  0  0  0  0  0  0  0  0  0
    0.6004    1.1592   -0.0569 H   0  0  0  0  0  0  0  0  0  0  0  0
    0.5996   -0.2789    0.9743 H   0  0  0  0  0  0  0  0  0  0  0  0
    0.5517   -0.4289   -0.7917 H   0  0  0  0  0  0  0  0  0  0  0  0
    2.7360    2.2166   -0.3269 H   0  0  0  0  0  0  0  0  0  0  0  0
    5.0469    2.2189    0.6156 H   0  0  0  0  0  0  0  0  0  0  0  0
    6.9151   -1.6504   -0.9722 H   0  0  0  0  0  0  0  0  0  0  0  0
    9.3226   -1.9295   -0.5429 H   0  0  0  0  0  0  0  0  0  0  0  0
   11.2930   -2.0914   -0.1823 H   0  0  0  0  0  0  0  0  0  0  0  0
   13.8419   -1.5927    0.6907 H   0  0  0  0  0  0  0  0  0  0  0  0
   13.6437    0.8168    1.9341 H   0  0  0  0  0  0  0  0  0  0  0  0
    9.3597    1.9496    1.3290 H   0  0  0  0  0  0  0  0  0  0  0  0
    6.8842    1.9397    1.4041 H   0  0  0  0  0  0  0  0  0  0  0  0
    2.5044   -2.6235   -1.7588 H   0  0  0  0  0  0  0  0  0  0  0  0
    1.7769   -4.8545   -1.5596 H   0  0  0  0  0  0  0  0  0  0  0  0
    0.1259   -5.5180   -1.5794 H   0  0  0  0  0  0  0  0  0  0  0  0
   -0.5547   -6.9406   -2.0192 H   0  0  0  0  0  0  0  0  0  0  0  0
    0.1685   -4.9711    3.3946 H   0  0  0  0  0  0  0  0  0  0  0  0
    2.5355   -2.4949    2.5884 H   0  0  0  0  0  0  0  0  0  0  0  0
  1  2  1  0  0  0  0
  1 31  1  0  0  0  0
  1 32  1  0  0  0  0
  1 33  1  0  0  0  0
  2  3  1  0  0  0  0
  2 19  2  0  0  0  0
  3  4  2  0  0  0  0
  3 34  1  0  0  0  0
  4  5  1  0  0  0  0
  4 35  1  0  0  0  0
  5  6  1  0  0  0  0
  5 17  1  0  0  0  0
  6  7  1  0  0  0  0
  6 16  2  0  0  0  0
  7  8  2  0  0  0  0
  7 36  1  0  0  0  0
  8  9  1  0  0  0  0
  8 37  1  0  0  0  0
  9 10  1  0  0  0  0
  9 15  2  0  0  0  0
 10 11  1  0  0  0  0
 10 14  1  0  0  0  0
 11 12  2  0  0  0  0
 11 38  1  0  0  0  0
 12 13  1  0  0  0  0
 12 39  1  0  0  0  0
 13 14  2  0  0  0  0
 13 40  1  0  0  0  0
 15 16  1  0  0  0  0
 15 41  1  0  0  0  0
 16 42  1  0  0  0  0
 17 18  2  0  0  0  0
 17 19  1  0  0  0  0
 19 20  1  0  0  0  0
 20 21  1  0  0  0  0
 20 30  2  0  0  0  0
 21 22  2  0  0  0  0
 21 43  1  0  0  0  0
 22 23  1  0  0  0  0
 22 44  1  0  0  0  0
 23 24  1  0  0  0  0
 23 29  2  0  0  0  0
 24 25  2  0  0  0  0
 25 26  1  0  0  0  0
 25 27  1  0  0  0  0
 26 45  1  0  0  0  0
 26 46  1  0  0  0  0
 27 28  2  0  0  0  0
 28 29  1  0  0  0  0
 28 47  1  0  0  0  0
 29 30  1  0  0  0  0
 30 48  1  0  0  0  0
M  END
$$$$
