CHEMBL3908311
 OpenBabel04072215373D

 57 61  0  0  1  0  0  0  0  0999 V2000
   -2.4535   -0.2867    3.0945 C   0  0  0  0  0  0  0  0  0  0  0  0
   -2.7662   -1.6158    3.4748 O   0  0  0  0  0  0  0  0  0  0  0  0
   -2.4691   -2.6122    2.5973 C   0  0  0  0  0  0  0  0  0  0  0  0
   -3.4702   -3.6083    2.5357 C   0  0  0  0  0  0  0  0  0  0  0  0
   -3.3102   -4.8001    1.7655 C   0  0  0  0  0  0  0  0  0  0  0  0
   -4.2093   -5.8722    1.6265 C   0  0  0  0  0  0  0  0  0  0  0  0
   -5.4958   -5.7853    2.2239 N   0  0  0  0  0  0  0  0  0  0  0  0
   -6.3071   -6.9337    2.3906 C   0  0  0  0  0  0  0  0  0  0  0  0
   -5.7874   -8.0746    3.0204 C   0  0  0  0  0  0  0  0  0  0  0  0
   -6.5318   -9.2528    3.0895 C   0  0  0  0  0  0  0  0  0  0  0  0
   -5.7927  -10.6232    3.8359 Cl  0  0  0  0  0  0  0  0  0  0  0  0
   -7.8185   -9.2896    2.5435 C   0  0  0  0  0  0  0  0  0  0  0  0
   -8.7725  -10.7302    2.5328 Cl  0  0  0  0  0  0  0  0  0  0  0  0
   -8.3672   -8.1448    1.9605 C   0  0  0  0  0  0  0  0  0  0  0  0
   -7.6094   -6.9765    1.8954 C   0  0  0  0  0  0  0  0  0  0  0  0
   -8.1323   -5.8913    1.3025 F   0  0  0  0  0  0  0  0  0  0  0  0
   -3.9057   -6.9982    0.9438 N   0  0  0  0  0  0  0  0  0  0  0  0
   -2.7171   -7.0525    0.3535 C   0  0  0  0  0  0  0  0  0  0  0  0
   -1.8112   -6.0811    0.3779 N   0  0  0  0  0  0  0  0  0  0  0  0
   -2.1221   -4.9905    1.0818 C   0  0  0  0  0  0  0  0  0  0  0  0
   -1.1672   -4.0047    1.1353 C   0  0  0  0  0  0  0  0  0  0  0  0
   -1.2833   -2.8022    1.8736 C   0  0  0  0  0  0  0  0  0  0  0  0
   -0.2366   -1.8711    1.9066 O   0  0  0  0  0  0  0  0  0  0  0  0
    0.8561   -2.3211    1.0938 C   0  0  0  0  0  0  0  0  0  0  0  0
    2.1529   -1.5455    0.9028 C   0  0  2  0  0  0  0  0  0  0  0  0
    1.9582   -0.1418    0.3091 C   0  0  0  0  0  0  0  0  0  0  0  0
    3.2742    0.4103   -0.0875 N   0  0  3  0  0  0  0  0  0  0  0  0
    3.1676    1.7851   -0.5942 C   0  0  0  0  0  0  0  0  0  0  0  0
    4.4400    2.2809   -1.3136 C   0  0  0  0  0  0  0  0  0  0  0  0
    4.9363    1.3462   -2.2815 O   0  0  0  0  0  0  0  0  0  0  0  0
    5.1779    0.0795   -1.6593 C   0  0  0  0  0  0  0  0  0  0  0  0
    3.8599   -0.4862   -1.1226 C   0  0  1  0  0  0  0  0  0  0  0  0
    4.0821   -1.8746   -0.5229 C   0  0  0  0  0  0  0  0  0  0  0  0
    2.8630   -2.4192   -0.0255 O   0  0  0  0  0  0  0  0  0  0  0  0
   -3.3737    0.3051    3.1669 H   0  0  0  0  0  0  0  0  0  0  0  0
   -2.0733   -0.1791    2.0765 H   0  0  0  0  0  0  0  0  0  0  0  0
   -1.7404    0.1239    3.8165 H   0  0  0  0  0  0  0  0  0  0  0  0
   -4.3766   -3.4729    3.1256 H   0  0  0  0  0  0  0  0  0  0  0  0
   -6.0109   -5.0297    1.7681 H   0  0  0  0  0  0  0  0  0  0  0  0
   -4.7769   -8.0467    3.4225 H   0  0  0  0  0  0  0  0  0  0  0  0
   -9.3656   -8.1523    1.5362 H   0  0  0  0  0  0  0  0  0  0  0  0
   -2.4596   -7.9563   -0.1849 H   0  0  0  0  0  0  0  0  0  0  0  0
   -0.2800   -4.2619    0.5623 H   0  0  0  0  0  0  0  0  0  0  0  0
    0.4732   -2.4615    0.0718 H   0  0  0  0  0  0  0  0  0  0  0  0
    1.1970   -3.2817    1.5074 H   0  0  0  0  0  0  0  0  0  0  0  0
    2.7155   -1.4904    1.8414 H   0  0  0  0  0  0  0  0  0  0  0  0
    1.4761    0.5058    1.0497 H   0  0  0  0  0  0  0  0  0  0  0  0
    1.2971   -0.1938   -0.5661 H   0  0  0  0  0  0  0  0  0  0  0  0
    2.9741    2.4544    0.2527 H   0  0  0  0  0  0  0  0  0  0  0  0
    2.3217    1.8686   -1.2854 H   0  0  0  0  0  0  0  0  0  0  0  0
    5.2406    2.5015   -0.5991 H   0  0  0  0  0  0  0  0  0  0  0  0
    4.2095    3.2062   -1.8508 H   0  0  0  0  0  0  0  0  0  0  0  0
    5.9265    0.1928   -0.8651 H   0  0  0  0  0  0  0  0  0  0  0  0
    5.6003   -0.5889   -2.4182 H   0  0  0  0  0  0  0  0  0  0  0  0
    3.1484   -0.5617   -1.9586 H   0  0  0  0  0  0  0  0  0  0  0  0
    4.8177   -1.8650    0.2914 H   0  0  0  0  0  0  0  0  0  0  0  0
    4.4455   -2.5643   -1.2897 H   0  0  0  0  0  0  0  0  0  0  0  0
  1  2  1  0  0  0  0
  1 35  1  0  0  0  0
  1 36  1  0  0  0  0
  1 37  1  0  0  0  0
  2  3  1  0  0  0  0
  3  4  1  0  0  0  0
  3 22  2  0  0  0  0
  4  5  2  0  0  0  0
  4 38  1  0  0  0  0
  5  6  1  0  0  0  0
  5 20  1  0  0  0  0
  6  7  1  0  0  0  0
  6 17  2  0  0  0  0
  7  8  1  0  0  0  0
  7 39  1  0  0  0  0
  8  9  1  0  0  0  0
  8 15  2  0  0  0  0
  9 10  2  0  0  0  0
  9 40  1  0  0  0  0
 10 11  1  0  0  0  0
 10 12  1  0  0  0  0
 12 13  1  0  0  0  0
 12 14  2  0  0  0  0
 14 15  1  0  0  0  0
 14 41  1  0  0  0  0
 15 16  1  0  0  0  0
 17 18  1  0  0  0  0
 18 19  2  0  0  0  0
 18 42  1  0  0  0  0
 19 20  1  0  0  0  0
 20 21  2  0  0  0  0
 21 22  1  0  0  0  0
 21 43  1  0  0  0  0
 22 23  1  0  0  0  0
 23 24  1  0  0  0  0
 24 44  1  0  0  0  0
 24 45  1  0  0  0  0
 25 26  1  0  0  0  0
 25 34  1  0  0  0  0
 25 24  1  0  0  0  0
 25 46  1  1  0  0  0
 26 27  1  0  0  0  0
 26 47  1  0  0  0  0
 26 48  1  0  0  0  0
 27 28  1  0  0  0  0
 27 32  1  0  0  0  0
 28 29  1  0  0  0  0
 28 49  1  0  0  0  0
 28 50  1  0  0  0  0
 29 30  1  0  0  0  0
 29 51  1  0  0  0  0
 29 52  1  0  0  0  0
 30 31  1  0  0  0  0
 31 32  1  0  0  0  0
 31 53  1  0  0  0  0
 31 54  1  0  0  0  0
 32 33  1  0  0  0  0
 32 55  1  6  0  0  0
 33 34  1  0  0  0  0
 33 56  1  0  0  0  0
 33 57  1  0  0  0  0
M  END
$$$$
