CHEMBL3964762
 OpenBabel04072215373D

 61 65  0  0  0  0  0  0  0  0999 V2000
    1.9176    4.8336   -2.7990 C   0  0  0  0  0  0  0  0  0  0  0  0
    1.7412    4.3424   -1.4653 O   0  0  0  0  0  0  0  0  0  0  0  0
    2.7009    3.4485   -1.1000 C   0  0  0  0  0  0  0  0  0  0  0  0
    2.4016    2.4907   -0.2021 C   0  0  0  0  0  0  0  0  0  0  0  0
    3.3329    1.4939    0.0687 C   0  0  0  0  0  0  0  0  0  0  0  0
    3.0483    0.4625    0.9128 O   0  0  0  0  0  0  0  0  0  0  0  0
    1.7273    0.5245    1.4480 C   0  0  0  0  0  0  0  0  0  0  0  0
    4.5849    1.4587   -0.5646 C   0  0  0  0  0  0  0  0  0  0  0  0
    4.9353    2.3914   -1.5114 C   0  0  0  0  0  0  0  0  0  0  0  0
    6.1660    2.3467   -2.2220 N   0  0  0  0  0  0  0  0  0  0  0  0
    6.7609    0.9432   -2.4610 C   0  0  0  0  0  0  0  0  0  0  0  0
    7.7321    0.5639   -1.3557 C   0  0  0  0  0  0  0  0  0  0  0  0
    8.4893    0.2431   -0.4469 C   0  0  0  0  0  0  0  0  0  0  0  0
    9.4467   -0.1531    0.7002 C   0  0  0  0  0  0  0  0  0  0  0  0
    9.5903    0.6087    1.8444 C   0  0  0  0  0  0  0  0  0  0  0  0
   10.5254    0.2297    2.7958 C   0  0  0  0  0  0  0  0  0  0  0  0
   10.8021    1.1323    4.2414 Cl  0  0  0  0  0  0  0  0  0  0  0  0
   11.2342   -0.8917    2.7246 N   0  0  0  0  0  0  0  0  0  0  0  0
   10.9822   -1.6383    1.6480 C   0  0  0  0  0  0  0  0  0  0  0  0
   11.6736   -2.8156    1.5732 N   0  0  0  0  0  0  0  0  0  0  0  0
   10.1455   -1.3099    0.6165 N   0  0  0  0  0  0  0  0  0  0  0  0
    7.1550    3.3820   -2.2991 C   0  0  0  0  0  0  0  0  0  0  0  0
    7.8585    3.4551   -3.4540 C   0  0  0  0  0  0  0  0  0  0  0  0
    8.8485    4.3572   -3.4970 C   0  0  0  0  0  0  0  0  0  0  0  0
    9.2894    5.1221   -2.4646 C   0  0  0  0  0  0  0  0  0  0  0  0
   10.5373    5.0318   -2.6625 N   0  0  0  0  0  0  0  0  0  0  0  0
   10.9517    5.9414   -3.4696 C   0  0  0  0  0  0  0  0  0  0  0  0
   11.2158    6.9779   -2.7599 C   0  0  0  0  0  0  0  0  0  0  0  0
   12.6362    7.6761   -3.6506 C   0  0  0  0  0  0  0  0  0  0  0  0
   13.2929    7.6093   -5.1397 C   0  0  0  0  0  0  0  0  0  0  0  0
   14.2204    8.5719   -5.4489 N   0  0  0  0  0  0  0  0  0  0  0  0
   14.2614    9.3706   -4.3685 N   0  0  0  0  0  0  0  0  0  0  0  0
   15.1349   10.5991   -4.3443 C   0  0  0  0  0  0  0  0  0  0  0  0
   13.3246    8.8678   -3.3808 C   0  0  0  0  0  0  0  0  0  0  0  0
   10.1810    6.8320   -1.4686 N   0  0  0  0  0  0  0  0  0  0  0  0
    8.9037    5.6066   -1.3400 C   0  0  0  0  0  0  0  0  0  0  0  0
    7.6362    4.3642   -1.2411 C   0  0  0  0  0  0  0  0  0  0  0  0
    3.9983    3.4321   -1.5920 C   0  0  0  0  0  0  0  0  0  0  0  0
    1.1104    5.5374   -2.9928 H   0  0  0  0  0  0  0  0  0  0  0  0
    1.8810    4.0303   -3.5500 H   0  0  0  0  0  0  0  0  0  0  0  0
    2.8345    5.4205   -2.8986 H   0  0  0  0  0  0  0  0  0  0  0  0
    1.4399    2.5602    0.2681 H   0  0  0  0  0  0  0  0  0  0  0  0
    1.6004   -0.3454    2.0820 H   0  0  0  0  0  0  0  0  0  0  0  0
    0.9588    0.4904    0.6600 H   0  0  0  0  0  0  0  0  0  0  0  0
    1.5990    1.4248    2.0644 H   0  0  0  0  0  0  0  0  0  0  0  0
    5.3145    0.7251   -0.2661 H   0  0  0  0  0  0  0  0  0  0  0  0
    7.2637    0.8248   -3.4555 H   0  0  0  0  0  0  0  0  0  0  0  0
    5.9152    0.2357   -2.4807 H   0  0  0  0  0  0  0  0  0  0  0  0
    8.9526    1.4488    2.0016 H   0  0  0  0  0  0  0  0  0  0  0  0
   12.3117   -3.0726    2.3082 H   0  0  0  0  0  0  0  0  0  0  0  0
   11.5372   -3.4132    0.7814 H   0  0  0  0  0  0  0  0  0  0  0  0
    7.8193    2.7998   -4.3048 H   0  0  0  0  0  0  0  0  0  0  0  0
    9.4958    4.3797   -4.3642 H   0  0  0  0  0  0  0  0  0  0  0  0
   11.3691    5.6114   -4.3739 H   0  0  0  0  0  0  0  0  0  0  0  0
   13.1362    7.0079   -6.0479 H   0  0  0  0  0  0  0  0  0  0  0  0
   15.8487   10.6819   -5.1953 H   0  0  0  0  0  0  0  0  0  0  0  0
   15.7534   10.6205   -3.4345 H   0  0  0  0  0  0  0  0  0  0  0  0
   14.5342   11.5226   -4.3691 H   0  0  0  0  0  0  0  0  0  0  0  0
   13.2234    9.5338   -2.5714 H   0  0  0  0  0  0  0  0  0  0  0  0
    7.1056    4.0392   -0.2988 H   0  0  0  0  0  0  0  0  0  0  0  0
    4.3218    4.4271   -1.7858 H   0  0  0  0  0  0  0  0  0  0  0  0
  1  2  1  0  0  0  0
  1 39  1  0  0  0  0
  1 40  1  0  0  0  0
  1 41  1  0  0  0  0
  2  3  1  0  0  0  0
  3  4  1  0  0  0  0
  3 38  2  0  0  0  0
  4  5  2  0  0  0  0
  4 42  1  0  0  0  0
  5  6  1  0  0  0  0
  5  8  1  0  0  0  0
  6  7  1  0  0  0  0
  7 43  1  0  0  0  0
  7 44  1  0  0  0  0
  7 45  1  0  0  0  0
  8  9  2  0  0  0  0
  8 46  1  0  0  0  0
  9 10  1  0  0  0  0
  9 38  1  0  0  0  0
 10 11  1  0  0  0  0
 10 22  1  0  0  0  0
 11 12  1  0  0  0  0
 11 47  1  0  0  0  0
 11 48  1  0  0  0  0
 12 13  3  0  0  0  0
 13 14  1  0  0  0  0
 14 15  1  0  0  0  0
 14 21  2  0  0  0  0
 15 16  2  0  0  0  0
 15 49  1  0  0  0  0
 16 17  1  0  0  0  0
 16 18  1  0  0  0  0
 18 19  2  0  0  0  0
 19 20  1  0  0  0  0
 19 21  1  0  0  0  0
 20 50  1  0  0  0  0
 20 51  1  0  0  0  0
 22 23  1  0  0  0  0
 22 37  2  0  0  0  0
 23 24  2  0  0  0  0
 23 52  1  0  0  0  0
 24 25  1  0  0  0  0
 24 53  1  0  0  0  0
 25 26  1  0  0  0  0
 25 36  2  0  0  0  0
 26 27  2  0  0  0  0
 27 28  1  0  0  0  0
 27 54  1  0  0  0  0
 28 29  1  0  0  0  0
 28 35  2  0  0  0  0
 29 30  1  0  0  0  0
 29 34  2  0  0  0  0
 30 31  2  0  0  0  0
 30 55  1  0  0  0  0
 31 32  1  0  0  0  0
 32 33  1  0  0  0  0
 32 34  1  0  0  0  0
 33 56  1  0  0  0  0
 33 57  1  0  0  0  0
 33 58  1  0  0  0  0
 34 59  1  0  0  0  0
 35 36  1  0  0  0  0
 36 37  1  0  0  0  0
 37 60  1  0  0  0  0
 38 61  1  0  0  0  0
M  END
$$$$
