CHEMBL3740582
 OpenBabel04072215373D

 57 62  0  0  0  0  0  0  0  0999 V2000
    2.1640    0.2188   -0.2710 C   0  0  0  0  0  0  0  0  0  0  0  0
    0.7017   -0.0406   -0.1436 C   0  0  0  0  0  0  0  0  0  0  0  0
   -0.1326    1.0417   -0.0955 N   0  0  0  0  0  0  0  0  0  0  0  0
   -1.4537    0.6773   -0.0344 C   0  0  0  0  0  0  0  0  0  0  0  0
   -2.4884    1.7292   -0.0113 C   0  0  0  0  0  0  0  0  0  0  0  0
   -3.6964    1.5777   -0.7019 C   0  0  0  0  0  0  0  0  0  0  0  0
   -4.7088    2.5357   -0.5963 C   0  0  0  0  0  0  0  0  0  0  0  0
   -4.5043    3.6902    0.1543 C   0  0  0  0  0  0  0  0  0  0  0  0
   -3.2864    3.8893    0.7974 C   0  0  0  0  0  0  0  0  0  0  0  0
   -2.2898    2.9118    0.7237 C   0  0  0  0  0  0  0  0  0  0  0  0
   -1.4815   -0.7255   -0.0226 C   0  0  0  0  0  0  0  0  0  0  0  0
   -2.7345   -1.5032    0.0809 C   0  0  0  0  0  0  0  0  0  0  0  0
   -2.9648   -2.6327   -0.7125 C   0  0  0  0  0  0  0  0  0  0  0  0
   -4.1302   -3.3965   -0.5851 C   0  0  0  0  0  0  0  0  0  0  0  0
   -5.1444   -2.9794    0.2665 C   0  0  0  0  0  0  0  0  0  0  0  0
   -4.9733   -1.8201    1.0151 C   0  0  0  0  0  0  0  0  0  0  0  0
   -3.7629   -1.1174    0.9569 C   0  0  0  0  0  0  0  0  0  0  0  0
   -0.0925   -1.1888   -0.0856 C   0  0  0  0  0  0  0  0  0  0  0  0
    0.4366   -2.5502   -0.1638 C   0  0  0  0  0  0  0  0  0  0  0  0
   -0.1534   -3.4782   -0.9667 N   0  0  0  0  0  0  0  0  0  0  0  0
    0.3317   -4.8452   -1.1700 N   0  0  0  0  0  0  0  0  0  0  0  0
    1.4941   -5.3235   -0.6372 C   0  0  0  0  0  0  0  0  0  0  0  0
    1.8887   -6.7385   -0.8716 C   0  0  0  0  0  0  0  0  0  0  0  0
    2.1897   -4.3635    0.1387 C   0  0  0  0  0  0  0  0  0  0  0  0
    3.3920   -4.4445    0.7463 N   0  0  0  0  0  0  0  0  0  0  0  0
    3.5790   -3.2318    1.3337 N   0  0  0  0  0  0  0  0  0  0  0  0
    4.8411   -2.8352    1.8585 C   0  0  0  0  0  0  0  0  0  0  0  0
    5.9330   -3.7084    1.7951 C   0  0  0  0  0  0  0  0  0  0  0  0
    7.1757   -3.3174    2.3061 C   0  0  0  0  0  0  0  0  0  0  0  0
    7.3326   -2.0491    2.8639 C   0  0  0  0  0  0  0  0  0  0  0  0
    6.2614   -1.1658    2.9103 C   0  0  0  0  0  0  0  0  0  0  0  0
    5.0162   -1.5531    2.4048 C   0  0  0  0  0  0  0  0  0  0  0  0
    2.4324   -2.4772    1.3191 C   0  0  0  0  0  0  0  0  0  0  0  0
    1.6204   -3.0568    0.3830 C   0  0  0  0  0  0  0  0  0  0  0  0
    2.3597    1.2416   -0.6137 H   0  0  0  0  0  0  0  0  0  0  0  0
    2.6336   -0.4650   -0.9833 H   0  0  0  0  0  0  0  0  0  0  0  0
    2.6616    0.1359    0.6986 H   0  0  0  0  0  0  0  0  0  0  0  0
    0.1805    2.0016   -0.1440 H   0  0  0  0  0  0  0  0  0  0  0  0
   -3.8770    0.6921   -1.3069 H   0  0  0  0  0  0  0  0  0  0  0  0
   -5.6602    2.3687   -1.0941 H   0  0  0  0  0  0  0  0  0  0  0  0
   -5.2941    4.4314    0.2387 H   0  0  0  0  0  0  0  0  0  0  0  0
   -3.1180    4.7959    1.3733 H   0  0  0  0  0  0  0  0  0  0  0  0
   -1.3665    3.0803    1.2716 H   0  0  0  0  0  0  0  0  0  0  0  0
   -2.2534   -2.9422   -1.4680 H   0  0  0  0  0  0  0  0  0  0  0  0
   -4.2405   -4.3064   -1.1694 H   0  0  0  0  0  0  0  0  0  0  0  0
   -6.0661   -3.5496    0.3362 H   0  0  0  0  0  0  0  0  0  0  0  0
   -5.7791   -1.4581    1.6477 H   0  0  0  0  0  0  0  0  0  0  0  0
   -3.6550   -0.2333    1.5806 H   0  0  0  0  0  0  0  0  0  0  0  0
    1.1035   -7.2772   -1.4143 H   0  0  0  0  0  0  0  0  0  0  0  0
    2.0445   -7.2480    0.0851 H   0  0  0  0  0  0  0  0  0  0  0  0
    2.8104   -6.7871   -1.4553 H   0  0  0  0  0  0  0  0  0  0  0  0
    5.8381   -4.6972    1.3492 H   0  0  0  0  0  0  0  0  0  0  0  0
    8.0142   -4.0024    2.2595 H   0  0  0  0  0  0  0  0  0  0  0  0
    8.3014   -1.7451    3.2656 H   0  0  0  0  0  0  0  0  0  0  0  0
    6.3876   -0.1747    3.3337 H   0  0  0  0  0  0  0  0  0  0  0  0
    4.2154   -0.8234    2.4478 H   0  0  0  0  0  0  0  0  0  0  0  0
    2.3241   -1.5772    1.8941 H   0  0  0  0  0  0  0  0  0  0  0  0
  1  2  1  0  0  0  0
  1 35  1  0  0  0  0
  1 36  1  0  0  0  0
  1 37  1  0  0  0  0
  2  3  1  0  0  0  0
  2 18  2  0  0  0  0
  3  4  1  0  0  0  0
  3 38  1  0  0  0  0
  4  5  1  0  0  0  0
  4 11  2  0  0  0  0
  5  6  1  0  0  0  0
  5 10  2  0  0  0  0
  6  7  2  0  0  0  0
  6 39  1  0  0  0  0
  7  8  1  0  0  0  0
  7 40  1  0  0  0  0
  8  9  2  0  0  0  0
  8 41  1  0  0  0  0
  9 10  1  0  0  0  0
  9 42  1  0  0  0  0
 10 43  1  0  0  0  0
 11 12  1  0  0  0  0
 11 18  1  0  0  0  0
 12 13  1  0  0  0  0
 12 17  2  0  0  0  0
 13 14  2  0  0  0  0
 13 44  1  0  0  0  0
 14 15  1  0  0  0  0
 14 45  1  0  0  0  0
 15 16  2  0  0  0  0
 15 46  1  0  0  0  0
 16 17  1  0  0  0  0
 16 47  1  0  0  0  0
 17 48  1  0  0  0  0
 18 19  1  0  0  0  0
 19 20  2  0  0  0  0
 19 34  1  0  0  0  0
 20 21  1  0  0  0  0
 21 22  2  0  0  0  0
 22 23  1  0  0  0  0
 22 24  1  0  0  0  0
 23 49  1  0  0  0  0
 23 50  1  0  0  0  0
 23 51  1  0  0  0  0
 24 25  2  0  0  0  0
 24 34  1  0  0  0  0
 25 26  1  0  0  0  0
 26 27  1  0  0  0  0
 26 33  1  0  0  0  0
 27 28  1  0  0  0  0
 27 32  2  0  0  0  0
 28 29  2  0  0  0  0
 28 52  1  0  0  0  0
 29 30  1  0  0  0  0
 29 53  1  0  0  0  0
 30 31  2  0  0  0  0
 30 54  1  0  0  0  0
 31 32  1  0  0  0  0
 31 55  1  0  0  0  0
 32 56  1  0  0  0  0
 33 34  2  0  0  0  0
 33 57  1  0  0  0  0
M  END
$$$$
