CHEMBL3742060
 OpenBabel04072215373D

 60 65  0  0  0  0  0  0  0  0999 V2000
  -14.4250   -3.5466   -2.6757 C   0  0  0  0  0  0  0  0  0  0  0  0
  -13.0922   -2.9971   -2.2582 C   0  0  0  0  0  0  0  0  0  0  0  0
  -12.6728   -3.0932   -0.9285 C   0  0  0  0  0  0  0  0  0  0  0  0
  -11.4485   -2.5485   -0.5365 C   0  0  0  0  0  0  0  0  0  0  0  0
  -10.6410   -1.8863   -1.4710 C   0  0  0  0  0  0  0  0  0  0  0  0
   -9.4201   -1.2736   -1.0673 N   0  0  0  0  0  0  0  0  0  0  0  0
   -8.8788   -1.2799    0.1962 C   0  0  0  0  0  0  0  0  0  0  0  0
   -7.5869   -0.8613    0.0478 C   0  0  0  0  0  0  0  0  0  0  0  0
   -6.5592   -0.8768    0.9981 C   0  0  0  0  0  0  0  0  0  0  0  0
   -6.5712   -1.4594    2.3323 C   0  0  0  0  0  0  0  0  0  0  0  0
   -7.0777   -2.7281    2.6074 C   0  0  0  0  0  0  0  0  0  0  0  0
   -7.7182   -3.7913    1.7805 C   0  0  0  0  0  0  0  0  0  0  0  0
   -6.8745   -2.9716    3.9385 N   0  0  0  0  0  0  0  0  0  0  0  0
   -6.2230   -1.9328    4.5582 C   0  0  0  0  0  0  0  0  0  0  0  0
   -5.9025   -2.0140    5.9961 C   0  0  0  0  0  0  0  0  0  0  0  0
   -4.6821   -1.5318    6.4860 C   0  0  0  0  0  0  0  0  0  0  0  0
   -4.4632   -1.3970    7.8584 C   0  0  0  0  0  0  0  0  0  0  0  0
   -5.4313   -1.8229    8.7627 C   0  0  0  0  0  0  0  0  0  0  0  0
   -6.6094   -2.3997    8.2943 C   0  0  0  0  0  0  0  0  0  0  0  0
   -6.8486   -2.4873    6.9190 C   0  0  0  0  0  0  0  0  0  0  0  0
   -6.0187   -0.9422    3.5847 C   0  0  0  0  0  0  0  0  0  0  0  0
   -5.3512    0.3542    3.8688 C   0  0  0  0  0  0  0  0  0  0  0  0
   -4.4221    0.9091    2.9806 C   0  0  0  0  0  0  0  0  0  0  0  0
   -3.7499    2.1059    3.2526 C   0  0  0  0  0  0  0  0  0  0  0  0
   -3.9100    2.7249    4.4827 C   0  0  0  0  0  0  0  0  0  0  0  0
   -4.7972    2.1822    5.4046 C   0  0  0  0  0  0  0  0  0  0  0  0
   -5.5546    1.0481    5.0740 C   0  0  0  0  0  0  0  0  0  0  0  0
   -5.4062   -0.3730    0.4828 N   0  0  0  0  0  0  0  0  0  0  0  0
   -5.2790    0.2293   -0.8363 N   0  0  0  0  0  0  0  0  0  0  0  0
   -6.2930    0.2732   -1.7488 C   0  0  0  0  0  0  0  0  0  0  0  0
   -6.0653    0.9519   -3.0515 C   0  0  0  0  0  0  0  0  0  0  0  0
   -7.4806   -0.3558   -1.3022 C   0  0  0  0  0  0  0  0  0  0  0  0
   -8.6340   -0.6026   -1.9545 N   0  0  0  0  0  0  0  0  0  0  0  0
  -11.0372   -1.8342   -2.8122 C   0  0  0  0  0  0  0  0  0  0  0  0
  -12.2585   -2.3888   -3.2051 C   0  0  0  0  0  0  0  0  0  0  0  0
  -14.9960   -3.9147   -1.8165 H   0  0  0  0  0  0  0  0  0  0  0  0
  -14.3011   -4.3687   -3.3830 H   0  0  0  0  0  0  0  0  0  0  0  0
  -15.0251   -2.7527   -3.1473 H   0  0  0  0  0  0  0  0  0  0  0  0
  -13.2972   -3.5860   -0.1876 H   0  0  0  0  0  0  0  0  0  0  0  0
  -11.1768   -2.6477    0.5085 H   0  0  0  0  0  0  0  0  0  0  0  0
   -9.4070   -1.6644    1.0521 H   0  0  0  0  0  0  0  0  0  0  0  0
   -7.6399   -3.6020    0.7083 H   0  0  0  0  0  0  0  0  0  0  0  0
   -8.7805   -3.8795    2.0380 H   0  0  0  0  0  0  0  0  0  0  0  0
   -7.2468   -4.7618    1.9640 H   0  0  0  0  0  0  0  0  0  0  0  0
   -7.1295   -3.8315    4.4093 H   0  0  0  0  0  0  0  0  0  0  0  0
   -3.9138   -1.1837    5.7974 H   0  0  0  0  0  0  0  0  0  0  0  0
   -3.5485   -0.9296    8.2133 H   0  0  0  0  0  0  0  0  0  0  0  0
   -5.2705   -1.6973    9.8301 H   0  0  0  0  0  0  0  0  0  0  0  0
   -7.3593   -2.7482    8.9996 H   0  0  0  0  0  0  0  0  0  0  0  0
   -7.8024   -2.8866    6.5853 H   0  0  0  0  0  0  0  0  0  0  0  0
   -4.1517    0.4102    2.0618 H   0  0  0  0  0  0  0  0  0  0  0  0
   -3.0782    2.5221    2.5062 H   0  0  0  0  0  0  0  0  0  0  0  0
   -3.3358    3.6149    4.7229 H   0  0  0  0  0  0  0  0  0  0  0  0
   -4.8941    2.6294    6.3902 H   0  0  0  0  0  0  0  0  0  0  0  0
   -6.2596    0.6791    5.8146 H   0  0  0  0  0  0  0  0  0  0  0  0
   -5.1000    1.4710   -3.0496 H   0  0  0  0  0  0  0  0  0  0  0  0
   -6.8464    1.6980   -3.2296 H   0  0  0  0  0  0  0  0  0  0  0  0
   -6.0672    0.2242   -3.8665 H   0  0  0  0  0  0  0  0  0  0  0  0
  -10.4081   -1.3658   -3.5674 H   0  0  0  0  0  0  0  0  0  0  0  0
  -12.5583   -2.3344   -4.2467 H   0  0  0  0  0  0  0  0  0  0  0  0
  1  2  1  0  0  0  0
  1 36  1  0  0  0  0
  1 37  1  0  0  0  0
  1 38  1  0  0  0  0
  2  3  1  0  0  0  0
  2 35  2  0  0  0  0
  3  4  2  0  0  0  0
  3 39  1  0  0  0  0
  4  5  1  0  0  0  0
  4 40  1  0  0  0  0
  5  6  1  0  0  0  0
  5 34  2  0  0  0  0
  6  7  1  0  0  0  0
  6 33  1  0  0  0  0
  7  8  2  0  0  0  0
  7 41  1  0  0  0  0
  8  9  1  0  0  0  0
  8 32  1  0  0  0  0
  9 10  1  0  0  0  0
  9 28  2  0  0  0  0
 10 11  2  0  0  0  0
 10 21  1  0  0  0  0
 11 12  1  0  0  0  0
 11 13  1  0  0  0  0
 12 42  1  0  0  0  0
 12 43  1  0  0  0  0
 12 44  1  0  0  0  0
 13 14  1  0  0  0  0
 13 45  1  0  0  0  0
 14 15  1  0  0  0  0
 14 21  2  0  0  0  0
 15 16  1  0  0  0  0
 15 20  2  0  0  0  0
 16 17  2  0  0  0  0
 16 46  1  0  0  0  0
 17 18  1  0  0  0  0
 17 47  1  0  0  0  0
 18 19  2  0  0  0  0
 18 48  1  0  0  0  0
 19 20  1  0  0  0  0
 19 49  1  0  0  0  0
 20 50  1  0  0  0  0
 21 22  1  0  0  0  0
 22 23  1  0  0  0  0
 22 27  2  0  0  0  0
 23 24  2  0  0  0  0
 23 51  1  0  0  0  0
 24 25  1  0  0  0  0
 24 52  1  0  0  0  0
 25 26  2  0  0  0  0
 25 53  1  0  0  0  0
 26 27  1  0  0  0  0
 26 54  1  0  0  0  0
 27 55  1  0  0  0  0
 28 29  1  0  0  0  0
 29 30  2  0  0  0  0
 30 31  1  0  0  0  0
 30 32  1  0  0  0  0
 31 56  1  0  0  0  0
 31 57  1  0  0  0  0
 31 58  1  0  0  0  0
 32 33  2  0  0  0  0
 34 35  1  0  0  0  0
 34 59  1  0  0  0  0
 35 60  1  0  0  0  0
M  END
$$$$
