CHEMBL1253917
 OpenBabel04072215363D

 54 57  0  0  0  0  0  0  0  0999 V2000
    3.0662   -0.5037   -1.3652 C   0  0  0  0  0  0  0  0  0  0  0  0
    3.6797    0.1640   -0.2702 O   0  0  0  0  0  0  0  0  0  0  0  0
    4.5031    1.2389   -0.7031 C   0  0  0  0  0  0  0  0  0  0  0  0
    5.0803    1.8533    0.5225 C   0  0  0  0  0  0  0  0  0  0  0  0
    4.9407    3.1499    0.9882 C   0  0  0  0  0  0  0  0  0  0  0  0
    5.6706    3.2629    2.1849 C   0  0  0  0  0  0  0  0  0  0  0  0
    5.8144    4.3504    2.9737 N   0  0  0  0  0  0  0  0  0  0  0  0
    6.5612    4.1270    4.0565 C   0  0  0  0  0  0  0  0  0  0  0  0
    7.1706    2.9856    4.4093 N   0  0  0  0  0  0  0  0  0  0  0  0
    7.0631    1.9174    3.5834 C   0  0  0  0  0  0  0  0  0  0  0  0
    7.7339    0.7437    3.9079 O   0  0  0  0  0  0  0  0  0  0  0  0
    8.9671    0.8581    4.5140 C   0  0  0  0  0  0  0  0  0  0  0  0
    9.8634    1.8858    4.2248 C   0  0  0  0  0  0  0  0  0  0  0  0
   11.0940    1.9557    4.8819 C   0  0  0  0  0  0  0  0  0  0  0  0
   11.4754    0.9919    5.8130 C   0  0  0  0  0  0  0  0  0  0  0  0
   12.7245    1.0512    6.4968 N   0  0  0  0  0  0  0  0  0  0  0  0
   13.6089    2.1171    6.4751 C   0  0  0  0  0  0  0  0  0  0  0  0
   13.3977    3.1994    5.9396 O   0  0  0  0  0  0  0  0  0  0  0  0
   14.8110    1.8095    7.0979 N   0  0  0  0  0  0  0  0  0  0  0  0
   15.8479    2.7732    7.1470 C   0  0  0  0  0  0  0  0  0  0  0  0
   17.1352    2.3986    6.7616 C   0  0  0  0  0  0  0  0  0  0  0  0
   18.1552    3.3511    6.7209 C   0  0  0  0  0  0  0  0  0  0  0  0
   17.9075    4.6669    7.1178 C   0  0  0  0  0  0  0  0  0  0  0  0
   16.6316    5.0500    7.5522 C   0  0  0  0  0  0  0  0  0  0  0  0
   16.3561    6.4541    8.0271 C   0  0  0  0  0  0  0  0  0  0  0  0
   17.4626    7.2545    8.0197 F   0  0  0  0  0  0  0  0  0  0  0  0
   15.4276    7.1039    7.2714 F   0  0  0  0  0  0  0  0  0  0  0  0
   15.8901    6.4900    9.3069 F   0  0  0  0  0  0  0  0  0  0  0  0
   15.6019    4.0936    7.5471 C   0  0  0  0  0  0  0  0  0  0  0  0
   10.5924   -0.0811    6.0495 C   0  0  0  0  0  0  0  0  0  0  0  0
   11.0141   -1.3547    7.1431 Cl  0  0  0  0  0  0  0  0  0  0  0  0
    9.3494   -0.1463    5.4016 C   0  0  0  0  0  0  0  0  0  0  0  0
    6.2666    2.0331    2.4508 C   0  0  0  0  0  0  0  0  0  0  0  0
    5.8962    1.1854    1.4276 N   0  0  0  0  0  0  0  0  0  0  0  0
    6.2701   -0.2077    1.2882 C   0  0  0  0  0  0  0  0  0  0  0  0
    2.4727   -1.3318   -0.9695 H   0  0  0  0  0  0  0  0  0  0  0  0
    3.8263   -0.9096   -2.0389 H   0  0  0  0  0  0  0  0  0  0  0  0
    2.4036    0.1772   -1.9057 H   0  0  0  0  0  0  0  0  0  0  0  0
    3.9003    1.9693   -1.2557 H   0  0  0  0  0  0  0  0  0  0  0  0
    5.3021    0.8694   -1.3601 H   0  0  0  0  0  0  0  0  0  0  0  0
    4.3671    3.9374    0.5139 H   0  0  0  0  0  0  0  0  0  0  0  0
    6.7016    4.9695    4.7253 H   0  0  0  0  0  0  0  0  0  0  0  0
    9.6205    2.6646    3.5112 H   0  0  0  0  0  0  0  0  0  0  0  0
   11.7257    2.7995    4.6260 H   0  0  0  0  0  0  0  0  0  0  0  0
   12.8956    0.3196    7.1761 H   0  0  0  0  0  0  0  0  0  0  0  0
   15.0987    0.8475    6.9857 H   0  0  0  0  0  0  0  0  0  0  0  0
   17.3442    1.3878    6.4245 H   0  0  0  0  0  0  0  0  0  0  0  0
   19.1443    3.0717    6.3652 H   0  0  0  0  0  0  0  0  0  0  0  0
   18.7171    5.3944    7.0846 H   0  0  0  0  0  0  0  0  0  0  0  0
   14.6007    4.3889    7.8625 H   0  0  0  0  0  0  0  0  0  0  0  0
    8.6728   -0.9784    5.5940 H   0  0  0  0  0  0  0  0  0  0  0  0
    6.9253   -0.5232    2.0968 H   0  0  0  0  0  0  0  0  0  0  0  0
    6.7955   -0.3269    0.3365 H   0  0  0  0  0  0  0  0  0  0  0  0
    5.3664   -0.8202    1.3117 H   0  0  0  0  0  0  0  0  0  0  0  0
  1  2  1  0  0  0  0
  1 36  1  0  0  0  0
  1 37  1  0  0  0  0
  1 38  1  0  0  0  0
  2  3  1  0  0  0  0
  3  4  1  0  0  0  0
  3 39  1  0  0  0  0
  3 40  1  0  0  0  0
  4  5  2  0  0  0  0
  4 34  1  0  0  0  0
  5  6  1  0  0  0  0
  5 41  1  0  0  0  0
  6  7  1  0  0  0  0
  6 33  2  0  0  0  0
  7  8  2  0  0  0  0
  8  9  1  0  0  0  0
  8 42  1  0  0  0  0
  9 10  2  0  0  0  0
 10 11  1  0  0  0  0
 10 33  1  0  0  0  0
 11 12  1  0  0  0  0
 12 13  1  0  0  0  0
 12 32  2  0  0  0  0
 13 14  2  0  0  0  0
 13 43  1  0  0  0  0
 14 15  1  0  0  0  0
 14 44  1  0  0  0  0
 15 16  1  0  0  0  0
 15 30  2  0  0  0  0
 16 17  1  0  0  0  0
 16 45  1  0  0  0  0
 17 18  2  0  0  0  0
 17 19  1  0  0  0  0
 19 20  1  0  0  0  0
 19 46  1  0  0  0  0
 20 21  1  0  0  0  0
 20 29  2  0  0  0  0
 21 22  2  0  0  0  0
 21 47  1  0  0  0  0
 22 23  1  0  0  0  0
 22 48  1  0  0  0  0
 23 24  2  0  0  0  0
 23 49  1  0  0  0  0
 24 25  1  0  0  0  0
 24 29  1  0  0  0  0
 25 26  1  0  0  0  0
 25 27  1  0  0  0  0
 25 28  1  0  0  0  0
 29 50  1  0  0  0  0
 30 31  1  0  0  0  0
 30 32  1  0  0  0  0
 32 51  1  0  0  0  0
 33 34  1  0  0  0  0
 34 35  1  0  0  0  0
 35 52  1  0  0  0  0
 35 53  1  0  0  0  0
 35 54  1  0  0  0  0
M  END
$$$$
