CHEMBL3985867
 OpenBabel04072215373D

 55 59  0  0  0  0  0  0  0  0999 V2000
   -1.2002   -5.9798    1.1158 O   0  0  0  0  0  0  0  0  0  0  0  0
   -1.8132   -6.0860    0.0507 C   0  0  0  0  0  0  0  0  0  0  0  0
   -1.2787   -5.9485   -1.2180 N   0  0  0  0  0  0  0  0  0  0  0  0
    0.0768   -5.6547   -1.5014 C   0  0  0  0  0  0  0  0  0  0  0  0
    1.0911   -5.7771   -0.5487 C   0  0  0  0  0  0  0  0  0  0  0  0
    2.3865   -5.3454   -0.8284 C   0  0  0  0  0  0  0  0  0  0  0  0
    2.6876   -4.8169   -2.0811 C   0  0  0  0  0  0  0  0  0  0  0  0
    1.7187   -4.7794   -3.0865 C   0  0  0  0  0  0  0  0  0  0  0  0
    2.0590   -4.1997   -4.3384 N   0  0  0  0  0  0  0  0  0  0  0  0
    1.5840   -4.6542   -5.5941 C   0  0  0  0  0  0  0  0  0  0  0  0
    1.2523   -3.7503   -6.6176 C   0  0  0  0  0  0  0  0  0  0  0  0
    0.6704   -4.1870   -7.8310 C   0  0  0  0  0  0  0  0  0  0  0  0
    0.5847   -5.5724   -8.0656 C   0  0  0  0  0  0  0  0  0  0  0  0
    0.0423   -6.5199   -9.0072 C   0  0  0  0  0  0  0  0  0  0  0  0
   -1.3047   -7.0848   -8.9452 C   0  0  0  0  0  0  0  0  0  0  0  0
   -2.3456   -6.6064   -8.2453 C   0  0  0  0  0  0  0  0  0  0  0  0
   -3.2789   -7.5155   -7.5381 C   0  0  0  0  0  0  0  0  0  0  0  0
   -2.7850   -8.6204   -6.8139 C   0  0  0  0  0  0  0  0  0  0  0  0
   -3.6016   -9.3326   -5.9297 C   0  0  0  0  0  0  0  0  0  0  0  0
   -4.9279   -8.9525   -5.7574 C   0  0  0  0  0  0  0  0  0  0  0  0
   -5.4397   -7.8801   -6.4884 C   0  0  0  0  0  0  0  0  0  0  0  0
   -4.6208   -7.1649   -7.3729 C   0  0  0  0  0  0  0  0  0  0  0  0
    0.9941   -7.4709   -9.1397 N   0  0  0  0  0  0  0  0  0  0  0  0
    1.4500   -7.5513   -7.8662 N   0  0  0  0  0  0  0  0  0  0  0  0
    1.2088   -6.4118   -7.1500 C   0  0  0  0  0  0  0  0  0  0  0  0
    1.5638   -6.0292   -5.8611 C   0  0  0  0  0  0  0  0  0  0  0  0
    0.4060   -5.1841   -2.7813 C   0  0  0  0  0  0  0  0  0  0  0  0
   -3.2740   -6.3019    0.1458 C   0  0  0  0  0  0  0  0  0  0  0  0
   -3.9640   -5.6876    1.1999 C   0  0  0  0  0  0  0  0  0  0  0  0
   -5.3315   -5.8985    1.3653 C   0  0  0  0  0  0  0  0  0  0  0  0
   -6.0150   -6.7337    0.4830 C   0  0  0  0  0  0  0  0  0  0  0  0
   -5.3344   -7.3582   -0.5644 C   0  0  0  0  0  0  0  0  0  0  0  0
   -3.9581   -7.1486   -0.7412 C   0  0  0  0  0  0  0  0  0  0  0  0
   -1.9292   -5.8748   -1.9947 H   0  0  0  0  0  0  0  0  0  0  0  0
    0.9028   -6.1980    0.4350 H   0  0  0  0  0  0  0  0  0  0  0  0
    3.1509   -5.4122   -0.0599 H   0  0  0  0  0  0  0  0  0  0  0  0
    3.6948   -4.4633   -2.2818 H   0  0  0  0  0  0  0  0  0  0  0  0
    2.0318   -3.1858   -4.2598 H   0  0  0  0  0  0  0  0  0  0  0  0
    1.4300   -2.6857   -6.4769 H   0  0  0  0  0  0  0  0  0  0  0  0
    0.3891   -3.4679   -8.5949 H   0  0  0  0  0  0  0  0  0  0  0  0
   -1.3247   -8.1406   -9.2242 H   0  0  0  0  0  0  0  0  0  0  0  0
   -2.3876   -5.5700   -7.9297 H   0  0  0  0  0  0  0  0  0  0  0  0
   -1.7383   -8.9104   -6.8874 H   0  0  0  0  0  0  0  0  0  0  0  0
   -3.1918  -10.1610   -5.3560 H   0  0  0  0  0  0  0  0  0  0  0  0
   -5.5585   -9.4826   -5.0473 H   0  0  0  0  0  0  0  0  0  0  0  0
   -6.4753   -7.5805   -6.3485 H   0  0  0  0  0  0  0  0  0  0  0  0
   -5.0346   -6.3133   -7.9060 H   0  0  0  0  0  0  0  0  0  0  0  0
    1.9992   -8.3555   -7.5999 H   0  0  0  0  0  0  0  0  0  0  0  0
    1.9154   -6.7495   -5.1305 H   0  0  0  0  0  0  0  0  0  0  0  0
   -0.3647   -5.0929   -3.5423 H   0  0  0  0  0  0  0  0  0  0  0  0
   -3.4265   -5.0525    1.9021 H   0  0  0  0  0  0  0  0  0  0  0  0
   -5.8543   -5.4278    2.1949 H   0  0  0  0  0  0  0  0  0  0  0  0
   -7.0768   -6.9142    0.6294 H   0  0  0  0  0  0  0  0  0  0  0  0
   -5.8724   -8.0301   -1.2283 H   0  0  0  0  0  0  0  0  0  0  0  0
   -3.4363   -7.6673   -1.5292 H   0  0  0  0  0  0  0  0  0  0  0  0
  1  2  2  0  0  0  0
  2  3  1  0  0  0  0
  2 28  1  0  0  0  0
  3  4  1  0  0  0  0
  3 34  1  0  0  0  0
  4  5  1  0  0  0  0
  4 27  2  0  0  0  0
  5  6  2  0  0  0  0
  5 35  1  0  0  0  0
  6  7  1  0  0  0  0
  6 36  1  0  0  0  0
  7  8  2  0  0  0  0
  7 37  1  0  0  0  0
  8  9  1  0  0  0  0
  8 27  1  0  0  0  0
  9 10  1  0  0  0  0
  9 38  1  0  0  0  0
 10 11  1  0  0  0  0
 10 26  2  0  0  0  0
 11 12  2  0  0  0  0
 11 39  1  0  0  0  0
 12 13  1  0  0  0  0
 12 40  1  0  0  0  0
 13 14  1  0  0  0  0
 13 25  2  0  0  0  0
 14 15  1  0  0  0  0
 14 23  2  0  0  0  0
 15 16  2  0  0  0  0
 15 41  1  0  0  0  0
 16 17  1  0  0  0  0
 16 42  1  0  0  0  0
 17 18  1  0  0  0  0
 17 22  2  0  0  0  0
 18 19  2  0  0  0  0
 18 43  1  0  0  0  0
 19 20  1  0  0  0  0
 19 44  1  0  0  0  0
 20 21  2  0  0  0  0
 20 45  1  0  0  0  0
 21 22  1  0  0  0  0
 21 46  1  0  0  0  0
 22 47  1  0  0  0  0
 23 24  1  0  0  0  0
 24 25  1  0  0  0  0
 24 48  1  0  0  0  0
 25 26  1  0  0  0  0
 26 49  1  0  0  0  0
 27 50  1  0  0  0  0
 28 29  1  0  0  0  0
 28 33  2  0  0  0  0
 29 30  2  0  0  0  0
 29 51  1  0  0  0  0
 30 31  1  0  0  0  0
 30 52  1  0  0  0  0
 31 32  2  0  0  0  0
 31 53  1  0  0  0  0
 32 33  1  0  0  0  0
 32 54  1  0  0  0  0
 33 55  1  0  0  0  0
M  END
$$$$
