CHEMBL3934764
 OpenBabel04072215373D

 74 78  0  0  0  0  0  0  0  0999 V2000
   -8.4361   16.4106    1.8342 C   0  0  0  0  0  0  0  0  0  0  0  0
   -8.1049   15.1305    1.1212 C   0  0  0  0  0  0  0  0  0  0  0  0
   -7.7011   15.1742   -0.2160 C   0  0  0  0  0  0  0  0  0  0  0  0
   -7.3605   14.0025   -0.8774 C   0  0  0  0  0  0  0  0  0  0  0  0
   -7.4347   12.7793   -0.2146 C   0  0  0  0  0  0  0  0  0  0  0  0
   -6.9555   11.7257   -0.8880 F   0  0  0  0  0  0  0  0  0  0  0  0
   -7.8912   12.6849    1.1094 C   0  0  0  0  0  0  0  0  0  0  0  0
   -8.0625   11.4626    1.8175 N   0  0  0  0  0  0  0  0  0  0  0  0
   -8.1599   10.2058    1.2401 C   0  0  0  0  0  0  0  0  0  0  0  0
   -8.1353    9.9576    0.0419 O   0  0  0  0  0  0  0  0  0  0  0  0
   -8.3791    9.2098    2.1861 N   0  0  0  0  0  0  0  0  0  0  0  0
   -8.5053    7.8671    1.7387 C   0  0  0  0  0  0  0  0  0  0  0  0
   -7.5293    7.2636    0.9392 C   0  0  0  0  0  0  0  0  0  0  0  0
   -7.7105    5.9548    0.4843 C   0  0  0  0  0  0  0  0  0  0  0  0
   -8.8725    5.2474    0.8158 C   0  0  0  0  0  0  0  0  0  0  0  0
   -8.9681    3.9751    0.3041 O   0  0  0  0  0  0  0  0  0  0  0  0
   -9.6581    3.0119    1.0068 C   0  0  0  0  0  0  0  0  0  0  0  0
   -9.6477    2.9147    2.3977 C   0  0  0  0  0  0  0  0  0  0  0  0
  -10.3771    1.9100    3.0032 C   0  0  0  0  0  0  0  0  0  0  0  0
  -11.0798    0.9633    2.3579 N   0  0  0  0  0  0  0  0  0  0  0  0
  -11.0508    1.0306    1.0005 C   0  0  0  0  0  0  0  0  0  0  0  0
  -11.7194    0.1294    0.1248 C   0  0  0  0  0  0  0  0  0  0  0  0
  -11.5621    0.4601   -1.2047 C   0  0  0  0  0  0  0  0  0  0  0  0
  -12.1730   -0.2092   -2.3440 C   0  0  0  0  0  0  0  0  0  0  0  0
  -12.8825   -1.1997   -2.2271 O   0  0  0  0  0  0  0  0  0  0  0  0
  -11.8930    0.3611   -3.5735 N   0  0  0  0  0  0  0  0  0  0  0  0
  -12.3114   -0.2360   -4.8204 C   0  0  0  0  0  0  0  0  0  0  0  0
  -13.8290   -0.2514   -5.0124 C   0  0  0  0  0  0  0  0  0  0  0  0
  -14.2219   -0.9276   -6.3329 C   0  0  0  0  0  0  0  0  0  0  0  0
  -13.7060   -2.2930   -6.4757 N   0  0  0  0  0  0  0  0  0  0  0  0
  -14.1664   -3.2145   -5.4195 C   0  0  0  0  0  0  0  0  0  0  0  0
  -13.4811   -4.5886   -5.5837 C   0  0  0  0  0  0  0  0  0  0  0  0
  -13.7699   -5.2541   -6.8700 N   0  0  0  0  0  0  0  0  0  0  0  0
  -15.1458   -5.7427   -6.9088 C   0  0  0  0  0  0  0  0  0  0  0  0
  -13.4865   -4.3096   -7.9725 C   0  0  0  0  0  0  0  0  0  0  0  0
  -14.0387   -2.8687   -7.7935 C   0  0  0  0  0  0  0  0  0  0  0  0
  -10.5408    1.8197   -1.3895 S   0  0  0  0  0  0  0  0  0  0  0  0
  -10.3622    2.0227    0.3055 C   0  0  0  0  0  0  0  0  0  0  0  0
   -9.8691    5.8684    1.5674 C   0  0  0  0  0  0  0  0  0  0  0  0
   -9.6600    7.1535    2.0604 C   0  0  0  0  0  0  0  0  0  0  0  0
  -10.6160    7.7332    2.7962 F   0  0  0  0  0  0  0  0  0  0  0  0
   -8.1993   13.8842    1.7781 C   0  0  0  0  0  0  0  0  0  0  0  0
   -8.2843   17.2782    1.1806 H   0  0  0  0  0  0  0  0  0  0  0  0
   -7.7869   16.5399    2.7054 H   0  0  0  0  0  0  0  0  0  0  0  0
   -9.4833   16.4143    2.1504 H   0  0  0  0  0  0  0  0  0  0  0  0
   -7.6284   16.1201   -0.7485 H   0  0  0  0  0  0  0  0  0  0  0  0
   -7.0173   14.0209   -1.9061 H   0  0  0  0  0  0  0  0  0  0  0  0
   -8.2431   11.5264    2.8064 H   0  0  0  0  0  0  0  0  0  0  0  0
   -9.0540    9.4725    2.8959 H   0  0  0  0  0  0  0  0  0  0  0  0
   -6.6342    7.8106    0.6544 H   0  0  0  0  0  0  0  0  0  0  0  0
   -6.9471    5.4889   -0.1417 H   0  0  0  0  0  0  0  0  0  0  0  0
   -9.0990    3.6195    3.0120 H   0  0  0  0  0  0  0  0  0  0  0  0
  -10.4162    1.8439    4.0886 H   0  0  0  0  0  0  0  0  0  0  0  0
  -12.3167   -0.7095    0.4633 H   0  0  0  0  0  0  0  0  0  0  0  0
  -11.1302    1.0226   -3.5973 H   0  0  0  0  0  0  0  0  0  0  0  0
  -11.8844   -1.2419   -4.8549 H   0  0  0  0  0  0  0  0  0  0  0  0
  -11.8508    0.3587   -5.6181 H   0  0  0  0  0  0  0  0  0  0  0  0
  -14.2094    0.7779   -5.0067 H   0  0  0  0  0  0  0  0  0  0  0  0
  -14.3341   -0.7455   -4.1755 H   0  0  0  0  0  0  0  0  0  0  0  0
  -13.8079   -0.3141   -7.1439 H   0  0  0  0  0  0  0  0  0  0  0  0
  -15.3130   -0.9050   -6.4404 H   0  0  0  0  0  0  0  0  0  0  0  0
  -15.2588   -3.3189   -5.4459 H   0  0  0  0  0  0  0  0  0  0  0  0
  -13.9063   -2.8460   -4.4233 H   0  0  0  0  0  0  0  0  0  0  0  0
  -13.7511   -5.2437   -4.7468 H   0  0  0  0  0  0  0  0  0  0  0  0
  -12.3936   -4.4491   -5.5054 H   0  0  0  0  0  0  0  0  0  0  0  0
  -15.3431   -6.3940   -6.0491 H   0  0  0  0  0  0  0  0  0  0  0  0
  -15.3060   -6.3528   -7.8036 H   0  0  0  0  0  0  0  0  0  0  0  0
  -15.8923   -4.9424   -6.9045 H   0  0  0  0  0  0  0  0  0  0  0  0
  -13.8433   -4.7217   -8.9247 H   0  0  0  0  0  0  0  0  0  0  0  0
  -12.3948   -4.2425   -8.0728 H   0  0  0  0  0  0  0  0  0  0  0  0
  -15.1262   -2.8764   -7.9410 H   0  0  0  0  0  0  0  0  0  0  0  0
  -13.6080   -2.2412   -8.5834 H   0  0  0  0  0  0  0  0  0  0  0  0
  -10.8135    5.3800    1.7774 H   0  0  0  0  0  0  0  0  0  0  0  0
   -8.5377   13.8638    2.8104 H   0  0  0  0  0  0  0  0  0  0  0  0
  1  2  1  0  0  0  0
  1 43  1  0  0  0  0
  1 44  1  0  0  0  0
  1 45  1  0  0  0  0
  2  3  1  0  0  0  0
  2 42  2  0  0  0  0
  3  4  2  0  0  0  0
  3 46  1  0  0  0  0
  4  5  1  0  0  0  0
  4 47  1  0  0  0  0
  5  6  1  0  0  0  0
  5  7  2  0  0  0  0
  7  8  1  0  0  0  0
  7 42  1  0  0  0  0
  8  9  1  0  0  0  0
  8 48  1  0  0  0  0
  9 10  2  0  0  0  0
  9 11  1  0  0  0  0
 11 12  1  0  0  0  0
 11 49  1  0  0  0  0
 12 13  1  0  0  0  0
 12 40  2  0  0  0  0
 13 14  2  0  0  0  0
 13 50  1  0  0  0  0
 14 15  1  0  0  0  0
 14 51  1  0  0  0  0
 15 16  1  0  0  0  0
 15 39  2  0  0  0  0
 16 17  1  0  0  0  0
 17 18  1  0  0  0  0
 17 38  2  0  0  0  0
 18 19  2  0  0  0  0
 18 52  1  0  0  0  0
 19 20  1  0  0  0  0
 19 53  1  0  0  0  0
 20 21  2  0  0  0  0
 21 22  1  0  0  0  0
 21 38  1  0  0  0  0
 22 23  2  0  0  0  0
 22 54  1  0  0  0  0
 23 24  1  0  0  0  0
 23 37  1  0  0  0  0
 24 25  2  0  0  0  0
 24 26  1  0  0  0  0
 26 27  1  0  0  0  0
 26 55  1  0  0  0  0
 27 28  1  0  0  0  0
 27 56  1  0  0  0  0
 27 57  1  0  0  0  0
 28 29  1  0  0  0  0
 28 58  1  0  0  0  0
 28 59  1  0  0  0  0
 29 30  1  0  0  0  0
 29 60  1  0  0  0  0
 29 61  1  0  0  0  0
 30 31  1  0  0  0  0
 30 36  1  0  0  0  0
 31 32  1  0  0  0  0
 31 62  1  0  0  0  0
 31 63  1  0  0  0  0
 32 33  1  0  0  0  0
 32 64  1  0  0  0  0
 32 65  1  0  0  0  0
 33 34  1  0  0  0  0
 33 35  1  0  0  0  0
 34 66  1  0  0  0  0
 34 67  1  0  0  0  0
 34 68  1  0  0  0  0
 35 36  1  0  0  0  0
 35 69  1  0  0  0  0
 35 70  1  0  0  0  0
 36 71  1  0  0  0  0
 36 72  1  0  0  0  0
 37 38  1  0  0  0  0
 39 40  1  0  0  0  0
 39 73  1  0  0  0  0
 40 41  1  0  0  0  0
 42 74  1  0  0  0  0
M  END
$$$$
