CHEMBL3690480
 OpenBabel04072215373D

 50 53  0  0  0  0  0  0  0  0999 V2000
   -1.8986   -1.4370   -0.0752 C   0  0  0  0  0  0  0  0  0  0  0  0
   -0.6599   -0.6039   -0.0272 C   0  0  0  0  0  0  0  0  0  0  0  0
    0.2582   -0.8142   -0.9912 N   0  0  0  0  0  0  0  0  0  0  0  0
    1.3909   -0.0610   -0.9991 N   0  0  0  0  0  0  0  0  0  0  0  0
    1.5761    0.8795   -0.0458 C   0  0  0  0  0  0  0  0  0  0  0  0
    2.8304    1.6765   -0.1060 C   0  0  0  0  0  0  0  0  0  0  0  0
    3.8277    1.4708   -1.1661 C   0  0  0  0  0  0  0  0  0  0  0  0
    4.9573    2.1942   -1.1854 C   0  0  0  0  0  0  0  0  0  0  0  0
    5.1743    3.1799   -0.2193 N   0  0  0  0  0  0  0  0  0  0  0  0
    6.2062    4.1094   -0.0612 C   0  0  0  0  0  0  0  0  0  0  0  0
    7.3219    4.3644   -0.9909 C   0  0  0  0  0  0  0  0  0  0  0  0
    7.1340    4.2269   -2.3723 C   0  0  0  0  0  0  0  0  0  0  0  0
    8.1780    4.4402   -3.2624 C   0  0  0  0  0  0  0  0  0  0  0  0
    9.4077    4.8805   -2.7951 C   0  0  0  0  0  0  0  0  0  0  0  0
    9.6172    5.1271   -1.4380 C   0  0  0  0  0  0  0  0  0  0  0  0
   10.8266    5.6821   -0.9444 N   0  0  0  0  0  0  0  0  0  0  0  0
   11.8812    6.1284   -1.7174 C   0  0  0  0  0  0  0  0  0  0  0  0
   11.9573    6.1274   -2.9346 O   0  0  0  0  0  0  0  0  0  0  0  0
   12.9495    6.5710   -0.9635 N   0  0  0  0  0  0  0  0  0  0  0  0
   14.1308    7.0713   -1.6829 C   0  0  0  0  0  0  0  0  0  0  0  0
   14.0367    8.4997   -2.2430 C   0  0  0  0  0  0  0  0  0  0  0  0
   12.9221    9.1407   -1.8236 F   0  0  0  0  0  0  0  0  0  0  0  0
   15.0942    9.2320   -1.8079 F   0  0  0  0  0  0  0  0  0  0  0  0
   14.0607    8.5299   -3.5914 F   0  0  0  0  0  0  0  0  0  0  0  0
    8.5745    4.8289   -0.5335 C   0  0  0  0  0  0  0  0  0  0  0  0
    5.8846    4.7531    1.1240 C   0  0  0  0  0  0  0  0  0  0  0  0
    4.7035    4.3118    1.6566 N   0  0  0  0  0  0  0  0  0  0  0  0
    4.2746    3.3897    0.8248 C   0  0  0  0  0  0  0  0  0  0  0  0
    3.0800    2.6085    0.8473 C   0  0  0  0  0  0  0  0  0  0  0  0
    0.6915    1.1238    0.9391 N   0  0  0  0  0  0  0  0  0  0  0  0
   -0.4327    0.3697    0.9350 C   0  0  0  0  0  0  0  0  0  0  0  0
   -1.4204    0.6506    2.0263 C   0  0  0  0  0  0  0  0  0  0  0  0
   -1.8469   -2.1638   -0.8928 H   0  0  0  0  0  0  0  0  0  0  0  0
   -2.7747   -0.8036   -0.2447 H   0  0  0  0  0  0  0  0  0  0  0  0
   -2.0268   -1.9927    0.8583 H   0  0  0  0  0  0  0  0  0  0  0  0
    3.6382    0.7191   -1.9277 H   0  0  0  0  0  0  0  0  0  0  0  0
    5.7135    2.0308   -1.9403 H   0  0  0  0  0  0  0  0  0  0  0  0
    6.1657    3.9721   -2.7919 H   0  0  0  0  0  0  0  0  0  0  0  0
    8.0285    4.2900   -4.3288 H   0  0  0  0  0  0  0  0  0  0  0  0
   10.1815    5.0390   -3.5376 H   0  0  0  0  0  0  0  0  0  0  0  0
   10.9042    5.7985    0.0536 H   0  0  0  0  0  0  0  0  0  0  0  0
   12.7357    6.9968   -0.0742 H   0  0  0  0  0  0  0  0  0  0  0  0
   14.3499    6.3833   -2.5096 H   0  0  0  0  0  0  0  0  0  0  0  0
   14.9677    7.0027   -0.9823 H   0  0  0  0  0  0  0  0  0  0  0  0
    8.7312    4.9769    0.5320 H   0  0  0  0  0  0  0  0  0  0  0  0
    6.4340    5.5524    1.6057 H   0  0  0  0  0  0  0  0  0  0  0  0
    2.3893    2.8000    1.6620 H   0  0  0  0  0  0  0  0  0  0  0  0
   -1.0642    1.4606    2.6715 H   0  0  0  0  0  0  0  0  0  0  0  0
   -1.5644   -0.2366    2.6504 H   0  0  0  0  0  0  0  0  0  0  0  0
   -2.3805    0.9586    1.6015 H   0  0  0  0  0  0  0  0  0  0  0  0
  1  2  1  0  0  0  0
  1 33  1  0  0  0  0
  1 34  1  0  0  0  0
  1 35  1  0  0  0  0
  2  3  1  0  0  0  0
  2 31  2  0  0  0  0
  3  4  2  0  0  0  0
  4  5  1  0  0  0  0
  5  6  1  0  0  0  0
  5 30  2  0  0  0  0
  6  7  1  0  0  0  0
  6 29  2  0  0  0  0
  7  8  2  0  0  0  0
  7 36  1  0  0  0  0
  8  9  1  0  0  0  0
  8 37  1  0  0  0  0
  9 10  1  0  0  0  0
  9 28  1  0  0  0  0
 10 11  1  0  0  0  0
 10 26  2  0  0  0  0
 11 12  1  0  0  0  0
 11 25  2  0  0  0  0
 12 13  2  0  0  0  0
 12 38  1  0  0  0  0
 13 14  1  0  0  0  0
 13 39  1  0  0  0  0
 14 15  2  0  0  0  0
 14 40  1  0  0  0  0
 15 16  1  0  0  0  0
 15 25  1  0  0  0  0
 16 17  1  0  0  0  0
 16 41  1  0  0  0  0
 17 18  2  0  0  0  0
 17 19  1  0  0  0  0
 19 20  1  0  0  0  0
 19 42  1  0  0  0  0
 20 21  1  0  0  0  0
 20 43  1  0  0  0  0
 20 44  1  0  0  0  0
 21 22  1  0  0  0  0
 21 23  1  0  0  0  0
 21 24  1  0  0  0  0
 25 45  1  0  0  0  0
 26 27  1  0  0  0  0
 26 46  1  0  0  0  0
 27 28  2  0  0  0  0
 28 29  1  0  0  0  0
 29 47  1  0  0  0  0
 30 31  1  0  0  0  0
 31 32  1  0  0  0  0
 32 48  1  0  0  0  0
 32 49  1  0  0  0  0
 32 50  1  0  0  0  0
M  END
$$$$
