CHEMBL1762526
 OpenBabel04072215363D

 69 73  0  0  0  0  0  0  0  0999 V2000
    3.0916   -3.1411   -2.2792 C   0  0  0  0  0  0  0  0  0  0  0  0
    1.8273   -2.4554   -1.8539 C   0  0  0  0  0  0  0  0  0  0  0  0
    1.6608   -1.0901   -2.0548 C   0  0  0  0  0  0  0  0  0  0  0  0
    0.5019   -0.4636   -1.6127 C   0  0  0  0  0  0  0  0  0  0  0  0
   -0.5107   -1.1792   -0.9410 C   0  0  0  0  0  0  0  0  0  0  0  0
   -1.6627   -0.3505   -0.4274 C   0  0  0  0  0  0  0  0  0  0  0  0
   -0.3953   -2.5852   -0.7682 C   0  0  0  0  0  0  0  0  0  0  0  0
   -1.4015   -3.3688   -0.1555 N   0  0  0  0  0  0  0  0  0  0  0  0
   -1.0403   -4.5611    0.6176 C   0  0  0  0  0  0  0  0  0  0  0  0
   -2.8088   -3.2238   -0.2531 C   0  0  0  0  0  0  0  0  0  0  0  0
   -3.3691   -2.7782   -1.4385 C   0  0  0  0  0  0  0  0  0  0  0  0
   -4.7206   -2.5688   -1.4395 C   0  0  0  0  0  0  0  0  0  0  0  0
   -5.4990   -2.8250   -0.3839 N   0  0  0  0  0  0  0  0  0  0  0  0
   -4.9063   -3.3000    0.7203 C   0  0  0  0  0  0  0  0  0  0  0  0
   -5.6731   -3.5472    1.8565 N   0  0  0  0  0  0  0  0  0  0  0  0
   -7.0382   -3.8664    1.9342 C   0  0  0  0  0  0  0  0  0  0  0  0
   -7.7116   -4.4915    0.8763 C   0  0  0  0  0  0  0  0  0  0  0  0
   -9.0799   -4.7553    0.9189 C   0  0  0  0  0  0  0  0  0  0  0  0
   -9.7401   -5.4311   -0.0898 N   0  0  0  0  0  0  0  0  0  0  0  0
   -9.0921   -6.4892   -0.8761 C   0  0  0  0  0  0  0  0  0  0  0  0
   -8.9234   -6.0621   -2.3382 C   0  0  0  0  0  0  0  0  0  0  0  0
  -10.1740   -5.6391   -2.9085 O   0  0  0  0  0  0  0  0  0  0  0  0
  -10.6908   -4.5134   -2.1773 C   0  0  0  0  0  0  0  0  0  0  0  0
  -10.9481   -4.8553   -0.6988 C   0  0  0  0  0  0  0  0  0  0  0  0
   -9.7730   -4.3340    2.0641 C   0  0  0  0  0  0  0  0  0  0  0  0
   -9.1526   -3.7201    3.1678 C   0  0  0  0  0  0  0  0  0  0  0  0
   -9.8799   -3.3654    4.2858 N   0  0  0  0  0  0  0  0  0  0  0  0
   -9.5326   -2.2409    5.1654 C   0  0  0  0  0  0  0  0  0  0  0  0
   -9.3629   -2.7461    6.6068 C   0  0  0  0  0  0  0  0  0  0  0  0
  -10.5376   -3.4413    7.0604 O   0  0  0  0  0  0  0  0  0  0  0  0
  -10.8040   -4.5726    6.2148 C   0  0  0  0  0  0  0  0  0  0  0  0
  -11.0296   -4.1582    4.7503 C   0  0  0  0  0  0  0  0  0  0  0  0
   -7.7718   -3.5013    3.0716 C   0  0  0  0  0  0  0  0  0  0  0  0
   -3.5843   -3.5083    0.8192 N   0  0  0  0  0  0  0  0  0  0  0  0
    0.7958   -3.1864   -1.2372 C   0  0  0  0  0  0  0  0  0  0  0  0
    3.7887   -2.4402   -2.7514 H   0  0  0  0  0  0  0  0  0  0  0  0
    2.8706   -3.9328   -3.0008 H   0  0  0  0  0  0  0  0  0  0  0  0
    3.5949   -3.5740   -1.4082 H   0  0  0  0  0  0  0  0  0  0  0  0
    2.4321   -0.4991   -2.5422 H   0  0  0  0  0  0  0  0  0  0  0  0
    0.3985    0.6088   -1.7693 H   0  0  0  0  0  0  0  0  0  0  0  0
   -1.3593    0.6920   -0.2772 H   0  0  0  0  0  0  0  0  0  0  0  0
   -2.0155   -0.7068    0.5440 H   0  0  0  0  0  0  0  0  0  0  0  0
   -2.4808   -0.3353   -1.1522 H   0  0  0  0  0  0  0  0  0  0  0  0
    0.0380   -4.7224    0.7116 H   0  0  0  0  0  0  0  0  0  0  0  0
   -1.4609   -5.4608    0.1491 H   0  0  0  0  0  0  0  0  0  0  0  0
   -1.4148   -4.4984    1.6460 H   0  0  0  0  0  0  0  0  0  0  0  0
   -2.7706   -2.5708   -2.3128 H   0  0  0  0  0  0  0  0  0  0  0  0
   -5.2300   -2.1615   -2.3062 H   0  0  0  0  0  0  0  0  0  0  0  0
   -5.1008   -3.7790    2.6531 H   0  0  0  0  0  0  0  0  0  0  0  0
   -7.1480   -4.7701   -0.0088 H   0  0  0  0  0  0  0  0  0  0  0  0
   -9.7500   -7.3659   -0.8382 H   0  0  0  0  0  0  0  0  0  0  0  0
   -8.1312   -6.8041   -0.4541 H   0  0  0  0  0  0  0  0  0  0  0  0
   -8.5624   -6.9099   -2.9294 H   0  0  0  0  0  0  0  0  0  0  0  0
   -8.1934   -5.2504   -2.4373 H   0  0  0  0  0  0  0  0  0  0  0  0
  -11.6294   -4.2149   -2.6551 H   0  0  0  0  0  0  0  0  0  0  0  0
   -9.9874   -3.6778   -2.2732 H   0  0  0  0  0  0  0  0  0  0  0  0
  -11.7450   -5.6046   -0.6340 H   0  0  0  0  0  0  0  0  0  0  0  0
  -11.2958   -3.9536   -0.1816 H   0  0  0  0  0  0  0  0  0  0  0  0
  -10.8447   -4.5074    2.0924 H   0  0  0  0  0  0  0  0  0  0  0  0
  -10.3650   -1.5267    5.1341 H   0  0  0  0  0  0  0  0  0  0  0  0
   -8.6394   -1.6945    4.8465 H   0  0  0  0  0  0  0  0  0  0  0  0
   -9.2000   -1.8966    7.2820 H   0  0  0  0  0  0  0  0  0  0  0  0
   -8.4998   -3.4147    6.6901 H   0  0  0  0  0  0  0  0  0  0  0  0
  -11.7015   -5.0715    6.5990 H   0  0  0  0  0  0  0  0  0  0  0  0
   -9.9701   -5.2787    6.2965 H   0  0  0  0  0  0  0  0  0  0  0  0
  -11.9317   -3.5402    4.6716 H   0  0  0  0  0  0  0  0  0  0  0  0
  -11.1904   -5.0692    4.1643 H   0  0  0  0  0  0  0  0  0  0  0  0
   -7.2364   -3.0366    3.8939 H   0  0  0  0  0  0  0  0  0  0  0  0
    0.9373   -4.2607   -1.1453 H   0  0  0  0  0  0  0  0  0  0  0  0
  1  2  1  0  0  0  0
  1 36  1  0  0  0  0
  1 37  1  0  0  0  0
  1 38  1  0  0  0  0
  2  3  1  0  0  0  0
  2 35  2  0  0  0  0
  3  4  2  0  0  0  0
  3 39  1  0  0  0  0
  4  5  1  0  0  0  0
  4 40  1  0  0  0  0
  5  6  1  0  0  0  0
  5  7  2  0  0  0  0
  6 41  1  0  0  0  0
  6 42  1  0  0  0  0
  6 43  1  0  0  0  0
  7  8  1  0  0  0  0
  7 35  1  0  0  0  0
  8  9  1  0  0  0  0
  8 10  1  0  0  0  0
  9 44  1  0  0  0  0
  9 45  1  0  0  0  0
  9 46  1  0  0  0  0
 10 11  1  0  0  0  0
 10 34  2  0  0  0  0
 11 12  2  0  0  0  0
 11 47  1  0  0  0  0
 12 13  1  0  0  0  0
 12 48  1  0  0  0  0
 13 14  2  0  0  0  0
 14 15  1  0  0  0  0
 14 34  1  0  0  0  0
 15 16  1  0  0  0  0
 15 49  1  0  0  0  0
 16 17  1  0  0  0  0
 16 33  2  0  0  0  0
 17 18  2  0  0  0  0
 17 50  1  0  0  0  0
 18 19  1  0  0  0  0
 18 25  1  0  0  0  0
 19 20  1  0  0  0  0
 19 24  1  0  0  0  0
 20 21  1  0  0  0  0
 20 51  1  0  0  0  0
 20 52  1  0  0  0  0
 21 22  1  0  0  0  0
 21 53  1  0  0  0  0
 21 54  1  0  0  0  0
 22 23  1  0  0  0  0
 23 24  1  0  0  0  0
 23 55  1  0  0  0  0
 23 56  1  0  0  0  0
 24 57  1  0  0  0  0
 24 58  1  0  0  0  0
 25 26  2  0  0  0  0
 25 59  1  0  0  0  0
 26 27  1  0  0  0  0
 26 33  1  0  0  0  0
 27 28  1  0  0  0  0
 27 32  1  0  0  0  0
 28 29  1  0  0  0  0
 28 60  1  0  0  0  0
 28 61  1  0  0  0  0
 29 30  1  0  0  0  0
 29 62  1  0  0  0  0
 29 63  1  0  0  0  0
 30 31  1  0  0  0  0
 31 32  1  0  0  0  0
 31 64  1  0  0  0  0
 31 65  1  0  0  0  0
 32 66  1  0  0  0  0
 32 67  1  0  0  0  0
 33 68  1  0  0  0  0
 35 69  1  0  0  0  0
M  END
$$$$
