CHEMBL387174
 OpenBabel04072215373D

 66 71  0  0  0  0  0  0  0  0999 V2000
    3.0808    1.7295   -0.2267 C   0  0  0  0  0  0  0  0  0  0  0  0
    2.8869    0.2215   -0.2527 C   0  0  0  0  0  0  0  0  0  0  0  0
    3.4500   -0.4626   -1.5105 C   0  0  0  0  0  0  0  0  0  0  0  0
    4.9058   -0.5533   -1.5786 N   0  0  0  0  0  0  0  0  0  0  0  0
    5.6372   -1.5721   -0.9094 C   0  0  0  0  0  0  0  0  0  0  0  0
    5.2229   -2.6889   -0.1583 C   0  0  0  0  0  0  0  0  0  0  0  0
    6.1997   -3.5334    0.4143 C   0  0  0  0  0  0  0  0  0  0  0  0
    7.5684   -3.3245    0.2563 C   0  0  0  0  0  0  0  0  0  0  0  0
    8.6023   -4.1684    0.7852 N   0  0  0  0  0  0  0  0  0  0  0  0
    8.4020   -5.3108    1.5467 C   0  0  0  0  0  0  0  0  0  0  0  0
    7.2908   -5.6984    1.8799 O   0  0  0  0  0  0  0  0  0  0  0  0
    9.5829   -5.9583    1.9120 N   0  0  0  0  0  0  0  0  0  0  0  0
    9.5962   -7.1995    2.6435 C   0  0  0  0  0  0  0  0  0  0  0  0
    8.4976   -8.0571    2.6404 C   0  0  0  0  0  0  0  0  0  0  0  0
    8.4480   -9.1667    3.5033 C   0  0  0  0  0  0  0  0  0  0  0  0
    9.5133   -9.4541    4.3528 C   0  0  0  0  0  0  0  0  0  0  0  0
    9.3890  -10.5625    5.3619 C   0  0  0  0  0  0  0  0  0  0  0  0
   10.6743   -8.6754    4.2617 C   0  0  0  0  0  0  0  0  0  0  0  0
   10.7169   -7.5529    3.4079 C   0  0  0  0  0  0  0  0  0  0  0  0
    7.9615   -2.1945   -0.4743 C   0  0  0  0  0  0  0  0  0  0  0  0
    7.0054   -1.3045   -1.0404 C   0  0  0  0  0  0  0  0  0  0  0  0
    6.9947   -0.0877   -1.7070 C   0  0  0  0  0  0  0  0  0  0  0  0
    8.1724    0.6639   -1.8747 C   0  0  0  0  0  0  0  0  0  0  0  0
    7.9763    1.9905   -2.2540 C   0  0  0  0  0  0  0  0  0  0  0  0
    6.7428    2.5401   -2.5631 C   0  0  0  0  0  0  0  0  0  0  0  0
    5.6673    1.6512   -2.8076 C   0  0  0  0  0  0  0  0  0  0  0  0
    5.7742    0.4041   -2.1197 C   0  0  0  0  0  0  0  0  0  0  0  0
    4.6197    2.2537   -3.7611 C   0  0  0  0  0  0  0  0  0  0  0  0
    4.2096    3.6387   -3.3270 C   0  0  0  0  0  0  0  0  0  0  0  0
    2.9703    4.3184   -3.7633 C   0  0  0  0  0  0  0  0  0  0  0  0
    2.1928    3.9737   -4.7310 N   0  0  0  0  0  0  0  0  0  0  0  0
    5.0627    4.4116   -2.6299 C   0  0  0  0  0  0  0  0  0  0  0  0
    6.5174    4.0275   -2.5388 C   0  0  0  0  0  0  0  0  0  0  0  0
    9.2549    2.6484   -2.2682 C   0  0  0  0  0  0  0  0  0  0  0  0
    9.5995    3.7873   -2.5456 O   0  0  0  0  0  0  0  0  0  0  0  0
   10.1545    1.6581   -1.8929 N   0  0  0  0  0  0  0  0  0  0  0  0
    9.5730    0.3727   -1.5795 C   0  0  0  0  0  0  0  0  0  0  0  0
    2.6441    2.1520    0.6853 H   0  0  0  0  0  0  0  0  0  0  0  0
    2.5834    2.2005   -1.0800 H   0  0  0  0  0  0  0  0  0  0  0  0
    4.1390    1.9993   -0.2386 H   0  0  0  0  0  0  0  0  0  0  0  0
    1.8073    0.0261   -0.2050 H   0  0  0  0  0  0  0  0  0  0  0  0
    3.3209   -0.2125    0.6557 H   0  0  0  0  0  0  0  0  0  0  0  0
    3.0882    0.0185   -2.4222 H   0  0  0  0  0  0  0  0  0  0  0  0
    3.0714   -1.4927   -1.5352 H   0  0  0  0  0  0  0  0  0  0  0  0
    4.1725   -2.9083    0.0084 H   0  0  0  0  0  0  0  0  0  0  0  0
    5.8219   -4.3772    0.9917 H   0  0  0  0  0  0  0  0  0  0  0  0
    9.5528   -3.9356    0.5533 H   0  0  0  0  0  0  0  0  0  0  0  0
   10.4249   -5.4159    1.9501 H   0  0  0  0  0  0  0  0  0  0  0  0
    7.6368   -7.8982    2.0025 H   0  0  0  0  0  0  0  0  0  0  0  0
    7.5520   -9.7696    3.5302 H   0  0  0  0  0  0  0  0  0  0  0  0
    8.3821  -10.9979    5.3500 H   0  0  0  0  0  0  0  0  0  0  0  0
    9.5539  -10.1727    6.3730 H   0  0  0  0  0  0  0  0  0  0  0  0
   10.1035  -11.3656    5.1603 H   0  0  0  0  0  0  0  0  0  0  0  0
   11.5363   -8.9163    4.8804 H   0  0  0  0  0  0  0  0  0  0  0  0
   11.6295   -6.9580    3.3912 H   0  0  0  0  0  0  0  0  0  0  0  0
    9.0172   -1.9943   -0.5975 H   0  0  0  0  0  0  0  0  0  0  0  0
    3.7873    1.5780   -3.9617 H   0  0  0  0  0  0  0  0  0  0  0  0
    5.1363    2.3822   -4.7305 H   0  0  0  0  0  0  0  0  0  0  0  0
    2.7392    5.2708   -3.2514 H   0  0  0  0  0  0  0  0  0  0  0  0
    2.5179    3.1307   -5.2066 H   0  0  0  0  0  0  0  0  0  0  0  0
    4.7812    5.3790   -2.2246 H   0  0  0  0  0  0  0  0  0  0  0  0
    6.9163    4.4244   -1.5982 H   0  0  0  0  0  0  0  0  0  0  0  0
    7.0449    4.5042   -3.3706 H   0  0  0  0  0  0  0  0  0  0  0  0
   11.1396    1.8714   -1.8470 H   0  0  0  0  0  0  0  0  0  0  0  0
    9.7483    0.1694   -0.5226 H   0  0  0  0  0  0  0  0  0  0  0  0
    9.9936   -0.3931   -2.2336 H   0  0  0  0  0  0  0  0  0  0  0  0
  1  2  1  0  0  0  0
  1 38  1  0  0  0  0
  1 39  1  0  0  0  0
  1 40  1  0  0  0  0
  2  3  1  0  0  0  0
  2 41  1  0  0  0  0
  2 42  1  0  0  0  0
  3  4  1  0  0  0  0
  3 43  1  0  0  0  0
  3 44  1  0  0  0  0
  4  5  1  0  0  0  0
  4 27  1  0  0  0  0
  5  6  1  0  0  0  0
  5 21  2  0  0  0  0
  6  7  2  0  0  0  0
  6 45  1  0  0  0  0
  7  8  1  0  0  0  0
  7 46  1  0  0  0  0
  8  9  1  0  0  0  0
  8 20  2  0  0  0  0
  9 10  1  0  0  0  0
  9 47  1  0  0  0  0
 10 11  2  0  0  0  0
 10 12  1  0  0  0  0
 12 13  1  0  0  0  0
 12 48  1  0  0  0  0
 13 14  1  0  0  0  0
 13 19  2  0  0  0  0
 14 15  2  0  0  0  0
 14 49  1  0  0  0  0
 15 16  1  0  0  0  0
 15 50  1  0  0  0  0
 16 17  1  0  0  0  0
 16 18  2  0  0  0  0
 17 51  1  0  0  0  0
 17 52  1  0  0  0  0
 17 53  1  0  0  0  0
 18 19  1  0  0  0  0
 18 54  1  0  0  0  0
 19 55  1  0  0  0  0
 20 21  1  0  0  0  0
 20 56  1  0  0  0  0
 21 22  1  0  0  0  0
 22 23  1  0  0  0  0
 22 27  2  0  0  0  0
 23 24  2  0  0  0  0
 23 37  1  0  0  0  0
 24 25  1  0  0  0  0
 24 34  1  0  0  0  0
 25 26  2  0  0  0  0
 25 33  1  0  0  0  0
 26 27  1  0  0  0  0
 26 28  1  0  0  0  0
 28 29  1  0  0  0  0
 28 57  1  0  0  0  0
 28 58  1  0  0  0  0
 29 30  1  0  0  0  0
 29 32  2  0  0  0  0
 30 31  2  0  0  0  0
 30 59  1  0  0  0  0
 31 60  1  0  0  0  0
 32 33  1  0  0  0  0
 32 61  1  0  0  0  0
 33 62  1  0  0  0  0
 33 63  1  0  0  0  0
 34 35  2  0  0  0  0
 34 36  1  0  0  0  0
 36 37  1  0  0  0  0
 36 64  1  0  0  0  0
 37 65  1  0  0  0  0
 37 66  1  0  0  0  0
M  END
$$$$
