CHEMBL3676378
 OpenBabel04072215373D

 64 66  0  0  1  0  0  0  0  0999 V2000
    3.1858   -3.8663    0.2468 C   0  0  0  0  0  0  0  0  0  0  0  0
    3.3992   -2.9562   -0.7125 C   0  0  0  0  0  0  0  0  0  0  0  0
    3.6627   -1.5450   -0.3262 C   0  0  0  0  0  0  0  0  0  0  0  0
    3.1878   -1.0468    0.6905 O   0  0  0  0  0  0  0  0  0  0  0  0
    4.5104   -0.8100   -1.1220 N   0  0  0  0  0  0  0  0  0  0  0  0
    5.3752   -1.4070   -2.0547 C   0  0  0  0  0  0  0  0  0  0  0  0
    6.4093   -2.1972   -1.5565 C   0  0  0  0  0  0  0  0  0  0  0  0
    7.0623   -3.1187   -2.3990 C   0  0  0  0  0  0  0  0  0  0  0  0
    7.9733   -4.0846   -1.9465 C   0  0  0  0  0  0  0  0  0  0  0  0
    8.2552   -4.2008   -0.5580 N   0  0  0  0  0  0  0  0  0  0  0  0
    8.8570   -5.3469    0.0152 C   0  0  0  0  0  0  0  0  0  0  0  0
    8.4173   -6.6361   -0.3218 C   0  0  0  0  0  0  0  0  0  0  0  0
    9.1073   -7.7648    0.1188 C   0  0  0  0  0  0  0  0  0  0  0  0
   10.2334   -7.6105    0.9255 C   0  0  0  0  0  0  0  0  0  0  0  0
   11.2380   -9.1321    1.4195 Br  0  0  0  0  0  0  0  0  0  0  0  0
   10.6383   -6.3446    1.3422 C   0  0  0  0  0  0  0  0  0  0  0  0
    9.9412   -5.2268    0.8915 C   0  0  0  0  0  0  0  0  0  0  0  0
   10.3518   -4.0051    1.2678 F   0  0  0  0  0  0  0  0  0  0  0  0
    8.5310   -4.9744   -2.7888 N   0  0  0  0  0  0  0  0  0  0  0  0
    8.1625   -4.9197   -4.0708 C   0  0  0  0  0  0  0  0  0  0  0  0
    7.2777   -4.0646   -4.5940 N   0  0  0  0  0  0  0  0  0  0  0  0
    6.7218   -3.1822   -3.7586 C   0  0  0  0  0  0  0  0  0  0  0  0
    5.7431   -2.3189   -4.2481 C   0  0  0  0  0  0  0  0  0  0  0  0
    5.0743   -1.4101   -3.4213 C   0  0  0  0  0  0  0  0  0  0  0  0
    4.0896   -0.6575   -4.0220 O   0  0  0  0  0  0  0  0  0  0  0  0
    4.0796    0.7180   -3.6075 C   0  0  0  0  0  0  0  0  0  0  0  0
    3.1554    1.5941   -4.4855 C   0  0  3  0  0  0  0  0  0  0  0  0
    1.7076    1.0721   -4.4522 C   0  0  0  0  0  0  0  0  0  0  0  0
    0.7431    1.9137   -5.2807 C   0  0  0  0  0  0  0  0  0  0  0  0
    3.1991    2.9818   -4.0100 N   0  0  0  0  0  0  0  0  0  0  0  0
    4.2261    3.8415   -4.3421 C   0  0  0  0  0  0  0  0  0  0  0  0
    5.1083    3.5619   -5.1490 O   0  0  0  0  0  0  0  0  0  0  0  0
    4.1750    5.1852   -3.6008 C   0  0  0  0  0  0  0  0  0  0  0  0
    4.3483    4.9925   -2.1388 N   0  0  0  0  0  0  0  0  0  0  0  0
    5.6834    4.4556   -1.8426 C   0  0  0  0  0  0  0  0  0  0  0  0
    4.2032    6.2883   -1.4575 C   0  0  0  0  0  0  0  0  0  0  0  0
    3.0525   -4.9127   -0.0006 H   0  0  0  0  0  0  0  0  0  0  0  0
    3.1540   -3.5848    1.2956 H   0  0  0  0  0  0  0  0  0  0  0  0
    3.4492   -3.2417   -1.7558 H   0  0  0  0  0  0  0  0  0  0  0  0
    4.8839   -0.0366   -0.5839 H   0  0  0  0  0  0  0  0  0  0  0  0
    6.6264   -2.1801   -0.4918 H   0  0  0  0  0  0  0  0  0  0  0  0
    8.6589   -3.3407   -0.1960 H   0  0  0  0  0  0  0  0  0  0  0  0
    7.5526   -6.7616   -0.9705 H   0  0  0  0  0  0  0  0  0  0  0  0
    8.7782   -8.7488   -0.2048 H   0  0  0  0  0  0  0  0  0  0  0  0
   11.5025   -6.2104    1.9827 H   0  0  0  0  0  0  0  0  0  0  0  0
    8.6152   -5.6406   -4.7397 H   0  0  0  0  0  0  0  0  0  0  0  0
    5.4662   -2.3874   -5.2993 H   0  0  0  0  0  0  0  0  0  0  0  0
    5.1007    1.1199   -3.6306 H   0  0  0  0  0  0  0  0  0  0  0  0
    3.6948    0.8015   -2.5877 H   0  0  0  0  0  0  0  0  0  0  0  0
    3.5189    1.5658   -5.5204 H   0  0  0  0  0  0  0  0  0  0  0  0
    1.3479    1.0520   -3.4159 H   0  0  0  0  0  0  0  0  0  0  0  0
    1.6733    0.0410   -4.8231 H   0  0  0  0  0  0  0  0  0  0  0  0
    0.7939    2.9750   -5.0180 H   0  0  0  0  0  0  0  0  0  0  0  0
   -0.2859    1.5823   -5.1070 H   0  0  0  0  0  0  0  0  0  0  0  0
    0.9560    1.8142   -6.3495 H   0  0  0  0  0  0  0  0  0  0  0  0
    2.6902    3.2201   -3.1635 H   0  0  0  0  0  0  0  0  0  0  0  0
    3.1922    5.6287   -3.8058 H   0  0  0  0  0  0  0  0  0  0  0  0
    4.9368    5.8525   -4.0204 H   0  0  0  0  0  0  0  0  0  0  0  0
    5.8221    3.4666   -2.2916 H   0  0  0  0  0  0  0  0  0  0  0  0
    5.8066    4.3172   -0.7621 H   0  0  0  0  0  0  0  0  0  0  0  0
    6.4858    5.1129   -2.1981 H   0  0  0  0  0  0  0  0  0  0  0  0
    3.2143    6.7195   -1.6481 H   0  0  0  0  0  0  0  0  0  0  0  0
    4.9600    7.0141   -1.7802 H   0  0  0  0  0  0  0  0  0  0  0  0
    4.2873    6.1623   -0.3728 H   0  0  0  0  0  0  0  0  0  0  0  0
  1  2  2  0  0  0  0
  1 37  1  0  0  0  0
  1 38  1  0  0  0  0
  2  3  1  0  0  0  0
  2 39  1  0  0  0  0
  3  4  2  0  0  0  0
  3  5  1  0  0  0  0
  5  6  1  0  0  0  0
  5 40  1  0  0  0  0
  6  7  1  0  0  0  0
  6 24  2  0  0  0  0
  7  8  2  0  0  0  0
  7 41  1  0  0  0  0
  8  9  1  0  0  0  0
  8 22  1  0  0  0  0
  9 10  1  0  0  0  0
  9 19  2  0  0  0  0
 10 11  1  0  0  0  0
 10 42  1  0  0  0  0
 11 12  1  0  0  0  0
 11 17  2  0  0  0  0
 12 13  2  0  0  0  0
 12 43  1  0  0  0  0
 13 14  1  0  0  0  0
 13 44  1  0  0  0  0
 14 15  1  0  0  0  0
 14 16  2  0  0  0  0
 16 17  1  0  0  0  0
 16 45  1  0  0  0  0
 17 18  1  0  0  0  0
 19 20  1  0  0  0  0
 20 21  2  0  0  0  0
 20 46  1  0  0  0  0
 21 22  1  0  0  0  0
 22 23  2  0  0  0  0
 23 24  1  0  0  0  0
 23 47  1  0  0  0  0
 24 25  1  0  0  0  0
 25 26  1  0  0  0  0
 26 27  1  0  0  0  0
 26 48  1  0  0  0  0
 26 49  1  0  0  0  0
 27 28  1  0  0  0  0
 27 30  1  0  0  0  0
 27 50  1  0  0  0  0
 28 29  1  0  0  0  0
 28 51  1  0  0  0  0
 28 52  1  0  0  0  0
 29 53  1  0  0  0  0
 29 54  1  0  0  0  0
 29 55  1  0  0  0  0
 30 31  1  0  0  0  0
 30 56  1  0  0  0  0
 31 32  2  0  0  0  0
 31 33  1  0  0  0  0
 33 34  1  0  0  0  0
 33 57  1  0  0  0  0
 33 58  1  0  0  0  0
 34 35  1  0  0  0  0
 34 36  1  0  0  0  0
 35 59  1  0  0  0  0
 35 60  1  0  0  0  0
 35 61  1  0  0  0  0
 36 62  1  0  0  0  0
 36 63  1  0  0  0  0
 36 64  1  0  0  0  0
M  END
$$$$
