CHEMBL3924500
 OpenBabel04072215373D

 34 36  0  0  0  0  0  0  0  0999 V2000
    3.5476    0.7751   -1.0081 S   0  0  0  0  0  0  0  0  0  0  0  0
    2.5486   -0.2259   -0.1113 C   0  0  0  0  0  0  0  0  0  0  0  0
    3.1469   -0.9957    0.8557 N   0  0  0  0  0  0  0  0  0  0  0  0
    2.4234   -1.5716    1.9292 N   0  0  0  0  0  0  0  0  0  0  0  0
    3.3170   -1.8698    3.0146 C   0  0  0  0  0  0  0  0  0  0  0  0
    4.6451   -1.6196    2.8550 N   0  0  0  0  0  0  0  0  0  0  0  0
    5.5394   -1.8846    3.8450 N   0  0  0  0  0  0  0  0  0  0  0  0
    5.0908   -2.3766    5.0122 C   0  0  0  0  0  0  0  0  0  0  0  0
    3.7505   -2.6416    5.2588 C   0  0  0  0  0  0  0  0  0  0  0  0
    3.3219   -3.1292    6.5055 C   0  0  0  0  0  0  0  0  0  0  0  0
    1.9718   -3.3783    6.7412 C   0  0  0  0  0  0  0  0  0  0  0  0
    1.0404   -3.1527    5.7333 C   0  0  0  0  0  0  0  0  0  0  0  0
    1.4558   -2.6676    4.4899 C   0  0  0  0  0  0  0  0  0  0  0  0
    2.8196   -2.3958    4.2268 C   0  0  0  0  0  0  0  0  0  0  0  0
    1.1822   -0.3682   -0.2062 N   0  0  0  0  0  0  0  0  0  0  0  0
    0.3488   -0.0621   -1.3031 C   0  0  0  0  0  0  0  0  0  0  0  0
    0.7894   -0.1721   -2.6240 C   0  0  0  0  0  0  0  0  0  0  0  0
   -0.0654    0.1335   -3.6902 C   0  0  0  0  0  0  0  0  0  0  0  0
   -1.3743    0.5344   -3.4405 C   0  0  0  0  0  0  0  0  0  0  0  0
   -1.8343    0.6069   -2.1267 C   0  0  0  0  0  0  0  0  0  0  0  0
   -0.9813    0.2929   -1.0616 C   0  0  0  0  0  0  0  0  0  0  0  0
    4.1427   -0.8331    1.0317 H   0  0  0  0  0  0  0  0  0  0  0  0
    2.0014   -2.4584    1.6428 H   0  0  0  0  0  0  0  0  0  0  0  0
    5.8618   -2.5467    5.7562 H   0  0  0  0  0  0  0  0  0  0  0  0
    4.0370   -3.3056    7.3072 H   0  0  0  0  0  0  0  0  0  0  0  0
    1.6477   -3.7416    7.7136 H   0  0  0  0  0  0  0  0  0  0  0  0
   -0.0140   -3.3432    5.9180 H   0  0  0  0  0  0  0  0  0  0  0  0
    0.6994   -2.4838    3.7303 H   0  0  0  0  0  0  0  0  0  0  0  0
    0.7399   -0.5157    0.6922 H   0  0  0  0  0  0  0  0  0  0  0  0
    1.7885   -0.5198   -2.8626 H   0  0  0  0  0  0  0  0  0  0  0  0
    0.2986    0.0542   -4.7125 H   0  0  0  0  0  0  0  0  0  0  0  0
   -2.0323    0.7844   -4.2686 H   0  0  0  0  0  0  0  0  0  0  0  0
   -2.8571    0.9190   -1.9317 H   0  0  0  0  0  0  0  0  0  0  0  0
   -1.3612    0.3683   -0.0468 H   0  0  0  0  0  0  0  0  0  0  0  0
  1  2  2  0  0  0  0
  2  3  1  0  0  0  0
  2 15  1  0  0  0  0
  3  4  1  0  0  0  0
  3 22  1  0  0  0  0
  4  5  1  0  0  0  0
  4 23  1  0  0  0  0
  5  6  1  0  0  0  0
  5 14  2  0  0  0  0
  6  7  2  0  0  0  0
  7  8  1  0  0  0  0
  8  9  2  0  0  0  0
  8 24  1  0  0  0  0
  9 10  1  0  0  0  0
  9 14  1  0  0  0  0
 10 11  2  0  0  0  0
 10 25  1  0  0  0  0
 11 12  1  0  0  0  0
 11 26  1  0  0  0  0
 12 13  2  0  0  0  0
 12 27  1  0  0  0  0
 13 14  1  0  0  0  0
 13 28  1  0  0  0  0
 15 16  1  0  0  0  0
 15 29  1  0  0  0  0
 16 17  1  0  0  0  0
 16 21  2  0  0  0  0
 17 18  2  0  0  0  0
 17 30  1  0  0  0  0
 18 19  1  0  0  0  0
 18 31  1  0  0  0  0
 19 20  2  0  0  0  0
 19 32  1  0  0  0  0
 20 21  1  0  0  0  0
 20 33  1  0  0  0  0
 21 34  1  0  0  0  0
M  END
$$$$
