CHEMBL3353359
 OpenBabel04072215363D

 68 74  0  0  1  0  0  0  0  0999 V2000
   -4.8859    3.5614   -0.7461 C   0  0  0  0  0  0  0  0  0  0  0  0
   -4.3029    3.1402    0.5235 N   0  0  0  0  0  0  0  0  0  0  0  0
   -4.9104    1.8834    0.9919 C   0  0  0  0  0  0  0  0  0  0  0  0
   -4.2733    1.4209    2.3223 C   0  0  0  0  0  0  0  0  0  0  0  0
   -2.8135    1.1903    2.2448 N   0  0  0  0  0  0  0  0  0  0  0  0
   -2.4441    0.0707    1.3912 C   0  0  0  0  0  0  0  0  0  0  0  0
   -2.9920   -1.2990    1.8568 C   0  0  0  0  0  0  0  0  0  0  0  0
   -4.2277   -1.7478    1.3831 C   0  0  0  0  0  0  0  0  0  0  0  0
   -4.8027   -2.9353    1.8527 C   0  0  0  0  0  0  0  0  0  0  0  0
   -4.0996   -3.6866    2.8027 C   0  0  0  0  0  0  0  0  0  0  0  0
   -4.5810   -4.9483    3.3474 C   0  0  0  0  0  0  0  0  0  0  0  0
   -4.1628   -6.0559    2.7193 C   0  0  0  0  0  0  0  0  0  0  0  0
   -4.1101   -7.3818    3.2107 C   0  0  0  0  0  0  0  0  0  0  0  0
   -3.3293   -8.2625    2.5604 N   0  0  0  0  0  0  0  0  0  0  0  0
   -3.7324   -9.4422    3.0287 N   0  0  0  0  0  0  0  0  0  0  0  0
   -4.7813   -9.3351    3.8898 C   0  0  0  0  0  0  0  0  0  0  0  0
   -5.6936  -10.2888    4.3243 C   0  0  0  0  0  0  0  0  0  0  0  0
   -6.5378   -9.9708    5.4021 C   0  0  0  0  0  0  0  0  0  0  0  0
   -7.5633  -11.0122    5.7706 C   0  0  2  0  0  0  0  0  0  0  0  0
   -8.0219  -11.5034    7.1077 C   0  0  0  0  0  0  0  0  0  0  0  0
   -7.0359  -12.3258    6.3527 C   0  0  1  0  0  0  0  0  0  0  0  0
   -7.3051  -13.5399    5.5030 C   0  0  0  0  0  0  0  0  0  0  0  0
   -8.2526  -13.6843    4.7549 O   0  0  0  0  0  0  0  0  0  0  0  0
   -6.2004  -14.3768    5.6074 N   0  0  0  0  0  0  0  0  0  0  0  0
   -5.1576  -13.6991    6.2641 C   0  0  0  0  0  0  0  0  0  0  0  0
   -3.8125  -13.9627    6.1218 C   0  0  0  0  0  0  0  0  0  0  0  0
   -2.9259  -13.0356    6.6690 C   0  0  0  0  0  0  0  0  0  0  0  0
   -3.3972  -11.9687    7.4532 C   0  0  0  0  0  0  0  0  0  0  0  0
   -4.7676  -11.7226    7.5698 C   0  0  0  0  0  0  0  0  0  0  0  0
   -5.6340  -12.5235    6.8444 C   0  0  0  0  0  0  0  0  0  0  0  0
   -6.4136   -8.7079    5.9918 C   0  0  0  0  0  0  0  0  0  0  0  0
   -5.6232   -7.6911    5.4027 C   0  0  0  0  0  0  0  0  0  0  0  0
   -4.8341   -8.0127    4.2712 C   0  0  0  0  0  0  0  0  0  0  0  0
   -2.8391   -3.2744    3.2208 C   0  0  0  0  0  0  0  0  0  0  0  0
   -2.2782   -2.0955    2.7692 C   0  0  0  0  0  0  0  0  0  0  0  0
   -2.2009    2.4410    1.7322 C   0  0  0  0  0  0  0  0  0  0  0  0
   -2.8380    2.9948    0.4266 C   0  0  0  0  0  0  0  0  0  0  0  0
   -5.9720    3.6738   -0.6512 H   0  0  0  0  0  0  0  0  0  0  0  0
   -4.6852    2.8488   -1.5541 H   0  0  0  0  0  0  0  0  0  0  0  0
   -4.4936    4.5404   -1.0411 H   0  0  0  0  0  0  0  0  0  0  0  0
   -4.8028    1.1018    0.2287 H   0  0  0  0  0  0  0  0  0  0  0  0
   -5.9829    2.0264    1.1538 H   0  0  0  0  0  0  0  0  0  0  0  0
   -4.7974    0.5412    2.7099 H   0  0  0  0  0  0  0  0  0  0  0  0
   -4.4568    2.1975    3.0782 H   0  0  0  0  0  0  0  0  0  0  0  0
   -1.3374   -0.0412    1.4273 H   0  0  0  0  0  0  0  0  0  0  0  0
   -2.6861    0.1906    0.3363 H   0  0  0  0  0  0  0  0  0  0  0  0
   -4.7723   -1.1683    0.6398 H   0  0  0  0  0  0  0  0  0  0  0  0
   -5.7728   -3.2527    1.4745 H   0  0  0  0  0  0  0  0  0  0  0  0
   -4.9868   -4.9452    4.3519 H   0  0  0  0  0  0  0  0  0  0  0  0
   -3.7501   -5.9466    1.7164 H   0  0  0  0  0  0  0  0  0  0  0  0
   -3.2700  -10.2778    2.6998 H   0  0  0  0  0  0  0  0  0  0  0  0
   -5.7931  -11.2310    3.7971 H   0  0  0  0  0  0  0  0  0  0  0  0
   -8.3346  -11.1005    5.0020 H   0  0  0  0  0  0  0  0  0  0  0  0
   -9.0314  -11.8996    7.1773 H   0  0  0  0  0  0  0  0  0  0  0  0
   -7.7030  -10.9730    7.9954 H   0  0  0  0  0  0  0  0  0  0  0  0
   -6.4445  -15.2844    5.9937 H   0  0  0  0  0  0  0  0  0  0  0  0
   -3.4627  -14.7660    5.4832 H   0  0  0  0  0  0  0  0  0  0  0  0
   -1.8628  -13.1098    6.4517 H   0  0  0  0  0  0  0  0  0  0  0  0
   -2.6917  -11.2752    7.9036 H   0  0  0  0  0  0  0  0  0  0  0  0
   -5.1262  -10.8556    8.1139 H   0  0  0  0  0  0  0  0  0  0  0  0
   -6.9939   -8.4723    6.8831 H   0  0  0  0  0  0  0  0  0  0  0  0
   -5.6357   -6.6917    5.8192 H   0  0  0  0  0  0  0  0  0  0  0  0
   -2.2587   -3.9022    3.9244 H   0  0  0  0  0  0  0  0  0  0  0  0
   -1.2924   -1.7940    3.1227 H   0  0  0  0  0  0  0  0  0  0  0  0
   -1.1232    2.3015    1.5852 H   0  0  0  0  0  0  0  0  0  0  0  0
   -2.2928    3.2087    2.5127 H   0  0  0  0  0  0  0  0  0  0  0  0
   -2.5733    2.3358   -0.4106 H   0  0  0  0  0  0  0  0  0  0  0  0
   -2.3913    3.9737    0.2169 H   0  0  0  0  0  0  0  0  0  0  0  0
  1  2  1  0  0  0  0
  1 38  1  0  0  0  0
  1 39  1  0  0  0  0
  1 40  1  0  0  0  0
  2  3  1  0  0  0  0
  2 37  1  0  0  0  0
  3  4  1  0  0  0  0
  3 41  1  0  0  0  0
  3 42  1  0  0  0  0
  4  5  1  0  0  0  0
  4 43  1  0  0  0  0
  4 44  1  0  0  0  0
  5  6  1  0  0  0  0
  5 36  1  0  0  0  0
  6  7  1  0  0  0  0
  6 45  1  0  0  0  0
  6 46  1  0  0  0  0
  7  8  1  0  0  0  0
  7 35  2  0  0  0  0
  8  9  2  0  0  0  0
  8 47  1  0  0  0  0
  9 10  1  0  0  0  0
  9 48  1  0  0  0  0
 10 11  1  0  0  0  0
 10 34  2  0  0  0  0
 11 12  2  0  0  0  0
 11 49  1  0  0  0  0
 12 13  1  0  0  0  0
 12 50  1  0  0  0  0
 13 14  2  0  0  0  0
 13 33  1  0  0  0  0
 14 15  1  0  0  0  0
 15 16  1  0  0  0  0
 15 51  1  0  0  0  0
 16 17  1  0  0  0  0
 16 33  2  0  0  0  0
 17 18  2  0  0  0  0
 17 52  1  0  0  0  0
 18 31  1  0  0  0  0
 18 19  1  0  0  0  0
 19 20  1  0  0  0  0
 19 21  1  0  0  0  0
 19 53  1  6  0  0  0
 20 21  1  0  0  0  0
 20 54  1  0  0  0  0
 20 55  1  0  0  0  0
 21 22  1  6  0  0  0
 21 30  1  0  0  0  0
 22 24  1  0  0  0  0
 22 23  2  0  0  0  0
 24 25  1  0  0  0  0
 24 56  1  0  0  0  0
 25 26  1  0  0  0  0
 25 30  2  0  0  0  0
 26 27  2  0  0  0  0
 26 57  1  0  0  0  0
 27 28  1  0  0  0  0
 27 58  1  0  0  0  0
 28 29  2  0  0  0  0
 28 59  1  0  0  0  0
 29 30  1  0  0  0  0
 29 60  1  0  0  0  0
 31 32  2  0  0  0  0
 31 61  1  0  0  0  0
 32 33  1  0  0  0  0
 32 62  1  0  0  0  0
 34 35  1  0  0  0  0
 34 63  1  0  0  0  0
 35 64  1  0  0  0  0
 36 37  1  0  0  0  0
 36 65  1  0  0  0  0
 36 66  1  0  0  0  0
 37 67  1  0  0  0  0
 37 68  1  0  0  0  0
M  END
$$$$
