CHEMBL3935930
 OpenBabel04072215373D

 49 52  0  0  0  0  0  0  0  0999 V2000
    1.2670    0.8345   -0.5268 O   0  0  0  0  0  0  0  0  0  0  0  0
    2.3361    0.3342   -0.2047 C   0  0  0  0  0  0  0  0  0  0  0  0
    2.8588   -0.8272   -0.7492 N   0  0  0  0  0  0  0  0  0  0  0  0
    2.1935   -1.6537   -1.6872 C   0  0  0  0  0  0  0  0  0  0  0  0
    1.0596   -1.2502   -2.4023 C   0  0  0  0  0  0  0  0  0  0  0  0
    0.3452   -2.1516   -3.1956 C   0  0  0  0  0  0  0  0  0  0  0  0
    0.7680   -3.4718   -3.3048 C   0  0  0  0  0  0  0  0  0  0  0  0
   -0.0268   -4.2982   -4.0669 O   0  0  0  0  0  0  0  0  0  0  0  0
   -0.2577   -5.5979   -3.6690 C   0  0  0  0  0  0  0  0  0  0  0  0
   -0.1529   -6.0612   -2.3627 C   0  0  0  0  0  0  0  0  0  0  0  0
   -0.3376   -7.4096   -2.1459 C   0  0  0  0  0  0  0  0  0  0  0  0
   -0.6758   -8.2787   -3.1142 N   0  0  0  0  0  0  0  0  0  0  0  0
   -0.8496   -7.8183   -4.3629 C   0  0  0  0  0  0  0  0  0  0  0  0
   -1.2304   -8.6985   -5.3874 N   0  0  0  0  0  0  0  0  0  0  0  0
   -1.3899  -10.0629   -5.2221 C   0  0  0  0  0  0  0  0  0  0  0  0
   -1.2325  -10.7026   -4.1923 O   0  0  0  0  0  0  0  0  0  0  0  0
   -1.7775  -10.8390   -6.4344 C   0  0  0  0  0  0  0  0  0  0  0  0
   -0.8443  -10.8735   -7.6224 C   0  0  0  0  0  0  0  0  0  0  0  0
   -2.2220  -10.2895   -7.7608 C   0  0  0  0  0  0  0  0  0  0  0  0
   -0.6575   -6.4782   -4.6779 C   0  0  0  0  0  0  0  0  0  0  0  0
    1.9728   -3.8388   -2.7025 C   0  0  0  0  0  0  0  0  0  0  0  0
    2.4762   -5.0726   -2.8636 F   0  0  0  0  0  0  0  0  0  0  0  0
    2.6717   -2.9512   -1.8794 C   0  0  0  0  0  0  0  0  0  0  0  0
    3.1463    0.8562    0.7875 N   0  0  0  0  0  0  0  0  0  0  0  0
    2.7460    1.8742    1.6902 C   0  0  0  0  0  0  0  0  0  0  0  0
    1.4052    2.1720    1.9600 C   0  0  0  0  0  0  0  0  0  0  0  0
    1.0737    3.1768    2.8707 C   0  0  0  0  0  0  0  0  0  0  0  0
   -0.5813    3.5263    3.1880 Cl  0  0  0  0  0  0  0  0  0  0  0  0
    2.0707    3.8944    3.5269 C   0  0  0  0  0  0  0  0  0  0  0  0
    3.4101    3.5998    3.2785 C   0  0  0  0  0  0  0  0  0  0  0  0
    3.7370    2.5917    2.3710 C   0  0  0  0  0  0  0  0  0  0  0  0
    5.0310    2.3194    2.1380 F   0  0  0  0  0  0  0  0  0  0  0  0
    3.6433   -1.2309   -0.2612 H   0  0  0  0  0  0  0  0  0  0  0  0
    0.6871   -0.2300   -2.3559 H   0  0  0  0  0  0  0  0  0  0  0  0
   -0.5542   -1.8157   -3.7065 H   0  0  0  0  0  0  0  0  0  0  0  0
    0.0965   -5.4202   -1.5271 H   0  0  0  0  0  0  0  0  0  0  0  0
   -0.2061   -7.8476   -1.1607 H   0  0  0  0  0  0  0  0  0  0  0  0
   -1.3590   -8.3121   -6.3063 H   0  0  0  0  0  0  0  0  0  0  0  0
   -2.2319  -11.7911   -6.1589 H   0  0  0  0  0  0  0  0  0  0  0  0
   -0.6420  -11.8460   -8.0595 H   0  0  0  0  0  0  0  0  0  0  0  0
    0.0043  -10.2011   -7.6362 H   0  0  0  0  0  0  0  0  0  0  0  0
   -2.9588  -10.8683   -8.3128 H   0  0  0  0  0  0  0  0  0  0  0  0
   -2.3213   -9.2244   -7.9167 H   0  0  0  0  0  0  0  0  0  0  0  0
   -0.7944   -6.1081   -5.6881 H   0  0  0  0  0  0  0  0  0  0  0  0
    3.5650   -3.3112   -1.3804 H   0  0  0  0  0  0  0  0  0  0  0  0
    4.1400    0.6913    0.7168 H   0  0  0  0  0  0  0  0  0  0  0  0
    0.5982    1.6226    1.4855 H   0  0  0  0  0  0  0  0  0  0  0  0
    1.8066    4.6757    4.2371 H   0  0  0  0  0  0  0  0  0  0  0  0
    4.1984    4.1488    3.7803 H   0  0  0  0  0  0  0  0  0  0  0  0
  1  2  2  0  0  0  0
  2  3  1  0  0  0  0
  2 24  1  0  0  0  0
  3  4  1  0  0  0  0
  3 33  1  0  0  0  0
  4  5  1  0  0  0  0
  4 23  2  0  0  0  0
  5  6  2  0  0  0  0
  5 34  1  0  0  0  0
  6  7  1  0  0  0  0
  6 35  1  0  0  0  0
  7  8  1  0  0  0  0
  7 21  2  0  0  0  0
  8  9  1  0  0  0  0
  9 10  1  0  0  0  0
  9 20  2  0  0  0  0
 10 11  2  0  0  0  0
 10 36  1  0  0  0  0
 11 12  1  0  0  0  0
 11 37  1  0  0  0  0
 12 13  2  0  0  0  0
 13 14  1  0  0  0  0
 13 20  1  0  0  0  0
 14 15  1  0  0  0  0
 14 38  1  0  0  0  0
 15 16  2  0  0  0  0
 15 17  1  0  0  0  0
 17 18  1  0  0  0  0
 17 19  1  0  0  0  0
 17 39  1  0  0  0  0
 18 19  1  0  0  0  0
 18 40  1  0  0  0  0
 18 41  1  0  0  0  0
 19 42  1  0  0  0  0
 19 43  1  0  0  0  0
 20 44  1  0  0  0  0
 21 22  1  0  0  0  0
 21 23  1  0  0  0  0
 23 45  1  0  0  0  0
 24 25  1  0  0  0  0
 24 46  1  0  0  0  0
 25 26  1  0  0  0  0
 25 31  2  0  0  0  0
 26 27  2  0  0  0  0
 26 47  1  0  0  0  0
 27 28  1  0  0  0  0
 27 29  1  0  0  0  0
 29 30  2  0  0  0  0
 29 48  1  0  0  0  0
 30 31  1  0  0  0  0
 30 49  1  0  0  0  0
 31 32  1  0  0  0  0
M  END
$$$$
