CHEMBL179816
 OpenBabel04072215363D

 52 55  0  0  0  0  0  0  0  0999 V2000
    5.6339    1.5480    0.6531 C   0  0  0  0  0  0  0  0  0  0  0  0
    4.4380    1.1886   -0.0401 O   0  0  0  0  0  0  0  0  0  0  0  0
    4.5890    0.3115   -1.0820 C   0  0  0  0  0  0  0  0  0  0  0  0
    5.6681   -0.5865   -1.1523 C   0  0  0  0  0  0  0  0  0  0  0  0
    5.8958   -1.4065   -2.2550 C   0  0  0  0  0  0  0  0  0  0  0  0
    7.0212   -2.1375   -2.2659 N   0  0  0  0  0  0  0  0  0  0  0  0
    7.2923   -2.8850   -3.3591 C   0  0  0  0  0  0  0  0  0  0  0  0
    6.4885   -2.9161   -4.4727 C   0  0  0  0  0  0  0  0  0  0  0  0
    5.3163   -2.1617   -4.4710 C   0  0  0  0  0  0  0  0  0  0  0  0
    4.5953   -2.2809   -5.6504 O   0  0  0  0  0  0  0  0  0  0  0  0
    3.8737   -1.2266   -6.1578 C   0  0  0  0  0  0  0  0  0  0  0  0
    4.2411    0.1075   -6.0315 C   0  0  0  0  0  0  0  0  0  0  0  0
    3.3144    1.1084   -6.3376 C   0  0  0  0  0  0  0  0  0  0  0  0
    2.0443    0.8040   -6.8458 C   0  0  0  0  0  0  0  0  0  0  0  0
    1.0270    1.7815   -7.0330 N   0  0  0  0  0  0  0  0  0  0  0  0
    1.0641    3.0631   -6.5113 C   0  0  0  0  0  0  0  0  0  0  0  0
    1.9682    3.4880   -5.7950 O   0  0  0  0  0  0  0  0  0  0  0  0
   -0.0367    3.8374   -6.8521 N   0  0  0  0  0  0  0  0  0  0  0  0
   -0.1193    5.2269   -6.5508 C   0  0  0  0  0  0  0  0  0  0  0  0
    1.0215    6.0204   -6.3721 C   0  0  0  0  0  0  0  0  0  0  0  0
    0.9072    7.3553   -5.9931 C   0  0  0  0  0  0  0  0  0  0  0  0
    2.0174    8.0769   -5.7891 F   0  0  0  0  0  0  0  0  0  0  0  0
   -0.3332    7.9413   -5.8168 C   0  0  0  0  0  0  0  0  0  0  0  0
   -1.4631    7.1741   -6.0470 C   0  0  0  0  0  0  0  0  0  0  0  0
   -2.6714    7.7299   -5.8895 F   0  0  0  0  0  0  0  0  0  0  0  0
   -1.3721    5.8281   -6.4216 C   0  0  0  0  0  0  0  0  0  0  0  0
    1.7653   -0.5316   -7.1534 C   0  0  0  0  0  0  0  0  0  0  0  0
    2.6745   -1.5426   -6.8023 C   0  0  0  0  0  0  0  0  0  0  0  0
    4.9669   -1.4099   -3.3102 C   0  0  0  0  0  0  0  0  0  0  0  0
    3.7907   -0.6463   -3.1311 C   0  0  0  0  0  0  0  0  0  0  0  0
    3.6283    0.2732   -2.0888 C   0  0  0  0  0  0  0  0  0  0  0  0
    2.5044    1.0279   -2.2606 O   0  0  0  0  0  0  0  0  0  0  0  0
    2.3429    2.2532   -1.5665 C   0  0  0  0  0  0  0  0  0  0  0  0
    5.4691    2.5145    1.1378 H   0  0  0  0  0  0  0  0  0  0  0  0
    6.4923    1.6666   -0.0196 H   0  0  0  0  0  0  0  0  0  0  0  0
    5.8503    0.8090    1.4311 H   0  0  0  0  0  0  0  0  0  0  0  0
    6.3911   -0.6502   -0.3447 H   0  0  0  0  0  0  0  0  0  0  0  0
    8.2123   -3.4565   -3.3030 H   0  0  0  0  0  0  0  0  0  0  0  0
    6.7678   -3.5173   -5.3330 H   0  0  0  0  0  0  0  0  0  0  0  0
    5.1902    0.3953   -5.5884 H   0  0  0  0  0  0  0  0  0  0  0  0
    3.6163    2.1264   -6.1154 H   0  0  0  0  0  0  0  0  0  0  0  0
    0.1638    1.4664   -7.4509 H   0  0  0  0  0  0  0  0  0  0  0  0
   -0.9028    3.3486   -7.0206 H   0  0  0  0  0  0  0  0  0  0  0  0
    2.0244    5.6301   -6.5118 H   0  0  0  0  0  0  0  0  0  0  0  0
   -0.4090    8.9768   -5.5057 H   0  0  0  0  0  0  0  0  0  0  0  0
   -2.2941    5.2725   -6.5664 H   0  0  0  0  0  0  0  0  0  0  0  0
    0.8215   -0.8190   -7.6079 H   0  0  0  0  0  0  0  0  0  0  0  0
    2.4205   -2.5846   -6.9806 H   0  0  0  0  0  0  0  0  0  0  0  0
    2.9841   -0.7006   -3.8560 H   0  0  0  0  0  0  0  0  0  0  0  0
    1.7776    2.9279   -2.2200 H   0  0  0  0  0  0  0  0  0  0  0  0
    3.2761    2.7682   -1.3266 H   0  0  0  0  0  0  0  0  0  0  0  0
    1.7395    2.0762   -0.6724 H   0  0  0  0  0  0  0  0  0  0  0  0
  1  2  1  0  0  0  0
  1 34  1  0  0  0  0
  1 35  1  0  0  0  0
  1 36  1  0  0  0  0
  2  3  1  0  0  0  0
  3  4  1  0  0  0  0
  3 31  2  0  0  0  0
  4  5  2  0  0  0  0
  4 37  1  0  0  0  0
  5  6  1  0  0  0  0
  5 29  1  0  0  0  0
  6  7  2  0  0  0  0
  7  8  1  0  0  0  0
  7 38  1  0  0  0  0
  8  9  2  0  0  0  0
  8 39  1  0  0  0  0
  9 10  1  0  0  0  0
  9 29  1  0  0  0  0
 10 11  1  0  0  0  0
 11 12  1  0  0  0  0
 11 28  2  0  0  0  0
 12 13  2  0  0  0  0
 12 40  1  0  0  0  0
 13 14  1  0  0  0  0
 13 41  1  0  0  0  0
 14 15  1  0  0  0  0
 14 27  2  0  0  0  0
 15 16  1  0  0  0  0
 15 42  1  0  0  0  0
 16 17  2  0  0  0  0
 16 18  1  0  0  0  0
 18 19  1  0  0  0  0
 18 43  1  0  0  0  0
 19 20  1  0  0  0  0
 19 26  2  0  0  0  0
 20 21  2  0  0  0  0
 20 44  1  0  0  0  0
 21 22  1  0  0  0  0
 21 23  1  0  0  0  0
 23 24  2  0  0  0  0
 23 45  1  0  0  0  0
 24 25  1  0  0  0  0
 24 26  1  0  0  0  0
 26 46  1  0  0  0  0
 27 28  1  0  0  0  0
 27 47  1  0  0  0  0
 28 48  1  0  0  0  0
 29 30  2  0  0  0  0
 30 31  1  0  0  0  0
 30 49  1  0  0  0  0
 31 32  1  0  0  0  0
 32 33  1  0  0  0  0
 33 50  1  0  0  0  0
 33 51  1  0  0  0  0
 33 52  1  0  0  0  0
M  END
$$$$
