CHEMBL3681314
 OpenBabel04072215373D

 61 66  0  0  0  0  0  0  0  0999 V2000
   13.0404   -2.2442   -9.8396 C   0  0  0  0  0  0  0  0  0  0  0  0
   12.1157   -1.8906   -8.7401 C   0  0  0  0  0  0  0  0  0  0  0  0
   11.2787   -2.7028   -8.1266 N   0  0  0  0  0  0  0  0  0  0  0  0
   10.6057   -1.9224   -7.2199 C   0  0  0  0  0  0  0  0  0  0  0  0
    9.5987   -2.2662   -6.3107 C   0  0  0  0  0  0  0  0  0  0  0  0
    9.0811   -1.2803   -5.4792 C   0  0  0  0  0  0  0  0  0  0  0  0
    8.1516   -1.5870   -4.4406 N   0  0  0  0  0  0  0  0  0  0  0  0
    7.2213   -0.6661   -4.0875 N   0  0  0  0  0  0  0  0  0  0  0  0
    6.5368   -1.2492   -3.0948 C   0  0  0  0  0  0  0  0  0  0  0  0
    7.1221   -2.4626   -2.6783 C   0  0  0  0  0  0  0  0  0  0  0  0
    6.6594   -3.2203   -1.5522 C   0  0  0  0  0  0  0  0  0  0  0  0
    5.4796   -3.1495   -1.2117 O   0  0  0  0  0  0  0  0  0  0  0  0
    7.5886   -4.0907   -0.8674 C   0  0  0  0  0  0  0  0  0  0  0  0
    7.1847   -5.2486   -0.2238 C   0  0  0  0  0  0  0  0  0  0  0  0
    8.3547   -5.9632    0.0427 C   0  0  0  0  0  0  0  0  0  0  0  0
    8.6108   -7.2093    0.6010 C   0  0  0  0  0  0  0  0  0  0  0  0
    8.6672   -6.9374    1.9462 C   0  0  0  0  0  0  0  0  0  0  0  0
    9.6267   -6.0231    2.4091 C   0  0  0  0  0  0  0  0  0  0  0  0
   10.0133   -6.2727    3.8583 C   0  0  0  0  0  0  0  0  0  0  0  0
    9.8215   -5.2806    4.9267 N   0  0  0  0  0  0  0  0  0  0  0  0
    9.7650   -5.9372    6.2558 C   0  0  0  0  0  0  0  0  0  0  0  0
    8.4090   -6.5664    6.5907 C   0  0  0  0  0  0  0  0  0  0  0  0
    7.3063   -5.5414    6.4533 C   0  0  0  0  0  0  0  0  0  0  0  0
    6.1008   -6.1556    6.5840 F   0  0  0  0  0  0  0  0  0  0  0  0
    7.3899   -4.6602    7.4857 F   0  0  0  0  0  0  0  0  0  0  0  0
    7.3448   -4.7896    5.1395 C   0  0  0  0  0  0  0  0  0  0  0  0
    8.7495   -4.2945    4.8136 C   0  0  0  0  0  0  0  0  0  0  0  0
   10.1251   -5.0653    1.4706 C   0  0  0  0  0  0  0  0  0  0  0  0
    9.2796   -4.9487    0.3244 C   0  0  0  0  0  0  0  0  0  0  0  0
    8.9676   -3.9981   -0.6403 N   0  0  0  0  0  0  0  0  0  0  0  0
    8.1295   -2.7127   -3.6034 C   0  0  0  0  0  0  0  0  0  0  0  0
    8.9821   -3.7652   -3.6881 N   0  0  0  0  0  0  0  0  0  0  0  0
    9.5012    0.0548   -5.6001 C   0  0  0  0  0  0  0  0  0  0  0  0
   10.5159    0.4227   -6.4935 C   0  0  0  0  0  0  0  0  0  0  0  0
   11.0438   -0.6066   -7.2747 C   0  0  0  0  0  0  0  0  0  0  0  0
   12.0258   -0.6189   -8.2356 N   0  0  0  0  0  0  0  0  0  0  0  0
   12.8876   -3.2823  -10.1519 H   0  0  0  0  0  0  0  0  0  0  0  0
   14.0806   -2.1331   -9.5184 H   0  0  0  0  0  0  0  0  0  0  0  0
   12.8709   -1.6006  -10.7085 H   0  0  0  0  0  0  0  0  0  0  0  0
    9.2370   -3.3095   -6.3114 H   0  0  0  0  0  0  0  0  0  0  0  0
    5.6838   -0.7380   -2.6696 H   0  0  0  0  0  0  0  0  0  0  0  0
    6.1635   -5.5818   -0.0908 H   0  0  0  0  0  0  0  0  0  0  0  0
    9.5705   -7.6135    0.2190 H   0  0  0  0  0  0  0  0  0  0  0  0
    7.7473   -7.0120    2.5338 H   0  0  0  0  0  0  0  0  0  0  0  0
   11.0614   -6.5975    3.8648 H   0  0  0  0  0  0  0  0  0  0  0  0
    9.4567   -7.1761    4.1496 H   0  0  0  0  0  0  0  0  0  0  0  0
    9.9988   -5.1859    7.0210 H   0  0  0  0  0  0  0  0  0  0  0  0
   10.5509   -6.6980    6.3459 H   0  0  0  0  0  0  0  0  0  0  0  0
    8.4242   -6.9418    7.6221 H   0  0  0  0  0  0  0  0  0  0  0  0
    8.1948   -7.4326    5.9544 H   0  0  0  0  0  0  0  0  0  0  0  0
    6.6778   -3.9213    5.2182 H   0  0  0  0  0  0  0  0  0  0  0  0
    6.9560   -5.4173    4.3329 H   0  0  0  0  0  0  0  0  0  0  0  0
    8.9899   -3.4940    5.5290 H   0  0  0  0  0  0  0  0  0  0  0  0
    8.7628   -3.8030    3.8377 H   0  0  0  0  0  0  0  0  0  0  0  0
   10.8748   -4.3256    1.7251 H   0  0  0  0  0  0  0  0  0  0  0  0
    9.5666   -3.2655   -0.9972 H   0  0  0  0  0  0  0  0  0  0  0  0
    8.8139   -4.6534   -3.2141 H   0  0  0  0  0  0  0  0  0  0  0  0
    9.7625   -3.8109   -4.3408 H   0  0  0  0  0  0  0  0  0  0  0  0
    9.0789    0.8257   -4.9539 H   0  0  0  0  0  0  0  0  0  0  0  0
   10.8712    1.4420   -6.5532 H   0  0  0  0  0  0  0  0  0  0  0  0
   12.5653    0.1791   -8.5427 H   0  0  0  0  0  0  0  0  0  0  0  0
  1  2  1  0  0  0  0
  1 37  1  0  0  0  0
  1 38  1  0  0  0  0
  1 39  1  0  0  0  0
  2  3  2  0  0  0  0
  2 36  1  0  0  0  0
  3  4  1  0  0  0  0
  4  5  1  0  0  0  0
  4 35  2  0  0  0  0
  5  6  2  0  0  0  0
  5 40  1  0  0  0  0
  6  7  1  0  0  0  0
  6 33  1  0  0  0  0
  7  8  1  0  0  0  0
  7 31  1  0  0  0  0
  8  9  2  0  0  0  0
  9 10  1  0  0  0  0
  9 41  1  0  0  0  0
 10 11  1  0  0  0  0
 10 31  2  0  0  0  0
 11 12  2  0  0  0  0
 11 13  1  0  0  0  0
 13 14  2  0  0  0  0
 13 30  1  0  0  0  0
 14 15  1  0  0  0  0
 14 42  1  0  0  0  0
 15 16  1  0  0  0  0
 15 29  2  0  0  0  0
 16 17  2  0  0  0  0
 16 43  1  0  0  0  0
 17 18  1  0  0  0  0
 17 44  1  0  0  0  0
 18 19  1  0  0  0  0
 18 28  2  0  0  0  0
 19 20  1  0  0  0  0
 19 45  1  0  0  0  0
 19 46  1  0  0  0  0
 20 21  1  0  0  0  0
 20 27  1  0  0  0  0
 21 22  1  0  0  0  0
 21 47  1  0  0  0  0
 21 48  1  0  0  0  0
 22 23  1  0  0  0  0
 22 49  1  0  0  0  0
 22 50  1  0  0  0  0
 23 24  1  0  0  0  0
 23 25  1  0  0  0  0
 23 26  1  0  0  0  0
 26 27  1  0  0  0  0
 26 51  1  0  0  0  0
 26 52  1  0  0  0  0
 27 53  1  0  0  0  0
 27 54  1  0  0  0  0
 28 29  1  0  0  0  0
 28 55  1  0  0  0  0
 29 30  1  0  0  0  0
 30 56  1  0  0  0  0
 31 32  1  0  0  0  0
 32 57  1  0  0  0  0
 32 58  1  0  0  0  0
 33 34  2  0  0  0  0
 33 59  1  0  0  0  0
 34 35  1  0  0  0  0
 34 60  1  0  0  0  0
 35 36  1  0  0  0  0
 36 61  1  0  0  0  0
M  END
$$$$
