CHEMBL3985853
 OpenBabel04072215373D

 75 79  0  0  0  0  0  0  0  0999 V2000
    0.9045    1.1017   -0.8351 C   0  0  0  0  0  0  0  0  0  0  0  0
    2.0870    0.3499   -0.7966 O   0  0  0  0  0  0  0  0  0  0  0  0
    3.2402    0.7669   -1.3936 C   0  0  0  0  0  0  0  0  0  0  0  0
    3.4575    2.1411   -1.5071 C   0  0  0  0  0  0  0  0  0  0  0  0
    4.5036    2.6195   -2.2269 C   0  0  0  0  0  0  0  0  0  0  0  0
    4.7080    3.9675   -2.2287 O   0  0  0  0  0  0  0  0  0  0  0  0
    5.9140    4.5882   -2.5037 C   0  0  0  0  0  0  0  0  0  0  0  0
    5.3302    1.7212   -2.9008 C   0  0  0  0  0  0  0  0  0  0  0  0
    5.3277    0.2866   -2.7372 C   0  0  0  0  0  0  0  0  0  0  0  0
    6.4244   -0.5897   -3.3598 N   0  0  0  0  0  0  0  0  0  0  0  0
    6.6667   -1.9265   -2.8047 C   0  0  0  0  0  0  0  0  0  0  0  0
    7.6845   -1.8885   -1.6012 C   0  0  0  0  0  0  0  0  0  0  0  0
    9.1490   -1.6417   -1.9112 C   0  0  0  0  0  0  0  0  0  0  0  0
    8.6702   -3.0538   -1.5564 C   0  0  0  0  0  0  0  0  0  0  0  0
    7.5524    0.1227   -4.0589 C   0  0  0  0  0  0  0  0  0  0  0  0
    7.9820    1.1607   -3.2552 C   0  0  0  0  0  0  0  0  0  0  0  0
    8.3673    2.2866   -3.8438 C   0  0  0  0  0  0  0  0  0  0  0  0
    8.6455    2.3699   -5.1350 C   0  0  0  0  0  0  0  0  0  0  0  0
    8.6124    3.6010   -5.5892 N   0  0  0  0  0  0  0  0  0  0  0  0
    9.0277    3.9351   -6.7710 C   0  0  0  0  0  0  0  0  0  0  0  0
    9.8896    3.0856   -7.4135 C   0  0  0  0  0  0  0  0  0  0  0  0
   10.9661    4.0698   -8.0971 C   0  0  0  0  0  0  0  0  0  0  0  0
   11.9160    4.0678   -9.1200 C   0  0  0  0  0  0  0  0  0  0  0  0
   12.5206    5.3295   -9.1882 N   0  0  0  0  0  0  0  0  0  0  0  0
   12.0124    6.1226   -8.2371 N   0  0  0  0  0  0  0  0  0  0  0  0
   12.3485    7.5928   -8.0273 C   0  0  0  0  0  0  0  0  0  0  0  0
   12.9087    7.9484   -6.6022 C   0  0  0  0  0  0  0  0  0  0  0  0
   13.2580    9.3993   -6.3776 N   0  0  0  0  0  0  0  0  0  0  0  0
   14.3600    9.9436   -7.2093 C   0  0  0  0  0  0  0  0  0  0  0  0
   15.7216    9.3226   -6.8355 C   0  0  0  0  0  0  0  0  0  0  0  0
   16.0327    9.5294   -5.4119 N   0  0  0  0  0  0  0  0  0  0  0  0
   14.9430    9.0535   -4.5473 C   0  0  0  0  0  0  0  0  0  0  0  0
   13.5964    9.6911   -4.9551 C   0  0  0  0  0  0  0  0  0  0  0  0
   11.1383    5.4070   -7.5566 C   0  0  0  0  0  0  0  0  0  0  0  0
    9.6462    1.6782   -7.1521 N   0  0  0  0  0  0  0  0  0  0  0  0
    8.8758    1.3002   -5.9775 C   0  0  0  0  0  0  0  0  0  0  0  0
    8.1972    0.0572   -5.4518 C   0  0  0  0  0  0  0  0  0  0  0  0
    4.2097   -0.1661   -1.9329 C   0  0  0  0  0  0  0  0  0  0  0  0
    0.5586   -2.0729    0.6420 Cl  0  0  0  0  0  0  0  0  0  0  0  0
    0.0675    0.5671   -0.3493 H   0  0  0  0  0  0  0  0  0  0  0  0
    0.6220    1.2860   -1.8979 H   0  0  0  0  0  0  0  0  0  0  0  0
    0.9859    2.0869   -0.3247 H   0  0  0  0  0  0  0  0  0  0  0  0
    2.8104    2.8767   -1.0451 H   0  0  0  0  0  0  0  0  0  0  0  0
    5.8379    5.6724   -2.2829 H   0  0  0  0  0  0  0  0  0  0  0  0
    6.1889    4.4616   -3.5690 H   0  0  0  0  0  0  0  0  0  0  0  0
    6.7120    4.1718   -1.8459 H   0  0  0  0  0  0  0  0  0  0  0  0
    5.9944    2.2357   -3.5222 H   0  0  0  0  0  0  0  0  0  0  0  0
    6.9850   -2.6281   -3.5873 H   0  0  0  0  0  0  0  0  0  0  0  0
    5.7467   -2.3586   -2.3605 H   0  0  0  0  0  0  0  0  0  0  0  0
    7.3971   -1.4685   -0.6106 H   0  0  0  0  0  0  0  0  0  0  0  0
    9.7764   -1.2424   -1.0806 H   0  0  0  0  0  0  0  0  0  0  0  0
    9.4391   -1.5793   -2.9788 H   0  0  0  0  0  0  0  0  0  0  0  0
    9.1229   -3.3289   -0.5759 H   0  0  0  0  0  0  0  0  0  0  0  0
    8.8440   -3.6788   -2.4594 H   0  0  0  0  0  0  0  0  0  0  0  0
    7.6769    1.2396   -2.2343 H   0  0  0  0  0  0  0  0  0  0  0  0
    8.3309    3.1889   -3.2605 H   0  0  0  0  0  0  0  0  0  0  0  0
    8.8903    4.9615   -7.0130 H   0  0  0  0  0  0  0  0  0  0  0  0
   12.2041    3.2817   -9.7953 H   0  0  0  0  0  0  0  0  0  0  0  0
   11.4203    8.1922   -8.1728 H   0  0  0  0  0  0  0  0  0  0  0  0
   13.0716    7.9246   -8.7958 H   0  0  0  0  0  0  0  0  0  0  0  0
   13.7827    7.3074   -6.4129 H   0  0  0  0  0  0  0  0  0  0  0  0
   12.1176    7.6825   -5.8674 H   0  0  0  0  0  0  0  0  0  0  0  0
   14.4367   11.0459   -7.0402 H   0  0  0  0  0  0  0  0  0  0  0  0
   14.1477    9.8223   -8.2877 H   0  0  0  0  0  0  0  0  0  0  0  0
   16.5206    9.7914   -7.4507 H   0  0  0  0  0  0  0  0  0  0  0  0
   15.7219    8.2393   -7.0669 H   0  0  0  0  0  0  0  0  0  0  0  0
   16.1986   10.5477   -5.2325 H   0  0  0  0  0  0  0  0  0  0  0  0
   15.1795    9.3106   -3.4907 H   0  0  0  0  0  0  0  0  0  0  0  0
   14.8789    7.9485   -4.5976 H   0  0  0  0  0  0  0  0  0  0  0  0
   13.6892   10.7948   -4.8054 H   0  0  0  0  0  0  0  0  0  0  0  0
   12.7869    9.3552   -4.2743 H   0  0  0  0  0  0  0  0  0  0  0  0
   10.6436    5.8682   -6.7125 H   0  0  0  0  0  0  0  0  0  0  0  0
    8.0446   -0.8435   -6.0662 H   0  0  0  0  0  0  0  0  0  0  0  0
    4.0240   -1.2118   -1.7404 H   0  0  0  0  0  0  0  0  0  0  0  0
    1.8006   -1.5034    0.8034 H   0  0  0  0  0  0  0  0  0  0  0  0
  1  2  1  0  0  0  0
  1 40  1  0  0  0  0
  1 41  1  0  0  0  0
  1 42  1  0  0  0  0
  2  3  1  0  0  0  0
  3  4  1  0  0  0  0
  3 38  2  0  0  0  0
  4  5  2  0  0  0  0
  4 43  1  0  0  0  0
  5  6  1  0  0  0  0
  5  8  1  0  0  0  0
  6  7  1  0  0  0  0
  7 44  1  0  0  0  0
  7 45  1  0  0  0  0
  7 46  1  0  0  0  0
  8  9  2  0  0  0  0
  8 47  1  0  0  0  0
  9 10  1  0  0  0  0
  9 38  1  0  0  0  0
 10 11  1  0  0  0  0
 10 15  1  0  0  0  0
 11 12  1  0  0  0  0
 11 48  1  0  0  0  0
 11 49  1  0  0  0  0
 12 13  1  0  0  0  0
 12 14  1  0  0  0  0
 12 50  1  0  0  0  0
 13 14  1  0  0  0  0
 13 51  1  0  0  0  0
 13 52  1  0  0  0  0
 14 53  1  0  0  0  0
 14 54  1  0  0  0  0
 15 16  1  0  0  0  0
 15 37  2  0  0  0  0
 16 17  2  0  0  0  0
 16 55  1  0  0  0  0
 17 18  1  0  0  0  0
 17 56  1  0  0  0  0
 18 19  1  0  0  0  0
 18 36  2  0  0  0  0
 19 20  2  0  0  0  0
 20 21  1  0  0  0  0
 20 57  1  0  0  0  0
 21 22  1  0  0  0  0
 21 35  2  0  0  0  0
 22 23  1  0  0  0  0
 22 34  2  0  0  0  0
 23 24  2  0  0  0  0
 23 58  1  0  0  0  0
 24 25  1  0  0  0  0
 25 26  1  0  0  0  0
 25 34  1  0  0  0  0
 26 27  1  0  0  0  0
 26 59  1  0  0  0  0
 26 60  1  0  0  0  0
 27 28  1  0  0  0  0
 27 61  1  0  0  0  0
 27 62  1  0  0  0  0
 28 29  1  0  0  0  0
 28 33  1  0  0  0  0
 29 30  1  0  0  0  0
 29 63  1  0  0  0  0
 29 64  1  0  0  0  0
 30 31  1  0  0  0  0
 30 65  1  0  0  0  0
 30 66  1  0  0  0  0
 31 32  1  0  0  0  0
 31 67  1  0  0  0  0
 32 33  1  0  0  0  0
 32 68  1  0  0  0  0
 32 69  1  0  0  0  0
 33 70  1  0  0  0  0
 33 71  1  0  0  0  0
 34 72  1  0  0  0  0
 35 36  1  0  0  0  0
 36 37  1  0  0  0  0
 37 73  1  0  0  0  0
 38 74  1  0  0  0  0
 39 75  1  0  0  0  0
M  END
$$$$
