CHEMBL3706832
 OpenBabel04072215373D

 53 55  0  0  0  0  0  0  0  0999 V2000
    1.0043    0.4792    0.7494 C   0  0  0  0  0  0  0  0  0  0  0  0
    2.2529    0.2379    0.1311 O   0  0  0  0  0  0  0  0  0  0  0  0
    2.7418    1.3559   -0.6169 C   0  0  0  0  0  0  0  0  0  0  0  0
    4.0513    0.8817   -1.2288 C   0  0  0  0  0  0  0  0  0  0  0  0
    4.7133    1.8633   -1.9992 O   0  0  0  0  0  0  0  0  0  0  0  0
    6.0715    1.7354   -2.1562 C   0  0  0  0  0  0  0  0  0  0  0  0
    6.6599    2.9929   -2.4402 C   0  0  0  0  0  0  0  0  0  0  0  0
    8.0306    3.1952   -2.5815 C   0  0  0  0  0  0  0  0  0  0  0  0
    8.5104    4.4301   -2.8010 N   0  0  0  0  0  0  0  0  0  0  0  0
    9.8361    4.5553   -2.9158 C   0  0  0  0  0  0  0  0  0  0  0  0
   10.7242    3.5590   -2.8530 N   0  0  0  0  0  0  0  0  0  0  0  0
   10.2416    2.3181   -2.6363 C   0  0  0  0  0  0  0  0  0  0  0  0
   11.1452    1.2319   -2.5261 N   0  0  0  0  0  0  0  0  0  0  0  0
   12.5321    1.2952   -2.5426 C   0  0  0  0  0  0  0  0  0  0  0  0
   13.3008    2.2937   -2.1008 C   0  0  0  0  0  0  0  0  0  0  0  0
   14.7649    2.2769   -2.2113 C   0  0  0  0  0  0  0  0  0  0  0  0
   15.4270    3.1316   -1.6378 O   0  0  0  0  0  0  0  0  0  0  0  0
   15.3531    1.2308   -3.0762 C   0  0  0  0  0  0  0  0  0  0  0  0
   17.0050    1.4607   -3.5399 Cl  0  0  0  0  0  0  0  0  0  0  0  0
   14.6399    0.1769   -3.5021 C   0  0  0  0  0  0  0  0  0  0  0  0
   15.2472   -0.7674   -4.3171 O   0  0  0  0  0  0  0  0  0  0  0  0
   14.4719   -1.5477   -5.2340 C   0  0  0  0  0  0  0  0  0  0  0  0
   13.6621   -0.6877   -6.2025 C   0  0  0  0  0  0  0  0  0  0  0  0
   15.4804   -2.3785   -6.0304 C   0  0  0  0  0  0  0  0  0  0  0  0
   13.2161    0.0582   -3.0597 C   0  0  0  0  0  0  0  0  0  0  0  0
   12.5687   -0.9843   -3.1530 O   0  0  0  0  0  0  0  0  0  0  0  0
    8.8674    2.0880   -2.4697 C   0  0  0  0  0  0  0  0  0  0  0  0
    8.2950    0.8266   -2.1813 C   0  0  0  0  0  0  0  0  0  0  0  0
    6.9131    0.6257   -2.0341 C   0  0  0  0  0  0  0  0  0  0  0  0
    6.6777   -0.6615   -1.6503 O   0  0  0  0  0  0  0  0  0  0  0  0
    5.6087   -1.4229   -2.1797 C   0  0  0  0  0  0  0  0  0  0  0  0
    0.7246   -0.4258    1.2966 H   0  0  0  0  0  0  0  0  0  0  0  0
    0.2381    0.6823   -0.0031 H   0  0  0  0  0  0  0  0  0  0  0  0
    1.0825    1.3072    1.4581 H   0  0  0  0  0  0  0  0  0  0  0  0
    2.8971    2.2241    0.0313 H   0  0  0  0  0  0  0  0  0  0  0  0
    2.0287    1.6286   -1.4046 H   0  0  0  0  0  0  0  0  0  0  0  0
    3.7558    0.0745   -1.8983 H   0  0  0  0  0  0  0  0  0  0  0  0
    4.6886    0.5066   -0.4204 H   0  0  0  0  0  0  0  0  0  0  0  0
    6.0122    3.8675   -2.5078 H   0  0  0  0  0  0  0  0  0  0  0  0
   10.2290    5.5562   -3.0653 H   0  0  0  0  0  0  0  0  0  0  0  0
   10.8087    0.4042   -3.0217 H   0  0  0  0  0  0  0  0  0  0  0  0
   12.8840    3.1863   -1.6481 H   0  0  0  0  0  0  0  0  0  0  0  0
   13.8318   -2.2449   -4.6850 H   0  0  0  0  0  0  0  0  0  0  0  0
   14.3132   -0.0008   -6.7539 H   0  0  0  0  0  0  0  0  0  0  0  0
   12.9244   -0.0681   -5.6855 H   0  0  0  0  0  0  0  0  0  0  0  0
   13.1215   -1.3135   -6.9190 H   0  0  0  0  0  0  0  0  0  0  0  0
   16.1598   -1.7283   -6.5946 H   0  0  0  0  0  0  0  0  0  0  0  0
   14.9779   -3.0502   -6.7330 H   0  0  0  0  0  0  0  0  0  0  0  0
   16.1068   -2.9761   -5.3594 H   0  0  0  0  0  0  0  0  0  0  0  0
    8.9435   -0.0363   -2.0353 H   0  0  0  0  0  0  0  0  0  0  0  0
    5.9825   -2.4085   -2.4730 H   0  0  0  0  0  0  0  0  0  0  0  0
    5.1255   -0.9723   -3.0503 H   0  0  0  0  0  0  0  0  0  0  0  0
    4.9013   -1.6090   -1.3645 H   0  0  0  0  0  0  0  0  0  0  0  0
  1  2  1  0  0  0  0
  1 32  1  0  0  0  0
  1 33  1  0  0  0  0
  1 34  1  0  0  0  0
  2  3  1  0  0  0  0
  3  4  1  0  0  0  0
  3 35  1  0  0  0  0
  3 36  1  0  0  0  0
  4  5  1  0  0  0  0
  4 37  1  0  0  0  0
  4 38  1  0  0  0  0
  5  6  1  0  0  0  0
  6  7  1  0  0  0  0
  6 29  2  0  0  0  0
  7  8  2  0  0  0  0
  7 39  1  0  0  0  0
  8  9  1  0  0  0  0
  8 27  1  0  0  0  0
  9 10  2  0  0  0  0
 10 11  1  0  0  0  0
 10 40  1  0  0  0  0
 11 12  2  0  0  0  0
 12 13  1  0  0  0  0
 12 27  1  0  0  0  0
 13 14  1  0  0  0  0
 13 41  1  0  0  0  0
 14 15  2  0  0  0  0
 14 25  1  0  0  0  0
 15 16  1  0  0  0  0
 15 42  1  0  0  0  0
 16 17  2  0  0  0  0
 16 18  1  0  0  0  0
 18 19  1  0  0  0  0
 18 20  2  0  0  0  0
 20 21  1  0  0  0  0
 20 25  1  0  0  0  0
 21 22  1  0  0  0  0
 22 23  1  0  0  0  0
 22 24  1  0  0  0  0
 22 43  1  0  0  0  0
 23 44  1  0  0  0  0
 23 45  1  0  0  0  0
 23 46  1  0  0  0  0
 24 47  1  0  0  0  0
 24 48  1  0  0  0  0
 24 49  1  0  0  0  0
 25 26  2  0  0  0  0
 27 28  2  0  0  0  0
 28 29  1  0  0  0  0
 28 50  1  0  0  0  0
 29 30  1  0  0  0  0
 30 31  1  0  0  0  0
 31 51  1  0  0  0  0
 31 52  1  0  0  0  0
 31 53  1  0  0  0  0
M  END
$$$$
