CHEMBL3955800
 OpenBabel04072215373D

 66 69  0  0  0  0  0  0  0  0999 V2000
    0.6667   -4.2647   -1.4250 C   0  0  0  0  0  0  0  0  0  0  0  0
    1.9559   -4.4831   -0.9620 O   0  0  0  0  0  0  0  0  0  0  0  0
    2.9135   -3.5220   -0.8467 C   0  0  0  0  0  0  0  0  0  0  0  0
    2.6445   -2.1819   -1.1914 C   0  0  0  0  0  0  0  0  0  0  0  0
    3.6205   -1.2017   -1.0595 C   0  0  0  0  0  0  0  0  0  0  0  0
    3.3107    0.0793   -1.3991 O   0  0  0  0  0  0  0  0  0  0  0  0
    4.1436    1.1672   -1.2746 C   0  0  0  0  0  0  0  0  0  0  0  0
    4.8791   -1.5590   -0.5491 C   0  0  0  0  0  0  0  0  0  0  0  0
    5.1924   -2.8703   -0.1789 C   0  0  0  0  0  0  0  0  0  0  0  0
    6.4418   -3.1316    0.4894 N   0  0  0  0  0  0  0  0  0  0  0  0
    6.9029   -2.2132    1.5896 C   0  0  0  0  0  0  0  0  0  0  0  0
    6.0508   -1.0714    2.2334 C   0  0  0  0  0  0  0  0  0  0  0  0
    4.9054   -1.4029    3.2330 C   0  0  0  0  0  0  0  0  0  0  0  0
    4.2593   -0.1464    3.7339 N   0  0  0  0  0  0  0  0  0  0  0  0
    5.1440    0.7428    4.5226 C   0  0  0  0  0  0  0  0  0  0  0  0
    4.8600    0.4333    5.9750 C   0  0  0  0  0  0  0  0  0  0  0  0
    3.3586    0.3919    5.9263 C   0  0  0  0  0  0  0  0  0  0  0  0
    3.1161   -0.4177    4.6474 C   0  0  0  0  0  0  0  0  0  0  0  0
    7.4244   -4.1867    0.1690 C   0  0  0  0  0  0  0  0  0  0  0  0
    7.9622   -4.8101    1.2997 C   0  0  0  0  0  0  0  0  0  0  0  0
    9.0855   -5.5550    1.2601 C   0  0  0  0  0  0  0  0  0  0  0  0
    9.7254   -5.8013    0.0963 C   0  0  0  0  0  0  0  0  0  0  0  0
   10.8876   -6.4366    0.2218 N   0  0  0  0  0  0  0  0  0  0  0  0
   11.6019   -6.8144   -0.8187 C   0  0  0  0  0  0  0  0  0  0  0  0
   11.1177   -6.6469   -2.1163 C   0  0  0  0  0  0  0  0  0  0  0  0
   11.9344   -7.4514   -3.1374 C   0  0  0  0  0  0  0  0  0  0  0  0
   12.8949   -8.4203   -2.7623 C   0  0  0  0  0  0  0  0  0  0  0  0
   13.4234   -9.0068   -3.8393 N   0  0  0  0  0  0  0  0  0  0  0  0
   12.8534   -8.4782   -4.8978 N   0  0  0  0  0  0  0  0  0  0  0  0
   11.9426   -7.5371   -4.5303 C   0  0  0  0  0  0  0  0  0  0  0  0
    9.9422   -5.8760   -2.2855 N   0  0  0  0  0  0  0  0  0  0  0  0
    9.2274   -5.4100   -1.1644 C   0  0  0  0  0  0  0  0  0  0  0  0
    8.0273   -4.5400   -1.1353 C   0  0  0  0  0  0  0  0  0  0  0  0
    4.1986   -3.8628   -0.3450 C   0  0  0  0  0  0  0  0  0  0  0  0
   -0.5674    0.5220    1.8571 Cl  0  0  0  0  0  0  0  0  0  0  0  0
    0.0931   -5.2138   -1.4123 H   0  0  0  0  0  0  0  0  0  0  0  0
    0.6949   -3.8861   -2.4696 H   0  0  0  0  0  0  0  0  0  0  0  0
    0.1313   -3.5289   -0.7826 H   0  0  0  0  0  0  0  0  0  0  0  0
    1.6742   -1.8787   -1.5532 H   0  0  0  0  0  0  0  0  0  0  0  0
    3.6124    2.0740   -1.6278 H   0  0  0  0  0  0  0  0  0  0  0  0
    5.0467    1.0162   -1.9029 H   0  0  0  0  0  0  0  0  0  0  0  0
    4.4380    1.3190   -0.2133 H   0  0  0  0  0  0  0  0  0  0  0  0
    5.6461   -0.8016   -0.4678 H   0  0  0  0  0  0  0  0  0  0  0  0
    7.8289   -1.7308    1.2094 H   0  0  0  0  0  0  0  0  0  0  0  0
    7.1885   -2.7629    2.4975 H   0  0  0  0  0  0  0  0  0  0  0  0
    5.6982   -0.3170    1.5262 H   0  0  0  0  0  0  0  0  0  0  0  0
    6.8213   -0.5618    2.8369 H   0  0  0  0  0  0  0  0  0  0  0  0
    5.2906   -2.0119    4.0864 H   0  0  0  0  0  0  0  0  0  0  0  0
    4.1392   -2.0117    2.7053 H   0  0  0  0  0  0  0  0  0  0  0  0
    4.8286    1.7915    4.3111 H   0  0  0  0  0  0  0  0  0  0  0  0
    6.2214    0.7063    4.3042 H   0  0  0  0  0  0  0  0  0  0  0  0
    5.2746    1.1858    6.6810 H   0  0  0  0  0  0  0  0  0  0  0  0
    5.2669   -0.5729    6.2203 H   0  0  0  0  0  0  0  0  0  0  0  0
    3.0071    1.4391    5.7732 H   0  0  0  0  0  0  0  0  0  0  0  0
    2.8656   -0.0089    6.8380 H   0  0  0  0  0  0  0  0  0  0  0  0
    2.1440   -0.1248    4.1933 H   0  0  0  0  0  0  0  0  0  0  0  0
    3.0718   -1.4947    4.9208 H   0  0  0  0  0  0  0  0  0  0  0  0
    7.5536   -4.6943    2.2787 H   0  0  0  0  0  0  0  0  0  0  0  0
    9.4958   -5.9329    2.1840 H   0  0  0  0  0  0  0  0  0  0  0  0
   12.5209   -7.2953   -0.5660 H   0  0  0  0  0  0  0  0  0  0  0  0
   13.2059   -8.7348   -1.7797 H   0  0  0  0  0  0  0  0  0  0  0  0
   13.0954   -8.7931   -5.8636 H   0  0  0  0  0  0  0  0  0  0  0  0
   11.3491   -6.9900   -5.2398 H   0  0  0  0  0  0  0  0  0  0  0  0
    7.6433   -4.1059   -2.0547 H   0  0  0  0  0  0  0  0  0  0  0  0
    4.3918   -4.8838   -0.0331 H   0  0  0  0  0  0  0  0  0  0  0  0
    0.8072    0.5292    1.9002 H   0  0  0  0  0  0  0  0  0  0  0  0
  1  2  1  0  0  0  0
  1 36  1  0  0  0  0
  1 37  1  0  0  0  0
  1 38  1  0  0  0  0
  2  3  1  0  0  0  0
  3  4  1  0  0  0  0
  3 34  2  0  0  0  0
  4  5  2  0  0  0  0
  4 39  1  0  0  0  0
  5  6  1  0  0  0  0
  5  8  1  0  0  0  0
  6  7  1  0  0  0  0
  7 40  1  0  0  0  0
  7 41  1  0  0  0  0
  7 42  1  0  0  0  0
  8  9  2  0  0  0  0
  8 43  1  0  0  0  0
  9 10  1  0  0  0  0
  9 34  1  0  0  0  0
 10 11  1  0  0  0  0
 10 19  1  0  0  0  0
 11 12  1  0  0  0  0
 11 44  1  0  0  0  0
 11 45  1  0  0  0  0
 12 13  1  0  0  0  0
 12 46  1  0  0  0  0
 12 47  1  0  0  0  0
 13 14  1  0  0  0  0
 13 48  1  0  0  0  0
 13 49  1  0  0  0  0
 14 15  1  0  0  0  0
 14 18  1  0  0  0  0
 15 16  1  0  0  0  0
 15 50  1  0  0  0  0
 15 51  1  0  0  0  0
 16 17  1  0  0  0  0
 16 52  1  0  0  0  0
 16 53  1  0  0  0  0
 17 18  1  0  0  0  0
 17 54  1  0  0  0  0
 17 55  1  0  0  0  0
 18 56  1  0  0  0  0
 18 57  1  0  0  0  0
 19 20  1  0  0  0  0
 19 33  2  0  0  0  0
 20 21  2  0  0  0  0
 20 58  1  0  0  0  0
 21 22  1  0  0  0  0
 21 59  1  0  0  0  0
 22 23  1  0  0  0  0
 22 32  2  0  0  0  0
 23 24  2  0  0  0  0
 24 25  1  0  0  0  0
 24 60  1  0  0  0  0
 25 26  1  0  0  0  0
 25 31  2  0  0  0  0
 26 27  1  0  0  0  0
 26 30  2  0  0  0  0
 27 28  2  0  0  0  0
 27 61  1  0  0  0  0
 28 29  1  0  0  0  0
 29 30  1  0  0  0  0
 29 62  1  0  0  0  0
 30 63  1  0  0  0  0
 31 32  1  0  0  0  0
 32 33  1  0  0  0  0
 33 64  1  0  0  0  0
 34 65  1  0  0  0  0
 35 66  1  0  0  0  0
M  END
$$$$
