CHEMBL3894732
 OpenBabel04072215373D

 58 63  0  0  0  0  0  0  0  0999 V2000
    1.1086   -0.0281    0.2693 O   0  0  0  0  0  0  0  0  0  0  0  0
    2.3261    0.0457    0.1059 C   0  0  0  0  0  0  0  0  0  0  0  0
    3.1479   -1.0440    0.6799 C   0  0  0  0  0  0  0  0  0  0  0  0
    2.6325   -2.3413    0.6459 C   0  0  0  0  0  0  0  0  0  0  0  0
    3.3943   -3.3986    1.1294 C   0  0  0  0  0  0  0  0  0  0  0  0
    4.6837   -3.1639    1.6126 C   0  0  0  0  0  0  0  0  0  0  0  0
    5.2197   -1.8733    1.6487 C   0  0  0  0  0  0  0  0  0  0  0  0
    6.5467   -1.5969    2.0586 N   0  0  0  0  0  0  0  0  0  0  0  0
    7.5731   -2.5170    2.2398 C   0  0  0  0  0  0  0  0  0  0  0  0
    7.4951   -3.7274    2.0713 O   0  0  0  0  0  0  0  0  0  0  0  0
    8.8982   -1.9347    2.5511 C   0  0  0  0  0  0  0  0  0  0  0  0
   10.0638   -2.4881    1.9895 C   0  0  0  0  0  0  0  0  0  0  0  0
   11.3107   -1.8885    2.1879 C   0  0  0  0  0  0  0  0  0  0  0  0
   11.4200   -0.6654    2.8554 C   0  0  0  0  0  0  0  0  0  0  0  0
   10.2553   -0.1599    3.4416 C   0  0  0  0  0  0  0  0  0  0  0  0
   10.0045    1.0241    4.0940 N   0  0  0  0  0  0  0  0  0  0  0  0
    8.9318    0.8443    4.9250 C   0  0  0  0  0  0  0  0  0  0  0  0
    8.2103   -0.2011    4.3954 C   0  0  0  0  0  0  0  0  0  0  0  0
    9.0298   -0.8274    3.4086 C   0  0  0  0  0  0  0  0  0  0  0  0
    4.4177   -0.8114    1.2322 C   0  0  0  0  0  0  0  0  0  0  0  0
    2.8915    1.1738   -0.7033 C   0  0  0  0  0  0  0  0  0  0  0  0
    4.2120    1.2315   -1.1855 C   0  0  0  0  0  0  0  0  0  0  0  0
    4.6867    2.3494   -1.9135 C   0  0  0  0  0  0  0  0  0  0  0  0
    3.7472    3.3087   -2.3385 C   0  0  0  0  0  0  0  0  0  0  0  0
    3.6758    4.5391   -3.0794 C   0  0  0  0  0  0  0  0  0  0  0  0
    3.9692    5.8901   -2.6308 C   0  0  0  0  0  0  0  0  0  0  0  0
    3.9813    6.2668   -1.3364 C   0  0  0  0  0  0  0  0  0  0  0  0
    3.4005    7.5536   -0.8809 C   0  0  0  0  0  0  0  0  0  0  0  0
    3.4084    7.8785    0.4731 C   0  0  0  0  0  0  0  0  0  0  0  0
    2.6591    8.9694    0.9187 C   0  0  0  0  0  0  0  0  0  0  0  0
    1.9106    9.7035    0.0084 C   0  0  0  0  0  0  0  0  0  0  0  0
    1.9573    9.3212   -1.3198 C   0  0  0  0  0  0  0  0  0  0  0  0
    2.6835    8.2738   -1.7798 N   0  0  0  0  0  0  0  0  0  0  0  0
    2.5419    4.4676   -3.8062 N   0  0  0  0  0  0  0  0  0  0  0  0
    1.7319    3.8386   -2.9459 N   0  0  0  0  0  0  0  0  0  0  0  0
    2.4103    3.0645   -2.0473 C   0  0  0  0  0  0  0  0  0  0  0  0
    1.9679    2.1472   -1.1033 C   0  0  0  0  0  0  0  0  0  0  0  0
    1.6346   -2.5236    0.2545 H   0  0  0  0  0  0  0  0  0  0  0  0
    2.9967   -4.4068    1.1170 H   0  0  0  0  0  0  0  0  0  0  0  0
    5.2541   -4.0208    1.9508 H   0  0  0  0  0  0  0  0  0  0  0  0
    6.8107   -0.6194    2.0912 H   0  0  0  0  0  0  0  0  0  0  0  0
    9.9984   -3.4013    1.4003 H   0  0  0  0  0  0  0  0  0  0  0  0
   12.2079   -2.3676    1.7975 H   0  0  0  0  0  0  0  0  0  0  0  0
   12.3811   -0.1729    2.9736 H   0  0  0  0  0  0  0  0  0  0  0  0
   10.5418    1.8754    3.9943 H   0  0  0  0  0  0  0  0  0  0  0  0
    8.7429    1.5094    5.7573 H   0  0  0  0  0  0  0  0  0  0  0  0
    7.2453   -0.5447    4.7463 H   0  0  0  0  0  0  0  0  0  0  0  0
    4.7989    0.1982    1.2869 H   0  0  0  0  0  0  0  0  0  0  0  0
    4.8937    0.3951   -1.0473 H   0  0  0  0  0  0  0  0  0  0  0  0
    5.7166    2.3742   -2.2639 H   0  0  0  0  0  0  0  0  0  0  0  0
    3.7198    6.6460   -3.3780 H   0  0  0  0  0  0  0  0  0  0  0  0
    4.1509    5.5386   -0.5510 H   0  0  0  0  0  0  0  0  0  0  0  0
    3.9511    7.2709    1.1895 H   0  0  0  0  0  0  0  0  0  0  0  0
    2.6378    9.2250    1.9747 H   0  0  0  0  0  0  0  0  0  0  0  0
    1.3017   10.5435    0.3255 H   0  0  0  0  0  0  0  0  0  0  0  0
    1.3759    9.8490   -2.0715 H   0  0  0  0  0  0  0  0  0  0  0  0
    0.7299    3.8759   -3.1033 H   0  0  0  0  0  0  0  0  0  0  0  0
    0.9249    2.1030   -0.8068 H   0  0  0  0  0  0  0  0  0  0  0  0
  1  2  2  0  0  0  0
  2  3  1  0  0  0  0
  2 21  1  0  0  0  0
  3  4  1  0  0  0  0
  3 20  2  0  0  0  0
  4  5  2  0  0  0  0
  4 38  1  0  0  0  0
  5  6  1  0  0  0  0
  5 39  1  0  0  0  0
  6  7  2  0  0  0  0
  6 40  1  0  0  0  0
  7  8  1  0  0  0  0
  7 20  1  0  0  0  0
  8  9  1  0  0  0  0
  8 41  1  0  0  0  0
  9 10  2  0  0  0  0
  9 11  1  0  0  0  0
 11 12  1  0  0  0  0
 11 19  2  0  0  0  0
 12 13  2  0  0  0  0
 12 42  1  0  0  0  0
 13 14  1  0  0  0  0
 13 43  1  0  0  0  0
 14 15  2  0  0  0  0
 14 44  1  0  0  0  0
 15 16  1  0  0  0  0
 15 19  1  0  0  0  0
 16 17  1  0  0  0  0
 16 45  1  0  0  0  0
 17 18  2  0  0  0  0
 17 46  1  0  0  0  0
 18 19  1  0  0  0  0
 18 47  1  0  0  0  0
 20 48  1  0  0  0  0
 21 22  1  0  0  0  0
 21 37  2  0  0  0  0
 22 23  2  0  0  0  0
 22 49  1  0  0  0  0
 23 24  1  0  0  0  0
 23 50  1  0  0  0  0
 24 25  1  0  0  0  0
 24 36  2  0  0  0  0
 25 26  1  0  0  0  0
 25 34  2  0  0  0  0
 26 27  2  0  0  0  0
 26 51  1  0  0  0  0
 27 28  1  0  0  0  0
 27 52  1  0  0  0  0
 28 29  1  0  0  0  0
 28 33  2  0  0  0  0
 29 30  2  0  0  0  0
 29 53  1  0  0  0  0
 30 31  1  0  0  0  0
 30 54  1  0  0  0  0
 31 32  2  0  0  0  0
 31 55  1  0  0  0  0
 32 33  1  0  0  0  0
 32 56  1  0  0  0  0
 34 35  1  0  0  0  0
 35 36  1  0  0  0  0
 35 57  1  0  0  0  0
 36 37  1  0  0  0  0
 37 58  1  0  0  0  0
M  END
$$$$
