CHEMBL3892030
 OpenBabel04072215373D

 55 58  0  0  1  0  0  0  0  0999 V2000
    3.3757   -0.1933    1.1743 C   0  0  0  0  0  0  0  0  0  0  0  0
    2.5470    0.4433    0.1947 O   0  0  0  0  0  0  0  0  0  0  0  0
    3.1182    0.6298   -1.0375 C   0  0  0  0  0  0  0  0  0  0  0  0
    4.1276   -0.2003   -1.5289 C   0  0  0  0  0  0  0  0  0  0  0  0
    4.7704    0.0821   -2.7564 C   0  0  0  0  0  0  0  0  0  0  0  0
    5.8196   -0.6635   -3.3058 C   0  0  0  0  0  0  0  0  0  0  0  0
    6.2786   -1.8165   -2.6150 N   0  0  0  0  0  0  0  0  0  0  0  0
    7.5195   -2.4365   -2.8581 C   0  0  0  0  0  0  0  0  0  0  0  0
    8.6878   -1.6684   -2.9606 C   0  0  0  0  0  0  0  0  0  0  0  0
    9.9070   -2.2695   -3.2751 C   0  0  0  0  0  0  0  0  0  0  0  0
    9.9748   -3.6502   -3.4737 C   0  0  0  0  0  0  0  0  0  0  0  0
   11.5044   -4.3240   -3.9061 Cl  0  0  0  0  0  0  0  0  0  0  0  0
    8.8190   -4.4281   -3.3355 C   0  0  0  0  0  0  0  0  0  0  0  0
    8.8247   -6.1402   -3.5700 Cl  0  0  0  0  0  0  0  0  0  0  0  0
    7.5990   -3.8227   -3.0184 C   0  0  0  0  0  0  0  0  0  0  0  0
    6.4187   -0.3199   -4.4627 N   0  0  0  0  0  0  0  0  0  0  0  0
    5.9629    0.7724   -5.0781 C   0  0  0  0  0  0  0  0  0  0  0  0
    4.9738    1.5541   -4.6471 N   0  0  0  0  0  0  0  0  0  0  0  0
    4.3971    1.2022   -3.4963 C   0  0  0  0  0  0  0  0  0  0  0  0
    3.3651    1.9838   -3.0263 C   0  0  0  0  0  0  0  0  0  0  0  0
    2.6683    1.6891   -1.8412 C   0  0  0  0  0  0  0  0  0  0  0  0
    1.5606    2.4110   -1.4453 O   0  0  0  0  0  0  0  0  0  0  0  0
    0.9679    3.1631   -2.5128 C   0  0  0  0  0  0  0  0  0  0  0  0
   -0.4229    3.7017   -2.2061 C   0  0  3  0  0  0  0  0  0  0  0  0
   -1.3923    2.5978   -1.7743 C   0  0  0  0  0  0  0  0  0  0  0  0
   -2.7354    3.2065   -1.4733 N   0  0  0  0  0  0  0  0  0  0  0  0
   -2.7977    4.0555    0.0049 S   0  0  0  0  0  0  0  0  0  0  0  0
   -4.4966    3.8505    0.4779 C   0  0  0  0  0  0  0  0  0  0  0  0
   -1.9954    3.3318    0.9663 O   0  0  0  0  0  0  0  0  0  0  0  0
   -2.5628    5.4572   -0.2620 O   0  0  0  0  0  0  0  0  0  0  0  0
   -3.2382    3.9267   -2.6904 C   0  0  0  0  0  0  0  0  0  0  0  0
   -2.1948    4.9032   -3.2621 C   0  0  0  0  0  0  0  0  0  0  0  0
   -0.9072    4.2998   -3.4344 O   0  0  0  0  0  0  0  0  0  0  0  0
    3.1558    0.2521    2.1517 H   0  0  0  0  0  0  0  0  0  0  0  0
    4.4480   -0.0627    1.0060 H   0  0  0  0  0  0  0  0  0  0  0  0
    3.1304   -1.2610    1.2236 H   0  0  0  0  0  0  0  0  0  0  0  0
    4.4433   -1.0704   -0.9593 H   0  0  0  0  0  0  0  0  0  0  0  0
    5.5130   -2.4721   -2.4989 H   0  0  0  0  0  0  0  0  0  0  0  0
    8.6488   -0.5939   -2.8220 H   0  0  0  0  0  0  0  0  0  0  0  0
   10.7970   -1.6507   -3.3705 H   0  0  0  0  0  0  0  0  0  0  0  0
    6.7043   -4.4339   -2.9348 H   0  0  0  0  0  0  0  0  0  0  0  0
    6.4395    1.0489   -6.0114 H   0  0  0  0  0  0  0  0  0  0  0  0
    3.1154    2.8474   -3.6353 H   0  0  0  0  0  0  0  0  0  0  0  0
    0.8869    2.5464   -3.4198 H   0  0  0  0  0  0  0  0  0  0  0  0
    1.6030    4.0301   -2.7353 H   0  0  0  0  0  0  0  0  0  0  0  0
   -0.3370    4.4776   -1.4379 H   0  0  0  0  0  0  0  0  0  0  0  0
   -1.0291    2.0251   -0.9164 H   0  0  0  0  0  0  0  0  0  0  0  0
   -1.5368    1.8787   -2.5922 H   0  0  0  0  0  0  0  0  0  0  0  0
   -4.7398    2.7869    0.4802 H   0  0  0  0  0  0  0  0  0  0  0  0
   -5.1359    4.4072   -0.2076 H   0  0  0  0  0  0  0  0  0  0  0  0
   -4.6000    4.2517    1.4894 H   0  0  0  0  0  0  0  0  0  0  0  0
   -4.1796    4.4422   -2.4800 H   0  0  0  0  0  0  0  0  0  0  0  0
   -3.4613    3.1607   -3.4444 H   0  0  0  0  0  0  0  0  0  0  0  0
   -2.0795    5.7991   -2.6477 H   0  0  0  0  0  0  0  0  0  0  0  0
   -2.5239    5.2395   -4.2516 H   0  0  0  0  0  0  0  0  0  0  0  0
  1  2  1  0  0  0  0
  1 34  1  0  0  0  0
  1 35  1  0  0  0  0
  1 36  1  0  0  0  0
  2  3  1  0  0  0  0
  3  4  1  0  0  0  0
  3 21  2  0  0  0  0
  4  5  2  0  0  0  0
  4 37  1  0  0  0  0
  5  6  1  0  0  0  0
  5 19  1  0  0  0  0
  6  7  1  0  0  0  0
  6 16  2  0  0  0  0
  7  8  1  0  0  0  0
  7 38  1  0  0  0  0
  8  9  1  0  0  0  0
  8 15  2  0  0  0  0
  9 10  2  0  0  0  0
  9 39  1  0  0  0  0
 10 11  1  0  0  0  0
 10 40  1  0  0  0  0
 11 12  1  0  0  0  0
 11 13  2  0  0  0  0
 13 14  1  0  0  0  0
 13 15  1  0  0  0  0
 15 41  1  0  0  0  0
 16 17  1  0  0  0  0
 17 18  2  0  0  0  0
 17 42  1  0  0  0  0
 18 19  1  0  0  0  0
 19 20  2  0  0  0  0
 20 21  1  0  0  0  0
 20 43  1  0  0  0  0
 21 22  1  0  0  0  0
 22 23  1  0  0  0  0
 23 24  1  0  0  0  0
 23 44  1  0  0  0  0
 23 45  1  0  0  0  0
 24 25  1  0  0  0  0
 24 33  1  0  0  0  0
 24 46  1  0  0  0  0
 25 26  1  0  0  0  0
 25 47  1  0  0  0  0
 25 48  1  0  0  0  0
 26 27  1  0  0  0  0
 26 31  1  0  0  0  0
 27 28  1  0  0  0  0
 27 29  2  0  0  0  0
 27 30  2  0  0  0  0
 28 49  1  0  0  0  0
 28 50  1  0  0  0  0
 28 51  1  0  0  0  0
 31 32  1  0  0  0  0
 31 52  1  0  0  0  0
 31 53  1  0  0  0  0
 32 33  1  0  0  0  0
 32 54  1  0  0  0  0
 32 55  1  0  0  0  0
M  END
$$$$
