CHEMBL398989
 OpenBabel04072215373D

 62 66  0  0  0  0  0  0  0  0999 V2000
    2.3651    2.2102   -5.8979 C   0  0  0  0  0  0  0  0  0  0  0  0
    1.6381    3.4778   -5.4664 C   0  0  0  0  0  0  0  0  0  0  0  0
    2.4853    4.4346   -4.7370 N   0  0  0  0  0  0  0  0  0  0  0  0
    2.9990    3.9140   -3.4511 C   0  0  0  0  0  0  0  0  0  0  0  0
    1.9440    3.8076   -2.3246 C   0  0  0  0  0  0  0  0  0  0  0  0
    1.2003    5.0542   -2.0586 N   0  0  0  0  0  0  0  0  0  0  0  0
    2.0134    6.1058   -1.4193 C   0  0  0  0  0  0  0  0  0  0  0  0
    2.5946    5.7793   -0.0309 C   0  0  0  0  0  0  0  0  0  0  0  0
    3.3865    6.9215    0.5774 C   0  0  0  0  0  0  0  0  0  0  0  0
    3.0706    8.2614    0.3290 C   0  0  0  0  0  0  0  0  0  0  0  0
    3.7827    9.2905    0.9436 C   0  0  0  0  0  0  0  0  0  0  0  0
    4.7961    9.0175    1.8611 C   0  0  0  0  0  0  0  0  0  0  0  0
    5.5058   10.0481    2.5025 N   0  0  0  0  0  0  0  0  0  0  0  0
    4.9665   11.2739    2.8990 C   0  0  0  0  0  0  0  0  0  0  0  0
    5.7994   12.3110    2.9883 N   0  0  0  0  0  0  0  0  0  0  0  0
    5.2657   13.4607    3.4548 C   0  0  0  0  0  0  0  0  0  0  0  0
    3.9442   13.6281    3.8273 C   0  0  0  0  0  0  0  0  0  0  0  0
    3.4922   15.1378    4.5128 Cl  0  0  0  0  0  0  0  0  0  0  0  0
    3.1265   12.5263    3.6430 C   0  0  0  0  0  0  0  0  0  0  0  0
    1.6472   12.4354    3.8299 C   0  0  0  0  0  0  0  0  0  0  0  0
    1.0514   11.1685    4.0302 C   0  0  0  0  0  0  0  0  0  0  0  0
   -0.3378   10.9653    4.0199 C   0  0  0  0  0  0  0  0  0  0  0  0
   -1.1822   12.0764    3.9001 C   0  0  0  0  0  0  0  0  0  0  0  0
   -2.5887   12.2527    3.8053 C   0  0  0  0  0  0  0  0  0  0  0  0
   -2.8417   13.6024    3.8951 C   0  0  0  0  0  0  0  0  0  0  0  0
   -1.6363   14.2527    3.9009 N   0  0  0  0  0  0  0  0  0  0  0  0
   -0.6068   13.3409    3.8334 C   0  0  0  0  0  0  0  0  0  0  0  0
    0.7802   13.5407    3.7276 C   0  0  0  0  0  0  0  0  0  0  0  0
    3.6600   11.3595    3.1946 N   0  0  0  0  0  0  0  0  0  0  0  0
    5.1476    7.6844    2.0801 C   0  0  0  0  0  0  0  0  0  0  0  0
    4.4292    6.6464    1.4673 C   0  0  0  0  0  0  0  0  0  0  0  0
    0.6701    5.5674   -3.3471 C   0  0  0  0  0  0  0  0  0  0  0  0
    1.7277    5.6813   -4.4780 C   0  0  0  0  0  0  0  0  0  0  0  0
    1.7263    1.6331   -6.5747 H   0  0  0  0  0  0  0  0  0  0  0  0
    2.5985    1.5658   -5.0455 H   0  0  0  0  0  0  0  0  0  0  0  0
    3.2929    2.4435   -6.4295 H   0  0  0  0  0  0  0  0  0  0  0  0
    0.7457    3.1979   -4.8966 H   0  0  0  0  0  0  0  0  0  0  0  0
    1.2853    3.9648   -6.3846 H   0  0  0  0  0  0  0  0  0  0  0  0
    3.8053    4.5797   -3.1160 H   0  0  0  0  0  0  0  0  0  0  0  0
    3.4860    2.9428   -3.5860 H   0  0  0  0  0  0  0  0  0  0  0  0
    2.4143    3.4290   -1.4109 H   0  0  0  0  0  0  0  0  0  0  0  0
    1.2143    3.0334   -2.5955 H   0  0  0  0  0  0  0  0  0  0  0  0
    1.3421    6.9645   -1.3030 H   0  0  0  0  0  0  0  0  0  0  0  0
    2.8344    6.4335   -2.0672 H   0  0  0  0  0  0  0  0  0  0  0  0
    3.2640    4.9160   -0.1120 H   0  0  0  0  0  0  0  0  0  0  0  0
    1.7872    5.5104    0.6610 H   0  0  0  0  0  0  0  0  0  0  0  0
    2.2646    8.5495   -0.3387 H   0  0  0  0  0  0  0  0  0  0  0  0
    3.5062   10.3179    0.7113 H   0  0  0  0  0  0  0  0  0  0  0  0
    6.4355   10.2050    2.1370 H   0  0  0  0  0  0  0  0  0  0  0  0
    5.9724   14.2841    3.5260 H   0  0  0  0  0  0  0  0  0  0  0  0
    1.6831   10.2877    4.1565 H   0  0  0  0  0  0  0  0  0  0  0  0
   -0.7442    9.9632    4.1176 H   0  0  0  0  0  0  0  0  0  0  0  0
   -3.3345   11.4721    3.7342 H   0  0  0  0  0  0  0  0  0  0  0  0
   -3.7707   14.1524    3.9562 H   0  0  0  0  0  0  0  0  0  0  0  0
   -1.5115   15.2518    3.9870 H   0  0  0  0  0  0  0  0  0  0  0  0
    1.1420   14.5420    3.5327 H   0  0  0  0  0  0  0  0  0  0  0  0
    5.9442    7.4426    2.7817 H   0  0  0  0  0  0  0  0  0  0  0  0
    4.7007    5.6150    1.7022 H   0  0  0  0  0  0  0  0  0  0  0  0
    0.1924    6.5442   -3.1982 H   0  0  0  0  0  0  0  0  0  0  0  0
   -0.1396    4.9021   -3.6712 H   0  0  0  0  0  0  0  0  0  0  0  0
    2.4483    6.4701   -4.2274 H   0  0  0  0  0  0  0  0  0  0  0  0
    1.2415    6.0302   -5.3975 H   0  0  0  0  0  0  0  0  0  0  0  0
  1  2  1  0  0  0  0
  1 34  1  0  0  0  0
  1 35  1  0  0  0  0
  1 36  1  0  0  0  0
  2  3  1  0  0  0  0
  2 37  1  0  0  0  0
  2 38  1  0  0  0  0
  3  4  1  0  0  0  0
  3 33  1  0  0  0  0
  4  5  1  0  0  0  0
  4 39  1  0  0  0  0
  4 40  1  0  0  0  0
  5  6  1  0  0  0  0
  5 41  1  0  0  0  0
  5 42  1  0  0  0  0
  6  7  1  0  0  0  0
  6 32  1  0  0  0  0
  7  8  1  0  0  0  0
  7 43  1  0  0  0  0
  7 44  1  0  0  0  0
  8  9  1  0  0  0  0
  8 45  1  0  0  0  0
  8 46  1  0  0  0  0
  9 10  1  0  0  0  0
  9 31  2  0  0  0  0
 10 11  2  0  0  0  0
 10 47  1  0  0  0  0
 11 12  1  0  0  0  0
 11 48  1  0  0  0  0
 12 13  1  0  0  0  0
 12 30  2  0  0  0  0
 13 14  1  0  0  0  0
 13 49  1  0  0  0  0
 14 15  1  0  0  0  0
 14 29  2  0  0  0  0
 15 16  2  0  0  0  0
 16 17  1  0  0  0  0
 16 50  1  0  0  0  0
 17 18  1  0  0  0  0
 17 19  2  0  0  0  0
 19 20  1  0  0  0  0
 19 29  1  0  0  0  0
 20 21  1  0  0  0  0
 20 28  2  0  0  0  0
 21 22  2  0  0  0  0
 21 51  1  0  0  0  0
 22 23  1  0  0  0  0
 22 52  1  0  0  0  0
 23 24  1  0  0  0  0
 23 27  2  0  0  0  0
 24 25  2  0  0  0  0
 24 53  1  0  0  0  0
 25 26  1  0  0  0  0
 25 54  1  0  0  0  0
 26 27  1  0  0  0  0
 26 55  1  0  0  0  0
 27 28  1  0  0  0  0
 28 56  1  0  0  0  0
 30 31  1  0  0  0  0
 30 57  1  0  0  0  0
 31 58  1  0  0  0  0
 32 33  1  0  0  0  0
 32 59  1  0  0  0  0
 32 60  1  0  0  0  0
 33 61  1  0  0  0  0
 33 62  1  0  0  0  0
M  END
$$$$
