CHEMBL3893575
 OpenBabel04072215373D

 57 61  0  0  1  0  0  0  0  0999 V2000
    3.2976    0.6427   -1.1230 C   0  0  0  0  0  0  0  0  0  0  0  0
    2.5473   -0.3713   -0.4473 O   0  0  0  0  0  0  0  0  0  0  0  0
    3.2688   -1.1472    0.4220 C   0  0  0  0  0  0  0  0  0  0  0  0
    4.3527   -0.6478    1.1504 C   0  0  0  0  0  0  0  0  0  0  0  0
    5.1515   -1.5040    1.9416 C   0  0  0  0  0  0  0  0  0  0  0  0
    6.2921   -1.1094    2.6559 C   0  0  0  0  0  0  0  0  0  0  0  0
    6.6549    0.2644    2.6819 N   0  0  0  0  0  0  0  0  0  0  0  0
    7.9425    0.7179    3.0305 C   0  0  0  0  0  0  0  0  0  0  0  0
    9.0750    0.1311    2.4505 C   0  0  0  0  0  0  0  0  0  0  0  0
   10.3603    0.5063    2.8427 C   0  0  0  0  0  0  0  0  0  0  0  0
   10.5263    1.4841    3.8227 C   0  0  0  0  0  0  0  0  0  0  0  0
   12.1385    1.8618    4.3117 Cl  0  0  0  0  0  0  0  0  0  0  0  0
    9.4034    2.1076    4.3793 C   0  0  0  0  0  0  0  0  0  0  0  0
    9.5341    3.3371    5.5875 Cl  0  0  0  0  0  0  0  0  0  0  0  0
    8.1161    1.7323    3.9757 C   0  0  0  0  0  0  0  0  0  0  0  0
    7.0576   -1.9914    3.3268 N   0  0  0  0  0  0  0  0  0  0  0  0
    6.6747   -3.2692    3.3013 C   0  0  0  0  0  0  0  0  0  0  0  0
    5.5967   -3.7492    2.6793 N   0  0  0  0  0  0  0  0  0  0  0  0
    4.8517   -2.8654    2.0075 C   0  0  0  0  0  0  0  0  0  0  0  0
    3.7320   -3.3287    1.3445 C   0  0  0  0  0  0  0  0  0  0  0  0
    2.8959   -2.4859    0.5937 C   0  0  0  0  0  0  0  0  0  0  0  0
    1.7200   -2.9227    0.0131 O   0  0  0  0  0  0  0  0  0  0  0  0
    1.2166   -4.1406    0.5894 C   0  0  0  0  0  0  0  0  0  0  0  0
   -0.2391   -4.3999    0.3930 C   0  0  0  0  0  0  0  0  0  0  0  0
   -1.1340   -3.8227   -0.4815 C   0  0  0  0  0  0  0  0  0  0  0  0
   -2.7215   -4.3977   -0.1536 S   0  0  0  0  0  0  0  0  0  0  0  0
   -2.1118   -5.3541    1.1445 C   0  0  0  0  0  0  0  0  0  0  0  0
   -3.0044   -5.9497    2.2165 C   0  0  3  0  0  0  0  0  0  0  0  0
   -2.2074   -6.8456    3.1893 C   0  0  0  0  0  0  0  0  0  0  0  0
   -1.9989   -8.2514    2.6294 C   0  0  0  0  0  0  0  0  0  0  0  0
   -3.3314   -8.8755    2.2311 C   0  0  0  0  0  0  0  0  0  0  0  0
   -4.0213   -8.0560    1.2352 N   0  0  0  0  0  0  0  0  0  0  0  0
   -4.2584   -6.6924    1.7220 C   0  0  0  0  0  0  0  0  0  0  0  0
   -0.8014   -5.3274    1.2566 N   0  0  0  0  0  0  0  0  0  0  0  0
    2.9519    0.6940   -2.1595 H   0  0  0  0  0  0  0  0  0  0  0  0
    4.3772    0.4484   -1.1610 H   0  0  0  0  0  0  0  0  0  0  0  0
    3.1116    1.6102   -0.6460 H   0  0  0  0  0  0  0  0  0  0  0  0
    4.6043    0.4084    1.0909 H   0  0  0  0  0  0  0  0  0  0  0  0
    5.9100    0.7922    3.1294 H   0  0  0  0  0  0  0  0  0  0  0  0
    8.9581   -0.6444    1.6947 H   0  0  0  0  0  0  0  0  0  0  0  0
   11.2184    0.0158    2.3914 H   0  0  0  0  0  0  0  0  0  0  0  0
    7.2522    2.2096    4.4293 H   0  0  0  0  0  0  0  0  0  0  0  0
    7.2950   -3.9815    3.8343 H   0  0  0  0  0  0  0  0  0  0  0  0
    3.5350   -4.3929    1.4345 H   0  0  0  0  0  0  0  0  0  0  0  0
    1.3427   -4.1061    1.6820 H   0  0  0  0  0  0  0  0  0  0  0  0
    1.7773   -4.9902    0.1828 H   0  0  0  0  0  0  0  0  0  0  0  0
   -0.9462   -3.0753   -1.2393 H   0  0  0  0  0  0  0  0  0  0  0  0
   -3.3482   -5.0836    2.8003 H   0  0  0  0  0  0  0  0  0  0  0  0
   -2.7676   -6.9255    4.1298 H   0  0  0  0  0  0  0  0  0  0  0  0
   -1.2381   -6.4050    3.4518 H   0  0  0  0  0  0  0  0  0  0  0  0
   -1.5101   -8.8776    3.3847 H   0  0  0  0  0  0  0  0  0  0  0  0
   -1.3281   -8.2190    1.7618 H   0  0  0  0  0  0  0  0  0  0  0  0
   -3.9652   -9.0092    3.1171 H   0  0  0  0  0  0  0  0  0  0  0  0
   -3.1548   -9.8719    1.8123 H   0  0  0  0  0  0  0  0  0  0  0  0
   -4.9162   -8.4911    1.0091 H   0  0  0  0  0  0  0  0  0  0  0  0
   -4.9697   -6.7496    2.5577 H   0  0  0  0  0  0  0  0  0  0  0  0
   -4.7710   -6.1276    0.9370 H   0  0  0  0  0  0  0  0  0  0  0  0
  1  2  1  0  0  0  0
  1 35  1  0  0  0  0
  1 36  1  0  0  0  0
  1 37  1  0  0  0  0
  2  3  1  0  0  0  0
  3  4  1  0  0  0  0
  3 21  2  0  0  0  0
  4  5  2  0  0  0  0
  4 38  1  0  0  0  0
  5  6  1  0  0  0  0
  5 19  1  0  0  0  0
  6  7  1  0  0  0  0
  6 16  2  0  0  0  0
  7  8  1  0  0  0  0
  7 39  1  0  0  0  0
  8  9  1  0  0  0  0
  8 15  2  0  0  0  0
  9 10  2  0  0  0  0
  9 40  1  0  0  0  0
 10 11  1  0  0  0  0
 10 41  1  0  0  0  0
 11 12  1  0  0  0  0
 11 13  2  0  0  0  0
 13 14  1  0  0  0  0
 13 15  1  0  0  0  0
 15 42  1  0  0  0  0
 16 17  1  0  0  0  0
 17 18  2  0  0  0  0
 17 43  1  0  0  0  0
 18 19  1  0  0  0  0
 19 20  2  0  0  0  0
 20 21  1  0  0  0  0
 20 44  1  0  0  0  0
 21 22  1  0  0  0  0
 22 23  1  0  0  0  0
 23 24  1  0  0  0  0
 23 45  1  0  0  0  0
 23 46  1  0  0  0  0
 24 25  2  0  0  0  0
 24 34  1  0  0  0  0
 25 26  1  0  0  0  0
 25 47  1  0  0  0  0
 26 27  1  0  0  0  0
 27 28  1  0  0  0  0
 27 34  2  0  0  0  0
 28 29  1  0  0  0  0
 28 33  1  0  0  0  0
 28 48  1  0  0  0  0
 29 30  1  0  0  0  0
 29 49  1  0  0  0  0
 29 50  1  0  0  0  0
 30 31  1  0  0  0  0
 30 51  1  0  0  0  0
 30 52  1  0  0  0  0
 31 32  1  0  0  0  0
 31 53  1  0  0  0  0
 31 54  1  0  0  0  0
 32 33  1  0  0  0  0
 32 55  1  0  0  0  0
 33 56  1  0  0  0  0
 33 57  1  0  0  0  0
M  END
$$$$
