CHEMBL2348997
 OpenBabel04072215363D

 52 56  0  0  0  0  0  0  0  0999 V2000
   -2.3233    0.4914    0.9142 C   0  0  0  0  0  0  0  0  0  0  0  0
   -0.9742    0.2273    0.3512 C   0  0  0  0  0  0  0  0  0  0  0  0
   -0.6111   -1.0269    0.0666 N   0  0  0  0  0  0  0  0  0  0  0  0
    0.6682   -0.9438   -0.4280 O   0  0  0  0  0  0  0  0  0  0  0  0
    1.0815    0.3523   -0.4424 C   0  0  0  0  0  0  0  0  0  0  0  0
    2.4510    0.5488   -0.9500 C   0  0  0  0  0  0  0  0  0  0  0  0
    0.0742    1.1610    0.0447 C   0  0  0  0  0  0  0  0  0  0  0  0
    0.0019    2.6019    0.2451 C   0  0  0  0  0  0  0  0  0  0  0  0
   -1.0347    3.0689    0.7082 O   0  0  0  0  0  0  0  0  0  0  0  0
    1.0994    3.3717   -0.1385 N   0  0  0  0  0  0  0  0  0  0  0  0
    1.1691    4.7870   -0.0095 C   0  0  0  0  0  0  0  0  0  0  0  0
    0.3083    5.4830    0.8475 C   0  0  0  0  0  0  0  0  0  0  0  0
    0.2823    6.8736    0.8743 C   0  0  0  0  0  0  0  0  0  0  0  0
    1.1454    7.5970    0.0630 C   0  0  0  0  0  0  0  0  0  0  0  0
    2.0574    6.9244   -0.7553 C   0  0  0  0  0  0  0  0  0  0  0  0
    3.0184    7.6505   -1.5169 O   0  0  0  0  0  0  0  0  0  0  0  0
    2.6488    8.8454   -2.1379 C   0  0  0  0  0  0  0  0  0  0  0  0
    3.8406    9.7107   -2.3327 C   0  0  0  0  0  0  0  0  0  0  0  0
    3.6100   10.9555   -2.7786 C   0  0  0  0  0  0  0  0  0  0  0  0
    2.2885   11.3377   -3.1037 C   0  0  0  0  0  0  0  0  0  0  0  0
    1.7980   12.4699   -3.5520 N   0  0  0  0  0  0  0  0  0  0  0  0
    0.4598   12.2550   -3.7149 C   0  0  0  0  0  0  0  0  0  0  0  0
   -0.4205   13.2026   -4.1814 N   0  0  0  0  0  0  0  0  0  0  0  0
   -0.0363   14.4817   -4.5341 C   0  0  0  0  0  0  0  0  0  0  0  0
    1.0900   14.9644   -4.4990 O   0  0  0  0  0  0  0  0  0  0  0  0
   -1.1686   15.3436   -5.0233 C   0  0  0  0  0  0  0  0  0  0  0  0
   -0.9182   16.3514   -6.1249 C   0  0  0  0  0  0  0  0  0  0  0  0
   -1.1577   16.8272   -4.7219 C   0  0  0  0  0  0  0  0  0  0  0  0
    0.1228   10.9721   -3.3492 C   0  0  0  0  0  0  0  0  0  0  0  0
    1.2960   10.3892   -2.9503 N   0  0  0  0  0  0  0  0  0  0  0  0
    1.4218    9.1282   -2.4554 N   0  0  0  0  0  0  0  0  0  0  0  0
    2.0969    5.5188   -0.7752 C   0  0  0  0  0  0  0  0  0  0  0  0
   -2.8878   -0.4366    1.0545 H   0  0  0  0  0  0  0  0  0  0  0  0
   -2.9033    1.1332    0.2430 H   0  0  0  0  0  0  0  0  0  0  0  0
   -2.2487    0.9820    1.8903 H   0  0  0  0  0  0  0  0  0  0  0  0
    2.9191   -0.4070   -1.2063 H   0  0  0  0  0  0  0  0  0  0  0  0
    3.0739    1.0344   -0.1934 H   0  0  0  0  0  0  0  0  0  0  0  0
    2.4420    1.1658   -1.8534 H   0  0  0  0  0  0  0  0  0  0  0  0
    1.8190    2.9381   -0.6937 H   0  0  0  0  0  0  0  0  0  0  0  0
   -0.3760    4.9693    1.5158 H   0  0  0  0  0  0  0  0  0  0  0  0
   -0.4288    7.3803    1.5206 H   0  0  0  0  0  0  0  0  0  0  0  0
    1.0819    8.6796    0.0784 H   0  0  0  0  0  0  0  0  0  0  0  0
    4.8347    9.3543   -2.0946 H   0  0  0  0  0  0  0  0  0  0  0  0
    4.4016   11.6834   -2.9243 H   0  0  0  0  0  0  0  0  0  0  0  0
   -1.3872   12.9357   -4.2628 H   0  0  0  0  0  0  0  0  0  0  0  0
   -2.1468   14.8704   -5.0324 H   0  0  0  0  0  0  0  0  0  0  0  0
   -1.6975   16.5225   -6.8570 H   0  0  0  0  0  0  0  0  0  0  0  0
    0.0889   16.4416   -6.5201 H   0  0  0  0  0  0  0  0  0  0  0  0
   -2.0974   17.3211   -4.5087 H   0  0  0  0  0  0  0  0  0  0  0  0
   -0.3102   17.2345   -4.1787 H   0  0  0  0  0  0  0  0  0  0  0  0
   -0.8098   10.4247   -3.3243 H   0  0  0  0  0  0  0  0  0  0  0  0
    2.8110    5.0175   -1.4208 H   0  0  0  0  0  0  0  0  0  0  0  0
  1  2  1  0  0  0  0
  1 33  1  0  0  0  0
  1 34  1  0  0  0  0
  1 35  1  0  0  0  0
  2  3  2  0  0  0  0
  2  7  1  0  0  0  0
  3  4  1  0  0  0  0
  4  5  1  0  0  0  0
  5  6  1  0  0  0  0
  5  7  2  0  0  0  0
  6 36  1  0  0  0  0
  6 37  1  0  0  0  0
  6 38  1  0  0  0  0
  7  8  1  0  0  0  0
  8  9  2  0  0  0  0
  8 10  1  0  0  0  0
 10 11  1  0  0  0  0
 10 39  1  0  0  0  0
 11 12  1  0  0  0  0
 11 32  2  0  0  0  0
 12 13  2  0  0  0  0
 12 40  1  0  0  0  0
 13 14  1  0  0  0  0
 13 41  1  0  0  0  0
 14 15  2  0  0  0  0
 14 42  1  0  0  0  0
 15 16  1  0  0  0  0
 15 32  1  0  0  0  0
 16 17  1  0  0  0  0
 17 18  1  0  0  0  0
 17 31  2  0  0  0  0
 18 19  2  0  0  0  0
 18 43  1  0  0  0  0
 19 20  1  0  0  0  0
 19 44  1  0  0  0  0
 20 21  2  0  0  0  0
 20 30  1  0  0  0  0
 21 22  1  0  0  0  0
 22 23  1  0  0  0  0
 22 29  2  0  0  0  0
 23 24  1  0  0  0  0
 23 45  1  0  0  0  0
 24 25  2  0  0  0  0
 24 26  1  0  0  0  0
 26 27  1  0  0  0  0
 26 28  1  0  0  0  0
 26 46  1  0  0  0  0
 27 28  1  0  0  0  0
 27 47  1  0  0  0  0
 27 48  1  0  0  0  0
 28 49  1  0  0  0  0
 28 50  1  0  0  0  0
 29 30  1  0  0  0  0
 29 51  1  0  0  0  0
 30 31  1  0  0  0  0
 32 52  1  0  0  0  0
M  END
$$$$
