CHEMBL4547332
 OpenBabel04072215383D

 59 61  0  0  0  0  0  0  0  0999 V2000
    3.5218   -3.0444    2.4721 C   0  0  0  0  0  0  0  0  0  0  0  0
    3.5870   -2.8811    1.1447 C   0  0  0  0  0  0  0  0  0  0  0  0
    3.6971   -1.5079    0.5842 C   0  0  0  0  0  0  0  0  0  0  0  0
    3.1708   -0.5401    1.1216 O   0  0  0  0  0  0  0  0  0  0  0  0
    4.5075   -1.3352   -0.5191 N   0  0  0  0  0  0  0  0  0  0  0  0
    5.3312   -2.3507   -1.0319 C   0  0  0  0  0  0  0  0  0  0  0  0
    6.4781   -2.6492   -0.3084 C   0  0  0  0  0  0  0  0  0  0  0  0
    7.1550   -3.8639   -0.5365 C   0  0  0  0  0  0  0  0  0  0  0  0
    8.1750   -4.3501    0.2923 C   0  0  0  0  0  0  0  0  0  0  0  0
    8.4804   -3.6883    1.5135 N   0  0  0  0  0  0  0  0  0  0  0  0
    9.1643   -4.2964    2.5896 C   0  0  0  0  0  0  0  0  0  0  0  0
    8.8388   -5.5996    2.9926 C   0  0  0  0  0  0  0  0  0  0  0  0
    9.6284   -6.2838    3.9168 C   0  0  0  0  0  0  0  0  0  0  0  0
   10.7390   -5.6526    4.4710 C   0  0  0  0  0  0  0  0  0  0  0  0
   11.8943   -6.6341    5.5996 Br  0  0  0  0  0  0  0  0  0  0  0  0
   11.0247   -4.3240    4.1653 C   0  0  0  0  0  0  0  0  0  0  0  0
   10.2298   -3.6556    3.2349 C   0  0  0  0  0  0  0  0  0  0  0  0
   10.5306   -2.3865    2.9158 F   0  0  0  0  0  0  0  0  0  0  0  0
    8.8010   -5.5171    0.0213 N   0  0  0  0  0  0  0  0  0  0  0  0
    8.3835   -6.1975   -1.0484 C   0  0  0  0  0  0  0  0  0  0  0  0
    7.3783   -5.8549   -1.8545 N   0  0  0  0  0  0  0  0  0  0  0  0
    6.7545   -4.6981   -1.5899 C   0  0  0  0  0  0  0  0  0  0  0  0
    5.6510   -4.3395   -2.3549 C   0  0  0  0  0  0  0  0  0  0  0  0
    4.9268   -3.1700   -2.1001 C   0  0  0  0  0  0  0  0  0  0  0  0
    3.8376   -2.9554   -2.9163 O   0  0  0  0  0  0  0  0  0  0  0  0
    3.6473   -1.5780   -3.2456 C   0  0  0  0  0  0  0  0  0  0  0  0
    2.6094   -1.3749   -4.3389 C   0  0  0  0  0  0  0  0  0  0  0  0
    2.4626    0.1289   -4.5738 C   0  0  0  0  0  0  0  0  0  0  0  0
    1.3994    0.4742   -5.5910 C   0  0  0  0  0  0  0  0  0  0  0  0
    1.0847   -0.3012   -6.4935 O   0  0  0  0  0  0  0  0  0  0  0  0
    0.7586    1.8557   -5.4703 C   0  0  0  0  0  0  0  0  0  0  0  0
    1.7777    2.9229   -5.5514 N   0  0  0  0  0  0  0  0  0  0  0  0
    2.4394    2.9297   -6.8611 C   0  0  0  0  0  0  0  0  0  0  0  0
    1.1494    4.2264   -5.3161 C   0  0  0  0  0  0  0  0  0  0  0  0
    3.5287   -4.0374    2.9084 H   0  0  0  0  0  0  0  0  0  0  0  0
    3.4850   -2.1951    3.1489 H   0  0  0  0  0  0  0  0  0  0  0  0
    3.6459   -3.7340    0.4807 H   0  0  0  0  0  0  0  0  0  0  0  0
    4.8917   -0.3976   -0.4903 H   0  0  0  0  0  0  0  0  0  0  0  0
    6.7776   -1.9973    0.5055 H   0  0  0  0  0  0  0  0  0  0  0  0
    8.7633   -2.7238    1.3639 H   0  0  0  0  0  0  0  0  0  0  0  0
    7.9893   -6.1081    2.5427 H   0  0  0  0  0  0  0  0  0  0  0  0
    9.3868   -7.3147    4.1588 H   0  0  0  0  0  0  0  0  0  0  0  0
   11.8754   -3.8157    4.6061 H   0  0  0  0  0  0  0  0  0  0  0  0
    8.9022   -7.1244   -1.2656 H   0  0  0  0  0  0  0  0  0  0  0  0
    5.3252   -5.0039   -3.1526 H   0  0  0  0  0  0  0  0  0  0  0  0
    4.6001   -1.1354   -3.5641 H   0  0  0  0  0  0  0  0  0  0  0  0
    3.2557   -1.0455   -2.3779 H   0  0  0  0  0  0  0  0  0  0  0  0
    1.6485   -1.8059   -4.0283 H   0  0  0  0  0  0  0  0  0  0  0  0
    2.8970   -1.8982   -5.2563 H   0  0  0  0  0  0  0  0  0  0  0  0
    3.4141    0.5545   -4.9174 H   0  0  0  0  0  0  0  0  0  0  0  0
    2.1990    0.6199   -3.6279 H   0  0  0  0  0  0  0  0  0  0  0  0
    0.2559    1.8814   -4.4943 H   0  0  0  0  0  0  0  0  0  0  0  0
   -0.0098    1.9613   -6.2429 H   0  0  0  0  0  0  0  0  0  0  0  0
    2.9532    1.9814   -7.0534 H   0  0  0  0  0  0  0  0  0  0  0  0
    3.2163    3.7027   -6.8868 H   0  0  0  0  0  0  0  0  0  0  0  0
    1.7369    3.1136   -7.6803 H   0  0  0  0  0  0  0  0  0  0  0  0
    0.6569    4.2503   -4.3378 H   0  0  0  0  0  0  0  0  0  0  0  0
    0.4044    4.4722   -6.0824 H   0  0  0  0  0  0  0  0  0  0  0  0
    1.9063    5.0186   -5.3056 H   0  0  0  0  0  0  0  0  0  0  0  0
  1  2  2  0  0  0  0
  1 35  1  0  0  0  0
  1 36  1  0  0  0  0
  2  3  1  0  0  0  0
  2 37  1  0  0  0  0
  3  4  2  0  0  0  0
  3  5  1  0  0  0  0
  5  6  1  0  0  0  0
  5 38  1  0  0  0  0
  6  7  1  0  0  0  0
  6 24  2  0  0  0  0
  7  8  2  0  0  0  0
  7 39  1  0  0  0  0
  8  9  1  0  0  0  0
  8 22  1  0  0  0  0
  9 10  1  0  0  0  0
  9 19  2  0  0  0  0
 10 11  1  0  0  0  0
 10 40  1  0  0  0  0
 11 12  1  0  0  0  0
 11 17  2  0  0  0  0
 12 13  2  0  0  0  0
 12 41  1  0  0  0  0
 13 14  1  0  0  0  0
 13 42  1  0  0  0  0
 14 15  1  0  0  0  0
 14 16  2  0  0  0  0
 16 17  1  0  0  0  0
 16 43  1  0  0  0  0
 17 18  1  0  0  0  0
 19 20  1  0  0  0  0
 20 21  2  0  0  0  0
 20 44  1  0  0  0  0
 21 22  1  0  0  0  0
 22 23  2  0  0  0  0
 23 24  1  0  0  0  0
 23 45  1  0  0  0  0
 24 25  1  0  0  0  0
 25 26  1  0  0  0  0
 26 27  1  0  0  0  0
 26 46  1  0  0  0  0
 26 47  1  0  0  0  0
 27 28  1  0  0  0  0
 27 48  1  0  0  0  0
 27 49  1  0  0  0  0
 28 29  1  0  0  0  0
 28 50  1  0  0  0  0
 28 51  1  0  0  0  0
 29 30  2  0  0  0  0
 29 31  1  0  0  0  0
 31 32  1  0  0  0  0
 31 52  1  0  0  0  0
 31 53  1  0  0  0  0
 32 33  1  0  0  0  0
 32 34  1  0  0  0  0
 33 54  1  0  0  0  0
 33 55  1  0  0  0  0
 33 56  1  0  0  0  0
 34 57  1  0  0  0  0
 34 58  1  0  0  0  0
 34 59  1  0  0  0  0
M  END
$$$$
