CHEMBL195847
 OpenBabel04072215363D

 56 59  0  0  0  0  0  0  0  0999 V2000
   -1.7534   -1.7384   -9.5429 C   0  0  0  0  0  0  0  0  0  0  0  0
   -2.1028   -1.1297   -8.3016 O   0  0  0  0  0  0  0  0  0  0  0  0
   -0.9470   -1.0953   -7.4854 N   0  0  0  0  0  0  0  0  0  0  0  0
   -0.2220    0.0734   -7.5520 C   0  0  0  0  0  0  0  0  0  0  0  0
   -0.3809    0.9520   -8.3960 O   0  0  0  0  0  0  0  0  0  0  0  0
    0.8485    0.2394   -6.5412 C   0  0  0  0  0  0  0  0  0  0  0  0
    1.9530    1.0360   -6.8800 C   0  0  0  0  0  0  0  0  0  0  0  0
    2.9713    1.2896   -5.9544 C   0  0  0  0  0  0  0  0  0  0  0  0
    4.0989    2.0764   -6.2656 N   0  0  0  0  0  0  0  0  0  0  0  0
    4.5828    2.3646   -7.5210 C   0  0  0  0  0  0  0  0  0  0  0  0
    4.5250    1.4292   -8.4294 N   0  0  0  0  0  0  0  0  0  0  0  0
    5.0361    1.6422   -9.6754 C   0  0  0  0  0  0  0  0  0  0  0  0
    5.5941    2.7272  -10.0987 N   0  0  0  0  0  0  0  0  0  0  0  0
    5.6440    3.7077   -9.1883 N   0  0  0  0  0  0  0  0  0  0  0  0
    6.1593    4.9430   -9.4369 C   0  0  0  0  0  0  0  0  0  0  0  0
    6.0510    5.6906   -8.2893 C   0  0  0  0  0  0  0  0  0  0  0  0
    6.5494    7.1025   -8.2030 C   0  0  0  0  0  0  0  0  0  0  0  0
    6.5567    7.8232   -7.1007 N   0  0  0  0  0  0  0  0  0  0  0  0
    7.1175    9.0378   -7.4119 N   0  0  0  0  0  0  0  0  0  0  0  0
    7.4067    9.0069   -8.6954 C   0  0  0  0  0  0  0  0  0  0  0  0
    8.0232    9.9424   -9.4574 N   0  0  0  0  0  0  0  0  0  0  0  0
    8.3669   11.2069   -8.8255 C   0  0  0  0  0  0  0  0  0  0  0  0
    7.8156    9.9771  -10.8932 C   0  0  0  0  0  0  0  0  0  0  0  0
    7.0727    7.8071   -9.2646 O   0  0  0  0  0  0  0  0  0  0  0  0
    5.3964    4.8760   -7.2873 C   0  0  0  0  0  0  0  0  0  0  0  0
    5.0080    5.3816   -5.9090 C   0  0  0  0  0  0  0  0  0  0  0  0
    3.5015    5.3526   -5.6553 C   0  0  0  0  0  0  0  0  0  0  0  0
    5.8320    4.7854   -4.7690 C   0  0  0  0  0  0  0  0  0  0  0  0
    5.1854    3.6284   -7.8965 C   0  0  0  0  0  0  0  0  0  0  0  0
    2.8670    0.6923   -4.6877 C   0  0  0  0  0  0  0  0  0  0  0  0
    3.8290    0.9079   -3.7772 F   0  0  0  0  0  0  0  0  0  0  0  0
    1.7906   -0.1201   -4.3421 C   0  0  0  0  0  0  0  0  0  0  0  0
    0.7840   -0.3396   -5.2747 C   0  0  0  0  0  0  0  0  0  0  0  0
   -0.2569   -1.1098   -4.9243 F   0  0  0  0  0  0  0  0  0  0  0  0
   -2.6524   -1.7990  -10.1615 H   0  0  0  0  0  0  0  0  0  0  0  0
   -1.3707   -2.7504   -9.3766 H   0  0  0  0  0  0  0  0  0  0  0  0
   -1.0076   -1.1373  -10.0727 H   0  0  0  0  0  0  0  0  0  0  0  0
   -1.0188   -1.6140   -6.6153 H   0  0  0  0  0  0  0  0  0  0  0  0
    1.9927    1.4816   -7.8730 H   0  0  0  0  0  0  0  0  0  0  0  0
    4.4216    2.6268   -5.4872 H   0  0  0  0  0  0  0  0  0  0  0  0
    4.9632    0.7925  -10.3749 H   0  0  0  0  0  0  0  0  0  0  0  0
    6.5618    5.1775  -10.4132 H   0  0  0  0  0  0  0  0  0  0  0  0
    8.4766   11.1263   -7.7378 H   0  0  0  0  0  0  0  0  0  0  0  0
    7.6068   11.9682   -9.0344 H   0  0  0  0  0  0  0  0  0  0  0  0
    9.3263   11.5646   -9.2149 H   0  0  0  0  0  0  0  0  0  0  0  0
    7.4828    9.0218  -11.3109 H   0  0  0  0  0  0  0  0  0  0  0  0
    8.7538   10.2412  -11.3933 H   0  0  0  0  0  0  0  0  0  0  0  0
    7.0693   10.7363  -11.1556 H   0  0  0  0  0  0  0  0  0  0  0  0
    5.2420    6.4473   -5.8679 H   0  0  0  0  0  0  0  0  0  0  0  0
    3.0718    4.3533   -5.7118 H   0  0  0  0  0  0  0  0  0  0  0  0
    2.9809    5.9706   -6.3969 H   0  0  0  0  0  0  0  0  0  0  0  0
    3.2689    5.7600   -4.6656 H   0  0  0  0  0  0  0  0  0  0  0  0
    5.6223    3.7345   -4.5766 H   0  0  0  0  0  0  0  0  0  0  0  0
    5.6316    5.3271   -3.8372 H   0  0  0  0  0  0  0  0  0  0  0  0
    6.9045    4.8709   -4.9758 H   0  0  0  0  0  0  0  0  0  0  0  0
    1.7364   -0.5695   -3.3568 H   0  0  0  0  0  0  0  0  0  0  0  0
  1  2  1  0  0  0  0
  1 35  1  0  0  0  0
  1 36  1  0  0  0  0
  1 37  1  0  0  0  0
  2  3  1  0  0  0  0
  3  4  1  0  0  0  0
  3 38  1  0  0  0  0
  4  5  2  0  0  0  0
  4  6  1  0  0  0  0
  6  7  1  0  0  0  0
  6 33  2  0  0  0  0
  7  8  2  0  0  0  0
  7 39  1  0  0  0  0
  8  9  1  0  0  0  0
  8 30  1  0  0  0  0
  9 10  1  0  0  0  0
  9 40  1  0  0  0  0
 10 11  2  0  0  0  0
 10 29  1  0  0  0  0
 11 12  1  0  0  0  0
 12 13  2  0  0  0  0
 12 41  1  0  0  0  0
 13 14  1  0  0  0  0
 14 15  1  0  0  0  0
 14 29  1  0  0  0  0
 15 16  2  0  0  0  0
 15 42  1  0  0  0  0
 16 17  1  0  0  0  0
 16 25  1  0  0  0  0
 17 18  2  0  0  0  0
 17 24  1  0  0  0  0
 18 19  1  0  0  0  0
 19 20  2  0  0  0  0
 20 21  1  0  0  0  0
 20 24  1  0  0  0  0
 21 22  1  0  0  0  0
 21 23  1  0  0  0  0
 22 43  1  0  0  0  0
 22 44  1  0  0  0  0
 22 45  1  0  0  0  0
 23 46  1  0  0  0  0
 23 47  1  0  0  0  0
 23 48  1  0  0  0  0
 25 26  1  0  0  0  0
 25 29  2  0  0  0  0
 26 27  1  0  0  0  0
 26 28  1  0  0  0  0
 26 49  1  0  0  0  0
 27 50  1  0  0  0  0
 27 51  1  0  0  0  0
 27 52  1  0  0  0  0
 28 53  1  0  0  0  0
 28 54  1  0  0  0  0
 28 55  1  0  0  0  0
 30 31  1  0  0  0  0
 30 32  2  0  0  0  0
 32 33  1  0  0  0  0
 32 56  1  0  0  0  0
 33 34  1  0  0  0  0
M  END
$$$$
