CHEMBL3899614
 OpenBabel04072215373D

 67 71  0  0  0  0  0  0  0  0999 V2000
   -1.5293    7.3747    1.9264 C   0  0  0  0  0  0  0  0  0  0  0  0
   -0.0372    7.6895    2.0736 C   0  0  0  0  0  0  0  0  0  0  0  0
    0.1652    8.8675    3.0258 C   0  0  0  0  0  0  0  0  0  0  0  0
    0.7809    6.4467    2.4110 C   0  0  0  0  0  0  0  0  0  0  0  0
    1.1404    5.6162    1.3371 C   0  0  0  0  0  0  0  0  0  0  0  0
    1.9108    4.4838    1.5658 C   0  0  0  0  0  0  0  0  0  0  0  0
    2.3570    4.1722    2.8547 C   0  0  0  0  0  0  0  0  0  0  0  0
    2.0250    4.9680    3.9633 C   0  0  0  0  0  0  0  0  0  0  0  0
    2.4623    4.7186    5.3138 N   0  0  0  0  0  0  0  0  0  0  0  0
    3.3039    3.6799    5.7339 C   0  0  0  0  0  0  0  0  0  0  0  0
    3.7330    2.8278    4.9528 O   0  0  0  0  0  0  0  0  0  0  0  0
    3.7511    3.5484    7.2039 C   0  0  0  0  0  0  0  0  0  0  0  0
    4.5262    2.3894    7.4220 C   0  0  0  0  0  0  0  0  0  0  0  0
    5.0196    2.0687    8.6701 C   0  0  0  0  0  0  0  0  0  0  0  0
    4.7766    2.9335    9.7446 C   0  0  0  0  0  0  0  0  0  0  0  0
    4.0591    4.1595    9.6374 C   0  0  0  0  0  0  0  0  0  0  0  0
    3.9474    4.9979   10.7933 N   0  0  0  0  0  0  0  0  0  0  0  0
    3.1918    6.2593   10.8668 C   0  0  0  0  0  0  0  0  0  0  0  0
    3.2151    7.0930   12.2414 C   0  0  0  0  0  0  0  0  0  0  0  0
    4.1990    6.7279   13.3469 C   0  0  0  0  0  0  0  0  0  0  0  0
    4.9433    5.5785   13.0930 C   0  0  0  0  0  0  0  0  0  0  0  0
    5.8150    5.1510   14.0685 C   0  0  0  0  0  0  0  0  0  0  0  0
    5.8556    5.6237   15.3120 N   0  0  0  0  0  0  0  0  0  0  0  0
    5.1385    6.6923   15.6122 C   0  0  0  0  0  0  0  0  0  0  0  0
    5.2820    7.0353   16.9360 C   0  0  0  0  0  0  0  0  0  0  0  0
    4.8997    8.2593   17.4805 C   0  0  0  0  0  0  0  0  0  0  0  0
    5.3465    8.5425   18.9082 C   0  0  0  0  0  0  0  0  0  0  0  0
    4.2743    8.8315   19.7892 O   0  0  0  0  0  0  0  0  0  0  0  0
    4.2885    9.1712   16.6030 C   0  0  0  0  0  0  0  0  0  0  0  0
    4.1778   10.6271   17.0385 C   0  0  0  0  0  0  0  0  0  0  0  0
    3.4736   10.7911   18.2681 O   0  0  0  0  0  0  0  0  0  0  0  0
    3.9558    8.7283   15.2499 C   0  0  0  0  0  0  0  0  0  0  0  0
    4.3622    7.4253   14.6816 C   0  0  0  0  0  0  0  0  0  0  0  0
    4.8701    4.6885   11.8879 C   0  0  0  0  0  0  0  0  0  0  0  0
    3.5210    4.4220    8.3292 C   0  0  0  0  0  0  0  0  0  0  0  0
    1.2119    6.0944    3.7190 C   0  0  0  0  0  0  0  0  0  0  0  0
   -2.0843    8.2739    1.6328 H   0  0  0  0  0  0  0  0  0  0  0  0
   -1.9581    7.0045    2.8630 H   0  0  0  0  0  0  0  0  0  0  0  0
   -1.7057    6.6192    1.1524 H   0  0  0  0  0  0  0  0  0  0  0  0
    0.3126    8.0438    1.0919 H   0  0  0  0  0  0  0  0  0  0  0  0
   -0.2130    8.6517    4.0296 H   0  0  0  0  0  0  0  0  0  0  0  0
   -0.3678    9.7507    2.6553 H   0  0  0  0  0  0  0  0  0  0  0  0
    1.2258    9.1294    3.1026 H   0  0  0  0  0  0  0  0  0  0  0  0
    0.8267    5.8516    0.3216 H   0  0  0  0  0  0  0  0  0  0  0  0
    2.2046    3.8485    0.7229 H   0  0  0  0  0  0  0  0  0  0  0  0
    2.9736    3.2824    2.9570 H   0  0  0  0  0  0  0  0  0  0  0  0
    2.1540    5.3630    6.0159 H   0  0  0  0  0  0  0  0  0  0  0  0
    4.7574    1.7008    6.6076 H   0  0  0  0  0  0  0  0  0  0  0  0
    5.6033    1.1668    8.8163 H   0  0  0  0  0  0  0  0  0  0  0  0
    5.1910    2.5865   10.6877 H   0  0  0  0  0  0  0  0  0  0  0  0
    2.1398    6.0324   10.6412 H   0  0  0  0  0  0  0  0  0  0  0  0
    3.5414    6.9209   10.0666 H   0  0  0  0  0  0  0  0  0  0  0  0
    3.3624    8.1462   11.9710 H   0  0  0  0  0  0  0  0  0  0  0  0
    2.2031    7.0235   12.6647 H   0  0  0  0  0  0  0  0  0  0  0  0
    6.5173    4.3443   13.8869 H   0  0  0  0  0  0  0  0  0  0  0  0
    5.7928    6.3213   17.5864 H   0  0  0  0  0  0  0  0  0  0  0  0
    6.0831    9.3521   18.9381 H   0  0  0  0  0  0  0  0  0  0  0  0
    5.8481    7.6615   19.3308 H   0  0  0  0  0  0  0  0  0  0  0  0
    4.0130    9.7536   19.5883 H   0  0  0  0  0  0  0  0  0  0  0  0
    3.7146   11.2675   16.2854 H   0  0  0  0  0  0  0  0  0  0  0  0
    5.1933   11.0122   17.2096 H   0  0  0  0  0  0  0  0  0  0  0  0
    2.5307   10.6451   18.0754 H   0  0  0  0  0  0  0  0  0  0  0  0
    3.4614    9.4442   14.5921 H   0  0  0  0  0  0  0  0  0  0  0  0
    5.8928    4.6283   11.4910 H   0  0  0  0  0  0  0  0  0  0  0  0
    4.5816    3.7112   12.3000 H   0  0  0  0  0  0  0  0  0  0  0  0
    2.9326    5.3188    8.1749 H   0  0  0  0  0  0  0  0  0  0  0  0
    0.9199    6.7196    4.5545 H   0  0  0  0  0  0  0  0  0  0  0  0
  1  2  1  0  0  0  0
  1 37  1  0  0  0  0
  1 38  1  0  0  0  0
  1 39  1  0  0  0  0
  2  3  1  0  0  0  0
  2  4  1  0  0  0  0
  2 40  1  0  0  0  0
  3 41  1  0  0  0  0
  3 42  1  0  0  0  0
  3 43  1  0  0  0  0
  4  5  1  0  0  0  0
  4 36  2  0  0  0  0
  5  6  2  0  0  0  0
  5 44  1  0  0  0  0
  6  7  1  0  0  0  0
  6 45  1  0  0  0  0
  7  8  2  0  0  0  0
  7 46  1  0  0  0  0
  8  9  1  0  0  0  0
  8 36  1  0  0  0  0
  9 10  1  0  0  0  0
  9 47  1  0  0  0  0
 10 11  2  0  0  0  0
 10 12  1  0  0  0  0
 12 13  1  0  0  0  0
 12 35  2  0  0  0  0
 13 14  2  0  0  0  0
 13 48  1  0  0  0  0
 14 15  1  0  0  0  0
 14 49  1  0  0  0  0
 15 16  2  0  0  0  0
 15 50  1  0  0  0  0
 16 17  1  0  0  0  0
 16 35  1  0  0  0  0
 17 18  1  0  0  0  0
 17 34  1  0  0  0  0
 18 19  1  0  0  0  0
 18 51  1  0  0  0  0
 18 52  1  0  0  0  0
 19 20  1  0  0  0  0
 19 53  1  0  0  0  0
 19 54  1  0  0  0  0
 20 21  1  0  0  0  0
 20 33  2  0  0  0  0
 21 22  2  0  0  0  0
 21 34  1  0  0  0  0
 22 23  1  0  0  0  0
 22 55  1  0  0  0  0
 23 24  2  0  0  0  0
 24 25  1  0  0  0  0
 24 33  1  0  0  0  0
 25 26  2  0  0  0  0
 25 56  1  0  0  0  0
 26 27  1  0  0  0  0
 26 29  1  0  0  0  0
 27 28  1  0  0  0  0
 27 57  1  0  0  0  0
 27 58  1  0  0  0  0
 28 59  1  0  0  0  0
 29 30  1  0  0  0  0
 29 32  2  0  0  0  0
 30 31  1  0  0  0  0
 30 60  1  0  0  0  0
 30 61  1  0  0  0  0
 31 62  1  0  0  0  0
 32 33  1  0  0  0  0
 32 63  1  0  0  0  0
 34 64  1  0  0  0  0
 34 65  1  0  0  0  0
 35 66  1  0  0  0  0
 36 67  1  0  0  0  0
M  END
$$$$
