CHEMBL1254192
 OpenBabel04072215363D

 43 46  0  0  0  0  0  0  0  0999 V2000
    3.7147   -0.7638   -1.0543 C   0  0  0  0  0  0  0  0  0  0  0  0
    3.4778   -0.4624    0.3403 N   0  0  0  0  0  0  0  0  0  0  0  0
    4.0628    0.5800    1.0185 C   0  0  0  0  0  0  0  0  0  0  0  0
    3.5886    0.5627    2.3121 C   0  0  0  0  0  0  0  0  0  0  0  0
    2.6909   -0.5234    2.4170 C   0  0  0  0  0  0  0  0  0  0  0  0
    1.9892   -0.9376    3.4921 N   0  0  0  0  0  0  0  0  0  0  0  0
    1.2263   -2.0085    3.2487 C   0  0  0  0  0  0  0  0  0  0  0  0
    1.1004   -2.6813    2.0939 N   0  0  0  0  0  0  0  0  0  0  0  0
    1.8411   -2.2811    1.0338 C   0  0  0  0  0  0  0  0  0  0  0  0
    1.7732   -2.9846   -0.1668 O   0  0  0  0  0  0  0  0  0  0  0  0
    1.5644   -4.3457   -0.0915 C   0  0  0  0  0  0  0  0  0  0  0  0
    2.0682   -5.1285    0.9454 C   0  0  0  0  0  0  0  0  0  0  0  0
    1.8233   -6.4979    0.9790 C   0  0  0  0  0  0  0  0  0  0  0  0
    1.1055   -7.1548   -0.0241 C   0  0  0  0  0  0  0  0  0  0  0  0
    0.8613   -8.5715    0.0154 N   0  0  0  0  0  0  0  0  0  0  0  0
    1.2629   -9.4055    1.0420 C   0  0  0  0  0  0  0  0  0  0  0  0
    1.8825   -9.0292    2.0385 O   0  0  0  0  0  0  0  0  0  0  0  0
    0.9410  -10.7498    0.8753 N   0  0  0  0  0  0  0  0  0  0  0  0
    1.3822  -11.6334    1.9112 C   0  0  0  0  0  0  0  0  0  0  0  0
    0.9632  -11.4267    3.2290 C   0  0  0  0  0  0  0  0  0  0  0  0
    1.5274  -12.1880    4.2376 C   0  0  0  0  0  0  0  0  0  0  0  0
    2.4623  -13.1353    4.0201 N   0  0  0  0  0  0  0  0  0  0  0  0
    2.8387  -13.3258    2.7357 C   0  0  0  0  0  0  0  0  0  0  0  0
    2.3196  -12.6286    1.6515 C   0  0  0  0  0  0  0  0  0  0  0  0
    0.6325   -6.3618   -1.0889 C   0  0  0  0  0  0  0  0  0  0  0  0
   -0.2730   -7.0639   -2.3858 Cl  0  0  0  0  0  0  0  0  0  0  0  0
    0.8673   -4.9714   -1.1272 C   0  0  0  0  0  0  0  0  0  0  0  0
    2.6395   -1.1570    1.1798 C   0  0  0  0  0  0  0  0  0  0  0  0
    4.4257   -0.0432   -1.4665 H   0  0  0  0  0  0  0  0  0  0  0  0
    2.7660   -0.6894   -1.5905 H   0  0  0  0  0  0  0  0  0  0  0  0
    4.1293   -1.7722   -1.1262 H   0  0  0  0  0  0  0  0  0  0  0  0
    4.7657    1.2460    0.5342 H   0  0  0  0  0  0  0  0  0  0  0  0
    3.8582    1.2494    3.1024 H   0  0  0  0  0  0  0  0  0  0  0  0
    0.6453   -2.3849    4.0851 H   0  0  0  0  0  0  0  0  0  0  0  0
    2.6317   -4.6913    1.7596 H   0  0  0  0  0  0  0  0  0  0  0  0
    2.2189   -6.9996    1.8537 H   0  0  0  0  0  0  0  0  0  0  0  0
    0.3135   -8.9533   -0.7460 H   0  0  0  0  0  0  0  0  0  0  0  0
    1.0254  -11.0867   -0.0733 H   0  0  0  0  0  0  0  0  0  0  0  0
    0.2383  -10.6564    3.4731 H   0  0  0  0  0  0  0  0  0  0  0  0
    1.2476  -12.0353    5.2765 H   0  0  0  0  0  0  0  0  0  0  0  0
    3.6277  -14.0654    2.6053 H   0  0  0  0  0  0  0  0  0  0  0  0
    2.7166  -12.8088    0.6606 H   0  0  0  0  0  0  0  0  0  0  0  0
    0.4944   -4.3717   -1.9532 H   0  0  0  0  0  0  0  0  0  0  0  0
  1  2  1  0  0  0  0
  1 29  1  0  0  0  0
  1 30  1  0  0  0  0
  1 31  1  0  0  0  0
  2  3  1  0  0  0  0
  2 28  1  0  0  0  0
  3  4  2  0  0  0  0
  3 32  1  0  0  0  0
  4  5  1  0  0  0  0
  4 33  1  0  0  0  0
  5  6  1  0  0  0  0
  5 28  2  0  0  0  0
  6  7  2  0  0  0  0
  7  8  1  0  0  0  0
  7 34  1  0  0  0  0
  8  9  2  0  0  0  0
  9 10  1  0  0  0  0
  9 28  1  0  0  0  0
 10 11  1  0  0  0  0
 11 12  1  0  0  0  0
 11 27  2  0  0  0  0
 12 13  2  0  0  0  0
 12 35  1  0  0  0  0
 13 14  1  0  0  0  0
 13 36  1  0  0  0  0
 14 15  1  0  0  0  0
 14 25  2  0  0  0  0
 15 16  1  0  0  0  0
 15 37  1  0  0  0  0
 16 17  2  0  0  0  0
 16 18  1  0  0  0  0
 18 19  1  0  0  0  0
 18 38  1  0  0  0  0
 19 20  1  0  0  0  0
 19 24  2  0  0  0  0
 20 21  2  0  0  0  0
 20 39  1  0  0  0  0
 21 22  1  0  0  0  0
 21 40  1  0  0  0  0
 22 23  2  0  0  0  0
 23 24  1  0  0  0  0
 23 41  1  0  0  0  0
 24 42  1  0  0  0  0
 25 26  1  0  0  0  0
 25 27  1  0  0  0  0
 27 43  1  0  0  0  0
M  END
$$$$
