CHEMBL3128223
 OpenBabel04072215363D

 61 65  0  0  0  0  0  0  0  0999 V2000
   10.9964   12.2675    7.9699 O   0  0  0  0  0  0  0  0  0  0  0  0
   10.1175   12.3767    7.1040 N   0  3  0  0  0  0  0  0  0  0  0  0
    9.4353   13.3951    6.9176 O   0  5  0  0  0  0  0  0  0  0  0  0
    9.8694   11.2195    6.2341 C   0  0  0  0  0  0  0  0  0  0  0  0
   10.6175   10.0428    6.4028 C   0  0  0  0  0  0  0  0  0  0  0  0
   10.3868    8.9484    5.5604 C   0  0  0  0  0  0  0  0  0  0  0  0
    9.4046    9.0374    4.5657 C   0  0  0  0  0  0  0  0  0  0  0  0
    9.1525    7.6974    3.4224 S   0  0  0  0  0  0  0  0  0  0  0  0
    8.5211    8.2212    2.2314 O   0  0  0  0  0  0  0  0  0  0  0  0
   10.3973    6.9592    3.3340 O   0  0  0  0  0  0  0  0  0  0  0  0
    8.0662    6.6850    4.2178 N   0  0  0  0  0  0  0  0  0  0  0  0
    6.7489    7.1410    4.4936 C   0  0  0  0  0  0  0  0  0  0  0  0
    5.7582    7.1803    3.5153 C   0  0  0  0  0  0  0  0  0  0  0  0
    4.4635    7.5751    3.8626 C   0  0  0  0  0  0  0  0  0  0  0  0
    4.1573    7.9049    5.1870 C   0  0  0  0  0  0  0  0  0  0  0  0
    5.1440    7.8375    6.1813 C   0  0  0  0  0  0  0  0  0  0  0  0
    4.8261    8.1558    7.6267 C   0  0  0  0  0  0  0  0  0  0  0  0
    4.9950    9.5808    7.8345 N   0  0  0  0  0  0  0  0  0  0  0  0
    4.7813   10.0501    9.1285 C   0  0  0  0  0  0  0  0  0  0  0  0
    4.9781    9.2502   10.2043 N   0  0  0  0  0  0  0  0  0  0  0  0
    4.8136    9.7697   11.4401 C   0  0  0  0  0  0  0  0  0  0  0  0
    4.4590   11.0221   11.7747 N   0  0  0  0  0  0  0  0  0  0  0  0
    4.2675   11.7898   10.6862 C   0  0  0  0  0  0  0  0  0  0  0  0
    4.3968   11.3772    9.3714 C   0  0  0  0  0  0  0  0  0  0  0  0
    4.0775   12.5174    8.6116 C   0  0  0  0  0  0  0  0  0  0  0  0
    3.7729   13.5772    9.3638 N   0  0  0  0  0  0  0  0  0  0  0  0
    3.9384   13.1245   10.6344 N   0  0  0  0  0  0  0  0  0  0  0  0
    3.7403   14.0710   11.7235 C   0  0  0  0  0  0  0  0  0  0  0  0
    4.6057   13.8287   12.9604 C   0  0  0  0  0  0  0  0  0  0  0  0
    4.4974   14.8421   14.0810 C   0  0  0  0  0  0  0  0  0  0  0  0
    4.6689   14.3909   15.4012 C   0  0  0  0  0  0  0  0  0  0  0  0
    4.6804   15.2845   16.4724 C   0  0  0  0  0  0  0  0  0  0  0  0
    4.5249   16.6471   16.2402 C   0  0  0  0  0  0  0  0  0  0  0  0
    4.3490   17.1117   14.9384 C   0  0  0  0  0  0  0  0  0  0  0  0
    4.3395   16.2168   13.8632 C   0  0  0  0  0  0  0  0  0  0  0  0
    6.4486    7.4797    5.8131 C   0  0  0  0  0  0  0  0  0  0  0  0
    8.6679   10.2157    4.3927 C   0  0  0  0  0  0  0  0  0  0  0  0
    8.8957   11.3095    5.2299 C   0  0  0  0  0  0  0  0  0  0  0  0
   11.3849    9.9699    7.1724 H   0  0  0  0  0  0  0  0  0  0  0  0
   10.9796    8.0428    5.6784 H   0  0  0  0  0  0  0  0  0  0  0  0
    8.1520    5.7250    3.8837 H   0  0  0  0  0  0  0  0  0  0  0  0
    5.9754    6.9052    2.4862 H   0  0  0  0  0  0  0  0  0  0  0  0
    3.6845    7.6111    3.1030 H   0  0  0  0  0  0  0  0  0  0  0  0
    3.1405    8.1998    5.4407 H   0  0  0  0  0  0  0  0  0  0  0  0
    5.4901    7.5688    8.2742 H   0  0  0  0  0  0  0  0  0  0  0  0
    3.7969    7.8460    7.8478 H   0  0  0  0  0  0  0  0  0  0  0  0
    4.5545   10.1535    7.1263 H   0  0  0  0  0  0  0  0  0  0  0  0
    4.9977    9.0919   12.2700 H   0  0  0  0  0  0  0  0  0  0  0  0
    4.0481   12.6159    7.5347 H   0  0  0  0  0  0  0  0  0  0  0  0
    2.6729   14.0507   11.9706 H   0  0  0  0  0  0  0  0  0  0  0  0
    3.9649   15.0584   11.3017 H   0  0  0  0  0  0  0  0  0  0  0  0
    5.6616   13.7690   12.6677 H   0  0  0  0  0  0  0  0  0  0  0  0
    4.3336   12.8554   13.3823 H   0  0  0  0  0  0  0  0  0  0  0  0
    4.8119   13.3308   15.6029 H   0  0  0  0  0  0  0  0  0  0  0  0
    4.8258   14.9157   17.4842 H   0  0  0  0  0  0  0  0  0  0  0  0
    4.5516   17.3467   17.0713 H   0  0  0  0  0  0  0  0  0  0  0  0
    4.2356   18.1779   14.7576 H   0  0  0  0  0  0  0  0  0  0  0  0
    4.2283   16.6233   12.8616 H   0  0  0  0  0  0  0  0  0  0  0  0
    7.2304    7.4425    6.5686 H   0  0  0  0  0  0  0  0  0  0  0  0
    7.9228   10.2909    3.6024 H   0  0  0  0  0  0  0  0  0  0  0  0
    8.3193   12.2201    5.0785 H   0  0  0  0  0  0  0  0  0  0  0  0
  1  2  2  0  0  0  0
  2  3  1  0  0  0  0
  2  4  1  0  0  0  0
  4  5  1  0  0  0  0
  4 38  2  0  0  0  0
  5  6  2  0  0  0  0
  5 39  1  0  0  0  0
  6  7  1  0  0  0  0
  6 40  1  0  0  0  0
  7  8  1  0  0  0  0
  7 37  2  0  0  0  0
  8  9  2  0  0  0  0
  8 10  2  0  0  0  0
  8 11  1  0  0  0  0
 11 12  1  0  0  0  0
 11 41  1  0  0  0  0
 12 13  1  0  0  0  0
 12 36  2  0  0  0  0
 13 14  2  0  0  0  0
 13 42  1  0  0  0  0
 14 15  1  0  0  0  0
 14 43  1  0  0  0  0
 15 16  2  0  0  0  0
 15 44  1  0  0  0  0
 16 17  1  0  0  0  0
 16 36  1  0  0  0  0
 17 18  1  0  0  0  0
 17 45  1  0  0  0  0
 17 46  1  0  0  0  0
 18 19  1  0  0  0  0
 18 47  1  0  0  0  0
 19 20  1  0  0  0  0
 19 24  2  0  0  0  0
 20 21  2  0  0  0  0
 21 22  1  0  0  0  0
 21 48  1  0  0  0  0
 22 23  2  0  0  0  0
 23 24  1  0  0  0  0
 23 27  1  0  0  0  0
 24 25  1  0  0  0  0
 25 26  2  0  0  0  0
 25 49  1  0  0  0  0
 26 27  1  0  0  0  0
 27 28  1  0  0  0  0
 28 29  1  0  0  0  0
 28 50  1  0  0  0  0
 28 51  1  0  0  0  0
 29 30  1  0  0  0  0
 29 52  1  0  0  0  0
 29 53  1  0  0  0  0
 30 31  1  0  0  0  0
 30 35  2  0  0  0  0
 31 32  2  0  0  0  0
 31 54  1  0  0  0  0
 32 33  1  0  0  0  0
 32 55  1  0  0  0  0
 33 34  2  0  0  0  0
 33 56  1  0  0  0  0
 34 35  1  0  0  0  0
 34 57  1  0  0  0  0
 35 58  1  0  0  0  0
 36 59  1  0  0  0  0
 37 38  1  0  0  0  0
 37 60  1  0  0  0  0
 38 61  1  0  0  0  0
M  CHG  2   2   1   3  -1
M  END
$$$$
