CHEMBL565603
 OpenBabel04072215383D

 59 63  0  0  0  0  0  0  0  0999 V2000
    4.4802    9.1956    0.0749 C   0  0  0  0  0  0  0  0  0  0  0  0
    5.0596    7.7998    0.1871 C   0  0  0  0  0  0  0  0  0  0  0  0
    4.5259    6.9133   -0.8234 N   0  0  0  0  0  0  0  0  0  0  0  0
    3.4116    6.1352   -0.7084 C   0  0  0  0  0  0  0  0  0  0  0  0
    3.2410    5.3864   -1.7749 N   0  0  0  0  0  0  0  0  0  0  0  0
    4.3069    5.6782   -2.5930 C   0  0  0  0  0  0  0  0  0  0  0  0
    4.6045    4.9407   -3.8468 C   0  0  0  0  0  0  0  0  0  0  0  0
    3.7996    3.9415   -4.3335 C   0  0  0  0  0  0  0  0  0  0  0  0
    4.4149    3.2465   -5.4097 C   0  0  0  0  0  0  0  0  0  0  0  0
    3.8755    2.1446   -5.9955 N   0  0  0  0  0  0  0  0  0  0  0  0
    4.6527    1.5164   -6.8870 C   0  0  0  0  0  0  0  0  0  0  0  0
    5.9202    1.9246   -7.2412 C   0  0  0  0  0  0  0  0  0  0  0  0
    6.4683    3.0766   -6.6700 C   0  0  0  0  0  0  0  0  0  0  0  0
    7.8322    3.2099   -6.9330 O   0  0  0  0  0  0  0  0  0  0  0  0
    8.5053    4.3967   -6.9025 C   0  0  0  0  0  0  0  0  0  0  0  0
    9.6870    4.3788   -6.1638 C   0  0  0  0  0  0  0  0  0  0  0  0
   10.7137    5.2827   -6.4509 C   0  0  0  0  0  0  0  0  0  0  0  0
   10.5798    6.2186   -7.4803 C   0  0  0  0  0  0  0  0  0  0  0  0
   11.6799    6.9811   -7.9605 N   0  0  0  0  0  0  0  0  0  0  0  0
   13.0170    6.6395   -7.8075 C   0  0  0  0  0  0  0  0  0  0  0  0
   13.4170    5.6407   -7.2008 O   0  0  0  0  0  0  0  0  0  0  0  0
   14.0687    7.4871   -8.4994 C   0  0  0  0  0  0  0  0  0  0  0  0
   13.6285    8.7326   -9.2093 C   0  0  0  0  0  0  0  0  0  0  0  0
   12.7306    9.4353   -8.7525 O   0  0  0  0  0  0  0  0  0  0  0  0
   14.2883    8.9735  -10.4070 N   0  0  0  0  0  0  0  0  0  0  0  0
   14.0079   10.1042  -11.2027 C   0  0  0  0  0  0  0  0  0  0  0  0
   13.8436   11.3764  -10.6398 C   0  0  0  0  0  0  0  0  0  0  0  0
   13.5193   12.4720  -11.4452 C   0  0  0  0  0  0  0  0  0  0  0  0
   13.3312   12.2928  -12.8130 C   0  0  0  0  0  0  0  0  0  0  0  0
   13.5108   11.0299  -13.3664 C   0  0  0  0  0  0  0  0  0  0  0  0
   13.2981   10.8509  -14.6767 F   0  0  0  0  0  0  0  0  0  0  0  0
   13.8823    9.9407  -12.5822 C   0  0  0  0  0  0  0  0  0  0  0  0
    9.3280    6.3463   -8.1007 C   0  0  0  0  0  0  0  0  0  0  0  0
    8.3054    5.4198   -7.8254 C   0  0  0  0  0  0  0  0  0  0  0  0
    7.1808    5.4660   -8.5541 F   0  0  0  0  0  0  0  0  0  0  0  0
    5.6830    3.7593   -5.7319 C   0  0  0  0  0  0  0  0  0  0  0  0
    6.0075    5.1558   -4.7852 S   0  0  0  0  0  0  0  0  0  0  0  0
    5.0946    6.6589   -2.0371 C   0  0  0  0  0  0  0  0  0  0  0  0
    4.9253    9.8525    0.8277 H   0  0  0  0  0  0  0  0  0  0  0  0
    3.3958    9.1824    0.2262 H   0  0  0  0  0  0  0  0  0  0  0  0
    4.6738    9.6244   -0.9141 H   0  0  0  0  0  0  0  0  0  0  0  0
    4.8436    7.3606    1.1668 H   0  0  0  0  0  0  0  0  0  0  0  0
    6.1487    7.8237    0.0650 H   0  0  0  0  0  0  0  0  0  0  0  0
    2.7747    6.1376    0.1667 H   0  0  0  0  0  0  0  0  0  0  0  0
    2.8588    3.6504   -3.8833 H   0  0  0  0  0  0  0  0  0  0  0  0
    4.2291    0.6047   -7.3008 H   0  0  0  0  0  0  0  0  0  0  0  0
    6.5088    1.3179   -7.9221 H   0  0  0  0  0  0  0  0  0  0  0  0
    9.8588    3.5970   -5.4278 H   0  0  0  0  0  0  0  0  0  0  0  0
   11.6344    5.1968   -5.8817 H   0  0  0  0  0  0  0  0  0  0  0  0
   11.4606    7.7739   -8.5621 H   0  0  0  0  0  0  0  0  0  0  0  0
   14.6020    6.8274   -9.1945 H   0  0  0  0  0  0  0  0  0  0  0  0
   14.7852    7.8032   -7.7287 H   0  0  0  0  0  0  0  0  0  0  0  0
   14.7047    8.1782  -10.8805 H   0  0  0  0  0  0  0  0  0  0  0  0
   13.9818   11.5325   -9.5722 H   0  0  0  0  0  0  0  0  0  0  0  0
   13.3999   13.4569  -11.0004 H   0  0  0  0  0  0  0  0  0  0  0  0
   13.0413   13.1243  -13.4478 H   0  0  0  0  0  0  0  0  0  0  0  0
   13.9907    8.9715  -13.0557 H   0  0  0  0  0  0  0  0  0  0  0  0
    9.1573    7.0802   -8.8825 H   0  0  0  0  0  0  0  0  0  0  0  0
    6.0041    7.1381   -2.3695 H   0  0  0  0  0  0  0  0  0  0  0  0
  1  2  1  0  0  0  0
  1 39  1  0  0  0  0
  1 40  1  0  0  0  0
  1 41  1  0  0  0  0
  2  3  1  0  0  0  0
  2 42  1  0  0  0  0
  2 43  1  0  0  0  0
  3  4  1  0  0  0  0
  3 38  1  0  0  0  0
  4  5  2  0  0  0  0
  4 44  1  0  0  0  0
  5  6  1  0  0  0  0
  6  7  1  0  0  0  0
  6 38  2  0  0  0  0
  7  8  2  0  0  0  0
  7 37  1  0  0  0  0
  8  9  1  0  0  0  0
  8 45  1  0  0  0  0
  9 10  1  0  0  0  0
  9 36  2  0  0  0  0
 10 11  2  0  0  0  0
 11 12  1  0  0  0  0
 11 46  1  0  0  0  0
 12 13  2  0  0  0  0
 12 47  1  0  0  0  0
 13 14  1  0  0  0  0
 13 36  1  0  0  0  0
 14 15  1  0  0  0  0
 15 16  1  0  0  0  0
 15 34  2  0  0  0  0
 16 17  2  0  0  0  0
 16 48  1  0  0  0  0
 17 18  1  0  0  0  0
 17 49  1  0  0  0  0
 18 19  1  0  0  0  0
 18 33  2  0  0  0  0
 19 20  1  0  0  0  0
 19 50  1  0  0  0  0
 20 21  2  0  0  0  0
 20 22  1  0  0  0  0
 22 23  1  0  0  0  0
 22 51  1  0  0  0  0
 22 52  1  0  0  0  0
 23 24  2  0  0  0  0
 23 25  1  0  0  0  0
 25 26  1  0  0  0  0
 25 53  1  0  0  0  0
 26 27  1  0  0  0  0
 26 32  2  0  0  0  0
 27 28  2  0  0  0  0
 27 54  1  0  0  0  0
 28 29  1  0  0  0  0
 28 55  1  0  0  0  0
 29 30  2  0  0  0  0
 29 56  1  0  0  0  0
 30 31  1  0  0  0  0
 30 32  1  0  0  0  0
 32 57  1  0  0  0  0
 33 34  1  0  0  0  0
 33 58  1  0  0  0  0
 34 35  1  0  0  0  0
 36 37  1  0  0  0  0
 38 59  1  0  0  0  0
M  END
$$$$
