CHEMBL2023118
 OpenBabel04072215363D

 56 59  0  0  0  0  0  0  0  0999 V2000
    7.8158    1.2565    0.2474 C   0  0  0  0  0  0  0  0  0  0  0  0
    8.1502    2.7345    0.3260 C   0  0  0  0  0  0  0  0  0  0  0  0
    6.9721    3.5722    0.2206 N   0  0  0  0  0  0  0  0  0  0  0  0
    6.1274    3.8932    1.2416 C   0  0  0  0  0  0  0  0  0  0  0  0
    5.2035    4.7677    0.7260 C   0  0  0  0  0  0  0  0  0  0  0  0
    4.1594    5.3946    1.3830 N   0  0  0  0  0  0  0  0  0  0  0  0
    3.7566    5.0978    2.6715 C   0  0  0  0  0  0  0  0  0  0  0  0
    4.2275    4.1962    3.3682 O   0  0  0  0  0  0  0  0  0  0  0  0
    2.6191    5.9340    3.2437 C   0  0  0  0  0  0  0  0  0  0  0  0
    2.1213    7.0975    2.4166 C   0  0  0  0  0  0  0  0  0  0  0  0
    1.0692    6.8001    1.5113 C   0  0  0  0  0  0  0  0  0  0  0  0
    0.5320    7.7599    0.6410 C   0  0  0  0  0  0  0  0  0  0  0  0
    1.0136    9.0589    0.6820 C   0  0  0  0  0  0  0  0  0  0  0  0
    0.6640   10.0794   -0.1696 O   0  0  0  0  0  0  0  0  0  0  0  0
   -0.5918   10.2152   -0.7259 C   0  0  0  0  0  0  0  0  0  0  0  0
   -1.7686    9.8687   -0.0698 C   0  0  0  0  0  0  0  0  0  0  0  0
   -2.9658   10.1697   -0.6905 C   0  0  0  0  0  0  0  0  0  0  0  0
   -3.0665   10.7894   -1.8855 N   0  0  0  0  0  0  0  0  0  0  0  0
   -1.9354   11.1441   -2.5137 C   0  0  0  0  0  0  0  0  0  0  0  0
   -2.0452   11.8003   -3.7334 C   0  0  0  0  0  0  0  0  0  0  0  0
   -0.9232   12.2001   -4.4591 C   0  0  0  0  0  0  0  0  0  0  0  0
   -0.9431   12.8141   -5.6812 O   0  0  0  0  0  0  0  0  0  0  0  0
   -2.1610   13.4568   -6.0459 C   0  0  0  0  0  0  0  0  0  0  0  0
    0.3412   11.9394   -3.9417 C   0  0  0  0  0  0  0  0  0  0  0  0
    0.4782   11.2994   -2.7083 C   0  0  0  0  0  0  0  0  0  0  0  0
   -0.6573   10.8810   -1.9776 C   0  0  0  0  0  0  0  0  0  0  0  0
    2.0591    9.3589    1.5636 C   0  0  0  0  0  0  0  0  0  0  0  0
    2.6308    8.4041    2.4240 C   0  0  0  0  0  0  0  0  0  0  0  0
    3.6615    8.9532    3.1351 O   0  0  0  0  0  0  0  0  0  0  0  0
    4.4114    8.2378    4.0950 C   0  0  0  0  0  0  0  0  0  0  0  0
    5.5775    4.8990   -0.6326 C   0  0  0  0  0  0  0  0  0  0  0  0
    6.6504    4.1641   -0.9459 N   0  0  0  0  0  0  0  0  0  0  0  0
    8.7222    0.6561    0.3721 H   0  0  0  0  0  0  0  0  0  0  0  0
    7.3662    1.0053   -0.7186 H   0  0  0  0  0  0  0  0  0  0  0  0
    7.1069    0.9681    1.0312 H   0  0  0  0  0  0  0  0  0  0  0  0
    8.8453    3.0218   -0.4700 H   0  0  0  0  0  0  0  0  0  0  0  0
    8.6258    2.9670    1.2855 H   0  0  0  0  0  0  0  0  0  0  0  0
    6.2703    3.4912    2.2344 H   0  0  0  0  0  0  0  0  0  0  0  0
    3.6591    6.0968    0.8513 H   0  0  0  0  0  0  0  0  0  0  0  0
    2.9039    6.2568    4.2474 H   0  0  0  0  0  0  0  0  0  0  0  0
    1.7855    5.2403    3.4200 H   0  0  0  0  0  0  0  0  0  0  0  0
    0.6688    5.7852    1.4618 H   0  0  0  0  0  0  0  0  0  0  0  0
   -0.2346    7.4622   -0.0675 H   0  0  0  0  0  0  0  0  0  0  0  0
   -1.7764    9.4016    0.9069 H   0  0  0  0  0  0  0  0  0  0  0  0
   -3.9189    9.9292   -0.2270 H   0  0  0  0  0  0  0  0  0  0  0  0
   -3.0497   11.9778   -4.1057 H   0  0  0  0  0  0  0  0  0  0  0  0
   -2.0218   13.9041   -7.0348 H   0  0  0  0  0  0  0  0  0  0  0  0
   -2.3968   14.2612   -5.3410 H   0  0  0  0  0  0  0  0  0  0  0  0
   -2.9908   12.7478   -6.1276 H   0  0  0  0  0  0  0  0  0  0  0  0
    1.2265   12.2424   -4.4963 H   0  0  0  0  0  0  0  0  0  0  0  0
    1.4783   11.1230   -2.3193 H   0  0  0  0  0  0  0  0  0  0  0  0
    2.4640   10.3710    1.5642 H   0  0  0  0  0  0  0  0  0  0  0  0
    5.2021    8.9018    4.4606 H   0  0  0  0  0  0  0  0  0  0  0  0
    4.9083    7.3695    3.6572 H   0  0  0  0  0  0  0  0  0  0  0  0
    3.7960    7.9789    4.9602 H   0  0  0  0  0  0  0  0  0  0  0  0
    5.1097    5.4897   -1.4092 H   0  0  0  0  0  0  0  0  0  0  0  0
  1  2  1  0  0  0  0
  1 33  1  0  0  0  0
  1 34  1  0  0  0  0
  1 35  1  0  0  0  0
  2  3  1  0  0  0  0
  2 36  1  0  0  0  0
  2 37  1  0  0  0  0
  3  4  1  0  0  0  0
  3 32  1  0  0  0  0
  4  5  2  0  0  0  0
  4 38  1  0  0  0  0
  5  6  1  0  0  0  0
  5 31  1  0  0  0  0
  6  7  1  0  0  0  0
  6 39  1  0  0  0  0
  7  8  2  0  0  0  0
  7  9  1  0  0  0  0
  9 10  1  0  0  0  0
  9 40  1  0  0  0  0
  9 41  1  0  0  0  0
 10 11  1  0  0  0  0
 10 28  2  0  0  0  0
 11 12  2  0  0  0  0
 11 42  1  0  0  0  0
 12 13  1  0  0  0  0
 12 43  1  0  0  0  0
 13 14  1  0  0  0  0
 13 27  2  0  0  0  0
 14 15  1  0  0  0  0
 15 16  1  0  0  0  0
 15 26  2  0  0  0  0
 16 17  2  0  0  0  0
 16 44  1  0  0  0  0
 17 18  1  0  0  0  0
 17 45  1  0  0  0  0
 18 19  2  0  0  0  0
 19 20  1  0  0  0  0
 19 26  1  0  0  0  0
 20 21  2  0  0  0  0
 20 46  1  0  0  0  0
 21 22  1  0  0  0  0
 21 24  1  0  0  0  0
 22 23  1  0  0  0  0
 23 47  1  0  0  0  0
 23 48  1  0  0  0  0
 23 49  1  0  0  0  0
 24 25  2  0  0  0  0
 24 50  1  0  0  0  0
 25 26  1  0  0  0  0
 25 51  1  0  0  0  0
 27 28  1  0  0  0  0
 27 52  1  0  0  0  0
 28 29  1  0  0  0  0
 29 30  1  0  0  0  0
 30 53  1  0  0  0  0
 30 54  1  0  0  0  0
 30 55  1  0  0  0  0
 31 32  2  0  0  0  0
 31 56  1  0  0  0  0
M  END
$$$$
