CHEMBL430090
 OpenBabel04072215383D

 49 52  0  0  0  0  0  0  0  0999 V2000
    2.0978    0.6533   -0.5463 C   0  0  0  0  0  0  0  0  0  0  0  0
    2.2158   -0.0563    0.6838 O   0  0  0  0  0  0  0  0  0  0  0  0
    3.0192   -1.1780    0.6389 C   0  0  0  0  0  0  0  0  0  0  0  0
    2.7077   -2.1918    1.5494 C   0  0  0  0  0  0  0  0  0  0  0  0
    3.4667   -3.3572    1.6183 C   0  0  0  0  0  0  0  0  0  0  0  0
    4.6119   -3.5702    0.8122 C   0  0  0  0  0  0  0  0  0  0  0  0
    5.3841   -4.8233    0.9171 C   0  0  0  0  0  0  0  0  0  0  0  0
    5.8215   -5.5043   -0.2214 C   0  0  0  0  0  0  0  0  0  0  0  0
    6.6397   -6.6378   -0.1307 C   0  0  0  0  0  0  0  0  0  0  0  0
    6.9833   -7.1834    1.1000 C   0  0  0  0  0  0  0  0  0  0  0  0
    7.7857   -8.3401    1.2287 N   0  0  0  0  0  0  0  0  0  0  0  0
    8.5500   -8.8900    0.2139 C   0  0  0  0  0  0  0  0  0  0  0  0
    8.8014   -8.3386   -0.8542 O   0  0  0  0  0  0  0  0  0  0  0  0
    8.9726  -10.1741    0.5278 N   0  0  0  0  0  0  0  0  0  0  0  0
    9.7173  -10.9471   -0.3960 C   0  0  0  0  0  0  0  0  0  0  0  0
    9.3824  -12.2914   -0.5667 C   0  0  0  0  0  0  0  0  0  0  0  0
   10.0343  -13.0564   -1.5389 C   0  0  0  0  0  0  0  0  0  0  0  0
   11.0503  -12.4912   -2.3097 C   0  0  0  0  0  0  0  0  0  0  0  0
   11.4310  -11.1577   -2.1220 C   0  0  0  0  0  0  0  0  0  0  0  0
   12.5425  -10.5348   -2.9288 C   0  0  0  0  0  0  0  0  0  0  0  0
   13.1181  -11.3967   -3.8123 F   0  0  0  0  0  0  0  0  0  0  0  0
   12.1308   -9.4690   -3.6646 F   0  0  0  0  0  0  0  0  0  0  0  0
   13.5602  -10.0783   -2.1451 F   0  0  0  0  0  0  0  0  0  0  0  0
   10.7517  -10.3923   -1.1589 C   0  0  0  0  0  0  0  0  0  0  0  0
    6.4670   -6.5849    2.2528 C   0  0  0  0  0  0  0  0  0  0  0  0
    5.6933   -5.4119    2.1592 C   0  0  0  0  0  0  0  0  0  0  0  0
    4.9596   -2.5242   -0.1018 C   0  0  0  0  0  0  0  0  0  0  0  0
    5.9729   -2.2245   -1.0798 C   0  0  0  0  0  0  0  0  0  0  0  0
    7.0217   -2.9974   -1.4179 N   0  0  0  0  0  0  0  0  0  0  0  0
    5.7694   -1.0442   -1.6614 N   0  0  0  0  0  0  0  0  0  0  0  0
    4.6500   -0.5191   -1.0667 O   0  0  0  0  0  0  0  0  0  0  0  0
    4.1587   -1.3895   -0.1493 C   0  0  0  0  0  0  0  0  0  0  0  0
    1.3146    1.4080   -0.4187 H   0  0  0  0  0  0  0  0  0  0  0  0
    1.7922   -0.0127   -1.3598 H   0  0  0  0  0  0  0  0  0  0  0  0
    3.0174    1.1886   -0.7915 H   0  0  0  0  0  0  0  0  0  0  0  0
    1.8372   -2.0694    2.1980 H   0  0  0  0  0  0  0  0  0  0  0  0
    3.1505   -4.1255    2.3203 H   0  0  0  0  0  0  0  0  0  0  0  0
    5.5586   -5.1491   -1.2148 H   0  0  0  0  0  0  0  0  0  0  0  0
    6.9772   -7.0705   -1.0682 H   0  0  0  0  0  0  0  0  0  0  0  0
    7.9647   -8.6869    2.1597 H   0  0  0  0  0  0  0  0  0  0  0  0
    8.3343  -10.6828    1.1221 H   0  0  0  0  0  0  0  0  0  0  0  0
    8.5763  -12.7443    0.0037 H   0  0  0  0  0  0  0  0  0  0  0  0
    9.7342  -14.0887   -1.7061 H   0  0  0  0  0  0  0  0  0  0  0  0
   11.5448  -13.1025   -3.0681 H   0  0  0  0  0  0  0  0  0  0  0  0
   11.0378   -9.3497   -1.0163 H   0  0  0  0  0  0  0  0  0  0  0  0
    6.6704   -6.9989    3.2397 H   0  0  0  0  0  0  0  0  0  0  0  0
    5.3403   -4.9551    3.0872 H   0  0  0  0  0  0  0  0  0  0  0  0
    7.4087   -3.6790   -0.7734 H   0  0  0  0  0  0  0  0  0  0  0  0
    7.7137   -2.5962   -2.0410 H   0  0  0  0  0  0  0  0  0  0  0  0
  1  2  1  0  0  0  0
  1 33  1  0  0  0  0
  1 34  1  0  0  0  0
  1 35  1  0  0  0  0
  2  3  1  0  0  0  0
  3  4  1  0  0  0  0
  3 32  2  0  0  0  0
  4  5  2  0  0  0  0
  4 36  1  0  0  0  0
  5  6  1  0  0  0  0
  5 37  1  0  0  0  0
  6  7  1  0  0  0  0
  6 27  2  0  0  0  0
  7  8  1  0  0  0  0
  7 26  2  0  0  0  0
  8  9  2  0  0  0  0
  8 38  1  0  0  0  0
  9 10  1  0  0  0  0
  9 39  1  0  0  0  0
 10 11  1  0  0  0  0
 10 25  2  0  0  0  0
 11 12  1  0  0  0  0
 11 40  1  0  0  0  0
 12 13  2  0  0  0  0
 12 14  1  0  0  0  0
 14 15  1  0  0  0  0
 14 41  1  0  0  0  0
 15 16  1  0  0  0  0
 15 24  2  0  0  0  0
 16 17  2  0  0  0  0
 16 42  1  0  0  0  0
 17 18  1  0  0  0  0
 17 43  1  0  0  0  0
 18 19  2  0  0  0  0
 18 44  1  0  0  0  0
 19 20  1  0  0  0  0
 19 24  1  0  0  0  0
 20 21  1  0  0  0  0
 20 22  1  0  0  0  0
 20 23  1  0  0  0  0
 24 45  1  0  0  0  0
 25 26  1  0  0  0  0
 25 46  1  0  0  0  0
 26 47  1  0  0  0  0
 27 28  1  0  0  0  0
 27 32  1  0  0  0  0
 28 29  1  0  0  0  0
 28 30  2  0  0  0  0
 29 48  1  0  0  0  0
 29 49  1  0  0  0  0
 30 31  1  0  0  0  0
 31 32  1  0  0  0  0
M  END
$$$$
