CHEMBL3644031
 OpenBabel04072215373D

 48 50  0  0  0  0  0  0  0  0999 V2000
    4.6321   -0.2536    1.0957 C   0  0  0  0  0  0  0  0  0  0  0  0
    5.7683    1.0685    0.7647 S   0  0  0  0  0  0  0  0  0  0  0  0
    5.3962    2.2028    1.5874 O   0  0  0  0  0  0  0  0  0  0  0  0
    7.1146    0.5291    0.8096 O   0  0  0  0  0  0  0  0  0  0  0  0
    5.4116    1.4891   -0.9225 C   0  0  0  0  0  0  0  0  0  0  0  0
    4.4350    2.4445   -1.1947 C   0  0  0  0  0  0  0  0  0  0  0  0
    4.1879    2.8083   -2.5196 C   0  0  0  0  0  0  0  0  0  0  0  0
    4.9268    2.2444   -3.5735 C   0  0  0  0  0  0  0  0  0  0  0  0
    4.7074    2.5978   -4.9192 N   0  0  0  0  0  0  0  0  0  0  0  0
    4.2948    3.8627   -5.3494 C   0  0  0  0  0  0  0  0  0  0  0  0
    3.5189    3.9364   -6.4290 N   0  0  0  0  0  0  0  0  0  0  0  0
    3.0789    5.1672   -6.7699 C   0  0  0  0  0  0  0  0  0  0  0  0
    3.3743    6.3221   -6.0743 C   0  0  0  0  0  0  0  0  0  0  0  0
    2.8052    7.6248   -6.4873 C   0  0  0  0  0  0  0  0  0  0  0  0
    2.0229    7.5163   -7.6024 F   0  0  0  0  0  0  0  0  0  0  0  0
    2.0007    8.1879   -5.5465 F   0  0  0  0  0  0  0  0  0  0  0  0
    3.7445    8.5560   -6.8037 F   0  0  0  0  0  0  0  0  0  0  0  0
    4.2137    6.1387   -4.9986 C   0  0  0  0  0  0  0  0  0  0  0  0
    4.5542    7.1976   -4.1885 O   0  0  0  0  0  0  0  0  0  0  0  0
    5.7298    6.9877   -3.3491 C   0  0  0  0  0  0  0  0  0  0  0  0
    5.5203    7.7793   -2.0460 C   0  0  0  0  0  0  0  0  0  0  0  0
    6.7986    8.1386   -1.2935 C   0  0  0  0  0  0  0  0  0  0  0  0
    7.8572    8.7339   -2.2085 C   0  0  0  0  0  0  0  0  0  0  0  0
    8.1930    7.7710   -3.3366 C   0  0  0  0  0  0  0  0  0  0  0  0
    6.9664    7.4019   -4.1602 C   0  0  0  0  0  0  0  0  0  0  0  0
    4.6664    4.9347   -4.6432 N   0  0  0  0  0  0  0  0  0  0  0  0
    5.8789    1.2629   -3.2793 C   0  0  0  0  0  0  0  0  0  0  0  0
    6.1392    0.8979   -1.9567 C   0  0  0  0  0  0  0  0  0  0  0  0
    4.7662   -0.5615    2.1335 H   0  0  0  0  0  0  0  0  0  0  0  0
    4.8526   -1.0884    0.4282 H   0  0  0  0  0  0  0  0  0  0  0  0
    3.6119    0.1049    0.9442 H   0  0  0  0  0  0  0  0  0  0  0  0
    3.8757    2.9259   -0.3953 H   0  0  0  0  0  0  0  0  0  0  0  0
    3.4251    3.5588   -2.7174 H   0  0  0  0  0  0  0  0  0  0  0  0
    4.1820    1.9098   -5.4439 H   0  0  0  0  0  0  0  0  0  0  0  0
    2.4405    5.1836   -7.6527 H   0  0  0  0  0  0  0  0  0  0  0  0
    5.8494    5.9418   -3.0353 H   0  0  0  0  0  0  0  0  0  0  0  0
    4.8889    7.1772   -1.3785 H   0  0  0  0  0  0  0  0  0  0  0  0
    4.9406    8.6887   -2.2449 H   0  0  0  0  0  0  0  0  0  0  0  0
    7.2048    7.2479   -0.7987 H   0  0  0  0  0  0  0  0  0  0  0  0
    6.5606    8.8553   -0.4985 H   0  0  0  0  0  0  0  0  0  0  0  0
    8.7628    8.9533   -1.6319 H   0  0  0  0  0  0  0  0  0  0  0  0
    7.5020    9.6861   -2.6215 H   0  0  0  0  0  0  0  0  0  0  0  0
    8.6509    6.8650   -2.9217 H   0  0  0  0  0  0  0  0  0  0  0  0
    8.9420    8.2285   -3.9939 H   0  0  0  0  0  0  0  0  0  0  0  0
    7.2350    6.5761   -4.8316 H   0  0  0  0  0  0  0  0  0  0  0  0
    6.7091    8.2387   -4.8215 H   0  0  0  0  0  0  0  0  0  0  0  0
    6.4624    0.8186   -4.0827 H   0  0  0  0  0  0  0  0  0  0  0  0
    6.9221    0.1716   -1.7472 H   0  0  0  0  0  0  0  0  0  0  0  0
  1  2  1  0  0  0  0
  1 29  1  0  0  0  0
  1 30  1  0  0  0  0
  1 31  1  0  0  0  0
  2  3  2  0  0  0  0
  2  4  2  0  0  0  0
  2  5  1  0  0  0  0
  5  6  1  0  0  0  0
  5 28  2  0  0  0  0
  6  7  2  0  0  0  0
  6 32  1  0  0  0  0
  7  8  1  0  0  0  0
  7 33  1  0  0  0  0
  8  9  1  0  0  0  0
  8 27  2  0  0  0  0
  9 10  1  0  0  0  0
  9 34  1  0  0  0  0
 10 11  1  0  0  0  0
 10 26  2  0  0  0  0
 11 12  2  0  0  0  0
 12 13  1  0  0  0  0
 12 35  1  0  0  0  0
 13 14  1  0  0  0  0
 13 18  2  0  0  0  0
 14 15  1  0  0  0  0
 14 16  1  0  0  0  0
 14 17  1  0  0  0  0
 18 19  1  0  0  0  0
 18 26  1  0  0  0  0
 19 20  1  0  0  0  0
 20 21  1  0  0  0  0
 20 25  1  0  0  0  0
 20 36  1  0  0  0  0
 21 22  1  0  0  0  0
 21 37  1  0  0  0  0
 21 38  1  0  0  0  0
 22 23  1  0  0  0  0
 22 39  1  0  0  0  0
 22 40  1  0  0  0  0
 23 24  1  0  0  0  0
 23 41  1  0  0  0  0
 23 42  1  0  0  0  0
 24 25  1  0  0  0  0
 24 43  1  0  0  0  0
 24 44  1  0  0  0  0
 25 45  1  0  0  0  0
 25 46  1  0  0  0  0
 27 28  1  0  0  0  0
 27 47  1  0  0  0  0
 28 48  1  0  0  0  0
M  END
$$$$
