CHEMBL398301
 OpenBabel04072215373D

 36 39  0  0  0  0  0  0  0  0999 V2000
   -2.2709   -0.3371   -1.2001 C   0  0  0  0  0  0  0  0  0  0  0  0
   -0.9841   -0.2047   -0.4718 C   0  0  0  0  0  0  0  0  0  0  0  0
   -0.4626    1.0733   -0.2968 N   0  0  0  0  0  0  0  0  0  0  0  0
    0.6967    1.0525    0.3339 N   0  0  0  0  0  0  0  0  0  0  0  0
    1.1951   -0.4901    0.7132 S   0  0  0  0  0  0  0  0  0  0  0  0
   -0.2181   -1.2225    0.0829 C   0  0  0  0  0  0  0  0  0  0  0  0
   -0.4222   -2.6413    0.0637 C   0  0  0  0  0  0  0  0  0  0  0  0
   -1.0616   -3.2213   -0.9277 N   0  0  0  0  0  0  0  0  0  0  0  0
   -1.0087   -4.5749   -0.6893 N   0  0  0  0  0  0  0  0  0  0  0  0
   -0.3120   -4.9484    0.4450 C   0  0  0  0  0  0  0  0  0  0  0  0
   -0.0631   -6.0754    0.8191 O   0  0  0  0  0  0  0  0  0  0  0  0
    0.0349   -3.6431    1.0592 C   0  0  0  0  0  0  0  0  0  0  0  0
    0.5494   -3.4433    2.2798 C   0  0  0  0  0  0  0  0  0  0  0  0
    0.9349   -4.4806    3.1696 C   0  0  0  0  0  0  0  0  0  0  0  0
    2.2005   -5.0141    3.2148 C   0  0  0  0  0  0  0  0  0  0  0  0
    2.1673   -6.0687    4.0886 N   0  0  0  0  0  0  0  0  0  0  0  0
    3.2752   -6.9668    4.3249 C   0  0  0  0  0  0  0  0  0  0  0  0
    0.9148   -6.1833    4.6604 C   0  0  0  0  0  0  0  0  0  0  0  0
    0.4081   -7.1031    5.5937 C   0  0  0  0  0  0  0  0  0  0  0  0
   -0.9321   -6.9792    5.9712 C   0  0  0  0  0  0  0  0  0  0  0  0
   -1.7253   -5.9728    5.4381 C   0  0  0  0  0  0  0  0  0  0  0  0
   -3.0062   -5.8775    5.8205 F   0  0  0  0  0  0  0  0  0  0  0  0
   -1.2264   -5.0632    4.5084 C   0  0  0  0  0  0  0  0  0  0  0  0
    0.1196   -5.1729    4.1055 C   0  0  0  0  0  0  0  0  0  0  0  0
   -2.6687    0.6459   -1.4721 H   0  0  0  0  0  0  0  0  0  0  0  0
   -3.0165   -0.8432   -0.5788 H   0  0  0  0  0  0  0  0  0  0  0  0
   -2.1336   -0.9085   -2.1231 H   0  0  0  0  0  0  0  0  0  0  0  0
   -1.3923   -5.2402   -1.3517 H   0  0  0  0  0  0  0  0  0  0  0  0
    0.6745   -2.4413    2.6723 H   0  0  0  0  0  0  0  0  0  0  0  0
    3.0982   -4.7719    2.6604 H   0  0  0  0  0  0  0  0  0  0  0  0
    4.1383   -6.6454    3.7354 H   0  0  0  0  0  0  0  0  0  0  0  0
    2.9739   -7.9714    4.0168 H   0  0  0  0  0  0  0  0  0  0  0  0
    3.5233   -6.9419    5.3883 H   0  0  0  0  0  0  0  0  0  0  0  0
    1.0253   -7.8962    6.0024 H   0  0  0  0  0  0  0  0  0  0  0  0
   -1.3664   -7.6762    6.6814 H   0  0  0  0  0  0  0  0  0  0  0  0
   -1.8775   -4.2972    4.1030 H   0  0  0  0  0  0  0  0  0  0  0  0
  1  2  1  0  0  0  0
  1 25  1  0  0  0  0
  1 26  1  0  0  0  0
  1 27  1  0  0  0  0
  2  3  1  0  0  0  0
  2  6  2  0  0  0  0
  3  4  2  0  0  0  0
  4  5  1  0  0  0  0
  5  6  1  0  0  0  0
  6  7  1  0  0  0  0
  7  8  2  0  0  0  0
  7 12  1  0  0  0  0
  8  9  1  0  0  0  0
  9 10  1  0  0  0  0
  9 28  1  0  0  0  0
 10 11  2  0  0  0  0
 10 12  1  0  0  0  0
 12 13  2  0  0  0  0
 13 14  1  0  0  0  0
 13 29  1  0  0  0  0
 14 15  2  0  0  0  0
 14 24  1  0  0  0  0
 15 16  1  0  0  0  0
 15 30  1  0  0  0  0
 16 17  1  0  0  0  0
 16 18  1  0  0  0  0
 17 31  1  0  0  0  0
 17 32  1  0  0  0  0
 17 33  1  0  0  0  0
 18 19  1  0  0  0  0
 18 24  2  0  0  0  0
 19 20  2  0  0  0  0
 19 34  1  0  0  0  0
 20 21  1  0  0  0  0
 20 35  1  0  0  0  0
 21 22  1  0  0  0  0
 21 23  2  0  0  0  0
 23 24  1  0  0  0  0
 23 36  1  0  0  0  0
M  END
$$$$
