CHEMBL2430264
 OpenBabel04072215363D

 60 63  0  0  0  0  0  0  0  0999 V2000
    4.7528    1.2136    2.2433 C   0  0  0  0  0  0  0  0  0  0  0  0
    4.3469    1.4232    0.7880 C   0  0  0  0  0  0  0  0  0  0  0  0
    4.7329    0.3342   -0.1281 N   0  0  0  0  0  0  0  0  0  0  0  0
    4.2588   -0.9971    0.2953 C   0  0  0  0  0  0  0  0  0  0  0  0
    2.7467   -1.2169    0.2888 C   0  0  0  0  0  0  0  0  0  0  0  0
    4.3129    0.6227   -1.5202 C   0  0  0  0  0  0  0  0  0  0  0  0
    4.8991    1.9083   -2.1216 C   0  0  0  0  0  0  0  0  0  0  0  0
    6.3457    1.9182   -2.1419 N   0  0  0  0  0  0  0  0  0  0  0  0
    6.9964    3.0092   -2.6681 C   0  0  0  0  0  0  0  0  0  0  0  0
    6.3765    3.9553   -3.1505 O   0  0  0  0  0  0  0  0  0  0  0  0
    8.4581    3.0132   -2.5625 C   0  0  0  0  0  0  0  0  0  0  0  0
    9.3575    1.9542   -2.6205 C   0  0  0  0  0  0  0  0  0  0  0  0
    9.1566    0.4935   -2.8168 C   0  0  0  0  0  0  0  0  0  0  0  0
   10.6397    2.4850   -2.5354 N   0  0  0  0  0  0  0  0  0  0  0  0
   10.5904    3.8482   -2.4474 C   0  0  0  0  0  0  0  0  0  0  0  0
    9.2525    4.1967   -2.4517 C   0  0  0  0  0  0  0  0  0  0  0  0
    8.7320    5.5856   -2.3748 C   0  0  0  0  0  0  0  0  0  0  0  0
    9.7921    6.6633   -2.2352 C   0  0  0  0  0  0  0  0  0  0  0  0
   11.2669    6.2512   -2.2640 C   0  0  0  0  0  0  0  0  0  0  0  0
   11.6795    4.7811   -2.3698 C   0  0  0  0  0  0  0  0  0  0  0  0
   13.0120    4.4986   -2.3967 C   0  0  0  0  0  0  0  0  0  0  0  0
   13.7009    3.1458   -2.5070 C   0  0  0  0  0  0  0  0  0  0  0  0
   13.1994    2.0420   -2.5997 O   0  0  0  0  0  0  0  0  0  0  0  0
   15.0627    3.4018   -2.4868 N   0  0  0  0  0  0  0  0  0  0  0  0
   15.3284    4.7592   -2.3747 C   0  0  0  0  0  0  0  0  0  0  0  0
   16.5888    5.3430   -2.3280 C   0  0  0  0  0  0  0  0  0  0  0  0
   16.6580    6.7321   -2.2064 C   0  0  0  0  0  0  0  0  0  0  0  0
   15.4875    7.4907   -2.1443 C   0  0  0  0  0  0  0  0  0  0  0  0
   15.5748    9.2023   -1.9945 Cl  0  0  0  0  0  0  0  0  0  0  0  0
   14.2328    6.8764   -2.1997 C   0  0  0  0  0  0  0  0  0  0  0  0
   14.1401    5.4908   -2.3169 C   0  0  0  0  0  0  0  0  0  0  0  0
    4.6447    2.1546    2.7939 H   0  0  0  0  0  0  0  0  0  0  0  0
    5.7988    0.9005    2.3241 H   0  0  0  0  0  0  0  0  0  0  0  0
    4.1204    0.4701    2.7374 H   0  0  0  0  0  0  0  0  0  0  0  0
    4.8534    2.3430    0.4771 H   0  0  0  0  0  0  0  0  0  0  0  0
    3.2699    1.6225    0.7378 H   0  0  0  0  0  0  0  0  0  0  0  0
    4.6478   -1.2269    1.2934 H   0  0  0  0  0  0  0  0  0  0  0  0
    4.7180   -1.7544   -0.3540 H   0  0  0  0  0  0  0  0  0  0  0  0
    2.2058   -0.4064    0.7847 H   0  0  0  0  0  0  0  0  0  0  0  0
    2.5033   -2.1448    0.8167 H   0  0  0  0  0  0  0  0  0  0  0  0
    2.3646   -1.3130   -0.7332 H   0  0  0  0  0  0  0  0  0  0  0  0
    3.2204    0.6880   -1.5895 H   0  0  0  0  0  0  0  0  0  0  0  0
    4.6311   -0.2109   -2.1598 H   0  0  0  0  0  0  0  0  0  0  0  0
    4.5524    2.7983   -1.5842 H   0  0  0  0  0  0  0  0  0  0  0  0
    4.5496    2.0197   -3.1550 H   0  0  0  0  0  0  0  0  0  0  0  0
    6.8406    1.3453   -1.4693 H   0  0  0  0  0  0  0  0  0  0  0  0
    8.1068    0.2414   -2.9894 H   0  0  0  0  0  0  0  0  0  0  0  0
    9.4935   -0.0625   -1.9367 H   0  0  0  0  0  0  0  0  0  0  0  0
    9.7138    0.1396   -3.6899 H   0  0  0  0  0  0  0  0  0  0  0  0
   11.4933    1.9337   -2.5779 H   0  0  0  0  0  0  0  0  0  0  0  0
    8.0451    5.6601   -1.5224 H   0  0  0  0  0  0  0  0  0  0  0  0
    8.1423    5.7996   -3.2735 H   0  0  0  0  0  0  0  0  0  0  0  0
    9.6090    7.2187   -1.3052 H   0  0  0  0  0  0  0  0  0  0  0  0
    9.6318    7.4125   -3.0235 H   0  0  0  0  0  0  0  0  0  0  0  0
   11.6935    6.6462   -1.3332 H   0  0  0  0  0  0  0  0  0  0  0  0
   11.6986    6.7777   -3.1260 H   0  0  0  0  0  0  0  0  0  0  0  0
   15.7554    2.6675   -2.5467 H   0  0  0  0  0  0  0  0  0  0  0  0
   17.4941    4.7522   -2.3757 H   0  0  0  0  0  0  0  0  0  0  0  0
   17.6262    7.2278   -2.1604 H   0  0  0  0  0  0  0  0  0  0  0  0
   13.3723    7.5278   -2.1474 H   0  0  0  0  0  0  0  0  0  0  0  0
  1  2  1  0  0  0  0
  1 32  1  0  0  0  0
  1 33  1  0  0  0  0
  1 34  1  0  0  0  0
  2  3  1  0  0  0  0
  2 35  1  0  0  0  0
  2 36  1  0  0  0  0
  3  4  1  0  0  0  0
  3  6  1  0  0  0  0
  4  5  1  0  0  0  0
  4 37  1  0  0  0  0
  4 38  1  0  0  0  0
  5 39  1  0  0  0  0
  5 40  1  0  0  0  0
  5 41  1  0  0  0  0
  6  7  1  0  0  0  0
  6 42  1  0  0  0  0
  6 43  1  0  0  0  0
  7  8  1  0  0  0  0
  7 44  1  0  0  0  0
  7 45  1  0  0  0  0
  8  9  1  0  0  0  0
  8 46  1  0  0  0  0
  9 10  2  0  0  0  0
  9 11  1  0  0  0  0
 11 12  2  0  0  0  0
 11 16  1  0  0  0  0
 12 13  1  0  0  0  0
 12 14  1  0  0  0  0
 13 47  1  0  0  0  0
 13 48  1  0  0  0  0
 13 49  1  0  0  0  0
 14 15  1  0  0  0  0
 14 50  1  0  0  0  0
 15 16  2  0  0  0  0
 15 20  1  0  0  0  0
 16 17  1  0  0  0  0
 17 18  1  0  0  0  0
 17 51  1  0  0  0  0
 17 52  1  0  0  0  0
 18 19  1  0  0  0  0
 18 53  1  0  0  0  0
 18 54  1  0  0  0  0
 19 20  1  0  0  0  0
 19 55  1  0  0  0  0
 19 56  1  0  0  0  0
 20 21  2  0  0  0  0
 21 22  1  0  0  0  0
 21 31  1  0  0  0  0
 22 23  2  0  0  0  0
 22 24  1  0  0  0  0
 24 25  1  0  0  0  0
 24 57  1  0  0  0  0
 25 26  1  0  0  0  0
 25 31  2  0  0  0  0
 26 27  2  0  0  0  0
 26 58  1  0  0  0  0
 27 28  1  0  0  0  0
 27 59  1  0  0  0  0
 28 29  1  0  0  0  0
 28 30  2  0  0  0  0
 30 31  1  0  0  0  0
 30 60  1  0  0  0  0
M  END
$$$$
