CHEMBL3920908
 OpenBabel04072215373D

 54 57  0  0  0  0  0  0  0  0999 V2000
    5.6534    0.5182    2.3425 C   0  0  0  0  0  0  0  0  0  0  0  0
    4.7626    0.2428    1.2155 N   0  0  0  0  0  0  0  0  0  0  0  0
    5.2625    0.9869    0.0603 C   0  0  0  0  0  0  0  0  0  0  0  0
    4.4485    0.7999   -1.2369 C   0  0  0  0  0  0  0  0  0  0  0  0
    4.9832    1.6342   -2.4205 N   0  0  0  0  0  0  0  0  0  0  0  0
    4.0068    2.0181   -3.3707 C   0  0  0  0  0  0  0  0  0  0  0  0
    2.6921    2.2807   -2.9759 C   0  0  0  0  0  0  0  0  0  0  0  0
    1.7252    2.7915   -3.8179 C   0  0  0  0  0  0  0  0  0  0  0  0
    0.4450    3.0707   -3.4261 O   0  0  0  0  0  0  0  0  0  0  0  0
    0.1379    2.8126   -2.0510 C   0  0  0  0  0  0  0  0  0  0  0  0
    2.0975    3.1085   -5.1086 C   0  0  0  0  0  0  0  0  0  0  0  0
    3.4213    2.9560   -5.5245 C   0  0  0  0  0  0  0  0  0  0  0  0
    3.9135    3.4908   -6.6875 O   0  0  0  0  0  0  0  0  0  0  0  0
    2.9742    4.2480   -7.4557 C   0  0  0  0  0  0  0  0  0  0  0  0
    4.3316    2.2874   -4.7012 C   0  0  0  0  0  0  0  0  0  0  0  0
    6.3973    1.6474   -2.6584 C   0  0  0  0  0  0  0  0  0  0  0  0
    7.0545    0.5420   -2.2138 C   0  0  0  0  0  0  0  0  0  0  0  0
    8.3522    0.4327   -2.5005 C   0  0  0  0  0  0  0  0  0  0  0  0
    9.0929    1.3921   -3.0884 C   0  0  0  0  0  0  0  0  0  0  0  0
   10.1283    1.3884   -2.3696 N   0  0  0  0  0  0  0  0  0  0  0  0
   11.1038    0.7320   -2.9210 C   0  0  0  0  0  0  0  0  0  0  0  0
   11.9430    1.4054   -3.7031 C   0  0  0  0  0  0  0  0  0  0  0  0
   13.2021    0.2274   -3.0995 C   0  0  0  0  0  0  0  0  0  0  0  0
   13.1836   -1.2689   -2.6281 C   0  0  0  0  0  0  0  0  0  0  0  0
   14.3409   -1.8646   -2.2698 N   0  0  0  0  0  0  0  0  0  0  0  0
   15.2476   -0.9107   -2.4301 N   0  0  0  0  0  0  0  0  0  0  0  0
   14.6379    0.3041   -2.9202 C   0  0  0  0  0  0  0  0  0  0  0  0
   10.7028    2.3508   -4.1825 N   0  0  0  0  0  0  0  0  0  0  0  0
    9.0062    2.4745   -3.7808 C   0  0  0  0  0  0  0  0  0  0  0  0
    7.2904    2.6411   -3.4046 C   0  0  0  0  0  0  0  0  0  0  0  0
    5.2992   -0.0281    3.2161 H   0  0  0  0  0  0  0  0  0  0  0  0
    5.6679    1.5886    2.5752 H   0  0  0  0  0  0  0  0  0  0  0  0
    6.6834    0.1951    2.1375 H   0  0  0  0  0  0  0  0  0  0  0  0
    3.8215    0.5569    1.4285 H   0  0  0  0  0  0  0  0  0  0  0  0
    6.2487    0.5666   -0.0564 H   0  0  0  0  0  0  0  0  0  0  0  0
    5.3646    2.0538    0.2790 H   0  0  0  0  0  0  0  0  0  0  0  0
    3.4225    1.0558   -0.9438 H   0  0  0  0  0  0  0  0  0  0  0  0
    4.4213   -0.2680   -1.4961 H   0  0  0  0  0  0  0  0  0  0  0  0
    2.4083    2.1371   -1.9549 H   0  0  0  0  0  0  0  0  0  0  0  0
   -0.8999    3.0991   -1.8713 H   0  0  0  0  0  0  0  0  0  0  0  0
    0.7646    3.4081   -1.3723 H   0  0  0  0  0  0  0  0  0  0  0  0
    0.2354    1.7445   -1.8193 H   0  0  0  0  0  0  0  0  0  0  0  0
    1.3454    3.4972   -5.7787 H   0  0  0  0  0  0  0  0  0  0  0  0
    3.4948    4.6671   -8.3188 H   0  0  0  0  0  0  0  0  0  0  0  0
    2.5374    5.0869   -6.8939 H   0  0  0  0  0  0  0  0  0  0  0  0
    2.1838    3.5892   -7.8304 H   0  0  0  0  0  0  0  0  0  0  0  0
    5.3083    1.9993   -5.0831 H   0  0  0  0  0  0  0  0  0  0  0  0
    6.6733   -0.2789   -1.6269 H   0  0  0  0  0  0  0  0  0  0  0  0
    8.9371   -0.3867   -2.1176 H   0  0  0  0  0  0  0  0  0  0  0  0
   11.1579   -0.1886   -2.3753 H   0  0  0  0  0  0  0  0  0  0  0  0
   12.3737   -1.9850   -2.5445 H   0  0  0  0  0  0  0  0  0  0  0  0
   16.2356   -1.1540   -2.2037 H   0  0  0  0  0  0  0  0  0  0  0  0
   15.4087    1.0384   -3.0728 H   0  0  0  0  0  0  0  0  0  0  0  0
    6.6259    3.5548   -3.6063 H   0  0  0  0  0  0  0  0  0  0  0  0
  1  2  1  0  0  0  0
  1 31  1  0  0  0  0
  1 32  1  0  0  0  0
  1 33  1  0  0  0  0
  2  3  1  0  0  0  0
  2 34  1  0  0  0  0
  3  4  1  0  0  0  0
  3 35  1  0  0  0  0
  3 36  1  0  0  0  0
  4  5  1  0  0  0  0
  4 37  1  0  0  0  0
  4 38  1  0  0  0  0
  5  6  1  0  0  0  0
  5 16  1  0  0  0  0
  6  7  1  0  0  0  0
  6 15  2  0  0  0  0
  7  8  2  0  0  0  0
  7 39  1  0  0  0  0
  8  9  1  0  0  0  0
  8 11  1  0  0  0  0
  9 10  1  0  0  0  0
 10 40  1  0  0  0  0
 10 41  1  0  0  0  0
 10 42  1  0  0  0  0
 11 12  2  0  0  0  0
 11 43  1  0  0  0  0
 12 13  1  0  0  0  0
 12 15  1  0  0  0  0
 13 14  1  0  0  0  0
 14 44  1  0  0  0  0
 14 45  1  0  0  0  0
 14 46  1  0  0  0  0
 15 47  1  0  0  0  0
 16 17  1  0  0  0  0
 16 30  2  0  0  0  0
 17 18  2  0  0  0  0
 17 48  1  0  0  0  0
 18 19  1  0  0  0  0
 18 49  1  0  0  0  0
 19 20  1  0  0  0  0
 19 29  2  0  0  0  0
 20 21  2  0  0  0  0
 21 22  1  0  0  0  0
 21 50  1  0  0  0  0
 22 23  1  0  0  0  0
 22 28  2  0  0  0  0
 23 24  1  0  0  0  0
 23 27  2  0  0  0  0
 24 25  2  0  0  0  0
 24 51  1  0  0  0  0
 25 26  1  0  0  0  0
 26 27  1  0  0  0  0
 26 52  1  0  0  0  0
 27 53  1  0  0  0  0
 28 29  1  0  0  0  0
 29 30  1  0  0  0  0
 30 54  1  0  0  0  0
M  END
$$$$
