CHEMBL399606
 OpenBabel04072215373D

 48 51  0  0  0  0  0  0  0  0999 V2000
    1.0162    0.1166    0.5741 O   0  0  0  0  0  0  0  0  0  0  0  0
    2.1402   -0.0833    0.1249 C   0  0  0  0  0  0  0  0  0  0  0  0
    2.6590    0.5149   -1.0102 N   0  0  0  0  0  0  0  0  0  0  0  0
    1.9850    1.3172   -1.9544 C   0  0  0  0  0  0  0  0  0  0  0  0
    0.6326    1.6358   -1.8897 C   0  0  0  0  0  0  0  0  0  0  0  0
    0.0082    2.3242   -2.9430 C   0  0  0  0  0  0  0  0  0  0  0  0
    0.7152    2.7226   -4.0891 C   0  0  0  0  0  0  0  0  0  0  0  0
    0.0294    3.3005   -5.2745 C   0  0  0  0  0  0  0  0  0  0  0  0
   -1.1562    4.0514   -5.1715 C   0  0  0  0  0  0  0  0  0  0  0  0
   -1.8233    4.5246   -6.3081 C   0  0  0  0  0  0  0  0  0  0  0  0
   -1.3138    4.2744   -7.5766 C   0  0  0  0  0  0  0  0  0  0  0  0
   -0.1389    3.5456   -7.7117 C   0  0  0  0  0  0  0  0  0  0  0  0
    0.5159    3.0608   -6.5767 C   0  0  0  0  0  0  0  0  0  0  0  0
    2.0987    2.4752   -4.0899 C   0  0  0  0  0  0  0  0  0  0  0  0
    2.7224    1.7733   -3.0496 C   0  0  0  0  0  0  0  0  0  0  0  0
    3.0662   -0.9948    0.7723 C   0  0  0  0  0  0  0  0  0  0  0  0
    4.1514   -1.6829    0.2462 C   0  0  0  0  0  0  0  0  0  0  0  0
    4.6632   -2.4520    1.2988 C   0  0  0  0  0  0  0  0  0  0  0  0
    3.9671   -2.2887    2.4182 N   0  0  0  0  0  0  0  0  0  0  0  0
    2.9911   -1.4116    2.0880 N   0  0  0  0  0  0  0  0  0  0  0  0
    1.9936   -1.0599    3.0991 C   0  0  0  0  0  0  0  0  0  0  0  0
    2.5358   -1.1615    4.5335 C   0  0  0  0  0  0  0  0  0  0  0  0
    1.5859   -0.8998    5.6805 C   0  0  0  0  0  0  0  0  0  0  0  0
    0.2124   -1.1414    5.6212 C   0  0  0  0  0  0  0  0  0  0  0  0
   -0.5424   -0.9942    6.7794 C   0  0  0  0  0  0  0  0  0  0  0  0
   -0.0335   -0.6296    7.9756 N   0  0  0  0  0  0  0  0  0  0  0  0
    1.2939   -0.4026    8.0176 C   0  0  0  0  0  0  0  0  0  0  0  0
    2.1290   -0.5225    6.9172 C   0  0  0  0  0  0  0  0  0  0  0  0
    3.6320    0.3315   -1.2127 H   0  0  0  0  0  0  0  0  0  0  0  0
    0.0126    1.3346   -1.0514 H   0  0  0  0  0  0  0  0  0  0  0  0
   -1.0621    2.4974   -2.8610 H   0  0  0  0  0  0  0  0  0  0  0  0
   -1.5873    4.2773   -4.1988 H   0  0  0  0  0  0  0  0  0  0  0  0
   -2.7502    5.0866   -6.1986 H   0  0  0  0  0  0  0  0  0  0  0  0
   -1.8329    4.6395   -8.4598 H   0  0  0  0  0  0  0  0  0  0  0  0
    0.2654    3.3374   -8.6992 H   0  0  0  0  0  0  0  0  0  0  0  0
    1.4097    2.4597   -6.7307 H   0  0  0  0  0  0  0  0  0  0  0  0
    2.7170    2.8047   -4.9222 H   0  0  0  0  0  0  0  0  0  0  0  0
    3.7873    1.5697   -3.1341 H   0  0  0  0  0  0  0  0  0  0  0  0
    4.5111   -1.6691   -0.7725 H   0  0  0  0  0  0  0  0  0  0  0  0
    5.5044   -3.1335    1.2973 H   0  0  0  0  0  0  0  0  0  0  0  0
    1.1542   -1.7439    2.9341 H   0  0  0  0  0  0  0  0  0  0  0  0
    1.6624   -0.0344    2.9102 H   0  0  0  0  0  0  0  0  0  0  0  0
    3.3811   -0.4644    4.6178 H   0  0  0  0  0  0  0  0  0  0  0  0
    2.9380   -2.1680    4.7059 H   0  0  0  0  0  0  0  0  0  0  0  0
   -0.2816   -1.4654    4.7128 H   0  0  0  0  0  0  0  0  0  0  0  0
   -1.6113   -1.1897    6.7775 H   0  0  0  0  0  0  0  0  0  0  0  0
    1.6891   -0.1285    8.9914 H   0  0  0  0  0  0  0  0  0  0  0  0
    3.1944   -0.3483    7.0330 H   0  0  0  0  0  0  0  0  0  0  0  0
  1  2  2  0  0  0  0
  2  3  1  0  0  0  0
  2 16  1  0  0  0  0
  3  4  1  0  0  0  0
  3 29  1  0  0  0  0
  4  5  1  0  0  0  0
  4 15  2  0  0  0  0
  5  6  2  0  0  0  0
  5 30  1  0  0  0  0
  6  7  1  0  0  0  0
  6 31  1  0  0  0  0
  7  8  1  0  0  0  0
  7 14  2  0  0  0  0
  8  9  1  0  0  0  0
  8 13  2  0  0  0  0
  9 10  2  0  0  0  0
  9 32  1  0  0  0  0
 10 11  1  0  0  0  0
 10 33  1  0  0  0  0
 11 12  2  0  0  0  0
 11 34  1  0  0  0  0
 12 13  1  0  0  0  0
 12 35  1  0  0  0  0
 13 36  1  0  0  0  0
 14 15  1  0  0  0  0
 14 37  1  0  0  0  0
 15 38  1  0  0  0  0
 16 17  2  0  0  0  0
 16 20  1  0  0  0  0
 17 18  1  0  0  0  0
 17 39  1  0  0  0  0
 18 19  2  0  0  0  0
 18 40  1  0  0  0  0
 19 20  1  0  0  0  0
 20 21  1  0  0  0  0
 21 22  1  0  0  0  0
 21 41  1  0  0  0  0
 21 42  1  0  0  0  0
 22 23  1  0  0  0  0
 22 43  1  0  0  0  0
 22 44  1  0  0  0  0
 23 24  1  0  0  0  0
 23 28  2  0  0  0  0
 24 25  2  0  0  0  0
 24 45  1  0  0  0  0
 25 26  1  0  0  0  0
 25 46  1  0  0  0  0
 26 27  2  0  0  0  0
 27 28  1  0  0  0  0
 27 47  1  0  0  0  0
 28 48  1  0  0  0  0
M  END
$$$$
