CHEMBL179453
 OpenBabel04072215363D

 43 45  0  0  0  0  0  0  0  0999 V2000
    1.2098    0.4826   -0.3935 C   0  0  0  0  0  0  0  0  0  0  0  0
    2.7218    0.3980   -0.5323 C   0  0  0  0  0  0  0  0  0  0  0  0
    3.1890   -0.9930   -1.5533 S   0  0  0  0  0  0  0  0  0  0  0  0
    2.6906   -2.1991   -0.9114 O   0  0  0  0  0  0  0  0  0  0  0  0
    2.8456   -0.6898   -2.9290 O   0  0  0  0  0  0  0  0  0  0  0  0
    4.9646   -1.0656   -1.4722 C   0  0  0  0  0  0  0  0  0  0  0  0
    5.6120   -2.1764   -0.9414 C   0  0  0  0  0  0  0  0  0  0  0  0
    7.0104   -2.2213   -0.9300 C   0  0  0  0  0  0  0  0  0  0  0  0
    7.7616   -1.1496   -1.4308 C   0  0  0  0  0  0  0  0  0  0  0  0
    9.1386   -1.0923   -1.4169 O   0  0  0  0  0  0  0  0  0  0  0  0
    9.8289   -2.3337   -1.2985 C   0  0  0  0  0  0  0  0  0  0  0  0
    7.1065   -0.0095   -1.9506 C   0  0  0  0  0  0  0  0  0  0  0  0
    7.8756    1.0843   -2.4161 N   0  0  0  0  0  0  0  0  0  0  0  0
    7.4070    2.3184   -2.6682 C   0  0  0  0  0  0  0  0  0  0  0  0
    6.1688    2.7382   -2.8147 N   0  0  0  0  0  0  0  0  0  0  0  0
    6.2763    4.0831   -2.9920 C   0  0  0  0  0  0  0  0  0  0  0  0
    7.5961    4.4614   -2.9339 C   0  0  0  0  0  0  0  0  0  0  0  0
    8.3189    5.7186   -3.0306 C   0  0  0  0  0  0  0  0  0  0  0  0
    9.6023    5.7181   -3.6058 C   0  0  0  0  0  0  0  0  0  0  0  0
   10.3199    6.9055   -3.7666 C   0  0  0  0  0  0  0  0  0  0  0  0
    9.7687    8.1148   -3.3560 C   0  0  0  0  0  0  0  0  0  0  0  0
    8.5039    8.1367   -2.7732 C   0  0  0  0  0  0  0  0  0  0  0  0
    7.7828    6.9494   -2.6031 C   0  0  0  0  0  0  0  0  0  0  0  0
    6.2477    7.0952   -1.8123 Cl  0  0  0  0  0  0  0  0  0  0  0  0
    8.3384    3.3179   -2.7506 O   0  0  0  0  0  0  0  0  0  0  0  0
    5.7017   -0.0105   -1.9995 C   0  0  0  0  0  0  0  0  0  0  0  0
    0.9214    1.3505    0.2074 H   0  0  0  0  0  0  0  0  0  0  0  0
    0.8107   -0.4132    0.0940 H   0  0  0  0  0  0  0  0  0  0  0  0
    0.7267    0.5688   -1.3725 H   0  0  0  0  0  0  0  0  0  0  0  0
    3.1822    0.2687    0.4514 H   0  0  0  0  0  0  0  0  0  0  0  0
    3.1077    1.3116   -0.9948 H   0  0  0  0  0  0  0  0  0  0  0  0
    5.0424   -3.0147   -0.5476 H   0  0  0  0  0  0  0  0  0  0  0  0
    7.4832   -3.1044   -0.5094 H   0  0  0  0  0  0  0  0  0  0  0  0
   10.9017   -2.1275   -1.3725 H   0  0  0  0  0  0  0  0  0  0  0  0
    9.5615   -3.0110   -2.1166 H   0  0  0  0  0  0  0  0  0  0  0  0
    9.6569   -2.8027   -0.3245 H   0  0  0  0  0  0  0  0  0  0  0  0
    8.8702    0.9657   -2.2546 H   0  0  0  0  0  0  0  0  0  0  0  0
    5.4011    4.6968   -3.1472 H   0  0  0  0  0  0  0  0  0  0  0  0
   10.0483    4.7864   -3.9494 H   0  0  0  0  0  0  0  0  0  0  0  0
   11.3085    6.8822   -4.2196 H   0  0  0  0  0  0  0  0  0  0  0  0
   10.3230    9.0403   -3.4853 H   0  0  0  0  0  0  0  0  0  0  0  0
    8.0812    9.0843   -2.4477 H   0  0  0  0  0  0  0  0  0  0  0  0
    5.1588    0.8059   -2.4633 H   0  0  0  0  0  0  0  0  0  0  0  0
  1  2  1  0  0  0  0
  1 27  1  0  0  0  0
  1 28  1  0  0  0  0
  1 29  1  0  0  0  0
  2  3  1  0  0  0  0
  2 30  1  0  0  0  0
  2 31  1  0  0  0  0
  3  4  2  0  0  0  0
  3  5  2  0  0  0  0
  3  6  1  0  0  0  0
  6  7  1  0  0  0  0
  6 26  2  0  0  0  0
  7  8  2  0  0  0  0
  7 32  1  0  0  0  0
  8  9  1  0  0  0  0
  8 33  1  0  0  0  0
  9 10  1  0  0  0  0
  9 12  2  0  0  0  0
 10 11  1  0  0  0  0
 11 34  1  0  0  0  0
 11 35  1  0  0  0  0
 11 36  1  0  0  0  0
 12 13  1  0  0  0  0
 12 26  1  0  0  0  0
 13 14  1  0  0  0  0
 13 37  1  0  0  0  0
 14 15  2  0  0  0  0
 14 25  1  0  0  0  0
 15 16  1  0  0  0  0
 16 17  2  0  0  0  0
 16 38  1  0  0  0  0
 17 18  1  0  0  0  0
 17 25  1  0  0  0  0
 18 19  1  0  0  0  0
 18 23  2  0  0  0  0
 19 20  2  0  0  0  0
 19 39  1  0  0  0  0
 20 21  1  0  0  0  0
 20 40  1  0  0  0  0
 21 22  2  0  0  0  0
 21 41  1  0  0  0  0
 22 23  1  0  0  0  0
 22 42  1  0  0  0  0
 23 24  1  0  0  0  0
 26 43  1  0  0  0  0
M  END
$$$$
