CHEMBL2071209
 OpenBabel04072215363D

 41 43  0  0  0  0  0  0  0  0999 V2000
   -0.7428    2.0712   -0.9040 C   0  0  0  0  0  0  0  0  0  0  0  0
    0.0511    0.8775   -1.0569 N   0  0  0  0  0  0  0  0  0  0  0  0
    1.1369    0.5146   -0.3128 C   0  0  0  0  0  0  0  0  0  0  0  0
    1.4692   -0.7482   -0.7340 C   0  0  0  0  0  0  0  0  0  0  0  0
    2.4346   -1.5113   -0.1801 N   0  0  0  0  0  0  0  0  0  0  0  0
    2.5380   -2.9038   -0.1947 C   0  0  0  0  0  0  0  0  0  0  0  0
    3.2718   -3.4524    0.7761 N   0  0  0  0  0  0  0  0  0  0  0  0
    3.2590   -4.7965    0.8481 C   0  0  0  0  0  0  0  0  0  0  0  0
    2.5649   -5.6191   -0.0172 C   0  0  0  0  0  0  0  0  0  0  0  0
    2.6236   -7.0911    0.1460 C   0  0  0  0  0  0  0  0  0  0  0  0
    3.3464   -7.4685    1.2443 F   0  0  0  0  0  0  0  0  0  0  0  0
    1.3997   -7.6599    0.3161 F   0  0  0  0  0  0  0  0  0  0  0  0
    3.2088   -7.7347   -0.8993 F   0  0  0  0  0  0  0  0  0  0  0  0
    1.8870   -4.9777   -1.0292 C   0  0  0  0  0  0  0  0  0  0  0  0
    1.1981   -5.6878   -2.0413 N   0  0  0  0  0  0  0  0  0  0  0  0
    0.8737   -5.1281   -3.3191 C   0  0  0  0  0  0  0  0  0  0  0  0
    1.8576   -4.3687   -3.9869 C   0  0  0  0  0  0  0  0  0  0  0  0
    1.6074   -3.7557   -5.2123 C   0  0  0  0  0  0  0  0  0  0  0  0
    0.3727   -3.9176   -5.8214 C   0  0  0  0  0  0  0  0  0  0  0  0
   -0.6052   -4.7067   -5.2121 C   0  0  0  0  0  0  0  0  0  0  0  0
   -0.3734   -5.3210   -3.9638 C   0  0  0  0  0  0  0  0  0  0  0  0
   -1.4371   -6.1457   -3.3119 C   0  0  0  0  0  0  0  0  0  0  0  0
   -2.6432   -6.3073   -3.9420 N   0  0  0  0  0  0  0  0  0  0  0  0
   -1.2477   -6.6774   -2.2183 O   0  0  0  0  0  0  0  0  0  0  0  0
    1.8735   -3.6311   -1.0976 N   0  0  0  0  0  0  0  0  0  0  0  0
    0.5639   -1.0336   -1.7790 C   0  0  0  0  0  0  0  0  0  0  0  0
   -0.3021   -0.0332   -1.9825 N   0  0  0  0  0  0  0  0  0  0  0  0
   -0.2594    2.7390   -0.1870 H   0  0  0  0  0  0  0  0  0  0  0  0
   -1.7297    1.7787   -0.5356 H   0  0  0  0  0  0  0  0  0  0  0  0
   -0.8242    2.5608   -1.8770 H   0  0  0  0  0  0  0  0  0  0  0  0
    1.5311    1.1480    0.4685 H   0  0  0  0  0  0  0  0  0  0  0  0
    2.9668   -1.1792    0.6139 H   0  0  0  0  0  0  0  0  0  0  0  0
    3.8535   -5.2024    1.6649 H   0  0  0  0  0  0  0  0  0  0  0  0
    0.3869   -6.1924   -1.6572 H   0  0  0  0  0  0  0  0  0  0  0  0
    2.8365   -4.2315   -3.5323 H   0  0  0  0  0  0  0  0  0  0  0  0
    2.3764   -3.1460   -5.6785 H   0  0  0  0  0  0  0  0  0  0  0  0
    0.1691   -3.4295   -6.7712 H   0  0  0  0  0  0  0  0  0  0  0  0
   -1.5449   -4.8122   -5.7407 H   0  0  0  0  0  0  0  0  0  0  0  0
   -2.9209   -5.8673   -4.8046 H   0  0  0  0  0  0  0  0  0  0  0  0
   -3.3448   -6.8491   -3.4552 H   0  0  0  0  0  0  0  0  0  0  0  0
    0.4873   -1.9225   -2.3909 H   0  0  0  0  0  0  0  0  0  0  0  0
  1  2  1  0  0  0  0
  1 28  1  0  0  0  0
  1 29  1  0  0  0  0
  1 30  1  0  0  0  0
  2  3  1  0  0  0  0
  2 27  1  0  0  0  0
  3  4  2  0  0  0  0
  3 31  1  0  0  0  0
  4  5  1  0  0  0  0
  4 26  1  0  0  0  0
  5  6  1  0  0  0  0
  5 32  1  0  0  0  0
  6  7  1  0  0  0  0
  6 25  2  0  0  0  0
  7  8  2  0  0  0  0
  8  9  1  0  0  0  0
  8 33  1  0  0  0  0
  9 10  1  0  0  0  0
  9 14  2  0  0  0  0
 10 11  1  0  0  0  0
 10 12  1  0  0  0  0
 10 13  1  0  0  0  0
 14 15  1  0  0  0  0
 14 25  1  0  0  0  0
 15 16  1  0  0  0  0
 15 34  1  0  0  0  0
 16 17  1  0  0  0  0
 16 21  2  0  0  0  0
 17 18  2  0  0  0  0
 17 35  1  0  0  0  0
 18 19  1  0  0  0  0
 18 36  1  0  0  0  0
 19 20  2  0  0  0  0
 19 37  1  0  0  0  0
 20 21  1  0  0  0  0
 20 38  1  0  0  0  0
 21 22  1  0  0  0  0
 22 23  1  0  0  0  0
 22 24  2  0  0  0  0
 23 39  1  0  0  0  0
 23 40  1  0  0  0  0
 26 27  2  0  0  0  0
 26 41  1  0  0  0  0
M  END
$$$$
