CHEMBL3969192
 OpenBabel04072215373D

 58 61  0  0  0  0  0  0  0  0999 V2000
    2.5536   -0.0225   -5.9952 C   0  0  0  0  0  0  0  0  0  0  0  0
    3.5963   -0.6462   -5.4231 C   0  0  0  0  0  0  0  0  0  0  0  0
    3.6772   -1.0382   -3.9900 C   0  0  0  0  0  0  0  0  0  0  0  0
    2.6144   -0.8087   -3.1129 C   0  0  0  0  0  0  0  0  0  0  0  0
    2.7006   -1.1825   -1.7781 C   0  0  0  0  0  0  0  0  0  0  0  0
    1.6482   -1.0054   -0.9265 O   0  0  0  0  0  0  0  0  0  0  0  0
    0.3993   -0.4969   -1.2721 C   0  0  0  0  0  0  0  0  0  0  0  0
    3.8906   -1.7631   -1.3108 C   0  0  0  0  0  0  0  0  0  0  0  0
    5.0320   -2.0171   -2.1698 C   0  0  0  0  0  0  0  0  0  0  0  0
    6.2571   -2.6522   -1.6618 N   0  0  0  0  0  0  0  0  0  0  0  0
    6.4552   -2.7435   -0.1777 C   0  0  0  0  0  0  0  0  0  0  0  0
    7.7627   -2.0610    0.3537 C   0  0  0  0  0  0  0  0  0  0  0  0
    7.3585   -0.6007    0.6148 C   0  0  0  0  0  0  0  0  0  0  0  0
    8.4755   -0.8876   -0.3428 C   0  0  0  0  0  0  0  0  0  0  0  0
    7.3922   -3.2237   -2.4411 C   0  0  0  0  0  0  0  0  0  0  0  0
    8.0094   -4.3557   -1.8731 C   0  0  0  0  0  0  0  0  0  0  0  0
    9.2067   -4.8596   -2.3028 C   0  0  0  0  0  0  0  0  0  0  0  0
    9.8515   -4.3039   -3.3526 C   0  0  0  0  0  0  0  0  0  0  0  0
   11.0890   -4.7540   -3.6214 N   0  0  0  0  0  0  0  0  0  0  0  0
   11.8025   -4.3019   -4.6589 C   0  0  0  0  0  0  0  0  0  0  0  0
   11.2105   -3.4313   -5.5615 C   0  0  0  0  0  0  0  0  0  0  0  0
   11.9717   -3.3280   -6.8349 C   0  0  0  0  0  0  0  0  0  0  0  0
   11.5987   -3.8408   -8.0692 C   0  0  0  0  0  0  0  0  0  0  0  0
   12.6423   -3.7441   -8.9225 N   0  0  0  0  0  0  0  0  0  0  0  0
   13.6568   -3.2015   -8.2653 N   0  0  0  0  0  0  0  0  0  0  0  0
   14.9651   -2.9249   -8.8526 C   0  0  0  0  0  0  0  0  0  0  0  0
   13.2990   -2.9614   -6.9891 C   0  0  0  0  0  0  0  0  0  0  0  0
    9.9440   -2.9168   -5.2920 N   0  0  0  0  0  0  0  0  0  0  0  0
    9.2644   -3.2922   -4.1394 C   0  0  0  0  0  0  0  0  0  0  0  0
    8.0201   -2.7120   -3.6701 C   0  0  0  0  0  0  0  0  0  0  0  0
    4.8551   -1.6547   -3.5147 C   0  0  0  0  0  0  0  0  0  0  0  0
    0.7739   -1.8437    1.9880 Cl  0  0  0  0  0  0  0  0  0  0  0  0
    2.5966    0.2303   -7.0473 H   0  0  0  0  0  0  0  0  0  0  0  0
    1.6537    0.2610   -5.4643 H   0  0  0  0  0  0  0  0  0  0  0  0
    4.4466   -0.8708   -6.0552 H   0  0  0  0  0  0  0  0  0  0  0  0
    1.7041   -0.3556   -3.4578 H   0  0  0  0  0  0  0  0  0  0  0  0
   -0.2858   -0.5253   -0.4050 H   0  0  0  0  0  0  0  0  0  0  0  0
   -0.0585   -1.1098   -2.0838 H   0  0  0  0  0  0  0  0  0  0  0  0
    0.4940    0.5566   -1.6114 H   0  0  0  0  0  0  0  0  0  0  0  0
    3.8442   -2.0245   -0.2675 H   0  0  0  0  0  0  0  0  0  0  0  0
    6.4661   -3.7915    0.1622 H   0  0  0  0  0  0  0  0  0  0  0  0
    5.6436   -2.3724    0.4486 H   0  0  0  0  0  0  0  0  0  0  0  0
    8.0963   -2.3760    1.3681 H   0  0  0  0  0  0  0  0  0  0  0  0
    7.8347   -0.0246    1.4393 H   0  0  0  0  0  0  0  0  0  0  0  0
    6.5450   -0.1396    0.0157 H   0  0  0  0  0  0  0  0  0  0  0  0
    9.5046   -0.8431    0.0753 H   0  0  0  0  0  0  0  0  0  0  0  0
    8.3592   -1.0945   -1.4180 H   0  0  0  0  0  0  0  0  0  0  0  0
    7.6080   -4.8825   -1.0301 H   0  0  0  0  0  0  0  0  0  0  0  0
    9.6467   -5.6815   -1.7620 H   0  0  0  0  0  0  0  0  0  0  0  0
   12.7901   -4.7145   -4.8310 H   0  0  0  0  0  0  0  0  0  0  0  0
   10.6663   -4.3333   -8.3132 H   0  0  0  0  0  0  0  0  0  0  0  0
   14.9877   -3.2314   -9.9209 H   0  0  0  0  0  0  0  0  0  0  0  0
   15.7678   -3.4693   -8.3084 H   0  0  0  0  0  0  0  0  0  0  0  0
   15.1644   -1.8348   -8.7935 H   0  0  0  0  0  0  0  0  0  0  0  0
   13.9574   -2.5647   -6.2276 H   0  0  0  0  0  0  0  0  0  0  0  0
    7.6510   -1.8507   -4.2130 H   0  0  0  0  0  0  0  0  0  0  0  0
    5.6171   -1.8326   -4.2312 H   0  0  0  0  0  0  0  0  0  0  0  0
    1.7976   -0.9776    1.6752 H   0  0  0  0  0  0  0  0  0  0  0  0
  1  2  2  0  0  0  0
  1 33  1  0  0  0  0
  1 34  1  0  0  0  0
  2  3  1  0  0  0  0
  2 35  1  0  0  0  0
  3  4  1  0  0  0  0
  3 31  2  0  0  0  0
  4  5  2  0  0  0  0
  4 36  1  0  0  0  0
  5  6  1  0  0  0  0
  5  8  1  0  0  0  0
  6  7  1  0  0  0  0
  7 37  1  0  0  0  0
  7 38  1  0  0  0  0
  7 39  1  0  0  0  0
  8  9  2  0  0  0  0
  8 40  1  0  0  0  0
  9 10  1  0  0  0  0
  9 31  1  0  0  0  0
 10 11  1  0  0  0  0
 10 15  1  0  0  0  0
 11 12  1  0  0  0  0
 11 41  1  0  0  0  0
 11 42  1  0  0  0  0
 12 13  1  0  0  0  0
 12 14  1  0  0  0  0
 12 43  1  0  0  0  0
 13 14  1  0  0  0  0
 13 44  1  0  0  0  0
 13 45  1  0  0  0  0
 14 46  1  0  0  0  0
 14 47  1  0  0  0  0
 15 16  1  0  0  0  0
 15 30  2  0  0  0  0
 16 17  2  0  0  0  0
 16 48  1  0  0  0  0
 17 18  1  0  0  0  0
 17 49  1  0  0  0  0
 18 19  1  0  0  0  0
 18 29  2  0  0  0  0
 19 20  2  0  0  0  0
 20 21  1  0  0  0  0
 20 50  1  0  0  0  0
 21 22  1  0  0  0  0
 21 28  2  0  0  0  0
 22 23  1  0  0  0  0
 22 27  2  0  0  0  0
 23 24  2  0  0  0  0
 23 51  1  0  0  0  0
 24 25  1  0  0  0  0
 25 26  1  0  0  0  0
 25 27  1  0  0  0  0
 26 52  1  0  0  0  0
 26 53  1  0  0  0  0
 26 54  1  0  0  0  0
 27 55  1  0  0  0  0
 28 29  1  0  0  0  0
 29 30  1  0  0  0  0
 30 56  1  0  0  0  0
 31 57  1  0  0  0  0
 32 58  1  0  0  0  0
M  END
$$$$
