CHEMBL250214
 OpenBabel04072215363D

 57 61  0  0  0  0  0  0  0  0999 V2000
    1.6489    0.3548    1.9859 C   0  0  0  0  0  0  0  0  0  0  0  0
    2.9603    0.2805    1.2512 C   0  0  0  0  0  0  0  0  0  0  0  0
    3.6928   -0.9233    1.2664 C   0  0  0  0  0  0  0  0  0  0  0  0
    4.8986   -1.0768    0.5555 C   0  0  0  0  0  0  0  0  0  0  0  0
    5.6547   -2.3583    0.5894 C   0  0  0  0  0  0  0  0  0  0  0  0
    4.9283   -3.5749    0.5888 C   0  0  0  0  0  0  0  0  0  0  0  0
    5.5676   -4.8090    0.6903 C   0  0  0  0  0  0  0  0  0  0  0  0
    4.8603   -5.9724    0.7459 O   0  0  0  0  0  0  0  0  0  0  0  0
    6.9467   -4.8926    0.7524 C   0  0  0  0  0  0  0  0  0  0  0  0
    7.6986   -3.7224    0.7192 C   0  0  0  0  0  0  0  0  0  0  0  0
    7.0679   -2.4687    0.6580 C   0  0  0  0  0  0  0  0  0  0  0  0
    8.1369   -1.1075    0.7470 Cl  0  0  0  0  0  0  0  0  0  0  0  0
    5.3240    0.0362   -0.1746 C   0  0  0  0  0  0  0  0  0  0  0  0
    4.6540    1.2536   -0.1400 C   0  0  0  0  0  0  0  0  0  0  0  0
    5.1617    2.3007   -0.7845 N   0  0  0  0  0  0  0  0  0  0  0  0
    4.5354    3.4994   -0.6926 N   0  0  0  0  0  0  0  0  0  0  0  0
    3.3937    3.6204    0.0167 C   0  0  0  0  0  0  0  0  0  0  0  0
    2.7757    4.8644    0.1372 N   0  0  0  0  0  0  0  0  0  0  0  0
    3.3700    6.1317    0.0749 C   0  0  0  0  0  0  0  0  0  0  0  0
    2.6018    7.2323   -0.3210 C   0  0  0  0  0  0  0  0  0  0  0  0
    3.1952    8.4820   -0.5275 C   0  0  0  0  0  0  0  0  0  0  0  0
    4.5809    8.6262   -0.4117 C   0  0  0  0  0  0  0  0  0  0  0  0
    5.2950    9.8669   -0.8062 C   0  0  0  0  0  0  0  0  0  0  0  0
    6.1517   10.2931   -0.0321 O   0  0  0  0  0  0  0  0  0  0  0  0
    5.0378   10.4497   -2.0486 N   0  0  0  0  0  0  0  0  0  0  0  0
    4.0548   10.0092   -3.0500 C   0  0  0  0  0  0  0  0  0  0  0  0
    4.6287    9.9707   -4.4756 C   0  0  0  0  0  0  0  0  0  0  0  0
    5.3308   11.2033   -4.8659 N   0  0  0  0  0  0  0  0  0  0  0  0
    6.3691   11.5023   -3.8593 C   0  0  0  0  0  0  0  0  0  0  0  0
    5.8009   11.6409   -2.4356 C   0  0  0  0  0  0  0  0  0  0  0  0
    5.3446    7.5625    0.0665 C   0  0  0  0  0  0  0  0  0  0  0  0
    4.7400    6.3266    0.3048 C   0  0  0  0  0  0  0  0  0  0  0  0
    2.8053    2.5806    0.6235 N   0  0  0  0  0  0  0  0  0  0  0  0
    3.4543    1.3981    0.5762 C   0  0  0  0  0  0  0  0  0  0  0  0
    1.3756   -0.6143    2.4184 H   0  0  0  0  0  0  0  0  0  0  0  0
    0.8456    0.6391    1.2976 H   0  0  0  0  0  0  0  0  0  0  0  0
    1.7067    1.0816    2.8017 H   0  0  0  0  0  0  0  0  0  0  0  0
    3.3051   -1.7525    1.8553 H   0  0  0  0  0  0  0  0  0  0  0  0
    3.8430   -3.5528    0.5182 H   0  0  0  0  0  0  0  0  0  0  0  0
    3.9108   -5.7716    0.7069 H   0  0  0  0  0  0  0  0  0  0  0  0
    7.4364   -5.8582    0.8323 H   0  0  0  0  0  0  0  0  0  0  0  0
    8.7831   -3.7896    0.7645 H   0  0  0  0  0  0  0  0  0  0  0  0
    6.2182   -0.0102   -0.7936 H   0  0  0  0  0  0  0  0  0  0  0  0
    1.8791    4.7963    0.5933 H   0  0  0  0  0  0  0  0  0  0  0  0
    1.5416    7.1121   -0.5310 H   0  0  0  0  0  0  0  0  0  0  0  0
    2.5794    9.3198   -0.8400 H   0  0  0  0  0  0  0  0  0  0  0  0
    3.2198   10.7196   -2.9984 H   0  0  0  0  0  0  0  0  0  0  0  0
    3.6694    9.0143   -2.8365 H   0  0  0  0  0  0  0  0  0  0  0  0
    3.8119    9.7860   -5.1818 H   0  0  0  0  0  0  0  0  0  0  0  0
    5.3181    9.1213   -4.5643 H   0  0  0  0  0  0  0  0  0  0  0  0
    4.6591   11.9714   -4.8709 H   0  0  0  0  0  0  0  0  0  0  0  0
    6.8749   12.4304   -4.1446 H   0  0  0  0  0  0  0  0  0  0  0  0
    7.1251   10.7070   -3.8806 H   0  0  0  0  0  0  0  0  0  0  0  0
    5.1106   12.4931   -2.3857 H   0  0  0  0  0  0  0  0  0  0  0  0
    6.6163   11.8380   -1.7345 H   0  0  0  0  0  0  0  0  0  0  0  0
    6.4151    7.6749    0.2269 H   0  0  0  0  0  0  0  0  0  0  0  0
    5.3660    5.5110    0.6616 H   0  0  0  0  0  0  0  0  0  0  0  0
  1  2  1  0  0  0  0
  1 35  1  0  0  0  0
  1 36  1  0  0  0  0
  1 37  1  0  0  0  0
  2  3  1  0  0  0  0
  2 34  2  0  0  0  0
  3  4  2  0  0  0  0
  3 38  1  0  0  0  0
  4  5  1  0  0  0  0
  4 13  1  0  0  0  0
  5  6  1  0  0  0  0
  5 11  2  0  0  0  0
  6  7  2  0  0  0  0
  6 39  1  0  0  0  0
  7  8  1  0  0  0  0
  7  9  1  0  0  0  0
  8 40  1  0  0  0  0
  9 10  2  0  0  0  0
  9 41  1  0  0  0  0
 10 11  1  0  0  0  0
 10 42  1  0  0  0  0
 11 12  1  0  0  0  0
 13 14  2  0  0  0  0
 13 43  1  0  0  0  0
 14 15  1  0  0  0  0
 14 34  1  0  0  0  0
 15 16  2  0  0  0  0
 16 17  1  0  0  0  0
 17 18  1  0  0  0  0
 17 33  2  0  0  0  0
 18 19  1  0  0  0  0
 18 44  1  0  0  0  0
 19 20  1  0  0  0  0
 19 32  2  0  0  0  0
 20 21  2  0  0  0  0
 20 45  1  0  0  0  0
 21 22  1  0  0  0  0
 21 46  1  0  0  0  0
 22 23  1  0  0  0  0
 22 31  2  0  0  0  0
 23 24  2  0  0  0  0
 23 25  1  0  0  0  0
 25 26  1  0  0  0  0
 25 30  1  0  0  0  0
 26 27  1  0  0  0  0
 26 47  1  0  0  0  0
 26 48  1  0  0  0  0
 27 28  1  0  0  0  0
 27 49  1  0  0  0  0
 27 50  1  0  0  0  0
 28 29  1  0  0  0  0
 28 51  1  0  0  0  0
 29 30  1  0  0  0  0
 29 52  1  0  0  0  0
 29 53  1  0  0  0  0
 30 54  1  0  0  0  0
 30 55  1  0  0  0  0
 31 32  1  0  0  0  0
 31 56  1  0  0  0  0
 32 57  1  0  0  0  0
 33 34  1  0  0  0  0
M  END
$$$$
