CHEMBL243910
 OpenBabel04072215363D

 52 55  0  0  0  0  0  0  0  0999 V2000
    7.8320    7.8988    7.0341 C   0  0  0  0  0  0  0  0  0  0  0  0
    7.0458    7.9447    5.8378 O   0  0  0  0  0  0  0  0  0  0  0  0
    7.7266    7.5359    4.7247 C   0  0  0  0  0  0  0  0  0  0  0  0
    8.8885    7.1572    4.7664 O   0  0  0  0  0  0  0  0  0  0  0  0
    6.9020    7.6578    3.6399 N   0  0  0  0  0  0  0  0  0  0  0  0
    7.3253    7.3328    2.3790 C   0  0  0  0  0  0  0  0  0  0  0  0
    8.4993    6.8515    2.0494 N   0  0  0  0  0  0  0  0  0  0  0  0
    8.4948    6.7328    0.6920 C   0  0  0  0  0  0  0  0  0  0  0  0
    9.5170    6.2837   -0.1485 C   0  0  0  0  0  0  0  0  0  0  0  0
    9.2930    6.2860   -1.5268 C   0  0  0  0  0  0  0  0  0  0  0  0
    8.0875    6.7595   -2.0615 C   0  0  0  0  0  0  0  0  0  0  0  0
    7.8467    6.8195   -3.4227 O   0  0  0  0  0  0  0  0  0  0  0  0
    8.9143    7.1251   -4.2623 C   0  0  0  0  0  0  0  0  0  0  0  0
    8.8889    6.5744   -5.5320 C   0  0  0  0  0  0  0  0  0  0  0  0
    9.9828    6.7935   -6.3710 C   0  0  0  0  0  0  0  0  0  0  0  0
   11.0681    7.5507   -5.9480 C   0  0  0  0  0  0  0  0  0  0  0  0
   12.2501    7.7545   -6.7216 N   0  0  0  0  0  0  0  0  0  0  0  0
   12.4503    7.2910   -8.0089 C   0  0  0  0  0  0  0  0  0  0  0  0
   11.6171    6.6899   -8.6831 O   0  0  0  0  0  0  0  0  0  0  0  0
   13.7287    7.5579   -8.4853 N   0  0  0  0  0  0  0  0  0  0  0  0
   14.0777    7.1333   -9.7980 C   0  0  0  0  0  0  0  0  0  0  0  0
   13.2917    7.4732  -10.9077 C   0  0  0  0  0  0  0  0  0  0  0  0
   13.6434    7.0411  -12.1996 C   0  0  0  0  0  0  0  0  0  0  0  0
   12.8217    7.4364  -13.4050 C   0  0  0  0  0  0  0  0  0  0  0  0
   11.7490    8.2200  -13.1081 F   0  0  0  0  0  0  0  0  0  0  0  0
   13.5542    8.1411  -14.3130 F   0  0  0  0  0  0  0  0  0  0  0  0
   12.3284    6.3620  -14.0802 F   0  0  0  0  0  0  0  0  0  0  0  0
   14.7854    6.2377  -12.3607 C   0  0  0  0  0  0  0  0  0  0  0  0
   15.5623    5.8832  -11.2551 C   0  0  0  0  0  0  0  0  0  0  0  0
   15.2144    6.3467   -9.9884 C   0  0  0  0  0  0  0  0  0  0  0  0
   15.9500    5.9728   -8.9302 F   0  0  0  0  0  0  0  0  0  0  0  0
   10.9676    8.1076   -4.6739 C   0  0  0  0  0  0  0  0  0  0  0  0
    9.9170    7.9265   -3.8331 N   0  0  0  0  0  0  0  0  0  0  0  0
    7.0262    7.1443   -1.2226 C   0  0  0  0  0  0  0  0  0  0  0  0
    7.2768    7.1326    0.1554 C   0  0  0  0  0  0  0  0  0  0  0  0
    6.5340    7.4741    1.2605 N   0  0  0  0  0  0  0  0  0  0  0  0
    7.1659    8.0529    7.8868 H   0  0  0  0  0  0  0  0  0  0  0  0
    8.5747    8.7030    7.0217 H   0  0  0  0  0  0  0  0  0  0  0  0
    8.3212    6.9261    7.1577 H   0  0  0  0  0  0  0  0  0  0  0  0
    5.9820    8.0311    3.8106 H   0  0  0  0  0  0  0  0  0  0  0  0
   10.4642    5.9649    0.2714 H   0  0  0  0  0  0  0  0  0  0  0  0
   10.0946    5.9395   -2.1731 H   0  0  0  0  0  0  0  0  0  0  0  0
    8.0564    5.9620   -5.8607 H   0  0  0  0  0  0  0  0  0  0  0  0
    9.9458    6.3259   -7.3508 H   0  0  0  0  0  0  0  0  0  0  0  0
   12.9769    8.3242   -6.3166 H   0  0  0  0  0  0  0  0  0  0  0  0
   14.4643    7.4539   -7.7976 H   0  0  0  0  0  0  0  0  0  0  0  0
   12.4001    8.0844  -10.7703 H   0  0  0  0  0  0  0  0  0  0  0  0
   15.0692    5.8849  -13.3524 H   0  0  0  0  0  0  0  0  0  0  0  0
   16.4300    5.2410  -11.3742 H   0  0  0  0  0  0  0  0  0  0  0  0
   11.7556    8.7337   -4.2568 H   0  0  0  0  0  0  0  0  0  0  0  0
    6.0738    7.4615   -1.6329 H   0  0  0  0  0  0  0  0  0  0  0  0
    5.5760    7.7959    1.2536 H   0  0  0  0  0  0  0  0  0  0  0  0
  1  2  1  0  0  0  0
  1 37  1  0  0  0  0
  1 38  1  0  0  0  0
  1 39  1  0  0  0  0
  2  3  1  0  0  0  0
  3  4  2  0  0  0  0
  3  5  1  0  0  0  0
  5  6  1  0  0  0  0
  5 40  1  0  0  0  0
  6  7  2  0  0  0  0
  6 36  1  0  0  0  0
  7  8  1  0  0  0  0
  8  9  1  0  0  0  0
  8 35  2  0  0  0  0
  9 10  2  0  0  0  0
  9 41  1  0  0  0  0
 10 11  1  0  0  0  0
 10 42  1  0  0  0  0
 11 12  1  0  0  0  0
 11 34  2  0  0  0  0
 12 13  1  0  0  0  0
 13 14  1  0  0  0  0
 13 33  2  0  0  0  0
 14 15  2  0  0  0  0
 14 43  1  0  0  0  0
 15 16  1  0  0  0  0
 15 44  1  0  0  0  0
 16 17  1  0  0  0  0
 16 32  2  0  0  0  0
 17 18  1  0  0  0  0
 17 45  1  0  0  0  0
 18 19  2  0  0  0  0
 18 20  1  0  0  0  0
 20 21  1  0  0  0  0
 20 46  1  0  0  0  0
 21 22  1  0  0  0  0
 21 30  2  0  0  0  0
 22 23  2  0  0  0  0
 22 47  1  0  0  0  0
 23 24  1  0  0  0  0
 23 28  1  0  0  0  0
 24 25  1  0  0  0  0
 24 26  1  0  0  0  0
 24 27  1  0  0  0  0
 28 29  2  0  0  0  0
 28 48  1  0  0  0  0
 29 30  1  0  0  0  0
 29 49  1  0  0  0  0
 30 31  1  0  0  0  0
 32 33  1  0  0  0  0
 32 50  1  0  0  0  0
 34 35  1  0  0  0  0
 34 51  1  0  0  0  0
 35 36  1  0  0  0  0
 36 52  1  0  0  0  0
M  END
$$$$
