CHEMBL1940844
 OpenBabel04072215363D

 33 35  0  0  0  0  0  0  0  0999 V2000
    4.5808    0.2591   -0.0132 C   0  0  0  0  0  0  0  0  0  0  0  0
    3.1107   -0.0371   -0.0044 C   0  0  0  0  0  0  0  0  0  0  0  0
    2.6368   -1.3485   -0.0080 C   0  0  0  0  0  0  0  0  0  0  0  0
    1.2604   -1.6026   -0.0019 C   0  0  0  0  0  0  0  0  0  0  0  0
    0.3265   -0.5738    0.0050 C   0  0  0  0  0  0  0  0  0  0  0  0
   -0.9837   -0.8616    0.0039 N   0  0  0  0  0  0  0  0  0  0  0  0
   -1.8635    0.1712   -0.0037 C   0  0  0  0  0  0  0  0  0  0  0  0
   -3.4965   -0.3862   -0.0042 Cl  0  0  0  0  0  0  0  0  0  0  0  0
   -1.5213    1.5279    0.0079 C   0  0  0  0  0  0  0  0  0  0  0  0
   -2.5156    2.6246   -0.0374 C   0  0  0  0  0  0  0  0  0  0  0  0
   -2.3388    3.8382    0.5120 C   0  0  0  0  0  0  0  0  0  0  0  0
   -3.3916    4.9012    0.4633 C   0  0  0  0  0  0  0  0  0  0  0  0
   -4.2573    4.8498   -0.4183 O   0  0  0  0  0  0  0  0  0  0  0  0
   -3.3092    5.9610    1.4566 C   0  0  0  0  0  0  0  0  0  0  0  0
   -3.8826    7.5311    1.0384 S   0  0  0  0  0  0  0  0  0  0  0  0
   -3.5227    8.1536    2.5893 C   0  0  0  0  0  0  0  0  0  0  0  0
   -2.9691    7.1996    3.4090 C   0  0  0  0  0  0  0  0  0  0  0  0
   -2.8328    5.9400    2.7544 C   0  0  0  0  0  0  0  0  0  0  0  0
   -2.1546    4.6074    3.5988 Cl  0  0  0  0  0  0  0  0  0  0  0  0
   -0.1439    1.7916    0.0058 C   0  0  0  0  0  0  0  0  0  0  0  0
    0.7993    0.7497    0.0063 C   0  0  0  0  0  0  0  0  0  0  0  0
    2.1829    1.0102    0.0050 C   0  0  0  0  0  0  0  0  0  0  0  0
    5.1750   -0.6604   -0.0287 H   0  0  0  0  0  0  0  0  0  0  0  0
    4.8583    0.8235    0.8828 H   0  0  0  0  0  0  0  0  0  0  0  0
    4.8432    0.8426   -0.9017 H   0  0  0  0  0  0  0  0  0  0  0  0
    3.3296   -2.1879   -0.0172 H   0  0  0  0  0  0  0  0  0  0  0  0
    0.9082   -2.6317   -0.0061 H   0  0  0  0  0  0  0  0  0  0  0  0
   -3.4596    2.4081   -0.5384 H   0  0  0  0  0  0  0  0  0  0  0  0
   -1.4317    4.0996    1.0423 H   0  0  0  0  0  0  0  0  0  0  0  0
   -3.7296    9.1890    2.8235 H   0  0  0  0  0  0  0  0  0  0  0  0
   -2.6659    7.3973    4.4300 H   0  0  0  0  0  0  0  0  0  0  0  0
    0.2238    2.8149   -0.0069 H   0  0  0  0  0  0  0  0  0  0  0  0
    2.5427    2.0375    0.0079 H   0  0  0  0  0  0  0  0  0  0  0  0
  1  2  1  0  0  0  0
  1 23  1  0  0  0  0
  1 24  1  0  0  0  0
  1 25  1  0  0  0  0
  2  3  1  0  0  0  0
  2 22  2  0  0  0  0
  3  4  2  0  0  0  0
  3 26  1  0  0  0  0
  4  5  1  0  0  0  0
  4 27  1  0  0  0  0
  5  6  1  0  0  0  0
  5 21  2  0  0  0  0
  6  7  2  0  0  0  0
  7  8  1  0  0  0  0
  7  9  1  0  0  0  0
  9 10  1  0  0  0  0
  9 20  2  0  0  0  0
 10 11  2  0  0  0  0
 10 28  1  0  0  0  0
 11 12  1  0  0  0  0
 11 29  1  0  0  0  0
 12 13  2  0  0  0  0
 12 14  1  0  0  0  0
 14 15  1  0  0  0  0
 14 18  2  0  0  0  0
 15 16  1  0  0  0  0
 16 17  2  0  0  0  0
 16 30  1  0  0  0  0
 17 18  1  0  0  0  0
 17 31  1  0  0  0  0
 18 19  1  0  0  0  0
 20 21  1  0  0  0  0
 20 32  1  0  0  0  0
 21 22  1  0  0  0  0
 22 33  1  0  0  0  0
M  END
$$$$
