CHEMBL3676394
 OpenBabel04072215373D

 67 69  0  0  1  0  0  0  0  0999 V2000
    4.3189   -3.3350    2.0264 C   0  0  0  0  0  0  0  0  0  0  0  0
    4.4239   -2.8868    0.7706 C   0  0  0  0  0  0  0  0  0  0  0  0
    4.1974   -1.4554    0.3791 C   0  0  0  0  0  0  0  0  0  0  0  0
    3.6320   -0.6702    1.1340 O   0  0  0  0  0  0  0  0  0  0  0  0
    4.5789   -1.0834   -0.8980 N   0  0  0  0  0  0  0  0  0  0  0  0
    5.4338   -1.8167   -1.7411 C   0  0  0  0  0  0  0  0  0  0  0  0
    6.5843   -2.3613   -1.1630 C   0  0  0  0  0  0  0  0  0  0  0  0
    7.2649   -3.4121   -1.7908 C   0  0  0  0  0  0  0  0  0  0  0  0
    8.1870   -4.2461   -1.1534 C   0  0  0  0  0  0  0  0  0  0  0  0
    8.4056   -4.1080    0.2433 N   0  0  0  0  0  0  0  0  0  0  0  0
    8.9707   -5.1265    1.0438 C   0  0  0  0  0  0  0  0  0  0  0  0
    8.5401   -6.4557    0.9221 C   0  0  0  0  0  0  0  0  0  0  0  0
    9.2272   -7.4878    1.5582 C   0  0  0  0  0  0  0  0  0  0  0  0
   10.3349   -7.1886    2.3499 C   0  0  0  0  0  0  0  0  0  0  0  0
   11.3447   -8.5971    3.1016 Br  0  0  0  0  0  0  0  0  0  0  0  0
   10.7222   -5.8672    2.5592 C   0  0  0  0  0  0  0  0  0  0  0  0
   10.0309   -4.8482    1.9127 C   0  0  0  0  0  0  0  0  0  0  0  0
   10.4254   -3.5766    2.0836 F   0  0  0  0  0  0  0  0  0  0  0  0
    8.7572   -5.2823   -1.7966 N   0  0  0  0  0  0  0  0  0  0  0  0
    8.3871   -5.4952   -3.0585 C   0  0  0  0  0  0  0  0  0  0  0  0
    7.4923   -4.7831   -3.7451 N   0  0  0  0  0  0  0  0  0  0  0  0
    6.9201   -3.7639   -3.0997 C   0  0  0  0  0  0  0  0  0  0  0  0
    5.8907   -3.0798   -3.7277 C   0  0  0  0  0  0  0  0  0  0  0  0
    5.0985   -2.1437   -3.0595 C   0  0  0  0  0  0  0  0  0  0  0  0
    3.9269   -1.6227   -3.5909 O   0  0  0  0  0  0  0  0  0  0  0  0
    3.3950   -2.3468   -4.7191 C   0  0  0  0  0  0  0  0  0  0  0  0
    1.9112   -2.0225   -5.0077 C   0  0  3  0  0  0  0  0  0  0  0  0
    1.4048   -2.9308   -6.0522 N   0  0  0  0  0  0  0  0  0  0  0  0
    0.9707   -2.5105   -7.2931 C   0  0  0  0  0  0  0  0  0  0  0  0
    1.0304   -1.3432   -7.6705 O   0  0  0  0  0  0  0  0  0  0  0  0
    0.4225   -3.6350   -8.1914 C   0  0  0  0  0  0  0  0  0  0  0  0
   -0.7371   -4.3178   -7.5655 N   0  0  0  0  0  0  0  0  0  0  0  0
   -1.8663   -3.3870   -7.4226 C   0  0  0  0  0  0  0  0  0  0  0  0
   -1.1661   -5.4410   -8.4098 C   0  0  0  0  0  0  0  0  0  0  0  0
    1.0340   -2.0703   -3.7277 C   0  0  0  0  0  0  0  0  0  0  0  0
   -0.4172   -1.6729   -4.0087 C   0  0  0  0  0  0  0  0  0  0  0  0
    1.0719   -3.4279   -3.0191 C   0  0  0  0  0  0  0  0  0  0  0  0
    4.5138   -4.3812    2.2466 H   0  0  0  0  0  0  0  0  0  0  0  0
    4.0421   -2.6841    2.8479 H   0  0  0  0  0  0  0  0  0  0  0  0
    4.6694   -3.6006   -0.0065 H   0  0  0  0  0  0  0  0  0  0  0  0
    4.1364   -0.2475   -1.2620 H   0  0  0  0  0  0  0  0  0  0  0  0
    6.8734   -2.0494   -0.1619 H   0  0  0  0  0  0  0  0  0  0  0  0
    8.7630   -3.1859    0.4806 H   0  0  0  0  0  0  0  0  0  0  0  0
    7.6932   -6.6956    0.2826 H   0  0  0  0  0  0  0  0  0  0  0  0
    8.9116   -8.5150    1.3959 H   0  0  0  0  0  0  0  0  0  0  0  0
   11.5733   -5.6186    3.1852 H   0  0  0  0  0  0  0  0  0  0  0  0
    8.8343   -6.3453   -3.5628 H   0  0  0  0  0  0  0  0  0  0  0  0
    5.6642   -3.3861   -4.7447 H   0  0  0  0  0  0  0  0  0  0  0  0
    3.4613   -3.4280   -4.5392 H   0  0  0  0  0  0  0  0  0  0  0  0
    3.9878   -2.1065   -5.6108 H   0  0  0  0  0  0  0  0  0  0  0  0
    1.8692   -0.9951   -5.3912 H   0  0  0  0  0  0  0  0  0  0  0  0
    1.2564   -3.9109   -5.8364 H   0  0  0  0  0  0  0  0  0  0  0  0
    1.2410   -4.3502   -8.3425 H   0  0  0  0  0  0  0  0  0  0  0  0
    0.1623   -3.2143   -9.1709 H   0  0  0  0  0  0  0  0  0  0  0  0
   -1.6029   -2.5267   -6.8024 H   0  0  0  0  0  0  0  0  0  0  0  0
   -2.7037   -3.8838   -6.9196 H   0  0  0  0  0  0  0  0  0  0  0  0
   -2.2182   -3.0094   -8.3896 H   0  0  0  0  0  0  0  0  0  0  0  0
   -0.3553   -6.1653   -8.5415 H   0  0  0  0  0  0  0  0  0  0  0  0
   -1.4979   -5.1121   -9.4026 H   0  0  0  0  0  0  0  0  0  0  0  0
   -1.9955   -5.9799   -7.9365 H   0  0  0  0  0  0  0  0  0  0  0  0
    1.4297   -1.3258   -3.0247 H   0  0  0  0  0  0  0  0  0  0  0  0
   -0.9010   -2.3724   -4.6942 H   0  0  0  0  0  0  0  0  0  0  0  0
   -0.4716   -0.6682   -4.4405 H   0  0  0  0  0  0  0  0  0  0  0  0
   -1.0018   -1.6693   -3.0824 H   0  0  0  0  0  0  0  0  0  0  0  0
    0.7131   -4.2340   -3.6665 H   0  0  0  0  0  0  0  0  0  0  0  0
    0.4403   -3.4120   -2.1247 H   0  0  0  0  0  0  0  0  0  0  0  0
    2.0851   -3.6778   -2.6906 H   0  0  0  0  0  0  0  0  0  0  0  0
  1  2  2  0  0  0  0
  1 38  1  0  0  0  0
  1 39  1  0  0  0  0
  2  3  1  0  0  0  0
  2 40  1  0  0  0  0
  3  4  2  0  0  0  0
  3  5  1  0  0  0  0
  5  6  1  0  0  0  0
  5 41  1  0  0  0  0
  6  7  1  0  0  0  0
  6 24  2  0  0  0  0
  7  8  2  0  0  0  0
  7 42  1  0  0  0  0
  8  9  1  0  0  0  0
  8 22  1  0  0  0  0
  9 10  1  0  0  0  0
  9 19  2  0  0  0  0
 10 11  1  0  0  0  0
 10 43  1  0  0  0  0
 11 12  1  0  0  0  0
 11 17  2  0  0  0  0
 12 13  2  0  0  0  0
 12 44  1  0  0  0  0
 13 14  1  0  0  0  0
 13 45  1  0  0  0  0
 14 15  1  0  0  0  0
 14 16  2  0  0  0  0
 16 17  1  0  0  0  0
 16 46  1  0  0  0  0
 17 18  1  0  0  0  0
 19 20  1  0  0  0  0
 20 21  2  0  0  0  0
 20 47  1  0  0  0  0
 21 22  1  0  0  0  0
 22 23  2  0  0  0  0
 23 24  1  0  0  0  0
 23 48  1  0  0  0  0
 24 25  1  0  0  0  0
 25 26  1  0  0  0  0
 26 27  1  0  0  0  0
 26 49  1  0  0  0  0
 26 50  1  0  0  0  0
 27 28  1  0  0  0  0
 27 35  1  0  0  0  0
 27 51  1  0  0  0  0
 28 29  1  0  0  0  0
 28 52  1  0  0  0  0
 29 30  2  0  0  0  0
 29 31  1  0  0  0  0
 31 32  1  0  0  0  0
 31 53  1  0  0  0  0
 31 54  1  0  0  0  0
 32 33  1  0  0  0  0
 32 34  1  0  0  0  0
 33 55  1  0  0  0  0
 33 56  1  0  0  0  0
 33 57  1  0  0  0  0
 34 58  1  0  0  0  0
 34 59  1  0  0  0  0
 34 60  1  0  0  0  0
 35 36  1  0  0  0  0
 35 37  1  0  0  0  0
 35 61  1  0  0  0  0
 36 62  1  0  0  0  0
 36 63  1  0  0  0  0
 36 64  1  0  0  0  0
 37 65  1  0  0  0  0
 37 66  1  0  0  0  0
 37 67  1  0  0  0  0
M  END
$$$$
