CHEMBL3957264
 OpenBabel04072215373D

 67 71  0  0  0  0  0  0  0  0999 V2000
    1.2653    0.2213    0.6548 C   0  0  0  0  0  0  0  0  0  0  0  0
    2.2184   -0.0718   -0.3727 O   0  0  0  0  0  0  0  0  0  0  0  0
    2.8582    1.0068   -0.9464 C   0  0  0  0  0  0  0  0  0  0  0  0
    2.5283    2.3253   -0.6732 C   0  0  0  0  0  0  0  0  0  0  0  0
    3.2054    3.3518   -1.3159 C   0  0  0  0  0  0  0  0  0  0  0  0
    2.9432    4.6896   -1.1597 O   0  0  0  0  0  0  0  0  0  0  0  0
    1.9120    5.0089   -0.2339 C   0  0  0  0  0  0  0  0  0  0  0  0
    4.2744    3.0610   -2.1696 C   0  0  0  0  0  0  0  0  0  0  0  0
    4.7578    1.7654   -2.3453 C   0  0  0  0  0  0  0  0  0  0  0  0
    5.9886    1.5799   -3.0388 N   0  0  0  0  0  0  0  0  0  0  0  0
    6.6753    0.2184   -2.9146 C   0  0  0  0  0  0  0  0  0  0  0  0
    7.8321    0.2884   -1.8682 C   0  0  0  0  0  0  0  0  0  0  0  0
    8.6447   -0.9053   -1.5325 N   0  0  0  0  0  0  0  0  0  0  0  0
    9.6447   -0.5010   -0.5102 C   0  0  0  0  0  0  0  0  0  0  0  0
   10.5238   -1.6574   -0.0309 C   0  0  0  0  0  0  0  0  0  0  0  0
    9.6805   -2.8363    0.4336 C   0  0  0  0  0  0  0  0  0  0  0  0
    8.6595   -3.2057   -0.6343 C   0  0  0  0  0  0  0  0  0  0  0  0
    7.8093   -1.9983   -1.0290 C   0  0  0  0  0  0  0  0  0  0  0  0
    6.9806    2.5836   -3.4196 C   0  0  0  0  0  0  0  0  0  0  0  0
    7.6034    2.3641   -4.6332 C   0  0  0  0  0  0  0  0  0  0  0  0
    8.9161    2.7428   -4.7510 C   0  0  0  0  0  0  0  0  0  0  0  0
    9.5741    3.4297   -3.8159 C   0  0  0  0  0  0  0  0  0  0  0  0
   10.8879    3.2973   -3.9476 N   0  0  0  0  0  0  0  0  0  0  0  0
   11.6420    4.2816   -3.4619 C   0  0  0  0  0  0  0  0  0  0  0  0
   11.0869    5.3863   -2.8824 C   0  0  0  0  0  0  0  0  0  0  0  0
   11.9356    6.5868   -2.8174 C   0  0  0  0  0  0  0  0  0  0  0  0
   11.8485    7.8490   -3.4656 C   0  0  0  0  0  0  0  0  0  0  0  0
   12.8630    8.6539   -3.1560 N   0  0  0  0  0  0  0  0  0  0  0  0
   13.6213    7.9065   -2.3320 N   0  0  0  0  0  0  0  0  0  0  0  0
   14.5392    8.5235   -1.4000 C   0  0  0  0  0  0  0  0  0  0  0  0
   13.2259    6.5976   -2.2984 C   0  0  0  0  0  0  0  0  0  0  0  0
    9.7427    5.3560   -2.4691 N   0  0  0  0  0  0  0  0  0  0  0  0
    8.9100    4.2385   -2.8783 C   0  0  0  0  0  0  0  0  0  0  0  0
    7.5484    3.6405   -2.6056 C   0  0  0  0  0  0  0  0  0  0  0  0
    3.9275    0.7309   -1.8300 C   0  0  0  0  0  0  0  0  0  0  0  0
    0.9449   -0.7213    1.1095 H   0  0  0  0  0  0  0  0  0  0  0  0
    0.3772    0.7062    0.2341 H   0  0  0  0  0  0  0  0  0  0  0  0
    1.6990    0.8325    1.4557 H   0  0  0  0  0  0  0  0  0  0  0  0
    1.7379    2.5581    0.0230 H   0  0  0  0  0  0  0  0  0  0  0  0
    1.7974    6.0945   -0.2085 H   0  0  0  0  0  0  0  0  0  0  0  0
    2.1768    4.6766    0.7765 H   0  0  0  0  0  0  0  0  0  0  0  0
    0.9561    4.5800   -0.5540 H   0  0  0  0  0  0  0  0  0  0  0  0
    4.7608    3.8900   -2.6813 H   0  0  0  0  0  0  0  0  0  0  0  0
    7.0666   -0.1181   -3.8877 H   0  0  0  0  0  0  0  0  0  0  0  0
    5.9731   -0.5698   -2.6333 H   0  0  0  0  0  0  0  0  0  0  0  0
    7.3994    0.7005   -0.9504 H   0  0  0  0  0  0  0  0  0  0  0  0
    8.5612    1.0115   -2.2429 H   0  0  0  0  0  0  0  0  0  0  0  0
    9.1394   -0.0633    0.3620 H   0  0  0  0  0  0  0  0  0  0  0  0
   10.3035    0.2767   -0.9186 H   0  0  0  0  0  0  0  0  0  0  0  0
   11.1621   -1.3182    0.7959 H   0  0  0  0  0  0  0  0  0  0  0  0
   11.1943   -1.9742   -0.8384 H   0  0  0  0  0  0  0  0  0  0  0  0
    9.1598   -2.5714    1.3622 H   0  0  0  0  0  0  0  0  0  0  0  0
   10.3220   -3.6954    0.6575 H   0  0  0  0  0  0  0  0  0  0  0  0
    8.0087   -4.0049   -0.2645 H   0  0  0  0  0  0  0  0  0  0  0  0
    9.1794   -3.5953   -1.5190 H   0  0  0  0  0  0  0  0  0  0  0  0
    7.2159   -1.6646   -0.1683 H   0  0  0  0  0  0  0  0  0  0  0  0
    7.1143   -2.3243   -1.8089 H   0  0  0  0  0  0  0  0  0  0  0  0
    7.1629    1.7383   -5.4013 H   0  0  0  0  0  0  0  0  0  0  0  0
    9.4881    2.4448   -5.6331 H   0  0  0  0  0  0  0  0  0  0  0  0
   12.7042    4.1599   -3.6919 H   0  0  0  0  0  0  0  0  0  0  0  0
   11.0766    8.2216   -4.1296 H   0  0  0  0  0  0  0  0  0  0  0  0
   14.6034    9.5978   -1.5894 H   0  0  0  0  0  0  0  0  0  0  0  0
   15.5217    8.0569   -1.4912 H   0  0  0  0  0  0  0  0  0  0  0  0
   14.1354    8.3575   -0.3944 H   0  0  0  0  0  0  0  0  0  0  0  0
   13.8209    5.8505   -1.7992 H   0  0  0  0  0  0  0  0  0  0  0  0
    7.0024    3.9703   -1.7233 H   0  0  0  0  0  0  0  0  0  0  0  0
    4.0731   -0.3149   -2.0798 H   0  0  0  0  0  0  0  0  0  0  0  0
  1  2  1  0  0  0  0
  1 36  1  0  0  0  0
  1 37  1  0  0  0  0
  1 38  1  0  0  0  0
  2  3  1  0  0  0  0
  3  4  1  0  0  0  0
  3 35  2  0  0  0  0
  4  5  2  0  0  0  0
  4 39  1  0  0  0  0
  5  6  1  0  0  0  0
  5  8  1  0  0  0  0
  6  7  1  0  0  0  0
  7 40  1  0  0  0  0
  7 41  1  0  0  0  0
  7 42  1  0  0  0  0
  8  9  2  0  0  0  0
  8 43  1  0  0  0  0
  9 10  1  0  0  0  0
  9 35  1  0  0  0  0
 10 11  1  0  0  0  0
 10 19  1  0  0  0  0
 11 12  1  0  0  0  0
 11 44  1  0  0  0  0
 11 45  1  0  0  0  0
 12 13  1  0  0  0  0
 12 46  1  0  0  0  0
 12 47  1  0  0  0  0
 13 14  1  0  0  0  0
 13 18  1  0  0  0  0
 14 15  1  0  0  0  0
 14 48  1  0  0  0  0
 14 49  1  0  0  0  0
 15 16  1  0  0  0  0
 15 50  1  0  0  0  0
 15 51  1  0  0  0  0
 16 17  1  0  0  0  0
 16 52  1  0  0  0  0
 16 53  1  0  0  0  0
 17 18  1  0  0  0  0
 17 54  1  0  0  0  0
 17 55  1  0  0  0  0
 18 56  1  0  0  0  0
 18 57  1  0  0  0  0
 19 20  1  0  0  0  0
 19 34  2  0  0  0  0
 20 21  2  0  0  0  0
 20 58  1  0  0  0  0
 21 22  1  0  0  0  0
 21 59  1  0  0  0  0
 22 23  1  0  0  0  0
 22 33  2  0  0  0  0
 23 24  2  0  0  0  0
 24 25  1  0  0  0  0
 24 60  1  0  0  0  0
 25 26  1  0  0  0  0
 25 32  2  0  0  0  0
 26 27  1  0  0  0  0
 26 31  2  0  0  0  0
 27 28  2  0  0  0  0
 27 61  1  0  0  0  0
 28 29  1  0  0  0  0
 29 30  1  0  0  0  0
 29 31  1  0  0  0  0
 30 62  1  0  0  0  0
 30 63  1  0  0  0  0
 30 64  1  0  0  0  0
 31 65  1  0  0  0  0
 32 33  1  0  0  0  0
 33 34  1  0  0  0  0
 34 66  1  0  0  0  0
 35 67  1  0  0  0  0
M  END
$$$$
