CHEMBL2178352
 OpenBabel04072215363D

 67 72  0  0  0  0  0  0  0  0999 V2000
  -13.5603   -0.1784   -4.1287 C   0  0  0  0  0  0  0  0  0  0  0  0
  -12.6328    0.6256   -3.3396 N   0  0  0  0  0  0  0  0  0  0  0  0
  -12.9440    0.5139   -1.8964 C   0  0  0  0  0  0  0  0  0  0  0  0
  -11.9706    1.3439   -1.0334 C   0  0  0  0  0  0  0  0  0  0  0  0
  -10.5842    0.9247   -1.3023 N   0  0  0  0  0  0  0  0  0  0  0  0
   -9.6776    0.7312   -0.2856 C   0  0  0  0  0  0  0  0  0  0  0  0
  -10.0846    0.1714    0.9272 C   0  0  0  0  0  0  0  0  0  0  0  0
   -9.1891   -0.0679    1.9697 C   0  0  0  0  0  0  0  0  0  0  0  0
   -7.8373    0.2335    1.8590 C   0  0  0  0  0  0  0  0  0  0  0  0
   -6.9071   -0.0614    2.8663 N   0  0  0  0  0  0  0  0  0  0  0  0
   -7.1054   -0.6978    4.0951 C   0  0  0  0  0  0  0  0  0  0  0  0
   -6.2972   -0.2738    5.0906 N   0  0  0  0  0  0  0  0  0  0  0  0
   -6.4671   -0.7791    6.3404 C   0  0  0  0  0  0  0  0  0  0  0  0
   -7.4441   -1.7366    6.5617 C   0  0  0  0  0  0  0  0  0  0  0  0
   -7.8557   -2.3971    7.6791 N   0  0  0  0  0  0  0  0  0  0  0  0
   -8.8008   -3.2293    7.2844 C   0  0  0  0  0  0  0  0  0  0  0  0
   -9.4684   -4.1157    8.0586 N   0  0  0  0  0  0  0  0  0  0  0  0
   -9.6352   -3.9880    9.4529 C   0  0  0  0  0  0  0  0  0  0  0  0
   -9.6860   -2.7373   10.0849 C   0  0  0  0  0  0  0  0  0  0  0  0
   -9.8393   -2.6312   11.4675 C   0  0  0  0  0  0  0  0  0  0  0  0
   -9.9084   -3.7797   12.2485 C   0  0  0  0  0  0  0  0  0  0  0  0
   -9.8194   -5.0326   11.6442 C   0  0  0  0  0  0  0  0  0  0  0  0
   -9.6842   -5.1357   10.2557 C   0  0  0  0  0  0  0  0  0  0  0  0
   -9.0342   -3.1041    5.9229 N   0  0  0  0  0  0  0  0  0  0  0  0
  -10.0194   -3.8157    5.1328 C   0  0  0  0  0  0  0  0  0  0  0  0
   -9.4422   -4.5918    3.9472 C   0  0  0  0  0  0  0  0  0  0  0  0
  -10.6021   -4.7735    2.9726 C   0  0  0  0  0  0  0  0  0  0  0  0
  -11.7068   -3.8144    3.4083 C   0  0  0  0  0  0  0  0  0  0  0  0
  -11.1157   -2.9468    4.5134 C   0  0  0  0  0  0  0  0  0  0  0  0
   -8.1731   -2.1332    5.4620 C   0  0  0  0  0  0  0  0  0  0  0  0
   -8.0487   -1.6548    4.2162 N   0  0  0  0  0  0  0  0  0  0  0  0
   -7.4061    0.7766    0.6470 C   0  0  0  0  0  0  0  0  0  0  0  0
   -8.3115    1.0228   -0.4026 C   0  0  0  0  0  0  0  0  0  0  0  0
  -10.2050    0.9876   -2.7185 C   0  0  0  0  0  0  0  0  0  0  0  0
  -11.2333    0.1925   -3.5654 C   0  0  0  0  0  0  0  0  0  0  0  0
  -14.5882    0.1700   -3.9786 H   0  0  0  0  0  0  0  0  0  0  0  0
  -13.5160   -1.2426   -3.8714 H   0  0  0  0  0  0  0  0  0  0  0  0
  -13.3442   -0.0707   -5.1970 H   0  0  0  0  0  0  0  0  0  0  0  0
  -12.8988   -0.5365   -1.5754 H   0  0  0  0  0  0  0  0  0  0  0  0
  -13.9631    0.8710   -1.7085 H   0  0  0  0  0  0  0  0  0  0  0  0
  -12.2636    1.2445    0.0168 H   0  0  0  0  0  0  0  0  0  0  0  0
  -12.0742    2.4091   -1.2759 H   0  0  0  0  0  0  0  0  0  0  0  0
  -11.1146   -0.1363    1.0805 H   0  0  0  0  0  0  0  0  0  0  0  0
   -9.5969   -0.4938    2.8797 H   0  0  0  0  0  0  0  0  0  0  0  0
   -6.1485    0.6019    2.9601 H   0  0  0  0  0  0  0  0  0  0  0  0
   -5.8224   -0.4018    7.1228 H   0  0  0  0  0  0  0  0  0  0  0  0
   -9.8625   -4.9670    7.6816 H   0  0  0  0  0  0  0  0  0  0  0  0
   -9.6295   -1.8251    9.4952 H   0  0  0  0  0  0  0  0  0  0  0  0
   -9.8974   -1.6486   11.9276 H   0  0  0  0  0  0  0  0  0  0  0  0
  -10.0176   -3.6977   13.3259 H   0  0  0  0  0  0  0  0  0  0  0  0
   -9.8446   -5.9308   12.2557 H   0  0  0  0  0  0  0  0  0  0  0  0
   -9.5899   -6.1222    9.8103 H   0  0  0  0  0  0  0  0  0  0  0  0
  -10.5185   -4.5412    5.7853 H   0  0  0  0  0  0  0  0  0  0  0  0
   -9.0297   -5.5553    4.2658 H   0  0  0  0  0  0  0  0  0  0  0  0
   -8.6324   -4.0522    3.4463 H   0  0  0  0  0  0  0  0  0  0  0  0
  -10.9683   -5.8061    2.9905 H   0  0  0  0  0  0  0  0  0  0  0  0
  -10.2777   -4.5644    1.9473 H   0  0  0  0  0  0  0  0  0  0  0  0
  -12.5612   -4.3856    3.7898 H   0  0  0  0  0  0  0  0  0  0  0  0
  -12.0700   -3.2085    2.5714 H   0  0  0  0  0  0  0  0  0  0  0  0
  -11.8775   -2.6634    5.2481 H   0  0  0  0  0  0  0  0  0  0  0  0
  -10.7217   -2.0217    4.0867 H   0  0  0  0  0  0  0  0  0  0  0  0
   -6.3542    1.0077    0.4933 H   0  0  0  0  0  0  0  0  0  0  0  0
   -7.9198    1.4655   -1.3142 H   0  0  0  0  0  0  0  0  0  0  0  0
   -9.2188    0.5465   -2.9008 H   0  0  0  0  0  0  0  0  0  0  0  0
  -10.1727    2.0339   -3.0454 H   0  0  0  0  0  0  0  0  0  0  0  0
  -11.1295   -0.8749   -3.3242 H   0  0  0  0  0  0  0  0  0  0  0  0
  -10.9760    0.3157   -4.6235 H   0  0  0  0  0  0  0  0  0  0  0  0
  1  2  1  0  0  0  0
  1 36  1  0  0  0  0
  1 37  1  0  0  0  0
  1 38  1  0  0  0  0
  2  3  1  0  0  0  0
  2 35  1  0  0  0  0
  3  4  1  0  0  0  0
  3 39  1  0  0  0  0
  3 40  1  0  0  0  0
  4  5  1  0  0  0  0
  4 41  1  0  0  0  0
  4 42  1  0  0  0  0
  5  6  1  0  0  0  0
  5 34  1  0  0  0  0
  6  7  1  0  0  0  0
  6 33  2  0  0  0  0
  7  8  2  0  0  0  0
  7 43  1  0  0  0  0
  8  9  1  0  0  0  0
  8 44  1  0  0  0  0
  9 10  1  0  0  0  0
  9 32  2  0  0  0  0
 10 11  1  0  0  0  0
 10 45  1  0  0  0  0
 11 12  1  0  0  0  0
 11 31  2  0  0  0  0
 12 13  2  0  0  0  0
 13 14  1  0  0  0  0
 13 46  1  0  0  0  0
 14 15  1  0  0  0  0
 14 30  2  0  0  0  0
 15 16  2  0  0  0  0
 16 17  1  0  0  0  0
 16 24  1  0  0  0  0
 17 18  1  0  0  0  0
 17 47  1  0  0  0  0
 18 19  1  0  0  0  0
 18 23  2  0  0  0  0
 19 20  2  0  0  0  0
 19 48  1  0  0  0  0
 20 21  1  0  0  0  0
 20 49  1  0  0  0  0
 21 22  2  0  0  0  0
 21 50  1  0  0  0  0
 22 23  1  0  0  0  0
 22 51  1  0  0  0  0
 23 52  1  0  0  0  0
 24 25  1  0  0  0  0
 24 30  1  0  0  0  0
 25 26  1  0  0  0  0
 25 29  1  0  0  0  0
 25 53  1  0  0  0  0
 26 27  1  0  0  0  0
 26 54  1  0  0  0  0
 26 55  1  0  0  0  0
 27 28  1  0  0  0  0
 27 56  1  0  0  0  0
 27 57  1  0  0  0  0
 28 29  1  0  0  0  0
 28 58  1  0  0  0  0
 28 59  1  0  0  0  0
 29 60  1  0  0  0  0
 29 61  1  0  0  0  0
 30 31  1  0  0  0  0
 32 33  1  0  0  0  0
 32 62  1  0  0  0  0
 33 63  1  0  0  0  0
 34 35  1  0  0  0  0
 34 64  1  0  0  0  0
 34 65  1  0  0  0  0
 35 66  1  0  0  0  0
 35 67  1  0  0  0  0
M  END
$$$$
