CHEMBL270368
 OpenBabel04072215363D

 70 75  0  0  0  0  0  0  0  0999 V2000
    1.3573   -0.9797   -0.6167 C   0  0  0  0  0  0  0  0  0  0  0  0
    2.4016   -0.0463   -0.0020 C   0  0  0  0  0  0  0  0  0  0  0  0
    3.5279   -0.8093    0.6930 C   0  0  0  0  0  0  0  0  0  0  0  0
    2.9029    1.0105   -0.9668 C   0  0  0  0  0  0  0  0  0  0  0  0
    3.6017    0.8197   -2.2209 C   0  0  0  0  0  0  0  0  0  0  0  0
    4.0534   -0.4365   -2.9139 C   0  0  0  0  0  0  0  0  0  0  0  0
    3.8767   -1.6534   -2.4317 N   0  0  0  0  0  0  0  0  0  0  0  0
    4.3427   -2.5479   -3.3708 N   0  0  0  0  0  0  0  0  0  0  0  0
    4.8035   -1.8138   -4.3526 C   0  0  0  0  0  0  0  0  0  0  0  0
    5.3214   -2.2136   -5.5139 O   0  0  0  0  0  0  0  0  0  0  0  0
    4.9529   -3.5551   -5.8531 C   0  0  0  0  0  0  0  0  0  0  0  0
    5.6461   -4.0364   -7.1461 C   0  0  0  0  0  0  0  0  0  0  0  0
    5.1188   -5.4262   -7.5504 C   0  0  0  0  0  0  0  0  0  0  0  0
    5.6650   -6.5366   -6.6494 C   0  0  0  0  0  0  0  0  0  0  0  0
    7.1270   -6.5495   -6.6411 N   0  0  0  0  0  0  0  0  0  0  0  0
    7.6726   -5.2670   -6.1920 C   0  0  0  0  0  0  0  0  0  0  0  0
    7.1799   -4.0983   -7.0480 C   0  0  0  0  0  0  0  0  0  0  0  0
    4.6790   -0.4721   -4.1503 O   0  0  0  0  0  0  0  0  0  0  0  0
    3.7798    2.0650   -2.7855 C   0  0  0  0  0  0  0  0  0  0  0  0
    3.2204    2.9971   -1.9621 N   0  0  0  0  0  0  0  0  0  0  0  0
    3.1362    4.3047   -2.2463 N   0  0  0  0  0  0  0  0  0  0  0  0
    2.5230    4.9969   -1.3439 C   0  0  0  0  0  0  0  0  0  0  0  0
    2.0121    4.5292   -0.1656 N   0  0  0  0  0  0  0  0  0  0  0  0
    2.0963    3.2627    0.1332 C   0  0  0  0  0  0  0  0  0  0  0  0
    1.5996    2.8211    1.3454 N   0  0  0  0  0  0  0  0  0  0  0  0
    0.5532    3.4409    2.0606 C   0  0  0  0  0  0  0  0  0  0  0  0
   -0.5024    4.0836    1.3985 C   0  0  0  0  0  0  0  0  0  0  0  0
   -1.5361    4.7309    2.0996 C   0  0  0  0  0  0  0  0  0  0  0  0
   -2.6087    5.3761    1.2942 C   0  0  0  0  0  0  0  0  0  0  0  0
   -2.5565    5.3328    0.0674 O   0  0  0  0  0  0  0  0  0  0  0  0
   -3.6464    5.9943    1.9695 N   0  0  0  0  0  0  0  0  0  0  0  0
   -4.7271    6.6083    1.2651 C   0  0  0  0  0  0  0  0  0  0  0  0
   -4.6396    8.0431    0.8206 C   0  0  0  0  0  0  0  0  0  0  0  0
   -5.5854    7.6547    1.9184 C   0  0  0  0  0  0  0  0  0  0  0  0
   -1.4950    4.7273    3.4923 C   0  0  0  0  0  0  0  0  0  0  0  0
   -2.4521    5.3392    4.2108 F   0  0  0  0  0  0  0  0  0  0  0  0
   -0.4690    4.0849    4.1806 C   0  0  0  0  0  0  0  0  0  0  0  0
    0.5398    3.4439    3.4608 C   0  0  0  0  0  0  0  0  0  0  0  0
    1.5219    2.8244    4.1309 F   0  0  0  0  0  0  0  0  0  0  0  0
    2.7292    2.3953   -0.8383 C   0  0  0  0  0  0  0  0  0  0  0  0
    0.9732   -1.6758    0.1366 H   0  0  0  0  0  0  0  0  0  0  0  0
    1.7474   -1.5802   -1.4385 H   0  0  0  0  0  0  0  0  0  0  0  0
    0.5094   -0.4075   -1.0094 H   0  0  0  0  0  0  0  0  0  0  0  0
    1.8645    0.4597    0.8038 H   0  0  0  0  0  0  0  0  0  0  0  0
    4.0575   -1.4847    0.0187 H   0  0  0  0  0  0  0  0  0  0  0  0
    3.1249   -1.4160    1.5119 H   0  0  0  0  0  0  0  0  0  0  0  0
    4.2639   -0.1203    1.1217 H   0  0  0  0  0  0  0  0  0  0  0  0
    3.8679   -3.5671   -6.0250 H   0  0  0  0  0  0  0  0  0  0  0  0
    5.1778   -4.2350   -5.0246 H   0  0  0  0  0  0  0  0  0  0  0  0
    5.3983   -3.3188   -7.9392 H   0  0  0  0  0  0  0  0  0  0  0  0
    5.4138   -5.6333   -8.5878 H   0  0  0  0  0  0  0  0  0  0  0  0
    4.0229   -5.4410   -7.5306 H   0  0  0  0  0  0  0  0  0  0  0  0
    5.3053   -7.5073   -7.0085 H   0  0  0  0  0  0  0  0  0  0  0  0
    5.2891   -6.4332   -5.6251 H   0  0  0  0  0  0  0  0  0  0  0  0
    7.4633   -6.7435   -7.5850 H   0  0  0  0  0  0  0  0  0  0  0  0
    8.7661   -5.3192   -6.2485 H   0  0  0  0  0  0  0  0  0  0  0  0
    7.4253   -5.1055   -5.1369 H   0  0  0  0  0  0  0  0  0  0  0  0
    7.5864   -4.2205   -8.0622 H   0  0  0  0  0  0  0  0  0  0  0  0
    7.5867   -3.1564   -6.6649 H   0  0  0  0  0  0  0  0  0  0  0  0
    4.2227    2.3723   -3.7236 H   0  0  0  0  0  0  0  0  0  0  0  0
    2.3976    6.0792   -1.5166 H   0  0  0  0  0  0  0  0  0  0  0  0
    2.2218    2.2517    1.9076 H   0  0  0  0  0  0  0  0  0  0  0  0
   -0.5329    4.0754    0.3092 H   0  0  0  0  0  0  0  0  0  0  0  0
   -3.6818    5.9555    2.9814 H   0  0  0  0  0  0  0  0  0  0  0  0
   -5.2244    5.9228    0.5809 H   0  0  0  0  0  0  0  0  0  0  0  0
   -5.0517    8.2906   -0.1511 H   0  0  0  0  0  0  0  0  0  0  0  0
   -3.7563    8.6129    1.0829 H   0  0  0  0  0  0  0  0  0  0  0  0
   -6.6454    7.6495    1.6918 H   0  0  0  0  0  0  0  0  0  0  0  0
   -5.3454    7.9793    2.9230 H   0  0  0  0  0  0  0  0  0  0  0  0
   -0.4492    4.0857    5.2639 H   0  0  0  0  0  0  0  0  0  0  0  0
  1  2  1  0  0  0  0
  1 41  1  0  0  0  0
  1 42  1  0  0  0  0
  1 43  1  0  0  0  0
  2  3  1  0  0  0  0
  2  4  1  0  0  0  0
  2 44  1  0  0  0  0
  3 45  1  0  0  0  0
  3 46  1  0  0  0  0
  3 47  1  0  0  0  0
  4  5  1  0  0  0  0
  4 40  2  0  0  0  0
  5  6  1  0  0  0  0
  5 19  2  0  0  0  0
  6  7  2  0  0  0  0
  6 18  1  0  0  0  0
  7  8  1  0  0  0  0
  8  9  2  0  0  0  0
  9 10  1  0  0  0  0
  9 18  1  0  0  0  0
 10 11  1  0  0  0  0
 11 12  1  0  0  0  0
 11 48  1  0  0  0  0
 11 49  1  0  0  0  0
 12 13  1  0  0  0  0
 12 17  1  0  0  0  0
 12 50  1  0  0  0  0
 13 14  1  0  0  0  0
 13 51  1  0  0  0  0
 13 52  1  0  0  0  0
 14 15  1  0  0  0  0
 14 53  1  0  0  0  0
 14 54  1  0  0  0  0
 15 16  1  0  0  0  0
 15 55  1  0  0  0  0
 16 17  1  0  0  0  0
 16 56  1  0  0  0  0
 16 57  1  0  0  0  0
 17 58  1  0  0  0  0
 17 59  1  0  0  0  0
 19 20  1  0  0  0  0
 19 60  1  0  0  0  0
 20 21  1  0  0  0  0
 20 40  1  0  0  0  0
 21 22  2  0  0  0  0
 22 23  1  0  0  0  0
 22 61  1  0  0  0  0
 23 24  2  0  0  0  0
 24 25  1  0  0  0  0
 24 40  1  0  0  0  0
 25 26  1  0  0  0  0
 25 62  1  0  0  0  0
 26 27  1  0  0  0  0
 26 38  2  0  0  0  0
 27 28  2  0  0  0  0
 27 63  1  0  0  0  0
 28 29  1  0  0  0  0
 28 35  1  0  0  0  0
 29 30  2  0  0  0  0
 29 31  1  0  0  0  0
 31 32  1  0  0  0  0
 31 64  1  0  0  0  0
 32 33  1  0  0  0  0
 32 34  1  0  0  0  0
 32 65  1  0  0  0  0
 33 34  1  0  0  0  0
 33 66  1  0  0  0  0
 33 67  1  0  0  0  0
 34 68  1  0  0  0  0
 34 69  1  0  0  0  0
 35 36  1  0  0  0  0
 35 37  2  0  0  0  0
 37 38  1  0  0  0  0
 37 70  1  0  0  0  0
 38 39  1  0  0  0  0
M  END
$$$$
