CHEMBL498348
 OpenBabel04072215383D

 58 62  0  0  0  0  0  0  0  0999 V2000
    2.0706   -1.1473   -1.0432 C   0  0  0  0  0  0  0  0  0  0  0  0
    0.9123   -0.3249   -0.7143 N   0  0  0  0  0  0  0  0  0  0  0  0
   -0.2792   -0.7777   -1.4738 C   0  0  0  0  0  0  0  0  0  0  0  0
   -1.5439    0.0467   -1.1341 C   0  0  0  0  0  0  0  0  0  0  0  0
   -1.7768   -0.0381    0.3118 N   0  0  0  0  0  0  0  0  0  0  0  0
   -3.0489   -0.0213    0.8517 C   0  0  0  0  0  0  0  0  0  0  0  0
   -3.2750   -0.6597    2.0849 C   0  0  0  0  0  0  0  0  0  0  0  0
   -4.5301   -0.7195    2.7029 C   0  0  0  0  0  0  0  0  0  0  0  0
   -5.5739   -0.1174    2.0126 C   0  0  0  0  0  0  0  0  0  0  0  0
   -6.8998    0.0345    2.3106 N   0  0  0  0  0  0  0  0  0  0  0  0
   -7.5117    0.6658    1.2544 C   0  0  0  0  0  0  0  0  0  0  0  0
   -8.9226    0.8862    1.2803 C   0  0  0  0  0  0  0  0  0  0  0  0
   -9.5994    0.9498    0.1074 C   0  0  0  0  0  0  0  0  0  0  0  0
   -9.0300    0.6916   -1.1389 N   0  0  0  0  0  0  0  0  0  0  0  0
  -11.0365    1.3374    0.1317 C   0  0  0  0  0  0  0  0  0  0  0  0
  -11.7894    1.5226   -1.0230 C   0  0  0  0  0  0  0  0  0  0  0  0
  -13.1077    1.9935   -0.9605 C   0  0  0  0  0  0  0  0  0  0  0  0
  -13.7295    2.1510   -2.1399 F   0  0  0  0  0  0  0  0  0  0  0  0
  -13.7681    2.2726    0.2532 C   0  0  0  0  0  0  0  0  0  0  0  0
  -15.0472    2.8103    0.3315 N   0  0  0  0  0  0  0  0  0  0  0  0
  -15.9456    2.5421    1.4502 C   0  0  0  0  0  0  0  0  0  0  0  0
  -15.6889    3.4897   -0.7943 C   0  0  0  0  0  0  0  0  0  0  0  0
  -13.0108    2.0119    1.4122 C   0  0  0  0  0  0  0  0  0  0  0  0
  -11.6712    1.5779    1.3560 C   0  0  0  0  0  0  0  0  0  0  0  0
  -10.9565    1.4093    2.5425 N   0  0  0  0  0  0  0  0  0  0  0  0
   -9.6342    1.0640    2.5876 C   0  0  0  0  0  0  0  0  0  0  0  0
   -9.0703    0.8932    3.6684 O   0  0  0  0  0  0  0  0  0  0  0  0
   -6.6258    0.9568    0.3155 N   0  0  0  0  0  0  0  0  0  0  0  0
   -5.4242    0.4969    0.7794 C   0  0  0  0  0  0  0  0  0  0  0  0
   -4.1472    0.5490    0.1891 C   0  0  0  0  0  0  0  0  0  0  0  0
   -0.6379    0.4210    1.1245 C   0  0  0  0  0  0  0  0  0  0  0  0
    0.6182   -0.3914    0.7382 C   0  0  0  0  0  0  0  0  0  0  0  0
    2.3011   -1.0689   -2.1115 H   0  0  0  0  0  0  0  0  0  0  0  0
    1.9169   -2.2047   -0.7996 H   0  0  0  0  0  0  0  0  0  0  0  0
    2.9554   -0.7934   -0.5028 H   0  0  0  0  0  0  0  0  0  0  0  0
   -0.4845   -1.8355   -1.2529 H   0  0  0  0  0  0  0  0  0  0  0  0
   -0.0894   -0.6980   -2.5498 H   0  0  0  0  0  0  0  0  0  0  0  0
   -2.3825   -0.3742   -1.7011 H   0  0  0  0  0  0  0  0  0  0  0  0
   -1.4135    1.0920   -1.4416 H   0  0  0  0  0  0  0  0  0  0  0  0
   -2.4482   -1.1697    2.5755 H   0  0  0  0  0  0  0  0  0  0  0  0
   -4.6688   -1.2278    3.6479 H   0  0  0  0  0  0  0  0  0  0  0  0
   -7.3610   -0.2450    3.1680 H   0  0  0  0  0  0  0  0  0  0  0  0
   -7.9998    0.7213   -1.0807 H   0  0  0  0  0  0  0  0  0  0  0  0
   -9.3419    1.3024   -1.8815 H   0  0  0  0  0  0  0  0  0  0  0  0
  -11.3868    1.3278   -2.0112 H   0  0  0  0  0  0  0  0  0  0  0  0
  -15.5092    1.9536    2.2596 H   0  0  0  0  0  0  0  0  0  0  0  0
  -16.8202    1.9861    1.0926 H   0  0  0  0  0  0  0  0  0  0  0  0
  -16.3012    3.4890    1.8715 H   0  0  0  0  0  0  0  0  0  0  0  0
  -15.0297    3.7317   -1.6297 H   0  0  0  0  0  0  0  0  0  0  0  0
  -16.0889    4.4507   -0.4494 H   0  0  0  0  0  0  0  0  0  0  0  0
  -16.5290    2.8943   -1.1683 H   0  0  0  0  0  0  0  0  0  0  0  0
  -13.4364    2.2049    2.3916 H   0  0  0  0  0  0  0  0  0  0  0  0
  -11.4075    1.5478    3.4363 H   0  0  0  0  0  0  0  0  0  0  0  0
   -4.0399    1.0516   -0.7649 H   0  0  0  0  0  0  0  0  0  0  0  0
   -0.8104    0.3060    2.2009 H   0  0  0  0  0  0  0  0  0  0  0  0
   -0.4647    1.4910    0.9464 H   0  0  0  0  0  0  0  0  0  0  0  0
    0.4627   -1.4351    1.0449 H   0  0  0  0  0  0  0  0  0  0  0  0
    1.4718   -0.0052    1.3070 H   0  0  0  0  0  0  0  0  0  0  0  0
  1  2  1  0  0  0  0
  1 33  1  0  0  0  0
  1 34  1  0  0  0  0
  1 35  1  0  0  0  0
  2  3  1  0  0  0  0
  2 32  1  0  0  0  0
  3  4  1  0  0  0  0
  3 36  1  0  0  0  0
  3 37  1  0  0  0  0
  4  5  1  0  0  0  0
  4 38  1  0  0  0  0
  4 39  1  0  0  0  0
  5  6  1  0  0  0  0
  5 31  1  0  0  0  0
  6  7  1  0  0  0  0
  6 30  2  0  0  0  0
  7  8  2  0  0  0  0
  7 40  1  0  0  0  0
  8  9  1  0  0  0  0
  8 41  1  0  0  0  0
  9 10  1  0  0  0  0
  9 29  2  0  0  0  0
 10 11  1  0  0  0  0
 10 42  1  0  0  0  0
 11 12  1  0  0  0  0
 11 28  2  0  0  0  0
 12 13  2  0  0  0  0
 12 26  1  0  0  0  0
 13 14  1  0  0  0  0
 13 15  1  0  0  0  0
 14 43  1  0  0  0  0
 14 44  1  0  0  0  0
 15 16  1  0  0  0  0
 15 24  2  0  0  0  0
 16 17  2  0  0  0  0
 16 45  1  0  0  0  0
 17 18  1  0  0  0  0
 17 19  1  0  0  0  0
 19 20  1  0  0  0  0
 19 23  2  0  0  0  0
 20 21  1  0  0  0  0
 20 22  1  0  0  0  0
 21 46  1  0  0  0  0
 21 47  1  0  0  0  0
 21 48  1  0  0  0  0
 22 49  1  0  0  0  0
 22 50  1  0  0  0  0
 22 51  1  0  0  0  0
 23 24  1  0  0  0  0
 23 52  1  0  0  0  0
 24 25  1  0  0  0  0
 25 26  1  0  0  0  0
 25 53  1  0  0  0  0
 26 27  2  0  0  0  0
 28 29  1  0  0  0  0
 29 30  1  0  0  0  0
 30 54  1  0  0  0  0
 31 32  1  0  0  0  0
 31 55  1  0  0  0  0
 31 56  1  0  0  0  0
 32 57  1  0  0  0  0
 32 58  1  0  0  0  0
M  END
$$$$
