CHEMBL3908877
 OpenBabel04072215373D

 53 55  0  0  0  0  0  0  0  0999 V2000
    1.5551    4.6088   -2.7538 C   0  0  0  0  0  0  0  0  0  0  0  0
    2.8965    4.1013   -2.7535 O   0  0  0  0  0  0  0  0  0  0  0  0
    3.1076    2.7966   -2.5536 C   0  0  0  0  0  0  0  0  0  0  0  0
    2.3329    1.9857   -1.8208 C   0  0  0  0  0  0  0  0  0  0  0  0
    2.8563    0.8074   -1.3383 C   0  0  0  0  0  0  0  0  0  0  0  0
    2.1351    0.0195   -0.5389 O   0  0  0  0  0  0  0  0  0  0  0  0
    2.3062   -1.3486   -0.5116 C   0  0  0  0  0  0  0  0  0  0  0  0
    4.1393    0.4535   -1.7167 C   0  0  0  0  0  0  0  0  0  0  0  0
    4.8206    1.2078   -2.6432 C   0  0  0  0  0  0  0  0  0  0  0  0
    6.0538    0.7662   -3.2336 N   0  0  0  0  0  0  0  0  0  0  0  0
    6.6819   -0.5203   -2.8996 C   0  0  0  0  0  0  0  0  0  0  0  0
    7.6462   -0.4849   -1.7595 C   0  0  0  0  0  0  0  0  0  0  0  0
    8.7834    0.3316   -1.8178 N   0  0  0  0  0  0  0  0  0  0  0  0
    6.8420    1.7251   -3.9901 C   0  0  0  0  0  0  0  0  0  0  0  0
    7.5711    1.1675   -4.9976 C   0  0  0  0  0  0  0  0  0  0  0  0
    8.2996    1.8596   -5.7470 C   0  0  0  0  0  0  0  0  0  0  0  0
    8.4574    3.0745   -5.6204 C   0  0  0  0  0  0  0  0  0  0  0  0
    9.3324    3.2745   -6.3553 N   0  0  0  0  0  0  0  0  0  0  0  0
   10.1493    3.4228   -7.0556 C   0  0  0  0  0  0  0  0  0  0  0  0
   10.3522    4.6535   -7.1806 C   0  0  0  0  0  0  0  0  0  0  0  0
   11.8237    4.4372   -8.6966 C   0  0  0  0  0  0  0  0  0  0  0  0
   12.3018    3.5918   -9.8423 C   0  0  0  0  0  0  0  0  0  0  0  0
   13.2197    4.2720  -10.7231 N   0  0  0  0  0  0  0  0  0  0  0  0
   13.4018    5.4952  -10.2667 N   0  0  0  0  0  0  0  0  0  0  0  0
   12.5829    5.6209   -9.1030 C   0  0  0  0  0  0  0  0  0  0  0  0
    9.1230    5.2714   -5.7722 N   0  0  0  0  0  0  0  0  0  0  0  0
    8.1161    4.0953   -4.9134 C   0  0  0  0  0  0  0  0  0  0  0  0
    7.0297    3.2328   -3.8070 C   0  0  0  0  0  0  0  0  0  0  0  0
    4.2494    2.4106   -2.8986 C   0  0  0  0  0  0  0  0  0  0  0  0
    1.3732    0.8343    1.8648 Cl  0  0  0  0  0  0  0  0  0  0  0  0
    1.5498    5.7115   -3.4104 H   0  0  0  0  0  0  0  0  0  0  0  0
    1.1531    5.0823   -2.0219 H   0  0  0  0  0  0  0  0  0  0  0  0
    0.6920    3.8498   -3.2158 H   0  0  0  0  0  0  0  0  0  0  0  0
    1.3963    2.3043   -1.5077 H   0  0  0  0  0  0  0  0  0  0  0  0
    1.6567   -1.8219    0.2253 H   0  0  0  0  0  0  0  0  0  0  0  0
    3.3574   -1.6082   -0.2724 H   0  0  0  0  0  0  0  0  0  0  0  0
    2.0721   -1.7634   -1.5087 H   0  0  0  0  0  0  0  0  0  0  0  0
    4.6094   -0.3942   -1.3240 H   0  0  0  0  0  0  0  0  0  0  0  0
    7.2639   -0.9191   -3.7341 H   0  0  0  0  0  0  0  0  0  0  0  0
    5.8921   -1.1814   -2.5943 H   0  0  0  0  0  0  0  0  0  0  0  0
    8.0984   -1.5595   -1.8250 H   0  0  0  0  0  0  0  0  0  0  0  0
    7.0441   -0.0846   -0.8452 H   0  0  0  0  0  0  0  0  0  0  0  0
    9.3068   -0.0763   -2.6076 H   0  0  0  0  0  0  0  0  0  0  0  0
    9.3188    0.1380   -0.9265 H   0  0  0  0  0  0  0  0  0  0  0  0
    7.6277    0.1587   -5.2341 H   0  0  0  0  0  0  0  0  0  0  0  0
    8.8643    1.4295   -6.5695 H   0  0  0  0  0  0  0  0  0  0  0  0
   10.4831    2.5354   -7.5112 H   0  0  0  0  0  0  0  0  0  0  0  0
   11.9747    2.6875  -10.1847 H   0  0  0  0  0  0  0  0  0  0  0  0
   14.0728    6.2215  -10.7285 H   0  0  0  0  0  0  0  0  0  0  0  0
   12.5560    6.6539   -8.7221 H   0  0  0  0  0  0  0  0  0  0  0  0
    6.4824    3.4387   -2.8053 H   0  0  0  0  0  0  0  0  0  0  0  0
    4.6090    3.2150   -3.2970 H   0  0  0  0  0  0  0  0  0  0  0  0
    1.7666    0.2445    1.1444 H   0  0  0  0  0  0  0  0  0  0  0  0
  1  2  1  0  0  0  0
  1 31  1  0  0  0  0
  1 32  1  0  0  0  0
  1 33  1  0  0  0  0
  2  3  1  0  0  0  0
  3  4  1  0  0  0  0
  3 29  2  0  0  0  0
  4  5  2  0  0  0  0
  4 34  1  0  0  0  0
  5  6  1  0  0  0  0
  5  8  1  0  0  0  0
  6  7  1  0  0  0  0
  7 35  1  0  0  0  0
  7 36  1  0  0  0  0
  7 37  1  0  0  0  0
  8  9  2  0  0  0  0
  8 38  1  0  0  0  0
  9 10  1  0  0  0  0
  9 29  1  0  0  0  0
 10 11  1  0  0  0  0
 10 14  1  0  0  0  0
 11 12  1  0  0  0  0
 11 39  1  0  0  0  0
 11 40  1  0  0  0  0
 12 13  1  0  0  0  0
 12 41  1  0  0  0  0
 12 42  1  0  0  0  0
 13 43  1  0  0  0  0
 13 44  1  0  0  0  0
 14 15  1  0  0  0  0
 14 28  2  0  0  0  0
 15 16  2  0  0  0  0
 15 45  1  0  0  0  0
 16 17  1  0  0  0  0
 16 46  1  0  0  0  0
 17 18  1  0  0  0  0
 17 27  2  0  0  0  0
 18 19  2  0  0  0  0
 19 20  1  0  0  0  0
 19 47  1  0  0  0  0
 20 21  1  0  0  0  0
 20 26  2  0  0  0  0
 21 22  1  0  0  0  0
 21 25  2  0  0  0  0
 22 23  2  0  0  0  0
 22 48  1  0  0  0  0
 23 24  1  0  0  0  0
 24 25  1  0  0  0  0
 24 49  1  0  0  0  0
 25 50  1  0  0  0  0
 26 27  1  0  0  0  0
 27 28  1  0  0  0  0
 28 51  1  0  0  0  0
 29 52  1  0  0  0  0
 30 53  1  0  0  0  0
M  END
$$$$
