CHEMBL3947643
 OpenBabel04072215373D

 53 57  0  0  1  0  0  0  0  0999 V2000
   -2.6664    2.7018   -5.4370 C   0  0  0  0  0  0  0  0  0  0  0  0
   -1.6889    2.2122   -4.5160 O   0  0  0  0  0  0  0  0  0  0  0  0
   -0.3775    2.3605   -4.9027 C   0  0  0  0  0  0  0  0  0  0  0  0
   -0.0169    3.0011   -6.0902 C   0  0  0  0  0  0  0  0  0  0  0  0
    1.3297    3.1347   -6.4723 C   0  0  0  0  0  0  0  0  0  0  0  0
    1.7481    3.8153   -7.6278 C   0  0  0  0  0  0  0  0  0  0  0  0
    0.7952    4.5236   -8.4254 N   0  0  0  0  0  0  0  0  0  0  0  0
    1.0432    4.9365   -9.7510 C   0  0  0  0  0  0  0  0  0  0  0  0
    1.6151    4.0446  -10.6684 C   0  0  0  0  0  0  0  0  0  0  0  0
    1.9879    4.4618  -11.9448 C   0  0  0  0  0  0  0  0  0  0  0  0
    1.7755    5.7846  -12.3326 C   0  0  0  0  0  0  0  0  0  0  0  0
    2.4268    6.3085  -14.0359 Br  0  0  0  0  0  0  0  0  0  0  0  0
    1.1332    6.6673  -11.4559 C   0  0  0  0  0  0  0  0  0  0  0  0
    0.8113    8.3153  -11.8732 Cl  0  0  0  0  0  0  0  0  0  0  0  0
    0.7533    6.2380  -10.1745 C   0  0  0  0  0  0  0  0  0  0  0  0
    3.0404    3.8595   -7.9812 N   0  0  0  0  0  0  0  0  0  0  0  0
    3.9085    3.2394   -7.1745 C   0  0  0  0  0  0  0  0  0  0  0  0
    3.6122    2.5905   -6.0411 N   0  0  0  0  0  0  0  0  0  0  0  0
    2.3257    2.5417   -5.6980 C   0  0  0  0  0  0  0  0  0  0  0  0
    1.9613    1.8954   -4.5177 C   0  0  0  0  0  0  0  0  0  0  0  0
    0.6305    1.8211   -4.0797 C   0  0  0  0  0  0  0  0  0  0  0  0
    0.2656    1.3072   -2.8552 O   0  0  0  0  0  0  0  0  0  0  0  0
    1.0814    0.2593   -2.2898 C   0  0  1  0  0  0  0  0  0  0  0  0
    2.2125    0.7942   -1.4083 C   0  0  0  0  0  0  0  0  0  0  0  0
    1.6830    0.9835   -0.0821 O   0  0  0  0  0  0  0  0  0  0  0  0
    0.6409    0.0154    0.0987 C   0  0  2  0  0  0  0  0  0  0  0  0
    1.1720   -1.2034    0.8509 C   0  0  1  0  0  0  0  0  0  0  0  0
    0.7309   -1.2818    2.6230 S   0  0  0  0  0  0  0  0  0  0  0  0
    1.5308    0.2390    3.1967 C   0  0  0  0  0  0  0  0  0  0  0  0
    0.5664   -2.3565    0.0735 C   0  0  0  0  0  0  0  0  0  0  0  0
    0.5666   -1.9190   -1.2950 O   0  0  0  0  0  0  0  0  0  0  0  0
    0.2427   -0.5153   -1.2789 C   0  0  2  0  0  0  0  0  0  0  0  0
   -3.6568    2.3730   -5.1169 H   0  0  0  0  0  0  0  0  0  0  0  0
   -2.5137    2.2982   -6.4459 H   0  0  0  0  0  0  0  0  0  0  0  0
   -2.6562    3.7993   -5.4534 H   0  0  0  0  0  0  0  0  0  0  0  0
   -0.7620    3.4068   -6.7629 H   0  0  0  0  0  0  0  0  0  0  0  0
    0.3692    5.2503   -7.8565 H   0  0  0  0  0  0  0  0  0  0  0  0
    1.8084    3.0158  -10.3713 H   0  0  0  0  0  0  0  0  0  0  0  0
    2.4715    3.7528  -12.6106 H   0  0  0  0  0  0  0  0  0  0  0  0
    0.2748    6.9429   -9.4999 H   0  0  0  0  0  0  0  0  0  0  0  0
    4.9528    3.2706   -7.4676 H   0  0  0  0  0  0  0  0  0  0  0  0
    2.7694    1.4699   -3.9375 H   0  0  0  0  0  0  0  0  0  0  0  0
    1.4543   -0.3965   -3.0857 H   0  0  0  0  0  0  0  0  0  0  0  0
    2.6256    1.7478   -1.7357 H   0  0  0  0  0  0  0  0  0  0  0  0
    3.0275    0.0711   -1.3282 H   0  0  0  0  0  0  0  0  0  0  0  0
   -0.1986    0.5101    0.5975 H   0  0  0  0  0  0  0  0  0  0  0  0
    2.2661   -1.2544    0.7785 H   0  0  0  0  0  0  0  0  0  0  0  0
    1.3898    0.3250    4.2779 H   0  0  0  0  0  0  0  0  0  0  0  0
    1.0795    1.1149    2.7255 H   0  0  0  0  0  0  0  0  0  0  0  0
    2.6036    0.2138    2.9892 H   0  0  0  0  0  0  0  0  0  0  0  0
   -0.4701   -2.5705    0.3607 H   0  0  0  0  0  0  0  0  0  0  0  0
    1.1532   -3.2765    0.1551 H   0  0  0  0  0  0  0  0  0  0  0  0
   -0.8362   -0.4159   -1.4449 H   0  0  0  0  0  0  0  0  0  0  0  0
  1  2  1  0  0  0  0
  1 33  1  0  0  0  0
  1 34  1  0  0  0  0
  1 35  1  0  0  0  0
  2  3  1  0  0  0  0
  3  4  1  0  0  0  0
  3 21  2  0  0  0  0
  4  5  2  0  0  0  0
  4 36  1  0  0  0  0
  5  6  1  0  0  0  0
  5 19  1  0  0  0  0
  6  7  1  0  0  0  0
  6 16  2  0  0  0  0
  7  8  1  0  0  0  0
  7 37  1  0  0  0  0
  8  9  1  0  0  0  0
  8 15  2  0  0  0  0
  9 10  2  0  0  0  0
  9 38  1  0  0  0  0
 10 11  1  0  0  0  0
 10 39  1  0  0  0  0
 11 12  1  0  0  0  0
 11 13  2  0  0  0  0
 13 14  1  0  0  0  0
 13 15  1  0  0  0  0
 15 40  1  0  0  0  0
 16 17  1  0  0  0  0
 17 18  2  0  0  0  0
 17 41  1  0  0  0  0
 18 19  1  0  0  0  0
 19 20  2  0  0  0  0
 20 21  1  0  0  0  0
 20 42  1  0  0  0  0
 21 22  1  0  0  0  0
 23 24  1  0  0  0  0
 23 32  1  0  0  0  0
 23 22  1  0  0  0  0
 23 43  1  6  0  0  0
 24 25  1  0  0  0  0
 24 44  1  0  0  0  0
 24 45  1  0  0  0  0
 25 26  1  0  0  0  0
 26 27  1  0  0  0  0
 26 32  1  0  0  0  0
 26 46  1  1  0  0  0
 27 28  1  0  0  0  0
 27 30  1  0  0  0  0
 27 47  1  6  0  0  0
 28 29  1  0  0  0  0
 29 48  1  0  0  0  0
 29 49  1  0  0  0  0
 29 50  1  0  0  0  0
 30 31  1  0  0  0  0
 30 51  1  0  0  0  0
 30 52  1  0  0  0  0
 31 32  1  0  0  0  0
 32 53  1  6  0  0  0
M  END
$$$$
