CHEMBL366359
 OpenBabel04072215373D

 42 45  0  0  0  0  0  0  0  0999 V2000
    2.8841   -1.2754   -0.4095 C   0  0  0  0  0  0  0  0  0  0  0  0
    2.4955    0.0575    0.0070 N   0  0  0  0  0  0  0  0  0  0  0  0
    1.3220    0.2501    0.8367 C   0  0  0  0  0  0  0  0  0  0  0  0
    1.6714    0.5285    2.2861 C   0  0  0  0  0  0  0  0  0  0  0  0
    0.8553    1.3818    3.0433 C   0  0  0  0  0  0  0  0  0  0  0  0
    1.1338    1.6244    4.3920 C   0  0  0  0  0  0  0  0  0  0  0  0
    2.2291    1.0201    5.0000 C   0  0  0  0  0  0  0  0  0  0  0  0
    3.0415    0.1587    4.2666 C   0  0  0  0  0  0  0  0  0  0  0  0
    2.7588   -0.0901    2.9224 C   0  0  0  0  0  0  0  0  0  0  0  0
    3.1393    1.1383   -0.5535 C   0  0  0  0  0  0  0  0  0  0  0  0
    2.7489    2.3680   -0.2412 N   0  0  0  0  0  0  0  0  0  0  0  0
    3.4779    3.3226   -0.7866 C   0  0  0  0  0  0  0  0  0  0  0  0
    3.0849    4.5853   -0.4655 O   0  0  0  0  0  0  0  0  0  0  0  0
    4.5146    3.2034   -1.5934 N   0  0  0  0  0  0  0  0  0  0  0  0
    4.8007    1.9470   -1.8770 C   0  0  0  0  0  0  0  0  0  0  0  0
    5.9048    1.7429   -2.7072 N   0  0  0  0  0  0  0  0  0  0  0  0
    6.1517    0.7197   -3.6391 C   0  0  0  0  0  0  0  0  0  0  0  0
    7.4666    0.5236   -4.0734 C   0  0  0  0  0  0  0  0  0  0  0  0
    7.7903   -0.4256   -5.0489 C   0  0  0  0  0  0  0  0  0  0  0  0
    6.7588   -1.2276   -5.5547 C   0  0  0  0  0  0  0  0  0  0  0  0
    6.8335   -2.4658   -6.7502 S   0  0  0  0  0  0  0  0  0  0  0  0
    5.1809   -2.8134   -6.4741 C   0  0  0  0  0  0  0  0  0  0  0  0
    4.5483   -2.0239   -5.6370 N   0  0  0  0  0  0  0  0  0  0  0  0
    5.4446   -1.1117   -5.0976 C   0  0  0  0  0  0  0  0  0  0  0  0
    5.1440   -0.1178   -4.1411 C   0  0  0  0  0  0  0  0  0  0  0  0
    4.1452    0.9002   -1.3894 N   0  0  0  0  0  0  0  0  0  0  0  0
    2.4421   -2.0373    0.2429 H   0  0  0  0  0  0  0  0  0  0  0  0
    3.9707   -1.4151   -0.3503 H   0  0  0  0  0  0  0  0  0  0  0  0
    2.5533   -1.4767   -1.4336 H   0  0  0  0  0  0  0  0  0  0  0  0
    0.6868   -0.6454    0.8129 H   0  0  0  0  0  0  0  0  0  0  0  0
    0.6957    1.0590    0.4357 H   0  0  0  0  0  0  0  0  0  0  0  0
   -0.0081    1.8639    2.5893 H   0  0  0  0  0  0  0  0  0  0  0  0
    0.4955    2.2952    4.9665 H   0  0  0  0  0  0  0  0  0  0  0  0
    2.4497    1.2128    6.0471 H   0  0  0  0  0  0  0  0  0  0  0  0
    3.8942   -0.3222    4.7396 H   0  0  0  0  0  0  0  0  0  0  0  0
    3.4032   -0.7693    2.3725 H   0  0  0  0  0  0  0  0  0  0  0  0
    2.3507    4.3711    0.1332 H   0  0  0  0  0  0  0  0  0  0  0  0
    6.2845    2.6437   -2.9709 H   0  0  0  0  0  0  0  0  0  0  0  0
    8.2706    1.1118   -3.6338 H   0  0  0  0  0  0  0  0  0  0  0  0
    8.8142   -0.5484   -5.3867 H   0  0  0  0  0  0  0  0  0  0  0  0
    4.6910   -3.6417   -6.9686 H   0  0  0  0  0  0  0  0  0  0  0  0
    4.1121   -0.0142   -3.8220 H   0  0  0  0  0  0  0  0  0  0  0  0
  1  2  1  0  0  0  0
  1 27  1  0  0  0  0
  1 28  1  0  0  0  0
  1 29  1  0  0  0  0
  2  3  1  0  0  0  0
  2 10  1  0  0  0  0
  3  4  1  0  0  0  0
  3 30  1  0  0  0  0
  3 31  1  0  0  0  0
  4  5  1  0  0  0  0
  4  9  2  0  0  0  0
  5  6  2  0  0  0  0
  5 32  1  0  0  0  0
  6  7  1  0  0  0  0
  6 33  1  0  0  0  0
  7  8  2  0  0  0  0
  7 34  1  0  0  0  0
  8  9  1  0  0  0  0
  8 35  1  0  0  0  0
  9 36  1  0  0  0  0
 10 11  1  0  0  0  0
 10 26  2  0  0  0  0
 11 12  2  0  0  0  0
 12 13  1  0  0  0  0
 12 14  1  0  0  0  0
 13 37  1  0  0  0  0
 14 15  2  0  0  0  0
 15 16  1  0  0  0  0
 15 26  1  0  0  0  0
 16 17  1  0  0  0  0
 16 38  1  0  0  0  0
 17 18  1  0  0  0  0
 17 25  2  0  0  0  0
 18 19  2  0  0  0  0
 18 39  1  0  0  0  0
 19 20  1  0  0  0  0
 19 40  1  0  0  0  0
 20 21  1  0  0  0  0
 20 24  2  0  0  0  0
 21 22  1  0  0  0  0
 22 23  2  0  0  0  0
 22 41  1  0  0  0  0
 23 24  1  0  0  0  0
 24 25  1  0  0  0  0
 25 42  1  0  0  0  0
M  END
$$$$
