CHEMBL178899
 OpenBabel04072215363D

 39 41  0  0  0  0  0  0  0  0999 V2000
    1.1532    0.5409   -2.5633 C   0  0  0  0  0  0  0  0  0  0  0  0
    2.5703    0.4491   -2.4326 O   0  0  0  0  0  0  0  0  0  0  0  0
    2.9942   -0.1791   -1.2971 C   0  0  0  0  0  0  0  0  0  0  0  0
    2.2440   -0.6459   -0.4478 O   0  0  0  0  0  0  0  0  0  0  0  0
    4.4518   -0.2373   -1.2024 C   0  0  0  0  0  0  0  0  0  0  0  0
    5.3264    0.3133   -2.1192 C   0  0  0  0  0  0  0  0  0  0  0  0
    6.6021    0.0769   -1.7063 N   0  0  0  0  0  0  0  0  0  0  0  0
    7.6913    0.4872   -2.3675 N   0  0  0  0  0  0  0  0  0  0  0  0
    8.8008    0.1387   -1.8065 C   0  0  0  0  0  0  0  0  0  0  0  0
    8.9394   -0.5912   -0.6617 N   0  0  0  0  0  0  0  0  0  0  0  0
    7.8888   -0.9933   -0.0003 C   0  0  0  0  0  0  0  0  0  0  0  0
    8.0565   -1.7024    1.1688 N   0  0  0  0  0  0  0  0  0  0  0  0
    9.0917   -2.6108    1.4592 C   0  0  0  0  0  0  0  0  0  0  0  0
    9.8554   -3.2300    0.4660 C   0  0  0  0  0  0  0  0  0  0  0  0
   10.8857   -4.1142    0.7968 C   0  0  0  0  0  0  0  0  0  0  0  0
   11.1991   -4.3872    2.1370 C   0  0  0  0  0  0  0  0  0  0  0  0
   12.3177   -5.3333    2.4622 C   0  0  0  0  0  0  0  0  0  0  0  0
   12.8976   -5.9119    1.3756 F   0  0  0  0  0  0  0  0  0  0  0  0
   13.3249   -4.7269    3.1499 F   0  0  0  0  0  0  0  0  0  0  0  0
   11.9067   -6.3589    3.2601 F   0  0  0  0  0  0  0  0  0  0  0  0
   10.4505   -3.7505    3.1306 C   0  0  0  0  0  0  0  0  0  0  0  0
   10.6600   -3.9232    4.4706 O   0  0  0  0  0  0  0  0  0  0  0  0
    9.4133   -2.8739    2.7961 C   0  0  0  0  0  0  0  0  0  0  0  0
    6.5948   -0.6360   -0.5373 C   0  0  0  0  0  0  0  0  0  0  0  0
    5.2626   -0.8609   -0.1829 C   0  0  0  0  0  0  0  0  0  0  0  0
    4.6830   -1.5898    0.9837 C   0  0  0  0  0  0  0  0  0  0  0  0
    0.9326    0.9296   -3.5613 H   0  0  0  0  0  0  0  0  0  0  0  0
    0.7541    1.2390   -1.8216 H   0  0  0  0  0  0  0  0  0  0  0  0
    0.6830   -0.4426   -2.4663 H   0  0  0  0  0  0  0  0  0  0  0  0
    5.1489    0.8584   -3.0343 H   0  0  0  0  0  0  0  0  0  0  0  0
    9.7422    0.4529   -2.2887 H   0  0  0  0  0  0  0  0  0  0  0  0
    7.2683   -1.7940    1.7874 H   0  0  0  0  0  0  0  0  0  0  0  0
    9.6419   -3.0542   -0.5859 H   0  0  0  0  0  0  0  0  0  0  0  0
   11.4423   -4.5900   -0.0100 H   0  0  0  0  0  0  0  0  0  0  0  0
   11.3774   -4.5545    4.6501 H   0  0  0  0  0  0  0  0  0  0  0  0
    8.8681   -2.3799    3.5975 H   0  0  0  0  0  0  0  0  0  0  0  0
    5.4221   -2.0547    1.6313 H   0  0  0  0  0  0  0  0  0  0  0  0
    4.0244   -2.3919    0.6346 H   0  0  0  0  0  0  0  0  0  0  0  0
    4.0939   -0.9024    1.6000 H   0  0  0  0  0  0  0  0  0  0  0  0
  1  2  1  0  0  0  0
  1 27  1  0  0  0  0
  1 28  1  0  0  0  0
  1 29  1  0  0  0  0
  2  3  1  0  0  0  0
  3  4  2  0  0  0  0
  3  5  1  0  0  0  0
  5  6  2  0  0  0  0
  5 25  1  0  0  0  0
  6  7  1  0  0  0  0
  6 30  1  0  0  0  0
  7  8  1  0  0  0  0
  7 24  1  0  0  0  0
  8  9  2  0  0  0  0
  9 10  1  0  0  0  0
  9 31  1  0  0  0  0
 10 11  2  0  0  0  0
 11 12  1  0  0  0  0
 11 24  1  0  0  0  0
 12 13  1  0  0  0  0
 12 32  1  0  0  0  0
 13 14  1  0  0  0  0
 13 23  2  0  0  0  0
 14 15  2  0  0  0  0
 14 33  1  0  0  0  0
 15 16  1  0  0  0  0
 15 34  1  0  0  0  0
 16 17  1  0  0  0  0
 16 21  2  0  0  0  0
 17 18  1  0  0  0  0
 17 19  1  0  0  0  0
 17 20  1  0  0  0  0
 21 22  1  0  0  0  0
 21 23  1  0  0  0  0
 22 35  1  0  0  0  0
 23 36  1  0  0  0  0
 24 25  2  0  0  0  0
 25 26  1  0  0  0  0
 26 37  1  0  0  0  0
 26 38  1  0  0  0  0
 26 39  1  0  0  0  0
M  END
$$$$
