CHEMBL272251
 OpenBabel04072215363D

 52 55  0  0  0  0  0  0  0  0999 V2000
    0.7947    1.5065   -1.5281 C   0  0  0  0  0  0  0  0  0  0  0  0
    2.1987    1.3455   -1.6845 O   0  0  0  0  0  0  0  0  0  0  0  0
    2.9005    1.6579   -0.4766 C   0  0  0  0  0  0  0  0  0  0  0  0
    4.3868    1.3739   -0.6772 C   0  0  0  0  0  0  0  0  0  0  0  0
    4.9813    2.1981   -1.7193 N   0  0  0  0  0  0  0  0  0  0  0  0
    6.3460    2.1415   -1.9302 C   0  0  0  0  0  0  0  0  0  0  0  0
    7.0941    1.5093   -1.1896 O   0  0  0  0  0  0  0  0  0  0  0  0
    6.8909    2.9075   -3.0962 C   0  0  0  0  0  0  0  0  0  0  0  0
    6.3138    4.1560   -3.3830 C   0  0  0  0  0  0  0  0  0  0  0  0
    6.8618    4.9716   -4.3677 C   0  0  0  0  0  0  0  0  0  0  0  0
    8.0034    4.5613   -5.0560 C   0  0  0  0  0  0  0  0  0  0  0  0
    8.6050    3.3185   -4.7958 C   0  0  0  0  0  0  0  0  0  0  0  0
    9.7803    2.9382   -5.4823 C   0  0  0  0  0  0  0  0  0  0  0  0
   10.3930    1.7083   -5.2393 C   0  0  0  0  0  0  0  0  0  0  0  0
   11.5692    1.4437   -5.9184 O   0  0  0  0  0  0  0  0  0  0  0  0
   12.5373    0.6748   -5.2871 C   0  0  0  0  0  0  0  0  0  0  0  0
   12.8084    0.8155   -3.9275 C   0  0  0  0  0  0  0  0  0  0  0  0
   13.7198   -0.0463   -3.3585 C   0  0  0  0  0  0  0  0  0  0  0  0
   14.4011   -0.9794   -4.0504 N   0  0  0  0  0  0  0  0  0  0  0  0
   14.2026   -1.0618   -5.3761 C   0  0  0  0  0  0  0  0  0  0  0  0
   14.9329   -2.0017   -6.0892 C   0  0  0  0  0  0  0  0  0  0  0  0
   14.8119   -2.1501   -7.4722 C   0  0  0  0  0  0  0  0  0  0  0  0
   15.6070   -3.1249   -8.0100 O   0  0  0  0  0  0  0  0  0  0  0  0
   15.4893   -3.3635   -9.4067 C   0  0  0  0  0  0  0  0  0  0  0  0
   13.9351   -1.3247   -8.1664 C   0  0  0  0  0  0  0  0  0  0  0  0
   13.1715   -0.3813   -7.4688 C   0  0  0  0  0  0  0  0  0  0  0  0
   13.2857   -0.2403   -6.0652 C   0  0  0  0  0  0  0  0  0  0  0  0
    9.7843    0.8094   -4.3707 C   0  0  0  0  0  0  0  0  0  0  0  0
    8.6422    1.1881   -3.6581 C   0  0  0  0  0  0  0  0  0  0  0  0
    8.0328    2.4558   -3.8241 C   0  0  0  0  0  0  0  0  0  0  0  0
    0.3103    1.2285   -2.4679 H   0  0  0  0  0  0  0  0  0  0  0  0
    0.5545    2.5500   -1.3042 H   0  0  0  0  0  0  0  0  0  0  0  0
    0.4169    0.8536   -0.7350 H   0  0  0  0  0  0  0  0  0  0  0  0
    2.5202    1.0328    0.3400 H   0  0  0  0  0  0  0  0  0  0  0  0
    2.7391    2.7126   -0.2269 H   0  0  0  0  0  0  0  0  0  0  0  0
    4.5376    0.3294   -0.9717 H   0  0  0  0  0  0  0  0  0  0  0  0
    4.9313    1.5506    0.2573 H   0  0  0  0  0  0  0  0  0  0  0  0
    4.3765    2.4661   -2.4870 H   0  0  0  0  0  0  0  0  0  0  0  0
    5.4614    4.5208   -2.8151 H   0  0  0  0  0  0  0  0  0  0  0  0
    6.4194    5.9424   -4.5794 H   0  0  0  0  0  0  0  0  0  0  0  0
    8.4290    5.2319   -5.8011 H   0  0  0  0  0  0  0  0  0  0  0  0
   10.2357    3.6180   -6.2001 H   0  0  0  0  0  0  0  0  0  0  0  0
   12.2998    1.5462   -3.3109 H   0  0  0  0  0  0  0  0  0  0  0  0
   13.9267   -0.0178   -2.2926 H   0  0  0  0  0  0  0  0  0  0  0  0
   15.6265   -2.6409   -5.5463 H   0  0  0  0  0  0  0  0  0  0  0  0
   16.1672   -4.1839   -9.6633 H   0  0  0  0  0  0  0  0  0  0  0  0
   15.7966   -2.4853   -9.9825 H   0  0  0  0  0  0  0  0  0  0  0  0
   14.4740   -3.6759   -9.6705 H   0  0  0  0  0  0  0  0  0  0  0  0
   13.8207   -1.3874   -9.2434 H   0  0  0  0  0  0  0  0  0  0  0  0
   12.4910    0.2587   -8.0268 H   0  0  0  0  0  0  0  0  0  0  0  0
   10.1981   -0.1800   -4.2019 H   0  0  0  0  0  0  0  0  0  0  0  0
    8.2335    0.4637   -2.9557 H   0  0  0  0  0  0  0  0  0  0  0  0
  1  2  1  0  0  0  0
  1 31  1  0  0  0  0
  1 32  1  0  0  0  0
  1 33  1  0  0  0  0
  2  3  1  0  0  0  0
  3  4  1  0  0  0  0
  3 34  1  0  0  0  0
  3 35  1  0  0  0  0
  4  5  1  0  0  0  0
  4 36  1  0  0  0  0
  4 37  1  0  0  0  0
  5  6  1  0  0  0  0
  5 38  1  0  0  0  0
  6  7  2  0  0  0  0
  6  8  1  0  0  0  0
  8  9  1  0  0  0  0
  8 30  2  0  0  0  0
  9 10  2  0  0  0  0
  9 39  1  0  0  0  0
 10 11  1  0  0  0  0
 10 40  1  0  0  0  0
 11 12  2  0  0  0  0
 11 41  1  0  0  0  0
 12 13  1  0  0  0  0
 12 30  1  0  0  0  0
 13 14  2  0  0  0  0
 13 42  1  0  0  0  0
 14 15  1  0  0  0  0
 14 28  1  0  0  0  0
 15 16  1  0  0  0  0
 16 17  1  0  0  0  0
 16 27  2  0  0  0  0
 17 18  2  0  0  0  0
 17 43  1  0  0  0  0
 18 19  1  0  0  0  0
 18 44  1  0  0  0  0
 19 20  2  0  0  0  0
 20 21  1  0  0  0  0
 20 27  1  0  0  0  0
 21 22  2  0  0  0  0
 21 45  1  0  0  0  0
 22 23  1  0  0  0  0
 22 25  1  0  0  0  0
 23 24  1  0  0  0  0
 24 46  1  0  0  0  0
 24 47  1  0  0  0  0
 24 48  1  0  0  0  0
 25 26  2  0  0  0  0
 25 49  1  0  0  0  0
 26 27  1  0  0  0  0
 26 50  1  0  0  0  0
 28 29  2  0  0  0  0
 28 51  1  0  0  0  0
 29 30  1  0  0  0  0
 29 52  1  0  0  0  0
M  END
$$$$
