CHEMBL216703
 OpenBabel04072215363D

 67 71  0  0  1  0  0  0  0  0999 V2000
    2.3524   -4.2240    2.5902 C   0  0  0  0  0  0  0  0  0  0  0  0
    2.8951   -3.5241    1.4747 O   0  0  0  0  0  0  0  0  0  0  0  0
    4.1954   -3.8055    1.1505 C   0  0  0  0  0  0  0  0  0  0  0  0
    5.0057   -4.7300    1.8080 C   0  0  0  0  0  0  0  0  0  0  0  0
    6.3369   -4.8895    1.4252 C   0  0  0  0  0  0  0  0  0  0  0  0
    6.8634   -4.1396    0.3711 C   0  0  0  0  0  0  0  0  0  0  0  0
    8.5680   -4.2871    0.0940 Cl  0  0  0  0  0  0  0  0  0  0  0  0
    6.0351   -3.2757   -0.3748 C   0  0  0  0  0  0  0  0  0  0  0  0
    6.4738   -2.5270   -1.5065 N   0  0  0  0  0  0  0  0  0  0  0  0
    7.1835   -3.1374   -2.5790 C   0  0  0  0  0  0  0  0  0  0  0  0
    7.0636   -4.4846   -2.6925 N   0  0  0  0  0  0  0  0  0  0  0  0
    7.6872   -5.0844   -3.6947 C   0  0  0  0  0  0  0  0  0  0  0  0
    8.3620   -4.4595   -4.6466 N   0  0  0  0  0  0  0  0  0  0  0  0
    8.4139   -3.1296   -4.5699 C   0  0  0  0  0  0  0  0  0  0  0  0
    9.0298   -2.5254   -5.6380 C   0  0  0  0  0  0  0  0  0  0  0  0
    9.1047   -1.1443   -5.7663 C   0  0  0  0  0  0  0  0  0  0  0  0
    9.5372   -0.4865   -6.8926 O   0  0  0  0  0  0  0  0  0  0  0  0
    9.7698   -1.3385   -8.0151 C   0  0  0  0  0  0  0  0  0  0  0  0
    9.6365   -0.5953   -9.3344 C   0  0  0  0  0  0  0  0  0  0  0  0
    9.8971   -1.6079  -10.4592 C   0  0  0  0  0  0  0  0  0  0  0  0
    9.7313   -1.0830  -11.8182 N   0  0  0  0  0  0  0  0  0  0  0  0
    9.9831   -2.1561  -12.8179 C   0  0  0  0  0  0  0  0  0  0  0  0
   11.4697   -2.5360  -12.9660 C   0  0  0  0  0  0  0  0  0  0  0  0
   12.2863   -1.3908  -13.2451 O   0  0  0  0  0  0  0  0  0  0  0  0
   12.1134   -0.3789  -12.2454 C   0  0  0  0  0  0  0  0  0  0  0  0
   10.6386    0.0400  -12.1284 C   0  0  0  0  0  0  0  0  0  0  0  0
    8.6873   -0.3504   -4.7071 C   0  0  0  0  0  0  0  0  0  0  0  0
    8.0673   -0.9269   -3.5862 C   0  0  0  0  0  0  0  0  0  0  0  0
    7.6605   -0.1691   -2.5008 O   0  0  0  0  0  0  0  0  0  0  0  0
    7.3530    1.2149   -2.7717 C   0  0  3  0  0  0  0  0  0  0  0  0
    8.5447    2.1256   -2.5397 C   0  0  0  0  0  0  0  0  0  0  0  0
    8.3775    2.6562   -1.1310 C   0  0  0  0  0  0  0  0  0  0  0  0
    7.0543    2.3570   -0.6898 O   0  0  0  0  0  0  0  0  0  0  0  0
    6.3375    1.7378   -1.7640 C   0  0  0  0  0  0  0  0  0  0  0  0
    7.8725   -2.3529   -3.5338 C   0  0  0  0  0  0  0  0  0  0  0  0
    4.7127   -3.0875    0.0632 C   0  0  0  0  0  0  0  0  0  0  0  0
    1.3372   -3.8546    2.7621 H   0  0  0  0  0  0  0  0  0  0  0  0
    2.9306   -4.0346    3.5016 H   0  0  0  0  0  0  0  0  0  0  0  0
    2.2873   -5.2975    2.3820 H   0  0  0  0  0  0  0  0  0  0  0  0
    4.6422   -5.3303    2.6348 H   0  0  0  0  0  0  0  0  0  0  0  0
    6.9659   -5.5942    1.9630 H   0  0  0  0  0  0  0  0  0  0  0  0
    6.9994   -1.7087   -1.2010 H   0  0  0  0  0  0  0  0  0  0  0  0
    7.6443   -6.1636   -3.7455 H   0  0  0  0  0  0  0  0  0  0  0  0
    9.4158   -3.1934   -6.4029 H   0  0  0  0  0  0  0  0  0  0  0  0
    9.0299   -2.1464   -8.0664 H   0  0  0  0  0  0  0  0  0  0  0  0
   10.7778   -1.7598   -7.9173 H   0  0  0  0  0  0  0  0  0  0  0  0
   10.3422    0.2421   -9.3489 H   0  0  0  0  0  0  0  0  0  0  0  0
    8.6296   -0.1694   -9.4199 H   0  0  0  0  0  0  0  0  0  0  0  0
    9.1810   -2.4322  -10.3395 H   0  0  0  0  0  0  0  0  0  0  0  0
   10.8904   -2.0458  -10.3089 H   0  0  0  0  0  0  0  0  0  0  0  0
    9.6189   -1.7917  -13.7857 H   0  0  0  0  0  0  0  0  0  0  0  0
    9.3870   -3.0474  -12.5847 H   0  0  0  0  0  0  0  0  0  0  0  0
   11.5869   -3.2334  -13.8019 H   0  0  0  0  0  0  0  0  0  0  0  0
   11.8534   -3.0396  -12.0710 H   0  0  0  0  0  0  0  0  0  0  0  0
   12.7181    0.4852  -12.5480 H   0  0  0  0  0  0  0  0  0  0  0  0
   12.5133   -0.7390  -11.2915 H   0  0  0  0  0  0  0  0  0  0  0  0
   10.3195    0.4572  -13.0921 H   0  0  0  0  0  0  0  0  0  0  0  0
   10.5264    0.8532  -11.4071 H   0  0  0  0  0  0  0  0  0  0  0  0
    8.8517    0.7178   -4.7944 H   0  0  0  0  0  0  0  0  0  0  0  0
    6.9214    1.3108   -3.7748 H   0  0  0  0  0  0  0  0  0  0  0  0
    8.5039    2.9685   -3.2412 H   0  0  0  0  0  0  0  0  0  0  0  0
    9.5193    1.6428   -2.6589 H   0  0  0  0  0  0  0  0  0  0  0  0
    8.5300    3.7414   -1.0947 H   0  0  0  0  0  0  0  0  0  0  0  0
    9.0845    2.1964   -0.4348 H   0  0  0  0  0  0  0  0  0  0  0  0
    5.7155    2.5159   -2.2204 H   0  0  0  0  0  0  0  0  0  0  0  0
    5.6910    0.9580   -1.3539 H   0  0  0  0  0  0  0  0  0  0  0  0
    4.0669   -2.3915   -0.4681 H   0  0  0  0  0  0  0  0  0  0  0  0
  1  2  1  0  0  0  0
  1 37  1  0  0  0  0
  1 38  1  0  0  0  0
  1 39  1  0  0  0  0
  2  3  1  0  0  0  0
  3  4  1  0  0  0  0
  3 36  2  0  0  0  0
  4  5  2  0  0  0  0
  4 40  1  0  0  0  0
  5  6  1  0  0  0  0
  5 41  1  0  0  0  0
  6  7  1  0  0  0  0
  6  8  2  0  0  0  0
  8  9  1  0  0  0  0
  8 36  1  0  0  0  0
  9 10  1  0  0  0  0
  9 42  1  0  0  0  0
 10 11  1  0  0  0  0
 10 35  2  0  0  0  0
 11 12  2  0  0  0  0
 12 13  1  0  0  0  0
 12 43  1  0  0  0  0
 13 14  2  0  0  0  0
 14 15  1  0  0  0  0
 14 35  1  0  0  0  0
 15 16  2  0  0  0  0
 15 44  1  0  0  0  0
 16 17  1  0  0  0  0
 16 27  1  0  0  0  0
 17 18  1  0  0  0  0
 18 19  1  0  0  0  0
 18 45  1  0  0  0  0
 18 46  1  0  0  0  0
 19 20  1  0  0  0  0
 19 47  1  0  0  0  0
 19 48  1  0  0  0  0
 20 21  1  0  0  0  0
 20 49  1  0  0  0  0
 20 50  1  0  0  0  0
 21 22  1  0  0  0  0
 21 26  1  0  0  0  0
 22 23  1  0  0  0  0
 22 51  1  0  0  0  0
 22 52  1  0  0  0  0
 23 24  1  0  0  0  0
 23 53  1  0  0  0  0
 23 54  1  0  0  0  0
 24 25  1  0  0  0  0
 25 26  1  0  0  0  0
 25 55  1  0  0  0  0
 25 56  1  0  0  0  0
 26 57  1  0  0  0  0
 26 58  1  0  0  0  0
 27 28  2  0  0  0  0
 27 59  1  0  0  0  0
 28 29  1  0  0  0  0
 28 35  1  0  0  0  0
 29 30  1  0  0  0  0
 30 31  1  0  0  0  0
 30 34  1  0  0  0  0
 30 60  1  0  0  0  0
 31 32  1  0  0  0  0
 31 61  1  0  0  0  0
 31 62  1  0  0  0  0
 32 33  1  0  0  0  0
 32 63  1  0  0  0  0
 32 64  1  0  0  0  0
 33 34  1  0  0  0  0
 34 65  1  0  0  0  0
 34 66  1  0  0  0  0
 36 67  1  0  0  0  0
M  END
$$$$
