CHEMBL3961993
 OpenBabel04072215373D

 55 58  0  0  0  0  0  0  0  0999 V2000
    2.5585    0.0275   -0.1397 C   0  0  0  0  0  0  0  0  0  0  0  0
    1.0559    0.0310   -0.1084 C   0  0  0  0  0  0  0  0  0  0  0  0
    0.4206    1.2861   -0.1384 C   0  0  0  0  0  0  0  0  0  0  0  0
   -0.9668    1.4293   -0.0802 C   0  0  0  0  0  0  0  0  0  0  0  0
   -1.6035    2.6905    0.0081 N   0  0  0  0  0  0  0  0  0  0  0  0
   -0.9596    3.8936    0.2556 C   0  0  0  0  0  0  0  0  0  0  0  0
    0.2504    4.0343    0.4063 O   0  0  0  0  0  0  0  0  0  0  0  0
   -1.8414    4.9580    0.3783 N   0  0  0  0  0  0  0  0  0  0  0  0
   -1.3379    6.2573    0.6287 C   0  0  0  0  0  0  0  0  0  0  0  0
   -1.8806    7.0015    1.6674 C   0  0  0  0  0  0  0  0  0  0  0  0
   -1.3341    8.2475    1.9817 C   0  0  0  0  0  0  0  0  0  0  0  0
   -0.2798    8.7852    1.2281 C   0  0  0  0  0  0  0  0  0  0  0  0
    0.2949   10.3362    1.7186 Cl  0  0  0  0  0  0  0  0  0  0  0  0
    0.2507    8.0738    0.1485 C   0  0  0  0  0  0  0  0  0  0  0  0
    1.3545    8.5714   -0.7493 C   0  0  0  0  0  0  0  0  0  0  0  0
    1.7864    9.8413   -0.5301 F   0  0  0  0  0  0  0  0  0  0  0  0
    2.4705    7.7910   -0.6817 F   0  0  0  0  0  0  0  0  0  0  0  0
    0.9778    8.5502   -2.0627 F   0  0  0  0  0  0  0  0  0  0  0  0
   -0.2836    6.7939   -0.1258 C   0  0  0  0  0  0  0  0  0  0  0  0
   -1.7438    0.2729   -0.0947 C   0  0  0  0  0  0  0  0  0  0  0  0
   -1.1316   -0.9902   -0.0798 C   0  0  0  0  0  0  0  0  0  0  0  0
    0.2657   -1.1209   -0.0064 C   0  0  0  0  0  0  0  0  0  0  0  0
    0.8800   -2.3584    0.1237 O   0  0  0  0  0  0  0  0  0  0  0  0
    0.2854   -3.3101    0.9439 C   0  0  0  0  0  0  0  0  0  0  0  0
   -0.3951   -2.9758    2.1105 C   0  0  0  0  0  0  0  0  0  0  0  0
   -1.0086   -3.9867    2.8135 C   0  0  0  0  0  0  0  0  0  0  0  0
   -0.9233   -5.2894    2.4649 N   0  0  0  0  0  0  0  0  0  0  0  0
   -0.2023   -5.6269    1.3863 C   0  0  0  0  0  0  0  0  0  0  0  0
   -0.0834   -6.9934    1.0561 N   0  0  0  0  0  0  0  0  0  0  0  0
   -0.6762   -8.0064    1.7942 C   0  0  0  0  0  0  0  0  0  0  0  0
   -1.3739   -7.8888    2.7918 O   0  0  0  0  0  0  0  0  0  0  0  0
   -0.4061   -9.3931    1.2858 C   0  0  0  0  0  0  0  0  0  0  0  0
   -1.4686  -10.4622    1.4563 C   0  0  0  0  0  0  0  0  0  0  0  0
   -0.2171  -10.5231    2.2806 C   0  0  0  0  0  0  0  0  0  0  0  0
    0.4180   -4.6612    0.5894 C   0  0  0  0  0  0  0  0  0  0  0  0
    2.9413    1.0040   -0.4688 H   0  0  0  0  0  0  0  0  0  0  0  0
    2.9378   -0.7080   -0.8529 H   0  0  0  0  0  0  0  0  0  0  0  0
    2.9642   -0.1612    0.8576 H   0  0  0  0  0  0  0  0  0  0  0  0
    1.0609    2.1594   -0.2144 H   0  0  0  0  0  0  0  0  0  0  0  0
   -2.6118    2.6987   -0.0453 H   0  0  0  0  0  0  0  0  0  0  0  0
   -2.7129    4.7221    0.8298 H   0  0  0  0  0  0  0  0  0  0  0  0
   -2.6773    6.6016    2.2884 H   0  0  0  0  0  0  0  0  0  0  0  0
   -1.7285    8.7963    2.8347 H   0  0  0  0  0  0  0  0  0  0  0  0
    0.1387    6.2127   -0.9480 H   0  0  0  0  0  0  0  0  0  0  0  0
   -2.8298    0.3207   -0.0813 H   0  0  0  0  0  0  0  0  0  0  0  0
   -1.7637   -1.8753   -0.0854 H   0  0  0  0  0  0  0  0  0  0  0  0
   -0.4863   -1.9533    2.4605 H   0  0  0  0  0  0  0  0  0  0  0  0
   -1.6060   -3.7911    3.6967 H   0  0  0  0  0  0  0  0  0  0  0  0
    0.4713   -7.2365    0.2505 H   0  0  0  0  0  0  0  0  0  0  0  0
    0.1886   -9.4556    0.3811 H   0  0  0  0  0  0  0  0  0  0  0  0
   -1.5955  -11.2001    0.6735 H   0  0  0  0  0  0  0  0  0  0  0  0
   -2.3907  -10.1986    1.9663 H   0  0  0  0  0  0  0  0  0  0  0  0
    0.4984  -11.3042    2.0541 H   0  0  0  0  0  0  0  0  0  0  0  0
   -0.3045  -10.3005    3.3403 H   0  0  0  0  0  0  0  0  0  0  0  0
    0.9858   -4.9344   -0.2905 H   0  0  0  0  0  0  0  0  0  0  0  0
  1  2  1  0  0  0  0
  1 36  1  0  0  0  0
  1 37  1  0  0  0  0
  1 38  1  0  0  0  0
  2  3  1  0  0  0  0
  2 22  2  0  0  0  0
  3  4  2  0  0  0  0
  3 39  1  0  0  0  0
  4  5  1  0  0  0  0
  4 20  1  0  0  0  0
  5  6  1  0  0  0  0
  5 40  1  0  0  0  0
  6  7  2  0  0  0  0
  6  8  1  0  0  0  0
  8  9  1  0  0  0  0
  8 41  1  0  0  0  0
  9 10  1  0  0  0  0
  9 19  2  0  0  0  0
 10 11  2  0  0  0  0
 10 42  1  0  0  0  0
 11 12  1  0  0  0  0
 11 43  1  0  0  0  0
 12 13  1  0  0  0  0
 12 14  2  0  0  0  0
 14 15  1  0  0  0  0
 14 19  1  0  0  0  0
 15 16  1  0  0  0  0
 15 17  1  0  0  0  0
 15 18  1  0  0  0  0
 19 44  1  0  0  0  0
 20 21  2  0  0  0  0
 20 45  1  0  0  0  0
 21 22  1  0  0  0  0
 21 46  1  0  0  0  0
 22 23  1  0  0  0  0
 23 24  1  0  0  0  0
 24 25  1  0  0  0  0
 24 35  2  0  0  0  0
 25 26  2  0  0  0  0
 25 47  1  0  0  0  0
 26 27  1  0  0  0  0
 26 48  1  0  0  0  0
 27 28  2  0  0  0  0
 28 29  1  0  0  0  0
 28 35  1  0  0  0  0
 29 30  1  0  0  0  0
 29 49  1  0  0  0  0
 30 31  2  0  0  0  0
 30 32  1  0  0  0  0
 32 33  1  0  0  0  0
 32 34  1  0  0  0  0
 32 50  1  0  0  0  0
 33 34  1  0  0  0  0
 33 51  1  0  0  0  0
 33 52  1  0  0  0  0
 34 53  1  0  0  0  0
 34 54  1  0  0  0  0
 35 55  1  0  0  0  0
M  END
$$$$
