CHEMBL191023
 OpenBabel04072215363D

 80 82  0  0  0  0  0  0  0  0999 V2000
    4.7517   -2.4545    4.5496 C   0  0  0  0  0  0  0  0  0  0  0  0
    6.0521   -1.9167    3.9645 C   0  0  0  0  0  0  0  0  0  0  0  0
    6.7327   -0.8848    4.7639 N   0  0  0  0  0  0  0  0  0  0  0  0
    7.0045   -1.2923    6.1561 C   0  0  0  0  0  0  0  0  0  0  0  0
    8.0025   -2.4334    6.3475 C   0  0  0  0  0  0  0  0  0  0  0  0
    7.9660   -0.4213    4.0932 C   0  0  0  0  0  0  0  0  0  0  0  0
    7.7481    0.2101    2.7053 C   0  0  0  0  0  0  0  0  0  0  0  0
    6.8536    1.4518    2.7014 C   0  0  0  0  0  0  0  0  0  0  0  0
    7.4158    2.5948    3.5410 C   0  0  0  0  0  0  0  0  0  0  0  0
    8.7262    3.0123    3.0169 N   0  0  0  0  0  0  0  0  0  0  0  0
    9.2634    4.0822    3.7520 C   0  0  0  0  0  0  0  0  0  0  0  0
   10.1565    4.9653    3.1484 C   0  0  0  0  0  0  0  0  0  0  0  0
   10.6463    6.0618    3.8485 C   0  0  0  0  0  0  0  0  0  0  0  0
   11.4441    6.9886    3.2677 N   0  0  0  0  0  0  0  0  0  0  0  0
   11.8811    8.0440    4.0153 C   0  0  0  0  0  0  0  0  0  0  0  0
   12.6555    8.9859    3.3340 N   0  0  0  0  0  0  0  0  0  0  0  0
   14.0194    8.9773    3.1874 C   0  0  0  0  0  0  0  0  0  0  0  0
   14.5420    9.8619    2.5097 O   0  0  0  0  0  0  0  0  0  0  0  0
   14.7023    7.9728    3.8049 N   0  0  0  0  0  0  0  0  0  0  0  0
   16.1737    7.8071    3.7614 C   0  0  0  0  0  0  0  0  0  0  0  0
   16.8577    8.9841    4.4696 C   0  0  0  0  0  0  0  0  0  0  0  0
   16.5478    6.5107    4.5091 C   0  0  0  0  0  0  0  0  0  0  0  0
   16.7086    7.6893    2.3227 C   0  0  0  0  0  0  0  0  0  0  0  0
   11.5031    8.2664    5.3491 C   0  0  0  0  0  0  0  0  0  0  0  0
   11.8885    9.4293    6.1845 C   0  0  0  0  0  0  0  0  0  0  0  0
   11.9929   10.7355    5.6827 C   0  0  0  0  0  0  0  0  0  0  0  0
   12.4382   11.7841    6.4924 C   0  0  0  0  0  0  0  0  0  0  0  0
   12.6297   13.0706    6.0603 O   0  0  0  0  0  0  0  0  0  0  0  0
   13.0255   13.2008    4.6955 C   0  0  0  0  0  0  0  0  0  0  0  0
   12.6990   11.5670    7.8461 C   0  0  0  0  0  0  0  0  0  0  0  0
   12.5397   10.2997    8.3876 C   0  0  0  0  0  0  0  0  0  0  0  0
   12.7416    9.9293    9.6885 O   0  0  0  0  0  0  0  0  0  0  0  0
   13.3006   10.9085   10.5496 C   0  0  0  0  0  0  0  0  0  0  0  0
   12.1441    9.2506    7.5587 C   0  0  0  0  0  0  0  0  0  0  0  0
   10.6777    7.2862    5.9172 C   0  0  0  0  0  0  0  0  0  0  0  0
   10.2553    6.1841    5.1837 C   0  0  0  0  0  0  0  0  0  0  0  0
    9.4398    5.2177    5.7434 C   0  0  0  0  0  0  0  0  0  0  0  0
    8.9387    4.1873    5.0530 N   0  0  0  0  0  0  0  0  0  0  0  0
    4.2075   -3.0034    3.7727 H   0  0  0  0  0  0  0  0  0  0  0  0
    4.1024   -1.6452    4.8983 H   0  0  0  0  0  0  0  0  0  0  0  0
    4.9346   -3.1475    5.3757 H   0  0  0  0  0  0  0  0  0  0  0  0
    5.7685   -1.4828    3.0009 H   0  0  0  0  0  0  0  0  0  0  0  0
    6.7245   -2.7547    3.7485 H   0  0  0  0  0  0  0  0  0  0  0  0
    6.0630   -1.5578    6.6506 H   0  0  0  0  0  0  0  0  0  0  0  0
    7.3667   -0.4205    6.7179 H   0  0  0  0  0  0  0  0  0  0  0  0
    7.8278   -3.2609    5.6548 H   0  0  0  0  0  0  0  0  0  0  0  0
    7.9197   -2.8361    7.3626 H   0  0  0  0  0  0  0  0  0  0  0  0
    9.0316   -2.0835    6.2141 H   0  0  0  0  0  0  0  0  0  0  0  0
    8.6663   -1.2567    3.9703 H   0  0  0  0  0  0  0  0  0  0  0  0
    8.4753    0.3106    4.7320 H   0  0  0  0  0  0  0  0  0  0  0  0
    7.3313   -0.5257    2.0088 H   0  0  0  0  0  0  0  0  0  0  0  0
    8.7285    0.4660    2.2863 H   0  0  0  0  0  0  0  0  0  0  0  0
    5.8513    1.1987    3.0673 H   0  0  0  0  0  0  0  0  0  0  0  0
    6.7279    1.7911    1.6655 H   0  0  0  0  0  0  0  0  0  0  0  0
    7.4728    2.2830    4.5901 H   0  0  0  0  0  0  0  0  0  0  0  0
    6.7155    3.4394    3.4866 H   0  0  0  0  0  0  0  0  0  0  0  0
    8.6649    3.2531    2.0333 H   0  0  0  0  0  0  0  0  0  0  0  0
   10.4408    4.8339    2.1098 H   0  0  0  0  0  0  0  0  0  0  0  0
   12.2296    9.3689    2.5005 H   0  0  0  0  0  0  0  0  0  0  0  0
   14.1638    7.1455    4.0100 H   0  0  0  0  0  0  0  0  0  0  0  0
   16.3992    9.1760    5.4464 H   0  0  0  0  0  0  0  0  0  0  0  0
   16.7842    9.9067    3.8845 H   0  0  0  0  0  0  0  0  0  0  0  0
   17.9241    8.7846    4.6320 H   0  0  0  0  0  0  0  0  0  0  0  0
   16.2501    6.5573    5.5621 H   0  0  0  0  0  0  0  0  0  0  0  0
   17.6296    6.3312    4.4751 H   0  0  0  0  0  0  0  0  0  0  0  0
   16.0546    5.6381    4.0650 H   0  0  0  0  0  0  0  0  0  0  0  0
   16.5335    8.5992    1.7403 H   0  0  0  0  0  0  0  0  0  0  0  0
   16.2370    6.8584    1.7865 H   0  0  0  0  0  0  0  0  0  0  0  0
   17.7923    7.5162    2.3218 H   0  0  0  0  0  0  0  0  0  0  0  0
   11.7148   10.9411    4.6528 H   0  0  0  0  0  0  0  0  0  0  0  0
   13.5556   14.1527    4.5955 H   0  0  0  0  0  0  0  0  0  0  0  0
   12.1439   13.2337    4.0488 H   0  0  0  0  0  0  0  0  0  0  0  0
   13.7114   12.4070    4.3801 H   0  0  0  0  0  0  0  0  0  0  0  0
   13.0358   12.4077    8.4452 H   0  0  0  0  0  0  0  0  0  0  0  0
   13.4487   10.4394   11.5280 H   0  0  0  0  0  0  0  0  0  0  0  0
   12.6171   11.7517   10.6828 H   0  0  0  0  0  0  0  0  0  0  0  0
   14.2779   11.2387   10.1865 H   0  0  0  0  0  0  0  0  0  0  0  0
   12.0488    8.2688    8.0185 H   0  0  0  0  0  0  0  0  0  0  0  0
   10.3201    7.3918    6.9412 H   0  0  0  0  0  0  0  0  0  0  0  0
    9.1424    5.2496    6.7891 H   0  0  0  0  0  0  0  0  0  0  0  0
  1  2  1  0  0  0  0
  1 39  1  0  0  0  0
  1 40  1  0  0  0  0
  1 41  1  0  0  0  0
  2  3  1  0  0  0  0
  2 42  1  0  0  0  0
  2 43  1  0  0  0  0
  3  4  1  0  0  0  0
  3  6  1  0  0  0  0
  4  5  1  0  0  0  0
  4 44  1  0  0  0  0
  4 45  1  0  0  0  0
  5 46  1  0  0  0  0
  5 47  1  0  0  0  0
  5 48  1  0  0  0  0
  6  7  1  0  0  0  0
  6 49  1  0  0  0  0
  6 50  1  0  0  0  0
  7  8  1  0  0  0  0
  7 51  1  0  0  0  0
  7 52  1  0  0  0  0
  8  9  1  0  0  0  0
  8 53  1  0  0  0  0
  8 54  1  0  0  0  0
  9 10  1  0  0  0  0
  9 55  1  0  0  0  0
  9 56  1  0  0  0  0
 10 11  1  0  0  0  0
 10 57  1  0  0  0  0
 11 12  1  0  0  0  0
 11 38  2  0  0  0  0
 12 13  2  0  0  0  0
 12 58  1  0  0  0  0
 13 14  1  0  0  0  0
 13 36  1  0  0  0  0
 14 15  2  0  0  0  0
 15 16  1  0  0  0  0
 15 24  1  0  0  0  0
 16 17  1  0  0  0  0
 16 59  1  0  0  0  0
 17 18  2  0  0  0  0
 17 19  1  0  0  0  0
 19 20  1  0  0  0  0
 19 60  1  0  0  0  0
 20 21  1  0  0  0  0
 20 22  1  0  0  0  0
 20 23  1  0  0  0  0
 21 61  1  0  0  0  0
 21 62  1  0  0  0  0
 21 63  1  0  0  0  0
 22 64  1  0  0  0  0
 22 65  1  0  0  0  0
 22 66  1  0  0  0  0
 23 67  1  0  0  0  0
 23 68  1  0  0  0  0
 23 69  1  0  0  0  0
 24 25  1  0  0  0  0
 24 35  2  0  0  0  0
 25 26  1  0  0  0  0
 25 34  2  0  0  0  0
 26 27  2  0  0  0  0
 26 70  1  0  0  0  0
 27 28  1  0  0  0  0
 27 30  1  0  0  0  0
 28 29  1  0  0  0  0
 29 71  1  0  0  0  0
 29 72  1  0  0  0  0
 29 73  1  0  0  0  0
 30 31  2  0  0  0  0
 30 74  1  0  0  0  0
 31 32  1  0  0  0  0
 31 34  1  0  0  0  0
 32 33  1  0  0  0  0
 33 75  1  0  0  0  0
 33 76  1  0  0  0  0
 33 77  1  0  0  0  0
 34 78  1  0  0  0  0
 35 36  1  0  0  0  0
 35 79  1  0  0  0  0
 36 37  2  0  0  0  0
 37 38  1  0  0  0  0
 37 80  1  0  0  0  0
M  END
$$$$
