CHEMBL444105
 OpenBabel04072215383D

 62 68  0  0  0  0  0  0  0  0999 V2000
    3.8455   -3.1440    2.3028 C   0  0  0  0  0  0  0  0  0  0  0  0
    3.3863   -2.5190    0.9842 C   0  0  0  0  0  0  0  0  0  0  0  0
    1.8675   -2.6868    0.8628 C   0  0  0  0  0  0  0  0  0  0  0  0
    3.7879   -1.0254    0.8654 C   0  0  0  0  0  0  0  0  0  0  0  0
    5.2321   -0.7887    0.7211 N   0  0  0  0  0  0  0  0  0  0  0  0
    5.9154   -0.8792   -0.5171 C   0  0  0  0  0  0  0  0  0  0  0  0
    5.4736   -1.0622   -1.8461 C   0  0  0  0  0  0  0  0  0  0  0  0
    6.4381   -1.2517   -2.8668 C   0  0  0  0  0  0  0  0  0  0  0  0
    7.8065   -1.2109   -2.5875 C   0  0  0  0  0  0  0  0  0  0  0  0
    8.9012   -1.5443   -3.5518 C   0  0  0  0  0  0  0  0  0  0  0  0
    9.8930   -2.0888   -3.0601 O   0  0  0  0  0  0  0  0  0  0  0  0
    8.8094   -1.2186   -4.9633 C   0  0  0  0  0  0  0  0  0  0  0  0
    8.0614   -0.2727   -5.6379 C   0  0  0  0  0  0  0  0  0  0  0  0
    8.3480   -0.2490   -7.0374 C   0  0  0  0  0  0  0  0  0  0  0  0
    9.3062   -1.1710   -7.3880 C   0  0  0  0  0  0  0  0  0  0  0  0
    9.8528   -2.0627   -6.0443 S   0  0  0  0  0  0  0  0  0  0  0  0
    8.2249   -1.0009   -1.2710 C   0  0  0  0  0  0  0  0  0  0  0  0
    7.2892   -0.8853   -0.2333 C   0  0  0  0  0  0  0  0  0  0  0  0
    7.3183   -0.9026    1.1360 C   0  0  0  0  0  0  0  0  0  0  0  0
    8.4166   -1.4102    1.8575 C   0  0  0  0  0  0  0  0  0  0  0  0
    8.1285   -1.8462    3.1685 C   0  0  0  0  0  0  0  0  0  0  0  0
    6.8821   -1.6968    3.7864 C   0  0  0  0  0  0  0  0  0  0  0  0
    6.0759   -0.6678    3.1927 C   0  0  0  0  0  0  0  0  0  0  0  0
    6.1369   -0.6591    1.7815 C   0  0  0  0  0  0  0  0  0  0  0  0
    6.0918    0.6593    4.0627 C   0  0  0  0  0  0  0  0  0  0  0  0
    7.1285    0.6427    5.2572 C   0  0  0  0  0  0  0  0  0  0  0  0
    6.9146   -0.6362    5.9915 C   0  0  0  0  0  0  0  0  0  0  0  0
    6.4999   -0.7990    7.2471 N   0  0  0  0  0  0  0  0  0  0  0  0
    6.0363   -2.0744    7.2399 N   0  0  0  0  0  0  0  0  0  0  0  0
    5.3605   -2.5946    8.4040 C   0  0  0  0  0  0  0  0  0  0  0  0
    6.0651   -2.6635    5.9979 C   0  0  0  0  0  0  0  0  0  0  0  0
    6.7953   -1.8023    5.2204 C   0  0  0  0  0  0  0  0  0  0  0  0
    9.3724   -2.3060    3.7445 C   0  0  0  0  0  0  0  0  0  0  0  0
    9.6801   -2.7303    4.8501 O   0  0  0  0  0  0  0  0  0  0  0  0
   10.3091   -2.1227    2.7366 N   0  0  0  0  0  0  0  0  0  0  0  0
    9.8083   -1.6157    1.4786 C   0  0  0  0  0  0  0  0  0  0  0  0
    3.4491   -4.1587    2.4191 H   0  0  0  0  0  0  0  0  0  0  0  0
    3.5095   -2.5530    3.1615 H   0  0  0  0  0  0  0  0  0  0  0  0
    4.9336   -3.2300    2.3353 H   0  0  0  0  0  0  0  0  0  0  0  0
    3.8482   -3.0869    0.1665 H   0  0  0  0  0  0  0  0  0  0  0  0
    1.3372   -2.0871    1.6100 H   0  0  0  0  0  0  0  0  0  0  0  0
    1.5769   -3.7345    1.0087 H   0  0  0  0  0  0  0  0  0  0  0  0
    1.5176   -2.3873   -0.1301 H   0  0  0  0  0  0  0  0  0  0  0  0
    3.4397   -0.4467    1.7253 H   0  0  0  0  0  0  0  0  0  0  0  0
    3.3111   -0.5890   -0.0241 H   0  0  0  0  0  0  0  0  0  0  0  0
    4.4167   -1.1336   -2.0831 H   0  0  0  0  0  0  0  0  0  0  0  0
    6.0874   -1.4846   -3.8698 H   0  0  0  0  0  0  0  0  0  0  0  0
    7.3633    0.4029   -5.1588 H   0  0  0  0  0  0  0  0  0  0  0  0
    7.8869    0.4239   -7.7489 H   0  0  0  0  0  0  0  0  0  0  0  0
    9.7241   -1.3609   -8.3677 H   0  0  0  0  0  0  0  0  0  0  0  0
    9.2864   -0.9880   -1.0473 H   0  0  0  0  0  0  0  0  0  0  0  0
    5.0875    0.7964    4.4776 H   0  0  0  0  0  0  0  0  0  0  0  0
    6.3293    1.5148    3.4197 H   0  0  0  0  0  0  0  0  0  0  0  0
    7.0330    1.5146    5.9135 H   0  0  0  0  0  0  0  0  0  0  0  0
    8.1566    0.6480    4.8613 H   0  0  0  0  0  0  0  0  0  0  0  0
    5.5757   -1.9563    9.2641 H   0  0  0  0  0  0  0  0  0  0  0  0
    5.7205   -3.6086    8.5914 H   0  0  0  0  0  0  0  0  0  0  0  0
    4.2866   -2.5999    8.1998 H   0  0  0  0  0  0  0  0  0  0  0  0
    5.5306   -3.5781    5.7845 H   0  0  0  0  0  0  0  0  0  0  0  0
   11.2846   -2.3066    2.9274 H   0  0  0  0  0  0  0  0  0  0  0  0
    9.9310   -2.3852    0.7148 H   0  0  0  0  0  0  0  0  0  0  0  0
   10.3205   -0.6838    1.2262 H   0  0  0  0  0  0  0  0  0  0  0  0
  1  2  1  0  0  0  0
  1 37  1  0  0  0  0
  1 38  1  0  0  0  0
  1 39  1  0  0  0  0
  2  3  1  0  0  0  0
  2  4  1  0  0  0  0
  2 40  1  0  0  0  0
  3 41  1  0  0  0  0
  3 42  1  0  0  0  0
  3 43  1  0  0  0  0
  4  5  1  0  0  0  0
  4 44  1  0  0  0  0
  4 45  1  0  0  0  0
  5  6  1  0  0  0  0
  5 24  1  0  0  0  0
  6  7  1  0  0  0  0
  6 18  2  0  0  0  0
  7  8  2  0  0  0  0
  7 46  1  0  0  0  0
  8  9  1  0  0  0  0
  8 47  1  0  0  0  0
  9 10  1  0  0  0  0
  9 17  2  0  0  0  0
 10 11  2  0  0  0  0
 10 12  1  0  0  0  0
 12 13  2  0  0  0  0
 12 16  1  0  0  0  0
 13 14  1  0  0  0  0
 13 48  1  0  0  0  0
 14 15  2  0  0  0  0
 14 49  1  0  0  0  0
 15 16  1  0  0  0  0
 15 50  1  0  0  0  0
 17 18  1  0  0  0  0
 17 51  1  0  0  0  0
 18 19  1  0  0  0  0
 19 20  1  0  0  0  0
 19 24  2  0  0  0  0
 20 21  2  0  0  0  0
 20 36  1  0  0  0  0
 21 22  1  0  0  0  0
 21 33  1  0  0  0  0
 22 23  2  0  0  0  0
 22 32  1  0  0  0  0
 23 24  1  0  0  0  0
 23 25  1  0  0  0  0
 25 26  1  0  0  0  0
 25 52  1  0  0  0  0
 25 53  1  0  0  0  0
 26 27  1  0  0  0  0
 26 54  1  0  0  0  0
 26 55  1  0  0  0  0
 27 28  2  0  0  0  0
 27 32  1  0  0  0  0
 28 29  1  0  0  0  0
 29 30  1  0  0  0  0
 29 31  1  0  0  0  0
 30 56  1  0  0  0  0
 30 57  1  0  0  0  0
 30 58  1  0  0  0  0
 31 32  2  0  0  0  0
 31 59  1  0  0  0  0
 33 34  2  0  0  0  0
 33 35  1  0  0  0  0
 35 36  1  0  0  0  0
 35 60  1  0  0  0  0
 36 61  1  0  0  0  0
 36 62  1  0  0  0  0
M  END
$$$$
