CHEMBL118400
 OpenBabel04072215363D

 57 61  0  0  0  0  0  0  0  0999 V2000
   -0.3659   -7.0813    1.2083 C   0  0  0  0  0  0  0  0  0  0  0  0
    0.1014   -5.7082    1.0513 N   0  0  0  0  0  0  0  0  0  0  0  0
   -0.9816   -4.8047    0.6291 C   0  0  0  0  0  0  0  0  0  0  0  0
   -0.4645   -3.3546    0.4372 C   0  0  0  0  0  0  0  0  0  0  0  0
    0.1821   -2.7448    1.6249 N   0  0  0  0  0  0  0  0  0  0  0  0
   -0.7642   -2.4777    2.7181 C   0  0  0  0  0  0  0  0  0  0  0  0
   -2.0265   -1.6391    2.4627 C   0  0  0  0  0  0  0  0  0  0  0  0
   -2.9452   -1.5050    3.7106 C   0  0  0  0  0  0  0  0  0  0  0  0
   -3.7155   -2.7037    4.0743 N   0  0  0  0  0  0  0  0  0  0  0  0
   -3.0886   -3.9133    4.2867 C   0  0  0  0  0  0  0  0  0  0  0  0
   -3.7495   -5.0662    4.3220 C   0  0  0  0  0  0  0  0  0  0  0  0
   -5.1947   -5.0817    4.3448 C   0  0  0  0  0  0  0  0  0  0  0  0
   -5.9305   -6.3303    4.4342 C   0  0  0  0  0  0  0  0  0  0  0  0
   -5.3476   -7.5553    5.1115 C   0  0  0  0  0  0  0  0  0  0  0  0
   -5.8291   -8.7676    5.0653 N   0  0  0  0  0  0  0  0  0  0  0  0
   -7.0774   -8.8509    4.5052 C   0  0  0  0  0  0  0  0  0  0  0  0
   -8.0744   -9.8229    4.4473 C   0  0  0  0  0  0  0  0  0  0  0  0
   -8.5776  -10.5347    3.2243 C   0  0  0  0  0  0  0  0  0  0  0  0
   -9.9349  -10.9782    3.1343 C   0  0  0  0  0  0  0  0  0  0  0  0
  -10.2727  -11.4066    1.8725 C   0  0  0  0  0  0  0  0  0  0  0  0
   -8.9438  -11.3337    0.8031 S   0  0  0  0  0  0  0  0  0  0  0  0
   -7.9162  -10.6841    2.0211 C   0  0  0  0  0  0  0  0  0  0  0  0
   -9.0697   -9.1271    5.1762 C   0  0  0  0  0  0  0  0  0  0  0  0
   -9.0653   -7.8358    4.8209 N   0  0  0  0  0  0  0  0  0  0  0  0
   -7.8254   -7.6834    4.3038 N   0  0  0  0  0  0  0  0  0  0  0  0
   -7.1965   -6.4902    4.0325 C   0  0  0  0  0  0  0  0  0  0  0  0
   -5.8287   -3.8974    4.3966 C   0  0  0  0  0  0  0  0  0  0  0  0
   -5.1040   -2.6075    4.2374 C   0  0  0  0  0  0  0  0  0  0  0  0
   -5.7475   -1.5604    4.2381 O   0  0  0  0  0  0  0  0  0  0  0  0
    1.2112   -3.7158    2.1192 C   0  0  0  0  0  0  0  0  0  0  0  0
    0.7398   -5.1966    2.2738 C   0  0  0  0  0  0  0  0  0  0  0  0
   -0.7886   -7.4510    0.2670 H   0  0  0  0  0  0  0  0  0  0  0  0
   -1.1275   -7.1819    1.9897 H   0  0  0  0  0  0  0  0  0  0  0  0
    0.4703   -7.7458    1.4540 H   0  0  0  0  0  0  0  0  0  0  0  0
   -1.8069   -4.8197    1.3536 H   0  0  0  0  0  0  0  0  0  0  0  0
   -1.3923   -5.1503   -0.3270 H   0  0  0  0  0  0  0  0  0  0  0  0
   -1.2762   -2.7181    0.0700 H   0  0  0  0  0  0  0  0  0  0  0  0
    0.2751   -3.3599   -0.3748 H   0  0  0  0  0  0  0  0  0  0  0  0
   -0.2224   -2.0177    3.5545 H   0  0  0  0  0  0  0  0  0  0  0  0
   -1.0737   -3.4564    3.0312 H   0  0  0  0  0  0  0  0  0  0  0  0
   -2.6178   -2.0551    1.6400 H   0  0  0  0  0  0  0  0  0  0  0  0
   -1.7123   -0.6321    2.1596 H   0  0  0  0  0  0  0  0  0  0  0  0
   -3.6584   -0.7021    3.4802 H   0  0  0  0  0  0  0  0  0  0  0  0
   -2.3827   -1.1838    4.5927 H   0  0  0  0  0  0  0  0  0  0  0  0
   -2.0246   -3.9297    4.4313 H   0  0  0  0  0  0  0  0  0  0  0  0
   -3.1914   -5.9966    4.3830 H   0  0  0  0  0  0  0  0  0  0  0  0
   -4.4367   -7.3818    5.7103 H   0  0  0  0  0  0  0  0  0  0  0  0
  -10.6653  -10.9151    3.9308 H   0  0  0  0  0  0  0  0  0  0  0  0
  -11.2451  -11.7404    1.5368 H   0  0  0  0  0  0  0  0  0  0  0  0
   -6.9066  -10.4028    1.7614 H   0  0  0  0  0  0  0  0  0  0  0  0
   -9.9412   -9.5188    5.6837 H   0  0  0  0  0  0  0  0  0  0  0  0
   -7.8119   -5.7301    3.5725 H   0  0  0  0  0  0  0  0  0  0  0  0
   -6.8998   -3.7939    4.5390 H   0  0  0  0  0  0  0  0  0  0  0  0
    1.6130   -3.3748    3.0825 H   0  0  0  0  0  0  0  0  0  0  0  0
    2.0576   -3.6962    1.4215 H   0  0  0  0  0  0  0  0  0  0  0  0
    0.0556   -5.2858    3.1286 H   0  0  0  0  0  0  0  0  0  0  0  0
    1.6157   -5.8110    2.5145 H   0  0  0  0  0  0  0  0  0  0  0  0
  1  2  1  0  0  0  0
  1 32  1  0  0  0  0
  1 33  1  0  0  0  0
  1 34  1  0  0  0  0
  2  3  1  0  0  0  0
  2 31  1  0  0  0  0
  3  4  1  0  0  0  0
  3 35  1  0  0  0  0
  3 36  1  0  0  0  0
  4  5  1  0  0  0  0
  4 37  1  0  0  0  0
  4 38  1  0  0  0  0
  5  6  1  0  0  0  0
  5 30  1  0  0  0  0
  6  7  1  0  0  0  0
  6 39  1  0  0  0  0
  6 40  1  0  0  0  0
  7  8  1  0  0  0  0
  7 41  1  0  0  0  0
  7 42  1  0  0  0  0
  8  9  1  0  0  0  0
  8 43  1  0  0  0  0
  8 44  1  0  0  0  0
  9 10  1  0  0  0  0
  9 28  1  0  0  0  0
 10 11  2  0  0  0  0
 10 45  1  0  0  0  0
 11 12  1  0  0  0  0
 11 46  1  0  0  0  0
 12 13  1  0  0  0  0
 12 27  2  0  0  0  0
 13 14  1  0  0  0  0
 13 26  2  0  0  0  0
 14 15  2  0  0  0  0
 14 47  1  0  0  0  0
 15 16  1  0  0  0  0
 16 17  2  0  0  0  0
 16 25  1  0  0  0  0
 17 18  1  0  0  0  0
 17 23  1  0  0  0  0
 18 19  1  0  0  0  0
 18 22  2  0  0  0  0
 19 20  2  0  0  0  0
 19 48  1  0  0  0  0
 20 21  1  0  0  0  0
 20 49  1  0  0  0  0
 21 22  1  0  0  0  0
 22 50  1  0  0  0  0
 23 24  2  0  0  0  0
 23 51  1  0  0  0  0
 24 25  1  0  0  0  0
 25 26  1  0  0  0  0
 26 52  1  0  0  0  0
 27 28  1  0  0  0  0
 27 53  1  0  0  0  0
 28 29  2  0  0  0  0
 30 31  1  0  0  0  0
 30 54  1  0  0  0  0
 30 55  1  0  0  0  0
 31 56  1  0  0  0  0
 31 57  1  0  0  0  0
M  END
$$$$
