CHEMBL515432
 OpenBabel04072215383D

 62 66  0  0  0  0  0  0  0  0999 V2000
    2.5598   -0.1183   -0.0922 C   0  0  0  0  0  0  0  0  0  0  0  0
    1.0585   -0.0851    0.0146 C   0  0  0  0  0  0  0  0  0  0  0  0
    0.3982    1.0406   -0.5085 C   0  0  0  0  0  0  0  0  0  0  0  0
   -0.9921    1.1503   -0.4680 C   0  0  0  0  0  0  0  0  0  0  0  0
   -1.7547    0.1526    0.1227 C   0  0  0  0  0  0  0  0  0  0  0  0
   -3.1698    0.1547    0.1729 N   0  0  0  0  0  0  0  0  0  0  0  0
   -4.0010    1.1991   -0.1910 C   0  0  0  0  0  0  0  0  0  0  0  0
   -3.6227    2.3208   -0.5174 O   0  0  0  0  0  0  0  0  0  0  0  0
   -5.4810    0.9538   -0.1670 C   0  0  0  0  0  0  0  0  0  0  0  0
   -6.0724   -0.2922    0.0702 C   0  0  0  0  0  0  0  0  0  0  0  0
   -7.4672   -0.4201    0.0442 C   0  0  0  0  0  0  0  0  0  0  0  0
   -8.2879    0.6845   -0.2299 C   0  0  0  0  0  0  0  0  0  0  0  0
   -9.7620    0.4801   -0.2351 C   0  0  0  0  0  0  0  0  0  0  0  0
  -10.2090   -0.4130    0.4770 O   0  0  0  0  0  0  0  0  0  0  0  0
  -10.4848    1.2735   -1.1086 N   0  0  0  0  0  0  0  0  0  0  0  0
  -11.8906    1.2433   -1.2913 C   0  0  0  0  0  0  0  0  0  0  0  0
  -12.7510    0.6690   -0.3496 C   0  0  0  0  0  0  0  0  0  0  0  0
  -14.1316    0.6670   -0.5500 C   0  0  0  0  0  0  0  0  0  0  0  0
  -14.6695    1.2655   -1.6828 C   0  0  0  0  0  0  0  0  0  0  0  0
  -13.8260    1.8706   -2.6155 C   0  0  0  0  0  0  0  0  0  0  0  0
  -12.4327    1.8279   -2.4594 C   0  0  0  0  0  0  0  0  0  0  0  0
  -11.6182    2.5019   -3.3993 N   0  0  0  0  0  0  0  0  0  0  0  0
   -7.7080    1.9328   -0.4503 C   0  0  0  0  0  0  0  0  0  0  0  0
   -6.3157    2.0597   -0.4205 C   0  0  0  0  0  0  0  0  0  0  0  0
   -1.0954   -0.9511    0.6774 C   0  0  0  0  0  0  0  0  0  0  0  0
    0.3049   -1.1093    0.6298 C   0  0  0  0  0  0  0  0  0  0  0  0
    0.9407   -2.2765    1.1165 N   0  0  0  0  0  0  0  0  0  0  0  0
    0.3746   -3.4829    1.3745 C   0  0  0  0  0  0  0  0  0  0  0  0
   -0.9090   -3.7516    1.4587 N   0  0  0  0  0  0  0  0  0  0  0  0
   -1.1212   -5.0833    1.7181 C   0  0  0  0  0  0  0  0  0  0  0  0
    0.0074   -5.8714    1.8191 C   0  0  0  0  0  0  0  0  0  0  0  0
    0.1006   -7.3132    2.0618 C   0  0  0  0  0  0  0  0  0  0  0  0
   -0.9335   -8.1720    1.6644 C   0  0  0  0  0  0  0  0  0  0  0  0
   -0.8624   -9.5359    1.9420 C   0  0  0  0  0  0  0  0  0  0  0  0
    0.2513  -10.0113    2.6105 C   0  0  0  0  0  0  0  0  0  0  0  0
    1.2749   -9.2275    3.0060 N   0  0  0  0  0  0  0  0  0  0  0  0
    1.1745   -7.9038    2.7253 C   0  0  0  0  0  0  0  0  0  0  0  0
    1.3871   -4.8678    1.6015 S   0  0  0  0  0  0  0  0  0  0  0  0
    2.9151    0.5806   -0.8584 H   0  0  0  0  0  0  0  0  0  0  0  0
    2.9179   -1.1078   -0.3908 H   0  0  0  0  0  0  0  0  0  0  0  0
    3.0118    0.1657    0.8629 H   0  0  0  0  0  0  0  0  0  0  0  0
    0.9641    1.8433   -0.9779 H   0  0  0  0  0  0  0  0  0  0  0  0
   -1.4447    2.0223   -0.9273 H   0  0  0  0  0  0  0  0  0  0  0  0
   -3.5791   -0.6910    0.5400 H   0  0  0  0  0  0  0  0  0  0  0  0
   -5.4932   -1.1869    0.2694 H   0  0  0  0  0  0  0  0  0  0  0  0
   -7.9190   -1.3939    0.2346 H   0  0  0  0  0  0  0  0  0  0  0  0
   -9.9928    1.8707   -1.7534 H   0  0  0  0  0  0  0  0  0  0  0  0
  -12.3744    0.2393    0.5734 H   0  0  0  0  0  0  0  0  0  0  0  0
  -14.7810    0.2107    0.1925 H   0  0  0  0  0  0  0  0  0  0  0  0
  -15.7454    1.2701   -1.8345 H   0  0  0  0  0  0  0  0  0  0  0  0
  -14.2691    2.3527   -3.4825 H   0  0  0  0  0  0  0  0  0  0  0  0
  -12.1118    2.6929   -4.2676 H   0  0  0  0  0  0  0  0  0  0  0  0
  -10.7563    2.0026   -3.5882 H   0  0  0  0  0  0  0  0  0  0  0  0
   -8.3122    2.8206   -0.6177 H   0  0  0  0  0  0  0  0  0  0  0  0
   -5.8770    3.0422   -0.5944 H   0  0  0  0  0  0  0  0  0  0  0  0
   -1.7018   -1.7000    1.1744 H   0  0  0  0  0  0  0  0  0  0  0  0
    1.9503   -2.2426    1.1184 H   0  0  0  0  0  0  0  0  0  0  0  0
   -2.1409   -5.4306    1.8299 H   0  0  0  0  0  0  0  0  0  0  0  0
   -1.8037   -7.7945    1.1326 H   0  0  0  0  0  0  0  0  0  0  0  0
   -1.6594  -10.2087    1.6454 H   0  0  0  0  0  0  0  0  0  0  0  0
    0.3512  -11.0649    2.8548 H   0  0  0  0  0  0  0  0  0  0  0  0
    2.0146   -7.3170    3.0863 H   0  0  0  0  0  0  0  0  0  0  0  0
  1  2  1  0  0  0  0
  1 39  1  0  0  0  0
  1 40  1  0  0  0  0
  1 41  1  0  0  0  0
  2  3  1  0  0  0  0
  2 26  2  0  0  0  0
  3  4  2  0  0  0  0
  3 42  1  0  0  0  0
  4  5  1  0  0  0  0
  4 43  1  0  0  0  0
  5  6  1  0  0  0  0
  5 25  2  0  0  0  0
  6  7  1  0  0  0  0
  6 44  1  0  0  0  0
  7  8  2  0  0  0  0
  7  9  1  0  0  0  0
  9 10  1  0  0  0  0
  9 24  2  0  0  0  0
 10 11  2  0  0  0  0
 10 45  1  0  0  0  0
 11 12  1  0  0  0  0
 11 46  1  0  0  0  0
 12 13  1  0  0  0  0
 12 23  2  0  0  0  0
 13 14  2  0  0  0  0
 13 15  1  0  0  0  0
 15 16  1  0  0  0  0
 15 47  1  0  0  0  0
 16 17  1  0  0  0  0
 16 21  2  0  0  0  0
 17 18  2  0  0  0  0
 17 48  1  0  0  0  0
 18 19  1  0  0  0  0
 18 49  1  0  0  0  0
 19 20  2  0  0  0  0
 19 50  1  0  0  0  0
 20 21  1  0  0  0  0
 20 51  1  0  0  0  0
 21 22  1  0  0  0  0
 22 52  1  0  0  0  0
 22 53  1  0  0  0  0
 23 24  1  0  0  0  0
 23 54  1  0  0  0  0
 24 55  1  0  0  0  0
 25 26  1  0  0  0  0
 25 56  1  0  0  0  0
 26 27  1  0  0  0  0
 27 28  1  0  0  0  0
 27 57  1  0  0  0  0
 28 29  2  0  0  0  0
 28 38  1  0  0  0  0
 29 30  1  0  0  0  0
 30 31  2  0  0  0  0
 30 58  1  0  0  0  0
 31 32  1  0  0  0  0
 31 38  1  0  0  0  0
 32 33  1  0  0  0  0
 32 37  2  0  0  0  0
 33 34  2  0  0  0  0
 33 59  1  0  0  0  0
 34 35  1  0  0  0  0
 34 60  1  0  0  0  0
 35 36  2  0  0  0  0
 35 61  1  0  0  0  0
 36 37  1  0  0  0  0
 37 62  1  0  0  0  0
M  END
$$$$
