CHEMBL3353337
 OpenBabel04072215363D

 31 34  0  0  0  0  0  0  0  0999 V2000
   -2.9799    0.9770    0.0755 O   0  0  0  0  0  0  0  0  0  0  0  0
   -1.8070    0.6622    0.0645 C   0  0  0  0  0  0  0  0  0  0  0  0
   -0.7246    1.5288    0.0765 N   0  0  0  0  0  0  0  0  0  0  0  0
    0.4829    0.8395    0.0530 C   0  0  0  0  0  0  0  0  0  0  0  0
    1.7471    1.3931    0.0450 C   0  0  0  0  0  0  0  0  0  0  0  0
    2.8308    0.5136    0.0097 C   0  0  0  0  0  0  0  0  0  0  0  0
    2.6256   -0.8790   -0.0138 C   0  0  0  0  0  0  0  0  0  0  0  0
    1.3319   -1.4179   -0.0036 C   0  0  0  0  0  0  0  0  0  0  0  0
    0.2611   -0.5416    0.0299 C   0  0  0  0  0  0  0  0  0  0  0  0
   -1.1970   -0.7186    0.0349 C   0  0  0  0  0  0  0  0  0  0  0  0
   -1.8520   -1.8870    0.0041 C   0  0  0  0  0  0  0  0  0  0  0  0
   -3.3111   -2.0365   -0.0243 C   0  0  0  0  0  0  0  0  0  0  0  0
   -4.0396   -2.0689    1.1710 C   0  0  0  0  0  0  0  0  0  0  0  0
   -5.4308   -2.2516    1.1660 C   0  0  0  0  0  0  0  0  0  0  0  0
   -6.0883   -2.4055   -0.0661 C   0  0  0  0  0  0  0  0  0  0  0  0
   -7.4168   -2.6224   -0.4953 C   0  0  0  0  0  0  0  0  0  0  0  0
   -7.5257   -2.6972   -1.8249 N   0  0  0  0  0  0  0  0  0  0  0  0
   -6.2627   -2.5085   -2.2494 N   0  0  0  0  0  0  0  0  0  0  0  0
   -5.3486   -2.3513   -1.2412 C   0  0  0  0  0  0  0  0  0  0  0  0
   -3.9613   -2.1651   -1.2616 C   0  0  0  0  0  0  0  0  0  0  0  0
   -0.8354    2.5304    0.0946 H   0  0  0  0  0  0  0  0  0  0  0  0
    1.8997    2.4658    0.0608 H   0  0  0  0  0  0  0  0  0  0  0  0
    3.8451    0.9078   -0.0013 H   0  0  0  0  0  0  0  0  0  0  0  0
    3.4871   -1.5435   -0.0436 H   0  0  0  0  0  0  0  0  0  0  0  0
    1.1886   -2.4927   -0.0251 H   0  0  0  0  0  0  0  0  0  0  0  0
   -1.3104   -2.8280   -0.0190 H   0  0  0  0  0  0  0  0  0  0  0  0
   -3.5311   -1.9461    2.1248 H   0  0  0  0  0  0  0  0  0  0  0  0
   -5.9851   -2.2722    2.0992 H   0  0  0  0  0  0  0  0  0  0  0  0
   -8.3067   -2.7340    0.1101 H   0  0  0  0  0  0  0  0  0  0  0  0
   -6.0873   -2.5056   -3.2472 H   0  0  0  0  0  0  0  0  0  0  0  0
   -3.4125   -2.1213   -2.1965 H   0  0  0  0  0  0  0  0  0  0  0  0
  1  2  2  0  0  0  0
  2  3  1  0  0  0  0
  2 10  1  0  0  0  0
  3  4  1  0  0  0  0
  3 21  1  0  0  0  0
  4  5  1  0  0  0  0
  4  9  2  0  0  0  0
  5  6  2  0  0  0  0
  5 22  1  0  0  0  0
  6  7  1  0  0  0  0
  6 23  1  0  0  0  0
  7  8  2  0  0  0  0
  7 24  1  0  0  0  0
  8  9  1  0  0  0  0
  8 25  1  0  0  0  0
  9 10  1  0  0  0  0
 10 11  2  0  0  0  0
 11 12  1  0  0  0  0
 11 26  1  0  0  0  0
 12 13  1  0  0  0  0
 12 20  2  0  0  0  0
 13 14  2  0  0  0  0
 13 27  1  0  0  0  0
 14 15  1  0  0  0  0
 14 28  1  0  0  0  0
 15 16  1  0  0  0  0
 15 19  2  0  0  0  0
 16 17  2  0  0  0  0
 16 29  1  0  0  0  0
 17 18  1  0  0  0  0
 18 19  1  0  0  0  0
 18 30  1  0  0  0  0
 19 20  1  0  0  0  0
 20 31  1  0  0  0  0
M  END
$$$$
