CHEMBL201512
 OpenBabel04072215363D

 40 42  0  0  0  0  0  0  0  0999 V2000
    1.0531   -0.1986    0.0795 C   0  0  0  0  0  0  0  0  0  0  0  0
    2.4384    0.0522   -0.1155 O   0  0  0  0  0  0  0  0  0  0  0  0
    3.1030    0.7606    0.8557 C   0  0  0  0  0  0  0  0  0  0  0  0
    2.6543    0.8211    2.1798 C   0  0  0  0  0  0  0  0  0  0  0  0
    3.4516    1.3912    3.1811 C   0  0  0  0  0  0  0  0  0  0  0  0
    3.0558    1.2471    4.5768 C   0  0  0  0  0  0  0  0  0  0  0  0
    3.4065    0.2596    5.4202 C   0  0  0  0  0  0  0  0  0  0  0  0
    4.2272   -0.8873    5.2016 C   0  0  0  0  0  0  0  0  0  0  0  0
    5.0601   -1.5436    6.1466 C   0  0  0  0  0  0  0  0  0  0  0  0
    5.6676   -2.6022    5.5090 C   0  0  0  0  0  0  0  0  0  0  0  0
    5.2347   -2.6203    4.2114 N   0  0  0  0  0  0  0  0  0  0  0  0
    4.3557   -1.5861    4.0169 C   0  0  0  0  0  0  0  0  0  0  0  0
    2.7497    0.5692    6.7159 C   0  0  0  0  0  0  0  0  0  0  0  0
    2.7983   -0.0891    7.7416 O   0  0  0  0  0  0  0  0  0  0  0  0
    2.0560    1.7173    6.5583 N   0  0  0  0  0  0  0  0  0  0  0  0
    2.1733    2.1794    5.2994 C   0  0  0  0  0  0  0  0  0  0  0  0
    1.6426    3.1705    4.8358 O   0  0  0  0  0  0  0  0  0  0  0  0
    4.6905    1.9452    2.8529 C   0  0  0  0  0  0  0  0  0  0  0  0
    5.1500    1.9025    1.5357 C   0  0  0  0  0  0  0  0  0  0  0  0
    6.3666    2.4171    1.1578 O   0  0  0  0  0  0  0  0  0  0  0  0
    7.4012    2.3188    2.1352 C   0  0  0  0  0  0  0  0  0  0  0  0
    4.3464    1.3331    0.5223 C   0  0  0  0  0  0  0  0  0  0  0  0
    4.9126    1.3134   -0.7336 O   0  0  0  0  0  0  0  0  0  0  0  0
    4.0173    1.4372   -1.8327 C   0  0  0  0  0  0  0  0  0  0  0  0
    0.6877   -0.7295   -0.8051 H   0  0  0  0  0  0  0  0  0  0  0  0
    0.4984    0.7411    0.1652 H   0  0  0  0  0  0  0  0  0  0  0  0
    0.8721   -0.8493    0.9398 H   0  0  0  0  0  0  0  0  0  0  0  0
    1.7215    0.3541    2.4775 H   0  0  0  0  0  0  0  0  0  0  0  0
    5.2052   -1.2780    7.1868 H   0  0  0  0  0  0  0  0  0  0  0  0
    6.3659   -3.3479    5.8678 H   0  0  0  0  0  0  0  0  0  0  0  0
    5.5098   -3.2917    3.5057 H   0  0  0  0  0  0  0  0  0  0  0  0
    3.9042   -1.4611    3.0430 H   0  0  0  0  0  0  0  0  0  0  0  0
    1.4947    2.1448    7.2754 H   0  0  0  0  0  0  0  0  0  0  0  0
    5.2941    2.3906    3.6415 H   0  0  0  0  0  0  0  0  0  0  0  0
    8.3562    2.5010    1.6325 H   0  0  0  0  0  0  0  0  0  0  0  0
    7.4429    1.3188    2.5805 H   0  0  0  0  0  0  0  0  0  0  0  0
    7.2820    3.0863    2.9055 H   0  0  0  0  0  0  0  0  0  0  0  0
    4.5796    1.8523   -2.6739 H   0  0  0  0  0  0  0  0  0  0  0  0
    3.1858    2.1191   -1.6237 H   0  0  0  0  0  0  0  0  0  0  0  0
    3.6581    0.4527   -2.1444 H   0  0  0  0  0  0  0  0  0  0  0  0
  1  2  1  0  0  0  0
  1 25  1  0  0  0  0
  1 26  1  0  0  0  0
  1 27  1  0  0  0  0
  2  3  1  0  0  0  0
  3  4  1  0  0  0  0
  3 22  2  0  0  0  0
  4  5  2  0  0  0  0
  4 28  1  0  0  0  0
  5  6  1  0  0  0  0
  5 18  1  0  0  0  0
  6  7  2  0  0  0  0
  6 16  1  0  0  0  0
  7  8  1  0  0  0  0
  7 13  1  0  0  0  0
  8  9  1  0  0  0  0
  8 12  2  0  0  0  0
  9 10  2  0  0  0  0
  9 29  1  0  0  0  0
 10 11  1  0  0  0  0
 10 30  1  0  0  0  0
 11 12  1  0  0  0  0
 11 31  1  0  0  0  0
 12 32  1  0  0  0  0
 13 14  2  0  0  0  0
 13 15  1  0  0  0  0
 15 16  1  0  0  0  0
 15 33  1  0  0  0  0
 16 17  2  0  0  0  0
 18 19  2  0  0  0  0
 18 34  1  0  0  0  0
 19 20  1  0  0  0  0
 19 22  1  0  0  0  0
 20 21  1  0  0  0  0
 21 35  1  0  0  0  0
 21 36  1  0  0  0  0
 21 37  1  0  0  0  0
 22 23  1  0  0  0  0
 23 24  1  0  0  0  0
 24 38  1  0  0  0  0
 24 39  1  0  0  0  0
 24 40  1  0  0  0  0
M  END
$$$$
