CHEMBL273048
 OpenBabel04072215363D

 49 52  0  0  0  0  0  0  0  0999 V2000
    2.8171    0.8329   -2.3207 C   0  0  0  0  0  0  0  0  0  0  0  0
    1.4131    0.5387   -1.8777 C   0  0  0  0  0  0  0  0  0  0  0  0
    0.9210   -0.7694   -1.9555 C   0  0  0  0  0  0  0  0  0  0  0  0
   -0.3636   -1.0519   -1.5088 C   0  0  0  0  0  0  0  0  0  0  0  0
   -1.1696   -0.0375   -1.0023 C   0  0  0  0  0  0  0  0  0  0  0  0
   -2.3345   -0.4292   -0.4711 F   0  0  0  0  0  0  0  0  0  0  0  0
   -0.7370    1.2980   -0.9705 C   0  0  0  0  0  0  0  0  0  0  0  0
   -1.5248    2.4009   -0.5504 N   0  0  0  0  0  0  0  0  0  0  0  0
   -2.9012    2.4167   -0.4406 C   0  0  0  0  0  0  0  0  0  0  0  0
   -3.6426    1.4813   -0.7005 O   0  0  0  0  0  0  0  0  0  0  0  0
   -3.3916    3.6656   -0.0638 N   0  0  0  0  0  0  0  0  0  0  0  0
   -4.7848    3.8362    0.1378 C   0  0  0  0  0  0  0  0  0  0  0  0
   -5.5246    2.9262    0.8945 C   0  0  0  0  0  0  0  0  0  0  0  0
   -6.9199    3.0185    0.9558 C   0  0  0  0  0  0  0  0  0  0  0  0
   -7.6190    4.0274    0.2727 C   0  0  0  0  0  0  0  0  0  0  0  0
   -9.0997    4.0725    0.2740 C   0  0  0  0  0  0  0  0  0  0  0  0
   -9.8504    3.7257    1.4253 C   0  0  0  0  0  0  0  0  0  0  0  0
  -11.2494    3.8101    1.4789 C   0  0  0  0  0  0  0  0  0  0  0  0
  -11.9812    4.3209    0.4098 C   0  0  0  0  0  0  0  0  0  0  0  0
  -13.3265    4.4961    0.3548 O   0  0  0  0  0  0  0  0  0  0  0  0
  -14.0624    4.7591    1.5367 C   0  0  0  0  0  0  0  0  0  0  0  0
  -13.2973    5.0099    2.6193 F   0  0  0  0  0  0  0  0  0  0  0  0
  -14.8462    5.8409    1.3286 F   0  0  0  0  0  0  0  0  0  0  0  0
  -14.8621    3.7043    1.8060 F   0  0  0  0  0  0  0  0  0  0  0  0
  -11.2325    4.5938   -0.7397 C   0  0  0  0  0  0  0  0  0  0  0  0
  -11.7586    5.0365   -1.9138 O   0  0  0  0  0  0  0  0  0  0  0  0
  -10.7658    5.1281   -2.8632 N   0  0  0  0  0  0  0  0  0  0  0  0
   -9.6466    4.7317   -2.2579 C   0  0  0  0  0  0  0  0  0  0  0  0
   -8.4801    4.5763   -2.9182 N   0  0  0  0  0  0  0  0  0  0  0  0
   -9.8558    4.4517   -0.8692 C   0  0  0  0  0  0  0  0  0  0  0  0
   -6.8390    4.9959   -0.3892 C   0  0  0  0  0  0  0  0  0  0  0  0
   -5.4412    4.9017   -0.4674 C   0  0  0  0  0  0  0  0  0  0  0  0
    0.5804    1.5662   -1.3806 C   0  0  0  0  0  0  0  0  0  0  0  0
    3.3217   -0.0730   -2.6705 H   0  0  0  0  0  0  0  0  0  0  0  0
    3.3986    1.2347   -1.4868 H   0  0  0  0  0  0  0  0  0  0  0  0
    2.8125    1.5523   -3.1455 H   0  0  0  0  0  0  0  0  0  0  0  0
    1.5357   -1.5762   -2.3442 H   0  0  0  0  0  0  0  0  0  0  0  0
   -0.7465   -2.0679   -1.5301 H   0  0  0  0  0  0  0  0  0  0  0  0
   -1.0537    3.2850   -0.4348 H   0  0  0  0  0  0  0  0  0  0  0  0
   -2.9110    4.4437   -0.4914 H   0  0  0  0  0  0  0  0  0  0  0  0
   -5.0257    2.1135    1.4184 H   0  0  0  0  0  0  0  0  0  0  0  0
   -7.4495    2.2559    1.5228 H   0  0  0  0  0  0  0  0  0  0  0  0
   -9.3352    3.3832    2.3225 H   0  0  0  0  0  0  0  0  0  0  0  0
  -11.7375    3.4728    2.3910 H   0  0  0  0  0  0  0  0  0  0  0  0
   -8.5404    4.5874   -3.9311 H   0  0  0  0  0  0  0  0  0  0  0  0
   -7.8141    3.8873   -2.5798 H   0  0  0  0  0  0  0  0  0  0  0  0
   -7.3195    5.8300   -0.9012 H   0  0  0  0  0  0  0  0  0  0  0  0
   -4.9007    5.6267   -1.0699 H   0  0  0  0  0  0  0  0  0  0  0  0
    0.9723    2.5790   -1.3479 H   0  0  0  0  0  0  0  0  0  0  0  0
  1  2  1  0  0  0  0
  1 34  1  0  0  0  0
  1 35  1  0  0  0  0
  1 36  1  0  0  0  0
  2  3  1  0  0  0  0
  2 33  2  0  0  0  0
  3  4  2  0  0  0  0
  3 37  1  0  0  0  0
  4  5  1  0  0  0  0
  4 38  1  0  0  0  0
  5  6  1  0  0  0  0
  5  7  2  0  0  0  0
  7  8  1  0  0  0  0
  7 33  1  0  0  0  0
  8  9  1  0  0  0  0
  8 39  1  0  0  0  0
  9 10  2  0  0  0  0
  9 11  1  0  0  0  0
 11 12  1  0  0  0  0
 11 40  1  0  0  0  0
 12 13  1  0  0  0  0
 12 32  2  0  0  0  0
 13 14  2  0  0  0  0
 13 41  1  0  0  0  0
 14 15  1  0  0  0  0
 14 42  1  0  0  0  0
 15 16  1  0  0  0  0
 15 31  2  0  0  0  0
 16 17  1  0  0  0  0
 16 30  2  0  0  0  0
 17 18  2  0  0  0  0
 17 43  1  0  0  0  0
 18 19  1  0  0  0  0
 18 44  1  0  0  0  0
 19 20  1  0  0  0  0
 19 25  2  0  0  0  0
 20 21  1  0  0  0  0
 21 22  1  0  0  0  0
 21 23  1  0  0  0  0
 21 24  1  0  0  0  0
 25 26  1  0  0  0  0
 25 30  1  0  0  0  0
 26 27  1  0  0  0  0
 27 28  2  0  0  0  0
 28 29  1  0  0  0  0
 28 30  1  0  0  0  0
 29 45  1  0  0  0  0
 29 46  1  0  0  0  0
 31 32  1  0  0  0  0
 31 47  1  0  0  0  0
 32 48  1  0  0  0  0
 33 49  1  0  0  0  0
M  END
$$$$
