CHEMBL3937703
 OpenBabel04072215373D

 55 58  0  0  0  0  0  0  0  0999 V2000
    2.7526   -3.3576    5.5339 C   0  0  0  0  0  0  0  0  0  0  0  0
    3.7815   -3.2012    4.4257 C   0  0  0  0  0  0  0  0  0  0  0  0
    4.6385   -2.2048    4.7960 F   0  0  0  0  0  0  0  0  0  0  0  0
    4.5399   -4.3363    4.4008 F   0  0  0  0  0  0  0  0  0  0  0  0
    3.1371   -2.9239    3.0859 C   0  0  0  0  0  0  0  0  0  0  0  0
    2.8639   -1.6052    2.7016 C   0  0  0  0  0  0  0  0  0  0  0  0
    2.2939   -1.3551    1.4639 C   0  0  0  0  0  0  0  0  0  0  0  0
    2.0492   -0.0905    1.0951 F   0  0  0  0  0  0  0  0  0  0  0  0
    1.9813   -2.3914    0.5942 C   0  0  0  0  0  0  0  0  0  0  0  0
    2.2312   -3.7184    0.9522 C   0  0  0  0  0  0  0  0  0  0  0  0
    1.9254   -4.8186    0.1149 N   0  0  0  0  0  0  0  0  0  0  0  0
    1.1995   -4.7556   -1.0615 C   0  0  0  0  0  0  0  0  0  0  0  0
    0.7242   -3.7311   -1.5379 O   0  0  0  0  0  0  0  0  0  0  0  0
    0.9957   -6.0117   -1.6269 N   0  0  0  0  0  0  0  0  0  0  0  0
    0.1659   -6.1116   -2.7726 C   0  0  0  0  0  0  0  0  0  0  0  0
    0.3584   -5.2857   -3.8886 C   0  0  0  0  0  0  0  0  0  0  0  0
   -0.5659   -5.2858   -4.9376 C   0  0  0  0  0  0  0  0  0  0  0  0
   -1.6955   -6.1036   -4.8742 C   0  0  0  0  0  0  0  0  0  0  0  0
   -2.6039   -5.9472   -5.9004 O   0  0  0  0  0  0  0  0  0  0  0  0
   -3.3463   -7.0236   -6.3344 C   0  0  0  0  0  0  0  0  0  0  0  0
   -2.8651   -8.3268   -6.3579 C   0  0  0  0  0  0  0  0  0  0  0  0
   -3.7187   -9.3127   -6.7978 C   0  0  0  0  0  0  0  0  0  0  0  0
   -4.9591   -9.0703   -7.2579 N   0  0  0  0  0  0  0  0  0  0  0  0
   -5.4028   -7.8039   -7.2920 C   0  0  0  0  0  0  0  0  0  0  0  0
   -6.6753   -7.5293   -7.8199 N   0  0  0  0  0  0  0  0  0  0  0  0
   -7.5454   -8.4977   -8.2706 C   0  0  0  0  0  0  0  0  0  0  0  0
   -7.4030   -9.7127   -8.2416 O   0  0  0  0  0  0  0  0  0  0  0  0
   -8.7942   -7.9419   -8.8849 C   0  0  0  0  0  0  0  0  0  0  0  0
   -9.9171   -8.8672   -9.3066 C   0  0  0  0  0  0  0  0  0  0  0  0
   -9.0623   -8.2107  -10.3496 C   0  0  0  0  0  0  0  0  0  0  0  0
   -4.6212   -6.7471   -6.8385 C   0  0  0  0  0  0  0  0  0  0  0  0
   -1.8650   -6.9291   -3.7571 C   0  0  0  0  0  0  0  0  0  0  0  0
   -2.9798   -7.6661   -3.6079 F   0  0  0  0  0  0  0  0  0  0  0  0
   -0.9222   -6.9779   -2.7331 C   0  0  0  0  0  0  0  0  0  0  0  0
    2.8146   -3.9758    2.2018 C   0  0  0  0  0  0  0  0  0  0  0  0
    3.2588   -3.5853    6.4783 H   0  0  0  0  0  0  0  0  0  0  0  0
    2.0592   -4.1785    5.3250 H   0  0  0  0  0  0  0  0  0  0  0  0
    2.1778   -2.4376    5.6823 H   0  0  0  0  0  0  0  0  0  0  0  0
    3.1008   -0.7659    3.3501 H   0  0  0  0  0  0  0  0  0  0  0  0
    1.5625   -2.1087   -0.3640 H   0  0  0  0  0  0  0  0  0  0  0  0
    2.2571   -5.7280    0.4067 H   0  0  0  0  0  0  0  0  0  0  0  0
    0.9010   -6.7546   -0.9495 H   0  0  0  0  0  0  0  0  0  0  0  0
    1.2095   -4.6083   -3.9323 H   0  0  0  0  0  0  0  0  0  0  0  0
   -0.4185   -4.6150   -5.7821 H   0  0  0  0  0  0  0  0  0  0  0  0
   -1.8710   -8.5875   -6.0208 H   0  0  0  0  0  0  0  0  0  0  0  0
   -3.4254  -10.3577   -6.7957 H   0  0  0  0  0  0  0  0  0  0  0  0
   -6.9527   -6.5639   -7.8923 H   0  0  0  0  0  0  0  0  0  0  0  0
   -9.1097   -6.9792   -8.4963 H   0  0  0  0  0  0  0  0  0  0  0  0
  -10.9375   -8.5230   -9.1911 H   0  0  0  0  0  0  0  0  0  0  0  0
   -9.7939   -9.9347   -9.1486 H   0  0  0  0  0  0  0  0  0  0  0  0
   -9.5033   -7.4216  -10.9451 H   0  0  0  0  0  0  0  0  0  0  0  0
   -8.3664   -8.8436  -10.8920 H   0  0  0  0  0  0  0  0  0  0  0  0
   -4.9802   -5.7245   -6.8620 H   0  0  0  0  0  0  0  0  0  0  0  0
   -1.1155   -7.6151   -1.8791 H   0  0  0  0  0  0  0  0  0  0  0  0
    3.0244   -4.9995    2.5089 H   0  0  0  0  0  0  0  0  0  0  0  0
  1  2  1  0  0  0  0
  1 36  1  0  0  0  0
  1 37  1  0  0  0  0
  1 38  1  0  0  0  0
  2  3  1  0  0  0  0
  2  4  1  0  0  0  0
  2  5  1  0  0  0  0
  5  6  1  0  0  0  0
  5 35  2  0  0  0  0
  6  7  2  0  0  0  0
  6 39  1  0  0  0  0
  7  8  1  0  0  0  0
  7  9  1  0  0  0  0
  9 10  2  0  0  0  0
  9 40  1  0  0  0  0
 10 11  1  0  0  0  0
 10 35  1  0  0  0  0
 11 12  1  0  0  0  0
 11 41  1  0  0  0  0
 12 13  2  0  0  0  0
 12 14  1  0  0  0  0
 14 15  1  0  0  0  0
 14 42  1  0  0  0  0
 15 16  1  0  0  0  0
 15 34  2  0  0  0  0
 16 17  2  0  0  0  0
 16 43  1  0  0  0  0
 17 18  1  0  0  0  0
 17 44  1  0  0  0  0
 18 19  1  0  0  0  0
 18 32  2  0  0  0  0
 19 20  1  0  0  0  0
 20 21  1  0  0  0  0
 20 31  2  0  0  0  0
 21 22  2  0  0  0  0
 21 45  1  0  0  0  0
 22 23  1  0  0  0  0
 22 46  1  0  0  0  0
 23 24  2  0  0  0  0
 24 25  1  0  0  0  0
 24 31  1  0  0  0  0
 25 26  1  0  0  0  0
 25 47  1  0  0  0  0
 26 27  2  0  0  0  0
 26 28  1  0  0  0  0
 28 29  1  0  0  0  0
 28 30  1  0  0  0  0
 28 48  1  0  0  0  0
 29 30  1  0  0  0  0
 29 49  1  0  0  0  0
 29 50  1  0  0  0  0
 30 51  1  0  0  0  0
 30 52  1  0  0  0  0
 31 53  1  0  0  0  0
 32 33  1  0  0  0  0
 32 34  1  0  0  0  0
 34 54  1  0  0  0  0
 35 55  1  0  0  0  0
M  END
$$$$
