CHEMBL425718
 OpenBabel04072215383D

 58 60  0  0  0  0  0  0  0  0999 V2000
    8.1196    5.9636    4.3845 C   0  0  0  0  0  0  0  0  0  0  0  0
    9.2816    6.5785    3.6221 C   0  0  0  0  0  0  0  0  0  0  0  0
    9.0744    6.5613    2.1849 N   0  0  0  0  0  0  0  0  0  0  0  0
    9.4078    5.4324    1.4670 C   0  0  0  0  0  0  0  0  0  0  0  0
    9.8791    4.4452    2.0172 O   0  0  0  0  0  0  0  0  0  0  0  0
    9.1942    5.5940    0.1110 N   0  0  0  0  0  0  0  0  0  0  0  0
    9.4572    4.6090   -0.8702 C   0  0  0  0  0  0  0  0  0  0  0  0
    9.6231    3.2653   -0.5514 C   0  0  0  0  0  0  0  0  0  0  0  0
    9.9693    2.3320   -1.5306 C   0  0  0  0  0  0  0  0  0  0  0  0
   10.1432    2.6892   -2.8733 C   0  0  0  0  0  0  0  0  0  0  0  0
   10.5047    1.6969   -3.8103 N   0  0  0  0  0  0  0  0  0  0  0  0
   10.0878    1.8678   -5.2028 C   0  0  0  0  0  0  0  0  0  0  0  0
   11.3692    0.5969   -3.5409 C   0  0  0  0  0  0  0  0  0  0  0  0
   11.2365   -0.5944   -4.2336 C   0  0  0  0  0  0  0  0  0  0  0  0
   12.0839   -1.6171   -3.9014 C   0  0  0  0  0  0  0  0  0  0  0  0
   13.0301   -1.5038   -2.9693 N   0  0  0  0  0  0  0  0  0  0  0  0
   13.1190   -0.3323   -2.3220 C   0  0  0  0  0  0  0  0  0  0  0  0
   14.0882   -0.1985   -1.3235 N   0  0  0  0  0  0  0  0  0  0  0  0
   15.2910   -0.9140   -1.2121 C   0  0  0  0  0  0  0  0  0  0  0  0
   15.8409   -1.1817    0.0426 C   0  0  0  0  0  0  0  0  0  0  0  0
   17.0023   -1.9527    0.1568 C   0  0  0  0  0  0  0  0  0  0  0  0
   17.6387   -2.4510   -0.9836 C   0  0  0  0  0  0  0  0  0  0  0  0
   17.1125   -2.1994   -2.2538 C   0  0  0  0  0  0  0  0  0  0  0  0
   17.7861   -2.6564   -3.5204 C   0  0  0  0  0  0  0  0  0  0  0  0
   17.8673   -4.4360   -3.6743 S   0  0  0  0  0  0  0  0  0  0  0  0
   16.1811   -4.9932   -3.5853 C   0  0  0  0  0  0  0  0  0  0  0  0
   18.3262   -4.7186   -5.0255 O   0  0  0  0  0  0  0  0  0  0  0  0
   18.5884   -4.9937   -2.5457 O   0  0  0  0  0  0  0  0  0  0  0  0
   15.9489   -1.4205   -2.3450 C   0  0  0  0  0  0  0  0  0  0  0  0
   12.3114    0.7112   -2.5687 N   0  0  0  0  0  0  0  0  0  0  0  0
    9.9209    4.0396   -3.1944 C   0  0  0  0  0  0  0  0  0  0  0  0
    9.5728    4.9866   -2.2089 C   0  0  0  0  0  0  0  0  0  0  0  0
    8.3283    5.9677    5.4594 H   0  0  0  0  0  0  0  0  0  0  0  0
    7.9393    4.9280    4.0776 H   0  0  0  0  0  0  0  0  0  0  0  0
    7.1981    6.5286    4.2129 H   0  0  0  0  0  0  0  0  0  0  0  0
   10.2029    6.0350    3.8602 H   0  0  0  0  0  0  0  0  0  0  0  0
    9.4208    7.6215    3.9203 H   0  0  0  0  0  0  0  0  0  0  0  0
    8.3652    7.1667    1.8007 H   0  0  0  0  0  0  0  0  0  0  0  0
    9.0896    6.5443   -0.2098 H   0  0  0  0  0  0  0  0  0  0  0  0
    9.4957    2.8949    0.4597 H   0  0  0  0  0  0  0  0  0  0  0  0
   10.0996    1.2989   -1.2179 H   0  0  0  0  0  0  0  0  0  0  0  0
    9.3965    2.7021   -5.3568 H   0  0  0  0  0  0  0  0  0  0  0  0
    9.5330    0.9947   -5.5629 H   0  0  0  0  0  0  0  0  0  0  0  0
   10.9566    2.0257   -5.8518 H   0  0  0  0  0  0  0  0  0  0  0  0
   10.4736   -0.7667   -4.9777 H   0  0  0  0  0  0  0  0  0  0  0  0
   12.0189   -2.5864   -4.3833 H   0  0  0  0  0  0  0  0  0  0  0  0
   14.0592    0.7172   -0.8991 H   0  0  0  0  0  0  0  0  0  0  0  0
   15.3482   -0.8270    0.9449 H   0  0  0  0  0  0  0  0  0  0  0  0
   17.4103   -2.1745    1.1407 H   0  0  0  0  0  0  0  0  0  0  0  0
   18.5496   -3.0358   -0.8621 H   0  0  0  0  0  0  0  0  0  0  0  0
   18.8061   -2.2652   -3.5743 H   0  0  0  0  0  0  0  0  0  0  0  0
   17.2450   -2.3016   -4.4056 H   0  0  0  0  0  0  0  0  0  0  0  0
   15.5996   -4.4856   -4.3571 H   0  0  0  0  0  0  0  0  0  0  0  0
   15.7794   -4.7942   -2.5918 H   0  0  0  0  0  0  0  0  0  0  0  0
   16.1793   -6.0702   -3.7747 H   0  0  0  0  0  0  0  0  0  0  0  0
   15.5478   -1.1823   -3.3286 H   0  0  0  0  0  0  0  0  0  0  0  0
   10.0518    4.3985   -4.2110 H   0  0  0  0  0  0  0  0  0  0  0  0
    9.4348    6.0217   -2.5111 H   0  0  0  0  0  0  0  0  0  0  0  0
  1  2  1  0  0  0  0
  1 33  1  0  0  0  0
  1 34  1  0  0  0  0
  1 35  1  0  0  0  0
  2  3  1  0  0  0  0
  2 36  1  0  0  0  0
  2 37  1  0  0  0  0
  3  4  1  0  0  0  0
  3 38  1  0  0  0  0
  4  5  2  0  0  0  0
  4  6  1  0  0  0  0
  6  7  1  0  0  0  0
  6 39  1  0  0  0  0
  7  8  1  0  0  0  0
  7 32  2  0  0  0  0
  8  9  2  0  0  0  0
  8 40  1  0  0  0  0
  9 10  1  0  0  0  0
  9 41  1  0  0  0  0
 10 11  1  0  0  0  0
 10 31  2  0  0  0  0
 11 12  1  0  0  0  0
 11 13  1  0  0  0  0
 12 42  1  0  0  0  0
 12 43  1  0  0  0  0
 12 44  1  0  0  0  0
 13 14  1  0  0  0  0
 13 30  2  0  0  0  0
 14 15  2  0  0  0  0
 14 45  1  0  0  0  0
 15 16  1  0  0  0  0
 15 46  1  0  0  0  0
 16 17  2  0  0  0  0
 17 18  1  0  0  0  0
 17 30  1  0  0  0  0
 18 19  1  0  0  0  0
 18 47  1  0  0  0  0
 19 20  1  0  0  0  0
 19 29  2  0  0  0  0
 20 21  2  0  0  0  0
 20 48  1  0  0  0  0
 21 22  1  0  0  0  0
 21 49  1  0  0  0  0
 22 23  2  0  0  0  0
 22 50  1  0  0  0  0
 23 24  1  0  0  0  0
 23 29  1  0  0  0  0
 24 25  1  0  0  0  0
 24 51  1  0  0  0  0
 24 52  1  0  0  0  0
 25 26  1  0  0  0  0
 25 27  2  0  0  0  0
 25 28  2  0  0  0  0
 26 53  1  0  0  0  0
 26 54  1  0  0  0  0
 26 55  1  0  0  0  0
 29 56  1  0  0  0  0
 31 32  1  0  0  0  0
 31 57  1  0  0  0  0
 32 58  1  0  0  0  0
M  END
$$$$
