CHEMBL13485
 OpenBabel04072215363D

 56 58  0  0  0  0  0  0  0  0999 V2000
    4.6482    1.2695   -1.9847 C   0  0  0  0  0  0  0  0  0  0  0  0
    4.3126   -0.1109   -1.4342 C   0  0  0  0  0  0  0  0  0  0  0  0
    4.7599   -0.3776   -0.0526 N   0  0  0  0  0  0  0  0  0  0  0  0
    4.2433    0.5997    0.9281 C   0  0  0  0  0  0  0  0  0  0  0  0
    2.7286    0.6407    1.1392 C   0  0  0  0  0  0  0  0  0  0  0  0
    4.4264   -1.7687    0.3434 C   0  0  0  0  0  0  0  0  0  0  0  0
    5.0285   -2.8816   -0.5441 C   0  0  0  0  0  0  0  0  0  0  0  0
    6.4751   -2.9081   -0.5890 N   0  0  0  0  0  0  0  0  0  0  0  0
    7.1209   -3.8542   -1.3580 C   0  0  0  0  0  0  0  0  0  0  0  0
    6.4940   -4.6893   -2.0145 O   0  0  0  0  0  0  0  0  0  0  0  0
    8.5875   -3.8164   -1.3645 C   0  0  0  0  0  0  0  0  0  0  0  0
    9.4211   -3.3709   -0.3477 C   0  0  0  0  0  0  0  0  0  0  0  0
    9.1865   -2.8134    1.0116 C   0  0  0  0  0  0  0  0  0  0  0  0
   10.7124   -3.5841   -0.7542 N   0  0  0  0  0  0  0  0  0  0  0  0
   10.7779   -4.1482   -2.0034 C   0  0  0  0  0  0  0  0  0  0  0  0
   12.0497   -4.4936   -2.5626 C   0  0  0  0  0  0  0  0  0  0  0  0
   13.1984   -3.8124   -2.3885 C   0  0  0  0  0  0  0  0  0  0  0  0
   13.3828   -2.5063   -1.6379 C   0  0  0  0  0  0  0  0  0  0  0  0
   12.5614   -1.8112   -1.0743 O   0  0  0  0  0  0  0  0  0  0  0  0
   14.7334   -2.2494   -1.6650 N   0  0  0  0  0  0  0  0  0  0  0  0
   15.4218   -3.2183   -2.3702 C   0  0  0  0  0  0  0  0  0  0  0  0
   16.7883   -3.2256   -2.5677 C   0  0  0  0  0  0  0  0  0  0  0  0
   17.3133   -4.2822   -3.3054 C   0  0  0  0  0  0  0  0  0  0  0  0
   16.4635   -5.2846   -3.8076 C   0  0  0  0  0  0  0  0  0  0  0  0
   17.1632   -6.5778   -4.7085 Cl  0  0  0  0  0  0  0  0  0  0  0  0
   15.0727   -5.2557   -3.5901 C   0  0  0  0  0  0  0  0  0  0  0  0
   14.5515   -4.2001   -2.8577 C   0  0  0  0  0  0  0  0  0  0  0  0
    9.4619   -4.3282   -2.4111 C   0  0  0  0  0  0  0  0  0  0  0  0
    9.0016   -4.9351   -3.6946 C   0  0  0  0  0  0  0  0  0  0  0  0
    4.5147    1.2609   -3.0731 H   0  0  0  0  0  0  0  0  0  0  0  0
    5.6883    1.5426   -1.7827 H   0  0  0  0  0  0  0  0  0  0  0  0
    3.9890    2.0420   -1.5793 H   0  0  0  0  0  0  0  0  0  0  0  0
    4.8173   -0.8107   -2.1055 H   0  0  0  0  0  0  0  0  0  0  0  0
    3.2372   -0.2903   -1.5388 H   0  0  0  0  0  0  0  0  0  0  0  0
    4.5811    1.6045    0.6492 H   0  0  0  0  0  0  0  0  0  0  0  0
    4.7193    0.4151    1.9014 H   0  0  0  0  0  0  0  0  0  0  0  0
    2.1760    0.6397    0.1960 H   0  0  0  0  0  0  0  0  0  0  0  0
    2.4520    1.5569    1.6729 H   0  0  0  0  0  0  0  0  0  0  0  0
    2.3858   -0.2064    1.7421 H   0  0  0  0  0  0  0  0  0  0  0  0
    3.3375   -1.9051    0.3396 H   0  0  0  0  0  0  0  0  0  0  0  0
    4.7682   -1.9368    1.3734 H   0  0  0  0  0  0  0  0  0  0  0  0
    4.6621   -2.8138   -1.5731 H   0  0  0  0  0  0  0  0  0  0  0  0
    4.6951   -3.8562   -0.1688 H   0  0  0  0  0  0  0  0  0  0  0  0
    6.9842   -2.0752   -0.3222 H   0  0  0  0  0  0  0  0  0  0  0  0
    8.1318   -2.7872    1.2891 H   0  0  0  0  0  0  0  0  0  0  0  0
    9.5826   -1.7951    1.0860 H   0  0  0  0  0  0  0  0  0  0  0  0
    9.6913   -3.4340    1.7592 H   0  0  0  0  0  0  0  0  0  0  0  0
   11.5164   -3.2821   -0.2203 H   0  0  0  0  0  0  0  0  0  0  0  0
   12.0624   -5.3982   -3.1666 H   0  0  0  0  0  0  0  0  0  0  0  0
   15.1321   -1.4422   -1.2119 H   0  0  0  0  0  0  0  0  0  0  0  0
   17.4242   -2.4464   -2.1666 H   0  0  0  0  0  0  0  0  0  0  0  0
   18.3850   -4.3208   -3.4894 H   0  0  0  0  0  0  0  0  0  0  0  0
   14.4429   -6.0472   -3.9836 H   0  0  0  0  0  0  0  0  0  0  0  0
    9.8416   -5.2271   -4.3303 H   0  0  0  0  0  0  0  0  0  0  0  0
    8.3873   -4.2243   -4.2589 H   0  0  0  0  0  0  0  0  0  0  0  0
    8.4064   -5.8324   -3.4969 H   0  0  0  0  0  0  0  0  0  0  0  0
  1  2  1  0  0  0  0
  1 30  1  0  0  0  0
  1 31  1  0  0  0  0
  1 32  1  0  0  0  0
  2  3  1  0  0  0  0
  2 33  1  0  0  0  0
  2 34  1  0  0  0  0
  3  4  1  0  0  0  0
  3  6  1  0  0  0  0
  4  5  1  0  0  0  0
  4 35  1  0  0  0  0
  4 36  1  0  0  0  0
  5 37  1  0  0  0  0
  5 38  1  0  0  0  0
  5 39  1  0  0  0  0
  6  7  1  0  0  0  0
  6 40  1  0  0  0  0
  6 41  1  0  0  0  0
  7  8  1  0  0  0  0
  7 42  1  0  0  0  0
  7 43  1  0  0  0  0
  8  9  1  0  0  0  0
  8 44  1  0  0  0  0
  9 10  2  0  0  0  0
  9 11  1  0  0  0  0
 11 12  2  0  0  0  0
 11 28  1  0  0  0  0
 12 13  1  0  0  0  0
 12 14  1  0  0  0  0
 13 45  1  0  0  0  0
 13 46  1  0  0  0  0
 13 47  1  0  0  0  0
 14 15  1  0  0  0  0
 14 48  1  0  0  0  0
 15 16  1  0  0  0  0
 15 28  2  0  0  0  0
 16 17  2  0  0  0  0
 16 49  1  0  0  0  0
 17 18  1  0  0  0  0
 17 27  1  0  0  0  0
 18 19  2  0  0  0  0
 18 20  1  0  0  0  0
 20 21  1  0  0  0  0
 20 50  1  0  0  0  0
 21 22  1  0  0  0  0
 21 27  2  0  0  0  0
 22 23  2  0  0  0  0
 22 51  1  0  0  0  0
 23 24  1  0  0  0  0
 23 52  1  0  0  0  0
 24 25  1  0  0  0  0
 24 26  2  0  0  0  0
 26 27  1  0  0  0  0
 26 53  1  0  0  0  0
 28 29  1  0  0  0  0
 29 54  1  0  0  0  0
 29 55  1  0  0  0  0
 29 56  1  0  0  0  0
M  END
$$$$
