CHEMBL462023
 OpenBabel04072215383D

 66 71  0  0  1  0  0  0  0  0999 V2000
   -4.3069   -1.6467   12.8888 C   0  0  0  0  0  0  0  0  0  0  0  0
   -3.0732   -2.5155   13.0428 C   0  0  0  0  0  0  0  0  0  0  0  0
   -3.2728   -3.7118   13.9702 C   0  0  0  0  0  0  0  0  0  0  0  0
   -2.5764   -2.9551   11.7521 N   0  0  0  0  0  0  0  0  0  0  0  0
   -3.2326   -3.7163   10.8332 C   0  0  0  0  0  0  0  0  0  0  0  0
   -2.4775   -3.9659    9.7839 N   0  0  0  0  0  0  0  0  0  0  0  0
   -1.2591   -3.4356   10.1019 C   0  0  0  0  0  0  0  0  0  0  0  0
   -0.0669   -3.5502    9.2508 C   0  0  0  0  0  0  0  0  0  0  0  0
   -0.0977   -3.8651    7.9177 C   0  0  0  0  0  0  0  0  0  0  0  0
    1.1208   -3.4739    7.2932 C   0  0  0  0  0  0  0  0  0  0  0  0
    1.3540   -3.5305    5.9606 N   0  0  0  0  0  0  0  0  0  0  0  0
    2.4256   -2.8359    5.5483 C   0  0  0  0  0  0  0  0  0  0  0  0
    3.1984   -2.0024    6.3605 C   0  0  0  0  0  0  0  0  0  0  0  0
    2.9613   -1.9249    7.7424 C   0  0  0  0  0  0  0  0  0  0  0  0
    3.7022   -0.9769    8.4848 O   0  0  0  0  0  0  0  0  0  0  0  0
    3.3089   -0.5890    9.7571 C   0  0  0  0  0  0  0  0  0  0  0  0
    1.9919   -0.4302   10.1709 C   0  0  0  0  0  0  0  0  0  0  0  0
    1.6674   -0.4001   11.5473 C   0  0  0  0  0  0  0  0  0  0  0  0
    2.6384   -0.3685   12.5475 C   0  0  0  0  0  0  0  0  0  0  0  0
    2.3325   -0.4847   13.9507 N   0  0  0  0  0  0  0  0  0  0  0  0
    1.1321   -0.9512   14.4849 C   0  0  0  0  0  0  0  0  0  0  0  0
    0.1901   -1.3752   13.8156 O   0  0  0  0  0  0  0  0  0  0  0  0
    0.9331   -0.9574   16.0081 C   0  0  3  0  0  0  0  0  0  0  0  0
    0.9804    0.4206   16.6257 C   0  0  0  0  0  0  0  0  0  0  0  0
    2.4318    0.5285   17.0444 C   0  0  0  0  0  0  0  0  0  0  0  0
    2.9529    1.6024   17.2664 O   0  0  0  0  0  0  0  0  0  0  0  0
    2.9603   -0.7643   17.1168 N   0  0  0  0  0  0  0  0  0  0  0  0
    4.2811   -1.1121   17.4896 C   0  0  0  0  0  0  0  0  0  0  0  0
    5.2093   -0.1425   17.8989 C   0  0  0  0  0  0  0  0  0  0  0  0
    6.5406   -0.4801   18.1707 C   0  0  0  0  0  0  0  0  0  0  0  0
    6.9661   -1.7974   18.0516 C   0  0  0  0  0  0  0  0  0  0  0  0
    6.0563   -2.7833   17.6922 C   0  0  0  0  0  0  0  0  0  0  0  0
    4.7242   -2.4481   17.4340 C   0  0  0  0  0  0  0  0  0  0  0  0
    1.9662   -1.7491   16.7703 C   0  0  0  0  0  0  0  0  0  0  0  0
    3.9566   -0.1939   12.1099 C   0  0  0  0  0  0  0  0  0  0  0  0
    4.2793   -0.3167   10.7337 C   0  0  0  0  0  0  0  0  0  0  0  0
    5.5665   -0.1720   10.3669 F   0  0  0  0  0  0  0  0  0  0  0  0
    1.9743   -2.8220    8.1994 C   0  0  0  0  0  0  0  0  0  0  0  0
    1.5394   -3.3802    9.7740 S   0  0  0  0  0  0  0  0  0  0  0  0
   -1.3217   -2.7351   11.2778 C   0  0  0  0  0  0  0  0  0  0  0  0
   -4.6793   -1.3030   13.8554 H   0  0  0  0  0  0  0  0  0  0  0  0
   -5.1126   -2.1786   12.3730 H   0  0  0  0  0  0  0  0  0  0  0  0
   -4.0669   -0.7579   12.2842 H   0  0  0  0  0  0  0  0  0  0  0  0
   -2.2805   -1.8767   13.4927 H   0  0  0  0  0  0  0  0  0  0  0  0
   -3.9908   -4.4267   13.5548 H   0  0  0  0  0  0  0  0  0  0  0  0
   -3.6262   -3.3965   14.9514 H   0  0  0  0  0  0  0  0  0  0  0  0
   -2.3256   -4.2528   14.1058 H   0  0  0  0  0  0  0  0  0  0  0  0
   -4.2430   -4.0756   10.9646 H   0  0  0  0  0  0  0  0  0  0  0  0
   -0.9931   -4.1584    7.3870 H   0  0  0  0  0  0  0  0  0  0  0  0
    2.6211   -2.9473    4.4823 H   0  0  0  0  0  0  0  0  0  0  0  0
    3.9906   -1.4299    5.8860 H   0  0  0  0  0  0  0  0  0  0  0  0
    1.1805   -0.4726    9.4511 H   0  0  0  0  0  0  0  0  0  0  0  0
    0.6161   -0.4348   11.7997 H   0  0  0  0  0  0  0  0  0  0  0  0
    3.1155   -0.3527   14.5852 H   0  0  0  0  0  0  0  0  0  0  0  0
   -0.0580   -1.3985   16.1833 H   0  0  0  0  0  0  0  0  0  0  0  0
    0.3655    0.4804   17.5328 H   0  0  0  0  0  0  0  0  0  0  0  0
    0.7167    1.2178   15.9330 H   0  0  0  0  0  0  0  0  0  0  0  0
    4.9387    0.9002   18.0026 H   0  0  0  0  0  0  0  0  0  0  0  0
    7.2396    0.2968   18.4698 H   0  0  0  0  0  0  0  0  0  0  0  0
    8.0037   -2.0524   18.2427 H   0  0  0  0  0  0  0  0  0  0  0  0
    6.3821   -3.8156   17.5988 H   0  0  0  0  0  0  0  0  0  0  0  0
    4.0565   -3.2635   17.1775 H   0  0  0  0  0  0  0  0  0  0  0  0
    1.5484   -2.1486   17.7061 H   0  0  0  0  0  0  0  0  0  0  0  0
    2.3629   -2.5696   16.1674 H   0  0  0  0  0  0  0  0  0  0  0  0
    4.7641   -0.0001   12.8075 H   0  0  0  0  0  0  0  0  0  0  0  0
   -0.6111   -2.1298   11.8061 H   0  0  0  0  0  0  0  0  0  0  0  0
  1  2  1  0  0  0  0
  1 41  1  0  0  0  0
  1 42  1  0  0  0  0
  1 43  1  0  0  0  0
  2  3  1  0  0  0  0
  2  4  1  0  0  0  0
  2 44  1  0  0  0  0
  3 45  1  0  0  0  0
  3 46  1  0  0  0  0
  3 47  1  0  0  0  0
  4  5  1  0  0  0  0
  4 40  1  0  0  0  0
  5  6  2  0  0  0  0
  5 48  1  0  0  0  0
  6  7  1  0  0  0  0
  7  8  1  0  0  0  0
  7 40  2  0  0  0  0
  8  9  2  0  0  0  0
  8 39  1  0  0  0  0
  9 10  1  0  0  0  0
  9 49  1  0  0  0  0
 10 11  1  0  0  0  0
 10 38  2  0  0  0  0
 11 12  2  0  0  0  0
 12 13  1  0  0  0  0
 12 50  1  0  0  0  0
 13 14  2  0  0  0  0
 13 51  1  0  0  0  0
 14 15  1  0  0  0  0
 14 38  1  0  0  0  0
 15 16  1  0  0  0  0
 16 17  1  0  0  0  0
 16 36  2  0  0  0  0
 17 18  2  0  0  0  0
 17 52  1  0  0  0  0
 18 19  1  0  0  0  0
 18 53  1  0  0  0  0
 19 20  1  0  0  0  0
 19 35  2  0  0  0  0
 20 21  1  0  0  0  0
 20 54  1  0  0  0  0
 21 22  2  0  0  0  0
 21 23  1  0  0  0  0
 23 24  1  0  0  0  0
 23 34  1  0  0  0  0
 23 55  1  0  0  0  0
 24 25  1  0  0  0  0
 24 56  1  0  0  0  0
 24 57  1  0  0  0  0
 25 26  2  0  0  0  0
 25 27  1  0  0  0  0
 27 28  1  0  0  0  0
 27 34  1  0  0  0  0
 28 29  1  0  0  0  0
 28 33  2  0  0  0  0
 29 30  2  0  0  0  0
 29 58  1  0  0  0  0
 30 31  1  0  0  0  0
 30 59  1  0  0  0  0
 31 32  2  0  0  0  0
 31 60  1  0  0  0  0
 32 33  1  0  0  0  0
 32 61  1  0  0  0  0
 33 62  1  0  0  0  0
 34 63  1  0  0  0  0
 34 64  1  0  0  0  0
 35 36  1  0  0  0  0
 35 65  1  0  0  0  0
 36 37  1  0  0  0  0
 38 39  1  0  0  0  0
 40 66  1  0  0  0  0
M  END
$$$$
