CHEMBL3735648
 OpenBabel04072215373D

 68 73  0  0  0  0  0  0  0  0999 V2000
    1.0225    0.1654   -0.1447 C   0  0  0  0  0  0  0  0  0  0  0  0
    2.5671    0.1688   -0.1111 C   0  0  0  0  0  0  0  0  0  0  0  0
    3.1369    0.1863   -1.5476 C   0  0  0  0  0  0  0  0  0  0  0  0
    3.0867   -1.0975    0.5909 C   0  0  0  0  0  0  0  0  0  0  0  0
    2.7204   -2.3594    0.1031 C   0  0  0  0  0  0  0  0  0  0  0  0
    3.1842   -3.5419    0.6940 C   0  0  0  0  0  0  0  0  0  0  0  0
    2.5306   -4.8463    0.2682 C   0  0  0  0  0  0  0  0  0  0  0  0
    1.0374   -4.8545    0.6552 C   0  0  0  0  0  0  0  0  0  0  0  0
    0.8243   -5.0259    2.1629 C   0  0  0  0  0  0  0  0  0  0  0  0
    1.4790   -6.2336    2.6971 N   0  0  0  0  0  0  0  0  0  0  0  0
    1.3593   -6.2510    4.1752 C   0  0  0  0  0  0  0  0  0  0  0  0
    2.1133   -7.4079    4.8811 C   0  0  0  0  0  0  0  0  0  0  0  0
    1.5911   -8.7886    4.4526 C   0  0  0  0  0  0  0  0  0  0  0  0
    2.1027   -9.9096    5.3489 C   0  0  0  0  0  0  0  0  0  0  0  0
    1.9080   -9.6053    6.7277 O   0  0  0  0  0  0  0  0  0  0  0  0
    2.6284   -8.4395    7.1163 C   0  0  0  0  0  0  0  0  0  0  0  0
    2.0682   -7.2203    6.4022 C   0  0  0  0  0  0  0  0  0  0  0  0
    2.8825   -6.3577    2.2932 C   0  0  0  0  0  0  0  0  0  0  0  0
    3.1756   -6.1157    0.8143 C   0  0  0  0  0  0  0  0  0  0  0  0
    4.1545   -3.4499    1.6944 C   0  0  0  0  0  0  0  0  0  0  0  0
    4.4912   -2.2235    2.2408 C   0  0  0  0  0  0  0  0  0  0  0  0
    3.9396   -1.0563    1.7166 C   0  0  0  0  0  0  0  0  0  0  0  0
    4.3060    0.2097    2.3980 C   0  0  0  0  0  0  0  0  0  0  0  0
    4.9616    0.2088    3.4340 O   0  0  0  0  0  0  0  0  0  0  0  0
    3.8318    1.4081    1.7564 C   0  0  0  0  0  0  0  0  0  0  0  0
    3.0477    1.3925    0.6269 C   0  0  0  0  0  0  0  0  0  0  0  0
    2.7915    2.6938    0.2764 N   0  0  0  0  0  0  0  0  0  0  0  0
    3.4169    3.5428    1.1632 C   0  0  0  0  0  0  0  0  0  0  0  0
    3.4577    4.9363    1.2020 C   0  0  0  0  0  0  0  0  0  0  0  0
    4.1982    5.5307    2.2370 C   0  0  0  0  0  0  0  0  0  0  0  0
    4.2693    6.9504    2.3135 C   0  0  0  0  0  0  0  0  0  0  0  0
    4.3254    8.1113    2.3693 N   0  0  0  0  0  0  0  0  0  0  0  0
    4.8669    4.7586    3.1912 C   0  0  0  0  0  0  0  0  0  0  0  0
    4.8093    3.3702    3.1371 C   0  0  0  0  0  0  0  0  0  0  0  0
    4.0747    2.7605    2.1066 C   0  0  0  0  0  0  0  0  0  0  0  0
    0.6152   -0.7119   -0.6599 H   0  0  0  0  0  0  0  0  0  0  0  0
    0.6285    1.0465   -0.6640 H   0  0  0  0  0  0  0  0  0  0  0  0
    0.6050    0.1670    0.8701 H   0  0  0  0  0  0  0  0  0  0  0  0
    2.8217   -0.6883   -2.1289 H   0  0  0  0  0  0  0  0  0  0  0  0
    4.2347    0.1851   -1.5342 H   0  0  0  0  0  0  0  0  0  0  0  0
    2.8161    1.0743   -2.1029 H   0  0  0  0  0  0  0  0  0  0  0  0
    2.0351   -2.4375   -0.7399 H   0  0  0  0  0  0  0  0  0  0  0  0
    2.6070   -4.8883   -0.8272 H   0  0  0  0  0  0  0  0  0  0  0  0
    0.5358   -5.6758    0.1287 H   0  0  0  0  0  0  0  0  0  0  0  0
    0.5334   -3.9360    0.3275 H   0  0  0  0  0  0  0  0  0  0  0  0
   -0.2573   -5.1057    2.3359 H   0  0  0  0  0  0  0  0  0  0  0  0
    1.1530   -4.1162    2.6847 H   0  0  0  0  0  0  0  0  0  0  0  0
    0.2942   -6.3108    4.4377 H   0  0  0  0  0  0  0  0  0  0  0  0
    1.7268   -5.3005    4.5898 H   0  0  0  0  0  0  0  0  0  0  0  0
    3.1789   -7.3606    4.6227 H   0  0  0  0  0  0  0  0  0  0  0  0
    1.8828   -9.0068    3.4183 H   0  0  0  0  0  0  0  0  0  0  0  0
    0.4954   -8.7866    4.4795 H   0  0  0  0  0  0  0  0  0  0  0  0
    3.1647  -10.1143    5.1683 H   0  0  0  0  0  0  0  0  0  0  0  0
    1.5535  -10.8316    5.1316 H   0  0  0  0  0  0  0  0  0  0  0  0
    3.6964   -8.5760    6.9053 H   0  0  0  0  0  0  0  0  0  0  0  0
    2.5195   -8.3187    8.1982 H   0  0  0  0  0  0  0  0  0  0  0  0
    2.6501   -6.3336    6.6831 H   0  0  0  0  0  0  0  0  0  0  0  0
    1.0340   -7.0530    6.7231 H   0  0  0  0  0  0  0  0  0  0  0  0
    3.2180   -7.3816    2.4824 H   0  0  0  0  0  0  0  0  0  0  0  0
    3.5028   -5.7188    2.9272 H   0  0  0  0  0  0  0  0  0  0  0  0
    2.7956   -6.9727    0.2447 H   0  0  0  0  0  0  0  0  0  0  0  0
    4.2610   -6.1013    0.6542 H   0  0  0  0  0  0  0  0  0  0  0  0
    4.6486   -4.3181    2.1110 H   0  0  0  0  0  0  0  0  0  0  0  0
    5.1743   -2.1854    3.0874 H   0  0  0  0  0  0  0  0  0  0  0  0
    2.2433    2.9938   -0.5192 H   0  0  0  0  0  0  0  0  0  0  0  0
    2.9431    5.5391    0.4587 H   0  0  0  0  0  0  0  0  0  0  0  0
    5.4441    5.2296    3.9865 H   0  0  0  0  0  0  0  0  0  0  0  0
    5.3298    2.7640    3.8754 H   0  0  0  0  0  0  0  0  0  0  0  0
  1  2  1  0  0  0  0
  1 36  1  0  0  0  0
  1 37  1  0  0  0  0
  1 38  1  0  0  0  0
  2  3  1  0  0  0  0
  2  4  1  0  0  0  0
  2 26  1  0  0  0  0
  3 39  1  0  0  0  0
  3 40  1  0  0  0  0
  3 41  1  0  0  0  0
  4  5  1  0  0  0  0
  4 22  2  0  0  0  0
  5  6  2  0  0  0  0
  5 42  1  0  0  0  0
  6  7  1  0  0  0  0
  6 20  1  0  0  0  0
  7  8  1  0  0  0  0
  7 19  1  0  0  0  0
  7 43  1  0  0  0  0
  8  9  1  0  0  0  0
  8 44  1  0  0  0  0
  8 45  1  0  0  0  0
  9 10  1  0  0  0  0
  9 46  1  0  0  0  0
  9 47  1  0  0  0  0
 10 11  1  0  0  0  0
 10 18  1  0  0  0  0
 11 12  1  0  0  0  0
 11 48  1  0  0  0  0
 11 49  1  0  0  0  0
 12 13  1  0  0  0  0
 12 17  1  0  0  0  0
 12 50  1  0  0  0  0
 13 14  1  0  0  0  0
 13 51  1  0  0  0  0
 13 52  1  0  0  0  0
 14 15  1  0  0  0  0
 14 53  1  0  0  0  0
 14 54  1  0  0  0  0
 15 16  1  0  0  0  0
 16 17  1  0  0  0  0
 16 55  1  0  0  0  0
 16 56  1  0  0  0  0
 17 57  1  0  0  0  0
 17 58  1  0  0  0  0
 18 19  1  0  0  0  0
 18 59  1  0  0  0  0
 18 60  1  0  0  0  0
 19 61  1  0  0  0  0
 19 62  1  0  0  0  0
 20 21  2  0  0  0  0
 20 63  1  0  0  0  0
 21 22  1  0  0  0  0
 21 64  1  0  0  0  0
 22 23  1  0  0  0  0
 23 24  2  0  0  0  0
 23 25  1  0  0  0  0
 25 26  2  0  0  0  0
 25 35  1  0  0  0  0
 26 27  1  0  0  0  0
 27 28  1  0  0  0  0
 27 65  1  0  0  0  0
 28 29  1  0  0  0  0
 28 35  2  0  0  0  0
 29 30  2  0  0  0  0
 29 66  1  0  0  0  0
 30 31  1  0  0  0  0
 30 33  1  0  0  0  0
 31 32  3  0  0  0  0
 33 34  2  0  0  0  0
 33 67  1  0  0  0  0
 34 35  1  0  0  0  0
 34 68  1  0  0  0  0
M  END
$$$$
