CHEMBL3914057
 OpenBabel04072215373D

 56 60  0  0  0  0  0  0  0  0999 V2000
    1.0580    0.0619    0.2580 C   0  0  0  0  0  0  0  0  0  0  0  0
    2.4043    0.0405    0.2098 C   0  0  0  0  0  0  0  0  0  0  0  0
    3.1864   -1.1183    0.7557 C   0  0  0  0  0  0  0  0  0  0  0  0
    2.6399   -2.4092    0.7561 C   0  0  0  0  0  0  0  0  0  0  0  0
    3.3801   -3.4935    1.2133 C   0  0  0  0  0  0  0  0  0  0  0  0
    4.6991   -3.3138    1.6236 C   0  0  0  0  0  0  0  0  0  0  0  0
    5.3117   -2.0611    1.5642 C   0  0  0  0  0  0  0  0  0  0  0  0
    6.6893   -1.8792    1.8654 N   0  0  0  0  0  0  0  0  0  0  0  0
    7.6406   -2.9104    1.8772 C   0  0  0  0  0  0  0  0  0  0  0  0
    7.3790   -4.0697    1.5940 O   0  0  0  0  0  0  0  0  0  0  0  0
    9.0141   -2.4957    2.2131 C   0  0  0  0  0  0  0  0  0  0  0  0
    9.3917   -1.2730    2.5167 N   0  0  0  0  0  0  0  0  0  0  0  0
   10.7570   -1.2906    2.7967 C   0  0  0  0  0  0  0  0  0  0  0  0
   11.3853   -2.5154    2.6889 C   0  0  0  0  0  0  0  0  0  0  0  0
   12.7998   -2.9086    2.9136 C   0  0  0  0  0  0  0  0  0  0  0  0
   10.2445   -3.6932    2.2139 S   0  0  0  0  0  0  0  0  0  0  0  0
    4.5322   -0.9576    1.1701 C   0  0  0  0  0  0  0  0  0  0  0  0
    3.0432    1.1532   -0.5333 C   0  0  0  0  0  0  0  0  0  0  0  0
    3.1343    2.4603   -0.0228 C   0  0  0  0  0  0  0  0  0  0  0  0
    3.8118    3.4783   -0.7329 C   0  0  0  0  0  0  0  0  0  0  0  0
    4.5373    3.1091   -1.8865 C   0  0  0  0  0  0  0  0  0  0  0  0
    5.3592    3.6909   -2.9190 C   0  0  0  0  0  0  0  0  0  0  0  0
    4.9227    4.3057   -4.1675 C   0  0  0  0  0  0  0  0  0  0  0  0
    3.6808    4.1492   -4.6609 C   0  0  0  0  0  0  0  0  0  0  0  0
    3.4346    3.7415   -6.0678 C   0  0  0  0  0  0  0  0  0  0  0  0
    4.2358    2.7734   -6.6986 C   0  0  0  0  0  0  0  0  0  0  0  0
    3.8533    2.1824   -7.9049 C   0  0  0  0  0  0  0  0  0  0  0  0
    2.6517    2.5483   -8.5028 C   0  0  0  0  0  0  0  0  0  0  0  0
    1.8504    3.5202   -7.9017 C   0  0  0  0  0  0  0  0  0  0  0  0
    2.2319    4.1101   -6.6937 C   0  0  0  0  0  0  0  0  0  0  0  0
    6.3575    2.7933   -3.1264 N   0  0  0  0  0  0  0  0  0  0  0  0
    5.6836    1.6260   -3.0023 N   0  0  0  0  0  0  0  0  0  0  0  0
    4.5699    1.7595   -2.2186 C   0  0  0  0  0  0  0  0  0  0  0  0
    3.7075    0.8000   -1.7102 C   0  0  0  0  0  0  0  0  0  0  0  0
    0.4760   -0.7185    0.7383 H   0  0  0  0  0  0  0  0  0  0  0  0
    0.4787    0.8547   -0.2088 H   0  0  0  0  0  0  0  0  0  0  0  0
    1.6389   -2.6014    0.3797 H   0  0  0  0  0  0  0  0  0  0  0  0
    2.9418   -4.4888    1.2332 H   0  0  0  0  0  0  0  0  0  0  0  0
    5.2218   -4.1923    1.9910 H   0  0  0  0  0  0  0  0  0  0  0  0
    7.0564   -0.9387    1.9327 H   0  0  0  0  0  0  0  0  0  0  0  0
   11.2498   -0.3657    3.0829 H   0  0  0  0  0  0  0  0  0  0  0  0
   13.3915   -2.0698    3.2914 H   0  0  0  0  0  0  0  0  0  0  0  0
   13.2581   -3.2542    1.9803 H   0  0  0  0  0  0  0  0  0  0  0  0
   12.8661   -3.7219    3.6455 H   0  0  0  0  0  0  0  0  0  0  0  0
    4.9832    0.0298    1.1403 H   0  0  0  0  0  0  0  0  0  0  0  0
    2.7104    2.6836    0.9555 H   0  0  0  0  0  0  0  0  0  0  0  0
    3.8864    4.4798   -0.3162 H   0  0  0  0  0  0  0  0  0  0  0  0
    5.7422    4.4509   -4.8697 H   0  0  0  0  0  0  0  0  0  0  0  0
    2.8392    3.9536   -4.0023 H   0  0  0  0  0  0  0  0  0  0  0  0
    5.1523    2.4195   -6.2212 H   0  0  0  0  0  0  0  0  0  0  0  0
    4.4739    1.4171   -8.3581 H   0  0  0  0  0  0  0  0  0  0  0  0
    2.3289    2.0675   -9.4215 H   0  0  0  0  0  0  0  0  0  0  0  0
    0.9026    3.7946   -8.3590 H   0  0  0  0  0  0  0  0  0  0  0  0
    1.5689    4.8260   -6.2171 H   0  0  0  0  0  0  0  0  0  0  0  0
    6.1033    0.7840   -3.3519 H   0  0  0  0  0  0  0  0  0  0  0  0
    3.6821   -0.2083   -2.1014 H   0  0  0  0  0  0  0  0  0  0  0  0
  1  2  2  0  0  0  0
  1 35  1  0  0  0  0
  1 36  1  0  0  0  0
  2  3  1  0  0  0  0
  2 18  1  0  0  0  0
  3  4  1  0  0  0  0
  3 17  2  0  0  0  0
  4  5  2  0  0  0  0
  4 37  1  0  0  0  0
  5  6  1  0  0  0  0
  5 38  1  0  0  0  0
  6  7  2  0  0  0  0
  6 39  1  0  0  0  0
  7  8  1  0  0  0  0
  7 17  1  0  0  0  0
  8  9  1  0  0  0  0
  8 40  1  0  0  0  0
  9 10  2  0  0  0  0
  9 11  1  0  0  0  0
 11 12  2  0  0  0  0
 11 16  1  0  0  0  0
 12 13  1  0  0  0  0
 13 14  2  0  0  0  0
 13 41  1  0  0  0  0
 14 15  1  0  0  0  0
 14 16  1  0  0  0  0
 15 42  1  0  0  0  0
 15 43  1  0  0  0  0
 15 44  1  0  0  0  0
 17 45  1  0  0  0  0
 18 19  1  0  0  0  0
 18 34  2  0  0  0  0
 19 20  2  0  0  0  0
 19 46  1  0  0  0  0
 20 21  1  0  0  0  0
 20 47  1  0  0  0  0
 21 22  1  0  0  0  0
 21 33  2  0  0  0  0
 22 23  1  0  0  0  0
 22 31  2  0  0  0  0
 23 24  2  0  0  0  0
 23 48  1  0  0  0  0
 24 25  1  0  0  0  0
 24 49  1  0  0  0  0
 25 26  1  0  0  0  0
 25 30  2  0  0  0  0
 26 27  2  0  0  0  0
 26 50  1  0  0  0  0
 27 28  1  0  0  0  0
 27 51  1  0  0  0  0
 28 29  2  0  0  0  0
 28 52  1  0  0  0  0
 29 30  1  0  0  0  0
 29 53  1  0  0  0  0
 30 54  1  0  0  0  0
 31 32  1  0  0  0  0
 32 33  1  0  0  0  0
 32 55  1  0  0  0  0
 33 34  1  0  0  0  0
 34 56  1  0  0  0  0
M  END
$$$$
