CHEMBL3944876
 OpenBabel04072215373D

 61 65  0  0  0  0  0  0  0  0999 V2000
    2.6596    0.5172   -1.2532 O   0  0  0  0  0  0  0  0  0  0  0  0
    2.2941    0.5459   -0.0841 C   0  0  0  0  0  0  0  0  0  0  0  0
    0.9639    0.5040    0.3089 N   0  0  0  0  0  0  0  0  0  0  0  0
   -0.1289    0.4360   -0.5896 C   0  0  0  0  0  0  0  0  0  0  0  0
    0.0227    0.0480   -1.9249 C   0  0  0  0  0  0  0  0  0  0  0  0
   -1.0258    0.0862   -2.8553 C   0  0  0  0  0  0  0  0  0  0  0  0
   -0.7995   -0.2986   -4.2640 C   0  0  0  0  0  0  0  0  0  0  0  0
    0.4473   -0.1408   -4.8914 C   0  0  0  0  0  0  0  0  0  0  0  0
    0.6292   -0.5339   -6.2153 C   0  0  0  0  0  0  0  0  0  0  0  0
   -0.4476   -1.0700   -6.8922 C   0  0  0  0  0  0  0  0  0  0  0  0
   -1.6630   -1.2456   -6.3385 N   0  0  0  0  0  0  0  0  0  0  0  0
   -1.8070   -0.8595   -5.0502 C   0  0  0  0  0  0  0  0  0  0  0  0
   -2.2794    0.4913   -2.3817 C   0  0  0  0  0  0  0  0  0  0  0  0
   -2.4889    0.8065   -1.0291 C   0  0  0  0  0  0  0  0  0  0  0  0
   -3.8728    1.1626   -0.5487 C   0  0  0  0  0  0  0  0  0  0  0  0
   -4.8159    1.1227   -1.5311 F   0  0  0  0  0  0  0  0  0  0  0  0
   -4.3124    0.3162    0.4226 F   0  0  0  0  0  0  0  0  0  0  0  0
   -3.9372    2.4130   -0.0174 F   0  0  0  0  0  0  0  0  0  0  0  0
   -1.4022    0.7786   -0.1366 C   0  0  0  0  0  0  0  0  0  0  0  0
    3.1588    0.6576    0.9903 N   0  0  0  0  0  0  0  0  0  0  0  0
    4.5621    0.8208    0.8983 C   0  0  0  0  0  0  0  0  0  0  0  0
    5.2456    0.9128   -0.3188 C   0  0  0  0  0  0  0  0  0  0  0  0
    6.6272    1.0915   -0.3637 C   0  0  0  0  0  0  0  0  0  0  0  0
    7.3688    1.1331    0.8147 C   0  0  0  0  0  0  0  0  0  0  0  0
    8.7414    1.2758    0.8347 O   0  0  0  0  0  0  0  0  0  0  0  0
    9.4886    0.6679   -0.1576 C   0  0  0  0  0  0  0  0  0  0  0  0
    9.1152   -0.5301   -0.7628 C   0  0  0  0  0  0  0  0  0  0  0  0
    9.9132   -1.0194   -1.7680 C   0  0  0  0  0  0  0  0  0  0  0  0
   11.0498   -0.4241   -2.1604 N   0  0  0  0  0  0  0  0  0  0  0  0
   11.4429    0.7042   -1.5449 C   0  0  0  0  0  0  0  0  0  0  0  0
   12.6447    1.3068   -1.9465 N   0  0  0  0  0  0  0  0  0  0  0  0
   13.4476    0.8173   -2.9638 C   0  0  0  0  0  0  0  0  0  0  0  0
   13.2665   -0.1687   -3.6626 O   0  0  0  0  0  0  0  0  0  0  0  0
   14.6961    1.6167   -3.1671 C   0  0  0  0  0  0  0  0  0  0  0  0
   15.6132    1.3529   -4.3444 C   0  0  0  0  0  0  0  0  0  0  0  0
   16.0307    0.9340   -2.9658 C   0  0  0  0  0  0  0  0  0  0  0  0
   10.6881    1.2838   -0.5295 C   0  0  0  0  0  0  0  0  0  0  0  0
    6.6889    1.0720    2.0310 C   0  0  0  0  0  0  0  0  0  0  0  0
    7.3646    1.1555    3.1866 F   0  0  0  0  0  0  0  0  0  0  0  0
    5.2988    0.9154    2.0813 C   0  0  0  0  0  0  0  0  0  0  0  0
    0.7568    0.7556    1.2626 H   0  0  0  0  0  0  0  0  0  0  0  0
    0.9831   -0.3191   -2.2708 H   0  0  0  0  0  0  0  0  0  0  0  0
    1.2944    0.2911   -4.3609 H   0  0  0  0  0  0  0  0  0  0  0  0
    1.5963   -0.4195   -6.7003 H   0  0  0  0  0  0  0  0  0  0  0  0
   -0.3476   -1.3904   -7.9274 H   0  0  0  0  0  0  0  0  0  0  0  0
   -2.7991   -1.0455   -4.6546 H   0  0  0  0  0  0  0  0  0  0  0  0
   -3.1195    0.5649   -3.0710 H   0  0  0  0  0  0  0  0  0  0  0  0
   -1.5640    1.0484    0.9047 H   0  0  0  0  0  0  0  0  0  0  0  0
    2.7660    0.5806    1.9157 H   0  0  0  0  0  0  0  0  0  0  0  0
    4.7468    0.8524   -1.2800 H   0  0  0  0  0  0  0  0  0  0  0  0
    7.0992    1.1645   -1.3399 H   0  0  0  0  0  0  0  0  0  0  0  0
    8.2104   -1.0639   -0.5008 H   0  0  0  0  0  0  0  0  0  0  0  0
    9.6551   -1.9229   -2.3112 H   0  0  0  0  0  0  0  0  0  0  0  0
   12.9409    2.1377   -1.4587 H   0  0  0  0  0  0  0  0  0  0  0  0
   14.6268    2.6563   -2.8649 H   0  0  0  0  0  0  0  0  0  0  0  0
   16.1273    2.1934   -4.7956 H   0  0  0  0  0  0  0  0  0  0  0  0
   15.3535    0.5696   -5.0503 H   0  0  0  0  0  0  0  0  0  0  0  0
   16.8142    1.4930   -2.4720 H   0  0  0  0  0  0  0  0  0  0  0  0
   16.0394   -0.1319   -2.7577 H   0  0  0  0  0  0  0  0  0  0  0  0
   10.9999    2.1989   -0.0359 H   0  0  0  0  0  0  0  0  0  0  0  0
    4.8187    0.8692    3.0534 H   0  0  0  0  0  0  0  0  0  0  0  0
  1  2  2  0  0  0  0
  2  3  1  0  0  0  0
  2 20  1  0  0  0  0
  3  4  1  0  0  0  0
  3 41  1  0  0  0  0
  4  5  1  0  0  0  0
  4 19  2  0  0  0  0
  5  6  2  0  0  0  0
  5 42  1  0  0  0  0
  6  7  1  0  0  0  0
  6 13  1  0  0  0  0
  7  8  1  0  0  0  0
  7 12  2  0  0  0  0
  8  9  2  0  0  0  0
  8 43  1  0  0  0  0
  9 10  1  0  0  0  0
  9 44  1  0  0  0  0
 10 11  2  0  0  0  0
 10 45  1  0  0  0  0
 11 12  1  0  0  0  0
 12 46  1  0  0  0  0
 13 14  2  0  0  0  0
 13 47  1  0  0  0  0
 14 15  1  0  0  0  0
 14 19  1  0  0  0  0
 15 16  1  0  0  0  0
 15 17  1  0  0  0  0
 15 18  1  0  0  0  0
 19 48  1  0  0  0  0
 20 21  1  0  0  0  0
 20 49  1  0  0  0  0
 21 22  1  0  0  0  0
 21 40  2  0  0  0  0
 22 23  2  0  0  0  0
 22 50  1  0  0  0  0
 23 24  1  0  0  0  0
 23 51  1  0  0  0  0
 24 25  1  0  0  0  0
 24 38  2  0  0  0  0
 25 26  1  0  0  0  0
 26 27  1  0  0  0  0
 26 37  2  0  0  0  0
 27 28  2  0  0  0  0
 27 52  1  0  0  0  0
 28 29  1  0  0  0  0
 28 53  1  0  0  0  0
 29 30  2  0  0  0  0
 30 31  1  0  0  0  0
 30 37  1  0  0  0  0
 31 32  1  0  0  0  0
 31 54  1  0  0  0  0
 32 33  2  0  0  0  0
 32 34  1  0  0  0  0
 34 35  1  0  0  0  0
 34 36  1  0  0  0  0
 34 55  1  0  0  0  0
 35 36  1  0  0  0  0
 35 56  1  0  0  0  0
 35 57  1  0  0  0  0
 36 58  1  0  0  0  0
 36 59  1  0  0  0  0
 37 60  1  0  0  0  0
 38 39  1  0  0  0  0
 38 40  1  0  0  0  0
 40 61  1  0  0  0  0
M  END
$$$$
