CHEMBL3932860
 OpenBabel04072215373D

 74 78  0  0  0  0  0  0  0  0999 V2000
    4.8243    0.5993    1.3186 C   0  0  0  0  0  0  0  0  0  0  0  0
    3.4876   -0.0018    1.2427 N   0  0  0  0  0  0  0  0  0  0  0  0
    2.6939    0.6981    0.2264 C   0  0  0  0  0  0  0  0  0  0  0  0
    1.3148    0.0619    0.0512 C   0  0  0  0  0  0  0  0  0  0  0  0
    1.4265   -1.4193   -0.3244 C   0  0  0  0  0  0  0  0  0  0  0  0
    2.0376   -1.6862   -1.7117 C   0  0  0  0  0  0  0  0  0  0  0  0
    2.9897   -2.4491   -1.8667 O   0  0  0  0  0  0  0  0  0  0  0  0
    1.4152   -1.0218   -2.7579 N   0  0  0  0  0  0  0  0  0  0  0  0
    1.9471   -1.0700   -4.0627 C   0  0  0  0  0  0  0  0  0  0  0  0
    2.2073    0.1361   -4.7134 C   0  0  0  0  0  0  0  0  0  0  0  0
    2.7940    0.1626   -5.9849 C   0  0  0  0  0  0  0  0  0  0  0  0
    3.1867    1.3780   -6.6077 N   0  0  0  0  0  0  0  0  0  0  0  0
    3.5221    2.5328   -5.8943 C   0  0  0  0  0  0  0  0  0  0  0  0
    3.5670    2.6069   -4.6711 O   0  0  0  0  0  0  0  0  0  0  0  0
    3.7812    3.6180   -6.7231 N   0  0  0  0  0  0  0  0  0  0  0  0
    4.1321    4.8711   -6.1479 C   0  0  0  0  0  0  0  0  0  0  0  0
    3.4284    6.0170   -6.5272 C   0  0  0  0  0  0  0  0  0  0  0  0
    3.7113    7.2539   -5.9266 C   0  0  0  0  0  0  0  0  0  0  0  0
    4.6874    7.3559   -4.9256 C   0  0  0  0  0  0  0  0  0  0  0  0
    4.9998    8.5328   -4.2713 O   0  0  0  0  0  0  0  0  0  0  0  0
    3.9962    9.4288   -3.9479 C   0  0  0  0  0  0  0  0  0  0  0  0
    2.6819    9.0500   -3.6919 C   0  0  0  0  0  0  0  0  0  0  0  0
    1.7600   10.0395   -3.4562 C   0  0  0  0  0  0  0  0  0  0  0  0
    2.0802   11.3427   -3.3957 N   0  0  0  0  0  0  0  0  0  0  0  0
    3.3574   11.7144   -3.5543 C   0  0  0  0  0  0  0  0  0  0  0  0
    3.6930   13.0757   -3.4357 N   0  0  0  0  0  0  0  0  0  0  0  0
    2.7462   14.0605   -3.1707 C   0  0  0  0  0  0  0  0  0  0  0  0
    1.5470   13.9137   -3.0168 O   0  0  0  0  0  0  0  0  0  0  0  0
    3.3031   15.4501   -3.0732 C   0  0  0  0  0  0  0  0  0  0  0  0
    2.6698   16.4288   -2.1006 C   0  0  0  0  0  0  0  0  0  0  0  0
    2.4600   16.6115   -3.5742 C   0  0  0  0  0  0  0  0  0  0  0  0
    4.3570   10.7797   -3.8329 C   0  0  0  0  0  0  0  0  0  0  0  0
    5.4298    6.2189   -4.6060 C   0  0  0  0  0  0  0  0  0  0  0  0
    6.4248    6.2964   -3.7080 F   0  0  0  0  0  0  0  0  0  0  0  0
    5.1552    4.9832   -5.2002 C   0  0  0  0  0  0  0  0  0  0  0  0
    3.0150   -1.0562   -6.6468 C   0  0  0  0  0  0  0  0  0  0  0  0
    2.7531   -2.2846   -5.9997 C   0  0  0  0  0  0  0  0  0  0  0  0
    3.0477   -3.6158   -6.6487 C   0  0  0  0  0  0  0  0  0  0  0  0
    3.5929   -3.5052   -7.8920 F   0  0  0  0  0  0  0  0  0  0  0  0
    3.9201   -4.3731   -5.9270 F   0  0  0  0  0  0  0  0  0  0  0  0
    1.9295   -4.3805   -6.8018 F   0  0  0  0  0  0  0  0  0  0  0  0
    2.2287   -2.2762   -4.6974 C   0  0  0  0  0  0  0  0  0  0  0  0
    2.2501   -2.1185    0.7668 C   0  0  0  0  0  0  0  0  0  0  0  0
    3.6123   -1.4420    0.9682 C   0  0  0  0  0  0  0  0  0  0  0  0
    4.7570    1.6583    1.5912 H   0  0  0  0  0  0  0  0  0  0  0  0
    5.3614    0.5251    0.3649 H   0  0  0  0  0  0  0  0  0  0  0  0
    5.4285    0.1094    2.0900 H   0  0  0  0  0  0  0  0  0  0  0  0
    3.2141    0.7176   -0.7403 H   0  0  0  0  0  0  0  0  0  0  0  0
    2.5495    1.7404    0.5362 H   0  0  0  0  0  0  0  0  0  0  0  0
    0.7376    0.6308   -0.6835 H   0  0  0  0  0  0  0  0  0  0  0  0
    0.7593    0.1480    0.9972 H   0  0  0  0  0  0  0  0  0  0  0  0
    0.4225   -1.8617   -0.3442 H   0  0  0  0  0  0  0  0  0  0  0  0
    0.9100   -0.1795   -2.5197 H   0  0  0  0  0  0  0  0  0  0  0  0
    2.0098    1.0590   -4.1802 H   0  0  0  0  0  0  0  0  0  0  0  0
    3.5313    1.3275   -7.5523 H   0  0  0  0  0  0  0  0  0  0  0  0
    3.2080    3.6503   -7.5549 H   0  0  0  0  0  0  0  0  0  0  0  0
    2.6092    5.9581   -7.2380 H   0  0  0  0  0  0  0  0  0  0  0  0
    3.1358    8.1244   -6.2299 H   0  0  0  0  0  0  0  0  0  0  0  0
    2.3590    8.0170   -3.6962 H   0  0  0  0  0  0  0  0  0  0  0  0
    0.7053    9.8202   -3.3146 H   0  0  0  0  0  0  0  0  0  0  0  0
    4.6570   13.3372   -3.5392 H   0  0  0  0  0  0  0  0  0  0  0  0
    4.3722   15.5473   -3.2124 H   0  0  0  0  0  0  0  0  0  0  0  0
    3.3071   17.1384   -1.5880 H   0  0  0  0  0  0  0  0  0  0  0  0
    1.8223   16.0917   -1.5109 H   0  0  0  0  0  0  0  0  0  0  0  0
    2.9551   17.4454   -4.0572 H   0  0  0  0  0  0  0  0  0  0  0  0
    1.4704   16.3977   -3.9694 H   0  0  0  0  0  0  0  0  0  0  0  0
    5.3910   11.0764   -3.9634 H   0  0  0  0  0  0  0  0  0  0  0  0
    5.7493    4.1203   -4.9113 H   0  0  0  0  0  0  0  0  0  0  0  0
    3.4427   -1.0703   -7.6478 H   0  0  0  0  0  0  0  0  0  0  0  0
    2.0281   -3.2184   -4.1875 H   0  0  0  0  0  0  0  0  0  0  0  0
    2.4000   -3.1767    0.5214 H   0  0  0  0  0  0  0  0  0  0  0  0
    1.6919   -2.0940    1.7125 H   0  0  0  0  0  0  0  0  0  0  0  0
    4.2526   -1.6119    0.0940 H   0  0  0  0  0  0  0  0  0  0  0  0
    4.1075   -1.9288    1.8174 H   0  0  0  0  0  0  0  0  0  0  0  0
  1  2  1  0  0  0  0
  1 45  1  0  0  0  0
  1 46  1  0  0  0  0
  1 47  1  0  0  0  0
  2  3  1  0  0  0  0
  2 44  1  0  0  0  0
  3  4  1  0  0  0  0
  3 48  1  0  0  0  0
  3 49  1  0  0  0  0
  4  5  1  0  0  0  0
  4 50  1  0  0  0  0
  4 51  1  0  0  0  0
  5  6  1  0  0  0  0
  5 43  1  0  0  0  0
  5 52  1  0  0  0  0
  6  7  2  0  0  0  0
  6  8  1  0  0  0  0
  8  9  1  0  0  0  0
  8 53  1  0  0  0  0
  9 10  1  0  0  0  0
  9 42  2  0  0  0  0
 10 11  2  0  0  0  0
 10 54  1  0  0  0  0
 11 12  1  0  0  0  0
 11 36  1  0  0  0  0
 12 13  1  0  0  0  0
 12 55  1  0  0  0  0
 13 14  2  0  0  0  0
 13 15  1  0  0  0  0
 15 16  1  0  0  0  0
 15 56  1  0  0  0  0
 16 17  1  0  0  0  0
 16 35  2  0  0  0  0
 17 18  2  0  0  0  0
 17 57  1  0  0  0  0
 18 19  1  0  0  0  0
 18 58  1  0  0  0  0
 19 20  1  0  0  0  0
 19 33  2  0  0  0  0
 20 21  1  0  0  0  0
 21 22  1  0  0  0  0
 21 32  2  0  0  0  0
 22 23  2  0  0  0  0
 22 59  1  0  0  0  0
 23 24  1  0  0  0  0
 23 60  1  0  0  0  0
 24 25  2  0  0  0  0
 25 26  1  0  0  0  0
 25 32  1  0  0  0  0
 26 27  1  0  0  0  0
 26 61  1  0  0  0  0
 27 28  2  0  0  0  0
 27 29  1  0  0  0  0
 29 30  1  0  0  0  0
 29 31  1  0  0  0  0
 29 62  1  0  0  0  0
 30 31  1  0  0  0  0
 30 63  1  0  0  0  0
 30 64  1  0  0  0  0
 31 65  1  0  0  0  0
 31 66  1  0  0  0  0
 32 67  1  0  0  0  0
 33 34  1  0  0  0  0
 33 35  1  0  0  0  0
 35 68  1  0  0  0  0
 36 37  2  0  0  0  0
 36 69  1  0  0  0  0
 37 38  1  0  0  0  0
 37 42  1  0  0  0  0
 38 39  1  0  0  0  0
 38 40  1  0  0  0  0
 38 41  1  0  0  0  0
 42 70  1  0  0  0  0
 43 44  1  0  0  0  0
 43 71  1  0  0  0  0
 43 72  1  0  0  0  0
 44 73  1  0  0  0  0
 44 74  1  0  0  0  0
M  END
$$$$
