CHEMBL3983201
 OpenBabel04072215373D

 55 59  0  0  0  0  0  0  0  0999 V2000
    1.2164    0.2904   -0.4843 C   0  0  0  0  0  0  0  0  0  0  0  0
    2.6201    0.1551   -0.3069 O   0  0  0  0  0  0  0  0  0  0  0  0
    3.1738   -1.0886   -0.4115 C   0  0  0  0  0  0  0  0  0  0  0  0
    4.2654   -1.2789    0.4437 C   0  0  0  0  0  0  0  0  0  0  0  0
    4.9893   -2.4977    0.4602 C   0  0  0  0  0  0  0  0  0  0  0  0
    6.0739   -2.8016    1.2946 C   0  0  0  0  0  0  0  0  0  0  0  0
    6.5033   -1.8544    2.2613 N   0  0  0  0  0  0  0  0  0  0  0  0
    7.7618   -1.9116    2.8938 C   0  0  0  0  0  0  0  0  0  0  0  0
    8.9264   -2.1029    2.1324 C   0  0  0  0  0  0  0  0  0  0  0  0
   10.1701   -2.2432    2.7447 C   0  0  0  0  0  0  0  0  0  0  0  0
   10.2686   -2.1886    4.1340 C   0  0  0  0  0  0  0  0  0  0  0  0
   11.8301   -2.4135    4.8344 Cl  0  0  0  0  0  0  0  0  0  0  0  0
    9.1198   -1.9689    4.9031 C   0  0  0  0  0  0  0  0  0  0  0  0
    9.1686   -1.8836    6.6275 Cl  0  0  0  0  0  0  0  0  0  0  0  0
    7.8730   -1.8218    4.2826 C   0  0  0  0  0  0  0  0  0  0  0  0
    6.7334   -3.9764    1.2146 N   0  0  0  0  0  0  0  0  0  0  0  0
    6.3076   -4.8554    0.3091 C   0  0  0  0  0  0  0  0  0  0  0  0
    5.2852   -4.6743   -0.5261 N   0  0  0  0  0  0  0  0  0  0  0  0
    4.6485   -3.5053   -0.4397 C   0  0  0  0  0  0  0  0  0  0  0  0
    3.5943   -3.2917   -1.3017 C   0  0  0  0  0  0  0  0  0  0  0  0
    2.8196   -2.1182   -1.2863 C   0  0  0  0  0  0  0  0  0  0  0  0
    1.7523   -1.9561   -2.1353 O   0  0  0  0  0  0  0  0  0  0  0  0
    1.1755   -3.1964   -2.5799 C   0  0  0  0  0  0  0  0  0  0  0  0
   -0.2318   -3.0464   -3.0282 C   0  0  0  0  0  0  0  0  0  0  0  0
   -0.7599   -2.0616   -3.8318 C   0  0  0  0  0  0  0  0  0  0  0  0
   -2.4263   -2.3500   -4.0864 S   0  0  0  0  0  0  0  0  0  0  0  0
   -2.3349   -3.7611   -3.0957 C   0  0  0  0  0  0  0  0  0  0  0  0
   -3.5061   -4.6087   -2.8463 C   0  0  0  0  0  0  0  0  0  0  0  0
   -3.3299   -5.9845   -2.6248 C   0  0  0  0  0  0  0  0  0  0  0  0
   -4.4267   -6.8251   -2.4103 C   0  0  0  0  0  0  0  0  0  0  0  0
   -5.7268   -6.3008   -2.4024 C   0  0  0  0  0  0  0  0  0  0  0  0
   -6.9338   -7.1846   -2.2155 C   0  0  0  0  0  0  0  0  0  0  0  0
   -6.6315   -8.5053   -2.0820 F   0  0  0  0  0  0  0  0  0  0  0  0
   -7.6576   -6.8508   -1.1117 F   0  0  0  0  0  0  0  0  0  0  0  0
   -7.7968   -7.1031   -3.2665 F   0  0  0  0  0  0  0  0  0  0  0  0
   -5.9016   -4.9216   -2.5808 C   0  0  0  0  0  0  0  0  0  0  0  0
   -4.8049   -4.0861   -2.7980 C   0  0  0  0  0  0  0  0  0  0  0  0
   -1.1329   -4.0249   -2.6358 N   0  0  0  0  0  0  0  0  0  0  0  0
    0.8421    0.9012    0.3447 H   0  0  0  0  0  0  0  0  0  0  0  0
    0.6592   -0.6491   -0.4623 H   0  0  0  0  0  0  0  0  0  0  0  0
    1.0224    0.8359   -1.4126 H   0  0  0  0  0  0  0  0  0  0  0  0
    4.5564   -0.4625    1.1019 H   0  0  0  0  0  0  0  0  0  0  0  0
    5.7387   -1.6489    2.8961 H   0  0  0  0  0  0  0  0  0  0  0  0
    8.8574   -2.1679    1.0487 H   0  0  0  0  0  0  0  0  0  0  0  0
   11.0480   -2.4123    2.1278 H   0  0  0  0  0  0  0  0  0  0  0  0
    6.9860   -1.6717    4.8932 H   0  0  0  0  0  0  0  0  0  0  0  0
    6.8358   -5.7995    0.2452 H   0  0  0  0  0  0  0  0  0  0  0  0
    3.3944   -4.0949   -2.0057 H   0  0  0  0  0  0  0  0  0  0  0  0
    1.1669   -3.9292   -1.7610 H   0  0  0  0  0  0  0  0  0  0  0  0
    1.7666   -3.5904   -3.4157 H   0  0  0  0  0  0  0  0  0  0  0  0
   -0.2533   -1.2130   -4.2696 H   0  0  0  0  0  0  0  0  0  0  0  0
   -2.3269   -6.4133   -2.6267 H   0  0  0  0  0  0  0  0  0  0  0  0
   -4.2591   -7.8905   -2.2573 H   0  0  0  0  0  0  0  0  0  0  0  0
   -6.9010   -4.4884   -2.5578 H   0  0  0  0  0  0  0  0  0  0  0  0
   -4.9808   -3.0204   -2.9191 H   0  0  0  0  0  0  0  0  0  0  0  0
  1  2  1  0  0  0  0
  1 39  1  0  0  0  0
  1 40  1  0  0  0  0
  1 41  1  0  0  0  0
  2  3  1  0  0  0  0
  3  4  1  0  0  0  0
  3 21  2  0  0  0  0
  4  5  2  0  0  0  0
  4 42  1  0  0  0  0
  5  6  1  0  0  0  0
  5 19  1  0  0  0  0
  6  7  1  0  0  0  0
  6 16  2  0  0  0  0
  7  8  1  0  0  0  0
  7 43  1  0  0  0  0
  8  9  1  0  0  0  0
  8 15  2  0  0  0  0
  9 10  2  0  0  0  0
  9 44  1  0  0  0  0
 10 11  1  0  0  0  0
 10 45  1  0  0  0  0
 11 12  1  0  0  0  0
 11 13  2  0  0  0  0
 13 14  1  0  0  0  0
 13 15  1  0  0  0  0
 15 46  1  0  0  0  0
 16 17  1  0  0  0  0
 17 18  2  0  0  0  0
 17 47  1  0  0  0  0
 18 19  1  0  0  0  0
 19 20  2  0  0  0  0
 20 21  1  0  0  0  0
 20 48  1  0  0  0  0
 21 22  1  0  0  0  0
 22 23  1  0  0  0  0
 23 24  1  0  0  0  0
 23 49  1  0  0  0  0
 23 50  1  0  0  0  0
 24 25  2  0  0  0  0
 24 38  1  0  0  0  0
 25 26  1  0  0  0  0
 25 51  1  0  0  0  0
 26 27  1  0  0  0  0
 27 28  1  0  0  0  0
 27 38  2  0  0  0  0
 28 29  1  0  0  0  0
 28 37  2  0  0  0  0
 29 30  2  0  0  0  0
 29 52  1  0  0  0  0
 30 31  1  0  0  0  0
 30 53  1  0  0  0  0
 31 32  1  0  0  0  0
 31 36  2  0  0  0  0
 32 33  1  0  0  0  0
 32 34  1  0  0  0  0
 32 35  1  0  0  0  0
 36 37  1  0  0  0  0
 36 54  1  0  0  0  0
 37 55  1  0  0  0  0
M  END
$$$$
