CHEMBL2023119
 OpenBabel04072215363D

 56 59  0  0  0  0  0  0  0  0999 V2000
    9.2128    3.4716   -1.0333 C   0  0  0  0  0  0  0  0  0  0  0  0
    9.1227    4.2084   -2.3564 C   0  0  0  0  0  0  0  0  0  0  0  0
    8.1890    5.3162   -2.2947 N   0  0  0  0  0  0  0  0  0  0  0  0
    6.8631    5.2050   -2.5520 C   0  0  0  0  0  0  0  0  0  0  0  0
    6.3349    6.4737   -2.5353 C   0  0  0  0  0  0  0  0  0  0  0  0
    5.0112    6.8157   -2.7879 N   0  0  0  0  0  0  0  0  0  0  0  0
    4.0215    5.8543   -2.6616 C   0  0  0  0  0  0  0  0  0  0  0  0
    4.2517    4.6764   -2.3735 O   0  0  0  0  0  0  0  0  0  0  0  0
    2.5850    6.2904   -2.9433 C   0  0  0  0  0  0  0  0  0  0  0  0
    2.0036    7.3314   -1.9710 C   0  0  0  0  0  0  0  0  0  0  0  0
    1.3998    6.8569   -0.7764 C   0  0  0  0  0  0  0  0  0  0  0  0
    1.1187    7.6754    0.3528 C   0  0  0  0  0  0  0  0  0  0  0  0
    1.3257    9.0751    0.3236 C   0  0  0  0  0  0  0  0  0  0  0  0
    1.0063    9.7112    1.5171 O   0  0  0  0  0  0  0  0  0  0  0  0
    0.9042   10.9194    2.2390 C   0  0  0  0  0  0  0  0  0  0  0  0
    1.1883   12.5441    2.0776 C   0  0  0  0  0  0  0  0  0  0  0  0
    1.0062   13.5539    3.0254 C   0  0  0  0  0  0  0  0  0  0  0  0
    0.6518   12.5577    3.6955 N   0  0  0  0  0  0  0  0  0  0  0  0
    0.2837   11.5684    4.4438 C   0  0  0  0  0  0  0  0  0  0  0  0
    0.0334   11.6876    5.7571 C   0  0  0  0  0  0  0  0  0  0  0  0
   -0.2687   10.5019    6.3512 C   0  0  0  0  0  0  0  0  0  0  0  0
   -0.2800    9.3086    5.5925 C   0  0  0  0  0  0  0  0  0  0  0  0
   -0.6022    8.1070    6.1678 O   0  0  0  0  0  0  0  0  0  0  0  0
   -0.2616    8.0727    7.5531 C   0  0  0  0  0  0  0  0  0  0  0  0
    0.0329    9.2988    4.2181 C   0  0  0  0  0  0  0  0  0  0  0  0
    0.3965   10.5174    3.5929 C   0  0  0  0  0  0  0  0  0  0  0  0
    1.7990    9.5563   -0.9213 C   0  0  0  0  0  0  0  0  0  0  0  0
    2.1076    8.7385   -2.0910 C   0  0  0  0  0  0  0  0  0  0  0  0
    2.4919    9.2717   -3.3264 O   0  0  0  0  0  0  0  0  0  0  0  0
    2.5564   10.7110   -3.4979 C   0  0  0  0  0  0  0  0  0  0  0  0
    7.4430    7.2869   -2.2203 C   0  0  0  0  0  0  0  0  0  0  0  0
    8.5772    6.5851   -2.0631 N   0  0  0  0  0  0  0  0  0  0  0  0
    9.9112    2.6322   -1.1044 H   0  0  0  0  0  0  0  0  0  0  0  0
    8.2347    3.0826   -0.7292 H   0  0  0  0  0  0  0  0  0  0  0  0
    9.5640    4.1395   -0.2411 H   0  0  0  0  0  0  0  0  0  0  0  0
    8.7754    3.5325   -3.1529 H   0  0  0  0  0  0  0  0  0  0  0  0
   10.0947    4.6046   -2.6563 H   0  0  0  0  0  0  0  0  0  0  0  0
    6.4401    4.2322   -2.7559 H   0  0  0  0  0  0  0  0  0  0  0  0
    4.7748    7.7878   -2.9651 H   0  0  0  0  0  0  0  0  0  0  0  0
    1.9944    5.3489   -2.9014 H   0  0  0  0  0  0  0  0  0  0  0  0
    2.5667    6.6315   -3.9794 H   0  0  0  0  0  0  0  0  0  0  0  0
    1.1171    5.8107   -0.6689 H   0  0  0  0  0  0  0  0  0  0  0  0
    0.7711    7.1453    1.2519 H   0  0  0  0  0  0  0  0  0  0  0  0
    1.5675   13.0107    1.1747 H   0  0  0  0  0  0  0  0  0  0  0  0
    0.8113   14.2170    3.8711 H   0  0  0  0  0  0  0  0  0  0  0  0
    0.1236   12.6425    6.2514 H   0  0  0  0  0  0  0  0  0  0  0  0
   -0.4996   10.5691    7.3975 H   0  0  0  0  0  0  0  0  0  0  0  0
   -0.4668    7.0750    7.9366 H   0  0  0  0  0  0  0  0  0  0  0  0
   -0.8726    8.7747    8.1323 H   0  0  0  0  0  0  0  0  0  0  0  0
    0.8067    8.2827    7.6921 H   0  0  0  0  0  0  0  0  0  0  0  0
    0.0097    8.3854    3.6303 H   0  0  0  0  0  0  0  0  0  0  0  0
    1.9889   10.6075   -1.0122 H   0  0  0  0  0  0  0  0  0  0  0  0
    3.0196   10.9831   -4.4634 H   0  0  0  0  0  0  0  0  0  0  0  0
    3.1869   11.1744   -2.7334 H   0  0  0  0  0  0  0  0  0  0  0  0
    1.5630   11.1764   -3.5250 H   0  0  0  0  0  0  0  0  0  0  0  0
    7.4679    8.3586   -2.0839 H   0  0  0  0  0  0  0  0  0  0  0  0
  1  2  1  0  0  0  0
  1 33  1  0  0  0  0
  1 34  1  0  0  0  0
  1 35  1  0  0  0  0
  2  3  1  0  0  0  0
  2 36  1  0  0  0  0
  2 37  1  0  0  0  0
  3  4  1  0  0  0  0
  3 32  1  0  0  0  0
  4  5  2  0  0  0  0
  4 38  1  0  0  0  0
  5  6  1  0  0  0  0
  5 31  1  0  0  0  0
  6  7  1  0  0  0  0
  6 39  1  0  0  0  0
  7  8  2  0  0  0  0
  7  9  1  0  0  0  0
  9 10  1  0  0  0  0
  9 40  1  0  0  0  0
  9 41  1  0  0  0  0
 10 11  1  0  0  0  0
 10 28  2  0  0  0  0
 11 12  2  0  0  0  0
 11 42  1  0  0  0  0
 12 13  1  0  0  0  0
 12 43  1  0  0  0  0
 13 14  1  0  0  0  0
 13 27  2  0  0  0  0
 14 15  1  0  0  0  0
 15 16  1  0  0  0  0
 15 26  2  0  0  0  0
 16 17  2  0  0  0  0
 16 44  1  0  0  0  0
 17 18  1  0  0  0  0
 17 45  1  0  0  0  0
 18 19  2  0  0  0  0
 19 20  1  0  0  0  0
 19 26  1  0  0  0  0
 20 21  2  0  0  0  0
 20 46  1  0  0  0  0
 21 22  1  0  0  0  0
 21 47  1  0  0  0  0
 22 23  1  0  0  0  0
 22 25  2  0  0  0  0
 23 24  1  0  0  0  0
 24 48  1  0  0  0  0
 24 49  1  0  0  0  0
 24 50  1  0  0  0  0
 25 26  1  0  0  0  0
 25 51  1  0  0  0  0
 27 28  1  0  0  0  0
 27 52  1  0  0  0  0
 28 29  1  0  0  0  0
 29 30  1  0  0  0  0
 30 53  1  0  0  0  0
 30 54  1  0  0  0  0
 30 55  1  0  0  0  0
 31 32  2  0  0  0  0
 31 56  1  0  0  0  0
M  END
$$$$
