CHEMBL222778
 OpenBabel04072215363D

 29 31  0  0  0  0  0  0  0  0999 V2000
    2.3982    0.1108    0.2522 N   0  0  0  0  0  0  0  0  0  0  0  0
    1.0072    0.0607    0.1158 C   0  0  0  0  0  0  0  0  0  0  0  0
    0.2829   -1.0124    0.6269 C   0  0  0  0  0  0  0  0  0  0  0  0
   -1.1186   -1.0225    0.5699 C   0  0  0  0  0  0  0  0  0  0  0  0
   -1.8488    0.0750    0.0762 C   0  0  0  0  0  0  0  0  0  0  0  0
   -3.3296    0.0587    0.0337 C   0  0  0  0  0  0  0  0  0  0  0  0
   -4.0677   -0.5464    1.0863 C   0  0  0  0  0  0  0  0  0  0  0  0
   -5.4611   -0.5922    1.1037 C   0  0  0  0  0  0  0  0  0  0  0  0
   -6.2012   -0.0140    0.0799 C   0  0  0  0  0  0  0  0  0  0  0  0
   -5.4863    0.5837   -0.9601 C   0  0  0  0  0  0  0  0  0  0  0  0
   -5.9440    1.2380   -2.0690 N   0  0  0  0  0  0  0  0  0  0  0  0
   -4.9863    1.6733   -2.8889 N   0  0  0  0  0  0  0  0  0  0  0  0
   -3.8638    1.2999   -2.2862 C   0  0  0  0  0  0  0  0  0  0  0  0
   -2.6760    1.5416   -2.8649 N   0  0  0  0  0  0  0  0  0  0  0  0
   -4.0901    0.6334   -1.0325 C   0  0  0  0  0  0  0  0  0  0  0  0
   -1.1000    1.1968   -0.3064 C   0  0  0  0  0  0  0  0  0  0  0  0
    0.3018    1.1833   -0.3099 C   0  0  0  0  0  0  0  0  0  0  0  0
    2.8420   -0.8006    0.2986 H   0  0  0  0  0  0  0  0  0  0  0  0
    2.8504    0.7246   -0.4188 H   0  0  0  0  0  0  0  0  0  0  0  0
    0.7985   -1.8611    1.0685 H   0  0  0  0  0  0  0  0  0  0  0  0
   -1.6330   -1.9081    0.9386 H   0  0  0  0  0  0  0  0  0  0  0  0
   -3.5408   -0.9888    1.9306 H   0  0  0  0  0  0  0  0  0  0  0  0
   -5.9729   -1.0762    1.9331 H   0  0  0  0  0  0  0  0  0  0  0  0
   -7.2850   -0.0368    0.0923 H   0  0  0  0  0  0  0  0  0  0  0  0
   -6.9090    1.4078   -2.3302 H   0  0  0  0  0  0  0  0  0  0  0  0
   -2.7187    1.8824   -3.8184 H   0  0  0  0  0  0  0  0  0  0  0  0
   -1.9045    0.9050   -2.7003 H   0  0  0  0  0  0  0  0  0  0  0  0
   -1.6011    2.1131   -0.6125 H   0  0  0  0  0  0  0  0  0  0  0  0
    0.8326    2.0718   -0.6421 H   0  0  0  0  0  0  0  0  0  0  0  0
  1  2  1  0  0  0  0
  1 18  1  0  0  0  0
  1 19  1  0  0  0  0
  2  3  1  0  0  0  0
  2 17  2  0  0  0  0
  3  4  2  0  0  0  0
  3 20  1  0  0  0  0
  4  5  1  0  0  0  0
  4 21  1  0  0  0  0
  5  6  1  0  0  0  0
  5 16  2  0  0  0  0
  6  7  1  0  0  0  0
  6 15  2  0  0  0  0
  7  8  2  0  0  0  0
  7 22  1  0  0  0  0
  8  9  1  0  0  0  0
  8 23  1  0  0  0  0
  9 10  2  0  0  0  0
  9 24  1  0  0  0  0
 10 11  1  0  0  0  0
 10 15  1  0  0  0  0
 11 12  1  0  0  0  0
 11 25  1  0  0  0  0
 12 13  2  0  0  0  0
 13 14  1  0  0  0  0
 13 15  1  0  0  0  0
 14 26  1  0  0  0  0
 14 27  1  0  0  0  0
 16 17  1  0  0  0  0
 16 28  1  0  0  0  0
 17 29  1  0  0  0  0
M  END
$$$$
