CHEMBL4516793
 OpenBabel04072215383D

 64 70  0  0  1  0  0  0  0  0999 V2000
    7.8738    6.2288   -1.5802 C   0  0  0  0  0  0  0  0  0  0  0  0
    8.0152    6.8154   -2.8684 O   0  0  0  0  0  0  0  0  0  0  0  0
    7.1298    6.4094   -3.8311 C   0  0  0  0  0  0  0  0  0  0  0  0
    7.3279    7.0114   -5.0901 C   0  0  0  0  0  0  0  0  0  0  0  0
    6.5157    6.6954   -6.1801 C   0  0  0  0  0  0  0  0  0  0  0  0
    5.5019    5.7901   -5.9581 C   0  0  0  0  0  0  0  0  0  0  0  0
    5.2469    5.2002   -4.7089 C   0  0  0  0  0  0  0  0  0  0  0  0
    6.0919    5.4873   -3.6439 C   0  0  0  0  0  0  0  0  0  0  0  0
    4.0499    4.3034   -4.8632 C   0  0  1  0  0  0  0  0  0  0  0  0
    3.8713    3.0663   -4.0321 C   0  0  0  0  0  0  0  0  0  0  0  0
    2.8741    4.2022   -3.9125 C   0  0  1  0  0  0  0  0  0  0  0  0
    2.7385    4.9629   -2.6142 C   0  0  0  0  0  0  0  0  0  0  0  0
    2.2976    4.3016   -1.4543 C   0  0  0  0  0  0  0  0  0  0  0  0
    2.0974    4.9665   -0.2341 C   0  0  0  0  0  0  0  0  0  0  0  0
    2.3608    6.3453   -0.1574 C   0  0  0  0  0  0  0  0  0  0  0  0
    2.3302    7.3585    0.8544 C   0  0  0  0  0  0  0  0  0  0  0  0
    2.0441    7.2300    2.2796 C   0  0  0  0  0  0  0  0  0  0  0  0
    1.4428    8.2703    2.9815 C   0  0  0  0  0  0  0  0  0  0  0  0
    1.2286    8.1391    4.3493 C   0  0  0  0  0  0  0  0  0  0  0  0
    1.6097    6.9738    5.0172 C   0  0  0  0  0  0  0  0  0  0  0  0
    1.3382    6.8872    6.3753 N   0  0  0  0  0  0  0  0  0  0  0  0
    1.2599    5.5545    6.9833 C   0  0  0  0  0  0  0  0  0  0  0  0
    0.4893    5.6989    8.3250 C   0  0  0  0  0  0  0  0  0  0  0  0
    1.1095    6.6794    9.2552 N   0  0  0  0  0  0  0  0  0  0  0  0
    0.2697    6.8682   10.4367 C   0  0  0  0  0  0  0  0  0  0  0  0
    1.3096    7.9757    8.5629 C   0  0  0  0  0  0  0  0  0  0  0  0
    2.0762    7.8314    7.2293 C   0  0  0  0  0  0  0  0  0  0  0  0
    2.1684    5.9442    4.3491 N   0  0  0  0  0  0  0  0  0  0  0  0
    2.3904    6.1025    3.0158 C   0  0  0  0  0  0  0  0  0  0  0  0
    2.6248    8.5628    0.3293 N   0  0  0  0  0  0  0  0  0  0  0  0
    2.8804    8.3138   -0.9616 N   0  0  0  0  0  0  0  0  0  0  0  0
    2.7551    7.0012   -1.3165 C   0  0  0  0  0  0  0  0  0  0  0  0
    2.9406    6.3530   -2.5438 C   0  0  0  0  0  0  0  0  0  0  0  0
    3.7433    4.3602   -6.3425 C   0  0  0  0  0  0  0  0  0  0  0  0
    2.8798    3.7118   -6.9079 O   0  0  0  0  0  0  0  0  0  0  0  0
    4.6031    5.2888   -6.9010 N   0  0  0  0  0  0  0  0  0  0  0  0
    8.5872    6.7168   -0.9094 H   0  0  0  0  0  0  0  0  0  0  0  0
    8.1168    5.1615   -1.6125 H   0  0  0  0  0  0  0  0  0  0  0  0
    6.8716    6.3951   -1.1716 H   0  0  0  0  0  0  0  0  0  0  0  0
    8.1375    7.7273   -5.2159 H   0  0  0  0  0  0  0  0  0  0  0  0
    6.6846    7.1438   -7.1520 H   0  0  0  0  0  0  0  0  0  0  0  0
    5.9225    4.9928   -2.6952 H   0  0  0  0  0  0  0  0  0  0  0  0
    4.5535    2.8849   -3.2086 H   0  0  0  0  0  0  0  0  0  0  0  0
    3.5467    2.1616   -4.5335 H   0  0  0  0  0  0  0  0  0  0  0  0
    1.9129    4.0162   -4.3938 H   0  0  0  0  0  0  0  0  0  0  0  0
    2.0792    3.2352   -1.5026 H   0  0  0  0  0  0  0  0  0  0  0  0
    1.7278    4.4134    0.6245 H   0  0  0  0  0  0  0  0  0  0  0  0
    1.1343    9.1791    2.4746 H   0  0  0  0  0  0  0  0  0  0  0  0
    0.7345    8.9377    4.8932 H   0  0  0  0  0  0  0  0  0  0  0  0
    2.2614    5.1403    7.1653 H   0  0  0  0  0  0  0  0  0  0  0  0
    0.7117    4.8545    6.3425 H   0  0  0  0  0  0  0  0  0  0  0  0
    0.4360    4.7173    8.8096 H   0  0  0  0  0  0  0  0  0  0  0  0
   -0.5400    6.0090    8.0941 H   0  0  0  0  0  0  0  0  0  0  0  0
    0.1420    5.9224   10.9735 H   0  0  0  0  0  0  0  0  0  0  0  0
   -0.7233    7.2582   10.1836 H   0  0  0  0  0  0  0  0  0  0  0  0
    0.7438    7.5680   11.1338 H   0  0  0  0  0  0  0  0  0  0  0  0
    1.8681    8.6575    9.2145 H   0  0  0  0  0  0  0  0  0  0  0  0
    0.3379    8.4429    8.3500 H   0  0  0  0  0  0  0  0  0  0  0  0
    3.0938    7.4620    7.4167 H   0  0  0  0  0  0  0  0  0  0  0  0
    2.1692    8.8239    6.7733 H   0  0  0  0  0  0  0  0  0  0  0  0
    2.8961    5.2585    2.5562 H   0  0  0  0  0  0  0  0  0  0  0  0
    3.1413    9.0916   -1.5567 H   0  0  0  0  0  0  0  0  0  0  0  0
    3.2342    6.9144   -3.4263 H   0  0  0  0  0  0  0  0  0  0  0  0
    4.5945    5.5151   -7.8836 H   0  0  0  0  0  0  0  0  0  0  0  0
  1  2  1  0  0  0  0
  1 37  1  0  0  0  0
  1 38  1  0  0  0  0
  1 39  1  0  0  0  0
  2  3  1  0  0  0  0
  3  4  1  0  0  0  0
  3  8  2  0  0  0  0
  4  5  2  0  0  0  0
  4 40  1  0  0  0  0
  5  6  1  0  0  0  0
  5 41  1  0  0  0  0
  6  7  2  0  0  0  0
  6 36  1  0  0  0  0
  7  8  1  0  0  0  0
  8 42  1  0  0  0  0
  9  7  1  1  0  0  0
  9 10  1  0  0  0  0
  9 11  1  0  0  0  0
  9 34  1  0  0  0  0
 10 11  1  0  0  0  0
 10 43  1  0  0  0  0
 10 44  1  0  0  0  0
 11 12  1  0  0  0  0
 11 45  1  6  0  0  0
 12 13  1  0  0  0  0
 12 33  2  0  0  0  0
 13 14  2  0  0  0  0
 13 46  1  0  0  0  0
 14 15  1  0  0  0  0
 14 47  1  0  0  0  0
 15 16  1  0  0  0  0
 15 32  2  0  0  0  0
 16 17  1  0  0  0  0
 16 30  2  0  0  0  0
 17 18  1  0  0  0  0
 17 29  2  0  0  0  0
 18 19  2  0  0  0  0
 18 48  1  0  0  0  0
 19 20  1  0  0  0  0
 19 49  1  0  0  0  0
 20 21  1  0  0  0  0
 20 28  2  0  0  0  0
 21 22  1  0  0  0  0
 21 27  1  0  0  0  0
 22 23  1  0  0  0  0
 22 50  1  0  0  0  0
 22 51  1  0  0  0  0
 23 24  1  0  0  0  0
 23 52  1  0  0  0  0
 23 53  1  0  0  0  0
 24 25  1  0  0  0  0
 24 26  1  0  0  0  0
 25 54  1  0  0  0  0
 25 55  1  0  0  0  0
 25 56  1  0  0  0  0
 26 27  1  0  0  0  0
 26 57  1  0  0  0  0
 26 58  1  0  0  0  0
 27 59  1  0  0  0  0
 27 60  1  0  0  0  0
 28 29  1  0  0  0  0
 29 61  1  0  0  0  0
 30 31  1  0  0  0  0
 31 32  1  0  0  0  0
 31 62  1  0  0  0  0
 32 33  1  0  0  0  0
 33 63  1  0  0  0  0
 34 35  2  0  0  0  0
 34 36  1  0  0  0  0
 36 64  1  0  0  0  0
M  END
$$$$
