CHEMBL3759155
 OpenBabel04072215373D

 68 72  0  0  0  0  0  0  0  0999 V2000
    2.6163    1.1270   -0.2199 C   0  0  0  0  0  0  0  0  0  0  0  0
    2.3477   -0.2781   -0.2011 O   0  0  0  0  0  0  0  0  0  0  0  0
    3.2000   -1.0549    0.5417 C   0  0  0  0  0  0  0  0  0  0  0  0
    4.4428   -0.5904    0.9872 C   0  0  0  0  0  0  0  0  0  0  0  0
    5.2223   -1.3389    1.8965 C   0  0  0  0  0  0  0  0  0  0  0  0
    6.3752   -0.8615    2.5405 C   0  0  0  0  0  0  0  0  0  0  0  0
    6.7963    0.4829    2.3060 N   0  0  0  0  0  0  0  0  0  0  0  0
    8.0289    1.0572    2.6870 C   0  0  0  0  0  0  0  0  0  0  0  0
    9.1751    0.2816    2.8442 C   0  0  0  0  0  0  0  0  0  0  0  0
   10.3816    0.8403    3.2542 C   0  0  0  0  0  0  0  0  0  0  0  0
   10.5023    2.2081    3.4691 C   0  0  0  0  0  0  0  0  0  0  0  0
   11.6882    2.8048    3.9639 N   0  0  0  0  0  0  0  0  0  0  0  0
   12.8295    2.1171    4.3558 C   0  0  0  0  0  0  0  0  0  0  0  0
   13.0183    0.9091    4.2464 O   0  0  0  0  0  0  0  0  0  0  0  0
   13.9363    2.9026    4.9658 C   0  0  0  0  0  0  0  0  0  0  0  0
   13.7464    4.1287    5.6221 C   0  0  0  0  0  0  0  0  0  0  0  0
   14.8297    4.7569    6.2377 C   0  0  0  0  0  0  0  0  0  0  0  0
   16.0987    4.1696    6.2173 C   0  0  0  0  0  0  0  0  0  0  0  0
   16.2913    2.9512    5.5754 C   0  0  0  0  0  0  0  0  0  0  0  0
   15.2126    2.3264    4.9521 C   0  0  0  0  0  0  0  0  0  0  0  0
    9.3937    3.0186    3.2003 C   0  0  0  0  0  0  0  0  0  0  0  0
    8.1691    2.4469    2.8061 C   0  0  0  0  0  0  0  0  0  0  0  0
    7.0698   -1.6397    3.3906 N   0  0  0  0  0  0  0  0  0  0  0  0
    6.6348   -2.8858    3.5818 C   0  0  0  0  0  0  0  0  0  0  0  0
    5.5434   -3.4260    3.0322 N   0  0  0  0  0  0  0  0  0  0  0  0
    4.8426   -2.6422    2.2140 C   0  0  0  0  0  0  0  0  0  0  0  0
    3.6725   -3.1387    1.6716 C   0  0  0  0  0  0  0  0  0  0  0  0
    2.7953   -2.3536    0.8998 C   0  0  0  0  0  0  0  0  0  0  0  0
    1.5436   -2.8095    0.5101 O   0  0  0  0  0  0  0  0  0  0  0  0
    1.0793   -3.9312    1.2901 C   0  0  0  0  0  0  0  0  0  0  0  0
   -0.4304   -4.2198    1.1682 C   0  0  0  0  0  0  0  0  0  0  0  0
   -0.9024   -5.2709    2.1204 N   0  0  0  0  0  0  0  0  0  0  0  0
   -0.7000   -4.8692    3.5262 C   0  0  0  0  0  0  0  0  0  0  0  0
   -1.2278   -5.8890    4.5374 C   0  0  0  0  0  0  0  0  0  0  0  0
   -2.6852   -6.2275    4.2793 C   0  0  0  0  0  0  0  0  0  0  0  0
   -2.8592   -6.6564    2.8293 C   0  0  0  0  0  0  0  0  0  0  0  0
   -2.3190   -5.5911    1.8662 C   0  0  0  0  0  0  0  0  0  0  0  0
    3.2972    1.3706   -1.0432 H   0  0  0  0  0  0  0  0  0  0  0  0
    3.0186    1.5057    0.7282 H   0  0  0  0  0  0  0  0  0  0  0  0
    1.6732    1.6547   -0.3828 H   0  0  0  0  0  0  0  0  0  0  0  0
    4.8252    0.3708    0.6581 H   0  0  0  0  0  0  0  0  0  0  0  0
    6.0212    1.1130    2.4825 H   0  0  0  0  0  0  0  0  0  0  0  0
    9.1530   -0.7909    2.6783 H   0  0  0  0  0  0  0  0  0  0  0  0
   11.2009    0.1474    3.3981 H   0  0  0  0  0  0  0  0  0  0  0  0
   11.6791    3.8109    4.0484 H   0  0  0  0  0  0  0  0  0  0  0  0
   12.7669    4.5848    5.7020 H   0  0  0  0  0  0  0  0  0  0  0  0
   14.6880    5.7015    6.7604 H   0  0  0  0  0  0  0  0  0  0  0  0
   16.9345    4.6539    6.7176 H   0  0  0  0  0  0  0  0  0  0  0  0
   17.2690    2.4762    5.5713 H   0  0  0  0  0  0  0  0  0  0  0  0
   15.3711    1.3579    4.4733 H   0  0  0  0  0  0  0  0  0  0  0  0
    9.4513    4.0983    3.3089 H   0  0  0  0  0  0  0  0  0  0  0  0
    7.3235    3.1027    2.6145 H   0  0  0  0  0  0  0  0  0  0  0  0
    7.2185   -3.5143    4.2460 H   0  0  0  0  0  0  0  0  0  0  0  0
    3.4397   -4.1674    1.9265 H   0  0  0  0  0  0  0  0  0  0  0  0
    1.2909   -3.7022    2.3371 H   0  0  0  0  0  0  0  0  0  0  0  0
    1.6218   -4.8332    0.9794 H   0  0  0  0  0  0  0  0  0  0  0  0
   -0.6197   -4.5556    0.1395 H   0  0  0  0  0  0  0  0  0  0  0  0
   -0.9990   -3.2908    1.2965 H   0  0  0  0  0  0  0  0  0  0  0  0
   -1.1660   -3.8942    3.7143 H   0  0  0  0  0  0  0  0  0  0  0  0
    0.3682   -4.7741    3.7425 H   0  0  0  0  0  0  0  0  0  0  0  0
   -1.1141   -5.4889    5.5519 H   0  0  0  0  0  0  0  0  0  0  0  0
   -0.6238   -6.8041    4.4882 H   0  0  0  0  0  0  0  0  0  0  0  0
   -3.3112   -5.3512    4.4870 H   0  0  0  0  0  0  0  0  0  0  0  0
   -3.0114   -7.0248    4.9565 H   0  0  0  0  0  0  0  0  0  0  0  0
   -3.9209   -6.8375    2.6275 H   0  0  0  0  0  0  0  0  0  0  0  0
   -2.3358   -7.6070    2.6645 H   0  0  0  0  0  0  0  0  0  0  0  0
   -2.9381   -4.6886    1.9490 H   0  0  0  0  0  0  0  0  0  0  0  0
   -2.4325   -5.9745    0.8451 H   0  0  0  0  0  0  0  0  0  0  0  0
  1  2  1  0  0  0  0
  1 38  1  0  0  0  0
  1 39  1  0  0  0  0
  1 40  1  0  0  0  0
  2  3  1  0  0  0  0
  3  4  1  0  0  0  0
  3 28  2  0  0  0  0
  4  5  2  0  0  0  0
  4 41  1  0  0  0  0
  5  6  1  0  0  0  0
  5 26  1  0  0  0  0
  6  7  1  0  0  0  0
  6 23  2  0  0  0  0
  7  8  1  0  0  0  0
  7 42  1  0  0  0  0
  8  9  1  0  0  0  0
  8 22  2  0  0  0  0
  9 10  2  0  0  0  0
  9 43  1  0  0  0  0
 10 11  1  0  0  0  0
 10 44  1  0  0  0  0
 11 12  1  0  0  0  0
 11 21  2  0  0  0  0
 12 13  1  0  0  0  0
 12 45  1  0  0  0  0
 13 14  2  0  0  0  0
 13 15  1  0  0  0  0
 15 16  1  0  0  0  0
 15 20  2  0  0  0  0
 16 17  2  0  0  0  0
 16 46  1  0  0  0  0
 17 18  1  0  0  0  0
 17 47  1  0  0  0  0
 18 19  2  0  0  0  0
 18 48  1  0  0  0  0
 19 20  1  0  0  0  0
 19 49  1  0  0  0  0
 20 50  1  0  0  0  0
 21 22  1  0  0  0  0
 21 51  1  0  0  0  0
 22 52  1  0  0  0  0
 23 24  1  0  0  0  0
 24 25  2  0  0  0  0
 24 53  1  0  0  0  0
 25 26  1  0  0  0  0
 26 27  2  0  0  0  0
 27 28  1  0  0  0  0
 27 54  1  0  0  0  0
 28 29  1  0  0  0  0
 29 30  1  0  0  0  0
 30 31  1  0  0  0  0
 30 55  1  0  0  0  0
 30 56  1  0  0  0  0
 31 32  1  0  0  0  0
 31 57  1  0  0  0  0
 31 58  1  0  0  0  0
 32 33  1  0  0  0  0
 32 37  1  0  0  0  0
 33 34  1  0  0  0  0
 33 59  1  0  0  0  0
 33 60  1  0  0  0  0
 34 35  1  0  0  0  0
 34 61  1  0  0  0  0
 34 62  1  0  0  0  0
 35 36  1  0  0  0  0
 35 63  1  0  0  0  0
 35 64  1  0  0  0  0
 36 37  1  0  0  0  0
 36 65  1  0  0  0  0
 36 66  1  0  0  0  0
 37 67  1  0  0  0  0
 37 68  1  0  0  0  0
M  END
$$$$
