CHEMBL2349011
 OpenBabel04072215363D

 57 61  0  0  0  0  0  0  0  0999 V2000
    2.1956   -2.5430   -6.8405 O   0  0  0  0  0  0  0  0  0  0  0  0
    3.1101   -2.2463   -6.0805 C   0  0  0  0  0  0  0  0  0  0  0  0
    3.2830   -1.0386   -5.4161 N   0  0  0  0  0  0  0  0  0  0  0  0
    2.4084    0.0705   -5.5006 C   0  0  0  0  0  0  0  0  0  0  0  0
    1.1001   -0.0445   -5.9849 C   0  0  0  0  0  0  0  0  0  0  0  0
    0.2847    1.0783   -6.1225 C   0  0  0  0  0  0  0  0  0  0  0  0
    0.7634    2.3329   -5.7691 C   0  0  0  0  0  0  0  0  0  0  0  0
    2.0630    2.4571   -5.2743 C   0  0  0  0  0  0  0  0  0  0  0  0
    2.5565    3.7097   -4.8453 O   0  0  0  0  0  0  0  0  0  0  0  0
    2.2730    4.8407   -5.6071 C   0  0  0  0  0  0  0  0  0  0  0  0
    2.3374    6.0290   -4.7218 C   0  0  0  0  0  0  0  0  0  0  0  0
    1.9736    7.1974   -5.2700 C   0  0  0  0  0  0  0  0  0  0  0  0
    1.6099    7.2356   -6.6324 C   0  0  0  0  0  0  0  0  0  0  0  0
    1.2129    8.2280   -7.3943 N   0  0  0  0  0  0  0  0  0  0  0  0
    1.0177    7.6896   -8.6313 C   0  0  0  0  0  0  0  0  0  0  0  0
    0.5977    8.4083   -9.7269 N   0  0  0  0  0  0  0  0  0  0  0  0
    0.3249    9.7635   -9.7043 C   0  0  0  0  0  0  0  0  0  0  0  0
    0.4002   10.5141   -8.7315 O   0  0  0  0  0  0  0  0  0  0  0  0
   -0.1087   10.3428  -11.0480 C   0  0  0  0  0  0  0  0  0  0  0  0
   -1.4394    9.7525  -11.5235 C   0  0  0  0  0  0  0  0  0  0  0  0
   -1.7726   10.2392  -12.9265 C   0  0  0  0  0  0  0  0  0  0  0  0
   -0.6977    9.9482  -13.8188 O   0  0  0  0  0  0  0  0  0  0  0  0
    0.4930   10.6520  -13.4685 C   0  0  0  0  0  0  0  0  0  0  0  0
    0.9890   10.1972  -12.1046 C   0  0  0  0  0  0  0  0  0  0  0  0
    1.2994    6.3415   -8.6321 C   0  0  0  0  0  0  0  0  0  0  0  0
    1.6656    6.0491   -7.3445 N   0  0  0  0  0  0  0  0  0  0  0  0
    1.9837    4.8144   -6.8671 N   0  0  0  0  0  0  0  0  0  0  0  0
    2.8764    1.3316   -5.1016 C   0  0  0  0  0  0  0  0  0  0  0  0
    4.1985   -3.2414   -5.9072 C   0  0  0  0  0  0  0  0  0  0  0  0
    4.5384   -4.0499   -7.0044 C   0  0  0  0  0  0  0  0  0  0  0  0
    5.5586   -4.9961   -6.8940 C   0  0  0  0  0  0  0  0  0  0  0  0
    6.2308   -5.1431   -5.6834 C   0  0  0  0  0  0  0  0  0  0  0  0
    5.8689   -4.3561   -4.5939 C   0  0  0  0  0  0  0  0  0  0  0  0
    6.5073   -4.5155   -3.4280 F   0  0  0  0  0  0  0  0  0  0  0  0
    4.8565   -3.4075   -4.6876 C   0  0  0  0  0  0  0  0  0  0  0  0
    4.1821   -0.8674   -4.9846 H   0  0  0  0  0  0  0  0  0  0  0  0
    0.6763   -1.0061   -6.2544 H   0  0  0  0  0  0  0  0  0  0  0  0
   -0.7232    0.9667   -6.5148 H   0  0  0  0  0  0  0  0  0  0  0  0
    0.1177    3.1967   -5.8892 H   0  0  0  0  0  0  0  0  0  0  0  0
    2.6352    5.9248   -3.6880 H   0  0  0  0  0  0  0  0  0  0  0  0
    1.9552    8.1206   -4.7035 H   0  0  0  0  0  0  0  0  0  0  0  0
    0.4939    7.8898  -10.5864 H   0  0  0  0  0  0  0  0  0  0  0  0
   -0.2674   11.4201  -10.8854 H   0  0  0  0  0  0  0  0  0  0  0  0
   -2.2444   10.0216  -10.8300 H   0  0  0  0  0  0  0  0  0  0  0  0
   -1.3830    8.6581  -11.5363 H   0  0  0  0  0  0  0  0  0  0  0  0
   -1.9833   11.3151  -12.9418 H   0  0  0  0  0  0  0  0  0  0  0  0
   -2.6639    9.7231  -13.2971 H   0  0  0  0  0  0  0  0  0  0  0  0
    0.3050   11.7320  -13.4918 H   0  0  0  0  0  0  0  0  0  0  0  0
    1.2482   10.4312  -14.2295 H   0  0  0  0  0  0  0  0  0  0  0  0
    1.8765   10.7711  -11.8131 H   0  0  0  0  0  0  0  0  0  0  0  0
    1.3009    9.1493  -12.1832 H   0  0  0  0  0  0  0  0  0  0  0  0
    1.2730    5.5757   -9.3905 H   0  0  0  0  0  0  0  0  0  0  0  0
    3.8735    1.4563   -4.6906 H   0  0  0  0  0  0  0  0  0  0  0  0
    4.0065   -3.9395   -7.9485 H   0  0  0  0  0  0  0  0  0  0  0  0
    5.8219   -5.6146   -7.7486 H   0  0  0  0  0  0  0  0  0  0  0  0
    7.0283   -5.8735   -5.5783 H   0  0  0  0  0  0  0  0  0  0  0  0
    4.5812   -2.8406   -3.8048 H   0  0  0  0  0  0  0  0  0  0  0  0
  1  2  2  0  0  0  0
  2  3  1  0  0  0  0
  2 29  1  0  0  0  0
  3  4  1  0  0  0  0
  3 36  1  0  0  0  0
  4  5  1  0  0  0  0
  4 28  2  0  0  0  0
  5  6  2  0  0  0  0
  5 37  1  0  0  0  0
  6  7  1  0  0  0  0
  6 38  1  0  0  0  0
  7  8  2  0  0  0  0
  7 39  1  0  0  0  0
  8  9  1  0  0  0  0
  8 28  1  0  0  0  0
  9 10  1  0  0  0  0
 10 11  1  0  0  0  0
 10 27  2  0  0  0  0
 11 12  2  0  0  0  0
 11 40  1  0  0  0  0
 12 13  1  0  0  0  0
 12 41  1  0  0  0  0
 13 14  2  0  0  0  0
 13 26  1  0  0  0  0
 14 15  1  0  0  0  0
 15 16  1  0  0  0  0
 15 25  2  0  0  0  0
 16 17  1  0  0  0  0
 16 42  1  0  0  0  0
 17 18  2  0  0  0  0
 17 19  1  0  0  0  0
 19 20  1  0  0  0  0
 19 24  1  0  0  0  0
 19 43  1  0  0  0  0
 20 21  1  0  0  0  0
 20 44  1  0  0  0  0
 20 45  1  0  0  0  0
 21 22  1  0  0  0  0
 21 46  1  0  0  0  0
 21 47  1  0  0  0  0
 22 23  1  0  0  0  0
 23 24  1  0  0  0  0
 23 48  1  0  0  0  0
 23 49  1  0  0  0  0
 24 50  1  0  0  0  0
 24 51  1  0  0  0  0
 25 26  1  0  0  0  0
 25 52  1  0  0  0  0
 26 27  1  0  0  0  0
 28 53  1  0  0  0  0
 29 30  1  0  0  0  0
 29 35  2  0  0  0  0
 30 31  2  0  0  0  0
 30 54  1  0  0  0  0
 31 32  1  0  0  0  0
 31 55  1  0  0  0  0
 32 33  2  0  0  0  0
 32 56  1  0  0  0  0
 33 34  1  0  0  0  0
 33 35  1  0  0  0  0
 35 57  1  0  0  0  0
M  END
$$$$
