CHEMBL4107720
 OpenBabel04072215383D

 67 71  0  0  1  0  0  0  0  0999 V2000
    5.8903   -1.0436    0.6282 C   0  0  0  0  0  0  0  0  0  0  0  0
    4.6165   -0.5445    0.0091 C   0  0  0  0  0  0  0  0  0  0  0  0
    3.4311   -1.1856   -0.0527 C   0  0  0  0  0  0  0  0  0  0  0  0
    3.0589   -2.5840    0.2909 C   0  0  0  0  0  0  0  0  0  0  0  0
    3.8894   -3.3525    0.7761 O   0  0  0  0  0  0  0  0  0  0  0  0
    1.7593   -2.9251   -0.0501 N   0  0  0  0  0  0  0  0  0  0  0  0
    1.1394   -4.1865    0.0695 C   0  0  0  0  0  0  0  0  0  0  0  0
    1.6807   -5.2551    0.7851 C   0  0  0  0  0  0  0  0  0  0  0  0
    1.0564   -6.5120    0.7814 C   0  0  0  0  0  0  0  0  0  0  0  0
   -0.1178   -6.7109    0.0576 C   0  0  0  0  0  0  0  0  0  0  0  0
   -0.6313   -7.9925    0.0330 O   0  0  0  0  0  0  0  0  0  0  0  0
   -1.1095   -8.5160   -1.1606 C   0  0  0  0  0  0  0  0  0  0  0  0
   -0.6780   -8.0587   -2.4074 C   0  0  0  0  0  0  0  0  0  0  0  0
   -1.2745   -8.5781   -3.5364 C   0  0  0  0  0  0  0  0  0  0  0  0
   -2.1904   -9.5624   -3.5107 N   0  0  0  0  0  0  0  0  0  0  0  0
   -2.5379  -10.0736   -2.3193 C   0  0  0  0  0  0  0  0  0  0  0  0
   -3.4343  -11.1295   -2.3141 C   0  0  0  0  0  0  0  0  0  0  0  0
   -3.8660  -11.7315   -1.1329 C   0  0  0  0  0  0  0  0  0  0  0  0
   -4.7412  -12.7678   -1.3076 O   0  0  0  0  0  0  0  0  0  0  0  0
   -5.6275  -13.0461   -0.2173 C   0  0  0  0  0  0  0  0  0  0  0  0
   -6.8992  -13.7112   -0.7711 C   0  0  1  0  0  0  0  0  0  0  0  0
   -7.6104  -12.8411   -1.8012 C   0  0  0  0  0  0  0  0  0  0  0  0
   -6.5816  -14.9647   -1.3800 O   0  0  0  0  0  0  0  0  0  0  0  0
   -3.3712  -11.2759    0.0829 C   0  0  0  0  0  0  0  0  0  0  0  0
   -2.4708  -10.2033    0.1057 C   0  0  0  0  0  0  0  0  0  0  0  0
   -2.0354   -9.5857   -1.0953 C   0  0  0  0  0  0  0  0  0  0  0  0
   -0.7139   -5.6116   -0.5669 C   0  0  0  0  0  0  0  0  0  0  0  0
   -1.8824   -5.7373   -1.2121 F   0  0  0  0  0  0  0  0  0  0  0  0
   -0.0817   -4.3658   -0.5851 C   0  0  0  0  0  0  0  0  0  0  0  0
    2.4750   -0.1487   -0.4961 C   0  0  0  0  0  0  0  0  0  0  0  0
    1.2913   -0.3759   -0.7110 O   0  0  0  0  0  0  0  0  0  0  0  0
    3.1865    1.0456   -0.6380 N   0  0  0  0  0  0  0  0  0  0  0  0
    2.6464    2.1609   -1.3050 C   0  0  0  0  0  0  0  0  0  0  0  0
    1.4821    2.7335   -0.7737 C   0  0  0  0  0  0  0  0  0  0  0  0
    0.8928    3.8371   -1.3854 C   0  0  0  0  0  0  0  0  0  0  0  0
    1.4423    4.3510   -2.5558 C   0  0  0  0  0  0  0  0  0  0  0  0
    2.5916    3.7741   -3.1037 C   0  0  0  0  0  0  0  0  0  0  0  0
    3.2081    2.6901   -2.4678 C   0  0  0  0  0  0  0  0  0  0  0  0
    4.5537    0.7501   -0.5391 N   0  0  0  0  0  0  0  0  0  0  0  0
    5.4782    1.8195   -0.1649 C   0  0  0  0  0  0  0  0  0  0  0  0
    5.8555   -2.0944    0.9196 H   0  0  0  0  0  0  0  0  0  0  0  0
    6.0961   -0.4721    1.5436 H   0  0  0  0  0  0  0  0  0  0  0  0
    6.7357   -0.9159   -0.0512 H   0  0  0  0  0  0  0  0  0  0  0  0
    1.2080   -2.1980   -0.5171 H   0  0  0  0  0  0  0  0  0  0  0  0
    2.5946   -5.1421    1.3626 H   0  0  0  0  0  0  0  0  0  0  0  0
    1.5062   -7.3332    1.3345 H   0  0  0  0  0  0  0  0  0  0  0  0
    0.0781   -7.2927   -2.5226 H   0  0  0  0  0  0  0  0  0  0  0  0
   -1.0268   -8.2007   -4.5233 H   0  0  0  0  0  0  0  0  0  0  0  0
   -3.8120  -11.4953   -3.2667 H   0  0  0  0  0  0  0  0  0  0  0  0
   -5.9140  -12.1300    0.3106 H   0  0  0  0  0  0  0  0  0  0  0  0
   -5.1189  -13.7327    0.4693 H   0  0  0  0  0  0  0  0  0  0  0  0
   -7.5819  -13.9206    0.0592 H   0  0  0  0  0  0  0  0  0  0  0  0
   -6.9797  -12.6609   -2.6788 H   0  0  0  0  0  0  0  0  0  0  0  0
   -7.8982  -11.8767   -1.3725 H   0  0  0  0  0  0  0  0  0  0  0  0
   -8.5115  -13.3449   -2.1670 H   0  0  0  0  0  0  0  0  0  0  0  0
   -5.9452  -14.7726   -2.0943 H   0  0  0  0  0  0  0  0  0  0  0  0
   -3.6521  -11.7450    1.0211 H   0  0  0  0  0  0  0  0  0  0  0  0
   -2.0909   -9.8563    1.0640 H   0  0  0  0  0  0  0  0  0  0  0  0
   -0.5518   -3.5644   -1.1487 H   0  0  0  0  0  0  0  0  0  0  0  0
    1.0433    2.3341    0.1382 H   0  0  0  0  0  0  0  0  0  0  0  0
    0.0025    4.2851   -0.9516 H   0  0  0  0  0  0  0  0  0  0  0  0
    0.9698    5.1977   -3.0478 H   0  0  0  0  0  0  0  0  0  0  0  0
    2.9977    4.1634   -4.0331 H   0  0  0  0  0  0  0  0  0  0  0  0
    4.0827    2.2337   -2.9192 H   0  0  0  0  0  0  0  0  0  0  0  0
    5.2070    2.7834   -0.6009 H   0  0  0  0  0  0  0  0  0  0  0  0
    6.4804    1.5776   -0.5376 H   0  0  0  0  0  0  0  0  0  0  0  0
    5.5315    1.9390    0.9217 H   0  0  0  0  0  0  0  0  0  0  0  0
  1  2  1  0  0  0  0
  1 41  1  0  0  0  0
  1 42  1  0  0  0  0
  1 43  1  0  0  0  0
  2  3  2  0  0  0  0
  2 39  1  0  0  0  0
  3  4  1  0  0  0  0
  3 30  1  0  0  0  0
  4  5  2  0  0  0  0
  4  6  1  0  0  0  0
  6  7  1  0  0  0  0
  6 44  1  0  0  0  0
  7  8  1  0  0  0  0
  7 29  2  0  0  0  0
  8  9  2  0  0  0  0
  8 45  1  0  0  0  0
  9 10  1  0  0  0  0
  9 46  1  0  0  0  0
 10 11  1  0  0  0  0
 10 27  2  0  0  0  0
 11 12  1  0  0  0  0
 12 13  1  0  0  0  0
 12 26  2  0  0  0  0
 13 14  2  0  0  0  0
 13 47  1  0  0  0  0
 14 15  1  0  0  0  0
 14 48  1  0  0  0  0
 15 16  2  0  0  0  0
 16 17  1  0  0  0  0
 16 26  1  0  0  0  0
 17 18  2  0  0  0  0
 17 49  1  0  0  0  0
 18 19  1  0  0  0  0
 18 24  1  0  0  0  0
 19 20  1  0  0  0  0
 20 21  1  0  0  0  0
 20 50  1  0  0  0  0
 20 51  1  0  0  0  0
 21 22  1  0  0  0  0
 21 23  1  0  0  0  0
 21 52  1  1  0  0  0
 22 53  1  0  0  0  0
 22 54  1  0  0  0  0
 22 55  1  0  0  0  0
 23 56  1  0  0  0  0
 24 25  2  0  0  0  0
 24 57  1  0  0  0  0
 25 26  1  0  0  0  0
 25 58  1  0  0  0  0
 27 28  1  0  0  0  0
 27 29  1  0  0  0  0
 29 59  1  0  0  0  0
 30 31  2  0  0  0  0
 30 32  1  0  0  0  0
 32 33  1  0  0  0  0
 32 39  1  0  0  0  0
 33 34  1  0  0  0  0
 33 38  2  0  0  0  0
 34 35  2  0  0  0  0
 34 60  1  0  0  0  0
 35 36  1  0  0  0  0
 35 61  1  0  0  0  0
 36 37  2  0  0  0  0
 36 62  1  0  0  0  0
 37 38  1  0  0  0  0
 37 63  1  0  0  0  0
 38 64  1  0  0  0  0
 39 40  1  0  0  0  0
 40 65  1  0  0  0  0
 40 66  1  0  0  0  0
 40 67  1  0  0  0  0
M  END
$$$$
