CHEMBL3746204
 OpenBabel04072215373D

 50 53  0  0  0  0  0  0  0  0999 V2000
    3.0338    0.4153    1.8855 C   0  0  0  0  0  0  0  0  0  0  0  0
    2.6376    1.6421    1.1998 N   0  0  0  0  0  0  0  0  0  0  0  0
    3.4479    2.7847    1.6478 C   0  0  0  0  0  0  0  0  0  0  0  0
    4.9180    2.6675    1.3010 C   0  0  0  0  0  0  0  0  0  0  0  0
    5.2976    2.4984   -0.0159 C   0  0  0  0  0  0  0  0  0  0  0  0
    6.6507    2.5158   -0.2751 C   0  0  0  0  0  0  0  0  0  0  0  0
    7.1735    2.4728   -1.5519 O   0  0  0  0  0  0  0  0  0  0  0  0
    6.4821    3.0566   -2.5937 C   0  0  0  0  0  0  0  0  0  0  0  0
    5.7115    4.2163   -2.4824 C   0  0  0  0  0  0  0  0  0  0  0  0
    4.9526    4.6971   -3.5613 C   0  0  0  0  0  0  0  0  0  0  0  0
    5.0482    4.0252   -4.7926 C   0  0  0  0  0  0  0  0  0  0  0  0
    5.8857    2.9070   -4.9396 C   0  0  0  0  0  0  0  0  0  0  0  0
    5.7717    2.4535   -6.2763 C   0  0  0  0  0  0  0  0  0  0  0  0
    4.8108    3.2187   -6.8836 C   0  0  0  0  0  0  0  0  0  0  0  0
    4.3546    4.1792   -5.9958 N   0  0  0  0  0  0  0  0  0  0  0  0
    3.2529    5.0071   -6.2887 C   0  0  0  0  0  0  0  0  0  0  0  0
    2.2767    4.4872   -6.8047 O   0  0  0  0  0  0  0  0  0  0  0  0
    3.5360    6.3545   -6.1176 N   0  0  0  0  0  0  0  0  0  0  0  0
    2.6547    7.3709   -6.5783 C   0  0  0  0  0  0  0  0  0  0  0  0
    1.2770    7.1582   -6.7147 C   0  0  0  0  0  0  0  0  0  0  0  0
    0.4448    8.1464   -7.2458 C   0  0  0  0  0  0  0  0  0  0  0  0
    0.9885    9.3544   -7.6589 C   0  0  0  0  0  0  0  0  0  0  0  0
    0.1691   10.2703   -8.1927 F   0  0  0  0  0  0  0  0  0  0  0  0
    2.3499    9.6072   -7.5305 C   0  0  0  0  0  0  0  0  0  0  0  0
    2.9331   10.9002   -8.0260 C   0  0  0  0  0  0  0  0  0  0  0  0
    2.0545   11.7394   -8.6388 F   0  0  0  0  0  0  0  0  0  0  0  0
    3.4994   11.6273   -7.0224 F   0  0  0  0  0  0  0  0  0  0  0  0
    3.9311   10.6925   -8.9330 F   0  0  0  0  0  0  0  0  0  0  0  0
    3.1801    8.6146   -6.9551 C   0  0  0  0  0  0  0  0  0  0  0  0
    6.6130    2.4265   -3.8322 C   0  0  0  0  0  0  0  0  0  0  0  0
    7.5767    2.5495    0.7000 N   0  0  0  0  0  0  0  0  0  0  0  0
    7.1055    2.6404    1.9501 C   0  0  0  0  0  0  0  0  0  0  0  0
    5.8159    2.7356    2.3062 N   0  0  0  0  0  0  0  0  0  0  0  0
    2.4068   -0.4100    1.5366 H   0  0  0  0  0  0  0  0  0  0  0  0
    2.9093    0.5055    2.9691 H   0  0  0  0  0  0  0  0  0  0  0  0
    4.0708    0.1413    1.6659 H   0  0  0  0  0  0  0  0  0  0  0  0
    1.6615    1.8367    1.4206 H   0  0  0  0  0  0  0  0  0  0  0  0
    3.3226    2.9456    2.7255 H   0  0  0  0  0  0  0  0  0  0  0  0
    3.0668    3.6894    1.1561 H   0  0  0  0  0  0  0  0  0  0  0  0
    4.5537    2.3891   -0.7942 H   0  0  0  0  0  0  0  0  0  0  0  0
    5.6536    4.7467   -1.5343 H   0  0  0  0  0  0  0  0  0  0  0  0
    4.2858    5.5422   -3.4179 H   0  0  0  0  0  0  0  0  0  0  0  0
    6.2903    1.6185   -6.7281 H   0  0  0  0  0  0  0  0  0  0  0  0
    4.3878    3.1715   -7.8788 H   0  0  0  0  0  0  0  0  0  0  0  0
    4.5049    6.6096   -5.9595 H   0  0  0  0  0  0  0  0  0  0  0  0
    0.8115    6.2240   -6.4137 H   0  0  0  0  0  0  0  0  0  0  0  0
   -0.6181    7.9663   -7.3657 H   0  0  0  0  0  0  0  0  0  0  0  0
    4.2471    8.8131   -6.8622 H   0  0  0  0  0  0  0  0  0  0  0  0
    7.2373    1.5412   -3.9310 H   0  0  0  0  0  0  0  0  0  0  0  0
    7.8360    2.6437    2.7518 H   0  0  0  0  0  0  0  0  0  0  0  0
  1  2  1  0  0  0  0
  1 34  1  0  0  0  0
  1 35  1  0  0  0  0
  1 36  1  0  0  0  0
  2  3  1  0  0  0  0
  2 37  1  0  0  0  0
  3  4  1  0  0  0  0
  3 38  1  0  0  0  0
  3 39  1  0  0  0  0
  4  5  1  0  0  0  0
  4 33  2  0  0  0  0
  5  6  2  0  0  0  0
  5 40  1  0  0  0  0
  6  7  1  0  0  0  0
  6 31  1  0  0  0  0
  7  8  1  0  0  0  0
  8  9  1  0  0  0  0
  8 30  2  0  0  0  0
  9 10  2  0  0  0  0
  9 41  1  0  0  0  0
 10 11  1  0  0  0  0
 10 42  1  0  0  0  0
 11 12  2  0  0  0  0
 11 15  1  0  0  0  0
 12 13  1  0  0  0  0
 12 30  1  0  0  0  0
 13 14  2  0  0  0  0
 13 43  1  0  0  0  0
 14 15  1  0  0  0  0
 14 44  1  0  0  0  0
 15 16  1  0  0  0  0
 16 17  2  0  0  0  0
 16 18  1  0  0  0  0
 18 19  1  0  0  0  0
 18 45  1  0  0  0  0
 19 20  1  0  0  0  0
 19 29  2  0  0  0  0
 20 21  2  0  0  0  0
 20 46  1  0  0  0  0
 21 22  1  0  0  0  0
 21 47  1  0  0  0  0
 22 23  1  0  0  0  0
 22 24  2  0  0  0  0
 24 25  1  0  0  0  0
 24 29  1  0  0  0  0
 25 26  1  0  0  0  0
 25 27  1  0  0  0  0
 25 28  1  0  0  0  0
 29 48  1  0  0  0  0
 30 49  1  0  0  0  0
 31 32  2  0  0  0  0
 32 33  1  0  0  0  0
 32 50  1  0  0  0  0
M  END
$$$$
