CHEMBL3925306
 OpenBabel04072215373D

 76 80  0  0  0  0  0  0  0  0999 V2000
    4.2750    0.4661   -3.0873 C   0  0  0  0  0  0  0  0  0  0  0  0
    4.5515    0.7579   -1.7676 O   0  0  0  0  0  0  0  0  0  0  0  0
    5.2811   -0.0362   -0.9965 C   0  0  0  0  0  0  0  0  0  0  0  0
    6.1864   -0.7298   -1.5988 C   0  0  0  0  0  0  0  0  0  0  0  0
    7.1983   -1.3339   -0.9705 C   0  0  0  0  0  0  0  0  0  0  0  0
    8.1450   -1.9005   -1.7362 O   0  0  0  0  0  0  0  0  0  0  0  0
    9.2377   -2.5547   -1.1698 C   0  0  0  0  0  0  0  0  0  0  0  0
    7.2750   -1.2327    0.4052 C   0  0  0  0  0  0  0  0  0  0  0  0
    6.3141   -0.4966    1.1281 C   0  0  0  0  0  0  0  0  0  0  0  0
    6.5347   -0.2444    2.5748 N   0  0  0  0  0  0  0  0  0  0  0  0
    6.0179    0.9689    3.2587 C   0  0  0  0  0  0  0  0  0  0  0  0
    6.9910    2.0917    3.2242 C   0  0  0  0  0  0  0  0  0  0  0  0
    6.8339    3.5338    3.8290 C   0  0  0  0  0  0  0  0  0  0  0  0
    7.2651    3.3195    2.3493 C   0  0  0  0  0  0  0  0  0  0  0  0
    7.5167   -1.0125    3.3489 C   0  0  0  0  0  0  0  0  0  0  0  0
    7.6733   -2.2989    2.8516 C   0  0  0  0  0  0  0  0  0  0  0  0
    8.5352   -3.0461    3.3660 C   0  0  0  0  0  0  0  0  0  0  0  0
    9.2668   -2.6506    4.3252 C   0  0  0  0  0  0  0  0  0  0  0  0
    9.6285   -3.5365    4.7754 N   0  0  0  0  0  0  0  0  0  0  0  0
    9.9841   -4.4899    5.2122 C   0  0  0  0  0  0  0  0  0  0  0  0
   11.2161   -4.1405    5.6397 C   0  0  0  0  0  0  0  0  0  0  0  0
   11.9563   -6.0021    5.6004 C   0  0  0  0  0  0  0  0  0  0  0  0
   13.3843   -6.4199    5.9811 C   0  0  0  0  0  0  0  0  0  0  0  0
   13.7228   -7.6722    5.4790 N   0  0  0  0  0  0  0  0  0  0  0  0
   12.7119   -8.1279    4.7718 N   0  0  0  0  0  0  0  0  0  0  0  0
   12.7829   -9.4165    4.1253 C   0  0  0  0  0  0  0  0  0  0  0  0
   13.6437  -10.4809    4.7876 C   0  0  0  0  0  0  0  0  0  0  0  0
   13.7310  -11.8637    4.1106 C   0  0  0  0  0  0  0  0  0  0  0  0
   14.6416  -12.7691    4.9401 C   0  0  0  0  0  0  0  0  0  0  0  0
   16.1371  -12.4350    4.7341 C   0  0  0  0  0  0  0  0  0  0  0  0
   16.5191  -12.4084    3.3315 N   0  0  0  0  0  0  0  0  0  0  0  0
   15.6785  -11.5158    2.5187 C   0  0  0  0  0  0  0  0  0  0  0  0
   14.1959  -11.8255    2.6525 C   0  0  0  0  0  0  0  0  0  0  0  0
   11.6609   -7.2332    4.7761 C   0  0  0  0  0  0  0  0  0  0  0  0
   11.0165   -2.3680    5.8924 N   0  0  0  0  0  0  0  0  0  0  0  0
    9.6483   -1.6456    5.0747 C   0  0  0  0  0  0  0  0  0  0  0  0
    8.4456   -0.5623    4.5316 C   0  0  0  0  0  0  0  0  0  0  0  0
    5.1942   -0.0132    0.3297 C   0  0  0  0  0  0  0  0  0  0  0  0
    0.5952    2.0195   -0.2807 Cl  0  0  0  0  0  0  0  0  0  0  0  0
    3.6478    1.3796   -3.4636 H   0  0  0  0  0  0  0  0  0  0  0  0
    4.0537   -0.6937   -3.0223 H   0  0  0  0  0  0  0  0  0  0  0  0
    4.9543    0.4389   -3.9112 H   0  0  0  0  0  0  0  0  0  0  0  0
    6.0945   -0.7287   -2.6270 H   0  0  0  0  0  0  0  0  0  0  0  0
    9.8708   -2.9642   -1.9447 H   0  0  0  0  0  0  0  0  0  0  0  0
    8.9157   -3.3888   -0.4842 H   0  0  0  0  0  0  0  0  0  0  0  0
    9.8199   -1.8251   -0.5565 H   0  0  0  0  0  0  0  0  0  0  0  0
    8.0816   -1.7025    0.8932 H   0  0  0  0  0  0  0  0  0  0  0  0
    5.7254    0.8133    4.2958 H   0  0  0  0  0  0  0  0  0  0  0  0
    5.1899    1.3075    2.6150 H   0  0  0  0  0  0  0  0  0  0  0  0
    7.7922    1.4351    2.9467 H   0  0  0  0  0  0  0  0  0  0  0  0
    7.6248    3.9941    4.4619 H   0  0  0  0  0  0  0  0  0  0  0  0
    5.8495    3.9375    4.1275 H   0  0  0  0  0  0  0  0  0  0  0  0
    8.3514    3.5209    2.1757 H   0  0  0  0  0  0  0  0  0  0  0  0
    6.7268    3.3560    1.4005 H   0  0  0  0  0  0  0  0  0  0  0  0
    7.1484   -2.8470    2.1031 H   0  0  0  0  0  0  0  0  0  0  0  0
    8.7620   -4.0647    3.0400 H   0  0  0  0  0  0  0  0  0  0  0  0
    9.6157   -5.3179    4.6791 H   0  0  0  0  0  0  0  0  0  0  0  0
   14.1382   -5.9410    6.4814 H   0  0  0  0  0  0  0  0  0  0  0  0
   13.2779   -9.1406    3.2297 H   0  0  0  0  0  0  0  0  0  0  0  0
   11.7786   -9.7379    4.0214 H   0  0  0  0  0  0  0  0  0  0  0  0
   13.2754  -10.6116    5.8080 H   0  0  0  0  0  0  0  0  0  0  0  0
   14.6607  -10.0502    4.7701 H   0  0  0  0  0  0  0  0  0  0  0  0
   12.6894  -12.2765    4.0826 H   0  0  0  0  0  0  0  0  0  0  0  0
   14.5341  -13.8132    4.6116 H   0  0  0  0  0  0  0  0  0  0  0  0
   14.3499  -12.6869    6.0118 H   0  0  0  0  0  0  0  0  0  0  0  0
   16.7548  -13.0552    5.3796 H   0  0  0  0  0  0  0  0  0  0  0  0
   16.5887  -11.5670    5.0826 H   0  0  0  0  0  0  0  0  0  0  0  0
   16.3917  -13.3620    2.9853 H   0  0  0  0  0  0  0  0  0  0  0  0
   16.0056  -11.4947    1.4893 H   0  0  0  0  0  0  0  0  0  0  0  0
   15.9278  -10.5084    2.6455 H   0  0  0  0  0  0  0  0  0  0  0  0
   14.0712  -12.8262    2.2024 H   0  0  0  0  0  0  0  0  0  0  0  0
   13.5907  -11.0886    2.0881 H   0  0  0  0  0  0  0  0  0  0  0  0
   10.8867   -7.5557    4.1320 H   0  0  0  0  0  0  0  0  0  0  0  0
    8.0124    0.4743    4.7590 H   0  0  0  0  0  0  0  0  0  0  0  0
    4.2291    0.4470    0.5215 H   0  0  0  0  0  0  0  0  0  0  0  0
    1.8389    1.4251   -0.5067 H   0  0  0  0  0  0  0  0  0  0  0  0
  1  2  1  0  0  0  0
  1 40  1  0  0  0  0
  1 41  1  0  0  0  0
  1 42  1  0  0  0  0
  2  3  1  0  0  0  0
  3  4  1  0  0  0  0
  3 38  2  0  0  0  0
  4  5  2  0  0  0  0
  4 43  1  0  0  0  0
  5  6  1  0  0  0  0
  5  8  1  0  0  0  0
  6  7  1  0  0  0  0
  7 44  1  0  0  0  0
  7 45  1  0  0  0  0
  7 46  1  0  0  0  0
  8  9  2  0  0  0  0
  8 47  1  0  0  0  0
  9 10  1  0  0  0  0
  9 38  1  0  0  0  0
 10 11  1  0  0  0  0
 10 15  1  0  0  0  0
 11 12  1  0  0  0  0
 11 48  1  0  0  0  0
 11 49  1  0  0  0  0
 12 13  1  0  0  0  0
 12 14  1  0  0  0  0
 12 50  1  0  0  0  0
 13 14  1  0  0  0  0
 13 51  1  0  0  0  0
 13 52  1  0  0  0  0
 14 53  1  0  0  0  0
 14 54  1  0  0  0  0
 15 16  1  0  0  0  0
 15 37  2  0  0  0  0
 16 17  2  0  0  0  0
 16 55  1  0  0  0  0
 17 18  1  0  0  0  0
 17 56  1  0  0  0  0
 18 19  1  0  0  0  0
 18 36  2  0  0  0  0
 19 20  2  0  0  0  0
 20 21  1  0  0  0  0
 20 57  1  0  0  0  0
 21 22  1  0  0  0  0
 21 35  2  0  0  0  0
 22 23  1  0  0  0  0
 22 34  2  0  0  0  0
 23 24  2  0  0  0  0
 23 58  1  0  0  0  0
 24 25  1  0  0  0  0
 25 26  1  0  0  0  0
 25 34  1  0  0  0  0
 26 27  1  0  0  0  0
 26 59  1  0  0  0  0
 26 60  1  0  0  0  0
 27 28  1  0  0  0  0
 27 61  1  0  0  0  0
 27 62  1  0  0  0  0
 28 29  1  0  0  0  0
 28 33  1  0  0  0  0
 28 63  1  0  0  0  0
 29 30  1  0  0  0  0
 29 64  1  0  0  0  0
 29 65  1  0  0  0  0
 30 31  1  0  0  0  0
 30 66  1  0  0  0  0
 30 67  1  0  0  0  0
 31 32  1  0  0  0  0
 31 68  1  0  0  0  0
 32 33  1  0  0  0  0
 32 69  1  0  0  0  0
 32 70  1  0  0  0  0
 33 71  1  0  0  0  0
 33 72  1  0  0  0  0
 34 73  1  0  0  0  0
 35 36  1  0  0  0  0
 36 37  1  0  0  0  0
 37 74  1  0  0  0  0
 38 75  1  0  0  0  0
 39 76  1  0  0  0  0
M  END
$$$$
