CHEMBL3910382
 OpenBabel04072215373D

 56 60  0  0  0  0  0  0  0  0999 V2000
    2.4296   -0.4357   -0.8714 C   0  0  0  0  0  0  0  0  0  0  0  0
    0.9346   -0.3439   -1.0041 C   0  0  0  0  0  0  0  0  0  0  0  0
    0.3852    0.8402   -1.5073 C   0  0  0  0  0  0  0  0  0  0  0  0
   -0.9853    0.9590   -1.6442 C   0  0  0  0  0  0  0  0  0  0  0  0
   -1.8161   -0.1005   -1.2776 C   0  0  0  0  0  0  0  0  0  0  0  0
   -1.3178   -1.3056   -0.7617 C   0  0  0  0  0  0  0  0  0  0  0  0
   -2.1744   -2.3951   -0.3738 N   0  0  0  0  0  0  0  0  0  0  0  0
   -3.5660   -2.3502   -0.4103 C   0  0  0  0  0  0  0  0  0  0  0  0
   -4.1965   -1.3545   -0.7519 O   0  0  0  0  0  0  0  0  0  0  0  0
   -4.2150   -3.5172   -0.0041 N   0  0  0  0  0  0  0  0  0  0  0  0
   -5.6494   -3.6396   -0.0521 C   0  0  0  0  0  0  0  0  0  0  0  0
   -6.4357   -2.8694   -0.9219 C   0  0  0  0  0  0  0  0  0  0  0  0
   -7.8366   -2.8561   -0.8500 C   0  0  0  0  0  0  0  0  0  0  0  0
   -8.5064   -3.6559    0.0688 C   0  0  0  0  0  0  0  0  0  0  0  0
   -9.9484   -3.5587    0.1638 C   0  0  0  0  0  0  0  0  0  0  0  0
  -11.1506   -3.4540    0.1829 C   0  0  0  0  0  0  0  0  0  0  0  0
  -12.6138   -3.4695    0.1703 C   0  0  0  0  0  0  0  0  0  0  0  0
  -13.3316   -4.7710    0.1525 C   0  0  0  0  0  0  0  0  0  0  0  0
  -14.6695   -4.7385    0.1485 C   0  0  0  0  0  0  0  0  0  0  0  0
  -15.3298   -3.4922    0.1577 C   0  0  0  0  0  0  0  0  0  0  0  0
  -16.6118   -3.2061    0.1666 N   0  0  0  0  0  0  0  0  0  0  0  0
  -16.6973   -1.8439    0.1752 C   0  0  0  0  0  0  0  0  0  0  0  0
  -17.9084   -1.1644    0.1944 N   0  0  0  0  0  0  0  0  0  0  0  0
  -19.1372   -1.7951    0.1898 C   0  0  0  0  0  0  0  0  0  0  0  0
  -19.3427   -3.0014    0.1487 O   0  0  0  0  0  0  0  0  0  0  0  0
  -20.3602   -0.9274    0.2302 C   0  0  0  0  0  0  0  0  0  0  0  0
  -20.7033   -0.0813   -0.9769 C   0  0  0  0  0  0  0  0  0  0  0  0
  -20.4426    0.5713    0.3496 C   0  0  0  0  0  0  0  0  0  0  0  0
  -15.4316   -1.2874    0.1669 C   0  0  0  0  0  0  0  0  0  0  0  0
  -14.5473   -2.3509    0.1624 N   0  0  0  0  0  0  0  0  0  0  0  0
  -13.1634   -2.2886    0.1714 N   0  0  0  0  0  0  0  0  0  0  0  0
   -7.7424   -4.5184    0.8683 C   0  0  0  0  0  0  0  0  0  0  0  0
   -6.3237   -4.5162    0.8049 C   0  0  0  0  0  0  0  0  0  0  0  0
    0.0802   -1.4173   -0.6353 C   0  0  0  0  0  0  0  0  0  0  0  0
    2.9125    0.4981   -1.1892 H   0  0  0  0  0  0  0  0  0  0  0  0
    2.8231   -1.2356   -1.5046 H   0  0  0  0  0  0  0  0  0  0  0  0
    2.7140   -0.6077    0.1703 H   0  0  0  0  0  0  0  0  0  0  0  0
    1.0163    1.6773   -1.7968 H   0  0  0  0  0  0  0  0  0  0  0  0
   -1.4269    1.8716   -2.0354 H   0  0  0  0  0  0  0  0  0  0  0  0
   -2.8723    0.0790   -1.4275 H   0  0  0  0  0  0  0  0  0  0  0  0
   -1.7236   -3.2430   -0.0649 H   0  0  0  0  0  0  0  0  0  0  0  0
   -3.7213   -4.1305    0.6293 H   0  0  0  0  0  0  0  0  0  0  0  0
   -5.9812   -2.2297   -1.6734 H   0  0  0  0  0  0  0  0  0  0  0  0
   -8.3852   -2.1875   -1.5089 H   0  0  0  0  0  0  0  0  0  0  0  0
  -12.7626   -5.6891    0.1417 H   0  0  0  0  0  0  0  0  0  0  0  0
  -15.2679   -5.6413    0.1374 H   0  0  0  0  0  0  0  0  0  0  0  0
  -17.8669   -0.1566    0.2041 H   0  0  0  0  0  0  0  0  0  0  0  0
  -21.1993   -1.4597    0.6821 H   0  0  0  0  0  0  0  0  0  0  0  0
  -21.7222   -0.1278   -1.3416 H   0  0  0  0  0  0  0  0  0  0  0  0
  -19.9619    0.0387   -1.7588 H   0  0  0  0  0  0  0  0  0  0  0  0
  -21.3059    0.9843    0.8682 H   0  0  0  0  0  0  0  0  0  0  0  0
  -19.5515    1.1691    0.4659 H   0  0  0  0  0  0  0  0  0  0  0  0
  -15.0730   -0.2710    0.1683 H   0  0  0  0  0  0  0  0  0  0  0  0
   -8.2368   -5.1865    1.5706 H   0  0  0  0  0  0  0  0  0  0  0  0
   -5.7726   -5.1776    1.4684 H   0  0  0  0  0  0  0  0  0  0  0  0
    0.5306   -2.3253   -0.2458 H   0  0  0  0  0  0  0  0  0  0  0  0
  1  2  1  0  0  0  0
  1 35  1  0  0  0  0
  1 36  1  0  0  0  0
  1 37  1  0  0  0  0
  2  3  1  0  0  0  0
  2 34  2  0  0  0  0
  3  4  2  0  0  0  0
  3 38  1  0  0  0  0
  4  5  1  0  0  0  0
  4 39  1  0  0  0  0
  5  6  2  0  0  0  0
  5 40  1  0  0  0  0
  6  7  1  0  0  0  0
  6 34  1  0  0  0  0
  7  8  1  0  0  0  0
  7 41  1  0  0  0  0
  8  9  2  0  0  0  0
  8 10  1  0  0  0  0
 10 11  1  0  0  0  0
 10 42  1  0  0  0  0
 11 12  1  0  0  0  0
 11 33  2  0  0  0  0
 12 13  2  0  0  0  0
 12 43  1  0  0  0  0
 13 14  1  0  0  0  0
 13 44  1  0  0  0  0
 14 15  1  0  0  0  0
 14 32  2  0  0  0  0
 15 16  3  0  0  0  0
 16 17  1  0  0  0  0
 17 18  1  0  0  0  0
 17 31  2  0  0  0  0
 18 19  2  0  0  0  0
 18 45  1  0  0  0  0
 19 20  1  0  0  0  0
 19 46  1  0  0  0  0
 20 21  2  0  0  0  0
 20 30  1  0  0  0  0
 21 22  1  0  0  0  0
 22 23  1  0  0  0  0
 22 29  2  0  0  0  0
 23 24  1  0  0  0  0
 23 47  1  0  0  0  0
 24 25  2  0  0  0  0
 24 26  1  0  0  0  0
 26 27  1  0  0  0  0
 26 28  1  0  0  0  0
 26 48  1  0  0  0  0
 27 28  1  0  0  0  0
 27 49  1  0  0  0  0
 27 50  1  0  0  0  0
 28 51  1  0  0  0  0
 28 52  1  0  0  0  0
 29 30  1  0  0  0  0
 29 53  1  0  0  0  0
 30 31  1  0  0  0  0
 32 33  1  0  0  0  0
 32 54  1  0  0  0  0
 33 55  1  0  0  0  0
 34 56  1  0  0  0  0
M  END
$$$$
