CHEMBL2349003
 OpenBabel04072215363D

 52 55  0  0  0  0  0  0  0  0999 V2000
    1.2407    0.5661   -0.2618 C   0  0  0  0  0  0  0  0  0  0  0  0
    2.7047    0.1137   -0.0529 C   0  0  0  0  0  0  0  0  0  0  0  0
    3.5863    1.3605    0.0668 C   0  0  0  0  0  0  0  0  0  0  0  0
    2.7685   -0.7158    1.2339 C   0  0  0  0  0  0  0  0  0  0  0  0
    3.1299   -0.7211   -1.2777 C   0  0  0  0  0  0  0  0  0  0  0  0
    2.3192   -0.9071   -2.1865 O   0  0  0  0  0  0  0  0  0  0  0  0
    4.4256   -1.2358   -1.2644 N   0  0  0  0  0  0  0  0  0  0  0  0
    4.9867   -2.0043   -2.3252 C   0  0  0  0  0  0  0  0  0  0  0  0
    4.4342   -1.9731   -3.6117 C   0  0  0  0  0  0  0  0  0  0  0  0
    4.8842   -2.8254   -4.6161 C   0  0  0  0  0  0  0  0  0  0  0  0
    5.9230   -3.7098   -4.3564 C   0  0  0  0  0  0  0  0  0  0  0  0
    6.5332   -3.7130   -3.0987 C   0  0  0  0  0  0  0  0  0  0  0  0
    7.6613   -4.5472   -2.8471 O   0  0  0  0  0  0  0  0  0  0  0  0
    7.7074   -5.8481   -3.3518 C   0  0  0  0  0  0  0  0  0  0  0  0
    9.1205   -6.2944   -3.4952 C   0  0  0  0  0  0  0  0  0  0  0  0
    9.3266   -7.4703   -4.1004 C   0  0  0  0  0  0  0  0  0  0  0  0
    8.2101   -8.2408   -4.4994 C   0  0  0  0  0  0  0  0  0  0  0  0
    8.1346   -9.4117   -5.0895 N   0  0  0  0  0  0  0  0  0  0  0  0
    6.8032   -9.7013   -5.1611 C   0  0  0  0  0  0  0  0  0  0  0  0
    6.3031  -10.8774   -5.6708 N   0  0  0  0  0  0  0  0  0  0  0  0
    7.0940  -11.8995   -6.1512 C   0  0  0  0  0  0  0  0  0  0  0  0
    8.3138  -11.9179   -6.2329 O   0  0  0  0  0  0  0  0  0  0  0  0
    6.3700  -13.1214   -6.6214 C   0  0  0  0  0  0  0  0  0  0  0  0
    5.4477  -13.0369   -7.8152 C   0  0  0  0  0  0  0  0  0  0  0  0
    4.8949  -13.3993   -6.4676 C   0  0  0  0  0  0  0  0  0  0  0  0
    6.0488   -8.6754   -4.6399 C   0  0  0  0  0  0  0  0  0  0  0  0
    6.9540   -7.7381   -4.2175 N   0  0  0  0  0  0  0  0  0  0  0  0
    6.6455   -6.5320   -3.6618 N   0  0  0  0  0  0  0  0  0  0  0  0
    6.0946   -2.8378   -2.0877 C   0  0  0  0  0  0  0  0  0  0  0  0
    0.8803    1.1704    0.5767 H   0  0  0  0  0  0  0  0  0  0  0  0
    0.5707   -0.2973   -0.3631 H   0  0  0  0  0  0  0  0  0  0  0  0
    1.1350    1.1652   -1.1750 H   0  0  0  0  0  0  0  0  0  0  0  0
    3.2443    2.0056    0.8842 H   0  0  0  0  0  0  0  0  0  0  0  0
    3.5606    1.9496   -0.8574 H   0  0  0  0  0  0  0  0  0  0  0  0
    4.6322    1.1008    0.2614 H   0  0  0  0  0  0  0  0  0  0  0  0
    2.3708   -0.1478    2.0833 H   0  0  0  0  0  0  0  0  0  0  0  0
    3.7929   -1.0069    1.4855 H   0  0  0  0  0  0  0  0  0  0  0  0
    2.1774   -1.6340    1.1403 H   0  0  0  0  0  0  0  0  0  0  0  0
    4.9265   -1.2385   -0.3859 H   0  0  0  0  0  0  0  0  0  0  0  0
    3.6265   -1.2938   -3.8723 H   0  0  0  0  0  0  0  0  0  0  0  0
    4.4004   -2.8048   -5.5887 H   0  0  0  0  0  0  0  0  0  0  0  0
    6.2315   -4.3912   -5.1410 H   0  0  0  0  0  0  0  0  0  0  0  0
    9.9335   -5.6744   -3.1430 H   0  0  0  0  0  0  0  0  0  0  0  0
   10.3175   -7.8736   -4.2860 H   0  0  0  0  0  0  0  0  0  0  0  0
    5.3035  -10.9869   -5.6570 H   0  0  0  0  0  0  0  0  0  0  0  0
    7.0160  -13.9977   -6.5894 H   0  0  0  0  0  0  0  0  0  0  0  0
    5.5325  -13.8170   -8.5638 H   0  0  0  0  0  0  0  0  0  0  0  0
    5.2108  -12.0601   -8.2207 H   0  0  0  0  0  0  0  0  0  0  0  0
    4.5967  -14.4313   -6.3075 H   0  0  0  0  0  0  0  0  0  0  0  0
    4.2356  -12.6922   -5.9845 H   0  0  0  0  0  0  0  0  0  0  0  0
    4.9877   -8.5210   -4.5176 H   0  0  0  0  0  0  0  0  0  0  0  0
    6.5833   -2.8535   -1.1199 H   0  0  0  0  0  0  0  0  0  0  0  0
  1  2  1  0  0  0  0
  1 30  1  0  0  0  0
  1 31  1  0  0  0  0
  1 32  1  0  0  0  0
  2  3  1  0  0  0  0
  2  4  1  0  0  0  0
  2  5  1  0  0  0  0
  3 33  1  0  0  0  0
  3 34  1  0  0  0  0
  3 35  1  0  0  0  0
  4 36  1  0  0  0  0
  4 37  1  0  0  0  0
  4 38  1  0  0  0  0
  5  6  2  0  0  0  0
  5  7  1  0  0  0  0
  7  8  1  0  0  0  0
  7 39  1  0  0  0  0
  8  9  1  0  0  0  0
  8 29  2  0  0  0  0
  9 10  2  0  0  0  0
  9 40  1  0  0  0  0
 10 11  1  0  0  0  0
 10 41  1  0  0  0  0
 11 12  2  0  0  0  0
 11 42  1  0  0  0  0
 12 13  1  0  0  0  0
 12 29  1  0  0  0  0
 13 14  1  0  0  0  0
 14 15  1  0  0  0  0
 14 28  2  0  0  0  0
 15 16  2  0  0  0  0
 15 43  1  0  0  0  0
 16 17  1  0  0  0  0
 16 44  1  0  0  0  0
 17 18  2  0  0  0  0
 17 27  1  0  0  0  0
 18 19  1  0  0  0  0
 19 20  1  0  0  0  0
 19 26  2  0  0  0  0
 20 21  1  0  0  0  0
 20 45  1  0  0  0  0
 21 22  2  0  0  0  0
 21 23  1  0  0  0  0
 23 24  1  0  0  0  0
 23 25  1  0  0  0  0
 23 46  1  0  0  0  0
 24 25  1  0  0  0  0
 24 47  1  0  0  0  0
 24 48  1  0  0  0  0
 25 49  1  0  0  0  0
 25 50  1  0  0  0  0
 26 27  1  0  0  0  0
 26 51  1  0  0  0  0
 27 28  1  0  0  0  0
 29 52  1  0  0  0  0
M  END
$$$$
