CHEMBL3966305
 OpenBabel04072215373D

 70 73  0  0  0  0  0  0  0  0999 V2000
    8.8494    2.3583    5.7755 C   0  0  0  0  0  0  0  0  0  0  0  0
    8.7316    1.3696    4.8055 O   0  0  0  0  0  0  0  0  0  0  0  0
    7.7537    0.4164    4.7654 C   0  0  0  0  0  0  0  0  0  0  0  0
    6.7486    0.3789    5.7536 C   0  0  0  0  0  0  0  0  0  0  0  0
    5.7255   -0.5621    5.6916 C   0  0  0  0  0  0  0  0  0  0  0  0
    4.7777   -0.5642    6.6682 O   0  0  0  0  0  0  0  0  0  0  0  0
    3.7174   -1.4410    6.7449 C   0  0  0  0  0  0  0  0  0  0  0  0
    5.6934   -1.4682    4.6275 C   0  0  0  0  0  0  0  0  0  0  0  0
    6.6827   -1.4944    3.6233 C   0  0  0  0  0  0  0  0  0  0  0  0
    6.4992   -2.3824    2.4904 N   0  0  0  0  0  0  0  0  0  0  0  0
    5.0967   -2.5825    2.0029 C   0  0  0  0  0  0  0  0  0  0  0  0
    4.2530   -1.3143    1.6540 C   0  0  0  0  0  0  0  0  0  0  0  0
    4.7471   -0.5367    0.5301 N   0  0  0  0  0  0  0  0  0  0  0  0
    7.5113   -3.1631    1.7671 C   0  0  0  0  0  0  0  0  0  0  0  0
    7.3920   -3.0593    0.3848 C   0  0  0  0  0  0  0  0  0  0  0  0
    8.0157   -3.9119   -0.4644 C   0  0  0  0  0  0  0  0  0  0  0  0
    8.8113   -4.9174   -0.0049 C   0  0  0  0  0  0  0  0  0  0  0  0
    9.2565   -5.7497   -0.9402 N   0  0  0  0  0  0  0  0  0  0  0  0
   10.0753   -6.7621   -0.6681 C   0  0  0  0  0  0  0  0  0  0  0  0
   10.5592   -6.9718    0.6065 C   0  0  0  0  0  0  0  0  0  0  0  0
   11.6811   -8.0585    0.5943 C   0  0  0  0  0  0  0  0  0  0  0  0
   12.3103   -8.8807    1.5433 C   0  0  0  0  0  0  0  0  0  0  0  0
   13.2945   -9.6253    0.9414 N   0  0  0  0  0  0  0  0  0  0  0  0
   13.3266   -9.3190   -0.3561 N   0  0  0  0  0  0  0  0  0  0  0  0
   14.3786   -9.6905   -1.3549 C   0  0  0  0  0  0  0  0  0  0  0  0
   14.4644  -11.1442   -1.9323 C   0  0  0  0  0  0  0  0  0  0  0  0
   14.5680  -12.2109   -0.8367 C   0  0  0  0  0  0  0  0  0  0  0  0
   14.9412  -13.5811   -1.4424 C   0  0  0  0  0  0  0  0  0  0  0  0
   16.1798  -13.5092   -2.1241 O   0  0  0  0  0  0  0  0  0  0  0  0
   16.0358  -12.6839   -3.2623 C   0  0  0  0  0  0  0  0  0  0  0  0
   15.7374  -11.2357   -2.8342 C   0  0  0  0  0  0  0  0  0  0  0  0
   12.3866   -8.3881   -0.5888 C   0  0  0  0  0  0  0  0  0  0  0  0
   10.0413   -6.1567    1.6459 N   0  0  0  0  0  0  0  0  0  0  0  0
    9.1314   -5.1029    1.3578 C   0  0  0  0  0  0  0  0  0  0  0  0
    8.4437   -4.1837    2.2982 C   0  0  0  0  0  0  0  0  0  0  0  0
    7.7260   -0.5373    3.7073 C   0  0  0  0  0  0  0  0  0  0  0  0
   -0.3323    1.3419    1.5589 Cl  0  0  0  0  0  0  0  0  0  0  0  0
    9.7220    3.0070    5.5530 H   0  0  0  0  0  0  0  0  0  0  0  0
    9.0024    1.9007    6.7773 H   0  0  0  0  0  0  0  0  0  0  0  0
    7.9425    3.0044    5.8033 H   0  0  0  0  0  0  0  0  0  0  0  0
    6.7357    1.0845    6.5748 H   0  0  0  0  0  0  0  0  0  0  0  0
    3.1355   -1.2423    7.6663 H   0  0  0  0  0  0  0  0  0  0  0  0
    4.0950   -2.4863    6.7858 H   0  0  0  0  0  0  0  0  0  0  0  0
    3.0501   -1.3157    5.8643 H   0  0  0  0  0  0  0  0  0  0  0  0
    4.8791   -2.1633    4.5851 H   0  0  0  0  0  0  0  0  0  0  0  0
    4.5229   -3.1404    2.7623 H   0  0  0  0  0  0  0  0  0  0  0  0
    5.0507   -3.2499    1.1177 H   0  0  0  0  0  0  0  0  0  0  0  0
    4.1015   -0.6451    2.5247 H   0  0  0  0  0  0  0  0  0  0  0  0
    3.2467   -1.6869    1.3613 H   0  0  0  0  0  0  0  0  0  0  0  0
    5.5658    0.0439    0.8299 H   0  0  0  0  0  0  0  0  0  0  0  0
    4.0050    0.1382    0.2250 H   0  0  0  0  0  0  0  0  0  0  0  0
    6.7350   -2.3320   -0.0588 H   0  0  0  0  0  0  0  0  0  0  0  0
    7.8288   -3.8250   -1.5233 H   0  0  0  0  0  0  0  0  0  0  0  0
   10.3183   -7.3677   -1.5185 H   0  0  0  0  0  0  0  0  0  0  0  0
   12.1027   -8.9360    2.5996 H   0  0  0  0  0  0  0  0  0  0  0  0
   15.3534   -9.4399   -0.8907 H   0  0  0  0  0  0  0  0  0  0  0  0
   14.2764   -9.0237   -2.2456 H   0  0  0  0  0  0  0  0  0  0  0  0
   13.5783  -11.3826   -2.5662 H   0  0  0  0  0  0  0  0  0  0  0  0
   13.5962  -12.2864   -0.3050 H   0  0  0  0  0  0  0  0  0  0  0  0
   15.3635  -11.9252   -0.1197 H   0  0  0  0  0  0  0  0  0  0  0  0
   14.1490  -13.9794   -2.1189 H   0  0  0  0  0  0  0  0  0  0  0  0
   15.0448  -14.3147   -0.6161 H   0  0  0  0  0  0  0  0  0  0  0  0
   15.2658  -13.0935   -3.9533 H   0  0  0  0  0  0  0  0  0  0  0  0
   16.9957  -12.7004   -3.8273 H   0  0  0  0  0  0  0  0  0  0  0  0
   15.6378  -10.5963   -3.7396 H   0  0  0  0  0  0  0  0  0  0  0  0
   16.6243  -10.8881   -2.2621 H   0  0  0  0  0  0  0  0  0  0  0  0
   12.2697   -7.9552   -1.5688 H   0  0  0  0  0  0  0  0  0  0  0  0
    8.5564   -4.3119    3.3746 H   0  0  0  0  0  0  0  0  0  0  0  0
    8.4769   -0.4768    2.9293 H   0  0  0  0  0  0  0  0  0  0  0  0
    1.0223    1.1025    1.5608 H   0  0  0  0  0  0  0  0  0  0  0  0
  1  2  1  0  0  0  0
  1 38  1  0  0  0  0
  1 39  1  0  0  0  0
  1 40  1  0  0  0  0
  2  3  1  0  0  0  0
  3  4  1  0  0  0  0
  3 36  2  0  0  0  0
  4  5  2  0  0  0  0
  4 41  1  0  0  0  0
  5  6  1  0  0  0  0
  5  8  1  0  0  0  0
  6  7  1  0  0  0  0
  7 42  1  0  0  0  0
  7 43  1  0  0  0  0
  7 44  1  0  0  0  0
  8  9  2  0  0  0  0
  8 45  1  0  0  0  0
  9 10  1  0  0  0  0
  9 36  1  0  0  0  0
 10 11  1  0  0  0  0
 10 14  1  0  0  0  0
 11 12  1  0  0  0  0
 11 46  1  0  0  0  0
 11 47  1  0  0  0  0
 12 13  1  0  0  0  0
 12 48  1  0  0  0  0
 12 49  1  0  0  0  0
 13 50  1  0  0  0  0
 13 51  1  0  0  0  0
 14 15  1  0  0  0  0
 14 35  2  0  0  0  0
 15 16  2  0  0  0  0
 15 52  1  0  0  0  0
 16 17  1  0  0  0  0
 16 53  1  0  0  0  0
 17 18  1  0  0  0  0
 17 34  2  0  0  0  0
 18 19  2  0  0  0  0
 19 20  1  0  0  0  0
 19 54  1  0  0  0  0
 20 21  1  0  0  0  0
 20 33  2  0  0  0  0
 21 22  1  0  0  0  0
 21 32  2  0  0  0  0
 22 23  2  0  0  0  0
 22 55  1  0  0  0  0
 23 24  1  0  0  0  0
 24 25  1  0  0  0  0
 24 32  1  0  0  0  0
 25 26  1  0  0  0  0
 25 56  1  0  0  0  0
 25 57  1  0  0  0  0
 26 27  1  0  0  0  0
 26 31  1  0  0  0  0
 26 58  1  0  0  0  0
 27 28  1  0  0  0  0
 27 59  1  0  0  0  0
 27 60  1  0  0  0  0
 28 29  1  0  0  0  0
 28 61  1  0  0  0  0
 28 62  1  0  0  0  0
 29 30  1  0  0  0  0
 30 31  1  0  0  0  0
 30 63  1  0  0  0  0
 30 64  1  0  0  0  0
 31 65  1  0  0  0  0
 31 66  1  0  0  0  0
 32 67  1  0  0  0  0
 33 34  1  0  0  0  0
 34 35  1  0  0  0  0
 35 68  1  0  0  0  0
 36 69  1  0  0  0  0
 37 70  1  0  0  0  0
M  END
$$$$
