CHEMBL1971519
 OpenBabel04072215363D

 27 29  0  0  0  0  0  0  0  0999 V2000
    2.5086    1.2508    0.1167 N   0  0  0  0  0  0  0  0  0  0  0  0
    1.5697    0.2918    0.0391 C   0  0  0  0  0  0  0  0  0  0  0  0
    1.9374   -0.9875    0.0179 N   0  0  0  0  0  0  0  0  0  0  0  0
    0.7781   -1.6450   -0.0163 N   0  0  0  0  0  0  0  0  0  0  0  0
   -0.3305   -0.8441   -0.0161 C   0  0  0  0  0  0  0  0  0  0  0  0
   -1.6839   -1.1892   -0.0187 C   0  0  0  0  0  0  0  0  0  0  0  0
   -2.6052   -0.1520   -0.0342 C   0  0  0  0  0  0  0  0  0  0  0  0
   -2.1773    1.1752   -0.0648 C   0  0  0  0  0  0  0  0  0  0  0  0
   -0.8050    1.5422   -0.0571 C   0  0  0  0  0  0  0  0  0  0  0  0
   -0.4177    2.9741   -0.0857 C   0  0  0  0  0  0  0  0  0  0  0  0
   -1.1603    3.9442    0.6215 C   0  0  0  0  0  0  0  0  0  0  0  0
   -0.7954    5.2955    0.6207 C   0  0  0  0  0  0  0  0  0  0  0  0
    0.3429    5.6940   -0.0615 C   0  0  0  0  0  0  0  0  0  0  0  0
    0.7249    6.9770   -0.0241 F   0  0  0  0  0  0  0  0  0  0  0  0
    1.0848    4.7776   -0.7890 C   0  0  0  0  0  0  0  0  0  0  0  0
    0.6764    3.4405   -0.8365 C   0  0  0  0  0  0  0  0  0  0  0  0
    0.1476    0.4748   -0.0176 C   0  0  0  0  0  0  0  0  0  0  0  0
    3.4521    0.9205    0.2891 H   0  0  0  0  0  0  0  0  0  0  0  0
    2.2961    2.1154    0.6041 H   0  0  0  0  0  0  0  0  0  0  0  0
    0.8049   -2.6590   -0.0316 H   0  0  0  0  0  0  0  0  0  0  0  0
   -2.0098   -2.2263   -0.0083 H   0  0  0  0  0  0  0  0  0  0  0  0
   -3.6692   -0.3746   -0.0321 H   0  0  0  0  0  0  0  0  0  0  0  0
   -2.9451    1.9468   -0.1053 H   0  0  0  0  0  0  0  0  0  0  0  0
   -2.0420    3.6588    1.1930 H   0  0  0  0  0  0  0  0  0  0  0  0
   -1.3867    6.0314    1.1565 H   0  0  0  0  0  0  0  0  0  0  0  0
    1.9736    5.1013   -1.3209 H   0  0  0  0  0  0  0  0  0  0  0  0
    1.2424    2.7557   -1.4650 H   0  0  0  0  0  0  0  0  0  0  0  0
  1  2  1  0  0  0  0
  1 18  1  0  0  0  0
  1 19  1  0  0  0  0
  2  3  2  0  0  0  0
  2 17  1  0  0  0  0
  3  4  1  0  0  0  0
  4  5  1  0  0  0  0
  4 20  1  0  0  0  0
  5  6  1  0  0  0  0
  5 17  2  0  0  0  0
  6  7  2  0  0  0  0
  6 21  1  0  0  0  0
  7  8  1  0  0  0  0
  7 22  1  0  0  0  0
  8  9  2  0  0  0  0
  8 23  1  0  0  0  0
  9 10  1  0  0  0  0
  9 17  1  0  0  0  0
 10 11  1  0  0  0  0
 10 16  2  0  0  0  0
 11 12  2  0  0  0  0
 11 24  1  0  0  0  0
 12 13  1  0  0  0  0
 12 25  1  0  0  0  0
 13 14  1  0  0  0  0
 13 15  2  0  0  0  0
 15 16  1  0  0  0  0
 15 26  1  0  0  0  0
 16 27  1  0  0  0  0
M  END
$$$$
