CHEMBL220317
 OpenBabel04072215363D

 42 45  0  0  0  0  0  0  0  0999 V2000
   -0.8868    2.0905   -3.2636 N   0  0  0  0  0  0  0  0  0  0  0  0
   -1.1897    0.9816   -2.5752 C   0  0  0  0  0  0  0  0  0  0  0  0
   -1.5815   -0.1106   -3.2270 N   0  0  0  0  0  0  0  0  0  0  0  0
   -1.8069   -0.9973   -2.2582 N   0  0  0  0  0  0  0  0  0  0  0  0
   -1.5702   -0.5302   -0.9960 C   0  0  0  0  0  0  0  0  0  0  0  0
   -1.7108   -1.1746    0.2366 C   0  0  0  0  0  0  0  0  0  0  0  0
   -1.3822   -0.4491    1.3736 C   0  0  0  0  0  0  0  0  0  0  0  0
   -0.9364    0.8665    1.2676 C   0  0  0  0  0  0  0  0  0  0  0  0
   -0.8063    1.5384    0.0217 C   0  0  0  0  0  0  0  0  0  0  0  0
   -0.3891    2.9577   -0.0110 C   0  0  0  0  0  0  0  0  0  0  0  0
    0.5110    3.4696   -0.9598 C   0  0  0  0  0  0  0  0  0  0  0  0
    0.8090    4.8385   -1.0322 C   0  0  0  0  0  0  0  0  0  0  0  0
    0.2909    5.7075   -0.0800 C   0  0  0  0  0  0  0  0  0  0  0  0
    0.5628    7.1005   -0.1342 N   0  0  0  0  0  0  0  0  0  0  0  0
   -0.5320    8.1057   -0.9464 S   0  0  0  0  0  0  0  0  0  0  0  0
    0.0542    9.4340   -0.9324 O   0  0  0  0  0  0  0  0  0  0  0  0
   -0.9014    7.4678   -2.1941 O   0  0  0  0  0  0  0  0  0  0  0  0
   -1.9359    8.1360    0.1331 C   0  0  0  0  0  0  0  0  0  0  0  0
   -1.7765    8.5833    1.4485 C   0  0  0  0  0  0  0  0  0  0  0  0
   -2.8557    8.5173    2.3304 C   0  0  0  0  0  0  0  0  0  0  0  0
   -4.0877    8.0280    1.8915 C   0  0  0  0  0  0  0  0  0  0  0  0
   -4.2468    7.6050    0.5693 C   0  0  0  0  0  0  0  0  0  0  0  0
   -3.1702    7.6552   -0.3149 C   0  0  0  0  0  0  0  0  0  0  0  0
   -0.5337    5.2163    0.9245 C   0  0  0  0  0  0  0  0  0  0  0  0
   -0.8834    3.8645    0.9459 C   0  0  0  0  0  0  0  0  0  0  0  0
   -1.1389    0.7935   -1.1518 C   0  0  0  0  0  0  0  0  0  0  0  0
   -1.1151    2.0631   -4.2513 H   0  0  0  0  0  0  0  0  0  0  0  0
   -1.0486    2.9991   -2.8486 H   0  0  0  0  0  0  0  0  0  0  0  0
   -2.1336   -1.9210   -2.5201 H   0  0  0  0  0  0  0  0  0  0  0  0
   -2.0589   -2.2000    0.3089 H   0  0  0  0  0  0  0  0  0  0  0  0
   -1.4736   -0.9112    2.3541 H   0  0  0  0  0  0  0  0  0  0  0  0
   -0.6816    1.3859    2.1908 H   0  0  0  0  0  0  0  0  0  0  0  0
    0.9780    2.8025   -1.6830 H   0  0  0  0  0  0  0  0  0  0  0  0
    1.4369    5.2040   -1.8400 H   0  0  0  0  0  0  0  0  0  0  0  0
    1.5260    7.3961   -0.2854 H   0  0  0  0  0  0  0  0  0  0  0  0
   -0.8140    8.9513    1.7948 H   0  0  0  0  0  0  0  0  0  0  0  0
   -2.7365    8.8388    3.3625 H   0  0  0  0  0  0  0  0  0  0  0  0
   -4.9271    7.9753    2.5812 H   0  0  0  0  0  0  0  0  0  0  0  0
   -5.2104    7.2277    0.2332 H   0  0  0  0  0  0  0  0  0  0  0  0
   -3.2959    7.3059   -1.3378 H   0  0  0  0  0  0  0  0  0  0  0  0
   -0.9150    5.8704    1.7020 H   0  0  0  0  0  0  0  0  0  0  0  0
   -1.5608    3.5306    1.7297 H   0  0  0  0  0  0  0  0  0  0  0  0
  1  2  1  0  0  0  0
  1 27  1  0  0  0  0
  1 28  1  0  0  0  0
  2  3  2  0  0  0  0
  2 26  1  0  0  0  0
  3  4  1  0  0  0  0
  4  5  1  0  0  0  0
  4 29  1  0  0  0  0
  5  6  1  0  0  0  0
  5 26  2  0  0  0  0
  6  7  2  0  0  0  0
  6 30  1  0  0  0  0
  7  8  1  0  0  0  0
  7 31  1  0  0  0  0
  8  9  2  0  0  0  0
  8 32  1  0  0  0  0
  9 10  1  0  0  0  0
  9 26  1  0  0  0  0
 10 11  1  0  0  0  0
 10 25  2  0  0  0  0
 11 12  2  0  0  0  0
 11 33  1  0  0  0  0
 12 13  1  0  0  0  0
 12 34  1  0  0  0  0
 13 14  1  0  0  0  0
 13 24  2  0  0  0  0
 14 15  1  0  0  0  0
 14 35  1  0  0  0  0
 15 16  2  0  0  0  0
 15 17  2  0  0  0  0
 15 18  1  0  0  0  0
 18 19  1  0  0  0  0
 18 23  2  0  0  0  0
 19 20  2  0  0  0  0
 19 36  1  0  0  0  0
 20 21  1  0  0  0  0
 20 37  1  0  0  0  0
 21 22  2  0  0  0  0
 21 38  1  0  0  0  0
 22 23  1  0  0  0  0
 22 39  1  0  0  0  0
 23 40  1  0  0  0  0
 24 25  1  0  0  0  0
 24 41  1  0  0  0  0
 25 42  1  0  0  0  0
M  END
$$$$
