CHEMBL3979920
 OpenBabel04072215373D

 46 49  0  0  1  0  0  0  0  0999 V2000
    6.4332   -1.6525  -11.5704 C   0  0  0  0  0  0  0  0  0  0  0  0
    5.9584   -1.5222  -10.2136 N   0  0  0  0  0  0  0  0  0  0  0  0
    4.6586   -1.4612   -9.7992 C   0  0  0  0  0  0  0  0  0  0  0  0
    4.6882   -1.3910   -8.4204 C   0  0  0  0  0  0  0  0  0  0  0  0
    3.5509   -1.3518   -7.5215 C   0  0  0  0  0  0  0  0  0  0  0  0
    3.7488   -2.0050   -6.3259 N   0  0  0  0  0  0  0  0  0  0  0  0
    2.7434   -2.0496   -5.4095 C   0  0  0  0  0  0  0  0  0  0  0  0
    2.9481   -2.6116   -4.1333 N   0  0  0  0  0  0  0  0  0  0  0  0
    4.0254   -3.6095   -3.9662 C   0  0  2  0  0  0  0  0  0  0  0  0
    3.6899   -4.9415   -4.6522 C   0  0  0  0  0  0  0  0  0  0  0  0
    2.5147   -5.6744   -4.0063 C   0  0  0  0  0  0  0  0  0  0  0  0
    2.6997   -5.8809   -2.5070 C   0  0  0  0  0  0  0  0  0  0  0  0
    3.1078   -4.6097   -1.7670 C   0  0  0  0  0  0  0  0  0  0  0  0
    4.2759   -3.8730   -2.4430 C   0  0  2  0  0  0  0  0  0  0  0  0
    4.5318   -2.6294   -1.6956 N   0  0  0  0  0  0  0  0  0  0  0  0
    1.5072   -1.4367   -5.6658 C   0  0  0  0  0  0  0  0  0  0  0  0
    0.5162   -1.4845   -4.7626 F   0  0  0  0  0  0  0  0  0  0  0  0
    1.3158   -0.7884   -6.8634 C   0  0  0  0  0  0  0  0  0  0  0  0
    2.3512   -0.7257   -7.7940 C   0  0  0  0  0  0  0  0  0  0  0  0
    1.8687    0.1162   -8.9044 C   0  0  0  0  0  0  0  0  0  0  0  0
    2.4748    0.4994   -9.8857 O   0  0  0  0  0  0  0  0  0  0  0  0
    0.5614    0.4457   -8.6142 N   0  0  0  0  0  0  0  0  0  0  0  0
    0.1046   -0.0881   -7.3560 C   0  0  0  0  0  0  0  0  0  0  0  0
    6.0672   -1.4527   -8.1142 C   0  0  0  0  0  0  0  0  0  0  0  0
    6.8427   -1.5163   -9.2012 N   0  0  0  0  0  0  0  0  0  0  0  0
    5.5813   -1.6922  -12.2536 H   0  0  0  0  0  0  0  0  0  0  0  0
    7.0087   -2.5793  -11.6425 H   0  0  0  0  0  0  0  0  0  0  0  0
    7.0628   -0.7907  -11.8049 H   0  0  0  0  0  0  0  0  0  0  0  0
    3.8481   -1.4696  -10.5142 H   0  0  0  0  0  0  0  0  0  0  0  0
    2.0619   -2.9208   -3.7408 H   0  0  0  0  0  0  0  0  0  0  0  0
    4.9568   -3.2087   -4.3865 H   0  0  0  0  0  0  0  0  0  0  0  0
    4.5742   -5.5907   -4.5998 H   0  0  0  0  0  0  0  0  0  0  0  0
    3.4797   -4.7914   -5.7165 H   0  0  0  0  0  0  0  0  0  0  0  0
    2.3924   -6.6520   -4.4879 H   0  0  0  0  0  0  0  0  0  0  0  0
    1.5866   -5.1206   -4.1895 H   0  0  0  0  0  0  0  0  0  0  0  0
    3.4586   -6.6546   -2.3399 H   0  0  0  0  0  0  0  0  0  0  0  0
    1.7658   -6.2648   -2.0771 H   0  0  0  0  0  0  0  0  0  0  0  0
    3.3899   -4.8825   -0.7405 H   0  0  0  0  0  0  0  0  0  0  0  0
    2.2351   -3.9506   -1.6781 H   0  0  0  0  0  0  0  0  0  0  0  0
    5.1681   -4.5060   -2.3492 H   0  0  0  0  0  0  0  0  0  0  0  0
    3.8196   -1.9534   -1.9874 H   0  0  0  0  0  0  0  0  0  0  0  0
    5.4051   -2.2231   -2.0330 H   0  0  0  0  0  0  0  0  0  0  0  0
    0.0323    1.0626   -9.2136 H   0  0  0  0  0  0  0  0  0  0  0  0
   -0.7276   -0.7720   -7.5466 H   0  0  0  0  0  0  0  0  0  0  0  0
   -0.2005    0.7372   -6.7074 H   0  0  0  0  0  0  0  0  0  0  0  0
    6.5320   -1.4540   -7.1395 H   0  0  0  0  0  0  0  0  0  0  0  0
  1  2  1  0  0  0  0
  1 26  1  0  0  0  0
  1 27  1  0  0  0  0
  1 28  1  0  0  0  0
  2  3  1  0  0  0  0
  2 25  1  0  0  0  0
  3  4  2  0  0  0  0
  3 29  1  0  0  0  0
  4  5  1  0  0  0  0
  4 24  1  0  0  0  0
  5  6  1  0  0  0  0
  5 19  2  0  0  0  0
  6  7  2  0  0  0  0
  7  8  1  0  0  0  0
  7 16  1  0  0  0  0
  8 30  1  0  0  0  0
  9 10  1  0  0  0  0
  9 14  1  0  0  0  0
  9  8  1  0  0  0  0
  9 31  1  6  0  0  0
 10 11  1  0  0  0  0
 10 32  1  0  0  0  0
 10 33  1  0  0  0  0
 11 12  1  0  0  0  0
 11 34  1  0  0  0  0
 11 35  1  0  0  0  0
 12 13  1  0  0  0  0
 12 36  1  0  0  0  0
 12 37  1  0  0  0  0
 13 14  1  0  0  0  0
 13 38  1  0  0  0  0
 13 39  1  0  0  0  0
 14 15  1  0  0  0  0
 14 40  1  1  0  0  0
 15 41  1  0  0  0  0
 15 42  1  0  0  0  0
 16 17  1  0  0  0  0
 16 18  2  0  0  0  0
 18 19  1  0  0  0  0
 18 23  1  0  0  0  0
 19 20  1  0  0  0  0
 20 21  2  0  0  0  0
 20 22  1  0  0  0  0
 22 23  1  0  0  0  0
 22 43  1  0  0  0  0
 23 44  1  0  0  0  0
 23 45  1  0  0  0  0
 24 25  2  0  0  0  0
 24 46  1  0  0  0  0
M  END
$$$$
