CHEMBL3656056
 OpenBabel04072215373D

 44 47  0  0  0  0  0  0  0  0999 V2000
    2.3882   -0.6401    0.1815 C   0  0  0  0  0  0  0  0  0  0  0  0
    1.0060   -0.2792   -0.2292 C   0  0  0  0  0  0  0  0  0  0  0  0
    0.5519    0.9990   -0.6573 C   0  0  0  0  0  0  0  0  0  0  0  0
   -0.7850    0.8652   -0.9406 C   0  0  0  0  0  0  0  0  0  0  0  0
   -1.1941   -0.4093   -0.7216 O   0  0  0  0  0  0  0  0  0  0  0  0
   -0.1050   -1.1134   -0.2739 C   0  0  0  0  0  0  0  0  0  0  0  0
   -0.2639   -2.5201    0.0616 C   0  0  0  0  0  0  0  0  0  0  0  0
    0.6592   -3.1749    0.5403 O   0  0  0  0  0  0  0  0  0  0  0  0
   -1.5209   -3.0265   -0.2465 N   0  0  0  0  0  0  0  0  0  0  0  0
   -1.9690   -4.3526   -0.0658 C   0  0  0  0  0  0  0  0  0  0  0  0
   -1.2738   -5.2903    0.7011 C   0  0  0  0  0  0  0  0  0  0  0  0
   -1.6961   -6.6183    0.7635 C   0  0  0  0  0  0  0  0  0  0  0  0
   -2.8347   -7.0204    0.0736 C   0  0  0  0  0  0  0  0  0  0  0  0
   -3.6084   -6.0744   -0.6003 C   0  0  0  0  0  0  0  0  0  0  0  0
   -4.7824   -6.3713   -1.2622 O   0  0  0  0  0  0  0  0  0  0  0  0
   -5.5870   -7.3968   -0.8123 C   0  0  0  0  0  0  0  0  0  0  0  0
   -5.7748   -7.7172    0.5291 C   0  0  0  0  0  0  0  0  0  0  0  0
   -6.5955   -8.7879    0.8345 C   0  0  0  0  0  0  0  0  0  0  0  0
   -7.2704   -9.5071   -0.0882 N   0  0  0  0  0  0  0  0  0  0  0  0
   -7.1236   -9.1350   -1.3839 C   0  0  0  0  0  0  0  0  0  0  0  0
   -7.9280   -9.9089   -2.3264 C   0  0  0  0  0  0  0  0  0  0  0  0
   -8.0684   -9.8421   -3.7024 C   0  0  0  0  0  0  0  0  0  0  0  0
   -9.0162  -10.8178   -4.0994 C   0  0  0  0  0  0  0  0  0  0  0  0
   -9.4320  -11.4677   -2.9607 C   0  0  0  0  0  0  0  0  0  0  0  0
   -8.7638  -10.9191   -1.8995 N   0  0  0  0  0  0  0  0  0  0  0  0
   -6.2957   -8.0955   -1.7858 C   0  0  0  0  0  0  0  0  0  0  0  0
   -3.1610   -4.7477   -0.6891 C   0  0  0  0  0  0  0  0  0  0  0  0
    3.0706    0.2061    0.0485 H   0  0  0  0  0  0  0  0  0  0  0  0
    2.7667   -1.4711   -0.4223 H   0  0  0  0  0  0  0  0  0  0  0  0
    2.4156   -0.9320    1.2360 H   0  0  0  0  0  0  0  0  0  0  0  0
    1.1346    1.9057   -0.7478 H   0  0  0  0  0  0  0  0  0  0  0  0
   -1.5454    1.5495   -1.2909 H   0  0  0  0  0  0  0  0  0  0  0  0
   -2.1318   -2.3835   -0.7400 H   0  0  0  0  0  0  0  0  0  0  0  0
   -0.3869   -5.0208    1.2668 H   0  0  0  0  0  0  0  0  0  0  0  0
   -1.1252   -7.3389    1.3438 H   0  0  0  0  0  0  0  0  0  0  0  0
   -3.1092   -8.0708    0.0889 H   0  0  0  0  0  0  0  0  0  0  0  0
   -5.2868   -7.1679    1.3257 H   0  0  0  0  0  0  0  0  0  0  0  0
   -6.7354   -9.1050    1.8640 H   0  0  0  0  0  0  0  0  0  0  0  0
   -7.5518   -9.1557   -4.3605 H   0  0  0  0  0  0  0  0  0  0  0  0
   -9.3599  -11.0165   -5.1058 H   0  0  0  0  0  0  0  0  0  0  0  0
  -10.1463  -12.2657   -2.8154 H   0  0  0  0  0  0  0  0  0  0  0  0
   -8.8554  -11.1861   -0.9262 H   0  0  0  0  0  0  0  0  0  0  0  0
   -6.2004   -7.8238   -2.8300 H   0  0  0  0  0  0  0  0  0  0  0  0
   -3.7414   -4.0396   -1.2759 H   0  0  0  0  0  0  0  0  0  0  0  0
  1  2  1  0  0  0  0
  1 28  1  0  0  0  0
  1 29  1  0  0  0  0
  1 30  1  0  0  0  0
  2  3  1  0  0  0  0
  2  6  2  0  0  0  0
  3  4  2  0  0  0  0
  3 31  1  0  0  0  0
  4  5  1  0  0  0  0
  4 32  1  0  0  0  0
  5  6  1  0  0  0  0
  6  7  1  0  0  0  0
  7  8  2  0  0  0  0
  7  9  1  0  0  0  0
  9 10  1  0  0  0  0
  9 33  1  0  0  0  0
 10 11  1  0  0  0  0
 10 27  2  0  0  0  0
 11 12  2  0  0  0  0
 11 34  1  0  0  0  0
 12 13  1  0  0  0  0
 12 35  1  0  0  0  0
 13 14  2  0  0  0  0
 13 36  1  0  0  0  0
 14 15  1  0  0  0  0
 14 27  1  0  0  0  0
 15 16  1  0  0  0  0
 16 17  1  0  0  0  0
 16 26  2  0  0  0  0
 17 18  2  0  0  0  0
 17 37  1  0  0  0  0
 18 19  1  0  0  0  0
 18 38  1  0  0  0  0
 19 20  2  0  0  0  0
 20 21  1  0  0  0  0
 20 26  1  0  0  0  0
 21 22  2  0  0  0  0
 21 25  1  0  0  0  0
 22 23  1  0  0  0  0
 22 39  1  0  0  0  0
 23 24  2  0  0  0  0
 23 40  1  0  0  0  0
 24 25  1  0  0  0  0
 24 41  1  0  0  0  0
 25 42  1  0  0  0  0
 26 43  1  0  0  0  0
 27 44  1  0  0  0  0
M  END
$$$$
