CHEMBL3109348
 OpenBabel04072215363D

 60 64  0  0  1  0  0  0  0  0999 V2000
   15.8656   12.7539  -11.1271 C   0  0  0  0  0  0  0  0  0  0  0  0
   14.9704   11.7963  -10.5819 O   0  0  0  0  0  0  0  0  0  0  0  0
   13.7442   12.3972  -10.1637 C   0  0  0  0  0  0  0  0  0  0  0  0
   12.8447   11.3074   -9.5993 C   0  0  0  0  0  0  0  0  0  0  0  0
   11.6028   11.8724   -9.1852 O   0  0  0  0  0  0  0  0  0  0  0  0
   10.6888   11.0391   -8.5666 C   0  0  0  0  0  0  0  0  0  0  0  0
   10.9216    9.5995   -8.4727 C   0  0  0  0  0  0  0  0  0  0  0  0
   10.0090    8.8188   -7.8756 C   0  0  0  0  0  0  0  0  0  0  0  0
    8.8491    9.3823   -7.3452 N   0  0  0  0  0  0  0  0  0  0  0  0
    7.7556    8.8000   -6.7222 C   0  0  0  0  0  0  0  0  0  0  0  0
    7.5518    7.3756   -6.4798 C   0  0  0  0  0  0  0  0  0  0  0  0
    6.2769    6.8349   -6.4514 C   0  0  0  0  0  0  0  0  0  0  0  0
    6.1391    5.4832   -6.1747 C   0  0  0  0  0  0  0  0  0  0  0  0
    7.2704    4.7054   -5.9158 C   0  0  0  0  0  0  0  0  0  0  0  0
    7.1279    3.3474   -5.5974 C   0  0  0  0  0  0  0  0  0  0  0  0
    8.2418    2.5801   -5.2878 C   0  0  0  0  0  0  0  0  0  0  0  0
    9.5078    3.1531   -5.3428 C   0  0  0  0  0  0  0  0  0  0  0  0
    9.6677    4.4897   -5.7400 C   0  0  0  0  0  0  0  0  0  0  0  0
   10.9066    5.0725   -5.9173 O   0  0  0  0  0  0  0  0  0  0  0  0
   12.0258    4.2309   -6.2422 C   0  0  1  0  0  0  0  0  0  0  0  0
   11.8347    3.4985   -7.5806 C   0  0  0  0  0  0  0  0  0  0  0  0
   13.0724    2.6871   -7.9507 C   0  0  0  0  0  0  0  0  0  0  0  0
   14.3003    3.5921   -8.0632 C   0  0  2  0  0  0  0  0  0  0  0  0
   15.4726    2.7843   -8.3919 N   0  0  0  0  0  0  0  0  0  0  0  0
   14.5209    4.3811   -6.7664 C   0  0  0  0  0  0  0  0  0  0  0  0
   13.2626    5.1415   -6.3399 C   0  0  0  0  0  0  0  0  0  0  0  0
    8.5462    5.3133   -5.9781 C   0  0  0  0  0  0  0  0  0  0  0  0
    8.6632    6.6358   -6.2649 N   0  0  0  0  0  0  0  0  0  0  0  0
    6.9258    9.8716   -6.4299 C   0  0  0  0  0  0  0  0  0  0  0  0
    7.4395   11.0626   -6.8621 N   0  0  0  0  0  0  0  0  0  0  0  0
    8.5915   10.7529   -7.4137 C   0  0  0  0  0  0  0  0  0  0  0  0
    9.5617   11.5755   -8.0521 C   0  0  0  0  0  0  0  0  0  0  0  0
   16.7806   12.2353  -11.4259 H   0  0  0  0  0  0  0  0  0  0  0  0
   16.1194   13.5091  -10.3775 H   0  0  0  0  0  0  0  0  0  0  0  0
   15.4267   13.2273  -12.0101 H   0  0  0  0  0  0  0  0  0  0  0  0
   13.2537   12.8876  -11.0131 H   0  0  0  0  0  0  0  0  0  0  0  0
   13.9376   13.1584   -9.3984 H   0  0  0  0  0  0  0  0  0  0  0  0
   13.3556   10.8349   -8.7510 H   0  0  0  0  0  0  0  0  0  0  0  0
   12.6778   10.5530  -10.3778 H   0  0  0  0  0  0  0  0  0  0  0  0
   11.8136    9.1402   -8.8759 H   0  0  0  0  0  0  0  0  0  0  0  0
   10.1433    7.7476   -7.7873 H   0  0  0  0  0  0  0  0  0  0  0  0
    5.3994    7.4411   -6.6428 H   0  0  0  0  0  0  0  0  0  0  0  0
    5.1431    5.0472   -6.1508 H   0  0  0  0  0  0  0  0  0  0  0  0
    6.1432    2.8859   -5.5697 H   0  0  0  0  0  0  0  0  0  0  0  0
    8.1248    1.5360   -5.0097 H   0  0  0  0  0  0  0  0  0  0  0  0
   10.3571    2.5309   -5.0835 H   0  0  0  0  0  0  0  0  0  0  0  0
   12.2086    3.5209   -5.4257 H   0  0  0  0  0  0  0  0  0  0  0  0
   11.6090    4.2274   -8.3698 H   0  0  0  0  0  0  0  0  0  0  0  0
   10.9727    2.8255   -7.5480 H   0  0  0  0  0  0  0  0  0  0  0  0
   12.8941    2.1675   -8.9000 H   0  0  0  0  0  0  0  0  0  0  0  0
   13.2357    1.9119   -7.1896 H   0  0  0  0  0  0  0  0  0  0  0  0
   14.1387    4.2994   -8.8859 H   0  0  0  0  0  0  0  0  0  0  0  0
   15.6723    2.1267   -7.6392 H   0  0  0  0  0  0  0  0  0  0  0  0
   16.2942    3.3828   -8.4707 H   0  0  0  0  0  0  0  0  0  0  0  0
   15.3449    5.0932   -6.8994 H   0  0  0  0  0  0  0  0  0  0  0  0
   14.8180    3.7018   -5.9567 H   0  0  0  0  0  0  0  0  0  0  0  0
   13.0638    5.9533   -7.0521 H   0  0  0  0  0  0  0  0  0  0  0  0
   13.4365    5.6325   -5.3746 H   0  0  0  0  0  0  0  0  0  0  0  0
    5.9676    9.8414   -5.9263 H   0  0  0  0  0  0  0  0  0  0  0  0
    9.3669   12.6408   -8.1192 H   0  0  0  0  0  0  0  0  0  0  0  0
  1  2  1  0  0  0  0
  1 33  1  0  0  0  0
  1 34  1  0  0  0  0
  1 35  1  0  0  0  0
  2  3  1  0  0  0  0
  3  4  1  0  0  0  0
  3 36  1  0  0  0  0
  3 37  1  0  0  0  0
  4  5  1  0  0  0  0
  4 38  1  0  0  0  0
  4 39  1  0  0  0  0
  5  6  1  0  0  0  0
  6  7  1  0  0  0  0
  6 32  2  0  0  0  0
  7  8  2  0  0  0  0
  7 40  1  0  0  0  0
  8  9  1  0  0  0  0
  8 41  1  0  0  0  0
  9 10  1  0  0  0  0
  9 31  1  0  0  0  0
 10 11  1  0  0  0  0
 10 29  2  0  0  0  0
 11 12  1  0  0  0  0
 11 28  2  0  0  0  0
 12 13  2  0  0  0  0
 12 42  1  0  0  0  0
 13 14  1  0  0  0  0
 13 43  1  0  0  0  0
 14 15  1  0  0  0  0
 14 27  2  0  0  0  0
 15 16  2  0  0  0  0
 15 44  1  0  0  0  0
 16 17  1  0  0  0  0
 16 45  1  0  0  0  0
 17 18  2  0  0  0  0
 17 46  1  0  0  0  0
 18 19  1  0  0  0  0
 18 27  1  0  0  0  0
 20 21  1  0  0  0  0
 20 26  1  0  0  0  0
 20 19  1  0  0  0  0
 20 47  1  1  0  0  0
 21 22  1  0  0  0  0
 21 48  1  0  0  0  0
 21 49  1  0  0  0  0
 22 23  1  0  0  0  0
 22 50  1  0  0  0  0
 22 51  1  0  0  0  0
 23 24  1  0  0  0  0
 23 25  1  0  0  0  0
 23 52  1  6  0  0  0
 24 53  1  0  0  0  0
 24 54  1  0  0  0  0
 25 26  1  0  0  0  0
 25 55  1  0  0  0  0
 25 56  1  0  0  0  0
 26 57  1  0  0  0  0
 26 58  1  0  0  0  0
 27 28  1  0  0  0  0
 29 30  1  0  0  0  0
 29 59  1  0  0  0  0
 30 31  2  0  0  0  0
 31 32  1  0  0  0  0
 32 60  1  0  0  0  0
M  END
$$$$
