CHEMBL272874
 OpenBabel04072215363D

 60 64  0  0  0  0  0  0  0  0999 V2000
   10.6539   -0.0203    1.7433 C   0  0  0  0  0  0  0  0  0  0  0  0
    9.8614    0.3793    2.8667 O   0  0  0  0  0  0  0  0  0  0  0  0
    9.0194   -0.5800    3.3662 C   0  0  0  0  0  0  0  0  0  0  0  0
    9.3584   -1.9405    3.3078 C   0  0  0  0  0  0  0  0  0  0  0  0
    8.4863   -2.9473    3.6896 C   0  0  0  0  0  0  0  0  0  0  0  0
    8.8774   -4.2186    3.5048 N   0  0  0  0  0  0  0  0  0  0  0  0
    8.0275   -5.2086    3.8364 C   0  0  0  0  0  0  0  0  0  0  0  0
    6.7681   -4.9931    4.3447 C   0  0  0  0  0  0  0  0  0  0  0  0
    6.3394   -3.6735    4.4906 C   0  0  0  0  0  0  0  0  0  0  0  0
    5.0616   -3.3836    4.9399 O   0  0  0  0  0  0  0  0  0  0  0  0
    4.0010   -4.1456    4.4858 C   0  0  0  0  0  0  0  0  0  0  0  0
    2.9428   -4.3419    5.3702 C   0  0  0  0  0  0  0  0  0  0  0  0
    1.8069   -5.0760    4.9814 C   0  0  0  0  0  0  0  0  0  0  0  0
    1.6926   -5.6234    3.6953 C   0  0  0  0  0  0  0  0  0  0  0  0
    2.7809   -5.4202    2.8182 C   0  0  0  0  0  0  0  0  0  0  0  0
    3.9075   -4.6761    3.2001 C   0  0  0  0  0  0  0  0  0  0  0  0
    2.8418   -5.9086    1.5327 O   0  0  0  0  0  0  0  0  0  0  0  0
    1.5554   -6.2294    1.0102 C   0  0  0  0  0  0  0  0  0  0  0  0
    0.7735   -7.0919    1.9821 C   0  0  0  0  0  0  0  0  0  0  0  0
    0.5306   -6.3573    3.2337 N   0  0  0  0  0  0  0  0  0  0  0  0
   -0.7202   -6.2651    3.8544 C   0  0  0  0  0  0  0  0  0  0  0  0
   -0.9584   -5.6049    4.8632 O   0  0  0  0  0  0  0  0  0  0  0  0
   -1.7574   -6.9054    3.2076 N   0  0  0  0  0  0  0  0  0  0  0  0
   -3.1109   -6.8039    3.7188 C   0  0  0  0  0  0  0  0  0  0  0  0
   -4.1434   -6.9029    2.6220 C   0  0  0  0  0  0  0  0  0  0  0  0
   -5.0961   -7.9306    2.6175 C   0  0  0  0  0  0  0  0  0  0  0  0
   -6.0884   -7.9765    1.6339 C   0  0  0  0  0  0  0  0  0  0  0  0
   -6.1412   -6.9951    0.6456 C   0  0  0  0  0  0  0  0  0  0  0  0
   -5.2011   -5.9677    0.6384 C   0  0  0  0  0  0  0  0  0  0  0  0
   -4.2085   -5.9219    1.6205 C   0  0  0  0  0  0  0  0  0  0  0  0
    7.2248   -2.6048    4.2128 C   0  0  0  0  0  0  0  0  0  0  0  0
    6.9332   -1.2332    4.3942 C   0  0  0  0  0  0  0  0  0  0  0  0
    7.8139   -0.2193    3.9758 C   0  0  0  0  0  0  0  0  0  0  0  0
    7.3190    1.0298    4.2355 O   0  0  0  0  0  0  0  0  0  0  0  0
    7.9417    2.1679    3.6603 C   0  0  0  0  0  0  0  0  0  0  0  0
   10.7751    0.8449    1.0848 H   0  0  0  0  0  0  0  0  0  0  0  0
   10.1917   -0.8126    1.1415 H   0  0  0  0  0  0  0  0  0  0  0  0
   11.6453   -0.3338    2.0856 H   0  0  0  0  0  0  0  0  0  0  0  0
   10.3242   -2.2550    2.9206 H   0  0  0  0  0  0  0  0  0  0  0  0
    8.3979   -6.2146    3.6604 H   0  0  0  0  0  0  0  0  0  0  0  0
    6.1329   -5.8353    4.5927 H   0  0  0  0  0  0  0  0  0  0  0  0
    2.9897   -3.9266    6.3745 H   0  0  0  0  0  0  0  0  0  0  0  0
    1.0339   -5.2155    5.7313 H   0  0  0  0  0  0  0  0  0  0  0  0
    4.6956   -4.5131    2.4705 H   0  0  0  0  0  0  0  0  0  0  0  0
    1.7095   -6.7752    0.0735 H   0  0  0  0  0  0  0  0  0  0  0  0
    1.0194   -5.3025    0.7717 H   0  0  0  0  0  0  0  0  0  0  0  0
    1.3416   -7.9921    2.2506 H   0  0  0  0  0  0  0  0  0  0  0  0
   -0.1477   -7.4125    1.4945 H   0  0  0  0  0  0  0  0  0  0  0  0
   -1.5552   -7.7710    2.7334 H   0  0  0  0  0  0  0  0  0  0  0  0
   -3.2563   -5.8583    4.2548 H   0  0  0  0  0  0  0  0  0  0  0  0
   -3.2353   -7.6131    4.4471 H   0  0  0  0  0  0  0  0  0  0  0  0
   -5.0879   -8.6948    3.3919 H   0  0  0  0  0  0  0  0  0  0  0  0
   -6.8311   -8.7702    1.6478 H   0  0  0  0  0  0  0  0  0  0  0  0
   -6.9209   -7.0255   -0.1113 H   0  0  0  0  0  0  0  0  0  0  0  0
   -5.2485   -5.1937   -0.1233 H   0  0  0  0  0  0  0  0  0  0  0  0
   -3.4918   -5.1013    1.6157 H   0  0  0  0  0  0  0  0  0  0  0  0
    5.9944   -0.9439    4.8621 H   0  0  0  0  0  0  0  0  0  0  0  0
    7.2423    3.0045    3.7681 H   0  0  0  0  0  0  0  0  0  0  0  0
    8.1204    2.0462    2.5885 H   0  0  0  0  0  0  0  0  0  0  0  0
    8.8547    2.4331    4.2019 H   0  0  0  0  0  0  0  0  0  0  0  0
  1  2  1  0  0  0  0
  1 36  1  0  0  0  0
  1 37  1  0  0  0  0
  1 38  1  0  0  0  0
  2  3  1  0  0  0  0
  3  4  1  0  0  0  0
  3 33  2  0  0  0  0
  4  5  2  0  0  0  0
  4 39  1  0  0  0  0
  5  6  1  0  0  0  0
  5 31  1  0  0  0  0
  6  7  2  0  0  0  0
  7  8  1  0  0  0  0
  7 40  1  0  0  0  0
  8  9  2  0  0  0  0
  8 41  1  0  0  0  0
  9 10  1  0  0  0  0
  9 31  1  0  0  0  0
 10 11  1  0  0  0  0
 11 12  1  0  0  0  0
 11 16  2  0  0  0  0
 12 13  2  0  0  0  0
 12 42  1  0  0  0  0
 13 14  1  0  0  0  0
 13 43  1  0  0  0  0
 14 15  2  0  0  0  0
 14 20  1  0  0  0  0
 15 16  1  0  0  0  0
 15 17  1  0  0  0  0
 16 44  1  0  0  0  0
 17 18  1  0  0  0  0
 18 19  1  0  0  0  0
 18 45  1  0  0  0  0
 18 46  1  0  0  0  0
 19 20  1  0  0  0  0
 19 47  1  0  0  0  0
 19 48  1  0  0  0  0
 20 21  1  0  0  0  0
 21 22  2  0  0  0  0
 21 23  1  0  0  0  0
 23 24  1  0  0  0  0
 23 49  1  0  0  0  0
 24 25  1  0  0  0  0
 24 50  1  0  0  0  0
 24 51  1  0  0  0  0
 25 26  1  0  0  0  0
 25 30  2  0  0  0  0
 26 27  2  0  0  0  0
 26 52  1  0  0  0  0
 27 28  1  0  0  0  0
 27 53  1  0  0  0  0
 28 29  2  0  0  0  0
 28 54  1  0  0  0  0
 29 30  1  0  0  0  0
 29 55  1  0  0  0  0
 30 56  1  0  0  0  0
 31 32  2  0  0  0  0
 32 33  1  0  0  0  0
 32 57  1  0  0  0  0
 33 34  1  0  0  0  0
 34 35  1  0  0  0  0
 35 58  1  0  0  0  0
 35 59  1  0  0  0  0
 35 60  1  0  0  0  0
M  END
$$$$
