CHEMBL3928239
 OpenBabel04072215373D

 58 62  0  0  0  0  0  0  0  0999 V2000
    1.1233    0.0966    0.1715 C   0  0  0  0  0  0  0  0  0  0  0  0
    2.3278    0.8310   -0.0761 O   0  0  0  0  0  0  0  0  0  0  0  0
    3.0966    1.1490    1.0172 C   0  0  0  0  0  0  0  0  0  0  0  0
    2.7046    0.9780    2.3392 C   0  0  0  0  0  0  0  0  0  0  0  0
    3.5715    1.3220    3.3698 C   0  0  0  0  0  0  0  0  0  0  0  0
    3.2937    1.1804    4.7041 O   0  0  0  0  0  0  0  0  0  0  0  0
    2.0992    0.4635    5.0231 C   0  0  0  0  0  0  0  0  0  0  0  0
    4.8393    1.8606    3.0900 C   0  0  0  0  0  0  0  0  0  0  0  0
    5.3077    2.0085    1.7837 C   0  0  0  0  0  0  0  0  0  0  0  0
    6.6231    2.4982    1.5233 N   0  0  0  0  0  0  0  0  0  0  0  0
    7.1555    2.1631    0.1285 C   0  0  0  0  0  0  0  0  0  0  0  0
    6.9029    3.0643   -1.0911 C   0  0  0  0  0  0  0  0  0  0  0  0
    6.5369    4.4102   -1.1329 C   0  0  0  0  0  0  0  0  0  0  0  0
    6.5516    5.1326   -2.3402 C   0  0  0  0  0  0  0  0  0  0  0  0
    6.9012    4.4830   -3.5100 C   0  0  0  0  0  0  0  0  0  0  0  0
    7.1970    3.1812   -3.5392 N   0  0  0  0  0  0  0  0  0  0  0  0
    7.2050    2.5053   -2.3436 C   0  0  0  0  0  0  0  0  0  0  0  0
    7.6799    2.9963    2.3888 C   0  0  0  0  0  0  0  0  0  0  0  0
    8.2842    4.1166    1.8692 C   0  0  0  0  0  0  0  0  0  0  0  0
    9.5869    4.3631    2.1293 C   0  0  0  0  0  0  0  0  0  0  0  0
   10.2831    3.7063    3.0955 C   0  0  0  0  0  0  0  0  0  0  0  0
   11.5726    3.8689    2.8847 N   0  0  0  0  0  0  0  0  0  0  0  0
   12.3655    3.7646    3.9315 C   0  0  0  0  0  0  0  0  0  0  0  0
   11.9075    3.6579    5.2277 C   0  0  0  0  0  0  0  0  0  0  0  0
   12.8306    4.4468    6.1400 C   0  0  0  0  0  0  0  0  0  0  0  0
   13.6957    5.4957    5.6238 C   0  0  0  0  0  0  0  0  0  0  0  0
   14.5857    5.9692    6.4741 N   0  0  0  0  0  0  0  0  0  0  0  0
   14.3095    5.3236    7.6063 N   0  0  0  0  0  0  0  0  0  0  0  0
   15.1079    5.7206    8.7530 C   0  0  0  0  0  0  0  0  0  0  0  0
   13.2873    4.3768    7.4582 C   0  0  0  0  0  0  0  0  0  0  0  0
   10.5819    3.1814    5.3781 N   0  0  0  0  0  0  0  0  0  0  0  0
    9.6698    3.0840    4.1727 C   0  0  0  0  0  0  0  0  0  0  0  0
    8.3011    2.5587    3.6312 C   0  0  0  0  0  0  0  0  0  0  0  0
    4.3722    1.6896    0.7556 C   0  0  0  0  0  0  0  0  0  0  0  0
    0.7279   -0.2556   -0.7872 H   0  0  0  0  0  0  0  0  0  0  0  0
    0.3601    0.7366    0.6295 H   0  0  0  0  0  0  0  0  0  0  0  0
    1.3056   -0.7917    0.7882 H   0  0  0  0  0  0  0  0  0  0  0  0
    1.7205    0.5869    2.5591 H   0  0  0  0  0  0  0  0  0  0  0  0
    2.0790    0.3177    6.1067 H   0  0  0  0  0  0  0  0  0  0  0  0
    2.0879   -0.5261    4.5551 H   0  0  0  0  0  0  0  0  0  0  0  0
    1.2150    1.0438    4.7438 H   0  0  0  0  0  0  0  0  0  0  0  0
    5.4671    2.1378    3.9270 H   0  0  0  0  0  0  0  0  0  0  0  0
    6.8160    1.1501   -0.1350 H   0  0  0  0  0  0  0  0  0  0  0  0
    8.2485    2.0638    0.1797 H   0  0  0  0  0  0  0  0  0  0  0  0
    6.2538    4.9439   -0.2314 H   0  0  0  0  0  0  0  0  0  0  0  0
    6.3388    6.1979   -2.3675 H   0  0  0  0  0  0  0  0  0  0  0  0
    6.9431    4.9980   -4.4600 H   0  0  0  0  0  0  0  0  0  0  0  0
    7.5140    1.4621   -2.4223 H   0  0  0  0  0  0  0  0  0  0  0  0
    7.8322    4.6933    1.0856 H   0  0  0  0  0  0  0  0  0  0  0  0
   10.1204    5.0923    1.5257 H   0  0  0  0  0  0  0  0  0  0  0  0
   13.3862    4.0267    3.6744 H   0  0  0  0  0  0  0  0  0  0  0  0
   13.7478    5.9015    4.6192 H   0  0  0  0  0  0  0  0  0  0  0  0
   15.8919    6.4178    8.4192 H   0  0  0  0  0  0  0  0  0  0  0  0
   15.5948    4.8507    9.1911 H   0  0  0  0  0  0  0  0  0  0  0  0
   14.4615    6.2384    9.4663 H   0  0  0  0  0  0  0  0  0  0  0  0
   13.0359    3.7512    8.3006 H   0  0  0  0  0  0  0  0  0  0  0  0
    7.8092    1.7635    4.2126 H   0  0  0  0  0  0  0  0  0  0  0  0
    4.6034    1.8602   -0.2945 H   0  0  0  0  0  0  0  0  0  0  0  0
  1  2  1  0  0  0  0
  1 35  1  0  0  0  0
  1 36  1  0  0  0  0
  1 37  1  0  0  0  0
  2  3  1  0  0  0  0
  3  4  1  0  0  0  0
  3 34  2  0  0  0  0
  4  5  2  0  0  0  0
  4 38  1  0  0  0  0
  5  6  1  0  0  0  0
  5  8  1  0  0  0  0
  6  7  1  0  0  0  0
  7 39  1  0  0  0  0
  7 40  1  0  0  0  0
  7 41  1  0  0  0  0
  8  9  2  0  0  0  0
  8 42  1  0  0  0  0
  9 10  1  0  0  0  0
  9 34  1  0  0  0  0
 10 11  1  0  0  0  0
 10 18  1  0  0  0  0
 11 12  1  0  0  0  0
 11 43  1  0  0  0  0
 11 44  1  0  0  0  0
 12 13  1  0  0  0  0
 12 17  2  0  0  0  0
 13 14  2  0  0  0  0
 13 45  1  0  0  0  0
 14 15  1  0  0  0  0
 14 46  1  0  0  0  0
 15 16  2  0  0  0  0
 15 47  1  0  0  0  0
 16 17  1  0  0  0  0
 17 48  1  0  0  0  0
 18 19  1  0  0  0  0
 18 33  2  0  0  0  0
 19 20  2  0  0  0  0
 19 49  1  0  0  0  0
 20 21  1  0  0  0  0
 20 50  1  0  0  0  0
 21 22  1  0  0  0  0
 21 32  2  0  0  0  0
 22 23  2  0  0  0  0
 23 24  1  0  0  0  0
 23 51  1  0  0  0  0
 24 25  1  0  0  0  0
 24 31  2  0  0  0  0
 25 26  1  0  0  0  0
 25 30  2  0  0  0  0
 26 27  2  0  0  0  0
 26 52  1  0  0  0  0
 27 28  1  0  0  0  0
 28 29  1  0  0  0  0
 28 30  1  0  0  0  0
 29 53  1  0  0  0  0
 29 54  1  0  0  0  0
 29 55  1  0  0  0  0
 30 56  1  0  0  0  0
 31 32  1  0  0  0  0
 32 33  1  0  0  0  0
 33 57  1  0  0  0  0
 34 58  1  0  0  0  0
M  END
$$$$
