CHEMBL3782019
 OpenBabel04072215373D

 49 52  0  0  0  0  0  0  0  0999 V2000
    1.3900    0.8933   -0.4094 C   0  0  0  0  0  0  0  0  0  0  0  0
    2.4078    0.0311    0.0830 O   0  0  0  0  0  0  0  0  0  0  0  0
    3.0926    0.4553    1.1861 C   0  0  0  0  0  0  0  0  0  0  0  0
    2.9026    1.6586    1.8602 C   0  0  0  0  0  0  0  0  0  0  0  0
    3.6642    1.9574    2.9979 C   0  0  0  0  0  0  0  0  0  0  0  0
    4.6334    1.0677    3.4957 C   0  0  0  0  0  0  0  0  0  0  0  0
    5.3929    1.3903    4.7190 C   0  0  0  0  0  0  0  0  0  0  0  0
    5.9142    0.4179    5.5667 C   0  0  0  0  0  0  0  0  0  0  0  0
    6.5880    0.7051    6.7027 N   0  0  0  0  0  0  0  0  0  0  0  0
    6.7257    2.0136    6.9943 C   0  0  0  0  0  0  0  0  0  0  0  0
    7.3887    2.4091    8.1448 C   0  0  0  0  0  0  0  0  0  0  0  0
    7.5676    3.6863    8.5459 N   0  0  0  0  0  0  0  0  0  0  0  0
    7.0601    4.6301    7.7313 C   0  0  0  0  0  0  0  0  0  0  0  0
    6.4022    4.3686    6.5296 C   0  0  0  0  0  0  0  0  0  0  0  0
    5.9024    5.4160    5.7107 N   0  0  0  0  0  0  0  0  0  0  0  0
    6.4175    6.7202    5.5347 C   0  0  0  0  0  0  0  0  0  0  0  0
    7.8009    6.9588    5.7085 C   0  0  0  0  0  0  0  0  0  0  0  0
    8.3579    8.2272    5.5760 C   0  0  0  0  0  0  0  0  0  0  0  0
    9.6783    8.5367    5.7571 O   0  0  0  0  0  0  0  0  0  0  0  0
   10.5343    7.4689    6.1511 C   0  0  0  0  0  0  0  0  0  0  0  0
    7.5323    9.2889    5.2244 C   0  0  0  0  0  0  0  0  0  0  0  0
    6.1687    9.0763    5.0086 C   0  0  0  0  0  0  0  0  0  0  0  0
    5.5992    7.8052    5.1759 C   0  0  0  0  0  0  0  0  0  0  0  0
    4.2525    7.7697    4.9171 O   0  0  0  0  0  0  0  0  0  0  0  0
    3.4663    6.8920    5.7152 C   0  0  0  0  0  0  0  0  0  0  0  0
    6.2127    3.0297    6.1615 C   0  0  0  0  0  0  0  0  0  0  0  0
    5.5463    2.7079    5.0215 N   0  0  0  0  0  0  0  0  0  0  0  0
    4.8221   -0.1318    2.7859 C   0  0  0  0  0  0  0  0  0  0  0  0
    4.0599   -0.4329    1.6514 C   0  0  0  0  0  0  0  0  0  0  0  0
    0.8850    0.3787   -1.2329 H   0  0  0  0  0  0  0  0  0  0  0  0
    1.8222    1.8180   -0.8044 H   0  0  0  0  0  0  0  0  0  0  0  0
    0.6376    1.1037    0.3581 H   0  0  0  0  0  0  0  0  0  0  0  0
    2.1692    2.3897    1.5345 H   0  0  0  0  0  0  0  0  0  0  0  0
    3.4819    2.9013    3.5094 H   0  0  0  0  0  0  0  0  0  0  0  0
    5.7874   -0.6423    5.3762 H   0  0  0  0  0  0  0  0  0  0  0  0
    7.7980    1.6570    8.8172 H   0  0  0  0  0  0  0  0  0  0  0  0
    7.1937    5.6477    8.0897 H   0  0  0  0  0  0  0  0  0  0  0  0
    5.4156    5.0606    4.8860 H   0  0  0  0  0  0  0  0  0  0  0  0
    8.4404    6.1109    5.9253 H   0  0  0  0  0  0  0  0  0  0  0  0
   11.5495    7.8669    6.2584 H   0  0  0  0  0  0  0  0  0  0  0  0
   10.5682    6.6863    5.3851 H   0  0  0  0  0  0  0  0  0  0  0  0
   10.2350    7.0575    7.1215 H   0  0  0  0  0  0  0  0  0  0  0  0
    7.9498   10.2872    5.1085 H   0  0  0  0  0  0  0  0  0  0  0  0
    5.5364    9.9169    4.7281 H   0  0  0  0  0  0  0  0  0  0  0  0
    2.4348    7.2566    5.6904 H   0  0  0  0  0  0  0  0  0  0  0  0
    3.7869    6.8745    6.7625 H   0  0  0  0  0  0  0  0  0  0  0  0
    3.4525    5.8888    5.2808 H   0  0  0  0  0  0  0  0  0  0  0  0
    5.5716   -0.8572    3.0927 H   0  0  0  0  0  0  0  0  0  0  0  0
    4.2235   -1.3713    1.1264 H   0  0  0  0  0  0  0  0  0  0  0  0
  1  2  1  0  0  0  0
  1 30  1  0  0  0  0
  1 31  1  0  0  0  0
  1 32  1  0  0  0  0
  2  3  1  0  0  0  0
  3  4  1  0  0  0  0
  3 29  2  0  0  0  0
  4  5  2  0  0  0  0
  4 33  1  0  0  0  0
  5  6  1  0  0  0  0
  5 34  1  0  0  0  0
  6  7  1  0  0  0  0
  6 28  2  0  0  0  0
  7  8  1  0  0  0  0
  7 27  2  0  0  0  0
  8  9  2  0  0  0  0
  8 35  1  0  0  0  0
  9 10  1  0  0  0  0
 10 11  1  0  0  0  0
 10 26  2  0  0  0  0
 11 12  2  0  0  0  0
 11 36  1  0  0  0  0
 12 13  1  0  0  0  0
 13 14  2  0  0  0  0
 13 37  1  0  0  0  0
 14 15  1  0  0  0  0
 14 26  1  0  0  0  0
 15 16  1  0  0  0  0
 15 38  1  0  0  0  0
 16 17  1  0  0  0  0
 16 23  2  0  0  0  0
 17 18  2  0  0  0  0
 17 39  1  0  0  0  0
 18 19  1  0  0  0  0
 18 21  1  0  0  0  0
 19 20  1  0  0  0  0
 20 40  1  0  0  0  0
 20 41  1  0  0  0  0
 20 42  1  0  0  0  0
 21 22  2  0  0  0  0
 21 43  1  0  0  0  0
 22 23  1  0  0  0  0
 22 44  1  0  0  0  0
 23 24  1  0  0  0  0
 24 25  1  0  0  0  0
 25 45  1  0  0  0  0
 25 46  1  0  0  0  0
 25 47  1  0  0  0  0
 26 27  1  0  0  0  0
 28 29  1  0  0  0  0
 28 48  1  0  0  0  0
 29 49  1  0  0  0  0
M  END
$$$$
