CHEMBL3752508
 OpenBabel04072215373D

 57 61  0  0  0  0  0  0  0  0999 V2000
    3.5969   -1.9650   -0.3370 O   0  0  0  0  0  0  0  0  0  0  0  0
    2.7429   -1.1547    0.0119 C   0  0  0  0  0  0  0  0  0  0  0  0
    3.0577   -0.1353    1.1176 C   0  0  0  0  0  0  0  0  0  0  0  0
    2.1130   -0.2390    2.2550 N   0  0  0  0  0  0  0  0  0  0  0  0
    2.5374    0.6514    3.3696 C   0  0  0  0  0  0  0  0  0  0  0  0
    3.8365    0.2497    4.1248 C   0  0  0  0  0  0  0  0  0  0  0  0
    3.8667   -1.1796    4.4687 N   0  0  0  0  0  0  0  0  0  0  0  0
    4.2723   -1.5776    5.7390 C   0  0  0  0  0  0  0  0  0  0  0  0
    4.0617   -0.7185    6.7578 N   0  0  0  0  0  0  0  0  0  0  0  0
    4.3477   -1.0483    8.0726 N   0  0  0  0  0  0  0  0  0  0  0  0
    4.7953   -2.2818    8.3974 C   0  0  0  0  0  0  0  0  0  0  0  0
    5.1316   -2.4487    9.8406 C   0  0  0  0  0  0  0  0  0  0  0  0
    4.3983   -1.7885   10.8460 C   0  0  0  0  0  0  0  0  0  0  0  0
    4.7024   -1.9505   12.2051 C   0  0  0  0  0  0  0  0  0  0  0  0
    5.7388   -2.7912   12.5974 C   0  0  0  0  0  0  0  0  0  0  0  0
    6.5046   -3.4296   11.6300 C   0  0  0  0  0  0  0  0  0  0  0  0
    6.2254   -3.2264   10.2748 C   0  0  0  0  0  0  0  0  0  0  0  0
    4.9851   -3.2523    7.3862 C   0  0  0  0  0  0  0  0  0  0  0  0
    5.3214   -4.6127    7.6397 C   0  0  0  0  0  0  0  0  0  0  0  0
    5.6628   -5.5069    6.6272 C   0  0  0  0  0  0  0  0  0  0  0  0
    5.6855   -5.0663    5.3228 C   0  0  0  0  0  0  0  0  0  0  0  0
    5.2903   -3.7603    5.0415 C   0  0  0  0  0  0  0  0  0  0  0  0
    4.8281   -2.8501    6.0335 C   0  0  0  0  0  0  0  0  0  0  0  0
    3.3471   -2.1158    3.4674 C   0  0  0  0  0  0  0  0  0  0  0  0
    2.0501   -1.6119    2.8083 C   0  0  0  0  0  0  0  0  0  0  0  0
    1.4641   -1.0321   -0.4999 N   0  0  0  0  0  0  0  0  0  0  0  0
    0.8541   -1.8675   -1.4569 C   0  0  0  0  0  0  0  0  0  0  0  0
    1.3801   -3.1013   -1.8481 C   0  0  0  0  0  0  0  0  0  0  0  0
    0.7344   -3.8773   -2.8148 C   0  0  0  0  0  0  0  0  0  0  0  0
   -0.4421   -3.4238   -3.4038 C   0  0  0  0  0  0  0  0  0  0  0  0
   -0.9868   -2.2043   -3.0077 C   0  0  0  0  0  0  0  0  0  0  0  0
   -0.3492   -1.4358   -2.0285 C   0  0  0  0  0  0  0  0  0  0  0  0
    2.9893    0.8650    0.6718 H   0  0  0  0  0  0  0  0  0  0  0  0
    4.0999   -0.2860    1.4181 H   0  0  0  0  0  0  0  0  0  0  0  0
    1.7153    0.6788    4.0976 H   0  0  0  0  0  0  0  0  0  0  0  0
    2.6351    1.6797    2.9997 H   0  0  0  0  0  0  0  0  0  0  0  0
    3.9358    0.9045    4.9980 H   0  0  0  0  0  0  0  0  0  0  0  0
    4.7045    0.4597    3.4885 H   0  0  0  0  0  0  0  0  0  0  0  0
    3.5788   -1.1240   10.5748 H   0  0  0  0  0  0  0  0  0  0  0  0
    4.1265   -1.4167   12.9572 H   0  0  0  0  0  0  0  0  0  0  0  0
    5.9633   -2.9342   13.6507 H   0  0  0  0  0  0  0  0  0  0  0  0
    7.3275   -4.0765   11.9226 H   0  0  0  0  0  0  0  0  0  0  0  0
    6.8951   -3.6916    9.5549 H   0  0  0  0  0  0  0  0  0  0  0  0
    5.3138   -5.0060    8.6539 H   0  0  0  0  0  0  0  0  0  0  0  0
    5.9358   -6.5310    6.8664 H   0  0  0  0  0  0  0  0  0  0  0  0
    5.9885   -5.7273    4.5160 H   0  0  0  0  0  0  0  0  0  0  0  0
    5.3633   -3.4471    4.0052 H   0  0  0  0  0  0  0  0  0  0  0  0
    3.1021   -3.0913    3.9005 H   0  0  0  0  0  0  0  0  0  0  0  0
    4.1110   -2.2647    2.6954 H   0  0  0  0  0  0  0  0  0  0  0  0
    1.2452   -1.6401    3.5539 H   0  0  0  0  0  0  0  0  0  0  0  0
    1.7420   -2.3299    2.0391 H   0  0  0  0  0  0  0  0  0  0  0  0
    0.9190   -0.2556   -0.1426 H   0  0  0  0  0  0  0  0  0  0  0  0
    2.2859   -3.4995   -1.4020 H   0  0  0  0  0  0  0  0  0  0  0  0
    1.1575   -4.8356   -3.1051 H   0  0  0  0  0  0  0  0  0  0  0  0
   -0.9327   -4.0214   -4.1676 H   0  0  0  0  0  0  0  0  0  0  0  0
   -1.9056   -1.8483   -3.4661 H   0  0  0  0  0  0  0  0  0  0  0  0
   -0.7916   -0.4854   -1.7424 H   0  0  0  0  0  0  0  0  0  0  0  0
  1  2  2  0  0  0  0
  2  3  1  0  0  0  0
  2 26  1  0  0  0  0
  3  4  1  0  0  0  0
  3 33  1  0  0  0  0
  3 34  1  0  0  0  0
  4  5  1  0  0  0  0
  4 25  1  0  0  0  0
  5  6  1  0  0  0  0
  5 35  1  0  0  0  0
  5 36  1  0  0  0  0
  6  7  1  0  0  0  0
  6 37  1  0  0  0  0
  6 38  1  0  0  0  0
  7  8  1  0  0  0  0
  7 24  1  0  0  0  0
  8  9  1  0  0  0  0
  8 23  2  0  0  0  0
  9 10  2  0  0  0  0
 10 11  1  0  0  0  0
 11 12  1  0  0  0  0
 11 18  2  0  0  0  0
 12 13  1  0  0  0  0
 12 17  2  0  0  0  0
 13 14  2  0  0  0  0
 13 39  1  0  0  0  0
 14 15  1  0  0  0  0
 14 40  1  0  0  0  0
 15 16  2  0  0  0  0
 15 41  1  0  0  0  0
 16 17  1  0  0  0  0
 16 42  1  0  0  0  0
 17 43  1  0  0  0  0
 18 19  1  0  0  0  0
 18 23  1  0  0  0  0
 19 20  2  0  0  0  0
 19 44  1  0  0  0  0
 20 21  1  0  0  0  0
 20 45  1  0  0  0  0
 21 22  2  0  0  0  0
 21 46  1  0  0  0  0
 22 23  1  0  0  0  0
 22 47  1  0  0  0  0
 24 25  1  0  0  0  0
 24 48  1  0  0  0  0
 24 49  1  0  0  0  0
 25 50  1  0  0  0  0
 25 51  1  0  0  0  0
 26 27  1  0  0  0  0
 26 52  1  0  0  0  0
 27 28  1  0  0  0  0
 27 32  2  0  0  0  0
 28 29  2  0  0  0  0
 28 53  1  0  0  0  0
 29 30  1  0  0  0  0
 29 54  1  0  0  0  0
 30 31  2  0  0  0  0
 30 55  1  0  0  0  0
 31 32  1  0  0  0  0
 31 56  1  0  0  0  0
 32 57  1  0  0  0  0
M  END
$$$$
