CHEMBL1760057
 OpenBabel04072215363D

 64 68  0  0  0  0  0  0  0  0999 V2000
   -8.7035    8.4785    5.1964 C   0  0  0  0  0  0  0  0  0  0  0  0
   -9.2457    8.5132    3.9154 C   0  0  0  0  0  0  0  0  0  0  0  0
   -8.9430    7.4973    3.0080 C   0  0  0  0  0  0  0  0  0  0  0  0
   -8.1099    6.4427    3.3495 C   0  0  0  0  0  0  0  0  0  0  0  0
   -7.8544    5.4992    2.4368 N   0  0  0  0  0  0  0  0  0  0  0  0
   -7.0384    4.4771    2.7990 C   0  0  0  0  0  0  0  0  0  0  0  0
   -6.4354    4.3258    4.0476 C   0  0  0  0  0  0  0  0  0  0  0  0
   -5.5013    3.3036    4.3313 N   0  0  0  0  0  0  0  0  0  0  0  0
   -5.4861    2.0313    3.7202 C   0  0  0  0  0  0  0  0  0  0  0  0
   -4.3128    1.3219    3.6417 C   0  0  0  0  0  0  0  0  0  0  0  0
   -4.3773    0.1315    2.9547 C   0  0  0  0  0  0  0  0  0  0  0  0
   -5.5073   -0.3636    2.4134 N   0  0  0  0  0  0  0  0  0  0  0  0
   -6.6179    0.3646    2.5813 C   0  0  0  0  0  0  0  0  0  0  0  0
   -7.7972   -0.1233    2.0230 N   0  0  0  0  0  0  0  0  0  0  0  0
   -9.0953    0.4030    2.0769 C   0  0  0  0  0  0  0  0  0  0  0  0
   -9.9671    0.2027    1.0011 C   0  0  0  0  0  0  0  0  0  0  0  0
  -11.2278    0.8145    0.9677 C   0  0  0  0  0  0  0  0  0  0  0  0
  -11.6379    1.6393    2.0144 C   0  0  0  0  0  0  0  0  0  0  0  0
  -12.8101    2.3429    2.0559 O   0  0  0  0  0  0  0  0  0  0  0  0
  -13.9039    1.7294    1.3758 C   0  0  0  0  0  0  0  0  0  0  0  0
  -15.1381    2.6069    1.5721 C   0  0  0  0  0  0  0  0  0  0  0  0
  -16.3849    1.9789    0.9416 C   0  0  0  0  0  0  0  0  0  0  0  0
  -16.6919    0.6368    1.4630 N   0  0  0  0  0  0  0  0  0  0  0  0
  -17.0332    0.6624    2.8942 C   0  0  0  0  0  0  0  0  0  0  0  0
  -17.2632   -0.7497    3.4315 C   0  0  0  0  0  0  0  0  0  0  0  0
  -18.3403   -1.4726    2.6387 C   0  0  0  0  0  0  0  0  0  0  0  0
  -18.0279   -1.4232    1.1472 C   0  0  0  0  0  0  0  0  0  0  0  0
  -17.7668    0.0091    0.6788 C   0  0  0  0  0  0  0  0  0  0  0  0
  -10.7869    1.8384    3.0950 C   0  0  0  0  0  0  0  0  0  0  0  0
   -9.5355    1.2202    3.1266 C   0  0  0  0  0  0  0  0  0  0  0  0
   -6.6213    1.5451    3.2092 N   0  0  0  0  0  0  0  0  0  0  0  0
   -6.6966    5.3389    4.9730 C   0  0  0  0  0  0  0  0  0  0  0  0
   -7.5545    6.4084    4.6458 C   0  0  0  0  0  0  0  0  0  0  0  0
   -7.8590    7.4308    5.5632 C   0  0  0  0  0  0  0  0  0  0  0  0
   -8.9393    9.2666    5.9079 H   0  0  0  0  0  0  0  0  0  0  0  0
   -9.9016    9.3263    3.6176 H   0  0  0  0  0  0  0  0  0  0  0  0
   -9.3688    7.5244    2.0066 H   0  0  0  0  0  0  0  0  0  0  0  0
   -6.8674    3.7589    1.9991 H   0  0  0  0  0  0  0  0  0  0  0  0
   -5.2787    3.2232    5.3165 H   0  0  0  0  0  0  0  0  0  0  0  0
   -3.3813    1.6986    4.0392 H   0  0  0  0  0  0  0  0  0  0  0  0
   -3.4887   -0.4739    2.8010 H   0  0  0  0  0  0  0  0  0  0  0  0
   -7.6129   -0.8833    1.3888 H   0  0  0  0  0  0  0  0  0  0  0  0
   -9.6589   -0.3991    0.1502 H   0  0  0  0  0  0  0  0  0  0  0  0
  -11.8450    0.6596    0.0902 H   0  0  0  0  0  0  0  0  0  0  0  0
  -14.0669    0.7282    1.7925 H   0  0  0  0  0  0  0  0  0  0  0  0
  -13.7059    1.6600    0.3024 H   0  0  0  0  0  0  0  0  0  0  0  0
  -14.9545    3.5863    1.1119 H   0  0  0  0  0  0  0  0  0  0  0  0
  -15.2879    2.8235    2.6362 H   0  0  0  0  0  0  0  0  0  0  0  0
  -16.1994    1.9074   -0.1385 H   0  0  0  0  0  0  0  0  0  0  0  0
  -17.2403    2.6538    1.0704 H   0  0  0  0  0  0  0  0  0  0  0  0
  -17.9224    1.2812    3.0701 H   0  0  0  0  0  0  0  0  0  0  0  0
  -16.2155    1.0917    3.4817 H   0  0  0  0  0  0  0  0  0  0  0  0
  -17.5474   -0.6992    4.4883 H   0  0  0  0  0  0  0  0  0  0  0  0
  -16.3245   -1.3169    3.3802 H   0  0  0  0  0  0  0  0  0  0  0  0
  -19.3124   -0.9997    2.8257 H   0  0  0  0  0  0  0  0  0  0  0  0
  -18.4180   -2.5138    2.9737 H   0  0  0  0  0  0  0  0  0  0  0  0
  -18.8612   -1.8525    0.5809 H   0  0  0  0  0  0  0  0  0  0  0  0
  -17.1463   -2.0433    0.9395 H   0  0  0  0  0  0  0  0  0  0  0  0
  -18.6920    0.5968    0.7470 H   0  0  0  0  0  0  0  0  0  0  0  0
  -17.4826   -0.0292   -0.3791 H   0  0  0  0  0  0  0  0  0  0  0  0
  -11.0874    2.4838    3.9155 H   0  0  0  0  0  0  0  0  0  0  0  0
   -8.9039    1.3995    3.9922 H   0  0  0  0  0  0  0  0  0  0  0  0
   -6.2391    5.3026    5.9583 H   0  0  0  0  0  0  0  0  0  0  0  0
   -7.4431    7.4150    6.5663 H   0  0  0  0  0  0  0  0  0  0  0  0
  1  2  1  0  0  0  0
  1 34  2  0  0  0  0
  1 35  1  0  0  0  0
  2  3  2  0  0  0  0
  2 36  1  0  0  0  0
  3  4  1  0  0  0  0
  3 37  1  0  0  0  0
  4  5  1  0  0  0  0
  4 33  2  0  0  0  0
  5  6  2  0  0  0  0
  6  7  1  0  0  0  0
  6 38  1  0  0  0  0
  7  8  1  0  0  0  0
  7 32  2  0  0  0  0
  8  9  1  0  0  0  0
  8 39  1  0  0  0  0
  9 10  1  0  0  0  0
  9 31  2  0  0  0  0
 10 11  2  0  0  0  0
 10 40  1  0  0  0  0
 11 12  1  0  0  0  0
 11 41  1  0  0  0  0
 12 13  2  0  0  0  0
 13 14  1  0  0  0  0
 13 31  1  0  0  0  0
 14 15  1  0  0  0  0
 14 42  1  0  0  0  0
 15 16  1  0  0  0  0
 15 30  2  0  0  0  0
 16 17  2  0  0  0  0
 16 43  1  0  0  0  0
 17 18  1  0  0  0  0
 17 44  1  0  0  0  0
 18 19  1  0  0  0  0
 18 29  2  0  0  0  0
 19 20  1  0  0  0  0
 20 21  1  0  0  0  0
 20 45  1  0  0  0  0
 20 46  1  0  0  0  0
 21 22  1  0  0  0  0
 21 47  1  0  0  0  0
 21 48  1  0  0  0  0
 22 23  1  0  0  0  0
 22 49  1  0  0  0  0
 22 50  1  0  0  0  0
 23 24  1  0  0  0  0
 23 28  1  0  0  0  0
 24 25  1  0  0  0  0
 24 51  1  0  0  0  0
 24 52  1  0  0  0  0
 25 26  1  0  0  0  0
 25 53  1  0  0  0  0
 25 54  1  0  0  0  0
 26 27  1  0  0  0  0
 26 55  1  0  0  0  0
 26 56  1  0  0  0  0
 27 28  1  0  0  0  0
 27 57  1  0  0  0  0
 27 58  1  0  0  0  0
 28 59  1  0  0  0  0
 28 60  1  0  0  0  0
 29 30  1  0  0  0  0
 29 61  1  0  0  0  0
 30 62  1  0  0  0  0
 32 33  1  0  0  0  0
 32 63  1  0  0  0  0
 33 34  1  0  0  0  0
 34 64  1  0  0  0  0
M  END
$$$$
