CHEMBL225639
 OpenBabel04072215363D

 56 60  0  0  0  0  0  0  0  0999 V2000
    1.8179    0.0431   -1.2178 C   0  0  0  0  0  0  0  0  0  0  0  0
    0.3742    0.2270   -1.1524 N   0  0  0  0  0  0  0  0  0  0  0  0
   -0.3082   -1.0090   -0.7381 C   0  0  0  0  0  0  0  0  0  0  0  0
   -1.8370   -0.7865   -0.7427 C   0  0  0  0  0  0  0  0  0  0  0  0
   -2.2877    0.2459    0.2192 N   0  0  0  0  0  0  0  0  0  0  0  0
   -2.0769   -0.1139    1.6377 C   0  0  0  0  0  0  0  0  0  0  0  0
   -2.7832   -1.3828    2.0900 C   0  0  0  0  0  0  0  0  0  0  0  0
   -2.1269   -2.6378    1.9655 C   0  0  0  0  0  0  0  0  0  0  0  0
   -2.7658   -3.8439    2.2532 C   0  0  0  0  0  0  0  0  0  0  0  0
   -4.0350   -3.7596    2.7579 C   0  0  0  0  0  0  0  0  0  0  0  0
   -4.6966   -2.5224    2.9834 C   0  0  0  0  0  0  0  0  0  0  0  0
   -4.0841   -1.3299    2.6245 C   0  0  0  0  0  0  0  0  0  0  0  0
   -6.0741   -2.6924    3.6520 C   0  0  0  0  0  0  0  0  0  0  0  0
   -6.0730   -4.1773    3.7135 C   0  0  0  0  0  0  0  0  0  0  0  0
   -6.8295   -5.2647    4.1595 C   0  0  0  0  0  0  0  0  0  0  0  0
   -8.1479   -5.1589    4.7876 C   0  0  0  0  0  0  0  0  0  0  0  0
   -8.6360   -6.0394    5.7313 C   0  0  0  0  0  0  0  0  0  0  0  0
  -10.2147   -5.6257    6.2410 S   0  0  0  0  0  0  0  0  0  0  0  0
  -10.2612   -4.2797    5.1876 C   0  0  0  0  0  0  0  0  0  0  0  0
  -11.3927   -3.4209    5.0799 C   0  0  0  0  0  0  0  0  0  0  0  0
  -12.4495   -2.6602    5.0122 C   0  0  0  0  0  0  0  0  0  0  0  0
  -13.6814   -1.7734    4.9334 C   0  0  0  0  0  0  0  0  0  0  0  0
  -13.7700   -0.8838    6.1707 C   0  0  0  0  0  0  0  0  0  0  0  0
  -12.6319   -0.0311    6.2766 O   0  0  0  0  0  0  0  0  0  0  0  0
   -9.0883   -4.1275    4.4842 C   0  0  0  0  0  0  0  0  0  0  0  0
   -6.1953   -6.4357    3.9595 N   0  0  0  0  0  0  0  0  0  0  0  0
   -5.0345   -6.0839    3.3481 N   0  0  0  0  0  0  0  0  0  0  0  0
   -4.9327   -4.7508    3.2143 C   0  0  0  0  0  0  0  0  0  0  0  0
   -1.5467    1.4907   -0.1192 C   0  0  0  0  0  0  0  0  0  0  0  0
   -0.0035    1.3283   -0.2448 C   0  0  0  0  0  0  0  0  0  0  0  0
    2.0681   -0.7724   -1.9063 H   0  0  0  0  0  0  0  0  0  0  0  0
    2.2561   -0.1859   -0.2405 H   0  0  0  0  0  0  0  0  0  0  0  0
    2.2975    0.9443   -1.6142 H   0  0  0  0  0  0  0  0  0  0  0  0
    0.0398   -1.3177    0.2548 H   0  0  0  0  0  0  0  0  0  0  0  0
   -0.0692   -1.8288   -1.4247 H   0  0  0  0  0  0  0  0  0  0  0  0
   -2.3729   -1.7299   -0.6005 H   0  0  0  0  0  0  0  0  0  0  0  0
   -2.1310   -0.4622   -1.7528 H   0  0  0  0  0  0  0  0  0  0  0  0
   -2.4567    0.7105    2.2566 H   0  0  0  0  0  0  0  0  0  0  0  0
   -1.0154   -0.2009    1.8966 H   0  0  0  0  0  0  0  0  0  0  0  0
   -1.0946   -2.6778    1.6285 H   0  0  0  0  0  0  0  0  0  0  0  0
   -2.2720   -4.7935    2.0922 H   0  0  0  0  0  0  0  0  0  0  0  0
   -4.5919   -0.3801    2.7660 H   0  0  0  0  0  0  0  0  0  0  0  0
   -6.8722   -2.3011    3.0187 H   0  0  0  0  0  0  0  0  0  0  0  0
   -6.0773   -2.2452    4.6499 H   0  0  0  0  0  0  0  0  0  0  0  0
   -8.1351   -6.9040    6.1449 H   0  0  0  0  0  0  0  0  0  0  0  0
  -14.5753   -2.4007    4.8554 H   0  0  0  0  0  0  0  0  0  0  0  0
  -13.6091   -1.1593    4.0290 H   0  0  0  0  0  0  0  0  0  0  0  0
  -13.8445   -1.4775    7.0879 H   0  0  0  0  0  0  0  0  0  0  0  0
  -14.6548   -0.2431    6.1074 H   0  0  0  0  0  0  0  0  0  0  0  0
  -11.8533   -0.6073    6.3809 H   0  0  0  0  0  0  0  0  0  0  0  0
   -8.9289   -3.3336    3.7602 H   0  0  0  0  0  0  0  0  0  0  0  0
   -4.3828   -6.8147    3.0742 H   0  0  0  0  0  0  0  0  0  0  0  0
   -1.7802    2.2817    0.6035 H   0  0  0  0  0  0  0  0  0  0  0  0
   -1.9292    1.8547   -1.0833 H   0  0  0  0  0  0  0  0  0  0  0  0
    0.4238    1.1649    0.7529 H   0  0  0  0  0  0  0  0  0  0  0  0
    0.4125    2.2695   -0.6231 H   0  0  0  0  0  0  0  0  0  0  0  0
  1  2  1  0  0  0  0
  1 31  1  0  0  0  0
  1 32  1  0  0  0  0
  1 33  1  0  0  0  0
  2  3  1  0  0  0  0
  2 30  1  0  0  0  0
  3  4  1  0  0  0  0
  3 34  1  0  0  0  0
  3 35  1  0  0  0  0
  4  5  1  0  0  0  0
  4 36  1  0  0  0  0
  4 37  1  0  0  0  0
  5  6  1  0  0  0  0
  5 29  1  0  0  0  0
  6  7  1  0  0  0  0
  6 38  1  0  0  0  0
  6 39  1  0  0  0  0
  7  8  1  0  0  0  0
  7 12  2  0  0  0  0
  8  9  2  0  0  0  0
  8 40  1  0  0  0  0
  9 10  1  0  0  0  0
  9 41  1  0  0  0  0
 10 11  2  0  0  0  0
 10 28  1  0  0  0  0
 11 12  1  0  0  0  0
 11 13  1  0  0  0  0
 12 42  1  0  0  0  0
 13 14  1  0  0  0  0
 13 43  1  0  0  0  0
 13 44  1  0  0  0  0
 14 15  1  0  0  0  0
 14 28  2  0  0  0  0
 15 16  1  0  0  0  0
 15 26  2  0  0  0  0
 16 17  2  0  0  0  0
 16 25  1  0  0  0  0
 17 18  1  0  0  0  0
 17 45  1  0  0  0  0
 18 19  1  0  0  0  0
 19 20  1  0  0  0  0
 19 25  2  0  0  0  0
 20 21  3  0  0  0  0
 21 22  1  0  0  0  0
 22 23  1  0  0  0  0
 22 46  1  0  0  0  0
 22 47  1  0  0  0  0
 23 24  1  0  0  0  0
 23 48  1  0  0  0  0
 23 49  1  0  0  0  0
 24 50  1  0  0  0  0
 25 51  1  0  0  0  0
 26 27  1  0  0  0  0
 27 28  1  0  0  0  0
 27 52  1  0  0  0  0
 29 30  1  0  0  0  0
 29 53  1  0  0  0  0
 29 54  1  0  0  0  0
 30 55  1  0  0  0  0
 30 56  1  0  0  0  0
M  END
$$$$
