CHEMBL324153
 OpenBabel04072215363D

 53 57  0  0  0  0  0  0  0  0999 V2000
    1.0639   -1.6346   -2.5064 C   0  0  0  0  0  0  0  0  0  0  0  0
    1.3394   -0.5622   -1.6716 C   0  0  0  0  0  0  0  0  0  0  0  0
    2.3127   -0.7183   -0.6813 C   0  0  0  0  0  0  0  0  0  0  0  0
    2.6328    0.3847    0.2127 C   0  0  0  0  0  0  0  0  0  0  0  0
    1.8201    1.4432    0.6738 C   0  0  0  0  0  0  0  0  0  0  0  0
    2.4580    2.2871    1.4841 N   0  0  0  0  0  0  0  0  0  0  0  0
    3.7153    1.7902    1.5592 N   0  0  0  0  0  0  0  0  0  0  0  0
    4.7781    2.3096    2.2877 C   0  0  0  0  0  0  0  0  0  0  0  0
    5.9790    1.7090    2.2572 C   0  0  0  0  0  0  0  0  0  0  0  0
    7.1266    2.2046    3.0066 C   0  0  0  0  0  0  0  0  0  0  0  0
    7.3232    1.8062    4.3323 C   0  0  0  0  0  0  0  0  0  0  0  0
    8.4174    2.2871    5.0556 C   0  0  0  0  0  0  0  0  0  0  0  0
    9.3323    3.1533    4.4522 C   0  0  0  0  0  0  0  0  0  0  0  0
   10.4560    3.6524    5.0568 O   0  0  0  0  0  0  0  0  0  0  0  0
   10.9826    2.8337    6.1086 C   0  0  0  0  0  0  0  0  0  0  0  0
   12.4897    3.0984    6.2486 C   0  0  0  0  0  0  0  0  0  0  0  0
   13.1546    2.2931    7.2939 N   0  0  0  0  0  0  0  0  0  0  0  0
   14.6062    2.5964    7.3505 C   0  0  0  0  0  0  0  0  0  0  0  0
   15.4151    2.0088    6.1766 C   0  0  0  0  0  0  0  0  0  0  0  0
   15.2109    0.5958    6.0433 O   0  0  0  0  0  0  0  0  0  0  0  0
   13.8181    0.2903    5.9066 C   0  0  0  0  0  0  0  0  0  0  0  0
   13.0219    0.8302    7.1044 C   0  0  0  0  0  0  0  0  0  0  0  0
    9.1201    3.5726    3.1388 C   0  0  0  0  0  0  0  0  0  0  0  0
    8.0249    3.0976    2.4141 C   0  0  0  0  0  0  0  0  0  0  0  0
    6.0512    0.4906    1.3973 C   0  0  0  0  0  0  0  0  0  0  0  0
    5.0749   -0.0245    0.7109 N   0  0  0  0  0  0  0  0  0  0  0  0
    3.8689    0.6283    0.7893 C   0  0  0  0  0  0  0  0  0  0  0  0
    2.9531   -1.9549   -0.5717 C   0  0  0  0  0  0  0  0  0  0  0  0
    2.6089   -2.9647   -1.4553 C   0  0  0  0  0  0  0  0  0  0  0  0
    1.6764   -2.8334   -2.4200 N   0  0  0  0  0  0  0  0  0  0  0  0
    0.3205   -1.5524   -3.2944 H   0  0  0  0  0  0  0  0  0  0  0  0
    0.8093    0.3721   -1.8151 H   0  0  0  0  0  0  0  0  0  0  0  0
    0.7767    1.6317    0.4550 H   0  0  0  0  0  0  0  0  0  0  0  0
    4.5641    3.2020    2.8591 H   0  0  0  0  0  0  0  0  0  0  0  0
    6.6281    1.1223    4.8157 H   0  0  0  0  0  0  0  0  0  0  0  0
    8.5294    1.9730    6.0890 H   0  0  0  0  0  0  0  0  0  0  0  0
   10.8341    1.7792    5.8568 H   0  0  0  0  0  0  0  0  0  0  0  0
   10.4664    3.0720    7.0456 H   0  0  0  0  0  0  0  0  0  0  0  0
   12.6171    4.1632    6.4875 H   0  0  0  0  0  0  0  0  0  0  0  0
   12.9560    2.9654    5.2651 H   0  0  0  0  0  0  0  0  0  0  0  0
   14.9916    2.1642    8.2835 H   0  0  0  0  0  0  0  0  0  0  0  0
   14.7729    3.6771    7.4243 H   0  0  0  0  0  0  0  0  0  0  0  0
   16.4837    2.1685    6.3516 H   0  0  0  0  0  0  0  0  0  0  0  0
   15.1644    2.4955    5.2277 H   0  0  0  0  0  0  0  0  0  0  0  0
   13.7215   -0.7992    5.8624 H   0  0  0  0  0  0  0  0  0  0  0  0
   13.4485    0.6903    4.9555 H   0  0  0  0  0  0  0  0  0  0  0  0
   13.4006    0.3492    8.0159 H   0  0  0  0  0  0  0  0  0  0  0  0
   11.9738    0.5240    7.0392 H   0  0  0  0  0  0  0  0  0  0  0  0
    9.8189    4.2625    2.6720 H   0  0  0  0  0  0  0  0  0  0  0  0
    7.8822    3.4305    1.3884 H   0  0  0  0  0  0  0  0  0  0  0  0
    7.0368   -0.0043    1.3585 H   0  0  0  0  0  0  0  0  0  0  0  0
    3.7073   -2.1429    0.1814 H   0  0  0  0  0  0  0  0  0  0  0  0
    3.0934   -3.9360   -1.4047 H   0  0  0  0  0  0  0  0  0  0  0  0
  1  2  1  0  0  0  0
  1 30  2  0  0  0  0
  1 31  1  0  0  0  0
  2  3  2  0  0  0  0
  2 32  1  0  0  0  0
  3  4  1  0  0  0  0
  3 28  1  0  0  0  0
  4  5  1  0  0  0  0
  4 27  2  0  0  0  0
  5  6  2  0  0  0  0
  5 33  1  0  0  0  0
  6  7  1  0  0  0  0
  7  8  1  0  0  0  0
  7 27  1  0  0  0  0
  8  9  2  0  0  0  0
  8 34  1  0  0  0  0
  9 10  1  0  0  0  0
  9 25  1  0  0  0  0
 10 11  1  0  0  0  0
 10 24  2  0  0  0  0
 11 12  2  0  0  0  0
 11 35  1  0  0  0  0
 12 13  1  0  0  0  0
 12 36  1  0  0  0  0
 13 14  1  0  0  0  0
 13 23  2  0  0  0  0
 14 15  1  0  0  0  0
 15 16  1  0  0  0  0
 15 37  1  0  0  0  0
 15 38  1  0  0  0  0
 16 17  1  0  0  0  0
 16 39  1  0  0  0  0
 16 40  1  0  0  0  0
 17 18  1  0  0  0  0
 17 22  1  0  0  0  0
 18 19  1  0  0  0  0
 18 41  1  0  0  0  0
 18 42  1  0  0  0  0
 19 20  1  0  0  0  0
 19 43  1  0  0  0  0
 19 44  1  0  0  0  0
 20 21  1  0  0  0  0
 21 22  1  0  0  0  0
 21 45  1  0  0  0  0
 21 46  1  0  0  0  0
 22 47  1  0  0  0  0
 22 48  1  0  0  0  0
 23 24  1  0  0  0  0
 23 49  1  0  0  0  0
 24 50  1  0  0  0  0
 25 26  2  0  0  0  0
 25 51  1  0  0  0  0
 26 27  1  0  0  0  0
 28 29  2  0  0  0  0
 28 52  1  0  0  0  0
 29 30  1  0  0  0  0
 29 53  1  0  0  0  0
M  END
$$$$
