CHEMBL230686
 OpenBabel04072215363D

 59 63  0  0  0  0  0  0  0  0999 V2000
   -1.0247    1.7024    1.0732 C   0  0  0  0  0  0  0  0  0  0  0  0
   -0.1960    1.9300    2.3111 C   0  0  0  0  0  0  0  0  0  0  0  0
   -0.5870    1.3300    3.5315 C   0  0  0  0  0  0  0  0  0  0  0  0
    0.2282    1.3530    4.6734 C   0  0  0  0  0  0  0  0  0  0  0  0
   -0.0926    0.6221    5.9436 C   0  0  0  0  0  0  0  0  0  0  0  0
   -0.6259   -0.6956    5.9554 C   0  0  0  0  0  0  0  0  0  0  0  0
   -0.9950   -1.6091    4.5235 Cl  0  0  0  0  0  0  0  0  0  0  0  0
   -0.8490   -1.4013    7.1517 C   0  0  0  0  0  0  0  0  0  0  0  0
   -0.4961   -0.8551    8.3758 C   0  0  0  0  0  0  0  0  0  0  0  0
    0.0242    0.4281    8.4127 C   0  0  0  0  0  0  0  0  0  0  0  0
    0.1815    1.1713    7.2295 C   0  0  0  0  0  0  0  0  0  0  0  0
    0.6706    2.8207    7.4908 Cl  0  0  0  0  0  0  0  0  0  0  0  0
    1.4195    2.0804    4.5414 C   0  0  0  0  0  0  0  0  0  0  0  0
    1.7542    2.7864    3.3889 C   0  0  0  0  0  0  0  0  0  0  0  0
    2.8547    3.5283    3.3902 N   0  0  0  0  0  0  0  0  0  0  0  0
    3.1762    4.2212    2.2719 N   0  0  0  0  0  0  0  0  0  0  0  0
    2.3960    4.1388    1.1744 C   0  0  0  0  0  0  0  0  0  0  0  0
    2.7339    4.8801    0.0425 N   0  0  0  0  0  0  0  0  0  0  0  0
    3.4159    6.1114    0.0337 C   0  0  0  0  0  0  0  0  0  0  0  0
    4.1902    6.4595   -1.0740 C   0  0  0  0  0  0  0  0  0  0  0  0
    4.9358    7.6425   -1.0749 C   0  0  0  0  0  0  0  0  0  0  0  0
    4.8778    8.5102    0.0177 C   0  0  0  0  0  0  0  0  0  0  0  0
    5.5245    9.7082    0.1187 O   0  0  0  0  0  0  0  0  0  0  0  0
    5.8846   10.3009   -1.1289 C   0  0  0  0  0  0  0  0  0  0  0  0
    6.0620   11.8082   -0.9161 C   0  0  0  0  0  0  0  0  0  0  0  0
    6.3279   12.5426   -2.1674 N   0  0  0  0  0  0  0  0  0  0  0  0
    7.5977   12.1628   -2.8041 C   0  0  0  0  0  0  0  0  0  0  0  0
    8.6400   13.0179   -2.1172 C   0  0  0  0  0  0  0  0  0  0  0  0
    7.9254   14.3470   -1.9790 C   0  0  0  0  0  0  0  0  0  0  0  0
    6.4427   13.9906   -1.9021 C   0  0  0  0  0  0  0  0  0  0  0  0
    4.1119    8.1707    1.1252 C   0  0  0  0  0  0  0  0  0  0  0  0
    3.3824    6.9857    1.1294 C   0  0  0  0  0  0  0  0  0  0  0  0
    1.2986    3.3670    1.1135 N   0  0  0  0  0  0  0  0  0  0  0  0
    0.9599    2.7080    2.2439 C   0  0  0  0  0  0  0  0  0  0  0  0
   -1.8333    0.9879    1.2566 H   0  0  0  0  0  0  0  0  0  0  0  0
   -0.3983    1.2774    0.2798 H   0  0  0  0  0  0  0  0  0  0  0  0
   -1.4662    2.6401    0.7243 H   0  0  0  0  0  0  0  0  0  0  0  0
   -1.5442    0.8103    3.5545 H   0  0  0  0  0  0  0  0  0  0  0  0
   -1.2785   -2.4012    7.1251 H   0  0  0  0  0  0  0  0  0  0  0  0
   -0.6316   -1.4224    9.2928 H   0  0  0  0  0  0  0  0  0  0  0  0
    0.2994    0.8600    9.3736 H   0  0  0  0  0  0  0  0  0  0  0  0
    2.1359    2.1335    5.3576 H   0  0  0  0  0  0  0  0  0  0  0  0
    2.0765    4.7338   -0.7094 H   0  0  0  0  0  0  0  0  0  0  0  0
    4.2581    5.7893   -1.9268 H   0  0  0  0  0  0  0  0  0  0  0  0
    5.5642    7.8513   -1.9338 H   0  0  0  0  0  0  0  0  0  0  0  0
    5.1007   10.1489   -1.8813 H   0  0  0  0  0  0  0  0  0  0  0  0
    6.8174    9.8354   -1.4619 H   0  0  0  0  0  0  0  0  0  0  0  0
    6.8307   11.9871   -0.1534 H   0  0  0  0  0  0  0  0  0  0  0  0
    5.1245   12.1824   -0.4805 H   0  0  0  0  0  0  0  0  0  0  0  0
    7.5409   12.4233   -3.8685 H   0  0  0  0  0  0  0  0  0  0  0  0
    7.8388   11.0983   -2.7624 H   0  0  0  0  0  0  0  0  0  0  0  0
    9.5643   13.0966   -2.6948 H   0  0  0  0  0  0  0  0  0  0  0  0
    8.8878   12.6125   -1.1288 H   0  0  0  0  0  0  0  0  0  0  0  0
    8.1126   14.9607   -2.8681 H   0  0  0  0  0  0  0  0  0  0  0  0
    8.2690   14.9015   -1.1012 H   0  0  0  0  0  0  0  0  0  0  0  0
    5.8896   14.5394   -2.6731 H   0  0  0  0  0  0  0  0  0  0  0  0
    6.0136   14.2877   -0.9377 H   0  0  0  0  0  0  0  0  0  0  0  0
    4.0753    8.8315    1.9860 H   0  0  0  0  0  0  0  0  0  0  0  0
    2.7823    6.7610    2.0083 H   0  0  0  0  0  0  0  0  0  0  0  0
  1  2  1  0  0  0  0
  1 35  1  0  0  0  0
  1 36  1  0  0  0  0
  1 37  1  0  0  0  0
  2  3  1  0  0  0  0
  2 34  2  0  0  0  0
  3  4  2  0  0  0  0
  3 38  1  0  0  0  0
  4  5  1  0  0  0  0
  4 13  1  0  0  0  0
  5  6  1  0  0  0  0
  5 11  2  0  0  0  0
  6  7  1  0  0  0  0
  6  8  2  0  0  0  0
  8  9  1  0  0  0  0
  8 39  1  0  0  0  0
  9 10  2  0  0  0  0
  9 40  1  0  0  0  0
 10 11  1  0  0  0  0
 10 41  1  0  0  0  0
 11 12  1  0  0  0  0
 13 14  2  0  0  0  0
 13 42  1  0  0  0  0
 14 15  1  0  0  0  0
 14 34  1  0  0  0  0
 15 16  2  0  0  0  0
 16 17  1  0  0  0  0
 17 18  1  0  0  0  0
 17 33  2  0  0  0  0
 18 19  1  0  0  0  0
 18 43  1  0  0  0  0
 19 20  1  0  0  0  0
 19 32  2  0  0  0  0
 20 21  2  0  0  0  0
 20 44  1  0  0  0  0
 21 22  1  0  0  0  0
 21 45  1  0  0  0  0
 22 23  1  0  0  0  0
 22 31  2  0  0  0  0
 23 24  1  0  0  0  0
 24 25  1  0  0  0  0
 24 46  1  0  0  0  0
 24 47  1  0  0  0  0
 25 26  1  0  0  0  0
 25 48  1  0  0  0  0
 25 49  1  0  0  0  0
 26 27  1  0  0  0  0
 26 30  1  0  0  0  0
 27 28  1  0  0  0  0
 27 50  1  0  0  0  0
 27 51  1  0  0  0  0
 28 29  1  0  0  0  0
 28 52  1  0  0  0  0
 28 53  1  0  0  0  0
 29 30  1  0  0  0  0
 29 54  1  0  0  0  0
 29 55  1  0  0  0  0
 30 56  1  0  0  0  0
 30 57  1  0  0  0  0
 31 32  1  0  0  0  0
 31 58  1  0  0  0  0
 32 59  1  0  0  0  0
 33 34  1  0  0  0  0
M  END
$$$$
