CHEMBL3921313
 OpenBabel04072215373D

 58 61  0  0  0  0  0  0  0  0999 V2000
    4.2878   -2.5986    2.4075 C   0  0  0  0  0  0  0  0  0  0  0  0
    4.0621   -3.9038    1.6868 C   0  0  0  0  0  0  0  0  0  0  0  0
    4.7559   -3.8993    0.4068 O   0  0  0  0  0  0  0  0  0  0  0  0
    4.0261   -3.2049   -0.5287 C   0  0  0  0  0  0  0  0  0  0  0  0
    2.8042   -3.1884   -0.4312 O   0  0  0  0  0  0  0  0  0  0  0  0
    4.8782   -2.5028   -1.6630 C   0  0  0  0  0  0  0  0  0  0  0  0
    6.4521   -2.6592   -1.6197 N   0  0  0  0  0  0  0  0  0  0  0  0
    7.1546   -1.6826   -0.8971 C   0  0  0  0  0  0  0  0  0  0  0  0
    8.3548   -2.0535   -0.2884 C   0  0  0  0  0  0  0  0  0  0  0  0
    9.1387   -1.1741    0.4315 C   0  0  0  0  0  0  0  0  0  0  0  0
   10.2763   -1.5372    1.0983 O   0  0  0  0  0  0  0  0  0  0  0  0
   10.6235   -2.9214    1.0081 C   0  0  0  0  0  0  0  0  0  0  0  0
    8.7856    0.1637    0.4266 C   0  0  0  0  0  0  0  0  0  0  0  0
    7.6476    0.5962   -0.2684 C   0  0  0  0  0  0  0  0  0  0  0  0
    7.3800    1.9166   -0.5405 O   0  0  0  0  0  0  0  0  0  0  0  0
    8.3607    2.8380   -0.0569 C   0  0  0  0  0  0  0  0  0  0  0  0
    6.7610   -0.3435   -0.8129 C   0  0  0  0  0  0  0  0  0  0  0  0
    7.1128   -3.6884   -2.3768 C   0  0  0  0  0  0  0  0  0  0  0  0
    6.3606   -4.8114   -2.5584 C   0  0  0  0  0  0  0  0  0  0  0  0
    6.8843   -5.7546   -3.3504 C   0  0  0  0  0  0  0  0  0  0  0  0
    8.1815   -5.7512   -3.7501 C   0  0  0  0  0  0  0  0  0  0  0  0
    8.5705   -6.9281   -3.4969 N   0  0  0  0  0  0  0  0  0  0  0  0
    8.3983   -7.6892   -4.5034 C   0  0  0  0  0  0  0  0  0  0  0  0
    9.3113   -7.5911   -5.4201 C   0  0  0  0  0  0  0  0  0  0  0  0
    9.2605   -9.2974   -5.9464 C   0  0  0  0  0  0  0  0  0  0  0  0
    8.2087  -10.3961   -6.0048 C   0  0  0  0  0  0  0  0  0  0  0  0
    8.2731  -11.2815   -7.0448 N   0  0  0  0  0  0  0  0  0  0  0  0
    9.2388  -10.8254   -7.8542 N   0  0  0  0  0  0  0  0  0  0  0  0
    9.5082  -11.4812   -9.1682 C   0  0  0  0  0  0  0  0  0  0  0  0
    9.8140   -9.6713   -7.2599 C   0  0  0  0  0  0  0  0  0  0  0  0
    9.8884   -6.1200   -5.2022 N   0  0  0  0  0  0  0  0  0  0  0  0
    9.1712   -4.8830   -4.1609 C   0  0  0  0  0  0  0  0  0  0  0  0
    8.4594   -3.7175   -3.1598 C   0  0  0  0  0  0  0  0  0  0  0  0
    3.7407   -2.5745    3.3568 H   0  0  0  0  0  0  0  0  0  0  0  0
    3.9561   -1.7691    1.7803 H   0  0  0  0  0  0  0  0  0  0  0  0
    5.3540   -2.4675    2.6095 H   0  0  0  0  0  0  0  0  0  0  0  0
    2.9879   -4.0400    1.5057 H   0  0  0  0  0  0  0  0  0  0  0  0
    4.4078   -4.7203    2.3394 H   0  0  0  0  0  0  0  0  0  0  0  0
    4.5761   -1.4487   -1.5999 H   0  0  0  0  0  0  0  0  0  0  0  0
    4.5660   -2.8855   -2.6427 H   0  0  0  0  0  0  0  0  0  0  0  0
    8.6201   -3.0995   -0.3153 H   0  0  0  0  0  0  0  0  0  0  0  0
   11.5826   -3.0684    1.5065 H   0  0  0  0  0  0  0  0  0  0  0  0
   10.7519   -3.2451   -0.0333 H   0  0  0  0  0  0  0  0  0  0  0  0
    9.8789   -3.5469    1.5151 H   0  0  0  0  0  0  0  0  0  0  0  0
    9.4302    0.8585    0.9494 H   0  0  0  0  0  0  0  0  0  0  0  0
    8.1151    3.8354   -0.4277 H   0  0  0  0  0  0  0  0  0  0  0  0
    9.3780    2.6013   -0.4029 H   0  0  0  0  0  0  0  0  0  0  0  0
    8.3227    2.8674    1.0361 H   0  0  0  0  0  0  0  0  0  0  0  0
    5.7875   -0.0258   -1.1845 H   0  0  0  0  0  0  0  0  0  0  0  0
    5.4120   -5.0562   -2.1282 H   0  0  0  0  0  0  0  0  0  0  0  0
    6.3696   -6.6960   -3.4420 H   0  0  0  0  0  0  0  0  0  0  0  0
    7.6388   -8.4377   -4.4035 H   0  0  0  0  0  0  0  0  0  0  0  0
    7.3617  -10.6465   -5.3695 H   0  0  0  0  0  0  0  0  0  0  0  0
    8.9627  -12.4355   -9.3170 H   0  0  0  0  0  0  0  0  0  0  0  0
   10.5744  -11.7236   -9.2791 H   0  0  0  0  0  0  0  0  0  0  0  0
    9.2137  -10.8369  -10.0109 H   0  0  0  0  0  0  0  0  0  0  0  0
   10.5245   -9.1691   -7.8926 H   0  0  0  0  0  0  0  0  0  0  0  0
    9.0301   -2.7674   -2.8634 H   0  0  0  0  0  0  0  0  0  0  0  0
  1  2  1  0  0  0  0
  1 34  1  0  0  0  0
  1 35  1  0  0  0  0
  1 36  1  0  0  0  0
  2  3  1  0  0  0  0
  2 37  1  0  0  0  0
  2 38  1  0  0  0  0
  3  4  1  0  0  0  0
  4  5  2  0  0  0  0
  4  6  1  0  0  0  0
  6  7  1  0  0  0  0
  6 39  1  0  0  0  0
  6 40  1  0  0  0  0
  7  8  1  0  0  0  0
  7 18  1  0  0  0  0
  8  9  1  0  0  0  0
  8 17  2  0  0  0  0
  9 10  2  0  0  0  0
  9 41  1  0  0  0  0
 10 11  1  0  0  0  0
 10 13  1  0  0  0  0
 11 12  1  0  0  0  0
 12 42  1  0  0  0  0
 12 43  1  0  0  0  0
 12 44  1  0  0  0  0
 13 14  2  0  0  0  0
 13 45  1  0  0  0  0
 14 15  1  0  0  0  0
 14 17  1  0  0  0  0
 15 16  1  0  0  0  0
 16 46  1  0  0  0  0
 16 47  1  0  0  0  0
 16 48  1  0  0  0  0
 17 49  1  0  0  0  0
 18 19  1  0  0  0  0
 18 33  2  0  0  0  0
 19 20  2  0  0  0  0
 19 50  1  0  0  0  0
 20 21  1  0  0  0  0
 20 51  1  0  0  0  0
 21 22  1  0  0  0  0
 21 32  2  0  0  0  0
 22 23  2  0  0  0  0
 23 24  1  0  0  0  0
 23 52  1  0  0  0  0
 24 25  1  0  0  0  0
 24 31  2  0  0  0  0
 25 26  1  0  0  0  0
 25 30  2  0  0  0  0
 26 27  2  0  0  0  0
 26 53  1  0  0  0  0
 27 28  1  0  0  0  0
 28 29  1  0  0  0  0
 28 30  1  0  0  0  0
 29 54  1  0  0  0  0
 29 55  1  0  0  0  0
 29 56  1  0  0  0  0
 30 57  1  0  0  0  0
 31 32  1  0  0  0  0
 32 33  1  0  0  0  0
 33 58  1  0  0  0  0
M  END
$$$$
