CHEMBL202998
 OpenBabel04072215363D

 46 50  0  0  0  0  0  0  0  0999 V2000
    2.4528   -3.1558    2.3242 C   0  0  0  0  0  0  0  0  0  0  0  0
    1.0220   -2.7031    2.3381 C   0  0  0  0  0  0  0  0  0  0  0  0
    0.4521   -2.1813    3.5025 C   0  0  0  0  0  0  0  0  0  0  0  0
   -0.8755   -1.7636    3.5032 C   0  0  0  0  0  0  0  0  0  0  0  0
   -1.6435   -1.8727    2.3423 C   0  0  0  0  0  0  0  0  0  0  0  0
   -1.1062   -2.4133    1.1641 C   0  0  0  0  0  0  0  0  0  0  0  0
   -1.8433   -2.4394   -0.0429 N   0  0  0  0  0  0  0  0  0  0  0  0
   -3.2527   -2.5472   -0.1511 C   0  0  0  0  0  0  0  0  0  0  0  0
   -3.9212   -3.2706    0.7661 N   0  0  0  0  0  0  0  0  0  0  0  0
   -5.2822   -3.3727    0.7192 N   0  0  0  0  0  0  0  0  0  0  0  0
   -6.0112   -2.6616   -0.1650 C   0  0  0  0  0  0  0  0  0  0  0  0
   -7.4932   -2.8258   -0.0017 C   0  0  0  0  0  0  0  0  0  0  0  0
   -8.3064   -2.9165   -1.1556 C   0  0  0  0  0  0  0  0  0  0  0  0
   -9.6965   -2.9353   -1.0910 C   0  0  0  0  0  0  0  0  0  0  0  0
  -10.3222   -2.9664    0.1433 C   0  0  0  0  0  0  0  0  0  0  0  0
   -9.5648   -3.0091    1.3197 C   0  0  0  0  0  0  0  0  0  0  0  0
  -10.2054   -3.1406    2.5555 C   0  0  0  0  0  0  0  0  0  0  0  0
   -9.5814   -3.2215    3.7485 N   0  0  0  0  0  0  0  0  0  0  0  0
   -8.2414   -3.1477    3.7131 C   0  0  0  0  0  0  0  0  0  0  0  0
   -7.5063   -2.9834    2.5458 C   0  0  0  0  0  0  0  0  0  0  0  0
   -8.1477   -2.9325    1.2817 C   0  0  0  0  0  0  0  0  0  0  0  0
   -5.3605   -1.8820   -1.1604 C   0  0  0  0  0  0  0  0  0  0  0  0
   -6.0169   -1.0617   -2.1219 C   0  0  0  0  0  0  0  0  0  0  0  0
   -5.3378   -0.4247   -3.1603 C   0  0  0  0  0  0  0  0  0  0  0  0
   -3.9604   -0.5238   -3.2372 C   0  0  0  0  0  0  0  0  0  0  0  0
   -3.2683   -1.2170   -2.2468 C   0  0  0  0  0  0  0  0  0  0  0  0
   -3.9421   -1.8990   -1.1938 C   0  0  0  0  0  0  0  0  0  0  0  0
    0.2416   -2.7996    1.1732 C   0  0  0  0  0  0  0  0  0  0  0  0
    2.9301   -3.0084    3.2989 H   0  0  0  0  0  0  0  0  0  0  0  0
    3.0221   -2.5872    1.5825 H   0  0  0  0  0  0  0  0  0  0  0  0
    2.5064   -4.2220    2.0830 H   0  0  0  0  0  0  0  0  0  0  0  0
    1.0376   -2.0888    4.4146 H   0  0  0  0  0  0  0  0  0  0  0  0
   -1.3164   -1.3454    4.4047 H   0  0  0  0  0  0  0  0  0  0  0  0
   -2.6705   -1.5173    2.3674 H   0  0  0  0  0  0  0  0  0  0  0  0
   -1.4007   -2.9783   -0.7766 H   0  0  0  0  0  0  0  0  0  0  0  0
   -7.8568   -2.9658   -2.1460 H   0  0  0  0  0  0  0  0  0  0  0  0
  -10.2854   -2.9362   -2.0046 H   0  0  0  0  0  0  0  0  0  0  0  0
  -11.4095   -2.9902    0.1818 H   0  0  0  0  0  0  0  0  0  0  0  0
  -11.2892   -3.2038    2.6216 H   0  0  0  0  0  0  0  0  0  0  0  0
   -7.7439   -3.2340    4.6753 H   0  0  0  0  0  0  0  0  0  0  0  0
   -6.4284   -2.9326    2.6517 H   0  0  0  0  0  0  0  0  0  0  0  0
   -7.0898   -0.8962   -2.0758 H   0  0  0  0  0  0  0  0  0  0  0  0
   -5.8896    0.1480   -3.9011 H   0  0  0  0  0  0  0  0  0  0  0  0
   -3.4215   -0.0378   -4.0464 H   0  0  0  0  0  0  0  0  0  0  0  0
   -2.1814   -1.2246   -2.2975 H   0  0  0  0  0  0  0  0  0  0  0  0
    0.6979   -3.1893    0.2648 H   0  0  0  0  0  0  0  0  0  0  0  0
  1  2  1  0  0  0  0
  1 29  1  0  0  0  0
  1 30  1  0  0  0  0
  1 31  1  0  0  0  0
  2  3  1  0  0  0  0
  2 28  2  0  0  0  0
  3  4  2  0  0  0  0
  3 32  1  0  0  0  0
  4  5  1  0  0  0  0
  4 33  1  0  0  0  0
  5  6  2  0  0  0  0
  5 34  1  0  0  0  0
  6  7  1  0  0  0  0
  6 28  1  0  0  0  0
  7  8  1  0  0  0  0
  7 35  1  0  0  0  0
  8  9  1  0  0  0  0
  8 27  2  0  0  0  0
  9 10  2  0  0  0  0
 10 11  1  0  0  0  0
 11 12  1  0  0  0  0
 11 22  2  0  0  0  0
 12 13  1  0  0  0  0
 12 21  2  0  0  0  0
 13 14  2  0  0  0  0
 13 36  1  0  0  0  0
 14 15  1  0  0  0  0
 14 37  1  0  0  0  0
 15 16  2  0  0  0  0
 15 38  1  0  0  0  0
 16 17  1  0  0  0  0
 16 21  1  0  0  0  0
 17 18  2  0  0  0  0
 17 39  1  0  0  0  0
 18 19  1  0  0  0  0
 19 20  2  0  0  0  0
 19 40  1  0  0  0  0
 20 21  1  0  0  0  0
 20 41  1  0  0  0  0
 22 23  1  0  0  0  0
 22 27  1  0  0  0  0
 23 24  2  0  0  0  0
 23 42  1  0  0  0  0
 24 25  1  0  0  0  0
 24 43  1  0  0  0  0
 25 26  2  0  0  0  0
 25 44  1  0  0  0  0
 26 27  1  0  0  0  0
 26 45  1  0  0  0  0
 28 46  1  0  0  0  0
M  END
$$$$
