CHEMBL3656035
 OpenBabel04072215373D

 52 55  0  0  0  0  0  0  0  0999 V2000
    2.9588    0.1779    0.1959 C   0  0  0  0  0  0  0  0  0  0  0  0
    1.4668    0.0560    0.0646 C   0  0  0  0  0  0  0  0  0  0  0  0
    0.8692   -1.2065    0.0060 C   0  0  0  0  0  0  0  0  0  0  0  0
   -0.5102   -1.3155   -0.1360 C   0  0  0  0  0  0  0  0  0  0  0  0
   -1.3020   -0.1696   -0.2060 C   0  0  0  0  0  0  0  0  0  0  0  0
   -2.6021   -0.3587   -0.4641 F   0  0  0  0  0  0  0  0  0  0  0  0
   -0.7413    1.1118   -0.1062 C   0  0  0  0  0  0  0  0  0  0  0  0
   -1.4792    2.3277   -0.1361 N   0  0  0  0  0  0  0  0  0  0  0  0
   -2.8278    2.4613    0.1562 C   0  0  0  0  0  0  0  0  0  0  0  0
   -3.5431    1.5797    0.6194 O   0  0  0  0  0  0  0  0  0  0  0  0
   -3.4412    3.8111   -0.0262 C   0  0  0  0  0  0  0  0  0  0  0  0
   -2.8978    4.8015   -0.8521 C   0  0  0  0  0  0  0  0  0  0  0  0
   -3.5329    6.0445   -0.9621 C   0  0  0  0  0  0  0  0  0  0  0  0
   -4.7226    6.2939   -0.2761 C   0  0  0  0  0  0  0  0  0  0  0  0
   -5.3175    5.2808    0.4768 C   0  0  0  0  0  0  0  0  0  0  0  0
   -6.5135    5.4041    1.1457 O   0  0  0  0  0  0  0  0  0  0  0  0
   -7.5400    6.1401    0.5982 C   0  0  0  0  0  0  0  0  0  0  0  0
   -7.7728    6.2938   -0.7643 C   0  0  0  0  0  0  0  0  0  0  0  0
   -8.8193    7.1100   -1.1560 C   0  0  0  0  0  0  0  0  0  0  0  0
   -9.6539    7.7314   -0.2951 N   0  0  0  0  0  0  0  0  0  0  0  0
   -9.4493    7.5078    1.0252 C   0  0  0  0  0  0  0  0  0  0  0  0
  -10.3853    8.2000    1.9044 C   0  0  0  0  0  0  0  0  0  0  0  0
  -10.5388    8.1999    3.2810 C   0  0  0  0  0  0  0  0  0  0  0  0
  -11.5936    9.0985    3.6306 C   0  0  0  0  0  0  0  0  0  0  0  0
  -12.1192    9.4581    4.9441 C   0  0  0  0  0  0  0  0  0  0  0  0
  -13.0459   10.2500    5.1110 O   0  0  0  0  0  0  0  0  0  0  0  0
  -11.4901    8.8614    6.0102 N   0  0  0  0  0  0  0  0  0  0  0  0
  -11.9095    9.2402    7.3074 O   0  0  0  0  0  0  0  0  0  0  0  0
  -12.0635    9.6064    2.4314 C   0  0  0  0  0  0  0  0  0  0  0  0
  -11.3426    9.0557    1.4078 N   0  0  0  0  0  0  0  0  0  0  0  0
   -8.4179    6.7176    1.5101 C   0  0  0  0  0  0  0  0  0  0  0  0
   -4.6562    4.0624    0.6328 C   0  0  0  0  0  0  0  0  0  0  0  0
    0.6574    1.2081    0.0028 C   0  0  0  0  0  0  0  0  0  0  0  0
    3.4377   -0.8068    0.2286 H   0  0  0  0  0  0  0  0  0  0  0  0
    3.2162    0.7050    1.1191 H   0  0  0  0  0  0  0  0  0  0  0  0
    3.3704    0.7192   -0.6617 H   0  0  0  0  0  0  0  0  0  0  0  0
    1.4714   -2.1109    0.0573 H   0  0  0  0  0  0  0  0  0  0  0  0
   -0.9850   -2.2894   -0.2092 H   0  0  0  0  0  0  0  0  0  0  0  0
   -0.9375    3.1773   -0.1900 H   0  0  0  0  0  0  0  0  0  0  0  0
   -1.9995    4.6261   -1.4362 H   0  0  0  0  0  0  0  0  0  0  0  0
   -3.1104    6.8199   -1.5981 H   0  0  0  0  0  0  0  0  0  0  0  0
   -5.1880    7.2733   -0.3577 H   0  0  0  0  0  0  0  0  0  0  0  0
   -7.1574    5.8102   -1.5134 H   0  0  0  0  0  0  0  0  0  0  0  0
   -9.0152    7.2965   -2.2083 H   0  0  0  0  0  0  0  0  0  0  0  0
   -9.9395    7.6135    3.9636 H   0  0  0  0  0  0  0  0  0  0  0  0
  -10.6613    8.2873    5.9439 H   0  0  0  0  0  0  0  0  0  0  0  0
  -12.6236    9.8873    7.1109 H   0  0  0  0  0  0  0  0  0  0  0  0
  -12.8549   10.3176    2.2294 H   0  0  0  0  0  0  0  0  0  0  0  0
  -11.4606    9.2394    0.4181 H   0  0  0  0  0  0  0  0  0  0  0  0
   -8.2780    6.5572    2.5721 H   0  0  0  0  0  0  0  0  0  0  0  0
   -5.1024    3.2947    1.2637 H   0  0  0  0  0  0  0  0  0  0  0  0
    1.1358    2.1834    0.0615 H   0  0  0  0  0  0  0  0  0  0  0  0
  1  2  1  0  0  0  0
  1 34  1  0  0  0  0
  1 35  1  0  0  0  0
  1 36  1  0  0  0  0
  2  3  1  0  0  0  0
  2 33  2  0  0  0  0
  3  4  2  0  0  0  0
  3 37  1  0  0  0  0
  4  5  1  0  0  0  0
  4 38  1  0  0  0  0
  5  6  1  0  0  0  0
  5  7  2  0  0  0  0
  7  8  1  0  0  0  0
  7 33  1  0  0  0  0
  8  9  1  0  0  0  0
  8 39  1  0  0  0  0
  9 10  2  0  0  0  0
  9 11  1  0  0  0  0
 11 12  1  0  0  0  0
 11 32  2  0  0  0  0
 12 13  2  0  0  0  0
 12 40  1  0  0  0  0
 13 14  1  0  0  0  0
 13 41  1  0  0  0  0
 14 15  2  0  0  0  0
 14 42  1  0  0  0  0
 15 16  1  0  0  0  0
 15 32  1  0  0  0  0
 16 17  1  0  0  0  0
 17 18  1  0  0  0  0
 17 31  2  0  0  0  0
 18 19  2  0  0  0  0
 18 43  1  0  0  0  0
 19 20  1  0  0  0  0
 19 44  1  0  0  0  0
 20 21  2  0  0  0  0
 21 22  1  0  0  0  0
 21 31  1  0  0  0  0
 22 23  2  0  0  0  0
 22 30  1  0  0  0  0
 23 24  1  0  0  0  0
 23 45  1  0  0  0  0
 24 25  1  0  0  0  0
 24 29  2  0  0  0  0
 25 26  2  0  0  0  0
 25 27  1  0  0  0  0
 27 28  1  0  0  0  0
 27 46  1  0  0  0  0
 28 47  1  0  0  0  0
 29 30  1  0  0  0  0
 29 48  1  0  0  0  0
 30 49  1  0  0  0  0
 31 50  1  0  0  0  0
 32 51  1  0  0  0  0
 33 52  1  0  0  0  0
M  END
$$$$
