CHEMBL3221260
 OpenBabel04072215363D

 49 50  0  0  0  0  0  0  0  0999 V2000
    3.9551   -5.3992    5.6576 C   0  0  0  0  0  0  0  0  0  0  0  0
    4.1862   -3.8960    5.6625 C   0  0  0  0  0  0  0  0  0  0  0  0
    4.7810   -3.4984    4.4804 O   0  0  0  0  0  0  0  0  0  0  0  0
    4.2155   -2.6816    3.5502 C   0  0  0  0  0  0  0  0  0  0  0  0
    3.0132   -2.4587    3.5615 O   0  0  0  0  0  0  0  0  0  0  0  0
    4.9949   -2.1040    2.6027 N   0  0  0  0  0  0  0  0  0  0  0  0
    6.3982   -2.2867    2.6221 C   0  0  0  0  0  0  0  0  0  0  0  0
    6.9780   -3.3412    1.9086 C   0  0  0  0  0  0  0  0  0  0  0  0
    8.3612   -3.5622    1.9637 C   0  0  0  0  0  0  0  0  0  0  0  0
    9.0268   -4.9130    1.0531 Cl  0  0  0  0  0  0  0  0  0  0  0  0
    9.1844   -2.7047    2.7233 C   0  0  0  0  0  0  0  0  0  0  0  0
   10.5929   -2.9288    2.8274 N   0  0  0  0  0  0  0  0  0  0  0  0
   11.4925   -1.8900    3.2045 C   0  0  0  0  0  0  0  0  0  0  0  0
   11.2282   -0.6136    2.7976 N   0  0  0  0  0  0  0  0  0  0  0  0
   12.0272    0.4310    3.1266 C   0  0  0  0  0  0  0  0  0  0  0  0
   13.1167    0.2252    3.8980 N   0  0  0  0  0  0  0  0  0  0  0  0
   13.4353   -1.0184    4.3507 C   0  0  0  0  0  0  0  0  0  0  0  0
   14.5318   -1.1777    5.1892 C   0  0  0  0  0  0  0  0  0  0  0  0
   14.8797   -2.4492    5.7106 C   0  0  0  0  0  0  0  0  0  0  0  0
   15.9389   -2.5772    6.5618 O   0  0  0  0  0  0  0  0  0  0  0  0
   16.7166   -1.5233    7.0124 C   0  0  0  0  0  0  0  0  0  0  0  0
   14.0792   -3.5768    5.3385 C   0  0  0  0  0  0  0  0  0  0  0  0
   14.2776   -4.8586    5.7470 O   0  0  0  0  0  0  0  0  0  0  0  0
   15.2272   -5.3886    6.5889 C   0  0  0  0  0  0  0  0  0  0  0  0
   12.9817   -3.3900    4.4915 C   0  0  0  0  0  0  0  0  0  0  0  0
   12.6369   -2.1229    3.9979 C   0  0  0  0  0  0  0  0  0  0  0  0
    8.5793   -1.6480    3.4392 C   0  0  0  0  0  0  0  0  0  0  0  0
    7.2033   -1.4417    3.3937 C   0  0  0  0  0  0  0  0  0  0  0  0
    6.5076   -0.1328    4.3411 Cl  0  0  0  0  0  0  0  0  0  0  0  0
   -0.9241    1.6202    0.3880 Cl  0  0  0  0  0  0  0  0  0  0  0  0
    3.5165   -5.7067    6.6296 H   0  0  0  0  0  0  0  0  0  0  0  0
    4.9131   -5.9417    5.5061 H   0  0  0  0  0  0  0  0  0  0  0  0
    3.2492   -5.6672    4.8431 H   0  0  0  0  0  0  0  0  0  0  0  0
    4.8781   -3.6369    6.4976 H   0  0  0  0  0  0  0  0  0  0  0  0
    3.2252   -3.3768    5.8398 H   0  0  0  0  0  0  0  0  0  0  0  0
    4.5813   -1.4639    1.9076 H   0  0  0  0  0  0  0  0  0  0  0  0
    6.3479   -3.9980    1.3216 H   0  0  0  0  0  0  0  0  0  0  0  0
   10.9556   -3.8774    2.6639 H   0  0  0  0  0  0  0  0  0  0  0  0
   11.7883    1.4258    2.7735 H   0  0  0  0  0  0  0  0  0  0  0  0
   15.1029   -0.2976    5.4391 H   0  0  0  0  0  0  0  0  0  0  0  0
   17.4918   -1.8983    7.7118 H   0  0  0  0  0  0  0  0  0  0  0  0
   16.0874   -0.7839    7.5559 H   0  0  0  0  0  0  0  0  0  0  0  0
   17.2241   -1.0241    6.1604 H   0  0  0  0  0  0  0  0  0  0  0  0
   15.0418   -6.4832    6.6561 H   0  0  0  0  0  0  0  0  0  0  0  0
   15.1304   -4.9599    7.6053 H   0  0  0  0  0  0  0  0  0  0  0  0
   16.2441   -5.2375    6.1740 H   0  0  0  0  0  0  0  0  0  0  0  0
   12.3863   -4.2602    4.2494 H   0  0  0  0  0  0  0  0  0  0  0  0
    9.1638   -0.9950    4.0712 H   0  0  0  0  0  0  0  0  0  0  0  0
    0.4183    1.9117    0.4622 H   0  0  0  0  0  0  0  0  0  0  0  0
  1  2  1  0  0  0  0
  1 31  1  0  0  0  0
  1 32  1  0  0  0  0
  1 33  1  0  0  0  0
  2  3  1  0  0  0  0
  2 34  1  0  0  0  0
  2 35  1  0  0  0  0
  3  4  1  0  0  0  0
  4  5  2  0  0  0  0
  4  6  1  0  0  0  0
  6  7  1  0  0  0  0
  6 36  1  0  0  0  0
  7  8  1  0  0  0  0
  7 28  2  0  0  0  0
  8  9  2  0  0  0  0
  8 37  1  0  0  0  0
  9 10  1  0  0  0  0
  9 11  1  0  0  0  0
 11 12  1  0  0  0  0
 11 27  2  0  0  0  0
 12 13  1  0  0  0  0
 12 38  1  0  0  0  0
 13 14  1  0  0  0  0
 13 26  2  0  0  0  0
 14 15  2  0  0  0  0
 15 16  1  0  0  0  0
 15 39  1  0  0  0  0
 16 17  2  0  0  0  0
 17 18  1  0  0  0  0
 17 26  1  0  0  0  0
 18 19  2  0  0  0  0
 18 40  1  0  0  0  0
 19 20  1  0  0  0  0
 19 22  1  0  0  0  0
 20 21  1  0  0  0  0
 21 41  1  0  0  0  0
 21 42  1  0  0  0  0
 21 43  1  0  0  0  0
 22 23  1  0  0  0  0
 22 25  2  0  0  0  0
 23 24  1  0  0  0  0
 24 44  1  0  0  0  0
 24 45  1  0  0  0  0
 24 46  1  0  0  0  0
 25 26  1  0  0  0  0
 25 47  1  0  0  0  0
 27 28  1  0  0  0  0
 27 48  1  0  0  0  0
 28 29  1  0  0  0  0
 30 49  1  0  0  0  0
M  END
$$$$
