CHEMBL2071196
 OpenBabel04072215363D

 46 49  0  0  1  0  0  0  0  0999 V2000
   -3.4232    6.8918   -0.2720 C   0  0  0  0  0  0  0  0  0  0  0  0
   -2.6484    6.3079    0.8645 C   0  0  0  0  0  0  0  0  0  0  0  0
   -2.2326    7.1115    1.8995 C   0  0  0  0  0  0  0  0  0  0  0  0
   -1.5631    6.6588    2.9651 N   0  0  0  0  0  0  0  0  0  0  0  0
   -1.2387    5.3571    2.9797 C   0  0  0  0  0  0  0  0  0  0  0  0
   -0.5088    4.8747    4.0683 N   0  0  0  0  0  0  0  0  0  0  0  0
   -0.5598    5.3198    5.3407 C   0  0  0  0  0  0  0  0  0  0  0  0
   -1.6185    5.9991    5.9905 C   0  0  0  0  0  0  0  0  0  0  0  0
   -1.3495    6.2449    7.2758 N   0  0  0  0  0  0  0  0  0  0  0  0
   -0.1129    5.7391    7.4384 N   0  0  0  0  0  0  0  0  0  0  0  0
    0.5258    5.8154    8.7289 C   0  0  0  0  0  0  0  0  0  0  0  0
    0.3987    5.1610    6.3074 C   0  0  0  0  0  0  0  0  0  0  0  0
   -1.5667    4.4995    1.9974 N   0  0  0  0  0  0  0  0  0  0  0  0
   -2.2900    4.9671    0.9574 C   0  0  0  0  0  0  0  0  0  0  0  0
   -2.8307    4.0547    0.0318 N   0  0  0  0  0  0  0  0  0  0  0  0
   -2.0923    2.8048   -0.1920 C   0  0  1  0  0  0  0  0  0  0  0  0
   -2.8852    1.4963    0.1505 C   0  0  1  0  0  0  0  0  0  0  0  0
   -4.2879    1.6516    0.7163 C   0  0  0  0  0  0  0  0  0  0  0  0
   -4.3674    2.2549    1.9352 N   0  0  0  0  0  0  0  0  0  0  0  0
   -5.2973    1.1951    0.1889 O   0  0  0  0  0  0  0  0  0  0  0  0
   -2.9273    0.7593   -1.2165 C   0  0  2  0  0  0  0  0  0  0  0  0
   -1.5122    0.3717   -1.6007 C   0  0  0  0  0  0  0  0  0  0  0  0
   -0.8614    1.4960   -1.9196 C   0  0  0  0  0  0  0  0  0  0  0  0
   -1.8374    2.6358   -1.7300 C   0  0  1  0  0  0  0  0  0  0  0  0
   -3.1155    1.9273   -2.1874 C   0  0  0  0  0  0  0  0  0  0  0  0
   -3.5725    7.9692   -0.1452 H   0  0  0  0  0  0  0  0  0  0  0  0
   -4.4105    6.4260   -0.3431 H   0  0  0  0  0  0  0  0  0  0  0  0
   -2.8812    6.7486   -1.2133 H   0  0  0  0  0  0  0  0  0  0  0  0
   -2.4324    8.1789    1.9152 H   0  0  0  0  0  0  0  0  0  0  0  0
    0.0864    4.1097    3.7839 H   0  0  0  0  0  0  0  0  0  0  0  0
   -2.5777    6.2934    5.5885 H   0  0  0  0  0  0  0  0  0  0  0  0
   -0.1543    6.2825    9.4477 H   0  0  0  0  0  0  0  0  0  0  0  0
    1.4328    6.4155    8.6307 H   0  0  0  0  0  0  0  0  0  0  0  0
    0.7658    4.8002    9.0532 H   0  0  0  0  0  0  0  0  0  0  0  0
    1.3861    4.7235    6.2920 H   0  0  0  0  0  0  0  0  0  0  0  0
   -3.0370    4.5211   -0.8463 H   0  0  0  0  0  0  0  0  0  0  0  0
   -1.1240    2.7996    0.3260 H   0  0  0  0  0  0  0  0  0  0  0  0
   -2.3177    0.8983    0.8769 H   0  0  0  0  0  0  0  0  0  0  0  0
   -3.6669    2.9512    2.1732 H   0  0  0  0  0  0  0  0  0  0  0  0
   -5.3070    2.4290    2.2706 H   0  0  0  0  0  0  0  0  0  0  0  0
   -3.6581   -0.0448   -1.3298 H   0  0  0  0  0  0  0  0  0  0  0  0
   -1.1100   -0.6292   -1.5893 H   0  0  0  0  0  0  0  0  0  0  0  0
    0.1721    1.5929   -2.2146 H   0  0  0  0  0  0  0  0  0  0  0  0
   -1.5947    3.5417   -2.2879 H   0  0  0  0  0  0  0  0  0  0  0  0
   -3.0949    1.6240   -3.2431 H   0  0  0  0  0  0  0  0  0  0  0  0
   -4.0284    2.5063   -2.0096 H   0  0  0  0  0  0  0  0  0  0  0  0
  1  2  1  0  0  0  0
  1 26  1  0  0  0  0
  1 27  1  0  0  0  0
  1 28  1  0  0  0  0
  2  3  1  0  0  0  0
  2 14  2  0  0  0  0
  3  4  2  0  0  0  0
  3 29  1  0  0  0  0
  4  5  1  0  0  0  0
  5  6  1  0  0  0  0
  5 13  2  0  0  0  0
  6  7  1  0  0  0  0
  6 30  1  0  0  0  0
  7  8  1  0  0  0  0
  7 12  2  0  0  0  0
  8  9  2  0  0  0  0
  8 31  1  0  0  0  0
  9 10  1  0  0  0  0
 10 11  1  0  0  0  0
 10 12  1  0  0  0  0
 11 32  1  0  0  0  0
 11 33  1  0  0  0  0
 11 34  1  0  0  0  0
 12 35  1  0  0  0  0
 13 14  1  0  0  0  0
 14 15  1  0  0  0  0
 15 36  1  0  0  0  0
 16 17  1  0  0  0  0
 16 24  1  0  0  0  0
 16 15  1  0  0  0  0
 16 37  1  1  0  0  0
 17 18  1  0  0  0  0
 17 21  1  0  0  0  0
 17 38  1  1  0  0  0
 18 19  1  0  0  0  0
 18 20  2  0  0  0  0
 19 39  1  0  0  0  0
 19 40  1  0  0  0  0
 21 22  1  0  0  0  0
 21 25  1  0  0  0  0
 21 41  1  6  0  0  0
 22 23  2  0  0  0  0
 22 42  1  0  0  0  0
 23 24  1  0  0  0  0
 23 43  1  0  0  0  0
 24 25  1  0  0  0  0
 24 44  1  6  0  0  0
 25 45  1  0  0  0  0
 25 46  1  0  0  0  0
M  END
$$$$
