CHEMBL1271837
 OpenBabel04072215363D

 32 34  0  0  0  0  0  0  0  0999 V2000
    0.9742    0.1017    0.1932 O   0  0  0  0  0  0  0  0  0  0  0  0
    2.1834    0.0729   -0.0242 C   0  0  0  0  0  0  0  0  0  0  0  0
    2.8256    0.7711   -1.0312 N   0  0  0  0  0  0  0  0  0  0  0  0
    2.1718    1.6313   -1.9411 C   0  0  0  0  0  0  0  0  0  0  0  0
    0.9039    2.1603   -1.7309 C   0  0  0  0  0  0  0  0  0  0  0  0
    0.2286    2.9220   -2.6239 N   0  0  0  0  0  0  0  0  0  0  0  0
    0.8127    3.1562   -3.8029 C   0  0  0  0  0  0  0  0  0  0  0  0
    0.1016    3.8569   -4.7650 C   0  0  0  0  0  0  0  0  0  0  0  0
    0.6338    4.1017   -6.0313 C   0  0  0  0  0  0  0  0  0  0  0  0
    1.9134    3.6533   -6.3405 C   0  0  0  0  0  0  0  0  0  0  0  0
    2.6575    2.9636   -5.3821 C   0  0  0  0  0  0  0  0  0  0  0  0
    2.1117    2.7002   -4.1138 C   0  0  0  0  0  0  0  0  0  0  0  0
    2.8045    1.9579   -3.1378 C   0  0  0  0  0  0  0  0  0  0  0  0
    2.9967   -0.8153    0.8382 C   0  0  0  0  0  0  0  0  0  0  0  0
    2.3207   -1.6623    1.7291 C   0  0  0  0  0  0  0  0  0  0  0  0
    3.0472   -2.4610    2.6009 C   0  0  0  0  0  0  0  0  0  0  0  0
    2.2349   -3.4875    3.7152 Cl  0  0  0  0  0  0  0  0  0  0  0  0
    4.4352   -2.3911    2.5507 C   0  0  0  0  0  0  0  0  0  0  0  0
    5.2158   -3.1215    3.4017 O   0  0  0  0  0  0  0  0  0  0  0  0
    5.1234   -1.6080    1.6936 N   0  0  0  0  0  0  0  0  0  0  0  0
    4.3831   -0.8482    0.8648 C   0  0  0  0  0  0  0  0  0  0  0  0
    5.1539   -0.0923    0.0410 O   0  0  0  0  0  0  0  0  0  0  0  0
    3.8099    0.5680   -1.1932 H   0  0  0  0  0  0  0  0  0  0  0  0
    0.3579    2.0100   -0.8058 H   0  0  0  0  0  0  0  0  0  0  0  0
   -0.9015    4.1996   -4.5246 H   0  0  0  0  0  0  0  0  0  0  0  0
    0.0405    4.6333   -6.7707 H   0  0  0  0  0  0  0  0  0  0  0  0
    2.3259    3.8325   -7.3295 H   0  0  0  0  0  0  0  0  0  0  0  0
    3.6535    2.6106   -5.6410 H   0  0  0  0  0  0  0  0  0  0  0  0
    3.8044    1.5906   -3.3501 H   0  0  0  0  0  0  0  0  0  0  0  0
    1.2324   -1.6865    1.7455 H   0  0  0  0  0  0  0  0  0  0  0  0
    4.6114   -3.5998    3.9962 H   0  0  0  0  0  0  0  0  0  0  0  0
    6.0404   -0.3291    0.3821 H   0  0  0  0  0  0  0  0  0  0  0  0
  1  2  2  0  0  0  0
  2  3  1  0  0  0  0
  2 14  1  0  0  0  0
  3  4  1  0  0  0  0
  3 23  1  0  0  0  0
  4  5  1  0  0  0  0
  4 13  2  0  0  0  0
  5  6  2  0  0  0  0
  5 24  1  0  0  0  0
  6  7  1  0  0  0  0
  7  8  1  0  0  0  0
  7 12  2  0  0  0  0
  8  9  2  0  0  0  0
  8 25  1  0  0  0  0
  9 10  1  0  0  0  0
  9 26  1  0  0  0  0
 10 11  2  0  0  0  0
 10 27  1  0  0  0  0
 11 12  1  0  0  0  0
 11 28  1  0  0  0  0
 12 13  1  0  0  0  0
 13 29  1  0  0  0  0
 14 15  1  0  0  0  0
 14 21  2  0  0  0  0
 15 16  2  0  0  0  0
 15 30  1  0  0  0  0
 16 17  1  0  0  0  0
 16 18  1  0  0  0  0
 18 19  1  0  0  0  0
 18 20  2  0  0  0  0
 19 31  1  0  0  0  0
 20 21  1  0  0  0  0
 21 22  1  0  0  0  0
 22 32  1  0  0  0  0
M  END
$$$$
