CHEMBL3955563
 OpenBabel04072215373D

 73 76  0  0  0  0  0  0  0  0999 V2000
    2.4062    5.5407    2.6989 C   0  0  0  0  0  0  0  0  0  0  0  0
    2.1989    4.1982    2.4941 O   0  0  0  0  0  0  0  0  0  0  0  0
    3.0926    3.2990    2.0100 C   0  0  0  0  0  0  0  0  0  0  0  0
    2.6148    2.0046    1.8000 C   0  0  0  0  0  0  0  0  0  0  0  0
    3.4367    1.0051    1.2981 C   0  0  0  0  0  0  0  0  0  0  0  0
    2.8879   -0.2233    1.0858 O   0  0  0  0  0  0  0  0  0  0  0  0
    3.4912   -1.2984    0.4641 C   0  0  0  0  0  0  0  0  0  0  0  0
    4.7766    1.3126    1.0035 C   0  0  0  0  0  0  0  0  0  0  0  0
    5.3029    2.6246    1.1634 C   0  0  0  0  0  0  0  0  0  0  0  0
    6.6176    2.9552    0.6332 N   0  0  0  0  0  0  0  0  0  0  0  0
    7.0816    2.1961   -0.6015 C   0  0  0  0  0  0  0  0  0  0  0  0
    6.0290    1.9774   -1.7375 C   0  0  0  0  0  0  0  0  0  0  0  0
    6.5357    1.2335   -3.0172 C   0  0  0  0  0  0  0  0  0  0  0  0
    5.4123    0.9526   -3.9703 N   0  0  0  0  0  0  0  0  0  0  0  0
    4.4311   -0.0318   -3.4722 C   0  0  0  0  0  0  0  0  0  0  0  0
    5.0060   -1.3885   -3.8076 C   0  0  0  0  0  0  0  0  0  0  0  0
    5.4447   -1.1536   -5.2278 C   0  0  0  0  0  0  0  0  0  0  0  0
    5.8821    0.3259   -5.2332 C   0  0  0  0  0  0  0  0  0  0  0  0
    7.6209    3.8402    1.2605 C   0  0  0  0  0  0  0  0  0  0  0  0
    8.4377    4.5024    0.3363 C   0  0  0  0  0  0  0  0  0  0  0  0
    9.6458    5.0138    0.6571 C   0  0  0  0  0  0  0  0  0  0  0  0
   10.0709    5.0260    1.9301 C   0  0  0  0  0  0  0  0  0  0  0  0
   11.3506    5.3757    2.0981 N   0  0  0  0  0  0  0  0  0  0  0  0
   11.8707    5.6020    3.2821 C   0  0  0  0  0  0  0  0  0  0  0  0
   11.0283    5.6857    4.3845 C   0  0  0  0  0  0  0  0  0  0  0  0
   11.5348    6.7528    5.3579 C   0  0  0  0  0  0  0  0  0  0  0  0
   11.0107    7.3014    6.5231 C   0  0  0  0  0  0  0  0  0  0  0  0
   11.6833    8.4466    6.8237 N   0  0  0  0  0  0  0  0  0  0  0  0
   12.6285    8.6376    5.9151 N   0  0  0  0  0  0  0  0  0  0  0  0
   13.4792    9.8406    5.7791 C   0  0  0  0  0  0  0  0  0  0  0  0
   13.3300   10.5131    4.3877 C   0  0  0  0  0  0  0  0  0  0  0  0
   11.9859   10.7850    4.0970 O   0  0  0  0  0  0  0  0  0  0  0  0
   12.6044    7.6232    5.0501 C   0  0  0  0  0  0  0  0  0  0  0  0
    9.7352    5.1203    4.2833 N   0  0  0  0  0  0  0  0  0  0  0  0
    9.2454    4.7106    3.0271 C   0  0  0  0  0  0  0  0  0  0  0  0
    7.9717    4.0257    2.6896 C   0  0  0  0  0  0  0  0  0  0  0  0
    4.4441    3.6156    1.6921 C   0  0  0  0  0  0  0  0  0  0  0  0
    0.3098   -0.6000   -2.5130 Cl  0  0  0  0  0  0  0  0  0  0  0  0
    1.4961    5.9702    3.1694 H   0  0  0  0  0  0  0  0  0  0  0  0
    2.5789    6.0534    1.7297 H   0  0  0  0  0  0  0  0  0  0  0  0
    3.2634    5.6902    3.3854 H   0  0  0  0  0  0  0  0  0  0  0  0
    1.5762    1.7759    2.0148 H   0  0  0  0  0  0  0  0  0  0  0  0
    2.7821   -2.1525    0.4379 H   0  0  0  0  0  0  0  0  0  0  0  0
    4.4043   -1.6034    1.0122 H   0  0  0  0  0  0  0  0  0  0  0  0
    3.7461   -1.0463   -0.5811 H   0  0  0  0  0  0  0  0  0  0  0  0
    5.4058    0.5293    0.6070 H   0  0  0  0  0  0  0  0  0  0  0  0
    7.5645    1.2499   -0.2866 H   0  0  0  0  0  0  0  0  0  0  0  0
    7.9035    2.6771   -1.1455 H   0  0  0  0  0  0  0  0  0  0  0  0
    5.5855    2.9441   -2.0445 H   0  0  0  0  0  0  0  0  0  0  0  0
    5.2470    1.3638   -1.3332 H   0  0  0  0  0  0  0  0  0  0  0  0
    7.0730    0.2958   -2.7518 H   0  0  0  0  0  0  0  0  0  0  0  0
    7.2811    1.8916   -3.5224 H   0  0  0  0  0  0  0  0  0  0  0  0
    3.4803    0.1190   -4.0313 H   0  0  0  0  0  0  0  0  0  0  0  0
    4.1640    0.0494   -2.4151 H   0  0  0  0  0  0  0  0  0  0  0  0
    4.2919   -2.2327   -3.6846 H   0  0  0  0  0  0  0  0  0  0  0  0
    5.8925   -1.5716   -3.1660 H   0  0  0  0  0  0  0  0  0  0  0  0
    4.5346   -1.2503   -5.8641 H   0  0  0  0  0  0  0  0  0  0  0  0
    6.2053   -1.8799   -5.5885 H   0  0  0  0  0  0  0  0  0  0  0  0
    5.3712    0.8175   -6.0930 H   0  0  0  0  0  0  0  0  0  0  0  0
    6.9755    0.4359   -5.3926 H   0  0  0  0  0  0  0  0  0  0  0  0
    8.1945    4.5726   -0.7052 H   0  0  0  0  0  0  0  0  0  0  0  0
   10.2733    5.3938   -0.1258 H   0  0  0  0  0  0  0  0  0  0  0  0
   12.8908    5.9178    3.2596 H   0  0  0  0  0  0  0  0  0  0  0  0
   10.1495    6.9566    7.0699 H   0  0  0  0  0  0  0  0  0  0  0  0
   14.5557    9.5873    5.9079 H   0  0  0  0  0  0  0  0  0  0  0  0
   13.1966   10.5839    6.5557 H   0  0  0  0  0  0  0  0  0  0  0  0
   13.7836    9.8869    3.5792 H   0  0  0  0  0  0  0  0  0  0  0  0
   13.8969   11.4715    4.3547 H   0  0  0  0  0  0  0  0  0  0  0  0
   11.6615   10.0461    3.5151 H   0  0  0  0  0  0  0  0  0  0  0  0
   13.2667    7.6392    4.2053 H   0  0  0  0  0  0  0  0  0  0  0  0
    7.3533    3.6099    3.4804 H   0  0  0  0  0  0  0  0  0  0  0  0
    4.8013    4.6304    1.7934 H   0  0  0  0  0  0  0  0  0  0  0  0
    1.2383   -1.0620   -1.6109 H   0  0  0  0  0  0  0  0  0  0  0  0
  1  2  1  0  0  0  0
  1 39  1  0  0  0  0
  1 40  1  0  0  0  0
  1 41  1  0  0  0  0
  2  3  1  0  0  0  0
  3  4  1  0  0  0  0
  3 37  2  0  0  0  0
  4  5  2  0  0  0  0
  4 42  1  0  0  0  0
  5  6  1  0  0  0  0
  5  8  1  0  0  0  0
  6  7  1  0  0  0  0
  7 43  1  0  0  0  0
  7 44  1  0  0  0  0
  7 45  1  0  0  0  0
  8  9  2  0  0  0  0
  8 46  1  0  0  0  0
  9 10  1  0  0  0  0
  9 37  1  0  0  0  0
 10 11  1  0  0  0  0
 10 19  1  0  0  0  0
 11 12  1  0  0  0  0
 11 47  1  0  0  0  0
 11 48  1  0  0  0  0
 12 13  1  0  0  0  0
 12 49  1  0  0  0  0
 12 50  1  0  0  0  0
 13 14  1  0  0  0  0
 13 51  1  0  0  0  0
 13 52  1  0  0  0  0
 14 15  1  0  0  0  0
 14 18  1  0  0  0  0
 15 16  1  0  0  0  0
 15 53  1  0  0  0  0
 15 54  1  0  0  0  0
 16 17  1  0  0  0  0
 16 55  1  0  0  0  0
 16 56  1  0  0  0  0
 17 18  1  0  0  0  0
 17 57  1  0  0  0  0
 17 58  1  0  0  0  0
 18 59  1  0  0  0  0
 18 60  1  0  0  0  0
 19 20  1  0  0  0  0
 19 36  2  0  0  0  0
 20 21  2  0  0  0  0
 20 61  1  0  0  0  0
 21 22  1  0  0  0  0
 21 62  1  0  0  0  0
 22 23  1  0  0  0  0
 22 35  2  0  0  0  0
 23 24  2  0  0  0  0
 24 25  1  0  0  0  0
 24 63  1  0  0  0  0
 25 26  1  0  0  0  0
 25 34  2  0  0  0  0
 26 27  1  0  0  0  0
 26 33  2  0  0  0  0
 27 28  2  0  0  0  0
 27 64  1  0  0  0  0
 28 29  1  0  0  0  0
 29 30  1  0  0  0  0
 29 33  1  0  0  0  0
 30 31  1  0  0  0  0
 30 65  1  0  0  0  0
 30 66  1  0  0  0  0
 31 32  1  0  0  0  0
 31 67  1  0  0  0  0
 31 68  1  0  0  0  0
 32 69  1  0  0  0  0
 33 70  1  0  0  0  0
 34 35  1  0  0  0  0
 35 36  1  0  0  0  0
 36 71  1  0  0  0  0
 37 72  1  0  0  0  0
 38 73  1  0  0  0  0
M  END
$$$$
