CHEMBL1242755
 OpenBabel04072215363D

 43 47  0  0  0  0  0  0  0  0999 V2000
    0.9310    0.1768   -0.0934 N   0  0  0  0  0  0  0  0  0  0  0  0
    2.3060    0.0004   -0.1835 C   0  0  0  0  0  0  0  0  0  0  0  0
    3.0225    1.1446   -0.1658 N   0  0  0  0  0  0  0  0  0  0  0  0
    4.3633    1.0735   -0.1610 C   0  0  0  0  0  0  0  0  0  0  0  0
    5.1232   -0.0243   -0.1705 N   0  0  0  0  0  0  0  0  0  0  0  0
    4.3748   -1.1458   -0.2221 C   0  0  0  0  0  0  0  0  0  0  0  0
    2.9873   -1.2282   -0.2371 C   0  0  0  0  0  0  0  0  0  0  0  0
    2.7127   -2.6364   -0.2926 C   0  0  0  0  0  0  0  0  0  0  0  0
    1.4571   -3.3954   -0.2902 C   0  0  0  0  0  0  0  0  0  0  0  0
    1.4860   -4.7337    0.1019 C   0  0  0  0  0  0  0  0  0  0  0  0
    0.4134   -5.5566    0.1412 N   0  0  0  0  0  0  0  0  0  0  0  0
   -0.7854   -5.0146   -0.0450 C   0  0  0  0  0  0  0  0  0  0  0  0
   -1.9041   -5.7881    0.1461 C   0  0  0  0  0  0  0  0  0  0  0  0
   -3.1406   -5.2033    0.3997 C   0  0  0  0  0  0  0  0  0  0  0  0
   -3.3160   -3.8446    0.1653 C   0  0  0  0  0  0  0  0  0  0  0  0
   -2.2458   -3.0933   -0.3241 C   0  0  0  0  0  0  0  0  0  0  0  0
   -0.9535   -3.6492   -0.3566 C   0  0  0  0  0  0  0  0  0  0  0  0
    0.2029   -2.8812   -0.6021 C   0  0  0  0  0  0  0  0  0  0  0  0
    3.8638   -3.3376   -0.2975 N   0  0  0  0  0  0  0  0  0  0  0  0
    4.8411   -2.4226   -0.2199 N   0  0  0  0  0  0  0  0  0  0  0  0
    6.2202   -2.8494   -0.1119 C   0  0  0  0  0  0  0  0  0  0  0  0
    6.7023   -3.7069   -1.2828 C   0  0  0  0  0  0  0  0  0  0  0  0
    7.9075   -4.4748   -0.7427 C   0  0  0  0  0  0  0  0  0  0  0  0
    7.8422   -4.3788    0.7810 C   0  0  0  0  0  0  0  0  0  0  0  0
    6.4993   -3.7373    1.1024 C   0  0  0  0  0  0  0  0  0  0  0  0
    0.7455    1.1527    0.1259 H   0  0  0  0  0  0  0  0  0  0  0  0
    0.5035   -0.4519    0.5755 H   0  0  0  0  0  0  0  0  0  0  0  0
    4.8930    2.0190   -0.1314 H   0  0  0  0  0  0  0  0  0  0  0  0
    2.4097   -5.2033    0.4321 H   0  0  0  0  0  0  0  0  0  0  0  0
   -1.7935   -6.8691    0.1670 H   0  0  0  0  0  0  0  0  0  0  0  0
   -3.9499   -5.8133    0.7907 H   0  0  0  0  0  0  0  0  0  0  0  0
   -4.2833   -3.3862    0.3531 H   0  0  0  0  0  0  0  0  0  0  0  0
   -2.4205   -2.0470   -0.5915 H   0  0  0  0  0  0  0  0  0  0  0  0
    0.0892   -1.8766   -1.0002 H   0  0  0  0  0  0  0  0  0  0  0  0
    6.8483   -1.9524   -0.0465 H   0  0  0  0  0  0  0  0  0  0  0  0
    6.9633   -3.0968   -2.1538 H   0  0  0  0  0  0  0  0  0  0  0  0
    5.9348   -4.4202   -1.6073 H   0  0  0  0  0  0  0  0  0  0  0  0
    8.8440   -4.0396   -1.1081 H   0  0  0  0  0  0  0  0  0  0  0  0
    7.8816   -5.5176   -1.0770 H   0  0  0  0  0  0  0  0  0  0  0  0
    8.6596   -3.7460    1.1464 H   0  0  0  0  0  0  0  0  0  0  0  0
    7.9487   -5.3586    1.2576 H   0  0  0  0  0  0  0  0  0  0  0  0
    6.5309   -3.1662    2.0360 H   0  0  0  0  0  0  0  0  0  0  0  0
    5.7378   -4.5184    1.2201 H   0  0  0  0  0  0  0  0  0  0  0  0
  1  2  1  0  0  0  0
  1 26  1  0  0  0  0
  1 27  1  0  0  0  0
  2  3  1  0  0  0  0
  2  7  2  0  0  0  0
  3  4  2  0  0  0  0
  4  5  1  0  0  0  0
  4 28  1  0  0  0  0
  5  6  2  0  0  0  0
  6  7  1  0  0  0  0
  6 20  1  0  0  0  0
  7  8  1  0  0  0  0
  8  9  1  0  0  0  0
  8 19  2  0  0  0  0
  9 10  1  0  0  0  0
  9 18  2  0  0  0  0
 10 11  2  0  0  0  0
 10 29  1  0  0  0  0
 11 12  1  0  0  0  0
 12 13  1  0  0  0  0
 12 17  2  0  0  0  0
 13 14  2  0  0  0  0
 13 30  1  0  0  0  0
 14 15  1  0  0  0  0
 14 31  1  0  0  0  0
 15 16  2  0  0  0  0
 15 32  1  0  0  0  0
 16 17  1  0  0  0  0
 16 33  1  0  0  0  0
 17 18  1  0  0  0  0
 18 34  1  0  0  0  0
 19 20  1  0  0  0  0
 20 21  1  0  0  0  0
 21 22  1  0  0  0  0
 21 25  1  0  0  0  0
 21 35  1  0  0  0  0
 22 23  1  0  0  0  0
 22 36  1  0  0  0  0
 22 37  1  0  0  0  0
 23 24  1  0  0  0  0
 23 38  1  0  0  0  0
 23 39  1  0  0  0  0
 24 25  1  0  0  0  0
 24 40  1  0  0  0  0
 24 41  1  0  0  0  0
 25 42  1  0  0  0  0
 25 43  1  0  0  0  0
M  END
$$$$
