CHEMBL3967803
 OpenBabel04072215373D

 55 59  0  0  1  0  0  0  0  0999 V2000
    1.2846   -0.4165   -0.5567 O   0  0  0  0  0  0  0  0  0  0  0  0
    2.3401    0.0086   -0.1117 C   0  0  0  0  0  0  0  0  0  0  0  0
    2.8987   -0.3607    1.0939 N   0  0  0  0  0  0  0  0  0  0  0  0
    2.3357   -1.2622    2.0218 C   0  0  0  0  0  0  0  0  0  0  0  0
    1.2417   -2.0803    1.7447 C   0  0  0  0  0  0  0  0  0  0  0  0
    0.6847   -2.8959    2.7397 C   0  0  0  0  0  0  0  0  0  0  0  0
    1.2219   -2.9263    4.0324 C   0  0  0  0  0  0  0  0  0  0  0  0
    0.5303   -3.7396    5.1227 C   0  0  3  0  0  0  0  0  0  0  0  0
    1.4336   -4.8349    5.7227 C   0  0  0  0  0  0  0  0  0  0  0  0
    1.2889   -5.0447    7.1933 N   0  0  0  0  0  0  0  0  0  0  0  0
    1.2637   -3.9417    7.8654 C   0  0  0  0  0  0  0  0  0  0  0  0
    1.6431   -3.8305    9.2745 C   0  0  0  0  0  0  0  0  0  0  0  0
    1.1796   -4.6491   10.2929 C   0  0  0  0  0  0  0  0  0  0  0  0
    1.6630   -4.4310   11.5856 C   0  0  0  0  0  0  0  0  0  0  0  0
    2.6723   -3.4839   11.8165 C   0  0  0  0  0  0  0  0  0  0  0  0
    3.1077   -2.6471   10.7883 C   0  0  0  0  0  0  0  0  0  0  0  0
    2.4960   -2.7598    9.5480 C   0  0  0  0  0  0  0  0  0  0  0  0
    2.5434   -1.6943    8.6323 N   0  0  0  0  0  0  0  0  0  0  0  0
    1.4968   -1.5427    7.7356 C   0  0  0  0  0  0  0  0  0  0  0  0
    1.1397   -0.4250    7.3766 O   0  0  0  0  0  0  0  0  0  0  0  0
    0.9548   -2.7314    7.2852 N   0  0  0  0  0  0  0  0  0  0  0  0
   -0.0063   -2.8105    6.2115 C   0  0  0  0  0  0  0  0  0  0  0  0
    2.3531   -2.1362    4.2893 C   0  0  0  0  0  0  0  0  0  0  0  0
    2.9024   -1.3197    3.2975 C   0  0  0  0  0  0  0  0  0  0  0  0
    3.1225    0.9625   -0.7702 N   0  0  0  0  0  0  0  0  0  0  0  0
    2.7888    1.6543   -1.9550 C   0  0  0  0  0  0  0  0  0  0  0  0
    1.5733    1.5270   -2.6157 C   0  0  0  0  0  0  0  0  0  0  0  0
    1.3180    2.2320   -3.7877 C   0  0  0  0  0  0  0  0  0  0  0  0
    2.2722    3.0956   -4.3264 C   0  0  0  0  0  0  0  0  0  0  0  0
    1.8478    3.8907   -5.7940 Cl  0  0  0  0  0  0  0  0  0  0  0  0
    3.4936    3.2700   -3.6714 C   0  0  0  0  0  0  0  0  0  0  0  0
    4.5745    4.2172   -4.1288 C   0  0  0  0  0  0  0  0  0  0  0  0
    4.3419    4.9092   -5.2730 F   0  0  0  0  0  0  0  0  0  0  0  0
    4.8406    5.1632   -3.1804 F   0  0  0  0  0  0  0  0  0  0  0  0
    5.7588    3.5698   -4.3280 F   0  0  0  0  0  0  0  0  0  0  0  0
    3.7419    2.5344   -2.4871 C   0  0  0  0  0  0  0  0  0  0  0  0
    3.6838    0.1772    1.4185 H   0  0  0  0  0  0  0  0  0  0  0  0
    0.7690   -2.1042    0.7696 H   0  0  0  0  0  0  0  0  0  0  0  0
   -0.1933   -3.4931    2.4917 H   0  0  0  0  0  0  0  0  0  0  0  0
   -0.3354   -4.2416    4.6680 H   0  0  0  0  0  0  0  0  0  0  0  0
    2.4960   -4.6224    5.5309 H   0  0  0  0  0  0  0  0  0  0  0  0
    1.2427   -5.7877    5.2178 H   0  0  0  0  0  0  0  0  0  0  0  0
    0.4122   -5.3920   10.1000 H   0  0  0  0  0  0  0  0  0  0  0  0
    1.2564   -4.9976   12.4204 H   0  0  0  0  0  0  0  0  0  0  0  0
    3.0796   -3.3607   12.8175 H   0  0  0  0  0  0  0  0  0  0  0  0
    3.8452   -1.8755   10.9874 H   0  0  0  0  0  0  0  0  0  0  0  0
    3.0239   -0.8425    8.8880 H   0  0  0  0  0  0  0  0  0  0  0  0
   -0.2913   -1.8201    5.8440 H   0  0  0  0  0  0  0  0  0  0  0  0
   -0.9109   -3.2702    6.6377 H   0  0  0  0  0  0  0  0  0  0  0  0
    2.8071   -2.1229    5.2792 H   0  0  0  0  0  0  0  0  0  0  0  0
    3.7616   -0.7024    3.5538 H   0  0  0  0  0  0  0  0  0  0  0  0
    4.0454    1.1163   -0.3933 H   0  0  0  0  0  0  0  0  0  0  0  0
    0.7775    0.8768   -2.2456 H   0  0  0  0  0  0  0  0  0  0  0  0
    0.3532    2.0929   -4.2851 H   0  0  0  0  0  0  0  0  0  0  0  0
    4.6987    2.6679   -1.9821 H   0  0  0  0  0  0  0  0  0  0  0  0
  1  2  2  0  0  0  0
  2  3  1  0  0  0  0
  2 25  1  0  0  0  0
  3  4  1  0  0  0  0
  3 37  1  0  0  0  0
  4  5  1  0  0  0  0
  4 24  2  0  0  0  0
  5  6  2  0  0  0  0
  5 38  1  0  0  0  0
  6  7  1  0  0  0  0
  6 39  1  0  0  0  0
  7  8  1  0  0  0  0
  7 23  2  0  0  0  0
  8  9  1  0  0  0  0
  8 22  1  0  0  0  0
  8 40  1  0  0  0  0
  9 10  1  0  0  0  0
  9 41  1  0  0  0  0
  9 42  1  0  0  0  0
 10 11  2  0  0  0  0
 11 12  1  0  0  0  0
 11 21  1  0  0  0  0
 12 13  1  0  0  0  0
 12 17  2  0  0  0  0
 13 14  2  0  0  0  0
 13 43  1  0  0  0  0
 14 15  1  0  0  0  0
 14 44  1  0  0  0  0
 15 16  2  0  0  0  0
 15 45  1  0  0  0  0
 16 17  1  0  0  0  0
 16 46  1  0  0  0  0
 17 18  1  0  0  0  0
 18 19  1  0  0  0  0
 18 47  1  0  0  0  0
 19 20  2  0  0  0  0
 19 21  1  0  0  0  0
 21 22  1  0  0  0  0
 22 48  1  0  0  0  0
 22 49  1  0  0  0  0
 23 24  1  0  0  0  0
 23 50  1  0  0  0  0
 24 51  1  0  0  0  0
 25 26  1  0  0  0  0
 25 52  1  0  0  0  0
 26 27  1  0  0  0  0
 26 36  2  0  0  0  0
 27 28  2  0  0  0  0
 27 53  1  0  0  0  0
 28 29  1  0  0  0  0
 28 54  1  0  0  0  0
 29 30  1  0  0  0  0
 29 31  2  0  0  0  0
 31 32  1  0  0  0  0
 31 36  1  0  0  0  0
 32 33  1  0  0  0  0
 32 34  1  0  0  0  0
 32 35  1  0  0  0  0
 36 55  1  0  0  0  0
M  END
$$$$
