CHEMBL258081
 OpenBabel04072215363D

 49 53  0  0  0  0  0  0  0  0999 V2000
    2.4168   -2.3524    3.3144 N   0  0  0  0  0  0  0  0  0  0  0  0
    3.4963   -2.0291    2.5286 C   0  0  0  0  0  0  0  0  0  0  0  0
    4.5830   -1.6039    3.2044 N   0  0  0  0  0  0  0  0  0  0  0  0
    5.6738   -1.2306    2.5173 C   0  0  0  0  0  0  0  0  0  0  0  0
    5.8404   -1.2243    1.1940 N   0  0  0  0  0  0  0  0  0  0  0  0
    4.7518   -1.6790    0.5610 C   0  0  0  0  0  0  0  0  0  0  0  0
    4.6980   -1.7757   -0.7917 O   0  0  0  0  0  0  0  0  0  0  0  0
    3.4887   -2.3064   -1.1295 C   0  0  0  0  0  0  0  0  0  0  0  0
    3.3122   -2.5309   -2.5658 C   0  0  0  0  0  0  0  0  0  0  0  0
    3.8157   -1.6420   -3.5222 C   0  0  0  0  0  0  0  0  0  0  0  0
    3.5869   -1.8700   -4.8813 C   0  0  0  0  0  0  0  0  0  0  0  0
    2.8514   -2.9839   -5.2494 C   0  0  0  0  0  0  0  0  0  0  0  0
    2.3566   -3.8732   -4.3660 N   0  0  0  0  0  0  0  0  0  0  0  0
    2.6137   -3.6334   -3.0557 C   0  0  0  0  0  0  0  0  0  0  0  0
    2.7312   -2.5222    0.0231 C   0  0  0  0  0  0  0  0  0  0  0  0
    1.3750   -3.0602    0.0174 C   0  0  0  0  0  0  0  0  0  0  0  0
    0.9738   -4.0194    0.9579 C   0  0  0  0  0  0  0  0  0  0  0  0
   -0.3465   -4.4867    0.9908 C   0  0  0  0  0  0  0  0  0  0  0  0
   -1.2387   -4.0872    0.0022 C   0  0  0  0  0  0  0  0  0  0  0  0
   -2.5884   -4.5213    0.0062 N   0  0  0  0  0  0  0  0  0  0  0  0
   -3.7521   -3.5256    0.7373 S   0  0  0  0  0  0  0  0  0  0  0  0
   -5.0103   -4.2327    0.6363 O   0  0  0  0  0  0  0  0  0  0  0  0
   -3.2338   -3.0963    2.0184 O   0  0  0  0  0  0  0  0  0  0  0  0
   -3.8253   -2.1383   -0.3613 C   0  0  0  0  0  0  0  0  0  0  0  0
   -4.1725   -2.3432   -1.7015 C   0  0  0  0  0  0  0  0  0  0  0  0
   -4.0971   -1.2773   -2.5984 C   0  0  0  0  0  0  0  0  0  0  0  0
   -3.7022   -0.0146   -2.1513 C   0  0  0  0  0  0  0  0  0  0  0  0
   -3.3864    0.1905   -0.8065 C   0  0  0  0  0  0  0  0  0  0  0  0
   -3.4460   -0.8725    0.0952 C   0  0  0  0  0  0  0  0  0  0  0  0
   -0.8270   -3.1984   -0.9848 C   0  0  0  0  0  0  0  0  0  0  0  0
    0.4480   -2.6434   -0.9445 C   0  0  0  0  0  0  0  0  0  0  0  0
    3.5593   -2.1108    1.1274 C   0  0  0  0  0  0  0  0  0  0  0  0
    2.6007   -2.3952    4.3076 H   0  0  0  0  0  0  0  0  0  0  0  0
    1.5522   -2.7109    2.9518 H   0  0  0  0  0  0  0  0  0  0  0  0
    6.5183   -0.8970    3.1122 H   0  0  0  0  0  0  0  0  0  0  0  0
    4.3802   -0.7626   -3.2193 H   0  0  0  0  0  0  0  0  0  0  0  0
    3.9707   -1.1915   -5.6355 H   0  0  0  0  0  0  0  0  0  0  0  0
    2.6370   -3.1990   -6.2926 H   0  0  0  0  0  0  0  0  0  0  0  0
    2.2082   -4.3879   -2.3871 H   0  0  0  0  0  0  0  0  0  0  0  0
    1.6818   -4.4112    1.6856 H   0  0  0  0  0  0  0  0  0  0  0  0
   -0.6592   -5.1557    1.7878 H   0  0  0  0  0  0  0  0  0  0  0  0
   -2.7929   -5.5143    0.1106 H   0  0  0  0  0  0  0  0  0  0  0  0
   -4.4528   -3.3325   -2.0554 H   0  0  0  0  0  0  0  0  0  0  0  0
   -4.3300   -1.4322   -3.6493 H   0  0  0  0  0  0  0  0  0  0  0  0
   -3.6369    0.8130   -2.8540 H   0  0  0  0  0  0  0  0  0  0  0  0
   -3.0798    1.1763   -0.4644 H   0  0  0  0  0  0  0  0  0  0  0  0
   -3.1691   -0.7126    1.1341 H   0  0  0  0  0  0  0  0  0  0  0  0
   -1.4888   -2.9225   -1.7990 H   0  0  0  0  0  0  0  0  0  0  0  0
    0.7028   -1.9059   -1.7029 H   0  0  0  0  0  0  0  0  0  0  0  0
  1  2  1  0  0  0  0
  1 33  1  0  0  0  0
  1 34  1  0  0  0  0
  2  3  1  0  0  0  0
  2 32  2  0  0  0  0
  3  4  2  0  0  0  0
  4  5  1  0  0  0  0
  4 35  1  0  0  0  0
  5  6  2  0  0  0  0
  6  7  1  0  0  0  0
  6 32  1  0  0  0  0
  7  8  1  0  0  0  0
  8  9  1  0  0  0  0
  8 15  2  0  0  0  0
  9 10  1  0  0  0  0
  9 14  2  0  0  0  0
 10 11  2  0  0  0  0
 10 36  1  0  0  0  0
 11 12  1  0  0  0  0
 11 37  1  0  0  0  0
 12 13  2  0  0  0  0
 12 38  1  0  0  0  0
 13 14  1  0  0  0  0
 14 39  1  0  0  0  0
 15 16  1  0  0  0  0
 15 32  1  0  0  0  0
 16 17  1  0  0  0  0
 16 31  2  0  0  0  0
 17 18  2  0  0  0  0
 17 40  1  0  0  0  0
 18 19  1  0  0  0  0
 18 41  1  0  0  0  0
 19 20  1  0  0  0  0
 19 30  2  0  0  0  0
 20 21  1  0  0  0  0
 20 42  1  0  0  0  0
 21 22  2  0  0  0  0
 21 23  2  0  0  0  0
 21 24  1  0  0  0  0
 24 25  1  0  0  0  0
 24 29  2  0  0  0  0
 25 26  2  0  0  0  0
 25 43  1  0  0  0  0
 26 27  1  0  0  0  0
 26 44  1  0  0  0  0
 27 28  2  0  0  0  0
 27 45  1  0  0  0  0
 28 29  1  0  0  0  0
 28 46  1  0  0  0  0
 29 47  1  0  0  0  0
 30 31  1  0  0  0  0
 30 48  1  0  0  0  0
 31 49  1  0  0  0  0
M  END
$$$$
