CHEMBL2430254
 OpenBabel04072215363D

 62 65  0  0  0  0  0  0  0  0999 V2000
    4.7664   -2.5378    0.2905 C   0  0  0  0  0  0  0  0  0  0  0  0
    4.3438   -1.2926    1.0608 C   0  0  0  0  0  0  0  0  0  0  0  0
    4.7139   -0.0068    0.4404 N   0  0  0  0  0  0  0  0  0  0  0  0
    4.2316    0.1459   -0.9452 C   0  0  0  0  0  0  0  0  0  0  0  0
    2.7172    0.2207   -1.1348 C   0  0  0  0  0  0  0  0  0  0  0  0
    4.2735    1.1337    1.2803 C   0  0  0  0  0  0  0  0  0  0  0  0
    4.8583    1.1462    2.6988 C   0  0  0  0  0  0  0  0  0  0  0  0
    6.3008    1.1970    2.7067 N   0  0  0  0  0  0  0  0  0  0  0  0
    6.9553    1.2059    3.9121 C   0  0  0  0  0  0  0  0  0  0  0  0
    6.3428    1.2056    4.9781 O   0  0  0  0  0  0  0  0  0  0  0  0
    8.4167    1.1429    3.8523 C   0  0  0  0  0  0  0  0  0  0  0  0
    9.2986    1.6559    2.9069 C   0  0  0  0  0  0  0  0  0  0  0  0
    9.0552    2.4426    1.6661 C   0  0  0  0  0  0  0  0  0  0  0  0
   10.5925    1.3767    3.3319 N   0  0  0  0  0  0  0  0  0  0  0  0
   10.5557    0.7160    4.5314 C   0  0  0  0  0  0  0  0  0  0  0  0
    9.2244    0.5582    4.8663 C   0  0  0  0  0  0  0  0  0  0  0  0
    8.7132   -0.1037    6.0965 C   0  0  0  0  0  0  0  0  0  0  0  0
    9.7762   -0.6668    7.0106 C   0  0  0  0  0  0  0  0  0  0  0  0
   11.2320   -0.4475    6.6228 C   0  0  0  0  0  0  0  0  0  0  0  0
   11.6469    0.2651    5.3358 C   0  0  0  0  0  0  0  0  0  0  0  0
   12.9796    0.4018    5.0992 C   0  0  0  0  0  0  0  0  0  0  0  0
   13.7066    1.0531    3.9366 C   0  0  0  0  0  0  0  0  0  0  0  0
   13.2300    1.5989    2.9578 O   0  0  0  0  0  0  0  0  0  0  0  0
   15.0667    0.9002    4.2076 N   0  0  0  0  0  0  0  0  0  0  0  0
   15.2853    0.2253    5.4047 C   0  0  0  0  0  0  0  0  0  0  0  0
   16.5075   -0.1091    5.9796 C   0  0  0  0  0  0  0  0  0  0  0  0
   16.5092   -0.8029    7.2025 C   0  0  0  0  0  0  0  0  0  0  0  0
   15.2914   -1.1338    7.8156 C   0  0  0  0  0  0  0  0  0  0  0  0
   15.2420   -1.8646    9.0931 N   0  3  0  0  0  0  0  0  0  0  0  0
   16.3220   -2.1885    9.6075 O   0  0  0  0  0  0  0  0  0  0  0  0
   14.1341   -2.1248    9.5916 O   0  5  0  0  0  0  0  0  0  0  0  0
   14.0856   -0.7800    7.2143 C   0  0  0  0  0  0  0  0  0  0  0  0
   14.0680   -0.1032    5.9975 C   0  0  0  0  0  0  0  0  0  0  0  0
    4.6817   -3.4134    0.9442 H   0  0  0  0  0  0  0  0  0  0  0  0
    5.8082   -2.4708   -0.0384 H   0  0  0  0  0  0  0  0  0  0  0  0
    4.1271   -2.7129   -0.5793 H   0  0  0  0  0  0  0  0  0  0  0  0
    4.8493   -1.3756    2.0281 H   0  0  0  0  0  0  0  0  0  0  0  0
    3.2671   -1.3390    1.2617 H   0  0  0  0  0  0  0  0  0  0  0  0
    4.6283   -0.6671   -1.5636 H   0  0  0  0  0  0  0  0  0  0  0  0
    4.6760    1.0542   -1.3741 H   0  0  0  0  0  0  0  0  0  0  0  0
    2.1881   -0.5526   -0.5713 H   0  0  0  0  0  0  0  0  0  0  0  0
    2.4668    0.0836   -2.1919 H   0  0  0  0  0  0  0  0  0  0  0  0
    2.3279    1.1976   -0.8293 H   0  0  0  0  0  0  0  0  0  0  0  0
    3.1812    1.1500    1.3695 H   0  0  0  0  0  0  0  0  0  0  0  0
    4.5779    2.0684    0.7913 H   0  0  0  0  0  0  0  0  0  0  0  0
    4.5392    0.2721    3.2778 H   0  0  0  0  0  0  0  0  0  0  0  0
    4.4893    2.0224    3.2442 H   0  0  0  0  0  0  0  0  0  0  0  0
    6.8003    0.8484    1.8975 H   0  0  0  0  0  0  0  0  0  0  0  0
    7.9962    2.6675    1.5213 H   0  0  0  0  0  0  0  0  0  0  0  0
    9.4015    1.8908    0.7875 H   0  0  0  0  0  0  0  0  0  0  0  0
    9.5762    3.4034    1.7117 H   0  0  0  0  0  0  0  0  0  0  0  0
   11.4398    1.6535    2.8409 H   0  0  0  0  0  0  0  0  0  0  0  0
    8.0372   -0.9189    5.8099 H   0  0  0  0  0  0  0  0  0  0  0  0
    8.1197    0.6144    6.6735 H   0  0  0  0  0  0  0  0  0  0  0  0
    9.6109   -1.7452    7.1357 H   0  0  0  0  0  0  0  0  0  0  0  0
    9.6279   -0.2613    8.0210 H   0  0  0  0  0  0  0  0  0  0  0  0
   11.6552   -1.4577    6.5729 H   0  0  0  0  0  0  0  0  0  0  0  0
   11.6516    0.1356    7.4522 H   0  0  0  0  0  0  0  0  0  0  0  0
   15.7858    1.2461    3.5886 H   0  0  0  0  0  0  0  0  0  0  0  0
   17.4485    0.1528    5.5062 H   0  0  0  0  0  0  0  0  0  0  0  0
   17.4531   -1.0785    7.6684 H   0  0  0  0  0  0  0  0  0  0  0  0
   13.1901   -1.0629    7.7433 H   0  0  0  0  0  0  0  0  0  0  0  0
  1  2  1  0  0  0  0
  1 34  1  0  0  0  0
  1 35  1  0  0  0  0
  1 36  1  0  0  0  0
  2  3  1  0  0  0  0
  2 37  1  0  0  0  0
  2 38  1  0  0  0  0
  3  4  1  0  0  0  0
  3  6  1  0  0  0  0
  4  5  1  0  0  0  0
  4 39  1  0  0  0  0
  4 40  1  0  0  0  0
  5 41  1  0  0  0  0
  5 42  1  0  0  0  0
  5 43  1  0  0  0  0
  6  7  1  0  0  0  0
  6 44  1  0  0  0  0
  6 45  1  0  0  0  0
  7  8  1  0  0  0  0
  7 46  1  0  0  0  0
  7 47  1  0  0  0  0
  8  9  1  0  0  0  0
  8 48  1  0  0  0  0
  9 10  2  0  0  0  0
  9 11  1  0  0  0  0
 11 12  2  0  0  0  0
 11 16  1  0  0  0  0
 12 13  1  0  0  0  0
 12 14  1  0  0  0  0
 13 49  1  0  0  0  0
 13 50  1  0  0  0  0
 13 51  1  0  0  0  0
 14 15  1  0  0  0  0
 14 52  1  0  0  0  0
 15 16  2  0  0  0  0
 15 20  1  0  0  0  0
 16 17  1  0  0  0  0
 17 18  1  0  0  0  0
 17 53  1  0  0  0  0
 17 54  1  0  0  0  0
 18 19  1  0  0  0  0
 18 55  1  0  0  0  0
 18 56  1  0  0  0  0
 19 20  1  0  0  0  0
 19 57  1  0  0  0  0
 19 58  1  0  0  0  0
 20 21  2  0  0  0  0
 21 22  1  0  0  0  0
 21 33  1  0  0  0  0
 22 23  2  0  0  0  0
 22 24  1  0  0  0  0
 24 25  1  0  0  0  0
 24 59  1  0  0  0  0
 25 26  1  0  0  0  0
 25 33  2  0  0  0  0
 26 27  2  0  0  0  0
 26 60  1  0  0  0  0
 27 28  1  0  0  0  0
 27 61  1  0  0  0  0
 28 29  1  0  0  0  0
 28 32  2  0  0  0  0
 29 30  2  0  0  0  0
 29 31  1  0  0  0  0
 32 33  1  0  0  0  0
 32 62  1  0  0  0  0
M  CHG  2  29   1  31  -1
M  END
$$$$
