CHEMBL3671517
 OpenBabel04072215373D

 54 56  0  0  0  0  0  0  0  0999 V2000
    3.5018   -2.8646   -2.7160 C   0  0  0  0  0  0  0  0  0  0  0  0
    3.5530   -1.5297   -2.6323 C   0  0  0  0  0  0  0  0  0  0  0  0
    3.7485   -0.8883   -1.3040 C   0  0  0  0  0  0  0  0  0  0  0  0
    3.3256   -1.3910   -0.2675 O   0  0  0  0  0  0  0  0  0  0  0  0
    4.4707    0.2833   -1.2718 N   0  0  0  0  0  0  0  0  0  0  0  0
    5.3006    0.6980   -2.3304 C   0  0  0  0  0  0  0  0  0  0  0  0
    6.4093   -0.0922   -2.6415 C   0  0  0  0  0  0  0  0  0  0  0  0
    7.0937    0.0863   -3.8617 C   0  0  0  0  0  0  0  0  0  0  0  0
    8.1079   -0.7562   -4.3374 C   0  0  0  0  0  0  0  0  0  0  0  0
    8.4609   -1.9260   -3.6128 N   0  0  0  0  0  0  0  0  0  0  0  0
    9.1848   -3.0031   -4.1774 C   0  0  0  0  0  0  0  0  0  0  0  0
    8.8575   -3.5044   -5.4460 C   0  0  0  0  0  0  0  0  0  0  0  0
    9.6495   -4.4769   -6.0584 C   0  0  0  0  0  0  0  0  0  0  0  0
   10.7650   -4.9754   -5.3897 C   0  0  0  0  0  0  0  0  0  0  0  0
   11.8898   -6.2197   -6.2598 Br  0  0  0  0  0  0  0  0  0  0  0  0
   11.0698   -4.5438   -4.1013 C   0  0  0  0  0  0  0  0  0  0  0  0
   10.2721   -3.5707   -3.5039 C   0  0  0  0  0  0  0  0  0  0  0  0
   10.5819   -3.1398   -2.2705 F   0  0  0  0  0  0  0  0  0  0  0  0
    8.7133   -0.5336   -5.5195 N   0  0  0  0  0  0  0  0  0  0  0  0
    8.2867    0.5040   -6.2412 C   0  0  0  0  0  0  0  0  0  0  0  0
    7.2978    1.3355   -5.9056 N   0  0  0  0  0  0  0  0  0  0  0  0
    6.7013    1.1195   -4.7300 C   0  0  0  0  0  0  0  0  0  0  0  0
    5.6293    1.9283   -4.3698 C   0  0  0  0  0  0  0  0  0  0  0  0
    4.9297    1.7529   -3.1713 C   0  0  0  0  0  0  0  0  0  0  0  0
    3.8869    2.6261   -2.9783 O   0  0  0  0  0  0  0  0  0  0  0  0
    3.6311    2.9751   -1.6128 C   0  0  0  0  0  0  0  0  0  0  0  0
    3.1184    4.4140   -1.5084 C   0  0  0  0  0  0  0  0  0  0  0  0
    2.9530    4.8215   -0.1211 N   0  0  0  0  0  0  0  0  0  0  0  0
    4.0434    5.2074    0.6365 C   0  0  0  0  0  0  0  0  0  0  0  0
    5.1583    5.4046    0.1576 O   0  0  0  0  0  0  0  0  0  0  0  0
    3.7349    5.4000    2.1207 C   0  0  0  0  0  0  0  0  0  0  0  0
    3.2896    4.1705    2.6889 O   0  0  0  0  0  0  0  0  0  0  0  0
    3.1316    4.2757    4.0991 C   0  0  0  0  0  0  0  0  0  0  0  0
    3.4278   -3.3588   -3.6782 H   0  0  0  0  0  0  0  0  0  0  0  0
    3.5542   -3.4883   -1.8279 H   0  0  0  0  0  0  0  0  0  0  0  0
    3.5216   -0.9096   -3.5196 H   0  0  0  0  0  0  0  0  0  0  0  0
    4.8263    0.4329   -0.3325 H   0  0  0  0  0  0  0  0  0  0  0  0
    6.6863   -0.9049   -1.9736 H   0  0  0  0  0  0  0  0  0  0  0  0
    8.7911   -1.6934   -2.6800 H   0  0  0  0  0  0  0  0  0  0  0  0
    7.9976   -3.1072   -5.9808 H   0  0  0  0  0  0  0  0  0  0  0  0
    9.3971   -4.8128   -7.0607 H   0  0  0  0  0  0  0  0  0  0  0  0
   11.9296   -4.9302   -3.5652 H   0  0  0  0  0  0  0  0  0  0  0  0
    8.7792    0.6747   -7.1930 H   0  0  0  0  0  0  0  0  0  0  0  0
    5.3068    2.7040   -5.0624 H   0  0  0  0  0  0  0  0  0  0  0  0
    4.5364    2.8899   -0.9998 H   0  0  0  0  0  0  0  0  0  0  0  0
    2.8604    2.3029   -1.2176 H   0  0  0  0  0  0  0  0  0  0  0  0
    2.1495    4.5151   -2.0080 H   0  0  0  0  0  0  0  0  0  0  0  0
    3.8142    5.0976   -2.0080 H   0  0  0  0  0  0  0  0  0  0  0  0
    2.1407    4.4908    0.3895 H   0  0  0  0  0  0  0  0  0  0  0  0
    2.9548    6.1623    2.2274 H   0  0  0  0  0  0  0  0  0  0  0  0
    4.6479    5.7435    2.6206 H   0  0  0  0  0  0  0  0  0  0  0  0
    2.8679    3.2899    4.4927 H   0  0  0  0  0  0  0  0  0  0  0  0
    2.3245    4.9749    4.3360 H   0  0  0  0  0  0  0  0  0  0  0  0
    4.0624    4.6001    4.5759 H   0  0  0  0  0  0  0  0  0  0  0  0
  1  2  2  0  0  0  0
  1 34  1  0  0  0  0
  1 35  1  0  0  0  0
  2  3  1  0  0  0  0
  2 36  1  0  0  0  0
  3  4  2  0  0  0  0
  3  5  1  0  0  0  0
  5  6  1  0  0  0  0
  5 37  1  0  0  0  0
  6  7  1  0  0  0  0
  6 24  2  0  0  0  0
  7  8  2  0  0  0  0
  7 38  1  0  0  0  0
  8  9  1  0  0  0  0
  8 22  1  0  0  0  0
  9 10  1  0  0  0  0
  9 19  2  0  0  0  0
 10 11  1  0  0  0  0
 10 39  1  0  0  0  0
 11 12  1  0  0  0  0
 11 17  2  0  0  0  0
 12 13  2  0  0  0  0
 12 40  1  0  0  0  0
 13 14  1  0  0  0  0
 13 41  1  0  0  0  0
 14 15  1  0  0  0  0
 14 16  2  0  0  0  0
 16 17  1  0  0  0  0
 16 42  1  0  0  0  0
 17 18  1  0  0  0  0
 19 20  1  0  0  0  0
 20 21  2  0  0  0  0
 20 43  1  0  0  0  0
 21 22  1  0  0  0  0
 22 23  2  0  0  0  0
 23 24  1  0  0  0  0
 23 44  1  0  0  0  0
 24 25  1  0  0  0  0
 25 26  1  0  0  0  0
 26 27  1  0  0  0  0
 26 45  1  0  0  0  0
 26 46  1  0  0  0  0
 27 28  1  0  0  0  0
 27 47  1  0  0  0  0
 27 48  1  0  0  0  0
 28 29  1  0  0  0  0
 28 49  1  0  0  0  0
 29 30  2  0  0  0  0
 29 31  1  0  0  0  0
 31 32  1  0  0  0  0
 31 50  1  0  0  0  0
 31 51  1  0  0  0  0
 32 33  1  0  0  0  0
 33 52  1  0  0  0  0
 33 53  1  0  0  0  0
 33 54  1  0  0  0  0
M  END
$$$$
