CHEMBL3902110
 OpenBabel04072215373D

 52 55  0  0  0  0  0  0  0  0999 V2000
    2.1335    1.4235   -0.7547 C   0  0  0  0  0  0  0  0  0  0  0  0
    3.4432    0.8595   -0.7157 O   0  0  0  0  0  0  0  0  0  0  0  0
    3.5444   -0.4224   -1.1870 C   0  0  0  0  0  0  0  0  0  0  0  0
    2.7441   -0.9628   -2.1835 C   0  0  0  0  0  0  0  0  0  0  0  0
    2.9559   -2.2783   -2.5724 C   0  0  0  0  0  0  0  0  0  0  0  0
    2.1816   -2.8059   -3.5305 F   0  0  0  0  0  0  0  0  0  0  0  0
    3.9419   -3.0699   -1.9828 C   0  0  0  0  0  0  0  0  0  0  0  0
    4.7725   -2.5553   -0.9800 C   0  0  0  0  0  0  0  0  0  0  0  0
    5.7476   -3.3418   -0.3132 N   0  0  0  0  0  0  0  0  0  0  0  0
    6.4626   -4.3922   -1.0823 C   0  0  0  0  0  0  0  0  0  0  0  0
    6.5021   -5.7662   -0.3895 C   0  0  0  0  0  0  0  0  0  0  0  0
    5.1414   -6.4228   -0.2185 C   0  0  0  0  0  0  0  0  0  0  0  0
    5.2937   -7.6618    0.4715 O   0  0  0  0  0  0  0  0  0  0  0  0
    6.1527   -3.1725    1.0361 C   0  0  0  0  0  0  0  0  0  0  0  0
    7.4789   -3.3406    1.4485 C   0  0  0  0  0  0  0  0  0  0  0  0
    7.8131   -3.3411    2.8027 C   0  0  0  0  0  0  0  0  0  0  0  0
    6.8541   -3.1250    3.7745 C   0  0  0  0  0  0  0  0  0  0  0  0
    7.2171   -3.1693    5.0658 N   0  0  0  0  0  0  0  0  0  0  0  0
    6.2348   -2.9333    5.9657 C   0  0  0  0  0  0  0  0  0  0  0  0
    4.9274   -2.6447    5.6027 C   0  0  0  0  0  0  0  0  0  0  0  0
    3.9175   -2.3329    6.5950 C   0  0  0  0  0  0  0  0  0  0  0  0
    4.0046   -2.2303    8.0030 C   0  0  0  0  0  0  0  0  0  0  0  0
    2.8466   -1.8878    8.5714 N   0  0  0  0  0  0  0  0  0  0  0  0
    2.0092   -1.7649    7.5263 N   0  0  0  0  0  0  0  0  0  0  0  0
    0.6393   -1.3640    7.7429 C   0  0  0  0  0  0  0  0  0  0  0  0
    2.5976   -2.0293    6.3244 C   0  0  0  0  0  0  0  0  0  0  0  0
    4.5578   -2.6173    4.2995 N   0  0  0  0  0  0  0  0  0  0  0  0
    5.5186   -2.8661    3.3842 C   0  0  0  0  0  0  0  0  0  0  0  0
    5.1995   -2.8986    2.0323 C   0  0  0  0  0  0  0  0  0  0  0  0
    4.5631   -1.2045   -0.6196 C   0  0  0  0  0  0  0  0  0  0  0  0
    2.1630    2.3821   -0.2271 H   0  0  0  0  0  0  0  0  0  0  0  0
    1.4118    0.7798   -0.2394 H   0  0  0  0  0  0  0  0  0  0  0  0
    1.8142    1.6259   -1.7819 H   0  0  0  0  0  0  0  0  0  0  0  0
    1.9673   -0.3961   -2.6811 H   0  0  0  0  0  0  0  0  0  0  0  0
    4.0043   -4.1011   -2.3091 H   0  0  0  0  0  0  0  0  0  0  0  0
    7.4926   -4.0574   -1.2612 H   0  0  0  0  0  0  0  0  0  0  0  0
    6.0531   -4.5319   -2.0880 H   0  0  0  0  0  0  0  0  0  0  0  0
    6.9914   -5.7242    0.5892 H   0  0  0  0  0  0  0  0  0  0  0  0
    7.1432   -6.4336   -0.9796 H   0  0  0  0  0  0  0  0  0  0  0  0
    4.6757   -6.6271   -1.1867 H   0  0  0  0  0  0  0  0  0  0  0  0
    4.4623   -5.8018    0.3719 H   0  0  0  0  0  0  0  0  0  0  0  0
    5.9933   -8.1745    0.0327 H   0  0  0  0  0  0  0  0  0  0  0  0
    8.2751   -3.5106    0.7294 H   0  0  0  0  0  0  0  0  0  0  0  0
    8.8395   -3.5320    3.1044 H   0  0  0  0  0  0  0  0  0  0  0  0
    6.5531   -2.9807    6.9998 H   0  0  0  0  0  0  0  0  0  0  0  0
    4.8628   -2.3824    8.6445 H   0  0  0  0  0  0  0  0  0  0  0  0
    0.4494   -1.2844    8.8162 H   0  0  0  0  0  0  0  0  0  0  0  0
   -0.0163   -2.1195    7.2987 H   0  0  0  0  0  0  0  0  0  0  0  0
    0.4902   -0.3932    7.2640 H   0  0  0  0  0  0  0  0  0  0  0  0
    2.0520   -1.9696    5.3911 H   0  0  0  0  0  0  0  0  0  0  0  0
    4.1556   -2.7546    1.7580 H   0  0  0  0  0  0  0  0  0  0  0  0
    5.2001   -0.7384    0.1305 H   0  0  0  0  0  0  0  0  0  0  0  0
  1  2  1  0  0  0  0
  1 31  1  0  0  0  0
  1 32  1  0  0  0  0
  1 33  1  0  0  0  0
  2  3  1  0  0  0  0
  3  4  1  0  0  0  0
  3 30  2  0  0  0  0
  4  5  2  0  0  0  0
  4 34  1  0  0  0  0
  5  6  1  0  0  0  0
  5  7  1  0  0  0  0
  7  8  2  0  0  0  0
  7 35  1  0  0  0  0
  8  9  1  0  0  0  0
  8 30  1  0  0  0  0
  9 10  1  0  0  0  0
  9 14  1  0  0  0  0
 10 11  1  0  0  0  0
 10 36  1  0  0  0  0
 10 37  1  0  0  0  0
 11 12  1  0  0  0  0
 11 38  1  0  0  0  0
 11 39  1  0  0  0  0
 12 13  1  0  0  0  0
 12 40  1  0  0  0  0
 12 41  1  0  0  0  0
 13 42  1  0  0  0  0
 14 15  1  0  0  0  0
 14 29  2  0  0  0  0
 15 16  2  0  0  0  0
 15 43  1  0  0  0  0
 16 17  1  0  0  0  0
 16 44  1  0  0  0  0
 17 18  1  0  0  0  0
 17 28  2  0  0  0  0
 18 19  2  0  0  0  0
 19 20  1  0  0  0  0
 19 45  1  0  0  0  0
 20 21  1  0  0  0  0
 20 27  2  0  0  0  0
 21 22  1  0  0  0  0
 21 26  2  0  0  0  0
 22 23  2  0  0  0  0
 22 46  1  0  0  0  0
 23 24  1  0  0  0  0
 24 25  1  0  0  0  0
 24 26  1  0  0  0  0
 25 47  1  0  0  0  0
 25 48  1  0  0  0  0
 25 49  1  0  0  0  0
 26 50  1  0  0  0  0
 27 28  1  0  0  0  0
 28 29  1  0  0  0  0
 29 51  1  0  0  0  0
 30 52  1  0  0  0  0
M  END
$$$$
