CHEMBL4795330
 OpenBabel04072215383D

 69 71  0  0  0  0  0  0  0  0999 V2000
    4.7711   -1.6077    1.7828 C   0  0  0  0  0  0  0  0  0  0  0  0
    4.4405   -0.1469    1.4939 C   0  0  0  0  0  0  0  0  0  0  0  0
    4.8683    0.3382    0.1693 N   0  0  0  0  0  0  0  0  0  0  0  0
    4.3540   -0.4746   -0.9522 C   0  0  0  0  0  0  0  0  0  0  0  0
    2.8399   -0.4801   -1.1666 C   0  0  0  0  0  0  0  0  0  0  0  0
    4.5373    1.7711   -0.0143 C   0  0  0  0  0  0  0  0  0  0  0  0
    5.1330    2.7413    1.0281 C   0  0  0  0  0  0  0  0  0  0  0  0
    6.5817    2.7473    1.0853 N   0  0  0  0  0  0  0  0  0  0  0  0
    7.2338    3.5886    1.9618 C   0  0  0  0  0  0  0  0  0  0  0  0
    6.6157    4.3207    2.7338 O   0  0  0  0  0  0  0  0  0  0  0  0
    8.7030    3.5525    1.9389 C   0  0  0  0  0  0  0  0  0  0  0  0
    9.5257    3.2697    0.8562 C   0  0  0  0  0  0  0  0  0  0  0  0
    9.2864    2.9189   -0.5683 C   0  0  0  0  0  0  0  0  0  0  0  0
   10.8224    3.4027    1.2812 N   0  0  0  0  0  0  0  0  0  0  0  0
   10.9016    3.7563    2.6034 C   0  0  0  0  0  0  0  0  0  0  0  0
   12.1812    3.9827    3.2013 C   0  0  0  0  0  0  0  0  0  0  0  0
   13.3336    3.3486    2.8952 C   0  0  0  0  0  0  0  0  0  0  0  0
   13.5369    2.2202    1.9015 C   0  0  0  0  0  0  0  0  0  0  0  0
   12.7230    1.6529    1.1986 O   0  0  0  0  0  0  0  0  0  0  0  0
   14.8901    1.9680    1.8967 N   0  0  0  0  0  0  0  0  0  0  0  0
   15.5630    2.7811    2.7919 C   0  0  0  0  0  0  0  0  0  0  0  0
   16.9214    2.7751    3.0115 C   0  0  0  0  0  0  0  0  0  0  0  0
   17.4142    3.6461    3.9797 C   0  0  0  0  0  0  0  0  0  0  0  0
   16.5523    4.4988    4.7110 C   0  0  0  0  0  0  0  0  0  0  0  0
   17.1824    5.4072    5.7536 C   0  0  0  0  0  0  0  0  0  0  0  0
   16.2957    5.7087    6.9657 C   0  0  0  0  0  0  0  0  0  0  0  0
   16.9642    6.5171    7.9683 N   0  0  0  0  0  0  0  0  0  0  0  0
   16.9150    7.8917    7.9305 C   0  0  0  0  0  0  0  0  0  0  0  0
   17.5613    8.5748    9.1060 C   0  0  0  0  0  0  0  0  0  0  0  0
   16.3766    8.5246    7.0282 O   0  0  0  0  0  0  0  0  0  0  0  0
   15.1671    4.5096    4.4171 C   0  0  0  0  0  0  0  0  0  0  0  0
   14.6749    3.6338    3.4578 C   0  0  0  0  0  0  0  0  0  0  0  0
    9.5910    3.8892    3.0404 C   0  0  0  0  0  0  0  0  0  0  0  0
    9.1364    4.2857    4.4099 C   0  0  0  0  0  0  0  0  0  0  0  0
    4.6480   -1.8059    2.8534 H   0  0  0  0  0  0  0  0  0  0  0  0
    5.8076   -1.8419    1.5196 H   0  0  0  0  0  0  0  0  0  0  0  0
    4.1056   -2.2890    1.2445 H   0  0  0  0  0  0  0  0  0  0  0  0
    4.9651    0.4258    2.2652 H   0  0  0  0  0  0  0  0  0  0  0  0
    3.3678    0.0188    1.6504 H   0  0  0  0  0  0  0  0  0  0  0  0
    4.6964   -1.5098   -0.8401 H   0  0  0  0  0  0  0  0  0  0  0  0
    4.8291   -0.1336   -1.8815 H   0  0  0  0  0  0  0  0  0  0  0  0
    2.2860   -0.6453   -0.2385 H   0  0  0  0  0  0  0  0  0  0  0  0
    2.5649   -1.2859   -1.8563 H   0  0  0  0  0  0  0  0  0  0  0  0
    2.4987    0.4605   -1.6111 H   0  0  0  0  0  0  0  0  0  0  0  0
    3.4485    1.9108   -0.0061 H   0  0  0  0  0  0  0  0  0  0  0  0
    4.8949    2.0872   -1.0026 H   0  0  0  0  0  0  0  0  0  0  0  0
    4.7489    2.5349    2.0326 H   0  0  0  0  0  0  0  0  0  0  0  0
    4.8148    3.7618    0.7832 H   0  0  0  0  0  0  0  0  0  0  0  0
    7.0854    1.9541    0.7064 H   0  0  0  0  0  0  0  0  0  0  0  0
    8.2348    2.9648   -0.8517 H   0  0  0  0  0  0  0  0  0  0  0  0
    9.6563    1.9087   -0.7748 H   0  0  0  0  0  0  0  0  0  0  0  0
    9.8249    3.6154   -1.2211 H   0  0  0  0  0  0  0  0  0  0  0  0
   11.6205    3.1859    0.6976 H   0  0  0  0  0  0  0  0  0  0  0  0
   12.2039    4.7543    3.9700 H   0  0  0  0  0  0  0  0  0  0  0  0
   15.3050    1.2654    1.3046 H   0  0  0  0  0  0  0  0  0  0  0  0
   17.5843    2.1210    2.4565 H   0  0  0  0  0  0  0  0  0  0  0  0
   18.4874    3.6589    4.1689 H   0  0  0  0  0  0  0  0  0  0  0  0
   17.4975    6.3370    5.2648 H   0  0  0  0  0  0  0  0  0  0  0  0
   18.0987    4.9279    6.1265 H   0  0  0  0  0  0  0  0  0  0  0  0
   15.9927    4.7776    7.4573 H   0  0  0  0  0  0  0  0  0  0  0  0
   15.3875    6.2363    6.6570 H   0  0  0  0  0  0  0  0  0  0  0  0
   17.4363    6.0517    8.7324 H   0  0  0  0  0  0  0  0  0  0  0  0
   18.0039    7.8587    9.8034 H   0  0  0  0  0  0  0  0  0  0  0  0
   16.8019    9.1537    9.6397 H   0  0  0  0  0  0  0  0  0  0  0  0
   18.3471    9.2430    8.7445 H   0  0  0  0  0  0  0  0  0  0  0  0
   14.4898    5.1873    4.9254 H   0  0  0  0  0  0  0  0  0  0  0  0
    9.9795    4.4539    5.0864 H   0  0  0  0  0  0  0  0  0  0  0  0
    8.5126    3.4980    4.8457 H   0  0  0  0  0  0  0  0  0  0  0  0
    8.5526    5.2105    4.3687 H   0  0  0  0  0  0  0  0  0  0  0  0
  1  2  1  0  0  0  0
  1 35  1  0  0  0  0
  1 36  1  0  0  0  0
  1 37  1  0  0  0  0
  2  3  1  0  0  0  0
  2 38  1  0  0  0  0
  2 39  1  0  0  0  0
  3  4  1  0  0  0  0
  3  6  1  0  0  0  0
  4  5  1  0  0  0  0
  4 40  1  0  0  0  0
  4 41  1  0  0  0  0
  5 42  1  0  0  0  0
  5 43  1  0  0  0  0
  5 44  1  0  0  0  0
  6  7  1  0  0  0  0
  6 45  1  0  0  0  0
  6 46  1  0  0  0  0
  7  8  1  0  0  0  0
  7 47  1  0  0  0  0
  7 48  1  0  0  0  0
  8  9  1  0  0  0  0
  8 49  1  0  0  0  0
  9 10  2  0  0  0  0
  9 11  1  0  0  0  0
 11 12  2  0  0  0  0
 11 33  1  0  0  0  0
 12 13  1  0  0  0  0
 12 14  1  0  0  0  0
 13 50  1  0  0  0  0
 13 51  1  0  0  0  0
 13 52  1  0  0  0  0
 14 15  1  0  0  0  0
 14 53  1  0  0  0  0
 15 16  1  0  0  0  0
 15 33  2  0  0  0  0
 16 17  2  0  0  0  0
 16 54  1  0  0  0  0
 17 18  1  0  0  0  0
 17 32  1  0  0  0  0
 18 19  2  0  0  0  0
 18 20  1  0  0  0  0
 20 21  1  0  0  0  0
 20 55  1  0  0  0  0
 21 22  1  0  0  0  0
 21 32  2  0  0  0  0
 22 23  2  0  0  0  0
 22 56  1  0  0  0  0
 23 24  1  0  0  0  0
 23 57  1  0  0  0  0
 24 25  1  0  0  0  0
 24 31  2  0  0  0  0
 25 26  1  0  0  0  0
 25 58  1  0  0  0  0
 25 59  1  0  0  0  0
 26 27  1  0  0  0  0
 26 60  1  0  0  0  0
 26 61  1  0  0  0  0
 27 28  1  0  0  0  0
 27 62  1  0  0  0  0
 28 29  1  0  0  0  0
 28 30  2  0  0  0  0
 29 63  1  0  0  0  0
 29 64  1  0  0  0  0
 29 65  1  0  0  0  0
 31 32  1  0  0  0  0
 31 66  1  0  0  0  0
 33 34  1  0  0  0  0
 34 67  1  0  0  0  0
 34 68  1  0  0  0  0
 34 69  1  0  0  0  0
M  END
$$$$
