CHEMBL2206665
 OpenBabel04072215363D

 39 42  0  0  0  0  0  0  0  0999 V2000
    1.0332   -0.3083   -0.3160 O   0  0  0  0  0  0  0  0  0  0  0  0
    2.1978   -0.1389    0.0319 C   0  0  0  0  0  0  0  0  0  0  0  0
    2.8261   -0.7488    1.1129 N   0  0  0  0  0  0  0  0  0  0  0  0
    2.2185   -1.7313    1.9422 C   0  0  0  0  0  0  0  0  0  0  0  0
    1.0703   -2.4275    1.5416 C   0  0  0  0  0  0  0  0  0  0  0  0
    0.4270   -3.3183    2.3975 C   0  0  0  0  0  0  0  0  0  0  0  0
    0.9348   -3.5491    3.6650 C   0  0  0  0  0  0  0  0  0  0  0  0
    2.1260   -2.9320    4.0486 C   0  0  0  0  0  0  0  0  0  0  0  0
    2.6460   -3.1319    5.3502 O   0  0  0  0  0  0  0  0  0  0  0  0
    2.6084   -4.4128    5.8979 C   0  0  0  0  0  0  0  0  0  0  0  0
    2.6918   -4.3070    7.3739 C   0  0  0  0  0  0  0  0  0  0  0  0
    2.6314   -5.4569    8.0614 C   0  0  0  0  0  0  0  0  0  0  0  0
    2.5134   -6.6789    7.3588 C   0  0  0  0  0  0  0  0  0  0  0  0
    2.4374   -7.9259    7.7806 N   0  0  0  0  0  0  0  0  0  0  0  0
    2.3126   -8.6819    6.6408 C   0  0  0  0  0  0  0  0  0  0  0  0
    2.3020   -7.8878    5.5188 C   0  0  0  0  0  0  0  0  0  0  0  0
    2.4491   -6.6085    5.9767 N   0  0  0  0  0  0  0  0  0  0  0  0
    2.5016   -5.4959    5.1981 N   0  0  0  0  0  0  0  0  0  0  0  0
    2.7684   -2.0131    3.2028 C   0  0  0  0  0  0  0  0  0  0  0  0
    2.9803    0.8606   -0.7412 C   0  0  0  0  0  0  0  0  0  0  0  0
    2.2748    1.9408   -1.2966 C   0  0  0  0  0  0  0  0  0  0  0  0
    2.9227    2.8663   -2.1126 C   0  0  0  0  0  0  0  0  0  0  0  0
    4.2793    2.7123   -2.3853 C   0  0  0  0  0  0  0  0  0  0  0  0
    4.9864    1.6365   -1.8413 C   0  0  0  0  0  0  0  0  0  0  0  0
    4.3414    0.7069   -1.0173 C   0  0  0  0  0  0  0  0  0  0  0  0
    3.7036   -0.3574    1.4306 H   0  0  0  0  0  0  0  0  0  0  0  0
    0.6412   -2.2982    0.5526 H   0  0  0  0  0  0  0  0  0  0  0  0
   -0.4791   -3.8243    2.0691 H   0  0  0  0  0  0  0  0  0  0  0  0
    0.4019   -4.2187    4.3324 H   0  0  0  0  0  0  0  0  0  0  0  0
    2.7666   -3.3363    7.8445 H   0  0  0  0  0  0  0  0  0  0  0  0
    2.6634   -5.4821    9.1446 H   0  0  0  0  0  0  0  0  0  0  0  0
    2.2324   -9.7606    6.6882 H   0  0  0  0  0  0  0  0  0  0  0  0
    2.2097   -8.1045    4.4656 H   0  0  0  0  0  0  0  0  0  0  0  0
    3.6642   -1.5082    3.5506 H   0  0  0  0  0  0  0  0  0  0  0  0
    1.2072    2.0481   -1.1099 H   0  0  0  0  0  0  0  0  0  0  0  0
    2.3628    3.6907   -2.5472 H   0  0  0  0  0  0  0  0  0  0  0  0
    4.7813    3.4230   -3.0379 H   0  0  0  0  0  0  0  0  0  0  0  0
    6.0392    1.5120   -2.0837 H   0  0  0  0  0  0  0  0  0  0  0  0
    4.8965   -0.1500   -0.6482 H   0  0  0  0  0  0  0  0  0  0  0  0
  1  2  2  0  0  0  0
  2  3  1  0  0  0  0
  2 20  1  0  0  0  0
  3  4  1  0  0  0  0
  3 26  1  0  0  0  0
  4  5  1  0  0  0  0
  4 19  2  0  0  0  0
  5  6  2  0  0  0  0
  5 27  1  0  0  0  0
  6  7  1  0  0  0  0
  6 28  1  0  0  0  0
  7  8  2  0  0  0  0
  7 29  1  0  0  0  0
  8  9  1  0  0  0  0
  8 19  1  0  0  0  0
  9 10  1  0  0  0  0
 10 11  1  0  0  0  0
 10 18  2  0  0  0  0
 11 12  2  0  0  0  0
 11 30  1  0  0  0  0
 12 13  1  0  0  0  0
 12 31  1  0  0  0  0
 13 14  2  0  0  0  0
 13 17  1  0  0  0  0
 14 15  1  0  0  0  0
 15 16  2  0  0  0  0
 15 32  1  0  0  0  0
 16 17  1  0  0  0  0
 16 33  1  0  0  0  0
 17 18  1  0  0  0  0
 19 34  1  0  0  0  0
 20 21  1  0  0  0  0
 20 25  2  0  0  0  0
 21 22  2  0  0  0  0
 21 35  1  0  0  0  0
 22 23  1  0  0  0  0
 22 36  1  0  0  0  0
 23 24  2  0  0  0  0
 23 37  1  0  0  0  0
 24 25  1  0  0  0  0
 24 38  1  0  0  0  0
 25 39  1  0  0  0  0
M  END
$$$$
