CHEMBL195955
 OpenBabel04072215363D

 44 47  0  0  0  0  0  0  0  0999 V2000
    5.4351    1.5886   -1.7388 C   0  0  0  0  0  0  0  0  0  0  0  0
    4.4483    0.7702   -0.9625 C   0  0  0  0  0  0  0  0  0  0  0  0
    4.7648   -0.9087   -0.8567 S   0  0  0  0  0  0  0  0  0  0  0  0
    3.4220   -1.1821    0.1322 C   0  0  0  0  0  0  0  0  0  0  0  0
    3.1939   -2.4262    0.5842 N   0  0  0  0  0  0  0  0  0  0  0  0
    2.1094   -2.5012    1.3479 C   0  0  0  0  0  0  0  0  0  0  0  0
    1.2696   -1.5077    1.6523 N   0  0  0  0  0  0  0  0  0  0  0  0
    1.5148   -0.2748    1.1673 C   0  0  0  0  0  0  0  0  0  0  0  0
    0.5541    0.6644    1.5129 N   0  0  0  0  0  0  0  0  0  0  0  0
    2.6660   -0.0426    0.3727 C   0  0  0  0  0  0  0  0  0  0  0  0
    3.2888    1.1326   -0.2720 C   0  0  0  0  0  0  0  0  0  0  0  0
    2.8409    2.5396   -0.1840 C   0  0  0  0  0  0  0  0  0  0  0  0
    2.3148    3.0248    1.0103 C   0  0  0  0  0  0  0  0  0  0  0  0
    1.7662    4.3101    1.0981 C   0  0  0  0  0  0  0  0  0  0  0  0
    1.8377    5.1955    0.0310 C   0  0  0  0  0  0  0  0  0  0  0  0
    1.3035    6.5086    0.0663 N   0  0  0  0  0  0  0  0  0  0  0  0
    0.6863    7.0951    1.1534 C   0  0  0  0  0  0  0  0  0  0  0  0
    0.6156    6.6109    2.2799 O   0  0  0  0  0  0  0  0  0  0  0  0
    0.0941    8.3055    0.8164 N   0  0  0  0  0  0  0  0  0  0  0  0
   -0.5844    9.0750    1.7931 C   0  0  0  0  0  0  0  0  0  0  0  0
   -1.8143    9.6423    1.4590 C   0  0  0  0  0  0  0  0  0  0  0  0
   -2.5473   10.3349    2.4272 C   0  0  0  0  0  0  0  0  0  0  0  0
   -2.0316   10.5038    3.7131 C   0  0  0  0  0  0  0  0  0  0  0  0
   -0.7833    9.9717    4.0275 C   0  0  0  0  0  0  0  0  0  0  0  0
   -0.0698   10.2172    5.7636 Br  0  0  0  0  0  0  0  0  0  0  0  0
   -0.0622    9.2550    3.0785 C   0  0  0  0  0  0  0  0  0  0  0  0
    2.4439    4.7598   -1.1474 C   0  0  0  0  0  0  0  0  0  0  0  0
    2.9038    3.4336   -1.2657 C   0  0  0  0  0  0  0  0  0  0  0  0
    6.3539    1.0331   -1.9588 H   0  0  0  0  0  0  0  0  0  0  0  0
    5.7252    2.4847   -1.1835 H   0  0  0  0  0  0  0  0  0  0  0  0
    5.0107    1.8826   -2.7047 H   0  0  0  0  0  0  0  0  0  0  0  0
    1.8739   -3.4755    1.7634 H   0  0  0  0  0  0  0  0  0  0  0  0
   -0.2551    0.2097    1.9214 H   0  0  0  0  0  0  0  0  0  0  0  0
    0.3586    1.3625    0.8080 H   0  0  0  0  0  0  0  0  0  0  0  0
    2.2841    2.4077    1.9056 H   0  0  0  0  0  0  0  0  0  0  0  0
    1.2892    4.5643    2.0383 H   0  0  0  0  0  0  0  0  0  0  0  0
    1.4679    7.0985   -0.7329 H   0  0  0  0  0  0  0  0  0  0  0  0
   -0.2785    8.3397   -0.1208 H   0  0  0  0  0  0  0  0  0  0  0  0
   -2.2473    9.4999    0.4734 H   0  0  0  0  0  0  0  0  0  0  0  0
   -3.5324   10.7293    2.1834 H   0  0  0  0  0  0  0  0  0  0  0  0
   -2.6088   11.0421    4.4589 H   0  0  0  0  0  0  0  0  0  0  0  0
    0.9058    8.8336    3.3427 H   0  0  0  0  0  0  0  0  0  0  0  0
    2.5476    5.4226   -2.0036 H   0  0  0  0  0  0  0  0  0  0  0  0
    3.3002    3.1275   -2.2264 H   0  0  0  0  0  0  0  0  0  0  0  0
  1  2  1  0  0  0  0
  1 29  1  0  0  0  0
  1 30  1  0  0  0  0
  1 31  1  0  0  0  0
  2  3  1  0  0  0  0
  2 11  2  0  0  0  0
  3  4  1  0  0  0  0
  4  5  1  0  0  0  0
  4 10  2  0  0  0  0
  5  6  2  0  0  0  0
  6  7  1  0  0  0  0
  6 32  1  0  0  0  0
  7  8  2  0  0  0  0
  8  9  1  0  0  0  0
  8 10  1  0  0  0  0
  9 33  1  0  0  0  0
  9 34  1  0  0  0  0
 10 11  1  0  0  0  0
 11 12  1  0  0  0  0
 12 13  1  0  0  0  0
 12 28  2  0  0  0  0
 13 14  2  0  0  0  0
 13 35  1  0  0  0  0
 14 15  1  0  0  0  0
 14 36  1  0  0  0  0
 15 16  1  0  0  0  0
 15 27  2  0  0  0  0
 16 17  1  0  0  0  0
 16 37  1  0  0  0  0
 17 18  2  0  0  0  0
 17 19  1  0  0  0  0
 19 20  1  0  0  0  0
 19 38  1  0  0  0  0
 20 21  1  0  0  0  0
 20 26  2  0  0  0  0
 21 22  2  0  0  0  0
 21 39  1  0  0  0  0
 22 23  1  0  0  0  0
 22 40  1  0  0  0  0
 23 24  2  0  0  0  0
 23 41  1  0  0  0  0
 24 25  1  0  0  0  0
 24 26  1  0  0  0  0
 26 42  1  0  0  0  0
 27 28  1  0  0  0  0
 27 43  1  0  0  0  0
 28 44  1  0  0  0  0
M  END
$$$$
