CHEMBL3955038
 OpenBabel04072215373D

 53 55  0  0  0  0  0  0  0  0999 V2000
    6.9992   -1.8296   -5.3686 C   0  0  0  0  0  0  0  0  0  0  0  0
    6.3422   -0.8157   -4.6161 O   0  0  0  0  0  0  0  0  0  0  0  0
    7.0412   -0.2798   -3.5678 C   0  0  0  0  0  0  0  0  0  0  0  0
    8.2895   -0.7107   -3.1211 C   0  0  0  0  0  0  0  0  0  0  0  0
    8.8981   -0.0767   -2.0401 C   0  0  0  0  0  0  0  0  0  0  0  0
    8.2686    1.0001   -1.4144 C   0  0  0  0  0  0  0  0  0  0  0  0
    7.0217    1.4696   -1.8583 C   0  0  0  0  0  0  0  0  0  0  0  0
    6.4446    2.7167   -1.2639 C   0  0  0  0  0  0  0  0  0  0  0  0
    5.1079    2.8059   -1.0772 C   0  0  0  0  0  0  0  0  0  0  0  0
    4.3809    4.0051   -0.5849 C   0  0  0  0  0  0  0  0  0  0  0  0
    3.2034    3.7172    0.0352 N   0  0  0  0  0  0  0  0  0  0  0  0
    4.7462    5.1604   -0.7360 O   0  0  0  0  0  0  0  0  0  0  0  0
    7.3238    3.8222   -0.8140 C   0  0  0  0  0  0  0  0  0  0  0  0
    7.6819    3.9058    0.5326 C   0  0  0  0  0  0  0  0  0  0  0  0
    8.5645    4.8916    0.9690 C   0  0  0  0  0  0  0  0  0  0  0  0
    9.1125    5.8188    0.0757 C   0  0  0  0  0  0  0  0  0  0  0  0
   10.0079    6.8407    0.4763 N   0  0  0  0  0  0  0  0  0  0  0  0
   10.5515    6.9815    1.7400 C   0  0  0  0  0  0  0  0  0  0  0  0
   10.4164    6.1868    2.6633 O   0  0  0  0  0  0  0  0  0  0  0  0
   11.2646    8.1659    1.8769 N   0  0  0  0  0  0  0  0  0  0  0  0
   11.8436    8.4748    3.1351 C   0  0  0  0  0  0  0  0  0  0  0  0
   12.6023    7.5318    3.8419 C   0  0  0  0  0  0  0  0  0  0  0  0
   13.0729    7.8138    5.1357 C   0  0  0  0  0  0  0  0  0  0  0  0
   13.8863    6.7992    5.9036 C   0  0  0  0  0  0  0  0  0  0  0  0
   14.1274    5.6502    5.2180 F   0  0  0  0  0  0  0  0  0  0  0  0
   15.1107    7.2855    6.2526 F   0  0  0  0  0  0  0  0  0  0  0  0
   13.2912    6.4238    7.0697 F   0  0  0  0  0  0  0  0  0  0  0  0
   12.7635    9.0567    5.7132 C   0  0  0  0  0  0  0  0  0  0  0  0
   12.0312   10.0086    4.9991 C   0  0  0  0  0  0  0  0  0  0  0  0
   11.5983    9.7206    3.7085 C   0  0  0  0  0  0  0  0  0  0  0  0
   10.8684   10.6283    3.0424 F   0  0  0  0  0  0  0  0  0  0  0  0
    8.7490    5.7402   -1.2740 C   0  0  0  0  0  0  0  0  0  0  0  0
    7.8634    4.7456   -1.7188 C   0  0  0  0  0  0  0  0  0  0  0  0
    6.4137    0.8017   -2.9334 C   0  0  0  0  0  0  0  0  0  0  0  0
    6.3382   -2.1190   -6.1903 H   0  0  0  0  0  0  0  0  0  0  0  0
    7.1795   -2.7197   -4.7567 H   0  0  0  0  0  0  0  0  0  0  0  0
    7.9311   -1.4559   -5.8071 H   0  0  0  0  0  0  0  0  0  0  0  0
    8.8201   -1.5295   -3.5948 H   0  0  0  0  0  0  0  0  0  0  0  0
    9.8743   -0.4068   -1.6940 H   0  0  0  0  0  0  0  0  0  0  0  0
    8.7826    1.4805   -0.5844 H   0  0  0  0  0  0  0  0  0  0  0  0
    4.4617    1.9705   -1.3239 H   0  0  0  0  0  0  0  0  0  0  0  0
    2.8774    2.7802    0.2247 H   0  0  0  0  0  0  0  0  0  0  0  0
    2.6787    4.4948    0.4018 H   0  0  0  0  0  0  0  0  0  0  0  0
    7.2940    3.1901    1.2553 H   0  0  0  0  0  0  0  0  0  0  0  0
    8.8008    4.8952    2.0267 H   0  0  0  0  0  0  0  0  0  0  0  0
   10.3572    7.4542   -0.2435 H   0  0  0  0  0  0  0  0  0  0  0  0
   10.8486    8.9538    1.3948 H   0  0  0  0  0  0  0  0  0  0  0  0
   12.8102    6.5596    3.3956 H   0  0  0  0  0  0  0  0  0  0  0  0
   13.0897    9.2811    6.7283 H   0  0  0  0  0  0  0  0  0  0  0  0
   11.7752   10.9624    5.4512 H   0  0  0  0  0  0  0  0  0  0  0  0
    9.1365    6.4460   -1.9978 H   0  0  0  0  0  0  0  0  0  0  0  0
    7.5894    4.6969   -2.7687 H   0  0  0  0  0  0  0  0  0  0  0  0
    5.4569    1.1391   -3.3243 H   0  0  0  0  0  0  0  0  0  0  0  0
  1  2  1  0  0  0  0
  1 35  1  0  0  0  0
  1 36  1  0  0  0  0
  1 37  1  0  0  0  0
  2  3  1  0  0  0  0
  3  4  1  0  0  0  0
  3 34  2  0  0  0  0
  4  5  2  0  0  0  0
  4 38  1  0  0  0  0
  5  6  1  0  0  0  0
  5 39  1  0  0  0  0
  6  7  2  0  0  0  0
  6 40  1  0  0  0  0
  7  8  1  0  0  0  0
  7 34  1  0  0  0  0
  8  9  2  0  0  0  0
  8 13  1  0  0  0  0
  9 10  1  0  0  0  0
  9 41  1  0  0  0  0
 10 11  1  0  0  0  0
 10 12  2  0  0  0  0
 11 42  1  0  0  0  0
 11 43  1  0  0  0  0
 13 14  1  0  0  0  0
 13 33  2  0  0  0  0
 14 15  2  0  0  0  0
 14 44  1  0  0  0  0
 15 16  1  0  0  0  0
 15 45  1  0  0  0  0
 16 17  1  0  0  0  0
 16 32  2  0  0  0  0
 17 18  1  0  0  0  0
 17 46  1  0  0  0  0
 18 19  2  0  0  0  0
 18 20  1  0  0  0  0
 20 21  1  0  0  0  0
 20 47  1  0  0  0  0
 21 22  1  0  0  0  0
 21 30  2  0  0  0  0
 22 23  2  0  0  0  0
 22 48  1  0  0  0  0
 23 24  1  0  0  0  0
 23 28  1  0  0  0  0
 24 25  1  0  0  0  0
 24 26  1  0  0  0  0
 24 27  1  0  0  0  0
 28 29  2  0  0  0  0
 28 49  1  0  0  0  0
 29 30  1  0  0  0  0
 29 50  1  0  0  0  0
 30 31  1  0  0  0  0
 32 33  1  0  0  0  0
 32 51  1  0  0  0  0
 33 52  1  0  0  0  0
 34 53  1  0  0  0  0
M  END
$$$$
