CHEMBL2448064
 OpenBabel04072215363D

 53 55  0  0  0  0  0  0  0  0999 V2000
    3.0238    0.2618    1.3070 C   0  0  0  0  0  0  0  0  0  0  0  0
    2.7396    0.2719   -0.0421 O   0  0  0  0  0  0  0  0  0  0  0  0
    3.3145   -0.3768   -1.0925 C   0  0  0  0  0  0  0  0  0  0  0  0
    4.2970   -1.3609   -0.8832 C   0  0  0  0  0  0  0  0  0  0  0  0
    4.8722   -2.0547   -1.9548 C   0  0  0  0  0  0  0  0  0  0  0  0
    5.8180   -3.0924   -1.7695 C   0  0  0  0  0  0  0  0  0  0  0  0
    6.3019   -3.4554   -0.4736 N   0  0  0  0  0  0  0  0  0  0  0  0
    6.7178   -4.7714   -0.1123 C   0  0  0  0  0  0  0  0  0  0  0  0
    7.6378   -4.9346    0.9388 C   0  0  0  0  0  0  0  0  0  0  0  0
    8.0369   -6.2112    1.3464 C   0  0  0  0  0  0  0  0  0  0  0  0
    7.5021   -7.3434    0.7276 C   0  0  0  0  0  0  0  0  0  0  0  0
    7.9784   -8.9458    1.2592 Cl  0  0  0  0  0  0  0  0  0  0  0  0
    6.5733   -7.1987   -0.3050 C   0  0  0  0  0  0  0  0  0  0  0  0
    6.1824   -5.9262   -0.7312 C   0  0  0  0  0  0  0  0  0  0  0  0
    5.2395   -5.8401   -1.7020 F   0  0  0  0  0  0  0  0  0  0  0  0
    6.3077   -3.7362   -2.8642 N   0  0  0  0  0  0  0  0  0  0  0  0
    5.9204   -3.4056   -4.1215 C   0  0  0  0  0  0  0  0  0  0  0  0
    5.0051   -2.4235   -4.3170 N   0  0  0  0  0  0  0  0  0  0  0  0
    4.4643   -1.7487   -3.2681 C   0  0  0  0  0  0  0  0  0  0  0  0
    3.4886   -0.7670   -3.4960 C   0  0  0  0  0  0  0  0  0  0  0  0
    2.8925   -0.0782   -2.4290 C   0  0  0  0  0  0  0  0  0  0  0  0
    1.9216    0.8482   -2.7289 O   0  0  0  0  0  0  0  0  0  0  0  0
    1.2576    1.6037   -1.7803 C   0  0  0  0  0  0  0  0  0  0  0  0
    0.1635    2.5395   -2.3277 C   0  0  0  0  0  0  0  0  0  0  0  0
    0.6821    3.6077   -3.3068 C   0  0  0  0  0  0  0  0  0  0  0  0
    1.6090    4.6120   -2.5956 C   0  0  0  0  0  0  0  0  0  0  0  0
    0.9285    5.2562   -1.4574 N   0  0  0  0  0  0  0  0  0  0  0  0
    0.4457    4.2717   -0.4763 C   0  0  0  0  0  0  0  0  0  0  0  0
   -0.5186    3.2646   -1.1411 C   0  0  0  0  0  0  0  0  0  0  0  0
   -1.0940   -1.2497   -0.8968 Cl  0  0  0  0  0  0  0  0  0  0  0  0
    3.1917    1.3062    1.6407 H   0  0  0  0  0  0  0  0  0  0  0  0
    3.9178   -0.3199    1.5844 H   0  0  0  0  0  0  0  0  0  0  0  0
    2.1447   -0.1406    1.8511 H   0  0  0  0  0  0  0  0  0  0  0  0
    4.5907   -1.6089    0.1152 H   0  0  0  0  0  0  0  0  0  0  0  0
    6.3891   -2.7248    0.2479 H   0  0  0  0  0  0  0  0  0  0  0  0
    8.0556   -4.0682    1.4367 H   0  0  0  0  0  0  0  0  0  0  0  0
    8.7547   -6.3195    2.1495 H   0  0  0  0  0  0  0  0  0  0  0  0
    6.1409   -8.0748   -0.7713 H   0  0  0  0  0  0  0  0  0  0  0  0
    6.3460   -3.9268   -4.9653 H   0  0  0  0  0  0  0  0  0  0  0  0
    3.1800   -0.5506   -4.5126 H   0  0  0  0  0  0  0  0  0  0  0  0
    2.0176    2.1876   -1.2358 H   0  0  0  0  0  0  0  0  0  0  0  0
    0.7389    0.9133   -1.0855 H   0  0  0  0  0  0  0  0  0  0  0  0
   -0.5902    1.9056   -2.8473 H   0  0  0  0  0  0  0  0  0  0  0  0
   -0.1912    4.1711   -3.7075 H   0  0  0  0  0  0  0  0  0  0  0  0
    1.2005    3.1326   -4.1660 H   0  0  0  0  0  0  0  0  0  0  0  0
    1.9194    5.3930   -3.3220 H   0  0  0  0  0  0  0  0  0  0  0  0
    2.5357    4.1101   -2.2474 H   0  0  0  0  0  0  0  0  0  0  0  0
    0.1150    5.8124   -1.8094 H   0  0  0  0  0  0  0  0  0  0  0  0
   -0.0819    4.7982    0.3465 H   0  0  0  0  0  0  0  0  0  0  0  0
    1.3104    3.7654    0.0011 H   0  0  0  0  0  0  0  0  0  0  0  0
   -1.4027    3.8259   -1.5122 H   0  0  0  0  0  0  0  0  0  0  0  0
   -0.8804    2.5290   -0.3885 H   0  0  0  0  0  0  0  0  0  0  0  0
    0.2061   -1.4265   -1.3124 H   0  0  0  0  0  0  0  0  0  0  0  0
  1  2  1  0  0  0  0
  1 31  1  0  0  0  0
  1 32  1  0  0  0  0
  1 33  1  0  0  0  0
  2  3  1  0  0  0  0
  3  4  1  0  0  0  0
  3 21  2  0  0  0  0
  4  5  2  0  0  0  0
  4 34  1  0  0  0  0
  5  6  1  0  0  0  0
  5 19  1  0  0  0  0
  6  7  1  0  0  0  0
  6 16  2  0  0  0  0
  7  8  1  0  0  0  0
  7 35  1  0  0  0  0
  8  9  1  0  0  0  0
  8 14  2  0  0  0  0
  9 10  2  0  0  0  0
  9 36  1  0  0  0  0
 10 11  1  0  0  0  0
 10 37  1  0  0  0  0
 11 12  1  0  0  0  0
 11 13  2  0  0  0  0
 13 14  1  0  0  0  0
 13 38  1  0  0  0  0
 14 15  1  0  0  0  0
 16 17  1  0  0  0  0
 17 18  2  0  0  0  0
 17 39  1  0  0  0  0
 18 19  1  0  0  0  0
 19 20  2  0  0  0  0
 20 21  1  0  0  0  0
 20 40  1  0  0  0  0
 21 22  1  0  0  0  0
 22 23  1  0  0  0  0
 23 24  1  0  0  0  0
 23 41  1  0  0  0  0
 23 42  1  0  0  0  0
 24 25  1  0  0  0  0
 24 29  1  0  0  0  0
 24 43  1  0  0  0  0
 25 26  1  0  0  0  0
 25 44  1  0  0  0  0
 25 45  1  0  0  0  0
 26 27  1  0  0  0  0
 26 46  1  0  0  0  0
 26 47  1  0  0  0  0
 27 28  1  0  0  0  0
 27 48  1  0  0  0  0
 28 29  1  0  0  0  0
 28 49  1  0  0  0  0
 28 50  1  0  0  0  0
 29 51  1  0  0  0  0
 29 52  1  0  0  0  0
 30 53  1  0  0  0  0
M  END
$$$$
