CHEMBL3690549
 OpenBabel04072215373D

 48 51  0  0  0  0  0  0  0  0999 V2000
    3.7320   -0.4218    3.3262 O   0  0  0  0  0  0  0  0  0  0  0  0
    3.8546   -1.6319    3.1943 C   0  0  0  0  0  0  0  0  0  0  0  0
    3.3318   -2.5056    4.1251 N   0  0  0  0  0  0  0  0  0  0  0  0
    2.7164   -1.9606    5.3418 C   0  0  0  0  0  0  0  0  0  0  0  0
    3.6958   -1.5757    6.4594 C   0  0  0  0  0  0  0  0  0  0  0  0
    4.9723   -1.8999    6.1485 F   0  0  0  0  0  0  0  0  0  0  0  0
    3.6532   -0.2604    6.7509 F   0  0  0  0  0  0  0  0  0  0  0  0
    3.3881   -2.2529    7.5943 F   0  0  0  0  0  0  0  0  0  0  0  0
    4.4616   -2.3003    2.1602 N   0  0  0  0  0  0  0  0  0  0  0  0
    5.0967   -1.7385    1.0300 C   0  0  0  0  0  0  0  0  0  0  0  0
    5.1672   -0.3673    0.7840 C   0  0  0  0  0  0  0  0  0  0  0  0
    5.8190    0.1115   -0.3518 C   0  0  0  0  0  0  0  0  0  0  0  0
    6.4506   -0.7728   -1.2244 C   0  0  0  0  0  0  0  0  0  0  0  0
    6.4296   -2.1533   -0.9838 C   0  0  0  0  0  0  0  0  0  0  0  0
    7.1662   -3.0525   -1.8814 C   0  0  0  0  0  0  0  0  0  0  0  0
    7.3900   -2.9328   -3.2475 C   0  0  0  0  0  0  0  0  0  0  0  0
    8.1577   -3.9467   -3.7432 N   0  0  0  0  0  0  0  0  0  0  0  0
    8.4307   -4.7036   -2.7043 C   0  0  0  0  0  0  0  0  0  0  0  0
    9.1862   -5.9065   -2.6269 C   0  0  0  0  0  0  0  0  0  0  0  0
    9.3804   -6.5420   -1.4417 C   0  0  0  0  0  0  0  0  0  0  0  0
   10.1423   -7.8163   -1.4076 C   0  0  0  0  0  0  0  0  0  0  0  0
   11.2152   -8.0604   -2.2417 C   0  0  0  0  0  0  0  0  0  0  0  0
   11.8213   -9.2872   -2.1189 C   0  0  0  0  0  0  0  0  0  0  0  0
   11.4292  -10.2200   -1.2356 N   0  0  0  0  0  0  0  0  0  0  0  0
   10.3836   -9.9103   -0.4315 C   0  0  0  0  0  0  0  0  0  0  0  0
    9.9179  -10.9485    0.5989 C   0  0  0  0  0  0  0  0  0  0  0  0
   10.6206  -12.1194    0.5669 F   0  0  0  0  0  0  0  0  0  0  0  0
   10.0164  -10.5014    1.8874 F   0  0  0  0  0  0  0  0  0  0  0  0
    8.6072  -11.3103    0.4371 F   0  0  0  0  0  0  0  0  0  0  0  0
    9.7285   -8.7218   -0.4903 N   0  0  0  0  0  0  0  0  0  0  0  0
    8.7927   -5.9566   -0.2274 C   0  0  0  0  0  0  0  0  0  0  0  0
    8.0873   -4.8159   -0.2953 C   0  0  0  0  0  0  0  0  0  0  0  0
    7.8779   -4.1974   -1.5306 N   0  0  0  0  0  0  0  0  0  0  0  0
    5.6980   -2.6218    0.1187 C   0  0  0  0  0  0  0  0  0  0  0  0
    3.8197   -3.3837    4.2297 H   0  0  0  0  0  0  0  0  0  0  0  0
    2.0294   -2.7305    5.7034 H   0  0  0  0  0  0  0  0  0  0  0  0
    2.1117   -1.0871    5.0698 H   0  0  0  0  0  0  0  0  0  0  0  0
    4.4292   -3.3070    2.2031 H   0  0  0  0  0  0  0  0  0  0  0  0
    4.7163    0.3589    1.4516 H   0  0  0  0  0  0  0  0  0  0  0  0
    5.8460    1.1812   -0.5455 H   0  0  0  0  0  0  0  0  0  0  0  0
    6.9731   -0.3635   -2.0863 H   0  0  0  0  0  0  0  0  0  0  0  0
    7.0246   -2.1521   -3.9044 H   0  0  0  0  0  0  0  0  0  0  0  0
    9.5709   -6.2859   -3.5672 H   0  0  0  0  0  0  0  0  0  0  0  0
   11.5810   -7.3375   -2.9574 H   0  0  0  0  0  0  0  0  0  0  0  0
   12.6642   -9.5617   -2.7462 H   0  0  0  0  0  0  0  0  0  0  0  0
    8.9506   -6.4642    0.7193 H   0  0  0  0  0  0  0  0  0  0  0  0
    7.6758   -4.3561    0.5907 H   0  0  0  0  0  0  0  0  0  0  0  0
    5.5943   -3.6909    0.2774 H   0  0  0  0  0  0  0  0  0  0  0  0
  1  2  2  0  0  0  0
  2  3  1  0  0  0  0
  2  9  1  0  0  0  0
  3  4  1  0  0  0  0
  3 35  1  0  0  0  0
  4  5  1  0  0  0  0
  4 36  1  0  0  0  0
  4 37  1  0  0  0  0
  5  6  1  0  0  0  0
  5  7  1  0  0  0  0
  5  8  1  0  0  0  0
  9 10  1  0  0  0  0
  9 38  1  0  0  0  0
 10 11  1  0  0  0  0
 10 34  2  0  0  0  0
 11 12  2  0  0  0  0
 11 39  1  0  0  0  0
 12 13  1  0  0  0  0
 12 40  1  0  0  0  0
 13 14  2  0  0  0  0
 13 41  1  0  0  0  0
 14 15  1  0  0  0  0
 14 34  1  0  0  0  0
 15 16  2  0  0  0  0
 15 33  1  0  0  0  0
 16 17  1  0  0  0  0
 16 42  1  0  0  0  0
 17 18  2  0  0  0  0
 18 19  1  0  0  0  0
 18 33  1  0  0  0  0
 19 20  2  0  0  0  0
 19 43  1  0  0  0  0
 20 21  1  0  0  0  0
 20 31  1  0  0  0  0
 21 22  1  0  0  0  0
 21 30  2  0  0  0  0
 22 23  2  0  0  0  0
 22 44  1  0  0  0  0
 23 24  1  0  0  0  0
 23 45  1  0  0  0  0
 24 25  2  0  0  0  0
 25 26  1  0  0  0  0
 25 30  1  0  0  0  0
 26 27  1  0  0  0  0
 26 28  1  0  0  0  0
 26 29  1  0  0  0  0
 31 32  2  0  0  0  0
 31 46  1  0  0  0  0
 32 33  1  0  0  0  0
 32 47  1  0  0  0  0
 34 48  1  0  0  0  0
M  END
$$$$
