CHEMBL3976501
 OpenBabel04072215373D

 39 40  0  0  0  0  0  0  0  0999 V2000
    2.1910   -1.7766   -2.0521 N   0  0  0  0  0  0  0  0  0  0  0  0
    3.4669   -1.4872   -1.6855 C   0  0  0  0  0  0  0  0  0  0  0  0
    4.2933   -1.0995   -2.4937 O   0  0  0  0  0  0  0  0  0  0  0  0
    3.7388   -1.7172   -0.2459 C   0  0  0  0  0  0  0  0  0  0  0  0
    4.6782   -1.0876    0.4803 C   0  0  0  0  0  0  0  0  0  0  0  0
    5.5129    0.0236    0.0225 C   0  0  0  0  0  0  0  0  0  0  0  0
    5.0219    1.3187    0.1625 C   0  0  0  0  0  0  0  0  0  0  0  0
    5.7595    2.4094   -0.3011 C   0  0  0  0  0  0  0  0  0  0  0  0
    7.0076    2.2311   -0.9123 C   0  0  0  0  0  0  0  0  0  0  0  0
    7.7555    3.3064   -1.4562 N   0  0  0  0  0  0  0  0  0  0  0  0
    7.4101    4.6428   -1.3807 C   0  0  0  0  0  0  0  0  0  0  0  0
    6.4765    5.0989   -0.7300 O   0  0  0  0  0  0  0  0  0  0  0  0
    8.2277    5.4492   -2.1649 N   0  0  0  0  0  0  0  0  0  0  0  0
    7.9717    6.8470   -2.2005 C   0  0  0  0  0  0  0  0  0  0  0  0
    7.7677    7.5798   -1.0234 C   0  0  0  0  0  0  0  0  0  0  0  0
    7.3934    8.9322   -1.0713 C   0  0  0  0  0  0  0  0  0  0  0  0
    7.1585    9.7156    0.1986 C   0  0  0  0  0  0  0  0  0  0  0  0
    7.3759    9.0015    1.3374 F   0  0  0  0  0  0  0  0  0  0  0  0
    7.9731   10.8050    0.2856 F   0  0  0  0  0  0  0  0  0  0  0  0
    5.8875   10.1951    0.2920 F   0  0  0  0  0  0  0  0  0  0  0  0
    7.2237    9.5429   -2.3248 C   0  0  0  0  0  0  0  0  0  0  0  0
    7.4573    8.8243   -3.5010 C   0  0  0  0  0  0  0  0  0  0  0  0
    7.8508    7.4904   -3.4312 C   0  0  0  0  0  0  0  0  0  0  0  0
    8.0398    6.8008   -4.5665 F   0  0  0  0  0  0  0  0  0  0  0  0
    7.5143    0.9306   -1.0209 C   0  0  0  0  0  0  0  0  0  0  0  0
    6.7705   -0.1684   -0.5557 C   0  0  0  0  0  0  0  0  0  0  0  0
    1.9434   -1.6046   -3.0185 H   0  0  0  0  0  0  0  0  0  0  0  0
    1.4609   -2.0221   -1.4023 H   0  0  0  0  0  0  0  0  0  0  0  0
    3.1225   -2.4680    0.2330 H   0  0  0  0  0  0  0  0  0  0  0  0
    4.7932   -1.3363    1.5318 H   0  0  0  0  0  0  0  0  0  0  0  0
    4.0517    1.5019    0.6157 H   0  0  0  0  0  0  0  0  0  0  0  0
    5.3073    3.3825   -0.1779 H   0  0  0  0  0  0  0  0  0  0  0  0
    8.6460    3.0841   -1.8761 H   0  0  0  0  0  0  0  0  0  0  0  0
    8.4788    5.0386   -3.0565 H   0  0  0  0  0  0  0  0  0  0  0  0
    7.8747    7.0886   -0.0564 H   0  0  0  0  0  0  0  0  0  0  0  0
    6.9000   10.5817   -2.3850 H   0  0  0  0  0  0  0  0  0  0  0  0
    7.3099    9.2900   -4.4704 H   0  0  0  0  0  0  0  0  0  0  0  0
    8.4795    0.7421   -1.4829 H   0  0  0  0  0  0  0  0  0  0  0  0
    7.1675   -1.1737   -0.6749 H   0  0  0  0  0  0  0  0  0  0  0  0
  1  2  1  0  0  0  0
  1 27  1  0  0  0  0
  1 28  1  0  0  0  0
  2  3  2  0  0  0  0
  2  4  1  0  0  0  0
  4  5  2  0  0  0  0
  4 29  1  0  0  0  0
  5  6  1  0  0  0  0
  5 30  1  0  0  0  0
  6  7  1  0  0  0  0
  6 26  2  0  0  0  0
  7  8  2  0  0  0  0
  7 31  1  0  0  0  0
  8  9  1  0  0  0  0
  8 32  1  0  0  0  0
  9 10  1  0  0  0  0
  9 25  2  0  0  0  0
 10 11  1  0  0  0  0
 10 33  1  0  0  0  0
 11 12  2  0  0  0  0
 11 13  1  0  0  0  0
 13 14  1  0  0  0  0
 13 34  1  0  0  0  0
 14 15  1  0  0  0  0
 14 23  2  0  0  0  0
 15 16  2  0  0  0  0
 15 35  1  0  0  0  0
 16 17  1  0  0  0  0
 16 21  1  0  0  0  0
 17 18  1  0  0  0  0
 17 19  1  0  0  0  0
 17 20  1  0  0  0  0
 21 22  2  0  0  0  0
 21 36  1  0  0  0  0
 22 23  1  0  0  0  0
 22 37  1  0  0  0  0
 23 24  1  0  0  0  0
 25 26  1  0  0  0  0
 25 38  1  0  0  0  0
 26 39  1  0  0  0  0
M  END
$$$$
