CHEMBL3694713
 OpenBabel04072215373D

 54 57  0  0  0  0  0  0  0  0999 V2000
    3.1294    0.7722   -3.3195 C   0  0  0  0  0  0  0  0  0  0  0  0
    4.0516    0.5487   -2.2611 O   0  0  0  0  0  0  0  0  0  0  0  0
    3.7606   -0.6677   -1.5691 C   0  0  0  0  0  0  0  0  0  0  0  0
    4.7669   -0.8894   -0.4674 C   0  0  0  0  0  0  0  0  0  0  0  0
    4.9345    0.0545    0.5254 C   0  0  0  0  0  0  0  0  0  0  0  0
    5.8594   -0.2318    1.5021 C   0  0  0  0  0  0  0  0  0  0  0  0
    6.0556    0.6462    2.5659 N   0  0  0  0  0  0  0  0  0  0  0  0
    6.5516   -1.3728    1.5329 N   0  0  0  0  0  0  0  0  0  0  0  0
    6.3186   -2.2513    0.5415 C   0  0  0  0  0  0  0  0  0  0  0  0
    7.0039   -3.5738    0.5879 C   0  0  0  0  0  0  0  0  0  0  0  0
    6.7576   -4.6095   -0.4241 C   0  0  0  0  0  0  0  0  0  0  0  0
    7.3321   -5.8169   -0.3121 C   0  0  0  0  0  0  0  0  0  0  0  0
    8.2132   -6.0784    0.7411 N   0  0  0  0  0  0  0  0  0  0  0  0
    8.9751   -7.2070    1.0550 C   0  0  0  0  0  0  0  0  0  0  0  0
    9.1209   -8.4370    0.2560 C   0  0  0  0  0  0  0  0  0  0  0  0
    9.0666   -8.3849   -1.1400 C   0  0  0  0  0  0  0  0  0  0  0  0
    9.2016   -9.5327   -1.9080 C   0  0  0  0  0  0  0  0  0  0  0  0
    9.4759  -10.7470   -1.2933 C   0  0  0  0  0  0  0  0  0  0  0  0
    9.6243  -10.8374    0.0916 C   0  0  0  0  0  0  0  0  0  0  0  0
   10.0093  -12.0441    0.7367 N   0  0  0  0  0  0  0  0  0  0  0  0
   10.3387  -13.2237    0.1020 C   0  0  0  0  0  0  0  0  0  0  0  0
   10.3521  -13.4327   -1.1073 O   0  0  0  0  0  0  0  0  0  0  0  0
   10.6282  -14.2494    0.9686 N   0  0  0  0  0  0  0  0  0  0  0  0
   10.9928  -15.5546    0.3879 C   0  0  0  0  0  0  0  0  0  0  0  0
   12.4552  -15.7233   -0.0570 C   0  0  0  0  0  0  0  0  0  0  0  0
   13.2195  -14.6565    0.2692 F   0  0  0  0  0  0  0  0  0  0  0  0
   13.0008  -16.7997    0.5656 F   0  0  0  0  0  0  0  0  0  0  0  0
   12.5691  -15.9336   -1.3852 F   0  0  0  0  0  0  0  0  0  0  0  0
    9.4067   -9.6811    0.8647 C   0  0  0  0  0  0  0  0  0  0  0  0
    9.5962   -6.8600    2.2463 C   0  0  0  0  0  0  0  0  0  0  0  0
    9.2879   -5.5902    2.6482 N   0  0  0  0  0  0  0  0  0  0  0  0
    8.4763   -5.1266    1.7253 C   0  0  0  0  0  0  0  0  0  0  0  0
    7.8426   -3.8542    1.6131 C   0  0  0  0  0  0  0  0  0  0  0  0
    5.4511   -2.0525   -0.4691 N   0  0  0  0  0  0  0  0  0  0  0  0
    3.3980    1.7062   -3.8201 H   0  0  0  0  0  0  0  0  0  0  0  0
    2.1134    0.8668   -2.9245 H   0  0  0  0  0  0  0  0  0  0  0  0
    3.1754   -0.0415   -4.0501 H   0  0  0  0  0  0  0  0  0  0  0  0
    3.7924   -1.5070   -2.2740 H   0  0  0  0  0  0  0  0  0  0  0  0
    2.7574   -0.6142   -1.1303 H   0  0  0  0  0  0  0  0  0  0  0  0
    4.3616    0.9723    0.5363 H   0  0  0  0  0  0  0  0  0  0  0  0
    6.2205    1.5971    2.2576 H   0  0  0  0  0  0  0  0  0  0  0  0
    6.8226    0.2858    3.1289 H   0  0  0  0  0  0  0  0  0  0  0  0
    6.0894   -4.3842   -1.2506 H   0  0  0  0  0  0  0  0  0  0  0  0
    7.1227   -6.5991   -1.0261 H   0  0  0  0  0  0  0  0  0  0  0  0
    8.9486   -7.4469   -1.6720 H   0  0  0  0  0  0  0  0  0  0  0  0
    9.1240   -9.4813   -2.9898 H   0  0  0  0  0  0  0  0  0  0  0  0
    9.5915  -11.6029   -1.9488 H   0  0  0  0  0  0  0  0  0  0  0  0
   10.0909  -12.0209    1.7369 H   0  0  0  0  0  0  0  0  0  0  0  0
   11.0272  -14.0086    1.8646 H   0  0  0  0  0  0  0  0  0  0  0  0
   10.3444  -15.7434   -0.4763 H   0  0  0  0  0  0  0  0  0  0  0  0
   10.7444  -16.3076    1.1392 H   0  0  0  0  0  0  0  0  0  0  0  0
    9.4798   -9.7384    1.9490 H   0  0  0  0  0  0  0  0  0  0  0  0
   10.2865   -7.4612    2.8245 H   0  0  0  0  0  0  0  0  0  0  0  0
    8.0543   -3.1358    2.3987 H   0  0  0  0  0  0  0  0  0  0  0  0
  1  2  1  0  0  0  0
  1 35  1  0  0  0  0
  1 36  1  0  0  0  0
  1 37  1  0  0  0  0
  2  3  1  0  0  0  0
  3  4  1  0  0  0  0
  3 38  1  0  0  0  0
  3 39  1  0  0  0  0
  4  5  1  0  0  0  0
  4 34  2  0  0  0  0
  5  6  2  0  0  0  0
  5 40  1  0  0  0  0
  6  7  1  0  0  0  0
  6  8  1  0  0  0  0
  7 41  1  0  0  0  0
  7 42  1  0  0  0  0
  8  9  2  0  0  0  0
  9 10  1  0  0  0  0
  9 34  1  0  0  0  0
 10 11  1  0  0  0  0
 10 33  2  0  0  0  0
 11 12  2  0  0  0  0
 11 43  1  0  0  0  0
 12 13  1  0  0  0  0
 12 44  1  0  0  0  0
 13 14  1  0  0  0  0
 13 32  1  0  0  0  0
 14 15  1  0  0  0  0
 14 30  2  0  0  0  0
 15 16  1  0  0  0  0
 15 29  2  0  0  0  0
 16 17  2  0  0  0  0
 16 45  1  0  0  0  0
 17 18  1  0  0  0  0
 17 46  1  0  0  0  0
 18 19  2  0  0  0  0
 18 47  1  0  0  0  0
 19 20  1  0  0  0  0
 19 29  1  0  0  0  0
 20 21  1  0  0  0  0
 20 48  1  0  0  0  0
 21 22  2  0  0  0  0
 21 23  1  0  0  0  0
 23 24  1  0  0  0  0
 23 49  1  0  0  0  0
 24 25  1  0  0  0  0
 24 50  1  0  0  0  0
 24 51  1  0  0  0  0
 25 26  1  0  0  0  0
 25 27  1  0  0  0  0
 25 28  1  0  0  0  0
 29 52  1  0  0  0  0
 30 31  1  0  0  0  0
 30 53  1  0  0  0  0
 31 32  2  0  0  0  0
 32 33  1  0  0  0  0
 33 54  1  0  0  0  0
M  END
$$$$
