CHEMBL3896274
 OpenBabel04072215373D

 49 52  0  0  0  0  0  0  0  0999 V2000
    2.3464   -0.6313    0.5654 C   0  0  0  0  0  0  0  0  0  0  0  0
    0.9992   -0.2439    0.0738 C   0  0  0  0  0  0  0  0  0  0  0  0
    0.5787    1.0537   -0.3292 C   0  0  0  0  0  0  0  0  0  0  0  0
   -0.7354    0.9398   -0.7095 C   0  0  0  0  0  0  0  0  0  0  0  0
   -1.1641   -0.3432   -0.5747 O   0  0  0  0  0  0  0  0  0  0  0  0
   -0.1078   -1.0696   -0.0861 C   0  0  0  0  0  0  0  0  0  0  0  0
   -0.2842   -2.4893    0.1789 C   0  0  0  0  0  0  0  0  0  0  0  0
    0.6225   -3.1655    0.6617 O   0  0  0  0  0  0  0  0  0  0  0  0
   -1.5321   -2.9799   -0.1861 N   0  0  0  0  0  0  0  0  0  0  0  0
   -1.9907   -4.3106   -0.0388 C   0  0  0  0  0  0  0  0  0  0  0  0
   -1.3206   -5.2547    0.7443 C   0  0  0  0  0  0  0  0  0  0  0  0
   -1.7458   -6.5809    0.7893 C   0  0  0  0  0  0  0  0  0  0  0  0
   -2.8715   -6.9710    0.0765 C   0  0  0  0  0  0  0  0  0  0  0  0
   -3.6337   -6.0124   -0.5953 C   0  0  0  0  0  0  0  0  0  0  0  0
   -4.8338   -6.2993   -1.2122 O   0  0  0  0  0  0  0  0  0  0  0  0
   -5.6662   -7.2544   -0.6572 C   0  0  0  0  0  0  0  0  0  0  0  0
   -5.7664   -7.4977    0.7159 C   0  0  0  0  0  0  0  0  0  0  0  0
   -6.5820   -8.5180    1.1644 C   0  0  0  0  0  0  0  0  0  0  0  0
   -7.3649   -9.2805    0.3838 N   0  0  0  0  0  0  0  0  0  0  0  0
   -7.3392   -8.9856   -0.9427 C   0  0  0  0  0  0  0  0  0  0  0  0
   -8.1407   -9.6304   -1.9265 C   0  0  0  0  0  0  0  0  0  0  0  0
   -7.9522   -9.1134   -3.1931 C   0  0  0  0  0  0  0  0  0  0  0  0
   -8.6450   -9.4236   -4.4267 C   0  0  0  0  0  0  0  0  0  0  0  0
   -8.5009   -8.8600   -5.5040 O   0  0  0  0  0  0  0  0  0  0  0  0
   -9.5667  -10.4053   -4.2019 O   0  0  0  0  0  0  0  0  0  0  0  0
  -10.6320  -10.4857   -5.1667 C   0  0  0  0  0  0  0  0  0  0  0  0
  -10.2136  -11.1540   -6.4729 C   0  0  0  0  0  0  0  0  0  0  0  0
   -9.7934  -12.4943   -6.2357 O   0  0  0  0  0  0  0  0  0  0  0  0
   -6.7473   -7.8975   -3.1915 S   0  0  0  0  0  0  0  0  0  0  0  0
   -6.5198   -7.9987   -1.4901 C   0  0  0  0  0  0  0  0  0  0  0  0
   -3.1693   -4.6930   -0.6928 C   0  0  0  0  0  0  0  0  0  0  0  0
    3.0328    0.2223    0.5501 H   0  0  0  0  0  0  0  0  0  0  0  0
    2.7769   -1.4158   -0.0644 H   0  0  0  0  0  0  0  0  0  0  0  0
    2.2938   -1.0019    1.5959 H   0  0  0  0  0  0  0  0  0  0  0  0
    1.1677    1.9609   -0.3378 H   0  0  0  0  0  0  0  0  0  0  0  0
   -1.4685    1.6418   -1.0820 H   0  0  0  0  0  0  0  0  0  0  0  0
   -2.1247   -2.3265   -0.6815 H   0  0  0  0  0  0  0  0  0  0  0  0
   -0.4532   -4.9907    1.3408 H   0  0  0  0  0  0  0  0  0  0  0  0
   -1.1977   -7.3039    1.3870 H   0  0  0  0  0  0  0  0  0  0  0  0
   -3.1633   -8.0172    0.0912 H   0  0  0  0  0  0  0  0  0  0  0  0
   -5.1935   -6.9264    1.4386 H   0  0  0  0  0  0  0  0  0  0  0  0
   -6.6192   -8.7610    2.2240 H   0  0  0  0  0  0  0  0  0  0  0  0
   -8.8530  -10.4115   -1.6905 H   0  0  0  0  0  0  0  0  0  0  0  0
  -11.0386   -9.4837   -5.3455 H   0  0  0  0  0  0  0  0  0  0  0  0
  -11.4195  -11.0791   -4.6896 H   0  0  0  0  0  0  0  0  0  0  0  0
   -9.3966  -10.6281   -6.9726 H   0  0  0  0  0  0  0  0  0  0  0  0
  -11.0669  -11.1860   -7.1575 H   0  0  0  0  0  0  0  0  0  0  0  0
   -9.0102  -12.4454   -5.6598 H   0  0  0  0  0  0  0  0  0  0  0  0
   -3.7331   -3.9816   -1.2901 H   0  0  0  0  0  0  0  0  0  0  0  0
  1  2  1  0  0  0  0
  1 32  1  0  0  0  0
  1 33  1  0  0  0  0
  1 34  1  0  0  0  0
  2  3  1  0  0  0  0
  2  6  2  0  0  0  0
  3  4  2  0  0  0  0
  3 35  1  0  0  0  0
  4  5  1  0  0  0  0
  4 36  1  0  0  0  0
  5  6  1  0  0  0  0
  6  7  1  0  0  0  0
  7  8  2  0  0  0  0
  7  9  1  0  0  0  0
  9 10  1  0  0  0  0
  9 37  1  0  0  0  0
 10 11  1  0  0  0  0
 10 31  2  0  0  0  0
 11 12  2  0  0  0  0
 11 38  1  0  0  0  0
 12 13  1  0  0  0  0
 12 39  1  0  0  0  0
 13 14  2  0  0  0  0
 13 40  1  0  0  0  0
 14 15  1  0  0  0  0
 14 31  1  0  0  0  0
 15 16  1  0  0  0  0
 16 17  1  0  0  0  0
 16 30  2  0  0  0  0
 17 18  2  0  0  0  0
 17 41  1  0  0  0  0
 18 19  1  0  0  0  0
 18 42  1  0  0  0  0
 19 20  2  0  0  0  0
 20 21  1  0  0  0  0
 20 30  1  0  0  0  0
 21 22  2  0  0  0  0
 21 43  1  0  0  0  0
 22 23  1  0  0  0  0
 22 29  1  0  0  0  0
 23 24  2  0  0  0  0
 23 25  1  0  0  0  0
 25 26  1  0  0  0  0
 26 27  1  0  0  0  0
 26 44  1  0  0  0  0
 26 45  1  0  0  0  0
 27 28  1  0  0  0  0
 27 46  1  0  0  0  0
 27 47  1  0  0  0  0
 28 48  1  0  0  0  0
 29 30  1  0  0  0  0
 31 49  1  0  0  0  0
M  END
$$$$
