CHEMBL210113
 OpenBabel04072215363D

 66 71  0  0  0  0  0  0  0  0999 V2000
    2.0102   -0.2339   -0.9845 C   0  0  0  0  0  0  0  0  0  0  0  0
    0.5796    0.0472   -1.0598 N   0  0  0  0  0  0  0  0  0  0  0  0
   -0.2081   -1.1468   -0.7124 C   0  0  0  0  0  0  0  0  0  0  0  0
   -1.7240   -0.8475   -0.7170 C   0  0  0  0  0  0  0  0  0  0  0  0
   -2.1302    0.2311    0.2115 N   0  0  0  0  0  0  0  0  0  0  0  0
   -1.9539   -0.1136    1.6341 C   0  0  0  0  0  0  0  0  0  0  0  0
   -2.7631   -1.3117    2.0913 C   0  0  0  0  0  0  0  0  0  0  0  0
   -2.2038   -2.6167    2.0240 C   0  0  0  0  0  0  0  0  0  0  0  0
   -2.9336   -3.7551    2.3739 C   0  0  0  0  0  0  0  0  0  0  0  0
   -4.2192   -3.5725    2.8397 C   0  0  0  0  0  0  0  0  0  0  0  0
   -4.7564   -2.2619    2.9542 C   0  0  0  0  0  0  0  0  0  0  0  0
   -4.0688   -1.1346    2.5694 C   0  0  0  0  0  0  0  0  0  0  0  0
   -6.0460   -2.4504    3.5085 C   0  0  0  0  0  0  0  0  0  0  0  0
   -7.1118   -1.7489    3.9151 N   0  0  0  0  0  0  0  0  0  0  0  0
   -8.1043   -2.5624    4.3539 N   0  0  0  0  0  0  0  0  0  0  0  0
   -7.6087   -3.8124    4.2177 C   0  0  0  0  0  0  0  0  0  0  0  0
   -8.4125   -5.0304    4.5360 C   0  0  0  0  0  0  0  0  0  0  0  0
   -7.9399   -6.3268    4.5176 C   0  0  0  0  0  0  0  0  0  0  0  0
   -8.9712   -7.2768    4.7703 C   0  0  0  0  0  0  0  0  0  0  0  0
  -10.1913   -6.6696    4.9778 C   0  0  0  0  0  0  0  0  0  0  0  0
  -11.5077   -7.3010    5.2347 C   0  0  0  0  0  0  0  0  0  0  0  0
  -12.1518   -7.5785    3.9722 N   0  0  0  0  0  0  0  0  0  0  0  0
  -13.3765   -8.1989    4.0466 C   0  0  0  0  0  0  0  0  0  0  0  0
  -13.8430   -8.5504    5.1239 O   0  0  0  0  0  0  0  0  0  0  0  0
  -13.9394   -8.4025    2.8081 N   0  0  0  0  0  0  0  0  0  0  0  0
  -15.1813   -9.0475    2.6108 C   0  0  0  0  0  0  0  0  0  0  0  0
  -16.1610   -9.1040    3.6068 C   0  0  0  0  0  0  0  0  0  0  0  0
  -17.3151   -9.8631    3.4321 C   0  0  0  0  0  0  0  0  0  0  0  0
  -17.5153  -10.5534    2.2402 C   0  0  0  0  0  0  0  0  0  0  0  0
  -16.5801  -10.4461    1.2110 C   0  0  0  0  0  0  0  0  0  0  0  0
  -15.4205   -9.6836    1.3885 C   0  0  0  0  0  0  0  0  0  0  0  0
  -10.0685   -4.9669    4.9379 S   0  0  0  0  0  0  0  0  0  0  0  0
   -6.3076   -3.7775    3.7049 C   0  0  0  0  0  0  0  0  0  0  0  0
   -5.2001   -4.6725    3.2765 C   0  0  0  0  0  0  0  0  0  0  0  0
   -1.3222    1.4269   -0.1324 C   0  0  0  0  0  0  0  0  0  0  0  0
    0.2105    1.1836   -0.1943 C   0  0  0  0  0  0  0  0  0  0  0  0
    2.2721   -1.0724   -1.6398 H   0  0  0  0  0  0  0  0  0  0  0  0
    2.3319   -0.4830    0.0334 H   0  0  0  0  0  0  0  0  0  0  0  0
    2.5883    0.6295   -1.3294 H   0  0  0  0  0  0  0  0  0  0  0  0
    0.0995   -1.5312    0.2674 H   0  0  0  0  0  0  0  0  0  0  0  0
   -0.0129   -1.9431   -1.4402 H   0  0  0  0  0  0  0  0  0  0  0  0
   -2.2926   -1.7647   -0.5340 H   0  0  0  0  0  0  0  0  0  0  0  0
   -2.0158   -0.5492   -1.7340 H   0  0  0  0  0  0  0  0  0  0  0  0
   -2.2783    0.7447    2.2394 H   0  0  0  0  0  0  0  0  0  0  0  0
   -0.9054   -0.2771    1.9067 H   0  0  0  0  0  0  0  0  0  0  0  0
   -1.1848   -2.7504    1.6702 H   0  0  0  0  0  0  0  0  0  0  0  0
   -2.4985   -4.7446    2.2828 H   0  0  0  0  0  0  0  0  0  0  0  0
   -4.5159   -0.1493    2.6321 H   0  0  0  0  0  0  0  0  0  0  0  0
   -7.2651   -0.7458    3.9240 H   0  0  0  0  0  0  0  0  0  0  0  0
   -6.9136   -6.6042    4.3209 H   0  0  0  0  0  0  0  0  0  0  0  0
   -8.8287   -8.3513    4.7838 H   0  0  0  0  0  0  0  0  0  0  0  0
  -12.1637   -6.6548    5.8308 H   0  0  0  0  0  0  0  0  0  0  0  0
  -11.3837   -8.2436    5.7815 H   0  0  0  0  0  0  0  0  0  0  0  0
  -12.0670   -6.8716    3.2550 H   0  0  0  0  0  0  0  0  0  0  0  0
  -13.2929   -8.3970    2.0325 H   0  0  0  0  0  0  0  0  0  0  0  0
  -16.0422   -8.5697    4.5453 H   0  0  0  0  0  0  0  0  0  0  0  0
  -18.0411   -9.9286    4.2374 H   0  0  0  0  0  0  0  0  0  0  0  0
  -18.3999  -11.1720    2.1167 H   0  0  0  0  0  0  0  0  0  0  0  0
  -16.7445  -10.9770    0.2775 H   0  0  0  0  0  0  0  0  0  0  0  0
  -14.6962   -9.6359    0.5810 H   0  0  0  0  0  0  0  0  0  0  0  0
   -5.4845   -5.2975    2.4253 H   0  0  0  0  0  0  0  0  0  0  0  0
   -4.7898   -5.2570    4.1023 H   0  0  0  0  0  0  0  0  0  0  0  0
   -1.5377    2.2426    0.5688 H   0  0  0  0  0  0  0  0  0  0  0  0
   -1.6563    1.7897   -1.1141 H   0  0  0  0  0  0  0  0  0  0  0  0
    0.5900    1.0293    0.8240 H   0  0  0  0  0  0  0  0  0  0  0  0
    0.6852    2.0948   -0.5772 H   0  0  0  0  0  0  0  0  0  0  0  0
  1  2  1  0  0  0  0
  1 37  1  0  0  0  0
  1 38  1  0  0  0  0
  1 39  1  0  0  0  0
  2  3  1  0  0  0  0
  2 36  1  0  0  0  0
  3  4  1  0  0  0  0
  3 40  1  0  0  0  0
  3 41  1  0  0  0  0
  4  5  1  0  0  0  0
  4 42  1  0  0  0  0
  4 43  1  0  0  0  0
  5  6  1  0  0  0  0
  5 35  1  0  0  0  0
  6  7  1  0  0  0  0
  6 44  1  0  0  0  0
  6 45  1  0  0  0  0
  7  8  1  0  0  0  0
  7 12  2  0  0  0  0
  8  9  2  0  0  0  0
  8 46  1  0  0  0  0
  9 10  1  0  0  0  0
  9 47  1  0  0  0  0
 10 11  2  0  0  0  0
 10 34  1  0  0  0  0
 11 12  1  0  0  0  0
 11 13  1  0  0  0  0
 12 48  1  0  0  0  0
 13 14  1  0  0  0  0
 13 33  2  0  0  0  0
 14 15  1  0  0  0  0
 14 49  1  0  0  0  0
 15 16  2  0  0  0  0
 16 17  1  0  0  0  0
 16 33  1  0  0  0  0
 17 18  2  0  0  0  0
 17 32  1  0  0  0  0
 18 19  1  0  0  0  0
 18 50  1  0  0  0  0
 19 20  2  0  0  0  0
 19 51  1  0  0  0  0
 20 21  1  0  0  0  0
 20 32  1  0  0  0  0
 21 22  1  0  0  0  0
 21 52  1  0  0  0  0
 21 53  1  0  0  0  0
 22 23  1  0  0  0  0
 22 54  1  0  0  0  0
 23 24  2  0  0  0  0
 23 25  1  0  0  0  0
 25 26  1  0  0  0  0
 25 55  1  0  0  0  0
 26 27  1  0  0  0  0
 26 31  2  0  0  0  0
 27 28  2  0  0  0  0
 27 56  1  0  0  0  0
 28 29  1  0  0  0  0
 28 57  1  0  0  0  0
 29 30  2  0  0  0  0
 29 58  1  0  0  0  0
 30 31  1  0  0  0  0
 30 59  1  0  0  0  0
 31 60  1  0  0  0  0
 33 34  1  0  0  0  0
 34 61  1  0  0  0  0
 34 62  1  0  0  0  0
 35 36  1  0  0  0  0
 35 63  1  0  0  0  0
 35 64  1  0  0  0  0
 36 65  1  0  0  0  0
 36 66  1  0  0  0  0
M  END
$$$$
