CHEMBL3906715
 OpenBabel04072215373D

 52 55  0  0  1  0  0  0  0  0999 V2000
    2.4591    1.2176    0.1986 C   0  0  0  0  0  0  0  0  0  0  0  0
    2.2334   -0.1177   -0.2557 O   0  0  0  0  0  0  0  0  0  0  0  0
    3.0576   -1.1030    0.2197 C   0  0  0  0  0  0  0  0  0  0  0  0
    4.2413   -0.8466    0.9135 C   0  0  0  0  0  0  0  0  0  0  0  0
    4.9880   -1.8948    1.4962 C   0  0  0  0  0  0  0  0  0  0  0  0
    6.1031   -1.7182    2.3227 C   0  0  0  0  0  0  0  0  0  0  0  0
    6.4906   -0.4011    2.6978 N   0  0  0  0  0  0  0  0  0  0  0  0
    7.7655   -0.1077    3.2241 C   0  0  0  0  0  0  0  0  0  0  0  0
    8.9101   -0.5861    2.5745 C   0  0  0  0  0  0  0  0  0  0  0  0
   10.1781   -0.4131    3.1269 C   0  0  0  0  0  0  0  0  0  0  0  0
   11.5113   -1.0903    2.2574 Cl  0  0  0  0  0  0  0  0  0  0  0  0
   10.3266    0.2677    4.3402 C   0  0  0  0  0  0  0  0  0  0  0  0
   11.8933    0.4364    5.0652 Cl  0  0  0  0  0  0  0  0  0  0  0  0
    9.1861    0.7960    4.9658 C   0  0  0  0  0  0  0  0  0  0  0  0
    9.2691    1.6668    6.4602 Cl  0  0  0  0  0  0  0  0  0  0  0  0
    7.9139    0.6176    4.4062 C   0  0  0  0  0  0  0  0  0  0  0  0
    6.8082   -2.7560    2.8125 N   0  0  0  0  0  0  0  0  0  0  0  0
    6.3838   -3.9787    2.4910 C   0  0  0  0  0  0  0  0  0  0  0  0
    5.3196   -4.2614    1.7364 N   0  0  0  0  0  0  0  0  0  0  0  0
    4.6352   -3.2173    1.2533 C   0  0  0  0  0  0  0  0  0  0  0  0
    3.5129   -3.4692    0.4899 C   0  0  0  0  0  0  0  0  0  0  0  0
    2.6818   -2.4411    0.0138 C   0  0  0  0  0  0  0  0  0  0  0  0
    1.4978   -2.7036   -0.6499 O   0  0  0  0  0  0  0  0  0  0  0  0
    0.9618   -4.0121   -0.3864 C   0  0  0  0  0  0  0  0  0  0  0  0
   -0.5184   -4.1543   -0.7675 C   0  0  3  0  0  0  0  0  0  0  0  0
   -1.4144   -3.1030   -0.0926 C   0  0  0  0  0  0  0  0  0  0  0  0
   -1.4508   -3.3079    1.3699 N   0  0  0  0  0  0  0  0  0  0  0  0
   -2.2513   -2.2756    2.0158 C   0  0  0  0  0  0  0  0  0  0  0  0
   -1.9756   -4.6583    1.6427 C   0  0  0  0  0  0  0  0  0  0  0  0
   -1.1329   -5.7342    0.9358 C   0  0  0  0  0  0  0  0  0  0  0  0
   -1.0040   -5.4890   -0.4760 O   0  0  0  0  0  0  0  0  0  0  0  0
    3.0905    1.7531   -0.5182 H   0  0  0  0  0  0  0  0  0  0  0  0
    2.8907    1.2829    1.2037 H   0  0  0  0  0  0  0  0  0  0  0  0
    1.4922    1.7256    0.2538 H   0  0  0  0  0  0  0  0  0  0  0  0
    4.6171    0.1650    1.0200 H   0  0  0  0  0  0  0  0  0  0  0  0
    5.7270    0.0267    3.2253 H   0  0  0  0  0  0  0  0  0  0  0  0
    8.7994   -1.1314    1.6381 H   0  0  0  0  0  0  0  0  0  0  0  0
    7.0411    1.0100    4.9228 H   0  0  0  0  0  0  0  0  0  0  0  0
    6.9429   -4.8168    2.8906 H   0  0  0  0  0  0  0  0  0  0  0  0
    3.2835   -4.5145    0.3063 H   0  0  0  0  0  0  0  0  0  0  0  0
    1.0751   -4.2446    0.6778 H   0  0  0  0  0  0  0  0  0  0  0  0
    1.5264   -4.7566   -0.9620 H   0  0  0  0  0  0  0  0  0  0  0  0
   -0.6064   -4.0246   -1.8527 H   0  0  0  0  0  0  0  0  0  0  0  0
   -2.4306   -3.1901   -0.5026 H   0  0  0  0  0  0  0  0  0  0  0  0
   -1.0485   -2.0980   -0.3325 H   0  0  0  0  0  0  0  0  0  0  0  0
   -1.8134   -1.2868    1.8277 H   0  0  0  0  0  0  0  0  0  0  0  0
   -2.2529   -2.4148    3.1006 H   0  0  0  0  0  0  0  0  0  0  0  0
   -3.2865   -2.2659    1.6619 H   0  0  0  0  0  0  0  0  0  0  0  0
   -3.0141   -4.7372    1.2968 H   0  0  0  0  0  0  0  0  0  0  0  0
   -1.9646   -4.8548    2.7211 H   0  0  0  0  0  0  0  0  0  0  0  0
   -1.6109   -6.7123    1.0568 H   0  0  0  0  0  0  0  0  0  0  0  0
   -0.1389   -5.8198    1.3888 H   0  0  0  0  0  0  0  0  0  0  0  0
  1  2  1  0  0  0  0
  1 32  1  0  0  0  0
  1 33  1  0  0  0  0
  1 34  1  0  0  0  0
  2  3  1  0  0  0  0
  3  4  1  0  0  0  0
  3 22  2  0  0  0  0
  4  5  2  0  0  0  0
  4 35  1  0  0  0  0
  5  6  1  0  0  0  0
  5 20  1  0  0  0  0
  6  7  1  0  0  0  0
  6 17  2  0  0  0  0
  7  8  1  0  0  0  0
  7 36  1  0  0  0  0
  8  9  1  0  0  0  0
  8 16  2  0  0  0  0
  9 10  2  0  0  0  0
  9 37  1  0  0  0  0
 10 11  1  0  0  0  0
 10 12  1  0  0  0  0
 12 13  1  0  0  0  0
 12 14  2  0  0  0  0
 14 15  1  0  0  0  0
 14 16  1  0  0  0  0
 16 38  1  0  0  0  0
 17 18  1  0  0  0  0
 18 19  2  0  0  0  0
 18 39  1  0  0  0  0
 19 20  1  0  0  0  0
 20 21  2  0  0  0  0
 21 22  1  0  0  0  0
 21 40  1  0  0  0  0
 22 23  1  0  0  0  0
 23 24  1  0  0  0  0
 24 25  1  0  0  0  0
 24 41  1  0  0  0  0
 24 42  1  0  0  0  0
 25 26  1  0  0  0  0
 25 31  1  0  0  0  0
 25 43  1  0  0  0  0
 26 27  1  0  0  0  0
 26 44  1  0  0  0  0
 26 45  1  0  0  0  0
 27 28  1  0  0  0  0
 27 29  1  0  0  0  0
 28 46  1  0  0  0  0
 28 47  1  0  0  0  0
 28 48  1  0  0  0  0
 29 30  1  0  0  0  0
 29 49  1  0  0  0  0
 29 50  1  0  0  0  0
 30 31  1  0  0  0  0
 30 51  1  0  0  0  0
 30 52  1  0  0  0  0
M  END
$$$$
