CHEMBL369751
 OpenBabel04072215373D

 43 45  0  0  0  0  0  0  0  0999 V2000
    1.0464   -0.3342    2.0613 C   0  0  0  0  0  0  0  0  0  0  0  0
    2.5441   -0.2545    1.8324 C   0  0  0  0  0  0  0  0  0  0  0  0
    3.1098   -1.5576    0.7520 S   0  0  0  0  0  0  0  0  0  0  0  0
    2.8016   -2.8332    1.3637 O   0  0  0  0  0  0  0  0  0  0  0  0
    2.6586   -1.2518   -0.5952 O   0  0  0  0  0  0  0  0  0  0  0  0
    4.8776   -1.3740    0.7628 C   0  0  0  0  0  0  0  0  0  0  0  0
    5.5204   -0.6136   -0.2135 C   0  0  0  0  0  0  0  0  0  0  0  0
    6.9191   -0.5764   -0.2509 C   0  0  0  0  0  0  0  0  0  0  0  0
    7.6775   -1.3012    0.6810 C   0  0  0  0  0  0  0  0  0  0  0  0
    9.0492   -1.3734    0.6659 O   0  0  0  0  0  0  0  0  0  0  0  0
    9.7419   -0.3201    0.0037 C   0  0  0  0  0  0  0  0  0  0  0  0
    7.0218   -2.0418    1.6909 C   0  0  0  0  0  0  0  0  0  0  0  0
    7.7605   -2.7701    2.6535 N   0  0  0  0  0  0  0  0  0  0  0  0
    7.3871   -2.8738    3.9419 C   0  0  0  0  0  0  0  0  0  0  0  0
    6.6238   -2.0701    4.6542 N   0  0  0  0  0  0  0  0  0  0  0  0
    6.5980   -2.6466    5.8925 C   0  0  0  0  0  0  0  0  0  0  0  0
    7.3338   -3.8108    5.8977 C   0  0  0  0  0  0  0  0  0  0  0  0
    7.6398   -4.8231    6.8982 C   0  0  0  0  0  0  0  0  0  0  0  0
    7.1056   -4.7120    8.1934 C   0  0  0  0  0  0  0  0  0  0  0  0
    7.3836   -5.6647    9.1753 C   0  0  0  0  0  0  0  0  0  0  0  0
    8.2040   -6.7498    8.8764 C   0  0  0  0  0  0  0  0  0  0  0  0
    8.7424   -6.8787    7.5970 C   0  0  0  0  0  0  0  0  0  0  0  0
    8.4627   -5.9238    6.6152 C   0  0  0  0  0  0  0  0  0  0  0  0
    7.8574   -3.9581    4.6343 O   0  0  0  0  0  0  0  0  0  0  0  0
    5.6190   -2.0831    1.7052 C   0  0  0  0  0  0  0  0  0  0  0  0
    0.7164    0.4781    2.7151 H   0  0  0  0  0  0  0  0  0  0  0  0
    0.7703   -1.2831    2.5323 H   0  0  0  0  0  0  0  0  0  0  0  0
    0.4974   -0.2593    1.1172 H   0  0  0  0  0  0  0  0  0  0  0  0
    3.0763   -0.3511    2.7839 H   0  0  0  0  0  0  0  0  0  0  0  0
    2.8080    0.7005    1.3664 H   0  0  0  0  0  0  0  0  0  0  0  0
    4.9476   -0.0733   -0.9650 H   0  0  0  0  0  0  0  0  0  0  0  0
    7.3889    0.0024   -1.0393 H   0  0  0  0  0  0  0  0  0  0  0  0
   10.8147   -0.4738    0.1609 H   0  0  0  0  0  0  0  0  0  0  0  0
    9.4784    0.6541    0.4292 H   0  0  0  0  0  0  0  0  0  0  0  0
    9.5690   -0.3377   -1.0775 H   0  0  0  0  0  0  0  0  0  0  0  0
    8.3092   -3.5180    2.2501 H   0  0  0  0  0  0  0  0  0  0  0  0
    6.0536   -2.1981    6.7106 H   0  0  0  0  0  0  0  0  0  0  0  0
    6.4599   -3.8776    8.4608 H   0  0  0  0  0  0  0  0  0  0  0  0
    6.9613   -5.5589   10.1693 H   0  0  0  0  0  0  0  0  0  0  0  0
    8.4220   -7.4922    9.6397 H   0  0  0  0  0  0  0  0  0  0  0  0
    9.3834   -7.7259    7.3641 H   0  0  0  0  0  0  0  0  0  0  0  0
    8.8950   -6.0466    5.6257 H   0  0  0  0  0  0  0  0  0  0  0  0
    5.1071   -2.6977    2.4425 H   0  0  0  0  0  0  0  0  0  0  0  0
  1  2  1  0  0  0  0
  1 26  1  0  0  0  0
  1 27  1  0  0  0  0
  1 28  1  0  0  0  0
  2  3  1  0  0  0  0
  2 29  1  0  0  0  0
  2 30  1  0  0  0  0
  3  4  2  0  0  0  0
  3  5  2  0  0  0  0
  3  6  1  0  0  0  0
  6  7  1  0  0  0  0
  6 25  2  0  0  0  0
  7  8  2  0  0  0  0
  7 31  1  0  0  0  0
  8  9  1  0  0  0  0
  8 32  1  0  0  0  0
  9 10  1  0  0  0  0
  9 12  2  0  0  0  0
 10 11  1  0  0  0  0
 11 33  1  0  0  0  0
 11 34  1  0  0  0  0
 11 35  1  0  0  0  0
 12 13  1  0  0  0  0
 12 25  1  0  0  0  0
 13 14  1  0  0  0  0
 13 36  1  0  0  0  0
 14 15  2  0  0  0  0
 14 24  1  0  0  0  0
 15 16  1  0  0  0  0
 16 17  2  0  0  0  0
 16 37  1  0  0  0  0
 17 18  1  0  0  0  0
 17 24  1  0  0  0  0
 18 19  1  0  0  0  0
 18 23  2  0  0  0  0
 19 20  2  0  0  0  0
 19 38  1  0  0  0  0
 20 21  1  0  0  0  0
 20 39  1  0  0  0  0
 21 22  2  0  0  0  0
 21 40  1  0  0  0  0
 22 23  1  0  0  0  0
 22 41  1  0  0  0  0
 23 42  1  0  0  0  0
 25 43  1  0  0  0  0
M  END
$$$$
