CHEMBL3099469
 OpenBabel04072215363D

 81 84  0  0  0  0  0  0  0  0999 V2000
   -2.8416    0.7743   -5.2178 C   0  0  0  0  0  0  0  0  0  0  0  0
   -2.6865    0.2703   -3.8970 O   0  0  0  0  0  0  0  0  0  0  0  0
   -1.7078   -0.6656   -3.6894 C   0  0  0  0  0  0  0  0  0  0  0  0
   -0.5727   -0.7823   -4.5040 C   0  0  0  0  0  0  0  0  0  0  0  0
    0.5340   -1.6092   -4.1860 C   0  0  0  0  0  0  0  0  0  0  0  0
    1.7604   -1.6047   -5.0520 C   0  0  0  0  0  0  0  0  0  0  0  0
    2.0856   -0.4008   -5.7221 C   0  0  0  0  0  0  0  0  0  0  0  0
    3.1544   -0.2945   -6.6131 C   0  0  0  0  0  0  0  0  0  0  0  0
    3.3843    0.9149   -7.3014 N   0  0  0  0  0  0  0  0  0  0  0  0
    3.5849    2.0790   -6.5730 C   0  0  0  0  0  0  0  0  0  0  0  0
    3.6085    2.1305   -5.3573 O   0  0  0  0  0  0  0  0  0  0  0  0
    3.7377    3.1746   -7.4093 N   0  0  0  0  0  0  0  0  0  0  0  0
    3.9986    4.4498   -6.8531 C   0  0  0  0  0  0  0  0  0  0  0  0
    5.0773    4.6117   -5.9707 C   0  0  0  0  0  0  0  0  0  0  0  0
    5.3345    5.8478   -5.3725 C   0  0  0  0  0  0  0  0  0  0  0  0
    4.5186    6.9338   -5.6646 C   0  0  0  0  0  0  0  0  0  0  0  0
    4.6277    8.1721   -5.1020 O   0  0  0  0  0  0  0  0  0  0  0  0
    5.9365    8.5845   -4.7005 C   0  0  0  0  0  0  0  0  0  0  0  0
    5.9803   10.1146   -4.7683 C   0  0  0  0  0  0  0  0  0  0  0  0
    5.6892   10.5870   -6.2006 C   0  0  0  0  0  0  0  0  0  0  0  0
    5.7992   12.0386   -6.4179 N   0  0  0  0  0  0  0  0  0  0  0  0
    4.8129   12.8470   -5.6671 C   0  0  0  0  0  0  0  0  0  0  0  0
    3.3701   12.8194   -6.2124 C   0  0  0  0  0  0  0  0  0  0  0  0
    3.3013   13.0614   -7.6240 O   0  0  0  0  0  0  0  0  0  0  0  0
    4.1731   12.1829   -8.3427 C   0  0  0  0  0  0  0  0  0  0  0  0
    5.6227   12.3509   -7.8581 C   0  0  0  0  0  0  0  0  0  0  0  0
    3.4428    6.7760   -6.5434 C   0  0  0  0  0  0  0  0  0  0  0  0
    3.1700    5.5406   -7.1533 C   0  0  0  0  0  0  0  0  0  0  0  0
    1.9157    5.3920   -7.9663 C   0  0  0  0  0  0  0  0  0  0  0  0
    3.9762   -1.3853   -6.8319 C   0  0  0  0  0  0  0  0  0  0  0  0
    3.7485   -2.5764   -6.1319 C   0  0  0  0  0  0  0  0  0  0  0  0
    4.5561   -3.6593   -6.3839 O   0  0  0  0  0  0  0  0  0  0  0  0
    5.9541   -3.3889   -6.2737 C   0  0  0  0  0  0  0  0  0  0  0  0
    2.6335   -2.7097   -5.2620 C   0  0  0  0  0  0  0  0  0  0  0  0
    2.2914   -3.8893   -4.6380 O   0  0  0  0  0  0  0  0  0  0  0  0
    3.3442   -4.7883   -4.2993 C   0  0  0  0  0  0  0  0  0  0  0  0
    0.4310   -2.3471   -2.9982 C   0  0  0  0  0  0  0  0  0  0  0  0
   -0.7222   -2.2928   -2.2018 C   0  0  0  0  0  0  0  0  0  0  0  0
   -1.8013   -1.4695   -2.5556 C   0  0  0  0  0  0  0  0  0  0  0  0
   -3.0207   -1.5228   -1.6909 C   0  0  0  0  0  0  0  0  0  0  0  0
   -4.3893   -1.3176   -2.2974 C   0  0  0  0  0  0  0  0  0  0  0  0
   -2.8990   -1.8057   -0.4969 O   0  0  0  0  0  0  0  0  0  0  0  0
   -3.7448    1.3918   -5.2350 H   0  0  0  0  0  0  0  0  0  0  0  0
   -2.9804   -0.0447   -5.9308 H   0  0  0  0  0  0  0  0  0  0  0  0
   -2.0018    1.4155   -5.5056 H   0  0  0  0  0  0  0  0  0  0  0  0
   -0.5219   -0.1847   -5.4101 H   0  0  0  0  0  0  0  0  0  0  0  0
    1.4807    0.4902   -5.5627 H   0  0  0  0  0  0  0  0  0  0  0  0
    3.9556    0.8680   -8.1335 H   0  0  0  0  0  0  0  0  0  0  0  0
    3.1261    3.1448   -8.2121 H   0  0  0  0  0  0  0  0  0  0  0  0
    5.7151    3.7658   -5.7232 H   0  0  0  0  0  0  0  0  0  0  0  0
    6.1484    5.9229   -4.6589 H   0  0  0  0  0  0  0  0  0  0  0  0
    6.7131    8.1733   -5.3576 H   0  0  0  0  0  0  0  0  0  0  0  0
    6.1177    8.2507   -3.6727 H   0  0  0  0  0  0  0  0  0  0  0  0
    6.9624   10.4697   -4.4370 H   0  0  0  0  0  0  0  0  0  0  0  0
    5.2239   10.5133   -4.0838 H   0  0  0  0  0  0  0  0  0  0  0  0
    4.7061   10.2173   -6.5081 H   0  0  0  0  0  0  0  0  0  0  0  0
    6.4274   10.0969   -6.8506 H   0  0  0  0  0  0  0  0  0  0  0  0
    5.1641   13.8864   -5.7139 H   0  0  0  0  0  0  0  0  0  0  0  0
    4.8118   12.5949   -4.6019 H   0  0  0  0  0  0  0  0  0  0  0  0
    2.7938   13.6173   -5.7309 H   0  0  0  0  0  0  0  0  0  0  0  0
    2.8727   11.8704   -5.9851 H   0  0  0  0  0  0  0  0  0  0  0  0
    4.1043   12.4406   -9.4041 H   0  0  0  0  0  0  0  0  0  0  0  0
    3.8146   11.1515   -8.2425 H   0  0  0  0  0  0  0  0  0  0  0  0
    5.9197   13.3973   -8.0097 H   0  0  0  0  0  0  0  0  0  0  0  0
    6.3034   11.7466   -8.4691 H   0  0  0  0  0  0  0  0  0  0  0  0
    2.7919    7.6288   -6.7249 H   0  0  0  0  0  0  0  0  0  0  0  0
    1.4146    6.3541   -8.1143 H   0  0  0  0  0  0  0  0  0  0  0  0
    1.2162    4.7331   -7.4396 H   0  0  0  0  0  0  0  0  0  0  0  0
    2.1334    4.9777   -8.9548 H   0  0  0  0  0  0  0  0  0  0  0  0
    4.8153   -1.3008   -7.5131 H   0  0  0  0  0  0  0  0  0  0  0  0
    6.4478   -4.3188   -5.9731 H   0  0  0  0  0  0  0  0  0  0  0  0
    6.1832   -2.6308   -5.5155 H   0  0  0  0  0  0  0  0  0  0  0  0
    6.3547   -3.0948   -7.2481 H   0  0  0  0  0  0  0  0  0  0  0  0
    2.9835   -5.4486   -3.5047 H   0  0  0  0  0  0  0  0  0  0  0  0
    4.2259   -4.2668   -3.9100 H   0  0  0  0  0  0  0  0  0  0  0  0
    3.5954   -5.4291   -5.1505 H   0  0  0  0  0  0  0  0  0  0  0  0
    1.2531   -2.9740   -2.6607 H   0  0  0  0  0  0  0  0  0  0  0  0
   -0.7690   -2.8956   -1.2966 H   0  0  0  0  0  0  0  0  0  0  0  0
   -4.3709   -1.2506   -3.3858 H   0  0  0  0  0  0  0  0  0  0  0  0
   -4.8325   -0.4075   -1.8858 H   0  0  0  0  0  0  0  0  0  0  0  0
   -5.0131   -2.1813   -2.0530 H   0  0  0  0  0  0  0  0  0  0  0  0
  1  2  1  0  0  0  0
  1 43  1  0  0  0  0
  1 44  1  0  0  0  0
  1 45  1  0  0  0  0
  2  3  1  0  0  0  0
  3  4  1  0  0  0  0
  3 39  2  0  0  0  0
  4  5  2  0  0  0  0
  4 46  1  0  0  0  0
  5  6  1  0  0  0  0
  5 37  1  0  0  0  0
  6  7  1  0  0  0  0
  6 34  2  0  0  0  0
  7  8  2  0  0  0  0
  7 47  1  0  0  0  0
  8  9  1  0  0  0  0
  8 30  1  0  0  0  0
  9 10  1  0  0  0  0
  9 48  1  0  0  0  0
 10 11  2  0  0  0  0
 10 12  1  0  0  0  0
 12 13  1  0  0  0  0
 12 49  1  0  0  0  0
 13 14  1  0  0  0  0
 13 28  2  0  0  0  0
 14 15  2  0  0  0  0
 14 50  1  0  0  0  0
 15 16  1  0  0  0  0
 15 51  1  0  0  0  0
 16 17  1  0  0  0  0
 16 27  2  0  0  0  0
 17 18  1  0  0  0  0
 18 19  1  0  0  0  0
 18 52  1  0  0  0  0
 18 53  1  0  0  0  0
 19 20  1  0  0  0  0
 19 54  1  0  0  0  0
 19 55  1  0  0  0  0
 20 21  1  0  0  0  0
 20 56  1  0  0  0  0
 20 57  1  0  0  0  0
 21 22  1  0  0  0  0
 21 26  1  0  0  0  0
 22 23  1  0  0  0  0
 22 58  1  0  0  0  0
 22 59  1  0  0  0  0
 23 24  1  0  0  0  0
 23 60  1  0  0  0  0
 23 61  1  0  0  0  0
 24 25  1  0  0  0  0
 25 26  1  0  0  0  0
 25 62  1  0  0  0  0
 25 63  1  0  0  0  0
 26 64  1  0  0  0  0
 26 65  1  0  0  0  0
 27 28  1  0  0  0  0
 27 66  1  0  0  0  0
 28 29  1  0  0  0  0
 29 67  1  0  0  0  0
 29 68  1  0  0  0  0
 29 69  1  0  0  0  0
 30 31  2  0  0  0  0
 30 70  1  0  0  0  0
 31 32  1  0  0  0  0
 31 34  1  0  0  0  0
 32 33  1  0  0  0  0
 33 71  1  0  0  0  0
 33 72  1  0  0  0  0
 33 73  1  0  0  0  0
 34 35  1  0  0  0  0
 35 36  1  0  0  0  0
 36 74  1  0  0  0  0
 36 75  1  0  0  0  0
 36 76  1  0  0  0  0
 37 38  2  0  0  0  0
 37 77  1  0  0  0  0
 38 39  1  0  0  0  0
 38 78  1  0  0  0  0
 39 40  1  0  0  0  0
 40 41  1  0  0  0  0
 40 42  2  0  0  0  0
 41 79  1  0  0  0  0
 41 80  1  0  0  0  0
 41 81  1  0  0  0  0
M  END
$$$$
