CHEMBL3676340
 OpenBabel04072215373D

 50 52  0  0  0  0  0  0  0  0999 V2000
    3.7620    3.9995   -0.2503 C   0  0  0  0  0  0  0  0  0  0  0  0
    3.6778    3.0419    0.6795 C   0  0  0  0  0  0  0  0  0  0  0  0
    3.7889    1.6172    0.2658 C   0  0  0  0  0  0  0  0  0  0  0  0
    3.3892    1.2201   -0.8239 O   0  0  0  0  0  0  0  0  0  0  0  0
    4.4086    0.7546    1.1388 N   0  0  0  0  0  0  0  0  0  0  0  0
    5.1934    1.1825    2.2220 C   0  0  0  0  0  0  0  0  0  0  0  0
    6.3996    1.8178    1.9313 C   0  0  0  0  0  0  0  0  0  0  0  0
    7.1106    2.4932    2.9408 C   0  0  0  0  0  0  0  0  0  0  0  0
    8.2843    3.2278    2.7159 C   0  0  0  0  0  0  0  0  0  0  0  0
    8.7748    3.3772    1.3871 N   0  0  0  0  0  0  0  0  0  0  0  0
   10.0907    3.8226    1.1061 C   0  0  0  0  0  0  0  0  0  0  0  0
   11.2115    3.2376    1.7117 C   0  0  0  0  0  0  0  0  0  0  0  0
   11.0692    2.1616    2.5006 F   0  0  0  0  0  0  0  0  0  0  0  0
   12.4946    3.7352    1.5062 C   0  0  0  0  0  0  0  0  0  0  0  0
   12.6735    4.8283    0.6645 C   0  0  0  0  0  0  0  0  0  0  0  0
   14.4034    5.5526    0.4353 Br  0  0  0  0  0  0  0  0  0  0  0  0
   11.5893    5.3967   -0.0005 C   0  0  0  0  0  0  0  0  0  0  0  0
   10.3130    4.8834    0.2216 C   0  0  0  0  0  0  0  0  0  0  0  0
    9.2692    5.4446   -0.4102 F   0  0  0  0  0  0  0  0  0  0  0  0
    8.9372    3.8496    3.7129 N   0  0  0  0  0  0  0  0  0  0  0  0
    8.4133    3.7332    4.9364 C   0  0  0  0  0  0  0  0  0  0  0  0
    7.2863    3.0841    5.2556 N   0  0  0  0  0  0  0  0  0  0  0  0
    6.6408    2.4662    4.2618 C   0  0  0  0  0  0  0  0  0  0  0  0
    5.4568    1.7820    4.5355 C   0  0  0  0  0  0  0  0  0  0  0  0
    4.7257    1.1209    3.5400 C   0  0  0  0  0  0  0  0  0  0  0  0
    3.5558    0.5248    3.9572 O   0  0  0  0  0  0  0  0  0  0  0  0
    3.2689   -0.7308    3.3255 C   0  0  0  0  0  0  0  0  0  0  0  0
    2.1196   -1.4637    4.0233 C   0  0  0  0  0  0  0  0  0  0  0  0
    1.7705   -2.6899    3.3147 N   0  0  0  0  0  0  0  0  0  0  0  0
    2.4851   -3.8519    3.4967 C   0  0  0  0  0  0  0  0  0  0  0  0
    2.1024   -4.9753    2.5687 C   0  0  0  0  0  0  0  0  0  0  0  0
    3.3640   -3.9775    4.3421 O   0  0  0  0  0  0  0  0  0  0  0  0
    3.7446    5.0483    0.0261 H   0  0  0  0  0  0  0  0  0  0  0  0
    3.8664    3.7557   -1.3047 H   0  0  0  0  0  0  0  0  0  0  0  0
    3.5908    3.2818    1.7328 H   0  0  0  0  0  0  0  0  0  0  0  0
    4.7429   -0.0592    0.6329 H   0  0  0  0  0  0  0  0  0  0  0  0
    6.7612    1.8333    0.9050 H   0  0  0  0  0  0  0  0  0  0  0  0
    8.0900    3.8978    0.8407 H   0  0  0  0  0  0  0  0  0  0  0  0
   13.3277    3.2640    2.0179 H   0  0  0  0  0  0  0  0  0  0  0  0
   11.7160    6.2394   -0.6722 H   0  0  0  0  0  0  0  0  0  0  0  0
    8.9502    4.2194    5.7437 H   0  0  0  0  0  0  0  0  0  0  0  0
    5.0882    1.7739    5.5601 H   0  0  0  0  0  0  0  0  0  0  0  0
    4.1639   -1.3648    3.3143 H   0  0  0  0  0  0  0  0  0  0  0  0
    2.9271   -0.5627    2.3020 H   0  0  0  0  0  0  0  0  0  0  0  0
    1.2244   -0.8323    4.0427 H   0  0  0  0  0  0  0  0  0  0  0  0
    2.3812   -1.6950    5.0610 H   0  0  0  0  0  0  0  0  0  0  0  0
    1.1336   -2.6226    2.5304 H   0  0  0  0  0  0  0  0  0  0  0  0
    1.5265   -4.6149    1.7119 H   0  0  0  0  0  0  0  0  0  0  0  0
    1.5093   -5.7129    3.1151 H   0  0  0  0  0  0  0  0  0  0  0  0
    3.0138   -5.4467    2.1878 H   0  0  0  0  0  0  0  0  0  0  0  0
  1  2  2  0  0  0  0
  1 33  1  0  0  0  0
  1 34  1  0  0  0  0
  2  3  1  0  0  0  0
  2 35  1  0  0  0  0
  3  4  2  0  0  0  0
  3  5  1  0  0  0  0
  5  6  1  0  0  0  0
  5 36  1  0  0  0  0
  6  7  1  0  0  0  0
  6 25  2  0  0  0  0
  7  8  2  0  0  0  0
  7 37  1  0  0  0  0
  8  9  1  0  0  0  0
  8 23  1  0  0  0  0
  9 10  1  0  0  0  0
  9 20  2  0  0  0  0
 10 11  1  0  0  0  0
 10 38  1  0  0  0  0
 11 12  1  0  0  0  0
 11 18  2  0  0  0  0
 12 13  1  0  0  0  0
 12 14  2  0  0  0  0
 14 15  1  0  0  0  0
 14 39  1  0  0  0  0
 15 16  1  0  0  0  0
 15 17  2  0  0  0  0
 17 18  1  0  0  0  0
 17 40  1  0  0  0  0
 18 19  1  0  0  0  0
 20 21  1  0  0  0  0
 21 22  2  0  0  0  0
 21 41  1  0  0  0  0
 22 23  1  0  0  0  0
 23 24  2  0  0  0  0
 24 25  1  0  0  0  0
 24 42  1  0  0  0  0
 25 26  1  0  0  0  0
 26 27  1  0  0  0  0
 27 28  1  0  0  0  0
 27 43  1  0  0  0  0
 27 44  1  0  0  0  0
 28 29  1  0  0  0  0
 28 45  1  0  0  0  0
 28 46  1  0  0  0  0
 29 30  1  0  0  0  0
 29 47  1  0  0  0  0
 30 31  1  0  0  0  0
 30 32  2  0  0  0  0
 31 48  1  0  0  0  0
 31 49  1  0  0  0  0
 31 50  1  0  0  0  0
M  END
$$$$
