CHEMBL1289926
 OpenBabel04072215363D

 46 49  0  0  0  0  0  0  0  0999 V2000
    4.4765    0.2370   -7.3138 C   0  0  0  0  0  0  0  0  0  0  0  0
    4.7143    0.1067   -5.9023 N   0  0  0  0  0  0  0  0  0  0  0  0
    4.1778   -0.9435   -5.1753 C   0  0  0  0  0  0  0  0  0  0  0  0
    3.4571   -1.7985   -5.6811 O   0  0  0  0  0  0  0  0  0  0  0  0
    4.5993   -1.0524   -3.7488 C   0  0  0  0  0  0  0  0  0  0  0  0
    4.8098   -2.3697   -3.2865 C   0  0  0  0  0  0  0  0  0  0  0  0
    5.2718   -2.6169   -1.9884 C   0  0  0  0  0  0  0  0  0  0  0  0
    5.5286   -1.5437   -1.1464 C   0  0  0  0  0  0  0  0  0  0  0  0
    5.3049   -0.2407   -1.5836 C   0  0  0  0  0  0  0  0  0  0  0  0
    4.8240    0.0253   -2.8751 C   0  0  0  0  0  0  0  0  0  0  0  0
    4.6218    1.7592   -3.2759 S   0  0  0  0  0  0  0  0  0  0  0  0
    2.9004    2.0432   -2.8850 C   0  0  0  0  0  0  0  0  0  0  0  0
    2.4414    2.1624   -1.5621 C   0  0  0  0  0  0  0  0  0  0  0  0
    1.0757    2.3882   -1.2737 C   0  0  0  0  0  0  0  0  0  0  0  0
    0.2041    2.6405   -2.3510 C   0  0  0  0  0  0  0  0  0  0  0  0
   -1.1922    2.8687   -2.6217 C   0  0  0  0  0  0  0  0  0  0  0  0
   -2.2293    1.8658   -2.8505 C   0  0  0  0  0  0  0  0  0  0  0  0
   -1.9777    0.5767   -3.1572 C   0  0  0  0  0  0  0  0  0  0  0  0
   -2.7474   -0.1519   -4.2001 C   0  0  0  0  0  0  0  0  0  0  0  0
   -2.4335   -1.4760   -4.4945 C   0  0  0  0  0  0  0  0  0  0  0  0
   -2.9780   -2.0722   -5.6306 C   0  0  0  0  0  0  0  0  0  0  0  0
   -3.8113   -1.3240   -6.4607 C   0  0  0  0  0  0  0  0  0  0  0  0
   -4.0792   -0.0178   -6.0941 C   0  0  0  0  0  0  0  0  0  0  0  0
   -3.5735    0.5767   -4.9878 N   0  0  0  0  0  0  0  0  0  0  0  0
   -1.2148    3.8474   -3.5519 N   0  0  0  0  0  0  0  0  0  0  0  0
   -0.1684    3.4917   -4.3219 N   0  0  0  0  0  0  0  0  0  0  0  0
    0.7690    2.7701   -3.6174 C   0  0  0  0  0  0  0  0  0  0  0  0
    2.0450    2.3295   -3.9509 C   0  0  0  0  0  0  0  0  0  0  0  0
    4.8149    1.2236   -7.6209 H   0  0  0  0  0  0  0  0  0  0  0  0
    3.4096    0.1231   -7.5215 H   0  0  0  0  0  0  0  0  0  0  0  0
    5.0375   -0.5354   -7.8436 H   0  0  0  0  0  0  0  0  0  0  0  0
    5.3632    0.7304   -5.4457 H   0  0  0  0  0  0  0  0  0  0  0  0
    4.6301   -3.2203   -3.9504 H   0  0  0  0  0  0  0  0  0  0  0  0
    5.4437   -3.6351   -1.6555 H   0  0  0  0  0  0  0  0  0  0  0  0
    5.9108   -1.7231   -0.1387 H   0  0  0  0  0  0  0  0  0  0  0  0
    5.5256    0.5800   -0.9007 H   0  0  0  0  0  0  0  0  0  0  0  0
    3.1505    2.1052   -0.7369 H   0  0  0  0  0  0  0  0  0  0  0  0
    0.7406    2.4844   -0.2442 H   0  0  0  0  0  0  0  0  0  0  0  0
   -3.1648    2.2998   -3.2085 H   0  0  0  0  0  0  0  0  0  0  0  0
   -1.0328    0.1167   -2.8853 H   0  0  0  0  0  0  0  0  0  0  0  0
   -1.7393   -2.0382   -3.8784 H   0  0  0  0  0  0  0  0  0  0  0  0
   -2.7235   -3.0916   -5.8959 H   0  0  0  0  0  0  0  0  0  0  0  0
   -4.2304   -1.7469   -7.3669 H   0  0  0  0  0  0  0  0  0  0  0  0
   -4.7119    0.6147   -6.7140 H   0  0  0  0  0  0  0  0  0  0  0  0
   -0.1004    3.8533   -5.2563 H   0  0  0  0  0  0  0  0  0  0  0  0
    2.3844    2.3225   -4.9809 H   0  0  0  0  0  0  0  0  0  0  0  0
  1  2  1  0  0  0  0
  1 29  1  0  0  0  0
  1 30  1  0  0  0  0
  1 31  1  0  0  0  0
  2  3  1  0  0  0  0
  2 32  1  0  0  0  0
  3  4  2  0  0  0  0
  3  5  1  0  0  0  0
  5  6  1  0  0  0  0
  5 10  2  0  0  0  0
  6  7  2  0  0  0  0
  6 33  1  0  0  0  0
  7  8  1  0  0  0  0
  7 34  1  0  0  0  0
  8  9  2  0  0  0  0
  8 35  1  0  0  0  0
  9 10  1  0  0  0  0
  9 36  1  0  0  0  0
 10 11  1  0  0  0  0
 11 12  1  0  0  0  0
 12 13  1  0  0  0  0
 12 28  2  0  0  0  0
 13 14  2  0  0  0  0
 13 37  1  0  0  0  0
 14 15  1  0  0  0  0
 14 38  1  0  0  0  0
 15 16  1  0  0  0  0
 15 27  2  0  0  0  0
 16 17  1  0  0  0  0
 16 25  2  0  0  0  0
 17 18  2  0  0  0  0
 17 39  1  0  0  0  0
 18 19  1  0  0  0  0
 18 40  1  0  0  0  0
 19 20  1  0  0  0  0
 19 24  2  0  0  0  0
 20 21  2  0  0  0  0
 20 41  1  0  0  0  0
 21 22  1  0  0  0  0
 21 42  1  0  0  0  0
 22 23  2  0  0  0  0
 22 43  1  0  0  0  0
 23 24  1  0  0  0  0
 23 44  1  0  0  0  0
 25 26  1  0  0  0  0
 26 27  1  0  0  0  0
 26 45  1  0  0  0  0
 27 28  1  0  0  0  0
 28 46  1  0  0  0  0
M  END
$$$$
