CHEMBL2018751
 OpenBabel04072215363D

 44 46  0  0  0  0  0  0  0  0999 V2000
    5.0721   -7.7288   -2.8783 C   0  0  0  0  0  0  0  0  0  0  0  0
    4.5625   -6.7258   -3.7632 O   0  0  0  0  0  0  0  0  0  0  0  0
    5.4247   -5.6818   -3.8977 C   0  0  0  0  0  0  0  0  0  0  0  0
    6.5034   -5.6311   -3.3271 O   0  0  0  0  0  0  0  0  0  0  0  0
    4.8761   -4.7361   -4.7150 N   0  0  0  0  0  0  0  0  0  0  0  0
    5.4879   -3.5258   -5.1162 C   0  0  0  0  0  0  0  0  0  0  0  0
    6.8560   -3.2907   -4.9295 C   0  0  0  0  0  0  0  0  0  0  0  0
    7.4417   -2.0872   -5.3270 C   0  0  0  0  0  0  0  0  0  0  0  0
    6.6845   -1.1000   -5.9527 C   0  0  0  0  0  0  0  0  0  0  0  0
    7.2802    0.1260   -6.3072 N   0  0  0  0  0  0  0  0  0  0  0  0
    6.8454    0.9490   -7.3709 C   0  0  0  0  0  0  0  0  0  0  0  0
    6.3210    0.3484   -8.4553 N   0  0  0  0  0  0  0  0  0  0  0  0
    5.8382    1.1469   -9.4052 C   0  0  0  0  0  0  0  0  0  0  0  0
    5.8096    2.4812   -9.3611 N   0  0  0  0  0  0  0  0  0  0  0  0
    6.3442    3.0608   -8.2784 C   0  0  0  0  0  0  0  0  0  0  0  0
    6.2928    4.4393   -8.1462 C   0  0  0  0  0  0  0  0  0  0  0  0
    6.8195    5.1750   -7.0488 C   0  0  0  0  0  0  0  0  0  0  0  0
    6.5530    6.4829   -7.2977 O   0  0  0  0  0  0  0  0  0  0  0  0
    6.8377    7.5588   -6.4465 C   0  0  0  0  0  0  0  0  0  0  0  0
    7.4581    4.4637   -6.0352 C   0  0  0  0  0  0  0  0  0  0  0  0
    8.1139    4.7724   -4.8886 O   0  0  0  0  0  0  0  0  0  0  0  0
    8.2462    6.0437   -4.3107 C   0  0  0  0  0  0  0  0  0  0  0  0
    7.4887    3.0527   -6.1572 C   0  0  0  0  0  0  0  0  0  0  0  0
    6.9281    2.3452   -7.2482 C   0  0  0  0  0  0  0  0  0  0  0  0
    5.3086   -1.3221   -6.1175 C   0  0  0  0  0  0  0  0  0  0  0  0
    4.7176   -2.5249   -5.7220 C   0  0  0  0  0  0  0  0  0  0  0  0
    3.0134   -2.7159   -5.9565 Cl  0  0  0  0  0  0  0  0  0  0  0  0
    4.3599   -8.5556   -2.8353 H   0  0  0  0  0  0  0  0  0  0  0  0
    5.1867   -7.3142   -1.8709 H   0  0  0  0  0  0  0  0  0  0  0  0
    6.0307   -8.1161   -3.2426 H   0  0  0  0  0  0  0  0  0  0  0  0
    3.9139   -4.8876   -4.9854 H   0  0  0  0  0  0  0  0  0  0  0  0
    7.5098   -4.0351   -4.4933 H   0  0  0  0  0  0  0  0  0  0  0  0
    8.5052   -1.9457   -5.1481 H   0  0  0  0  0  0  0  0  0  0  0  0
    8.2926    0.1323   -6.2493 H   0  0  0  0  0  0  0  0  0  0  0  0
    5.4225    0.6673  -10.2835 H   0  0  0  0  0  0  0  0  0  0  0  0
    5.7933    4.9901   -8.9458 H   0  0  0  0  0  0  0  0  0  0  0  0
    6.4474    8.4641   -6.9239 H   0  0  0  0  0  0  0  0  0  0  0  0
    7.9125    7.7077   -6.3579 H   0  0  0  0  0  0  0  0  0  0  0  0
    6.3137    7.4684   -5.4953 H   0  0  0  0  0  0  0  0  0  0  0  0
    8.7950    5.9163   -3.3707 H   0  0  0  0  0  0  0  0  0  0  0  0
    7.2779    6.4622   -4.0374 H   0  0  0  0  0  0  0  0  0  0  0  0
    8.8618    6.6982   -4.9263 H   0  0  0  0  0  0  0  0  0  0  0  0
    7.9607    2.4830   -5.3545 H   0  0  0  0  0  0  0  0  0  0  0  0
    4.6848   -0.5450   -6.5533 H   0  0  0  0  0  0  0  0  0  0  0  0
  1  2  1  0  0  0  0
  1 28  1  0  0  0  0
  1 29  1  0  0  0  0
  1 30  1  0  0  0  0
  2  3  1  0  0  0  0
  3  4  2  0  0  0  0
  3  5  1  0  0  0  0
  5  6  1  0  0  0  0
  5 31  1  0  0  0  0
  6  7  1  0  0  0  0
  6 26  2  0  0  0  0
  7  8  2  0  0  0  0
  7 32  1  0  0  0  0
  8  9  1  0  0  0  0
  8 33  1  0  0  0  0
  9 10  1  0  0  0  0
  9 25  2  0  0  0  0
 10 11  1  0  0  0  0
 10 34  1  0  0  0  0
 11 12  1  0  0  0  0
 11 24  2  0  0  0  0
 12 13  2  0  0  0  0
 13 14  1  0  0  0  0
 13 35  1  0  0  0  0
 14 15  2  0  0  0  0
 15 16  1  0  0  0  0
 15 24  1  0  0  0  0
 16 17  2  0  0  0  0
 16 36  1  0  0  0  0
 17 18  1  0  0  0  0
 17 20  1  0  0  0  0
 18 19  1  0  0  0  0
 19 37  1  0  0  0  0
 19 38  1  0  0  0  0
 19 39  1  0  0  0  0
 20 21  1  0  0  0  0
 20 23  2  0  0  0  0
 21 22  1  0  0  0  0
 22 40  1  0  0  0  0
 22 41  1  0  0  0  0
 22 42  1  0  0  0  0
 23 24  1  0  0  0  0
 23 43  1  0  0  0  0
 25 26  1  0  0  0  0
 25 44  1  0  0  0  0
 26 27  1  0  0  0  0
M  END
$$$$
