CHEMBL249500
 OpenBabel04072215363D

 55 61  0  0  0  0  0  0  0  0999 V2000
    4.1235   -1.0471   -1.8636 C   0  0  0  0  0  0  0  0  0  0  0  0
    4.3295    0.3224   -1.8337 C   0  0  0  0  0  0  0  0  0  0  0  0
    3.4029    1.1533   -1.1946 C   0  0  0  0  0  0  0  0  0  0  0  0
    2.2026    0.6589   -0.6165 C   0  0  0  0  0  0  0  0  0  0  0  0
    1.1654    1.4623   -0.0298 C   0  0  0  0  0  0  0  0  0  0  0  0
    1.1537    2.9502   -0.0233 C   0  0  0  0  0  0  0  0  0  0  0  0
    0.7010    3.6945    1.0807 C   0  0  0  0  0  0  0  0  0  0  0  0
    0.6673    5.0520    1.2099 N   0  0  0  0  0  0  0  0  0  0  0  0
    1.1924    5.6779    0.1421 C   0  0  0  0  0  0  0  0  0  0  0  0
    1.3604    7.0228   -0.0160 N   0  0  0  0  0  0  0  0  0  0  0  0
    1.9825    7.3688   -1.1682 N   0  0  0  0  0  0  0  0  0  0  0  0
    2.1794    6.1834   -1.7731 C   0  0  0  0  0  0  0  0  0  0  0  0
    2.9089    6.0701   -3.0695 C   0  0  0  0  0  0  0  0  0  0  0  0
    3.1642    4.9487   -3.7156 N   0  0  0  0  0  0  0  0  0  0  0  0
    3.8638    5.3263   -4.8381 C   0  0  0  0  0  0  0  0  0  0  0  0
    4.3752    4.5401   -5.8865 C   0  0  0  0  0  0  0  0  0  0  0  0
    5.0782    5.1336   -6.9512 C   0  0  0  0  0  0  0  0  0  0  0  0
    5.5738    4.3904   -8.0063 N   0  0  0  0  0  0  0  0  0  0  0  0
    4.9846    3.1162   -8.4472 C   0  0  0  0  0  0  0  0  0  0  0  0
    6.0055    1.9786   -8.3002 C   0  0  0  0  0  0  0  0  0  0  0  0
    7.2292    2.2772   -8.9951 O   0  0  0  0  0  0  0  0  0  0  0  0
    7.8149    3.4820   -8.4732 C   0  0  0  0  0  0  0  0  0  0  0  0
    6.8743    4.6913   -8.6267 C   0  0  0  0  0  0  0  0  0  0  0  0
    5.2432    6.5322   -6.9149 C   0  0  0  0  0  0  0  0  0  0  0  0
    4.7441    7.3476   -5.8845 C   0  0  0  0  0  0  0  0  0  0  0  0
    4.0552    6.7007   -4.8645 C   0  0  0  0  0  0  0  0  0  0  0  0
    3.4322    7.1508   -3.7308 N   0  0  0  0  0  0  0  0  0  0  0  0
    1.6752    5.0987   -1.0149 C   0  0  0  0  0  0  0  0  0  0  0  0
    1.5893    3.7016   -1.1256 C   0  0  0  0  0  0  0  0  0  0  0  0
    0.0917    0.7661    0.5448 C   0  0  0  0  0  0  0  0  0  0  0  0
   -0.0442   -0.5769    0.5923 N   0  0  0  0  0  0  0  0  0  0  0  0
    0.9303   -1.2939    0.0017 C   0  0  0  0  0  0  0  0  0  0  0  0
    2.0500   -0.7467   -0.6201 C   0  0  0  0  0  0  0  0  0  0  0  0
    3.0004   -1.5811   -1.2400 C   0  0  0  0  0  0  0  0  0  0  0  0
    4.8396   -1.6967   -2.3594 H   0  0  0  0  0  0  0  0  0  0  0  0
    5.2078    0.7568   -2.3047 H   0  0  0  0  0  0  0  0  0  0  0  0
    3.6490    2.2117   -1.1668 H   0  0  0  0  0  0  0  0  0  0  0  0
    0.3247    3.1862    1.9680 H   0  0  0  0  0  0  0  0  0  0  0  0
    1.0895    7.7451    0.6396 H   0  0  0  0  0  0  0  0  0  0  0  0
    4.2279    3.4694   -5.8279 H   0  0  0  0  0  0  0  0  0  0  0  0
    4.7286    3.2242   -9.5088 H   0  0  0  0  0  0  0  0  0  0  0  0
    4.0545    2.8643   -7.9288 H   0  0  0  0  0  0  0  0  0  0  0  0
    5.5996    1.0584   -8.7324 H   0  0  0  0  0  0  0  0  0  0  0  0
    6.2334    1.7826   -7.2460 H   0  0  0  0  0  0  0  0  0  0  0  0
    8.7435    3.6631   -9.0238 H   0  0  0  0  0  0  0  0  0  0  0  0
    8.0770    3.3199   -7.4207 H   0  0  0  0  0  0  0  0  0  0  0  0
    6.7067    4.8908   -9.6915 H   0  0  0  0  0  0  0  0  0  0  0  0
    7.3660    5.5684   -8.1936 H   0  0  0  0  0  0  0  0  0  0  0  0
    5.7460    7.0323   -7.7406 H   0  0  0  0  0  0  0  0  0  0  0  0
    4.8804    8.4231   -5.9021 H   0  0  0  0  0  0  0  0  0  0  0  0
    3.3620    8.1035   -3.4038 H   0  0  0  0  0  0  0  0  0  0  0  0
    1.9055    3.2328   -2.0541 H   0  0  0  0  0  0  0  0  0  0  0  0
   -0.7460    1.2926    0.9977 H   0  0  0  0  0  0  0  0  0  0  0  0
    0.7785   -2.3704    0.0435 H   0  0  0  0  0  0  0  0  0  0  0  0
    2.8653   -2.6625   -1.2474 H   0  0  0  0  0  0  0  0  0  0  0  0
  1  2  1  0  0  0  0
  1 34  2  0  0  0  0
  1 35  1  0  0  0  0
  2  3  2  0  0  0  0
  2 36  1  0  0  0  0
  3  4  1  0  0  0  0
  3 37  1  0  0  0  0
  4  5  1  0  0  0  0
  4 33  2  0  0  0  0
  5  6  1  0  0  0  0
  5 30  2  0  0  0  0
  6  7  1  0  0  0  0
  6 29  2  0  0  0  0
  7  8  2  0  0  0  0
  7 38  1  0  0  0  0
  8  9  1  0  0  0  0
  9 10  1  0  0  0  0
  9 28  2  0  0  0  0
 10 11  1  0  0  0  0
 10 39  1  0  0  0  0
 11 12  2  0  0  0  0
 12 13  1  0  0  0  0
 12 28  1  0  0  0  0
 13 14  2  0  0  0  0
 13 27  1  0  0  0  0
 14 15  1  0  0  0  0
 15 16  1  0  0  0  0
 15 26  2  0  0  0  0
 16 17  2  0  0  0  0
 16 40  1  0  0  0  0
 17 18  1  0  0  0  0
 17 24  1  0  0  0  0
 18 19  1  0  0  0  0
 18 23  1  0  0  0  0
 19 20  1  0  0  0  0
 19 41  1  0  0  0  0
 19 42  1  0  0  0  0
 20 21  1  0  0  0  0
 20 43  1  0  0  0  0
 20 44  1  0  0  0  0
 21 22  1  0  0  0  0
 22 23  1  0  0  0  0
 22 45  1  0  0  0  0
 22 46  1  0  0  0  0
 23 47  1  0  0  0  0
 23 48  1  0  0  0  0
 24 25  2  0  0  0  0
 24 49  1  0  0  0  0
 25 26  1  0  0  0  0
 25 50  1  0  0  0  0
 26 27  1  0  0  0  0
 27 51  1  0  0  0  0
 28 29  1  0  0  0  0
 29 52  1  0  0  0  0
 30 31  1  0  0  0  0
 30 53  1  0  0  0  0
 31 32  2  0  0  0  0
 32 33  1  0  0  0  0
 32 54  1  0  0  0  0
 33 34  1  0  0  0  0
 34 55  1  0  0  0  0
M  END
$$$$
