CHEMBL1241271
 OpenBabel04072215363D

 32 34  0  0  0  0  0  0  0  0999 V2000
   -1.7949   -1.4640   -0.8117 C   0  0  0  0  0  0  0  0  0  0  0  0
   -0.5278   -0.6994   -0.5798 C   0  0  0  0  0  0  0  0  0  0  0  0
   -0.5699    0.5272    0.0846 C   0  0  0  0  0  0  0  0  0  0  0  0
    0.5878    1.2866    0.2254 C   0  0  0  0  0  0  0  0  0  0  0  0
    1.8311    0.8057   -0.2073 C   0  0  0  0  0  0  0  0  0  0  0  0
    3.0523    1.5923   -0.0128 C   0  0  0  0  0  0  0  0  0  0  0  0
    4.0529    1.5156   -0.9149 N   0  0  0  0  0  0  0  0  0  0  0  0
    4.9581    2.4108   -0.4793 N   0  0  0  0  0  0  0  0  0  0  0  0
    6.1566    2.6635   -1.2409 C   0  0  0  0  0  0  0  0  0  0  0  0
    4.6165    3.0146    0.6947 C   0  0  0  0  0  0  0  0  0  0  0  0
    5.3367    3.9320    1.3652 N   0  0  0  0  0  0  0  0  0  0  0  0
    4.7053    4.3213    2.4819 C   0  0  0  0  0  0  0  0  0  0  0  0
    3.5185    3.9000    2.9587 N   0  0  0  0  0  0  0  0  0  0  0  0
    2.8348    2.9711    2.2498 C   0  0  0  0  0  0  0  0  0  0  0  0
    1.6346    2.5597    2.8096 N   0  0  0  0  0  0  0  0  0  0  0  0
    3.3859    2.4927    1.0485 C   0  0  0  0  0  0  0  0  0  0  0  0
    1.8746   -0.4327   -0.8699 C   0  0  0  0  0  0  0  0  0  0  0  0
    0.7011   -1.1580   -1.0631 C   0  0  0  0  0  0  0  0  0  0  0  0
    0.7329   -2.3426   -1.7475 O   0  0  0  0  0  0  0  0  0  0  0  0
   -2.6557   -0.9584   -0.3610 H   0  0  0  0  0  0  0  0  0  0  0  0
   -1.7269   -2.4612   -0.3706 H   0  0  0  0  0  0  0  0  0  0  0  0
   -1.9881   -1.5507   -1.8865 H   0  0  0  0  0  0  0  0  0  0  0  0
   -1.5064    0.9182    0.4707 H   0  0  0  0  0  0  0  0  0  0  0  0
    0.4947    2.2753    0.6692 H   0  0  0  0  0  0  0  0  0  0  0  0
    6.1510    2.0538   -2.1477 H   0  0  0  0  0  0  0  0  0  0  0  0
    7.0199    2.4041   -0.6227 H   0  0  0  0  0  0  0  0  0  0  0  0
    6.1793    3.7229   -1.5079 H   0  0  0  0  0  0  0  0  0  0  0  0
    5.2151    5.0692    3.0833 H   0  0  0  0  0  0  0  0  0  0  0  0
    1.5485    2.8703    3.7690 H   0  0  0  0  0  0  0  0  0  0  0  0
    1.3832    1.5964    2.6363 H   0  0  0  0  0  0  0  0  0  0  0  0
    2.8260   -0.8020   -1.2414 H   0  0  0  0  0  0  0  0  0  0  0  0
    1.6349   -2.4813   -2.0813 H   0  0  0  0  0  0  0  0  0  0  0  0
  1  2  1  0  0  0  0
  1 20  1  0  0  0  0
  1 21  1  0  0  0  0
  1 22  1  0  0  0  0
  2  3  1  0  0  0  0
  2 18  2  0  0  0  0
  3  4  2  0  0  0  0
  3 23  1  0  0  0  0
  4  5  1  0  0  0  0
  4 24  1  0  0  0  0
  5  6  1  0  0  0  0
  5 17  2  0  0  0  0
  6  7  2  0  0  0  0
  6 16  1  0  0  0  0
  7  8  1  0  0  0  0
  8  9  1  0  0  0  0
  8 10  1  0  0  0  0
  9 25  1  0  0  0  0
  9 26  1  0  0  0  0
  9 27  1  0  0  0  0
 10 11  1  0  0  0  0
 10 16  2  0  0  0  0
 11 12  2  0  0  0  0
 12 13  1  0  0  0  0
 12 28  1  0  0  0  0
 13 14  2  0  0  0  0
 14 15  1  0  0  0  0
 14 16  1  0  0  0  0
 15 29  1  0  0  0  0
 15 30  1  0  0  0  0
 17 18  1  0  0  0  0
 17 31  1  0  0  0  0
 18 19  1  0  0  0  0
 19 32  1  0  0  0  0
M  END
$$$$
