CHEMBL497055
 OpenBabel04072215383D

 66 71  0  0  0  0  0  0  0  0999 V2000
   -2.7223    0.8004    0.9488 O   0  0  0  0  0  0  0  0  0  0  0  0
   -1.6270    0.5040    0.5088 C   0  0  0  0  0  0  0  0  0  0  0  0
   -0.5906    1.3990    0.3365 N   0  0  0  0  0  0  0  0  0  0  0  0
    0.6116    0.7396    0.1302 C   0  0  0  0  0  0  0  0  0  0  0  0
    1.8465    1.3551    0.0724 C   0  0  0  0  0  0  0  0  0  0  0  0
    2.9668    0.5340   -0.0776 C   0  0  0  0  0  0  0  0  0  0  0  0
    4.2630    1.1136   -0.0016 N   0  0  0  0  0  0  0  0  0  0  0  0
    4.5855    2.2743    0.6764 C   0  0  0  0  0  0  0  0  0  0  0  0
    5.9433    2.4844    0.5915 C   0  0  0  0  0  0  0  0  0  0  0  0
    6.4753    1.4452   -0.1995 C   0  0  0  0  0  0  0  0  0  0  0  0
    5.4307    0.6102   -0.5373 C   0  0  0  0  0  0  0  0  0  0  0  0
    2.8057   -0.8620   -0.2287 C   0  0  0  0  0  0  0  0  0  0  0  0
    1.5283   -1.4547   -0.1527 C   0  0  0  0  0  0  0  0  0  0  0  0
    0.4238   -0.6461    0.0559 C   0  0  0  0  0  0  0  0  0  0  0  0
   -1.0292   -0.8654    0.2252 C   0  0  0  0  0  0  0  0  0  0  0  0
   -1.7981   -1.9780    0.2176 C   0  0  0  0  0  0  0  0  0  0  0  0
   -3.1832   -2.0157    0.1937 N   0  0  0  0  0  0  0  0  0  0  0  0
   -3.9896   -1.3545   -0.7492 C   0  0  0  0  0  0  0  0  0  0  0  0
   -3.5542   -1.1543   -2.0683 C   0  0  0  0  0  0  0  0  0  0  0  0
   -4.2382   -0.3074   -2.9351 C   0  0  0  0  0  0  0  0  0  0  0  0
   -5.3727    0.3821   -2.5020 C   0  0  0  0  0  0  0  0  0  0  0  0
   -5.9720    1.4749   -3.3583 C   0  0  0  0  0  0  0  0  0  0  0  0
   -6.4087    1.0560   -4.7089 N   0  0  0  0  0  0  0  0  0  0  0  0
   -7.5570    0.1405   -4.6092 C   0  0  0  0  0  0  0  0  0  0  0  0
   -8.1860   -0.1802   -5.9661 C   0  0  0  0  0  0  0  0  0  0  0  0
   -8.5867    1.0941   -6.6934 C   0  0  0  0  0  0  0  0  0  0  0  0
   -7.3660    1.9869   -6.8471 C   0  0  0  0  0  0  0  0  0  0  0  0
   -6.7147    2.2671   -5.4924 C   0  0  0  0  0  0  0  0  0  0  0  0
   -5.8541    0.1303   -1.2060 C   0  0  0  0  0  0  0  0  0  0  0  0
   -5.1740   -0.7404   -0.3441 C   0  0  0  0  0  0  0  0  0  0  0  0
   -1.1912   -3.3235    0.2686 C   0  0  0  0  0  0  0  0  0  0  0  0
   -0.9327   -3.9104    1.5152 C   0  0  0  0  0  0  0  0  0  0  0  0
   -0.4144   -5.2046    1.5880 C   0  0  0  0  0  0  0  0  0  0  0  0
   -0.1487   -5.9160    0.4207 C   0  0  0  0  0  0  0  0  0  0  0  0
   -0.4045   -5.3405   -0.8262 C   0  0  0  0  0  0  0  0  0  0  0  0
   -0.9320   -4.0462   -0.9033 C   0  0  0  0  0  0  0  0  0  0  0  0
   -0.7052    2.3833    0.5166 H   0  0  0  0  0  0  0  0  0  0  0  0
    1.9177    2.4340    0.1363 H   0  0  0  0  0  0  0  0  0  0  0  0
    3.8375    2.8287    1.2267 H   0  0  0  0  0  0  0  0  0  0  0  0
    6.4839    3.3003    1.0553 H   0  0  0  0  0  0  0  0  0  0  0  0
    7.5102    1.3142   -0.4853 H   0  0  0  0  0  0  0  0  0  0  0  0
    5.4295   -0.2790   -1.1526 H   0  0  0  0  0  0  0  0  0  0  0  0
    3.6680   -1.5166   -0.3366 H   0  0  0  0  0  0  0  0  0  0  0  0
    1.4423   -2.5332   -0.2257 H   0  0  0  0  0  0  0  0  0  0  0  0
   -3.6481   -2.5630    0.9069 H   0  0  0  0  0  0  0  0  0  0  0  0
   -2.6535   -1.6429   -2.4176 H   0  0  0  0  0  0  0  0  0  0  0  0
   -3.8547   -0.1458   -3.9414 H   0  0  0  0  0  0  0  0  0  0  0  0
   -5.1910    2.2439   -3.4510 H   0  0  0  0  0  0  0  0  0  0  0  0
   -6.8028    1.9564   -2.8234 H   0  0  0  0  0  0  0  0  0  0  0  0
   -8.3315    0.5590   -3.9531 H   0  0  0  0  0  0  0  0  0  0  0  0
   -7.2323   -0.8085   -4.1659 H   0  0  0  0  0  0  0  0  0  0  0  0
   -9.0668   -0.8161   -5.8214 H   0  0  0  0  0  0  0  0  0  0  0  0
   -7.4772   -0.7487   -6.5815 H   0  0  0  0  0  0  0  0  0  0  0  0
   -9.3638    1.6196   -6.1222 H   0  0  0  0  0  0  0  0  0  0  0  0
   -9.0100    0.8567   -7.6738 H   0  0  0  0  0  0  0  0  0  0  0  0
   -7.6595    2.9347   -7.3139 H   0  0  0  0  0  0  0  0  0  0  0  0
   -6.6425    1.5102   -7.5180 H   0  0  0  0  0  0  0  0  0  0  0  0
   -7.3708    2.9388   -4.9232 H   0  0  0  0  0  0  0  0  0  0  0  0
   -5.7808    2.8122   -5.6788 H   0  0  0  0  0  0  0  0  0  0  0  0
   -6.7286    0.6651   -0.8366 H   0  0  0  0  0  0  0  0  0  0  0  0
   -5.5256   -0.8373    0.6819 H   0  0  0  0  0  0  0  0  0  0  0  0
   -1.1487   -3.3688    2.4320 H   0  0  0  0  0  0  0  0  0  0  0  0
   -0.2290   -5.6604    2.5576 H   0  0  0  0  0  0  0  0  0  0  0  0
    0.2473   -6.9258    0.4765 H   0  0  0  0  0  0  0  0  0  0  0  0
   -0.2078   -5.8989   -1.7347 H   0  0  0  0  0  0  0  0  0  0  0  0
   -1.1454   -3.6140   -1.8736 H   0  0  0  0  0  0  0  0  0  0  0  0
  1  2  2  0  0  0  0
  2  3  1  0  0  0  0
  2 15  1  0  0  0  0
  3  4  1  0  0  0  0
  3 37  1  0  0  0  0
  4  5  1  0  0  0  0
  4 14  2  0  0  0  0
  5  6  2  0  0  0  0
  5 38  1  0  0  0  0
  6  7  1  0  0  0  0
  6 12  1  0  0  0  0
  7  8  1  0  0  0  0
  7 11  1  0  0  0  0
  8  9  2  0  0  0  0
  8 39  1  0  0  0  0
  9 10  1  0  0  0  0
  9 40  1  0  0  0  0
 10 11  2  0  0  0  0
 10 41  1  0  0  0  0
 11 42  1  0  0  0  0
 12 13  2  0  0  0  0
 12 43  1  0  0  0  0
 13 14  1  0  0  0  0
 13 44  1  0  0  0  0
 14 15  1  0  0  0  0
 15 16  2  0  0  0  0
 16 17  1  0  0  0  0
 16 31  1  0  0  0  0
 17 18  1  0  0  0  0
 17 45  1  0  0  0  0
 18 19  1  0  0  0  0
 18 30  2  0  0  0  0
 19 20  2  0  0  0  0
 19 46  1  0  0  0  0
 20 21  1  0  0  0  0
 20 47  1  0  0  0  0
 21 22  1  0  0  0  0
 21 29  2  0  0  0  0
 22 23  1  0  0  0  0
 22 48  1  0  0  0  0
 22 49  1  0  0  0  0
 23 24  1  0  0  0  0
 23 28  1  0  0  0  0
 24 25  1  0  0  0  0
 24 50  1  0  0  0  0
 24 51  1  0  0  0  0
 25 26  1  0  0  0  0
 25 52  1  0  0  0  0
 25 53  1  0  0  0  0
 26 27  1  0  0  0  0
 26 54  1  0  0  0  0
 26 55  1  0  0  0  0
 27 28  1  0  0  0  0
 27 56  1  0  0  0  0
 27 57  1  0  0  0  0
 28 58  1  0  0  0  0
 28 59  1  0  0  0  0
 29 30  1  0  0  0  0
 29 60  1  0  0  0  0
 30 61  1  0  0  0  0
 31 32  1  0  0  0  0
 31 36  2  0  0  0  0
 32 33  2  0  0  0  0
 32 62  1  0  0  0  0
 33 34  1  0  0  0  0
 33 63  1  0  0  0  0
 34 35  2  0  0  0  0
 34 64  1  0  0  0  0
 35 36  1  0  0  0  0
 35 65  1  0  0  0  0
 36 66  1  0  0  0  0
M  END
$$$$
