CHEMBL3753157
 OpenBabel04072215373D

 41 43  0  0  0  0  0  0  0  0999 V2000
    2.8286   -0.1603   -1.6344 C   0  0  0  0  0  0  0  0  0  0  0  0
    2.5366    0.0141   -0.2550 O   0  0  0  0  0  0  0  0  0  0  0  0
    3.1719    1.1172    0.2925 C   0  0  0  0  0  0  0  0  0  0  0  0
    2.9415    1.3538    1.6372 C   0  0  0  0  0  0  0  0  0  0  0  0
    3.6052    2.4199    2.2386 C   0  0  0  0  0  0  0  0  0  0  0  0
    4.4931    3.2153    1.5025 C   0  0  0  0  0  0  0  0  0  0  0  0
    5.2926    4.2744    2.1512 C   0  0  0  0  0  0  0  0  0  0  0  0
    5.8095    4.0604    3.4451 C   0  0  0  0  0  0  0  0  0  0  0  0
    6.5850    5.0162    4.0945 C   0  0  0  0  0  0  0  0  0  0  0  0
    6.8607    6.2212    3.4634 C   0  0  0  0  0  0  0  0  0  0  0  0
    7.5809    7.2073    4.0799 O   0  0  0  0  0  0  0  0  0  0  0  0
    7.0739    7.6304    5.3478 C   0  0  0  0  0  0  0  0  0  0  0  0
    6.0984    6.8455    5.8569 F   0  0  0  0  0  0  0  0  0  0  0  0
    8.0964    7.6489    6.2321 F   0  0  0  0  0  0  0  0  0  0  0  0
    6.5872    8.8864    5.2428 F   0  0  0  0  0  0  0  0  0  0  0  0
    6.4343    6.4300    2.1434 C   0  0  0  0  0  0  0  0  0  0  0  0
    6.9433    7.5434    1.4599 N   0  0  0  0  0  0  0  0  0  0  0  0
    6.2962    8.3367    0.5519 C   0  0  0  0  0  0  0  0  0  0  0  0
    5.0947    8.2712    0.2997 O   0  0  0  0  0  0  0  0  0  0  0  0
    7.0510    9.3331   -0.0125 N   0  0  0  0  0  0  0  0  0  0  0  0
    8.4167    9.3624   -0.0041 C   0  0  0  0  0  0  0  0  0  0  0  0
    9.2274    8.4207    0.4131 N   0  0  0  0  0  0  0  0  0  0  0  0
   10.5312    8.8410    0.2612 C   0  0  0  0  0  0  0  0  0  0  0  0
   10.6829   10.1362   -0.1867 C   0  0  0  0  0  0  0  0  0  0  0  0
    9.1401   10.7996   -0.5609 S   0  0  0  0  0  0  0  0  0  0  0  0
    5.6227    5.4820    1.5070 C   0  0  0  0  0  0  0  0  0  0  0  0
    4.6177    2.8960    0.1492 C   0  0  0  0  0  0  0  0  0  0  0  0
    3.9799    1.8758   -0.4727 N   0  0  0  0  0  0  0  0  0  0  0  0
    2.3814   -1.1072   -1.9514 H   0  0  0  0  0  0  0  0  0  0  0  0
    3.9068   -0.2271   -1.8185 H   0  0  0  0  0  0  0  0  0  0  0  0
    2.3763    0.6438   -2.2244 H   0  0  0  0  0  0  0  0  0  0  0  0
    2.2817    0.7076    2.2039 H   0  0  0  0  0  0  0  0  0  0  0  0
    3.4242    2.6052    3.2978 H   0  0  0  0  0  0  0  0  0  0  0  0
    5.6243    3.1228    3.9655 H   0  0  0  0  0  0  0  0  0  0  0  0
    6.9617    4.8020    5.0905 H   0  0  0  0  0  0  0  0  0  0  0  0
    7.8289    7.9039    1.8018 H   0  0  0  0  0  0  0  0  0  0  0  0
    6.5521   10.0569   -0.5067 H   0  0  0  0  0  0  0  0  0  0  0  0
   11.3379    8.1639    0.5174 H   0  0  0  0  0  0  0  0  0  0  0  0
   11.5967   10.6952   -0.3261 H   0  0  0  0  0  0  0  0  0  0  0  0
    5.3004    5.6638    0.4833 H   0  0  0  0  0  0  0  0  0  0  0  0
    5.2836    3.4559   -0.5035 H   0  0  0  0  0  0  0  0  0  0  0  0
  1  2  1  0  0  0  0
  1 29  1  0  0  0  0
  1 30  1  0  0  0  0
  1 31  1  0  0  0  0
  2  3  1  0  0  0  0
  3  4  1  0  0  0  0
  3 28  2  0  0  0  0
  4  5  2  0  0  0  0
  4 32  1  0  0  0  0
  5  6  1  0  0  0  0
  5 33  1  0  0  0  0
  6  7  1  0  0  0  0
  6 27  2  0  0  0  0
  7  8  1  0  0  0  0
  7 26  2  0  0  0  0
  8  9  2  0  0  0  0
  8 34  1  0  0  0  0
  9 10  1  0  0  0  0
  9 35  1  0  0  0  0
 10 11  1  0  0  0  0
 10 16  2  0  0  0  0
 11 12  1  0  0  0  0
 12 13  1  0  0  0  0
 12 14  1  0  0  0  0
 12 15  1  0  0  0  0
 16 17  1  0  0  0  0
 16 26  1  0  0  0  0
 17 18  1  0  0  0  0
 17 36  1  0  0  0  0
 18 19  2  0  0  0  0
 18 20  1  0  0  0  0
 20 21  1  0  0  0  0
 20 37  1  0  0  0  0
 21 22  2  0  0  0  0
 21 25  1  0  0  0  0
 22 23  1  0  0  0  0
 23 24  2  0  0  0  0
 23 38  1  0  0  0  0
 24 25  1  0  0  0  0
 24 39  1  0  0  0  0
 26 40  1  0  0  0  0
 27 28  1  0  0  0  0
 27 41  1  0  0  0  0
M  END
$$$$
