CHEMBL3901827
 OpenBabel04072215373D

 63 67  0  0  0  0  0  0  0  0999 V2000
    1.3844    0.0294    2.3042 C   0  0  0  0  0  0  0  0  0  0  0  0
    2.5882    0.5612    1.5236 C   0  0  0  0  0  0  0  0  0  0  0  0
    3.6473   -0.4532    1.0212 C   0  0  0  0  0  0  0  0  0  0  0  0
    4.0030   -1.5027    1.9563 N   0  0  0  0  0  0  0  0  0  0  0  0
    3.0371   -2.4255    2.1651 N   0  0  0  0  0  0  0  0  0  0  0  0
    3.3859   -3.0106    3.3057 C   0  0  0  0  0  0  0  0  0  0  0  0
    2.4275   -3.8880    4.0118 C   0  0  0  0  0  0  0  0  0  0  0  0
    4.7016   -2.6600    3.6605 C   0  0  0  0  0  0  0  0  0  0  0  0
    5.1537   -1.7682    2.6860 C   0  0  0  0  0  0  0  0  0  0  0  0
    6.5030   -1.1983    2.5409 C   0  0  0  0  0  0  0  0  0  0  0  0
    6.7189   -0.1734    1.8982 O   0  0  0  0  0  0  0  0  0  0  0  0
    7.4916   -1.9515    3.1889 N   0  0  0  0  0  0  0  0  0  0  0  0
    8.8817   -1.6965    3.3754 C   0  0  0  0  0  0  0  0  0  0  0  0
    9.5503   -0.5792    2.8855 C   0  0  0  0  0  0  0  0  0  0  0  0
   10.9291   -0.4133    3.1203 C   0  0  0  0  0  0  0  0  0  0  0  0
   11.6654   -1.3517    3.8613 C   0  0  0  0  0  0  0  0  0  0  0  0
   11.0194   -2.4681    4.3869 C   0  0  0  0  0  0  0  0  0  0  0  0
   11.7416   -3.5565    5.1278 C   0  0  0  0  0  0  0  0  0  0  0  0
   11.2719   -4.6953    5.0471 O   0  0  0  0  0  0  0  0  0  0  0  0
   12.9888   -3.3864    5.9496 C   0  0  0  0  0  0  0  0  0  0  0  0
   13.3013   -2.2140    6.6403 C   0  0  0  0  0  0  0  0  0  0  0  0
   14.4637   -2.1235    7.4424 C   0  0  0  0  0  0  0  0  0  0  0  0
   15.3507   -3.2199    7.5520 C   0  0  0  0  0  0  0  0  0  0  0  0
   16.6228   -3.5179    8.1582 C   0  0  0  0  0  0  0  0  0  0  0  0
   17.5482   -2.6522    8.8408 C   0  0  0  0  0  0  0  0  0  0  0  0
   17.4519   -1.3286    9.0401 C   0  0  0  0  0  0  0  0  0  0  0  0
   18.4587   -0.4699    9.6739 C   0  0  0  0  0  0  0  0  0  0  0  0
   19.8315   -0.6760    9.5670 C   0  0  0  0  0  0  0  0  0  0  0  0
   20.7025    0.2584   10.1300 C   0  0  0  0  0  0  0  0  0  0  0  0
   20.1820    1.3707   10.7784 C   0  0  0  0  0  0  0  0  0  0  0  0
   18.8067    1.5068   10.8299 C   0  0  0  0  0  0  0  0  0  0  0  0
   17.9411    0.6241   10.2810 N   0  0  0  0  0  0  0  0  0  0  0  0
   16.9514   -4.8059    7.9625 N   0  0  0  0  0  0  0  0  0  0  0  0
   15.9480   -5.3056    7.2294 N   0  0  0  0  0  0  0  0  0  0  0  0
   14.9798   -4.3952    6.9046 C   0  0  0  0  0  0  0  0  0  0  0  0
   13.8228   -4.5129    6.1122 C   0  0  0  0  0  0  0  0  0  0  0  0
    9.6354   -2.6381    4.1152 C   0  0  0  0  0  0  0  0  0  0  0  0
    0.7234    0.8592    2.5821 H   0  0  0  0  0  0  0  0  0  0  0  0
    1.6841   -0.4498    3.2411 H   0  0  0  0  0  0  0  0  0  0  0  0
    0.7907   -0.6778    1.7158 H   0  0  0  0  0  0  0  0  0  0  0  0
    3.0852    1.3099    2.1492 H   0  0  0  0  0  0  0  0  0  0  0  0
    2.1967    1.0986    0.6493 H   0  0  0  0  0  0  0  0  0  0  0  0
    4.5486    0.0810    0.7148 H   0  0  0  0  0  0  0  0  0  0  0  0
    3.2568   -0.9568    0.1260 H   0  0  0  0  0  0  0  0  0  0  0  0
    1.4134   -3.7677    3.6131 H   0  0  0  0  0  0  0  0  0  0  0  0
    2.3945   -3.6308    5.0754 H   0  0  0  0  0  0  0  0  0  0  0  0
    2.7130   -4.9384    3.9112 H   0  0  0  0  0  0  0  0  0  0  0  0
    5.2473   -3.0162    4.5214 H   0  0  0  0  0  0  0  0  0  0  0  0
    7.1821   -2.8356    3.5680 H   0  0  0  0  0  0  0  0  0  0  0  0
    9.0319    0.1768    2.3020 H   0  0  0  0  0  0  0  0  0  0  0  0
   11.4365    0.4523    2.6984 H   0  0  0  0  0  0  0  0  0  0  0  0
   12.7363   -1.2056    3.9804 H   0  0  0  0  0  0  0  0  0  0  0  0
   12.6404   -1.3511    6.6028 H   0  0  0  0  0  0  0  0  0  0  0  0
   14.6507   -1.2030    7.9865 H   0  0  0  0  0  0  0  0  0  0  0  0
   18.4420   -3.1622    9.1994 H   0  0  0  0  0  0  0  0  0  0  0  0
   16.5781   -0.7739    8.7293 H   0  0  0  0  0  0  0  0  0  0  0  0
   20.2340   -1.5304    9.0340 H   0  0  0  0  0  0  0  0  0  0  0  0
   21.7777    0.1224   10.0527 H   0  0  0  0  0  0  0  0  0  0  0  0
   20.8314    2.1166   11.2238 H   0  0  0  0  0  0  0  0  0  0  0  0
   18.3479    2.3612   11.3208 H   0  0  0  0  0  0  0  0  0  0  0  0
   15.9921   -6.2828    6.9643 H   0  0  0  0  0  0  0  0  0  0  0  0
   13.5769   -5.4581    5.6337 H   0  0  0  0  0  0  0  0  0  0  0  0
    9.1514   -3.5374    4.4926 H   0  0  0  0  0  0  0  0  0  0  0  0
  1  2  1  0  0  0  0
  1 38  1  0  0  0  0
  1 39  1  0  0  0  0
  1 40  1  0  0  0  0
  2  3  1  0  0  0  0
  2 41  1  0  0  0  0
  2 42  1  0  0  0  0
  3  4  1  0  0  0  0
  3 43  1  0  0  0  0
  3 44  1  0  0  0  0
  4  5  1  0  0  0  0
  4  9  1  0  0  0  0
  5  6  2  0  0  0  0
  6  7  1  0  0  0  0
  6  8  1  0  0  0  0
  7 45  1  0  0  0  0
  7 46  1  0  0  0  0
  7 47  1  0  0  0  0
  8  9  2  0  0  0  0
  8 48  1  0  0  0  0
  9 10  1  0  0  0  0
 10 11  2  0  0  0  0
 10 12  1  0  0  0  0
 12 13  1  0  0  0  0
 12 49  1  0  0  0  0
 13 14  1  0  0  0  0
 13 37  2  0  0  0  0
 14 15  2  0  0  0  0
 14 50  1  0  0  0  0
 15 16  1  0  0  0  0
 15 51  1  0  0  0  0
 16 17  2  0  0  0  0
 16 52  1  0  0  0  0
 17 18  1  0  0  0  0
 17 37  1  0  0  0  0
 18 19  2  0  0  0  0
 18 20  1  0  0  0  0
 20 21  1  0  0  0  0
 20 36  2  0  0  0  0
 21 22  2  0  0  0  0
 21 53  1  0  0  0  0
 22 23  1  0  0  0  0
 22 54  1  0  0  0  0
 23 24  1  0  0  0  0
 23 35  2  0  0  0  0
 24 25  1  0  0  0  0
 24 33  2  0  0  0  0
 25 26  2  0  0  0  0
 25 55  1  0  0  0  0
 26 27  1  0  0  0  0
 26 56  1  0  0  0  0
 27 28  1  0  0  0  0
 27 32  2  0  0  0  0
 28 29  2  0  0  0  0
 28 57  1  0  0  0  0
 29 30  1  0  0  0  0
 29 58  1  0  0  0  0
 30 31  2  0  0  0  0
 30 59  1  0  0  0  0
 31 32  1  0  0  0  0
 31 60  1  0  0  0  0
 33 34  1  0  0  0  0
 34 35  1  0  0  0  0
 34 61  1  0  0  0  0
 35 36  1  0  0  0  0
 36 62  1  0  0  0  0
 37 63  1  0  0  0  0
M  END
$$$$
