CHEMBL2063324
 OpenBabel04072215363D

 73 77  0  0  0  0  0  0  0  0999 V2000
    0.9957   -0.1729   -0.1683 O   0  0  0  0  0  0  0  0  0  0  0  0
    2.1700   -0.0226    0.1466 C   0  0  0  0  0  0  0  0  0  0  0  0
    2.8670   -0.8990    0.9383 N   0  0  0  0  0  0  0  0  0  0  0  0
    2.2462   -2.1310    1.3757 C   0  0  0  0  0  0  0  0  0  0  0  0
    3.1679   -3.0444    2.1441 C   0  0  0  0  0  0  0  0  0  0  0  0
    3.3196   -2.9096    3.5284 C   0  0  0  0  0  0  0  0  0  0  0  0
    4.1185   -3.8050    4.2534 C   0  0  0  0  0  0  0  0  0  0  0  0
    4.7925   -4.8563    3.6129 C   0  0  0  0  0  0  0  0  0  0  0  0
    5.6118   -5.8124    4.3716 C   0  0  0  0  0  0  0  0  0  0  0  0
    5.8496   -5.8347    5.7744 C   0  0  0  0  0  0  0  0  0  0  0  0
    6.6536   -6.9222    6.0151 C   0  0  0  0  0  0  0  0  0  0  0  0
    7.1589   -7.3881    7.2251 N   0  0  0  0  0  0  0  0  0  0  0  0
    7.1984   -6.5684    8.4081 C   0  0  0  0  0  0  0  0  0  0  0  0
    6.8061   -5.4139    8.3790 O   0  0  0  0  0  0  0  0  0  0  0  0
    7.8011   -7.1395    9.6451 C   0  0  0  0  0  0  0  0  0  0  0  0
    8.2244   -8.4686    9.7597 C   0  0  0  0  0  0  0  0  0  0  0  0
    8.8487   -8.9040   10.9355 C   0  0  0  0  0  0  0  0  0  0  0  0
    9.0621   -8.0156   11.9940 C   0  0  0  0  0  0  0  0  0  0  0  0
    9.7158   -8.3065   13.1580 O   0  0  0  0  0  0  0  0  0  0  0  0
   10.6782   -9.3598   13.0669 C   0  0  0  0  0  0  0  0  0  0  0  0
   11.7401   -9.1745   14.1643 C   0  0  0  0  0  0  0  0  0  0  0  0
   12.8154  -10.1812   14.1004 N   0  0  0  0  0  0  0  0  0  0  0  0
   12.3465  -11.5562   14.3261 C   0  0  0  0  0  0  0  0  0  0  0  0
   12.4779  -11.7811   15.8153 C   0  0  0  0  0  0  0  0  0  0  0  0
   13.7838  -11.0853   16.1267 C   0  0  0  0  0  0  0  0  0  0  0  0
   13.8445   -9.9286   15.1334 C   0  0  0  0  0  0  0  0  0  0  0  0
    8.5866   -6.7120   11.9036 C   0  0  0  0  0  0  0  0  0  0  0  0
    7.9678   -6.2714   10.7355 C   0  0  0  0  0  0  0  0  0  0  0  0
    6.8604   -7.4842    4.7853 N   0  0  0  0  0  0  0  0  0  0  0  0
    6.2517   -6.8367    3.7811 N   0  0  0  0  0  0  0  0  0  0  0  0
    4.6500   -4.9789    2.2240 C   0  0  0  0  0  0  0  0  0  0  0  0
    3.8528   -4.0819    1.4980 C   0  0  0  0  0  0  0  0  0  0  0  0
    2.9790    0.9717   -0.2838 O   0  0  0  0  0  0  0  0  0  0  0  0
    2.4884    1.7202   -1.4165 C   0  0  0  0  0  0  0  0  0  0  0  0
    2.1118    3.1471   -1.0886 C   0  0  0  0  0  0  0  0  0  0  0  0
    3.0834    4.1595   -1.0628 C   0  0  0  0  0  0  0  0  0  0  0  0
    2.7232    5.4889   -0.8222 C   0  0  0  0  0  0  0  0  0  0  0  0
    1.3870    5.8250   -0.6044 C   0  0  0  0  0  0  0  0  0  0  0  0
    0.4136    4.8305   -0.6276 C   0  0  0  0  0  0  0  0  0  0  0  0
    0.7722    3.4988   -0.8657 C   0  0  0  0  0  0  0  0  0  0  0  0
    3.8675   -0.7767    0.9973 H   0  0  0  0  0  0  0  0  0  0  0  0
    1.8502   -2.6535    0.4967 H   0  0  0  0  0  0  0  0  0  0  0  0
    1.3773   -1.8698    1.9941 H   0  0  0  0  0  0  0  0  0  0  0  0
    2.7946   -2.1188    4.0625 H   0  0  0  0  0  0  0  0  0  0  0  0
    4.1860   -3.6649    5.3295 H   0  0  0  0  0  0  0  0  0  0  0  0
    5.4543   -5.1436    6.5034 H   0  0  0  0  0  0  0  0  0  0  0  0
    7.5610   -8.3117    7.2315 H   0  0  0  0  0  0  0  0  0  0  0  0
    8.0964   -9.1982    8.9665 H   0  0  0  0  0  0  0  0  0  0  0  0
    9.1681   -9.9408   11.0042 H   0  0  0  0  0  0  0  0  0  0  0  0
   11.1868   -9.3509   12.0943 H   0  0  0  0  0  0  0  0  0  0  0  0
   10.1404  -10.3040   13.1911 H   0  0  0  0  0  0  0  0  0  0  0  0
   11.2592   -9.1427   15.1503 H   0  0  0  0  0  0  0  0  0  0  0  0
   12.1810   -8.1781   14.0166 H   0  0  0  0  0  0  0  0  0  0  0  0
   13.0146  -12.2360   13.7828 H   0  0  0  0  0  0  0  0  0  0  0  0
   11.3364  -11.7711   13.9720 H   0  0  0  0  0  0  0  0  0  0  0  0
   12.4953  -12.8428   16.0754 H   0  0  0  0  0  0  0  0  0  0  0  0
   11.6509  -11.3050   16.3553 H   0  0  0  0  0  0  0  0  0  0  0  0
   14.6192  -11.7735   15.9495 H   0  0  0  0  0  0  0  0  0  0  0  0
   13.8307  -10.7515   17.1673 H   0  0  0  0  0  0  0  0  0  0  0  0
   14.8336   -9.8929   14.6628 H   0  0  0  0  0  0  0  0  0  0  0  0
   13.7038   -8.9717   15.6509 H   0  0  0  0  0  0  0  0  0  0  0  0
    8.7291   -6.0264   12.7374 H   0  0  0  0  0  0  0  0  0  0  0  0
    7.6377   -5.2339   10.6826 H   0  0  0  0  0  0  0  0  0  0  0  0
    7.4323   -8.2858    4.5472 H   0  0  0  0  0  0  0  0  0  0  0  0
    5.1494   -5.7880    1.6926 H   0  0  0  0  0  0  0  0  0  0  0  0
    3.7523   -4.2235    0.4233 H   0  0  0  0  0  0  0  0  0  0  0  0
    1.6608    1.2136   -1.9295 H   0  0  0  0  0  0  0  0  0  0  0  0
    3.3061    1.7364   -2.1464 H   0  0  0  0  0  0  0  0  0  0  0  0
    4.1273    3.9234   -1.2495 H   0  0  0  0  0  0  0  0  0  0  0  0
    3.4825    6.2675   -0.8147 H   0  0  0  0  0  0  0  0  0  0  0  0
    1.1069    6.8605   -0.4198 H   0  0  0  0  0  0  0  0  0  0  0  0
   -0.6308    5.0910   -0.4680 H   0  0  0  0  0  0  0  0  0  0  0  0
   -0.0057    2.7388   -0.8948 H   0  0  0  0  0  0  0  0  0  0  0  0
  1  2  2  0  0  0  0
  2  3  1  0  0  0  0
  2 33  1  0  0  0  0
  3  4  1  0  0  0  0
  3 41  1  0  0  0  0
  4  5  1  0  0  0  0
  4 42  1  0  0  0  0
  4 43  1  0  0  0  0
  5  6  1  0  0  0  0
  5 32  2  0  0  0  0
  6  7  2  0  0  0  0
  6 44  1  0  0  0  0
  7  8  1  0  0  0  0
  7 45  1  0  0  0  0
  8  9  1  0  0  0  0
  8 31  2  0  0  0  0
  9 10  1  0  0  0  0
  9 30  2  0  0  0  0
 10 11  2  0  0  0  0
 10 46  1  0  0  0  0
 11 12  1  0  0  0  0
 11 29  1  0  0  0  0
 12 13  1  0  0  0  0
 12 47  1  0  0  0  0
 13 14  2  0  0  0  0
 13 15  1  0  0  0  0
 15 16  1  0  0  0  0
 15 28  2  0  0  0  0
 16 17  2  0  0  0  0
 16 48  1  0  0  0  0
 17 18  1  0  0  0  0
 17 49  1  0  0  0  0
 18 19  1  0  0  0  0
 18 27  2  0  0  0  0
 19 20  1  0  0  0  0
 20 21  1  0  0  0  0
 20 50  1  0  0  0  0
 20 51  1  0  0  0  0
 21 22  1  0  0  0  0
 21 52  1  0  0  0  0
 21 53  1  0  0  0  0
 22 23  1  0  0  0  0
 22 26  1  0  0  0  0
 23 24  1  0  0  0  0
 23 54  1  0  0  0  0
 23 55  1  0  0  0  0
 24 25  1  0  0  0  0
 24 56  1  0  0  0  0
 24 57  1  0  0  0  0
 25 26  1  0  0  0  0
 25 58  1  0  0  0  0
 25 59  1  0  0  0  0
 26 60  1  0  0  0  0
 26 61  1  0  0  0  0
 27 28  1  0  0  0  0
 27 62  1  0  0  0  0
 28 63  1  0  0  0  0
 29 30  1  0  0  0  0
 29 64  1  0  0  0  0
 31 32  1  0  0  0  0
 31 65  1  0  0  0  0
 32 66  1  0  0  0  0
 33 34  1  0  0  0  0
 34 35  1  0  0  0  0
 34 67  1  0  0  0  0
 34 68  1  0  0  0  0
 35 36  1  0  0  0  0
 35 40  2  0  0  0  0
 36 37  2  0  0  0  0
 36 69  1  0  0  0  0
 37 38  1  0  0  0  0
 37 70  1  0  0  0  0
 38 39  2  0  0  0  0
 38 71  1  0  0  0  0
 39 40  1  0  0  0  0
 39 72  1  0  0  0  0
 40 73  1  0  0  0  0
M  END
$$$$
