CHEMBL3903593
 OpenBabel04072215373D

 43 46  0  0  0  0  0  0  0  0999 V2000
    2.3892   -0.1833   -0.5221 C   0  0  0  0  0  0  0  0  0  0  0  0
    0.9090   -0.1011   -0.2835 C   0  0  0  0  0  0  0  0  0  0  0  0
    0.2588    1.1319   -0.1934 C   0  0  0  0  0  0  0  0  0  0  0  0
   -1.1200    1.1892    0.0382 C   0  0  0  0  0  0  0  0  0  0  0  0
   -1.8697    0.0153    0.1776 C   0  0  0  0  0  0  0  0  0  0  0  0
   -1.2350   -1.2251    0.0799 C   0  0  0  0  0  0  0  0  0  0  0  0
   -1.9488   -2.5239    0.2784 C   0  0  0  0  0  0  0  0  0  0  0  0
   -1.2927   -3.4447    0.7595 O   0  0  0  0  0  0  0  0  0  0  0  0
   -3.2676   -2.6065   -0.1559 N   0  0  0  0  0  0  0  0  0  0  0  0
   -4.0770   -3.7763   -0.0898 C   0  0  0  0  0  0  0  0  0  0  0  0
   -3.7664   -4.8582    0.7409 C   0  0  0  0  0  0  0  0  0  0  0  0
   -4.5469   -6.0156    0.7384 C   0  0  0  0  0  0  0  0  0  0  0  0
   -5.6557   -6.1093   -0.1001 C   0  0  0  0  0  0  0  0  0  0  0  0
   -6.0033   -5.0344   -0.9250 C   0  0  0  0  0  0  0  0  0  0  0  0
   -7.1259   -5.1680   -1.8205 C   0  0  0  0  0  0  0  0  0  0  0  0
   -8.0496   -5.3617   -2.5749 C   0  0  0  0  0  0  0  0  0  0  0  0
   -9.1306   -5.6881   -3.4799 C   0  0  0  0  0  0  0  0  0  0  0  0
   -9.4417   -7.0966   -3.8327 C   0  0  0  0  0  0  0  0  0  0  0  0
  -10.4587   -7.3085   -4.6795 C   0  0  0  0  0  0  0  0  0  0  0  0
  -11.1727   -6.1990   -5.1860 C   0  0  0  0  0  0  0  0  0  0  0  0
  -12.1937   -6.1334   -6.0161 N   0  0  0  0  0  0  0  0  0  0  0  0
  -12.4630   -4.7945   -6.1447 C   0  0  0  0  0  0  0  0  0  0  0  0
  -11.5970   -4.0418   -5.3859 C   0  0  0  0  0  0  0  0  0  0  0  0
  -10.7682   -4.9407   -4.7673 N   0  0  0  0  0  0  0  0  0  0  0  0
   -9.7458   -4.6300   -3.9088 N   0  0  0  0  0  0  0  0  0  0  0  0
   -5.2250   -3.8626   -0.9004 C   0  0  0  0  0  0  0  0  0  0  0  0
    0.1540   -1.2735   -0.1409 C   0  0  0  0  0  0  0  0  0  0  0  0
    2.8424    0.8118   -0.5855 H   0  0  0  0  0  0  0  0  0  0  0  0
    2.5914   -0.7033   -1.4641 H   0  0  0  0  0  0  0  0  0  0  0  0
    2.8786   -0.7202    0.2972 H   0  0  0  0  0  0  0  0  0  0  0  0
    0.8231    2.0574   -0.2912 H   0  0  0  0  0  0  0  0  0  0  0  0
   -1.6031    2.1599    0.1262 H   0  0  0  0  0  0  0  0  0  0  0  0
   -2.9293    0.0921    0.4010 H   0  0  0  0  0  0  0  0  0  0  0  0
   -3.6262   -1.8410   -0.7122 H   0  0  0  0  0  0  0  0  0  0  0  0
   -2.9154   -4.8299    1.4167 H   0  0  0  0  0  0  0  0  0  0  0  0
   -4.2719   -6.8453    1.3862 H   0  0  0  0  0  0  0  0  0  0  0  0
   -6.2354   -7.0292   -0.1051 H   0  0  0  0  0  0  0  0  0  0  0  0
   -8.8523   -7.8969   -3.4087 H   0  0  0  0  0  0  0  0  0  0  0  0
  -10.7547   -8.3042   -4.9919 H   0  0  0  0  0  0  0  0  0  0  0  0
  -13.2675   -4.4436   -6.7789 H   0  0  0  0  0  0  0  0  0  0  0  0
  -11.4956   -2.9795   -5.2320 H   0  0  0  0  0  0  0  0  0  0  0  0
   -5.5003   -3.0369   -1.5507 H   0  0  0  0  0  0  0  0  0  0  0  0
    0.6536   -2.2409   -0.1940 H   0  0  0  0  0  0  0  0  0  0  0  0
  1  2  1  0  0  0  0
  1 28  1  0  0  0  0
  1 29  1  0  0  0  0
  1 30  1  0  0  0  0
  2  3  1  0  0  0  0
  2 27  2  0  0  0  0
  3  4  2  0  0  0  0
  3 31  1  0  0  0  0
  4  5  1  0  0  0  0
  4 32  1  0  0  0  0
  5  6  2  0  0  0  0
  5 33  1  0  0  0  0
  6  7  1  0  0  0  0
  6 27  1  0  0  0  0
  7  8  2  0  0  0  0
  7  9  1  0  0  0  0
  9 10  1  0  0  0  0
  9 34  1  0  0  0  0
 10 11  1  0  0  0  0
 10 26  2  0  0  0  0
 11 12  2  0  0  0  0
 11 35  1  0  0  0  0
 12 13  1  0  0  0  0
 12 36  1  0  0  0  0
 13 14  2  0  0  0  0
 13 37  1  0  0  0  0
 14 15  1  0  0  0  0
 14 26  1  0  0  0  0
 15 16  3  0  0  0  0
 16 17  1  0  0  0  0
 17 18  1  0  0  0  0
 17 25  2  0  0  0  0
 18 19  2  0  0  0  0
 18 38  1  0  0  0  0
 19 20  1  0  0  0  0
 19 39  1  0  0  0  0
 20 21  2  0  0  0  0
 20 24  1  0  0  0  0
 21 22  1  0  0  0  0
 22 23  2  0  0  0  0
 22 40  1  0  0  0  0
 23 24  1  0  0  0  0
 23 41  1  0  0  0  0
 24 25  1  0  0  0  0
 26 42  1  0  0  0  0
 27 43  1  0  0  0  0
M  END
$$$$
