CHEMBL271512
 OpenBabel04072215363D

 67 71  0  0  0  0  0  0  0  0999 V2000
    2.6693    1.6196   -2.4302 C   0  0  0  0  0  0  0  0  0  0  0  0
    3.7874    2.3568   -1.8610 N   0  0  0  0  0  0  0  0  0  0  0  0
    4.0585    3.5792   -2.6131 C   0  0  0  0  0  0  0  0  0  0  0  0
    5.1979    4.3876   -1.9947 C   0  0  0  0  0  0  0  0  0  0  0  0
    6.5449    3.6580   -1.9995 C   0  0  0  0  0  0  0  0  0  0  0  0
    7.5862    4.5128   -1.4491 N   0  0  0  0  0  0  0  0  0  0  0  0
    7.5284    4.7588   -0.1282 C   0  0  0  0  0  0  0  0  0  0  0  0
    7.0994    4.0199    0.8682 N   0  0  0  0  0  0  0  0  0  0  0  0
    7.2454    4.7839    2.0021 N   0  0  0  0  0  0  0  0  0  0  0  0
    7.7252    5.9508    1.6172 C   0  0  0  0  0  0  0  0  0  0  0  0
    8.0271    7.0883    2.5314 C   0  0  0  0  0  0  0  0  0  0  0  0
    8.1239    8.3802    2.0804 C   0  0  0  0  0  0  0  0  0  0  0  0
    8.3070    9.1859    3.1612 N   0  0  0  0  0  0  0  0  0  0  0  0
    8.3471   10.5208    3.0894 N   0  0  0  0  0  0  0  0  0  0  0  0
    8.5252   11.0992    4.2286 C   0  0  0  0  0  0  0  0  0  0  0  0
    8.6948   10.4779    5.4337 N   0  0  0  0  0  0  0  0  0  0  0  0
    8.6632    9.1793    5.5223 C   0  0  0  0  0  0  0  0  0  0  0  0
    8.8865    8.5910    6.7442 N   0  0  0  0  0  0  0  0  0  0  0  0
    8.7147    9.1641    8.0179 C   0  0  0  0  0  0  0  0  0  0  0  0
    7.7654   10.1628    8.2726 C   0  0  0  0  0  0  0  0  0  0  0  0
    7.5819   10.6820    9.5648 C   0  0  0  0  0  0  0  0  0  0  0  0
    6.4637   11.6447    9.7762 C   0  0  0  0  0  0  0  0  0  0  0  0
    5.7543   11.9692    8.8275 O   0  0  0  0  0  0  0  0  0  0  0  0
    6.2567   12.1046   11.0606 N   0  0  0  0  0  0  0  0  0  0  0  0
    5.1563   12.9476   11.3998 C   0  0  0  0  0  0  0  0  0  0  0  0
    5.2680   14.4425   11.3089 C   0  0  0  0  0  0  0  0  0  0  0  0
    5.1965   13.7785   12.6518 C   0  0  0  0  0  0  0  0  0  0  0  0
    8.4141   10.2346   10.5930 C   0  0  0  0  0  0  0  0  0  0  0  0
    8.2762   10.6959   11.8459 F   0  0  0  0  0  0  0  0  0  0  0  0
    9.4013    9.2841   10.3568 C   0  0  0  0  0  0  0  0  0  0  0  0
    9.5357    8.7538    9.0774 C   0  0  0  0  0  0  0  0  0  0  0  0
   10.4744    7.8193    8.8624 F   0  0  0  0  0  0  0  0  0  0  0  0
    8.4308    8.4314    4.3013 C   0  0  0  0  0  0  0  0  0  0  0  0
    8.2656    7.0839    3.9539 C   0  0  0  0  0  0  0  0  0  0  0  0
    8.3538    5.8082    4.7728 C   0  0  0  0  0  0  0  0  0  0  0  0
    9.7718    5.5075    5.2583 C   0  0  0  0  0  0  0  0  0  0  0  0
    7.2932    5.6732    5.8618 C   0  0  0  0  0  0  0  0  0  0  0  0
    7.9100    6.0051    0.2578 O   0  0  0  0  0  0  0  0  0  0  0  0
    2.5080    0.7050   -1.8515 H   0  0  0  0  0  0  0  0  0  0  0  0
    2.8679    1.3319   -3.4674 H   0  0  0  0  0  0  0  0  0  0  0  0
    1.7465    2.2060   -2.3871 H   0  0  0  0  0  0  0  0  0  0  0  0
    4.6054    1.7504   -1.8418 H   0  0  0  0  0  0  0  0  0  0  0  0
    3.1633    4.2128   -2.6114 H   0  0  0  0  0  0  0  0  0  0  0  0
    4.2995    3.3474   -3.6575 H   0  0  0  0  0  0  0  0  0  0  0  0
    4.9212    4.6693   -0.9703 H   0  0  0  0  0  0  0  0  0  0  0  0
    5.3013    5.3297   -2.5488 H   0  0  0  0  0  0  0  0  0  0  0  0
    6.8199    3.4007   -3.0288 H   0  0  0  0  0  0  0  0  0  0  0  0
    6.4986    2.7162   -1.4420 H   0  0  0  0  0  0  0  0  0  0  0  0
    7.8260    5.3126   -2.0236 H   0  0  0  0  0  0  0  0  0  0  0  0
    8.0178    8.8066    1.0931 H   0  0  0  0  0  0  0  0  0  0  0  0
    8.5560   12.2014    4.2499 H   0  0  0  0  0  0  0  0  0  0  0  0
    9.1899    7.6327    6.7706 H   0  0  0  0  0  0  0  0  0  0  0  0
    7.1195   10.5098    7.4672 H   0  0  0  0  0  0  0  0  0  0  0  0
    6.8518   11.7726   11.8130 H   0  0  0  0  0  0  0  0  0  0  0  0
    4.1948   12.5157   11.1259 H   0  0  0  0  0  0  0  0  0  0  0  0
    4.3991   14.9883   10.9600 H   0  0  0  0  0  0  0  0  0  0  0  0
    6.2137   14.8635   10.9914 H   0  0  0  0  0  0  0  0  0  0  0  0
    4.2784   13.8758   13.2199 H   0  0  0  0  0  0  0  0  0  0  0  0
    6.0948   13.7674   13.2568 H   0  0  0  0  0  0  0  0  0  0  0  0
   10.0458    8.9464   11.1583 H   0  0  0  0  0  0  0  0  0  0  0  0
    8.1387    4.9696    4.1061 H   0  0  0  0  0  0  0  0  0  0  0  0
   10.1904    6.2848    5.8965 H   0  0  0  0  0  0  0  0  0  0  0  0
   10.4510    5.4044    4.4027 H   0  0  0  0  0  0  0  0  0  0  0  0
    9.7980    4.5655    5.8162 H   0  0  0  0  0  0  0  0  0  0  0  0
    7.4563    6.3445    6.7059 H   0  0  0  0  0  0  0  0  0  0  0  0
    7.2904    4.6489    6.2542 H   0  0  0  0  0  0  0  0  0  0  0  0
    6.2923    5.8685    5.4605 H   0  0  0  0  0  0  0  0  0  0  0  0
  1  2  1  0  0  0  0
  1 39  1  0  0  0  0
  1 40  1  0  0  0  0
  1 41  1  0  0  0  0
  2  3  1  0  0  0  0
  2 42  1  0  0  0  0
  3  4  1  0  0  0  0
  3 43  1  0  0  0  0
  3 44  1  0  0  0  0
  4  5  1  0  0  0  0
  4 45  1  0  0  0  0
  4 46  1  0  0  0  0
  5  6  1  0  0  0  0
  5 47  1  0  0  0  0
  5 48  1  0  0  0  0
  6  7  1  0  0  0  0
  6 49  1  0  0  0  0
  7  8  2  0  0  0  0
  7 38  1  0  0  0  0
  8  9  1  0  0  0  0
  9 10  2  0  0  0  0
 10 11  1  0  0  0  0
 10 38  1  0  0  0  0
 11 12  2  0  0  0  0
 11 34  1  0  0  0  0
 12 13  1  0  0  0  0
 12 50  1  0  0  0  0
 13 14  1  0  0  0  0
 13 33  1  0  0  0  0
 14 15  2  0  0  0  0
 15 16  1  0  0  0  0
 15 51  1  0  0  0  0
 16 17  2  0  0  0  0
 17 18  1  0  0  0  0
 17 33  1  0  0  0  0
 18 19  1  0  0  0  0
 18 52  1  0  0  0  0
 19 20  1  0  0  0  0
 19 31  2  0  0  0  0
 20 21  2  0  0  0  0
 20 53  1  0  0  0  0
 21 22  1  0  0  0  0
 21 28  1  0  0  0  0
 22 23  2  0  0  0  0
 22 24  1  0  0  0  0
 24 25  1  0  0  0  0
 24 54  1  0  0  0  0
 25 26  1  0  0  0  0
 25 27  1  0  0  0  0
 25 55  1  0  0  0  0
 26 27  1  0  0  0  0
 26 56  1  0  0  0  0
 26 57  1  0  0  0  0
 27 58  1  0  0  0  0
 27 59  1  0  0  0  0
 28 29  1  0  0  0  0
 28 30  2  0  0  0  0
 30 31  1  0  0  0  0
 30 60  1  0  0  0  0
 31 32  1  0  0  0  0
 33 34  2  0  0  0  0
 34 35  1  0  0  0  0
 35 36  1  0  0  0  0
 35 37  1  0  0  0  0
 35 61  1  0  0  0  0
 36 62  1  0  0  0  0
 36 63  1  0  0  0  0
 36 64  1  0  0  0  0
 37 65  1  0  0  0  0
 37 66  1  0  0  0  0
 37 67  1  0  0  0  0
M  END
$$$$
