CHEMBL485081
 OpenBabel04072215383D

 56 60  0  0  0  0  0  0  0  0999 V2000
   -2.0518    1.4410    1.4420 O   0  0  0  0  0  0  0  0  0  0  0  0
   -1.3799    0.4743    1.1433 C   0  0  0  0  0  0  0  0  0  0  0  0
   -1.7200   -0.8333    1.4083 N   0  0  0  0  0  0  0  0  0  0  0  0
   -0.6762   -1.7643    1.0830 C   0  0  0  0  0  0  0  0  0  0  0  0
    0.3843   -0.8774    0.5239 C   0  0  0  0  0  0  0  0  0  0  0  0
    1.6305   -1.2361    0.0404 C   0  0  0  0  0  0  0  0  0  0  0  0
    2.4501   -0.2298   -0.4662 C   0  0  0  0  0  0  0  0  0  0  0  0
    2.0060    1.1050   -0.5077 C   0  0  0  0  0  0  0  0  0  0  0  0
    0.7366    1.4824   -0.0284 C   0  0  0  0  0  0  0  0  0  0  0  0
    0.2989    2.8730   -0.1861 C   0  0  0  0  0  0  0  0  0  0  0  0
    0.6112    3.8033   -1.1663 C   0  0  0  0  0  0  0  0  0  0  0  0
   -0.1559    4.9782   -0.9425 C   0  0  0  0  0  0  0  0  0  0  0  0
   -0.3197    6.1920   -1.6345 C   0  0  0  0  0  0  0  0  0  0  0  0
   -1.2005    7.1569   -1.1312 C   0  0  0  0  0  0  0  0  0  0  0  0
   -1.3449    8.2735   -1.9131 O   0  0  0  0  0  0  0  0  0  0  0  0
   -1.6382    9.4750   -1.1976 C   0  0  0  0  0  0  0  0  0  0  0  0
   -1.6930   10.6194   -2.2048 C   0  0  0  0  0  0  0  0  0  0  0  0
   -1.9213   11.9721   -1.5233 C   0  0  0  0  0  0  0  0  0  0  0  0
   -0.9045   12.2952   -0.5092 N   0  0  0  0  0  0  0  0  0  0  0  0
    0.4350   12.4456   -1.0998 C   0  0  0  0  0  0  0  0  0  0  0  0
    1.4880   12.6949   -0.0221 C   0  0  0  0  0  0  0  0  0  0  0  0
    1.1388   13.9155    0.8166 C   0  0  0  0  0  0  0  0  0  0  0  0
   -0.2805   13.7972    1.3591 C   0  0  0  0  0  0  0  0  0  0  0  0
   -1.2848   13.5008    0.2430 C   0  0  0  0  0  0  0  0  0  0  0  0
   -1.9088    6.9193    0.0478 C   0  0  0  0  0  0  0  0  0  0  0  0
   -1.7650    5.7171    0.7475 C   0  0  0  0  0  0  0  0  0  0  0  0
   -0.8886    4.7669    0.2191 C   0  0  0  0  0  0  0  0  0  0  0  0
   -0.6012    3.4951    0.6510 N   0  0  0  0  0  0  0  0  0  0  0  0
   -0.0408    0.4610    0.5144 C   0  0  0  0  0  0  0  0  0  0  0  0
   -2.5896   -1.0604    1.8722 H   0  0  0  0  0  0  0  0  0  0  0  0
   -1.0542   -2.4754    0.3441 H   0  0  0  0  0  0  0  0  0  0  0  0
   -0.3549   -2.2703    1.9963 H   0  0  0  0  0  0  0  0  0  0  0  0
    1.9656   -2.2684    0.0516 H   0  0  0  0  0  0  0  0  0  0  0  0
    3.4389   -0.4756   -0.8482 H   0  0  0  0  0  0  0  0  0  0  0  0
    2.6758    1.8551   -0.9256 H   0  0  0  0  0  0  0  0  0  0  0  0
    1.2768    3.6382   -2.0032 H   0  0  0  0  0  0  0  0  0  0  0  0
    0.2192    6.3757   -2.5585 H   0  0  0  0  0  0  0  0  0  0  0  0
   -0.8548    9.6458   -0.4497 H   0  0  0  0  0  0  0  0  0  0  0  0
   -2.6144    9.4090   -0.7059 H   0  0  0  0  0  0  0  0  0  0  0  0
   -2.5090   10.4297   -2.9139 H   0  0  0  0  0  0  0  0  0  0  0  0
   -0.7862   10.6263   -2.8205 H   0  0  0  0  0  0  0  0  0  0  0  0
   -2.9072   11.9309   -1.0409 H   0  0  0  0  0  0  0  0  0  0  0  0
   -1.9762   12.7593   -2.2857 H   0  0  0  0  0  0  0  0  0  0  0  0
    0.4459   13.2619   -1.8333 H   0  0  0  0  0  0  0  0  0  0  0  0
    0.7342   11.5323   -1.6234 H   0  0  0  0  0  0  0  0  0  0  0  0
    2.4688   12.8322   -0.4909 H   0  0  0  0  0  0  0  0  0  0  0  0
    1.5645   11.8120    0.6258 H   0  0  0  0  0  0  0  0  0  0  0  0
    1.2219   14.8182    0.1994 H   0  0  0  0  0  0  0  0  0  0  0  0
    1.8517   14.0197    1.6414 H   0  0  0  0  0  0  0  0  0  0  0  0
   -0.5578   14.7258    1.8704 H   0  0  0  0  0  0  0  0  0  0  0  0
   -0.3186   12.9959    2.1083 H   0  0  0  0  0  0  0  0  0  0  0  0
   -1.3629   14.3682   -0.4252 H   0  0  0  0  0  0  0  0  0  0  0  0
   -2.2690   13.3565    0.7058 H   0  0  0  0  0  0  0  0  0  0  0  0
   -2.6175    7.6411    0.4389 H   0  0  0  0  0  0  0  0  0  0  0  0
   -2.3360    5.5229    1.6495 H   0  0  0  0  0  0  0  0  0  0  0  0
   -1.0825    3.0373    1.4174 H   0  0  0  0  0  0  0  0  0  0  0  0
  1  2  2  0  0  0  0
  2  3  1  0  0  0  0
  2 29  1  0  0  0  0
  3  4  1  0  0  0  0
  3 30  1  0  0  0  0
  4  5  1  0  0  0  0
  4 31  1  0  0  0  0
  4 32  1  0  0  0  0
  5  6  1  0  0  0  0
  5 29  2  0  0  0  0
  6  7  2  0  0  0  0
  6 33  1  0  0  0  0
  7  8  1  0  0  0  0
  7 34  1  0  0  0  0
  8  9  2  0  0  0  0
  8 35  1  0  0  0  0
  9 10  1  0  0  0  0
  9 29  1  0  0  0  0
 10 11  2  0  0  0  0
 10 28  1  0  0  0  0
 11 12  1  0  0  0  0
 11 36  1  0  0  0  0
 12 13  1  0  0  0  0
 12 27  2  0  0  0  0
 13 14  2  0  0  0  0
 13 37  1  0  0  0  0
 14 15  1  0  0  0  0
 14 25  1  0  0  0  0
 15 16  1  0  0  0  0
 16 17  1  0  0  0  0
 16 38  1  0  0  0  0
 16 39  1  0  0  0  0
 17 18  1  0  0  0  0
 17 40  1  0  0  0  0
 17 41  1  0  0  0  0
 18 19  1  0  0  0  0
 18 42  1  0  0  0  0
 18 43  1  0  0  0  0
 19 20  1  0  0  0  0
 19 24  1  0  0  0  0
 20 21  1  0  0  0  0
 20 44  1  0  0  0  0
 20 45  1  0  0  0  0
 21 22  1  0  0  0  0
 21 46  1  0  0  0  0
 21 47  1  0  0  0  0
 22 23  1  0  0  0  0
 22 48  1  0  0  0  0
 22 49  1  0  0  0  0
 23 24  1  0  0  0  0
 23 50  1  0  0  0  0
 23 51  1  0  0  0  0
 24 52  1  0  0  0  0
 24 53  1  0  0  0  0
 25 26  2  0  0  0  0
 25 54  1  0  0  0  0
 26 27  1  0  0  0  0
 26 55  1  0  0  0  0
 27 28  1  0  0  0  0
 28 56  1  0  0  0  0
M  END
$$$$
