CHEMBL213430
 OpenBabel04072215363D

 75 80  0  0  0  0  0  0  0  0999 V2000
    3.1067    3.3559    1.2075 C   0  0  0  0  0  0  0  0  0  0  0  0
    3.5220    3.1011   -0.2347 C   0  0  0  0  0  0  0  0  0  0  0  0
    2.4529    3.3944   -1.1948 N   0  0  0  0  0  0  0  0  0  0  0  0
    1.6847    2.2676   -1.7416 C   0  0  0  0  0  0  0  0  0  0  0  0
    0.4387    1.9815   -0.9461 C   0  0  0  0  0  0  0  0  0  0  0  0
    0.3132    1.2128    0.1941 C   0  0  0  0  0  0  0  0  0  0  0  0
   -1.0266    1.1602    0.6743 C   0  0  0  0  0  0  0  0  0  0  0  0
   -1.9264    1.7784   -0.1710 C   0  0  0  0  0  0  0  0  0  0  0  0
   -3.3553    1.7963   -0.0193 C   0  0  0  0  0  0  0  0  0  0  0  0
   -4.2485    2.3734   -0.9075 N   0  0  0  0  0  0  0  0  0  0  0  0
   -5.5611    2.2244   -0.5733 N   0  0  0  0  0  0  0  0  0  0  0  0
   -5.4800    1.5361    0.5555 C   0  0  0  0  0  0  0  0  0  0  0  0
   -4.1646    1.2495    0.9476 C   0  0  0  0  0  0  0  0  0  0  0  0
   -4.0772    0.4607    2.2085 C   0  0  0  0  0  0  0  0  0  0  0  0
   -5.5801    0.3386    2.4791 C   0  0  0  0  0  0  0  0  0  0  0  0
   -6.1727   -0.3051    3.5545 C   0  0  0  0  0  0  0  0  0  0  0  0
   -7.5770   -0.3032    3.6568 C   0  0  0  0  0  0  0  0  0  0  0  0
   -8.2504   -0.9666    4.8468 C   0  0  0  0  0  0  0  0  0  0  0  0
   -7.7708   -0.4572    6.1413 N   0  0  0  0  0  0  0  0  0  0  0  0
   -8.0711    0.9771    6.3243 C   0  0  0  0  0  0  0  0  0  0  0  0
   -7.5679    1.4925    7.6925 C   0  0  0  0  0  0  0  0  0  0  0  0
   -8.0827    0.7520    8.8612 N   0  0  0  0  0  0  0  0  0  0  0  0
   -9.4820    1.0757    9.1258 C   0  0  0  0  0  0  0  0  0  0  0  0
   -7.8862   -0.6952    8.6408 C   0  0  0  0  0  0  0  0  0  0  0  0
   -8.3532   -1.2235    7.2622 C   0  0  0  0  0  0  0  0  0  0  0  0
   -8.3566    0.3293    2.6559 C   0  0  0  0  0  0  0  0  0  0  0  0
   -7.7617    0.9779    1.5662 C   0  0  0  0  0  0  0  0  0  0  0  0
   -6.3862    0.9742    1.5018 C   0  0  0  0  0  0  0  0  0  0  0  0
   -1.1037    2.5262   -1.4799 S   0  0  0  0  0  0  0  0  0  0  0  0
    2.3952    4.7077   -1.6719 C   0  0  0  0  0  0  0  0  0  0  0  0
    3.2432    5.5419   -1.3663 O   0  0  0  0  0  0  0  0  0  0  0  0
    1.2968    4.9967   -2.4543 N   0  0  0  0  0  0  0  0  0  0  0  0
    1.0963    6.2942   -2.9879 C   0  0  0  0  0  0  0  0  0  0  0  0
   -0.1482    6.8973   -2.7962 C   0  0  0  0  0  0  0  0  0  0  0  0
   -0.3726    8.1951   -3.2590 C   0  0  0  0  0  0  0  0  0  0  0  0
    0.6156    8.8672   -3.9797 C   0  0  0  0  0  0  0  0  0  0  0  0
    1.8456    8.2518   -4.2292 C   0  0  0  0  0  0  0  0  0  0  0  0
    2.8849    8.9493   -5.0633 C   0  0  0  0  0  0  0  0  0  0  0  0
    2.0949    6.9733   -3.7037 C   0  0  0  0  0  0  0  0  0  0  0  0
    3.9857    3.3348    1.8617 H   0  0  0  0  0  0  0  0  0  0  0  0
    2.4163    2.5871    1.5625 H   0  0  0  0  0  0  0  0  0  0  0  0
    2.6177    4.3281    1.3254 H   0  0  0  0  0  0  0  0  0  0  0  0
    3.8667    2.0699   -0.3577 H   0  0  0  0  0  0  0  0  0  0  0  0
    4.3866    3.7377   -0.4556 H   0  0  0  0  0  0  0  0  0  0  0  0
    2.3273    1.3784   -1.7407 H   0  0  0  0  0  0  0  0  0  0  0  0
    1.4455    2.4635   -2.7919 H   0  0  0  0  0  0  0  0  0  0  0  0
    1.1445    0.7170    0.6811 H   0  0  0  0  0  0  0  0  0  0  0  0
   -1.3138    0.6466    1.5829 H   0  0  0  0  0  0  0  0  0  0  0  0
   -4.0269    2.8624   -1.7667 H   0  0  0  0  0  0  0  0  0  0  0  0
   -3.5798    1.0174    3.0062 H   0  0  0  0  0  0  0  0  0  0  0  0
   -3.6291   -0.5231    2.0487 H   0  0  0  0  0  0  0  0  0  0  0  0
   -5.5674   -0.7818    4.3211 H   0  0  0  0  0  0  0  0  0  0  0  0
   -8.0313   -2.0405    4.7721 H   0  0  0  0  0  0  0  0  0  0  0  0
   -9.3409   -0.8645    4.7719 H   0  0  0  0  0  0  0  0  0  0  0  0
   -9.1491    1.1610    6.2292 H   0  0  0  0  0  0  0  0  0  0  0  0
   -7.5738    1.5744    5.5524 H   0  0  0  0  0  0  0  0  0  0  0  0
   -7.7970    2.5609    7.7896 H   0  0  0  0  0  0  0  0  0  0  0  0
   -6.4713    1.4263    7.7067 H   0  0  0  0  0  0  0  0  0  0  0  0
   -9.5971    2.1515    9.3015 H   0  0  0  0  0  0  0  0  0  0  0  0
   -9.8207    0.5751   10.0394 H   0  0  0  0  0  0  0  0  0  0  0  0
  -10.1559    0.7911    8.3119 H   0  0  0  0  0  0  0  0  0  0  0  0
   -8.3751   -1.2682    9.4384 H   0  0  0  0  0  0  0  0  0  0  0  0
   -6.8131   -0.9055    8.7448 H   0  0  0  0  0  0  0  0  0  0  0  0
   -9.4495   -1.2007    7.2145 H   0  0  0  0  0  0  0  0  0  0  0  0
   -8.0491   -2.2748    7.1813 H   0  0  0  0  0  0  0  0  0  0  0  0
   -9.4425    0.3271    2.7344 H   0  0  0  0  0  0  0  0  0  0  0  0
   -8.3582    1.4696    0.8053 H   0  0  0  0  0  0  0  0  0  0  0  0
    0.4614    4.5238   -2.1396 H   0  0  0  0  0  0  0  0  0  0  0  0
   -0.9293    6.3981   -2.2335 H   0  0  0  0  0  0  0  0  0  0  0  0
   -1.3194    8.6880   -3.0538 H   0  0  0  0  0  0  0  0  0  0  0  0
    0.4167    9.8701   -4.3417 H   0  0  0  0  0  0  0  0  0  0  0  0
    2.5163    9.9088   -5.4413 H   0  0  0  0  0  0  0  0  0  0  0  0
    3.1446    8.3354   -5.9306 H   0  0  0  0  0  0  0  0  0  0  0  0
    3.7886    9.1464   -4.4745 H   0  0  0  0  0  0  0  0  0  0  0  0
    3.0614    6.5003   -3.8677 H   0  0  0  0  0  0  0  0  0  0  0  0
  1  2  1  0  0  0  0
  1 40  1  0  0  0  0
  1 41  1  0  0  0  0
  1 42  1  0  0  0  0
  2  3  1  0  0  0  0
  2 43  1  0  0  0  0
  2 44  1  0  0  0  0
  3  4  1  0  0  0  0
  3 30  1  0  0  0  0
  4  5  1  0  0  0  0
  4 45  1  0  0  0  0
  4 46  1  0  0  0  0
  5  6  2  0  0  0  0
  5 29  1  0  0  0  0
  6  7  1  0  0  0  0
  6 47  1  0  0  0  0
  7  8  2  0  0  0  0
  7 48  1  0  0  0  0
  8  9  1  0  0  0  0
  8 29  1  0  0  0  0
  9 10  1  0  0  0  0
  9 13  2  0  0  0  0
 10 11  1  0  0  0  0
 10 49  1  0  0  0  0
 11 12  2  0  0  0  0
 12 13  1  0  0  0  0
 12 28  1  0  0  0  0
 13 14  1  0  0  0  0
 14 15  1  0  0  0  0
 14 50  1  0  0  0  0
 14 51  1  0  0  0  0
 15 16  1  0  0  0  0
 15 28  2  0  0  0  0
 16 17  2  0  0  0  0
 16 52  1  0  0  0  0
 17 18  1  0  0  0  0
 17 26  1  0  0  0  0
 18 19  1  0  0  0  0
 18 53  1  0  0  0  0
 18 54  1  0  0  0  0
 19 20  1  0  0  0  0
 19 25  1  0  0  0  0
 20 21  1  0  0  0  0
 20 55  1  0  0  0  0
 20 56  1  0  0  0  0
 21 22  1  0  0  0  0
 21 57  1  0  0  0  0
 21 58  1  0  0  0  0
 22 23  1  0  0  0  0
 22 24  1  0  0  0  0
 23 59  1  0  0  0  0
 23 60  1  0  0  0  0
 23 61  1  0  0  0  0
 24 25  1  0  0  0  0
 24 62  1  0  0  0  0
 24 63  1  0  0  0  0
 25 64  1  0  0  0  0
 25 65  1  0  0  0  0
 26 27  2  0  0  0  0
 26 66  1  0  0  0  0
 27 28  1  0  0  0  0
 27 67  1  0  0  0  0
 30 31  2  0  0  0  0
 30 32  1  0  0  0  0
 32 33  1  0  0  0  0
 32 68  1  0  0  0  0
 33 34  1  0  0  0  0
 33 39  2  0  0  0  0
 34 35  2  0  0  0  0
 34 69  1  0  0  0  0
 35 36  1  0  0  0  0
 35 70  1  0  0  0  0
 36 37  2  0  0  0  0
 36 71  1  0  0  0  0
 37 38  1  0  0  0  0
 37 39  1  0  0  0  0
 38 72  1  0  0  0  0
 38 73  1  0  0  0  0
 38 74  1  0  0  0  0
 39 75  1  0  0  0  0
M  END
$$$$
