CHEMBL1990583
 OpenBabel04072215363D

 46 49  0  0  0  0  0  0  0  0999 V2000
    1.2381   -0.3253   -0.3833 N   0  0  0  0  0  0  0  0  0  0  0  0
    2.5522   -0.0849   -0.0900 C   0  0  0  0  0  0  0  0  0  0  0  0
    3.3315   -1.1237   -0.0345 N   0  0  0  0  0  0  0  0  0  0  0  0
    4.6667   -0.9403    0.2304 C   0  0  0  0  0  0  0  0  0  0  0  0
    5.2647    0.1846    0.4593 N   0  0  0  0  0  0  0  0  0  0  0  0
    4.4522    1.2498    0.4133 N   0  0  0  0  0  0  0  0  0  0  0  0
    4.8568    2.5400    0.5931 C   0  0  0  0  0  0  0  0  0  0  0  0
    3.7624    3.3480    0.4198 C   0  0  0  0  0  0  0  0  0  0  0  0
    2.6310    2.5128    0.1412 C   0  0  0  0  0  0  0  0  0  0  0  0
    1.3118    3.0641   -0.1676 C   0  0  0  0  0  0  0  0  0  0  0  0
    1.2582    4.1673   -0.6912 O   0  0  0  0  0  0  0  0  0  0  0  0
    0.2129    2.3134    0.2371 N   0  0  0  0  0  0  0  0  0  0  0  0
   -1.1359    2.7237    0.0688 C   0  0  0  0  0  0  0  0  0  0  0  0
   -1.4935    3.7236   -0.8291 C   0  0  0  0  0  0  0  0  0  0  0  0
   -2.8078    4.1828   -0.9234 C   0  0  0  0  0  0  0  0  0  0  0  0
   -3.8253    3.6410   -0.1415 C   0  0  0  0  0  0  0  0  0  0  0  0
   -5.1590    4.1320   -0.1811 N   0  0  0  0  0  0  0  0  0  0  0  0
   -5.6172    5.1170   -1.0459 C   0  0  0  0  0  0  0  0  0  0  0  0
   -4.9651    5.6206   -1.9548 O   0  0  0  0  0  0  0  0  0  0  0  0
   -6.9167    5.5247   -0.7561 N   0  0  0  0  0  0  0  0  0  0  0  0
   -7.5028    6.5488   -1.5498 C   0  0  0  0  0  0  0  0  0  0  0  0
   -7.4490    6.5026   -2.9515 C   0  0  0  0  0  0  0  0  0  0  0  0
   -7.9185    7.5705   -3.7199 C   0  0  0  0  0  0  0  0  0  0  0  0
   -8.4390    8.6948   -3.0881 C   0  0  0  0  0  0  0  0  0  0  0  0
   -8.5145    8.7239   -1.6987 C   0  0  0  0  0  0  0  0  0  0  0  0
   -8.9879    9.8206   -1.0927 F   0  0  0  0  0  0  0  0  0  0  0  0
   -8.0760    7.6528   -0.9219 C   0  0  0  0  0  0  0  0  0  0  0  0
   -3.4888    2.5954    0.7270 C   0  0  0  0  0  0  0  0  0  0  0  0
   -2.1557    2.1323    0.8230 C   0  0  0  0  0  0  0  0  0  0  0  0
    3.1096    1.2087    0.1477 C   0  0  0  0  0  0  0  0  0  0  0  0
    1.1202   -1.2916   -0.6712 H   0  0  0  0  0  0  0  0  0  0  0  0
    0.8488    0.3040   -1.0772 H   0  0  0  0  0  0  0  0  0  0  0  0
    5.2820   -1.8562    0.2406 H   0  0  0  0  0  0  0  0  0  0  0  0
    5.8922    2.7692    0.8040 H   0  0  0  0  0  0  0  0  0  0  0  0
    3.7568    4.4313    0.4687 H   0  0  0  0  0  0  0  0  0  0  0  0
    0.3920    1.5118    0.8280 H   0  0  0  0  0  0  0  0  0  0  0  0
   -0.7755    4.1983   -1.4922 H   0  0  0  0  0  0  0  0  0  0  0  0
   -2.9696    4.9881   -1.6252 H   0  0  0  0  0  0  0  0  0  0  0  0
   -5.8434    3.6704    0.3960 H   0  0  0  0  0  0  0  0  0  0  0  0
   -7.1286    5.5492    0.2295 H   0  0  0  0  0  0  0  0  0  0  0  0
   -7.0107    5.6443   -3.4582 H   0  0  0  0  0  0  0  0  0  0  0  0
   -7.8459    7.5324   -4.8043 H   0  0  0  0  0  0  0  0  0  0  0  0
   -8.7726    9.5512   -3.6660 H   0  0  0  0  0  0  0  0  0  0  0  0
   -8.1173    7.7403    0.1574 H   0  0  0  0  0  0  0  0  0  0  0  0
   -4.2462    2.1334    1.3546 H   0  0  0  0  0  0  0  0  0  0  0  0
   -1.9293    1.3345    1.5261 H   0  0  0  0  0  0  0  0  0  0  0  0
  1  2  1  0  0  0  0
  1 31  1  0  0  0  0
  1 32  1  0  0  0  0
  2  3  2  0  0  0  0
  2 30  1  0  0  0  0
  3  4  1  0  0  0  0
  4  5  2  0  0  0  0
  4 33  1  0  0  0  0
  5  6  1  0  0  0  0
  6  7  1  0  0  0  0
  6 30  1  0  0  0  0
  7  8  2  0  0  0  0
  7 34  1  0  0  0  0
  8  9  1  0  0  0  0
  8 35  1  0  0  0  0
  9 10  1  0  0  0  0
  9 30  2  0  0  0  0
 10 11  2  0  0  0  0
 10 12  1  0  0  0  0
 12 13  1  0  0  0  0
 12 36  1  0  0  0  0
 13 14  1  0  0  0  0
 13 29  2  0  0  0  0
 14 15  2  0  0  0  0
 14 37  1  0  0  0  0
 15 16  1  0  0  0  0
 15 38  1  0  0  0  0
 16 17  1  0  0  0  0
 16 28  2  0  0  0  0
 17 18  1  0  0  0  0
 17 39  1  0  0  0  0
 18 19  2  0  0  0  0
 18 20  1  0  0  0  0
 20 21  1  0  0  0  0
 20 40  1  0  0  0  0
 21 22  1  0  0  0  0
 21 27  2  0  0  0  0
 22 23  2  0  0  0  0
 22 41  1  0  0  0  0
 23 24  1  0  0  0  0
 23 42  1  0  0  0  0
 24 25  2  0  0  0  0
 24 43  1  0  0  0  0
 25 26  1  0  0  0  0
 25 27  1  0  0  0  0
 27 44  1  0  0  0  0
 28 29  1  0  0  0  0
 28 45  1  0  0  0  0
 29 46  1  0  0  0  0
M  END
$$$$
