CHEMBL3914394
 OpenBabel04072215373D

 74 78  0  0  1  0  0  0  0  0999 V2000
    1.5814   -2.0023    2.9582 C   0  0  0  0  0  0  0  0  0  0  0  0
    2.8747   -2.0904    2.3796 O   0  0  0  0  0  0  0  0  0  0  0  0
    3.4555   -0.9576    1.8773 C   0  0  0  0  0  0  0  0  0  0  0  0
    4.8298   -1.1254    1.6581 C   0  0  0  0  0  0  0  0  0  0  0  0
    5.6325   -0.0912    1.1107 C   0  0  0  0  0  0  0  0  0  0  0  0
    7.0108   -0.1429    0.8420 C   0  0  0  0  0  0  0  0  0  0  0  0
    7.7344   -1.3294    1.1361 N   0  0  0  0  0  0  0  0  0  0  0  0
    9.1343   -1.4996    1.0469 C   0  0  0  0  0  0  0  0  0  0  0  0
   10.0346   -0.4469    1.2631 C   0  0  0  0  0  0  0  0  0  0  0  0
   11.4108   -0.6303    1.1431 C   0  0  0  0  0  0  0  0  0  0  0  0
   11.9205   -1.8925    0.8587 C   0  0  0  0  0  0  0  0  0  0  0  0
   13.6312   -2.0510    0.6952 Cl  0  0  0  0  0  0  0  0  0  0  0  0
   11.0418   -2.9739    0.7224 C   0  0  0  0  0  0  0  0  0  0  0  0
   11.6031   -4.5807    0.4116 Cl  0  0  0  0  0  0  0  0  0  0  0  0
    9.6618   -2.7786    0.8220 C   0  0  0  0  0  0  0  0  0  0  0  0
    7.6729    0.9123    0.3239 N   0  0  0  0  0  0  0  0  0  0  0  0
    6.9769    2.0229    0.0797 C   0  0  0  0  0  0  0  0  0  0  0  0
    5.6737    2.1722    0.2839 N   0  0  0  0  0  0  0  0  0  0  0  0
    5.0291    1.1204    0.7848 C   0  0  0  0  0  0  0  0  0  0  0  0
    3.6767    1.2655    0.9827 C   0  0  0  0  0  0  0  0  0  0  0  0
    2.8631    0.2669    1.5425 C   0  0  0  0  0  0  0  0  0  0  0  0
    1.5240    0.4666    1.7642 O   0  0  0  0  0  0  0  0  0  0  0  0
    1.0025    1.7583    1.4325 C   0  0  0  0  0  0  0  0  0  0  0  0
   -0.2122    2.1015    2.2831 C   0  0  3  0  0  0  0  0  0  0  0  0
   -1.3826    1.1210    2.0483 C   0  0  0  0  0  0  0  0  0  0  0  0
   -2.4275    1.1310    3.1010 N   0  0  0  0  0  0  0  0  0  0  0  0
   -1.8327    0.9552    4.4390 C   0  0  0  0  0  0  0  0  0  0  0  0
   -2.8147    0.7628    5.5960 C   0  0  0  0  0  0  0  0  0  0  0  0
   -2.1152    0.5911    6.9666 C   0  0  0  0  0  0  0  0  0  0  0  0
   -3.2047    0.5175    8.0495 C   0  0  0  0  0  0  0  0  0  0  0  0
   -2.6342    0.4679    9.4605 C   0  0  0  0  0  0  0  0  0  0  0  0
   -1.7021    1.6447    9.7178 C   0  0  0  0  0  0  0  0  0  0  0  0
   -0.5706    1.6662    8.7002 C   0  0  0  0  0  0  0  0  0  0  0  0
   -1.1050    1.7168    7.2716 C   0  0  0  0  0  0  0  0  0  0  0  0
   -3.3698    2.2460    2.9647 C   0  0  0  0  0  0  0  0  0  0  0  0
   -2.9072    3.5810    2.3709 C   0  0  0  0  0  0  0  0  0  0  0  0
   -1.5324    4.0369    2.8158 C   0  0  0  0  0  0  0  0  0  0  0  0
   -0.5365    3.4645    1.9786 O   0  0  0  0  0  0  0  0  0  0  0  0
    1.3920   -2.9515    3.4735 H   0  0  0  0  0  0  0  0  0  0  0  0
    0.8122   -1.8935    2.1890 H   0  0  0  0  0  0  0  0  0  0  0  0
    1.5301   -1.2093    3.7085 H   0  0  0  0  0  0  0  0  0  0  0  0
    5.2829   -2.0758    1.9345 H   0  0  0  0  0  0  0  0  0  0  0  0
    7.2303   -2.1287    0.7602 H   0  0  0  0  0  0  0  0  0  0  0  0
    9.6744    0.5481    1.5144 H   0  0  0  0  0  0  0  0  0  0  0  0
   12.0714    0.2240    1.2690 H   0  0  0  0  0  0  0  0  0  0  0  0
    8.9939   -3.6282    0.7085 H   0  0  0  0  0  0  0  0  0  0  0  0
    7.5189    2.8734   -0.3124 H   0  0  0  0  0  0  0  0  0  0  0  0
    3.2826    2.2254    0.6686 H   0  0  0  0  0  0  0  0  0  0  0  0
    0.7752    1.8064    0.3612 H   0  0  0  0  0  0  0  0  0  0  0  0
    1.7097    2.5580    1.6779 H   0  0  0  0  0  0  0  0  0  0  0  0
    0.1542    2.0529    3.3120 H   0  0  0  0  0  0  0  0  0  0  0  0
   -1.0019    0.0945    1.9879 H   0  0  0  0  0  0  0  0  0  0  0  0
   -1.8467    1.3174    1.0732 H   0  0  0  0  0  0  0  0  0  0  0  0
   -1.2232    1.8206    4.6837 H   0  0  0  0  0  0  0  0  0  0  0  0
   -1.1752    0.0773    4.4133 H   0  0  0  0  0  0  0  0  0  0  0  0
   -3.4516   -0.1085    5.3973 H   0  0  0  0  0  0  0  0  0  0  0  0
   -3.4759    1.6312    5.6768 H   0  0  0  0  0  0  0  0  0  0  0  0
   -1.5660   -0.3601    6.9583 H   0  0  0  0  0  0  0  0  0  0  0  0
   -3.8322   -0.3652    7.8813 H   0  0  0  0  0  0  0  0  0  0  0  0
   -3.8629    1.3928    7.9673 H   0  0  0  0  0  0  0  0  0  0  0  0
   -2.0912   -0.4730    9.6053 H   0  0  0  0  0  0  0  0  0  0  0  0
   -3.4548    0.4828   10.1858 H   0  0  0  0  0  0  0  0  0  0  0  0
   -1.2903    1.5771   10.7294 H   0  0  0  0  0  0  0  0  0  0  0  0
   -2.2659    2.5838    9.6615 H   0  0  0  0  0  0  0  0  0  0  0  0
    0.0531    0.7731    8.8260 H   0  0  0  0  0  0  0  0  0  0  0  0
    0.0741    2.5335    8.8832 H   0  0  0  0  0  0  0  0  0  0  0  0
   -0.2447    1.6495    6.5946 H   0  0  0  0  0  0  0  0  0  0  0  0
   -1.5736    2.6934    7.0972 H   0  0  0  0  0  0  0  0  0  0  0  0
   -3.8764    2.4617    3.9083 H   0  0  0  0  0  0  0  0  0  0  0  0
   -4.1804    1.8856    2.3168 H   0  0  0  0  0  0  0  0  0  0  0  0
   -3.6414    4.3425    2.6616 H   0  0  0  0  0  0  0  0  0  0  0  0
   -2.9337    3.5169    1.2762 H   0  0  0  0  0  0  0  0  0  0  0  0
   -1.3271    3.8560    3.8748 H   0  0  0  0  0  0  0  0  0  0  0  0
   -1.4600    5.1199    2.6661 H   0  0  0  0  0  0  0  0  0  0  0  0
  1  2  1  0  0  0  0
  1 39  1  0  0  0  0
  1 40  1  0  0  0  0
  1 41  1  0  0  0  0
  2  3  1  0  0  0  0
  3  4  1  0  0  0  0
  3 21  2  0  0  0  0
  4  5  2  0  0  0  0
  4 42  1  0  0  0  0
  5  6  1  0  0  0  0
  5 19  1  0  0  0  0
  6  7  1  0  0  0  0
  6 16  2  0  0  0  0
  7  8  1  0  0  0  0
  7 43  1  0  0  0  0
  8  9  1  0  0  0  0
  8 15  2  0  0  0  0
  9 10  2  0  0  0  0
  9 44  1  0  0  0  0
 10 11  1  0  0  0  0
 10 45  1  0  0  0  0
 11 12  1  0  0  0  0
 11 13  2  0  0  0  0
 13 14  1  0  0  0  0
 13 15  1  0  0  0  0
 15 46  1  0  0  0  0
 16 17  1  0  0  0  0
 17 18  2  0  0  0  0
 17 47  1  0  0  0  0
 18 19  1  0  0  0  0
 19 20  2  0  0  0  0
 20 21  1  0  0  0  0
 20 48  1  0  0  0  0
 21 22  1  0  0  0  0
 22 23  1  0  0  0  0
 23 24  1  0  0  0  0
 23 49  1  0  0  0  0
 23 50  1  0  0  0  0
 24 25  1  0  0  0  0
 24 38  1  0  0  0  0
 24 51  1  0  0  0  0
 25 26  1  0  0  0  0
 25 52  1  0  0  0  0
 25 53  1  0  0  0  0
 26 27  1  0  0  0  0
 26 35  1  0  0  0  0
 27 28  1  0  0  0  0
 27 54  1  0  0  0  0
 27 55  1  0  0  0  0
 28 29  1  0  0  0  0
 28 56  1  0  0  0  0
 28 57  1  0  0  0  0
 29 30  1  0  0  0  0
 29 34  1  0  0  0  0
 29 58  1  0  0  0  0
 30 31  1  0  0  0  0
 30 59  1  0  0  0  0
 30 60  1  0  0  0  0
 31 32  1  0  0  0  0
 31 61  1  0  0  0  0
 31 62  1  0  0  0  0
 32 33  1  0  0  0  0
 32 63  1  0  0  0  0
 32 64  1  0  0  0  0
 33 34  1  0  0  0  0
 33 65  1  0  0  0  0
 33 66  1  0  0  0  0
 34 67  1  0  0  0  0
 34 68  1  0  0  0  0
 35 36  1  0  0  0  0
 35 69  1  0  0  0  0
 35 70  1  0  0  0  0
 36 37  1  0  0  0  0
 36 71  1  0  0  0  0
 36 72  1  0  0  0  0
 37 38  1  0  0  0  0
 37 73  1  0  0  0  0
 37 74  1  0  0  0  0
M  END
$$$$
