CHEMBL1254193
 OpenBabel04072215363D

 46 49  0  0  0  0  0  0  0  0999 V2000
    3.6586   -0.8276   -1.0244 C   0  0  0  0  0  0  0  0  0  0  0  0
    3.4365   -0.4918    0.3647 N   0  0  0  0  0  0  0  0  0  0  0  0
    4.0391    0.5547    1.0196 C   0  0  0  0  0  0  0  0  0  0  0  0
    3.5734    0.5667    2.3171 C   0  0  0  0  0  0  0  0  0  0  0  0
    2.6561   -0.5008    2.4466 C   0  0  0  0  0  0  0  0  0  0  0  0
    1.9500   -0.8833    3.5300 N   0  0  0  0  0  0  0  0  0  0  0  0
    1.1547   -1.9353    3.3013 C   0  0  0  0  0  0  0  0  0  0  0  0
    1.0099   -2.6243    2.1588 N   0  0  0  0  0  0  0  0  0  0  0  0
    1.7657   -2.2601    1.0987 C   0  0  0  0  0  0  0  0  0  0  0  0
    1.7049   -2.9919   -0.0797 O   0  0  0  0  0  0  0  0  0  0  0  0
    1.5590   -4.3571    0.0355 C   0  0  0  0  0  0  0  0  0  0  0  0
    2.1118   -5.1053    1.0777 C   0  0  0  0  0  0  0  0  0  0  0  0
    1.9295   -6.4876    1.1375 C   0  0  0  0  0  0  0  0  0  0  0  0
    1.2413   -7.1547    0.1265 C   0  0  0  0  0  0  0  0  0  0  0  0
    1.0469   -8.5496    0.1429 N   0  0  0  0  0  0  0  0  0  0  0  0
    1.2960   -9.4356    1.1597 C   0  0  0  0  0  0  0  0  0  0  0  0
    1.8341   -9.1821    2.2347 O   0  0  0  0  0  0  0  0  0  0  0  0
    0.7313  -10.6728    1.0072 N   0  0  0  0  0  0  0  0  0  0  0  0
    0.1632  -11.1923   -0.1487 C   0  0  0  0  0  0  0  0  0  0  0  0
   -0.9417  -12.0127   -0.0178 C   0  0  0  0  0  0  0  0  0  0  0  0
   -1.5687  -12.4753   -1.1772 C   0  0  0  0  0  0  0  0  0  0  0  0
   -2.8697  -13.2264   -1.0992 C   0  0  0  0  0  0  0  0  0  0  0  0
   -3.3613  -13.3233    0.1659 F   0  0  0  0  0  0  0  0  0  0  0  0
   -3.8512  -12.6420   -1.8377 F   0  0  0  0  0  0  0  0  0  0  0  0
   -2.7607  -14.5053   -1.5602 F   0  0  0  0  0  0  0  0  0  0  0  0
   -0.9892  -12.1931   -2.4196 C   0  0  0  0  0  0  0  0  0  0  0  0
    0.1361  -11.3923   -2.4498 C   0  0  0  0  0  0  0  0  0  0  0  0
    0.6841  -10.8457   -1.3460 N   0  0  0  0  0  0  0  0  0  0  0  0
    0.7174   -6.4001   -0.9419 C   0  0  0  0  0  0  0  0  0  0  0  0
   -0.1752   -7.1594   -2.2197 Cl  0  0  0  0  0  0  0  0  0  0  0  0
    0.8730   -5.0095   -0.9874 C   0  0  0  0  0  0  0  0  0  0  0  0
    2.5869   -1.1519    1.2205 C   0  0  0  0  0  0  0  0  0  0  0  0
    4.3687   -0.1207   -1.4614 H   0  0  0  0  0  0  0  0  0  0  0  0
    2.7044   -0.7639   -1.5535 H   0  0  0  0  0  0  0  0  0  0  0  0
    4.0678   -1.8394   -1.0755 H   0  0  0  0  0  0  0  0  0  0  0  0
    4.7461    1.2030    0.5185 H   0  0  0  0  0  0  0  0  0  0  0  0
    3.8564    1.2643    3.0934 H   0  0  0  0  0  0  0  0  0  0  0  0
    0.5657   -2.2818    4.1463 H   0  0  0  0  0  0  0  0  0  0  0  0
    2.6794   -4.6317    1.8749 H   0  0  0  0  0  0  0  0  0  0  0  0
    2.3524   -7.0136    1.9873 H   0  0  0  0  0  0  0  0  0  0  0  0
    0.6261   -8.9518   -0.6915 H   0  0  0  0  0  0  0  0  0  0  0  0
    0.6239  -11.1693    1.8791 H   0  0  0  0  0  0  0  0  0  0  0  0
   -1.3688  -12.2112    0.9618 H   0  0  0  0  0  0  0  0  0  0  0  0
   -1.4161  -12.5701   -3.3442 H   0  0  0  0  0  0  0  0  0  0  0  0
    0.6366  -11.1536   -3.3857 H   0  0  0  0  0  0  0  0  0  0  0  0
    0.4527   -4.4364   -1.8086 H   0  0  0  0  0  0  0  0  0  0  0  0
  1  2  1  0  0  0  0
  1 33  1  0  0  0  0
  1 34  1  0  0  0  0
  1 35  1  0  0  0  0
  2  3  1  0  0  0  0
  2 32  1  0  0  0  0
  3  4  2  0  0  0  0
  3 36  1  0  0  0  0
  4  5  1  0  0  0  0
  4 37  1  0  0  0  0
  5  6  1  0  0  0  0
  5 32  2  0  0  0  0
  6  7  2  0  0  0  0
  7  8  1  0  0  0  0
  7 38  1  0  0  0  0
  8  9  2  0  0  0  0
  9 10  1  0  0  0  0
  9 32  1  0  0  0  0
 10 11  1  0  0  0  0
 11 12  1  0  0  0  0
 11 31  2  0  0  0  0
 12 13  2  0  0  0  0
 12 39  1  0  0  0  0
 13 14  1  0  0  0  0
 13 40  1  0  0  0  0
 14 15  1  0  0  0  0
 14 29  2  0  0  0  0
 15 16  1  0  0  0  0
 15 41  1  0  0  0  0
 16 17  2  0  0  0  0
 16 18  1  0  0  0  0
 18 19  1  0  0  0  0
 18 42  1  0  0  0  0
 19 20  1  0  0  0  0
 19 28  2  0  0  0  0
 20 21  2  0  0  0  0
 20 43  1  0  0  0  0
 21 22  1  0  0  0  0
 21 26  1  0  0  0  0
 22 23  1  0  0  0  0
 22 24  1  0  0  0  0
 22 25  1  0  0  0  0
 26 27  2  0  0  0  0
 26 44  1  0  0  0  0
 27 28  1  0  0  0  0
 27 45  1  0  0  0  0
 29 30  1  0  0  0  0
 29 31  1  0  0  0  0
 31 46  1  0  0  0  0
M  END
$$$$
