CHEMBL3656100
 OpenBabel04072215373D

 71 74  0  0  0  0  0  0  0  0999 V2000
    3.2740    3.8816    7.5072 C   0  0  0  0  0  0  0  0  0  0  0  0
    3.7789    2.5920    8.1296 C   0  0  0  0  0  0  0  0  0  0  0  0
    4.9859    2.2299    7.4450 O   0  0  0  0  0  0  0  0  0  0  0  0
    4.8120    1.4622    6.3330 C   0  0  0  0  0  0  0  0  0  0  0  0
    3.7865    0.8678    6.0350 O   0  0  0  0  0  0  0  0  0  0  0  0
    6.0209    1.5994    5.4401 C   0  0  0  0  0  0  0  0  0  0  0  0
    6.1817    0.3906    4.5251 C   0  0  0  0  0  0  0  0  0  0  0  0
    7.3307    0.5564    3.5335 C   0  0  0  0  0  0  0  0  0  0  0  0
    8.6206    0.6889    4.1738 N   0  0  0  0  0  0  0  0  0  0  0  0
    9.3375   -0.4222    4.5734 C   0  0  0  0  0  0  0  0  0  0  0  0
    8.9242   -1.5609    4.4118 O   0  0  0  0  0  0  0  0  0  0  0  0
   10.6275   -0.1578    5.2067 C   0  0  0  0  0  0  0  0  0  0  0  0
   11.2474    1.0385    5.5221 C   0  0  0  0  0  0  0  0  0  0  0  0
   12.4492    0.7616    6.1350 N   0  0  0  0  0  0  0  0  0  0  0  0
   12.6369   -0.5998    6.2215 C   0  0  0  0  0  0  0  0  0  0  0  0
   13.8255   -1.2137    6.8086 C   0  0  0  0  0  0  0  0  0  0  0  0
   13.9639   -2.5958    6.8519 C   0  0  0  0  0  0  0  0  0  0  0  0
   15.1570   -3.1502    7.3102 C   0  0  0  0  0  0  0  0  0  0  0  0
   15.4238   -4.5088    7.3123 O   0  0  0  0  0  0  0  0  0  0  0  0
   14.8628   -5.2968    6.3253 C   0  0  0  0  0  0  0  0  0  0  0  0
   14.6687   -4.8487    5.0232 C   0  0  0  0  0  0  0  0  0  0  0  0
   13.9572   -5.6255    4.1121 C   0  0  0  0  0  0  0  0  0  0  0  0
   13.4956   -6.9023    4.4386 C   0  0  0  0  0  0  0  0  0  0  0  0
   12.7060   -7.6797    3.5459 N   0  0  0  0  0  0  0  0  0  0  0  0
   12.3226   -7.2855    2.2746 C   0  0  0  0  0  0  0  0  0  0  0  0
   12.6726   -6.2479    1.7218 O   0  0  0  0  0  0  0  0  0  0  0  0
   11.4553   -8.1836    1.6635 N   0  0  0  0  0  0  0  0  0  0  0  0
   10.9836   -7.8653    0.3570 C   0  0  0  0  0  0  0  0  0  0  0  0
   11.8717   -7.5246   -0.6731 C   0  0  0  0  0  0  0  0  0  0  0  0
   11.3948   -7.1024   -1.9229 C   0  0  0  0  0  0  0  0  0  0  0  0
   12.3490   -6.7263   -3.0198 C   0  0  0  0  0  0  0  0  0  0  0  0
   10.0120   -7.0126   -2.1297 C   0  0  0  0  0  0  0  0  0  0  0  0
    9.1223   -7.3705   -1.1134 C   0  0  0  0  0  0  0  0  0  0  0  0
    9.6124   -7.8151    0.1123 C   0  0  0  0  0  0  0  0  0  0  0  0
    8.7484   -8.1220    1.0923 F   0  0  0  0  0  0  0  0  0  0  0  0
   13.8094   -7.4058    5.7072 C   0  0  0  0  0  0  0  0  0  0  0  0
   14.4876   -6.6035    6.6483 C   0  0  0  0  0  0  0  0  0  0  0  0
   16.1302   -2.3030    7.8217 C   0  0  0  0  0  0  0  0  0  0  0  0
   15.8933   -0.9344    7.7797 C   0  0  0  0  0  0  0  0  0  0  0  0
   14.7741   -0.3649    7.2664 N   0  0  0  0  0  0  0  0  0  0  0  0
   11.5211   -1.1764    5.6438 C   0  0  0  0  0  0  0  0  0  0  0  0
    2.3536    4.2230    7.9856 H   0  0  0  0  0  0  0  0  0  0  0  0
    3.0889    3.7480    6.4355 H   0  0  0  0  0  0  0  0  0  0  0  0
    4.0346    4.6653    7.5954 H   0  0  0  0  0  0  0  0  0  0  0  0
    3.0224    1.8008    8.0848 H   0  0  0  0  0  0  0  0  0  0  0  0
    4.0234    2.7513    9.1849 H   0  0  0  0  0  0  0  0  0  0  0  0
    6.9138    1.7261    6.0618 H   0  0  0  0  0  0  0  0  0  0  0  0
    5.8772    2.5121    4.8493 H   0  0  0  0  0  0  0  0  0  0  0  0
    5.2571    0.2363    3.9574 H   0  0  0  0  0  0  0  0  0  0  0  0
    6.3286   -0.5099    5.1345 H   0  0  0  0  0  0  0  0  0  0  0  0
    7.1815    1.4465    2.9118 H   0  0  0  0  0  0  0  0  0  0  0  0
    7.3545   -0.3146    2.8686 H   0  0  0  0  0  0  0  0  0  0  0  0
    9.0220    1.6036    4.3094 H   0  0  0  0  0  0  0  0  0  0  0  0
   10.9488    2.0698    5.3784 H   0  0  0  0  0  0  0  0  0  0  0  0
   13.1185    1.4356    6.4809 H   0  0  0  0  0  0  0  0  0  0  0  0
   13.1628   -3.2283    6.4903 H   0  0  0  0  0  0  0  0  0  0  0  0
   15.0008   -3.8651    4.7035 H   0  0  0  0  0  0  0  0  0  0  0  0
   13.7682   -5.1617    3.1528 H   0  0  0  0  0  0  0  0  0  0  0  0
   12.4313   -8.6031    3.8491 H   0  0  0  0  0  0  0  0  0  0  0  0
   10.7498   -8.5622    2.2831 H   0  0  0  0  0  0  0  0  0  0  0  0
   12.9442   -7.5617   -0.4920 H   0  0  0  0  0  0  0  0  0  0  0  0
   13.3910   -6.8537   -2.7078 H   0  0  0  0  0  0  0  0  0  0  0  0
   12.2099   -5.6789   -3.3044 H   0  0  0  0  0  0  0  0  0  0  0  0
   12.1834   -7.3626   -3.8951 H   0  0  0  0  0  0  0  0  0  0  0  0
    9.6242   -6.6526   -3.0805 H   0  0  0  0  0  0  0  0  0  0  0  0
    8.0514   -7.2797   -1.2634 H   0  0  0  0  0  0  0  0  0  0  0  0
   13.5180   -8.4119    5.9977 H   0  0  0  0  0  0  0  0  0  0  0  0
   14.7007   -6.9955    7.6395 H   0  0  0  0  0  0  0  0  0  0  0  0
   17.0535   -2.6939    8.2337 H   0  0  0  0  0  0  0  0  0  0  0  0
   16.6292   -0.2342    8.1675 H   0  0  0  0  0  0  0  0  0  0  0  0
   11.3393   -2.2401    5.5339 H   0  0  0  0  0  0  0  0  0  0  0  0
  1  2  1  0  0  0  0
  1 42  1  0  0  0  0
  1 43  1  0  0  0  0
  1 44  1  0  0  0  0
  2  3  1  0  0  0  0
  2 45  1  0  0  0  0
  2 46  1  0  0  0  0
  3  4  1  0  0  0  0
  4  5  2  0  0  0  0
  4  6  1  0  0  0  0
  6  7  1  0  0  0  0
  6 47  1  0  0  0  0
  6 48  1  0  0  0  0
  7  8  1  0  0  0  0
  7 49  1  0  0  0  0
  7 50  1  0  0  0  0
  8  9  1  0  0  0  0
  8 51  1  0  0  0  0
  8 52  1  0  0  0  0
  9 10  1  0  0  0  0
  9 53  1  0  0  0  0
 10 11  2  0  0  0  0
 10 12  1  0  0  0  0
 12 13  2  0  0  0  0
 12 41  1  0  0  0  0
 13 14  1  0  0  0  0
 13 54  1  0  0  0  0
 14 15  1  0  0  0  0
 14 55  1  0  0  0  0
 15 16  1  0  0  0  0
 15 41  2  0  0  0  0
 16 17  1  0  0  0  0
 16 40  2  0  0  0  0
 17 18  2  0  0  0  0
 17 56  1  0  0  0  0
 18 19  1  0  0  0  0
 18 38  1  0  0  0  0
 19 20  1  0  0  0  0
 20 21  1  0  0  0  0
 20 37  2  0  0  0  0
 21 22  2  0  0  0  0
 21 57  1  0  0  0  0
 22 23  1  0  0  0  0
 22 58  1  0  0  0  0
 23 24  1  0  0  0  0
 23 36  2  0  0  0  0
 24 25  1  0  0  0  0
 24 59  1  0  0  0  0
 25 26  2  0  0  0  0
 25 27  1  0  0  0  0
 27 28  1  0  0  0  0
 27 60  1  0  0  0  0
 28 29  1  0  0  0  0
 28 34  2  0  0  0  0
 29 30  2  0  0  0  0
 29 61  1  0  0  0  0
 30 31  1  0  0  0  0
 30 32  1  0  0  0  0
 31 62  1  0  0  0  0
 31 63  1  0  0  0  0
 31 64  1  0  0  0  0
 32 33  2  0  0  0  0
 32 65  1  0  0  0  0
 33 34  1  0  0  0  0
 33 66  1  0  0  0  0
 34 35  1  0  0  0  0
 36 37  1  0  0  0  0
 36 67  1  0  0  0  0
 37 68  1  0  0  0  0
 38 39  2  0  0  0  0
 38 69  1  0  0  0  0
 39 40  1  0  0  0  0
 39 70  1  0  0  0  0
 41 71  1  0  0  0  0
M  END
$$$$
