CHEMBL3125882
 OpenBabel04072215363D

 56 60  0  0  0  0  0  0  0  0999 V2000
    0.7525    0.7908   -0.5028 N   0  0  0  0  0  0  0  0  0  0  0  0
    1.8876    0.6634   -0.7212 C   0  0  0  0  0  0  0  0  0  0  0  0
    3.2804    0.4686   -0.9785 C   0  0  0  0  0  0  0  0  0  0  0  0
    4.2581    1.3736   -0.5425 C   0  0  0  0  0  0  0  0  0  0  0  0
    3.8061    2.4949    0.1226 O   0  0  0  0  0  0  0  0  0  0  0  0
    4.5147    3.6698    0.0241 C   0  0  0  0  0  0  0  0  0  0  0  0
    4.5350    4.4586    1.1752 C   0  0  0  0  0  0  0  0  0  0  0  0
    5.2648    5.6438    1.1861 C   0  0  0  0  0  0  0  0  0  0  0  0
    5.9868    6.0228    0.0550 C   0  0  0  0  0  0  0  0  0  0  0  0
    5.9581    5.2473   -1.1067 C   0  0  0  0  0  0  0  0  0  0  0  0
    6.7195    5.5670   -2.2570 N   0  0  0  0  0  0  0  0  0  0  0  0
    7.8987    6.2903   -2.2134 C   0  0  0  0  0  0  0  0  0  0  0  0
    8.4692    6.6333   -1.1835 O   0  0  0  0  0  0  0  0  0  0  0  0
    8.3564    6.5983   -3.4872 N   0  0  0  0  0  0  0  0  0  0  0  0
    9.5797    7.2922   -3.6786 C   0  0  0  0  0  0  0  0  0  0  0  0
   10.7054    6.9225   -2.9229 C   0  0  0  0  0  0  0  0  0  0  0  0
   11.9139    7.6069   -3.0448 C   0  0  0  0  0  0  0  0  0  0  0  0
   12.0163    8.6711   -3.9304 C   0  0  0  0  0  0  0  0  0  0  0  0
   10.9150    9.0350   -4.7046 C   0  0  0  0  0  0  0  0  0  0  0  0
    9.6870    8.3443   -4.6020 C   0  0  0  0  0  0  0  0  0  0  0  0
    8.5348    8.8405   -5.4322 C   0  0  0  0  0  0  0  0  0  0  0  0
    7.4005    8.0864   -5.3188 F   0  0  0  0  0  0  0  0  0  0  0  0
    8.1645   10.1111   -5.1106 F   0  0  0  0  0  0  0  0  0  0  0  0
    8.8216    8.8619   -6.7639 F   0  0  0  0  0  0  0  0  0  0  0  0
    5.1599    4.1044   -1.1427 C   0  0  0  0  0  0  0  0  0  0  0  0
    5.6123    1.0932   -0.7413 C   0  0  0  0  0  0  0  0  0  0  0  0
    6.0062   -0.0394   -1.4608 C   0  0  0  0  0  0  0  0  0  0  0  0
    5.0365   -0.9415   -1.9389 C   0  0  0  0  0  0  0  0  0  0  0  0
    5.3005   -2.1089   -2.6315 N   0  0  0  0  0  0  0  0  0  0  0  0
    4.1800   -2.7259   -2.8789 C   0  0  0  0  0  0  0  0  0  0  0  0
    3.9494   -3.9319   -3.4629 N   0  0  0  0  0  0  0  0  0  0  0  0
    4.9347   -4.7983   -3.8525 C   0  0  0  0  0  0  0  0  0  0  0  0
    6.1448   -4.6749   -3.8008 O   0  0  0  0  0  0  0  0  0  0  0  0
    4.3131   -6.0720   -4.3657 C   0  0  0  0  0  0  0  0  0  0  0  0
    3.9127   -5.6207   -5.8387 C   0  0  0  0  0  0  0  0  0  0  0  0
    4.1894   -6.9986   -5.5704 C   0  0  0  0  0  0  0  0  0  0  0  0
    2.7482   -1.9523   -2.3830 S   0  0  0  0  0  0  0  0  0  0  0  0
    3.6840   -0.6780   -1.6876 C   0  0  0  0  0  0  0  0  0  0  0  0
    3.9942    4.1496    2.0641 H   0  0  0  0  0  0  0  0  0  0  0  0
    5.2981    6.2592    2.0805 H   0  0  0  0  0  0  0  0  0  0  0  0
    6.5666    6.9410    0.1048 H   0  0  0  0  0  0  0  0  0  0  0  0
    6.6078    4.9757   -3.0697 H   0  0  0  0  0  0  0  0  0  0  0  0
    7.6086    6.7768   -4.1502 H   0  0  0  0  0  0  0  0  0  0  0  0
   10.6519    6.0946   -2.2170 H   0  0  0  0  0  0  0  0  0  0  0  0
   12.7643    7.3138   -2.4339 H   0  0  0  0  0  0  0  0  0  0  0  0
   12.9500    9.2232   -4.0088 H   0  0  0  0  0  0  0  0  0  0  0  0
   11.0058    9.8845   -5.3802 H   0  0  0  0  0  0  0  0  0  0  0  0
    5.0896    3.5147   -2.0512 H   0  0  0  0  0  0  0  0  0  0  0  0
    6.3868    1.7503   -0.3503 H   0  0  0  0  0  0  0  0  0  0  0  0
    7.0584   -0.2398   -1.6460 H   0  0  0  0  0  0  0  0  0  0  0  0
    2.9845   -4.2031   -3.5717 H   0  0  0  0  0  0  0  0  0  0  0  0
    4.9257   -6.7921   -3.8165 H   0  0  0  0  0  0  0  0  0  0  0  0
    4.6457   -5.0754   -6.4289 H   0  0  0  0  0  0  0  0  0  0  0  0
    2.8931   -5.2855   -5.9836 H   0  0  0  0  0  0  0  0  0  0  0  0
    5.0877   -7.4379   -5.9901 H   0  0  0  0  0  0  0  0  0  0  0  0
    3.3534   -7.6943   -5.5535 H   0  0  0  0  0  0  0  0  0  0  0  0
  1  2  3  0  0  0  0
  2  3  1  0  0  0  0
  3  4  1  0  0  0  0
  3 38  2  0  0  0  0
  4  5  1  0  0  0  0
  4 26  2  0  0  0  0
  5  6  1  0  0  0  0
  6  7  1  0  0  0  0
  6 25  2  0  0  0  0
  7  8  2  0  0  0  0
  7 39  1  0  0  0  0
  8  9  1  0  0  0  0
  8 40  1  0  0  0  0
  9 10  2  0  0  0  0
  9 41  1  0  0  0  0
 10 11  1  0  0  0  0
 10 25  1  0  0  0  0
 11 12  1  0  0  0  0
 11 42  1  0  0  0  0
 12 13  2  0  0  0  0
 12 14  1  0  0  0  0
 14 15  1  0  0  0  0
 14 43  1  0  0  0  0
 15 16  1  0  0  0  0
 15 20  2  0  0  0  0
 16 17  2  0  0  0  0
 16 44  1  0  0  0  0
 17 18  1  0  0  0  0
 17 45  1  0  0  0  0
 18 19  2  0  0  0  0
 18 46  1  0  0  0  0
 19 20  1  0  0  0  0
 19 47  1  0  0  0  0
 20 21  1  0  0  0  0
 21 22  1  0  0  0  0
 21 23  1  0  0  0  0
 21 24  1  0  0  0  0
 25 48  1  0  0  0  0
 26 27  1  0  0  0  0
 26 49  1  0  0  0  0
 27 28  2  0  0  0  0
 27 50  1  0  0  0  0
 28 29  1  0  0  0  0
 28 38  1  0  0  0  0
 29 30  2  0  0  0  0
 30 31  1  0  0  0  0
 30 37  1  0  0  0  0
 31 32  1  0  0  0  0
 31 51  1  0  0  0  0
 32 33  2  0  0  0  0
 32 34  1  0  0  0  0
 34 35  1  0  0  0  0
 34 36  1  0  0  0  0
 34 52  1  0  0  0  0
 35 36  1  0  0  0  0
 35 53  1  0  0  0  0
 35 54  1  0  0  0  0
 36 55  1  0  0  0  0
 36 56  1  0  0  0  0
 37 38  1  0  0  0  0
M  END
$$$$
