CHEMBL3931790
 OpenBabel04072215373D

 71 75  0  0  1  0  0  0  0  0999 V2000
    1.0119   -0.1234    0.0284 C   0  0  0  0  0  0  0  0  0  0  0  0
    2.0957   -0.4770    0.8835 O   0  0  0  0  0  0  0  0  0  0  0  0
    2.8913   -1.4678    0.3962 C   0  0  0  0  0  0  0  0  0  0  0  0
    2.7457   -2.1110   -0.7719 C   0  0  0  0  0  0  0  0  0  0  0  0
    3.6876   -3.0032   -1.2635 C   0  0  0  0  0  0  0  0  0  0  0  0
    3.5633   -3.6125   -2.4758 O   0  0  0  0  0  0  0  0  0  0  0  0
    2.3901   -3.2704   -3.2149 C   0  0  0  0  0  0  0  0  0  0  0  0
    4.8297   -3.2722   -0.5333 C   0  0  0  0  0  0  0  0  0  0  0  0
    5.1016   -2.5703    0.6206 C   0  0  0  0  0  0  0  0  0  0  0  0
    6.3714   -2.6992    1.2413 N   0  0  0  0  0  0  0  0  0  0  0  0
    6.9394   -1.5854    2.0020 C   0  0  0  0  0  0  0  0  0  0  0  0
    8.2645   -1.0762    1.4821 C   0  0  0  0  0  0  0  0  0  0  0  0
    8.9317    0.0095    2.1342 N   0  0  0  0  0  0  0  0  0  0  0  0
    9.2166   -0.3552    3.5026 C   0  0  0  0  0  0  0  0  0  0  0  0
    9.8311    0.8246    4.1891 C   0  0  0  0  0  0  0  0  0  0  0  0
   11.1013    1.2576    3.4758 C   0  0  0  0  0  0  0  0  0  0  0  0
   10.8644    1.4690    1.9780 C   0  0  3  0  0  0  0  0  0  0  0  0
   12.1861    1.7246    1.2634 C   0  0  0  0  0  0  0  0  0  0  0  0
   12.9418    2.8114    1.6413 N   0  0  0  0  0  0  0  0  0  0  0  0
   12.5557    0.9833    0.3561 O   0  0  0  0  0  0  0  0  0  0  0  0
   10.1608    0.2748    1.3965 C   0  0  0  0  0  0  0  0  0  0  0  0
    7.3147   -3.7595    1.0170 C   0  0  0  0  0  0  0  0  0  0  0  0
    8.0957   -4.0064    2.1658 C   0  0  0  0  0  0  0  0  0  0  0  0
    9.0378   -4.9842    2.0995 C   0  0  0  0  0  0  0  0  0  0  0  0
    9.2454   -5.6372    1.0250 C   0  0  0  0  0  0  0  0  0  0  0  0
   10.5051   -5.9241    1.0635 N   0  0  0  0  0  0  0  0  0  0  0  0
   11.0128   -6.8740    1.7387 C   0  0  0  0  0  0  0  0  0  0  0  0
   11.2738   -7.7967    0.7403 C   0  0  0  0  0  0  0  0  0  0  0  0
   12.7198   -8.0551    1.9886 C   0  0  0  0  0  0  0  0  0  0  0  0
   13.6520   -7.2560    3.1069 C   0  0  0  0  0  0  0  0  0  0  0  0
   14.6538   -7.8534    3.8457 N   0  0  0  0  0  0  0  0  0  0  0  0
   14.6487   -9.1268    3.4555 N   0  0  0  0  0  0  0  0  0  0  0  0
   15.5129  -10.1594    4.1414 C   0  0  0  0  0  0  0  0  0  0  0  0
   13.6003   -9.2627    2.3774 C   0  0  0  0  0  0  0  0  0  0  0  0
   10.0085   -7.1699   -0.3217 N   0  0  0  0  0  0  0  0  0  0  0  0
    8.8263   -5.8490   -0.2260 C   0  0  0  0  0  0  0  0  0  0  0  0
    7.6277   -4.4888   -0.0915 C   0  0  0  0  0  0  0  0  0  0  0  0
    4.0083   -1.8110    1.0807 C   0  0  0  0  0  0  0  0  0  0  0  0
    0.4765    0.7255    0.4678 H   0  0  0  0  0  0  0  0  0  0  0  0
    0.3162   -0.9630   -0.0471 H   0  0  0  0  0  0  0  0  0  0  0  0
    1.3383    0.1812   -0.9701 H   0  0  0  0  0  0  0  0  0  0  0  0
    1.8438   -1.9251   -1.2979 H   0  0  0  0  0  0  0  0  0  0  0  0
    2.4038   -3.8159   -4.1599 H   0  0  0  0  0  0  0  0  0  0  0  0
    2.3526   -2.1971   -3.4464 H   0  0  0  0  0  0  0  0  0  0  0  0
    1.4844   -3.5642   -2.6699 H   0  0  0  0  0  0  0  0  0  0  0  0
    5.5281   -4.0295   -0.8579 H   0  0  0  0  0  0  0  0  0  0  0  0
    7.1074   -1.8380    3.0564 H   0  0  0  0  0  0  0  0  0  0  0  0
    6.2543   -0.7457    1.9217 H   0  0  0  0  0  0  0  0  0  0  0  0
    8.0247   -0.6363    0.4926 H   0  0  0  0  0  0  0  0  0  0  0  0
    8.9659   -1.9516    1.5072 H   0  0  0  0  0  0  0  0  0  0  0  0
    9.8875   -1.2207    3.5391 H   0  0  0  0  0  0  0  0  0  0  0  0
    8.2854   -0.6079    4.0174 H   0  0  0  0  0  0  0  0  0  0  0  0
   10.0469    0.5470    5.2214 H   0  0  0  0  0  0  0  0  0  0  0  0
    9.1076    1.6464    4.1876 H   0  0  0  0  0  0  0  0  0  0  0  0
   11.8678    0.4875    3.6161 H   0  0  0  0  0  0  0  0  0  0  0  0
   11.4577    2.1817    3.9335 H   0  0  0  0  0  0  0  0  0  0  0  0
   10.2075    2.3416    1.8605 H   0  0  0  0  0  0  0  0  0  0  0  0
   12.7014    3.4641    2.3766 H   0  0  0  0  0  0  0  0  0  0  0  0
   13.8218    3.0079    1.1787 H   0  0  0  0  0  0  0  0  0  0  0  0
   10.8242   -0.6028    1.4522 H   0  0  0  0  0  0  0  0  0  0  0  0
    9.9357    0.4685    0.3389 H   0  0  0  0  0  0  0  0  0  0  0  0
    8.1573   -3.4595    3.0814 H   0  0  0  0  0  0  0  0  0  0  0  0
    9.7373   -5.2336    2.9097 H   0  0  0  0  0  0  0  0  0  0  0  0
   11.3641   -6.4368    2.7145 H   0  0  0  0  0  0  0  0  0  0  0  0
   13.6138   -6.2263    3.3991 H   0  0  0  0  0  0  0  0  0  0  0  0
   16.2116   -9.7332    4.8993 H   0  0  0  0  0  0  0  0  0  0  0  0
   16.1296  -10.7184    3.4189 H   0  0  0  0  0  0  0  0  0  0  0  0
   14.8705  -10.8771    4.6739 H   0  0  0  0  0  0  0  0  0  0  0  0
   13.6441  -10.2759    2.0289 H   0  0  0  0  0  0  0  0  0  0  0  0
    7.0301   -4.1048   -1.0009 H   0  0  0  0  0  0  0  0  0  0  0  0
    3.8541   -1.3909    2.0395 H   0  0  0  0  0  0  0  0  0  0  0  0
  1  2  1  0  0  0  0
  1 39  1  0  0  0  0
  1 40  1  0  0  0  0
  1 41  1  0  0  0  0
  2  3  1  0  0  0  0
  3  4  1  0  0  0  0
  3 38  2  0  0  0  0
  4  5  2  0  0  0  0
  4 42  1  0  0  0  0
  5  6  1  0  0  0  0
  5  8  1  0  0  0  0
  6  7  1  0  0  0  0
  7 43  1  0  0  0  0
  7 44  1  0  0  0  0
  7 45  1  0  0  0  0
  8  9  2  0  0  0  0
  8 46  1  0  0  0  0
  9 10  1  0  0  0  0
  9 38  1  0  0  0  0
 10 11  1  0  0  0  0
 10 22  1  0  0  0  0
 11 12  1  0  0  0  0
 11 47  1  0  0  0  0
 11 48  1  0  0  0  0
 12 13  1  0  0  0  0
 12 49  1  0  0  0  0
 12 50  1  0  0  0  0
 13 14  1  0  0  0  0
 13 21  1  0  0  0  0
 14 15  1  0  0  0  0
 14 51  1  0  0  0  0
 14 52  1  0  0  0  0
 15 16  1  0  0  0  0
 15 53  1  0  0  0  0
 15 54  1  0  0  0  0
 16 17  1  0  0  0  0
 16 55  1  0  0  0  0
 16 56  1  0  0  0  0
 17 18  1  0  0  0  0
 17 21  1  0  0  0  0
 17 57  1  0  0  0  0
 18 19  1  0  0  0  0
 18 20  2  0  0  0  0
 19 58  1  0  0  0  0
 19 59  1  0  0  0  0
 21 60  1  0  0  0  0
 21 61  1  0  0  0  0
 22 23  1  0  0  0  0
 22 37  2  0  0  0  0
 23 24  2  0  0  0  0
 23 62  1  0  0  0  0
 24 25  1  0  0  0  0
 24 63  1  0  0  0  0
 25 26  1  0  0  0  0
 25 36  2  0  0  0  0
 26 27  2  0  0  0  0
 27 28  1  0  0  0  0
 27 64  1  0  0  0  0
 28 29  1  0  0  0  0
 28 35  2  0  0  0  0
 29 30  1  0  0  0  0
 29 34  2  0  0  0  0
 30 31  2  0  0  0  0
 30 65  1  0  0  0  0
 31 32  1  0  0  0  0
 32 33  1  0  0  0  0
 32 34  1  0  0  0  0
 33 66  1  0  0  0  0
 33 67  1  0  0  0  0
 33 68  1  0  0  0  0
 34 69  1  0  0  0  0
 35 36  1  0  0  0  0
 36 37  1  0  0  0  0
 37 70  1  0  0  0  0
 38 71  1  0  0  0  0
M  END
$$$$
