CHEMBL3690462
 OpenBabel04072215373D

 53 56  0  0  0  0  0  0  0  0999 V2000
    5.0441   -5.3714   -1.3129 C   0  0  0  0  0  0  0  0  0  0  0  0
    5.0962   -3.9415   -1.8217 C   0  0  0  0  0  0  0  0  0  0  0  0
    5.5298   -3.1030   -0.7489 O   0  0  0  0  0  0  0  0  0  0  0  0
    5.6918   -1.7864   -1.1376 C   0  0  0  0  0  0  0  0  0  0  0  0
    5.5969   -0.8288   -0.1431 C   0  0  0  0  0  0  0  0  0  0  0  0
    5.8067    0.4993   -0.4927 C   0  0  0  0  0  0  0  0  0  0  0  0
    6.1345    0.8176   -1.8056 C   0  0  0  0  0  0  0  0  0  0  0  0
    6.2471   -0.2114   -2.7388 C   0  0  0  0  0  0  0  0  0  0  0  0
    6.7599    0.0068   -4.1184 C   0  0  0  0  0  0  0  0  0  0  0  0
    7.5555   -1.0342   -4.7848 C   0  0  0  0  0  0  0  0  0  0  0  0
    8.0564   -0.8264   -6.0102 C   0  0  0  0  0  0  0  0  0  0  0  0
    7.7850    0.3697   -6.6705 N   0  0  0  0  0  0  0  0  0  0  0  0
    8.1213    0.7993   -7.9467 C   0  0  0  0  0  0  0  0  0  0  0  0
    8.7897    0.0174   -8.9934 C   0  0  0  0  0  0  0  0  0  0  0  0
    9.6760    0.6584   -9.8668 C   0  0  0  0  0  0  0  0  0  0  0  0
   10.2647   -0.0426  -10.9150 C   0  0  0  0  0  0  0  0  0  0  0  0
   10.0087   -1.4030  -11.0801 C   0  0  0  0  0  0  0  0  0  0  0  0
    9.1639   -2.0825  -10.2037 C   0  0  0  0  0  0  0  0  0  0  0  0
    8.9143   -3.4741  -10.2843 N   0  0  0  0  0  0  0  0  0  0  0  0
    9.4594   -4.3489  -11.1974 C   0  0  0  0  0  0  0  0  0  0  0  0
   10.2547   -4.0840  -12.0886 O   0  0  0  0  0  0  0  0  0  0  0  0
    8.9645   -5.6259  -11.0595 N   0  0  0  0  0  0  0  0  0  0  0  0
    9.4551   -6.6512  -11.9927 C   0  0  0  0  0  0  0  0  0  0  0  0
   10.8545   -7.2162  -11.7053 C   0  0  0  0  0  0  0  0  0  0  0  0
   11.3266   -6.8169  -10.5017 F   0  0  0  0  0  0  0  0  0  0  0  0
   10.8022   -8.5724  -11.6720 F   0  0  0  0  0  0  0  0  0  0  0  0
   11.7555   -6.8746  -12.6487 F   0  0  0  0  0  0  0  0  0  0  0  0
    8.5265   -1.3527   -9.1898 C   0  0  0  0  0  0  0  0  0  0  0  0
    7.6772    2.1139   -7.9799 C   0  0  0  0  0  0  0  0  0  0  0  0
    7.0191    2.4694   -6.8340 N   0  0  0  0  0  0  0  0  0  0  0  0
    7.0625    1.3995   -6.0728 C   0  0  0  0  0  0  0  0  0  0  0  0
    6.5259    1.1721   -4.7708 C   0  0  0  0  0  0  0  0  0  0  0  0
    6.0139   -1.5118   -2.4157 N   0  0  0  0  0  0  0  0  0  0  0  0
    4.6563   -6.0439   -2.0835 H   0  0  0  0  0  0  0  0  0  0  0  0
    4.4114   -5.4476   -0.4228 H   0  0  0  0  0  0  0  0  0  0  0  0
    6.0448   -5.7105   -1.0242 H   0  0  0  0  0  0  0  0  0  0  0  0
    4.0939   -3.6319   -2.1414 H   0  0  0  0  0  0  0  0  0  0  0  0
    5.7849   -3.9039   -2.6738 H   0  0  0  0  0  0  0  0  0  0  0  0
    5.3745   -1.1150    0.8765 H   0  0  0  0  0  0  0  0  0  0  0  0
    5.7352    1.2785    0.2578 H   0  0  0  0  0  0  0  0  0  0  0  0
    6.3494    1.8459   -2.0678 H   0  0  0  0  0  0  0  0  0  0  0  0
    7.7383   -1.9648   -4.2555 H   0  0  0  0  0  0  0  0  0  0  0  0
    8.6766   -1.5613   -6.5021 H   0  0  0  0  0  0  0  0  0  0  0  0
    9.9130    1.7134   -9.7494 H   0  0  0  0  0  0  0  0  0  0  0  0
   10.9284    0.4657  -11.6095 H   0  0  0  0  0  0  0  0  0  0  0  0
   10.4878   -1.8993  -11.9171 H   0  0  0  0  0  0  0  0  0  0  0  0
    8.2713   -3.8633   -9.6112 H   0  0  0  0  0  0  0  0  0  0  0  0
    8.7463   -5.9291  -10.1230 H   0  0  0  0  0  0  0  0  0  0  0  0
    9.4450   -6.2266  -13.0043 H   0  0  0  0  0  0  0  0  0  0  0  0
    8.7176   -7.4593  -11.9777 H   0  0  0  0  0  0  0  0  0  0  0  0
    7.8007   -1.8553   -8.5570 H   0  0  0  0  0  0  0  0  0  0  0  0
    7.7743    2.8174   -8.7978 H   0  0  0  0  0  0  0  0  0  0  0  0
    5.9387    1.9769   -4.3484 H   0  0  0  0  0  0  0  0  0  0  0  0
  1  2  1  0  0  0  0
  1 34  1  0  0  0  0
  1 35  1  0  0  0  0
  1 36  1  0  0  0  0
  2  3  1  0  0  0  0
  2 37  1  0  0  0  0
  2 38  1  0  0  0  0
  3  4  1  0  0  0  0
  4  5  1  0  0  0  0
  4 33  2  0  0  0  0
  5  6  2  0  0  0  0
  5 39  1  0  0  0  0
  6  7  1  0  0  0  0
  6 40  1  0  0  0  0
  7  8  2  0  0  0  0
  7 41  1  0  0  0  0
  8  9  1  0  0  0  0
  8 33  1  0  0  0  0
  9 10  1  0  0  0  0
  9 32  2  0  0  0  0
 10 11  2  0  0  0  0
 10 42  1  0  0  0  0
 11 12  1  0  0  0  0
 11 43  1  0  0  0  0
 12 13  1  0  0  0  0
 12 31  1  0  0  0  0
 13 14  1  0  0  0  0
 13 29  2  0  0  0  0
 14 15  1  0  0  0  0
 14 28  2  0  0  0  0
 15 16  2  0  0  0  0
 15 44  1  0  0  0  0
 16 17  1  0  0  0  0
 16 45  1  0  0  0  0
 17 18  2  0  0  0  0
 17 46  1  0  0  0  0
 18 19  1  0  0  0  0
 18 28  1  0  0  0  0
 19 20  1  0  0  0  0
 19 47  1  0  0  0  0
 20 21  2  0  0  0  0
 20 22  1  0  0  0  0
 22 23  1  0  0  0  0
 22 48  1  0  0  0  0
 23 24  1  0  0  0  0
 23 49  1  0  0  0  0
 23 50  1  0  0  0  0
 24 25  1  0  0  0  0
 24 26  1  0  0  0  0
 24 27  1  0  0  0  0
 28 51  1  0  0  0  0
 29 30  1  0  0  0  0
 29 52  1  0  0  0  0
 30 31  2  0  0  0  0
 31 32  1  0  0  0  0
 32 53  1  0  0  0  0
M  END
$$$$
