CHEMBL422564
 OpenBabel04072215383D

 54 58  0  0  0  0  0  0  0  0999 V2000
   -2.5049    0.9411   -2.5601 Cl  0  0  0  0  0  0  0  0  0  0  0  0
   -0.8242    1.3447   -2.4311 C   0  0  0  0  0  0  0  0  0  0  0  0
   -0.0242    0.9182   -3.5161 C   0  0  0  0  0  0  0  0  0  0  0  0
    1.3617    1.0705   -3.4946 C   0  0  0  0  0  0  0  0  0  0  0  0
    1.9134    1.6659   -2.3865 C   0  0  0  0  0  0  0  0  0  0  0  0
    1.1391    2.0934   -1.3302 C   0  0  0  0  0  0  0  0  0  0  0  0
   -0.2479    1.9633   -1.2991 C   0  0  0  0  0  0  0  0  0  0  0  0
   -0.9176    2.3431   -0.1205 N   0  0  0  0  0  0  0  0  0  0  0  0
   -2.2478    2.7881    0.0339 C   0  0  0  0  0  0  0  0  0  0  0  0
   -2.7889    3.5517   -0.9303 N   0  0  0  0  0  0  0  0  0  0  0  0
   -4.0877    3.8352   -0.7996 C   0  0  0  0  0  0  0  0  0  0  0  0
   -4.8891    3.4418    0.1984 N   0  0  0  0  0  0  0  0  0  0  0  0
   -4.3267    2.7137    1.1694 C   0  0  0  0  0  0  0  0  0  0  0  0
   -5.1177    2.2368    2.2067 C   0  0  0  0  0  0  0  0  0  0  0  0
   -4.5931    1.4757    3.2587 C   0  0  0  0  0  0  0  0  0  0  0  0
   -5.5073    1.0624    4.1840 O   0  0  0  0  0  0  0  0  0  0  0  0
   -5.0335    0.2442    5.2579 C   0  0  0  0  0  0  0  0  0  0  0  0
   -6.2547   -0.1631    6.0757 C   0  0  0  0  0  0  0  0  0  0  0  0
   -5.8881   -1.0576    7.2620 C   0  0  0  0  0  0  0  0  0  0  0  0
   -7.0409   -1.3671    8.1220 N   0  0  0  0  0  0  0  0  0  0  0  0
   -6.6426   -2.1639    9.3046 C   0  0  0  0  0  0  0  0  0  0  0  0
   -6.3578   -3.6407    8.9909 C   0  0  0  0  0  0  0  0  0  0  0  0
   -7.4826   -4.2683    8.3592 O   0  0  0  0  0  0  0  0  0  0  0  0
   -7.8509   -3.5697    7.1633 C   0  0  0  0  0  0  0  0  0  0  0  0
   -8.1421   -2.0851    7.4425 C   0  0  0  0  0  0  0  0  0  0  0  0
   -3.2334    1.1974    3.2882 C   0  0  0  0  0  0  0  0  0  0  0  0
   -2.4238    1.6386    2.2439 C   0  0  0  0  0  0  0  0  0  0  0  0
   -2.9671    2.3848    1.1704 C   0  0  0  0  0  0  0  0  0  0  0  0
    1.9002    2.6363   -0.3299 O   0  0  0  0  0  0  0  0  0  0  0  0
    3.2055    2.6186   -0.9452 C   0  0  0  0  0  0  0  0  0  0  0  0
    3.2393    1.8894   -2.1871 O   0  0  0  0  0  0  0  0  0  0  0  0
   -0.4916    0.4409   -4.3754 H   0  0  0  0  0  0  0  0  0  0  0  0
    1.9789    0.7210   -4.3142 H   0  0  0  0  0  0  0  0  0  0  0  0
   -0.3049    2.7879    0.5556 H   0  0  0  0  0  0  0  0  0  0  0  0
   -4.5387    4.4307   -1.5859 H   0  0  0  0  0  0  0  0  0  0  0  0
   -6.1846    2.4468    2.1887 H   0  0  0  0  0  0  0  0  0  0  0  0
   -4.3361    0.8156    5.8814 H   0  0  0  0  0  0  0  0  0  0  0  0
   -4.5467   -0.6532    4.8681 H   0  0  0  0  0  0  0  0  0  0  0  0
   -6.9446   -0.6759    5.3978 H   0  0  0  0  0  0  0  0  0  0  0  0
   -6.7768    0.7377    6.4233 H   0  0  0  0  0  0  0  0  0  0  0  0
   -5.1439   -0.5207    7.8667 H   0  0  0  0  0  0  0  0  0  0  0  0
   -5.3958   -1.9680    6.8967 H   0  0  0  0  0  0  0  0  0  0  0  0
   -7.4738   -2.1180   10.0208 H   0  0  0  0  0  0  0  0  0  0  0  0
   -5.7816   -1.7094    9.8076 H   0  0  0  0  0  0  0  0  0  0  0  0
   -6.1639   -4.1850    9.9204 H   0  0  0  0  0  0  0  0  0  0  0  0
   -5.4767   -3.7612    8.3509 H   0  0  0  0  0  0  0  0  0  0  0  0
   -8.7557   -4.0476    6.7735 H   0  0  0  0  0  0  0  0  0  0  0  0
   -7.0629   -3.6944    6.4135 H   0  0  0  0  0  0  0  0  0  0  0  0
   -9.0155   -2.0268    8.1036 H   0  0  0  0  0  0  0  0  0  0  0  0
   -8.4506   -1.5842    6.5208 H   0  0  0  0  0  0  0  0  0  0  0  0
   -2.7749    0.6272    4.0884 H   0  0  0  0  0  0  0  0  0  0  0  0
   -1.3665    1.3878    2.2639 H   0  0  0  0  0  0  0  0  0  0  0  0
    3.9204    2.1671   -0.2487 H   0  0  0  0  0  0  0  0  0  0  0  0
    3.5111    3.6534   -1.1423 H   0  0  0  0  0  0  0  0  0  0  0  0
  1  2  1  0  0  0  0
  2  3  1  0  0  0  0
  2  7  2  0  0  0  0
  3  4  2  0  0  0  0
  3 32  1  0  0  0  0
  4  5  1  0  0  0  0
  4 33  1  0  0  0  0
  5  6  2  0  0  0  0
  5 31  1  0  0  0  0
  6  7  1  0  0  0  0
  6 29  1  0  0  0  0
  7  8  1  0  0  0  0
  8  9  1  0  0  0  0
  8 34  1  0  0  0  0
  9 10  1  0  0  0  0
  9 28  2  0  0  0  0
 10 11  2  0  0  0  0
 11 12  1  0  0  0  0
 11 35  1  0  0  0  0
 12 13  2  0  0  0  0
 13 14  1  0  0  0  0
 13 28  1  0  0  0  0
 14 15  2  0  0  0  0
 14 36  1  0  0  0  0
 15 16  1  0  0  0  0
 15 26  1  0  0  0  0
 16 17  1  0  0  0  0
 17 18  1  0  0  0  0
 17 37  1  0  0  0  0
 17 38  1  0  0  0  0
 18 19  1  0  0  0  0
 18 39  1  0  0  0  0
 18 40  1  0  0  0  0
 19 20  1  0  0  0  0
 19 41  1  0  0  0  0
 19 42  1  0  0  0  0
 20 21  1  0  0  0  0
 20 25  1  0  0  0  0
 21 22  1  0  0  0  0
 21 43  1  0  0  0  0
 21 44  1  0  0  0  0
 22 23  1  0  0  0  0
 22 45  1  0  0  0  0
 22 46  1  0  0  0  0
 23 24  1  0  0  0  0
 24 25  1  0  0  0  0
 24 47  1  0  0  0  0
 24 48  1  0  0  0  0
 25 49  1  0  0  0  0
 25 50  1  0  0  0  0
 26 27  2  0  0  0  0
 26 51  1  0  0  0  0
 27 28  1  0  0  0  0
 27 52  1  0  0  0  0
 29 30  1  0  0  0  0
 30 31  1  0  0  0  0
 30 53  1  0  0  0  0
 30 54  1  0  0  0  0
M  END
$$$$
