CHEMBL2018882
 OpenBabel04072215363D

 51 54  0  0  0  0  0  0  0  0999 V2000
    9.8864   -5.0284   -0.0001 C   0  0  0  0  0  0  0  0  0  0  0  0
    9.9527   -5.0792   -1.4297 O   0  0  0  0  0  0  0  0  0  0  0  0
    8.8656   -4.5526   -2.0861 C   0  0  0  0  0  0  0  0  0  0  0  0
    8.1462   -3.4797   -1.5371 C   0  0  0  0  0  0  0  0  0  0  0  0
    6.9599   -3.0251   -2.0872 C   0  0  0  0  0  0  0  0  0  0  0  0
    6.2786   -2.0856   -1.4208 N   0  0  0  0  0  0  0  0  0  0  0  0
    5.0878   -1.7398   -1.9180 C   0  0  0  0  0  0  0  0  0  0  0  0
    4.5379   -2.2273   -3.0258 N   0  0  0  0  0  0  0  0  0  0  0  0
    5.2849   -3.1140   -3.7229 C   0  0  0  0  0  0  0  0  0  0  0  0
    4.7624   -3.6218   -4.9205 O   0  0  0  0  0  0  0  0  0  0  0  0
    3.7800   -2.8739   -5.5374 C   0  0  0  0  0  0  0  0  0  0  0  0
    3.9038   -1.4965   -5.6974 C   0  0  0  0  0  0  0  0  0  0  0  0
    2.8378   -0.7521   -6.1959 C   0  0  0  0  0  0  0  0  0  0  0  0
    1.6540   -1.3690   -6.6113 C   0  0  0  0  0  0  0  0  0  0  0  0
    0.5143   -0.6353   -7.0332 N   0  0  0  0  0  0  0  0  0  0  0  0
    0.4406    0.7453   -7.1374 C   0  0  0  0  0  0  0  0  0  0  0  0
    1.3910    1.5122   -7.0157 O   0  0  0  0  0  0  0  0  0  0  0  0
   -0.8591    1.1954   -7.3475 N   0  0  0  0  0  0  0  0  0  0  0  0
   -1.1133    2.5877   -7.4559 C   0  0  0  0  0  0  0  0  0  0  0  0
   -0.2833    3.4202   -8.2206 C   0  0  0  0  0  0  0  0  0  0  0  0
   -0.4768    4.8018   -8.2319 C   0  0  0  0  0  0  0  0  0  0  0  0
   -1.5005    5.3618   -7.4742 C   0  0  0  0  0  0  0  0  0  0  0  0
   -2.3435    4.5306   -6.7358 C   0  0  0  0  0  0  0  0  0  0  0  0
   -3.6987    5.3016   -5.6640 Br  0  0  0  0  0  0  0  0  0  0  0  0
   -2.1748    3.1431   -6.7428 C   0  0  0  0  0  0  0  0  0  0  0  0
    1.5845   -2.7684   -6.5571 C   0  0  0  0  0  0  0  0  0  0  0  0
    2.6466   -3.5218   -6.0266 C   0  0  0  0  0  0  0  0  0  0  0  0
    6.5205   -3.5871   -3.2836 C   0  0  0  0  0  0  0  0  0  0  0  0
    7.3166   -4.5595   -3.9294 C   0  0  0  0  0  0  0  0  0  0  0  0
    8.4791   -5.0651   -3.3296 C   0  0  0  0  0  0  0  0  0  0  0  0
    9.0457   -6.0522   -4.0840 O   0  0  0  0  0  0  0  0  0  0  0  0
   10.1222   -6.8132   -3.5629 C   0  0  0  0  0  0  0  0  0  0  0  0
   10.3626   -5.9290    0.3979 H   0  0  0  0  0  0  0  0  0  0  0  0
    8.8610   -5.0149    0.3920 H   0  0  0  0  0  0  0  0  0  0  0  0
   10.4400   -4.1559    0.3616 H   0  0  0  0  0  0  0  0  0  0  0  0
    8.4824   -2.9984   -0.6231 H   0  0  0  0  0  0  0  0  0  0  0  0
    4.5231   -0.9931   -1.3705 H   0  0  0  0  0  0  0  0  0  0  0  0
    4.7952   -0.9726   -5.3656 H   0  0  0  0  0  0  0  0  0  0  0  0
    2.9749    0.3224   -6.2059 H   0  0  0  0  0  0  0  0  0  0  0  0
   -0.2924   -1.1621   -7.3299 H   0  0  0  0  0  0  0  0  0  0  0  0
   -1.5705    0.6420   -6.8924 H   0  0  0  0  0  0  0  0  0  0  0  0
    0.5395    3.0020   -8.7977 H   0  0  0  0  0  0  0  0  0  0  0  0
    0.1917    5.4356   -8.8093 H   0  0  0  0  0  0  0  0  0  0  0  0
   -1.6231    6.4414   -7.4559 H   0  0  0  0  0  0  0  0  0  0  0  0
   -2.8205    2.5184   -6.1344 H   0  0  0  0  0  0  0  0  0  0  0  0
    0.6955   -3.2944   -6.9036 H   0  0  0  0  0  0  0  0  0  0  0  0
    2.5686   -4.6028   -5.9652 H   0  0  0  0  0  0  0  0  0  0  0  0
    7.0037   -4.9635   -4.8904 H   0  0  0  0  0  0  0  0  0  0  0  0
   10.2315   -7.6929   -4.2078 H   0  0  0  0  0  0  0  0  0  0  0  0
    9.9222   -7.1894   -2.5568 H   0  0  0  0  0  0  0  0  0  0  0  0
   11.0573   -6.2481   -3.6145 H   0  0  0  0  0  0  0  0  0  0  0  0
  1  2  1  0  0  0  0
  1 33  1  0  0  0  0
  1 34  1  0  0  0  0
  1 35  1  0  0  0  0
  2  3  1  0  0  0  0
  3  4  1  0  0  0  0
  3 30  2  0  0  0  0
  4  5  2  0  0  0  0
  4 36  1  0  0  0  0
  5  6  1  0  0  0  0
  5 28  1  0  0  0  0
  6  7  2  0  0  0  0
  7  8  1  0  0  0  0
  7 37  1  0  0  0  0
  8  9  2  0  0  0  0
  9 10  1  0  0  0  0
  9 28  1  0  0  0  0
 10 11  1  0  0  0  0
 11 12  1  0  0  0  0
 11 27  2  0  0  0  0
 12 13  2  0  0  0  0
 12 38  1  0  0  0  0
 13 14  1  0  0  0  0
 13 39  1  0  0  0  0
 14 15  1  0  0  0  0
 14 26  2  0  0  0  0
 15 16  1  0  0  0  0
 15 40  1  0  0  0  0
 16 17  2  0  0  0  0
 16 18  1  0  0  0  0
 18 19  1  0  0  0  0
 18 41  1  0  0  0  0
 19 20  1  0  0  0  0
 19 25  2  0  0  0  0
 20 21  2  0  0  0  0
 20 42  1  0  0  0  0
 21 22  1  0  0  0  0
 21 43  1  0  0  0  0
 22 23  2  0  0  0  0
 22 44  1  0  0  0  0
 23 24  1  0  0  0  0
 23 25  1  0  0  0  0
 25 45  1  0  0  0  0
 26 27  1  0  0  0  0
 26 46  1  0  0  0  0
 27 47  1  0  0  0  0
 28 29  2  0  0  0  0
 29 30  1  0  0  0  0
 29 48  1  0  0  0  0
 30 31  1  0  0  0  0
 31 32  1  0  0  0  0
 32 49  1  0  0  0  0
 32 50  1  0  0  0  0
 32 51  1  0  0  0  0
M  END
$$$$
