CHEMBL3221543
 OpenBabel04072215363D

 78 79  0  0  0  0  0  0  0  0999 V2000
    4.3908   -1.9641    0.8683 C   0  0  0  0  0  0  0  0  0  0  0  0
    3.8842   -0.6299    0.3396 C   0  0  0  0  0  0  0  0  0  0  0  0
    4.9925    0.4252    0.2661 C   0  0  0  0  0  0  0  0  0  0  0  0
    4.4124    1.6861   -0.3886 C   0  0  0  0  0  0  0  0  0  0  0  0
    5.2791    2.7398   -0.5974 O   0  0  0  0  0  0  0  0  0  0  0  0
    6.6275    2.8827   -0.6693 C   0  0  0  0  0  0  0  0  0  0  0  0
    7.1159    4.0495   -0.0572 C   0  0  0  0  0  0  0  0  0  0  0  0
    8.4860    4.3565   -0.0237 C   0  0  0  0  0  0  0  0  0  0  0  0
    9.0273    5.4938    0.6275 C   0  0  0  0  0  0  0  0  0  0  0  0
    8.2085    6.3951    1.3883 N   0  0  0  0  0  0  0  0  0  0  0  0
    8.6081    7.6940    1.8383 C   0  0  0  0  0  0  0  0  0  0  0  0
    9.6935    8.3796    1.2842 C   0  0  0  0  0  0  0  0  0  0  0  0
   10.0504    9.6383    1.7364 C   0  0  0  0  0  0  0  0  0  0  0  0
    9.3420   10.2945    2.7693 C   0  0  0  0  0  0  0  0  0  0  0  0
    9.7448   11.6049    3.2460 N   0  0  0  0  0  0  0  0  0  0  0  0
   10.6357   12.4493    2.6405 C   0  0  0  0  0  0  0  0  0  0  0  0
   11.1128   12.2078    1.5476 O   0  0  0  0  0  0  0  0  0  0  0  0
   11.0148   13.5871    3.2892 O   0  0  0  0  0  0  0  0  0  0  0  0
   11.9614   14.4735    2.7916 C   0  0  0  0  0  0  0  0  0  0  0  0
   11.3807   15.3539    1.6882 C   0  0  0  0  0  0  0  0  0  0  0  0
    8.2324    9.5956    3.3482 C   0  0  0  0  0  0  0  0  0  0  0  0
    7.3732   10.1489    4.4601 C   0  0  0  0  0  0  0  0  0  0  0  0
    7.8776    8.3225    2.8565 C   0  0  0  0  0  0  0  0  0  0  0  0
   10.3749    5.6813    0.5823 N   0  0  0  0  0  0  0  0  0  0  0  0
   11.2088    4.8390   -0.0674 C   0  0  0  0  0  0  0  0  0  0  0  0
   10.7094    3.7485   -0.6883 N   0  0  0  0  0  0  0  0  0  0  0  0
    9.3777    3.4916   -0.6772 C   0  0  0  0  0  0  0  0  0  0  0  0
    8.9158    2.3487   -1.3040 C   0  0  0  0  0  0  0  0  0  0  0  0
    7.5417    1.9881   -1.3054 C   0  0  0  0  0  0  0  0  0  0  0  0
    7.1658    0.7929   -1.8772 O   0  0  0  0  0  0  0  0  0  0  0  0
    8.1164   -0.2207   -2.0140 C   0  0  0  0  0  0  0  0  0  0  0  0
    7.6158   -1.6711   -2.1407 C   0  0  0  0  0  0  0  0  0  0  0  0
    8.7644   -2.6392   -2.1300 N   0  0  0  0  0  0  0  0  0  0  0  0
    9.6864   -2.5202   -0.9576 C   0  0  0  0  0  0  0  0  0  0  0  0
    9.0341   -2.8593    0.3895 C   0  0  0  0  0  0  0  0  0  0  0  0
    8.2878   -4.0266   -2.3537 C   0  0  0  0  0  0  0  0  0  0  0  0
    9.4282   -5.0570   -2.4436 C   0  0  0  0  0  0  0  0  0  0  0  0
   -0.7805   -1.1236    2.0107 Cl  0  0  0  0  0  0  0  0  0  0  0  0
    3.5558   -2.6955    0.8522 H   0  0  0  0  0  0  0  0  0  0  0  0
    4.7655   -1.8556    1.9061 H   0  0  0  0  0  0  0  0  0  0  0  0
    5.2037   -2.3525    0.2201 H   0  0  0  0  0  0  0  0  0  0  0  0
    3.0547   -0.2639    0.9821 H   0  0  0  0  0  0  0  0  0  0  0  0
    3.4915   -0.8028   -0.6873 H   0  0  0  0  0  0  0  0  0  0  0  0
    5.7912   -0.0121   -0.3314 H   0  0  0  0  0  0  0  0  0  0  0  0
    5.4010    0.6577    1.2749 H   0  0  0  0  0  0  0  0  0  0  0  0
    3.6381    2.0636    0.3181 H   0  0  0  0  0  0  0  0  0  0  0  0
    3.9026    1.4593   -1.3453 H   0  0  0  0  0  0  0  0  0  0  0  0
    6.3846    4.6949    0.4066 H   0  0  0  0  0  0  0  0  0  0  0  0
    7.2869    6.0674    1.7068 H   0  0  0  0  0  0  0  0  0  0  0  0
   10.2830    7.9790    0.4803 H   0  0  0  0  0  0  0  0  0  0  0  0
   10.9126   10.0451    1.2505 H   0  0  0  0  0  0  0  0  0  0  0  0
    9.3486   11.9434    4.1311 H   0  0  0  0  0  0  0  0  0  0  0  0
   12.8461   13.9126    2.4117 H   0  0  0  0  0  0  0  0  0  0  0  0
   12.3098   15.1286    3.6156 H   0  0  0  0  0  0  0  0  0  0  0  0
   11.0066   14.7419    0.8417 H   0  0  0  0  0  0  0  0  0  0  0  0
   12.1697   16.0374    1.3075 H   0  0  0  0  0  0  0  0  0  0  0  0
   10.5468   15.9633    2.0952 H   0  0  0  0  0  0  0  0  0  0  0  0
    7.9272   10.7897    5.1666 H   0  0  0  0  0  0  0  0  0  0  0  0
    6.9918    9.3142    5.0886 H   0  0  0  0  0  0  0  0  0  0  0  0
    6.4921   10.6768    4.0376 H   0  0  0  0  0  0  0  0  0  0  0  0
    7.0283    7.7991    3.2846 H   0  0  0  0  0  0  0  0  0  0  0  0
   12.2737    5.0225   -0.0776 H   0  0  0  0  0  0  0  0  0  0  0  0
    9.6653    1.7322   -1.7789 H   0  0  0  0  0  0  0  0  0  0  0  0
    8.6497   -0.2004   -1.0523 H   0  0  0  0  0  0  0  0  0  0  0  0
    8.7990    0.0019   -2.8622 H   0  0  0  0  0  0  0  0  0  0  0  0
    7.0564   -1.7630   -3.0983 H   0  0  0  0  0  0  0  0  0  0  0  0
    6.9106   -1.9033   -1.3187 H   0  0  0  0  0  0  0  0  0  0  0  0
   10.1514   -1.5200   -0.9121 H   0  0  0  0  0  0  0  0  0  0  0  0
   10.5864   -3.1467   -1.0995 H   0  0  0  0  0  0  0  0  0  0  0  0
    8.1381   -2.2348    0.5793 H   0  0  0  0  0  0  0  0  0  0  0  0
    9.7627   -2.6688    1.2052 H   0  0  0  0  0  0  0  0  0  0  0  0
    8.7517   -3.9310    0.4283 H   0  0  0  0  0  0  0  0  0  0  0  0
    7.7449   -4.0659   -3.3225 H   0  0  0  0  0  0  0  0  0  0  0  0
    7.5811   -4.3368   -1.5537 H   0  0  0  0  0  0  0  0  0  0  0  0
   10.1519   -4.7685   -3.2352 H   0  0  0  0  0  0  0  0  0  0  0  0
    9.0134   -6.0576   -2.6817 H   0  0  0  0  0  0  0  0  0  0  0  0
    9.9651   -5.1685   -1.4783 H   0  0  0  0  0  0  0  0  0  0  0  0
    0.5230   -0.7764    2.2796 H   0  0  0  0  0  0  0  0  0  0  0  0
  1  2  1  0  0  0  0
  1 39  1  0  0  0  0
  1 40  1  0  0  0  0
  1 41  1  0  0  0  0
  2  3  1  0  0  0  0
  2 42  1  0  0  0  0
  2 43  1  0  0  0  0
  3  4  1  0  0  0  0
  3 44  1  0  0  0  0
  3 45  1  0  0  0  0
  4  5  1  0  0  0  0
  4 46  1  0  0  0  0
  4 47  1  0  0  0  0
  5  6  1  0  0  0  0
  6  7  1  0  0  0  0
  6 29  2  0  0  0  0
  7  8  2  0  0  0  0
  7 48  1  0  0  0  0
  8  9  1  0  0  0  0
  8 27  1  0  0  0  0
  9 10  1  0  0  0  0
  9 24  2  0  0  0  0
 10 11  1  0  0  0  0
 10 49  1  0  0  0  0
 11 12  1  0  0  0  0
 11 23  2  0  0  0  0
 12 13  2  0  0  0  0
 12 50  1  0  0  0  0
 13 14  1  0  0  0  0
 13 51  1  0  0  0  0
 14 15  1  0  0  0  0
 14 21  2  0  0  0  0
 15 16  1  0  0  0  0
 15 52  1  0  0  0  0
 16 17  2  0  0  0  0
 16 18  1  0  0  0  0
 18 19  1  0  0  0  0
 19 20  1  0  0  0  0
 19 53  1  0  0  0  0
 19 54  1  0  0  0  0
 20 55  1  0  0  0  0
 20 56  1  0  0  0  0
 20 57  1  0  0  0  0
 21 22  1  0  0  0  0
 21 23  1  0  0  0  0
 22 58  1  0  0  0  0
 22 59  1  0  0  0  0
 22 60  1  0  0  0  0
 23 61  1  0  0  0  0
 24 25  1  0  0  0  0
 25 26  2  0  0  0  0
 25 62  1  0  0  0  0
 26 27  1  0  0  0  0
 27 28  2  0  0  0  0
 28 29  1  0  0  0  0
 28 63  1  0  0  0  0
 29 30  1  0  0  0  0
 30 31  1  0  0  0  0
 31 32  1  0  0  0  0
 31 64  1  0  0  0  0
 31 65  1  0  0  0  0
 32 33  1  0  0  0  0
 32 66  1  0  0  0  0
 32 67  1  0  0  0  0
 33 34  1  0  0  0  0
 33 36  1  0  0  0  0
 34 35  1  0  0  0  0
 34 68  1  0  0  0  0
 34 69  1  0  0  0  0
 35 70  1  0  0  0  0
 35 71  1  0  0  0  0
 35 72  1  0  0  0  0
 36 37  1  0  0  0  0
 36 73  1  0  0  0  0
 36 74  1  0  0  0  0
 37 75  1  0  0  0  0
 37 76  1  0  0  0  0
 37 77  1  0  0  0  0
 38 78  1  0  0  0  0
M  END
$$$$
