CHEMBL2001641
 OpenBabel04072215363D

 31 33  0  0  0  0  0  0  0  0999 V2000
    3.6781   -0.7736    0.4613 C   0  0  0  0  0  0  0  0  0  0  0  0
    2.5707    0.0077   -0.2537 C   0  0  0  0  0  0  0  0  0  0  0  0
    1.2175   -0.6872   -0.0721 C   0  0  0  0  0  0  0  0  0  0  0  0
    2.4771    1.2914    0.3937 O   0  0  0  0  0  0  0  0  0  0  0  0
    2.8933    0.1869   -1.7077 C   0  0  0  0  0  0  0  0  0  0  0  0
    3.2000    1.3433   -2.3879 C   0  0  0  0  0  0  0  0  0  0  0  0
    3.4118    0.9607   -3.6867 N   0  0  0  0  0  0  0  0  0  0  0  0
    3.7817    1.7723   -4.7910 C   0  0  0  0  0  0  0  0  0  0  0  0
    4.0879    3.1285   -4.5914 C   0  0  0  0  0  0  0  0  0  0  0  0
    4.4573    3.9575   -5.6555 C   0  0  0  0  0  0  0  0  0  0  0  0
    4.4717    3.3863   -6.9276 C   0  0  0  0  0  0  0  0  0  0  0  0
    4.7475    3.9219   -8.1578 N   0  0  0  0  0  0  0  0  0  0  0  0
    4.6411    3.0478   -9.1733 N   0  0  0  0  0  0  0  0  0  0  0  0
    4.2918    1.9099   -8.5662 C   0  0  0  0  0  0  0  0  0  0  0  0
    4.1706    2.0504   -7.1649 C   0  0  0  0  0  0  0  0  0  0  0  0
    3.8374    1.2131   -6.0824 C   0  0  0  0  0  0  0  0  0  0  0  0
    3.2126   -0.3770   -3.7953 N   0  0  0  0  0  0  0  0  0  0  0  0
    2.9145   -0.8566   -2.5939 N   0  0  0  0  0  0  0  0  0  0  0  0
    3.4508   -0.8900    1.5275 H   0  0  0  0  0  0  0  0  0  0  0  0
    4.6321   -0.2347    0.4070 H   0  0  0  0  0  0  0  0  0  0  0  0
    3.8235   -1.7690    0.0285 H   0  0  0  0  0  0  0  0  0  0  0  0
    0.9623   -0.7793    0.9900 H   0  0  0  0  0  0  0  0  0  0  0  0
    1.2077   -1.6877   -0.5176 H   0  0  0  0  0  0  0  0  0  0  0  0
    0.4154   -0.0992   -0.5341 H   0  0  0  0  0  0  0  0  0  0  0  0
    2.2540    1.1323    1.3258 H   0  0  0  0  0  0  0  0  0  0  0  0
    3.2621    2.3617   -2.0415 H   0  0  0  0  0  0  0  0  0  0  0  0
    4.0598    3.5812   -3.6037 H   0  0  0  0  0  0  0  0  0  0  0  0
    4.7092    5.0000   -5.4903 H   0  0  0  0  0  0  0  0  0  0  0  0
    5.0001    4.8800   -8.3716 H   0  0  0  0  0  0  0  0  0  0  0  0
    4.1315    1.0249   -9.1680 H   0  0  0  0  0  0  0  0  0  0  0  0
    3.6091    0.1655   -6.2625 H   0  0  0  0  0  0  0  0  0  0  0  0
  1  2  1  0  0  0  0
  1 19  1  0  0  0  0
  1 20  1  0  0  0  0
  1 21  1  0  0  0  0
  2  3  1  0  0  0  0
  2  4  1  0  0  0  0
  2  5  1  0  0  0  0
  3 22  1  0  0  0  0
  3 23  1  0  0  0  0
  3 24  1  0  0  0  0
  4 25  1  0  0  0  0
  5  6  2  0  0  0  0
  5 18  1  0  0  0  0
  6  7  1  0  0  0  0
  6 26  1  0  0  0  0
  7  8  1  0  0  0  0
  7 17  1  0  0  0  0
  8  9  1  0  0  0  0
  8 16  2  0  0  0  0
  9 10  2  0  0  0  0
  9 27  1  0  0  0  0
 10 11  1  0  0  0  0
 10 28  1  0  0  0  0
 11 12  1  0  0  0  0
 11 15  2  0  0  0  0
 12 13  1  0  0  0  0
 12 29  1  0  0  0  0
 13 14  2  0  0  0  0
 14 15  1  0  0  0  0
 14 30  1  0  0  0  0
 15 16  1  0  0  0  0
 16 31  1  0  0  0  0
 17 18  2  0  0  0  0
M  END
$$$$
