CHEMBL50
 OpenBabel04072215383D

 32 34  0  0  0  0  0  0  0  0999 V2000
    2.0201   -1.7445    0.1037 O   0  0  0  0  0  0  0  0  0  0  0  0
    1.5281   -0.6216    0.0532 C   0  0  0  0  0  0  0  0  0  0  0  0
    2.4558    0.5323   -0.0069 C   0  0  0  0  0  0  0  0  0  0  0  0
    3.8094    0.2486   -0.0521 O   0  0  0  0  0  0  0  0  0  0  0  0
    1.9504    1.7739   -0.0323 C   0  0  0  0  0  0  0  0  0  0  0  0
    2.8295    2.9444   -0.1626 C   0  0  0  0  0  0  0  0  0  0  0  0
    3.3674    3.5763    0.9713 C   0  0  0  0  0  0  0  0  0  0  0  0
    4.2702    4.6388    0.8346 C   0  0  0  0  0  0  0  0  0  0  0  0
    4.6306    5.0623   -0.4391 C   0  0  0  0  0  0  0  0  0  0  0  0
    5.5227    6.0792   -0.6403 O   0  0  0  0  0  0  0  0  0  0  0  0
    4.0919    4.4436   -1.5643 C   0  0  0  0  0  0  0  0  0  0  0  0
    4.4627    4.8571   -2.8126 O   0  0  0  0  0  0  0  0  0  0  0  0
    3.1932    3.3936   -1.4394 C   0  0  0  0  0  0  0  0  0  0  0  0
    0.6006    2.0739    0.0182 O   0  0  0  0  0  0  0  0  0  0  0  0
   -0.2991    1.0311    0.0271 C   0  0  0  0  0  0  0  0  0  0  0  0
   -1.6525    1.3830    0.0177 C   0  0  0  0  0  0  0  0  0  0  0  0
   -2.6166    0.3801   -0.0018 C   0  0  0  0  0  0  0  0  0  0  0  0
   -3.9479    0.6684   -0.0211 O   0  0  0  0  0  0  0  0  0  0  0  0
   -2.2536   -0.9624   -0.0083 C   0  0  0  0  0  0  0  0  0  0  0  0
   -0.9029   -1.3108    0.0105 C   0  0  0  0  0  0  0  0  0  0  0  0
   -0.5641   -2.6332   -0.0038 O   0  0  0  0  0  0  0  0  0  0  0  0
    0.0836   -0.3154    0.0328 C   0  0  0  0  0  0  0  0  0  0  0  0
    3.8532   -0.7323   -0.0373 H   0  0  0  0  0  0  0  0  0  0  0  0
    3.1036    3.2268    1.9673 H   0  0  0  0  0  0  0  0  0  0  0  0
    4.6859    5.1023    1.7232 H   0  0  0  0  0  0  0  0  0  0  0  0
    5.8264    6.3926    0.2286 H   0  0  0  0  0  0  0  0  0  0  0  0
    5.1233    5.5597   -2.6511 H   0  0  0  0  0  0  0  0  0  0  0  0
    2.8041    2.9136   -2.3323 H   0  0  0  0  0  0  0  0  0  0  0  0
   -1.9327    2.4322    0.0202 H   0  0  0  0  0  0  0  0  0  0  0  0
   -4.0671    1.6331   -0.0374 H   0  0  0  0  0  0  0  0  0  0  0  0
   -3.0324   -1.7191   -0.0320 H   0  0  0  0  0  0  0  0  0  0  0  0
   -1.3622   -3.1855   -0.0290 H   0  0  0  0  0  0  0  0  0  0  0  0
  1  2  2  0  0  0  0
  2  3  1  0  0  0  0
  2 22  1  0  0  0  0
  3  4  1  0  0  0  0
  3  5  2  0  0  0  0
  4 23  1  0  0  0  0
  5  6  1  0  0  0  0
  5 14  1  0  0  0  0
  6  7  1  0  0  0  0
  6 13  2  0  0  0  0
  7  8  2  0  0  0  0
  7 24  1  0  0  0  0
  8  9  1  0  0  0  0
  8 25  1  0  0  0  0
  9 10  1  0  0  0  0
  9 11  2  0  0  0  0
 10 26  1  0  0  0  0
 11 12  1  0  0  0  0
 11 13  1  0  0  0  0
 12 27  1  0  0  0  0
 13 28  1  0  0  0  0
 14 15  1  0  0  0  0
 15 16  1  0  0  0  0
 15 22  2  0  0  0  0
 16 17  2  0  0  0  0
 16 29  1  0  0  0  0
 17 18  1  0  0  0  0
 17 19  1  0  0  0  0
 18 30  1  0  0  0  0
 19 20  2  0  0  0  0
 19 31  1  0  0  0  0
 20 21  1  0  0  0  0
 20 22  1  0  0  0  0
 21 32  1  0  0  0  0
M  END
$$$$
