CHEMBL3422067
 OpenBabel04072215363D

 74 79  0  0  0  0  0  0  0  0999 V2000
    0.9182   -0.1639    0.3039 O   0  0  0  0  0  0  0  0  0  0  0  0
    2.0903    0.0789    0.0379 C   0  0  0  0  0  0  0  0  0  0  0  0
    2.7666    1.1988    0.4910 N   0  0  0  0  0  0  0  0  0  0  0  0
    2.1315    2.2479    1.2705 C   0  0  0  0  0  0  0  0  0  0  0  0
    2.7967    2.5845    2.6796 C   0  0  0  0  0  0  0  0  0  0  0  0
    4.1994    3.0406    2.4195 N   0  0  0  0  0  0  0  0  0  0  0  0
    5.2896    2.0476    2.3434 C   0  0  0  0  0  0  0  0  0  0  0  0
    6.0808    1.8457    3.6512 C   0  0  0  0  0  0  0  0  0  0  0  0
    6.5396    3.0843    4.2044 O   0  0  0  0  0  0  0  0  0  0  0  0
    5.4470    3.9913    4.3850 C   0  0  0  0  0  0  0  0  0  0  0  0
    4.7310    4.2581    3.0515 C   0  0  0  0  0  0  0  0  0  0  0  0
    2.6353    1.3276    3.5850 C   0  0  0  0  0  0  0  0  0  0  0  0
    2.7374    1.5614    5.0919 C   0  0  0  0  0  0  0  0  0  0  0  0
    1.8924    2.7179    5.6072 C   0  0  0  0  0  0  0  0  0  0  0  0
    1.9614    3.9746    4.7534 C   0  0  0  0  0  0  0  0  0  0  0  0
    1.8423    3.6855    3.2604 C   0  0  0  0  0  0  0  0  0  0  0  0
    2.8726   -0.8550   -0.8246 C   0  0  0  0  0  0  0  0  0  0  0  0
    2.2098   -1.6955   -1.7253 C   0  0  0  0  0  0  0  0  0  0  0  0
    2.9205   -2.5915   -2.5386 C   0  0  0  0  0  0  0  0  0  0  0  0
    4.3128   -2.6241   -2.4006 C   0  0  0  0  0  0  0  0  0  0  0  0
    5.2787   -3.3612   -3.0280 N   0  0  0  0  0  0  0  0  0  0  0  0
    6.5311   -3.1019   -2.6224 N   0  0  0  0  0  0  0  0  0  0  0  0
    6.3842   -2.1724   -1.6544 C   0  0  0  0  0  0  0  0  0  0  0  0
    7.5420   -1.6400   -0.9300 C   0  0  0  0  0  0  0  0  0  0  0  0
    8.7898   -1.5370   -1.5518 C   0  0  0  0  0  0  0  0  0  0  0  0
    9.8945   -1.0083   -0.8651 C   0  0  0  0  0  0  0  0  0  0  0  0
    9.7956   -0.5778    0.4627 C   0  0  0  0  0  0  0  0  0  0  0  0
   10.8601   -0.0554    1.1650 N   0  0  0  0  0  0  0  0  0  0  0  0
   11.9687    0.6738    0.5351 C   0  0  0  0  0  0  0  0  0  0  0  0
   13.2938   -0.0772    0.7273 C   0  0  0  0  0  0  0  0  0  0  0  0
   13.5380   -0.3825    2.1112 O   0  0  0  0  0  0  0  0  0  0  0  0
   12.4765   -1.1996    2.6313 C   0  0  0  0  0  0  0  0  0  0  0  0
   11.1190   -0.4830    2.5505 C   0  0  0  0  0  0  0  0  0  0  0  0
    8.5393   -0.6936    1.0721 C   0  0  0  0  0  0  0  0  0  0  0  0
    7.4347   -1.2242    0.3990 C   0  0  0  0  0  0  0  0  0  0  0  0
    5.0036   -1.8240   -1.4992 C   0  0  0  0  0  0  0  0  0  0  0  0
    4.2687   -0.9221   -0.7061 C   0  0  0  0  0  0  0  0  0  0  0  0
    3.6345    1.4654    0.0435 H   0  0  0  0  0  0  0  0  0  0  0  0
    1.0762    1.9838    1.4117 H   0  0  0  0  0  0  0  0  0  0  0  0
    2.1441    3.1435    0.6362 H   0  0  0  0  0  0  0  0  0  0  0  0
    6.0054    2.4296    1.6009 H   0  0  0  0  0  0  0  0  0  0  0  0
    4.9620    1.0830    1.9514 H   0  0  0  0  0  0  0  0  0  0  0  0
    6.9676    1.2349    3.4567 H   0  0  0  0  0  0  0  0  0  0  0  0
    5.4978    1.3088    4.4006 H   0  0  0  0  0  0  0  0  0  0  0  0
    5.8508    4.9271    4.7839 H   0  0  0  0  0  0  0  0  0  0  0  0
    4.7786    3.5862    5.1461 H   0  0  0  0  0  0  0  0  0  0  0  0
    5.4826    4.6698    2.3620 H   0  0  0  0  0  0  0  0  0  0  0  0
    3.9933    5.0573    3.1442 H   0  0  0  0  0  0  0  0  0  0  0  0
    3.3308    0.5315    3.2977 H   0  0  0  0  0  0  0  0  0  0  0  0
    1.6399    0.8986    3.4028 H   0  0  0  0  0  0  0  0  0  0  0  0
    3.7716    1.7131    5.3967 H   0  0  0  0  0  0  0  0  0  0  0  0
    2.4202    0.6449    5.6061 H   0  0  0  0  0  0  0  0  0  0  0  0
    2.2046    2.9618    6.6306 H   0  0  0  0  0  0  0  0  0  0  0  0
    0.8481    2.3921    5.6746 H   0  0  0  0  0  0  0  0  0  0  0  0
    2.8678    4.5364    4.9807 H   0  0  0  0  0  0  0  0  0  0  0  0
    1.1408    4.6411    5.0478 H   0  0  0  0  0  0  0  0  0  0  0  0
    1.9355    4.6183    2.6897 H   0  0  0  0  0  0  0  0  0  0  0  0
    0.8023    3.3673    3.0984 H   0  0  0  0  0  0  0  0  0  0  0  0
    1.1243   -1.6572   -1.8056 H   0  0  0  0  0  0  0  0  0  0  0  0
    2.3968   -3.2309   -3.2436 H   0  0  0  0  0  0  0  0  0  0  0  0
    5.1480   -4.0556   -3.7559 H   0  0  0  0  0  0  0  0  0  0  0  0
    8.9160   -1.8738   -2.5789 H   0  0  0  0  0  0  0  0  0  0  0  0
   10.8458   -0.9755   -1.3878 H   0  0  0  0  0  0  0  0  0  0  0  0
   12.0406    1.6482    1.0341 H   0  0  0  0  0  0  0  0  0  0  0  0
   11.7971    0.8803   -0.5265 H   0  0  0  0  0  0  0  0  0  0  0  0
   14.1236    0.5460    0.3788 H   0  0  0  0  0  0  0  0  0  0  0  0
   13.3090   -1.0088    0.1501 H   0  0  0  0  0  0  0  0  0  0  0  0
   12.7128   -1.4278    3.6753 H   0  0  0  0  0  0  0  0  0  0  0  0
   12.4548   -2.1471    2.0792 H   0  0  0  0  0  0  0  0  0  0  0  0
   11.1347    0.4101    3.1854 H   0  0  0  0  0  0  0  0  0  0  0  0
   10.3490   -1.1574    2.9416 H   0  0  0  0  0  0  0  0  0  0  0  0
    8.3994   -0.3430    2.0913 H   0  0  0  0  0  0  0  0  0  0  0  0
    6.5035   -1.3177    0.9473 H   0  0  0  0  0  0  0  0  0  0  0  0
    4.7868   -0.2978    0.0088 H   0  0  0  0  0  0  0  0  0  0  0  0
  1  2  2  0  0  0  0
  2  3  1  0  0  0  0
  2 17  1  0  0  0  0
  3  4  1  0  0  0  0
  3 38  1  0  0  0  0
  4  5  1  0  0  0  0
  4 39  1  0  0  0  0
  4 40  1  0  0  0  0
  5  6  1  0  0  0  0
  5 12  1  0  0  0  0
  5 16  1  0  0  0  0
  6  7  1  0  0  0  0
  6 11  1  0  0  0  0
  7  8  1  0  0  0  0
  7 41  1  0  0  0  0
  7 42  1  0  0  0  0
  8  9  1  0  0  0  0
  8 43  1  0  0  0  0
  8 44  1  0  0  0  0
  9 10  1  0  0  0  0
 10 11  1  0  0  0  0
 10 45  1  0  0  0  0
 10 46  1  0  0  0  0
 11 47  1  0  0  0  0
 11 48  1  0  0  0  0
 12 13  1  0  0  0  0
 12 49  1  0  0  0  0
 12 50  1  0  0  0  0
 13 14  1  0  0  0  0
 13 51  1  0  0  0  0
 13 52  1  0  0  0  0
 14 15  1  0  0  0  0
 14 53  1  0  0  0  0
 14 54  1  0  0  0  0
 15 16  1  0  0  0  0
 15 55  1  0  0  0  0
 15 56  1  0  0  0  0
 16 57  1  0  0  0  0
 16 58  1  0  0  0  0
 17 18  1  0  0  0  0
 17 37  2  0  0  0  0
 18 19  2  0  0  0  0
 18 59  1  0  0  0  0
 19 20  1  0  0  0  0
 19 60  1  0  0  0  0
 20 21  1  0  0  0  0
 20 36  2  0  0  0  0
 21 22  1  0  0  0  0
 21 61  1  0  0  0  0
 22 23  2  0  0  0  0
 23 24  1  0  0  0  0
 23 36  1  0  0  0  0
 24 25  1  0  0  0  0
 24 35  2  0  0  0  0
 25 26  2  0  0  0  0
 25 62  1  0  0  0  0
 26 27  1  0  0  0  0
 26 63  1  0  0  0  0
 27 28  1  0  0  0  0
 27 34  2  0  0  0  0
 28 29  1  0  0  0  0
 28 33  1  0  0  0  0
 29 30  1  0  0  0  0
 29 64  1  0  0  0  0
 29 65  1  0  0  0  0
 30 31  1  0  0  0  0
 30 66  1  0  0  0  0
 30 67  1  0  0  0  0
 31 32  1  0  0  0  0
 32 33  1  0  0  0  0
 32 68  1  0  0  0  0
 32 69  1  0  0  0  0
 33 70  1  0  0  0  0
 33 71  1  0  0  0  0
 34 35  1  0  0  0  0
 34 72  1  0  0  0  0
 35 73  1  0  0  0  0
 36 37  1  0  0  0  0
 37 74  1  0  0  0  0
M  END
$$$$
