CHEMBL422758
 OpenBabel04072215383D

 54 57  0  0  0  0  0  0  0  0999 V2000
    3.0784    1.3170   -0.1603 C   0  0  0  0  0  0  0  0  0  0  0  0
    2.6278   -0.0191   -0.3586 O   0  0  0  0  0  0  0  0  0  0  0  0
    3.2592   -1.0886    0.2085 C   0  0  0  0  0  0  0  0  0  0  0  0
    4.3599   -0.9559    1.0488 C   0  0  0  0  0  0  0  0  0  0  0  0
    5.0304   -2.0699    1.5889 C   0  0  0  0  0  0  0  0  0  0  0  0
    6.1304   -1.9581    2.4518 C   0  0  0  0  0  0  0  0  0  0  0  0
    6.5178   -0.6595    2.8983 N   0  0  0  0  0  0  0  0  0  0  0  0
    7.7776   -0.3655    3.4621 C   0  0  0  0  0  0  0  0  0  0  0  0
    8.9737   -0.7795    2.8634 C   0  0  0  0  0  0  0  0  0  0  0  0
    8.9558   -1.3891    1.6667 F   0  0  0  0  0  0  0  0  0  0  0  0
   10.2064   -0.5470    3.4621 C   0  0  0  0  0  0  0  0  0  0  0  0
   10.2554    0.1292    4.6773 C   0  0  0  0  0  0  0  0  0  0  0  0
   11.7698    0.3687    5.4548 Cl  0  0  0  0  0  0  0  0  0  0  0  0
    9.0904    0.6109    5.2683 C   0  0  0  0  0  0  0  0  0  0  0  0
    7.8675    0.3686    4.6498 C   0  0  0  0  0  0  0  0  0  0  0  0
    6.7460    0.8332    5.2224 F   0  0  0  0  0  0  0  0  0  0  0  0
    6.7984   -3.0338    2.9033 N   0  0  0  0  0  0  0  0  0  0  0  0
    6.3441   -4.2223    2.4877 C   0  0  0  0  0  0  0  0  0  0  0  0
    5.2820   -4.4403    1.6994 N   0  0  0  0  0  0  0  0  0  0  0  0
    4.6275   -3.3623    1.2511 C   0  0  0  0  0  0  0  0  0  0  0  0
    3.5155   -3.4964    0.4269 C   0  0  0  0  0  0  0  0  0  0  0  0
    2.7995   -2.3893   -0.0700 C   0  0  0  0  0  0  0  0  0  0  0  0
    1.6954   -2.7562   -0.8136 O   0  0  0  0  0  0  0  0  0  0  0  0
    0.6602   -1.7798   -0.9339 C   0  0  0  0  0  0  0  0  0  0  0  0
   -0.7040   -2.4264   -1.2560 C   0  0  0  0  0  0  0  0  0  0  0  0
   -0.7614   -3.1485   -2.6076 C   0  0  0  0  0  0  0  0  0  0  0  0
   -0.7054   -2.1849   -3.7967 C   0  0  0  0  0  0  0  0  0  0  0  0
   -1.6940   -1.0986   -3.7135 N   0  0  0  0  0  0  0  0  0  0  0  0
   -1.4799   -0.1469   -4.8086 C   0  0  0  0  0  0  0  0  0  0  0  0
   -1.6727   -0.3936   -2.4268 C   0  0  0  0  0  0  0  0  0  0  0  0
   -1.8064   -1.3572   -1.2442 C   0  0  0  0  0  0  0  0  0  0  0  0
    3.3415    1.7423   -1.1318 H   0  0  0  0  0  0  0  0  0  0  0  0
    3.9355    1.4609    0.4979 H   0  0  0  0  0  0  0  0  0  0  0  0
    2.2519    1.8955    0.2594 H   0  0  0  0  0  0  0  0  0  0  0  0
    4.7646    0.0127    1.3022 H   0  0  0  0  0  0  0  0  0  0  0  0
    5.7571   -0.2623    3.4493 H   0  0  0  0  0  0  0  0  0  0  0  0
   11.1067   -0.9034    2.9727 H   0  0  0  0  0  0  0  0  0  0  0  0
    9.1182    1.1566    6.2058 H   0  0  0  0  0  0  0  0  0  0  0  0
    6.8902   -5.0950    2.8287 H   0  0  0  0  0  0  0  0  0  0  0  0
    3.1803   -4.4996    0.1688 H   0  0  0  0  0  0  0  0  0  0  0  0
    0.9445   -1.0776   -1.7223 H   0  0  0  0  0  0  0  0  0  0  0  0
    0.5399   -1.2468    0.0178 H   0  0  0  0  0  0  0  0  0  0  0  0
   -0.9144   -3.1693   -0.4756 H   0  0  0  0  0  0  0  0  0  0  0  0
   -1.7027   -3.7140   -2.6615 H   0  0  0  0  0  0  0  0  0  0  0  0
    0.0440   -3.8867   -2.6897 H   0  0  0  0  0  0  0  0  0  0  0  0
   -0.9039   -2.7659   -4.7068 H   0  0  0  0  0  0  0  0  0  0  0  0
    0.3116   -1.7850   -3.8891 H   0  0  0  0  0  0  0  0  0  0  0  0
   -1.5670   -0.6462   -5.7797 H   0  0  0  0  0  0  0  0  0  0  0  0
   -0.4902    0.3235   -4.7527 H   0  0  0  0  0  0  0  0  0  0  0  0
   -2.2351    0.6464   -4.7899 H   0  0  0  0  0  0  0  0  0  0  0  0
   -2.5118    0.3119   -2.3853 H   0  0  0  0  0  0  0  0  0  0  0  0
   -0.7584    0.2034   -2.3217 H   0  0  0  0  0  0  0  0  0  0  0  0
   -2.7890   -1.8454   -1.2840 H   0  0  0  0  0  0  0  0  0  0  0  0
   -1.7781   -0.7922   -0.3049 H   0  0  0  0  0  0  0  0  0  0  0  0
  1  2  1  0  0  0  0
  1 32  1  0  0  0  0
  1 33  1  0  0  0  0
  1 34  1  0  0  0  0
  2  3  1  0  0  0  0
  3  4  1  0  0  0  0
  3 22  2  0  0  0  0
  4  5  2  0  0  0  0
  4 35  1  0  0  0  0
  5  6  1  0  0  0  0
  5 20  1  0  0  0  0
  6  7  1  0  0  0  0
  6 17  2  0  0  0  0
  7  8  1  0  0  0  0
  7 36  1  0  0  0  0
  8  9  1  0  0  0  0
  8 15  2  0  0  0  0
  9 10  1  0  0  0  0
  9 11  2  0  0  0  0
 11 12  1  0  0  0  0
 11 37  1  0  0  0  0
 12 13  1  0  0  0  0
 12 14  2  0  0  0  0
 14 15  1  0  0  0  0
 14 38  1  0  0  0  0
 15 16  1  0  0  0  0
 17 18  1  0  0  0  0
 18 19  2  0  0  0  0
 18 39  1  0  0  0  0
 19 20  1  0  0  0  0
 20 21  2  0  0  0  0
 21 22  1  0  0  0  0
 21 40  1  0  0  0  0
 22 23  1  0  0  0  0
 23 24  1  0  0  0  0
 24 25  1  0  0  0  0
 24 41  1  0  0  0  0
 24 42  1  0  0  0  0
 25 26  1  0  0  0  0
 25 31  1  0  0  0  0
 25 43  1  0  0  0  0
 26 27  1  0  0  0  0
 26 44  1  0  0  0  0
 26 45  1  0  0  0  0
 27 28  1  0  0  0  0
 27 46  1  0  0  0  0
 27 47  1  0  0  0  0
 28 29  1  0  0  0  0
 28 30  1  0  0  0  0
 29 48  1  0  0  0  0
 29 49  1  0  0  0  0
 29 50  1  0  0  0  0
 30 31  1  0  0  0  0
 30 51  1  0  0  0  0
 30 52  1  0  0  0  0
 31 53  1  0  0  0  0
 31 54  1  0  0  0  0
M  END
$$$$
