CHEMBL571040
 OpenBabel04072215383D

 61 64  0  0  1  0  0  0  0  0999 V2000
    8.9711    4.8430   -0.7778 C   0  0  0  0  0  0  0  0  0  0  0  0
    8.4160    3.7025   -0.3515 C   0  0  0  0  0  0  0  0  0  0  0  0
    7.0063    3.6929    0.1167 C   0  0  0  0  0  0  0  0  0  0  0  0
    6.5730    4.6016    0.8129 O   0  0  0  0  0  0  0  0  0  0  0  0
    6.2353    2.6544   -0.3500 N   0  0  0  0  0  0  0  0  0  0  0  0
    4.8707    2.4721    0.1023 C   0  0  0  0  0  0  0  0  0  0  0  0
    4.6680    0.9707    0.0286 C   0  0  0  0  0  0  0  0  0  0  0  0
    5.5521    0.5105   -1.1295 C   0  0  0  0  0  0  0  0  0  0  0  0
    6.5829    1.6315   -1.3464 C   0  0  1  0  0  0  0  0  0  0  0  0
    6.4915    2.1134   -2.8192 C   0  0  0  0  0  0  0  0  0  0  0  0
    6.6939    1.3377   -3.7508 O   0  0  0  0  0  0  0  0  0  0  0  0
    6.1692    3.4549   -2.9789 N   0  0  0  0  0  0  0  0  0  0  0  0
    6.1920    4.0294   -4.2648 C   0  0  0  0  0  0  0  0  0  0  0  0
    7.4264    4.4153   -4.7932 C   0  0  0  0  0  0  0  0  0  0  0  0
    7.5215    4.8559   -6.1323 C   0  0  0  0  0  0  0  0  0  0  0  0
    8.7146    5.1707   -6.8013 C   0  0  0  0  0  0  0  0  0  0  0  0
    9.9683    5.0452   -6.1416 N   0  0  0  0  0  0  0  0  0  0  0  0
   11.1942    4.9232   -6.8474 C   0  0  0  0  0  0  0  0  0  0  0  0
   11.2896    4.0731   -7.9616 C   0  0  0  0  0  0  0  0  0  0  0  0
   12.4564    4.0109   -8.7247 C   0  0  0  0  0  0  0  0  0  0  0  0
   13.5612    4.7776   -8.3628 C   0  0  0  0  0  0  0  0  0  0  0  0
   13.5036    5.5782   -7.2211 C   0  0  0  0  0  0  0  0  0  0  0  0
   14.8886    6.5013   -6.7757 Cl  0  0  0  0  0  0  0  0  0  0  0  0
   12.3315    5.6413   -6.4626 C   0  0  0  0  0  0  0  0  0  0  0  0
   12.2688    6.4203   -5.3685 F   0  0  0  0  0  0  0  0  0  0  0  0
    8.7272    5.5618   -8.0907 N   0  0  0  0  0  0  0  0  0  0  0  0
    7.5544    5.6125   -8.7243 C   0  0  0  0  0  0  0  0  0  0  0  0
    6.3683    5.3138   -8.1966 N   0  0  0  0  0  0  0  0  0  0  0  0
    6.3600    4.9344   -6.9180 C   0  0  0  0  0  0  0  0  0  0  0  0
    5.1406    4.5964   -6.3530 C   0  0  0  0  0  0  0  0  0  0  0  0
    5.0262    4.1779   -5.0268 C   0  0  0  0  0  0  0  0  0  0  0  0
    3.7305    3.9720   -4.6204 O   0  0  0  0  0  0  0  0  0  0  0  0
    3.4705    4.2679   -3.2499 C   0  0  0  0  0  0  0  0  0  0  0  0
    2.0537    4.7929   -3.0463 C   0  0  0  0  0  0  0  0  0  0  0  0
    1.8906    5.0223   -1.6441 O   0  0  0  0  0  0  0  0  0  0  0  0
    0.6516    5.6366   -1.3297 C   0  0  0  0  0  0  0  0  0  0  0  0
   10.0043    4.8650   -1.1089 H   0  0  0  0  0  0  0  0  0  0  0  0
    8.4183    5.7791   -0.7863 H   0  0  0  0  0  0  0  0  0  0  0  0
    8.9755    2.7778   -0.3199 H   0  0  0  0  0  0  0  0  0  0  0  0
    4.2103    2.9927   -0.5969 H   0  0  0  0  0  0  0  0  0  0  0  0
    4.7053    2.8760    1.1043 H   0  0  0  0  0  0  0  0  0  0  0  0
    3.6195    0.6930   -0.1109 H   0  0  0  0  0  0  0  0  0  0  0  0
    5.0172    0.5041    0.9575 H   0  0  0  0  0  0  0  0  0  0  0  0
    4.9429    0.3247   -2.0216 H   0  0  0  0  0  0  0  0  0  0  0  0
    6.0485   -0.4330   -0.8788 H   0  0  0  0  0  0  0  0  0  0  0  0
    7.6012    1.2696   -1.1761 H   0  0  0  0  0  0  0  0  0  0  0  0
    6.5233    4.0426   -2.2350 H   0  0  0  0  0  0  0  0  0  0  0  0
    8.3246    4.3111   -4.1890 H   0  0  0  0  0  0  0  0  0  0  0  0
   10.0340    5.7166   -5.3803 H   0  0  0  0  0  0  0  0  0  0  0  0
   10.4332    3.4723   -8.2596 H   0  0  0  0  0  0  0  0  0  0  0  0
   12.4881    3.3766   -9.6074 H   0  0  0  0  0  0  0  0  0  0  0  0
   14.4591    4.7451   -8.9741 H   0  0  0  0  0  0  0  0  0  0  0  0
    7.5746    5.9099   -9.7664 H   0  0  0  0  0  0  0  0  0  0  0  0
    4.2449    4.6627   -6.9670 H   0  0  0  0  0  0  0  0  0  0  0  0
    4.1538    5.0290   -2.8518 H   0  0  0  0  0  0  0  0  0  0  0  0
    3.5850    3.3472   -2.6714 H   0  0  0  0  0  0  0  0  0  0  0  0
    1.3164    4.0614   -3.3952 H   0  0  0  0  0  0  0  0  0  0  0  0
    1.9085    5.7221   -3.6102 H   0  0  0  0  0  0  0  0  0  0  0  0
    0.5579    5.6663   -0.2398 H   0  0  0  0  0  0  0  0  0  0  0  0
   -0.1829    5.0606   -1.7373 H   0  0  0  0  0  0  0  0  0  0  0  0
    0.6287    6.6626   -1.7077 H   0  0  0  0  0  0  0  0  0  0  0  0
  1  2  2  0  0  0  0
  1 37  1  0  0  0  0
  1 38  1  0  0  0  0
  2  3  1  0  0  0  0
  2 39  1  0  0  0  0
  3  4  2  0  0  0  0
  3  5  1  0  0  0  0
  5  6  1  0  0  0  0
  5  9  1  0  0  0  0
  6  7  1  0  0  0  0
  6 40  1  0  0  0  0
  6 41  1  0  0  0  0
  7  8  1  0  0  0  0
  7 42  1  0  0  0  0
  7 43  1  0  0  0  0
  8  9  1  0  0  0  0
  8 44  1  0  0  0  0
  8 45  1  0  0  0  0
  9 10  1  0  0  0  0
  9 46  1  1  0  0  0
 10 11  2  0  0  0  0
 10 12  1  0  0  0  0
 12 13  1  0  0  0  0
 12 47  1  0  0  0  0
 13 14  1  0  0  0  0
 13 31  2  0  0  0  0
 14 15  2  0  0  0  0
 14 48  1  0  0  0  0
 15 16  1  0  0  0  0
 15 29  1  0  0  0  0
 16 17  1  0  0  0  0
 16 26  2  0  0  0  0
 17 18  1  0  0  0  0
 17 49  1  0  0  0  0
 18 19  1  0  0  0  0
 18 24  2  0  0  0  0
 19 20  2  0  0  0  0
 19 50  1  0  0  0  0
 20 21  1  0  0  0  0
 20 51  1  0  0  0  0
 21 22  2  0  0  0  0
 21 52  1  0  0  0  0
 22 23  1  0  0  0  0
 22 24  1  0  0  0  0
 24 25  1  0  0  0  0
 26 27  1  0  0  0  0
 27 28  2  0  0  0  0
 27 53  1  0  0  0  0
 28 29  1  0  0  0  0
 29 30  2  0  0  0  0
 30 31  1  0  0  0  0
 30 54  1  0  0  0  0
 31 32  1  0  0  0  0
 32 33  1  0  0  0  0
 33 34  1  0  0  0  0
 33 55  1  0  0  0  0
 33 56  1  0  0  0  0
 34 35  1  0  0  0  0
 34 57  1  0  0  0  0
 34 58  1  0  0  0  0
 35 36  1  0  0  0  0
 36 59  1  0  0  0  0
 36 60  1  0  0  0  0
 36 61  1  0  0  0  0
M  END
$$$$
