CHEMBL2348990
 OpenBabel04072215363D

 53 57  0  0  0  0  0  0  0  0999 V2000
   -2.2029    0.7309    0.0668 C   0  0  0  0  0  0  0  0  0  0  0  0
   -1.9192   -0.6833   -0.2761 C   0  0  0  0  0  0  0  0  0  0  0  0
   -0.7376   -1.4384   -0.0897 C   0  0  0  0  0  0  0  0  0  0  0  0
   -1.0290   -2.7229   -0.5315 C   0  0  0  0  0  0  0  0  0  0  0  0
   -0.2434   -3.9397   -0.5546 C   0  0  0  0  0  0  0  0  0  0  0  0
   -0.6966   -4.9791   -1.0252 O   0  0  0  0  0  0  0  0  0  0  0  0
    1.0230   -3.8874    0.0077 N   0  0  0  0  0  0  0  0  0  0  0  0
    1.9828   -4.9434   -0.0183 C   0  0  0  0  0  0  0  0  0  0  0  0
    1.8782   -6.0372   -0.8912 C   0  0  0  0  0  0  0  0  0  0  0  0
    2.8389   -7.0512   -0.8939 C   0  0  0  0  0  0  0  0  0  0  0  0
    2.6173   -8.1089   -1.8094 O   0  0  0  0  0  0  0  0  0  0  0  0
    2.9750   -9.4237   -1.5358 C   0  0  0  0  0  0  0  0  0  0  0  0
    2.5737  -10.2722   -2.6827 C   0  0  0  0  0  0  0  0  0  0  0  0
    2.8627  -11.5792   -2.5864 C   0  0  0  0  0  0  0  0  0  0  0  0
    3.5253  -12.0545   -1.4305 C   0  0  0  0  0  0  0  0  0  0  0  0
    3.9340  -13.2562   -1.0922 N   0  0  0  0  0  0  0  0  0  0  0  0
    4.5224  -13.1115    0.1314 C   0  0  0  0  0  0  0  0  0  0  0  0
    5.0734  -14.1403    0.8531 N   0  0  0  0  0  0  0  0  0  0  0  0
    5.0844  -15.4522    0.4381 C   0  0  0  0  0  0  0  0  0  0  0  0
    4.6587  -15.9141   -0.6105 O   0  0  0  0  0  0  0  0  0  0  0  0
    5.6690  -16.3762    1.4613 C   0  0  0  0  0  0  0  0  0  0  0  0
    5.8861  -17.8387    1.1439 C   0  0  0  0  0  0  0  0  0  0  0  0
    4.7832  -17.4333    2.0780 C   0  0  0  0  0  0  0  0  0  0  0  0
    4.4813  -11.8025    0.5479 C   0  0  0  0  0  0  0  0  0  0  0  0
    3.8266  -11.1321   -0.4470 N   0  0  0  0  0  0  0  0  0  0  0  0
    3.5602   -9.8035   -0.4478 N   0  0  0  0  0  0  0  0  0  0  0  0
    3.9574   -6.9660   -0.0734 C   0  0  0  0  0  0  0  0  0  0  0  0
    4.0754   -5.8925    0.8096 C   0  0  0  0  0  0  0  0  0  0  0  0
    3.0969   -4.8906    0.8384 C   0  0  0  0  0  0  0  0  0  0  0  0
    3.2890   -3.6027    1.9778 Cl  0  0  0  0  0  0  0  0  0  0  0  0
   -2.3229   -2.6324   -1.0084 N   0  0  0  0  0  0  0  0  0  0  0  0
   -3.1597   -3.6300   -1.6369 C   0  0  0  0  0  0  0  0  0  0  0  0
   -2.8785   -1.4177   -0.8355 N   0  0  0  0  0  0  0  0  0  0  0  0
   -1.3281    1.2234    0.4997 H   0  0  0  0  0  0  0  0  0  0  0  0
   -3.0203    0.7863    0.7946 H   0  0  0  0  0  0  0  0  0  0  0  0
   -2.5061    1.2902   -0.8249 H   0  0  0  0  0  0  0  0  0  0  0  0
    0.1905   -1.0791    0.3306 H   0  0  0  0  0  0  0  0  0  0  0  0
    1.2586   -3.0870    0.5807 H   0  0  0  0  0  0  0  0  0  0  0  0
    1.0632   -6.1297   -1.6014 H   0  0  0  0  0  0  0  0  0  0  0  0
    2.0688   -9.8376   -3.5344 H   0  0  0  0  0  0  0  0  0  0  0  0
    2.6086  -12.2851   -3.3658 H   0  0  0  0  0  0  0  0  0  0  0  0
    5.4564  -13.9073    1.7571 H   0  0  0  0  0  0  0  0  0  0  0  0
    6.4180  -15.9292    2.1091 H   0  0  0  0  0  0  0  0  0  0  0  0
    6.7556  -18.3300    1.5629 H   0  0  0  0  0  0  0  0  0  0  0  0
    5.6095  -18.1968    0.1564 H   0  0  0  0  0  0  0  0  0  0  0  0
    4.9012  -17.6511    3.1320 H   0  0  0  0  0  0  0  0  0  0  0  0
    3.7637  -17.5237    1.7145 H   0  0  0  0  0  0  0  0  0  0  0  0
    4.8370  -11.2886    1.4270 H   0  0  0  0  0  0  0  0  0  0  0  0
    4.7377   -7.7197   -0.0997 H   0  0  0  0  0  0  0  0  0  0  0  0
    4.9331   -5.8513    1.4766 H   0  0  0  0  0  0  0  0  0  0  0  0
   -2.6214   -4.5397   -1.8822 H   0  0  0  0  0  0  0  0  0  0  0  0
   -3.5476   -3.2092   -2.5687 H   0  0  0  0  0  0  0  0  0  0  0  0
   -3.9803   -3.8618   -0.9536 H   0  0  0  0  0  0  0  0  0  0  0  0
  1  2  1  0  0  0  0
  1 34  1  0  0  0  0
  1 35  1  0  0  0  0
  1 36  1  0  0  0  0
  2  3  1  0  0  0  0
  2 33  2  0  0  0  0
  3  4  2  0  0  0  0
  3 37  1  0  0  0  0
  4  5  1  0  0  0  0
  4 31  1  0  0  0  0
  5  6  2  0  0  0  0
  5  7  1  0  0  0  0
  7  8  1  0  0  0  0
  7 38  1  0  0  0  0
  8  9  1  0  0  0  0
  8 29  2  0  0  0  0
  9 10  2  0  0  0  0
  9 39  1  0  0  0  0
 10 11  1  0  0  0  0
 10 27  1  0  0  0  0
 11 12  1  0  0  0  0
 12 13  1  0  0  0  0
 12 26  2  0  0  0  0
 13 14  2  0  0  0  0
 13 40  1  0  0  0  0
 14 15  1  0  0  0  0
 14 41  1  0  0  0  0
 15 16  2  0  0  0  0
 15 25  1  0  0  0  0
 16 17  1  0  0  0  0
 17 18  1  0  0  0  0
 17 24  2  0  0  0  0
 18 19  1  0  0  0  0
 18 42  1  0  0  0  0
 19 20  2  0  0  0  0
 19 21  1  0  0  0  0
 21 22  1  0  0  0  0
 21 23  1  0  0  0  0
 21 43  1  0  0  0  0
 22 23  1  0  0  0  0
 22 44  1  0  0  0  0
 22 45  1  0  0  0  0
 23 46  1  0  0  0  0
 23 47  1  0  0  0  0
 24 25  1  0  0  0  0
 24 48  1  0  0  0  0
 25 26  1  0  0  0  0
 27 28  2  0  0  0  0
 27 49  1  0  0  0  0
 28 29  1  0  0  0  0
 28 50  1  0  0  0  0
 29 30  1  0  0  0  0
 31 32  1  0  0  0  0
 31 33  1  0  0  0  0
 32 51  1  0  0  0  0
 32 52  1  0  0  0  0
 32 53  1  0  0  0  0
M  END
$$$$
