CHEMBL3633271
 OpenBabel04072215373D

 61 63  0  0  0  0  0  0  0  0999 V2000
    1.2026    0.6320    0.6662 C   0  0  0  0  0  0  0  0  0  0  0  0
    2.3973    0.1698    0.0272 O   0  0  0  0  0  0  0  0  0  0  0  0
    3.0876    1.1212   -0.6905 C   0  0  0  0  0  0  0  0  0  0  0  0
    2.7880    2.4967   -0.6366 C   0  0  0  0  0  0  0  0  0  0  0  0
    3.4922    3.4196   -1.4053 C   0  0  0  0  0  0  0  0  0  0  0  0
    4.5179    2.9837   -2.2378 C   0  0  0  0  0  0  0  0  0  0  0  0
    5.1447    3.9578   -3.1665 C   0  0  0  0  0  0  0  0  0  0  0  0
    4.7377    5.0932   -3.3401 O   0  0  0  0  0  0  0  0  0  0  0  0
    6.1003    3.3294   -3.8875 O   0  0  0  0  0  0  0  0  0  0  0  0
    6.0598    3.5881   -5.2988 C   0  0  0  0  0  0  0  0  0  0  0  0
    5.0957    2.5594   -5.9248 C   0  0  0  0  0  0  0  0  0  0  0  0
    4.9361    2.6430   -7.3858 N   0  0  0  0  0  0  0  0  0  0  0  0
    6.1942    2.3770   -8.0834 C   0  0  0  0  0  0  0  0  0  0  0  0
    3.9156    1.6854   -7.8246 C   0  0  0  0  0  0  0  0  0  0  0  0
    4.8344    1.6187   -2.2795 C   0  0  0  0  0  0  0  0  0  0  0  0
    4.1485    0.6719   -1.5050 C   0  0  0  0  0  0  0  0  0  0  0  0
    4.4794   -0.7175   -1.5953 N   0  0  0  0  0  0  0  0  0  0  0  0
    5.7034   -1.1947   -2.0541 C   0  0  0  0  0  0  0  0  0  0  0  0
    6.6878   -0.4852   -2.2436 O   0  0  0  0  0  0  0  0  0  0  0  0
    5.7002   -2.5600   -2.3351 N   0  0  0  0  0  0  0  0  0  0  0  0
    6.8911   -3.1971   -2.7976 C   0  0  0  0  0  0  0  0  0  0  0  0
    8.1331   -2.9083   -2.2056 C   0  0  0  0  0  0  0  0  0  0  0  0
    9.3509   -3.4239   -2.6916 C   0  0  0  0  0  0  0  0  0  0  0  0
   10.6445   -3.1032   -2.0369 C   0  0  0  0  0  0  0  0  0  0  0  0
   10.8496   -1.9166   -1.3147 C   0  0  0  0  0  0  0  0  0  0  0  0
   12.0603   -1.6683   -0.6658 C   0  0  0  0  0  0  0  0  0  0  0  0
   13.0654   -2.6106   -0.7670 C   0  0  0  0  0  0  0  0  0  0  0  0
   12.9383   -3.7573   -1.4610 N   0  0  0  0  0  0  0  0  0  0  0  0
   11.7419   -3.9718   -2.0678 C   0  0  0  0  0  0  0  0  0  0  0  0
    9.2749   -4.2576   -3.8181 C   0  0  0  0  0  0  0  0  0  0  0  0
    8.0429   -4.6160   -4.3992 C   0  0  0  0  0  0  0  0  0  0  0  0
    8.0148   -5.5307   -5.6059 C   0  0  0  0  0  0  0  0  0  0  0  0
    9.2507   -5.9517   -6.0013 F   0  0  0  0  0  0  0  0  0  0  0  0
    7.2898   -6.6581   -5.3819 F   0  0  0  0  0  0  0  0  0  0  0  0
    7.4567   -4.9340   -6.6953 F   0  0  0  0  0  0  0  0  0  0  0  0
    6.8457   -4.0968   -3.8625 C   0  0  0  0  0  0  0  0  0  0  0  0
    0.7162   -0.2200    1.1473 H   0  0  0  0  0  0  0  0  0  0  0  0
    0.5004    1.0431   -0.0672 H   0  0  0  0  0  0  0  0  0  0  0  0
    1.4235    1.3666    1.4506 H   0  0  0  0  0  0  0  0  0  0  0  0
    1.9974    2.8947   -0.0069 H   0  0  0  0  0  0  0  0  0  0  0  0
    3.2192    4.4748   -1.3760 H   0  0  0  0  0  0  0  0  0  0  0  0
    7.0809    3.4501   -5.6650 H   0  0  0  0  0  0  0  0  0  0  0  0
    5.7544    4.6165   -5.5185 H   0  0  0  0  0  0  0  0  0  0  0  0
    4.1117    2.7002   -5.4570 H   0  0  0  0  0  0  0  0  0  0  0  0
    5.4124    1.5493   -5.6265 H   0  0  0  0  0  0  0  0  0  0  0  0
    6.9390    3.1466   -7.8580 H   0  0  0  0  0  0  0  0  0  0  0  0
    6.0453    2.4104   -9.1681 H   0  0  0  0  0  0  0  0  0  0  0  0
    6.6127    1.3982   -7.8218 H   0  0  0  0  0  0  0  0  0  0  0  0
    2.9552    1.8889   -7.3364 H   0  0  0  0  0  0  0  0  0  0  0  0
    4.1992    0.6490   -7.6028 H   0  0  0  0  0  0  0  0  0  0  0  0
    3.7428    1.7727   -8.9022 H   0  0  0  0  0  0  0  0  0  0  0  0
    5.6023    1.2930   -2.9726 H   0  0  0  0  0  0  0  0  0  0  0  0
    3.9078   -1.3383   -1.0354 H   0  0  0  0  0  0  0  0  0  0  0  0
    4.8224   -2.9135   -2.6904 H   0  0  0  0  0  0  0  0  0  0  0  0
    8.1408   -2.2624   -1.3294 H   0  0  0  0  0  0  0  0  0  0  0  0
   10.0699   -1.1607   -1.2477 H   0  0  0  0  0  0  0  0  0  0  0  0
   12.2090   -0.7581   -0.0956 H   0  0  0  0  0  0  0  0  0  0  0  0
   14.0246   -2.4638   -0.2796 H   0  0  0  0  0  0  0  0  0  0  0  0
   11.6986   -4.9238   -2.5903 H   0  0  0  0  0  0  0  0  0  0  0  0
   10.1911   -4.6371   -4.2738 H   0  0  0  0  0  0  0  0  0  0  0  0
    5.8987   -4.3544   -4.3307 H   0  0  0  0  0  0  0  0  0  0  0  0
  1  2  1  0  0  0  0
  1 37  1  0  0  0  0
  1 38  1  0  0  0  0
  1 39  1  0  0  0  0
  2  3  1  0  0  0  0
  3  4  1  0  0  0  0
  3 16  2  0  0  0  0
  4  5  2  0  0  0  0
  4 40  1  0  0  0  0
  5  6  1  0  0  0  0
  5 41  1  0  0  0  0
  6  7  1  0  0  0  0
  6 15  2  0  0  0  0
  7  8  2  0  0  0  0
  7  9  1  0  0  0  0
  9 10  1  0  0  0  0
 10 11  1  0  0  0  0
 10 42  1  0  0  0  0
 10 43  1  0  0  0  0
 11 12  1  0  0  0  0
 11 44  1  0  0  0  0
 11 45  1  0  0  0  0
 12 13  1  0  0  0  0
 12 14  1  0  0  0  0
 13 46  1  0  0  0  0
 13 47  1  0  0  0  0
 13 48  1  0  0  0  0
 14 49  1  0  0  0  0
 14 50  1  0  0  0  0
 14 51  1  0  0  0  0
 15 16  1  0  0  0  0
 15 52  1  0  0  0  0
 16 17  1  0  0  0  0
 17 18  1  0  0  0  0
 17 53  1  0  0  0  0
 18 19  2  0  0  0  0
 18 20  1  0  0  0  0
 20 21  1  0  0  0  0
 20 54  1  0  0  0  0
 21 22  1  0  0  0  0
 21 36  2  0  0  0  0
 22 23  2  0  0  0  0
 22 55  1  0  0  0  0
 23 24  1  0  0  0  0
 23 30  1  0  0  0  0
 24 25  1  0  0  0  0
 24 29  2  0  0  0  0
 25 26  2  0  0  0  0
 25 56  1  0  0  0  0
 26 27  1  0  0  0  0
 26 57  1  0  0  0  0
 27 28  2  0  0  0  0
 27 58  1  0  0  0  0
 28 29  1  0  0  0  0
 29 59  1  0  0  0  0
 30 31  2  0  0  0  0
 30 60  1  0  0  0  0
 31 32  1  0  0  0  0
 31 36  1  0  0  0  0
 32 33  1  0  0  0  0
 32 34  1  0  0  0  0
 32 35  1  0  0  0  0
 36 61  1  0  0  0  0
M  END
$$$$
