CHEMBL222817
 OpenBabel04072215363D

 57 60  0  0  0  0  0  0  0  0999 V2000
    6.1540    8.2295   -1.2526 C   0  0  0  0  0  0  0  0  0  0  0  0
    7.1294    7.3637   -0.6922 O   0  0  0  0  0  0  0  0  0  0  0  0
    6.5403    6.3637    0.1394 C   0  0  0  0  0  0  0  0  0  0  0  0
    7.6551    5.5109    0.7276 C   0  0  0  0  0  0  0  0  0  0  0  0
    7.1156    4.5088    1.5961 O   0  0  0  0  0  0  0  0  0  0  0  0
    8.1627    3.6716    2.0176 N   0  0  0  0  0  0  0  0  0  0  0  0
    9.3381    4.2024    2.3252 N   0  0  0  0  0  0  0  0  0  0  0  0
   10.1071    3.1456    2.5460 C   0  0  0  0  0  0  0  0  0  0  0  0
   11.4180    3.3232    2.7516 N   0  0  0  0  0  0  0  0  0  0  0  0
    9.3766    1.9084    2.5288 C   0  0  0  0  0  0  0  0  0  0  0  0
    9.6219    0.5150    2.7534 C   0  0  0  0  0  0  0  0  0  0  0  0
   10.9579    0.0027    3.1226 C   0  0  0  0  0  0  0  0  0  0  0  0
   11.7599    0.6720    4.0485 C   0  0  0  0  0  0  0  0  0  0  0  0
   13.0775    0.2829    4.2887 C   0  0  0  0  0  0  0  0  0  0  0  0
   13.6076   -0.8722    3.7133 C   0  0  0  0  0  0  0  0  0  0  0  0
   14.9359   -1.2967    3.9531 N   0  0  0  0  0  0  0  0  0  0  0  0
   15.7007   -0.8507    5.0130 C   0  0  0  0  0  0  0  0  0  0  0  0
   15.2653   -0.1770    5.9427 O   0  0  0  0  0  0  0  0  0  0  0  0
   17.0364   -1.2151    4.9042 N   0  0  0  0  0  0  0  0  0  0  0  0
   17.9305   -0.7254    5.8960 C   0  0  0  0  0  0  0  0  0  0  0  0
   17.6144   -0.8186    7.2577 C   0  0  0  0  0  0  0  0  0  0  0  0
   18.3617   -0.1249    8.2153 C   0  0  0  0  0  0  0  0  0  0  0  0
   17.9302   -0.1217    9.6526 C   0  0  0  0  0  0  0  0  0  0  0  0
   19.4586    0.6392    7.7970 C   0  0  0  0  0  0  0  0  0  0  0  0
   19.8211    0.6782    6.4466 C   0  0  0  0  0  0  0  0  0  0  0  0
   19.0658   -0.0174    5.5071 C   0  0  0  0  0  0  0  0  0  0  0  0
   19.3761    0.0850    4.2053 F   0  0  0  0  0  0  0  0  0  0  0  0
   12.7949   -1.6135    2.8583 C   0  0  0  0  0  0  0  0  0  0  0  0
   11.4910   -1.1748    2.5620 C   0  0  0  0  0  0  0  0  0  0  0  0
    8.5251   -0.3674    2.6107 C   0  0  0  0  0  0  0  0  0  0  0  0
    7.2523    0.0753    2.2468 C   0  0  0  0  0  0  0  0  0  0  0  0
    7.0108    1.4261    2.0106 C   0  0  0  0  0  0  0  0  0  0  0  0
    8.0812    2.3123    2.1702 C   0  0  0  0  0  0  0  0  0  0  0  0
    6.6702    8.9841   -1.8526 H   0  0  0  0  0  0  0  0  0  0  0  0
    5.5912    8.7364   -0.4633 H   0  0  0  0  0  0  0  0  0  0  0  0
    5.4773    7.6680   -1.9026 H   0  0  0  0  0  0  0  0  0  0  0  0
    5.8575    5.7399   -0.4481 H   0  0  0  0  0  0  0  0  0  0  0  0
    5.9654    6.8336    0.9457 H   0  0  0  0  0  0  0  0  0  0  0  0
    8.3269    6.1773    1.2846 H   0  0  0  0  0  0  0  0  0  0  0  0
    8.2275    5.0495   -0.0871 H   0  0  0  0  0  0  0  0  0  0  0  0
   11.7725    4.2616    2.6024 H   0  0  0  0  0  0  0  0  0  0  0  0
   12.0802    2.5963    2.5022 H   0  0  0  0  0  0  0  0  0  0  0  0
   11.3891    1.5499    4.5761 H   0  0  0  0  0  0  0  0  0  0  0  0
   13.6660    0.9326    4.9298 H   0  0  0  0  0  0  0  0  0  0  0  0
   15.2633   -2.1261    3.4787 H   0  0  0  0  0  0  0  0  0  0  0  0
   17.3942   -1.1771    3.9572 H   0  0  0  0  0  0  0  0  0  0  0  0
   16.7352   -1.3813    7.5677 H   0  0  0  0  0  0  0  0  0  0  0  0
   17.1355   -0.8560    9.8340 H   0  0  0  0  0  0  0  0  0  0  0  0
   17.5419    0.8663    9.9233 H   0  0  0  0  0  0  0  0  0  0  0  0
   18.7706   -0.3732   10.3044 H   0  0  0  0  0  0  0  0  0  0  0  0
   20.0194    1.2278    8.5197 H   0  0  0  0  0  0  0  0  0  0  0  0
   20.6569    1.2877    6.1187 H   0  0  0  0  0  0  0  0  0  0  0  0
   13.1513   -2.5368    2.4107 H   0  0  0  0  0  0  0  0  0  0  0  0
   10.8954   -1.7689    1.8718 H   0  0  0  0  0  0  0  0  0  0  0  0
    8.6596   -1.4309    2.8028 H   0  0  0  0  0  0  0  0  0  0  0  0
    6.4418   -0.6410    2.1510 H   0  0  0  0  0  0  0  0  0  0  0  0
    6.0224    1.7792    1.7278 H   0  0  0  0  0  0  0  0  0  0  0  0
  1  2  1  0  0  0  0
  1 34  1  0  0  0  0
  1 35  1  0  0  0  0
  1 36  1  0  0  0  0
  2  3  1  0  0  0  0
  3  4  1  0  0  0  0
  3 37  1  0  0  0  0
  3 38  1  0  0  0  0
  4  5  1  0  0  0  0
  4 39  1  0  0  0  0
  4 40  1  0  0  0  0
  5  6  1  0  0  0  0
  6  7  1  0  0  0  0
  6 33  1  0  0  0  0
  7  8  2  0  0  0  0
  8  9  1  0  0  0  0
  8 10  1  0  0  0  0
  9 41  1  0  0  0  0
  9 42  1  0  0  0  0
 10 11  1  0  0  0  0
 10 33  2  0  0  0  0
 11 12  1  0  0  0  0
 11 30  2  0  0  0  0
 12 13  1  0  0  0  0
 12 29  2  0  0  0  0
 13 14  2  0  0  0  0
 13 43  1  0  0  0  0
 14 15  1  0  0  0  0
 14 44  1  0  0  0  0
 15 16  1  0  0  0  0
 15 28  2  0  0  0  0
 16 17  1  0  0  0  0
 16 45  1  0  0  0  0
 17 18  2  0  0  0  0
 17 19  1  0  0  0  0
 19 20  1  0  0  0  0
 19 46  1  0  0  0  0
 20 21  1  0  0  0  0
 20 26  2  0  0  0  0
 21 22  2  0  0  0  0
 21 47  1  0  0  0  0
 22 23  1  0  0  0  0
 22 24  1  0  0  0  0
 23 48  1  0  0  0  0
 23 49  1  0  0  0  0
 23 50  1  0  0  0  0
 24 25  2  0  0  0  0
 24 51  1  0  0  0  0
 25 26  1  0  0  0  0
 25 52  1  0  0  0  0
 26 27  1  0  0  0  0
 28 29  1  0  0  0  0
 28 53  1  0  0  0  0
 29 54  1  0  0  0  0
 30 31  1  0  0  0  0
 30 55  1  0  0  0  0
 31 32  2  0  0  0  0
 31 56  1  0  0  0  0
 32 33  1  0  0  0  0
 32 57  1  0  0  0  0
M  END
$$$$
