CHEMBL3639892
 OpenBabel04072215373D

 45 48  0  0  0  0  0  0  0  0999 V2000
    2.4015    0.0940    1.4797 O   0  0  0  0  0  0  0  0  0  0  0  0
    2.1263   -0.4363    0.4135 C   0  0  0  0  0  0  0  0  0  0  0  0
    0.8284   -0.4777   -0.0519 N   0  0  0  0  0  0  0  0  0  0  0  0
   -0.2452    0.0306    0.8090 C   0  0  0  0  0  0  0  0  0  0  0  0
   -0.7506   -0.9492    1.8771 C   0  0  0  0  0  0  0  0  0  0  0  0
   -0.1643   -2.1641    1.7647 F   0  0  0  0  0  0  0  0  0  0  0  0
   -0.5483   -0.4968    3.1308 F   0  0  0  0  0  0  0  0  0  0  0  0
   -2.0846   -1.1465    1.7269 F   0  0  0  0  0  0  0  0  0  0  0  0
    2.9968   -1.0224   -0.4746 N   0  0  0  0  0  0  0  0  0  0  0  0
    4.3969   -1.1634   -0.3412 C   0  0  0  0  0  0  0  0  0  0  0  0
    5.1245   -0.6913    0.7496 C   0  0  0  0  0  0  0  0  0  0  0  0
    6.5056   -0.8796    0.8103 C   0  0  0  0  0  0  0  0  0  0  0  0
    7.1631   -1.5884   -0.1945 C   0  0  0  0  0  0  0  0  0  0  0  0
    6.4523   -2.1083   -1.2834 C   0  0  0  0  0  0  0  0  0  0  0  0
    7.1569   -2.9136   -2.2891 C   0  0  0  0  0  0  0  0  0  0  0  0
    8.4598   -2.7916   -2.7518 C   0  0  0  0  0  0  0  0  0  0  0  0
    8.7803   -3.7541   -3.6677 N   0  0  0  0  0  0  0  0  0  0  0  0
    7.6974   -4.4873   -3.7813 C   0  0  0  0  0  0  0  0  0  0  0  0
    7.4486   -5.6273   -4.5971 C   0  0  0  0  0  0  0  0  0  0  0  0
    6.2595   -6.2750   -4.5536 C   0  0  0  0  0  0  0  0  0  0  0  0
    6.0265   -7.4406   -5.4393 C   0  0  0  0  0  0  0  0  0  0  0  0
    7.0190   -8.3590   -5.7695 C   0  0  0  0  0  0  0  0  0  0  0  0
    6.7086   -9.4200   -6.6159 C   0  0  0  0  0  0  0  0  0  0  0  0
    5.4151   -9.5193   -7.0822 C   0  0  0  0  0  0  0  0  0  0  0  0
    4.9340  -10.7797   -8.1332 Cl  0  0  0  0  0  0  0  0  0  0  0  0
    4.4541   -8.6413   -6.7427 N   0  0  0  0  0  0  0  0  0  0  0  0
    4.7652   -7.5931   -5.9097 N   0  0  0  0  0  0  0  0  0  0  0  0
    5.2161   -5.7748   -3.6469 C   0  0  0  0  0  0  0  0  0  0  0  0
    5.4502   -4.7092   -2.8656 C   0  0  0  0  0  0  0  0  0  0  0  0
    6.6759   -4.0431   -2.9464 N   0  0  0  0  0  0  0  0  0  0  0  0
    5.0778   -1.8353   -1.3685 C   0  0  0  0  0  0  0  0  0  0  0  0
    0.5938   -1.2796   -0.6242 H   0  0  0  0  0  0  0  0  0  0  0  0
   -1.0668    0.3015    0.1393 H   0  0  0  0  0  0  0  0  0  0  0  0
    0.0976    0.9524    1.2938 H   0  0  0  0  0  0  0  0  0  0  0  0
    2.5909   -1.3662   -1.3318 H   0  0  0  0  0  0  0  0  0  0  0  0
    4.6503   -0.1618    1.5701 H   0  0  0  0  0  0  0  0  0  0  0  0
    7.0665   -0.4848    1.6540 H   0  0  0  0  0  0  0  0  0  0  0  0
    8.2361   -1.7409   -0.1034 H   0  0  0  0  0  0  0  0  0  0  0  0
    9.1899   -2.0448   -2.4647 H   0  0  0  0  0  0  0  0  0  0  0  0
    8.2579   -5.9256   -5.2541 H   0  0  0  0  0  0  0  0  0  0  0  0
    8.0253   -8.2697   -5.3725 H   0  0  0  0  0  0  0  0  0  0  0  0
    7.4642  -10.1442   -6.8975 H   0  0  0  0  0  0  0  0  0  0  0  0
    4.2596   -6.2912   -3.6179 H   0  0  0  0  0  0  0  0  0  0  0  0
    4.7068   -4.3471   -2.1706 H   0  0  0  0  0  0  0  0  0  0  0  0
    4.5218   -2.1537   -2.2452 H   0  0  0  0  0  0  0  0  0  0  0  0
  1  2  2  0  0  0  0
  2  3  1  0  0  0  0
  2  9  1  0  0  0  0
  3  4  1  0  0  0  0
  3 32  1  0  0  0  0
  4  5  1  0  0  0  0
  4 33  1  0  0  0  0
  4 34  1  0  0  0  0
  5  6  1  0  0  0  0
  5  7  1  0  0  0  0
  5  8  1  0  0  0  0
  9 10  1  0  0  0  0
  9 35  1  0  0  0  0
 10 11  1  0  0  0  0
 10 31  2  0  0  0  0
 11 12  2  0  0  0  0
 11 36  1  0  0  0  0
 12 13  1  0  0  0  0
 12 37  1  0  0  0  0
 13 14  2  0  0  0  0
 13 38  1  0  0  0  0
 14 15  1  0  0  0  0
 14 31  1  0  0  0  0
 15 16  2  0  0  0  0
 15 30  1  0  0  0  0
 16 17  1  0  0  0  0
 16 39  1  0  0  0  0
 17 18  2  0  0  0  0
 18 19  1  0  0  0  0
 18 30  1  0  0  0  0
 19 20  2  0  0  0  0
 19 40  1  0  0  0  0
 20 21  1  0  0  0  0
 20 28  1  0  0  0  0
 21 22  1  0  0  0  0
 21 27  2  0  0  0  0
 22 23  2  0  0  0  0
 22 41  1  0  0  0  0
 23 24  1  0  0  0  0
 23 42  1  0  0  0  0
 24 25  1  0  0  0  0
 24 26  2  0  0  0  0
 26 27  1  0  0  0  0
 28 29  2  0  0  0  0
 28 43  1  0  0  0  0
 29 30  1  0  0  0  0
 29 44  1  0  0  0  0
 31 45  1  0  0  0  0
M  END
$$$$
