CHEMBL4474922
 OpenBabel04072215383D

 53 56  0  0  0  0  0  0  0  0999 V2000
    7.0676    5.3469    2.0247 C   0  0  0  0  0  0  0  0  0  0  0  0
    6.8291    3.9543    1.4977 C   0  0  0  0  0  0  0  0  0  0  0  0
    5.9026    3.7125    0.7254 O   0  0  0  0  0  0  0  0  0  0  0  0
    7.7422    2.8557    1.9274 C   0  0  0  0  0  0  0  0  0  0  0  0
    8.8827    3.1208    2.6929 C   0  0  0  0  0  0  0  0  0  0  0  0
    9.7141    2.0769    3.0803 C   0  0  0  0  0  0  0  0  0  0  0  0
    9.4055    0.7687    2.7110 C   0  0  0  0  0  0  0  0  0  0  0  0
    8.2551    0.4650    1.9693 C   0  0  0  0  0  0  0  0  0  0  0  0
    7.9439   -0.8619    1.5896 N   0  0  0  0  0  0  0  0  0  0  0  0
    8.2694   -2.0479    2.2937 C   0  0  0  0  0  0  0  0  0  0  0  0
    8.1138   -3.2614    1.6547 C   0  0  0  0  0  0  0  0  0  0  0  0
    8.5592   -4.3750    2.3324 C   0  0  0  0  0  0  0  0  0  0  0  0
    9.1103   -4.3346    3.5589 N   0  0  0  0  0  0  0  0  0  0  0  0
    9.1868   -3.1219    4.1200 C   0  0  0  0  0  0  0  0  0  0  0  0
    9.8227   -2.9533    5.7671 S   0  0  0  0  0  0  0  0  0  0  0  0
   11.0437   -4.2925    5.7818 C   0  0  0  0  0  0  0  0  0  0  0  0
   11.7214   -4.3490    7.1384 C   0  0  0  0  0  0  0  0  0  0  0  0
   11.2759   -5.0556    8.0461 O   0  0  0  0  0  0  0  0  0  0  0  0
   12.9758   -3.5711    7.3828 C   0  0  0  0  0  0  0  0  0  0  0  0
   13.3652   -2.4742    6.6112 C   0  0  0  0  0  0  0  0  0  0  0  0
   14.5545   -1.7833    6.9080 C   0  0  0  0  0  0  0  0  0  0  0  0
   15.3859   -2.1593    7.9803 C   0  0  0  0  0  0  0  0  0  0  0  0
   16.6413   -1.4316    8.3059 C   0  0  0  0  0  0  0  0  0  0  0  0
   16.7820   -0.0485    8.0845 C   0  0  0  0  0  0  0  0  0  0  0  0
   17.9576    0.6330    8.4250 C   0  0  0  0  0  0  0  0  0  0  0  0
   19.0204   -0.0504    9.0071 C   0  0  0  0  0  0  0  0  0  0  0  0
   18.9139   -1.4172    9.2336 C   0  0  0  0  0  0  0  0  0  0  0  0
   17.7446   -2.0972    8.8770 C   0  0  0  0  0  0  0  0  0  0  0  0
   14.9665   -3.2611    8.7466 C   0  0  0  0  0  0  0  0  0  0  0  0
   13.7870   -3.9572    8.4542 C   0  0  0  0  0  0  0  0  0  0  0  0
    8.7934   -1.9852    3.5301 N   0  0  0  0  0  0  0  0  0  0  0  0
    7.4436    1.5314    1.5548 C   0  0  0  0  0  0  0  0  0  0  0  0
    6.2436    5.9976    1.7171 H   0  0  0  0  0  0  0  0  0  0  0  0
    7.9970    5.7514    1.6143 H   0  0  0  0  0  0  0  0  0  0  0  0
    7.0957    5.3426    3.1184 H   0  0  0  0  0  0  0  0  0  0  0  0
    9.1520    4.1277    2.9961 H   0  0  0  0  0  0  0  0  0  0  0  0
   10.6041    2.2711    3.6740 H   0  0  0  0  0  0  0  0  0  0  0  0
   10.0869   -0.0201    3.0182 H   0  0  0  0  0  0  0  0  0  0  0  0
    7.0571   -0.9414    1.1045 H   0  0  0  0  0  0  0  0  0  0  0  0
    7.6932   -3.3417    0.6615 H   0  0  0  0  0  0  0  0  0  0  0  0
    8.4903   -5.3638    1.8869 H   0  0  0  0  0  0  0  0  0  0  0  0
   11.7881   -4.1778    4.9876 H   0  0  0  0  0  0  0  0  0  0  0  0
   10.5494   -5.2592    5.6272 H   0  0  0  0  0  0  0  0  0  0  0  0
   12.7588   -2.1143    5.7857 H   0  0  0  0  0  0  0  0  0  0  0  0
   14.8220   -0.9381    6.2759 H   0  0  0  0  0  0  0  0  0  0  0  0
   15.9660    0.5308    7.6588 H   0  0  0  0  0  0  0  0  0  0  0  0
   18.0365    1.7022    8.2443 H   0  0  0  0  0  0  0  0  0  0  0  0
   19.9267    0.4801    9.2858 H   0  0  0  0  0  0  0  0  0  0  0  0
   19.7382   -1.9604    9.6891 H   0  0  0  0  0  0  0  0  0  0  0  0
   17.7123   -3.1701    9.0532 H   0  0  0  0  0  0  0  0  0  0  0  0
   15.5460   -3.5900    9.6067 H   0  0  0  0  0  0  0  0  0  0  0  0
   13.5070   -4.8040    9.0799 H   0  0  0  0  0  0  0  0  0  0  0  0
    6.5562    1.3389    0.9557 H   0  0  0  0  0  0  0  0  0  0  0  0
  1  2  1  0  0  0  0
  1 33  1  0  0  0  0
  1 34  1  0  0  0  0
  1 35  1  0  0  0  0
  2  3  2  0  0  0  0
  2  4  1  0  0  0  0
  4  5  1  0  0  0  0
  4 32  2  0  0  0  0
  5  6  2  0  0  0  0
  5 36  1  0  0  0  0
  6  7  1  0  0  0  0
  6 37  1  0  0  0  0
  7  8  2  0  0  0  0
  7 38  1  0  0  0  0
  8  9  1  0  0  0  0
  8 32  1  0  0  0  0
  9 10  1  0  0  0  0
  9 39  1  0  0  0  0
 10 11  1  0  0  0  0
 10 31  2  0  0  0  0
 11 12  2  0  0  0  0
 11 40  1  0  0  0  0
 12 13  1  0  0  0  0
 12 41  1  0  0  0  0
 13 14  2  0  0  0  0
 14 15  1  0  0  0  0
 14 31  1  0  0  0  0
 15 16  1  0  0  0  0
 16 17  1  0  0  0  0
 16 42  1  0  0  0  0
 16 43  1  0  0  0  0
 17 18  2  0  0  0  0
 17 19  1  0  0  0  0
 19 20  1  0  0  0  0
 19 30  2  0  0  0  0
 20 21  2  0  0  0  0
 20 44  1  0  0  0  0
 21 22  1  0  0  0  0
 21 45  1  0  0  0  0
 22 23  1  0  0  0  0
 22 29  2  0  0  0  0
 23 24  1  0  0  0  0
 23 28  2  0  0  0  0
 24 25  2  0  0  0  0
 24 46  1  0  0  0  0
 25 26  1  0  0  0  0
 25 47  1  0  0  0  0
 26 27  2  0  0  0  0
 26 48  1  0  0  0  0
 27 28  1  0  0  0  0
 27 49  1  0  0  0  0
 28 50  1  0  0  0  0
 29 30  1  0  0  0  0
 29 51  1  0  0  0  0
 30 52  1  0  0  0  0
 32 53  1  0  0  0  0
M  END
$$$$
