CHEMBL75462
 OpenBabel04072215383D

 44 47  0  0  0  0  0  0  0  0999 V2000
    0.5828   -1.0912   -0.0336 C   0  0  0  0  0  0  0  0  0  0  0  0
    1.9791   -0.9711    0.2202 O   0  0  0  0  0  0  0  0  0  0  0  0
    2.7133   -2.1253    0.1523 C   0  0  0  0  0  0  0  0  0  0  0  0
    2.1945   -3.3989   -0.0828 C   0  0  0  0  0  0  0  0  0  0  0  0
    3.0421   -4.5013   -0.1064 C   0  0  0  0  0  0  0  0  0  0  0  0
    4.4120   -4.3292    0.0816 C   0  0  0  0  0  0  0  0  0  0  0  0
    4.9694   -3.0576    0.2691 C   0  0  0  0  0  0  0  0  0  0  0  0
    6.3586   -2.8932    0.4824 N   0  0  0  0  0  0  0  0  0  0  0  0
    7.3736   -3.7221   -0.0693 C   0  0  0  0  0  0  0  0  0  0  0  0
    7.1208   -4.3881   -1.2162 N   0  0  0  0  0  0  0  0  0  0  0  0
    8.0292   -5.2475   -1.7502 N   0  0  0  0  0  0  0  0  0  0  0  0
    9.1967   -5.4842   -1.1148 C   0  0  0  0  0  0  0  0  0  0  0  0
   10.0768   -6.5062   -1.7956 C   0  0  0  0  0  0  0  0  0  0  0  0
    9.8887   -7.9455   -1.3625 C   0  0  0  0  0  0  0  0  0  0  0  0
    8.6439   -8.4608   -0.9830 C   0  0  0  0  0  0  0  0  0  0  0  0
    8.5404   -9.8093   -0.6733 C   0  0  0  0  0  0  0  0  0  0  0  0
    9.5738  -10.6751   -0.7276 N   0  0  0  0  0  0  0  0  0  0  0  0
   10.7616  -10.1699   -1.1176 C   0  0  0  0  0  0  0  0  0  0  0  0
   10.9657   -8.8363   -1.4422 C   0  0  0  0  0  0  0  0  0  0  0  0
    9.5294   -4.8263    0.0835 C   0  0  0  0  0  0  0  0  0  0  0  0
   10.7227   -5.0701    0.8060 C   0  0  0  0  0  0  0  0  0  0  0  0
   11.0285   -4.3680    1.9719 C   0  0  0  0  0  0  0  0  0  0  0  0
   10.1509   -3.4057    2.4475 C   0  0  0  0  0  0  0  0  0  0  0  0
    8.9506   -3.1719    1.7758 C   0  0  0  0  0  0  0  0  0  0  0  0
    8.6085   -3.8783    0.5961 C   0  0  0  0  0  0  0  0  0  0  0  0
    4.0952   -1.9663    0.3446 C   0  0  0  0  0  0  0  0  0  0  0  0
    0.1424   -0.0914    0.0204 H   0  0  0  0  0  0  0  0  0  0  0  0
    0.0955   -1.7106    0.7274 H   0  0  0  0  0  0  0  0  0  0  0  0
    0.3946   -1.4822   -1.0397 H   0  0  0  0  0  0  0  0  0  0  0  0
    1.1362   -3.5705   -0.2439 H   0  0  0  0  0  0  0  0  0  0  0  0
    2.6409   -5.4985   -0.2704 H   0  0  0  0  0  0  0  0  0  0  0  0
    5.0454   -5.2150    0.0773 H   0  0  0  0  0  0  0  0  0  0  0  0
    6.6579   -1.9269    0.4827 H   0  0  0  0  0  0  0  0  0  0  0  0
   11.1272   -6.2118   -1.6837 H   0  0  0  0  0  0  0  0  0  0  0  0
    9.8838   -6.4642   -2.8764 H   0  0  0  0  0  0  0  0  0  0  0  0
    7.7540   -7.8399   -0.9381 H   0  0  0  0  0  0  0  0  0  0  0  0
    7.5891  -10.2409   -0.3744 H   0  0  0  0  0  0  0  0  0  0  0  0
   11.5727  -10.8903   -1.1748 H   0  0  0  0  0  0  0  0  0  0  0  0
   11.9481   -8.5100   -1.7677 H   0  0  0  0  0  0  0  0  0  0  0  0
   11.4310   -5.8276    0.4782 H   0  0  0  0  0  0  0  0  0  0  0  0
   11.9505   -4.5796    2.5082 H   0  0  0  0  0  0  0  0  0  0  0  0
   10.3877   -2.8502    3.3516 H   0  0  0  0  0  0  0  0  0  0  0  0
    8.2691   -2.4330    2.1933 H   0  0  0  0  0  0  0  0  0  0  0  0
    4.4800   -0.9681    0.5377 H   0  0  0  0  0  0  0  0  0  0  0  0
  1  2  1  0  0  0  0
  1 27  1  0  0  0  0
  1 28  1  0  0  0  0
  1 29  1  0  0  0  0
  2  3  1  0  0  0  0
  3  4  1  0  0  0  0
  3 26  2  0  0  0  0
  4  5  2  0  0  0  0
  4 30  1  0  0  0  0
  5  6  1  0  0  0  0
  5 31  1  0  0  0  0
  6  7  2  0  0  0  0
  6 32  1  0  0  0  0
  7  8  1  0  0  0  0
  7 26  1  0  0  0  0
  8  9  1  0  0  0  0
  8 33  1  0  0  0  0
  9 10  1  0  0  0  0
  9 25  2  0  0  0  0
 10 11  2  0  0  0  0
 11 12  1  0  0  0  0
 12 13  1  0  0  0  0
 12 20  2  0  0  0  0
 13 14  1  0  0  0  0
 13 34  1  0  0  0  0
 13 35  1  0  0  0  0
 14 15  1  0  0  0  0
 14 19  2  0  0  0  0
 15 16  2  0  0  0  0
 15 36  1  0  0  0  0
 16 17  1  0  0  0  0
 16 37  1  0  0  0  0
 17 18  2  0  0  0  0
 18 19  1  0  0  0  0
 18 38  1  0  0  0  0
 19 39  1  0  0  0  0
 20 21  1  0  0  0  0
 20 25  1  0  0  0  0
 21 22  2  0  0  0  0
 21 40  1  0  0  0  0
 22 23  1  0  0  0  0
 22 41  1  0  0  0  0
 23 24  2  0  0  0  0
 23 42  1  0  0  0  0
 24 25  1  0  0  0  0
 24 43  1  0  0  0  0
 26 44  1  0  0  0  0
M  END
$$$$
