CHEMBL370325
 OpenBabel04072215373D

 47 50  0  0  0  0  0  0  0  0999 V2000
    5.2989    1.6522   -1.6981 C   0  0  0  0  0  0  0  0  0  0  0  0
    4.3178    0.8331   -0.9149 C   0  0  0  0  0  0  0  0  0  0  0  0
    4.6416   -0.8443   -0.8053 S   0  0  0  0  0  0  0  0  0  0  0  0
    3.3080   -1.1189    0.1964 C   0  0  0  0  0  0  0  0  0  0  0  0
    3.0922   -2.3613    0.6591 N   0  0  0  0  0  0  0  0  0  0  0  0
    2.0160   -2.4379    1.4331 C   0  0  0  0  0  0  0  0  0  0  0  0
    1.1708   -1.4484    1.7353 N   0  0  0  0  0  0  0  0  0  0  0  0
    1.4020   -0.2178    1.2381 C   0  0  0  0  0  0  0  0  0  0  0  0
    0.4358    0.7153    1.5834 N   0  0  0  0  0  0  0  0  0  0  0  0
    2.5468    0.0173    0.4340 C   0  0  0  0  0  0  0  0  0  0  0  0
    3.1599    1.1934   -0.2199 C   0  0  0  0  0  0  0  0  0  0  0  0
    2.7080    2.6001   -0.1359 C   0  0  0  0  0  0  0  0  0  0  0  0
    2.1731    3.0856    1.0585 C   0  0  0  0  0  0  0  0  0  0  0  0
    1.6223    4.3689    1.1436 C   0  0  0  0  0  0  0  0  0  0  0  0
    1.7028    5.2611    0.0780 C   0  0  0  0  0  0  0  0  0  0  0  0
    1.1720    6.5748    0.1185 N   0  0  0  0  0  0  0  0  0  0  0  0
    0.5521    7.1576    1.2015 C   0  0  0  0  0  0  0  0  0  0  0  0
    0.4501    6.6613    2.3193 O   0  0  0  0  0  0  0  0  0  0  0  0
   -0.0161    8.3828    0.8715 N   0  0  0  0  0  0  0  0  0  0  0  0
   -0.7002    9.1437    1.8450 C   0  0  0  0  0  0  0  0  0  0  0  0
   -1.9334    9.7025    1.5126 C   0  0  0  0  0  0  0  0  0  0  0  0
   -2.6707   10.3911    2.4770 C   0  0  0  0  0  0  0  0  0  0  0  0
   -2.1519   10.5701    3.7623 C   0  0  0  0  0  0  0  0  0  0  0  0
   -0.8924   10.0576    4.0997 C   0  0  0  0  0  0  0  0  0  0  0  0
   -0.2955   10.2736    5.4682 C   0  0  0  0  0  0  0  0  0  0  0  0
   -1.0606   11.0677    6.2704 F   0  0  0  0  0  0  0  0  0  0  0  0
   -0.1091    9.1182    6.1603 F   0  0  0  0  0  0  0  0  0  0  0  0
    0.9256   10.8797    5.4126 F   0  0  0  0  0  0  0  0  0  0  0  0
   -0.1794    9.3289    3.1330 C   0  0  0  0  0  0  0  0  0  0  0  0
    2.3142    4.8225   -1.0965 C   0  0  0  0  0  0  0  0  0  0  0  0
    2.7742    3.4962   -1.2119 C   0  0  0  0  0  0  0  0  0  0  0  0
    6.2143    1.0958   -1.9295 H   0  0  0  0  0  0  0  0  0  0  0  0
    5.5968    2.5450   -1.1404 H   0  0  0  0  0  0  0  0  0  0  0  0
    4.8671    1.9515   -2.6582 H   0  0  0  0  0  0  0  0  0  0  0  0
    1.7930   -3.4095    1.8614 H   0  0  0  0  0  0  0  0  0  0  0  0
   -0.3668    0.2576    2.0017 H   0  0  0  0  0  0  0  0  0  0  0  0
    0.2304    1.4102    0.8783 H   0  0  0  0  0  0  0  0  0  0  0  0
    2.1392    2.4687    1.9510 H   0  0  0  0  0  0  0  0  0  0  0  0
    1.1345    4.6192    2.0801 H   0  0  0  0  0  0  0  0  0  0  0  0
    1.3352    7.1637   -0.6866 H   0  0  0  0  0  0  0  0  0  0  0  0
   -0.3765    8.4312   -0.0709 H   0  0  0  0  0  0  0  0  0  0  0  0
   -2.3665    9.5514    0.5274 H   0  0  0  0  0  0  0  0  0  0  0  0
   -3.6562   10.7767    2.2326 H   0  0  0  0  0  0  0  0  0  0  0  0
   -2.7390   11.1148    4.5005 H   0  0  0  0  0  0  0  0  0  0  0  0
    0.7898    8.9070    3.3964 H   0  0  0  0  0  0  0  0  0  0  0  0
    2.4277    5.4879   -1.9461 H   0  0  0  0  0  0  0  0  0  0  0  0
    3.1790    3.1956   -2.1722 H   0  0  0  0  0  0  0  0  0  0  0  0
  1  2  1  0  0  0  0
  1 32  1  0  0  0  0
  1 33  1  0  0  0  0
  1 34  1  0  0  0  0
  2  3  1  0  0  0  0
  2 11  2  0  0  0  0
  3  4  1  0  0  0  0
  4  5  1  0  0  0  0
  4 10  2  0  0  0  0
  5  6  2  0  0  0  0
  6  7  1  0  0  0  0
  6 35  1  0  0  0  0
  7  8  2  0  0  0  0
  8  9  1  0  0  0  0
  8 10  1  0  0  0  0
  9 36  1  0  0  0  0
  9 37  1  0  0  0  0
 10 11  1  0  0  0  0
 11 12  1  0  0  0  0
 12 13  1  0  0  0  0
 12 31  2  0  0  0  0
 13 14  2  0  0  0  0
 13 38  1  0  0  0  0
 14 15  1  0  0  0  0
 14 39  1  0  0  0  0
 15 16  1  0  0  0  0
 15 30  2  0  0  0  0
 16 17  1  0  0  0  0
 16 40  1  0  0  0  0
 17 18  2  0  0  0  0
 17 19  1  0  0  0  0
 19 20  1  0  0  0  0
 19 41  1  0  0  0  0
 20 21  1  0  0  0  0
 20 29  2  0  0  0  0
 21 22  2  0  0  0  0
 21 42  1  0  0  0  0
 22 23  1  0  0  0  0
 22 43  1  0  0  0  0
 23 24  2  0  0  0  0
 23 44  1  0  0  0  0
 24 25  1  0  0  0  0
 24 29  1  0  0  0  0
 25 26  1  0  0  0  0
 25 27  1  0  0  0  0
 25 28  1  0  0  0  0
 29 45  1  0  0  0  0
 30 31  1  0  0  0  0
 30 46  1  0  0  0  0
 31 47  1  0  0  0  0
M  END
$$$$
