CHEMBL3933295
 OpenBabel04072215373D

 70 72  0  0  0  0  0  0  0  0999 V2000
    1.6633   -5.1573   -6.6317 C   0  0  0  0  0  0  0  0  0  0  0  0
    2.7254   -5.5493   -5.7584 O   0  0  0  0  0  0  0  0  0  0  0  0
    3.6041   -4.5449   -5.4772 C   0  0  0  0  0  0  0  0  0  0  0  0
    3.5302   -3.4061   -5.9184 O   0  0  0  0  0  0  0  0  0  0  0  0
    4.6816   -5.0458   -4.5397 C   0  0  0  0  0  0  0  0  0  0  0  0
    5.6906   -3.9402   -4.2091 C   0  0  0  0  0  0  0  0  0  0  0  0
    6.7980   -4.4227   -3.2680 C   0  0  0  0  0  0  0  0  0  0  0  0
    7.8055   -3.3110   -2.9677 C   0  0  0  0  0  0  0  0  0  0  0  0
    9.0850   -3.8452   -1.8326 S   0  0  3  0  0  0  0  0  0  0  0  0
   10.0653   -2.3589   -1.6514 C   0  0  0  0  0  0  0  0  0  0  0  0
    8.4320   -4.0804   -0.5608 O   0  0  0  0  0  0  0  0  0  0  0  0
    9.9548   -4.9014   -2.5570 N   0  0  0  0  0  0  0  0  0  0  0  0
   11.0086   -5.5381   -1.8705 C   0  0  0  0  0  0  0  0  0  0  0  0
   11.5911   -5.0079   -0.9277 O   0  0  0  0  0  0  0  0  0  0  0  0
   11.5567   -6.8456   -2.3241 C   0  0  0  0  0  0  0  0  0  0  0  0
   11.0024   -7.5197   -3.4004 C   0  0  0  0  0  0  0  0  0  0  0  0
   11.4920   -8.6884   -3.8943 N   0  0  0  0  0  0  0  0  0  0  0  0
   12.5763   -9.2209   -3.2906 C   0  0  0  0  0  0  0  0  0  0  0  0
   13.1108  -10.3455   -3.9164 N   0  0  0  0  0  0  0  0  0  0  0  0
   13.1838   -8.6313   -2.1736 C   0  0  0  0  0  0  0  0  0  0  0  0
   14.3002   -9.2467   -1.5118 C   0  0  0  0  0  0  0  0  0  0  0  0
   15.2193   -9.8222   -0.9860 C   0  0  0  0  0  0  0  0  0  0  0  0
   16.3126  -10.5530   -0.4151 C   0  0  0  0  0  0  0  0  0  0  0  0
   17.4503   -9.8733    0.0257 C   0  0  0  0  0  0  0  0  0  0  0  0
   18.5306  -10.5924    0.5294 C   0  0  0  0  0  0  0  0  0  0  0  0
   18.4762  -11.9832    0.5892 C   0  0  0  0  0  0  0  0  0  0  0  0
   17.3407  -12.6840    0.1711 C   0  0  0  0  0  0  0  0  0  0  0  0
   17.2605  -14.1020    0.2092 N   0  0  0  0  0  0  0  0  0  0  0  0
   18.1367  -14.9209    0.9087 C   0  0  0  0  0  0  0  0  0  0  0  0
   19.0381  -14.5396    1.6502 O   0  0  0  0  0  0  0  0  0  0  0  0
   17.9369  -16.3923    0.8103 C   0  0  0  0  0  0  0  0  0  0  0  0
   17.4280  -17.0300   -0.3243 C   0  0  0  0  0  0  0  0  0  0  0  0
   17.3494  -18.4256   -0.3480 C   0  0  0  0  0  0  0  0  0  0  0  0
   17.7635  -19.1753    0.7588 C   0  0  0  0  0  0  0  0  0  0  0  0
   18.2694  -18.5466    1.8966 C   0  0  0  0  0  0  0  0  0  0  0  0
   18.6332  -19.3786    2.9196 O   0  0  0  0  0  0  0  0  0  0  0  0
   19.1481  -18.7592    4.0958 C   0  0  0  0  0  0  0  0  0  0  0  0
   18.3671  -17.1583    1.9087 C   0  0  0  0  0  0  0  0  0  0  0  0
   16.2536  -11.9551   -0.3319 C   0  0  0  0  0  0  0  0  0  0  0  0
   12.6612   -7.4282   -1.6905 C   0  0  0  0  0  0  0  0  0  0  0  0
    1.0114   -6.0218   -6.7891 H   0  0  0  0  0  0  0  0  0  0  0  0
    2.0604   -4.8434   -7.6023 H   0  0  0  0  0  0  0  0  0  0  0  0
    1.0702   -4.3567   -6.1788 H   0  0  0  0  0  0  0  0  0  0  0  0
    5.1939   -5.8850   -5.0229 H   0  0  0  0  0  0  0  0  0  0  0  0
    4.2009   -5.3993   -3.6208 H   0  0  0  0  0  0  0  0  0  0  0  0
    5.1633   -3.0930   -3.7521 H   0  0  0  0  0  0  0  0  0  0  0  0
    6.1369   -3.5667   -5.1391 H   0  0  0  0  0  0  0  0  0  0  0  0
    7.3156   -5.2770   -3.7191 H   0  0  0  0  0  0  0  0  0  0  0  0
    6.3519   -4.7806   -2.3325 H   0  0  0  0  0  0  0  0  0  0  0  0
    7.3015   -2.4603   -2.4945 H   0  0  0  0  0  0  0  0  0  0  0  0
    8.2933   -2.9614   -3.8826 H   0  0  0  0  0  0  0  0  0  0  0  0
    9.4408   -1.5802   -1.2090 H   0  0  0  0  0  0  0  0  0  0  0  0
   10.4266   -2.0438   -2.6327 H   0  0  0  0  0  0  0  0  0  0  0  0
   10.9072   -2.5608   -0.9885 H   0  0  0  0  0  0  0  0  0  0  0  0
   10.1322   -7.1362   -3.9278 H   0  0  0  0  0  0  0  0  0  0  0  0
   12.4607  -10.6496   -4.6343 H   0  0  0  0  0  0  0  0  0  0  0  0
   13.3760  -11.0758   -3.2686 H   0  0  0  0  0  0  0  0  0  0  0  0
   17.5131   -8.7897   -0.0304 H   0  0  0  0  0  0  0  0  0  0  0  0
   19.4280  -10.0799    0.8672 H   0  0  0  0  0  0  0  0  0  0  0  0
   19.3614  -12.4953    0.9523 H   0  0  0  0  0  0  0  0  0  0  0  0
   16.4524  -14.5241   -0.2214 H   0  0  0  0  0  0  0  0  0  0  0  0
   17.1351  -16.4700   -1.2071 H   0  0  0  0  0  0  0  0  0  0  0  0
   16.9810  -18.9386   -1.2332 H   0  0  0  0  0  0  0  0  0  0  0  0
   17.7022  -20.2614    0.7303 H   0  0  0  0  0  0  0  0  0  0  0  0
   19.2825  -19.5353    4.8549 H   0  0  0  0  0  0  0  0  0  0  0  0
   18.4483  -18.0219    4.5048 H   0  0  0  0  0  0  0  0  0  0  0  0
   20.1262  -18.3070    3.8989 H   0  0  0  0  0  0  0  0  0  0  0  0
   18.7884  -16.6360    2.7631 H   0  0  0  0  0  0  0  0  0  0  0  0
   15.3492  -12.4630   -0.6527 H   0  0  0  0  0  0  0  0  0  0  0  0
   13.1202   -6.9401   -0.8336 H   0  0  0  0  0  0  0  0  0  0  0  0
  1  2  1  0  0  0  0
  1 41  1  0  0  0  0
  1 42  1  0  0  0  0
  1 43  1  0  0  0  0
  2  3  1  0  0  0  0
  3  4  2  0  0  0  0
  3  5  1  0  0  0  0
  5  6  1  0  0  0  0
  5 44  1  0  0  0  0
  5 45  1  0  0  0  0
  6  7  1  0  0  0  0
  6 46  1  0  0  0  0
  6 47  1  0  0  0  0
  7  8  1  0  0  0  0
  7 48  1  0  0  0  0
  7 49  1  0  0  0  0
  8  9  1  0  0  0  0
  8 50  1  0  0  0  0
  8 51  1  0  0  0  0
  9 10  1  0  0  0  0
  9 11  2  0  0  0  0
  9 12  2  0  0  0  0
 10 52  1  0  0  0  0
 10 53  1  0  0  0  0
 10 54  1  0  0  0  0
 12 13  1  0  0  0  0
 13 14  2  0  0  0  0
 13 15  1  0  0  0  0
 15 16  1  0  0  0  0
 15 40  2  0  0  0  0
 16 17  2  0  0  0  0
 16 55  1  0  0  0  0
 17 18  1  0  0  0  0
 18 19  1  0  0  0  0
 18 20  2  0  0  0  0
 19 56  1  0  0  0  0
 19 57  1  0  0  0  0
 20 21  1  0  0  0  0
 20 40  1  0  0  0  0
 21 22  3  0  0  0  0
 22 23  1  0  0  0  0
 23 24  1  0  0  0  0
 23 39  2  0  0  0  0
 24 25  2  0  0  0  0
 24 58  1  0  0  0  0
 25 26  1  0  0  0  0
 25 59  1  0  0  0  0
 26 27  2  0  0  0  0
 26 60  1  0  0  0  0
 27 28  1  0  0  0  0
 27 39  1  0  0  0  0
 28 29  1  0  0  0  0
 28 61  1  0  0  0  0
 29 30  2  0  0  0  0
 29 31  1  0  0  0  0
 31 32  1  0  0  0  0
 31 38  2  0  0  0  0
 32 33  2  0  0  0  0
 32 62  1  0  0  0  0
 33 34  1  0  0  0  0
 33 63  1  0  0  0  0
 34 35  2  0  0  0  0
 34 64  1  0  0  0  0
 35 36  1  0  0  0  0
 35 38  1  0  0  0  0
 36 37  1  0  0  0  0
 37 65  1  0  0  0  0
 37 66  1  0  0  0  0
 37 67  1  0  0  0  0
 38 68  1  0  0  0  0
 39 69  1  0  0  0  0
 40 70  1  0  0  0  0
M  END
$$$$
