CHEMBL3690451
 OpenBabel04072215373D

 45 48  0  0  0  0  0  0  0  0999 V2000
    2.5319    0.9180   -1.1818 O   0  0  0  0  0  0  0  0  0  0  0  0
    2.2449    0.6537   -0.0231 C   0  0  0  0  0  0  0  0  0  0  0  0
    0.9451    0.3712    0.3405 N   0  0  0  0  0  0  0  0  0  0  0  0
   -0.1164    0.5514   -0.6594 C   0  0  0  0  0  0  0  0  0  0  0  0
   -0.6192    1.9934   -0.8175 C   0  0  0  0  0  0  0  0  0  0  0  0
   -0.0400    2.8296    0.0764 F   0  0  0  0  0  0  0  0  0  0  0  0
   -0.4020    2.4836   -2.0543 F   0  0  0  0  0  0  0  0  0  0  0  0
   -1.9551    2.0449   -0.5878 F   0  0  0  0  0  0  0  0  0  0  0  0
    3.0994    0.5717    1.0549 N   0  0  0  0  0  0  0  0  0  0  0  0
    4.4995    0.7562    1.0463 C   0  0  0  0  0  0  0  0  0  0  0  0
    5.2213    1.0382   -0.1152 C   0  0  0  0  0  0  0  0  0  0  0  0
    6.6107    1.1138   -0.0829 C   0  0  0  0  0  0  0  0  0  0  0  0
    7.2880    0.9428    1.1201 C   0  0  0  0  0  0  0  0  0  0  0  0
    6.5911    0.7788    2.3222 C   0  0  0  0  0  0  0  0  0  0  0  0
    7.2999    0.7637    3.6103 C   0  0  0  0  0  0  0  0  0  0  0  0
    7.0411    0.0430    4.7677 C   0  0  0  0  0  0  0  0  0  0  0  0
    7.9479    0.3053    5.7599 N   0  0  0  0  0  0  0  0  0  0  0  0
    8.7732    1.1920    5.2499 C   0  0  0  0  0  0  0  0  0  0  0  0
    9.9262    1.8235    5.8068 C   0  0  0  0  0  0  0  0  0  0  0  0
   10.6294    2.7276    5.0897 C   0  0  0  0  0  0  0  0  0  0  0  0
   11.8125    3.3551    5.6916 C   0  0  0  0  0  0  0  0  0  0  0  0
   11.7126    4.5677    6.3672 C   0  0  0  0  0  0  0  0  0  0  0  0
   12.8725    5.1366    6.8538 C   0  0  0  0  0  0  0  0  0  0  0  0
   14.0851    4.5684    6.6954 N   0  0  0  0  0  0  0  0  0  0  0  0
   14.1897    3.3854    6.0304 N   0  0  0  0  0  0  0  0  0  0  0  0
   13.0758    2.8023    5.5412 C   0  0  0  0  0  0  0  0  0  0  0  0
   10.1935    3.0921    3.7433 C   0  0  0  0  0  0  0  0  0  0  0  0
    9.0987    2.5155    3.2227 C   0  0  0  0  0  0  0  0  0  0  0  0
    8.4055    1.5426    3.9487 N   0  0  0  0  0  0  0  0  0  0  0  0
    5.1920    0.6398    2.2641 C   0  0  0  0  0  0  0  0  0  0  0  0
    0.6959    0.5969    1.2927 H   0  0  0  0  0  0  0  0  0  0  0  0
   -0.9426   -0.0951   -0.3461 H   0  0  0  0  0  0  0  0  0  0  0  0
    0.2369    0.1795   -1.6275 H   0  0  0  0  0  0  0  0  0  0  0  0
    2.6916    0.2785    1.9287 H   0  0  0  0  0  0  0  0  0  0  0  0
    4.7371    1.1807   -1.0762 H   0  0  0  0  0  0  0  0  0  0  0  0
    7.1619    1.3049   -0.9996 H   0  0  0  0  0  0  0  0  0  0  0  0
    8.3742    0.9520    1.0949 H   0  0  0  0  0  0  0  0  0  0  0  0
    6.2453   -0.6730    4.9317 H   0  0  0  0  0  0  0  0  0  0  0  0
   10.2030    1.5455    6.8209 H   0  0  0  0  0  0  0  0  0  0  0  0
   10.7584    5.0644    6.5042 H   0  0  0  0  0  0  0  0  0  0  0  0
   12.8680    6.0810    7.3863 H   0  0  0  0  0  0  0  0  0  0  0  0
   13.2393    1.8713    5.0096 H   0  0  0  0  0  0  0  0  0  0  0  0
   10.7541    3.8358    3.1883 H   0  0  0  0  0  0  0  0  0  0  0  0
    8.7349    2.7920    2.2435 H   0  0  0  0  0  0  0  0  0  0  0  0
    4.6361    0.4620    3.1805 H   0  0  0  0  0  0  0  0  0  0  0  0
  1  2  2  0  0  0  0
  2  3  1  0  0  0  0
  2  9  1  0  0  0  0
  3  4  1  0  0  0  0
  3 31  1  0  0  0  0
  4  5  1  0  0  0  0
  4 32  1  0  0  0  0
  4 33  1  0  0  0  0
  5  6  1  0  0  0  0
  5  7  1  0  0  0  0
  5  8  1  0  0  0  0
  9 10  1  0  0  0  0
  9 34  1  0  0  0  0
 10 11  1  0  0  0  0
 10 30  2  0  0  0  0
 11 12  2  0  0  0  0
 11 35  1  0  0  0  0
 12 13  1  0  0  0  0
 12 36  1  0  0  0  0
 13 14  2  0  0  0  0
 13 37  1  0  0  0  0
 14 15  1  0  0  0  0
 14 30  1  0  0  0  0
 15 16  2  0  0  0  0
 15 29  1  0  0  0  0
 16 17  1  0  0  0  0
 16 38  1  0  0  0  0
 17 18  2  0  0  0  0
 18 19  1  0  0  0  0
 18 29  1  0  0  0  0
 19 20  2  0  0  0  0
 19 39  1  0  0  0  0
 20 21  1  0  0  0  0
 20 27  1  0  0  0  0
 21 22  1  0  0  0  0
 21 26  2  0  0  0  0
 22 23  2  0  0  0  0
 22 40  1  0  0  0  0
 23 24  1  0  0  0  0
 23 41  1  0  0  0  0
 24 25  2  0  0  0  0
 25 26  1  0  0  0  0
 26 42  1  0  0  0  0
 27 28  2  0  0  0  0
 27 43  1  0  0  0  0
 28 29  1  0  0  0  0
 28 44  1  0  0  0  0
 30 45  1  0  0  0  0
M  END
$$$$
