CHEMBL222828
 OpenBabel04072215363D

 48 50  0  0  0  0  0  0  0  0999 V2000
    6.3400   -2.0199    5.3547 C   0  0  0  0  0  0  0  0  0  0  0  0
    6.8674   -2.0747    3.9696 C   0  0  0  0  0  0  0  0  0  0  0  0
    6.2494   -1.8675    2.7525 C   0  0  0  0  0  0  0  0  0  0  0  0
    7.2502   -1.9004    1.7397 C   0  0  0  0  0  0  0  0  0  0  0  0
    7.2577   -1.6778    0.3479 C   0  0  0  0  0  0  0  0  0  0  0  0
    6.1128   -1.3920   -0.2928 F   0  0  0  0  0  0  0  0  0  0  0  0
    8.4639   -1.7252   -0.3614 C   0  0  0  0  0  0  0  0  0  0  0  0
    8.3981   -1.4798   -1.7206 O   0  0  0  0  0  0  0  0  0  0  0  0
    9.4304   -0.7559   -2.3100 C   0  0  0  0  0  0  0  0  0  0  0  0
   10.1270    0.1179   -1.5495 N   0  0  0  0  0  0  0  0  0  0  0  0
   11.1545    0.7230   -2.1537 C   0  0  0  0  0  0  0  0  0  0  0  0
   11.5346    0.5477   -3.4267 N   0  0  0  0  0  0  0  0  0  0  0  0
   10.7986   -0.3024   -4.1637 C   0  0  0  0  0  0  0  0  0  0  0  0
   11.1496   -0.3627   -5.5105 N   0  0  0  0  0  0  0  0  0  0  0  0
    9.7065   -0.9813   -3.6443 C   0  0  0  0  0  0  0  0  0  0  0  0
    8.9257   -1.9442   -4.4292 C   0  0  0  0  0  0  0  0  0  0  0  0
    9.4840   -2.6366   -5.3725 N   0  0  0  0  0  0  0  0  0  0  0  0
    8.5328   -3.4894   -5.9534 O   0  0  0  0  0  0  0  0  0  0  0  0
    9.2363   -4.5997   -6.5198 C   0  0  0  0  0  0  0  0  0  0  0  0
    8.2405   -5.5237   -7.2310 C   0  0  0  0  0  0  0  0  0  0  0  0
    8.8390   -6.7541   -7.7911 N   0  0  0  0  0  0  0  0  0  0  0  0
    9.4070   -7.6114   -6.7480 C   0  0  0  0  0  0  0  0  0  0  0  0
    7.8273   -7.5016   -8.5432 C   0  0  0  0  0  0  0  0  0  0  0  0
    9.6447   -2.0783    0.2957 C   0  0  0  0  0  0  0  0  0  0  0  0
    9.6655   -2.3133    1.6757 C   0  0  0  0  0  0  0  0  0  0  0  0
    8.4563   -2.2028    2.3714 C   0  0  0  0  0  0  0  0  0  0  0  0
    8.1904   -2.3407    3.7148 N   0  0  0  0  0  0  0  0  0  0  0  0
    5.2773   -1.7573    5.3614 H   0  0  0  0  0  0  0  0  0  0  0  0
    6.8760   -1.2589    5.9325 H   0  0  0  0  0  0  0  0  0  0  0  0
    6.4599   -2.9838    5.8583 H   0  0  0  0  0  0  0  0  0  0  0  0
    5.1991   -1.6509    2.6038 H   0  0  0  0  0  0  0  0  0  0  0  0
   11.7415    1.4127   -1.5570 H   0  0  0  0  0  0  0  0  0  0  0  0
   12.0474    0.0857   -5.6584 H   0  0  0  0  0  0  0  0  0  0  0  0
   11.0824   -1.3100   -5.8836 H   0  0  0  0  0  0  0  0  0  0  0  0
    7.8623   -2.0821   -4.1670 H   0  0  0  0  0  0  0  0  0  0  0  0
    9.7371   -5.1198   -5.6970 H   0  0  0  0  0  0  0  0  0  0  0  0
    9.9931   -4.2385   -7.2282 H   0  0  0  0  0  0  0  0  0  0  0  0
    7.7868   -4.9421   -8.0454 H   0  0  0  0  0  0  0  0  0  0  0  0
    7.4159   -5.7654   -6.5465 H   0  0  0  0  0  0  0  0  0  0  0  0
   10.2666   -7.1335   -6.2677 H   0  0  0  0  0  0  0  0  0  0  0  0
    9.7911   -8.5427   -7.1794 H   0  0  0  0  0  0  0  0  0  0  0  0
    8.6717   -7.8665   -5.9771 H   0  0  0  0  0  0  0  0  0  0  0  0
    7.4313   -6.8968   -9.3663 H   0  0  0  0  0  0  0  0  0  0  0  0
    6.9903   -7.8157   -7.9090 H   0  0  0  0  0  0  0  0  0  0  0  0
    8.2688   -8.3957   -8.9976 H   0  0  0  0  0  0  0  0  0  0  0  0
   10.5805   -2.1538   -0.2512 H   0  0  0  0  0  0  0  0  0  0  0  0
   10.5946   -2.5505    2.1842 H   0  0  0  0  0  0  0  0  0  0  0  0
    8.8865   -2.5528    4.4162 H   0  0  0  0  0  0  0  0  0  0  0  0
  1  2  1  0  0  0  0
  1 28  1  0  0  0  0
  1 29  1  0  0  0  0
  1 30  1  0  0  0  0
  2  3  2  0  0  0  0
  2 27  1  0  0  0  0
  3  4  1  0  0  0  0
  3 31  1  0  0  0  0
  4  5  1  0  0  0  0
  4 26  2  0  0  0  0
  5  6  1  0  0  0  0
  5  7  2  0  0  0  0
  7  8  1  0  0  0  0
  7 24  1  0  0  0  0
  8  9  1  0  0  0  0
  9 10  1  0  0  0  0
  9 15  2  0  0  0  0
 10 11  2  0  0  0  0
 11 12  1  0  0  0  0
 11 32  1  0  0  0  0
 12 13  2  0  0  0  0
 13 14  1  0  0  0  0
 13 15  1  0  0  0  0
 14 33  1  0  0  0  0
 14 34  1  0  0  0  0
 15 16  1  0  0  0  0
 16 17  2  0  0  0  0
 16 35  1  0  0  0  0
 17 18  1  0  0  0  0
 18 19  1  0  0  0  0
 19 20  1  0  0  0  0
 19 36  1  0  0  0  0
 19 37  1  0  0  0  0
 20 21  1  0  0  0  0
 20 38  1  0  0  0  0
 20 39  1  0  0  0  0
 21 22  1  0  0  0  0
 21 23  1  0  0  0  0
 22 40  1  0  0  0  0
 22 41  1  0  0  0  0
 22 42  1  0  0  0  0
 23 43  1  0  0  0  0
 23 44  1  0  0  0  0
 23 45  1  0  0  0  0
 24 25  2  0  0  0  0
 24 46  1  0  0  0  0
 25 26  1  0  0  0  0
 25 47  1  0  0  0  0
 26 27  1  0  0  0  0
 27 48  1  0  0  0  0
M  END
$$$$
