CHEMBL565885
 OpenBabel04072215383D

 56 60  0  0  0  0  0  0  0  0999 V2000
    2.7395  -11.9469    2.1891 C   0  0  0  0  0  0  0  0  0  0  0  0
    3.4266  -11.0747    3.1228 N   0  0  0  0  0  0  0  0  0  0  0  0
    3.8671   -9.8394    2.6555 C   0  0  0  0  0  0  0  0  0  0  0  0
    3.0445   -8.9585    2.0013 C   0  0  0  0  0  0  0  0  0  0  0  0
    3.6039   -7.7456    1.5869 C   0  0  0  0  0  0  0  0  0  0  0  0
    2.8753   -6.7826    0.7460 C   0  0  0  0  0  0  0  0  0  0  0  0
    2.1063   -7.3243   -0.3193 C   0  0  0  0  0  0  0  0  0  0  0  0
    1.4000   -6.5013   -1.1718 C   0  0  0  0  0  0  0  0  0  0  0  0
    1.4776   -5.1433   -0.9293 C   0  0  0  0  0  0  0  0  0  0  0  0
    2.1947   -4.5644    0.0796 N   0  0  0  0  0  0  0  0  0  0  0  0
    2.9121   -5.3598    0.9143 C   0  0  0  0  0  0  0  0  0  0  0  0
    3.7406   -4.7958    1.9506 N   0  0  0  0  0  0  0  0  0  0  0  0
    3.7245   -3.5420    2.6292 C   0  0  0  0  0  0  0  0  0  0  0  0
    3.9024   -2.2951    1.9914 C   0  0  0  0  0  0  0  0  0  0  0  0
    5.2324   -1.8819    1.3542 C   0  0  0  0  0  0  0  0  0  0  0  0
    3.3076   -1.2212    2.6336 C   0  0  0  0  0  0  0  0  0  0  0  0
    3.7857   -1.1036    3.9196 C   0  0  0  0  0  0  0  0  0  0  0  0
    3.7141   -2.2381    4.7254 C   0  0  0  0  0  0  0  0  0  0  0  0
    3.8084   -2.1450    6.1301 C   0  0  0  0  0  0  0  0  0  0  0  0
    4.0348   -0.8651    6.7230 N   0  0  0  0  0  0  0  0  0  0  0  0
    4.3795   -0.6595    8.0740 C   0  0  0  0  0  0  0  0  0  0  0  0
    5.3556   -1.4567    8.6853 C   0  0  0  0  0  0  0  0  0  0  0  0
    5.5917   -1.3744   10.0558 C   0  0  0  0  0  0  0  0  0  0  0  0
    4.8699   -0.4648   10.8202 C   0  0  0  0  0  0  0  0  0  0  0  0
    5.0600   -0.4514   12.5296 Cl  0  0  0  0  0  0  0  0  0  0  0  0
    3.9737    0.4130   10.2123 C   0  0  0  0  0  0  0  0  0  0  0  0
    3.7410    0.3272    8.8357 C   0  0  0  0  0  0  0  0  0  0  0  0
    3.6282   -3.2266    6.9143 N   0  0  0  0  0  0  0  0  0  0  0  0
    3.3710   -4.4041    6.3124 C   0  0  0  0  0  0  0  0  0  0  0  0
    3.3581   -4.5958    4.9367 C   0  0  0  0  0  0  0  0  0  0  0  0
    3.5642   -3.4968    4.0782 C   0  0  0  0  0  0  0  0  0  0  0  0
    4.8754   -7.4215    1.8891 N   0  0  0  0  0  0  0  0  0  0  0  0
    5.5911   -8.3488    2.5261 C   0  0  0  0  0  0  0  0  0  0  0  0
    5.1477   -9.5490    2.9210 N   0  0  0  0  0  0  0  0  0  0  0  0
    2.4550  -12.8708    2.7058 H   0  0  0  0  0  0  0  0  0  0  0  0
    3.3882  -12.2237    1.3507 H   0  0  0  0  0  0  0  0  0  0  0  0
    1.8179  -11.5017    1.8013 H   0  0  0  0  0  0  0  0  0  0  0  0
    4.2472  -11.5206    3.5309 H   0  0  0  0  0  0  0  0  0  0  0  0
    2.0097   -9.1929    1.7979 H   0  0  0  0  0  0  0  0  0  0  0  0
    2.0804   -8.3995   -0.5018 H   0  0  0  0  0  0  0  0  0  0  0  0
    0.8225   -6.9087   -1.9966 H   0  0  0  0  0  0  0  0  0  0  0  0
    0.9456   -4.4536   -1.5809 H   0  0  0  0  0  0  0  0  0  0  0  0
    4.0322   -5.5463    2.5679 H   0  0  0  0  0  0  0  0  0  0  0  0
    5.5697   -0.9245    1.7970 H   0  0  0  0  0  0  0  0  0  0  0  0
    5.1204   -1.6882    0.2864 H   0  0  0  0  0  0  0  0  0  0  0  0
    6.0438   -2.5837    1.5578 H   0  0  0  0  0  0  0  0  0  0  0  0
    2.2038   -1.3607    2.6458 H   0  0  0  0  0  0  0  0  0  0  0  0
    4.5189   -0.3373    4.1738 H   0  0  0  0  0  0  0  0  0  0  0  0
    3.3161   -0.2265    6.3985 H   0  0  0  0  0  0  0  0  0  0  0  0
    5.9065   -2.1821    8.0909 H   0  0  0  0  0  0  0  0  0  0  0  0
    6.3096   -2.0470   10.5141 H   0  0  0  0  0  0  0  0  0  0  0  0
    3.4293    1.1407   10.8076 H   0  0  0  0  0  0  0  0  0  0  0  0
    3.0200    1.0016    8.3816 H   0  0  0  0  0  0  0  0  0  0  0  0
    3.1718   -5.2251    6.9969 H   0  0  0  0  0  0  0  0  0  0  0  0
    3.1917   -5.5970    4.5561 H   0  0  0  0  0  0  0  0  0  0  0  0
    6.6279   -8.1065    2.7454 H   0  0  0  0  0  0  0  0  0  0  0  0
  1  2  1  0  0  0  0
  1 35  1  0  0  0  0
  1 36  1  0  0  0  0
  1 37  1  0  0  0  0
  2  3  1  0  0  0  0
  2 38  1  0  0  0  0
  3  4  1  0  0  0  0
  3 34  2  0  0  0  0
  4  5  2  0  0  0  0
  4 39  1  0  0  0  0
  5  6  1  0  0  0  0
  5 32  1  0  0  0  0
  6  7  1  0  0  0  0
  6 11  2  0  0  0  0
  7  8  2  0  0  0  0
  7 40  1  0  0  0  0
  8  9  1  0  0  0  0
  8 41  1  0  0  0  0
  9 10  2  0  0  0  0
  9 42  1  0  0  0  0
 10 11  1  0  0  0  0
 11 12  1  0  0  0  0
 12 13  1  0  0  0  0
 12 43  1  0  0  0  0
 13 14  1  0  0  0  0
 13 31  2  0  0  0  0
 14 15  1  0  0  0  0
 14 16  2  0  0  0  0
 15 44  1  0  0  0  0
 15 45  1  0  0  0  0
 15 46  1  0  0  0  0
 16 17  1  0  0  0  0
 16 47  1  0  0  0  0
 17 18  2  0  0  0  0
 17 48  1  0  0  0  0
 18 19  1  0  0  0  0
 18 31  1  0  0  0  0
 19 20  1  0  0  0  0
 19 28  2  0  0  0  0
 20 21  1  0  0  0  0
 20 49  1  0  0  0  0
 21 22  1  0  0  0  0
 21 27  2  0  0  0  0
 22 23  2  0  0  0  0
 22 50  1  0  0  0  0
 23 24  1  0  0  0  0
 23 51  1  0  0  0  0
 24 25  1  0  0  0  0
 24 26  2  0  0  0  0
 26 27  1  0  0  0  0
 26 52  1  0  0  0  0
 27 53  1  0  0  0  0
 28 29  1  0  0  0  0
 29 30  2  0  0  0  0
 29 54  1  0  0  0  0
 30 31  1  0  0  0  0
 30 55  1  0  0  0  0
 32 33  2  0  0  0  0
 33 34  1  0  0  0  0
 33 56  1  0  0  0  0
M  END
$$$$
