CHEMBL4076112
 OpenBabel04072215383D

 50 53  0  0  0  0  0  0  0  0999 V2000
    2.9723    0.8946    2.1628 C   0  0  0  0  0  0  0  0  0  0  0  0
    2.6346    0.1016    0.9845 N   0  0  0  0  0  0  0  0  0  0  0  0
    3.5061    0.4405   -0.1510 C   0  0  0  0  0  0  0  0  0  0  0  0
    4.9691    0.1126    0.0684 C   0  0  0  0  0  0  0  0  0  0  0  0
    5.3412   -1.1737    0.4085 C   0  0  0  0  0  0  0  0  0  0  0  0
    6.6940   -1.4312    0.4693 C   0  0  0  0  0  0  0  0  0  0  0  0
    7.2152   -2.6900    0.6960 O   0  0  0  0  0  0  0  0  0  0  0  0
    6.5434   -3.8051    0.2361 C   0  0  0  0  0  0  0  0  0  0  0  0
    5.8022   -3.8473   -0.9455 C   0  0  0  0  0  0  0  0  0  0  0  0
    5.0609   -4.9827   -1.3010 C   0  0  0  0  0  0  0  0  0  0  0  0
    5.1415   -6.1126   -0.4697 C   0  0  0  0  0  0  0  0  0  0  0  0
    5.9496   -6.1185    0.6744 C   0  0  0  0  0  0  0  0  0  0  0  0
    5.8212   -7.3915    1.2818 C   0  0  0  0  0  0  0  0  0  0  0  0
    4.8750   -8.0914    0.5741 C   0  0  0  0  0  0  0  0  0  0  0  0
    4.4513   -7.3261   -0.4981 N   0  0  0  0  0  0  0  0  0  0  0  0
    3.3721   -7.6708   -1.3331 C   0  0  0  0  0  0  0  0  0  0  0  0
    2.3004   -7.9542   -0.8210 O   0  0  0  0  0  0  0  0  0  0  0  0
    3.7742   -7.8051   -2.6445 N   0  0  0  0  0  0  0  0  0  0  0  0
    2.8874   -8.3445   -3.5539 C   0  0  0  0  0  0  0  0  0  0  0  0
    1.5434   -7.9693   -3.7690 C   0  0  0  0  0  0  0  0  0  0  0  0
    1.0773   -8.8207   -4.7501 C   0  0  0  0  0  0  0  0  0  0  0  0
   -0.2180   -8.9042   -5.4446 C   0  0  0  0  0  0  0  0  0  0  0  0
   -1.0449   -7.8805   -5.1211 F   0  0  0  0  0  0  0  0  0  0  0  0
   -0.0601   -8.8717   -6.7923 F   0  0  0  0  0  0  0  0  0  0  0  0
   -0.8736  -10.0548   -5.1553 F   0  0  0  0  0  0  0  0  0  0  0  0
    2.1029   -9.6928   -4.9844 N   0  0  0  0  0  0  0  0  0  0  0  0
    2.0666  -10.9424   -5.7134 C   0  0  0  0  0  0  0  0  0  0  0  0
    3.2563   -9.3246   -4.3784 N   0  0  0  0  0  0  0  0  0  0  0  0
    6.6676   -4.9530    1.0244 C   0  0  0  0  0  0  0  0  0  0  0  0
    7.6220   -0.4649    0.3434 N   0  0  0  0  0  0  0  0  0  0  0  0
    7.1564    0.7632    0.0823 C   0  0  0  0  0  0  0  0  0  0  0  0
    5.8711    1.1032   -0.0945 N   0  0  0  0  0  0  0  0  0  0  0  0
    2.2738    0.6550    2.9696 H   0  0  0  0  0  0  0  0  0  0  0  0
    2.9020    1.9675    1.9582 H   0  0  0  0  0  0  0  0  0  0  0  0
    3.9769    0.6646    2.5321 H   0  0  0  0  0  0  0  0  0  0  0  0
    1.6722    0.3081    0.7188 H   0  0  0  0  0  0  0  0  0  0  0  0
    3.3903    1.4979   -0.4185 H   0  0  0  0  0  0  0  0  0  0  0  0
    3.1702   -0.1346   -1.0237 H   0  0  0  0  0  0  0  0  0  0  0  0
    4.5922   -1.9344    0.5858 H   0  0  0  0  0  0  0  0  0  0  0  0
    5.7516   -2.9772   -1.5968 H   0  0  0  0  0  0  0  0  0  0  0  0
    4.4197   -4.9602   -2.1767 H   0  0  0  0  0  0  0  0  0  0  0  0
    6.3223   -7.7362    2.1781 H   0  0  0  0  0  0  0  0  0  0  0  0
    4.4513   -9.0749    0.7338 H   0  0  0  0  0  0  0  0  0  0  0  0
    4.7411   -8.0512   -2.8187 H   0  0  0  0  0  0  0  0  0  0  0  0
    0.9935   -7.1674   -3.2943 H   0  0  0  0  0  0  0  0  0  0  0  0
    1.1178  -11.0492   -6.2419 H   0  0  0  0  0  0  0  0  0  0  0  0
    2.1710  -11.7568   -4.9901 H   0  0  0  0  0  0  0  0  0  0  0  0
    2.8911  -10.9558   -6.4286 H   0  0  0  0  0  0  0  0  0  0  0  0
    7.2734   -4.9350    1.9257 H   0  0  0  0  0  0  0  0  0  0  0  0
    7.8885    1.5593   -0.0011 H   0  0  0  0  0  0  0  0  0  0  0  0
  1  2  1  0  0  0  0
  1 33  1  0  0  0  0
  1 34  1  0  0  0  0
  1 35  1  0  0  0  0
  2  3  1  0  0  0  0
  2 36  1  0  0  0  0
  3  4  1  0  0  0  0
  3 37  1  0  0  0  0
  3 38  1  0  0  0  0
  4  5  1  0  0  0  0
  4 32  2  0  0  0  0
  5  6  2  0  0  0  0
  5 39  1  0  0  0  0
  6  7  1  0  0  0  0
  6 30  1  0  0  0  0
  7  8  1  0  0  0  0
  8  9  1  0  0  0  0
  8 29  2  0  0  0  0
  9 10  2  0  0  0  0
  9 40  1  0  0  0  0
 10 11  1  0  0  0  0
 10 41  1  0  0  0  0
 11 12  2  0  0  0  0
 11 15  1  0  0  0  0
 12 13  1  0  0  0  0
 12 29  1  0  0  0  0
 13 14  2  0  0  0  0
 13 42  1  0  0  0  0
 14 15  1  0  0  0  0
 14 43  1  0  0  0  0
 15 16  1  0  0  0  0
 16 17  2  0  0  0  0
 16 18  1  0  0  0  0
 18 19  1  0  0  0  0
 18 44  1  0  0  0  0
 19 20  1  0  0  0  0
 19 28  2  0  0  0  0
 20 21  2  0  0  0  0
 20 45  1  0  0  0  0
 21 22  1  0  0  0  0
 21 26  1  0  0  0  0
 22 23  1  0  0  0  0
 22 24  1  0  0  0  0
 22 25  1  0  0  0  0
 26 27  1  0  0  0  0
 26 28  1  0  0  0  0
 27 46  1  0  0  0  0
 27 47  1  0  0  0  0
 27 48  1  0  0  0  0
 29 49  1  0  0  0  0
 30 31  2  0  0  0  0
 31 32  1  0  0  0  0
 31 50  1  0  0  0  0
M  END
$$$$
