CHEMBL269916
 OpenBabel04072215363D

 56 60  0  0  0  0  0  0  0  0999 V2000
    5.0667   -2.0780   -0.2590 C   0  0  0  0  0  0  0  0  0  0  0  0
    3.9488   -1.3558    0.2620 O   0  0  0  0  0  0  0  0  0  0  0  0
    4.2430   -0.3325    1.1222 C   0  0  0  0  0  0  0  0  0  0  0  0
    5.4693    0.3545    1.0729 C   0  0  0  0  0  0  0  0  0  0  0  0
    5.8656    1.2519    2.0560 C   0  0  0  0  0  0  0  0  0  0  0  0
    7.1160    1.7382    1.9996 N   0  0  0  0  0  0  0  0  0  0  0  0
    7.5478    2.5122    3.0148 C   0  0  0  0  0  0  0  0  0  0  0  0
    6.7901    2.8009    4.1286 C   0  0  0  0  0  0  0  0  0  0  0  0
    5.4918    2.2992    4.1908 C   0  0  0  0  0  0  0  0  0  0  0  0
    4.8599    2.5857    5.3925 O   0  0  0  0  0  0  0  0  0  0  0  0
    3.9132    1.7368    5.9187 C   0  0  0  0  0  0  0  0  0  0  0  0
    3.9379    0.3527    5.8029 C   0  0  0  0  0  0  0  0  0  0  0  0
    2.7721   -0.3783    6.0628 C   0  0  0  0  0  0  0  0  0  0  0  0
    1.6128    0.2209    6.6144 C   0  0  0  0  0  0  0  0  0  0  0  0
    0.3658   -0.4364    6.8792 C   0  0  0  0  0  0  0  0  0  0  0  0
    0.0277   -1.8476    6.5046 C   0  0  0  0  0  0  0  0  0  0  0  0
   -1.1096   -2.0689    6.0978 O   0  0  0  0  0  0  0  0  0  0  0  0
    0.9939   -2.8112    6.7287 N   0  0  0  0  0  0  0  0  0  0  0  0
    0.8632   -4.2005    6.4923 C   0  0  0  0  0  0  0  0  0  0  0  0
   -0.2188   -4.7828    5.8235 C   0  0  0  0  0  0  0  0  0  0  0  0
   -0.3206   -6.1727    5.7219 C   0  0  0  0  0  0  0  0  0  0  0  0
   -1.6800   -6.8755    4.9314 Cl  0  0  0  0  0  0  0  0  0  0  0  0
    0.6559   -6.9993    6.2657 C   0  0  0  0  0  0  0  0  0  0  0  0
    1.7564   -6.4203    6.8870 C   0  0  0  0  0  0  0  0  0  0  0  0
    2.9791   -7.4262    7.5622 Cl  0  0  0  0  0  0  0  0  0  0  0  0
    1.8722   -5.0318    6.9909 C   0  0  0  0  0  0  0  0  0  0  0  0
   -0.7066    0.2750    7.4545 C   0  0  0  0  0  0  0  0  0  0  0  0
   -0.5811    1.6198    7.7736 C   0  0  0  0  0  0  0  0  0  0  0  0
    0.6062    2.2796    7.4884 C   0  0  0  0  0  0  0  0  0  0  0  0
    1.6873    1.6079    6.9021 C   0  0  0  0  0  0  0  0  0  0  0  0
    2.8269    2.3470    6.5377 C   0  0  0  0  0  0  0  0  0  0  0  0
    4.9692    1.5661    3.0895 C   0  0  0  0  0  0  0  0  0  0  0  0
    3.6462    1.0865    2.9588 C   0  0  0  0  0  0  0  0  0  0  0  0
    3.3008    0.0671    2.0656 C   0  0  0  0  0  0  0  0  0  0  0  0
    2.0515   -0.4202    2.3257 O   0  0  0  0  0  0  0  0  0  0  0  0
    1.6328   -1.6520    1.7619 C   0  0  0  0  0  0  0  0  0  0  0  0
    4.7660   -3.1211   -0.3938 H   0  0  0  0  0  0  0  0  0  0  0  0
    5.9352   -2.0856    0.4111 H   0  0  0  0  0  0  0  0  0  0  0  0
    5.3421   -1.6682   -1.2354 H   0  0  0  0  0  0  0  0  0  0  0  0
    6.1838    0.1548    0.2787 H   0  0  0  0  0  0  0  0  0  0  0  0
    8.5647    2.8811    2.9154 H   0  0  0  0  0  0  0  0  0  0  0  0
    7.2050    3.3879    4.9398 H   0  0  0  0  0  0  0  0  0  0  0  0
    4.7944   -0.1564    5.3684 H   0  0  0  0  0  0  0  0  0  0  0  0
    2.7804   -1.4165    5.7424 H   0  0  0  0  0  0  0  0  0  0  0  0
    1.8210   -2.5168    7.2321 H   0  0  0  0  0  0  0  0  0  0  0  0
   -1.0044   -4.1794    5.3788 H   0  0  0  0  0  0  0  0  0  0  0  0
    0.5580   -8.0794    6.2062 H   0  0  0  0  0  0  0  0  0  0  0  0
    2.7409   -4.6099    7.4892 H   0  0  0  0  0  0  0  0  0  0  0  0
   -1.6566   -0.2239    7.6423 H   0  0  0  0  0  0  0  0  0  0  0  0
   -1.4197    2.1577    8.2101 H   0  0  0  0  0  0  0  0  0  0  0  0
    0.6687    3.3469    7.7057 H   0  0  0  0  0  0  0  0  0  0  0  0
    2.8446    3.4289    6.6730 H   0  0  0  0  0  0  0  0  0  0  0  0
    2.8683    1.4277    3.6365 H   0  0  0  0  0  0  0  0  0  0  0  0
    0.7888   -2.0122    2.3625 H   0  0  0  0  0  0  0  0  0  0  0  0
    2.4005   -2.4300    1.8066 H   0  0  0  0  0  0  0  0  0  0  0  0
    1.2700   -1.4907    0.7440 H   0  0  0  0  0  0  0  0  0  0  0  0
  1  2  1  0  0  0  0
  1 37  1  0  0  0  0
  1 38  1  0  0  0  0
  1 39  1  0  0  0  0
  2  3  1  0  0  0  0
  3  4  1  0  0  0  0
  3 34  2  0  0  0  0
  4  5  2  0  0  0  0
  4 40  1  0  0  0  0
  5  6  1  0  0  0  0
  5 32  1  0  0  0  0
  6  7  2  0  0  0  0
  7  8  1  0  0  0  0
  7 41  1  0  0  0  0
  8  9  2  0  0  0  0
  8 42  1  0  0  0  0
  9 10  1  0  0  0  0
  9 32  1  0  0  0  0
 10 11  1  0  0  0  0
 11 12  1  0  0  0  0
 11 31  2  0  0  0  0
 12 13  2  0  0  0  0
 12 43  1  0  0  0  0
 13 14  1  0  0  0  0
 13 44  1  0  0  0  0
 14 15  1  0  0  0  0
 14 30  2  0  0  0  0
 15 16  1  0  0  0  0
 15 27  2  0  0  0  0
 16 17  2  0  0  0  0
 16 18  1  0  0  0  0
 18 19  1  0  0  0  0
 18 45  1  0  0  0  0
 19 20  1  0  0  0  0
 19 26  2  0  0  0  0
 20 21  2  0  0  0  0
 20 46  1  0  0  0  0
 21 22  1  0  0  0  0
 21 23  1  0  0  0  0
 23 24  2  0  0  0  0
 23 47  1  0  0  0  0
 24 25  1  0  0  0  0
 24 26  1  0  0  0  0
 26 48  1  0  0  0  0
 27 28  1  0  0  0  0
 27 49  1  0  0  0  0
 28 29  2  0  0  0  0
 28 50  1  0  0  0  0
 29 30  1  0  0  0  0
 29 51  1  0  0  0  0
 30 31  1  0  0  0  0
 31 52  1  0  0  0  0
 32 33  2  0  0  0  0
 33 34  1  0  0  0  0
 33 53  1  0  0  0  0
 34 35  1  0  0  0  0
 35 36  1  0  0  0  0
 36 54  1  0  0  0  0
 36 55  1  0  0  0  0
 36 56  1  0  0  0  0
M  END
$$$$
