CHEMBL516645
 OpenBabel04072215383D

 45 49  0  0  0  0  0  0  0  0999 V2000
    1.3749   -0.2299    0.0489 C   0  0  0  0  0  0  0  0  0  0  0  0
    0.5375   -1.3230   -0.1028 C   0  0  0  0  0  0  0  0  0  0  0  0
   -0.8377   -1.1242   -0.2053 C   0  0  0  0  0  0  0  0  0  0  0  0
   -1.4020    0.1632   -0.1215 C   0  0  0  0  0  0  0  0  0  0  0  0
   -2.8445    0.2590   -0.3125 C   0  0  0  0  0  0  0  0  0  0  0  0
   -3.7039    1.2011    0.1953 C   0  0  0  0  0  0  0  0  0  0  0  0
   -4.9333    0.8889   -0.3294 N   0  0  0  0  0  0  0  0  0  0  0  0
   -6.1577    1.5904   -0.1835 C   0  0  0  0  0  0  0  0  0  0  0  0
   -6.2116    2.7760    0.5672 C   0  0  0  0  0  0  0  0  0  0  0  0
   -7.4192    3.4544    0.7683 C   0  0  0  0  0  0  0  0  0  0  0  0
   -8.5597    2.9104    0.1755 C   0  0  0  0  0  0  0  0  0  0  0  0
   -9.8741    3.2958    0.2077 N   0  0  0  0  0  0  0  0  0  0  0  0
  -10.6865    2.5415   -0.5531 N   0  0  0  0  0  0  0  0  0  0  0  0
   -9.8660    1.6163   -1.0583 C   0  0  0  0  0  0  0  0  0  0  0  0
   -8.5328    1.7698   -0.6175 C   0  0  0  0  0  0  0  0  0  0  0  0
   -7.3179    1.0853   -0.8020 C   0  0  0  0  0  0  0  0  0  0  0  0
   -4.8376   -0.2535   -1.0521 N   0  0  0  0  0  0  0  0  0  0  0  0
   -3.5691   -0.6405   -1.0516 N   0  0  0  0  0  0  0  0  0  0  0  0
   -0.5622    1.2787    0.1247 C   0  0  0  0  0  0  0  0  0  0  0  0
   -1.0809    2.5879    0.2400 N   0  0  0  0  0  0  0  0  0  0  0  0
   -0.2789    3.5632    0.9786 C   0  0  0  0  0  0  0  0  0  0  0  0
   -1.1308    4.6913    1.5068 C   0  0  0  0  0  0  0  0  0  0  0  0
   -2.2212    4.4383    2.3476 C   0  0  0  0  0  0  0  0  0  0  0  0
   -2.9098    5.5102    2.8919 C   0  0  0  0  0  0  0  0  0  0  0  0
   -2.5893    6.8010    2.6648 N   0  0  0  0  0  0  0  0  0  0  0  0
   -1.5303    7.0288    1.8603 C   0  0  0  0  0  0  0  0  0  0  0  0
   -0.7821    6.0243    1.2652 C   0  0  0  0  0  0  0  0  0  0  0  0
    0.8306    1.0545    0.1479 C   0  0  0  0  0  0  0  0  0  0  0  0
    2.4521   -0.3692    0.0897 H   0  0  0  0  0  0  0  0  0  0  0  0
    0.9485   -2.3275   -0.1624 H   0  0  0  0  0  0  0  0  0  0  0  0
   -1.4791   -1.9927   -0.3493 H   0  0  0  0  0  0  0  0  0  0  0  0
   -3.5366    2.0453    0.8395 H   0  0  0  0  0  0  0  0  0  0  0  0
   -5.3222    3.2086    1.0179 H   0  0  0  0  0  0  0  0  0  0  0  0
   -7.4571    4.3649    1.3579 H   0  0  0  0  0  0  0  0  0  0  0  0
  -10.2803    4.0617    0.7326 H   0  0  0  0  0  0  0  0  0  0  0  0
  -10.2690    0.8659   -1.7258 H   0  0  0  0  0  0  0  0  0  0  0  0
   -7.2973    0.1826   -1.4073 H   0  0  0  0  0  0  0  0  0  0  0  0
   -1.3253    2.9361   -0.6874 H   0  0  0  0  0  0  0  0  0  0  0  0
    0.5065    3.9607    0.3254 H   0  0  0  0  0  0  0  0  0  0  0  0
    0.2031    3.1014    1.8501 H   0  0  0  0  0  0  0  0  0  0  0  0
   -2.5102    3.4214    2.5940 H   0  0  0  0  0  0  0  0  0  0  0  0
   -3.7538    5.3543    3.5576 H   0  0  0  0  0  0  0  0  0  0  0  0
   -1.2795    8.0750    1.7116 H   0  0  0  0  0  0  0  0  0  0  0  0
    0.0703    6.2847    0.6464 H   0  0  0  0  0  0  0  0  0  0  0  0
    1.5321    1.8772    0.2385 H   0  0  0  0  0  0  0  0  0  0  0  0
  1  2  1  0  0  0  0
  1 28  2  0  0  0  0
  1 29  1  0  0  0  0
  2  3  2  0  0  0  0
  2 30  1  0  0  0  0
  3  4  1  0  0  0  0
  3 31  1  0  0  0  0
  4  5  1  0  0  0  0
  4 19  2  0  0  0  0
  5  6  2  0  0  0  0
  5 18  1  0  0  0  0
  6  7  1  0  0  0  0
  6 32  1  0  0  0  0
  7  8  1  0  0  0  0
  7 17  1  0  0  0  0
  8  9  1  0  0  0  0
  8 16  2  0  0  0  0
  9 10  2  0  0  0  0
  9 33  1  0  0  0  0
 10 11  1  0  0  0  0
 10 34  1  0  0  0  0
 11 12  1  0  0  0  0
 11 15  2  0  0  0  0
 12 13  1  0  0  0  0
 12 35  1  0  0  0  0
 13 14  2  0  0  0  0
 14 15  1  0  0  0  0
 14 36  1  0  0  0  0
 15 16  1  0  0  0  0
 16 37  1  0  0  0  0
 17 18  2  0  0  0  0
 19 20  1  0  0  0  0
 19 28  1  0  0  0  0
 20 21  1  0  0  0  0
 20 38  1  0  0  0  0
 21 22  1  0  0  0  0
 21 39  1  0  0  0  0
 21 40  1  0  0  0  0
 22 23  1  0  0  0  0
 22 27  2  0  0  0  0
 23 24  2  0  0  0  0
 23 41  1  0  0  0  0
 24 25  1  0  0  0  0
 24 42  1  0  0  0  0
 25 26  2  0  0  0  0
 26 27  1  0  0  0  0
 26 43  1  0  0  0  0
 27 44  1  0  0  0  0
 28 45  1  0  0  0  0
M  END
$$$$
