CHEMBL248220
 OpenBabel04072215363D

 55 59  0  0  1  0  0  0  0  0999 V2000
    3.2793    0.1925    1.3134 C   0  0  0  0  0  0  0  0  0  0  0  0
    2.4935    0.3008    0.1308 O   0  0  0  0  0  0  0  0  0  0  0  0
    3.1121   -0.0181   -1.0483 C   0  0  0  0  0  0  0  0  0  0  0  0
    4.1824   -0.9086   -1.0964 C   0  0  0  0  0  0  0  0  0  0  0  0
    4.8124   -1.2473   -2.2760 C   0  0  0  0  0  0  0  0  0  0  0  0
    5.7943   -2.1390   -2.1508 N   0  0  0  0  0  0  0  0  0  0  0  0
    6.3580   -2.6013   -3.2755 C   0  0  0  0  0  0  0  0  0  0  0  0
    6.0276   -2.1675   -4.5485 C   0  0  0  0  0  0  0  0  0  0  0  0
    6.6082   -2.9195   -5.6074 C   0  0  0  0  0  0  0  0  0  0  0  0
    7.1103   -3.6354   -6.3682 N   0  0  0  0  0  0  0  0  0  0  0  0
    5.1086   -1.1184   -4.6892 C   0  0  0  0  0  0  0  0  0  0  0  0
    4.7532   -0.5458   -5.9448 N   0  0  0  0  0  0  0  0  0  0  0  0
    5.5512   -0.6260   -7.1944 C   0  0  2  0  0  0  0  0  0  0  0  0
    4.9134    0.0423   -8.3805 C   0  0  0  0  0  0  0  0  0  0  0  0
    5.0847   -1.4606   -8.3652 C   0  0  1  0  0  0  0  0  0  0  0  0
    5.8367   -2.0082   -9.5608 C   0  0  0  0  0  0  0  0  0  0  0  0
    7.0830   -2.6457   -9.5201 C   0  0  0  0  0  0  0  0  0  0  0  0
    7.6146   -3.2810  -10.6534 C   0  0  0  0  0  0  0  0  0  0  0  0
    6.9202   -3.2693  -11.8607 C   0  0  0  0  0  0  0  0  0  0  0  0
    5.7083   -2.5984  -11.9450 C   0  0  0  0  0  0  0  0  0  0  0  0
    5.1840   -1.9772  -10.8111 C   0  0  0  0  0  0  0  0  0  0  0  0
    4.4020   -0.6890   -3.5029 C   0  0  0  0  0  0  0  0  0  0  0  0
    3.3005    0.2171   -3.4474 C   0  0  0  0  0  0  0  0  0  0  0  0
    2.6384    0.5262   -2.2462 C   0  0  0  0  0  0  0  0  0  0  0  0
    1.5667    1.3722   -2.3993 O   0  0  0  0  0  0  0  0  0  0  0  0
    0.5703    1.3308   -1.3733 C   0  0  0  0  0  0  0  0  0  0  0  0
   -0.7107    1.9409   -1.8855 C   0  0  0  0  0  0  0  0  0  0  0  0
   -1.8585    1.1512   -2.0358 C   0  0  0  0  0  0  0  0  0  0  0  0
   -3.0481    1.7195   -2.4884 C   0  0  0  0  0  0  0  0  0  0  0  0
   -3.1047    3.0804   -2.7845 C   0  0  0  0  0  0  0  0  0  0  0  0
   -1.9697    3.8748   -2.6350 C   0  0  0  0  0  0  0  0  0  0  0  0
   -0.7761    3.3082   -2.1875 C   0  0  0  0  0  0  0  0  0  0  0  0
    2.7183    0.6559    2.1295 H   0  0  0  0  0  0  0  0  0  0  0  0
    4.2273    0.7301    1.2052 H   0  0  0  0  0  0  0  0  0  0  0  0
    3.4454   -0.8552    1.5838 H   0  0  0  0  0  0  0  0  0  0  0  0
    4.5393   -1.4011   -0.1966 H   0  0  0  0  0  0  0  0  0  0  0  0
    7.0957   -3.3859   -3.1151 H   0  0  0  0  0  0  0  0  0  0  0  0
    4.2797    0.3480   -5.8312 H   0  0  0  0  0  0  0  0  0  0  0  0
    6.6088   -0.4155   -7.0596 H   0  0  0  0  0  0  0  0  0  0  0  0
    5.5594    0.6435   -9.0121 H   0  0  0  0  0  0  0  0  0  0  0  0
    3.8966    0.4094   -8.3170 H   0  0  0  0  0  0  0  0  0  0  0  0
    4.2177   -2.0697   -8.1123 H   0  0  0  0  0  0  0  0  0  0  0  0
    7.6474   -2.6963   -8.5948 H   0  0  0  0  0  0  0  0  0  0  0  0
    8.5617   -3.8111  -10.5829 H   0  0  0  0  0  0  0  0  0  0  0  0
    7.3162   -3.7889  -12.7289 H   0  0  0  0  0  0  0  0  0  0  0  0
    5.1525   -2.5779  -12.8779 H   0  0  0  0  0  0  0  0  0  0  0  0
    4.2181   -1.4808  -10.8869 H   0  0  0  0  0  0  0  0  0  0  0  0
    2.9017    0.6602   -4.3598 H   0  0  0  0  0  0  0  0  0  0  0  0
    0.8927    1.9185   -0.5053 H   0  0  0  0  0  0  0  0  0  0  0  0
    0.3663    0.2961   -1.0696 H   0  0  0  0  0  0  0  0  0  0  0  0
   -1.8348    0.0897   -1.8014 H   0  0  0  0  0  0  0  0  0  0  0  0
   -3.9360    1.1029   -2.5994 H   0  0  0  0  0  0  0  0  0  0  0  0
   -4.0347    3.5215   -3.1344 H   0  0  0  0  0  0  0  0  0  0  0  0
   -2.0131    4.9354   -2.8672 H   0  0  0  0  0  0  0  0  0  0  0  0
    0.1056    3.9345   -2.0706 H   0  0  0  0  0  0  0  0  0  0  0  0
  1  2  1  0  0  0  0
  1 33  1  0  0  0  0
  1 34  1  0  0  0  0
  1 35  1  0  0  0  0
  2  3  1  0  0  0  0
  3  4  1  0  0  0  0
  3 24  2  0  0  0  0
  4  5  2  0  0  0  0
  4 36  1  0  0  0  0
  5  6  1  0  0  0  0
  5 22  1  0  0  0  0
  6  7  2  0  0  0  0
  7  8  1  0  0  0  0
  7 37  1  0  0  0  0
  8  9  1  0  0  0  0
  8 11  2  0  0  0  0
  9 10  3  0  0  0  0
 11 12  1  0  0  0  0
 11 22  1  0  0  0  0
 12 13  1  0  0  0  0
 12 38  1  0  0  0  0
 13 14  1  0  0  0  0
 13 15  1  0  0  0  0
 13 39  1  1  0  0  0
 14 15  1  0  0  0  0
 14 40  1  0  0  0  0
 14 41  1  0  0  0  0
 15 16  1  0  0  0  0
 15 42  1  1  0  0  0
 16 17  1  0  0  0  0
 16 21  2  0  0  0  0
 17 18  2  0  0  0  0
 17 43  1  0  0  0  0
 18 19  1  0  0  0  0
 18 44  1  0  0  0  0
 19 20  2  0  0  0  0
 19 45  1  0  0  0  0
 20 21  1  0  0  0  0
 20 46  1  0  0  0  0
 21 47  1  0  0  0  0
 22 23  2  0  0  0  0
 23 24  1  0  0  0  0
 23 48  1  0  0  0  0
 24 25  1  0  0  0  0
 25 26  1  0  0  0  0
 26 27  1  0  0  0  0
 26 49  1  0  0  0  0
 26 50  1  0  0  0  0
 27 28  1  0  0  0  0
 27 32  2  0  0  0  0
 28 29  2  0  0  0  0
 28 51  1  0  0  0  0
 29 30  1  0  0  0  0
 29 52  1  0  0  0  0
 30 31  2  0  0  0  0
 30 53  1  0  0  0  0
 31 32  1  0  0  0  0
 31 54  1  0  0  0  0
 32 55  1  0  0  0  0
M  END
$$$$
