CHEMBL328790
 OpenBabel04072215363D

 33 36  0  0  0  0  0  0  0  0999 V2000
   -2.0661    0.0323   -0.1813 Cl  0  0  0  0  0  0  0  0  0  0  0  0
   -0.3476    0.0254   -0.1064 C   0  0  0  0  0  0  0  0  0  0  0  0
    0.3139   -1.0165    0.5407 C   0  0  0  0  0  0  0  0  0  0  0  0
    1.7108   -1.0254    0.5959 C   0  0  0  0  0  0  0  0  0  0  0  0
    2.4481    0.0087    0.0037 C   0  0  0  0  0  0  0  0  0  0  0  0
    3.9077   -0.0136    0.0403 C   0  0  0  0  0  0  0  0  0  0  0  0
    4.6893    0.5997    1.1590 C   0  0  0  0  0  0  0  0  0  0  0  0
    5.9834    0.6015    1.2831 N   0  0  0  0  0  0  0  0  0  0  0  0
    6.6910   -0.0183    0.2821 C   0  0  0  0  0  0  0  0  0  0  0  0
    8.0433   -0.2324    0.0832 C   0  0  0  0  0  0  0  0  0  0  0  0
    9.1149    0.1704    0.9813 C   0  0  0  0  0  0  0  0  0  0  0  0
    8.9106    0.2652    2.3593 C   0  0  0  0  0  0  0  0  0  0  0  0
    9.9781    0.6200    3.1661 C   0  0  0  0  0  0  0  0  0  0  0  0
   11.2163    0.8838    2.7003 N   0  0  0  0  0  0  0  0  0  0  0  0
   11.3917    0.7937    1.3661 C   0  0  0  0  0  0  0  0  0  0  0  0
   10.3877    0.4428    0.4777 C   0  0  0  0  0  0  0  0  0  0  0  0
    8.1129   -0.9091   -1.1538 C   0  0  0  0  0  0  0  0  0  0  0  0
    6.9201   -1.1278   -1.7037 N   0  0  0  0  0  0  0  0  0  0  0  0
    6.0425   -0.5926   -0.8207 N   0  0  0  0  0  0  0  0  0  0  0  0
    4.6558   -0.5819   -0.9173 C   0  0  0  0  0  0  0  0  0  0  0  0
    1.7731    1.0522   -0.6423 C   0  0  0  0  0  0  0  0  0  0  0  0
    0.3758    1.0601   -0.6960 C   0  0  0  0  0  0  0  0  0  0  0  0
   -0.2506   -1.8245    0.9993 H   0  0  0  0  0  0  0  0  0  0  0  0
    2.2146   -1.8483    1.0999 H   0  0  0  0  0  0  0  0  0  0  0  0
    4.0892    1.0942    1.9423 H   0  0  0  0  0  0  0  0  0  0  0  0
    7.9468    0.0612    2.8114 H   0  0  0  0  0  0  0  0  0  0  0  0
    9.8576    0.6973    4.2426 H   0  0  0  0  0  0  0  0  0  0  0  0
   12.3945    1.0167    1.0149 H   0  0  0  0  0  0  0  0  0  0  0  0
   10.6086    0.3968   -0.5834 H   0  0  0  0  0  0  0  0  0  0  0  0
    8.9943   -1.2639   -1.6733 H   0  0  0  0  0  0  0  0  0  0  0  0
    4.2479   -1.0626   -1.7973 H   0  0  0  0  0  0  0  0  0  0  0  0
    2.3261    1.8636   -1.1111 H   0  0  0  0  0  0  0  0  0  0  0  0
   -0.1399    1.8730   -1.2012 H   0  0  0  0  0  0  0  0  0  0  0  0
  1  2  1  0  0  0  0
  2  3  1  0  0  0  0
  2 22  2  0  0  0  0
  3  4  2  0  0  0  0
  3 23  1  0  0  0  0
  4  5  1  0  0  0  0
  4 24  1  0  0  0  0
  5  6  1  0  0  0  0
  5 21  2  0  0  0  0
  6  7  1  0  0  0  0
  6 20  2  0  0  0  0
  7  8  2  0  0  0  0
  7 25  1  0  0  0  0
  8  9  1  0  0  0  0
  9 10  2  0  0  0  0
  9 19  1  0  0  0  0
 10 11  1  0  0  0  0
 10 17  1  0  0  0  0
 11 12  1  0  0  0  0
 11 16  2  0  0  0  0
 12 13  2  0  0  0  0
 12 26  1  0  0  0  0
 13 14  1  0  0  0  0
 13 27  1  0  0  0  0
 14 15  2  0  0  0  0
 15 16  1  0  0  0  0
 15 28  1  0  0  0  0
 16 29  1  0  0  0  0
 17 18  2  0  0  0  0
 17 30  1  0  0  0  0
 18 19  1  0  0  0  0
 19 20  1  0  0  0  0
 20 31  1  0  0  0  0
 21 22  1  0  0  0  0
 21 32  1  0  0  0  0
 22 33  1  0  0  0  0
M  END
$$$$
