CHEMBL3890378
 OpenBabel04072215373D

 57 61  0  0  0  0  0  0  0  0999 V2000
    0.8012   -0.2076   -0.2530 C   0  0  0  0  0  0  0  0  0  0  0  0
    1.8925   -0.9830    0.2246 O   0  0  0  0  0  0  0  0  0  0  0  0
    2.7783   -1.4169   -0.7204 C   0  0  0  0  0  0  0  0  0  0  0  0
    2.6968   -1.2280   -2.0716 C   0  0  0  0  0  0  0  0  0  0  0  0
    3.6994   -1.7091   -2.9148 C   0  0  0  0  0  0  0  0  0  0  0  0
    3.7295   -1.4899   -4.2583 O   0  0  0  0  0  0  0  0  0  0  0  0
    2.6101   -0.7632   -4.7454 C   0  0  0  0  0  0  0  0  0  0  0  0
    4.7404   -2.4100   -2.3633 C   0  0  0  0  0  0  0  0  0  0  0  0
    4.9932   -2.4556   -1.0206 C   0  0  0  0  0  0  0  0  0  0  0  0
    6.2144   -2.9622   -0.5012 N   0  0  0  0  0  0  0  0  0  0  0  0
    6.6590   -2.4755    0.8955 C   0  0  0  0  0  0  0  0  0  0  0  0
    6.2387   -3.2895    2.1198 C   0  0  0  0  0  0  0  0  0  0  0  0
    5.3858   -4.3685    1.9592 C   0  0  0  0  0  0  0  0  0  0  0  0
    5.1445   -5.2818    2.9266 N   0  0  0  0  0  0  0  0  0  0  0  0
    5.8143   -5.0894    4.0822 C   0  0  0  0  0  0  0  0  0  0  0  0
    6.6879   -4.0328    4.2650 C   0  0  0  0  0  0  0  0  0  0  0  0
    6.8920   -3.0879    3.3106 N   0  0  0  0  0  0  0  0  0  0  0  0
    7.2298   -3.7087   -1.2119 C   0  0  0  0  0  0  0  0  0  0  0  0
    7.8738   -4.6352   -0.4445 C   0  0  0  0  0  0  0  0  0  0  0  0
    8.7914   -5.3877   -1.0496 C   0  0  0  0  0  0  0  0  0  0  0  0
    9.1612   -5.2531   -2.3243 C   0  0  0  0  0  0  0  0  0  0  0  0
   10.4149   -5.2766   -2.1327 N   0  0  0  0  0  0  0  0  0  0  0  0
   10.9014   -6.4539   -2.2622 C   0  0  0  0  0  0  0  0  0  0  0  0
   11.1470   -6.6948   -3.5059 C   0  0  0  0  0  0  0  0  0  0  0  0
   12.4855   -7.9250   -3.2296 C   0  0  0  0  0  0  0  0  0  0  0  0
   13.1395   -8.5508   -1.8353 C   0  0  0  0  0  0  0  0  0  0  0  0
   13.8214   -9.7285   -1.9106 N   0  0  0  0  0  0  0  0  0  0  0  0
   13.7665  -10.0626   -3.2111 N   0  0  0  0  0  0  0  0  0  0  0  0
   14.3062  -11.3946   -3.6683 C   0  0  0  0  0  0  0  0  0  0  0  0
   13.0465   -9.0071   -3.9612 C   0  0  0  0  0  0  0  0  0  0  0  0
   10.0303   -5.7135   -4.2879 N   0  0  0  0  0  0  0  0  0  0  0  0
    8.8536   -4.7145   -3.4595 C   0  0  0  0  0  0  0  0  0  0  0  0
    7.6610   -3.6975   -2.6649 C   0  0  0  0  0  0  0  0  0  0  0  0
    3.8946   -2.0772   -0.2347 C   0  0  0  0  0  0  0  0  0  0  0  0
    0.2054    0.1255    0.6016 H   0  0  0  0  0  0  0  0  0  0  0  0
    0.1631   -0.8233   -0.8923 H   0  0  0  0  0  0  0  0  0  0  0  0
    1.1480    0.6837   -0.7879 H   0  0  0  0  0  0  0  0  0  0  0  0
    1.8318   -0.7327   -2.4630 H   0  0  0  0  0  0  0  0  0  0  0  0
    2.7280   -0.6544   -5.8202 H   0  0  0  0  0  0  0  0  0  0  0  0
    2.5537    0.2418   -4.3043 H   0  0  0  0  0  0  0  0  0  0  0  0
    1.6815   -1.3160   -4.5565 H   0  0  0  0  0  0  0  0  0  0  0  0
    5.4551   -2.8081   -3.0702 H   0  0  0  0  0  0  0  0  0  0  0  0
    6.3804   -1.4281    1.0610 H   0  0  0  0  0  0  0  0  0  0  0  0
    7.7601   -2.5089    0.9202 H   0  0  0  0  0  0  0  0  0  0  0  0
    4.9324   -4.5686    0.9961 H   0  0  0  0  0  0  0  0  0  0  0  0
    5.6334   -5.8156    4.8668 H   0  0  0  0  0  0  0  0  0  0  0  0
    7.2807   -3.9634    5.1736 H   0  0  0  0  0  0  0  0  0  0  0  0
    7.8540   -4.7810    0.6211 H   0  0  0  0  0  0  0  0  0  0  0  0
    9.4435   -6.0275   -0.4692 H   0  0  0  0  0  0  0  0  0  0  0  0
   11.2325   -6.9506   -1.3963 H   0  0  0  0  0  0  0  0  0  0  0  0
   13.0936   -8.2423   -0.7797 H   0  0  0  0  0  0  0  0  0  0  0  0
   14.8409  -11.9818   -2.8833 H   0  0  0  0  0  0  0  0  0  0  0  0
   15.0228  -11.2771   -4.4940 H   0  0  0  0  0  0  0  0  0  0  0  0
   13.4858  -12.0418   -4.0125 H   0  0  0  0  0  0  0  0  0  0  0  0
   13.0035   -9.2619   -4.9814 H   0  0  0  0  0  0  0  0  0  0  0  0
    7.2100   -2.7878   -3.1192 H   0  0  0  0  0  0  0  0  0  0  0  0
    3.7756   -2.3400    0.7990 H   0  0  0  0  0  0  0  0  0  0  0  0
  1  2  1  0  0  0  0
  1 35  1  0  0  0  0
  1 36  1  0  0  0  0
  1 37  1  0  0  0  0
  2  3  1  0  0  0  0
  3  4  1  0  0  0  0
  3 34  2  0  0  0  0
  4  5  2  0  0  0  0
  4 38  1  0  0  0  0
  5  6  1  0  0  0  0
  5  8  1  0  0  0  0
  6  7  1  0  0  0  0
  7 39  1  0  0  0  0
  7 40  1  0  0  0  0
  7 41  1  0  0  0  0
  8  9  2  0  0  0  0
  8 42  1  0  0  0  0
  9 10  1  0  0  0  0
  9 34  1  0  0  0  0
 10 11  1  0  0  0  0
 10 18  1  0  0  0  0
 11 12  1  0  0  0  0
 11 43  1  0  0  0  0
 11 44  1  0  0  0  0
 12 13  1  0  0  0  0
 12 17  2  0  0  0  0
 13 14  2  0  0  0  0
 13 45  1  0  0  0  0
 14 15  1  0  0  0  0
 15 16  2  0  0  0  0
 15 46  1  0  0  0  0
 16 17  1  0  0  0  0
 16 47  1  0  0  0  0
 18 19  1  0  0  0  0
 18 33  2  0  0  0  0
 19 20  2  0  0  0  0
 19 48  1  0  0  0  0
 20 21  1  0  0  0  0
 20 49  1  0  0  0  0
 21 22  1  0  0  0  0
 21 32  2  0  0  0  0
 22 23  2  0  0  0  0
 23 24  1  0  0  0  0
 23 50  1  0  0  0  0
 24 25  1  0  0  0  0
 24 31  2  0  0  0  0
 25 26  1  0  0  0  0
 25 30  2  0  0  0  0
 26 27  2  0  0  0  0
 26 51  1  0  0  0  0
 27 28  1  0  0  0  0
 28 29  1  0  0  0  0
 28 30  1  0  0  0  0
 29 52  1  0  0  0  0
 29 53  1  0  0  0  0
 29 54  1  0  0  0  0
 30 55  1  0  0  0  0
 31 32  1  0  0  0  0
 32 33  1  0  0  0  0
 33 56  1  0  0  0  0
 34 57  1  0  0  0  0
M  END
$$$$
