CHEMBL492956
 OpenBabel04072215383D

 52 55  0  0  0  0  0  0  0  0999 V2000
   -0.2539   -0.4941   -2.2199 O   0  0  0  0  0  0  0  0  0  0  0  0
   -0.0759   -0.1632   -3.3862 C   0  0  0  0  0  0  0  0  0  0  0  0
    0.9499    0.8134   -3.8217 C   0  0  0  0  0  0  0  0  0  0  0  0
    1.7800    1.3786   -2.9328 C   0  0  0  0  0  0  0  0  0  0  0  0
    2.7571    2.3836   -3.3547 C   0  0  0  0  0  0  0  0  0  0  0  0
    2.4040    3.7359   -3.3614 C   0  0  0  0  0  0  0  0  0  0  0  0
    3.3185    4.6981   -3.8011 C   0  0  0  0  0  0  0  0  0  0  0  0
    4.5940    4.3218   -4.2456 C   0  0  0  0  0  0  0  0  0  0  0  0
    5.5317    5.3959   -4.6826 C   0  0  0  0  0  0  0  0  0  0  0  0
    5.3794    6.5136   -4.1994 O   0  0  0  0  0  0  0  0  0  0  0  0
    6.4623    5.0472   -5.6524 N   0  0  0  0  0  0  0  0  0  0  0  0
    7.4451    5.9108   -6.1975 C   0  0  0  0  0  0  0  0  0  0  0  0
    7.8245    7.1076   -5.6029 C   0  0  0  0  0  0  0  0  0  0  0  0
    8.7588    7.9439   -6.2211 C   0  0  0  0  0  0  0  0  0  0  0  0
    9.3154    7.5843   -7.4522 C   0  0  0  0  0  0  0  0  0  0  0  0
    8.9684    6.3781   -8.0690 C   0  0  0  0  0  0  0  0  0  0  0  0
    9.4769    6.1005   -9.3570 N   0  0  0  0  0  0  0  0  0  0  0  0
    8.9281    5.2704  -10.2760 C   0  0  0  0  0  0  0  0  0  0  0  0
    7.7722    4.6577  -10.1578 N   0  0  0  0  0  0  0  0  0  0  0  0
    7.5204    3.8687  -11.2465 C   0  0  0  0  0  0  0  0  0  0  0  0
    8.4855    3.8651  -12.2333 C   0  0  0  0  0  0  0  0  0  0  0  0
    8.4985    3.0926  -13.4754 C   0  0  0  0  0  0  0  0  0  0  0  0
    7.2934    2.7554  -14.1070 C   0  0  0  0  0  0  0  0  0  0  0  0
    7.2923    1.9327  -15.2305 C   0  0  0  0  0  0  0  0  0  0  0  0
    8.5072    1.4717  -15.7028 C   0  0  0  0  0  0  0  0  0  0  0  0
    9.6940    1.7815  -15.1397 N   0  0  0  0  0  0  0  0  0  0  0  0
    9.6625    2.5805  -14.0430 C   0  0  0  0  0  0  0  0  0  0  0  0
    9.7356    4.9518  -11.7736 S   0  0  0  0  0  0  0  0  0  0  0  0
    8.0518    5.5382   -7.4054 C   0  0  0  0  0  0  0  0  0  0  0  0
    4.9580    2.9698   -4.2145 C   0  0  0  0  0  0  0  0  0  0  0  0
    4.0389    2.0065   -3.7744 C   0  0  0  0  0  0  0  0  0  0  0  0
   -0.8296   -0.6498   -4.4235 N   0  0  0  0  0  0  0  0  0  0  0  0
   -1.8969   -1.5137   -4.0955 O   0  0  0  0  0  0  0  0  0  0  0  0
    0.9938    1.0703   -4.8738 H   0  0  0  0  0  0  0  0  0  0  0  0
    1.7444    1.1392   -1.8727 H   0  0  0  0  0  0  0  0  0  0  0  0
    1.4205    4.0541   -3.0209 H   0  0  0  0  0  0  0  0  0  0  0  0
    3.0322    5.7498   -3.7906 H   0  0  0  0  0  0  0  0  0  0  0  0
    6.3233    4.1698   -6.1398 H   0  0  0  0  0  0  0  0  0  0  0  0
    7.4140    7.4249   -4.6494 H   0  0  0  0  0  0  0  0  0  0  0  0
    9.0293    8.8815   -5.7511 H   0  0  0  0  0  0  0  0  0  0  0  0
   10.0033    8.2770   -7.9301 H   0  0  0  0  0  0  0  0  0  0  0  0
   10.2775    6.6550   -9.6329 H   0  0  0  0  0  0  0  0  0  0  0  0
    6.6078    3.2854  -11.2618 H   0  0  0  0  0  0  0  0  0  0  0  0
    6.3421    3.1218  -13.7281 H   0  0  0  0  0  0  0  0  0  0  0  0
    6.3640    1.6542  -15.7166 H   0  0  0  0  0  0  0  0  0  0  0  0
    8.5590    0.8186  -16.5692 H   0  0  0  0  0  0  0  0  0  0  0  0
   10.6413    2.7708  -13.6110 H   0  0  0  0  0  0  0  0  0  0  0  0
    7.7815    4.5868   -7.8508 H   0  0  0  0  0  0  0  0  0  0  0  0
    5.9584    2.6528   -4.4930 H   0  0  0  0  0  0  0  0  0  0  0  0
    4.3364    0.9601   -3.7485 H   0  0  0  0  0  0  0  0  0  0  0  0
   -0.7688   -0.3451   -5.3878 H   0  0  0  0  0  0  0  0  0  0  0  0
   -1.8552   -1.5399   -3.1147 H   0  0  0  0  0  0  0  0  0  0  0  0
  1  2  2  0  0  0  0
  2  3  1  0  0  0  0
  2 32  1  0  0  0  0
  3  4  2  0  0  0  0
  3 34  1  0  0  0  0
  4  5  1  0  0  0  0
  4 35  1  0  0  0  0
  5  6  1  0  0  0  0
  5 31  2  0  0  0  0
  6  7  2  0  0  0  0
  6 36  1  0  0  0  0
  7  8  1  0  0  0  0
  7 37  1  0  0  0  0
  8  9  1  0  0  0  0
  8 30  2  0  0  0  0
  9 10  2  0  0  0  0
  9 11  1  0  0  0  0
 11 12  1  0  0  0  0
 11 38  1  0  0  0  0
 12 13  1  0  0  0  0
 12 29  2  0  0  0  0
 13 14  2  0  0  0  0
 13 39  1  0  0  0  0
 14 15  1  0  0  0  0
 14 40  1  0  0  0  0
 15 16  2  0  0  0  0
 15 41  1  0  0  0  0
 16 17  1  0  0  0  0
 16 29  1  0  0  0  0
 17 18  1  0  0  0  0
 17 42  1  0  0  0  0
 18 19  2  0  0  0  0
 18 28  1  0  0  0  0
 19 20  1  0  0  0  0
 20 21  2  0  0  0  0
 20 43  1  0  0  0  0
 21 22  1  0  0  0  0
 21 28  1  0  0  0  0
 22 23  1  0  0  0  0
 22 27  2  0  0  0  0
 23 24  2  0  0  0  0
 23 44  1  0  0  0  0
 24 25  1  0  0  0  0
 24 45  1  0  0  0  0
 25 26  2  0  0  0  0
 25 46  1  0  0  0  0
 26 27  1  0  0  0  0
 27 47  1  0  0  0  0
 29 48  1  0  0  0  0
 30 31  1  0  0  0  0
 30 49  1  0  0  0  0
 31 50  1  0  0  0  0
 32 33  1  0  0  0  0
 32 51  1  0  0  0  0
 33 52  1  0  0  0  0
M  END
$$$$
