CHEMBL4107561
 OpenBabel04072215383D

 56 58  0  0  0  0  0  0  0  0999 V2000
   -8.6521    2.0351   -1.1316 C   0  0  0  0  0  0  0  0  0  0  0  0
   -9.5343    1.0037   -1.7412 C   0  0  0  0  0  0  0  0  0  0  0  0
  -10.8955    1.1698   -2.1121 C   0  0  0  0  0  0  0  0  0  0  0  0
  -11.3072   -0.0347   -2.6350 C   0  0  0  0  0  0  0  0  0  0  0  0
  -10.2939   -0.9392   -2.6134 O   0  0  0  0  0  0  0  0  0  0  0  0
   -9.2061   -0.3146   -2.0583 C   0  0  0  0  0  0  0  0  0  0  0  0
   -7.9626   -1.0467   -1.8742 C   0  0  0  0  0  0  0  0  0  0  0  0
   -7.0038   -0.5105   -1.3161 O   0  0  0  0  0  0  0  0  0  0  0  0
   -7.9392   -2.3407   -2.4031 N   0  0  0  0  0  0  0  0  0  0  0  0
   -6.8365   -3.2386   -2.3428 C   0  0  0  0  0  0  0  0  0  0  0  0
   -5.7868   -3.0441   -1.4364 C   0  0  0  0  0  0  0  0  0  0  0  0
   -4.6674   -3.8727   -1.4332 C   0  0  0  0  0  0  0  0  0  0  0  0
   -4.5850   -4.9268   -2.3310 C   0  0  0  0  0  0  0  0  0  0  0  0
   -5.6361   -5.1808   -3.2164 C   0  0  0  0  0  0  0  0  0  0  0  0
   -5.4621   -6.2895   -4.1137 C   0  0  0  0  0  0  0  0  0  0  0  0
   -5.1860   -7.2290   -4.8131 C   0  0  0  0  0  0  0  0  0  0  0  0
   -4.8921   -8.3463   -5.6613 C   0  0  0  0  0  0  0  0  0  0  0  0
   -4.5009   -9.5808   -5.1600 C   0  0  0  0  0  0  0  0  0  0  0  0
   -4.3514  -10.6945   -5.9267 N   0  0  0  0  0  0  0  0  0  0  0  0
   -4.6586  -10.5786   -7.2471 C   0  0  0  0  0  0  0  0  0  0  0  0
   -5.0576   -9.3874   -7.8351 C   0  0  0  0  0  0  0  0  0  0  0  0
   -5.5962   -9.3379   -9.2300 C   0  0  0  0  0  0  0  0  0  0  0  0
   -5.4138  -10.2930   -9.9743 O   0  0  0  0  0  0  0  0  0  0  0  0
   -6.3039   -8.1882   -9.6040 N   0  0  0  0  0  0  0  0  0  0  0  0
   -7.1992   -7.9222  -10.8176 S   0  0  2  0  0  0  0  0  0  0  0  0
   -6.5176   -8.6641  -12.2794 C   0  0  0  0  0  0  0  0  0  0  0  0
   -7.5666   -6.5688  -11.2001 O   0  0  0  0  0  0  0  0  0  0  0  0
   -8.7409   -8.8073  -10.6256 C   0  0  0  0  0  0  0  0  0  0  0  0
   -9.6219   -8.1933   -9.5396 C   0  0  0  0  0  0  0  0  0  0  0  0
  -10.9816   -8.8734   -9.4602 C   0  0  0  0  0  0  0  0  0  0  0  0
  -11.6710   -8.7506  -10.6965 O   0  0  0  0  0  0  0  0  0  0  0  0
   -5.1029   -8.2408   -7.0313 C   0  0  0  0  0  0  0  0  0  0  0  0
   -6.7735   -4.3478   -3.2116 C   0  0  0  0  0  0  0  0  0  0  0  0
   -9.1657    3.0000   -1.0578 H   0  0  0  0  0  0  0  0  0  0  0  0
   -7.7525    2.1849   -1.7373 H   0  0  0  0  0  0  0  0  0  0  0  0
   -8.3489    1.7411   -0.1212 H   0  0  0  0  0  0  0  0  0  0  0  0
  -11.4954    2.0624   -2.0242 H   0  0  0  0  0  0  0  0  0  0  0  0
  -12.2451   -0.3847   -3.0377 H   0  0  0  0  0  0  0  0  0  0  0  0
   -8.7411   -2.5976   -2.9673 H   0  0  0  0  0  0  0  0  0  0  0  0
   -5.8097   -2.2495   -0.6971 H   0  0  0  0  0  0  0  0  0  0  0  0
   -3.8581   -3.6816   -0.7334 H   0  0  0  0  0  0  0  0  0  0  0  0
   -3.6930   -5.5490   -2.3367 H   0  0  0  0  0  0  0  0  0  0  0  0
   -4.3182   -9.7282   -4.0980 H   0  0  0  0  0  0  0  0  0  0  0  0
   -4.6096  -11.5089   -7.8078 H   0  0  0  0  0  0  0  0  0  0  0  0
   -6.8943   -8.1075  -13.1420 H   0  0  0  0  0  0  0  0  0  0  0  0
   -6.8386   -9.7048  -12.3467 H   0  0  0  0  0  0  0  0  0  0  0  0
   -5.4299   -8.5961  -12.2490 H   0  0  0  0  0  0  0  0  0  0  0  0
   -8.5181   -9.8573  -10.4149 H   0  0  0  0  0  0  0  0  0  0  0  0
   -9.2420   -8.7466  -11.5987 H   0  0  0  0  0  0  0  0  0  0  0  0
   -9.7734   -7.1288   -9.7562 H   0  0  0  0  0  0  0  0  0  0  0  0
   -9.1228   -8.2576   -8.5668 H   0  0  0  0  0  0  0  0  0  0  0  0
  -11.5966   -8.4221   -8.6747 H   0  0  0  0  0  0  0  0  0  0  0  0
  -10.8741   -9.9390   -9.2354 H   0  0  0  0  0  0  0  0  0  0  0  0
  -11.8261   -7.8021  -10.8546 H   0  0  0  0  0  0  0  0  0  0  0  0
   -5.3726   -7.2787   -7.4621 H   0  0  0  0  0  0  0  0  0  0  0  0
   -7.5832   -4.5479   -3.9083 H   0  0  0  0  0  0  0  0  0  0  0  0
  1  2  1  0  0  0  0
  1 34  1  0  0  0  0
  1 35  1  0  0  0  0
  1 36  1  0  0  0  0
  2  3  1  0  0  0  0
  2  6  2  0  0  0  0
  3  4  2  0  0  0  0
  3 37  1  0  0  0  0
  4  5  1  0  0  0  0
  4 38  1  0  0  0  0
  5  6  1  0  0  0  0
  6  7  1  0  0  0  0
  7  8  2  0  0  0  0
  7  9  1  0  0  0  0
  9 10  1  0  0  0  0
  9 39  1  0  0  0  0
 10 11  1  0  0  0  0
 10 33  2  0  0  0  0
 11 12  2  0  0  0  0
 11 40  1  0  0  0  0
 12 13  1  0  0  0  0
 12 41  1  0  0  0  0
 13 14  2  0  0  0  0
 13 42  1  0  0  0  0
 14 15  1  0  0  0  0
 14 33  1  0  0  0  0
 15 16  3  0  0  0  0
 16 17  1  0  0  0  0
 17 18  1  0  0  0  0
 17 32  2  0  0  0  0
 18 19  2  0  0  0  0
 18 43  1  0  0  0  0
 19 20  1  0  0  0  0
 20 21  2  0  0  0  0
 20 44  1  0  0  0  0
 21 22  1  0  0  0  0
 21 32  1  0  0  0  0
 22 23  2  0  0  0  0
 22 24  1  0  0  0  0
 25 27  2  6  0  0  0
 25 28  1  0  0  0  0
 25 26  1  0  0  0  0
 25 24  2  0  0  0  0
 26 45  1  0  0  0  0
 26 46  1  0  0  0  0
 26 47  1  0  0  0  0
 28 29  1  0  0  0  0
 28 48  1  0  0  0  0
 28 49  1  0  0  0  0
 29 30  1  0  0  0  0
 29 50  1  0  0  0  0
 29 51  1  0  0  0  0
 30 31  1  0  0  0  0
 30 52  1  0  0  0  0
 30 53  1  0  0  0  0
 31 54  1  0  0  0  0
 32 55  1  0  0  0  0
 33 56  1  0  0  0  0
M  END
$$$$
