CHEMBL3978551
 OpenBabel04072215373D

 52 55  0  0  0  0  0  0  0  0999 V2000
    2.5842    1.4153    0.2874 O   0  0  0  0  0  0  0  0  0  0  0  0
    2.2156    0.2912    0.6029 C   0  0  0  0  0  0  0  0  0  0  0  0
    0.8833   -0.0812    0.7161 N   0  0  0  0  0  0  0  0  0  0  0  0
   -0.2308    0.7760    0.5336 C   0  0  0  0  0  0  0  0  0  0  0  0
   -0.1464    2.0481   -0.0408 C   0  0  0  0  0  0  0  0  0  0  0  0
   -1.2665    2.8775   -0.1231 C   0  0  0  0  0  0  0  0  0  0  0  0
   -2.4963    2.4372    0.3532 C   0  0  0  0  0  0  0  0  0  0  0  0
   -2.6196    1.1526    0.8977 C   0  0  0  0  0  0  0  0  0  0  0  0
   -3.9456    0.6531    1.4057 C   0  0  0  0  0  0  0  0  0  0  0  0
   -4.9590    1.5567    1.2805 F   0  0  0  0  0  0  0  0  0  0  0  0
   -4.3633   -0.4663    0.7504 F   0  0  0  0  0  0  0  0  0  0  0  0
   -3.9066    0.3180    2.7250 F   0  0  0  0  0  0  0  0  0  0  0  0
   -1.4801    0.3268    0.9780 C   0  0  0  0  0  0  0  0  0  0  0  0
    3.0751   -0.7448    0.9337 N   0  0  0  0  0  0  0  0  0  0  0  0
    4.4813   -0.6438    1.0789 C   0  0  0  0  0  0  0  0  0  0  0  0
    5.1748    0.5687    1.0074 C   0  0  0  0  0  0  0  0  0  0  0  0
    6.5602    0.6267    1.1837 C   0  0  0  0  0  0  0  0  0  0  0  0
    7.2930   -0.5415    1.3828 C   0  0  0  0  0  0  0  0  0  0  0  0
    8.6658   -0.5586    1.5194 O   0  0  0  0  0  0  0  0  0  0  0  0
    9.4200    0.3204    0.7662 C   0  0  0  0  0  0  0  0  0  0  0  0
    9.0862    0.6933   -0.5325 C   0  0  0  0  0  0  0  0  0  0  0  0
    9.8901    1.6169   -1.1601 C   0  0  0  0  0  0  0  0  0  0  0  0
   11.0030    2.1264   -0.6052 N   0  0  0  0  0  0  0  0  0  0  0  0
   11.3647    1.7144    0.6210 C   0  0  0  0  0  0  0  0  0  0  0  0
   12.5594    2.1931    1.1851 N   0  0  0  0  0  0  0  0  0  0  0  0
   13.3951    3.1004    0.5637 C   0  0  0  0  0  0  0  0  0  0  0  0
   13.2320    3.6611   -0.5098 O   0  0  0  0  0  0  0  0  0  0  0  0
   14.6535    3.3725    1.3300 C   0  0  0  0  0  0  0  0  0  0  0  0
   15.6129    4.4468    0.8601 C   0  0  0  0  0  0  0  0  0  0  0  0
   15.9807    3.0003    0.7056 C   0  0  0  0  0  0  0  0  0  0  0  0
   10.5927    0.8111    1.3459 C   0  0  0  0  0  0  0  0  0  0  0  0
    6.6018   -1.7482    1.4920 C   0  0  0  0  0  0  0  0  0  0  0  0
    7.2681   -2.8849    1.7433 F   0  0  0  0  0  0  0  0  0  0  0  0
    5.2109   -1.8077    1.3415 C   0  0  0  0  0  0  0  0  0  0  0  0
    0.6958   -0.9762    1.1393 H   0  0  0  0  0  0  0  0  0  0  0  0
    0.7845    2.4374   -0.4410 H   0  0  0  0  0  0  0  0  0  0  0  0
   -1.1675    3.8709   -0.5545 H   0  0  0  0  0  0  0  0  0  0  0  0
   -3.3567    3.1020    0.2947 H   0  0  0  0  0  0  0  0  0  0  0  0
   -1.5831   -0.6635    1.4180 H   0  0  0  0  0  0  0  0  0  0  0  0
    2.6766   -1.6706    0.9955 H   0  0  0  0  0  0  0  0  0  0  0  0
    4.6741    1.5123    0.8185 H   0  0  0  0  0  0  0  0  0  0  0  0
    7.0446    1.5989    1.1397 H   0  0  0  0  0  0  0  0  0  0  0  0
    8.2134    0.3078   -1.0446 H   0  0  0  0  0  0  0  0  0  0  0  0
    9.6600    1.9903   -2.1531 H   0  0  0  0  0  0  0  0  0  0  0  0
   12.8326    1.8222    2.0812 H   0  0  0  0  0  0  0  0  0  0  0  0
   14.5715    3.2655    2.4067 H   0  0  0  0  0  0  0  0  0  0  0  0
   16.1369    5.0311    1.6054 H   0  0  0  0  0  0  0  0  0  0  0  0
   15.3658    5.0039   -0.0393 H   0  0  0  0  0  0  0  0  0  0  0  0
   16.7584    2.6038    1.3459 H   0  0  0  0  0  0  0  0  0  0  0  0
   15.9778    2.5904   -0.2999 H   0  0  0  0  0  0  0  0  0  0  0  0
   10.8793    0.4884    2.3402 H   0  0  0  0  0  0  0  0  0  0  0  0
    4.7254   -2.7742    1.4335 H   0  0  0  0  0  0  0  0  0  0  0  0
  1  2  2  0  0  0  0
  2  3  1  0  0  0  0
  2 14  1  0  0  0  0
  3  4  1  0  0  0  0
  3 35  1  0  0  0  0
  4  5  1  0  0  0  0
  4 13  2  0  0  0  0
  5  6  2  0  0  0  0
  5 36  1  0  0  0  0
  6  7  1  0  0  0  0
  6 37  1  0  0  0  0
  7  8  2  0  0  0  0
  7 38  1  0  0  0  0
  8  9  1  0  0  0  0
  8 13  1  0  0  0  0
  9 10  1  0  0  0  0
  9 11  1  0  0  0  0
  9 12  1  0  0  0  0
 13 39  1  0  0  0  0
 14 15  1  0  0  0  0
 14 40  1  0  0  0  0
 15 16  1  0  0  0  0
 15 34  2  0  0  0  0
 16 17  2  0  0  0  0
 16 41  1  0  0  0  0
 17 18  1  0  0  0  0
 17 42  1  0  0  0  0
 18 19  1  0  0  0  0
 18 32  2  0  0  0  0
 19 20  1  0  0  0  0
 20 21  1  0  0  0  0
 20 31  2  0  0  0  0
 21 22  2  0  0  0  0
 21 43  1  0  0  0  0
 22 23  1  0  0  0  0
 22 44  1  0  0  0  0
 23 24  2  0  0  0  0
 24 25  1  0  0  0  0
 24 31  1  0  0  0  0
 25 26  1  0  0  0  0
 25 45  1  0  0  0  0
 26 27  2  0  0  0  0
 26 28  1  0  0  0  0
 28 29  1  0  0  0  0
 28 30  1  0  0  0  0
 28 46  1  0  0  0  0
 29 30  1  0  0  0  0
 29 47  1  0  0  0  0
 29 48  1  0  0  0  0
 30 49  1  0  0  0  0
 30 50  1  0  0  0  0
 31 51  1  0  0  0  0
 32 33  1  0  0  0  0
 32 34  1  0  0  0  0
 34 52  1  0  0  0  0
M  END
$$$$
