CHEMBL3098313
 OpenBabel04072215363D

 42 45  0  0  0  0  0  0  0  0999 V2000
    2.9750    2.0273   -2.8145 C   0  0  0  0  0  0  0  0  0  0  0  0
    2.8771    1.0923   -1.6819 N   0  0  0  0  0  0  0  0  0  0  0  0
    3.2456   -0.2901   -2.0219 C   0  0  0  0  0  0  0  0  0  0  0  0
    3.3614    1.6623   -0.1525 S   0  0  0  0  0  0  0  0  0  0  0  0
    2.8580    3.0111    0.0050 O   0  0  0  0  0  0  0  0  0  0  0  0
    3.0568    0.6354    0.8222 O   0  0  0  0  0  0  0  0  0  0  0  0
    5.1409    1.7663   -0.2739 C   0  0  0  0  0  0  0  0  0  0  0  0
    5.7243    2.9246   -0.7750 C   0  0  0  0  0  0  0  0  0  0  0  0
    7.1207    3.0257   -0.8330 C   0  0  0  0  0  0  0  0  0  0  0  0
    7.9716    2.0190   -0.3337 C   0  0  0  0  0  0  0  0  0  0  0  0
    9.3960    2.1337   -0.3745 N   0  0  0  0  0  0  0  0  0  0  0  0
   10.1326    3.3509   -0.3008 C   0  0  0  0  0  0  0  0  0  0  0  0
    9.4291    4.4552    0.0116 N   0  0  0  0  0  0  0  0  0  0  0  0
   10.0396    5.6285   -0.0776 C   0  0  0  0  0  0  0  0  0  0  0  0
    9.0672    7.0107    0.1398 Cl  0  0  0  0  0  0  0  0  0  0  0  0
   11.2955    5.8434   -0.4351 N   0  0  0  0  0  0  0  0  0  0  0  0
   12.0120    4.7638   -0.7012 C   0  0  0  0  0  0  0  0  0  0  0  0
   13.3076    5.0292   -1.0990 C   0  0  0  0  0  0  0  0  0  0  0  0
   14.1445    3.9848   -1.3905 C   0  0  0  0  0  0  0  0  0  0  0  0
   13.7383    2.6842   -1.2815 C   0  0  0  0  0  0  0  0  0  0  0  0
   12.4350    2.3669   -0.9182 C   0  0  0  0  0  0  0  0  0  0  0  0
   11.5172    3.4310   -0.6329 C   0  0  0  0  0  0  0  0  0  0  0  0
   14.7559    1.8229   -1.5586 O   0  0  0  0  0  0  0  0  0  0  0  0
   15.8563    2.7433   -1.7783 C   0  0  0  0  0  0  0  0  0  0  0  0
   15.4369    4.1183   -1.7998 O   0  0  0  0  0  0  0  0  0  0  0  0
    7.3573    0.8561    0.1581 C   0  0  0  0  0  0  0  0  0  0  0  0
    5.9533    0.7330    0.2038 C   0  0  0  0  0  0  0  0  0  0  0  0
    2.4474    1.6177   -3.6830 H   0  0  0  0  0  0  0  0  0  0  0  0
    4.0162    2.1982   -3.0983 H   0  0  0  0  0  0  0  0  0  0  0  0
    2.4934    2.9804   -2.5786 H   0  0  0  0  0  0  0  0  0  0  0  0
    2.7204   -0.6060   -2.9296 H   0  0  0  0  0  0  0  0  0  0  0  0
    2.9447   -0.9794   -1.2281 H   0  0  0  0  0  0  0  0  0  0  0  0
    4.3205   -0.3770   -2.1995 H   0  0  0  0  0  0  0  0  0  0  0  0
    5.1119    3.7581   -1.1125 H   0  0  0  0  0  0  0  0  0  0  0  0
    7.5290    3.9362   -1.2639 H   0  0  0  0  0  0  0  0  0  0  0  0
    9.8655    1.3881    0.1276 H   0  0  0  0  0  0  0  0  0  0  0  0
   13.6635    6.0508   -1.1803 H   0  0  0  0  0  0  0  0  0  0  0  0
   12.1410    1.3256   -0.8458 H   0  0  0  0  0  0  0  0  0  0  0  0
   16.3480    2.5054   -2.7290 H   0  0  0  0  0  0  0  0  0  0  0  0
   16.5888    2.6312   -0.9689 H   0  0  0  0  0  0  0  0  0  0  0  0
    7.9574    0.0357    0.5434 H   0  0  0  0  0  0  0  0  0  0  0  0
    5.5043   -0.1635    0.6285 H   0  0  0  0  0  0  0  0  0  0  0  0
  1  2  1  0  0  0  0
  1 28  1  0  0  0  0
  1 29  1  0  0  0  0
  1 30  1  0  0  0  0
  2  3  1  0  0  0  0
  2  4  1  0  0  0  0
  3 31  1  0  0  0  0
  3 32  1  0  0  0  0
  3 33  1  0  0  0  0
  4  5  2  0  0  0  0
  4  6  2  0  0  0  0
  4  7  1  0  0  0  0
  7  8  1  0  0  0  0
  7 27  2  0  0  0  0
  8  9  2  0  0  0  0
  8 34  1  0  0  0  0
  9 10  1  0  0  0  0
  9 35  1  0  0  0  0
 10 11  1  0  0  0  0
 10 26  2  0  0  0  0
 11 12  1  0  0  0  0
 11 36  1  0  0  0  0
 12 13  1  0  0  0  0
 12 22  2  0  0  0  0
 13 14  2  0  0  0  0
 14 15  1  0  0  0  0
 14 16  1  0  0  0  0
 16 17  2  0  0  0  0
 17 18  1  0  0  0  0
 17 22  1  0  0  0  0
 18 19  2  0  0  0  0
 18 37  1  0  0  0  0
 19 20  1  0  0  0  0
 19 25  1  0  0  0  0
 20 21  2  0  0  0  0
 20 23  1  0  0  0  0
 21 22  1  0  0  0  0
 21 38  1  0  0  0  0
 23 24  1  0  0  0  0
 24 25  1  0  0  0  0
 24 39  1  0  0  0  0
 24 40  1  0  0  0  0
 26 27  1  0  0  0  0
 26 41  1  0  0  0  0
 27 42  1  0  0  0  0
M  END
$$$$
