CHEMBL371889
 OpenBabel04072215373D

 48 51  0  0  0  0  0  0  0  0999 V2000
    1.9020    1.0390   -0.8221 C   0  0  0  0  0  0  0  0  0  0  0  0
    3.0250    0.5842   -0.0698 O   0  0  0  0  0  0  0  0  0  0  0  0
    3.4686   -0.6828   -0.3502 C   0  0  0  0  0  0  0  0  0  0  0  0
    2.8985   -1.5323   -1.3001 C   0  0  0  0  0  0  0  0  0  0  0  0
    3.4211   -2.8030   -1.4925 C   0  0  0  0  0  0  0  0  0  0  0  0
    4.5220   -3.2168   -0.7474 C   0  0  0  0  0  0  0  0  0  0  0  0
    5.1542   -2.3612    0.1640 C   0  0  0  0  0  0  0  0  0  0  0  0
    6.3624   -2.7095    0.8377 N   0  0  0  0  0  0  0  0  0  0  0  0
    7.2024   -3.7131    0.4019 C   0  0  0  0  0  0  0  0  0  0  0  0
    6.9532   -4.3998   -0.5868 O   0  0  0  0  0  0  0  0  0  0  0  0
    8.3471   -3.8821    1.1583 N   0  0  0  0  0  0  0  0  0  0  0  0
    9.3681   -4.8124    0.8132 C   0  0  0  0  0  0  0  0  0  0  0  0
    9.4557   -5.3756   -0.4604 C   0  0  0  0  0  0  0  0  0  0  0  0
   10.3111   -6.4386   -0.7319 C   0  0  0  0  0  0  0  0  0  0  0  0
   11.2381   -6.8746    0.2106 C   0  0  0  0  0  0  0  0  0  0  0  0
   12.1234   -8.0135   -0.1004 C   0  0  0  0  0  0  0  0  0  0  0  0
   12.7034   -8.1694   -1.3652 C   0  0  0  0  0  0  0  0  0  0  0  0
   12.6598   -7.3362   -2.6146 C   0  0  0  0  0  0  0  0  0  0  0  0
   13.6229   -9.6111   -1.4783 S   0  0  0  0  0  0  0  0  0  0  0  0
   13.3077  -10.0275    0.1284 C   0  0  0  0  0  0  0  0  0  0  0  0
   13.8463  -11.1544    0.6211 N   0  0  0  0  0  0  0  0  0  0  0  0
   13.5125  -11.3649    1.8896 C   0  0  0  0  0  0  0  0  0  0  0  0
   12.7168  -10.6071    2.6513 N   0  0  0  0  0  0  0  0  0  0  0  0
   12.1773   -9.4931    2.1197 C   0  0  0  0  0  0  0  0  0  0  0  0
   11.3251   -8.8063    2.9779 N   0  0  0  0  0  0  0  0  0  0  0  0
   12.4808   -9.1280    0.7869 C   0  0  0  0  0  0  0  0  0  0  0  0
   11.2593   -6.2065    1.4454 C   0  0  0  0  0  0  0  0  0  0  0  0
   10.3047   -5.2164    1.7641 C   0  0  0  0  0  0  0  0  0  0  0  0
    4.5900   -1.1023    0.3862 C   0  0  0  0  0  0  0  0  0  0  0  0
    1.6808    2.0637   -0.5144 H   0  0  0  0  0  0  0  0  0  0  0  0
    1.0174    0.4275   -0.6126 H   0  0  0  0  0  0  0  0  0  0  0  0
    2.1244    1.0547   -1.8949 H   0  0  0  0  0  0  0  0  0  0  0  0
    2.0492   -1.2433   -1.9095 H   0  0  0  0  0  0  0  0  0  0  0  0
    2.9860   -3.4764   -2.2283 H   0  0  0  0  0  0  0  0  0  0  0  0
    4.8637   -4.2310   -0.9254 H   0  0  0  0  0  0  0  0  0  0  0  0
    6.7513   -2.0266    1.4681 H   0  0  0  0  0  0  0  0  0  0  0  0
    8.3217   -3.5478    2.1090 H   0  0  0  0  0  0  0  0  0  0  0  0
    8.8414   -5.0373   -1.2887 H   0  0  0  0  0  0  0  0  0  0  0  0
   10.2165   -6.9107   -1.7058 H   0  0  0  0  0  0  0  0  0  0  0  0
   12.2483   -6.3377   -2.4577 H   0  0  0  0  0  0  0  0  0  0  0  0
   12.0543   -7.8388   -3.3795 H   0  0  0  0  0  0  0  0  0  0  0  0
   13.6664   -7.1907   -3.0211 H   0  0  0  0  0  0  0  0  0  0  0  0
   13.9254  -12.2522    2.3561 H   0  0  0  0  0  0  0  0  0  0  0  0
   11.1292   -9.3887    3.7859 H   0  0  0  0  0  0  0  0  0  0  0  0
   10.5056   -8.4326    2.5158 H   0  0  0  0  0  0  0  0  0  0  0  0
   11.9941   -6.4758    2.2028 H   0  0  0  0  0  0  0  0  0  0  0  0
   10.3016   -4.7997    2.7678 H   0  0  0  0  0  0  0  0  0  0  0  0
    5.0283   -0.4130    1.1008 H   0  0  0  0  0  0  0  0  0  0  0  0
  1  2  1  0  0  0  0
  1 30  1  0  0  0  0
  1 31  1  0  0  0  0
  1 32  1  0  0  0  0
  2  3  1  0  0  0  0
  3  4  1  0  0  0  0
  3 29  2  0  0  0  0
  4  5  2  0  0  0  0
  4 33  1  0  0  0  0
  5  6  1  0  0  0  0
  5 34  1  0  0  0  0
  6  7  2  0  0  0  0
  6 35  1  0  0  0  0
  7  8  1  0  0  0  0
  7 29  1  0  0  0  0
  8  9  1  0  0  0  0
  8 36  1  0  0  0  0
  9 10  2  0  0  0  0
  9 11  1  0  0  0  0
 11 12  1  0  0  0  0
 11 37  1  0  0  0  0
 12 13  1  0  0  0  0
 12 28  2  0  0  0  0
 13 14  2  0  0  0  0
 13 38  1  0  0  0  0
 14 15  1  0  0  0  0
 14 39  1  0  0  0  0
 15 16  1  0  0  0  0
 15 27  2  0  0  0  0
 16 17  2  0  0  0  0
 16 26  1  0  0  0  0
 17 18  1  0  0  0  0
 17 19  1  0  0  0  0
 18 40  1  0  0  0  0
 18 41  1  0  0  0  0
 18 42  1  0  0  0  0
 19 20  1  0  0  0  0
 20 21  1  0  0  0  0
 20 26  2  0  0  0  0
 21 22  2  0  0  0  0
 22 23  1  0  0  0  0
 22 43  1  0  0  0  0
 23 24  2  0  0  0  0
 24 25  1  0  0  0  0
 24 26  1  0  0  0  0
 25 44  1  0  0  0  0
 25 45  1  0  0  0  0
 27 28  1  0  0  0  0
 27 46  1  0  0  0  0
 28 47  1  0  0  0  0
 29 48  1  0  0  0  0
M  END
$$$$
