CHEMBL3932595
 OpenBabel04072215373D

 53 56  0  0  0  0  0  0  0  0999 V2000
    2.3685    0.1352   -0.2542 C   0  0  0  0  0  0  0  0  0  0  0  0
    0.8763    0.0265   -0.1809 C   0  0  0  0  0  0  0  0  0  0  0  0
    0.2186    1.2179   -0.1699 N   0  0  0  0  0  0  0  0  0  0  0  0
   -1.1212    1.2261   -0.0098 C   0  0  0  0  0  0  0  0  0  0  0  0
   -1.7993    2.4448    0.0699 N   0  0  0  0  0  0  0  0  0  0  0  0
   -1.2672    3.7046    0.0898 C   0  0  0  0  0  0  0  0  0  0  0  0
   -2.0046    4.6574    0.3361 O   0  0  0  0  0  0  0  0  0  0  0  0
    0.0602    3.8027   -0.2180 N   0  0  0  0  0  0  0  0  0  0  0  0
    0.8175    4.9738   -0.2059 C   0  0  0  0  0  0  0  0  0  0  0  0
    1.7238    5.1786   -1.2396 C   0  0  0  0  0  0  0  0  0  0  0  0
    2.5041    6.3319   -1.2533 C   0  0  0  0  0  0  0  0  0  0  0  0
    2.4408    7.2494   -0.1904 C   0  0  0  0  0  0  0  0  0  0  0  0
    3.4774    8.6217   -0.3144 Cl  0  0  0  0  0  0  0  0  0  0  0  0
    1.5781    7.0250    0.8855 C   0  0  0  0  0  0  0  0  0  0  0  0
    1.5043    7.8881    2.1176 C   0  0  0  0  0  0  0  0  0  0  0  0
    2.3558    8.9459    2.1675 F   0  0  0  0  0  0  0  0  0  0  0  0
    0.2603    8.4131    2.3055 F   0  0  0  0  0  0  0  0  0  0  0  0
    1.7682    7.1692    3.2496 F   0  0  0  0  0  0  0  0  0  0  0  0
    0.7370    5.8904    0.8437 C   0  0  0  0  0  0  0  0  0  0  0  0
   -1.8555    0.0621    0.1261 C   0  0  0  0  0  0  0  0  0  0  0  0
   -1.1801   -1.1541    0.1161 C   0  0  0  0  0  0  0  0  0  0  0  0
    0.2051   -1.1906   -0.0768 C   0  0  0  0  0  0  0  0  0  0  0  0
    0.8993   -2.3828   -0.1273 O   0  0  0  0  0  0  0  0  0  0  0  0
    0.3186   -3.4052   -0.8824 C   0  0  0  0  0  0  0  0  0  0  0  0
    0.6116   -4.7096   -0.5376 C   0  0  0  0  0  0  0  0  0  0  0  0
   -0.0151   -5.6820   -1.2903 C   0  0  0  0  0  0  0  0  0  0  0  0
    0.2988   -7.0337   -1.0555 N   0  0  0  0  0  0  0  0  0  0  0  0
   -0.2943   -8.0886   -1.7294 C   0  0  0  0  0  0  0  0  0  0  0  0
   -1.2694   -8.0400   -2.4630 O   0  0  0  0  0  0  0  0  0  0  0  0
    0.3144   -9.4356   -1.5155 C   0  0  0  0  0  0  0  0  0  0  0  0
    0.4089  -10.0368   -0.1361 C   0  0  0  0  0  0  0  0  0  0  0  0
    1.6617   -9.7098   -0.8986 C   0  0  0  0  0  0  0  0  0  0  0  0
   -0.8773   -5.3733   -2.2681 N   0  0  0  0  0  0  0  0  0  0  0  0
   -1.0768   -4.0829   -2.5332 C   0  0  0  0  0  0  0  0  0  0  0  0
   -0.4921   -3.0678   -1.9011 N   0  0  0  0  0  0  0  0  0  0  0  0
    2.6604    1.1577   -0.5267 H   0  0  0  0  0  0  0  0  0  0  0  0
    2.7861   -0.5375   -1.0073 H   0  0  0  0  0  0  0  0  0  0  0  0
    2.8115   -0.0808    0.7236 H   0  0  0  0  0  0  0  0  0  0  0  0
   -2.7961    2.4324    0.2288 H   0  0  0  0  0  0  0  0  0  0  0  0
    0.4244    2.9929   -0.7132 H   0  0  0  0  0  0  0  0  0  0  0  0
    1.7866    4.4775   -2.0679 H   0  0  0  0  0  0  0  0  0  0  0  0
    3.1645    6.5117   -2.0979 H   0  0  0  0  0  0  0  0  0  0  0  0
    0.0605    5.6936    1.6763 H   0  0  0  0  0  0  0  0  0  0  0  0
   -2.9328    0.0765    0.2444 H   0  0  0  0  0  0  0  0  0  0  0  0
   -1.7492   -2.0718    0.2335 H   0  0  0  0  0  0  0  0  0  0  0  0
    1.2836   -4.9357    0.2772 H   0  0  0  0  0  0  0  0  0  0  0  0
    1.0035   -7.2452   -0.3723 H   0  0  0  0  0  0  0  0  0  0  0  0
    0.0327  -10.1223   -2.3156 H   0  0  0  0  0  0  0  0  0  0  0  0
    0.1264  -11.0795   -0.0322 H   0  0  0  0  0  0  0  0  0  0  0  0
    0.1473   -9.4248    0.7181 H   0  0  0  0  0  0  0  0  0  0  0  0
    2.2335  -10.5383   -1.3076 H   0  0  0  0  0  0  0  0  0  0  0  0
    2.2857   -8.8989   -0.5501 H   0  0  0  0  0  0  0  0  0  0  0  0
   -1.7776   -3.8443   -3.3246 H   0  0  0  0  0  0  0  0  0  0  0  0
  1  2  1  0  0  0  0
  1 36  1  0  0  0  0
  1 37  1  0  0  0  0
  1 38  1  0  0  0  0
  2  3  1  0  0  0  0
  2 22  2  0  0  0  0
  3  4  2  0  0  0  0
  4  5  1  0  0  0  0
  4 20  1  0  0  0  0
  5  6  1  0  0  0  0
  5 39  1  0  0  0  0
  6  7  2  0  0  0  0
  6  8  1  0  0  0  0
  8  9  1  0  0  0  0
  8 40  1  0  0  0  0
  9 10  1  0  0  0  0
  9 19  2  0  0  0  0
 10 11  2  0  0  0  0
 10 41  1  0  0  0  0
 11 12  1  0  0  0  0
 11 42  1  0  0  0  0
 12 13  1  0  0  0  0
 12 14  2  0  0  0  0
 14 15  1  0  0  0  0
 14 19  1  0  0  0  0
 15 16  1  0  0  0  0
 15 17  1  0  0  0  0
 15 18  1  0  0  0  0
 19 43  1  0  0  0  0
 20 21  2  0  0  0  0
 20 44  1  0  0  0  0
 21 22  1  0  0  0  0
 21 45  1  0  0  0  0
 22 23  1  0  0  0  0
 23 24  1  0  0  0  0
 24 25  1  0  0  0  0
 24 35  2  0  0  0  0
 25 26  2  0  0  0  0
 25 46  1  0  0  0  0
 26 27  1  0  0  0  0
 26 33  1  0  0  0  0
 27 28  1  0  0  0  0
 27 47  1  0  0  0  0
 28 29  2  0  0  0  0
 28 30  1  0  0  0  0
 30 31  1  0  0  0  0
 30 32  1  0  0  0  0
 30 48  1  0  0  0  0
 31 32  1  0  0  0  0
 31 49  1  0  0  0  0
 31 50  1  0  0  0  0
 32 51  1  0  0  0  0
 32 52  1  0  0  0  0
 33 34  2  0  0  0  0
 34 35  1  0  0  0  0
 34 53  1  0  0  0  0
M  END
$$$$
