CHEMBL569882
 OpenBabel04072215383D

 63 67  0  0  0  0  0  0  0  0999 V2000
    0.8590   -0.6174   -0.6923 C   0  0  0  0  0  0  0  0  0  0  0  0
    1.8977    0.0425    0.0671 N   0  0  0  0  0  0  0  0  0  0  0  0
    2.5081   -0.7640    1.0137 C   0  0  0  0  0  0  0  0  0  0  0  0
    3.0353   -0.1370    2.0743 N   0  0  0  0  0  0  0  0  0  0  0  0
    3.6580   -0.9150    2.9792 C   0  0  0  0  0  0  0  0  0  0  0  0
    3.7405   -2.2948    2.8920 C   0  0  0  0  0  0  0  0  0  0  0  0
    4.3856   -3.1260    3.8325 C   0  0  0  0  0  0  0  0  0  0  0  0
    4.2473   -4.5296    3.8022 C   0  0  0  0  0  0  0  0  0  0  0  0
    4.8370   -5.3973    4.8754 C   0  0  0  0  0  0  0  0  0  0  0  0
    5.5540   -6.5894    4.5661 C   0  0  0  0  0  0  0  0  0  0  0  0
    5.7148   -7.1902    3.1905 C   0  0  0  0  0  0  0  0  0  0  0  0
    6.1498   -7.3312    5.5973 C   0  0  0  0  0  0  0  0  0  0  0  0
    6.1336   -6.8810    6.9107 C   0  0  0  0  0  0  0  0  0  0  0  0
    5.4604   -5.7030    7.2677 C   0  0  0  0  0  0  0  0  0  0  0  0
    5.4407   -5.2201    8.6020 C   0  0  0  0  0  0  0  0  0  0  0  0
    6.2129   -5.8739    9.6042 N   0  0  0  0  0  0  0  0  0  0  0  0
    5.8165   -5.8783   10.9081 C   0  0  0  0  0  0  0  0  0  0  0  0
    4.5545   -5.8618   11.4527 C   0  0  0  0  0  0  0  0  0  0  0  0
    4.7265   -5.8542   12.8529 C   0  0  0  0  0  0  0  0  0  0  0  0
    3.6537   -5.7994   13.9286 C   0  0  0  0  0  0  0  0  0  0  0  0
    2.2356   -5.7434   13.3157 C   0  0  0  0  0  0  0  0  0  0  0  0
    3.7354   -7.0518   14.8203 C   0  0  0  0  0  0  0  0  0  0  0  0
    3.8345   -4.5405   14.7999 C   0  0  0  0  0  0  0  0  0  0  0  0
    6.0280   -5.9101   13.1750 N   0  0  0  0  0  0  0  0  0  0  0  0
    6.6675   -5.9141   11.9835 N   0  0  0  0  0  0  0  0  0  0  0  0
    8.1094   -5.9403   11.9704 C   0  0  0  0  0  0  0  0  0  0  0  0
    4.7240   -4.1356    8.9749 N   0  0  0  0  0  0  0  0  0  0  0  0
    3.9705   -3.5344    8.0531 C   0  0  0  0  0  0  0  0  0  0  0  0
    3.9308   -3.9357    6.7333 C   0  0  0  0  0  0  0  0  0  0  0  0
    4.7379   -5.0002    6.2682 C   0  0  0  0  0  0  0  0  0  0  0  0
    3.5144   -5.0499    2.7251 C   0  0  0  0  0  0  0  0  0  0  0  0
    3.0137   -4.2228    1.7134 C   0  0  0  0  0  0  0  0  0  0  0  0
    3.0889   -2.8427    1.7932 C   0  0  0  0  0  0  0  0  0  0  0  0
    2.5151   -2.0942    0.8520 N   0  0  0  0  0  0  0  0  0  0  0  0
    0.3959    0.1012   -1.3761 H   0  0  0  0  0  0  0  0  0  0  0  0
    0.0726   -1.0145   -0.0406 H   0  0  0  0  0  0  0  0  0  0  0  0
    1.2641   -1.4298   -1.3054 H   0  0  0  0  0  0  0  0  0  0  0  0
    1.6367    0.9015    0.5373 H   0  0  0  0  0  0  0  0  0  0  0  0
    4.0673   -0.3755    3.8318 H   0  0  0  0  0  0  0  0  0  0  0  0
    4.9587   -2.6536    4.6260 H   0  0  0  0  0  0  0  0  0  0  0  0
    5.5790   -6.4782    2.3758 H   0  0  0  0  0  0  0  0  0  0  0  0
    5.0097   -8.0209    3.0674 H   0  0  0  0  0  0  0  0  0  0  0  0
    6.7309   -7.5823    3.0651 H   0  0  0  0  0  0  0  0  0  0  0  0
    6.6555   -8.2701    5.3743 H   0  0  0  0  0  0  0  0  0  0  0  0
    6.6262   -7.4911    7.6655 H   0  0  0  0  0  0  0  0  0  0  0  0
    7.1935   -5.8360    9.3559 H   0  0  0  0  0  0  0  0  0  0  0  0
    3.6313   -5.8313   10.8937 H   0  0  0  0  0  0  0  0  0  0  0  0
    2.0287   -6.6284   12.7013 H   0  0  0  0  0  0  0  0  0  0  0  0
    2.1086   -4.8602   12.6782 H   0  0  0  0  0  0  0  0  0  0  0  0
    1.4667   -5.6983   14.0947 H   0  0  0  0  0  0  0  0  0  0  0  0
    3.5969   -7.9656   14.2305 H   0  0  0  0  0  0  0  0  0  0  0  0
    2.9643   -7.0355   15.5989 H   0  0  0  0  0  0  0  0  0  0  0  0
    4.7079   -7.1289   15.3207 H   0  0  0  0  0  0  0  0  0  0  0  0
    3.7754   -3.6277   14.1949 H   0  0  0  0  0  0  0  0  0  0  0  0
    4.8061   -4.5358   15.3078 H   0  0  0  0  0  0  0  0  0  0  0  0
    3.0584   -4.4798   15.5719 H   0  0  0  0  0  0  0  0  0  0  0  0
    8.4898   -5.6780   12.9585 H   0  0  0  0  0  0  0  0  0  0  0  0
    8.4732   -5.2150   11.2372 H   0  0  0  0  0  0  0  0  0  0  0  0
    8.4277   -6.9511   11.7023 H   0  0  0  0  0  0  0  0  0  0  0  0
    3.3823   -2.6945    8.4076 H   0  0  0  0  0  0  0  0  0  0  0  0
    3.2472   -3.4039    6.0803 H   0  0  0  0  0  0  0  0  0  0  0  0
    3.3354   -6.1191    2.6394 H   0  0  0  0  0  0  0  0  0  0  0  0
    2.5118   -4.6696    0.8541 H   0  0  0  0  0  0  0  0  0  0  0  0
  1  2  1  0  0  0  0
  1 35  1  0  0  0  0
  1 36  1  0  0  0  0
  1 37  1  0  0  0  0
  2  3  1  0  0  0  0
  2 38  1  0  0  0  0
  3  4  1  0  0  0  0
  3 34  2  0  0  0  0
  4  5  2  0  0  0  0
  5  6  1  0  0  0  0
  5 39  1  0  0  0  0
  6  7  1  0  0  0  0
  6 33  2  0  0  0  0
  7  8  2  0  0  0  0
  7 40  1  0  0  0  0
  8  9  1  0  0  0  0
  8 31  1  0  0  0  0
  9 10  1  0  0  0  0
  9 30  2  0  0  0  0
 10 11  1  0  0  0  0
 10 12  2  0  0  0  0
 11 41  1  0  0  0  0
 11 42  1  0  0  0  0
 11 43  1  0  0  0  0
 12 13  1  0  0  0  0
 12 44  1  0  0  0  0
 13 14  2  0  0  0  0
 13 45  1  0  0  0  0
 14 15  1  0  0  0  0
 14 30  1  0  0  0  0
 15 16  1  0  0  0  0
 15 27  2  0  0  0  0
 16 17  1  0  0  0  0
 16 46  1  0  0  0  0
 17 18  2  0  0  0  0
 17 25  1  0  0  0  0
 18 19  1  0  0  0  0
 18 47  1  0  0  0  0
 19 20  1  0  0  0  0
 19 24  2  0  0  0  0
 20 21  1  0  0  0  0
 20 22  1  0  0  0  0
 20 23  1  0  0  0  0
 21 48  1  0  0  0  0
 21 49  1  0  0  0  0
 21 50  1  0  0  0  0
 22 51  1  0  0  0  0
 22 52  1  0  0  0  0
 22 53  1  0  0  0  0
 23 54  1  0  0  0  0
 23 55  1  0  0  0  0
 23 56  1  0  0  0  0
 24 25  1  0  0  0  0
 25 26  1  0  0  0  0
 26 57  1  0  0  0  0
 26 58  1  0  0  0  0
 26 59  1  0  0  0  0
 27 28  1  0  0  0  0
 28 29  2  0  0  0  0
 28 60  1  0  0  0  0
 29 30  1  0  0  0  0
 29 61  1  0  0  0  0
 31 32  2  0  0  0  0
 31 62  1  0  0  0  0
 32 33  1  0  0  0  0
 32 63  1  0  0  0  0
 33 34  1  0  0  0  0
M  END
$$$$
