CHEMBL1988437
 OpenBabel04072215363D

 46 49  0  0  0  0  0  0  0  0999 V2000
    4.5089   -6.9934    2.3008 C   0  0  0  0  0  0  0  0  0  0  0  0
    4.7314   -5.6147    1.9488 N   0  0  0  0  0  0  0  0  0  0  0  0
    4.2033   -4.5813    2.6946 C   0  0  0  0  0  0  0  0  0  0  0  0
    3.5055   -4.7642    3.6888 O   0  0  0  0  0  0  0  0  0  0  0  0
    4.6131   -3.1992    2.3022 C   0  0  0  0  0  0  0  0  0  0  0  0
    4.8278   -2.3103    3.3752 C   0  0  0  0  0  0  0  0  0  0  0  0
    5.2938   -1.0136    3.1562 C   0  0  0  0  0  0  0  0  0  0  0  0
    5.5505   -0.5870    1.8557 C   0  0  0  0  0  0  0  0  0  0  0  0
    5.3176   -1.4474    0.7809 C   0  0  0  0  0  0  0  0  0  0  0  0
    4.8304   -2.7523    0.9826 C   0  0  0  0  0  0  0  0  0  0  0  0
    4.6219   -3.7237   -0.5069 S   0  0  0  0  0  0  0  0  0  0  0  0
    2.9082   -3.4284   -0.9273 C   0  0  0  0  0  0  0  0  0  0  0  0
    2.4734   -2.2257   -1.5093 C   0  0  0  0  0  0  0  0  0  0  0  0
    1.1136   -2.0114   -1.8325 C   0  0  0  0  0  0  0  0  0  0  0  0
    0.2220   -3.0904   -1.6860 C   0  0  0  0  0  0  0  0  0  0  0  0
   -1.1769   -3.3995   -1.8244 C   0  0  0  0  0  0  0  0  0  0  0  0
   -2.2071   -3.3149   -0.7861 C   0  0  0  0  0  0  0  0  0  0  0  0
   -1.9465   -3.1830    0.5310 C   0  0  0  0  0  0  0  0  0  0  0  0
   -2.6810   -3.9607    1.5584 C   0  0  0  0  0  0  0  0  0  0  0  0
   -2.3524   -3.8205    2.9042 C   0  0  0  0  0  0  0  0  0  0  0  0
   -2.8554   -4.7405    3.8281 C   0  0  0  0  0  0  0  0  0  0  0  0
   -3.6642   -5.7805    3.3886 C   0  0  0  0  0  0  0  0  0  0  0  0
   -3.9538   -5.8445    2.0381 C   0  0  0  0  0  0  0  0  0  0  0  0
   -3.4899   -4.9602    1.1233 N   0  0  0  0  0  0  0  0  0  0  0  0
   -1.2003   -4.5994   -2.4487 N   0  0  0  0  0  0  0  0  0  0  0  0
   -0.1731   -5.2143   -1.8345 N   0  0  0  0  0  0  0  0  0  0  0  0
    0.7660   -4.3337   -1.3745 C   0  0  0  0  0  0  0  0  0  0  0  0
    2.0354   -4.5159   -0.8331 C   0  0  0  0  0  0  0  0  0  0  0  0
    4.8468   -7.6249    1.4750 H   0  0  0  0  0  0  0  0  0  0  0  0
    3.4446   -7.1585    2.4866 H   0  0  0  0  0  0  0  0  0  0  0  0
    5.0769   -7.2314    3.2048 H   0  0  0  0  0  0  0  0  0  0  0  0
    5.3696   -5.4026    1.1896 H   0  0  0  0  0  0  0  0  0  0  0  0
    4.6515   -2.6395    4.3984 H   0  0  0  0  0  0  0  0  0  0  0  0
    5.4730   -0.3462    3.9930 H   0  0  0  0  0  0  0  0  0  0  0  0
    5.9425    0.4111    1.6733 H   0  0  0  0  0  0  0  0  0  0  0  0
    5.5345   -1.0923   -0.2249 H   0  0  0  0  0  0  0  0  0  0  0  0
    3.1955   -1.4460   -1.7453 H   0  0  0  0  0  0  0  0  0  0  0  0
    0.7945   -1.0780   -2.2893 H   0  0  0  0  0  0  0  0  0  0  0  0
   -3.1360   -3.8147   -1.0725 H   0  0  0  0  0  0  0  0  0  0  0  0
   -1.0094   -2.7533    0.8688 H   0  0  0  0  0  0  0  0  0  0  0  0
   -1.6740   -3.0422    3.2374 H   0  0  0  0  0  0  0  0  0  0  0  0
   -2.5881   -4.6638    4.8789 H   0  0  0  0  0  0  0  0  0  0  0  0
   -4.0467   -6.5273    4.0762 H   0  0  0  0  0  0  0  0  0  0  0  0
   -4.5678   -6.6467    1.6367 H   0  0  0  0  0  0  0  0  0  0  0  0
   -0.1207   -6.2235   -1.8641 H   0  0  0  0  0  0  0  0  0  0  0  0
    2.3577   -5.4850   -0.4699 H   0  0  0  0  0  0  0  0  0  0  0  0
  1  2  1  0  0  0  0
  1 29  1  0  0  0  0
  1 30  1  0  0  0  0
  1 31  1  0  0  0  0
  2  3  1  0  0  0  0
  2 32  1  0  0  0  0
  3  4  2  0  0  0  0
  3  5  1  0  0  0  0
  5  6  1  0  0  0  0
  5 10  2  0  0  0  0
  6  7  2  0  0  0  0
  6 33  1  0  0  0  0
  7  8  1  0  0  0  0
  7 34  1  0  0  0  0
  8  9  2  0  0  0  0
  8 35  1  0  0  0  0
  9 10  1  0  0  0  0
  9 36  1  0  0  0  0
 10 11  1  0  0  0  0
 11 12  1  0  0  0  0
 12 13  1  0  0  0  0
 12 28  2  0  0  0  0
 13 14  2  0  0  0  0
 13 37  1  0  0  0  0
 14 15  1  0  0  0  0
 14 38  1  0  0  0  0
 15 16  1  0  0  0  0
 15 27  2  0  0  0  0
 16 17  1  0  0  0  0
 16 25  2  0  0  0  0
 17 18  2  3  0  0  0
 17 39  1  0  0  0  0
 18 19  1  0  0  0  0
 18 40  1  0  0  0  0
 19 20  1  0  0  0  0
 19 24  2  0  0  0  0
 20 21  2  0  0  0  0
 20 41  1  0  0  0  0
 21 22  1  0  0  0  0
 21 42  1  0  0  0  0
 22 23  2  0  0  0  0
 22 43  1  0  0  0  0
 23 24  1  0  0  0  0
 23 44  1  0  0  0  0
 25 26  1  0  0  0  0
 26 27  1  0  0  0  0
 26 45  1  0  0  0  0
 27 28  1  0  0  0  0
 28 46  1  0  0  0  0
M  END
$$$$
