CHEMBL3656124
 OpenBabel04072215373D

 65 68  0  0  0  0  0  0  0  0999 V2000
    0.5269   -0.4003   -1.8207 C   0  0  0  0  0  0  0  0  0  0  0  0
    1.5037    0.5085   -1.0866 C   0  0  0  0  0  0  0  0  0  0  0  0
    2.4926    1.1225   -1.9746 N   0  0  0  0  0  0  0  0  0  0  0  0
    2.3306    2.5038   -2.4330 C   0  0  0  0  0  0  0  0  0  0  0  0
    0.9807    3.1801   -2.2524 C   0  0  0  0  0  0  0  0  0  0  0  0
    3.5928    0.3181   -2.3328 C   0  0  0  0  0  0  0  0  0  0  0  0
    3.6385   -0.8677   -1.9995 O   0  0  0  0  0  0  0  0  0  0  0  0
    4.6836    0.8629   -3.1539 C   0  0  0  0  0  0  0  0  0  0  0  0
    5.2592    2.1224   -3.1825 C   0  0  0  0  0  0  0  0  0  0  0  0
    6.2716    2.1290   -4.1117 N   0  0  0  0  0  0  0  0  0  0  0  0
    6.4319    0.8756   -4.6506 C   0  0  0  0  0  0  0  0  0  0  0  0
    7.4572    0.5710   -5.6417 C   0  0  0  0  0  0  0  0  0  0  0  0
    7.6033   -0.7082   -6.1573 C   0  0  0  0  0  0  0  0  0  0  0  0
    8.5018   -0.9138   -7.2009 C   0  0  0  0  0  0  0  0  0  0  0  0
    8.6635   -2.1249   -7.8475 O   0  0  0  0  0  0  0  0  0  0  0  0
    7.5665   -2.9511   -7.9898 C   0  0  0  0  0  0  0  0  0  0  0  0
    6.2787   -2.4751   -8.2130 C   0  0  0  0  0  0  0  0  0  0  0  0
    5.1972   -3.3549   -8.2251 C   0  0  0  0  0  0  0  0  0  0  0  0
    5.3794   -4.7348   -8.0963 C   0  0  0  0  0  0  0  0  0  0  0  0
    4.3016   -5.6509   -8.0485 N   0  0  0  0  0  0  0  0  0  0  0  0
    2.9630   -5.3247   -8.1892 C   0  0  0  0  0  0  0  0  0  0  0  0
    2.5401   -4.2143   -8.4810 O   0  0  0  0  0  0  0  0  0  0  0  0
    2.1210   -6.3941   -7.9162 N   0  0  0  0  0  0  0  0  0  0  0  0
    0.7139   -6.2045   -7.9979 C   0  0  0  0  0  0  0  0  0  0  0  0
    0.1228   -5.5269   -9.0732 C   0  0  0  0  0  0  0  0  0  0  0  0
   -1.2510   -5.2476   -9.0781 C   0  0  0  0  0  0  0  0  0  0  0  0
   -1.8756   -4.5002  -10.2202 C   0  0  0  0  0  0  0  0  0  0  0  0
   -2.0325   -5.6516   -7.9879 C   0  0  0  0  0  0  0  0  0  0  0  0
   -1.4556   -6.3573   -6.9293 C   0  0  0  0  0  0  0  0  0  0  0  0
   -0.0944   -6.6490   -6.9528 C   0  0  0  0  0  0  0  0  0  0  0  0
    0.4551   -7.3002   -5.9157 F   0  0  0  0  0  0  0  0  0  0  0  0
    6.6867   -5.2172   -7.9799 C   0  0  0  0  0  0  0  0  0  0  0  0
    7.7773   -4.3294   -7.9235 C   0  0  0  0  0  0  0  0  0  0  0  0
    9.3092    0.1391   -7.6126 C   0  0  0  0  0  0  0  0  0  0  0  0
    9.1284    1.3742   -7.0087 C   0  0  0  0  0  0  0  0  0  0  0  0
    8.2095    1.6217   -6.0449 N   0  0  0  0  0  0  0  0  0  0  0  0
    5.4548    0.0834   -4.0727 C   0  0  0  0  0  0  0  0  0  0  0  0
   -0.2044   -0.8076   -1.1158 H   0  0  0  0  0  0  0  0  0  0  0  0
    1.0366   -1.2463   -2.2946 H   0  0  0  0  0  0  0  0  0  0  0  0
   -0.0210    0.1374   -2.5989 H   0  0  0  0  0  0  0  0  0  0  0  0
    2.0349   -0.0875   -0.3346 H   0  0  0  0  0  0  0  0  0  0  0  0
    0.9640    1.2768   -0.5287 H   0  0  0  0  0  0  0  0  0  0  0  0
    2.5895    2.5432   -3.4966 H   0  0  0  0  0  0  0  0  0  0  0  0
    3.0611    3.0973   -1.8757 H   0  0  0  0  0  0  0  0  0  0  0  0
    0.1789    2.6287   -2.7503 H   0  0  0  0  0  0  0  0  0  0  0  0
    1.0206    4.1875   -2.6833 H   0  0  0  0  0  0  0  0  0  0  0  0
    0.7270    3.2988   -1.1946 H   0  0  0  0  0  0  0  0  0  0  0  0
    5.0618    3.0222   -2.6198 H   0  0  0  0  0  0  0  0  0  0  0  0
    6.8548    2.9190   -4.3611 H   0  0  0  0  0  0  0  0  0  0  0  0
    6.9923   -1.5187   -5.7796 H   0  0  0  0  0  0  0  0  0  0  0  0
    6.0758   -1.4135   -8.3295 H   0  0  0  0  0  0  0  0  0  0  0  0
    4.2163   -2.9033   -8.3162 H   0  0  0  0  0  0  0  0  0  0  0  0
    4.5236   -6.6337   -7.9751 H   0  0  0  0  0  0  0  0  0  0  0  0
    2.4233   -6.9850   -7.1520 H   0  0  0  0  0  0  0  0  0  0  0  0
    0.7401   -5.1898   -9.9040 H   0  0  0  0  0  0  0  0  0  0  0  0
   -1.1396   -4.2589  -10.9947 H   0  0  0  0  0  0  0  0  0  0  0  0
   -2.3102   -3.5599   -9.8665 H   0  0  0  0  0  0  0  0  0  0  0  0
   -2.6592   -5.1085  -10.6833 H   0  0  0  0  0  0  0  0  0  0  0  0
   -3.0924   -5.4082   -7.9566 H   0  0  0  0  0  0  0  0  0  0  0  0
   -2.0550   -6.6565   -6.0756 H   0  0  0  0  0  0  0  0  0  0  0  0
    6.8851   -6.2853   -7.9104 H   0  0  0  0  0  0  0  0  0  0  0  0
    8.7864   -4.7167   -7.8071 H   0  0  0  0  0  0  0  0  0  0  0  0
   10.0508    0.0052   -8.3911 H   0  0  0  0  0  0  0  0  0  0  0  0
    9.7356    2.2275   -7.2972 H   0  0  0  0  0  0  0  0  0  0  0  0
    5.2881   -0.9679   -4.2735 H   0  0  0  0  0  0  0  0  0  0  0  0
  1  2  1  0  0  0  0
  1 38  1  0  0  0  0
  1 39  1  0  0  0  0
  1 40  1  0  0  0  0
  2  3  1  0  0  0  0
  2 41  1  0  0  0  0
  2 42  1  0  0  0  0
  3  4  1  0  0  0  0
  3  6  1  0  0  0  0
  4  5  1  0  0  0  0
  4 43  1  0  0  0  0
  4 44  1  0  0  0  0
  5 45  1  0  0  0  0
  5 46  1  0  0  0  0
  5 47  1  0  0  0  0
  6  7  2  0  0  0  0
  6  8  1  0  0  0  0
  8  9  2  0  0  0  0
  8 37  1  0  0  0  0
  9 10  1  0  0  0  0
  9 48  1  0  0  0  0
 10 11  1  0  0  0  0
 10 49  1  0  0  0  0
 11 12  1  0  0  0  0
 11 37  2  0  0  0  0
 12 13  1  0  0  0  0
 12 36  2  0  0  0  0
 13 14  2  0  0  0  0
 13 50  1  0  0  0  0
 14 15  1  0  0  0  0
 14 34  1  0  0  0  0
 15 16  1  0  0  0  0
 16 17  1  0  0  0  0
 16 33  2  0  0  0  0
 17 18  2  0  0  0  0
 17 51  1  0  0  0  0
 18 19  1  0  0  0  0
 18 52  1  0  0  0  0
 19 20  1  0  0  0  0
 19 32  2  0  0  0  0
 20 21  1  0  0  0  0
 20 53  1  0  0  0  0
 21 22  2  0  0  0  0
 21 23  1  0  0  0  0
 23 24  1  0  0  0  0
 23 54  1  0  0  0  0
 24 25  1  0  0  0  0
 24 30  2  0  0  0  0
 25 26  2  0  0  0  0
 25 55  1  0  0  0  0
 26 27  1  0  0  0  0
 26 28  1  0  0  0  0
 27 56  1  0  0  0  0
 27 57  1  0  0  0  0
 27 58  1  0  0  0  0
 28 29  2  0  0  0  0
 28 59  1  0  0  0  0
 29 30  1  0  0  0  0
 29 60  1  0  0  0  0
 30 31  1  0  0  0  0
 32 33  1  0  0  0  0
 32 61  1  0  0  0  0
 33 62  1  0  0  0  0
 34 35  2  0  0  0  0
 34 63  1  0  0  0  0
 35 36  1  0  0  0  0
 35 64  1  0  0  0  0
 37 65  1  0  0  0  0
M  END
$$$$
