CHEMBL3589807
 OpenBabel04072215363D

 47 50  0  0  0  0  0  0  0  0999 V2000
    0.1362    3.1438    1.5152 C   0  0  0  0  0  0  0  0  0  0  0  0
    1.5529    3.1827    1.3579 O   0  0  0  0  0  0  0  0  0  0  0  0
    2.2778    2.5159    2.3054 C   0  0  0  0  0  0  0  0  0  0  0  0
    1.7385    1.7255    3.3083 C   0  0  0  0  0  0  0  0  0  0  0  0
    2.5748    1.1213    4.2429 C   0  0  0  0  0  0  0  0  0  0  0  0
    3.9649    1.2885    4.2071 C   0  0  0  0  0  0  0  0  0  0  0  0
    4.8339    0.7413    5.1817 N   0  0  0  0  0  0  0  0  0  0  0  0
    4.4135    0.0149    6.2716 C   0  0  0  0  0  0  0  0  0  0  0  0
    3.2411   -0.2687    6.5109 O   0  0  0  0  0  0  0  0  0  0  0  0
    5.4447   -0.3981    7.1031 N   0  0  0  0  0  0  0  0  0  0  0  0
    5.1412   -1.3650    8.0908 C   0  0  0  0  0  0  0  0  0  0  0  0
    4.3106   -2.4237    7.7366 C   0  0  0  0  0  0  0  0  0  0  0  0
    3.8645   -3.2996    8.6971 C   0  0  0  0  0  0  0  0  0  0  0  0
    4.3824   -3.2770    9.9974 C   0  0  0  0  0  0  0  0  0  0  0  0
    4.0463   -4.3451   10.8614 N   0  0  0  0  0  0  0  0  0  0  0  0
    4.2640   -5.5221   10.3369 C   0  0  0  0  0  0  0  0  0  0  0  0
    5.4383   -5.9031    9.3938 C   0  0  0  0  0  0  0  0  0  0  0  0
    6.6007   -5.5860    9.5340 O   0  0  0  0  0  0  0  0  0  0  0  0
    4.8644   -6.6016    8.3526 N   0  0  0  0  0  0  0  0  0  0  0  0
    3.4886   -6.7069    8.5431 C   0  0  0  0  0  0  0  0  0  0  0  0
    2.5483   -6.8805    7.5457 C   0  0  0  0  0  0  0  0  0  0  0  0
    1.2066   -6.6658    7.8883 C   0  0  0  0  0  0  0  0  0  0  0  0
    0.8428   -6.3470    9.2088 C   0  0  0  0  0  0  0  0  0  0  0  0
   -0.4492   -6.1249    9.4864 F   0  0  0  0  0  0  0  0  0  0  0  0
    1.7952   -6.1513   10.2041 C   0  0  0  0  0  0  0  0  0  0  0  0
    3.1178   -6.3079    9.8345 C   0  0  0  0  0  0  0  0  0  0  0  0
    5.1934   -2.2079   10.3676 C   0  0  0  0  0  0  0  0  0  0  0  0
    5.5782   -1.2454    9.4122 C   0  0  0  0  0  0  0  0  0  0  0  0
    4.5095    2.0470    3.1716 C   0  0  0  0  0  0  0  0  0  0  0  0
    3.6664    2.6599    2.2316 C   0  0  0  0  0  0  0  0  0  0  0  0
   -0.3106    3.7420    0.7165 H   0  0  0  0  0  0  0  0  0  0  0  0
   -0.1702    3.5835    2.4718 H   0  0  0  0  0  0  0  0  0  0  0  0
   -0.2454    2.1213    1.4146 H   0  0  0  0  0  0  0  0  0  0  0  0
    0.6731    1.5537    3.4118 H   0  0  0  0  0  0  0  0  0  0  0  0
    2.0731    0.5195    4.9912 H   0  0  0  0  0  0  0  0  0  0  0  0
    5.8271    0.8475    5.0465 H   0  0  0  0  0  0  0  0  0  0  0  0
    6.1376    0.2991    7.3281 H   0  0  0  0  0  0  0  0  0  0  0  0
    3.9564   -2.5559    6.7180 H   0  0  0  0  0  0  0  0  0  0  0  0
    3.1163   -4.0212    8.3948 H   0  0  0  0  0  0  0  0  0  0  0  0
    5.3713   -6.8196    7.5080 H   0  0  0  0  0  0  0  0  0  0  0  0
    2.8335   -7.0295    6.5082 H   0  0  0  0  0  0  0  0  0  0  0  0
    0.4365   -6.6713    7.1205 H   0  0  0  0  0  0  0  0  0  0  0  0
    1.5129   -5.7664   11.1770 H   0  0  0  0  0  0  0  0  0  0  0  0
    5.5121   -2.1110   11.3998 H   0  0  0  0  0  0  0  0  0  0  0  0
    6.1687   -0.3912    9.7278 H   0  0  0  0  0  0  0  0  0  0  0  0
    5.5821    2.1936    3.0862 H   0  0  0  0  0  0  0  0  0  0  0  0
    4.0979    3.2689    1.4411 H   0  0  0  0  0  0  0  0  0  0  0  0
  1  2  1  0  0  0  0
  1 31  1  0  0  0  0
  1 32  1  0  0  0  0
  1 33  1  0  0  0  0
  2  3  1  0  0  0  0
  3  4  1  0  0  0  0
  3 30  2  0  0  0  0
  4  5  2  0  0  0  0
  4 34  1  0  0  0  0
  5  6  1  0  0  0  0
  5 35  1  0  0  0  0
  6  7  1  0  0  0  0
  6 29  2  0  0  0  0
  7  8  1  0  0  0  0
  7 36  1  0  0  0  0
  8  9  2  0  0  0  0
  8 10  1  0  0  0  0
 10 11  1  0  0  0  0
 10 37  1  0  0  0  0
 11 12  1  0  0  0  0
 11 28  2  0  0  0  0
 12 13  2  0  0  0  0
 12 38  1  0  0  0  0
 13 14  1  0  0  0  0
 13 39  1  0  0  0  0
 14 15  1  0  0  0  0
 14 27  2  0  0  0  0
 15 16  2  0  0  0  0
 16 17  1  0  0  0  0
 16 26  1  0  0  0  0
 17 18  2  0  0  0  0
 17 19  1  0  0  0  0
 19 20  1  0  0  0  0
 19 40  1  0  0  0  0
 20 21  1  0  0  0  0
 20 26  2  0  0  0  0
 21 22  2  0  0  0  0
 21 41  1  0  0  0  0
 22 23  1  0  0  0  0
 22 42  1  0  0  0  0
 23 24  1  0  0  0  0
 23 25  2  0  0  0  0
 25 26  1  0  0  0  0
 25 43  1  0  0  0  0
 27 28  1  0  0  0  0
 27 44  1  0  0  0  0
 28 45  1  0  0  0  0
 29 30  1  0  0  0  0
 29 46  1  0  0  0  0
 30 47  1  0  0  0  0
M  END
$$$$
