CHEMBL215417
 OpenBabel04072215363D

 69 74  0  0  0  0  0  0  0  0999 V2000
   -3.4067    4.3850    2.6231 C   0  0  0  0  0  0  0  0  0  0  0  0
   -2.4410    3.3497    2.9757 N   0  0  0  0  0  0  0  0  0  0  0  0
   -3.1168    2.1501    3.4959 C   0  0  0  0  0  0  0  0  0  0  0  0
   -2.0920    1.0498    3.8507 C   0  0  0  0  0  0  0  0  0  0  0  0
   -1.2699    0.6016    2.7062 N   0  0  0  0  0  0  0  0  0  0  0  0
   -2.0380   -0.0983    1.6625 C   0  0  0  0  0  0  0  0  0  0  0  0
   -2.7268   -1.3774    2.1002 C   0  0  0  0  0  0  0  0  0  0  0  0
   -2.0447   -2.6137    1.9847 C   0  0  0  0  0  0  0  0  0  0  0  0
   -2.6742   -3.8290    2.2596 C   0  0  0  0  0  0  0  0  0  0  0  0
   -3.9784   -3.7694    2.6966 C   0  0  0  0  0  0  0  0  0  0  0  0
   -4.6673   -2.5464    2.8983 C   0  0  0  0  0  0  0  0  0  0  0  0
   -4.0546   -1.3495    2.5761 C   0  0  0  0  0  0  0  0  0  0  0  0
   -6.0693   -2.7365    3.5079 C   0  0  0  0  0  0  0  0  0  0  0  0
   -6.0499   -4.2271    3.5586 C   0  0  0  0  0  0  0  0  0  0  0  0
   -6.7941   -5.3198    4.0214 C   0  0  0  0  0  0  0  0  0  0  0  0
   -8.1040   -5.2583    4.7301 C   0  0  0  0  0  0  0  0  0  0  0  0
   -8.7821   -6.3528    5.2221 C   0  0  0  0  0  0  0  0  0  0  0  0
  -10.0053   -5.9815    5.8532 C   0  0  0  0  0  0  0  0  0  0  0  0
  -10.2162   -4.6192    5.8055 C   0  0  0  0  0  0  0  0  0  0  0  0
  -11.3625   -3.8342    6.3198 C   0  0  0  0  0  0  0  0  0  0  0  0
  -12.3743   -3.7493    5.2907 N   0  0  0  0  0  0  0  0  0  0  0  0
  -13.5066   -3.0494    5.6198 C   0  0  0  0  0  0  0  0  0  0  0  0
  -13.6437   -2.5708    6.7429 O   0  0  0  0  0  0  0  0  0  0  0  0
  -14.4302   -3.0171    4.6001 N   0  0  0  0  0  0  0  0  0  0  0  0
  -15.7075   -2.4040    4.6968 C   0  0  0  0  0  0  0  0  0  0  0  0
  -15.9455   -1.4087    5.6601 C   0  0  0  0  0  0  0  0  0  0  0  0
  -17.2171   -0.8821    5.8724 C   0  0  0  0  0  0  0  0  0  0  0  0
  -18.2749   -1.3022    5.0844 C   0  0  0  0  0  0  0  0  0  0  0  0
  -18.0479   -2.2293    4.0688 C   0  0  0  0  0  0  0  0  0  0  0  0
  -16.7681   -2.7947    3.8603 C   0  0  0  0  0  0  0  0  0  0  0  0
  -16.6449   -3.8268    2.7702 C   0  0  0  0  0  0  0  0  0  0  0  0
  -15.3976   -4.3703    2.6490 F   0  0  0  0  0  0  0  0  0  0  0  0
  -17.4871   -4.8821    2.9541 F   0  0  0  0  0  0  0  0  0  0  0  0
  -16.9450   -3.3262    1.5384 F   0  0  0  0  0  0  0  0  0  0  0  0
   -8.9267   -3.8026    5.0495 S   0  0  0  0  0  0  0  0  0  0  0  0
   -6.1502   -6.4834    3.7810 N   0  0  0  0  0  0  0  0  0  0  0  0
   -4.9724   -6.1094    3.2210 N   0  0  0  0  0  0  0  0  0  0  0  0
   -4.8909   -4.7753    3.0885 C   0  0  0  0  0  0  0  0  0  0  0  0
   -0.6202    1.8118    2.1381 C   0  0  0  0  0  0  0  0  0  0  0  0
   -1.5801    2.9964    1.8310 C   0  0  0  0  0  0  0  0  0  0  0  0
   -4.0311    4.6376    3.4878 H   0  0  0  0  0  0  0  0  0  0  0  0
   -4.0664    4.0786    1.8035 H   0  0  0  0  0  0  0  0  0  0  0  0
   -2.8906    5.3049    2.3289 H   0  0  0  0  0  0  0  0  0  0  0  0
   -3.8439    1.7752    2.7654 H   0  0  0  0  0  0  0  0  0  0  0  0
   -3.6793    2.4027    4.4021 H   0  0  0  0  0  0  0  0  0  0  0  0
   -2.5900    0.2044    4.3359 H   0  0  0  0  0  0  0  0  0  0  0  0
   -1.4137    1.4456    4.6204 H   0  0  0  0  0  0  0  0  0  0  0  0
   -1.3421   -0.3769    0.8587 H   0  0  0  0  0  0  0  0  0  0  0  0
   -2.7817    0.5461    1.1789 H   0  0  0  0  0  0  0  0  0  0  0  0
   -1.0052   -2.6258    1.6615 H   0  0  0  0  0  0  0  0  0  0  0  0
   -2.1565   -4.7708    2.1473 H   0  0  0  0  0  0  0  0  0  0  0  0
   -4.5892   -0.4141    2.6946 H   0  0  0  0  0  0  0  0  0  0  0  0
   -6.8477   -2.3397    2.8511 H   0  0  0  0  0  0  0  0  0  0  0  0
   -6.1121   -2.2982    4.5094 H   0  0  0  0  0  0  0  0  0  0  0  0
   -8.4171   -7.3697    5.1358 H   0  0  0  0  0  0  0  0  0  0  0  0
  -10.6973   -6.6787    6.3104 H   0  0  0  0  0  0  0  0  0  0  0  0
  -11.0623   -2.8193    6.6125 H   0  0  0  0  0  0  0  0  0  0  0  0
  -11.7984   -4.3164    7.2022 H   0  0  0  0  0  0  0  0  0  0  0  0
  -12.0567   -3.6666    4.3345 H   0  0  0  0  0  0  0  0  0  0  0  0
  -14.2910   -3.7200    3.8824 H   0  0  0  0  0  0  0  0  0  0  0  0
  -15.1463   -1.0231    6.2879 H   0  0  0  0  0  0  0  0  0  0  0  0
  -17.3690   -0.1588    6.6689 H   0  0  0  0  0  0  0  0  0  0  0  0
  -19.2725   -0.9087    5.2621 H   0  0  0  0  0  0  0  0  0  0  0  0
  -18.8879   -2.5407    3.4493 H   0  0  0  0  0  0  0  0  0  0  0  0
   -4.2888   -6.8206    2.9896 H   0  0  0  0  0  0  0  0  0  0  0  0
   -0.0587    1.5504    1.2324 H   0  0  0  0  0  0  0  0  0  0  0  0
    0.1336    2.1570    2.8587 H   0  0  0  0  0  0  0  0  0  0  0  0
   -2.1920    2.7448    0.9549 H   0  0  0  0  0  0  0  0  0  0  0  0
   -0.9716    3.8665    1.5569 H   0  0  0  0  0  0  0  0  0  0  0  0
  1  2  1  0  0  0  0
  1 41  1  0  0  0  0
  1 42  1  0  0  0  0
  1 43  1  0  0  0  0
  2  3  1  0  0  0  0
  2 40  1  0  0  0  0
  3  4  1  0  0  0  0
  3 44  1  0  0  0  0
  3 45  1  0  0  0  0
  4  5  1  0  0  0  0
  4 46  1  0  0  0  0
  4 47  1  0  0  0  0
  5  6  1  0  0  0  0
  5 39  1  0  0  0  0
  6  7  1  0  0  0  0
  6 48  1  0  0  0  0
  6 49  1  0  0  0  0
  7  8  1  0  0  0  0
  7 12  2  0  0  0  0
  8  9  2  0  0  0  0
  8 50  1  0  0  0  0
  9 10  1  0  0  0  0
  9 51  1  0  0  0  0
 10 11  2  0  0  0  0
 10 38  1  0  0  0  0
 11 12  1  0  0  0  0
 11 13  1  0  0  0  0
 12 52  1  0  0  0  0
 13 14  1  0  0  0  0
 13 53  1  0  0  0  0
 13 54  1  0  0  0  0
 14 15  1  0  0  0  0
 14 38  2  0  0  0  0
 15 16  1  0  0  0  0
 15 36  2  0  0  0  0
 16 17  2  0  0  0  0
 16 35  1  0  0  0  0
 17 18  1  0  0  0  0
 17 55  1  0  0  0  0
 18 19  2  0  0  0  0
 18 56  1  0  0  0  0
 19 20  1  0  0  0  0
 19 35  1  0  0  0  0
 20 21  1  0  0  0  0
 20 57  1  0  0  0  0
 20 58  1  0  0  0  0
 21 22  1  0  0  0  0
 21 59  1  0  0  0  0
 22 23  2  0  0  0  0
 22 24  1  0  0  0  0
 24 25  1  0  0  0  0
 24 60  1  0  0  0  0
 25 26  1  0  0  0  0
 25 30  2  0  0  0  0
 26 27  2  0  0  0  0
 26 61  1  0  0  0  0
 27 28  1  0  0  0  0
 27 62  1  0  0  0  0
 28 29  2  0  0  0  0
 28 63  1  0  0  0  0
 29 30  1  0  0  0  0
 29 64  1  0  0  0  0
 30 31  1  0  0  0  0
 31 32  1  0  0  0  0
 31 33  1  0  0  0  0
 31 34  1  0  0  0  0
 36 37  1  0  0  0  0
 37 38  1  0  0  0  0
 37 65  1  0  0  0  0
 39 40  1  0  0  0  0
 39 66  1  0  0  0  0
 39 67  1  0  0  0  0
 40 68  1  0  0  0  0
 40 69  1  0  0  0  0
M  END
$$$$
