CHEMBL202389
 OpenBabel04072215363D

 62 65  0  0  0  0  0  0  0  0999 V2000
    1.8118    3.0426    5.6925 C   0  0  0  0  0  0  0  0  0  0  0  0
    3.0668    3.8715    5.4737 C   0  0  0  0  0  0  0  0  0  0  0  0
    3.3391    3.9871    4.0446 N   0  0  0  0  0  0  0  0  0  0  0  0
    4.4775    4.6972    3.6382 C   0  0  0  0  0  0  0  0  0  0  0  0
    4.9787    5.7996    4.3418 C   0  0  0  0  0  0  0  0  0  0  0  0
    6.0276    6.5700    3.8343 C   0  0  0  0  0  0  0  0  0  0  0  0
    6.6043    6.2423    2.6136 C   0  0  0  0  0  0  0  0  0  0  0  0
    6.1738    5.1055    1.9312 C   0  0  0  0  0  0  0  0  0  0  0  0
    6.7443    4.6489    0.7661 O   0  0  0  0  0  0  0  0  0  0  0  0
    8.0854    4.8955    0.4943 C   0  0  0  0  0  0  0  0  0  0  0  0
    9.0663    4.9112    1.4108 C   0  0  0  0  0  0  0  0  0  0  0  0
   10.4483    5.3020    1.0801 C   0  0  0  0  0  0  0  0  0  0  0  0
   11.2776    5.4573    1.9732 O   0  0  0  0  0  0  0  0  0  0  0  0
   10.8140    5.5500   -0.3546 C   0  0  0  0  0  0  0  0  0  0  0  0
   12.1478    5.8952   -0.5507 N   0  0  0  0  0  0  0  0  0  0  0  0
   12.7836    6.2881   -1.7448 C   0  0  0  0  0  0  0  0  0  0  0  0
   12.0467    6.3055   -2.8717 N   0  0  0  0  0  0  0  0  0  0  0  0
   12.6639    6.5520   -4.0251 C   0  0  0  0  0  0  0  0  0  0  0  0
   13.9595    6.8022   -4.1663 N   0  0  0  0  0  0  0  0  0  0  0  0
   14.6914    6.7795   -3.0547 C   0  0  0  0  0  0  0  0  0  0  0  0
   16.0464    6.9921   -3.2116 C   0  0  0  0  0  0  0  0  0  0  0  0
   16.9566    6.9386   -2.1500 C   0  0  0  0  0  0  0  0  0  0  0  0
   18.3086    7.0901   -2.3417 O   0  0  0  0  0  0  0  0  0  0  0  0
   18.7588    7.1783   -3.6954 C   0  0  0  0  0  0  0  0  0  0  0  0
   20.2786    7.1859   -3.7437 C   0  0  0  0  0  0  0  0  0  0  0  0
   20.6767    7.3220   -5.1077 O   0  0  0  0  0  0  0  0  0  0  0  0
   22.0885    7.3570   -5.2447 C   0  0  0  0  0  0  0  0  0  0  0  0
   16.4631    6.7168   -0.8584 C   0  0  0  0  0  0  0  0  0  0  0  0
   17.1524    6.6491    0.3231 O   0  0  0  0  0  0  0  0  0  0  0  0
   18.5708    6.7184    0.2943 C   0  0  0  0  0  0  0  0  0  0  0  0
   15.0806    6.5222   -0.6838 C   0  0  0  0  0  0  0  0  0  0  0  0
   14.1753    6.5270   -1.7803 C   0  0  0  0  0  0  0  0  0  0  0  0
    9.8346    5.4092   -1.2590 C   0  0  0  0  0  0  0  0  0  0  0  0
    8.4356    5.0855   -0.9324 C   0  0  0  0  0  0  0  0  0  0  0  0
    7.6061    4.9855   -1.8291 O   0  0  0  0  0  0  0  0  0  0  0  0
    5.0759    4.3820    2.4089 C   0  0  0  0  0  0  0  0  0  0  0  0
    1.5641    3.0061    6.7580 H   0  0  0  0  0  0  0  0  0  0  0  0
    1.9516    2.0162    5.3385 H   0  0  0  0  0  0  0  0  0  0  0  0
    0.9588    3.4715    5.1561 H   0  0  0  0  0  0  0  0  0  0  0  0
    3.9119    3.3905    5.9801 H   0  0  0  0  0  0  0  0  0  0  0  0
    2.9027    4.8556    5.9245 H   0  0  0  0  0  0  0  0  0  0  0  0
    3.2442    3.1038    3.5492 H   0  0  0  0  0  0  0  0  0  0  0  0
    4.5424    6.1059    5.2872 H   0  0  0  0  0  0  0  0  0  0  0  0
    6.3870    7.4299    4.3929 H   0  0  0  0  0  0  0  0  0  0  0  0
    7.3886    6.8830    2.2226 H   0  0  0  0  0  0  0  0  0  0  0  0
    8.8872    4.7085    2.4590 H   0  0  0  0  0  0  0  0  0  0  0  0
   12.5960    6.1981    0.3120 H   0  0  0  0  0  0  0  0  0  0  0  0
   12.0608    6.5296   -4.9252 H   0  0  0  0  0  0  0  0  0  0  0  0
   16.3727    7.1872   -4.2292 H   0  0  0  0  0  0  0  0  0  0  0  0
   18.3887    8.1036   -4.1548 H   0  0  0  0  0  0  0  0  0  0  0  0
   18.4040    6.3211   -4.2831 H   0  0  0  0  0  0  0  0  0  0  0  0
   20.6712    6.2512   -3.3264 H   0  0  0  0  0  0  0  0  0  0  0  0
   20.6700    8.0175   -3.1469 H   0  0  0  0  0  0  0  0  0  0  0  0
   22.3262    7.4653   -6.3063 H   0  0  0  0  0  0  0  0  0  0  0  0
   22.5297    6.4255   -4.8790 H   0  0  0  0  0  0  0  0  0  0  0  0
   22.5021    8.2127   -4.7034 H   0  0  0  0  0  0  0  0  0  0  0  0
   18.9303    6.5941    1.3208 H   0  0  0  0  0  0  0  0  0  0  0  0
   18.9134    7.6992   -0.0500 H   0  0  0  0  0  0  0  0  0  0  0  0
   18.9980    5.9018   -0.2967 H   0  0  0  0  0  0  0  0  0  0  0  0
   14.7196    6.3482    0.3278 H   0  0  0  0  0  0  0  0  0  0  0  0
    9.9918    5.5510   -2.3194 H   0  0  0  0  0  0  0  0  0  0  0  0
    4.6970    3.5537    1.8150 H   0  0  0  0  0  0  0  0  0  0  0  0
  1  2  1  0  0  0  0
  1 37  1  0  0  0  0
  1 38  1  0  0  0  0
  1 39  1  0  0  0  0
  2  3  1  0  0  0  0
  2 40  1  0  0  0  0
  2 41  1  0  0  0  0
  3  4  1  0  0  0  0
  3 42  1  0  0  0  0
  4  5  1  0  0  0  0
  4 36  2  0  0  0  0
  5  6  2  0  0  0  0
  5 43  1  0  0  0  0
  6  7  1  0  0  0  0
  6 44  1  0  0  0  0
  7  8  2  0  0  0  0
  7 45  1  0  0  0  0
  8  9  1  0  0  0  0
  8 36  1  0  0  0  0
  9 10  1  0  0  0  0
 10 11  2  0  0  0  0
 10 34  1  0  0  0  0
 11 12  1  0  0  0  0
 11 46  1  0  0  0  0
 12 13  2  0  0  0  0
 12 14  1  0  0  0  0
 14 15  1  0  0  0  0
 14 33  2  0  0  0  0
 15 16  1  0  0  0  0
 15 47  1  0  0  0  0
 16 17  1  0  0  0  0
 16 32  2  0  0  0  0
 17 18  2  0  0  0  0
 18 19  1  0  0  0  0
 18 48  1  0  0  0  0
 19 20  2  0  0  0  0
 20 21  1  0  0  0  0
 20 32  1  0  0  0  0
 21 22  2  0  0  0  0
 21 49  1  0  0  0  0
 22 23  1  0  0  0  0
 22 28  1  0  0  0  0
 23 24  1  0  0  0  0
 24 25  1  0  0  0  0
 24 50  1  0  0  0  0
 24 51  1  0  0  0  0
 25 26  1  0  0  0  0
 25 52  1  0  0  0  0
 25 53  1  0  0  0  0
 26 27  1  0  0  0  0
 27 54  1  0  0  0  0
 27 55  1  0  0  0  0
 27 56  1  0  0  0  0
 28 29  1  0  0  0  0
 28 31  2  0  0  0  0
 29 30  1  0  0  0  0
 30 57  1  0  0  0  0
 30 58  1  0  0  0  0
 30 59  1  0  0  0  0
 31 32  1  0  0  0  0
 31 60  1  0  0  0  0
 33 34  1  0  0  0  0
 33 61  1  0  0  0  0
 34 35  2  0  0  0  0
 36 62  1  0  0  0  0
M  END
$$$$
