CHEMBL4797840
 OpenBabel04072215383D

 68 72  0  0  0  0  0  0  0  0999 V2000
   13.3416    0.3761    2.4696 C   0  0  0  0  0  0  0  0  0  0  0  0
   11.9232    0.2302    2.2933 N   0  0  0  0  0  0  0  0  0  0  0  0
   11.3876   -0.3771    1.1794 C   0  0  0  0  0  0  0  0  0  0  0  0
   12.0600   -0.8739    0.2824 O   0  0  0  0  0  0  0  0  0  0  0  0
    9.8891   -0.3945    1.1346 C   0  0  0  0  0  0  0  0  0  0  0  0
    9.2490   -1.0099    0.0668 C   0  0  0  0  0  0  0  0  0  0  0  0
    7.8565   -1.0050    0.0489 C   0  0  0  0  0  0  0  0  0  0  0  0
    7.1391   -1.6353   -1.0080 N   0  0  0  0  0  0  0  0  0  0  0  0
    5.9174   -1.1924   -1.4820 C   0  0  0  0  0  0  0  0  0  0  0  0
    5.5287   -1.9805   -2.5357 C   0  0  0  0  0  0  0  0  0  0  0  0
    6.5101   -2.9926   -2.6953 C   0  0  0  0  0  0  0  0  0  0  0  0
    6.6181   -4.0867   -3.5739 C   0  0  0  0  0  0  0  0  0  0  0  0
    7.6921   -4.9801   -3.4765 C   0  0  0  0  0  0  0  0  0  0  0  0
    7.8206   -6.0969   -4.3339 N   0  0  0  0  0  0  0  0  0  0  0  0
    7.2518   -6.1914   -5.5924 C   0  0  0  0  0  0  0  0  0  0  0  0
    6.7488   -5.2513   -6.2042 O   0  0  0  0  0  0  0  0  0  0  0  0
    7.2817   -7.4873   -6.0743 N   0  0  0  0  0  0  0  0  0  0  0  0
    6.7761   -7.8137   -7.3506 C   0  0  0  0  0  0  0  0  0  0  0  0
    5.9733   -8.9295   -7.4929 C   0  0  0  0  0  0  0  0  0  0  0  0
    5.4908   -9.2794   -8.7591 C   0  0  0  0  0  0  0  0  0  0  0  0
    5.8592   -8.6031   -9.9471 C   0  0  0  0  0  0  0  0  0  0  0  0
    5.5112   -9.1523  -11.1710 N   0  0  0  0  0  0  0  0  0  0  0  0
    5.2628  -10.6056  -11.2899 C   0  0  0  0  0  0  0  0  0  0  0  0
    5.7140  -11.1002  -12.6815 C   0  0  0  0  0  0  0  0  0  0  0  0
    5.0712  -10.3636  -13.7929 N   0  0  0  0  0  0  0  0  0  0  0  0
    5.6021  -10.8272  -15.0733 C   0  0  0  0  0  0  0  0  0  0  0  0
    5.3126   -8.9081  -13.6147 C   0  0  0  0  0  0  0  0  0  0  0  0
    4.8128   -8.3965  -12.2322 C   0  0  0  0  0  0  0  0  0  0  0  0
    6.6765   -7.4632   -9.7910 C   0  0  0  0  0  0  0  0  0  0  0  0
    7.2640   -6.6229  -10.9034 C   0  0  0  0  0  0  0  0  0  0  0  0
    7.1351   -7.0872  -12.1750 F   0  0  0  0  0  0  0  0  0  0  0  0
    6.7397   -5.3615  -10.9251 F   0  0  0  0  0  0  0  0  0  0  0  0
    8.6128   -6.4448  -10.7482 F   0  0  0  0  0  0  0  0  0  0  0  0
    7.0903   -7.0690   -8.4859 C   0  0  0  0  0  0  0  0  0  0  0  0
    8.6334   -4.7956   -2.4678 C   0  0  0  0  0  0  0  0  0  0  0  0
    8.5583   -3.7037   -1.5865 C   0  0  0  0  0  0  0  0  0  0  0  0
    7.4985   -2.7832   -1.7254 C   0  0  0  0  0  0  0  0  0  0  0  0
    7.1638   -0.3531    1.0750 C   0  0  0  0  0  0  0  0  0  0  0  0
    7.8936    0.2244    2.1030 C   0  0  0  0  0  0  0  0  0  0  0  0
    9.2428    0.2175    2.1661 N   0  0  0  0  0  0  0  0  0  0  0  0
   13.5312    0.8776    3.4208 H   0  0  0  0  0  0  0  0  0  0  0  0
   13.7466    0.9696    1.6452 H   0  0  0  0  0  0  0  0  0  0  0  0
   13.8103   -0.6119    2.4652 H   0  0  0  0  0  0  0  0  0  0  0  0
   11.2660    0.6181    2.9651 H   0  0  0  0  0  0  0  0  0  0  0  0
    9.8420   -1.4246   -0.7405 H   0  0  0  0  0  0  0  0  0  0  0  0
    5.4434   -0.3075   -1.0803 H   0  0  0  0  0  0  0  0  0  0  0  0
    4.6327   -1.8562   -3.1281 H   0  0  0  0  0  0  0  0  0  0  0  0
    5.8282   -4.2338   -4.3070 H   0  0  0  0  0  0  0  0  0  0  0  0
    8.5849   -6.7330   -4.1554 H   0  0  0  0  0  0  0  0  0  0  0  0
    7.1850   -8.1909   -5.3545 H   0  0  0  0  0  0  0  0  0  0  0  0
    5.6735   -9.5205   -6.6326 H   0  0  0  0  0  0  0  0  0  0  0  0
    4.8105  -10.1273   -8.8047 H   0  0  0  0  0  0  0  0  0  0  0  0
    4.1954  -10.8161  -11.1407 H   0  0  0  0  0  0  0  0  0  0  0  0
    5.8304  -11.1752  -10.5449 H   0  0  0  0  0  0  0  0  0  0  0  0
    5.4744  -12.1671  -12.7605 H   0  0  0  0  0  0  0  0  0  0  0  0
    6.8070  -11.0028  -12.7439 H   0  0  0  0  0  0  0  0  0  0  0  0
    5.3815  -11.8919  -15.2114 H   0  0  0  0  0  0  0  0  0  0  0  0
    6.6870  -10.6902  -15.1518 H   0  0  0  0  0  0  0  0  0  0  0  0
    5.1255  -10.2959  -15.9037 H   0  0  0  0  0  0  0  0  0  0  0  0
    4.7975   -8.3511  -14.4053 H   0  0  0  0  0  0  0  0  0  0  0  0
    6.3868   -8.7006  -13.7117 H   0  0  0  0  0  0  0  0  0  0  0  0
    3.7310   -8.5696  -12.1535 H   0  0  0  0  0  0  0  0  0  0  0  0
    4.9494   -7.3143  -12.1544 H   0  0  0  0  0  0  0  0  0  0  0  0
    7.7313   -6.1911   -8.3846 H   0  0  0  0  0  0  0  0  0  0  0  0
    9.4676   -5.4890   -2.3541 H   0  0  0  0  0  0  0  0  0  0  0  0
    9.3087   -3.6018   -0.8097 H   0  0  0  0  0  0  0  0  0  0  0  0
    6.0801   -0.3270    1.1203 H   0  0  0  0  0  0  0  0  0  0  0  0
    7.3924    0.7137    2.9340 H   0  0  0  0  0  0  0  0  0  0  0  0
  1  2  1  0  0  0  0
  1 41  1  0  0  0  0
  1 42  1  0  0  0  0
  1 43  1  0  0  0  0
  2  3  1  0  0  0  0
  2 44  1  0  0  0  0
  3  4  2  0  0  0  0
  3  5  1  0  0  0  0
  5  6  1  0  0  0  0
  5 40  2  0  0  0  0
  6  7  2  0  0  0  0
  6 45  1  0  0  0  0
  7  8  1  0  0  0  0
  7 38  1  0  0  0  0
  8  9  1  0  0  0  0
  8 37  1  0  0  0  0
  9 10  2  0  0  0  0
  9 46  1  0  0  0  0
 10 11  1  0  0  0  0
 10 47  1  0  0  0  0
 11 12  1  0  0  0  0
 11 37  2  0  0  0  0
 12 13  2  0  0  0  0
 12 48  1  0  0  0  0
 13 14  1  0  0  0  0
 13 35  1  0  0  0  0
 14 15  1  0  0  0  0
 14 49  1  0  0  0  0
 15 16  2  0  0  0  0
 15 17  1  0  0  0  0
 17 18  1  0  0  0  0
 17 50  1  0  0  0  0
 18 19  1  0  0  0  0
 18 34  2  0  0  0  0
 19 20  2  0  0  0  0
 19 51  1  0  0  0  0
 20 21  1  0  0  0  0
 20 52  1  0  0  0  0
 21 22  1  0  0  0  0
 21 29  2  0  0  0  0
 22 23  1  0  0  0  0
 22 28  1  0  0  0  0
 23 24  1  0  0  0  0
 23 53  1  0  0  0  0
 23 54  1  0  0  0  0
 24 25  1  0  0  0  0
 24 55  1  0  0  0  0
 24 56  1  0  0  0  0
 25 26  1  0  0  0  0
 25 27  1  0  0  0  0
 26 57  1  0  0  0  0
 26 58  1  0  0  0  0
 26 59  1  0  0  0  0
 27 28  1  0  0  0  0
 27 60  1  0  0  0  0
 27 61  1  0  0  0  0
 28 62  1  0  0  0  0
 28 63  1  0  0  0  0
 29 30  1  0  0  0  0
 29 34  1  0  0  0  0
 30 31  1  0  0  0  0
 30 32  1  0  0  0  0
 30 33  1  0  0  0  0
 34 64  1  0  0  0  0
 35 36  2  0  0  0  0
 35 65  1  0  0  0  0
 36 37  1  0  0  0  0
 36 66  1  0  0  0  0
 38 39  2  0  0  0  0
 38 67  1  0  0  0  0
 39 40  1  0  0  0  0
 39 68  1  0  0  0  0
M  END
$$$$
