CHEMBL605324
 OpenBabel04072215383D

 40 43  0  0  0  0  0  0  0  0999 V2000
   -1.1784   -3.6084   -3.4994 C   0  0  0  0  0  0  0  0  0  0  0  0
   -1.6904   -2.5796   -2.5354 C   0  0  0  0  0  0  0  0  0  0  0  0
   -1.0008   -2.2890   -1.3543 C   0  0  0  0  0  0  0  0  0  0  0  0
   -1.5114   -1.3535   -0.4471 C   0  0  0  0  0  0  0  0  0  0  0  0
   -2.6977   -0.6627   -0.7173 C   0  0  0  0  0  0  0  0  0  0  0  0
   -3.2136    0.2196    0.2527 N   0  0  0  0  0  0  0  0  0  0  0  0
   -3.9111    1.4060    0.0049 C   0  0  0  0  0  0  0  0  0  0  0  0
   -3.6621    2.0788   -1.1295 N   0  0  0  0  0  0  0  0  0  0  0  0
   -4.2878    3.2474   -1.3053 C   0  0  0  0  0  0  0  0  0  0  0  0
   -5.1602    3.7801   -0.3888 C   0  0  0  0  0  0  0  0  0  0  0  0
   -5.3992    3.0162    0.7389 C   0  0  0  0  0  0  0  0  0  0  0  0
   -4.7628    1.8372    0.9490 N   0  0  0  0  0  0  0  0  0  0  0  0
   -6.3428    3.4707    1.7815 C   0  0  0  0  0  0  0  0  0  0  0  0
   -5.9889    3.3385    3.1405 C   0  0  0  0  0  0  0  0  0  0  0  0
   -6.8349    3.7727    4.1637 C   0  0  0  0  0  0  0  0  0  0  0  0
   -8.0857    4.3011    3.8587 C   0  0  0  0  0  0  0  0  0  0  0  0
   -8.4801    4.4045    2.5260 C   0  0  0  0  0  0  0  0  0  0  0  0
   -7.6052    4.0509    1.4936 C   0  0  0  0  0  0  0  0  0  0  0  0
   -8.0576    4.3654    0.1966 N   0  0  0  0  0  0  0  0  0  0  0  0
   -7.3173    4.9014   -0.8199 C   0  0  0  0  0  0  0  0  0  0  0  0
   -7.8763    5.3033   -1.8403 O   0  0  0  0  0  0  0  0  0  0  0  0
   -5.8353    5.0891   -0.6057 C   0  0  0  0  0  0  0  0  0  0  0  0
   -3.3846   -0.9604   -1.8998 C   0  0  0  0  0  0  0  0  0  0  0  0
   -2.8849   -1.9040   -2.8033 C   0  0  0  0  0  0  0  0  0  0  0  0
   -0.2423   -4.0561   -3.1490 H   0  0  0  0  0  0  0  0  0  0  0  0
   -0.9904   -3.1547   -4.4773 H   0  0  0  0  0  0  0  0  0  0  0  0
   -1.9119   -4.4133   -3.6103 H   0  0  0  0  0  0  0  0  0  0  0  0
   -0.0618   -2.7884   -1.1271 H   0  0  0  0  0  0  0  0  0  0  0  0
   -0.9578   -1.1410    0.4636 H   0  0  0  0  0  0  0  0  0  0  0  0
   -3.6679   -0.2527    1.0243 H   0  0  0  0  0  0  0  0  0  0  0  0
   -4.0474    3.7574   -2.2342 H   0  0  0  0  0  0  0  0  0  0  0  0
   -5.0250    2.9067    3.4086 H   0  0  0  0  0  0  0  0  0  0  0  0
   -6.5182    3.7035    5.2005 H   0  0  0  0  0  0  0  0  0  0  0  0
   -8.7444    4.6475    4.6469 H   0  0  0  0  0  0  0  0  0  0  0  0
   -9.4539    4.8421    2.3034 H   0  0  0  0  0  0  0  0  0  0  0  0
   -9.0530    4.4815    0.0505 H   0  0  0  0  0  0  0  0  0  0  0  0
   -5.6645    5.7579    0.2477 H   0  0  0  0  0  0  0  0  0  0  0  0
   -5.4154    5.6044   -1.4782 H   0  0  0  0  0  0  0  0  0  0  0  0
   -4.3211   -0.4591   -2.1316 H   0  0  0  0  0  0  0  0  0  0  0  0
   -3.4401   -2.1101   -3.7156 H   0  0  0  0  0  0  0  0  0  0  0  0
  1  2  1  0  0  0  0
  1 25  1  0  0  0  0
  1 26  1  0  0  0  0
  1 27  1  0  0  0  0
  2  3  1  0  0  0  0
  2 24  2  0  0  0  0
  3  4  2  0  0  0  0
  3 28  1  0  0  0  0
  4  5  1  0  0  0  0
  4 29  1  0  0  0  0
  5  6  1  0  0  0  0
  5 23  2  0  0  0  0
  6  7  1  0  0  0  0
  6 30  1  0  0  0  0
  7  8  1  0  0  0  0
  7 12  2  0  0  0  0
  8  9  2  0  0  0  0
  9 10  1  0  0  0  0
  9 31  1  0  0  0  0
 10 11  2  0  0  0  0
 10 22  1  0  0  0  0
 11 12  1  0  0  0  0
 11 13  1  0  0  0  0
 13 14  1  0  0  0  0
 13 18  2  0  0  0  0
 14 15  2  0  0  0  0
 14 32  1  0  0  0  0
 15 16  1  0  0  0  0
 15 33  1  0  0  0  0
 16 17  2  0  0  0  0
 16 34  1  0  0  0  0
 17 18  1  0  0  0  0
 17 35  1  0  0  0  0
 18 19  1  0  0  0  0
 19 20  1  0  0  0  0
 19 36  1  0  0  0  0
 20 21  2  0  0  0  0
 20 22  1  0  0  0  0
 22 37  1  0  0  0  0
 22 38  1  0  0  0  0
 23 24  1  0  0  0  0
 23 39  1  0  0  0  0
 24 40  1  0  0  0  0
M  END
$$$$
