CHEMBL4469902
 OpenBabel04072215383D

 49 52  0  0  0  0  0  0  0  0999 V2000
    1.6385   -0.5894   -0.9903 C   0  0  0  0  0  0  0  0  0  0  0  0
    2.6397   -0.0639   -0.1223 O   0  0  0  0  0  0  0  0  0  0  0  0
    3.0687   -0.8939    0.8789 C   0  0  0  0  0  0  0  0  0  0  0  0
    4.0373   -0.3319    1.7438 C   0  0  0  0  0  0  0  0  0  0  0  0
    4.5702   -1.0518    2.8248 C   0  0  0  0  0  0  0  0  0  0  0  0
    4.1057   -2.3353    3.0140 C   0  0  0  0  0  0  0  0  0  0  0  0
    3.1534   -2.8807    2.1586 C   0  0  0  0  0  0  0  0  0  0  0  0
    2.6197   -2.1977    1.0860 C   0  0  0  0  0  0  0  0  0  0  0  0
    2.8605   -4.2206    2.6471 C   0  0  0  0  0  0  0  0  0  0  0  0
    1.9952   -5.0235    2.1173 N   0  0  0  0  0  0  0  0  0  0  0  0
    1.8048   -6.2432    2.7053 N   0  0  0  0  0  0  0  0  0  0  0  0
    0.8764   -7.1173    2.1502 C   0  0  0  0  0  0  0  0  0  0  0  0
    0.2415   -6.9012    1.1198 O   0  0  0  0  0  0  0  0  0  0  0  0
    0.6586   -8.4090    2.8649 C   0  0  0  0  0  0  0  0  0  0  0  0
    0.8741   -8.5453    4.2345 C   0  0  0  0  0  0  0  0  0  0  0  0
    0.6166   -9.7681    4.8685 C   0  0  0  0  0  0  0  0  0  0  0  0
    0.1330  -10.8771    4.1632 C   0  0  0  0  0  0  0  0  0  0  0  0
   -0.1396  -12.1359    4.7683 N   0  0  0  0  0  0  0  0  0  0  0  0
    0.0022  -12.4245    6.1179 C   0  0  0  0  0  0  0  0  0  0  0  0
    0.3357  -11.6247    6.9877 O   0  0  0  0  0  0  0  0  0  0  0  0
   -0.2724  -13.8194    6.5809 C   0  0  0  0  0  0  0  0  0  0  0  0
   -0.1642  -14.9553    5.7698 C   0  0  0  0  0  0  0  0  0  0  0  0
   -0.3075  -16.2318    6.3387 C   0  0  0  0  0  0  0  0  0  0  0  0
   -0.5546  -16.3739    7.7052 C   0  0  0  0  0  0  0  0  0  0  0  0
   -0.6674  -17.9424    8.4034 Cl  0  0  0  0  0  0  0  0  0  0  0  0
   -0.6857  -15.2523    8.5145 C   0  0  0  0  0  0  0  0  0  0  0  0
   -0.5478  -13.9834    7.9522 C   0  0  0  0  0  0  0  0  0  0  0  0
   -0.0922  -10.7334    2.7898 C   0  0  0  0  0  0  0  0  0  0  0  0
    0.1640   -9.5088    2.1480 C   0  0  0  0  0  0  0  0  0  0  0  0
    3.7505   -4.4188    3.8727 C   0  0  0  0  0  0  0  0  0  0  0  0
    3.7779   -5.4288    4.5467 O   0  0  0  0  0  0  0  0  0  0  0  0
    4.4604   -3.2398    4.0138 N   0  0  0  0  0  0  0  0  0  0  0  0
    1.3726    0.1891   -1.7110 H   0  0  0  0  0  0  0  0  0  0  0  0
    0.7314   -0.8517   -0.4347 H   0  0  0  0  0  0  0  0  0  0  0  0
    2.0201   -1.4493   -1.5514 H   0  0  0  0  0  0  0  0  0  0  0  0
    4.3722    0.6897    1.5649 H   0  0  0  0  0  0  0  0  0  0  0  0
    5.3083   -0.6009    3.4771 H   0  0  0  0  0  0  0  0  0  0  0  0
    1.8818   -2.6876    0.4622 H   0  0  0  0  0  0  0  0  0  0  0  0
    2.3750   -6.4919    3.5132 H   0  0  0  0  0  0  0  0  0  0  0  0
    1.2088   -7.7143    4.8487 H   0  0  0  0  0  0  0  0  0  0  0  0
    0.7995   -9.8034    5.9370 H   0  0  0  0  0  0  0  0  0  0  0  0
   -0.5071  -12.8518    4.1576 H   0  0  0  0  0  0  0  0  0  0  0  0
    0.0808  -14.8840    4.7158 H   0  0  0  0  0  0  0  0  0  0  0  0
   -0.1954  -17.1174    5.7156 H   0  0  0  0  0  0  0  0  0  0  0  0
   -0.8679  -15.3494    9.5820 H   0  0  0  0  0  0  0  0  0  0  0  0
   -0.6251  -13.1106    8.6001 H   0  0  0  0  0  0  0  0  0  0  0  0
   -0.4747  -11.5574    2.1930 H   0  0  0  0  0  0  0  0  0  0  0  0
   -0.0299   -9.4120    1.0803 H   0  0  0  0  0  0  0  0  0  0  0  0
    5.1291   -3.0759    4.7491 H   0  0  0  0  0  0  0  0  0  0  0  0
  1  2  1  0  0  0  0
  1 33  1  0  0  0  0
  1 34  1  0  0  0  0
  1 35  1  0  0  0  0
  2  3  1  0  0  0  0
  3  4  1  0  0  0  0
  3  8  2  0  0  0  0
  4  5  2  0  0  0  0
  4 36  1  0  0  0  0
  5  6  1  0  0  0  0
  5 37  1  0  0  0  0
  6  7  2  0  0  0  0
  6 32  1  0  0  0  0
  7  8  1  0  0  0  0
  7  9  1  0  0  0  0
  8 38  1  0  0  0  0
  9 10  2  0  0  0  0
  9 30  1  0  0  0  0
 10 11  1  0  0  0  0
 11 12  1  0  0  0  0
 11 39  1  0  0  0  0
 12 13  2  0  0  0  0
 12 14  1  0  0  0  0
 14 15  1  0  0  0  0
 14 29  2  0  0  0  0
 15 16  2  0  0  0  0
 15 40  1  0  0  0  0
 16 17  1  0  0  0  0
 16 41  1  0  0  0  0
 17 18  1  0  0  0  0
 17 28  2  0  0  0  0
 18 19  1  0  0  0  0
 18 42  1  0  0  0  0
 19 20  2  0  0  0  0
 19 21  1  0  0  0  0
 21 22  1  0  0  0  0
 21 27  2  0  0  0  0
 22 23  2  0  0  0  0
 22 43  1  0  0  0  0
 23 24  1  0  0  0  0
 23 44  1  0  0  0  0
 24 25  1  0  0  0  0
 24 26  2  0  0  0  0
 26 27  1  0  0  0  0
 26 45  1  0  0  0  0
 27 46  1  0  0  0  0
 28 29  1  0  0  0  0
 28 47  1  0  0  0  0
 29 48  1  0  0  0  0
 30 31  2  0  0  0  0
 30 32  1  0  0  0  0
 32 49  1  0  0  0  0
M  END
$$$$
