CHEMBL1421
 OpenBabel04072215363D

 59 62  0  0  0  0  0  0  0  0999 V2000
   -2.3576   -0.0574    0.0246 C   0  0  0  0  0  0  0  0  0  0  0  0
   -0.8607   -0.0189    0.0266 C   0  0  0  0  0  0  0  0  0  0  0  0
   -0.2732    1.1956    0.1023 N   0  0  0  0  0  0  0  0  0  0  0  0
    1.0675    1.2215    0.1275 C   0  0  0  0  0  0  0  0  0  0  0  0
    1.6758    2.4729    0.2830 N   0  0  0  0  0  0  0  0  0  0  0  0
    2.9157    2.7075    0.7716 C   0  0  0  0  0  0  0  0  0  0  0  0
    3.8826    1.8280    0.9272 N   0  0  0  0  0  0  0  0  0  0  0  0
    4.9868    2.3929    1.5184 C   0  0  0  0  0  0  0  0  0  0  0  0
    4.8767    3.7330    1.8113 C   0  0  0  0  0  0  0  0  0  0  0  0
    5.8766    4.5723    2.4332 C   0  0  0  0  0  0  0  0  0  0  0  0
    6.9914    4.1481    2.7127 O   0  0  0  0  0  0  0  0  0  0  0  0
    5.4398    5.8528    2.7282 N   0  0  0  0  0  0  0  0  0  0  0  0
    6.2156    6.8219    3.4020 C   0  0  0  0  0  0  0  0  0  0  0  0
    7.5218    7.1658    3.0090 C   0  0  0  0  0  0  0  0  0  0  0  0
    8.1949    6.6499    1.7655 C   0  0  0  0  0  0  0  0  0  0  0  0
    8.2315    8.1034    3.7805 C   0  0  0  0  0  0  0  0  0  0  0  0
    7.6441    8.7249    4.8828 C   0  0  0  0  0  0  0  0  0  0  0  0
    6.3268    8.4340    5.2252 C   0  0  0  0  0  0  0  0  0  0  0  0
    5.6149    7.4979    4.4818 C   0  0  0  0  0  0  0  0  0  0  0  0
    3.9836    7.1514    4.9548 Cl  0  0  0  0  0  0  0  0  0  0  0  0
    3.3388    4.2969    1.2963 S   0  0  0  0  0  0  0  0  0  0  0  0
    1.7871    0.0595    0.0077 C   0  0  0  0  0  0  0  0  0  0  0  0
    1.1204   -1.1443   -0.0828 C   0  0  0  0  0  0  0  0  0  0  0  0
    1.9068   -2.2852   -0.1907 N   0  0  0  0  0  0  0  0  0  0  0  0
    1.3937   -3.5646    0.2914 C   0  0  0  0  0  0  0  0  0  0  0  0
    2.6055   -4.5360    0.4518 C   0  0  0  0  0  0  0  0  0  0  0  0
    3.4910   -4.6864   -0.7463 N   0  0  0  0  0  0  0  0  0  0  0  0
    2.8178   -5.5058   -1.7770 C   0  0  0  0  0  0  0  0  0  0  0  0
    3.6823   -5.7680   -3.0225 C   0  0  0  0  0  0  0  0  0  0  0  0
    4.9461   -6.3121   -2.6568 O   0  0  0  0  0  0  0  0  0  0  0  0
    3.8543   -3.3291   -1.2274 C   0  0  0  0  0  0  0  0  0  0  0  0
    2.6589   -2.3813   -1.4484 C   0  0  0  0  0  0  0  0  0  0  0  0
   -0.2153   -1.2009   -0.0430 N   0  0  0  0  0  0  0  0  0  0  0  0
   -2.7765    0.9537    0.0143 H   0  0  0  0  0  0  0  0  0  0  0  0
   -2.7180   -0.5733    0.9191 H   0  0  0  0  0  0  0  0  0  0  0  0
   -2.7173   -0.5878   -0.8623 H   0  0  0  0  0  0  0  0  0  0  0  0
    0.9737    3.1974    0.3478 H   0  0  0  0  0  0  0  0  0  0  0  0
    5.8566    1.7765    1.7306 H   0  0  0  0  0  0  0  0  0  0  0  0
    4.4375    5.9249    2.8693 H   0  0  0  0  0  0  0  0  0  0  0  0
    7.4996    6.1616    1.0779 H   0  0  0  0  0  0  0  0  0  0  0  0
    8.9943    5.9493    2.0247 H   0  0  0  0  0  0  0  0  0  0  0  0
    8.6269    7.4869    1.2051 H   0  0  0  0  0  0  0  0  0  0  0  0
    9.2518    8.3703    3.5079 H   0  0  0  0  0  0  0  0  0  0  0  0
    8.2117    9.4494    5.4612 H   0  0  0  0  0  0  0  0  0  0  0  0
    5.8702    8.9292    6.0777 H   0  0  0  0  0  0  0  0  0  0  0  0
    2.8677    0.0517    0.0066 H   0  0  0  0  0  0  0  0  0  0  0  0
    0.6536   -3.9791   -0.4025 H   0  0  0  0  0  0  0  0  0  0  0  0
    0.9141   -3.4469    1.2712 H   0  0  0  0  0  0  0  0  0  0  0  0
    2.2537   -5.5182    0.7888 H   0  0  0  0  0  0  0  0  0  0  0  0
    3.2356   -4.1540    1.2671 H   0  0  0  0  0  0  0  0  0  0  0  0
    1.8617   -5.0744   -2.0905 H   0  0  0  0  0  0  0  0  0  0  0  0
    2.6044   -6.4831   -1.3256 H   0  0  0  0  0  0  0  0  0  0  0  0
    3.8541   -4.8538   -3.5981 H   0  0  0  0  0  0  0  0  0  0  0  0
    3.1809   -6.4822   -3.6830 H   0  0  0  0  0  0  0  0  0  0  0  0
    5.2106   -5.8317   -1.8461 H   0  0  0  0  0  0  0  0  0  0  0  0
    4.4613   -3.3760   -2.1366 H   0  0  0  0  0  0  0  0  0  0  0  0
    4.5130   -2.8769   -0.4726 H   0  0  0  0  0  0  0  0  0  0  0  0
    2.0063   -2.7503   -2.2499 H   0  0  0  0  0  0  0  0  0  0  0  0
    3.0505   -1.4121   -1.7790 H   0  0  0  0  0  0  0  0  0  0  0  0
  1  2  1  0  0  0  0
  1 34  1  0  0  0  0
  1 35  1  0  0  0  0
  1 36  1  0  0  0  0
  2  3  1  0  0  0  0
  2 33  2  0  0  0  0
  3  4  2  0  0  0  0
  4  5  1  0  0  0  0
  4 22  1  0  0  0  0
  5  6  1  0  0  0  0
  5 37  1  0  0  0  0
  6  7  2  0  0  0  0
  6 21  1  0  0  0  0
  7  8  1  0  0  0  0
  8  9  2  0  0  0  0
  8 38  1  0  0  0  0
  9 10  1  0  0  0  0
  9 21  1  0  0  0  0
 10 11  2  0  0  0  0
 10 12  1  0  0  0  0
 12 13  1  0  0  0  0
 12 39  1  0  0  0  0
 13 14  1  0  0  0  0
 13 19  2  0  0  0  0
 14 15  1  0  0  0  0
 14 16  2  0  0  0  0
 15 40  1  0  0  0  0
 15 41  1  0  0  0  0
 15 42  1  0  0  0  0
 16 17  1  0  0  0  0
 16 43  1  0  0  0  0
 17 18  2  0  0  0  0
 17 44  1  0  0  0  0
 18 19  1  0  0  0  0
 18 45  1  0  0  0  0
 19 20  1  0  0  0  0
 22 23  2  0  0  0  0
 22 46  1  0  0  0  0
 23 24  1  0  0  0  0
 23 33  1  0  0  0  0
 24 25  1  0  0  0  0
 24 32  1  0  0  0  0
 25 26  1  0  0  0  0
 25 47  1  0  0  0  0
 25 48  1  0  0  0  0
 26 27  1  0  0  0  0
 26 49  1  0  0  0  0
 26 50  1  0  0  0  0
 27 28  1  0  0  0  0
 27 31  1  0  0  0  0
 28 29  1  0  0  0  0
 28 51  1  0  0  0  0
 28 52  1  0  0  0  0
 29 30  1  0  0  0  0
 29 53  1  0  0  0  0
 29 54  1  0  0  0  0
 30 55  1  0  0  0  0
 31 32  1  0  0  0  0
 31 56  1  0  0  0  0
 31 57  1  0  0  0  0
 32 58  1  0  0  0  0
 32 59  1  0  0  0  0
M  END
$$$$
