CHEMBL204099
 OpenBabel04072215363D

 50 53  0  0  0  0  0  0  0  0999 V2000
    2.6135    1.0412   -5.3805 C   0  0  0  0  0  0  0  0  0  0  0  0
    2.2378    0.3293   -4.0801 C   0  0  0  0  0  0  0  0  0  0  0  0
    0.7187    0.2420   -3.9179 C   0  0  0  0  0  0  0  0  0  0  0  0
    2.8814   -1.0403   -3.9617 C   0  0  0  0  0  0  0  0  0  0  0  0
    3.7138   -1.3109   -2.8687 C   0  0  0  0  0  0  0  0  0  0  0  0
    4.2911   -2.5726   -2.6949 C   0  0  0  0  0  0  0  0  0  0  0  0
    4.0599   -3.5915   -3.6134 C   0  0  0  0  0  0  0  0  0  0  0  0
    4.6202   -4.8812   -3.5027 N   0  0  0  0  0  0  0  0  0  0  0  0
    5.3131   -5.4078   -2.4194 C   0  0  0  0  0  0  0  0  0  0  0  0
    5.4842   -4.8701   -1.3336 O   0  0  0  0  0  0  0  0  0  0  0  0
    5.8730   -6.7747   -2.6520 C   0  0  0  0  0  0  0  0  0  0  0  0
    5.0611   -7.7056   -3.3307 C   0  0  0  0  0  0  0  0  0  0  0  0
    5.5563   -8.9560   -3.6922 C   0  0  0  0  0  0  0  0  0  0  0  0
    6.8664   -9.2921   -3.3779 C   0  0  0  0  0  0  0  0  0  0  0  0
    7.6560   -8.4070   -2.6412 C   0  0  0  0  0  0  0  0  0  0  0  0
    7.1656   -7.1500   -2.2264 C   0  0  0  0  0  0  0  0  0  0  0  0
    8.0487   -6.3085   -1.3212 C   0  0  0  0  0  0  0  0  0  0  0  0
    8.9455   -5.4050   -2.0637 N   0  0  0  0  0  0  0  0  0  0  0  0
    8.6161   -4.0567   -2.2453 C   0  0  0  0  0  0  0  0  0  0  0  0
    9.3681   -3.1544   -2.8954 C   0  0  0  0  0  0  0  0  0  0  0  0
   10.6371   -3.6548   -3.4336 C   0  0  0  0  0  0  0  0  0  0  0  0
   11.5686   -3.0645   -4.1141 N   0  0  0  0  0  0  0  0  0  0  0  0
   12.5062   -4.0753   -4.2993 C   0  0  0  0  0  0  0  0  0  0  0  0
   12.2412   -5.2454   -3.7854 N   0  0  0  0  0  0  0  0  0  0  0  0
   11.0221   -5.0494   -3.2093 C   0  0  0  0  0  0  0  0  0  0  0  0
   10.1847   -5.8459   -2.5442 C   0  0  0  0  0  0  0  0  0  0  0  0
    3.2488   -3.3234   -4.7253 C   0  0  0  0  0  0  0  0  0  0  0  0
    2.6579   -2.0626   -4.8935 C   0  0  0  0  0  0  0  0  0  0  0  0
    2.2403    2.0717   -5.3714 H   0  0  0  0  0  0  0  0  0  0  0  0
    2.1910    0.5425   -6.2590 H   0  0  0  0  0  0  0  0  0  0  0  0
    3.7011    1.0820   -5.5064 H   0  0  0  0  0  0  0  0  0  0  0  0
    2.6117    0.9576   -3.2601 H   0  0  0  0  0  0  0  0  0  0  0  0
    0.2553   -0.3513   -4.7135 H   0  0  0  0  0  0  0  0  0  0  0  0
    0.2706    1.2411   -3.9405 H   0  0  0  0  0  0  0  0  0  0  0  0
    0.4546   -0.2214   -2.9605 H   0  0  0  0  0  0  0  0  0  0  0  0
    3.9222   -0.5403   -2.1294 H   0  0  0  0  0  0  0  0  0  0  0  0
    4.9327   -2.7192   -1.8325 H   0  0  0  0  0  0  0  0  0  0  0  0
    4.5030   -5.4722   -4.3149 H   0  0  0  0  0  0  0  0  0  0  0  0
    4.0248   -7.4720   -3.5665 H   0  0  0  0  0  0  0  0  0  0  0  0
    4.9221   -9.6628   -4.2214 H   0  0  0  0  0  0  0  0  0  0  0  0
    7.2695  -10.2547   -3.6837 H   0  0  0  0  0  0  0  0  0  0  0  0
    8.6680   -8.7121   -2.3796 H   0  0  0  0  0  0  0  0  0  0  0  0
    8.6584   -6.9870   -0.7062 H   0  0  0  0  0  0  0  0  0  0  0  0
    7.4622   -5.7663   -0.5730 H   0  0  0  0  0  0  0  0  0  0  0  0
    7.6717   -3.7579   -1.7980 H   0  0  0  0  0  0  0  0  0  0  0  0
    9.0989   -2.1178   -3.0258 H   0  0  0  0  0  0  0  0  0  0  0  0
   13.4316   -3.8740   -4.8621 H   0  0  0  0  0  0  0  0  0  0  0  0
   10.4350   -6.8817   -2.3463 H   0  0  0  0  0  0  0  0  0  0  0  0
    3.0430   -4.0923   -5.4640 H   0  0  0  0  0  0  0  0  0  0  0  0
    2.0152   -1.8937   -5.7542 H   0  0  0  0  0  0  0  0  0  0  0  0
  1  2  1  0  0  0  0
  1 29  1  0  0  0  0
  1 30  1  0  0  0  0
  1 31  1  0  0  0  0
  2  3  1  0  0  0  0
  2  4  1  0  0  0  0
  2 32  1  0  0  0  0
  3 33  1  0  0  0  0
  3 34  1  0  0  0  0
  3 35  1  0  0  0  0
  4  5  1  0  0  0  0
  4 28  2  0  0  0  0
  5  6  2  0  0  0  0
  5 36  1  0  0  0  0
  6  7  1  0  0  0  0
  6 37  1  0  0  0  0
  7  8  1  0  0  0  0
  7 27  2  0  0  0  0
  8  9  1  0  0  0  0
  8 38  1  0  0  0  0
  9 10  2  0  0  0  0
  9 11  1  0  0  0  0
 11 12  1  0  0  0  0
 11 16  2  0  0  0  0
 12 13  2  0  0  0  0
 12 39  1  0  0  0  0
 13 14  1  0  0  0  0
 13 40  1  0  0  0  0
 14 15  2  0  0  0  0
 14 41  1  0  0  0  0
 15 16  1  0  0  0  0
 15 42  1  0  0  0  0
 16 17  1  0  0  0  0
 17 18  1  0  0  0  0
 17 43  1  0  0  0  0
 17 44  1  0  0  0  0
 18 19  1  0  0  0  0
 18 26  1  0  0  0  0
 19 20  2  0  0  0  0
 19 45  1  0  0  0  0
 20 21  1  0  0  0  0
 20 46  1  0  0  0  0
 21 22  2  0  0  0  0
 21 25  1  0  0  0  0
 22 23  1  0  0  0  0
 23 24  2  0  0  0  0
 23 47  1  0  0  0  0
 24 25  1  0  0  0  0
 25 26  2  0  0  0  0
 26 48  1  0  0  0  0
 27 28  1  0  0  0  0
 27 49  1  0  0  0  0
 28 50  1  0  0  0  0
M  END
$$$$
