CHEMBL1980376
 OpenBabel04072215363D

 29 31  0  0  0  0  0  0  0  0999 V2000
   -1.6060    2.4301   -0.9986 C   0  0  0  0  0  0  0  0  0  0  0  0
   -1.0118    1.2161   -0.3484 C   0  0  0  0  0  0  0  0  0  0  0  0
    0.2838    1.2333    0.1679 C   0  0  0  0  0  0  0  0  0  0  0  0
    0.8409    0.0655    0.6792 C   0  0  0  0  0  0  0  0  0  0  0  0
    0.1263   -1.1357    0.6236 C   0  0  0  0  0  0  0  0  0  0  0  0
   -1.1822   -1.1939    0.1064 C   0  0  0  0  0  0  0  0  0  0  0  0
   -1.9194   -2.4757    0.0264 C   0  0  0  0  0  0  0  0  0  0  0  0
   -1.8071   -3.4372    1.0684 C   0  0  0  0  0  0  0  0  0  0  0  0
   -2.4826   -4.6598    1.0491 C   0  0  0  0  0  0  0  0  0  0  0  0
   -3.3264   -4.9847   -0.0075 C   0  0  0  0  0  0  0  0  0  0  0  0
   -3.4308   -4.0429   -1.0242 C   0  0  0  0  0  0  0  0  0  0  0  0
   -4.2111   -4.1931   -2.1232 O   0  0  0  0  0  0  0  0  0  0  0  0
   -4.0742   -3.0933   -2.9412 N   0  0  0  0  0  0  0  0  0  0  0  0
   -3.1949   -2.2934   -2.3349 C   0  0  0  0  0  0  0  0  0  0  0  0
   -2.7863   -1.1397   -2.8993 N   0  0  0  0  0  0  0  0  0  0  0  0
   -2.7667   -2.8200   -1.0693 C   0  0  0  0  0  0  0  0  0  0  0  0
   -1.7483    0.0211   -0.3118 C   0  0  0  0  0  0  0  0  0  0  0  0
   -0.9478    3.2998   -0.9072 H   0  0  0  0  0  0  0  0  0  0  0  0
   -2.5687    2.6798   -0.5431 H   0  0  0  0  0  0  0  0  0  0  0  0
   -1.7541    2.2362   -2.0669 H   0  0  0  0  0  0  0  0  0  0  0  0
    0.8658    2.1516    0.1750 H   0  0  0  0  0  0  0  0  0  0  0  0
    1.8425    0.0819    1.1015 H   0  0  0  0  0  0  0  0  0  0  0  0
    0.6182   -2.0352    0.9889 H   0  0  0  0  0  0  0  0  0  0  0  0
   -1.1810   -3.2238    1.9347 H   0  0  0  0  0  0  0  0  0  0  0  0
   -2.3552   -5.3607    1.8714 H   0  0  0  0  0  0  0  0  0  0  0  0
   -3.8711   -5.9192   -0.0435 H   0  0  0  0  0  0  0  0  0  0  0  0
   -3.0738   -0.9808   -3.8592 H   0  0  0  0  0  0  0  0  0  0  0  0
   -1.8572   -0.7863   -2.6980 H   0  0  0  0  0  0  0  0  0  0  0  0
   -2.7829    0.0451   -0.6523 H   0  0  0  0  0  0  0  0  0  0  0  0
  1  2  1  0  0  0  0
  1 18  1  0  0  0  0
  1 19  1  0  0  0  0
  1 20  1  0  0  0  0
  2  3  1  0  0  0  0
  2 17  2  0  0  0  0
  3  4  2  0  0  0  0
  3 21  1  0  0  0  0
  4  5  1  0  0  0  0
  4 22  1  0  0  0  0
  5  6  2  0  0  0  0
  5 23  1  0  0  0  0
  6  7  1  0  0  0  0
  6 17  1  0  0  0  0
  7  8  1  0  0  0  0
  7 16  2  0  0  0  0
  8  9  2  0  0  0  0
  8 24  1  0  0  0  0
  9 10  1  0  0  0  0
  9 25  1  0  0  0  0
 10 11  2  0  0  0  0
 10 26  1  0  0  0  0
 11 12  1  0  0  0  0
 11 16  1  0  0  0  0
 12 13  1  0  0  0  0
 13 14  2  0  0  0  0
 14 15  1  0  0  0  0
 14 16  1  0  0  0  0
 15 27  1  0  0  0  0
 15 28  1  0  0  0  0
 17 29  1  0  0  0  0
M  END
$$$$
