CHEMBL230685
 OpenBabel04072215363D

 59 63  0  0  0  0  0  0  0  0999 V2000
   -1.1084    1.5930    1.0531 C   0  0  0  0  0  0  0  0  0  0  0  0
   -0.2509    1.7839    2.2742 C   0  0  0  0  0  0  0  0  0  0  0  0
   -0.5804    1.0902    3.4516 C   0  0  0  0  0  0  0  0  0  0  0  0
    0.1726    1.2216    4.6269 C   0  0  0  0  0  0  0  0  0  0  0  0
   -0.2027    0.5031    5.8634 C   0  0  0  0  0  0  0  0  0  0  0  0
   -0.8034   -0.7687    5.8100 C   0  0  0  0  0  0  0  0  0  0  0  0
   -1.2320   -1.4216    6.9678 C   0  0  0  0  0  0  0  0  0  0  0  0
   -1.0585   -0.8216    8.2097 C   0  0  0  0  0  0  0  0  0  0  0  0
   -0.4390    0.4220    8.2961 C   0  0  0  0  0  0  0  0  0  0  0  0
   -0.0127    1.0733    7.1351 C   0  0  0  0  0  0  0  0  0  0  0  0
    1.2713    2.0836    4.5751 C   0  0  0  0  0  0  0  0  0  0  0  0
    1.6029    2.7806    3.4200 C   0  0  0  0  0  0  0  0  0  0  0  0
    2.6535    3.5959    3.4409 N   0  0  0  0  0  0  0  0  0  0  0  0
    2.9683    4.2787    2.3179 N   0  0  0  0  0  0  0  0  0  0  0  0
    2.2265    4.1421    1.1995 C   0  0  0  0  0  0  0  0  0  0  0  0
    2.5601    4.8814    0.0613 N   0  0  0  0  0  0  0  0  0  0  0  0
    3.2397    6.1088    0.0344 C   0  0  0  0  0  0  0  0  0  0  0  0
    4.0285    6.4426   -1.0676 C   0  0  0  0  0  0  0  0  0  0  0  0
    4.7943    7.6176   -1.0635 C   0  0  0  0  0  0  0  0  0  0  0  0
    4.7549    8.4804    0.0347 C   0  0  0  0  0  0  0  0  0  0  0  0
    5.4232    9.6682    0.1437 O   0  0  0  0  0  0  0  0  0  0  0  0
    5.7315   10.2883   -1.1044 C   0  0  0  0  0  0  0  0  0  0  0  0
    5.8762   11.8031   -0.8964 C   0  0  0  0  0  0  0  0  0  0  0  0
    6.1333   12.5368   -2.1522 N   0  0  0  0  0  0  0  0  0  0  0  0
    7.3912   12.1443   -2.8070 C   0  0  0  0  0  0  0  0  0  0  0  0
    8.4492   12.9839   -2.1267 C   0  0  0  0  0  0  0  0  0  0  0  0
    7.7556   14.3252   -2.0058 C   0  0  0  0  0  0  0  0  0  0  0  0
    6.2695   13.9859   -1.8965 C   0  0  0  0  0  0  0  0  0  0  0  0
    3.9831    8.1489    1.1393 C   0  0  0  0  0  0  0  0  0  0  0  0
    3.2235    6.9813    1.1314 C   0  0  0  0  0  0  0  0  0  0  0  0
    1.1733    3.3185    1.1215 N   0  0  0  0  0  0  0  0  0  0  0  0
    0.8505    2.6432    2.2434 C   0  0  0  0  0  0  0  0  0  0  0  0
   -1.9194    0.8807    1.2437 H   0  0  0  0  0  0  0  0  0  0  0  0
   -0.5095    1.1947    0.2285 H   0  0  0  0  0  0  0  0  0  0  0  0
   -1.5661    2.5409    0.7545 H   0  0  0  0  0  0  0  0  0  0  0  0
   -1.4578    0.4476    3.4447 H   0  0  0  0  0  0  0  0  0  0  0  0
   -0.9512   -1.2722    4.8574 H   0  0  0  0  0  0  0  0  0  0  0  0
   -1.7066   -2.3957    6.8936 H   0  0  0  0  0  0  0  0  0  0  0  0
   -1.4053   -1.3216    9.1092 H   0  0  0  0  0  0  0  0  0  0  0  0
   -0.2989    0.8935    9.2653 H   0  0  0  0  0  0  0  0  0  0  0  0
    0.4517    2.0508    7.2433 H   0  0  0  0  0  0  0  0  0  0  0  0
    1.9055    2.2297    5.4472 H   0  0  0  0  0  0  0  0  0  0  0  0
    2.0025    4.6368   -0.7373 H   0  0  0  0  0  0  0  0  0  0  0  0
    4.0920    5.7741   -1.9227 H   0  0  0  0  0  0  0  0  0  0  0  0
    5.4261    7.8230   -1.9220 H   0  0  0  0  0  0  0  0  0  0  0  0
    4.9337   10.1219   -1.8387 H   0  0  0  0  0  0  0  0  0  0  0  0
    6.6652    9.8467   -1.4634 H   0  0  0  0  0  0  0  0  0  0  0  0
    6.6367   12.0037   -0.1308 H   0  0  0  0  0  0  0  0  0  0  0  0
    4.9289   12.1618   -0.4677 H   0  0  0  0  0  0  0  0  0  0  0  0
    7.3238   12.4108   -3.8692 H   0  0  0  0  0  0  0  0  0  0  0  0
    7.6223   11.0779   -2.7768 H   0  0  0  0  0  0  0  0  0  0  0  0
    9.3761   13.0383   -2.7035 H   0  0  0  0  0  0  0  0  0  0  0  0
    8.6873   12.5850   -1.1333 H   0  0  0  0  0  0  0  0  0  0  0  0
    7.9359   14.9137   -2.9136 H   0  0  0  0  0  0  0  0  0  0  0  0
    8.1217   14.8968   -1.1486 H   0  0  0  0  0  0  0  0  0  0  0  0
    5.7097   14.5385   -2.6606 H   0  0  0  0  0  0  0  0  0  0  0  0
    5.8628   14.2931   -0.9257 H   0  0  0  0  0  0  0  0  0  0  0  0
    3.9641    8.7982    2.0096 H   0  0  0  0  0  0  0  0  0  0  0  0
    2.6055    6.7732    2.0015 H   0  0  0  0  0  0  0  0  0  0  0  0
  1  2  1  0  0  0  0
  1 33  1  0  0  0  0
  1 34  1  0  0  0  0
  1 35  1  0  0  0  0
  2  3  1  0  0  0  0
  2 32  2  0  0  0  0
  3  4  2  0  0  0  0
  3 36  1  0  0  0  0
  4  5  1  0  0  0  0
  4 11  1  0  0  0  0
  5  6  1  0  0  0  0
  5 10  2  0  0  0  0
  6  7  2  0  0  0  0
  6 37  1  0  0  0  0
  7  8  1  0  0  0  0
  7 38  1  0  0  0  0
  8  9  2  0  0  0  0
  8 39  1  0  0  0  0
  9 10  1  0  0  0  0
  9 40  1  0  0  0  0
 10 41  1  0  0  0  0
 11 12  2  0  0  0  0
 11 42  1  0  0  0  0
 12 13  1  0  0  0  0
 12 32  1  0  0  0  0
 13 14  2  0  0  0  0
 14 15  1  0  0  0  0
 15 16  1  0  0  0  0
 15 31  2  0  0  0  0
 16 17  1  0  0  0  0
 16 43  1  0  0  0  0
 17 18  1  0  0  0  0
 17 30  2  0  0  0  0
 18 19  2  0  0  0  0
 18 44  1  0  0  0  0
 19 20  1  0  0  0  0
 19 45  1  0  0  0  0
 20 21  1  0  0  0  0
 20 29  2  0  0  0  0
 21 22  1  0  0  0  0
 22 23  1  0  0  0  0
 22 46  1  0  0  0  0
 22 47  1  0  0  0  0
 23 24  1  0  0  0  0
 23 48  1  0  0  0  0
 23 49  1  0  0  0  0
 24 25  1  0  0  0  0
 24 28  1  0  0  0  0
 25 26  1  0  0  0  0
 25 50  1  0  0  0  0
 25 51  1  0  0  0  0
 26 27  1  0  0  0  0
 26 52  1  0  0  0  0
 26 53  1  0  0  0  0
 27 28  1  0  0  0  0
 27 54  1  0  0  0  0
 27 55  1  0  0  0  0
 28 56  1  0  0  0  0
 28 57  1  0  0  0  0
 29 30  1  0  0  0  0
 29 58  1  0  0  0  0
 30 59  1  0  0  0  0
 31 32  1  0  0  0  0
M  END
$$$$
