CHEMBL597393
 OpenBabel04072215383D

 46 49  0  0  0  0  0  0  0  0999 V2000
    1.2830    0.5973    0.6681 C   0  0  0  0  0  0  0  0  0  0  0  0
    2.4558    0.1061    0.0328 O   0  0  0  0  0  0  0  0  0  0  0  0
    3.1477    0.9816   -0.7557 C   0  0  0  0  0  0  0  0  0  0  0  0
    2.8631    2.3288   -0.9442 C   0  0  0  0  0  0  0  0  0  0  0  0
    3.6633    3.0998   -1.7989 C   0  0  0  0  0  0  0  0  0  0  0  0
    4.7292    2.5363   -2.5317 C   0  0  0  0  0  0  0  0  0  0  0  0
    4.9743    1.1556   -2.3604 C   0  0  0  0  0  0  0  0  0  0  0  0
    4.2257    0.4149   -1.4340 C   0  0  0  0  0  0  0  0  0  0  0  0
    5.9380    0.4164   -3.0756 N   0  0  0  0  0  0  0  0  0  0  0  0
    6.3409    0.5918   -4.3721 C   0  0  0  0  0  0  0  0  0  0  0  0
    7.1636   -0.1777   -4.8667 O   0  0  0  0  0  0  0  0  0  0  0  0
    5.6805    1.6829   -5.1821 C   0  0  0  0  0  0  0  0  0  0  0  0
    6.0209    3.0168   -4.6254 C   0  0  0  0  0  0  0  0  0  0  0  0
    6.8492    3.9042   -5.2734 C   0  0  0  0  0  0  0  0  0  0  0  0
    7.2023    5.0946   -4.7637 N   0  0  0  0  0  0  0  0  0  0  0  0
    6.6999    5.4162   -3.5633 C   0  0  0  0  0  0  0  0  0  0  0  0
    7.0540    6.6783   -3.0981 N   0  0  0  0  0  0  0  0  0  0  0  0
    6.5929    7.4399   -2.0211 C   0  0  0  0  0  0  0  0  0  0  0  0
    6.7891    8.8316   -2.0473 C   0  0  0  0  0  0  0  0  0  0  0  0
    6.2897    9.6631   -1.0342 C   0  0  0  0  0  0  0  0  0  0  0  0
    5.5970    9.1109    0.0364 C   0  0  0  0  0  0  0  0  0  0  0  0
    5.0613    9.7931    1.0979 O   0  0  0  0  0  0  0  0  0  0  0  0
    5.3069   11.1938    1.1374 C   0  0  0  0  0  0  0  0  0  0  0  0
    5.4082    7.7268    0.0663 C   0  0  0  0  0  0  0  0  0  0  0  0
    4.7232    7.1454    1.1000 O   0  0  0  0  0  0  0  0  0  0  0  0
    5.8954    6.8995   -0.9392 C   0  0  0  0  0  0  0  0  0  0  0  0
    5.8822    4.6118   -2.8691 N   0  0  0  0  0  0  0  0  0  0  0  0
    5.5653    3.4073   -3.3850 C   0  0  0  0  0  0  0  0  0  0  0  0
    0.8248   -0.2363    1.2095 H   0  0  0  0  0  0  0  0  0  0  0  0
    0.5535    0.9574   -0.0651 H   0  0  0  0  0  0  0  0  0  0  0  0
    1.5313    1.3748    1.3969 H   0  0  0  0  0  0  0  0  0  0  0  0
    2.0377    2.8184   -0.4380 H   0  0  0  0  0  0  0  0  0  0  0  0
    3.4435    4.1636   -1.8996 H   0  0  0  0  0  0  0  0  0  0  0  0
    4.4333   -0.6418   -1.2787 H   0  0  0  0  0  0  0  0  0  0  0  0
    6.2652   -0.4572   -2.6784 H   0  0  0  0  0  0  0  0  0  0  0  0
    4.5949    1.5285   -5.1950 H   0  0  0  0  0  0  0  0  0  0  0  0
    6.0093    1.5965   -6.2259 H   0  0  0  0  0  0  0  0  0  0  0  0
    7.2729    3.6792   -6.2466 H   0  0  0  0  0  0  0  0  0  0  0  0
    7.6341    7.1352   -3.7849 H   0  0  0  0  0  0  0  0  0  0  0  0
    7.3226    9.2887   -2.8780 H   0  0  0  0  0  0  0  0  0  0  0  0
    6.4563   10.7309   -1.1255 H   0  0  0  0  0  0  0  0  0  0  0  0
    4.9311   11.5708    2.0936 H   0  0  0  0  0  0  0  0  0  0  0  0
    4.7639   11.7034    0.3348 H   0  0  0  0  0  0  0  0  0  0  0  0
    6.3788   11.4137    1.0929 H   0  0  0  0  0  0  0  0  0  0  0  0
    4.4777    7.8869    1.6866 H   0  0  0  0  0  0  0  0  0  0  0  0
    5.7236    5.8320   -0.8483 H   0  0  0  0  0  0  0  0  0  0  0  0
  1  2  1  0  0  0  0
  1 29  1  0  0  0  0
  1 30  1  0  0  0  0
  1 31  1  0  0  0  0
  2  3  1  0  0  0  0
  3  4  1  0  0  0  0
  3  8  2  0  0  0  0
  4  5  2  0  0  0  0
  4 32  1  0  0  0  0
  5  6  1  0  0  0  0
  5 33  1  0  0  0  0
  6  7  2  0  0  0  0
  6 28  1  0  0  0  0
  7  8  1  0  0  0  0
  7  9  1  0  0  0  0
  8 34  1  0  0  0  0
  9 10  1  0  0  0  0
  9 35  1  0  0  0  0
 10 11  2  0  0  0  0
 10 12  1  0  0  0  0
 12 13  1  0  0  0  0
 12 36  1  0  0  0  0
 12 37  1  0  0  0  0
 13 14  1  0  0  0  0
 13 28  2  0  0  0  0
 14 15  2  0  0  0  0
 14 38  1  0  0  0  0
 15 16  1  0  0  0  0
 16 17  1  0  0  0  0
 16 27  2  0  0  0  0
 17 18  1  0  0  0  0
 17 39  1  0  0  0  0
 18 19  1  0  0  0  0
 18 26  2  0  0  0  0
 19 20  2  0  0  0  0
 19 40  1  0  0  0  0
 20 21  1  0  0  0  0
 20 41  1  0  0  0  0
 21 22  1  0  0  0  0
 21 24  2  0  0  0  0
 22 23  1  0  0  0  0
 23 42  1  0  0  0  0
 23 43  1  0  0  0  0
 23 44  1  0  0  0  0
 24 25  1  0  0  0  0
 24 26  1  0  0  0  0
 25 45  1  0  0  0  0
 26 46  1  0  0  0  0
 27 28  1  0  0  0  0
M  END
$$$$
