CHEMBL4516916
 OpenBabel04072215383D

 60 65  0  0  1  0  0  0  0  0999 V2000
    1.5981   -2.2891   -0.9770 F   0  0  0  0  0  0  0  0  0  0  0  0
    0.3601   -1.8175   -0.7869 C   0  0  0  0  0  0  0  0  0  0  0  0
   -0.6303   -2.0823   -1.7272 C   0  0  0  0  0  0  0  0  0  0  0  0
   -1.9240   -1.5869   -1.5324 C   0  0  0  0  0  0  0  0  0  0  0  0
   -2.2308   -0.8316   -0.3910 C   0  0  0  0  0  0  0  0  0  0  0  0
   -3.5795   -0.3083   -0.1920 C   0  0  0  0  0  0  0  0  0  0  0  0
   -4.1299   -0.1028    1.0562 C   0  0  0  0  0  0  0  0  0  0  0  0
   -5.6542    0.6441    0.9123 S   0  0  0  0  0  0  0  0  0  0  0  0
   -5.5322    0.5733   -0.8190 C   0  0  0  0  0  0  0  0  0  0  0  0
   -6.5488    1.0502   -1.5985 N   0  0  0  0  0  0  0  0  0  0  0  0
   -7.4253    2.0334   -1.2175 N   0  0  0  0  0  0  0  0  0  0  0  0
   -8.1117    2.3740   -2.2637 C   0  0  0  0  0  0  0  0  0  0  0  0
   -9.1288    3.4496   -2.2436 C   0  0  0  0  0  0  0  0  0  0  0  0
   -9.3447    4.1587   -1.0616 C   0  0  0  0  0  0  0  0  0  0  0  0
  -10.2746    5.2046   -1.0246 C   0  0  0  0  0  0  0  0  0  0  0  0
  -11.0196    5.5781   -2.1528 C   0  0  0  0  0  0  0  0  0  0  0  0
  -11.9291    6.6096   -2.1048 N   0  0  0  0  0  0  0  0  0  0  0  0
  -11.7458    7.8003   -1.2601 C   0  0  0  0  0  0  0  0  0  0  0  0
  -13.0089    8.0229   -0.4175 C   0  0  0  0  0  0  0  0  0  0  0  0
  -14.1758    8.1429   -1.2513 O   0  0  0  0  0  0  0  0  0  0  0  0
  -14.3565    6.9493   -2.0339 C   0  0  0  0  0  0  0  0  0  0  0  0
  -13.1412    6.6588   -2.9355 C   0  0  0  0  0  0  0  0  0  0  0  0
  -10.7968    4.8374   -3.3223 C   0  0  0  0  0  0  0  0  0  0  0  0
   -9.8660    3.7895   -3.3769 C   0  0  0  0  0  0  0  0  0  0  0  0
   -7.7950    1.6033   -3.5138 C   0  0  0  0  0  0  0  0  0  0  0  0
   -6.6440    0.7196   -3.0162 C   0  0  3  0  0  0  0  0  0  0  0  0
   -6.9410   -0.7580   -3.2297 C   0  0  0  0  0  0  0  0  0  0  0  0
   -6.1224   -1.5254   -4.0728 C   0  0  0  0  0  0  0  0  0  0  0  0
   -6.3636   -2.8911   -4.2441 C   0  0  0  0  0  0  0  0  0  0  0  0
   -7.4247   -3.4983   -3.5760 C   0  0  0  0  0  0  0  0  0  0  0  0
   -7.7063   -5.1843   -3.7720 Cl  0  0  0  0  0  0  0  0  0  0  0  0
   -8.2538   -2.7520   -2.7435 C   0  0  0  0  0  0  0  0  0  0  0  0
   -8.0128   -1.3885   -2.5708 C   0  0  0  0  0  0  0  0  0  0  0  0
   -4.4141    0.0215   -1.2555 N   0  0  0  0  0  0  0  0  0  0  0  0
   -1.2094   -0.5711    0.5422 C   0  0  0  0  0  0  0  0  0  0  0  0
    0.0830   -1.0642    0.3464 C   0  0  0  0  0  0  0  0  0  0  0  0
   -0.3872   -2.6716   -2.6059 H   0  0  0  0  0  0  0  0  0  0  0  0
   -2.6938   -1.7955   -2.2713 H   0  0  0  0  0  0  0  0  0  0  0  0
   -3.7154   -0.3204    2.0294 H   0  0  0  0  0  0  0  0  0  0  0  0
   -8.7943    3.9081   -0.1565 H   0  0  0  0  0  0  0  0  0  0  0  0
  -10.4279    5.7029   -0.0714 H   0  0  0  0  0  0  0  0  0  0  0  0
  -11.5979    8.6627   -1.9226 H   0  0  0  0  0  0  0  0  0  0  0  0
  -10.8658    7.7480   -0.6124 H   0  0  0  0  0  0  0  0  0  0  0  0
  -12.9155    8.9496    0.1568 H   0  0  0  0  0  0  0  0  0  0  0  0
  -13.1593    7.2001    0.2918 H   0  0  0  0  0  0  0  0  0  0  0  0
  -15.2508    7.0888   -2.6489 H   0  0  0  0  0  0  0  0  0  0  0  0
  -14.5453    6.1087   -1.3551 H   0  0  0  0  0  0  0  0  0  0  0  0
  -13.0275    7.4612   -3.6743 H   0  0  0  0  0  0  0  0  0  0  0  0
  -13.3287    5.7233   -3.4725 H   0  0  0  0  0  0  0  0  0  0  0  0
  -11.3263    5.0907   -4.2377 H   0  0  0  0  0  0  0  0  0  0  0  0
   -9.7320    3.2685   -4.3201 H   0  0  0  0  0  0  0  0  0  0  0  0
   -7.4687    2.2784   -4.3103 H   0  0  0  0  0  0  0  0  0  0  0  0
   -8.6791    1.0479   -3.8432 H   0  0  0  0  0  0  0  0  0  0  0  0
   -5.7224    1.0078   -3.5394 H   0  0  0  0  0  0  0  0  0  0  0  0
   -5.2765   -1.0699   -4.5841 H   0  0  0  0  0  0  0  0  0  0  0  0
   -5.7129   -3.4765   -4.8881 H   0  0  0  0  0  0  0  0  0  0  0  0
   -9.0777   -3.2239   -2.2152 H   0  0  0  0  0  0  0  0  0  0  0  0
   -8.6517   -0.8191   -1.8967 H   0  0  0  0  0  0  0  0  0  0  0  0
   -1.4000    0.0345    1.4252 H   0  0  0  0  0  0  0  0  0  0  0  0
    0.8691   -0.8609    1.0635 H   0  0  0  0  0  0  0  0  0  0  0  0
  1  2  1  0  0  0  0
  2  3  1  0  0  0  0
  2 36  2  0  0  0  0
  3  4  2  0  0  0  0
  3 37  1  0  0  0  0
  4  5  1  0  0  0  0
  4 38  1  0  0  0  0
  5  6  1  0  0  0  0
  5 35  2  0  0  0  0
  6  7  2  0  0  0  0
  6 34  1  0  0  0  0
  7  8  1  0  0  0  0
  7 39  1  0  0  0  0
  8  9  1  0  0  0  0
  9 10  1  0  0  0  0
  9 34  2  0  0  0  0
 10 11  1  0  0  0  0
 10 26  1  0  0  0  0
 11 12  2  0  0  0  0
 12 13  1  0  0  0  0
 12 25  1  0  0  0  0
 13 14  1  0  0  0  0
 13 24  2  0  0  0  0
 14 15  2  0  0  0  0
 14 40  1  0  0  0  0
 15 16  1  0  0  0  0
 15 41  1  0  0  0  0
 16 17  1  0  0  0  0
 16 23  2  0  0  0  0
 17 18  1  0  0  0  0
 17 22  1  0  0  0  0
 18 19  1  0  0  0  0
 18 42  1  0  0  0  0
 18 43  1  0  0  0  0
 19 20  1  0  0  0  0
 19 44  1  0  0  0  0
 19 45  1  0  0  0  0
 20 21  1  0  0  0  0
 21 22  1  0  0  0  0
 21 46  1  0  0  0  0
 21 47  1  0  0  0  0
 22 48  1  0  0  0  0
 22 49  1  0  0  0  0
 23 24  1  0  0  0  0
 23 50  1  0  0  0  0
 24 51  1  0  0  0  0
 25 26  1  0  0  0  0
 25 52  1  0  0  0  0
 25 53  1  0  0  0  0
 26 27  1  0  0  0  0
 26 54  1  0  0  0  0
 27 28  1  0  0  0  0
 27 33  2  0  0  0  0
 28 29  2  0  0  0  0
 28 55  1  0  0  0  0
 29 30  1  0  0  0  0
 29 56  1  0  0  0  0
 30 31  1  0  0  0  0
 30 32  2  0  0  0  0
 32 33  1  0  0  0  0
 32 57  1  0  0  0  0
 33 58  1  0  0  0  0
 35 36  1  0  0  0  0
 35 59  1  0  0  0  0
 36 60  1  0  0  0  0
M  END
$$$$
