CHEMBL3957965
 OpenBabel04072215373D

 54 57  0  0  0  0  0  0  0  0999 V2000
    2.6141    0.1935    0.1068 C   0  0  0  0  0  0  0  0  0  0  0  0
    1.1164    0.0589    0.1591 C   0  0  0  0  0  0  0  0  0  0  0  0
    0.3802    1.2638    0.2387 C   0  0  0  0  0  0  0  0  0  0  0  0
   -1.0144    1.2773    0.1798 C   0  0  0  0  0  0  0  0  0  0  0  0
   -1.7692    2.4276    0.2599 O   0  0  0  0  0  0  0  0  0  0  0  0
   -1.3247    3.5508   -0.4330 C   0  0  0  0  0  0  0  0  0  0  0  0
   -1.7715    4.7789    0.0123 C   0  0  0  0  0  0  0  0  0  0  0  0
   -1.3215    5.8716   -0.6941 C   0  0  0  0  0  0  0  0  0  0  0  0
   -1.7555    7.1528   -0.3105 N   0  0  0  0  0  0  0  0  0  0  0  0
   -1.4469    8.3057   -1.0045 C   0  0  0  0  0  0  0  0  0  0  0  0
   -0.7850    8.4035   -2.0297 O   0  0  0  0  0  0  0  0  0  0  0  0
   -1.9959    9.5504   -0.3854 C   0  0  0  0  0  0  0  0  0  0  0  0
   -1.8563   10.8795   -1.1008 C   0  0  0  0  0  0  0  0  0  0  0  0
   -1.0303   10.5992    0.1195 C   0  0  0  0  0  0  0  0  0  0  0  0
   -0.4845    5.7449   -1.7318 N   0  0  0  0  0  0  0  0  0  0  0  0
   -0.1270    4.5131   -2.0939 C   0  0  0  0  0  0  0  0  0  0  0  0
   -0.5240    3.3898   -1.5012 N   0  0  0  0  0  0  0  0  0  0  0  0
   -1.6918    0.0717    0.1096 C   0  0  0  0  0  0  0  0  0  0  0  0
   -0.9772   -1.1333    0.0712 C   0  0  0  0  0  0  0  0  0  0  0  0
    0.4272   -1.1712    0.0838 C   0  0  0  0  0  0  0  0  0  0  0  0
    1.1429   -2.4071    0.0593 N   0  0  0  0  0  0  0  0  0  0  0  0
    0.5884   -3.6724   -0.1005 C   0  0  0  0  0  0  0  0  0  0  0  0
   -0.5826   -3.9064   -0.3794 O   0  0  0  0  0  0  0  0  0  0  0  0
    1.5031   -4.6927    0.1525 N   0  0  0  0  0  0  0  0  0  0  0  0
    1.1020   -6.0552    0.0809 C   0  0  0  0  0  0  0  0  0  0  0  0
    1.4533   -6.9171    1.1167 C   0  0  0  0  0  0  0  0  0  0  0  0
    0.9871   -8.2361    1.1089 C   0  0  0  0  0  0  0  0  0  0  0  0
    0.2194   -8.7260    0.0453 C   0  0  0  0  0  0  0  0  0  0  0  0
   -0.3016  -10.3703    0.1780 Cl  0  0  0  0  0  0  0  0  0  0  0  0
   -0.0910   -7.9039   -1.0338 C   0  0  0  0  0  0  0  0  0  0  0  0
   -0.8666   -8.3458   -2.2494 C   0  0  0  0  0  0  0  0  0  0  0  0
   -1.1847   -9.6655   -2.3135 F   0  0  0  0  0  0  0  0  0  0  0  0
   -2.0484   -7.6802   -2.3794 F   0  0  0  0  0  0  0  0  0  0  0  0
   -0.1790   -8.0948   -3.4023 F   0  0  0  0  0  0  0  0  0  0  0  0
    0.3475   -6.5541   -0.9904 C   0  0  0  0  0  0  0  0  0  0  0  0
    2.9261    1.2289    0.2962 H   0  0  0  0  0  0  0  0  0  0  0  0
    2.9802   -0.0746   -0.8887 H   0  0  0  0  0  0  0  0  0  0  0  0
    3.0957   -0.4259    0.8674 H   0  0  0  0  0  0  0  0  0  0  0  0
    0.9121    2.2084    0.3213 H   0  0  0  0  0  0  0  0  0  0  0  0
   -2.4351    4.8536    0.8632 H   0  0  0  0  0  0  0  0  0  0  0  0
   -2.3424    7.2299    0.5045 H   0  0  0  0  0  0  0  0  0  0  0  0
   -2.9171    9.4196    0.1710 H   0  0  0  0  0  0  0  0  0  0  0  0
   -2.6652   11.5946   -1.0181 H   0  0  0  0  0  0  0  0  0  0  0  0
   -1.3498   10.9008   -2.0613 H   0  0  0  0  0  0  0  0  0  0  0  0
   -1.2772   11.1287    1.0310 H   0  0  0  0  0  0  0  0  0  0  0  0
    0.0329   10.4355   -0.0284 H   0  0  0  0  0  0  0  0  0  0  0  0
    0.5494    4.4240   -2.9358 H   0  0  0  0  0  0  0  0  0  0  0  0
   -2.7771    0.0462    0.0752 H   0  0  0  0  0  0  0  0  0  0  0  0
   -1.5756   -2.0369    0.0246 H   0  0  0  0  0  0  0  0  0  0  0  0
    2.1499   -2.3540    0.0405 H   0  0  0  0  0  0  0  0  0  0  0  0
    2.1829   -4.4661    0.8647 H   0  0  0  0  0  0  0  0  0  0  0  0
    2.0221   -6.5639    1.9710 H   0  0  0  0  0  0  0  0  0  0  0  0
    1.2111   -8.8772    1.9640 H   0  0  0  0  0  0  0  0  0  0  0  0
    0.0868   -5.8913   -1.8163 H   0  0  0  0  0  0  0  0  0  0  0  0
  1  2  1  0  0  0  0
  1 36  1  0  0  0  0
  1 37  1  0  0  0  0
  1 38  1  0  0  0  0
  2  3  1  0  0  0  0
  2 20  2  0  0  0  0
  3  4  2  0  0  0  0
  3 39  1  0  0  0  0
  4  5  1  0  0  0  0
  4 18  1  0  0  0  0
  5  6  1  0  0  0  0
  6  7  1  0  0  0  0
  6 17  2  0  0  0  0
  7  8  2  0  0  0  0
  7 40  1  0  0  0  0
  8  9  1  0  0  0  0
  8 15  1  0  0  0  0
  9 10  1  0  0  0  0
  9 41  1  0  0  0  0
 10 11  2  0  0  0  0
 10 12  1  0  0  0  0
 12 13  1  0  0  0  0
 12 14  1  0  0  0  0
 12 42  1  0  0  0  0
 13 14  1  0  0  0  0
 13 43  1  0  0  0  0
 13 44  1  0  0  0  0
 14 45  1  0  0  0  0
 14 46  1  0  0  0  0
 15 16  2  0  0  0  0
 16 17  1  0  0  0  0
 16 47  1  0  0  0  0
 18 19  2  0  0  0  0
 18 48  1  0  0  0  0
 19 20  1  0  0  0  0
 19 49  1  0  0  0  0
 20 21  1  0  0  0  0
 21 22  1  0  0  0  0
 21 50  1  0  0  0  0
 22 23  2  0  0  0  0
 22 24  1  0  0  0  0
 24 25  1  0  0  0  0
 24 51  1  0  0  0  0
 25 26  1  0  0  0  0
 25 35  2  0  0  0  0
 26 27  2  0  0  0  0
 26 52  1  0  0  0  0
 27 28  1  0  0  0  0
 27 53  1  0  0  0  0
 28 29  1  0  0  0  0
 28 30  2  0  0  0  0
 30 31  1  0  0  0  0
 30 35  1  0  0  0  0
 31 32  1  0  0  0  0
 31 33  1  0  0  0  0
 31 34  1  0  0  0  0
 35 54  1  0  0  0  0
M  END
$$$$
