CHEMBL213290
 OpenBabel04072215363D

 70 74  0  0  0  0  0  0  0  0999 V2000
    2.1586    0.0802    1.3153 C   0  0  0  0  0  0  0  0  0  0  0  0
    0.8114   -0.0124    0.6395 C   0  0  0  0  0  0  0  0  0  0  0  0
    0.0567    1.1781    0.6022 C   0  0  0  0  0  0  0  0  0  0  0  0
   -1.1760    1.2330   -0.0402 C   0  0  0  0  0  0  0  0  0  0  0  0
   -1.6918    0.0879   -0.6373 C   0  0  0  0  0  0  0  0  0  0  0  0
   -2.9910    0.1891   -1.3648 C   0  0  0  0  0  0  0  0  0  0  0  0
   -3.2643    1.2619   -1.8914 O   0  0  0  0  0  0  0  0  0  0  0  0
   -3.7854   -0.9384   -1.3236 N   0  0  0  0  0  0  0  0  0  0  0  0
   -5.0609   -1.1010   -1.9308 C   0  0  0  0  0  0  0  0  0  0  0  0
   -5.5027   -0.2179   -2.9228 C   0  0  0  0  0  0  0  0  0  0  0  0
   -6.7716   -0.3430   -3.4838 C   0  0  0  0  0  0  0  0  0  0  0  0
   -7.6187   -1.3550   -3.0559 C   0  0  0  0  0  0  0  0  0  0  0  0
   -7.2061   -2.2760   -2.0760 C   0  0  0  0  0  0  0  0  0  0  0  0
   -8.1900   -3.3405   -1.6370 C   0  0  0  0  0  0  0  0  0  0  0  0
   -9.4069   -3.2481   -2.2461 F   0  0  0  0  0  0  0  0  0  0  0  0
   -7.7480   -4.6031   -1.8949 F   0  0  0  0  0  0  0  0  0  0  0  0
   -8.4494   -3.2948   -0.3001 F   0  0  0  0  0  0  0  0  0  0  0  0
   -5.9008   -2.1652   -1.5201 C   0  0  0  0  0  0  0  0  0  0  0  0
   -5.4154   -3.1642   -0.4942 C   0  0  0  0  0  0  0  0  0  0  0  0
   -0.9669   -1.1085   -0.5843 C   0  0  0  0  0  0  0  0  0  0  0  0
    0.2954   -1.2002    0.0523 C   0  0  0  0  0  0  0  0  0  0  0  0
    0.9890   -2.5192    0.0628 C   0  0  0  0  0  0  0  0  0  0  0  0
    1.7096   -2.9770    1.1750 C   0  0  0  0  0  0  0  0  0  0  0  0
    2.3478   -4.2230    1.1845 C   0  0  0  0  0  0  0  0  0  0  0  0
    2.2336   -5.0996    0.1266 C   0  0  0  0  0  0  0  0  0  0  0  0
    2.8051   -6.2994    0.2186 N   0  0  0  0  0  0  0  0  0  0  0  0
    2.7258   -7.1131   -0.8341 C   0  0  0  0  0  0  0  0  0  0  0  0
    3.4429   -8.2921   -0.7267 N   0  0  0  0  0  0  0  0  0  0  0  0
    3.7106   -9.0067   -1.9642 C   0  0  0  0  0  0  0  0  0  0  0  0
    4.7653   -8.2252   -2.7894 C   0  0  0  0  0  0  0  0  0  0  0  0
    5.1655   -8.8347   -4.0735 N   0  0  0  0  0  0  0  0  0  0  0  0
    6.2046   -8.0002   -4.7252 C   0  0  0  0  0  0  0  0  0  0  0  0
    5.6785   -6.6705   -5.3022 C   0  0  0  0  0  0  0  0  0  0  0  0
    4.5809   -6.8785   -6.2010 O   0  0  0  0  0  0  0  0  0  0  0  0
    3.5265   -7.6104   -5.5631 C   0  0  0  0  0  0  0  0  0  0  0  0
    4.0355   -8.9567   -5.0223 C   0  0  0  0  0  0  0  0  0  0  0  0
    2.0485   -6.8196   -1.9540 N   0  0  0  0  0  0  0  0  0  0  0  0
    1.4405   -5.6195   -2.0040 C   0  0  0  0  0  0  0  0  0  0  0  0
    1.5106   -4.6826   -0.9888 C   0  0  0  0  0  0  0  0  0  0  0  0
    0.9117   -3.4040   -1.0299 C   0  0  0  0  0  0  0  0  0  0  0  0
    2.4627    1.1224    1.4608 H   0  0  0  0  0  0  0  0  0  0  0  0
    2.9362   -0.3910    0.7065 H   0  0  0  0  0  0  0  0  0  0  0  0
    2.1224   -0.3691    2.3108 H   0  0  0  0  0  0  0  0  0  0  0  0
    0.4412    2.0881    1.0595 H   0  0  0  0  0  0  0  0  0  0  0  0
   -1.7247    2.1706   -0.0776 H   0  0  0  0  0  0  0  0  0  0  0  0
   -3.5093   -1.6608   -0.6693 H   0  0  0  0  0  0  0  0  0  0  0  0
   -4.8728    0.5835   -3.2948 H   0  0  0  0  0  0  0  0  0  0  0  0
   -7.0930    0.3591   -4.2490 H   0  0  0  0  0  0  0  0  0  0  0  0
   -8.6148   -1.4208   -3.4934 H   0  0  0  0  0  0  0  0  0  0  0  0
   -6.1553   -3.9246   -0.2381 H   0  0  0  0  0  0  0  0  0  0  0  0
   -5.1537   -2.6519    0.4371 H   0  0  0  0  0  0  0  0  0  0  0  0
   -4.5382   -3.6955   -0.8801 H   0  0  0  0  0  0  0  0  0  0  0  0
   -1.3816   -1.9892   -1.0731 H   0  0  0  0  0  0  0  0  0  0  0  0
    1.7790   -2.3917    2.0844 H   0  0  0  0  0  0  0  0  0  0  0  0
    2.9334   -4.5194    2.0521 H   0  0  0  0  0  0  0  0  0  0  0  0
    3.0462   -8.8350    0.0293 H   0  0  0  0  0  0  0  0  0  0  0  0
    2.7823   -9.1791   -2.5183 H   0  0  0  0  0  0  0  0  0  0  0  0
    4.1181   -9.9921   -1.7147 H   0  0  0  0  0  0  0  0  0  0  0  0
    5.6618   -8.1399   -2.1581 H   0  0  0  0  0  0  0  0  0  0  0  0
    4.4228   -7.1975   -2.9406 H   0  0  0  0  0  0  0  0  0  0  0  0
    6.6260   -8.5919   -5.5497 H   0  0  0  0  0  0  0  0  0  0  0  0
    7.0332   -7.8098   -4.0332 H   0  0  0  0  0  0  0  0  0  0  0  0
    6.4752   -6.1774   -5.8681 H   0  0  0  0  0  0  0  0  0  0  0  0
    5.3688   -5.9755   -4.5131 H   0  0  0  0  0  0  0  0  0  0  0  0
    2.7507   -7.7888   -6.3140 H   0  0  0  0  0  0  0  0  0  0  0  0
    3.0797   -6.9934   -4.7755 H   0  0  0  0  0  0  0  0  0  0  0  0
    4.3926   -9.5557   -5.8711 H   0  0  0  0  0  0  0  0  0  0  0  0
    3.2106   -9.5311   -4.5897 H   0  0  0  0  0  0  0  0  0  0  0  0
    0.8817   -5.4310   -2.9161 H   0  0  0  0  0  0  0  0  0  0  0  0
    0.3746   -3.1143   -1.9331 H   0  0  0  0  0  0  0  0  0  0  0  0
  1  2  1  0  0  0  0
  1 41  1  0  0  0  0
  1 42  1  0  0  0  0
  1 43  1  0  0  0  0
  2  3  1  0  0  0  0
  2 21  2  0  0  0  0
  3  4  2  0  0  0  0
  3 44  1  0  0  0  0
  4  5  1  0  0  0  0
  4 45  1  0  0  0  0
  5  6  1  0  0  0  0
  5 20  2  0  0  0  0
  6  7  2  0  0  0  0
  6  8  1  0  0  0  0
  8  9  1  0  0  0  0
  8 46  1  0  0  0  0
  9 10  1  0  0  0  0
  9 18  2  0  0  0  0
 10 11  2  0  0  0  0
 10 47  1  0  0  0  0
 11 12  1  0  0  0  0
 11 48  1  0  0  0  0
 12 13  2  0  0  0  0
 12 49  1  0  0  0  0
 13 14  1  0  0  0  0
 13 18  1  0  0  0  0
 14 15  1  0  0  0  0
 14 16  1  0  0  0  0
 14 17  1  0  0  0  0
 18 19  1  0  0  0  0
 19 50  1  0  0  0  0
 19 51  1  0  0  0  0
 19 52  1  0  0  0  0
 20 21  1  0  0  0  0
 20 53  1  0  0  0  0
 21 22  1  0  0  0  0
 22 23  1  0  0  0  0
 22 40  2  0  0  0  0
 23 24  2  0  0  0  0
 23 54  1  0  0  0  0
 24 25  1  0  0  0  0
 24 55  1  0  0  0  0
 25 26  1  0  0  0  0
 25 39  2  0  0  0  0
 26 27  2  0  0  0  0
 27 28  1  0  0  0  0
 27 37  1  0  0  0  0
 28 29  1  0  0  0  0
 28 56  1  0  0  0  0
 29 30  1  0  0  0  0
 29 57  1  0  0  0  0
 29 58  1  0  0  0  0
 30 31  1  0  0  0  0
 30 59  1  0  0  0  0
 30 60  1  0  0  0  0
 31 32  1  0  0  0  0
 31 36  1  0  0  0  0
 32 33  1  0  0  0  0
 32 61  1  0  0  0  0
 32 62  1  0  0  0  0
 33 34  1  0  0  0  0
 33 63  1  0  0  0  0
 33 64  1  0  0  0  0
 34 35  1  0  0  0  0
 35 36  1  0  0  0  0
 35 65  1  0  0  0  0
 35 66  1  0  0  0  0
 36 67  1  0  0  0  0
 36 68  1  0  0  0  0
 37 38  2  0  0  0  0
 38 39  1  0  0  0  0
 38 69  1  0  0  0  0
 39 40  1  0  0  0  0
 40 70  1  0  0  0  0
M  END
$$$$
