CHEMBL498214
 OpenBabel04072215383D

 52 56  0  0  0  0  0  0  0  0999 V2000
   -2.7212    1.6367   -4.6368 C   0  0  0  0  0  0  0  0  0  0  0  0
   -3.2976    1.4590   -3.3064 N   0  0  0  0  0  0  0  0  0  0  0  0
   -3.4713    0.0251   -3.0238 C   0  0  0  0  0  0  0  0  0  0  0  0
   -4.0840   -0.2096   -1.6393 C   0  0  0  0  0  0  0  0  0  0  0  0
   -3.3442    0.4582   -0.5589 N   0  0  0  0  0  0  0  0  0  0  0  0
   -3.1741   -0.0155    0.7470 C   0  0  0  0  0  0  0  0  0  0  0  0
   -2.4843    0.5712    1.5804 O   0  0  0  0  0  0  0  0  0  0  0  0
   -3.8191   -1.2881    1.1742 C   0  0  0  0  0  0  0  0  0  0  0  0
   -3.1253   -2.1589    2.0320 C   0  0  0  0  0  0  0  0  0  0  0  0
   -3.6596   -3.4037    2.4047 C   0  0  0  0  0  0  0  0  0  0  0  0
   -4.8892   -3.7411    1.8361 C   0  0  0  0  0  0  0  0  0  0  0  0
   -5.6785   -4.8596    1.9010 N   0  0  0  0  0  0  0  0  0  0  0  0
   -6.7959   -4.6656    1.1112 C   0  0  0  0  0  0  0  0  0  0  0  0
   -7.8014   -5.6797    1.0058 C   0  0  0  0  0  0  0  0  0  0  0  0
   -8.8585   -5.5000    0.1698 C   0  0  0  0  0  0  0  0  0  0  0  0
   -9.0002   -4.4285   -0.7178 N   0  0  0  0  0  0  0  0  0  0  0  0
   -9.9799   -6.4804    0.2039 C   0  0  0  0  0  0  0  0  0  0  0  0
  -11.1392   -6.3474   -0.5778 C   0  0  0  0  0  0  0  0  0  0  0  0
  -12.2033   -7.2427   -0.4530 C   0  0  0  0  0  0  0  0  0  0  0  0
  -12.1154   -8.3083    0.4430 C   0  0  0  0  0  0  0  0  0  0  0  0
  -10.9614   -8.4835    1.2001 C   0  0  0  0  0  0  0  0  0  0  0  0
   -9.9104   -7.5713    1.0806 C   0  0  0  0  0  0  0  0  0  0  0  0
   -8.7721   -7.7606    1.8622 N   0  0  0  0  0  0  0  0  0  0  0  0
   -7.7121   -6.9057    1.8660 C   0  0  0  0  0  0  0  0  0  0  0  0
   -6.7299   -7.1423    2.5709 O   0  0  0  0  0  0  0  0  0  0  0  0
   -6.7706   -3.4497    0.5891 N   0  0  0  0  0  0  0  0  0  0  0  0
   -5.6116   -2.8769    1.0296 C   0  0  0  0  0  0  0  0  0  0  0  0
   -5.1159   -1.6034    0.7587 C   0  0  0  0  0  0  0  0  0  0  0  0
   -2.9956    1.8536   -0.8417 C   0  0  0  0  0  0  0  0  0  0  0  0
   -2.4336    2.0554   -2.2649 C   0  0  0  0  0  0  0  0  0  0  0  0
   -3.3820    1.2023   -5.3963 H   0  0  0  0  0  0  0  0  0  0  0  0
   -1.7374    1.1630   -4.7292 H   0  0  0  0  0  0  0  0  0  0  0  0
   -2.6222    2.7000   -4.8754 H   0  0  0  0  0  0  0  0  0  0  0  0
   -2.5084   -0.4999   -3.0797 H   0  0  0  0  0  0  0  0  0  0  0  0
   -4.1369   -0.4259   -3.7698 H   0  0  0  0  0  0  0  0  0  0  0  0
   -4.1174   -1.2886   -1.4792 H   0  0  0  0  0  0  0  0  0  0  0  0
   -5.1067    0.1885   -1.6227 H   0  0  0  0  0  0  0  0  0  0  0  0
   -2.1485   -1.8667    2.4176 H   0  0  0  0  0  0  0  0  0  0  0  0
   -3.1274   -4.0726    3.0731 H   0  0  0  0  0  0  0  0  0  0  0  0
   -5.4949   -5.6996    2.4395 H   0  0  0  0  0  0  0  0  0  0  0  0
   -8.2702   -3.7219   -0.5469 H   0  0  0  0  0  0  0  0  0  0  0  0
   -9.9114   -3.9848   -0.6536 H   0  0  0  0  0  0  0  0  0  0  0  0
  -11.2364   -5.5377   -1.2962 H   0  0  0  0  0  0  0  0  0  0  0  0
  -13.1000   -7.1091   -1.0472 H   0  0  0  0  0  0  0  0  0  0  0  0
  -12.9459   -9.0006    0.5492 H   0  0  0  0  0  0  0  0  0  0  0  0
  -10.9019   -9.3185    1.8910 H   0  0  0  0  0  0  0  0  0  0  0  0
   -8.6957   -8.5648    2.4698 H   0  0  0  0  0  0  0  0  0  0  0  0
   -5.7274   -0.9199    0.1872 H   0  0  0  0  0  0  0  0  0  0  0  0
   -2.2759    2.2314   -0.1080 H   0  0  0  0  0  0  0  0  0  0  0  0
   -3.9172    2.4371   -0.7204 H   0  0  0  0  0  0  0  0  0  0  0  0
   -1.4285    1.6161   -2.3117 H   0  0  0  0  0  0  0  0  0  0  0  0
   -2.3322    3.1321   -2.4445 H   0  0  0  0  0  0  0  0  0  0  0  0
  1  2  1  0  0  0  0
  1 31  1  0  0  0  0
  1 32  1  0  0  0  0
  1 33  1  0  0  0  0
  2  3  1  0  0  0  0
  2 30  1  0  0  0  0
  3  4  1  0  0  0  0
  3 34  1  0  0  0  0
  3 35  1  0  0  0  0
  4  5  1  0  0  0  0
  4 36  1  0  0  0  0
  4 37  1  0  0  0  0
  5  6  1  0  0  0  0
  5 29  1  0  0  0  0
  6  7  2  0  0  0  0
  6  8  1  0  0  0  0
  8  9  1  0  0  0  0
  8 28  2  0  0  0  0
  9 10  2  0  0  0  0
  9 38  1  0  0  0  0
 10 11  1  0  0  0  0
 10 39  1  0  0  0  0
 11 12  1  0  0  0  0
 11 27  2  0  0  0  0
 12 13  1  0  0  0  0
 12 40  1  0  0  0  0
 13 14  1  0  0  0  0
 13 26  2  0  0  0  0
 14 15  2  0  0  0  0
 14 24  1  0  0  0  0
 15 16  1  0  0  0  0
 15 17  1  0  0  0  0
 16 41  1  0  0  0  0
 16 42  1  0  0  0  0
 17 18  1  0  0  0  0
 17 22  2  0  0  0  0
 18 19  2  0  0  0  0
 18 43  1  0  0  0  0
 19 20  1  0  0  0  0
 19 44  1  0  0  0  0
 20 21  2  0  0  0  0
 20 45  1  0  0  0  0
 21 22  1  0  0  0  0
 21 46  1  0  0  0  0
 22 23  1  0  0  0  0
 23 24  1  0  0  0  0
 23 47  1  0  0  0  0
 24 25  2  0  0  0  0
 26 27  1  0  0  0  0
 27 28  1  0  0  0  0
 28 48  1  0  0  0  0
 29 30  1  0  0  0  0
 29 49  1  0  0  0  0
 29 50  1  0  0  0  0
 30 51  1  0  0  0  0
 30 52  1  0  0  0  0
M  END
$$$$
