CHEMBL3288524
 OpenBabel04072215363D

 46 50  0  0  0  0  0  0  0  0999 V2000
    2.1346   -2.7171   -3.0499 N   0  0  0  0  0  0  0  0  0  0  0  0
    3.3082   -2.2395   -2.5028 C   0  0  0  0  0  0  0  0  0  0  0  0
    4.3139   -1.8107   -3.2978 N   0  0  0  0  0  0  0  0  0  0  0  0
    5.4651   -1.3459   -2.7431 C   0  0  0  0  0  0  0  0  0  0  0  0
    5.7184   -1.2620   -1.3841 C   0  0  0  0  0  0  0  0  0  0  0  0
    4.6880   -1.7056   -0.5794 C   0  0  0  0  0  0  0  0  0  0  0  0
    4.6362   -1.7529    0.7954 O   0  0  0  0  0  0  0  0  0  0  0  0
    3.4056   -2.2670    1.0956 C   0  0  0  0  0  0  0  0  0  0  0  0
    2.6915   -2.5434   -0.0396 C   0  0  0  0  0  0  0  0  0  0  0  0
    1.3739   -3.1004   -0.0478 C   0  0  0  0  0  0  0  0  0  0  0  0
    0.5191   -2.7985   -1.0578 C   0  0  0  0  0  0  0  0  0  0  0  0
   -0.5192   -3.6370   -1.2277 C   0  0  0  0  0  0  0  0  0  0  0  0
   -1.1712   -4.2528   -0.2158 C   0  0  0  0  0  0  0  0  0  0  0  0
   -2.4615   -4.7188   -0.3628 C   0  0  0  0  0  0  0  0  0  0  0  0
   -3.3992   -4.6587   -1.4858 C   0  0  0  0  0  0  0  0  0  0  0  0
   -3.3241   -3.7032   -2.2573 O   0  0  0  0  0  0  0  0  0  0  0  0
   -4.3313   -5.6585   -1.5663 N   0  0  0  0  0  0  0  0  0  0  0  0
   -5.3124   -5.7487   -2.5043 C   0  0  0  0  0  0  0  0  0  0  0  0
   -5.1475   -5.0457   -3.6536 C   0  0  0  0  0  0  0  0  0  0  0  0
   -6.1013   -5.1148   -4.6396 C   0  0  0  0  0  0  0  0  0  0  0  0
   -7.3413   -5.6319   -4.3559 C   0  0  0  0  0  0  0  0  0  0  0  0
   -7.5554   -6.1503   -3.0981 C   0  0  0  0  0  0  0  0  0  0  0  0
   -6.4454   -6.5099   -2.3392 C   0  0  0  0  0  0  0  0  0  0  0  0
   -2.9122   -5.2808    0.8183 C   0  0  0  0  0  0  0  0  0  0  0  0
   -3.3421   -5.7912    1.8694 C   0  0  0  0  0  0  0  0  0  0  0  0
   -1.5607   -5.1213    1.9144 C   0  0  0  0  0  0  0  0  0  0  0  0
   -0.5470   -4.4046    0.9694 C   0  0  0  0  0  0  0  0  0  0  0  0
    0.8749   -3.9100    0.9777 C   0  0  0  0  0  0  0  0  0  0  0  0
    3.5032   -2.1897   -1.1194 C   0  0  0  0  0  0  0  0  0  0  0  0
    1.9989   -2.7548   -4.0413 H   0  0  0  0  0  0  0  0  0  0  0  0
    1.3604   -3.0190   -2.4832 H   0  0  0  0  0  0  0  0  0  0  0  0
    6.2432   -1.0181   -3.4373 H   0  0  0  0  0  0  0  0  0  0  0  0
    6.6551   -0.8765   -1.0280 H   0  0  0  0  0  0  0  0  0  0  0  0
    3.1222   -2.4078    2.1258 H   0  0  0  0  0  0  0  0  0  0  0  0
    0.6206   -1.9695   -1.7442 H   0  0  0  0  0  0  0  0  0  0  0  0
   -0.7181   -3.9334   -2.2151 H   0  0  0  0  0  0  0  0  0  0  0  0
   -4.3385   -6.4402   -0.9778 H   0  0  0  0  0  0  0  0  0  0  0  0
   -4.2444   -4.4843   -3.7986 H   0  0  0  0  0  0  0  0  0  0  0  0
   -5.9020   -4.7055   -5.6116 H   0  0  0  0  0  0  0  0  0  0  0  0
   -8.0998   -5.6257   -5.1269 H   0  0  0  0  0  0  0  0  0  0  0  0
   -8.5710   -6.2660   -2.7364 H   0  0  0  0  0  0  0  0  0  0  0  0
   -6.5188   -7.3202   -1.6306 H   0  0  0  0  0  0  0  0  0  0  0  0
   -2.9127   -5.6920    2.2220 H   0  0  0  0  0  0  0  0  0  0  0  0
   -4.4495   -5.9622    1.1818 H   0  0  0  0  0  0  0  0  0  0  0  0
   -0.8357   -5.1486    2.8492 H   0  0  0  0  0  0  0  0  0  0  0  0
    1.5754   -4.1144    1.7858 H   0  0  0  0  0  0  0  0  0  0  0  0
  1  2  1  0  0  0  0
  1 30  1  0  0  0  0
  1 31  1  0  0  0  0
  2  3  1  0  0  0  0
  2 29  2  0  0  0  0
  3  4  2  0  0  0  0
  4  5  1  0  0  0  0
  4 32  1  0  0  0  0
  5  6  2  0  0  0  0
  5 33  1  0  0  0  0
  6  7  1  0  0  0  0
  6 29  1  0  0  0  0
  7  8  1  0  0  0  0
  8  9  2  0  0  0  0
  8 34  1  0  0  0  0
  9 10  1  0  0  0  0
  9 29  1  0  0  0  0
 10 11  1  0  0  0  0
 10 28  2  0  0  0  0
 11 12  2  0  0  0  0
 11 35  1  0  0  0  0
 12 13  1  0  0  0  0
 12 36  1  0  0  0  0
 13 14  1  0  0  0  0
 13 27  2  0  0  0  0
 14 15  1  0  0  0  0
 14 24  2  0  0  0  0
 15 16  2  0  0  0  0
 15 17  1  0  0  0  0
 17 18  1  0  0  0  0
 17 37  1  0  0  0  0
 18 19  1  0  0  0  0
 18 23  2  0  0  0  0
 19 20  2  0  0  0  0
 19 38  1  0  0  0  0
 20 21  1  0  0  0  0
 20 39  1  0  0  0  0
 21 22  2  0  0  0  0
 21 40  1  0  0  0  0
 22 23  1  0  0  0  0
 22 41  1  0  0  0  0
 23 42  1  0  0  0  0
 24 25  1  0  0  0  0
 24 43  1  0  0  0  0
 25 26  2  0  0  0  0
 25 44  1  0  0  0  0
 26 27  1  0  0  0  0
 26 45  1  0  0  0  0
 27 28  1  0  0  0  0
 28 46  1  0  0  0  0
M  END
$$$$
