CHEMBL1173150
 OpenBabel04072215363D

 58 61  0  0  0  0  0  0  0  0999 V2000
   12.4983   -6.4733   -1.6334 C   0  0  0  0  0  0  0  0  0  0  0  0
   11.3601   -5.9284   -0.9636 O   0  0  0  0  0  0  0  0  0  0  0  0
   10.2721   -5.6765   -1.7531 C   0  0  0  0  0  0  0  0  0  0  0  0
   10.2173   -5.9100   -3.1190 C   0  0  0  0  0  0  0  0  0  0  0  0
    9.0686   -5.6064   -3.8478 C   0  0  0  0  0  0  0  0  0  0  0  0
    7.9366   -5.0495   -3.2433 C   0  0  0  0  0  0  0  0  0  0  0  0
    6.7811   -4.6899   -3.9867 N   0  0  0  0  0  0  0  0  0  0  0  0
    6.6216   -4.8657   -5.3588 C   0  0  0  0  0  0  0  0  0  0  0  0
    7.4401   -5.3752   -6.1086 O   0  0  0  0  0  0  0  0  0  0  0  0
    5.4216   -4.3537   -5.8366 N   0  0  0  0  0  0  0  0  0  0  0  0
    5.1627   -4.3989   -7.2369 C   0  0  0  0  0  0  0  0  0  0  0  0
    4.8858   -3.1861   -7.8904 C   0  0  0  0  0  0  0  0  0  0  0  0
    4.6332   -3.1546   -9.2645 C   0  0  0  0  0  0  0  0  0  0  0  0
    4.6256   -4.3453   -9.9701 C   0  0  0  0  0  0  0  0  0  0  0  0
    4.9182   -5.5526   -9.3279 C   0  0  0  0  0  0  0  0  0  0  0  0
    5.1966   -5.6043   -7.9680 C   0  0  0  0  0  0  0  0  0  0  0  0
    4.8694   -6.6010  -10.2536 N   0  0  0  0  0  0  0  0  0  0  0  0
    4.5312   -6.1469  -11.5285 C   0  0  0  0  0  0  0  0  0  0  0  0
    4.4219   -6.8091  -12.5445 O   0  0  0  0  0  0  0  0  0  0  0  0
    4.3316   -4.6566  -11.3810 C   0  0  0  0  0  0  0  0  0  0  0  0
    3.9156   -3.6951  -12.2220 C   0  0  0  0  0  0  0  0  0  0  0  0
    3.4798   -3.7430  -13.5730 C   0  0  0  0  0  0  0  0  0  0  0  0
    3.4636   -4.9021  -14.2967 N   0  0  0  0  0  0  0  0  0  0  0  0
    2.9089   -4.6804  -15.5384 C   0  0  0  0  0  0  0  0  0  0  0  0
    2.7283   -5.8246  -16.4716 C   0  0  0  0  0  0  0  0  0  0  0  0
    2.6405   -3.3223  -15.6627 C   0  0  0  0  0  0  0  0  0  0  0  0
    2.1206   -2.5914  -16.8829 C   0  0  0  0  0  0  0  0  0  0  0  0
    0.8238   -1.8126  -16.7040 C   0  0  0  0  0  0  0  0  0  0  0  0
    0.5722   -0.7858  -17.3133 O   0  0  0  0  0  0  0  0  0  0  0  0
   -0.0781   -2.3820  -15.8725 O   0  0  0  0  0  0  0  0  0  0  0  0
    3.0034   -2.7295  -14.4038 C   0  0  0  0  0  0  0  0  0  0  0  0
    2.8824   -1.2846  -14.0364 C   0  0  0  0  0  0  0  0  0  0  0  0
    7.9804   -4.8372   -1.8579 C   0  0  0  0  0  0  0  0  0  0  0  0
    9.1393   -5.1475   -1.1229 C   0  0  0  0  0  0  0  0  0  0  0  0
   13.2839   -6.6532   -0.8948 H   0  0  0  0  0  0  0  0  0  0  0  0
   12.8940   -5.7691   -2.3753 H   0  0  0  0  0  0  0  0  0  0  0  0
   12.2578   -7.4361   -2.0995 H   0  0  0  0  0  0  0  0  0  0  0  0
   11.0520   -6.3289   -3.6730 H   0  0  0  0  0  0  0  0  0  0  0  0
    9.1152   -5.8257   -4.9052 H   0  0  0  0  0  0  0  0  0  0  0  0
    6.0045   -4.3038   -3.4633 H   0  0  0  0  0  0  0  0  0  0  0  0
    5.1161   -3.5171   -5.3609 H   0  0  0  0  0  0  0  0  0  0  0  0
    4.9244   -2.2429   -7.3519 H   0  0  0  0  0  0  0  0  0  0  0  0
    4.4532   -2.2052   -9.7558 H   0  0  0  0  0  0  0  0  0  0  0  0
    5.4191   -6.5440   -7.4743 H   0  0  0  0  0  0  0  0  0  0  0  0
    5.0658   -7.5698  -10.0419 H   0  0  0  0  0  0  0  0  0  0  0  0
    3.8544   -2.6902  -11.8099 H   0  0  0  0  0  0  0  0  0  0  0  0
    3.7932   -5.8043  -13.9615 H   0  0  0  0  0  0  0  0  0  0  0  0
    3.0556   -6.7639  -16.0108 H   0  0  0  0  0  0  0  0  0  0  0  0
    3.3092   -5.6808  -17.3870 H   0  0  0  0  0  0  0  0  0  0  0  0
    1.6719   -5.9363  -16.7337 H   0  0  0  0  0  0  0  0  0  0  0  0
    1.9631   -3.2854  -17.7147 H   0  0  0  0  0  0  0  0  0  0  0  0
    2.8840   -1.8666  -17.1914 H   0  0  0  0  0  0  0  0  0  0  0  0
    0.2602   -3.1966  -15.4457 H   0  0  0  0  0  0  0  0  0  0  0  0
    2.5219   -0.6752  -14.8688 H   0  0  0  0  0  0  0  0  0  0  0  0
    3.8538   -0.8821  -13.7319 H   0  0  0  0  0  0  0  0  0  0  0  0
    2.1785   -1.1659  -13.2061 H   0  0  0  0  0  0  0  0  0  0  0  0
    7.1267   -4.4289   -1.3257 H   0  0  0  0  0  0  0  0  0  0  0  0
    9.1650   -4.9741   -0.0485 H   0  0  0  0  0  0  0  0  0  0  0  0
  1  2  1  0  0  0  0
  1 35  1  0  0  0  0
  1 36  1  0  0  0  0
  1 37  1  0  0  0  0
  2  3  1  0  0  0  0
  3  4  1  0  0  0  0
  3 34  2  0  0  0  0
  4  5  2  0  0  0  0
  4 38  1  0  0  0  0
  5  6  1  0  0  0  0
  5 39  1  0  0  0  0
  6  7  1  0  0  0  0
  6 33  2  0  0  0  0
  7  8  1  0  0  0  0
  7 40  1  0  0  0  0
  8  9  2  0  0  0  0
  8 10  1  0  0  0  0
 10 11  1  0  0  0  0
 10 41  1  0  0  0  0
 11 12  1  0  0  0  0
 11 16  2  0  0  0  0
 12 13  2  0  0  0  0
 12 42  1  0  0  0  0
 13 14  1  0  0  0  0
 13 43  1  0  0  0  0
 14 15  2  0  0  0  0
 14 20  1  0  0  0  0
 15 16  1  0  0  0  0
 15 17  1  0  0  0  0
 16 44  1  0  0  0  0
 17 18  1  0  0  0  0
 17 45  1  0  0  0  0
 18 19  2  0  0  0  0
 18 20  1  0  0  0  0
 20 21  2  0  0  0  0
 21 22  1  0  0  0  0
 21 46  1  0  0  0  0
 22 23  1  0  0  0  0
 22 31  2  0  0  0  0
 23 24  1  0  0  0  0
 23 47  1  0  0  0  0
 24 25  1  0  0  0  0
 24 26  2  0  0  0  0
 25 48  1  0  0  0  0
 25 49  1  0  0  0  0
 25 50  1  0  0  0  0
 26 27  1  0  0  0  0
 26 31  1  0  0  0  0
 27 28  1  0  0  0  0
 27 51  1  0  0  0  0
 27 52  1  0  0  0  0
 28 29  2  0  0  0  0
 28 30  1  0  0  0  0
 30 53  1  0  0  0  0
 31 32  1  0  0  0  0
 32 54  1  0  0  0  0
 32 55  1  0  0  0  0
 32 56  1  0  0  0  0
 33 34  1  0  0  0  0
 33 57  1  0  0  0  0
 34 58  1  0  0  0  0
M  END
$$$$
