CHEMBL1995172
 OpenBabel04072215363D

 20 22  0  0  0  0  0  0  0  0999 V2000
    1.0145    0.1108   -0.0335 Br  0  0  0  0  0  0  0  0  0  0  0  0
    2.9082    0.1339   -0.0327 C   0  0  0  0  0  0  0  0  0  0  0  0
    3.6084   -1.0894   -0.0318 C   0  0  0  0  0  0  0  0  0  0  0  0
    5.0080   -1.1160   -0.0305 C   0  0  0  0  0  0  0  0  0  0  0  0
    5.6810    0.0946   -0.0300 C   0  0  0  0  0  0  0  0  0  0  0  0
    4.9498    1.3163   -0.0315 C   0  0  0  0  0  0  0  0  0  0  0  0
    3.5745    1.3610   -0.0327 C   0  0  0  0  0  0  0  0  0  0  0  0
    5.9430    2.3304   -0.0311 C   0  0  0  0  0  0  0  0  0  0  0  0
    6.0651    3.6706   -0.0323 N   0  0  0  0  0  0  0  0  0  0  0  0
    7.3712    4.0487   -0.0313 N   0  0  0  0  0  0  0  0  0  0  0  0
    8.0552    2.8890   -0.0294 C   0  0  0  0  0  0  0  0  0  0  0  0
    7.1984    1.7895   -0.0292 C   0  0  0  0  0  0  0  0  0  0  0  0
    7.2109    0.3010   -0.0277 C   0  0  0  0  0  0  0  0  0  0  0  0
    3.0614   -2.0299   -0.0320 H   0  0  0  0  0  0  0  0  0  0  0  0
    5.5438   -2.0597   -0.0297 H   0  0  0  0  0  0  0  0  0  0  0  0
    3.0361    2.3006   -0.0335 H   0  0  0  0  0  0  0  0  0  0  0  0
    5.3482    4.3878   -0.0338 H   0  0  0  0  0  0  0  0  0  0  0  0
    9.1368    2.9190   -0.0285 H   0  0  0  0  0  0  0  0  0  0  0  0
    7.6580   -0.1078    0.8817 H   0  0  0  0  0  0  0  0  0  0  0  0
    7.6615   -0.1099   -0.9343 H   0  0  0  0  0  0  0  0  0  0  0  0
  1  2  1  0  0  0  0
  2  3  1  0  0  0  0
  2  7  2  0  0  0  0
  3  4  2  0  0  0  0
  3 14  1  0  0  0  0
  4  5  1  0  0  0  0
  4 15  1  0  0  0  0
  5  6  2  0  0  0  0
  5 13  1  0  0  0  0
  6  7  1  0  0  0  0
  6  8  1  0  0  0  0
  7 16  1  0  0  0  0
  8  9  1  0  0  0  0
  8 12  2  0  0  0  0
  9 10  1  0  0  0  0
  9 17  1  0  0  0  0
 10 11  2  0  0  0  0
 11 12  1  0  0  0  0
 11 18  1  0  0  0  0
 12 13  1  0  0  0  0
 13 19  1  0  0  0  0
 13 20  1  0  0  0  0
M  END
$$$$
