CHEMBL4471464
 OpenBabel04072215383D

 52 55  0  0  0  0  0  0  0  0999 V2000
    3.2158    0.8142   -1.3965 C   0  0  0  0  0  0  0  0  0  0  0  0
    3.4426    0.7974    0.0070 O   0  0  0  0  0  0  0  0  0  0  0  0
    4.0513   -0.3132    0.5222 C   0  0  0  0  0  0  0  0  0  0  0  0
    4.4185   -1.4542   -0.1909 C   0  0  0  0  0  0  0  0  0  0  0  0
    5.0617   -2.5193    0.4556 C   0  0  0  0  0  0  0  0  0  0  0  0
    5.3283   -2.4555    1.8301 C   0  0  0  0  0  0  0  0  0  0  0  0
    5.9910   -3.5189    2.5060 N   0  0  0  0  0  0  0  0  0  0  0  0
    6.4983   -4.6806    1.9660 C   0  0  0  0  0  0  0  0  0  0  0  0
    7.1171   -5.3761    2.9755 C   0  0  0  0  0  0  0  0  0  0  0  0
    7.8172   -6.5719    2.9018 N   0  0  0  0  0  0  0  0  0  0  0  0
    8.0159   -7.2928    1.7358 C   0  0  0  0  0  0  0  0  0  0  0  0
    7.6107   -6.9803    0.6204 O   0  0  0  0  0  0  0  0  0  0  0  0
    8.8006   -8.5584    1.8595 C   0  0  0  0  0  0  0  0  0  0  0  0
    8.8245   -9.3175    3.0390 C   0  0  0  0  0  0  0  0  0  0  0  0
    9.5191  -10.5318    3.0743 C   0  0  0  0  0  0  0  0  0  0  0  0
   10.1701  -11.0060    1.9348 C   0  0  0  0  0  0  0  0  0  0  0  0
   10.1415  -10.2582    0.7594 C   0  0  0  0  0  0  0  0  0  0  0  0
   10.7764  -10.7465   -0.4109 N   0  0  0  0  0  0  0  0  0  0  0  0
   12.3284  -10.2337   -0.8121 S   0  0  0  0  0  0  0  0  0  0  0  0
   12.6696  -10.8910   -2.0534 O   0  0  0  0  0  0  0  0  0  0  0  0
   12.4134   -8.7954   -0.6672 O   0  0  0  0  0  0  0  0  0  0  0  0
   13.3441  -10.9647    0.4598 C   0  0  0  0  0  0  0  0  0  0  0  0
   13.9181  -12.2286    0.2568 C   0  0  0  0  0  0  0  0  0  0  0  0
   14.7731  -12.7606    1.2258 C   0  0  0  0  0  0  0  0  0  0  0  0
   15.0579  -12.0273    2.3787 C   0  0  0  0  0  0  0  0  0  0  0  0
   16.1261  -12.6730    3.5615 Cl  0  0  0  0  0  0  0  0  0  0  0  0
   14.4945  -10.7651    2.5741 C   0  0  0  0  0  0  0  0  0  0  0  0
   13.6399  -10.2280    1.6101 C   0  0  0  0  0  0  0  0  0  0  0  0
    9.4734   -9.0354    0.7222 C   0  0  0  0  0  0  0  0  0  0  0  0
    6.8828   -4.5892    4.1184 C   0  0  0  0  0  0  0  0  0  0  0  0
    6.2101   -3.4698    3.8493 N   0  0  0  0  0  0  0  0  0  0  0  0
    4.9436   -1.3150    2.5471 C   0  0  0  0  0  0  0  0  0  0  0  0
    4.3129   -0.2532    1.8921 C   0  0  0  0  0  0  0  0  0  0  0  0
    2.8184    1.7994   -1.6588 H   0  0  0  0  0  0  0  0  0  0  0  0
    2.4692    0.0647   -1.6782 H   0  0  0  0  0  0  0  0  0  0  0  0
    4.1471    0.6751   -1.9558 H   0  0  0  0  0  0  0  0  0  0  0  0
    4.2225   -1.5501   -1.2541 H   0  0  0  0  0  0  0  0  0  0  0  0
    5.3368   -3.3805   -0.1465 H   0  0  0  0  0  0  0  0  0  0  0  0
    6.4086   -4.9007    0.9134 H   0  0  0  0  0  0  0  0  0  0  0  0
    8.2553   -6.8771    3.7594 H   0  0  0  0  0  0  0  0  0  0  0  0
    8.2781   -9.0105    3.9243 H   0  0  0  0  0  0  0  0  0  0  0  0
    9.5322  -11.1226    3.9889 H   0  0  0  0  0  0  0  0  0  0  0  0
   10.6866  -11.9608    1.9735 H   0  0  0  0  0  0  0  0  0  0  0  0
   10.5574  -11.6879   -0.7304 H   0  0  0  0  0  0  0  0  0  0  0  0
   13.7257  -12.7901   -0.6560 H   0  0  0  0  0  0  0  0  0  0  0  0
   15.2286  -13.7345    1.0699 H   0  0  0  0  0  0  0  0  0  0  0  0
   14.7309  -10.1888    3.4660 H   0  0  0  0  0  0  0  0  0  0  0  0
   13.2208   -9.2350    1.7541 H   0  0  0  0  0  0  0  0  0  0  0  0
    9.4469   -8.4592   -0.2025 H   0  0  0  0  0  0  0  0  0  0  0  0
    7.1751   -4.7776    5.1427 H   0  0  0  0  0  0  0  0  0  0  0  0
    5.1369   -1.2302    3.6147 H   0  0  0  0  0  0  0  0  0  0  0  0
    4.0287    0.6316    2.4567 H   0  0  0  0  0  0  0  0  0  0  0  0
  1  2  1  0  0  0  0
  1 34  1  0  0  0  0
  1 35  1  0  0  0  0
  1 36  1  0  0  0  0
  2  3  1  0  0  0  0
  3  4  1  0  0  0  0
  3 33  2  0  0  0  0
  4  5  2  0  0  0  0
  4 37  1  0  0  0  0
  5  6  1  0  0  0  0
  5 38  1  0  0  0  0
  6  7  1  0  0  0  0
  6 32  2  0  0  0  0
  7  8  1  0  0  0  0
  7 31  1  0  0  0  0
  8  9  2  0  0  0  0
  8 39  1  0  0  0  0
  9 10  1  0  0  0  0
  9 30  1  0  0  0  0
 10 11  1  0  0  0  0
 10 40  1  0  0  0  0
 11 12  2  0  0  0  0
 11 13  1  0  0  0  0
 13 14  1  0  0  0  0
 13 29  2  0  0  0  0
 14 15  2  0  0  0  0
 14 41  1  0  0  0  0
 15 16  1  0  0  0  0
 15 42  1  0  0  0  0
 16 17  2  0  0  0  0
 16 43  1  0  0  0  0
 17 18  1  0  0  0  0
 17 29  1  0  0  0  0
 18 19  1  0  0  0  0
 18 44  1  0  0  0  0
 19 20  2  0  0  0  0
 19 21  2  0  0  0  0
 19 22  1  0  0  0  0
 22 23  1  0  0  0  0
 22 28  2  0  0  0  0
 23 24  2  0  0  0  0
 23 45  1  0  0  0  0
 24 25  1  0  0  0  0
 24 46  1  0  0  0  0
 25 26  1  0  0  0  0
 25 27  2  0  0  0  0
 27 28  1  0  0  0  0
 27 47  1  0  0  0  0
 28 48  1  0  0  0  0
 29 49  1  0  0  0  0
 30 31  2  0  0  0  0
 30 50  1  0  0  0  0
 32 33  1  0  0  0  0
 32 51  1  0  0  0  0
 33 52  1  0  0  0  0
M  END
$$$$
