CHEMBL3914503
 OpenBabel04072215373D

 43 47  0  0  0  0  0  0  0  0999 V2000
    6.8142    3.3172    1.8361 C   0  0  0  0  0  0  0  0  0  0  0  0
    6.2617    2.2012    1.1542 O   0  0  0  0  0  0  0  0  0  0  0  0
    4.9851    2.2980    0.6535 C   0  0  0  0  0  0  0  0  0  0  0  0
    4.2591    3.5011    0.6474 C   0  0  0  0  0  0  0  0  0  0  0  0
    2.9919    3.5488    0.0753 C   0  0  0  0  0  0  0  0  0  0  0  0
    2.2626    4.7008    0.0475 O   0  0  0  0  0  0  0  0  0  0  0  0
    2.4268    2.4202   -0.4894 C   0  0  0  0  0  0  0  0  0  0  0  0
    3.1317    1.2166   -0.4678 C   0  0  0  0  0  0  0  0  0  0  0  0
    4.4238    1.1156    0.0978 C   0  0  0  0  0  0  0  0  0  0  0  0
    5.1185   -0.2079    0.0950 C   0  0  0  0  0  0  0  0  0  0  0  0
    4.9739   -1.0982   -0.9889 C   0  0  0  0  0  0  0  0  0  0  0  0
    5.5786   -2.3658   -1.0117 C   0  0  0  0  0  0  0  0  0  0  0  0
    6.3817   -2.7555    0.0705 C   0  0  0  0  0  0  0  0  0  0  0  0
    7.1394   -3.8976    0.4359 C   0  0  0  0  0  0  0  0  0  0  0  0
    7.2708   -5.1475   -0.3646 C   0  0  0  0  0  0  0  0  0  0  0  0
    6.7684   -5.3518   -1.5646 N   0  0  0  0  0  0  0  0  0  0  0  0
    7.1302   -6.6324   -1.8946 C   0  0  0  0  0  0  0  0  0  0  0  0
    6.8678   -7.3588   -3.0637 C   0  0  0  0  0  0  0  0  0  0  0  0
    7.3461   -8.6712   -3.1581 C   0  0  0  0  0  0  0  0  0  0  0  0
    8.0679   -9.2462   -2.1087 C   0  0  0  0  0  0  0  0  0  0  0  0
    8.3462   -8.5340   -0.9356 C   0  0  0  0  0  0  0  0  0  0  0  0
    7.8618   -7.2269   -0.8712 C   0  0  0  0  0  0  0  0  0  0  0  0
    7.9496   -6.2505    0.0854 N   0  0  0  0  0  0  0  0  0  0  0  0
    7.7420   -3.7533    1.6277 N   0  0  0  0  0  0  0  0  0  0  0  0
    7.3779   -2.5125    2.0066 N   0  0  0  0  0  0  0  0  0  0  0  0
    6.5392   -1.8778    1.1314 C   0  0  0  0  0  0  0  0  0  0  0  0
    5.9140   -0.6251    1.1838 C   0  0  0  0  0  0  0  0  0  0  0  0
    7.7765    3.0059    2.2544 H   0  0  0  0  0  0  0  0  0  0  0  0
    6.1799    3.6327    2.6712 H   0  0  0  0  0  0  0  0  0  0  0  0
    7.0022    4.1424    1.1427 H   0  0  0  0  0  0  0  0  0  0  0  0
    4.6735    4.4061    1.0735 H   0  0  0  0  0  0  0  0  0  0  0  0
    2.7694    5.4066    0.4803 H   0  0  0  0  0  0  0  0  0  0  0  0
    1.4398    2.4688   -0.9407 H   0  0  0  0  0  0  0  0  0  0  0  0
    2.6455    0.3421   -0.8961 H   0  0  0  0  0  0  0  0  0  0  0  0
    4.3761   -0.8195   -1.8552 H   0  0  0  0  0  0  0  0  0  0  0  0
    5.4254   -3.0336   -1.8558 H   0  0  0  0  0  0  0  0  0  0  0  0
    6.3051   -6.9034   -3.8705 H   0  0  0  0  0  0  0  0  0  0  0  0
    7.1491   -9.2459   -4.0594 H   0  0  0  0  0  0  0  0  0  0  0  0
    8.4225  -10.2701   -2.2061 H   0  0  0  0  0  0  0  0  0  0  0  0
    8.9064   -8.9813   -0.1223 H   0  0  0  0  0  0  0  0  0  0  0  0
    8.4120   -6.3023    0.9816 H   0  0  0  0  0  0  0  0  0  0  0  0
    7.7352   -2.1502    2.8832 H   0  0  0  0  0  0  0  0  0  0  0  0
    6.0451    0.0062    2.0566 H   0  0  0  0  0  0  0  0  0  0  0  0
  1  2  1  0  0  0  0
  1 28  1  0  0  0  0
  1 29  1  0  0  0  0
  1 30  1  0  0  0  0
  2  3  1  0  0  0  0
  3  4  1  0  0  0  0
  3  9  2  0  0  0  0
  4  5  2  0  0  0  0
  4 31  1  0  0  0  0
  5  6  1  0  0  0  0
  5  7  1  0  0  0  0
  6 32  1  0  0  0  0
  7  8  2  0  0  0  0
  7 33  1  0  0  0  0
  8  9  1  0  0  0  0
  8 34  1  0  0  0  0
  9 10  1  0  0  0  0
 10 11  1  0  0  0  0
 10 27  2  0  0  0  0
 11 12  2  0  0  0  0
 11 35  1  0  0  0  0
 12 13  1  0  0  0  0
 12 36  1  0  0  0  0
 13 14  1  0  0  0  0
 13 26  2  0  0  0  0
 14 15  1  0  0  0  0
 14 24  2  0  0  0  0
 15 16  2  0  0  0  0
 15 23  1  0  0  0  0
 16 17  1  0  0  0  0
 17 18  1  0  0  0  0
 17 22  2  0  0  0  0
 18 19  2  0  0  0  0
 18 37  1  0  0  0  0
 19 20  1  0  0  0  0
 19 38  1  0  0  0  0
 20 21  2  0  0  0  0
 20 39  1  0  0  0  0
 21 22  1  0  0  0  0
 21 40  1  0  0  0  0
 22 23  1  0  0  0  0
 23 41  1  0  0  0  0
 24 25  1  0  0  0  0
 25 26  1  0  0  0  0
 25 42  1  0  0  0  0
 26 27  1  0  0  0  0
 27 43  1  0  0  0  0
M  END
$$$$
