CHEMBL242865
 OpenBabel04072215363D

 39 41  0  0  0  0  0  0  0  0999 V2000
    6.5843    0.4821   -3.9835 O   0  0  0  0  0  0  0  0  0  0  0  0
    5.9911   -0.3607   -3.3306 C   0  0  0  0  0  0  0  0  0  0  0  0
    4.7381   -0.7660   -3.6272 O   0  0  0  0  0  0  0  0  0  0  0  0
    6.6007   -1.0486   -2.1586 C   0  0  0  0  0  0  0  0  0  0  0  0
    8.0044   -1.1616   -2.1862 C   0  0  0  0  0  0  0  0  0  0  0  0
    8.6927   -1.7669   -1.1387 C   0  0  0  0  0  0  0  0  0  0  0  0
    7.9868   -2.2417   -0.0446 C   0  0  0  0  0  0  0  0  0  0  0  0
    6.5934   -2.1473   -0.0200 C   0  0  0  0  0  0  0  0  0  0  0  0
    5.8593   -1.5698   -1.0704 C   0  0  0  0  0  0  0  0  0  0  0  0
    4.4308   -1.5498   -1.0796 N   0  0  0  0  0  0  0  0  0  0  0  0
    3.5309   -2.2601   -0.2349 C   0  0  0  0  0  0  0  0  0  0  0  0
    2.2441   -2.4808   -0.6852 C   0  0  0  0  0  0  0  0  0  0  0  0
    1.4354   -3.2334    0.1326 C   0  0  0  0  0  0  0  0  0  0  0  0
    1.8382   -3.7306    1.3104 N   0  0  0  0  0  0  0  0  0  0  0  0
    3.0855   -3.4399    1.6988 C   0  0  0  0  0  0  0  0  0  0  0  0
    3.5615   -3.8518    2.9357 N   0  0  0  0  0  0  0  0  0  0  0  0
    3.1848   -4.9621    3.6963 C   0  0  0  0  0  0  0  0  0  0  0  0
    2.6607   -6.1204    3.1066 C   0  0  0  0  0  0  0  0  0  0  0  0
    2.2004   -7.1818    3.8860 C   0  0  0  0  0  0  0  0  0  0  0  0
    2.2476   -7.0768    5.2787 C   0  0  0  0  0  0  0  0  0  0  0  0
    1.7098   -8.1629    6.1035 N   0  3  0  0  0  0  0  0  0  0  0  0
    1.2469   -9.1550    5.5222 O   0  0  0  0  0  0  0  0  0  0  0  0
    1.7465   -8.0239    7.3348 O   0  5  0  0  0  0  0  0  0  0  0  0
    2.7847   -5.9367    5.8891 C   0  0  0  0  0  0  0  0  0  0  0  0
    3.2633   -4.8915    5.0933 C   0  0  0  0  0  0  0  0  0  0  0  0
    3.9271   -2.7076    0.9629 N   0  0  0  0  0  0  0  0  0  0  0  0
    4.4465   -1.5122   -3.0635 H   0  0  0  0  0  0  0  0  0  0  0  0
    8.5668   -0.7836   -3.0388 H   0  0  0  0  0  0  0  0  0  0  0  0
    9.7747   -1.8600   -1.1711 H   0  0  0  0  0  0  0  0  0  0  0  0
    8.5072   -2.6931    0.7941 H   0  0  0  0  0  0  0  0  0  0  0  0
    6.1115   -2.5302    0.8704 H   0  0  0  0  0  0  0  0  0  0  0  0
    4.1037   -0.5796   -1.1208 H   0  0  0  0  0  0  0  0  0  0  0  0
    1.8885   -2.1304   -1.6440 H   0  0  0  0  0  0  0  0  0  0  0  0
    0.4119   -3.4740   -0.1411 H   0  0  0  0  0  0  0  0  0  0  0  0
    4.4587   -3.4453    3.1374 H   0  0  0  0  0  0  0  0  0  0  0  0
    2.6101   -6.2068    2.0228 H   0  0  0  0  0  0  0  0  0  0  0  0
    1.7958   -8.0616    3.3912 H   0  0  0  0  0  0  0  0  0  0  0  0
    2.8162   -5.8346    6.9716 H   0  0  0  0  0  0  0  0  0  0  0  0
    3.6499   -3.9941    5.5725 H   0  0  0  0  0  0  0  0  0  0  0  0
  1  2  2  0  0  0  0
  2  3  1  0  0  0  0
  2  4  1  0  0  0  0
  3 27  1  0  0  0  0
  4  5  1  0  0  0  0
  4  9  2  0  0  0  0
  5  6  2  0  0  0  0
  5 28  1  0  0  0  0
  6  7  1  0  0  0  0
  6 29  1  0  0  0  0
  7  8  2  0  0  0  0
  7 30  1  0  0  0  0
  8  9  1  0  0  0  0
  8 31  1  0  0  0  0
  9 10  1  0  0  0  0
 10 11  1  0  0  0  0
 10 32  1  0  0  0  0
 11 12  1  0  0  0  0
 11 26  2  0  0  0  0
 12 13  2  0  0  0  0
 12 33  1  0  0  0  0
 13 14  1  0  0  0  0
 13 34  1  0  0  0  0
 14 15  2  0  0  0  0
 15 16  1  0  0  0  0
 15 26  1  0  0  0  0
 16 17  1  0  0  0  0
 16 35  1  0  0  0  0
 17 18  1  0  0  0  0
 17 25  2  0  0  0  0
 18 19  2  0  0  0  0
 18 36  1  0  0  0  0
 19 20  1  0  0  0  0
 19 37  1  0  0  0  0
 20 21  1  0  0  0  0
 20 24  2  0  0  0  0
 21 22  2  0  0  0  0
 21 23  1  0  0  0  0
 24 25  1  0  0  0  0
 24 38  1  0  0  0  0
 25 39  1  0  0  0  0
M  CHG  2  21   1  23  -1
M  END
$$$$
