CHEMBL2000393
 OpenBabel04072215363D

 45 50  0  0  1  0  0  0  0  0999 V2000
    1.3242    0.1104    0.7709 O   0  0  0  0  0  0  0  0  0  0  0  0
    2.4975    0.1253    0.4447 C   0  0  0  0  0  0  0  0  0  0  0  0
    3.2183    1.2802    0.0868 N   0  0  0  0  0  0  0  0  0  0  0  0
    4.5478    0.9205   -0.0728 C   0  0  0  0  0  0  0  0  0  0  0  0
    5.6996    1.6297   -0.1810 C   0  0  0  0  0  0  0  0  0  0  0  0
    6.9022    1.0013   -0.1861 N   0  0  0  0  0  0  0  0  0  0  0  0
    6.9120   -0.3587   -0.0991 C   0  0  0  0  0  0  0  0  0  0  0  0
    8.1575   -1.0490   -0.0546 N   0  0  0  0  0  0  0  0  0  0  0  0
    8.2925   -2.4126   -0.1312 C   0  0  0  0  0  0  0  0  0  0  0  0
    9.5392   -2.8041   -0.0199 N   0  0  0  0  0  0  0  0  0  0  0  0
   10.2517   -1.6509    0.1619 C   0  0  0  0  0  0  0  0  0  0  0  0
   11.6284   -1.4946    0.3848 C   0  0  0  0  0  0  0  0  0  0  0  0
   12.1377   -0.2074    0.5850 C   0  0  0  0  0  0  0  0  0  0  0  0
   11.2918    0.8956    0.5488 C   0  0  0  0  0  0  0  0  0  0  0  0
   11.8035    2.1153    0.7593 F   0  0  0  0  0  0  0  0  0  0  0  0
    9.9215    0.7721    0.3154 C   0  0  0  0  0  0  0  0  0  0  0  0
    9.4224   -0.5275    0.1279 C   0  0  0  0  0  0  0  0  0  0  0  0
    5.8121   -1.1256    0.0273 N   0  0  0  0  0  0  0  0  0  0  0  0
    4.6703   -0.4407    0.0615 C   0  0  0  0  0  0  0  0  0  0  0  0
    3.4167   -0.9483    0.4258 N   0  0  0  0  0  0  0  0  0  0  0  0
    3.3258   -2.1193    1.2957 C   0  0  3  0  0  0  0  0  0  0  0  0
    2.1072   -2.9868    0.9827 C   0  0  0  0  0  0  0  0  0  0  0  0
    1.1822   -3.2357    2.1603 C   0  0  0  0  0  0  0  0  0  0  0  0
    1.0939   -2.1825    3.1099 O   0  0  0  0  0  0  0  0  0  0  0  0
    2.3057   -1.7566    3.5709 C   0  0  0  0  0  0  0  0  0  0  0  0
    2.3752   -1.2837    4.8833 C   0  0  0  0  0  0  0  0  0  0  0  0
    1.3053   -1.3648    5.6872 F   0  0  0  0  0  0  0  0  0  0  0  0
    3.5453   -0.7243    5.3882 C   0  0  0  0  0  0  0  0  0  0  0  0
    4.6667   -0.6354    4.5728 C   0  0  0  0  0  0  0  0  0  0  0  0
    4.6138   -1.1374    3.2704 C   0  0  0  0  0  0  0  0  0  0  0  0
    3.4283   -1.6986    2.7473 C   0  0  0  0  0  0  0  0  0  0  0  0
    2.8235    2.2062    0.1443 H   0  0  0  0  0  0  0  0  0  0  0  0
    5.7240    2.7130   -0.2048 H   0  0  0  0  0  0  0  0  0  0  0  0
    7.4432   -3.0714   -0.2771 H   0  0  0  0  0  0  0  0  0  0  0  0
   12.2733   -2.3662    0.4168 H   0  0  0  0  0  0  0  0  0  0  0  0
   13.1963   -0.0629    0.7772 H   0  0  0  0  0  0  0  0  0  0  0  0
    9.2887    1.6504    0.3072 H   0  0  0  0  0  0  0  0  0  0  0  0
    4.1983   -2.7539    1.0872 H   0  0  0  0  0  0  0  0  0  0  0  0
    2.4531   -3.9684    0.6265 H   0  0  0  0  0  0  0  0  0  0  0  0
    1.5398   -2.5790    0.1384 H   0  0  0  0  0  0  0  0  0  0  0  0
    1.4571   -4.1570    2.6875 H   0  0  0  0  0  0  0  0  0  0  0  0
    0.1666   -3.3998    1.7758 H   0  0  0  0  0  0  0  0  0  0  0  0
    3.5660   -0.3524    6.4071 H   0  0  0  0  0  0  0  0  0  0  0  0
    5.5758   -0.1671    4.9420 H   0  0  0  0  0  0  0  0  0  0  0  0
    5.5047   -1.0498    2.6552 H   0  0  0  0  0  0  0  0  0  0  0  0
  1  2  2  0  0  0  0
  2  3  1  0  0  0  0
  2 20  1  0  0  0  0
  3  4  1  0  0  0  0
  3 32  1  0  0  0  0
  4  5  1  0  0  0  0
  4 19  2  0  0  0  0
  5  6  2  0  0  0  0
  5 33  1  0  0  0  0
  6  7  1  0  0  0  0
  7  8  1  0  0  0  0
  7 18  2  0  0  0  0
  8  9  1  0  0  0  0
  8 17  1  0  0  0  0
  9 10  2  0  0  0  0
  9 34  1  0  0  0  0
 10 11  1  0  0  0  0
 11 12  1  0  0  0  0
 11 17  2  0  0  0  0
 12 13  2  0  0  0  0
 12 35  1  0  0  0  0
 13 14  1  0  0  0  0
 13 36  1  0  0  0  0
 14 15  1  0  0  0  0
 14 16  2  0  0  0  0
 16 17  1  0  0  0  0
 16 37  1  0  0  0  0
 18 19  1  0  0  0  0
 19 20  1  0  0  0  0
 20 21  1  0  0  0  0
 21 22  1  0  0  0  0
 21 31  1  0  0  0  0
 21 38  1  0  0  0  0
 22 23  1  0  0  0  0
 22 39  1  0  0  0  0
 22 40  1  0  0  0  0
 23 24  1  0  0  0  0
 23 41  1  0  0  0  0
 23 42  1  0  0  0  0
 24 25  1  0  0  0  0
 25 26  1  0  0  0  0
 25 31  2  0  0  0  0
 26 27  1  0  0  0  0
 26 28  2  0  0  0  0
 28 29  1  0  0  0  0
 28 43  1  0  0  0  0
 29 30  2  0  0  0  0
 29 44  1  0  0  0  0
 30 31  1  0  0  0  0
 30 45  1  0  0  0  0
M  END
$$$$
