CHEMBL3288510
 OpenBabel04072215363D

 50 54  0  0  0  0  0  0  0  0999 V2000
    0.3596    2.8116    2.6904 C   0  0  0  0  0  0  0  0  0  0  0  0
   -0.7023    1.8215    2.3327 C   0  0  0  0  0  0  0  0  0  0  0  0
   -1.1873    1.7279    1.0286 C   0  0  0  0  0  0  0  0  0  0  0  0
   -2.1875    0.8040    0.7043 C   0  0  0  0  0  0  0  0  0  0  0  0
   -2.7290   -0.0432    1.6752 C   0  0  0  0  0  0  0  0  0  0  0  0
   -3.7685   -0.9664    1.4169 N   0  0  0  0  0  0  0  0  0  0  0  0
   -4.3074   -1.2730    0.1768 C   0  0  0  0  0  0  0  0  0  0  0  0
   -3.8965   -0.8763   -0.9072 O   0  0  0  0  0  0  0  0  0  0  0  0
   -5.4875   -2.1888    0.1976 C   0  0  0  0  0  0  0  0  0  0  0  0
   -5.4348   -3.3361    1.0040 C   0  0  0  0  0  0  0  0  0  0  0  0
   -6.5002   -4.2303    1.0114 C   0  0  0  0  0  0  0  0  0  0  0  0
   -7.5990   -4.0093    0.1814 C   0  0  0  0  0  0  0  0  0  0  0  0
   -7.6703   -2.8777   -0.6489 C   0  0  0  0  0  0  0  0  0  0  0  0
   -8.7779   -2.6825   -1.5050 C   0  0  0  0  0  0  0  0  0  0  0  0
   -8.9343   -1.5284   -2.2980 C   0  0  0  0  0  0  0  0  0  0  0  0
  -10.1017   -1.3418   -3.1906 C   0  0  0  0  0  0  0  0  0  0  0  0
  -11.3887   -1.7877   -2.7878 C   0  0  0  0  0  0  0  0  0  0  0  0
  -12.5275   -1.6158   -3.5728 C   0  0  0  0  0  0  0  0  0  0  0  0
  -12.4477   -0.9735   -4.8013 C   0  0  0  0  0  0  0  0  0  0  0  0
  -11.1883   -0.5270   -5.2074 C   0  0  0  0  0  0  0  0  0  0  0  0
  -10.8245    0.1432   -6.3426 N   0  0  0  0  0  0  0  0  0  0  0  0
   -9.5217    0.4116   -6.4328 N   0  0  0  0  0  0  0  0  0  0  0  0
   -9.0132   -0.1067   -5.3195 C   0  0  0  0  0  0  0  0  0  0  0  0
   -7.6919   -0.0372   -5.0976 N   0  0  0  0  0  0  0  0  0  0  0  0
  -10.0124   -0.6962   -4.4667 C   0  0  0  0  0  0  0  0  0  0  0  0
   -7.9517   -0.5484   -2.1579 C   0  0  0  0  0  0  0  0  0  0  0  0
   -6.8005   -0.7622   -1.3941 C   0  0  0  0  0  0  0  0  0  0  0  0
   -6.6234   -1.9288   -0.6225 C   0  0  0  0  0  0  0  0  0  0  0  0
   -2.2435    0.0493    2.9822 C   0  0  0  0  0  0  0  0  0  0  0  0
   -1.2414    0.9672    3.2967 C   0  0  0  0  0  0  0  0  0  0  0  0
   -0.7917    1.0244    4.5591 F   0  0  0  0  0  0  0  0  0  0  0  0
    0.6604    3.4031    1.8187 H   0  0  0  0  0  0  0  0  0  0  0  0
    1.2482    2.2970    3.0685 H   0  0  0  0  0  0  0  0  0  0  0  0
   -0.0122    3.5052    3.4508 H   0  0  0  0  0  0  0  0  0  0  0  0
   -0.8033    2.3782    0.2461 H   0  0  0  0  0  0  0  0  0  0  0  0
   -2.5362    0.7936   -0.3235 H   0  0  0  0  0  0  0  0  0  0  0  0
   -4.1656   -1.4242    2.2270 H   0  0  0  0  0  0  0  0  0  0  0  0
   -4.5600   -3.5569    1.6097 H   0  0  0  0  0  0  0  0  0  0  0  0
   -6.4691   -5.1123    1.6467 H   0  0  0  0  0  0  0  0  0  0  0  0
   -8.4135   -4.7322    0.1933 H   0  0  0  0  0  0  0  0  0  0  0  0
   -9.5387   -3.4613   -1.5478 H   0  0  0  0  0  0  0  0  0  0  0  0
  -11.5159   -2.2715   -1.8204 H   0  0  0  0  0  0  0  0  0  0  0  0
  -13.4890   -1.9776   -3.2157 H   0  0  0  0  0  0  0  0  0  0  0  0
  -13.3316   -0.8250   -5.4136 H   0  0  0  0  0  0  0  0  0  0  0  0
  -11.4276    0.4445   -7.0988 H   0  0  0  0  0  0  0  0  0  0  0  0
   -7.1269    0.3212   -5.8589 H   0  0  0  0  0  0  0  0  0  0  0  0
   -7.2226   -0.7438   -4.5438 H   0  0  0  0  0  0  0  0  0  0  0  0
   -8.0501    0.4092   -2.6661 H   0  0  0  0  0  0  0  0  0  0  0  0
   -6.0451    0.0214   -1.4096 H   0  0  0  0  0  0  0  0  0  0  0  0
   -2.6236   -0.5866    3.7765 H   0  0  0  0  0  0  0  0  0  0  0  0
  1  2  1  0  0  0  0
  1 32  1  0  0  0  0
  1 33  1  0  0  0  0
  1 34  1  0  0  0  0
  2  3  1  0  0  0  0
  2 30  2  0  0  0  0
  3  4  2  0  0  0  0
  3 35  1  0  0  0  0
  4  5  1  0  0  0  0
  4 36  1  0  0  0  0
  5  6  1  0  0  0  0
  5 29  2  0  0  0  0
  6  7  1  0  0  0  0
  6 37  1  0  0  0  0
  7  8  2  0  0  0  0
  7  9  1  0  0  0  0
  9 10  1  0  0  0  0
  9 28  2  0  0  0  0
 10 11  2  0  0  0  0
 10 38  1  0  0  0  0
 11 12  1  0  0  0  0
 11 39  1  0  0  0  0
 12 13  2  0  0  0  0
 12 40  1  0  0  0  0
 13 14  1  0  0  0  0
 13 28  1  0  0  0  0
 14 15  2  0  0  0  0
 14 41  1  0  0  0  0
 15 16  1  0  0  0  0
 15 26  1  0  0  0  0
 16 17  1  0  0  0  0
 16 25  2  0  0  0  0
 17 18  2  0  0  0  0
 17 42  1  0  0  0  0
 18 19  1  0  0  0  0
 18 43  1  0  0  0  0
 19 20  2  0  0  0  0
 19 44  1  0  0  0  0
 20 21  1  0  0  0  0
 20 25  1  0  0  0  0
 21 22  1  0  0  0  0
 21 45  1  0  0  0  0
 22 23  2  0  0  0  0
 23 24  1  0  0  0  0
 23 25  1  0  0  0  0
 24 46  1  0  0  0  0
 24 47  1  0  0  0  0
 26 27  2  0  0  0  0
 26 48  1  0  0  0  0
 27 28  1  0  0  0  0
 27 49  1  0  0  0  0
 29 30  1  0  0  0  0
 29 50  1  0  0  0  0
 30 31  1  0  0  0  0
M  END
$$$$
