CHEMBL1681935
 OpenBabel04072215363D

 43 45  0  0  0  0  0  0  0  0999 V2000
   10.2800   -2.1838    6.5884 C   0  0  0  0  0  0  0  0  0  0  0  0
    9.4915   -1.2444    5.8636 O   0  0  0  0  0  0  0  0  0  0  0  0
    8.4099   -1.9305    5.2955 N   0  0  0  0  0  0  0  0  0  0  0  0
    7.6465   -1.0944    4.6605 C   0  0  0  0  0  0  0  0  0  0  0  0
    6.4151   -1.5410    3.9901 C   0  0  0  0  0  0  0  0  0  0  0  0
    5.7416   -2.6977    4.3689 C   0  0  0  0  0  0  0  0  0  0  0  0
    6.1196   -3.4725    5.4621 N   0  0  0  0  0  0  0  0  0  0  0  0
    4.6003   -3.0974    3.7828 N   0  0  0  0  0  0  0  0  0  0  0  0
    4.1423   -2.3415    2.7806 C   0  0  0  0  0  0  0  0  0  0  0  0
    4.7295   -1.2409    2.3062 N   0  0  0  0  0  0  0  0  0  0  0  0
    5.8543   -0.8350    2.9404 C   0  0  0  0  0  0  0  0  0  0  0  0
    6.4857    0.3198    2.4691 O   0  0  0  0  0  0  0  0  0  0  0  0
    5.7068    1.2092    1.7554 C   0  0  0  0  0  0  0  0  0  0  0  0
    4.4593    1.6220    2.2159 C   0  0  0  0  0  0  0  0  0  0  0  0
    3.6652    2.4702    1.4440 C   0  0  0  0  0  0  0  0  0  0  0  0
    4.1011    2.9509    0.2052 C   0  0  0  0  0  0  0  0  0  0  0  0
    3.2580    3.7616   -0.6089 N   0  0  0  0  0  0  0  0  0  0  0  0
    1.8821    3.7774   -0.5084 C   0  0  0  0  0  0  0  0  0  0  0  0
    1.2184    3.0296    0.2090 O   0  0  0  0  0  0  0  0  0  0  0  0
    1.2640    4.7333   -1.2883 N   0  0  0  0  0  0  0  0  0  0  0  0
   -0.1515    4.9301   -1.1474 C   0  0  0  0  0  0  0  0  0  0  0  0
   -1.0796    4.1608   -2.0481 C   0  0  0  0  0  0  0  0  0  0  0  0
   -1.0100    5.6566   -2.1370 C   0  0  0  0  0  0  0  0  0  0  0  0
    5.4025    2.6143   -0.2030 C   0  0  0  0  0  0  0  0  0  0  0  0
    6.0499    3.2274   -1.6893 Cl  0  0  0  0  0  0  0  0  0  0  0  0
    6.2056    1.7452    0.5618 C   0  0  0  0  0  0  0  0  0  0  0  0
   11.1720   -1.6755    6.9635 H   0  0  0  0  0  0  0  0  0  0  0  0
   10.5918   -3.0039    5.9335 H   0  0  0  0  0  0  0  0  0  0  0  0
    9.7147   -2.5792    7.4387 H   0  0  0  0  0  0  0  0  0  0  0  0
    7.9027   -0.0215    4.6031 H   0  0  0  0  0  0  0  0  0  0  0  0
    7.1315   -3.5996    5.5075 H   0  0  0  0  0  0  0  0  0  0  0  0
    5.5837   -4.3336    5.4766 H   0  0  0  0  0  0  0  0  0  0  0  0
    3.2065   -2.6407    2.3216 H   0  0  0  0  0  0  0  0  0  0  0  0
    4.0614    1.2530    3.1575 H   0  0  0  0  0  0  0  0  0  0  0  0
    2.6911    2.7310    1.8469 H   0  0  0  0  0  0  0  0  0  0  0  0
    3.6665    4.1203   -1.4633 H   0  0  0  0  0  0  0  0  0  0  0  0
    1.8140    5.4128   -1.7912 H   0  0  0  0  0  0  0  0  0  0  0  0
   -0.4550    5.0230   -0.1034 H   0  0  0  0  0  0  0  0  0  0  0  0
   -1.9399    3.6943   -1.5812 H   0  0  0  0  0  0  0  0  0  0  0  0
   -0.6455    3.5790   -2.8533 H   0  0  0  0  0  0  0  0  0  0  0  0
   -1.8625    6.2096   -1.7548 H   0  0  0  0  0  0  0  0  0  0  0  0
   -0.5518    6.0940   -3.0125 H   0  0  0  0  0  0  0  0  0  0  0  0
    7.1964    1.4686    0.2192 H   0  0  0  0  0  0  0  0  0  0  0  0
  1  2  1  0  0  0  0
  1 27  1  0  0  0  0
  1 28  1  0  0  0  0
  1 29  1  0  0  0  0
  2  3  1  0  0  0  0
  3  4  2  0  0  0  0
  4  5  1  0  0  0  0
  4 30  1  0  0  0  0
  5  6  1  0  0  0  0
  5 11  2  0  0  0  0
  6  7  1  0  0  0  0
  6  8  2  0  0  0  0
  7 31  1  0  0  0  0
  7 32  1  0  0  0  0
  8  9  1  0  0  0  0
  9 10  2  0  0  0  0
  9 33  1  0  0  0  0
 10 11  1  0  0  0  0
 11 12  1  0  0  0  0
 12 13  1  0  0  0  0
 13 14  1  0  0  0  0
 13 26  2  0  0  0  0
 14 15  2  0  0  0  0
 14 34  1  0  0  0  0
 15 16  1  0  0  0  0
 15 35  1  0  0  0  0
 16 17  1  0  0  0  0
 16 24  2  0  0  0  0
 17 18  1  0  0  0  0
 17 36  1  0  0  0  0
 18 19  2  0  0  0  0
 18 20  1  0  0  0  0
 20 21  1  0  0  0  0
 20 37  1  0  0  0  0
 21 22  1  0  0  0  0
 21 23  1  0  0  0  0
 21 38  1  0  0  0  0
 22 23  1  0  0  0  0
 22 39  1  0  0  0  0
 22 40  1  0  0  0  0
 23 41  1  0  0  0  0
 23 42  1  0  0  0  0
 24 25  1  0  0  0  0
 24 26  1  0  0  0  0
 26 43  1  0  0  0  0
M  END
$$$$
