CHEMBL1235529
 OpenBabel04072215363D

 36 38  0  0  0  0  0  0  0  0999 V2000
    6.5823    1.7346   -0.6771 O   0  0  0  0  0  0  0  0  0  0  0  0
    5.9196    2.9766   -0.3564 S   0  0  0  0  0  0  0  0  0  0  0  0
    5.4880    3.9233   -1.3593 O   0  0  0  0  0  0  0  0  0  0  0  0
    6.9245    3.8000    0.7771 N   0  0  0  0  0  0  0  0  0  0  0  0
    7.8756    4.8318    0.2769 C   0  0  0  0  0  0  0  0  0  0  0  0
    7.7589    6.1790    1.0407 C   0  0  0  0  0  0  0  0  0  0  0  0
    6.3060    6.4701    1.3481 C   0  0  0  0  0  0  0  0  0  0  0  0
    5.9570    7.8062    1.8817 N   0  0  0  0  0  0  0  0  0  0  0  0
    4.5506    7.7795    2.1668 C   0  0  0  0  0  0  0  0  0  0  0  0
    3.9115    6.6333    1.8785 N   0  0  0  0  0  0  0  0  0  0  0  0
    2.6114    6.4665    2.0486 C   0  0  0  0  0  0  0  0  0  0  0  0
    1.8312    7.4664    2.4536 N   0  0  0  0  0  0  0  0  0  0  0  0
    2.4665    8.6080    2.8016 C   0  0  0  0  0  0  0  0  0  0  0  0
    3.8325    8.8206    2.6924 C   0  0  0  0  0  0  0  0  0  0  0  0
    4.5942   10.4399    3.2803 Br  0  0  0  0  0  0  0  0  0  0  0  0
    2.0849    5.1738    1.8215 N   0  0  0  0  0  0  0  0  0  0  0  0
    2.9402    4.0390    1.8146 C   0  0  0  0  0  0  0  0  0  0  0  0
    3.5273    3.6272    3.0279 C   0  0  0  0  0  0  0  0  0  0  0  0
    4.4083    2.5444    3.0890 C   0  0  0  0  0  0  0  0  0  0  0  0
    4.8631    1.9745    1.9125 C   0  0  0  0  0  0  0  0  0  0  0  0
    4.5120    2.6019    0.7139 C   0  0  0  0  0  0  0  0  0  0  0  0
    3.4200    3.4794    0.6304 C   0  0  0  0  0  0  0  0  0  0  0  0
    7.3930    3.0982    1.3520 H   0  0  0  0  0  0  0  0  0  0  0  0
    8.8894    4.4390    0.4099 H   0  0  0  0  0  0  0  0  0  0  0  0
    7.7278    5.0059   -0.7912 H   0  0  0  0  0  0  0  0  0  0  0  0
    8.2040    6.9771    0.4348 H   0  0  0  0  0  0  0  0  0  0  0  0
    8.3306    6.1400    1.9757 H   0  0  0  0  0  0  0  0  0  0  0  0
    6.0083    5.7189    2.0910 H   0  0  0  0  0  0  0  0  0  0  0  0
    5.7532    6.3266    0.4101 H   0  0  0  0  0  0  0  0  0  0  0  0
    6.4503    8.0565    2.7363 H   0  0  0  0  0  0  0  0  0  0  0  0
    1.8019    9.3779    3.1826 H   0  0  0  0  0  0  0  0  0  0  0  0
    1.5061    5.2462    0.9935 H   0  0  0  0  0  0  0  0  0  0  0  0
    3.3188    4.1890    3.9359 H   0  0  0  0  0  0  0  0  0  0  0  0
    4.8187    2.2271    4.0431 H   0  0  0  0  0  0  0  0  0  0  0  0
    5.6292    1.2031    1.9344 H   0  0  0  0  0  0  0  0  0  0  0  0
    3.1034    3.8628   -0.3354 H   0  0  0  0  0  0  0  0  0  0  0  0
  1  2  2  0  0  0  0
  2  3  2  0  0  0  0
  2  4  1  0  0  0  0
  2 21  1  0  0  0  0
  4  5  1  0  0  0  0
  4 23  1  0  0  0  0
  5  6  1  0  0  0  0
  5 24  1  0  0  0  0
  5 25  1  0  0  0  0
  6  7  1  0  0  0  0
  6 26  1  0  0  0  0
  6 27  1  0  0  0  0
  7  8  1  0  0  0  0
  7 28  1  0  0  0  0
  7 29  1  0  0  0  0
  8  9  1  0  0  0  0
  8 30  1  0  0  0  0
  9 10  1  0  0  0  0
  9 14  2  0  0  0  0
 10 11  2  0  0  0  0
 11 12  1  0  0  0  0
 11 16  1  0  0  0  0
 12 13  2  0  0  0  0
 13 14  1  0  0  0  0
 13 31  1  0  0  0  0
 14 15  1  0  0  0  0
 16 17  1  0  0  0  0
 16 32  1  0  0  0  0
 17 18  1  0  0  0  0
 17 22  2  0  0  0  0
 18 19  2  0  0  0  0
 18 33  1  0  0  0  0
 19 20  1  0  0  0  0
 19 34  1  0  0  0  0
 20 21  2  0  0  0  0
 20 35  1  0  0  0  0
 21 22  1  0  0  0  0
 22 36  1  0  0  0  0
M  END
$$$$
