CHEMBL246355
 OpenBabel04072215363D

 59 63  0  0  0  0  0  0  0  0999 V2000
   13.2754    0.2019    7.1304 C   0  0  0  0  0  0  0  0  0  0  0  0
   12.1048   -0.6336    7.2568 N   0  0  0  0  0  0  0  0  0  0  0  0
   11.4600   -0.9772    6.0779 C   0  0  0  0  0  0  0  0  0  0  0  0
   12.1214   -1.0211    4.9295 N   0  0  0  0  0  0  0  0  0  0  0  0
   11.3986   -1.4057    3.8792 C   0  0  0  0  0  0  0  0  0  0  0  0
   10.1124   -1.7406    3.8818 N   0  0  0  0  0  0  0  0  0  0  0  0
    9.5403   -1.6705    5.0780 C   0  0  0  0  0  0  0  0  0  0  0  0
    8.1523   -2.1178    5.2591 C   0  0  0  0  0  0  0  0  0  0  0  0
    7.7654   -2.6268    6.5236 C   0  0  0  0  0  0  0  0  0  0  0  0
    6.4705   -3.0654    6.7778 C   0  0  0  0  0  0  0  0  0  0  0  0
    5.5457   -2.9320    5.7708 C   0  0  0  0  0  0  0  0  0  0  0  0
    5.8448   -2.4306    4.5591 N   0  0  0  0  0  0  0  0  0  0  0  0
    7.1470   -2.1073    4.2872 C   0  0  0  0  0  0  0  0  0  0  0  0
    7.4449   -1.8069    2.9517 O   0  0  0  0  0  0  0  0  0  0  0  0
    6.6700   -2.4619    1.9971 C   0  0  0  0  0  0  0  0  0  0  0  0
    6.3284   -3.8167    2.1579 C   0  0  0  0  0  0  0  0  0  0  0  0
    5.4109   -4.4485    1.3191 C   0  0  0  0  0  0  0  0  0  0  0  0
    4.9867   -5.7866    1.5113 N   0  0  0  0  0  0  0  0  0  0  0  0
    5.5929   -6.7124    2.3443 C   0  0  0  0  0  0  0  0  0  0  0  0
    6.6145   -6.5469    3.0035 O   0  0  0  0  0  0  0  0  0  0  0  0
    4.9840   -8.0678    2.3832 C   0  0  0  0  0  0  0  0  0  0  0  0
    3.6023   -8.2658    2.3473 C   0  0  0  0  0  0  0  0  0  0  0  0
    3.0991   -9.5635    2.4431 C   0  0  0  0  0  0  0  0  0  0  0  0
    3.9675  -10.6579    2.5527 C   0  0  0  0  0  0  0  0  0  0  0  0
    5.3572  -10.4697    2.5676 C   0  0  0  0  0  0  0  0  0  0  0  0
    6.2535  -11.5853    2.5965 N   0  0  0  0  0  0  0  0  0  0  0  0
    7.6363  -11.5388    2.6503 C   0  0  0  0  0  0  0  0  0  0  0  0
    8.1437  -12.8167    2.5580 C   0  0  0  0  0  0  0  0  0  0  0  0
    7.0476  -13.6937    2.4751 C   0  0  0  0  0  0  0  0  0  0  0  0
    5.9062  -12.9230    2.5225 C   0  0  0  0  0  0  0  0  0  0  0  0
    5.8537   -9.1615    2.5117 C   0  0  0  0  0  0  0  0  0  0  0  0
    4.8676   -3.7181    0.2631 C   0  0  0  0  0  0  0  0  0  0  0  0
    5.2997   -2.4078    0.0148 C   0  0  0  0  0  0  0  0  0  0  0  0
    6.2204   -1.7700    0.8653 C   0  0  0  0  0  0  0  0  0  0  0  0
    6.7126   -0.3942    0.5248 C   0  0  0  0  0  0  0  0  0  0  0  0
   10.1758   -1.2771    6.1943 N   0  0  0  0  0  0  0  0  0  0  0  0
   13.6683    0.4282    8.1276 H   0  0  0  0  0  0  0  0  0  0  0  0
   13.0391    1.1533    6.6422 H   0  0  0  0  0  0  0  0  0  0  0  0
   14.0743   -0.3037    6.5768 H   0  0  0  0  0  0  0  0  0  0  0  0
   11.4005   -0.3228    7.9168 H   0  0  0  0  0  0  0  0  0  0  0  0
   11.9188   -1.4604    2.9296 H   0  0  0  0  0  0  0  0  0  0  0  0
    8.5009   -2.7115    7.3238 H   0  0  0  0  0  0  0  0  0  0  0  0
    6.2003   -3.4954    7.7352 H   0  0  0  0  0  0  0  0  0  0  0  0
    4.5170   -3.2531    5.9003 H   0  0  0  0  0  0  0  0  0  0  0  0
    6.7438   -4.3447    3.0080 H   0  0  0  0  0  0  0  0  0  0  0  0
    4.2438   -6.1101    0.9067 H   0  0  0  0  0  0  0  0  0  0  0  0
    2.9111   -7.4302    2.2849 H   0  0  0  0  0  0  0  0  0  0  0  0
    2.0240   -9.7312    2.4397 H   0  0  0  0  0  0  0  0  0  0  0  0
    3.5198  -11.6439    2.6333 H   0  0  0  0  0  0  0  0  0  0  0  0
    8.1731  -10.6061    2.7413 H   0  0  0  0  0  0  0  0  0  0  0  0
    9.1936  -13.0799    2.5518 H   0  0  0  0  0  0  0  0  0  0  0  0
    7.0771  -14.7720    2.3870 H   0  0  0  0  0  0  0  0  0  0  0  0
    4.8771  -13.2418    2.4773 H   0  0  0  0  0  0  0  0  0  0  0  0
    6.9197   -8.9527    2.5471 H   0  0  0  0  0  0  0  0  0  0  0  0
    4.1311   -4.1595   -0.4023 H   0  0  0  0  0  0  0  0  0  0  0  0
    4.9039   -1.8827   -0.8524 H   0  0  0  0  0  0  0  0  0  0  0  0
    6.2136   -0.0029   -0.3700 H   0  0  0  0  0  0  0  0  0  0  0  0
    7.7856   -0.4278    0.3066 H   0  0  0  0  0  0  0  0  0  0  0  0
    6.5252    0.3064    1.3423 H   0  0  0  0  0  0  0  0  0  0  0  0
  1  2  1  0  0  0  0
  1 37  1  0  0  0  0
  1 38  1  0  0  0  0
  1 39  1  0  0  0  0
  2  3  1  0  0  0  0
  2 40  1  0  0  0  0
  3  4  1  0  0  0  0
  3 36  2  0  0  0  0
  4  5  2  0  0  0  0
  5  6  1  0  0  0  0
  5 41  1  0  0  0  0
  6  7  2  0  0  0  0
  7  8  1  0  0  0  0
  7 36  1  0  0  0  0
  8  9  1  0  0  0  0
  8 13  2  0  0  0  0
  9 10  2  0  0  0  0
  9 42  1  0  0  0  0
 10 11  1  0  0  0  0
 10 43  1  0  0  0  0
 11 12  2  0  0  0  0
 11 44  1  0  0  0  0
 12 13  1  0  0  0  0
 13 14  1  0  0  0  0
 14 15  1  0  0  0  0
 15 16  1  0  0  0  0
 15 34  2  0  0  0  0
 16 17  2  0  0  0  0
 16 45  1  0  0  0  0
 17 18  1  0  0  0  0
 17 32  1  0  0  0  0
 18 19  1  0  0  0  0
 18 46  1  0  0  0  0
 19 20  2  0  0  0  0
 19 21  1  0  0  0  0
 21 22  1  0  0  0  0
 21 31  2  0  0  0  0
 22 23  2  0  0  0  0
 22 47  1  0  0  0  0
 23 24  1  0  0  0  0
 23 48  1  0  0  0  0
 24 25  2  0  0  0  0
 24 49  1  0  0  0  0
 25 26  1  0  0  0  0
 25 31  1  0  0  0  0
 26 27  1  0  0  0  0
 26 30  1  0  0  0  0
 27 28  2  0  0  0  0
 27 50  1  0  0  0  0
 28 29  1  0  0  0  0
 28 51  1  0  0  0  0
 29 30  2  0  0  0  0
 29 52  1  0  0  0  0
 30 53  1  0  0  0  0
 31 54  1  0  0  0  0
 32 33  2  0  0  0  0
 32 55  1  0  0  0  0
 33 34  1  0  0  0  0
 33 56  1  0  0  0  0
 34 35  1  0  0  0  0
 35 57  1  0  0  0  0
 35 58  1  0  0  0  0
 35 59  1  0  0  0  0
M  END
$$$$
