CHEMBL169186
 OpenBabel04072215363D

 60 64  0  0  0  0  0  0  0  0999 V2000
    3.2587   -1.0641   -0.7919 C   0  0  0  0  0  0  0  0  0  0  0  0
    2.6473   -0.2589    0.2203 O   0  0  0  0  0  0  0  0  0  0  0  0
    3.2324    0.9015    0.6319 C   0  0  0  0  0  0  0  0  0  0  0  0
    4.3262    1.4421   -0.0376 C   0  0  0  0  0  0  0  0  0  0  0  0
    4.9424    2.6315    0.3734 C   0  0  0  0  0  0  0  0  0  0  0  0
    6.0530    3.1527   -0.2947 C   0  0  0  0  0  0  0  0  0  0  0  0
    6.5357    2.5113   -1.4776 N   0  0  0  0  0  0  0  0  0  0  0  0
    7.8288    2.6962   -2.0248 C   0  0  0  0  0  0  0  0  0  0  0  0
    9.0151    2.5831   -1.2703 C   0  0  0  0  0  0  0  0  0  0  0  0
    9.0249    1.9520    0.3459 Cl  0  0  0  0  0  0  0  0  0  0  0  0
   10.2697    2.9026   -1.8266 C   0  0  0  0  0  0  0  0  0  0  0  0
   10.3769    3.3007   -3.1581 C   0  0  0  0  0  0  0  0  0  0  0  0
    9.2259    3.3175   -3.9115 C   0  0  0  0  0  0  0  0  0  0  0  0
    7.9916    3.0166   -3.3724 C   0  0  0  0  0  0  0  0  0  0  0  0
    7.0009    3.0962   -4.3120 O   0  0  0  0  0  0  0  0  0  0  0  0
    7.7702    3.3963   -5.5014 C   0  0  0  0  0  0  0  0  0  0  0  0
    9.1641    3.6328   -5.2324 O   0  0  0  0  0  0  0  0  0  0  0  0
    6.7039    4.2245    0.1792 N   0  0  0  0  0  0  0  0  0  0  0  0
    6.2157    4.7718    1.2985 C   0  0  0  0  0  0  0  0  0  0  0  0
    5.1176    4.3858    1.9688 N   0  0  0  0  0  0  0  0  0  0  0  0
    4.4836    3.3090    1.4971 C   0  0  0  0  0  0  0  0  0  0  0  0
    3.3569    2.8017    2.1574 C   0  0  0  0  0  0  0  0  0  0  0  0
    2.7435    1.6090    1.7498 C   0  0  0  0  0  0  0  0  0  0  0  0
    1.6963    1.2561    2.5791 O   0  0  0  0  0  0  0  0  0  0  0  0
    1.4382   -0.1409    2.6413 C   0  0  0  0  0  0  0  0  0  0  0  0
    0.8482   -0.5534    3.9881 C   0  0  0  0  0  0  0  0  0  0  0  0
    0.6584   -2.0788    3.9406 C   0  0  0  0  0  0  0  0  0  0  0  0
    0.1321   -2.6547    5.1794 N   0  0  0  0  0  0  0  0  0  0  0  0
   -1.2046   -2.1429    5.5007 C   0  0  0  0  0  0  0  0  0  0  0  0
   -1.6199   -2.6353    6.8815 C   0  0  0  0  0  0  0  0  0  0  0  0
   -1.6233   -4.1563    6.9423 C   0  0  0  0  0  0  0  0  0  0  0  0
   -0.3004   -4.7272    6.4393 C   0  0  0  0  0  0  0  0  0  0  0  0
    0.0972   -4.1273    5.0894 C   0  0  0  0  0  0  0  0  0  0  0  0
    3.3991   -2.0731   -0.3949 H   0  0  0  0  0  0  0  0  0  0  0  0
    4.2405   -0.7609   -1.1538 H   0  0  0  0  0  0  0  0  0  0  0  0
    2.5899   -1.1087   -1.6556 H   0  0  0  0  0  0  0  0  0  0  0  0
    4.7869    0.9420   -0.8740 H   0  0  0  0  0  0  0  0  0  0  0  0
    5.8213    2.5685   -2.2005 H   0  0  0  0  0  0  0  0  0  0  0  0
   11.1640    2.8352   -1.2128 H   0  0  0  0  0  0  0  0  0  0  0  0
   11.3351    3.5669   -3.5893 H   0  0  0  0  0  0  0  0  0  0  0  0
    7.3487    4.2847   -5.9851 H   0  0  0  0  0  0  0  0  0  0  0  0
    7.6939    2.5517   -6.1978 H   0  0  0  0  0  0  0  0  0  0  0  0
    6.7689    5.6065    1.7072 H   0  0  0  0  0  0  0  0  0  0  0  0
    2.9835    3.3340    3.0236 H   0  0  0  0  0  0  0  0  0  0  0  0
    2.3623   -0.7094    2.5273 H   0  0  0  0  0  0  0  0  0  0  0  0
    0.7181   -0.3904    1.8551 H   0  0  0  0  0  0  0  0  0  0  0  0
   -0.0892   -0.0134    4.1505 H   0  0  0  0  0  0  0  0  0  0  0  0
    1.5173   -0.2682    4.8079 H   0  0  0  0  0  0  0  0  0  0  0  0
    1.6447   -2.5229    3.7501 H   0  0  0  0  0  0  0  0  0  0  0  0
    0.0205   -2.3461    3.0890 H   0  0  0  0  0  0  0  0  0  0  0  0
   -1.9367   -2.4484    4.7415 H   0  0  0  0  0  0  0  0  0  0  0  0
   -1.2155   -1.0506    5.5418 H   0  0  0  0  0  0  0  0  0  0  0  0
   -2.6126   -2.2442    7.1268 H   0  0  0  0  0  0  0  0  0  0  0  0
   -0.9231   -2.2364    7.6304 H   0  0  0  0  0  0  0  0  0  0  0  0
   -2.4437   -4.5392    6.3236 H   0  0  0  0  0  0  0  0  0  0  0  0
   -1.8088   -4.4858    7.9698 H   0  0  0  0  0  0  0  0  0  0  0  0
   -0.3777   -5.8171    6.3551 H   0  0  0  0  0  0  0  0  0  0  0  0
    0.4891   -4.5180    7.1719 H   0  0  0  0  0  0  0  0  0  0  0  0
   -0.6036   -4.4582    4.3110 H   0  0  0  0  0  0  0  0  0  0  0  0
    1.0852   -4.5200    4.8182 H   0  0  0  0  0  0  0  0  0  0  0  0
  1  2  1  0  0  0  0
  1 34  1  0  0  0  0
  1 35  1  0  0  0  0
  1 36  1  0  0  0  0
  2  3  1  0  0  0  0
  3  4  1  0  0  0  0
  3 23  2  0  0  0  0
  4  5  2  0  0  0  0
  4 37  1  0  0  0  0
  5  6  1  0  0  0  0
  5 21  1  0  0  0  0
  6  7  1  0  0  0  0
  6 18  2  0  0  0  0
  7  8  1  0  0  0  0
  7 38  1  0  0  0  0
  8  9  1  0  0  0  0
  8 14  2  0  0  0  0
  9 10  1  0  0  0  0
  9 11  2  0  0  0  0
 11 12  1  0  0  0  0
 11 39  1  0  0  0  0
 12 13  2  0  0  0  0
 12 40  1  0  0  0  0
 13 14  1  0  0  0  0
 13 17  1  0  0  0  0
 14 15  1  0  0  0  0
 15 16  1  0  0  0  0
 16 17  1  0  0  0  0
 16 41  1  0  0  0  0
 16 42  1  0  0  0  0
 18 19  1  0  0  0  0
 19 20  2  0  0  0  0
 19 43  1  0  0  0  0
 20 21  1  0  0  0  0
 21 22  2  0  0  0  0
 22 23  1  0  0  0  0
 22 44  1  0  0  0  0
 23 24  1  0  0  0  0
 24 25  1  0  0  0  0
 25 26  1  0  0  0  0
 25 45  1  0  0  0  0
 25 46  1  0  0  0  0
 26 27  1  0  0  0  0
 26 47  1  0  0  0  0
 26 48  1  0  0  0  0
 27 28  1  0  0  0  0
 27 49  1  0  0  0  0
 27 50  1  0  0  0  0
 28 29  1  0  0  0  0
 28 33  1  0  0  0  0
 29 30  1  0  0  0  0
 29 51  1  0  0  0  0
 29 52  1  0  0  0  0
 30 31  1  0  0  0  0
 30 53  1  0  0  0  0
 30 54  1  0  0  0  0
 31 32  1  0  0  0  0
 31 55  1  0  0  0  0
 31 56  1  0  0  0  0
 32 33  1  0  0  0  0
 32 57  1  0  0  0  0
 32 58  1  0  0  0  0
 33 59  1  0  0  0  0
 33 60  1  0  0  0  0
M  END
$$$$
