CHEMBL488811
 OpenBabel04072215383D

 61 65  0  0  0  0  0  0  0  0999 V2000
    5.0053    1.3544    1.9021 C   0  0  0  0  0  0  0  0  0  0  0  0
    5.2409    0.8986    0.5717 O   0  0  0  0  0  0  0  0  0  0  0  0
    4.5350    1.5209   -0.4284 C   0  0  0  0  0  0  0  0  0  0  0  0
    4.0705    2.8372   -0.2916 C   0  0  0  0  0  0  0  0  0  0  0  0
    3.3718    3.4993   -1.3107 C   0  0  0  0  0  0  0  0  0  0  0  0
    2.7933    4.8263   -1.0538 C   0  0  0  0  0  0  0  0  0  0  0  0
    2.5572    5.8742   -1.8661 C   0  0  0  0  0  0  0  0  0  0  0  0
    2.9077    6.2021   -3.2032 C   0  0  0  0  0  0  0  0  0  0  0  0
    4.1035    6.8437   -3.4693 C   0  0  0  0  0  0  0  0  0  0  0  0
    3.7823    7.9135   -4.2801 N   0  0  0  0  0  0  0  0  0  0  0  0
    4.5139    9.1782   -4.2354 C   0  0  0  0  0  0  0  0  0  0  0  0
    5.4891    9.2182   -5.2655 O   0  0  0  0  0  0  0  0  0  0  0  0
    6.1938   10.3954   -5.3255 C   0  0  0  0  0  0  0  0  0  0  0  0
    5.9862   11.5121   -4.5077 C   0  0  0  0  0  0  0  0  0  0  0  0
    6.7564   12.6652   -4.6691 C   0  0  0  0  0  0  0  0  0  0  0  0
    7.7436   12.7097   -5.6490 C   0  0  0  0  0  0  0  0  0  0  0  0
    7.9593   11.6026   -6.4663 C   0  0  0  0  0  0  0  0  0  0  0  0
    7.1860   10.4498   -6.3060 C   0  0  0  0  0  0  0  0  0  0  0  0
    2.4856    7.7767   -4.7547 C   0  0  0  0  0  0  0  0  0  0  0  0
    1.6764    8.6475   -5.5027 C   0  0  0  0  0  0  0  0  0  0  0  0
    0.3754    8.2408   -5.8067 C   0  0  0  0  0  0  0  0  0  0  0  0
   -0.0975    6.9968   -5.4032 C   0  0  0  0  0  0  0  0  0  0  0  0
    0.6851    6.1697   -4.5898 C   0  0  0  0  0  0  0  0  0  0  0  0
    1.9871    6.5779   -4.2304 C   0  0  0  0  0  0  0  0  0  0  0  0
    1.9549    7.0586   -1.1488 C   0  0  0  0  0  0  0  0  0  0  0  0
    1.9776    6.6232    0.1916 N   0  0  0  0  0  0  0  0  0  0  0  0
    2.4148    5.3317    0.3044 C   0  0  0  0  0  0  0  0  0  0  0  0
    2.5199    4.7460    1.3689 O   0  0  0  0  0  0  0  0  0  0  0  0
    3.1840    2.8285   -2.5196 C   0  0  0  0  0  0  0  0  0  0  0  0
    3.6888    1.5331   -2.7022 C   0  0  0  0  0  0  0  0  0  0  0  0
    3.5203    0.8378   -3.8787 O   0  0  0  0  0  0  0  0  0  0  0  0
    3.5245    1.6319   -5.0557 C   0  0  0  0  0  0  0  0  0  0  0  0
    4.3372    0.8545   -1.6467 C   0  0  0  0  0  0  0  0  0  0  0  0
    4.7782   -0.4149   -1.9438 O   0  0  0  0  0  0  0  0  0  0  0  0
    4.7786   -1.3606   -0.8809 C   0  0  0  0  0  0  0  0  0  0  0  0
    5.5426    0.6883    2.5835 H   0  0  0  0  0  0  0  0  0  0  0  0
    3.9400    1.3073    2.1545 H   0  0  0  0  0  0  0  0  0  0  0  0
    5.4063    2.3605    2.0599 H   0  0  0  0  0  0  0  0  0  0  0  0
    4.2623    3.3729    0.6292 H   0  0  0  0  0  0  0  0  0  0  0  0
    5.0366    6.8489   -2.9197 H   0  0  0  0  0  0  0  0  0  0  0  0
    4.9839    9.2375   -3.2463 H   0  0  0  0  0  0  0  0  0  0  0  0
    3.7782    9.9825   -4.3460 H   0  0  0  0  0  0  0  0  0  0  0  0
    5.2320   11.5344   -3.7275 H   0  0  0  0  0  0  0  0  0  0  0  0
    6.5824   13.5283   -4.0311 H   0  0  0  0  0  0  0  0  0  0  0  0
    8.3442   13.6082   -5.7743 H   0  0  0  0  0  0  0  0  0  0  0  0
    8.7316   11.6349   -7.2312 H   0  0  0  0  0  0  0  0  0  0  0  0
    7.3605    9.5904   -6.9496 H   0  0  0  0  0  0  0  0  0  0  0  0
    2.0278    9.6256   -5.8171 H   0  0  0  0  0  0  0  0  0  0  0  0
   -0.2762    8.9098   -6.3654 H   0  0  0  0  0  0  0  0  0  0  0  0
   -1.0993    6.6825   -5.6863 H   0  0  0  0  0  0  0  0  0  0  0  0
    0.2843    5.2275   -4.2277 H   0  0  0  0  0  0  0  0  0  0  0  0
    0.9229    7.2509   -1.4523 H   0  0  0  0  0  0  0  0  0  0  0  0
    2.5568    7.9693   -1.2375 H   0  0  0  0  0  0  0  0  0  0  0  0
    1.7411    7.1750    1.0011 H   0  0  0  0  0  0  0  0  0  0  0  0
    2.6140    3.3103   -3.3080 H   0  0  0  0  0  0  0  0  0  0  0  0
    3.6810    0.9619   -5.9141 H   0  0  0  0  0  0  0  0  0  0  0  0
    4.3418    2.3643   -5.0524 H   0  0  0  0  0  0  0  0  0  0  0  0
    2.5571    2.1234   -5.1917 H   0  0  0  0  0  0  0  0  0  0  0  0
    4.7934   -2.3608   -1.3262 H   0  0  0  0  0  0  0  0  0  0  0  0
    3.8781   -1.2900   -0.2608 H   0  0  0  0  0  0  0  0  0  0  0  0
    5.6884   -1.2710   -0.2805 H   0  0  0  0  0  0  0  0  0  0  0  0
  1  2  1  0  0  0  0
  1 36  1  0  0  0  0
  1 37  1  0  0  0  0
  1 38  1  0  0  0  0
  2  3  1  0  0  0  0
  3  4  1  0  0  0  0
  3 33  2  0  0  0  0
  4  5  2  0  0  0  0
  4 39  1  0  0  0  0
  5  6  1  0  0  0  0
  5 29  1  0  0  0  0
  6  7  2  0  0  0  0
  6 27  1  0  0  0  0
  7  8  1  0  0  0  0
  7 25  1  0  0  0  0
  8  9  2  0  0  0  0
  8 24  1  0  0  0  0
  9 10  1  0  0  0  0
  9 40  1  0  0  0  0
 10 11  1  0  0  0  0
 10 19  1  0  0  0  0
 11 12  1  0  0  0  0
 11 41  1  0  0  0  0
 11 42  1  0  0  0  0
 12 13  1  0  0  0  0
 13 14  1  0  0  0  0
 13 18  2  0  0  0  0
 14 15  2  0  0  0  0
 14 43  1  0  0  0  0
 15 16  1  0  0  0  0
 15 44  1  0  0  0  0
 16 17  2  0  0  0  0
 16 45  1  0  0  0  0
 17 18  1  0  0  0  0
 17 46  1  0  0  0  0
 18 47  1  0  0  0  0
 19 20  1  0  0  0  0
 19 24  2  0  0  0  0
 20 21  2  0  0  0  0
 20 48  1  0  0  0  0
 21 22  1  0  0  0  0
 21 49  1  0  0  0  0
 22 23  2  0  0  0  0
 22 50  1  0  0  0  0
 23 24  1  0  0  0  0
 23 51  1  0  0  0  0
 25 26  1  0  0  0  0
 25 52  1  0  0  0  0
 25 53  1  0  0  0  0
 26 27  1  0  0  0  0
 26 54  1  0  0  0  0
 27 28  2  0  0  0  0
 29 30  2  0  0  0  0
 29 55  1  0  0  0  0
 30 31  1  0  0  0  0
 30 33  1  0  0  0  0
 31 32  1  0  0  0  0
 32 56  1  0  0  0  0
 32 57  1  0  0  0  0
 32 58  1  0  0  0  0
 33 34  1  0  0  0  0
 34 35  1  0  0  0  0
 35 59  1  0  0  0  0
 35 60  1  0  0  0  0
 35 61  1  0  0  0  0
M  END
$$$$
