CHEMBL426703
 OpenBabel04072215383D

 64 70  0  0  0  0  0  0  0  0999 V2000
    3.8026   -0.1929   -3.2138 C   0  0  0  0  0  0  0  0  0  0  0  0
    3.2145    0.7106   -2.1284 C   0  0  0  0  0  0  0  0  0  0  0  0
    1.6853    0.6937   -2.2256 C   0  0  0  0  0  0  0  0  0  0  0  0
    3.6893    0.3220   -0.7031 C   0  0  0  0  0  0  0  0  0  0  0  0
    5.1295    0.4678   -0.4827 N   0  0  0  0  0  0  0  0  0  0  0  0
    5.8079    1.7039   -0.5835 C   0  0  0  0  0  0  0  0  0  0  0  0
    5.3424    3.0286   -0.7120 C   0  0  0  0  0  0  0  0  0  0  0  0
    6.2764    4.0675   -0.9095 C   0  0  0  0  0  0  0  0  0  0  0  0
    7.6449    3.8120   -0.9484 C   0  0  0  0  0  0  0  0  0  0  0  0
    8.6550    4.7728   -1.1246 N   0  0  0  0  0  0  0  0  0  0  0  0
    8.5522    6.1273   -1.3226 C   0  0  0  0  0  0  0  0  0  0  0  0
    7.4923    6.7448   -1.4134 O   0  0  0  0  0  0  0  0  0  0  0  0
    9.8496    6.8187   -1.4130 C   0  0  0  0  0  0  0  0  0  0  0  0
   10.0639    8.1749   -1.5813 C   0  0  0  0  0  0  0  0  0  0  0  0
   11.4465    8.5219   -1.6030 C   0  0  0  0  0  0  0  0  0  0  0  0
   12.2549    7.4178   -1.4632 C   0  0  0  0  0  0  0  0  0  0  0  0
   11.3486    5.9781   -1.3087 S   0  0  0  0  0  0  0  0  0  0  0  0
    8.0924    2.4969   -0.8137 C   0  0  0  0  0  0  0  0  0  0  0  0
    7.1803    1.4379   -0.6642 C   0  0  0  0  0  0  0  0  0  0  0  0
    7.2191    0.0606   -0.6721 C   0  0  0  0  0  0  0  0  0  0  0  0
    8.3252   -0.6674   -1.1356 C   0  0  0  0  0  0  0  0  0  0  0  0
    8.0464   -1.9834   -1.5533 C   0  0  0  0  0  0  0  0  0  0  0  0
    6.7959   -2.6035   -1.4029 C   0  0  0  0  0  0  0  0  0  0  0  0
    5.9886   -1.9980   -0.3856 C   0  0  0  0  0  0  0  0  0  0  0  0
    6.0459   -0.5851   -0.3962 C   0  0  0  0  0  0  0  0  0  0  0  0
    5.9747   -2.8591    0.9483 C   0  0  0  0  0  0  0  0  0  0  0  0
    6.9973   -4.0732    0.9563 C   0  0  0  0  0  0  0  0  0  0  0  0
    6.7996   -4.8041   -0.3238 C   0  0  0  0  0  0  0  0  0  0  0  0
    6.3854   -6.0595   -0.4889 N   0  0  0  0  0  0  0  0  0  0  0  0
    5.9447   -6.0561   -1.7728 N   0  0  0  0  0  0  0  0  0  0  0  0
    5.2635   -7.2152   -2.2968 C   0  0  0  0  0  0  0  0  0  0  0  0
    5.9998   -4.8194   -2.3699 C   0  0  0  0  0  0  0  0  0  0  0  0
    6.7094   -4.0374   -1.4959 C   0  0  0  0  0  0  0  0  0  0  0  0
    9.2912   -2.5640   -1.9923 C   0  0  0  0  0  0  0  0  0  0  0  0
    9.6123   -3.6759   -2.3885 O   0  0  0  0  0  0  0  0  0  0  0  0
   10.2288   -1.5513   -1.8135 N   0  0  0  0  0  0  0  0  0  0  0  0
    9.7200   -0.2920   -1.3254 C   0  0  0  0  0  0  0  0  0  0  0  0
    3.4738    0.1379   -4.2062 H   0  0  0  0  0  0  0  0  0  0  0  0
    3.4826   -1.2313   -3.0833 H   0  0  0  0  0  0  0  0  0  0  0  0
    4.8959   -0.1645   -3.2102 H   0  0  0  0  0  0  0  0  0  0  0  0
    3.5312    1.7352   -2.3529 H   0  0  0  0  0  0  0  0  0  0  0  0
    1.2884   -0.3234   -2.1431 H   0  0  0  0  0  0  0  0  0  0  0  0
    1.3581    1.1019   -3.1899 H   0  0  0  0  0  0  0  0  0  0  0  0
    1.2305    1.3059   -1.4402 H   0  0  0  0  0  0  0  0  0  0  0  0
    3.4119   -0.7123   -0.4733 H   0  0  0  0  0  0  0  0  0  0  0  0
    3.2036    0.9634    0.0428 H   0  0  0  0  0  0  0  0  0  0  0  0
    4.2817    3.2606   -0.7083 H   0  0  0  0  0  0  0  0  0  0  0  0
    5.8939    5.0720   -1.0593 H   0  0  0  0  0  0  0  0  0  0  0  0
    9.6030    4.4332   -1.0966 H   0  0  0  0  0  0  0  0  0  0  0  0
    9.2539    8.8929   -1.6639 H   0  0  0  0  0  0  0  0  0  0  0  0
   11.8278    9.5298   -1.7131 H   0  0  0  0  0  0  0  0  0  0  0  0
   13.3368    7.3895   -1.4464 H   0  0  0  0  0  0  0  0  0  0  0  0
    9.1553    2.2850   -0.8410 H   0  0  0  0  0  0  0  0  0  0  0  0
    4.9639   -3.2597    1.0795 H   0  0  0  0  0  0  0  0  0  0  0  0
    6.2129   -2.2138    1.8018 H   0  0  0  0  0  0  0  0  0  0  0  0
    6.8720   -4.7210    1.8275 H   0  0  0  0  0  0  0  0  0  0  0  0
    8.0294   -3.6884    0.9827 H   0  0  0  0  0  0  0  0  0  0  0  0
    5.4630   -8.0758   -1.6537 H   0  0  0  0  0  0  0  0  0  0  0  0
    5.6317   -7.4093   -3.3067 H   0  0  0  0  0  0  0  0  0  0  0  0
    4.1917   -6.9997   -2.3138 H   0  0  0  0  0  0  0  0  0  0  0  0
    5.4890   -4.6088   -3.2991 H   0  0  0  0  0  0  0  0  0  0  0  0
   11.2055   -1.7543   -1.9631 H   0  0  0  0  0  0  0  0  0  0  0  0
    9.8555    0.4651   -2.0984 H   0  0  0  0  0  0  0  0  0  0  0  0
   10.2131   -0.0292   -0.3869 H   0  0  0  0  0  0  0  0  0  0  0  0
  1  2  1  0  0  0  0
  1 38  1  0  0  0  0
  1 39  1  0  0  0  0
  1 40  1  0  0  0  0
  2  3  1  0  0  0  0
  2  4  1  0  0  0  0
  2 41  1  0  0  0  0
  3 42  1  0  0  0  0
  3 43  1  0  0  0  0
  3 44  1  0  0  0  0
  4  5  1  0  0  0  0
  4 45  1  0  0  0  0
  4 46  1  0  0  0  0
  5  6  1  0  0  0  0
  5 25  1  0  0  0  0
  6  7  1  0  0  0  0
  6 19  2  0  0  0  0
  7  8  2  0  0  0  0
  7 47  1  0  0  0  0
  8  9  1  0  0  0  0
  8 48  1  0  0  0  0
  9 10  1  0  0  0  0
  9 18  2  0  0  0  0
 10 11  1  0  0  0  0
 10 49  1  0  0  0  0
 11 12  2  0  0  0  0
 11 13  1  0  0  0  0
 13 14  2  0  0  0  0
 13 17  1  0  0  0  0
 14 15  1  0  0  0  0
 14 50  1  0  0  0  0
 15 16  2  0  0  0  0
 15 51  1  0  0  0  0
 16 17  1  0  0  0  0
 16 52  1  0  0  0  0
 18 19  1  0  0  0  0
 18 53  1  0  0  0  0
 19 20  1  0  0  0  0
 20 21  1  0  0  0  0
 20 25  2  0  0  0  0
 21 22  2  0  0  0  0
 21 37  1  0  0  0  0
 22 23  1  0  0  0  0
 22 34  1  0  0  0  0
 23 24  2  0  0  0  0
 23 33  1  0  0  0  0
 24 25  1  0  0  0  0
 24 26  1  0  0  0  0
 26 27  1  0  0  0  0
 26 54  1  0  0  0  0
 26 55  1  0  0  0  0
 27 28  1  0  0  0  0
 27 56  1  0  0  0  0
 27 57  1  0  0  0  0
 28 29  2  0  0  0  0
 28 33  1  0  0  0  0
 29 30  1  0  0  0  0
 30 31  1  0  0  0  0
 30 32  1  0  0  0  0
 31 58  1  0  0  0  0
 31 59  1  0  0  0  0
 31 60  1  0  0  0  0
 32 33  2  0  0  0  0
 32 61  1  0  0  0  0
 34 35  2  0  0  0  0
 34 36  1  0  0  0  0
 36 37  1  0  0  0  0
 36 62  1  0  0  0  0
 37 63  1  0  0  0  0
 37 64  1  0  0  0  0
M  END
$$$$
