CHEMBL3927140
 OpenBabel04072215373D

 64 68  0  0  0  0  0  0  0  0999 V2000
    1.5534    0.6465    0.1909 C   0  0  0  0  0  0  0  0  0  0  0  0
    2.4006   -0.3003   -0.4546 O   0  0  0  0  0  0  0  0  0  0  0  0
    3.0891    0.1562   -1.5479 C   0  0  0  0  0  0  0  0  0  0  0  0
    2.7839    1.2885   -2.2817 C   0  0  0  0  0  0  0  0  0  0  0  0
    3.5672    1.6261   -3.3905 C   0  0  0  0  0  0  0  0  0  0  0  0
    3.2907    2.6711   -4.2334 O   0  0  0  0  0  0  0  0  0  0  0  0
    1.9205    3.0595   -4.2909 C   0  0  0  0  0  0  0  0  0  0  0  0
    4.7511    0.9267   -3.6629 C   0  0  0  0  0  0  0  0  0  0  0  0
    5.1619   -0.1291   -2.8507 C   0  0  0  0  0  0  0  0  0  0  0  0
    6.4489   -0.7105   -2.9729 N   0  0  0  0  0  0  0  0  0  0  0  0
    6.8784   -1.5611   -1.8111 C   0  0  0  0  0  0  0  0  0  0  0  0
    7.1803   -0.7522   -0.6270 C   0  0  0  0  0  0  0  0  0  0  0  0
    7.4042   -0.0492    0.3405 C   0  0  0  0  0  0  0  0  0  0  0  0
    7.6073    0.8076    1.4543 C   0  0  0  0  0  0  0  0  0  0  0  0
    6.7865    0.7158    2.5758 C   0  0  0  0  0  0  0  0  0  0  0  0
    6.9640    1.6488    3.5928 C   0  0  0  0  0  0  0  0  0  0  0  0
    6.2336    1.7312    4.7463 O   0  0  0  0  0  0  0  0  0  0  0  0
    5.2032    0.7666    4.9257 C   0  0  0  0  0  0  0  0  0  0  0  0
    7.9580    2.6144    3.4594 C   0  0  0  0  0  0  0  0  0  0  0  0
    8.7409    2.6057    2.3180 C   0  0  0  0  0  0  0  0  0  0  0  0
    8.5846    1.7222    1.3100 N   0  0  0  0  0  0  0  0  0  0  0  0
    7.6278   -0.2983   -3.6986 C   0  0  0  0  0  0  0  0  0  0  0  0
    8.3294   -1.3547   -4.2667 C   0  0  0  0  0  0  0  0  0  0  0  0
    9.7019   -1.2636   -4.3845 C   0  0  0  0  0  0  0  0  0  0  0  0
   10.3689   -0.0963   -4.1327 C   0  0  0  0  0  0  0  0  0  0  0  0
   11.6927   -0.2676   -4.0770 N   0  0  0  0  0  0  0  0  0  0  0  0
   12.4365    0.8325   -4.1209 C   0  0  0  0  0  0  0  0  0  0  0  0
   11.8704    2.0761   -4.2950 C   0  0  0  0  0  0  0  0  0  0  0  0
   12.8098    3.1147   -4.7469 C   0  0  0  0  0  0  0  0  0  0  0  0
   13.0681    3.6188   -6.0533 C   0  0  0  0  0  0  0  0  0  0  0  0
   14.1627    4.3913   -6.1129 N   0  0  0  0  0  0  0  0  0  0  0  0
   14.6231    4.3727   -4.8515 N   0  0  0  0  0  0  0  0  0  0  0  0
   15.5806    5.3556   -4.3985 C   0  0  0  0  0  0  0  0  0  0  0  0
   13.9678    3.4666   -4.0628 C   0  0  0  0  0  0  0  0  0  0  0  0
   10.5009    2.2731   -4.1593 N   0  0  0  0  0  0  0  0  0  0  0  0
    9.6913    1.1245   -4.0027 C   0  0  0  0  0  0  0  0  0  0  0  0
    8.2761    0.9767   -3.6883 C   0  0  0  0  0  0  0  0  0  0  0  0
    4.2114   -0.5908   -1.9049 C   0  0  0  0  0  0  0  0  0  0  0  0
    1.3209    0.2670    1.1904 H   0  0  0  0  0  0  0  0  0  0  0  0
    0.6138    0.7497   -0.3606 H   0  0  0  0  0  0  0  0  0  0  0  0
    2.0415    1.6194    0.3194 H   0  0  0  0  0  0  0  0  0  0  0  0
    1.9418    1.9035   -1.9994 H   0  0  0  0  0  0  0  0  0  0  0  0
    1.8170    3.8062   -5.0824 H   0  0  0  0  0  0  0  0  0  0  0  0
    1.5987    3.5292   -3.3559 H   0  0  0  0  0  0  0  0  0  0  0  0
    1.2790    2.2070   -4.5424 H   0  0  0  0  0  0  0  0  0  0  0  0
    5.3572    1.2312   -4.5110 H   0  0  0  0  0  0  0  0  0  0  0  0
    7.7617   -2.1708   -2.0377 H   0  0  0  0  0  0  0  0  0  0  0  0
    6.1310   -2.3289   -1.5781 H   0  0  0  0  0  0  0  0  0  0  0  0
    6.0291   -0.0554    2.6162 H   0  0  0  0  0  0  0  0  0  0  0  0
    4.6821    1.0036    5.8582 H   0  0  0  0  0  0  0  0  0  0  0  0
    5.6246   -0.2392    5.0221 H   0  0  0  0  0  0  0  0  0  0  0  0
    4.4676    0.8115    4.1155 H   0  0  0  0  0  0  0  0  0  0  0  0
    8.1147    3.3610    4.2304 H   0  0  0  0  0  0  0  0  0  0  0  0
    9.5330    3.3365    2.1778 H   0  0  0  0  0  0  0  0  0  0  0  0
    7.8476   -2.3157   -4.4500 H   0  0  0  0  0  0  0  0  0  0  0  0
   10.2708   -2.1469   -4.6348 H   0  0  0  0  0  0  0  0  0  0  0  0
   13.5057    0.6616   -4.0836 H   0  0  0  0  0  0  0  0  0  0  0  0
   12.5299    3.4343   -6.9742 H   0  0  0  0  0  0  0  0  0  0  0  0
   15.8409    6.0321   -5.2171 H   0  0  0  0  0  0  0  0  0  0  0  0
   16.4736    4.8537   -4.0189 H   0  0  0  0  0  0  0  0  0  0  0  0
   15.0976    5.9250   -3.5988 H   0  0  0  0  0  0  0  0  0  0  0  0
   14.3519    3.1987   -3.0886 H   0  0  0  0  0  0  0  0  0  0  0  0
    7.7145    1.8553   -3.3663 H   0  0  0  0  0  0  0  0  0  0  0  0
    4.3417   -1.5252   -1.3671 H   0  0  0  0  0  0  0  0  0  0  0  0
  1  2  1  0  0  0  0
  1 39  1  0  0  0  0
  1 40  1  0  0  0  0
  1 41  1  0  0  0  0
  2  3  1  0  0  0  0
  3  4  1  0  0  0  0
  3 38  2  0  0  0  0
  4  5  2  0  0  0  0
  4 42  1  0  0  0  0
  5  6  1  0  0  0  0
  5  8  1  0  0  0  0
  6  7  1  0  0  0  0
  7 43  1  0  0  0  0
  7 44  1  0  0  0  0
  7 45  1  0  0  0  0
  8  9  2  0  0  0  0
  8 46  1  0  0  0  0
  9 10  1  0  0  0  0
  9 38  1  0  0  0  0
 10 11  1  0  0  0  0
 10 22  1  0  0  0  0
 11 12  1  0  0  0  0
 11 47  1  0  0  0  0
 11 48  1  0  0  0  0
 12 13  3  0  0  0  0
 13 14  1  0  0  0  0
 14 15  1  0  0  0  0
 14 21  2  0  0  0  0
 15 16  2  0  0  0  0
 15 49  1  0  0  0  0
 16 17  1  0  0  0  0
 16 19  1  0  0  0  0
 17 18  1  0  0  0  0
 18 50  1  0  0  0  0
 18 51  1  0  0  0  0
 18 52  1  0  0  0  0
 19 20  2  0  0  0  0
 19 53  1  0  0  0  0
 20 21  1  0  0  0  0
 20 54  1  0  0  0  0
 22 23  1  0  0  0  0
 22 37  2  0  0  0  0
 23 24  2  0  0  0  0
 23 55  1  0  0  0  0
 24 25  1  0  0  0  0
 24 56  1  0  0  0  0
 25 26  1  0  0  0  0
 25 36  2  0  0  0  0
 26 27  2  0  0  0  0
 27 28  1  0  0  0  0
 27 57  1  0  0  0  0
 28 29  1  0  0  0  0
 28 35  2  0  0  0  0
 29 30  1  0  0  0  0
 29 34  2  0  0  0  0
 30 31  2  0  0  0  0
 30 58  1  0  0  0  0
 31 32  1  0  0  0  0
 32 33  1  0  0  0  0
 32 34  1  0  0  0  0
 33 59  1  0  0  0  0
 33 60  1  0  0  0  0
 33 61  1  0  0  0  0
 34 62  1  0  0  0  0
 35 36  1  0  0  0  0
 36 37  1  0  0  0  0
 37 63  1  0  0  0  0
 38 64  1  0  0  0  0
M  END
$$$$
