CHEMBL222076
 OpenBabel04072215363D

 44 46  0  0  0  0  0  0  0  0999 V2000
    4.1923   -0.6560    4.3936 C   0  0  0  0  0  0  0  0  0  0  0  0
    5.1733   -0.6162    3.2826 C   0  0  0  0  0  0  0  0  0  0  0  0
    5.7474   -1.6301    2.5415 C   0  0  0  0  0  0  0  0  0  0  0  0
    6.4595   -1.0355    1.4607 C   0  0  0  0  0  0  0  0  0  0  0  0
    7.1368   -1.5331    0.3292 C   0  0  0  0  0  0  0  0  0  0  0  0
    7.2288   -2.8590    0.1336 F   0  0  0  0  0  0  0  0  0  0  0  0
    7.6688   -0.6487   -0.6207 C   0  0  0  0  0  0  0  0  0  0  0  0
    8.2096   -1.2111   -1.7658 O   0  0  0  0  0  0  0  0  0  0  0  0
    9.3143   -0.6047   -2.3532 C   0  0  0  0  0  0  0  0  0  0  0  0
   10.0969    0.1739   -1.5758 N   0  0  0  0  0  0  0  0  0  0  0  0
   11.1395    0.7520   -2.1795 C   0  0  0  0  0  0  0  0  0  0  0  0
   11.4753    0.6114   -3.4643 N   0  0  0  0  0  0  0  0  0  0  0  0
   10.7104   -0.2094   -4.1995 C   0  0  0  0  0  0  0  0  0  0  0  0
   11.0568   -0.2553   -5.5496 N   0  0  0  0  0  0  0  0  0  0  0  0
    9.5983   -0.8675   -3.6855 C   0  0  0  0  0  0  0  0  0  0  0  0
    8.7955   -1.7958   -4.4899 C   0  0  0  0  0  0  0  0  0  0  0  0
    9.3270   -2.4495   -5.4761 N   0  0  0  0  0  0  0  0  0  0  0  0
    8.3610   -3.2617   -6.0828 O   0  0  0  0  0  0  0  0  0  0  0  0
    8.9861   -3.9673   -7.1576 C   0  0  0  0  0  0  0  0  0  0  0  0
    7.9528   -4.8119   -7.8871 C   0  0  0  0  0  0  0  0  0  0  0  0
    6.8505   -3.9553   -8.4952 C   0  0  0  0  0  0  0  0  0  0  0  0
    5.9100   -4.7831   -9.1687 O   0  0  0  0  0  0  0  0  0  0  0  0
    7.5301    0.7305   -0.4303 C   0  0  0  0  0  0  0  0  0  0  0  0
    6.9125    1.2532    0.7134 C   0  0  0  0  0  0  0  0  0  0  0  0
    6.3674    0.3462    1.6275 C   0  0  0  0  0  0  0  0  0  0  0  0
    5.6511    0.5716    2.7824 N   0  0  0  0  0  0  0  0  0  0  0  0
    3.8975   -1.6856    4.6196 H   0  0  0  0  0  0  0  0  0  0  0  0
    3.2873   -0.1068    4.1111 H   0  0  0  0  0  0  0  0  0  0  0  0
    4.6010   -0.2049    5.3021 H   0  0  0  0  0  0  0  0  0  0  0  0
    5.5997   -2.6911    2.6988 H   0  0  0  0  0  0  0  0  0  0  0  0
   11.7579    1.4052   -1.5752 H   0  0  0  0  0  0  0  0  0  0  0  0
   11.9487    0.2080   -5.6819 H   0  0  0  0  0  0  0  0  0  0  0  0
   11.0214   -1.2095   -5.9089 H   0  0  0  0  0  0  0  0  0  0  0  0
    7.7317   -1.9311   -4.2194 H   0  0  0  0  0  0  0  0  0  0  0  0
    9.7710   -4.6148   -6.7497 H   0  0  0  0  0  0  0  0  0  0  0  0
    9.4475   -3.2523   -7.8498 H   0  0  0  0  0  0  0  0  0  0  0  0
    7.4993   -5.5314   -7.1944 H   0  0  0  0  0  0  0  0  0  0  0  0
    8.4399   -5.4027   -8.6727 H   0  0  0  0  0  0  0  0  0  0  0  0
    7.2573   -3.2374   -9.2150 H   0  0  0  0  0  0  0  0  0  0  0  0
    6.3106   -3.3980   -7.7241 H   0  0  0  0  0  0  0  0  0  0  0  0
    6.3825   -5.2543   -9.8763 H   0  0  0  0  0  0  0  0  0  0  0  0
    7.9074    1.4306   -1.1704 H   0  0  0  0  0  0  0  0  0  0  0  0
    6.8291    2.3261    0.8561 H   0  0  0  0  0  0  0  0  0  0  0  0
    5.4296    1.4868    3.1484 H   0  0  0  0  0  0  0  0  0  0  0  0
  1  2  1  0  0  0  0
  1 27  1  0  0  0  0
  1 28  1  0  0  0  0
  1 29  1  0  0  0  0
  2  3  2  0  0  0  0
  2 26  1  0  0  0  0
  3  4  1  0  0  0  0
  3 30  1  0  0  0  0
  4  5  1  0  0  0  0
  4 25  2  0  0  0  0
  5  6  1  0  0  0  0
  5  7  2  0  0  0  0
  7  8  1  0  0  0  0
  7 23  1  0  0  0  0
  8  9  1  0  0  0  0
  9 10  1  0  0  0  0
  9 15  2  0  0  0  0
 10 11  2  0  0  0  0
 11 12  1  0  0  0  0
 11 31  1  0  0  0  0
 12 13  2  0  0  0  0
 13 14  1  0  0  0  0
 13 15  1  0  0  0  0
 14 32  1  0  0  0  0
 14 33  1  0  0  0  0
 15 16  1  0  0  0  0
 16 17  2  0  0  0  0
 16 34  1  0  0  0  0
 17 18  1  0  0  0  0
 18 19  1  0  0  0  0
 19 20  1  0  0  0  0
 19 35  1  0  0  0  0
 19 36  1  0  0  0  0
 20 21  1  0  0  0  0
 20 37  1  0  0  0  0
 20 38  1  0  0  0  0
 21 22  1  0  0  0  0
 21 39  1  0  0  0  0
 21 40  1  0  0  0  0
 22 41  1  0  0  0  0
 23 24  2  0  0  0  0
 23 42  1  0  0  0  0
 24 25  1  0  0  0  0
 24 43  1  0  0  0  0
 25 26  1  0  0  0  0
 26 44  1  0  0  0  0
M  END
$$$$
