CHEMBL380932
 OpenBabel04072215373D

 53 56  0  0  0  0  0  0  0  0999 V2000
    1.5439    1.4872   -1.2460 C   0  0  0  0  0  0  0  0  0  0  0  0
    1.3917    0.0758   -0.6305 C   0  0  0  0  0  0  0  0  0  0  0  0
    2.0045    0.1275    0.7840 C   0  0  0  0  0  0  0  0  0  0  0  0
   -0.1192   -0.2123   -0.5119 C   0  0  0  0  0  0  0  0  0  0  0  0
    2.0749   -1.0143   -1.4712 C   0  0  0  0  0  0  0  0  0  0  0  0
    2.7763   -0.7093   -2.6429 C   0  0  0  0  0  0  0  0  0  0  0  0
    3.3989   -1.6898   -3.4145 C   0  0  0  0  0  0  0  0  0  0  0  0
    3.3319   -3.0282   -3.0485 C   0  0  0  0  0  0  0  0  0  0  0  0
    3.9137   -4.0585   -3.8136 N   0  0  0  0  0  0  0  0  0  0  0  0
    4.7456   -3.9095   -4.9185 C   0  0  0  0  0  0  0  0  0  0  0  0
    5.1908   -2.8596   -5.3611 O   0  0  0  0  0  0  0  0  0  0  0  0
    5.1166   -5.1872   -5.5912 C   0  0  0  0  0  0  0  0  0  0  0  0
    5.4178   -6.2889   -4.7667 C   0  0  0  0  0  0  0  0  0  0  0  0
    5.6715   -7.5441   -5.3111 C   0  0  0  0  0  0  0  0  0  0  0  0
    5.6352   -7.7074   -6.6911 C   0  0  0  0  0  0  0  0  0  0  0  0
    5.4085   -6.6063   -7.5225 C   0  0  0  0  0  0  0  0  0  0  0  0
    5.1801   -5.3178   -6.9959 C   0  0  0  0  0  0  0  0  0  0  0  0
    5.0656   -4.1611   -7.9757 C   0  0  0  0  0  0  0  0  0  0  0  0
    3.6845   -3.9131   -8.4306 N   0  0  0  0  0  0  0  0  0  0  0  0
    2.8972   -2.9206   -7.8329 C   0  0  0  0  0  0  0  0  0  0  0  0
    1.6453   -2.5978   -8.1961 C   0  0  0  0  0  0  0  0  0  0  0  0
    1.0953   -3.3560   -9.3243 C   0  0  0  0  0  0  0  0  0  0  0  0
   -0.0623   -3.3051   -9.9048 N   0  0  0  0  0  0  0  0  0  0  0  0
    0.0535   -4.2581  -10.9117 C   0  0  0  0  0  0  0  0  0  0  0  0
    1.1876   -4.8951  -11.0121 N   0  0  0  0  0  0  0  0  0  0  0  0
    1.9205   -4.3631   -9.9937 C   0  0  0  0  0  0  0  0  0  0  0  0
    3.1522   -4.5901   -9.5354 C   0  0  0  0  0  0  0  0  0  0  0  0
    2.6317   -3.3670   -1.8859 C   0  0  0  0  0  0  0  0  0  0  0  0
    2.0193   -2.3722   -1.1017 C   0  0  0  0  0  0  0  0  0  0  0  0
    1.0643    2.2519   -0.6257 H   0  0  0  0  0  0  0  0  0  0  0  0
    1.0839    1.5410   -2.2404 H   0  0  0  0  0  0  0  0  0  0  0  0
    2.5995    1.7704   -1.3432 H   0  0  0  0  0  0  0  0  0  0  0  0
    1.5585    0.9387    1.3732 H   0  0  0  0  0  0  0  0  0  0  0  0
    3.0855    0.3045    0.7428 H   0  0  0  0  0  0  0  0  0  0  0  0
    1.8403   -0.8018    1.3399 H   0  0  0  0  0  0  0  0  0  0  0  0
   -0.6272    0.5810    0.0501 H   0  0  0  0  0  0  0  0  0  0  0  0
   -0.3211   -1.1543    0.0096 H   0  0  0  0  0  0  0  0  0  0  0  0
   -0.5896   -0.2736   -1.5000 H   0  0  0  0  0  0  0  0  0  0  0  0
    2.8641    0.3137   -3.0087 H   0  0  0  0  0  0  0  0  0  0  0  0
    3.9058   -1.3661   -4.3154 H   0  0  0  0  0  0  0  0  0  0  0  0
    3.6687   -4.9967   -3.5290 H   0  0  0  0  0  0  0  0  0  0  0  0
    5.4795   -6.1753   -3.6849 H   0  0  0  0  0  0  0  0  0  0  0  0
    5.8889   -8.3895   -4.6668 H   0  0  0  0  0  0  0  0  0  0  0  0
    5.8058   -8.6891   -7.1250 H   0  0  0  0  0  0  0  0  0  0  0  0
    5.4188   -6.7625   -8.6009 H   0  0  0  0  0  0  0  0  0  0  0  0
    5.6911   -4.3905   -8.8514 H   0  0  0  0  0  0  0  0  0  0  0  0
    5.5263   -3.2483   -7.5866 H   0  0  0  0  0  0  0  0  0  0  0  0
    3.3835   -2.3850   -7.0221 H   0  0  0  0  0  0  0  0  0  0  0  0
    1.0531   -1.8285   -7.7253 H   0  0  0  0  0  0  0  0  0  0  0  0
   -0.7947   -4.4520  -11.5884 H   0  0  0  0  0  0  0  0  0  0  0  0
    3.8014   -5.3169  -10.0096 H   0  0  0  0  0  0  0  0  0  0  0  0
    2.5572   -4.4000   -1.5620 H   0  0  0  0  0  0  0  0  0  0  0  0
    1.4947   -2.6788   -0.1992 H   0  0  0  0  0  0  0  0  0  0  0  0
  1  2  1  0  0  0  0
  1 30  1  0  0  0  0
  1 31  1  0  0  0  0
  1 32  1  0  0  0  0
  2  3  1  0  0  0  0
  2  4  1  0  0  0  0
  2  5  1  0  0  0  0
  3 33  1  0  0  0  0
  3 34  1  0  0  0  0
  3 35  1  0  0  0  0
  4 36  1  0  0  0  0
  4 37  1  0  0  0  0
  4 38  1  0  0  0  0
  5  6  1  0  0  0  0
  5 29  2  0  0  0  0
  6  7  2  0  0  0  0
  6 39  1  0  0  0  0
  7  8  1  0  0  0  0
  7 40  1  0  0  0  0
  8  9  1  0  0  0  0
  8 28  2  0  0  0  0
  9 10  1  0  0  0  0
  9 41  1  0  0  0  0
 10 11  2  0  0  0  0
 10 12  1  0  0  0  0
 12 13  1  0  0  0  0
 12 17  2  0  0  0  0
 13 14  2  0  0  0  0
 13 42  1  0  0  0  0
 14 15  1  0  0  0  0
 14 43  1  0  0  0  0
 15 16  2  0  0  0  0
 15 44  1  0  0  0  0
 16 17  1  0  0  0  0
 16 45  1  0  0  0  0
 17 18  1  0  0  0  0
 18 19  1  0  0  0  0
 18 46  1  0  0  0  0
 18 47  1  0  0  0  0
 19 20  1  0  0  0  0
 19 27  1  0  0  0  0
 20 21  2  0  0  0  0
 20 48  1  0  0  0  0
 21 22  1  0  0  0  0
 21 49  1  0  0  0  0
 22 23  2  0  0  0  0
 22 26  1  0  0  0  0
 23 24  1  0  0  0  0
 24 25  2  0  0  0  0
 24 50  1  0  0  0  0
 25 26  1  0  0  0  0
 26 27  2  0  0  0  0
 27 51  1  0  0  0  0
 28 29  1  0  0  0  0
 28 52  1  0  0  0  0
 29 53  1  0  0  0  0
M  END
$$$$
