CHEMBL452035
 OpenBabel04072215383D

 42 45  0  0  0  0  0  0  0  0999 V2000
    5.1622   -1.8920   -1.2085 N   0  0  0  0  0  0  0  0  0  0  0  0
    4.2734   -0.9281   -0.7294 C   0  0  0  0  0  0  0  0  0  0  0  0
    3.0201   -1.1820   -0.2826 C   0  0  0  0  0  0  0  0  0  0  0  0
    2.4186   -2.5183   -0.2217 C   0  0  0  0  0  0  0  0  0  0  0  0
    2.6111   -3.3076    0.9126 C   0  0  0  0  0  0  0  0  0  0  0  0
    2.0206   -4.5721    0.9927 C   0  0  0  0  0  0  0  0  0  0  0  0
    1.2185   -5.0729   -0.0357 C   0  0  0  0  0  0  0  0  0  0  0  0
    0.5592   -6.3292    0.0554 N   0  0  0  0  0  0  0  0  0  0  0  0
    0.2484   -6.9506    1.2523 C   0  0  0  0  0  0  0  0  0  0  0  0
    0.4122   -6.4398    2.3578 O   0  0  0  0  0  0  0  0  0  0  0  0
   -0.2784   -8.2177    1.0849 N   0  0  0  0  0  0  0  0  0  0  0  0
   -0.6985   -8.9786    2.2101 C   0  0  0  0  0  0  0  0  0  0  0  0
   -1.5159   -8.4197    3.2006 C   0  0  0  0  0  0  0  0  0  0  0  0
   -1.9548   -9.1918    4.2791 C   0  0  0  0  0  0  0  0  0  0  0  0
   -1.5493  -10.5199    4.3913 C   0  0  0  0  0  0  0  0  0  0  0  0
   -0.7035  -11.0643    3.4251 C   0  0  0  0  0  0  0  0  0  0  0  0
   -0.1509  -12.6856    3.5991 Cl  0  0  0  0  0  0  0  0  0  0  0  0
   -0.2925  -10.3093    2.3238 C   0  0  0  0  0  0  0  0  0  0  0  0
    1.0652   -4.3025   -1.1918 C   0  0  0  0  0  0  0  0  0  0  0  0
    1.6555   -3.0241   -1.2769 C   0  0  0  0  0  0  0  0  0  0  0  0
    2.2629    0.0125    0.2193 C   0  0  0  0  0  0  0  0  0  0  0  0
    2.6670    1.2470    0.2384 N   0  0  0  0  0  0  0  0  0  0  0  0
    3.9230    1.4613   -0.2505 C   0  0  0  0  0  0  0  0  0  0  0  0
    4.6614    2.6136   -0.3926 C   0  0  0  0  0  0  0  0  0  0  0  0
    5.8713    2.2039   -0.9710 C   0  0  0  0  0  0  0  0  0  0  0  0
    5.9244    0.8904   -1.1926 N   0  0  0  0  0  0  0  0  0  0  0  0
    4.7269    0.4197   -0.7254 N   0  0  0  0  0  0  0  0  0  0  0  0
    4.7186   -2.7107   -1.6133 H   0  0  0  0  0  0  0  0  0  0  0  0
    5.8901   -1.4737   -1.7937 H   0  0  0  0  0  0  0  0  0  0  0  0
    3.2125   -2.9552    1.7457 H   0  0  0  0  0  0  0  0  0  0  0  0
    2.2163   -5.1504    1.8937 H   0  0  0  0  0  0  0  0  0  0  0  0
    0.0391   -6.6414   -0.7532 H   0  0  0  0  0  0  0  0  0  0  0  0
    0.1038   -8.7371    0.3046 H   0  0  0  0  0  0  0  0  0  0  0  0
   -1.8319   -7.3808    3.1362 H   0  0  0  0  0  0  0  0  0  0  0  0
   -2.6090   -8.7541    5.0295 H   0  0  0  0  0  0  0  0  0  0  0  0
   -1.8882  -11.1190    5.2321 H   0  0  0  0  0  0  0  0  0  0  0  0
    0.3863  -10.7463    1.5979 H   0  0  0  0  0  0  0  0  0  0  0  0
    0.4631   -4.6530   -2.0238 H   0  0  0  0  0  0  0  0  0  0  0  0
    1.4942   -2.4278   -2.1712 H   0  0  0  0  0  0  0  0  0  0  0  0
    1.2553   -0.2060    0.6133 H   0  0  0  0  0  0  0  0  0  0  0  0
    4.3518    3.6105   -0.1171 H   0  0  0  0  0  0  0  0  0  0  0  0
    6.7217    2.8154   -1.2468 H   0  0  0  0  0  0  0  0  0  0  0  0
  1  2  1  0  0  0  0
  1 28  1  0  0  0  0
  1 29  1  0  0  0  0
  2  3  2  0  0  0  0
  2 27  1  0  0  0  0
  3  4  1  0  0  0  0
  3 21  1  0  0  0  0
  4  5  1  0  0  0  0
  4 20  2  0  0  0  0
  5  6  2  0  0  0  0
  5 30  1  0  0  0  0
  6  7  1  0  0  0  0
  6 31  1  0  0  0  0
  7  8  1  0  0  0  0
  7 19  2  0  0  0  0
  8  9  1  0  0  0  0
  8 32  1  0  0  0  0
  9 10  2  0  0  0  0
  9 11  1  0  0  0  0
 11 12  1  0  0  0  0
 11 33  1  0  0  0  0
 12 13  1  0  0  0  0
 12 18  2  0  0  0  0
 13 14  2  0  0  0  0
 13 34  1  0  0  0  0
 14 15  1  0  0  0  0
 14 35  1  0  0  0  0
 15 16  2  0  0  0  0
 15 36  1  0  0  0  0
 16 17  1  0  0  0  0
 16 18  1  0  0  0  0
 18 37  1  0  0  0  0
 19 20  1  0  0  0  0
 19 38  1  0  0  0  0
 20 39  1  0  0  0  0
 21 22  2  0  0  0  0
 21 40  1  0  0  0  0
 22 23  1  0  0  0  0
 23 24  2  0  0  0  0
 23 27  1  0  0  0  0
 24 25  1  0  0  0  0
 24 41  1  0  0  0  0
 25 26  2  0  0  0  0
 25 42  1  0  0  0  0
 26 27  1  0  0  0  0
M  END
$$$$
