CHEMBL385598
 OpenBabel04072215373D

 64 68  0  0  0  0  0  0  0  0999 V2000
    2.7557   -0.6289   -1.6796 C   0  0  0  0  0  0  0  0  0  0  0  0
    2.0654   -1.8984   -1.6211 N   0  0  0  0  0  0  0  0  0  0  0  0
    2.4730   -2.7201   -0.5792 C   0  0  0  0  0  0  0  0  0  0  0  0
    2.4029   -4.0371   -0.8049 N   0  0  0  0  0  0  0  0  0  0  0  0
    2.8106   -4.8441    0.1971 C   0  0  0  0  0  0  0  0  0  0  0  0
    3.3139   -4.3863    1.4047 C   0  0  0  0  0  0  0  0  0  0  0  0
    3.7777   -5.2171    2.4554 C   0  0  0  0  0  0  0  0  0  0  0  0
    4.3733   -4.6754    3.6098 C   0  0  0  0  0  0  0  0  0  0  0  0
    4.9416   -5.5381    4.6885 C   0  0  0  0  0  0  0  0  0  0  0  0
    5.5708   -6.7624    4.3303 C   0  0  0  0  0  0  0  0  0  0  0  0
    6.1483   -7.6052    5.2897 C   0  0  0  0  0  0  0  0  0  0  0  0
    6.7279   -8.9405    4.9753 C   0  0  0  0  0  0  0  0  0  0  0  0
    6.6801   -9.7872    5.8683 O   0  0  0  0  0  0  0  0  0  0  0  0
    7.3283   -9.1051    3.7407 N   0  0  0  0  0  0  0  0  0  0  0  0
    7.9520  -10.2921    3.2643 C   0  0  0  0  0  0  0  0  0  0  0  0
    7.7087  -11.5303    3.8916 C   0  0  0  0  0  0  0  0  0  0  0  0
    8.3727  -12.7071    3.5113 C   0  0  0  0  0  0  0  0  0  0  0  0
    8.0870  -14.0206    4.1921 C   0  0  0  0  0  0  0  0  0  0  0  0
    7.1852  -13.9438    5.2070 F   0  0  0  0  0  0  0  0  0  0  0  0
    7.5992  -14.9520    3.3276 F   0  0  0  0  0  0  0  0  0  0  0  0
    9.2114  -14.5723    4.7309 F   0  0  0  0  0  0  0  0  0  0  0  0
    9.2984  -12.6379    2.4771 C   0  0  0  0  0  0  0  0  0  0  0  0
    9.5497  -11.4263    1.8336 C   0  0  0  0  0  0  0  0  0  0  0  0
    8.8751  -10.2412    2.1924 C   0  0  0  0  0  0  0  0  0  0  0  0
    9.1635   -9.0566    1.4541 N   0  0  0  0  0  0  0  0  0  0  0  0
   10.4634   -8.7743    0.8773 C   0  0  0  0  0  0  0  0  0  0  0  0
   10.1950   -7.7911   -0.2480 C   0  0  0  0  0  0  0  0  0  0  0  0
    8.7988   -7.4620   -0.1179 N   0  0  0  0  0  0  0  0  0  0  0  0
    8.0494   -6.9284   -1.2323 C   0  0  0  0  0  0  0  0  0  0  0  0
    8.1772   -8.2433    0.8617 C   0  0  0  0  0  0  0  0  0  0  0  0
    6.9778   -8.2393    1.1003 O   0  0  0  0  0  0  0  0  0  0  0  0
    6.1350   -7.2248    6.6316 C   0  0  0  0  0  0  0  0  0  0  0  0
    5.5261   -6.0391    7.0172 C   0  0  0  0  0  0  0  0  0  0  0  0
    4.8957   -5.2071    6.0743 C   0  0  0  0  0  0  0  0  0  0  0  0
    4.1727   -4.0080    6.6406 C   0  0  0  0  0  0  0  0  0  0  0  0
    4.4614   -3.2760    3.6554 C   0  0  0  0  0  0  0  0  0  0  0  0
    3.9254   -2.4614    2.6511 C   0  0  0  0  0  0  0  0  0  0  0  0
    3.3644   -3.0001    1.5123 C   0  0  0  0  0  0  0  0  0  0  0  0
    2.9381   -2.1782    0.5517 N   0  0  0  0  0  0  0  0  0  0  0  0
    2.4108   -0.0681   -2.5527 H   0  0  0  0  0  0  0  0  0  0  0  0
    3.8397   -0.7631   -1.7753 H   0  0  0  0  0  0  0  0  0  0  0  0
    2.5465   -0.0122   -0.7971 H   0  0  0  0  0  0  0  0  0  0  0  0
    2.1058   -2.4648   -2.4606 H   0  0  0  0  0  0  0  0  0  0  0  0
    2.7426   -5.9063   -0.0204 H   0  0  0  0  0  0  0  0  0  0  0  0
    3.6870   -6.2956    2.3380 H   0  0  0  0  0  0  0  0  0  0  0  0
    5.5869   -7.0757    3.2883 H   0  0  0  0  0  0  0  0  0  0  0  0
    7.4240   -8.2952    3.1384 H   0  0  0  0  0  0  0  0  0  0  0  0
    6.9752  -11.6097    4.6914 H   0  0  0  0  0  0  0  0  0  0  0  0
    9.8204  -13.5371    2.1483 H   0  0  0  0  0  0  0  0  0  0  0  0
   10.2423  -11.4575    1.0006 H   0  0  0  0  0  0  0  0  0  0  0  0
   10.9748   -9.6534    0.4829 H   0  0  0  0  0  0  0  0  0  0  0  0
   11.0920   -8.3285    1.6563 H   0  0  0  0  0  0  0  0  0  0  0  0
   10.3785   -8.2545   -1.2232 H   0  0  0  0  0  0  0  0  0  0  0  0
   10.7941   -6.8790   -0.1615 H   0  0  0  0  0  0  0  0  0  0  0  0
    8.7307   -6.5697   -2.0097 H   0  0  0  0  0  0  0  0  0  0  0  0
    7.4223   -6.1062   -0.8784 H   0  0  0  0  0  0  0  0  0  0  0  0
    7.4070   -7.7136   -1.6443 H   0  0  0  0  0  0  0  0  0  0  0  0
    6.5828   -7.8649    7.3899 H   0  0  0  0  0  0  0  0  0  0  0  0
    5.5217   -5.7806    8.0753 H   0  0  0  0  0  0  0  0  0  0  0  0
    4.0730   -4.0836    7.7312 H   0  0  0  0  0  0  0  0  0  0  0  0
    3.1585   -3.9397    6.2397 H   0  0  0  0  0  0  0  0  0  0  0  0
    4.7277   -3.0861    6.4572 H   0  0  0  0  0  0  0  0  0  0  0  0
    4.9774   -2.7708    4.4638 H   0  0  0  0  0  0  0  0  0  0  0  0
    3.9855   -1.3803    2.7501 H   0  0  0  0  0  0  0  0  0  0  0  0
  1  2  1  0  0  0  0
  1 40  1  0  0  0  0
  1 41  1  0  0  0  0
  1 42  1  0  0  0  0
  2  3  1  0  0  0  0
  2 43  1  0  0  0  0
  3  4  1  0  0  0  0
  3 39  2  0  0  0  0
  4  5  2  0  0  0  0
  5  6  1  0  0  0  0
  5 44  1  0  0  0  0
  6  7  1  0  0  0  0
  6 38  2  0  0  0  0
  7  8  2  0  0  0  0
  7 45  1  0  0  0  0
  8  9  1  0  0  0  0
  8 36  1  0  0  0  0
  9 10  1  0  0  0  0
  9 34  2  0  0  0  0
 10 11  2  0  0  0  0
 10 46  1  0  0  0  0
 11 12  1  0  0  0  0
 11 32  1  0  0  0  0
 12 13  2  0  0  0  0
 12 14  1  0  0  0  0
 14 15  1  0  0  0  0
 14 47  1  0  0  0  0
 15 16  1  0  0  0  0
 15 24  2  0  0  0  0
 16 17  2  0  0  0  0
 16 48  1  0  0  0  0
 17 18  1  0  0  0  0
 17 22  1  0  0  0  0
 18 19  1  0  0  0  0
 18 20  1  0  0  0  0
 18 21  1  0  0  0  0
 22 23  2  0  0  0  0
 22 49  1  0  0  0  0
 23 24  1  0  0  0  0
 23 50  1  0  0  0  0
 24 25  1  0  0  0  0
 25 26  1  0  0  0  0
 25 30  1  0  0  0  0
 26 27  1  0  0  0  0
 26 51  1  0  0  0  0
 26 52  1  0  0  0  0
 27 28  1  0  0  0  0
 27 53  1  0  0  0  0
 27 54  1  0  0  0  0
 28 29  1  0  0  0  0
 28 30  1  0  0  0  0
 29 55  1  0  0  0  0
 29 56  1  0  0  0  0
 29 57  1  0  0  0  0
 30 31  2  0  0  0  0
 32 33  2  0  0  0  0
 32 58  1  0  0  0  0
 33 34  1  0  0  0  0
 33 59  1  0  0  0  0
 34 35  1  0  0  0  0
 35 60  1  0  0  0  0
 35 61  1  0  0  0  0
 35 62  1  0  0  0  0
 36 37  2  0  0  0  0
 36 63  1  0  0  0  0
 37 38  1  0  0  0  0
 37 64  1  0  0  0  0
 38 39  1  0  0  0  0
M  END
$$$$
