CHEMBL488646
 OpenBabel04072215383D

 63 66  0  0  0  0  0  0  0  0999 V2000
    6.2162   -0.2025   -5.0201 C   0  0  0  0  0  0  0  0  0  0  0  0
    5.5402   -0.8315   -3.9356 O   0  0  0  0  0  0  0  0  0  0  0  0
    4.7211   -0.0364   -3.1735 C   0  0  0  0  0  0  0  0  0  0  0  0
    4.1662    1.1471   -3.6686 C   0  0  0  0  0  0  0  0  0  0  0  0
    3.2900    1.9314   -2.9254 C   0  0  0  0  0  0  0  0  0  0  0  0
    2.7262    3.1824   -3.4587 C   0  0  0  0  0  0  0  0  0  0  0  0
    2.4572    3.5826   -4.7173 C   0  0  0  0  0  0  0  0  0  0  0  0
    2.7651    3.0840   -6.0187 C   0  0  0  0  0  0  0  0  0  0  0  0
    3.9292    3.4799   -6.6517 C   0  0  0  0  0  0  0  0  0  0  0  0
    3.5662    3.7959   -7.9440 N   0  0  0  0  0  0  0  0  0  0  0  0
    4.1526    4.9257   -8.6704 C   0  0  0  0  0  0  0  0  0  0  0  0
    5.4812    4.6580   -9.1095 O   0  0  0  0  0  0  0  0  0  0  0  0
    6.0174    5.6976   -9.9629 C   0  0  0  0  0  0  0  0  0  0  0  0
    6.0847    7.0468   -9.2318 C   0  0  0  0  0  0  0  0  0  0  0  0
    7.4433    5.2789  -10.3486 C   0  0  0  0  0  0  0  0  0  0  0  0
    5.1982    5.8207  -11.2594 C   0  0  0  0  0  0  0  0  0  0  0  0
    2.2857    3.3268   -8.2011 C   0  0  0  0  0  0  0  0  0  0  0  0
    1.4459    3.5011   -9.3176 C   0  0  0  0  0  0  0  0  0  0  0  0
    0.1649    2.9511   -9.2807 C   0  0  0  0  0  0  0  0  0  0  0  0
   -0.2635    2.2278   -8.1748 C   0  0  0  0  0  0  0  0  0  0  0  0
    0.5418    2.1284   -7.0327 C   0  0  0  0  0  0  0  0  0  0  0  0
    1.8261    2.7142   -7.0291 C   0  0  0  0  0  0  0  0  0  0  0  0
    1.8555    4.9562   -4.7830 C   0  0  0  0  0  0  0  0  0  0  0  0
    1.9301    5.3636   -3.4303 N   0  0  0  0  0  0  0  0  0  0  0  0
    2.4272    4.3778   -2.6234 C   0  0  0  0  0  0  0  0  0  0  0  0
    2.6397    4.5135   -1.4315 O   0  0  0  0  0  0  0  0  0  0  0  0
    2.9540    1.4938   -1.6371 C   0  0  0  0  0  0  0  0  0  0  0  0
    3.4657    0.2961   -1.1195 C   0  0  0  0  0  0  0  0  0  0  0  0
    3.1620   -0.1607    0.1427 O   0  0  0  0  0  0  0  0  0  0  0  0
    1.8614    0.1641    0.6236 C   0  0  0  0  0  0  0  0  0  0  0  0
    4.3772   -0.4640   -1.8767 C   0  0  0  0  0  0  0  0  0  0  0  0
    4.8091   -1.6256   -1.2784 O   0  0  0  0  0  0  0  0  0  0  0  0
    6.1364   -2.0381   -1.5738 C   0  0  0  0  0  0  0  0  0  0  0  0
    6.9178   -0.9274   -5.4425 H   0  0  0  0  0  0  0  0  0  0  0  0
    6.7925    0.6628   -4.6738 H   0  0  0  0  0  0  0  0  0  0  0  0
    5.5204    0.0769   -5.8184 H   0  0  0  0  0  0  0  0  0  0  0  0
    4.4160    1.4729   -4.6790 H   0  0  0  0  0  0  0  0  0  0  0  0
    4.8558    3.8712   -6.2495 H   0  0  0  0  0  0  0  0  0  0  0  0
    4.1300    5.7645   -7.9691 H   0  0  0  0  0  0  0  0  0  0  0  0
    3.5006    5.1332   -9.5141 H   0  0  0  0  0  0  0  0  0  0  0  0
    6.7158    6.9742   -8.3391 H   0  0  0  0  0  0  0  0  0  0  0  0
    5.1038    7.3909   -8.8976 H   0  0  0  0  0  0  0  0  0  0  0  0
    6.4953    7.8289   -9.8823 H   0  0  0  0  0  0  0  0  0  0  0  0
    8.0896    5.2095   -9.4671 H   0  0  0  0  0  0  0  0  0  0  0  0
    7.8930    5.9977  -11.0451 H   0  0  0  0  0  0  0  0  0  0  0  0
    7.4489    4.2915  -10.8233 H   0  0  0  0  0  0  0  0  0  0  0  0
    4.1866    6.1934  -11.0779 H   0  0  0  0  0  0  0  0  0  0  0  0
    5.0928    4.8433  -11.7413 H   0  0  0  0  0  0  0  0  0  0  0  0
    5.6648    6.5128  -11.9659 H   0  0  0  0  0  0  0  0  0  0  0  0
    1.7563    4.0741  -10.1853 H   0  0  0  0  0  0  0  0  0  0  0  0
   -0.5017    3.0963  -10.1277 H   0  0  0  0  0  0  0  0  0  0  0  0
   -1.2486    1.7680   -8.1841 H   0  0  0  0  0  0  0  0  0  0  0  0
    0.1723    1.6071   -6.1539 H   0  0  0  0  0  0  0  0  0  0  0  0
    0.8108    4.9410   -5.0962 H   0  0  0  0  0  0  0  0  0  0  0  0
    2.4301    5.6587   -5.3998 H   0  0  0  0  0  0  0  0  0  0  0  0
    1.7868    6.3034   -3.0856 H   0  0  0  0  0  0  0  0  0  0  0  0
    2.2940    2.0984   -1.0260 H   0  0  0  0  0  0  0  0  0  0  0  0
    1.6490   -0.4846    1.4793 H   0  0  0  0  0  0  0  0  0  0  0  0
    1.0913   -0.0227   -0.1332 H   0  0  0  0  0  0  0  0  0  0  0  0
    1.8212    1.1997    0.9764 H   0  0  0  0  0  0  0  0  0  0  0  0
    6.4718   -2.6890   -0.7602 H   0  0  0  0  0  0  0  0  0  0  0  0
    6.8338   -1.1948   -1.6295 H   0  0  0  0  0  0  0  0  0  0  0  0
    6.1566   -2.6359   -2.4894 H   0  0  0  0  0  0  0  0  0  0  0  0
  1  2  1  0  0  0  0
  1 34  1  0  0  0  0
  1 35  1  0  0  0  0
  1 36  1  0  0  0  0
  2  3  1  0  0  0  0
  3  4  1  0  0  0  0
  3 31  2  0  0  0  0
  4  5  2  0  0  0  0
  4 37  1  0  0  0  0
  5  6  1  0  0  0  0
  5 27  1  0  0  0  0
  6  7  2  0  0  0  0
  6 25  1  0  0  0  0
  7  8  1  0  0  0  0
  7 23  1  0  0  0  0
  8  9  2  0  0  0  0
  8 22  1  0  0  0  0
  9 10  1  0  0  0  0
  9 38  1  0  0  0  0
 10 11  1  0  0  0  0
 10 17  1  0  0  0  0
 11 12  1  0  0  0  0
 11 39  1  0  0  0  0
 11 40  1  0  0  0  0
 12 13  1  0  0  0  0
 13 14  1  0  0  0  0
 13 15  1  0  0  0  0
 13 16  1  0  0  0  0
 14 41  1  0  0  0  0
 14 42  1  0  0  0  0
 14 43  1  0  0  0  0
 15 44  1  0  0  0  0
 15 45  1  0  0  0  0
 15 46  1  0  0  0  0
 16 47  1  0  0  0  0
 16 48  1  0  0  0  0
 16 49  1  0  0  0  0
 17 18  1  0  0  0  0
 17 22  2  0  0  0  0
 18 19  2  0  0  0  0
 18 50  1  0  0  0  0
 19 20  1  0  0  0  0
 19 51  1  0  0  0  0
 20 21  2  0  0  0  0
 20 52  1  0  0  0  0
 21 22  1  0  0  0  0
 21 53  1  0  0  0  0
 23 24  1  0  0  0  0
 23 54  1  0  0  0  0
 23 55  1  0  0  0  0
 24 25  1  0  0  0  0
 24 56  1  0  0  0  0
 25 26  2  0  0  0  0
 27 28  2  0  0  0  0
 27 57  1  0  0  0  0
 28 29  1  0  0  0  0
 28 31  1  0  0  0  0
 29 30  1  0  0  0  0
 30 58  1  0  0  0  0
 30 59  1  0  0  0  0
 30 60  1  0  0  0  0
 31 32  1  0  0  0  0
 32 33  1  0  0  0  0
 33 61  1  0  0  0  0
 33 62  1  0  0  0  0
 33 63  1  0  0  0  0
M  END
$$$$
