CHEMBL494072
 OpenBabel04072215383D

 61 65  0  0  0  0  0  0  0  0999 V2000
    2.1848    0.0976    1.2436 C   0  0  0  0  0  0  0  0  0  0  0  0
    0.8221    0.0148    0.6029 C   0  0  0  0  0  0  0  0  0  0  0  0
    0.0812    1.2150    0.5515 C   0  0  0  0  0  0  0  0  0  0  0  0
   -1.1562    1.2805   -0.0853 C   0  0  0  0  0  0  0  0  0  0  0  0
   -1.6957    0.1315   -0.6568 C   0  0  0  0  0  0  0  0  0  0  0  0
   -2.9796    0.1394   -1.4091 C   0  0  0  0  0  0  0  0  0  0  0  0
   -3.1611   -0.6737   -2.3102 O   0  0  0  0  0  0  0  0  0  0  0  0
   -3.9200    1.0726   -1.0155 N   0  0  0  0  0  0  0  0  0  0  0  0
   -5.2047    1.1508   -1.6373 C   0  0  0  0  0  0  0  0  0  0  0  0
   -5.4377    2.0816   -2.7950 C   0  0  0  0  0  0  0  0  0  0  0  0
   -6.0679    2.3702   -1.4645 C   0  0  0  0  0  0  0  0  0  0  0  0
   -0.9796   -1.0721   -0.5854 C   0  0  0  0  0  0  0  0  0  0  0  0
    0.2847   -1.1743    0.0425 C   0  0  0  0  0  0  0  0  0  0  0  0
    0.9682   -2.4997    0.0597 C   0  0  0  0  0  0  0  0  0  0  0  0
    1.6977   -2.9575    1.1664 C   0  0  0  0  0  0  0  0  0  0  0  0
    2.3416   -4.2006    1.1703 C   0  0  0  0  0  0  0  0  0  0  0  0
    2.2216   -5.0762    0.1118 C   0  0  0  0  0  0  0  0  0  0  0  0
    2.8015   -6.2758    0.1937 N   0  0  0  0  0  0  0  0  0  0  0  0
    2.7031   -7.0853   -0.8614 C   0  0  0  0  0  0  0  0  0  0  0  0
    3.4127   -8.2694   -0.7692 N   0  0  0  0  0  0  0  0  0  0  0  0
    3.6614   -8.9745   -2.0160 C   0  0  0  0  0  0  0  0  0  0  0  0
    4.7375   -8.2047   -2.8232 C   0  0  0  0  0  0  0  0  0  0  0  0
    5.2060   -8.8355   -4.0722 N   0  0  0  0  0  0  0  0  0  0  0  0
    5.8446  -10.1490   -3.8617 C   0  0  0  0  0  0  0  0  0  0  0  0
    7.1928  -10.0693   -3.1277 C   0  0  0  0  0  0  0  0  0  0  0  0
    8.1130   -9.2214   -3.8271 O   0  0  0  0  0  0  0  0  0  0  0  0
    7.5679   -7.9082   -4.0099 C   0  0  0  0  0  0  0  0  0  0  0  0
    6.2051   -7.9564   -4.7289 C   0  0  0  0  0  0  0  0  0  0  0  0
    2.0089   -6.7935   -1.9681 N   0  0  0  0  0  0  0  0  0  0  0  0
    1.3979   -5.5962   -2.0086 C   0  0  0  0  0  0  0  0  0  0  0  0
    1.4811   -4.6633   -0.9920 C   0  0  0  0  0  0  0  0  0  0  0  0
    0.8752   -3.3872   -1.0292 C   0  0  0  0  0  0  0  0  0  0  0  0
    2.4969    1.1381    1.3889 H   0  0  0  0  0  0  0  0  0  0  0  0
    2.9446   -0.3725    0.6116 H   0  0  0  0  0  0  0  0  0  0  0  0
    2.1748   -0.3576    2.2371 H   0  0  0  0  0  0  0  0  0  0  0  0
    0.4879    2.1267    0.9900 H   0  0  0  0  0  0  0  0  0  0  0  0
   -1.6668    2.2376   -0.1447 H   0  0  0  0  0  0  0  0  0  0  0  0
   -3.7744    1.5956   -0.1623 H   0  0  0  0  0  0  0  0  0  0  0  0
   -5.7161    0.1906   -1.6756 H   0  0  0  0  0  0  0  0  0  0  0  0
   -6.0731    1.7294   -3.5997 H   0  0  0  0  0  0  0  0  0  0  0  0
   -4.6160    2.7067   -3.1232 H   0  0  0  0  0  0  0  0  0  0  0  0
   -7.1375    2.2215   -1.3689 H   0  0  0  0  0  0  0  0  0  0  0  0
   -5.6838    3.2098   -0.8987 H   0  0  0  0  0  0  0  0  0  0  0  0
   -1.4391   -1.9560   -1.0307 H   0  0  0  0  0  0  0  0  0  0  0  0
    1.7697   -2.3696    2.0740 H   0  0  0  0  0  0  0  0  0  0  0  0
    2.9358   -4.4938    2.0326 H   0  0  0  0  0  0  0  0  0  0  0  0
    3.0264   -8.8102   -0.0065 H   0  0  0  0  0  0  0  0  0  0  0  0
    2.7486   -9.1340   -2.6016 H   0  0  0  0  0  0  0  0  0  0  0  0
    4.0414   -9.9641   -1.7443 H   0  0  0  0  0  0  0  0  0  0  0  0
    5.5737   -7.9940   -2.1452 H   0  0  0  0  0  0  0  0  0  0  0  0
    4.3256   -7.2232   -3.0899 H   0  0  0  0  0  0  0  0  0  0  0  0
    6.0162  -10.5883   -4.8533 H   0  0  0  0  0  0  0  0  0  0  0  0
    5.1680  -10.8406   -3.3512 H   0  0  0  0  0  0  0  0  0  0  0  0
    7.6391  -11.0672   -3.0770 H   0  0  0  0  0  0  0  0  0  0  0  0
    7.0773   -9.7121   -2.0980 H   0  0  0  0  0  0  0  0  0  0  0  0
    8.2816   -7.3374   -4.6125 H   0  0  0  0  0  0  0  0  0  0  0  0
    7.4996   -7.4090   -3.0367 H   0  0  0  0  0  0  0  0  0  0  0  0
    6.3611   -8.3391   -5.7449 H   0  0  0  0  0  0  0  0  0  0  0  0
    5.8075   -6.9396   -4.8496 H   0  0  0  0  0  0  0  0  0  0  0  0
    0.8241   -5.4097   -2.9119 H   0  0  0  0  0  0  0  0  0  0  0  0
    0.3202   -3.1045   -1.9234 H   0  0  0  0  0  0  0  0  0  0  0  0
  1  2  1  0  0  0  0
  1 33  1  0  0  0  0
  1 34  1  0  0  0  0
  1 35  1  0  0  0  0
  2  3  1  0  0  0  0
  2 13  2  0  0  0  0
  3  4  2  0  0  0  0
  3 36  1  0  0  0  0
  4  5  1  0  0  0  0
  4 37  1  0  0  0  0
  5  6  1  0  0  0  0
  5 12  2  0  0  0  0
  6  7  2  0  0  0  0
  6  8  1  0  0  0  0
  8  9  1  0  0  0  0
  8 38  1  0  0  0  0
  9 10  1  0  0  0  0
  9 11  1  0  0  0  0
  9 39  1  0  0  0  0
 10 11  1  0  0  0  0
 10 40  1  0  0  0  0
 10 41  1  0  0  0  0
 11 42  1  0  0  0  0
 11 43  1  0  0  0  0
 12 13  1  0  0  0  0
 12 44  1  0  0  0  0
 13 14  1  0  0  0  0
 14 15  1  0  0  0  0
 14 32  2  0  0  0  0
 15 16  2  0  0  0  0
 15 45  1  0  0  0  0
 16 17  1  0  0  0  0
 16 46  1  0  0  0  0
 17 18  1  0  0  0  0
 17 31  2  0  0  0  0
 18 19  2  0  0  0  0
 19 20  1  0  0  0  0
 19 29  1  0  0  0  0
 20 21  1  0  0  0  0
 20 47  1  0  0  0  0
 21 22  1  0  0  0  0
 21 48  1  0  0  0  0
 21 49  1  0  0  0  0
 22 23  1  0  0  0  0
 22 50  1  0  0  0  0
 22 51  1  0  0  0  0
 23 24  1  0  0  0  0
 23 28  1  0  0  0  0
 24 25  1  0  0  0  0
 24 52  1  0  0  0  0
 24 53  1  0  0  0  0
 25 26  1  0  0  0  0
 25 54  1  0  0  0  0
 25 55  1  0  0  0  0
 26 27  1  0  0  0  0
 27 28  1  0  0  0  0
 27 56  1  0  0  0  0
 27 57  1  0  0  0  0
 28 58  1  0  0  0  0
 28 59  1  0  0  0  0
 29 30  2  0  0  0  0
 30 31  1  0  0  0  0
 30 60  1  0  0  0  0
 31 32  1  0  0  0  0
 32 61  1  0  0  0  0
M  END
$$$$
