CHEMBL590769
 OpenBabel04072215383D

 29 32  0  0  0  0  0  0  0  0999 V2000
    1.1694   -0.6864    0.3438 O   0  0  0  0  0  0  0  0  0  0  0  0
    2.2984   -0.3172    0.0786 C   0  0  0  0  0  0  0  0  0  0  0  0
    3.0346   -0.8614   -1.1555 C   0  0  0  0  0  0  0  0  0  0  0  0
    4.2691   -1.5604   -0.7243 C   0  0  0  0  0  0  0  0  0  0  0  0
    4.5078   -2.9617   -1.1795 C   0  0  0  0  0  0  0  0  0  0  0  0
    5.5743   -3.6696   -0.9614 N   0  0  0  0  0  0  0  0  0  0  0  0
    6.4389   -3.1358   -0.0516 C   0  0  0  0  0  0  0  0  0  0  0  0
    7.6231   -3.5916    0.4737 C   0  0  0  0  0  0  0  0  0  0  0  0
    7.7061   -2.9085    1.6942 C   0  0  0  0  0  0  0  0  0  0  0  0
    6.9439   -1.8113    1.7179 N   0  0  0  0  0  0  0  0  0  0  0  0
    6.2073   -1.9015    0.5736 N   0  0  0  0  0  0  0  0  0  0  0  0
    5.2243   -1.0349    0.0684 C   0  0  0  0  0  0  0  0  0  0  0  0
    5.2688    0.4416    0.2213 C   0  0  0  0  0  0  0  0  0  0  0  0
    6.4467    1.1025   -0.1808 C   0  0  0  0  0  0  0  0  0  0  0  0
    6.5133    2.4954   -0.2261 C   0  0  0  0  0  0  0  0  0  0  0  0
    5.4260    3.2561    0.1954 C   0  0  0  0  0  0  0  0  0  0  0  0
    4.2656    2.6269    0.6368 C   0  0  0  0  0  0  0  0  0  0  0  0
    4.1562    1.2283    0.5713 C   0  0  0  0  0  0  0  0  0  0  0  0
    2.8828    0.6847    0.7911 N   0  0  0  0  0  0  0  0  0  0  0  0
    3.2475   -0.0464   -1.8552 H   0  0  0  0  0  0  0  0  0  0  0  0
    2.3487   -1.5495   -1.6643 H   0  0  0  0  0  0  0  0  0  0  0  0
    3.7124   -3.4046   -1.8026 H   0  0  0  0  0  0  0  0  0  0  0  0
    8.1936   -4.4427    0.1345 H   0  0  0  0  0  0  0  0  0  0  0  0
    8.2946   -3.1724    2.5642 H   0  0  0  0  0  0  0  0  0  0  0  0
    7.3098    0.5329   -0.5230 H   0  0  0  0  0  0  0  0  0  0  0  0
    7.4081    2.9853   -0.6053 H   0  0  0  0  0  0  0  0  0  0  0  0
    5.4726    4.3413    0.1442 H   0  0  0  0  0  0  0  0  0  0  0  0
    3.4110    3.2329    0.9250 H   0  0  0  0  0  0  0  0  0  0  0  0
    2.2348    1.1881    1.3876 H   0  0  0  0  0  0  0  0  0  0  0  0
  1  2  2  0  0  0  0
  2  3  1  0  0  0  0
  2 19  1  0  0  0  0
  3  4  1  0  0  0  0
  3 20  1  0  0  0  0
  3 21  1  0  0  0  0
  4  5  1  0  0  0  0
  4 12  2  0  0  0  0
  5  6  2  0  0  0  0
  5 22  1  0  0  0  0
  6  7  1  0  0  0  0
  7  8  2  0  0  0  0
  7 11  1  0  0  0  0
  8  9  1  0  0  0  0
  8 23  1  0  0  0  0
  9 10  2  0  0  0  0
  9 24  1  0  0  0  0
 10 11  1  0  0  0  0
 11 12  1  0  0  0  0
 12 13  1  0  0  0  0
 13 14  1  0  0  0  0
 13 18  2  0  0  0  0
 14 15  2  0  0  0  0
 14 25  1  0  0  0  0
 15 16  1  0  0  0  0
 15 26  1  0  0  0  0
 16 17  2  0  0  0  0
 16 27  1  0  0  0  0
 17 18  1  0  0  0  0
 17 28  1  0  0  0  0
 18 19  1  0  0  0  0
 19 29  1  0  0  0  0
M  END
$$$$
