CHEMBL3660296
 OpenBabel04072215373D

 55 58  0  0  0  0  0  0  0  0999 V2000
    0.9134   -5.8042   -1.7833 C   0  0  0  0  0  0  0  0  0  0  0  0
    2.2866   -5.8467   -1.3960 O   0  0  0  0  0  0  0  0  0  0  0  0
    2.5211   -6.4571   -0.2026 C   0  0  0  0  0  0  0  0  0  0  0  0
    1.6682   -6.9579    0.5191 O   0  0  0  0  0  0  0  0  0  0  0  0
    3.9328   -6.4340    0.0933 C   0  0  0  0  0  0  0  0  0  0  0  0
    4.9874   -5.8606   -0.5960 C   0  0  0  0  0  0  0  0  0  0  0  0
    6.1899   -6.0773    0.1398 C   0  0  0  0  0  0  0  0  0  0  0  0
    7.5528   -5.6482   -0.1555 C   0  0  0  0  0  0  0  0  0  0  0  0
    7.8014   -4.8114   -1.2335 C   0  0  0  0  0  0  0  0  0  0  0  0
    9.1218   -4.5117   -1.5588 C   0  0  0  0  0  0  0  0  0  0  0  0
    9.4797   -3.7646   -2.6592 O   0  0  0  0  0  0  0  0  0  0  0  0
    8.7335   -3.8996   -3.8123 C   0  0  0  0  0  0  0  0  0  0  0  0
    8.5576   -2.7452   -4.5736 C   0  0  0  0  0  0  0  0  0  0  0  0
    7.7798   -2.7917   -5.7269 C   0  0  0  0  0  0  0  0  0  0  0  0
    7.2023   -3.9976   -6.1296 C   0  0  0  0  0  0  0  0  0  0  0  0
    7.4363   -5.1785   -5.4155 C   0  0  0  0  0  0  0  0  0  0  0  0
    6.9224   -6.4323   -5.8161 N   0  0  0  0  0  0  0  0  0  0  0  0
    6.6031   -6.7490   -7.1212 C   0  0  0  0  0  0  0  0  0  0  0  0
    6.8138   -6.0158   -8.0850 O   0  0  0  0  0  0  0  0  0  0  0  0
    6.0085   -7.9956   -7.2217 N   0  0  0  0  0  0  0  0  0  0  0  0
    5.6290   -8.4739   -8.5010 C   0  0  0  0  0  0  0  0  0  0  0  0
    6.5082   -8.4194   -9.5887 C   0  0  0  0  0  0  0  0  0  0  0  0
    6.0780   -8.7800  -10.8724 C   0  0  0  0  0  0  0  0  0  0  0  0
    7.0150   -8.6986  -12.0415 C   0  0  0  0  0  0  0  0  0  0  0  0
    4.7506   -9.1900  -11.0559 C   0  0  0  0  0  0  0  0  0  0  0  0
    3.8809   -9.2786   -9.9656 C   0  0  0  0  0  0  0  0  0  0  0  0
    4.3315   -8.9465   -8.6949 C   0  0  0  0  0  0  0  0  0  0  0  0
    3.4812   -8.9997   -7.6568 F   0  0  0  0  0  0  0  0  0  0  0  0
    8.2028   -5.1222   -4.2514 C   0  0  0  0  0  0  0  0  0  0  0  0
   10.1479   -4.9515   -0.7364 C   0  0  0  0  0  0  0  0  0  0  0  0
    9.8092   -5.7458    0.3437 C   0  0  0  0  0  0  0  0  0  0  0  0
    8.5437   -6.1210    0.6384 N   0  0  0  0  0  0  0  0  0  0  0  0
    5.8290   -6.8243    1.2441 C   0  0  0  0  0  0  0  0  0  0  0  0
    4.4731   -7.0195    1.2159 N   0  0  0  0  0  0  0  0  0  0  0  0
    0.8708   -5.5366   -2.8433 H   0  0  0  0  0  0  0  0  0  0  0  0
    0.3909   -5.0342   -1.2087 H   0  0  0  0  0  0  0  0  0  0  0  0
    0.4292   -6.7779   -1.6581 H   0  0  0  0  0  0  0  0  0  0  0  0
    4.8841   -5.3248   -1.5311 H   0  0  0  0  0  0  0  0  0  0  0  0
    6.9876   -4.4209   -1.8319 H   0  0  0  0  0  0  0  0  0  0  0  0
    9.0125   -1.8082   -4.2647 H   0  0  0  0  0  0  0  0  0  0  0  0
    7.6191   -1.8943   -6.3187 H   0  0  0  0  0  0  0  0  0  0  0  0
    6.5718   -3.9887   -7.0153 H   0  0  0  0  0  0  0  0  0  0  0  0
    7.0926   -7.2225   -5.2100 H   0  0  0  0  0  0  0  0  0  0  0  0
    5.3502   -8.1986   -6.4781 H   0  0  0  0  0  0  0  0  0  0  0  0
    7.5293   -8.0718   -9.4408 H   0  0  0  0  0  0  0  0  0  0  0  0
    8.0162   -8.3793  -11.7337 H   0  0  0  0  0  0  0  0  0  0  0  0
    6.6434   -7.9767  -12.7757 H   0  0  0  0  0  0  0  0  0  0  0  0
    7.1103   -9.6808  -12.5158 H   0  0  0  0  0  0  0  0  0  0  0  0
    4.3882   -9.4326  -12.0527 H   0  0  0  0  0  0  0  0  0  0  0  0
    2.8482   -9.5800  -10.1079 H   0  0  0  0  0  0  0  0  0  0  0  0
    8.4009   -6.0303   -3.6901 H   0  0  0  0  0  0  0  0  0  0  0  0
   11.1807   -4.6920   -0.9383 H   0  0  0  0  0  0  0  0  0  0  0  0
   10.5722   -6.1234    1.0185 H   0  0  0  0  0  0  0  0  0  0  0  0
    6.4266   -7.2207    2.0543 H   0  0  0  0  0  0  0  0  0  0  0  0
    3.9321   -7.5135    1.9166 H   0  0  0  0  0  0  0  0  0  0  0  0
  1  2  1  0  0  0  0
  1 35  1  0  0  0  0
  1 36  1  0  0  0  0
  1 37  1  0  0  0  0
  2  3  1  0  0  0  0
  3  4  2  0  0  0  0
  3  5  1  0  0  0  0
  5  6  2  0  0  0  0
  5 34  1  0  0  0  0
  6  7  1  0  0  0  0
  6 38  1  0  0  0  0
  7  8  1  0  0  0  0
  7 33  2  0  0  0  0
  8  9  1  0  0  0  0
  8 32  2  0  0  0  0
  9 10  2  0  0  0  0
  9 39  1  0  0  0  0
 10 11  1  0  0  0  0
 10 30  1  0  0  0  0
 11 12  1  0  0  0  0
 12 13  1  0  0  0  0
 12 29  2  0  0  0  0
 13 14  2  0  0  0  0
 13 40  1  0  0  0  0
 14 15  1  0  0  0  0
 14 41  1  0  0  0  0
 15 16  2  0  0  0  0
 15 42  1  0  0  0  0
 16 17  1  0  0  0  0
 16 29  1  0  0  0  0
 17 18  1  0  0  0  0
 17 43  1  0  0  0  0
 18 19  2  0  0  0  0
 18 20  1  0  0  0  0
 20 21  1  0  0  0  0
 20 44  1  0  0  0  0
 21 22  1  0  0  0  0
 21 27  2  0  0  0  0
 22 23  2  0  0  0  0
 22 45  1  0  0  0  0
 23 24  1  0  0  0  0
 23 25  1  0  0  0  0
 24 46  1  0  0  0  0
 24 47  1  0  0  0  0
 24 48  1  0  0  0  0
 25 26  2  0  0  0  0
 25 49  1  0  0  0  0
 26 27  1  0  0  0  0
 26 50  1  0  0  0  0
 27 28  1  0  0  0  0
 29 51  1  0  0  0  0
 30 31  2  0  0  0  0
 30 52  1  0  0  0  0
 31 32  1  0  0  0  0
 31 53  1  0  0  0  0
 33 34  1  0  0  0  0
 33 54  1  0  0  0  0
 34 55  1  0  0  0  0
M  END
$$$$
