CHEMBL1966524
 OpenBabel04072215363D

 49 53  0  0  1  0  0  0  0  0999 V2000
    1.0482   -0.1359   -0.1004 N   0  0  0  0  0  0  0  0  0  0  0  0
    2.5210   -0.1715   -0.0309 C   0  0  3  0  0  0  0  0  0  0  0  0
    3.0992   -1.1831   -1.0445 C   0  0  0  0  0  0  0  0  0  0  0  0
    2.6094   -2.5103   -0.8198 O   0  0  0  0  0  0  0  0  0  0  0  0
    3.1274   -3.4665   -1.6579 C   0  0  0  0  0  0  0  0  0  0  0  0
    2.6484   -4.7595   -1.5024 C   0  0  0  0  0  0  0  0  0  0  0  0
    3.0550   -5.8105   -2.2499 N   0  0  0  0  0  0  0  0  0  0  0  0
    4.0055   -5.5598   -3.1841 C   0  0  0  0  0  0  0  0  0  0  0  0
    4.5828   -4.3097   -3.4223 C   0  0  0  0  0  0  0  0  0  0  0  0
    5.6698   -4.1081   -4.4055 C   0  0  0  0  0  0  0  0  0  0  0  0
    6.6822   -3.1575   -4.4351 C   0  0  0  0  0  0  0  0  0  0  0  0
    7.6130   -3.3382   -5.5229 C   0  0  0  0  0  0  0  0  0  0  0  0
    8.7819   -2.6328   -5.8861 C   0  0  0  0  0  0  0  0  0  0  0  0
    9.4861   -3.0805   -6.9963 C   0  0  0  0  0  0  0  0  0  0  0  0
    9.1291   -4.1412   -7.7421 N   0  0  0  0  0  0  0  0  0  0  0  0
    8.0110   -4.8231   -7.4099 C   0  0  0  0  0  0  0  0  0  0  0  0
    7.2477   -4.4267   -6.3121 C   0  0  0  0  0  0  0  0  0  0  0  0
    5.8004   -5.1539   -5.7578 S   0  0  0  0  0  0  0  0  0  0  0  0
    4.0986   -3.2500   -2.6444 C   0  0  0  0  0  0  0  0  0  0  0  0
    3.1523    1.2071   -0.3317 C   0  0  0  0  0  0  0  0  0  0  0  0
    2.7822    2.2890    0.6298 C   0  0  0  0  0  0  0  0  0  0  0  0
    1.7185    3.1605    0.4963 C   0  0  0  0  0  0  0  0  0  0  0  0
    1.7287    4.0196    1.5581 N   0  0  0  0  0  0  0  0  0  0  0  0
    2.7853    3.7352    2.3897 C   0  0  0  0  0  0  0  0  0  0  0  0
    3.1864    4.3565    3.5781 C   0  0  0  0  0  0  0  0  0  0  0  0
    4.3039    3.8359    4.2354 C   0  0  0  0  0  0  0  0  0  0  0  0
    4.9910    2.7386    3.7221 C   0  0  0  0  0  0  0  0  0  0  0  0
    4.5823    2.1353    2.5264 C   0  0  0  0  0  0  0  0  0  0  0  0
    3.4588    2.6422    1.8420 C   0  0  0  0  0  0  0  0  0  0  0  0
    0.6910   -1.0798    0.0506 H   0  0  0  0  0  0  0  0  0  0  0  0
    0.7478    0.1413   -1.0325 H   0  0  0  0  0  0  0  0  0  0  0  0
    2.7901   -0.4907    0.9832 H   0  0  0  0  0  0  0  0  0  0  0  0
    4.1910   -1.1813   -0.9338 H   0  0  0  0  0  0  0  0  0  0  0  0
    2.8254   -0.8689   -2.0602 H   0  0  0  0  0  0  0  0  0  0  0  0
    1.9058   -4.9992   -0.7482 H   0  0  0  0  0  0  0  0  0  0  0  0
    4.3036   -6.4433   -3.7434 H   0  0  0  0  0  0  0  0  0  0  0  0
    6.7936   -2.3892   -3.6856 H   0  0  0  0  0  0  0  0  0  0  0  0
    9.1344   -1.7730   -5.3261 H   0  0  0  0  0  0  0  0  0  0  0  0
   10.3919   -2.5792   -7.3239 H   0  0  0  0  0  0  0  0  0  0  0  0
    7.7520   -5.6756   -8.0265 H   0  0  0  0  0  0  0  0  0  0  0  0
    4.4961   -2.2580   -2.8271 H   0  0  0  0  0  0  0  0  0  0  0  0
    2.8795    1.5251   -1.3483 H   0  0  0  0  0  0  0  0  0  0  0  0
    4.2475    1.1107   -0.3411 H   0  0  0  0  0  0  0  0  0  0  0  0
    0.9416    3.2186   -0.2546 H   0  0  0  0  0  0  0  0  0  0  0  0
    1.0575    4.7563    1.7171 H   0  0  0  0  0  0  0  0  0  0  0  0
    2.6502    5.2091    3.9806 H   0  0  0  0  0  0  0  0  0  0  0  0
    4.6375    4.2929    5.1642 H   0  0  0  0  0  0  0  0  0  0  0  0
    5.8522    2.3440    4.2554 H   0  0  0  0  0  0  0  0  0  0  0  0
    5.1262    1.2803    2.1381 H   0  0  0  0  0  0  0  0  0  0  0  0
  1  2  1  0  0  0  0
  1 30  1  0  0  0  0
  1 31  1  0  0  0  0
  2  3  1  0  0  0  0
  2 20  1  0  0  0  0
  2 32  1  0  0  0  0
  3  4  1  0  0  0  0
  3 33  1  0  0  0  0
  3 34  1  0  0  0  0
  4  5  1  0  0  0  0
  5  6  1  0  0  0  0
  5 19  2  0  0  0  0
  6  7  2  0  0  0  0
  6 35  1  0  0  0  0
  7  8  1  0  0  0  0
  8  9  2  0  0  0  0
  8 36  1  0  0  0  0
  9 10  1  0  0  0  0
  9 19  1  0  0  0  0
 10 11  2  0  0  0  0
 10 18  1  0  0  0  0
 11 12  1  0  0  0  0
 11 37  1  0  0  0  0
 12 13  1  0  0  0  0
 12 17  2  0  0  0  0
 13 14  2  0  0  0  0
 13 38  1  0  0  0  0
 14 15  1  0  0  0  0
 14 39  1  0  0  0  0
 15 16  2  0  0  0  0
 16 17  1  0  0  0  0
 16 40  1  0  0  0  0
 17 18  1  0  0  0  0
 19 41  1  0  0  0  0
 20 21  1  0  0  0  0
 20 42  1  0  0  0  0
 20 43  1  0  0  0  0
 21 22  2  0  0  0  0
 21 29  1  0  0  0  0
 22 23  1  0  0  0  0
 22 44  1  0  0  0  0
 23 24  1  0  0  0  0
 23 45  1  0  0  0  0
 24 25  1  0  0  0  0
 24 29  2  0  0  0  0
 25 26  2  0  0  0  0
 25 46  1  0  0  0  0
 26 27  1  0  0  0  0
 26 47  1  0  0  0  0
 27 28  2  0  0  0  0
 27 48  1  0  0  0  0
 28 29  1  0  0  0  0
 28 49  1  0  0  0  0
M  END
$$$$
