CHEMBL4585626
 OpenBabel04072215383D

 57 61  0  0  0  0  0  0  0  0999 V2000
   14.1124   -4.4455   -4.6205 C   0  0  0  0  0  0  0  0  0  0  0  0
   13.3914   -4.6919   -5.8276 O   0  0  0  0  0  0  0  0  0  0  0  0
   12.0461   -4.8826   -5.7007 C   0  0  0  0  0  0  0  0  0  0  0  0
   11.2965   -4.3169   -4.6706 C   0  0  0  0  0  0  0  0  0  0  0  0
    9.9205   -4.5314   -4.5846 C   0  0  0  0  0  0  0  0  0  0  0  0
    9.2544   -5.3060   -5.5264 C   0  0  0  0  0  0  0  0  0  0  0  0
    7.8697   -5.5930   -5.4384 N   0  0  0  0  0  0  0  0  0  0  0  0
    7.0898   -5.4453   -4.3032 C   0  0  0  0  0  0  0  0  0  0  0  0
    7.5164   -5.0859   -3.1999 O   0  0  0  0  0  0  0  0  0  0  0  0
    5.6164   -5.7872   -4.4083 C   0  0  0  0  0  0  0  0  0  0  0  0
    5.0696   -6.2094   -5.7457 C   0  0  0  0  0  0  0  0  0  0  0  0
    5.0881   -7.5527   -6.1385 C   0  0  0  0  0  0  0  0  0  0  0  0
    4.5559   -7.9415   -7.3693 C   0  0  0  0  0  0  0  0  0  0  0  0
    3.9878   -6.9913   -8.2310 C   0  0  0  0  0  0  0  0  0  0  0  0
    3.4520   -7.3937   -9.4943 N   0  0  0  0  0  0  0  0  0  0  0  0
    2.8319   -8.5988   -9.7338 C   0  0  0  0  0  0  0  0  0  0  0  0
    2.4045   -8.6673  -11.0280 C   0  0  0  0  0  0  0  0  0  0  0  0
    2.7834   -7.4972  -11.6677 C   0  0  0  0  0  0  0  0  0  0  0  0
    2.5840   -7.1574  -12.9538 N   0  0  0  0  0  0  0  0  0  0  0  0
    3.0883   -5.9673  -13.2684 C   0  0  0  0  0  0  0  0  0  0  0  0
    3.7467   -5.1237  -12.4618 N   0  0  0  0  0  0  0  0  0  0  0  0
    3.9504   -5.4674  -11.1759 C   0  0  0  0  0  0  0  0  0  0  0  0
    4.7013   -4.5533  -10.4536 N   0  0  0  0  0  0  0  0  0  0  0  0
    3.4410   -6.6873  -10.7201 C   0  0  0  0  0  0  0  0  0  0  0  0
    1.6569   -9.9039  -11.3169 C   0  0  0  0  0  0  0  0  0  0  0  0
    1.3356  -10.4103   -9.8739 C   0  0  0  0  0  0  0  0  0  0  0  0
    2.3929   -9.7580   -8.9166 C   0  0  0  0  0  0  0  0  0  0  0  0
    3.9380   -5.6575   -7.8226 C   0  0  0  0  0  0  0  0  0  0  0  0
    4.4992   -5.2639   -6.6049 C   0  0  0  0  0  0  0  0  0  0  0  0
    9.9908   -5.8239   -6.6001 C   0  0  0  0  0  0  0  0  0  0  0  0
   11.3960   -5.6400   -6.6844 C   0  0  0  0  0  0  0  0  0  0  0  0
   12.1399   -6.3159   -7.8147 C   0  0  0  0  0  0  0  0  0  0  0  0
   13.4931   -6.1997   -7.8097 F   0  0  0  0  0  0  0  0  0  0  0  0
   11.8987   -7.6620   -7.8355 F   0  0  0  0  0  0  0  0  0  0  0  0
   11.7354   -5.8637   -9.0370 F   0  0  0  0  0  0  0  0  0  0  0  0
   15.1785   -4.4125   -4.8678 H   0  0  0  0  0  0  0  0  0  0  0  0
   13.9566   -5.2559   -3.9005 H   0  0  0  0  0  0  0  0  0  0  0  0
   13.8532   -3.4757   -4.1854 H   0  0  0  0  0  0  0  0  0  0  0  0
   11.7461   -3.6884   -3.9075 H   0  0  0  0  0  0  0  0  0  0  0  0
    9.3965   -4.0540   -3.7614 H   0  0  0  0  0  0  0  0  0  0  0  0
    7.4508   -6.0549   -6.2372 H   0  0  0  0  0  0  0  0  0  0  0  0
    5.0608   -4.9039   -4.0632 H   0  0  0  0  0  0  0  0  0  0  0  0
    5.4114   -6.5789   -3.6758 H   0  0  0  0  0  0  0  0  0  0  0  0
    5.5071   -8.3123   -5.4772 H   0  0  0  0  0  0  0  0  0  0  0  0
    4.6204   -8.9917   -7.6432 H   0  0  0  0  0  0  0  0  0  0  0  0
    2.9641   -5.6480  -14.2981 H   0  0  0  0  0  0  0  0  0  0  0  0
    5.0939   -3.8701  -11.0945 H   0  0  0  0  0  0  0  0  0  0  0  0
    5.3677   -4.9705   -9.8186 H   0  0  0  0  0  0  0  0  0  0  0  0
    2.2884  -10.6253  -11.8453 H   0  0  0  0  0  0  0  0  0  0  0  0
    0.7422   -9.7296  -11.8876 H   0  0  0  0  0  0  0  0  0  0  0  0
    1.3313  -11.5028   -9.8084 H   0  0  0  0  0  0  0  0  0  0  0  0
    0.3345  -10.0591   -9.5893 H   0  0  0  0  0  0  0  0  0  0  0  0
    3.2164  -10.4576   -8.7490 H   0  0  0  0  0  0  0  0  0  0  0  0
    1.9353   -9.4776   -7.9646 H   0  0  0  0  0  0  0  0  0  0  0  0
    3.4255   -4.8998   -8.4139 H   0  0  0  0  0  0  0  0  0  0  0  0
    4.4597   -4.2129   -6.3213 H   0  0  0  0  0  0  0  0  0  0  0  0
    9.4959   -6.4176   -7.3680 H   0  0  0  0  0  0  0  0  0  0  0  0
  1  2  1  0  0  0  0
  1 36  1  0  0  0  0
  1 37  1  0  0  0  0
  1 38  1  0  0  0  0
  2  3  1  0  0  0  0
  3  4  1  0  0  0  0
  3 31  2  0  0  0  0
  4  5  2  0  0  0  0
  4 39  1  0  0  0  0
  5  6  1  0  0  0  0
  5 40  1  0  0  0  0
  6  7  1  0  0  0  0
  6 30  2  0  0  0  0
  7  8  1  0  0  0  0
  7 41  1  0  0  0  0
  8  9  2  0  0  0  0
  8 10  1  0  0  0  0
 10 11  1  0  0  0  0
 10 42  1  0  0  0  0
 10 43  1  0  0  0  0
 11 12  1  0  0  0  0
 11 29  2  0  0  0  0
 12 13  2  0  0  0  0
 12 44  1  0  0  0  0
 13 14  1  0  0  0  0
 13 45  1  0  0  0  0
 14 15  1  0  0  0  0
 14 28  2  0  0  0  0
 15 16  1  0  0  0  0
 15 24  1  0  0  0  0
 16 17  2  0  0  0  0
 16 27  1  0  0  0  0
 17 18  1  0  0  0  0
 17 25  1  0  0  0  0
 18 19  1  0  0  0  0
 18 24  2  0  0  0  0
 19 20  2  0  0  0  0
 20 21  1  0  0  0  0
 20 46  1  0  0  0  0
 21 22  2  0  0  0  0
 22 23  1  0  0  0  0
 22 24  1  0  0  0  0
 23 47  1  0  0  0  0
 23 48  1  0  0  0  0
 25 26  1  0  0  0  0
 25 49  1  0  0  0  0
 25 50  1  0  0  0  0
 26 27  1  0  0  0  0
 26 51  1  0  0  0  0
 26 52  1  0  0  0  0
 27 53  1  0  0  0  0
 27 54  1  0  0  0  0
 28 29  1  0  0  0  0
 28 55  1  0  0  0  0
 29 56  1  0  0  0  0
 30 31  1  0  0  0  0
 30 57  1  0  0  0  0
 31 32  1  0  0  0  0
 32 33  1  0  0  0  0
 32 34  1  0  0  0  0
 32 35  1  0  0  0  0
M  END
$$$$
