CHEMBL2071210
 OpenBabel04072215363D

 45 48  0  0  1  0  0  0  0  0999 V2000
    1.8405   -9.9997   -5.2265 C   0  0  0  0  0  0  0  0  0  0  0  0
    2.0593   -8.9359   -4.2785 N   0  0  0  0  0  0  0  0  0  0  0  0
    1.4098   -7.7341   -4.2061 C   0  0  0  0  0  0  0  0  0  0  0  0
    1.9919   -7.0622   -3.1642 C   0  0  0  0  0  0  0  0  0  0  0  0
    1.6778   -5.8229   -2.7441 N   0  0  0  0  0  0  0  0  0  0  0  0
    2.1335   -5.1400   -1.6144 C   0  0  0  0  0  0  0  0  0  0  0  0
    1.9859   -3.8086   -1.6542 N   0  0  0  0  0  0  0  0  0  0  0  0
    2.4526   -3.1205   -0.5943 C   0  0  0  0  0  0  0  0  0  0  0  0
    3.0294   -3.7189    0.5020 C   0  0  0  0  0  0  0  0  0  0  0  0
    3.5391   -2.7595    1.8374 Cl  0  0  0  0  0  0  0  0  0  0  0  0
    3.1239   -5.1104    0.4881 C   0  0  0  0  0  0  0  0  0  0  0  0
    3.7407   -5.7606    1.5461 N   0  0  0  0  0  0  0  0  0  0  0  0
    3.7242   -7.1617    1.9564 C   0  0  2  0  0  0  0  0  0  0  0  0
    3.9064   -8.2660    0.8954 C   0  0  1  0  0  0  0  0  0  0  0  0
    4.4843   -9.5138    1.6140 C   0  0  0  0  0  0  0  0  0  0  0  0
    3.2889  -10.0265    2.4411 C   0  0  0  0  0  0  0  0  0  0  0  0
    2.1757   -9.0127    2.1005 C   0  0  2  0  0  0  0  0  0  0  0  0
    2.4855   -8.7668    0.6250 C   0  0  0  0  0  0  0  0  0  0  0  0
    2.5162   -7.6551    2.7729 C   0  0  2  0  0  0  0  0  0  0  0  0
    1.3393   -6.7130    2.9434 C   0  0  0  0  0  0  0  0  0  0  0  0
    0.5436   -6.4522    1.8755 N   0  0  0  0  0  0  0  0  0  0  0  0
    1.0976   -6.1733    4.0222 O   0  0  0  0  0  0  0  0  0  0  0  0
    2.6685   -5.8060   -0.5632 N   0  0  0  0  0  0  0  0  0  0  0  0
    2.9999   -7.9244   -2.6991 C   0  0  0  0  0  0  0  0  0  0  0  0
    3.0325   -9.0814   -3.3622 N   0  0  0  0  0  0  0  0  0  0  0  0
    1.0053   -9.7393   -5.8799 H   0  0  0  0  0  0  0  0  0  0  0  0
    1.6159  -10.9154   -4.6731 H   0  0  0  0  0  0  0  0  0  0  0  0
    2.7548  -10.1225   -5.8131 H   0  0  0  0  0  0  0  0  0  0  0  0
    0.6139   -7.4776   -4.8895 H   0  0  0  0  0  0  0  0  0  0  0  0
    1.1724   -5.1733   -3.3342 H   0  0  0  0  0  0  0  0  0  0  0  0
    2.3433   -2.0406   -0.6586 H   0  0  0  0  0  0  0  0  0  0  0  0
    3.8623   -5.1329    2.3417 H   0  0  0  0  0  0  0  0  0  0  0  0
    4.5980   -7.2211    2.6199 H   0  0  0  0  0  0  0  0  0  0  0  0
    4.5030   -7.9744    0.0329 H   0  0  0  0  0  0  0  0  0  0  0  0
    5.3477   -9.2802    2.2446 H   0  0  0  0  0  0  0  0  0  0  0  0
    4.7939  -10.2750    0.8882 H   0  0  0  0  0  0  0  0  0  0  0  0
    3.5133  -10.0730    3.5113 H   0  0  0  0  0  0  0  0  0  0  0  0
    3.0110  -11.0343    2.1102 H   0  0  0  0  0  0  0  0  0  0  0  0
    1.1704   -9.3848    2.3113 H   0  0  0  0  0  0  0  0  0  0  0  0
    1.8257   -8.0491    0.1472 H   0  0  0  0  0  0  0  0  0  0  0  0
    2.4612   -9.6894    0.0314 H   0  0  0  0  0  0  0  0  0  0  0  0
    2.8519   -7.8619    3.8001 H   0  0  0  0  0  0  0  0  0  0  0  0
   -0.1573   -5.7376    2.0246 H   0  0  0  0  0  0  0  0  0  0  0  0
    0.9093   -6.5256    0.9339 H   0  0  0  0  0  0  0  0  0  0  0  0
    3.7254   -7.7515   -1.9225 H   0  0  0  0  0  0  0  0  0  0  0  0
  1  2  1  0  0  0  0
  1 26  1  0  0  0  0
  1 27  1  0  0  0  0
  1 28  1  0  0  0  0
  2  3  1  0  0  0  0
  2 25  1  0  0  0  0
  3  4  2  0  0  0  0
  3 29  1  0  0  0  0
  4  5  1  0  0  0  0
  4 24  1  0  0  0  0
  5  6  1  0  0  0  0
  5 30  1  0  0  0  0
  6  7  1  0  0  0  0
  6 23  2  0  0  0  0
  7  8  2  0  0  0  0
  8  9  1  0  0  0  0
  8 31  1  0  0  0  0
  9 10  1  0  0  0  0
  9 11  2  0  0  0  0
 11 12  1  0  0  0  0
 11 23  1  0  0  0  0
 12 13  1  0  0  0  0
 12 32  1  0  0  0  0
 13 14  1  0  0  0  0
 13 19  1  0  0  0  0
 13 33  1  1  0  0  0
 14 15  1  0  0  0  0
 14 18  1  0  0  0  0
 14 34  1  6  0  0  0
 15 16  1  0  0  0  0
 15 35  1  0  0  0  0
 15 36  1  0  0  0  0
 16 17  1  0  0  0  0
 16 37  1  0  0  0  0
 16 38  1  0  0  0  0
 17 18  1  0  0  0  0
 17 19  1  0  0  0  0
 17 39  1  1  0  0  0
 18 40  1  0  0  0  0
 18 41  1  0  0  0  0
 19 20  1  0  0  0  0
 19 42  1  1  0  0  0
 20 21  1  0  0  0  0
 20 22  2  0  0  0  0
 21 43  1  0  0  0  0
 21 44  1  0  0  0  0
 24 25  2  0  0  0  0
 24 45  1  0  0  0  0
M  END
$$$$
