CHEMBL2419760
 OpenBabel04072215363D

 43 46  0  0  0  0  0  0  0  0999 V2000
    1.5193    0.6793    2.6671 Cl  0  0  0  0  0  0  0  0  0  0  0  0
    1.1506   -0.2810   -0.5411 C   0  0  0  0  0  0  0  0  0  0  0  0
    0.2452   -1.2373   -0.0892 C   0  0  0  0  0  0  0  0  0  0  0  0
   -1.1229   -0.9336   -0.0245 C   0  0  0  0  0  0  0  0  0  0  0  0
   -1.6086    0.3359   -0.4319 C   0  0  0  0  0  0  0  0  0  0  0  0
   -3.0776    0.6743   -0.3706 C   0  0  0  0  0  0  0  0  0  0  0  0
   -3.8865    0.0013    0.5577 C   0  0  0  0  0  0  0  0  0  0  0  0
   -5.2342    0.2897    0.6583 C   0  0  0  0  0  0  0  0  0  0  0  0
   -5.8270    1.2359   -0.1704 C   0  0  0  0  0  0  0  0  0  0  0  0
   -5.0826    1.9585   -1.1525 C   0  0  0  0  0  0  0  0  0  0  0  0
   -5.6687    2.9415   -2.0759 N   0  0  0  0  0  0  0  0  0  0  0  0
   -7.0661    3.3451   -2.1389 C   0  0  0  0  0  0  0  0  0  0  0  0
   -7.9090    2.8317   -1.2100 N   0  0  0  0  0  0  0  0  0  0  0  0
   -9.2272    3.0864   -1.1370 C   0  0  0  0  0  0  0  0  0  0  0  0
   -9.7981    3.9051   -2.0292 N   0  0  0  0  0  0  0  0  0  0  0  0
   -9.0683    4.4832   -3.0063 C   0  0  0  0  0  0  0  0  0  0  0  0
   -9.7541    5.3107   -3.8990 C   0  0  0  0  0  0  0  0  0  0  0  0
   -9.0494    5.8939   -4.9179 C   0  0  0  0  0  0  0  0  0  0  0  0
   -7.7234    5.7094   -5.0814 C   0  0  0  0  0  0  0  0  0  0  0  0
   -6.9612    4.8919   -4.2035 C   0  0  0  0  0  0  0  0  0  0  0  0
   -7.6476    4.2402   -3.1226 C   0  0  0  0  0  0  0  0  0  0  0  0
   -7.3465    6.4035   -6.1683 O   0  0  0  0  0  0  0  0  0  0  0  0
   -8.4848    7.0254   -6.7043 C   0  0  0  0  0  0  0  0  0  0  0  0
   -9.5379    6.6854   -5.8744 O   0  0  0  0  0  0  0  0  0  0  0  0
   -3.6885    1.6584   -1.2145 C   0  0  0  0  0  0  0  0  0  0  0  0
   -0.6704    1.2837   -0.8857 C   0  0  0  0  0  0  0  0  0  0  0  0
    0.6955    0.9785   -0.9285 C   0  0  0  0  0  0  0  0  0  0  0  0
    2.4369    0.9545    1.6784 H   0  0  0  0  0  0  0  0  0  0  0  0
    2.2087   -0.5135   -0.5804 H   0  0  0  0  0  0  0  0  0  0  0  0
    0.6026   -2.2147    0.2130 H   0  0  0  0  0  0  0  0  0  0  0  0
   -1.7797   -1.7176    0.3245 H   0  0  0  0  0  0  0  0  0  0  0  0
   -3.4862   -0.7385    1.2388 H   0  0  0  0  0  0  0  0  0  0  0  0
   -5.8338   -0.2340    1.3948 H   0  0  0  0  0  0  0  0  0  0  0  0
   -6.8696    1.3346    0.0184 H   0  0  0  0  0  0  0  0  0  0  0  0
   -5.0265    3.3634   -2.7629 H   0  0  0  0  0  0  0  0  0  0  0  0
   -9.8281    2.6241   -0.3673 H   0  0  0  0  0  0  0  0  0  0  0  0
  -10.8196    5.4814   -3.8027 H   0  0  0  0  0  0  0  0  0  0  0  0
   -5.8989    4.7743   -4.3749 H   0  0  0  0  0  0  0  0  0  0  0  0
   -8.6967    6.6554   -7.7314 H   0  0  0  0  0  0  0  0  0  0  0  0
   -8.3742    8.1318   -6.7237 H   0  0  0  0  0  0  0  0  0  0  0  0
   -3.0862    2.1753   -1.9474 H   0  0  0  0  0  0  0  0  0  0  0  0
   -0.9805    2.2741   -1.1800 H   0  0  0  0  0  0  0  0  0  0  0  0
    1.4048    1.7243   -1.2605 H   0  0  0  0  0  0  0  0  0  0  0  0
  1 28  1  0  0  0  0
  2  3  1  0  0  0  0
  2 27  2  0  0  0  0
  2 29  1  0  0  0  0
  3  4  2  0  0  0  0
  3 30  1  0  0  0  0
  4  5  1  0  0  0  0
  4 31  1  0  0  0  0
  5  6  1  0  0  0  0
  5 26  2  0  0  0  0
  6  7  1  0  0  0  0
  6 25  2  0  0  0  0
  7  8  2  0  0  0  0
  7 32  1  0  0  0  0
  8  9  1  0  0  0  0
  8 33  1  0  0  0  0
  9 10  2  0  0  0  0
  9 34  1  0  0  0  0
 10 11  1  0  0  0  0
 10 25  1  0  0  0  0
 11 12  1  0  0  0  0
 11 35  1  0  0  0  0
 12 13  1  0  0  0  0
 12 21  2  0  0  0  0
 13 14  2  0  0  0  0
 14 15  1  0  0  0  0
 14 36  1  0  0  0  0
 15 16  2  0  0  0  0
 16 17  1  0  0  0  0
 16 21  1  0  0  0  0
 17 18  2  0  0  0  0
 17 37  1  0  0  0  0
 18 19  1  0  0  0  0
 18 24  1  0  0  0  0
 19 20  2  0  0  0  0
 19 22  1  0  0  0  0
 20 21  1  0  0  0  0
 20 38  1  0  0  0  0
 22 23  1  0  0  0  0
 23 24  1  0  0  0  0
 23 39  1  0  0  0  0
 23 40  1  0  0  0  0
 25 41  1  0  0  0  0
 26 27  1  0  0  0  0
 26 42  1  0  0  0  0
 27 43  1  0  0  0  0
M  END
$$$$
