CHEMBL1289977
 OpenBabel04072215363D

 38 41  0  0  0  0  0  0  0  0999 V2000
   -3.3605    0.7323    4.7027 C   0  0  0  0  0  0  0  0  0  0  0  0
   -2.7416   -0.4203    4.2283 C   0  0  0  0  0  0  0  0  0  0  0  0
   -2.5813   -0.6082    2.8559 C   0  0  0  0  0  0  0  0  0  0  0  0
   -3.0542    0.3510    1.9380 C   0  0  0  0  0  0  0  0  0  0  0  0
   -2.8671    0.1833    0.4465 C   0  0  0  0  0  0  0  0  0  0  0  0
   -3.4606   -1.0892   -0.1396 C   0  0  0  0  0  0  0  0  0  0  0  0
   -4.9174   -1.1134   -0.2323 N   0  0  0  0  0  0  0  0  0  0  0  0
   -5.5840   -2.3480   -0.4583 C   0  0  0  0  0  0  0  0  0  0  0  0
   -6.9844   -2.3507   -0.3311 C   0  0  0  0  0  0  0  0  0  0  0  0
   -7.6757   -3.5451   -0.1611 C   0  0  0  0  0  0  0  0  0  0  0  0
   -7.1055   -4.7504    0.0462 N   0  0  0  0  0  0  0  0  0  0  0  0
   -5.7596   -4.6917   -0.0170 C   0  0  0  0  0  0  0  0  0  0  0  0
   -4.9505   -5.5822    0.6231 O   0  0  0  0  0  0  0  0  0  0  0  0
   -3.6867   -5.1007    0.4808 C   0  0  0  0  0  0  0  0  0  0  0  0
   -2.5750   -5.3947    1.2707 C   0  0  0  0  0  0  0  0  0  0  0  0
   -1.3764   -4.7862    0.8954 C   0  0  0  0  0  0  0  0  0  0  0  0
   -1.2714   -4.0776   -0.3009 C   0  0  0  0  0  0  0  0  0  0  0  0
   -2.4081   -3.7658   -1.0559 C   0  0  0  0  0  0  0  0  0  0  0  0
   -3.6576   -4.1604   -0.5352 C   0  0  0  0  0  0  0  0  0  0  0  0
   -4.9796   -3.6258   -0.4650 C   0  0  0  0  0  0  0  0  0  0  0  0
   -3.6590    1.5094    2.4358 C   0  0  0  0  0  0  0  0  0  0  0  0
   -3.8130    1.6981    3.8076 C   0  0  0  0  0  0  0  0  0  0  0  0
   -3.4825    0.8825    5.7737 H   0  0  0  0  0  0  0  0  0  0  0  0
   -2.3865   -1.1722    4.9220 H   0  0  0  0  0  0  0  0  0  0  0  0
   -2.0843   -1.5132    2.5047 H   0  0  0  0  0  0  0  0  0  0  0  0
   -1.7819    0.1677    0.2675 H   0  0  0  0  0  0  0  0  0  0  0  0
   -3.2546    1.0532   -0.0921 H   0  0  0  0  0  0  0  0  0  0  0  0
   -3.1150   -1.9070    0.4959 H   0  0  0  0  0  0  0  0  0  0  0  0
   -3.0635   -1.2016   -1.1503 H   0  0  0  0  0  0  0  0  0  0  0  0
   -5.3529   -0.3008   -0.6515 H   0  0  0  0  0  0  0  0  0  0  0  0
   -7.5336   -1.4157   -0.2616 H   0  0  0  0  0  0  0  0  0  0  0  0
   -8.7604   -3.5434   -0.0791 H   0  0  0  0  0  0  0  0  0  0  0  0
   -2.6890   -5.9597    2.1864 H   0  0  0  0  0  0  0  0  0  0  0  0
   -0.5127   -4.8727    1.5474 H   0  0  0  0  0  0  0  0  0  0  0  0
   -0.3064   -3.6747   -0.6079 H   0  0  0  0  0  0  0  0  0  0  0  0
   -2.3341   -3.1450   -1.9377 H   0  0  0  0  0  0  0  0  0  0  0  0
   -4.0147    2.2768    1.7495 H   0  0  0  0  0  0  0  0  0  0  0  0
   -4.2839    2.6020    4.1785 H   0  0  0  0  0  0  0  0  0  0  0  0
  1  2  1  0  0  0  0
  1 22  2  0  0  0  0
  1 23  1  0  0  0  0
  2  3  2  0  0  0  0
  2 24  1  0  0  0  0
  3  4  1  0  0  0  0
  3 25  1  0  0  0  0
  4  5  1  0  0  0  0
  4 21  2  0  0  0  0
  5  6  1  0  0  0  0
  5 26  1  0  0  0  0
  5 27  1  0  0  0  0
  6  7  1  0  0  0  0
  6 28  1  0  0  0  0
  6 29  1  0  0  0  0
  7  8  1  0  0  0  0
  7 30  1  0  0  0  0
  8  9  1  0  0  0  0
  8 20  2  0  0  0  0
  9 10  2  0  0  0  0
  9 31  1  0  0  0  0
 10 11  1  0  0  0  0
 10 32  1  0  0  0  0
 11 12  2  0  0  0  0
 12 13  1  0  0  0  0
 12 20  1  0  0  0  0
 13 14  1  0  0  0  0
 14 15  1  0  0  0  0
 14 19  2  0  0  0  0
 15 16  2  0  0  0  0
 15 33  1  0  0  0  0
 16 17  1  0  0  0  0
 16 34  1  0  0  0  0
 17 18  2  0  0  0  0
 17 35  1  0  0  0  0
 18 19  1  0  0  0  0
 18 36  1  0  0  0  0
 19 20  1  0  0  0  0
 21 22  1  0  0  0  0
 21 37  1  0  0  0  0
 22 38  1  0  0  0  0
M  END
$$$$
