CHEMBL3753534
 OpenBabel04072215373D

 57 61  0  0  0  0  0  0  0  0999 V2000
    3.3308    0.5948   -1.2451 O   0  0  0  0  0  0  0  0  0  0  0  0
    2.4945    0.5100   -0.3497 C   0  0  0  0  0  0  0  0  0  0  0  0
    2.9572    0.3874    1.1110 C   0  0  0  0  0  0  0  0  0  0  0  0
    2.0156    1.0177    2.0688 N   0  0  0  0  0  0  0  0  0  0  0  0
    1.9111    2.4915    1.8572 C   0  0  0  0  0  0  0  0  0  0  0  0
    3.1540    3.3111    2.2853 C   0  0  0  0  0  0  0  0  0  0  0  0
    3.3754    3.0333    3.7030 N   0  0  0  0  0  0  0  0  0  0  0  0
    3.6456    4.0007    4.6513 C   0  0  0  0  0  0  0  0  0  0  0  0
    4.5770    3.7264    5.5864 N   0  0  0  0  0  0  0  0  0  0  0  0
    4.9077    4.6303    6.5770 N   0  0  0  0  0  0  0  0  0  0  0  0
    4.3528    5.8609    6.6038 C   0  0  0  0  0  0  0  0  0  0  0  0
    4.7544    6.6842    7.7775 C   0  0  0  0  0  0  0  0  0  0  0  0
    6.0427    6.5748    8.3343 C   0  0  0  0  0  0  0  0  0  0  0  0
    6.4490    7.3733    9.4119 C   0  0  0  0  0  0  0  0  0  0  0  0
    5.5795    8.3147    9.9532 C   0  0  0  0  0  0  0  0  0  0  0  0
    4.2851    8.4130    9.4605 C   0  0  0  0  0  0  0  0  0  0  0  0
    3.8707    7.5779    8.4182 C   0  0  0  0  0  0  0  0  0  0  0  0
    3.4156    6.2418    5.6132 C   0  0  0  0  0  0  0  0  0  0  0  0
    2.8734    7.5541    5.4760 C   0  0  0  0  0  0  0  0  0  0  0  0
    1.8256    7.8504    4.6061 C   0  0  0  0  0  0  0  0  0  0  0  0
    1.2754    6.8405    3.8491 C   0  0  0  0  0  0  0  0  0  0  0  0
    1.8373    5.5685    3.9086 C   0  0  0  0  0  0  0  0  0  0  0  0
    2.9758    5.2504    4.7034 C   0  0  0  0  0  0  0  0  0  0  0  0
    3.6997    1.6280    3.9604 C   0  0  0  0  0  0  0  0  0  0  0  0
    2.4935    0.7696    3.4701 C   0  0  0  0  0  0  0  0  0  0  0  0
    1.1189    0.5019   -0.5052 N   0  0  0  0  0  0  0  0  0  0  0  0
    0.4156    0.5944   -1.7228 C   0  0  0  0  0  0  0  0  0  0  0  0
    1.0151    0.3668   -2.9663 C   0  0  0  0  0  0  0  0  0  0  0  0
    0.2746    0.4835   -4.1483 C   0  0  0  0  0  0  0  0  0  0  0  0
   -1.0665    0.8381   -4.0903 C   0  0  0  0  0  0  0  0  0  0  0  0
   -1.9693    1.0112   -5.5459 Cl  0  0  0  0  0  0  0  0  0  0  0  0
   -1.6833    1.0552   -2.8598 C   0  0  0  0  0  0  0  0  0  0  0  0
   -0.9469    0.9203   -1.6768 C   0  0  0  0  0  0  0  0  0  0  0  0
    3.9620    0.8159    1.1865 H   0  0  0  0  0  0  0  0  0  0  0  0
    3.0281   -0.6868    1.3165 H   0  0  0  0  0  0  0  0  0  0  0  0
    1.0466    2.8204    2.4493 H   0  0  0  0  0  0  0  0  0  0  0  0
    1.6529    2.7339    0.8220 H   0  0  0  0  0  0  0  0  0  0  0  0
    3.0149    4.3676    2.0459 H   0  0  0  0  0  0  0  0  0  0  0  0
    4.0306    3.0078    1.6996 H   0  0  0  0  0  0  0  0  0  0  0  0
    6.7508    5.8518    7.9305 H   0  0  0  0  0  0  0  0  0  0  0  0
    7.4487    7.2597    9.8237 H   0  0  0  0  0  0  0  0  0  0  0  0
    5.9025    8.9560   10.7688 H   0  0  0  0  0  0  0  0  0  0  0  0
    3.5903    9.1320    9.8872 H   0  0  0  0  0  0  0  0  0  0  0  0
    2.8282    7.6424    8.1137 H   0  0  0  0  0  0  0  0  0  0  0  0
    3.2744    8.3796    6.0556 H   0  0  0  0  0  0  0  0  0  0  0  0
    1.4259    8.8588    4.5533 H   0  0  0  0  0  0  0  0  0  0  0  0
    0.4279    7.0324    3.1985 H   0  0  0  0  0  0  0  0  0  0  0  0
    1.3454    4.7987    3.3250 H   0  0  0  0  0  0  0  0  0  0  0  0
    3.8698    1.4153    5.0216 H   0  0  0  0  0  0  0  0  0  0  0  0
    4.6133    1.3474    3.4196 H   0  0  0  0  0  0  0  0  0  0  0  0
    1.6474    0.9817    4.1374 H   0  0  0  0  0  0  0  0  0  0  0  0
    2.7199   -0.2949    3.6080 H   0  0  0  0  0  0  0  0  0  0  0  0
    0.5995    0.5870    0.3637 H   0  0  0  0  0  0  0  0  0  0  0  0
    2.0577    0.0777   -3.0508 H   0  0  0  0  0  0  0  0  0  0  0  0
    0.7639    0.3059   -5.1031 H   0  0  0  0  0  0  0  0  0  0  0  0
   -2.7338    1.3328   -2.8151 H   0  0  0  0  0  0  0  0  0  0  0  0
   -1.4434    1.1049   -0.7288 H   0  0  0  0  0  0  0  0  0  0  0  0
  1  2  2  0  0  0  0
  2  3  1  0  0  0  0
  2 26  1  0  0  0  0
  3  4  1  0  0  0  0
  3 34  1  0  0  0  0
  3 35  1  0  0  0  0
  4  5  1  0  0  0  0
  4 25  1  0  0  0  0
  5  6  1  0  0  0  0
  5 36  1  0  0  0  0
  5 37  1  0  0  0  0
  6  7  1  0  0  0  0
  6 38  1  0  0  0  0
  6 39  1  0  0  0  0
  7  8  1  0  0  0  0
  7 24  1  0  0  0  0
  8  9  1  0  0  0  0
  8 23  2  0  0  0  0
  9 10  2  0  0  0  0
 10 11  1  0  0  0  0
 11 12  1  0  0  0  0
 11 18  2  0  0  0  0
 12 13  1  0  0  0  0
 12 17  2  0  0  0  0
 13 14  2  0  0  0  0
 13 40  1  0  0  0  0
 14 15  1  0  0  0  0
 14 41  1  0  0  0  0
 15 16  2  0  0  0  0
 15 42  1  0  0  0  0
 16 17  1  0  0  0  0
 16 43  1  0  0  0  0
 17 44  1  0  0  0  0
 18 19  1  0  0  0  0
 18 23  1  0  0  0  0
 19 20  2  0  0  0  0
 19 45  1  0  0  0  0
 20 21  1  0  0  0  0
 20 46  1  0  0  0  0
 21 22  2  0  0  0  0
 21 47  1  0  0  0  0
 22 23  1  0  0  0  0
 22 48  1  0  0  0  0
 24 25  1  0  0  0  0
 24 49  1  0  0  0  0
 24 50  1  0  0  0  0
 25 51  1  0  0  0  0
 25 52  1  0  0  0  0
 26 27  1  0  0  0  0
 26 53  1  0  0  0  0
 27 28  1  0  0  0  0
 27 33  2  0  0  0  0
 28 29  2  0  0  0  0
 28 54  1  0  0  0  0
 29 30  1  0  0  0  0
 29 55  1  0  0  0  0
 30 31  1  0  0  0  0
 30 32  2  0  0  0  0
 32 33  1  0  0  0  0
 32 56  1  0  0  0  0
 33 57  1  0  0  0  0
M  END
$$$$
