CHEMBL194498
 OpenBabel04072215363D

 51 54  0  0  0  0  0  0  0  0999 V2000
   -1.0065    6.0533   -8.3481 C   0  0  0  0  0  0  0  0  0  0  0  0
   -1.4698    5.5251   -7.1069 O   0  0  0  0  0  0  0  0  0  0  0  0
   -0.3805    4.8963   -6.4556 N   0  0  0  0  0  0  0  0  0  0  0  0
    0.3131    5.7073   -5.5842 C   0  0  0  0  0  0  0  0  0  0  0  0
    0.1985    6.9284   -5.5205 O   0  0  0  0  0  0  0  0  0  0  0  0
    1.2864    5.0403   -4.6900 C   0  0  0  0  0  0  0  0  0  0  0  0
    2.3898    5.7888   -4.2519 C   0  0  0  0  0  0  0  0  0  0  0  0
    3.2952    5.2642   -3.3240 C   0  0  0  0  0  0  0  0  0  0  0  0
    4.4076    5.9932   -2.8625 N   0  0  0  0  0  0  0  0  0  0  0  0
    5.0433    7.0330   -3.5001 C   0  0  0  0  0  0  0  0  0  0  0  0
    5.1148    7.0090   -4.8032 N   0  0  0  0  0  0  0  0  0  0  0  0
    5.7987    7.9784   -5.4769 C   0  0  0  0  0  0  0  0  0  0  0  0
    6.4181    8.9836   -4.9568 N   0  0  0  0  0  0  0  0  0  0  0  0
    6.3340    9.0407   -3.6192 N   0  0  0  0  0  0  0  0  0  0  0  0
    6.8823   10.0382   -2.8716 C   0  0  0  0  0  0  0  0  0  0  0  0
    6.5789    9.7979   -1.5536 C   0  0  0  0  0  0  0  0  0  0  0  0
    7.0317   10.7071   -0.4507 C   0  0  0  0  0  0  0  0  0  0  0  0
    6.8349   10.4826    0.8351 N   0  0  0  0  0  0  0  0  0  0  0  0
    7.3708   11.5394    1.5304 N   0  0  0  0  0  0  0  0  0  0  0  0
    7.8712   12.3539    0.6277 C   0  0  0  0  0  0  0  0  0  0  0  0
    8.5476   13.6587    0.8260 C   0  0  0  0  0  0  0  0  0  0  0  0
    9.8323   13.6381    0.3749 F   0  0  0  0  0  0  0  0  0  0  0  0
    7.9229   14.6626    0.1499 F   0  0  0  0  0  0  0  0  0  0  0  0
    7.7096   11.8916   -0.6529 O   0  0  0  0  0  0  0  0  0  0  0  0
    5.7716    8.5985   -1.4907 C   0  0  0  0  0  0  0  0  0  0  0  0
    5.1430    8.0718   -0.2128 C   0  0  0  0  0  0  0  0  0  0  0  0
    3.6166    8.0238   -0.2597 C   0  0  0  0  0  0  0  0  0  0  0  0
    5.7791    6.7884    0.3159 C   0  0  0  0  0  0  0  0  0  0  0  0
    5.6823    8.1387   -2.8154 C   0  0  0  0  0  0  0  0  0  0  0  0
    3.0875    3.9486   -2.8799 C   0  0  0  0  0  0  0  0  0  0  0  0
    3.9374    3.4127   -1.9904 F   0  0  0  0  0  0  0  0  0  0  0  0
    2.0185    3.1789   -3.3312 C   0  0  0  0  0  0  0  0  0  0  0  0
    1.1201    3.7335   -4.2351 C   0  0  0  0  0  0  0  0  0  0  0  0
    0.0805    2.9913   -4.6446 F   0  0  0  0  0  0  0  0  0  0  0  0
   -1.8436    6.5516   -8.8436 H   0  0  0  0  0  0  0  0  0  0  0  0
   -0.6435    5.2460   -8.9914 H   0  0  0  0  0  0  0  0  0  0  0  0
   -0.2129    6.7905   -8.1876 H   0  0  0  0  0  0  0  0  0  0  0  0
   -0.5097    3.9089   -6.2565 H   0  0  0  0  0  0  0  0  0  0  0  0
    2.5125    6.8073   -4.6182 H   0  0  0  0  0  0  0  0  0  0  0  0
    4.6493    5.7943   -1.9064 H   0  0  0  0  0  0  0  0  0  0  0  0
    5.8242    7.8703   -6.5743 H   0  0  0  0  0  0  0  0  0  0  0  0
    7.4347   10.8343   -3.3511 H   0  0  0  0  0  0  0  0  0  0  0  0
    8.5673   13.9299    1.8865 H   0  0  0  0  0  0  0  0  0  0  0  0
    5.3375    8.8015    0.5766 H   0  0  0  0  0  0  0  0  0  0  0  0
    3.2287    7.3711   -1.0412 H   0  0  0  0  0  0  0  0  0  0  0  0
    3.2116    9.0268   -0.4413 H   0  0  0  0  0  0  0  0  0  0  0  0
    3.2129    7.6764    0.6976 H   0  0  0  0  0  0  0  0  0  0  0  0
    5.5693    5.9105   -0.2923 H   0  0  0  0  0  0  0  0  0  0  0  0
    5.4081    6.5729    1.3247 H   0  0  0  0  0  0  0  0  0  0  0  0
    6.8681    6.8893    0.3794 H   0  0  0  0  0  0  0  0  0  0  0  0
    1.8832    2.1643   -2.9718 H   0  0  0  0  0  0  0  0  0  0  0  0
  1  2  1  0  0  0  0
  1 35  1  0  0  0  0
  1 36  1  0  0  0  0
  1 37  1  0  0  0  0
  2  3  1  0  0  0  0
  3  4  1  0  0  0  0
  3 38  1  0  0  0  0
  4  5  2  0  0  0  0
  4  6  1  0  0  0  0
  6  7  1  0  0  0  0
  6 33  2  0  0  0  0
  7  8  2  0  0  0  0
  7 39  1  0  0  0  0
  8  9  1  0  0  0  0
  8 30  1  0  0  0  0
  9 10  1  0  0  0  0
  9 40  1  0  0  0  0
 10 11  2  0  0  0  0
 10 29  1  0  0  0  0
 11 12  1  0  0  0  0
 12 13  2  0  0  0  0
 12 41  1  0  0  0  0
 13 14  1  0  0  0  0
 14 15  1  0  0  0  0
 14 29  1  0  0  0  0
 15 16  2  0  0  0  0
 15 42  1  0  0  0  0
 16 17  1  0  0  0  0
 16 25  1  0  0  0  0
 17 18  2  0  0  0  0
 17 24  1  0  0  0  0
 18 19  1  0  0  0  0
 19 20  2  0  0  0  0
 20 21  1  0  0  0  0
 20 24  1  0  0  0  0
 21 22  1  0  0  0  0
 21 23  1  0  0  0  0
 21 43  1  0  0  0  0
 25 26  1  0  0  0  0
 25 29  2  0  0  0  0
 26 27  1  0  0  0  0
 26 28  1  0  0  0  0
 26 44  1  0  0  0  0
 27 45  1  0  0  0  0
 27 46  1  0  0  0  0
 27 47  1  0  0  0  0
 28 48  1  0  0  0  0
 28 49  1  0  0  0  0
 28 50  1  0  0  0  0
 30 31  1  0  0  0  0
 30 32  2  0  0  0  0
 32 33  1  0  0  0  0
 32 51  1  0  0  0  0
 33 34  1  0  0  0  0
M  END
$$$$
