CHEMBL223486
 OpenBabel04072215363D

 37 39  0  0  0  0  0  0  0  0999 V2000
    9.0465   -7.5534   -0.8343 C   0  0  0  0  0  0  0  0  0  0  0  0
    8.3481   -6.5835   -0.0552 O   0  0  0  0  0  0  0  0  0  0  0  0
    7.6980   -5.7119   -0.9373 N   0  0  0  0  0  0  0  0  0  0  0  0
    7.0366   -4.8115   -0.2772 C   0  0  0  0  0  0  0  0  0  0  0  0
    6.2759   -3.7701   -0.9902 C   0  0  0  0  0  0  0  0  0  0  0  0
    5.8506   -3.9468   -2.3053 C   0  0  0  0  0  0  0  0  0  0  0  0
    5.9329   -5.1717   -2.9682 N   0  0  0  0  0  0  0  0  0  0  0  0
    5.2139   -2.9907   -3.0030 N   0  0  0  0  0  0  0  0  0  0  0  0
    5.0239   -1.8264   -2.3793 C   0  0  0  0  0  0  0  0  0  0  0  0
    5.3914   -1.5471   -1.1289 N   0  0  0  0  0  0  0  0  0  0  0  0
    5.9805   -2.5426   -0.4289 C   0  0  0  0  0  0  0  0  0  0  0  0
    6.2977   -2.2960    0.9095 O   0  0  0  0  0  0  0  0  0  0  0  0
    5.5947   -1.2800    1.5408 C   0  0  0  0  0  0  0  0  0  0  0  0
    4.2069   -1.1553    1.4156 C   0  0  0  0  0  0  0  0  0  0  0  0
    3.5216   -0.0727    1.9683 C   0  0  0  0  0  0  0  0  0  0  0  0
    4.2627    0.8456    2.7139 C   0  0  0  0  0  0  0  0  0  0  0  0
    3.8537    2.0011    3.3369 N   0  0  0  0  0  0  0  0  0  0  0  0
    4.8982    2.5810    4.0097 C   0  0  0  0  0  0  0  0  0  0  0  0
    4.7229    3.8255    4.7983 C   0  0  0  0  0  0  0  0  0  0  0  0
    6.0135    1.7957    3.7821 C   0  0  0  0  0  0  0  0  0  0  0  0
    5.6321    0.7084    2.9411 C   0  0  0  0  0  0  0  0  0  0  0  0
    6.3140   -0.3805    2.3452 C   0  0  0  0  0  0  0  0  0  0  0  0
    9.6899   -8.1385   -0.1726 H   0  0  0  0  0  0  0  0  0  0  0  0
    9.6726   -7.0635   -1.5881 H   0  0  0  0  0  0  0  0  0  0  0  0
    8.3349   -8.2262   -1.3241 H   0  0  0  0  0  0  0  0  0  0  0  0
    7.0380   -4.7916    0.8272 H   0  0  0  0  0  0  0  0  0  0  0  0
    6.8332   -5.6247   -2.8057 H   0  0  0  0  0  0  0  0  0  0  0  0
    5.6892   -5.0498   -3.9446 H   0  0  0  0  0  0  0  0  0  0  0  0
    4.5091   -1.0468   -2.9288 H   0  0  0  0  0  0  0  0  0  0  0  0
    3.6437   -1.8774    0.8316 H   0  0  0  0  0  0  0  0  0  0  0  0
    2.4563    0.0500    1.8053 H   0  0  0  0  0  0  0  0  0  0  0  0
    2.9111    2.3624    3.3004 H   0  0  0  0  0  0  0  0  0  0  0  0
    3.6998    4.2095    4.7213 H   0  0  0  0  0  0  0  0  0  0  0  0
    5.4013    4.6064    4.4413 H   0  0  0  0  0  0  0  0  0  0  0  0
    4.9328    3.6398    5.8565 H   0  0  0  0  0  0  0  0  0  0  0  0
    7.0047    1.9869    4.1720 H   0  0  0  0  0  0  0  0  0  0  0  0
    7.3841   -0.4961    2.4850 H   0  0  0  0  0  0  0  0  0  0  0  0
  1  2  1  0  0  0  0
  1 23  1  0  0  0  0
  1 24  1  0  0  0  0
  1 25  1  0  0  0  0
  2  3  1  0  0  0  0
  3  4  2  0  0  0  0
  4  5  1  0  0  0  0
  4 26  1  0  0  0  0
  5  6  1  0  0  0  0
  5 11  2  0  0  0  0
  6  7  1  0  0  0  0
  6  8  2  0  0  0  0
  7 27  1  0  0  0  0
  7 28  1  0  0  0  0
  8  9  1  0  0  0  0
  9 10  2  0  0  0  0
  9 29  1  0  0  0  0
 10 11  1  0  0  0  0
 11 12  1  0  0  0  0
 12 13  1  0  0  0  0
 13 14  1  0  0  0  0
 13 22  2  0  0  0  0
 14 15  2  0  0  0  0
 14 30  1  0  0  0  0
 15 16  1  0  0  0  0
 15 31  1  0  0  0  0
 16 17  1  0  0  0  0
 16 21  2  0  0  0  0
 17 18  1  0  0  0  0
 17 32  1  0  0  0  0
 18 19  1  0  0  0  0
 18 20  2  0  0  0  0
 19 33  1  0  0  0  0
 19 34  1  0  0  0  0
 19 35  1  0  0  0  0
 20 21  1  0  0  0  0
 20 36  1  0  0  0  0
 21 22  1  0  0  0  0
 22 37  1  0  0  0  0
M  END
$$$$
