CHEMBL2071276
 OpenBabel04072215363D

 55 59  0  0  1  0  0  0  0  0999 V2000
    2.6858    1.0785   -0.1542 N   0  0  0  0  0  0  0  0  0  0  0  0
    3.7213    1.8786    0.2534 C   0  0  0  0  0  0  0  0  0  0  0  0
    3.6111    2.5753    1.2559 O   0  0  0  0  0  0  0  0  0  0  0  0
    4.9037    1.9180   -0.6911 C   0  0  1  0  0  0  0  0  0  0  0  0
    6.0287    2.8939   -0.2260 C   0  0  2  0  0  0  0  0  0  0  0  0
    6.9503    3.1383   -1.4076 C   0  0  0  0  0  0  0  0  0  0  0  0
    7.6332    2.0012   -1.6205 C   0  0  0  0  0  0  0  0  0  0  0  0
    7.1589    0.9967   -0.5823 C   0  0  1  0  0  0  0  0  0  0  0  0
    6.9737    1.9894    0.5668 C   0  0  0  0  0  0  0  0  0  0  0  0
    5.6998    0.6056   -0.9648 C   0  0  1  0  0  0  0  0  0  0  0  0
    5.2657   -0.6742   -0.4118 N   0  0  0  0  0  0  0  0  0  0  0  0
    5.2071   -1.0185    0.9289 C   0  0  0  0  0  0  0  0  0  0  0  0
    5.0168   -0.0483    1.8312 N   0  0  0  0  0  0  0  0  0  0  0  0
    4.8930   -0.3582    3.1359 C   0  0  0  0  0  0  0  0  0  0  0  0
    4.5752    0.7022    3.9872 N   0  0  0  0  0  0  0  0  0  0  0  0
    3.9074    0.6454    5.1608 C   0  0  0  0  0  0  0  0  0  0  0  0
    3.4777   -0.4790    5.8930 C   0  0  0  0  0  0  0  0  0  0  0  0
    2.6765   -0.1454    6.9089 N   0  0  0  0  0  0  0  0  0  0  0  0
    2.4963    1.1880    6.7393 N   0  0  0  0  0  0  0  0  0  0  0  0
    1.1733    1.7165    7.0732 C   0  0  2  0  0  0  0  0  0  0  0  0
    0.2969    1.8108    5.8105 C   0  0  0  0  0  0  0  0  0  0  0  0
    0.4383    3.1549    5.1007 C   0  0  0  0  0  0  0  0  0  0  0  0
    0.2053    4.3016    6.0749 C   0  0  0  0  0  0  0  0  0  0  0  0
    1.1832    4.2683    7.1625 N   0  0  0  0  0  0  0  0  0  0  0  0
    1.1377    3.0054    7.9135 C   0  0  0  0  0  0  0  0  0  0  0  0
    3.3931    1.7231    5.8441 C   0  0  0  0  0  0  0  0  0  0  0  0
    5.0180   -1.6106    3.5874 N   0  0  0  0  0  0  0  0  0  0  0  0
    5.2482   -2.5750    2.6765 C   0  0  0  0  0  0  0  0  0  0  0  0
    5.3268   -2.3412    1.3260 C   0  0  0  0  0  0  0  0  0  0  0  0
    5.5754   -3.6395    0.2270 Cl  0  0  0  0  0  0  0  0  0  0  0  0
    1.9345    0.9717    0.5153 H   0  0  0  0  0  0  0  0  0  0  0  0
    2.8688    0.2925   -0.7575 H   0  0  0  0  0  0  0  0  0  0  0  0
    4.4930    2.2905   -1.6416 H   0  0  0  0  0  0  0  0  0  0  0  0
    5.7203    3.7958    0.3042 H   0  0  0  0  0  0  0  0  0  0  0  0
    7.0263    4.0597   -1.9653 H   0  0  0  0  0  0  0  0  0  0  0  0
    8.3655    1.8161   -2.3911 H   0  0  0  0  0  0  0  0  0  0  0  0
    7.8539    0.1780   -0.3906 H   0  0  0  0  0  0  0  0  0  0  0  0
    7.9109    2.4844    0.8599 H   0  0  0  0  0  0  0  0  0  0  0  0
    6.5351    1.5867    1.4738 H   0  0  0  0  0  0  0  0  0  0  0  0
    5.6749    0.4453   -2.0519 H   0  0  0  0  0  0  0  0  0  0  0  0
    4.6456   -1.2269   -0.9950 H   0  0  0  0  0  0  0  0  0  0  0  0
    4.5228    1.5474    3.4191 H   0  0  0  0  0  0  0  0  0  0  0  0
    3.6583   -1.5273    5.7025 H   0  0  0  0  0  0  0  0  0  0  0  0
    0.7301    0.9354    7.7087 H   0  0  0  0  0  0  0  0  0  0  0  0
   -0.7518    1.6830    6.1043 H   0  0  0  0  0  0  0  0  0  0  0  0
    0.5244    0.9990    5.1082 H   0  0  0  0  0  0  0  0  0  0  0  0
   -0.2815    3.2099    4.2770 H   0  0  0  0  0  0  0  0  0  0  0  0
    1.4301    3.2527    4.6450 H   0  0  0  0  0  0  0  0  0  0  0  0
   -0.8159    4.2568    6.4735 H   0  0  0  0  0  0  0  0  0  0  0  0
    0.3000    5.2535    5.5417 H   0  0  0  0  0  0  0  0  0  0  0  0
    0.9891    5.0404    7.8031 H   0  0  0  0  0  0  0  0  0  0  0  0
    0.1990    3.0018    8.4856 H   0  0  0  0  0  0  0  0  0  0  0  0
    1.9461    3.0048    8.6533 H   0  0  0  0  0  0  0  0  0  0  0  0
    3.4433    2.7886    5.6672 H   0  0  0  0  0  0  0  0  0  0  0  0
    5.3602   -3.5737    3.0876 H   0  0  0  0  0  0  0  0  0  0  0  0
  1  2  1  0  0  0  0
  1 31  1  0  0  0  0
  1 32  1  0  0  0  0
  2  3  2  0  0  0  0
  2  4  1  0  0  0  0
  4  5  1  0  0  0  0
  4 10  1  0  0  0  0
  4 33  1  6  0  0  0
  5  6  1  0  0  0  0
  5  9  1  0  0  0  0
  5 34  1  1  0  0  0
  6  7  2  0  0  0  0
  6 35  1  0  0  0  0
  7  8  1  0  0  0  0
  7 36  1  0  0  0  0
  8  9  1  0  0  0  0
  8 10  1  0  0  0  0
  8 37  1  1  0  0  0
  9 38  1  0  0  0  0
  9 39  1  0  0  0  0
 10 11  1  0  0  0  0
 10 40  1  6  0  0  0
 11 12  1  0  0  0  0
 11 41  1  0  0  0  0
 12 13  1  0  0  0  0
 12 29  2  0  0  0  0
 13 14  2  0  0  0  0
 14 15  1  0  0  0  0
 14 27  1  0  0  0  0
 15 16  1  0  0  0  0
 15 42  1  0  0  0  0
 16 17  1  0  0  0  0
 16 26  2  0  0  0  0
 17 18  2  0  0  0  0
 17 43  1  0  0  0  0
 18 19  1  0  0  0  0
 19 20  1  0  0  0  0
 19 26  1  0  0  0  0
 20 21  1  0  0  0  0
 20 25  1  0  0  0  0
 20 44  1  1  0  0  0
 21 22  1  0  0  0  0
 21 45  1  0  0  0  0
 21 46  1  0  0  0  0
 22 23  1  0  0  0  0
 22 47  1  0  0  0  0
 22 48  1  0  0  0  0
 23 24  1  0  0  0  0
 23 49  1  0  0  0  0
 23 50  1  0  0  0  0
 24 25  1  0  0  0  0
 24 51  1  0  0  0  0
 25 52  1  0  0  0  0
 25 53  1  0  0  0  0
 26 54  1  0  0  0  0
 27 28  2  0  0  0  0
 28 29  1  0  0  0  0
 28 55  1  0  0  0  0
 29 30  1  0  0  0  0
M  END
$$$$
