CHEMBL4573547
 OpenBabel04072215383D

 48 50  0  0  0  0  0  0  0  0999 V2000
    6.8677    3.0990  -10.1098 C   0  0  0  0  0  0  0  0  0  0  0  0
    8.2861    2.9339   -9.5916 C   0  0  0  0  0  0  0  0  0  0  0  0
    8.3028    3.3828   -8.2321 O   0  0  0  0  0  0  0  0  0  0  0  0
    8.4710    4.7158   -8.0581 C   0  0  0  0  0  0  0  0  0  0  0  0
    8.9327    5.5008   -8.8690 O   0  0  0  0  0  0  0  0  0  0  0  0
    7.8542    5.1195   -6.7674 C   0  0  0  0  0  0  0  0  0  0  0  0
    7.8422    6.4766   -6.4303 C   0  0  0  0  0  0  0  0  0  0  0  0
    7.2048    6.8994   -5.2612 C   0  0  0  0  0  0  0  0  0  0  0  0
    6.5499    5.9825   -4.4258 C   0  0  0  0  0  0  0  0  0  0  0  0
    5.9845    6.3649   -3.1832 N   0  0  0  0  0  0  0  0  0  0  0  0
    5.3187    7.5957   -2.9651 C   0  0  0  0  0  0  0  0  0  0  0  0
    5.2481    8.1064   -1.6850 C   0  0  0  0  0  0  0  0  0  0  0  0
    4.5523    9.2824   -1.5347 C   0  0  0  0  0  0  0  0  0  0  0  0
    3.9337    9.9123   -2.5448 N   0  0  0  0  0  0  0  0  0  0  0  0
    4.0038    9.3156   -3.7414 C   0  0  0  0  0  0  0  0  0  0  0  0
    3.1761   10.1030   -5.1006 S   0  0  0  0  0  0  0  0  0  0  0  0
    2.8434    8.6398   -6.1397 C   0  0  0  0  0  0  0  0  0  0  0  0
    1.9524    7.6288   -5.4336 C   0  0  0  0  0  0  0  0  0  0  0  0
    1.0945    7.9600   -4.6134 O   0  0  0  0  0  0  0  0  0  0  0  0
    2.0637    6.1737   -5.7777 C   0  0  0  0  0  0  0  0  0  0  0  0
    2.8841    5.6790   -6.7990 C   0  0  0  0  0  0  0  0  0  0  0  0
    2.9603    4.2987   -7.0376 C   0  0  0  0  0  0  0  0  0  0  0  0
    2.2105    3.4030   -6.2680 C   0  0  0  0  0  0  0  0  0  0  0  0
    2.3139    1.9932   -6.4988 C   0  0  0  0  0  0  0  0  0  0  0  0
    2.4103    0.8484   -6.6829 N   0  0  0  0  0  0  0  0  0  0  0  0
    1.3691    3.8909   -5.2675 C   0  0  0  0  0  0  0  0  0  0  0  0
    1.2969    5.2664   -5.0269 C   0  0  0  0  0  0  0  0  0  0  0  0
    4.6862    8.1885   -3.9937 N   0  0  0  0  0  0  0  0  0  0  0  0
    6.5943    4.6245   -4.7524 C   0  0  0  0  0  0  0  0  0  0  0  0
    7.2250    4.1955   -5.9218 C   0  0  0  0  0  0  0  0  0  0  0  0
    6.7701    2.7234  -11.1303 H   0  0  0  0  0  0  0  0  0  0  0  0
    6.5674    4.1525  -10.0897 H   0  0  0  0  0  0  0  0  0  0  0  0
    6.1627    2.5646   -9.4625 H   0  0  0  0  0  0  0  0  0  0  0  0
    9.0126    3.4697  -10.2118 H   0  0  0  0  0  0  0  0  0  0  0  0
    8.5638    1.8752   -9.5908 H   0  0  0  0  0  0  0  0  0  0  0  0
    8.3192    7.2114   -7.0767 H   0  0  0  0  0  0  0  0  0  0  0  0
    7.2200    7.9583   -5.0123 H   0  0  0  0  0  0  0  0  0  0  0  0
    6.6873    6.2132   -2.4634 H   0  0  0  0  0  0  0  0  0  0  0  0
    5.7250    7.6294   -0.8393 H   0  0  0  0  0  0  0  0  0  0  0  0
    4.4612    9.7624   -0.5644 H   0  0  0  0  0  0  0  0  0  0  0  0
    3.8012    8.2113   -6.4398 H   0  0  0  0  0  0  0  0  0  0  0  0
    2.3180    8.9740   -7.0402 H   0  0  0  0  0  0  0  0  0  0  0  0
    3.4821    6.3331   -7.4260 H   0  0  0  0  0  0  0  0  0  0  0  0
    3.6156    3.9287   -7.8252 H   0  0  0  0  0  0  0  0  0  0  0  0
    0.7703    3.2128   -4.6617 H   0  0  0  0  0  0  0  0  0  0  0  0
    0.6390    5.6290   -4.2373 H   0  0  0  0  0  0  0  0  0  0  0  0
    6.1086    3.8928   -4.1105 H   0  0  0  0  0  0  0  0  0  0  0  0
    7.2058    3.1357   -6.1655 H   0  0  0  0  0  0  0  0  0  0  0  0
  1  2  1  0  0  0  0
  1 31  1  0  0  0  0
  1 32  1  0  0  0  0
  1 33  1  0  0  0  0
  2  3  1  0  0  0  0
  2 34  1  0  0  0  0
  2 35  1  0  0  0  0
  3  4  1  0  0  0  0
  4  5  2  0  0  0  0
  4  6  1  0  0  0  0
  6  7  1  0  0  0  0
  6 30  2  0  0  0  0
  7  8  2  0  0  0  0
  7 36  1  0  0  0  0
  8  9  1  0  0  0  0
  8 37  1  0  0  0  0
  9 10  1  0  0  0  0
  9 29  2  0  0  0  0
 10 11  1  0  0  0  0
 10 38  1  0  0  0  0
 11 12  1  0  0  0  0
 11 28  2  0  0  0  0
 12 13  2  0  0  0  0
 12 39  1  0  0  0  0
 13 14  1  0  0  0  0
 13 40  1  0  0  0  0
 14 15  2  0  0  0  0
 15 16  1  0  0  0  0
 15 28  1  0  0  0  0
 16 17  1  0  0  0  0
 17 18  1  0  0  0  0
 17 41  1  0  0  0  0
 17 42  1  0  0  0  0
 18 19  2  0  0  0  0
 18 20  1  0  0  0  0
 20 21  1  0  0  0  0
 20 27  2  0  0  0  0
 21 22  2  0  0  0  0
 21 43  1  0  0  0  0
 22 23  1  0  0  0  0
 22 44  1  0  0  0  0
 23 24  1  0  0  0  0
 23 26  2  0  0  0  0
 24 25  3  0  0  0  0
 26 27  1  0  0  0  0
 26 45  1  0  0  0  0
 27 46  1  0  0  0  0
 29 30  1  0  0  0  0
 29 47  1  0  0  0  0
 30 48  1  0  0  0  0
M  END
$$$$
