CHEMBL3808921
 OpenBabel04072215373D

 57 62  0  0  1  0  0  0  0  0999 V2000
    4.5294   -1.5869    1.9743 C   0  0  0  0  0  0  0  0  0  0  0  0
    4.0863   -0.7235    0.7966 C   0  0  1  0  0  0  0  0  0  0  0  0
    4.4270    0.7534    1.0654 C   0  0  0  0  0  0  0  0  0  0  0  0
    4.2313    1.6032   -0.1515 C   0  0  0  0  0  0  0  0  0  0  0  0
    4.1434    1.0501   -1.4203 C   0  0  0  0  0  0  0  0  0  0  0  0
    3.9866    1.7987   -2.5342 N   0  0  0  0  0  0  0  0  0  0  0  0
    3.9202    3.1244   -2.3558 C   0  0  0  0  0  0  0  0  0  0  0  0
    4.0161    3.7637   -1.1870 N   0  0  0  0  0  0  0  0  0  0  0  0
    4.2106    2.9816   -0.1071 C   0  0  0  0  0  0  0  0  0  0  0  0
    4.4113    3.5805    1.1325 O   0  0  0  0  0  0  0  0  0  0  0  0
    5.1301    4.7565    1.1633 C   0  0  0  0  0  0  0  0  0  0  0  0
    6.1450    5.0549    0.2529 C   0  0  0  0  0  0  0  0  0  0  0  0
    6.8020    6.2796    0.2865 C   0  0  0  0  0  0  0  0  0  0  0  0
    6.4396    7.1931    1.2838 C   0  0  0  0  0  0  0  0  0  0  0  0
    5.5082    6.8787    2.2754 C   0  0  0  0  0  0  0  0  0  0  0  0
    5.4892    7.9678    3.1880 C   0  0  0  0  0  0  0  0  0  0  0  0
    6.4212    8.8847    2.7546 C   0  0  0  0  0  0  0  0  0  0  0  0
    6.9388    8.4620    1.5475 N   0  0  0  0  0  0  0  0  0  0  0  0
    7.9175    9.1175    0.7891 C   0  0  0  0  0  0  0  0  0  0  0  0
    8.8935    9.5717    1.3620 O   0  0  0  0  0  0  0  0  0  0  0  0
    7.5479    9.2376   -0.5388 N   0  0  0  0  0  0  0  0  0  0  0  0
    8.4070    9.9556   -1.3580 C   0  0  0  0  0  0  0  0  0  0  0  0
    9.7787    9.6887   -1.5959 C   0  0  0  0  0  0  0  0  0  0  0  0
   10.2198   10.7566   -2.3441 C   0  0  0  0  0  0  0  0  0  0  0  0
   11.6553   11.0453   -2.8471 C   0  0  0  0  0  0  0  0  0  0  0  0
   11.8833   12.3701   -3.5550 C   0  0  0  0  0  0  0  0  0  0  0  0
   10.7668   13.1229   -3.6722 F   0  0  0  0  0  0  0  0  0  0  0  0
   12.8005   13.1176   -2.8905 F   0  0  0  0  0  0  0  0  0  0  0  0
   12.3635   12.1697   -4.8079 F   0  0  0  0  0  0  0  0  0  0  0  0
   12.4668    9.8250   -3.3212 C   0  0  0  0  0  0  0  0  0  0  0  0
   12.8279   10.4654   -2.0327 C   0  0  0  0  0  0  0  0  0  0  0  0
    9.1473   11.5675   -2.5919 O   0  0  0  0  0  0  0  0  0  0  0  0
    7.9997   11.0218   -2.0416 N   0  0  0  0  0  0  0  0  0  0  0  0
    4.8344    5.6417    2.2087 C   0  0  0  0  0  0  0  0  0  0  0  0
    4.1839   -0.4556   -1.5953 C   0  0  0  0  0  0  0  0  0  0  0  0
    4.7353   -1.1908   -0.4398 N   0  0  0  0  0  0  0  0  0  0  0  0
    4.0228   -1.2663    2.8913 H   0  0  0  0  0  0  0  0  0  0  0  0
    5.6091   -1.5153    2.1450 H   0  0  0  0  0  0  0  0  0  0  0  0
    4.2791   -2.6398    1.8064 H   0  0  0  0  0  0  0  0  0  0  0  0
    2.9988   -0.8370    0.6893 H   0  0  0  0  0  0  0  0  0  0  0  0
    5.4732    0.8491    1.3846 H   0  0  0  0  0  0  0  0  0  0  0  0
    3.7914    1.1187    1.8816 H   0  0  0  0  0  0  0  0  0  0  0  0
    3.7915    3.7376   -3.2409 H   0  0  0  0  0  0  0  0  0  0  0  0
    6.4256    4.3494   -0.5246 H   0  0  0  0  0  0  0  0  0  0  0  0
    7.5771    6.4969   -0.4429 H   0  0  0  0  0  0  0  0  0  0  0  0
    4.8894    8.0507    4.0849 H   0  0  0  0  0  0  0  0  0  0  0  0
    6.7344    9.8339    3.1781 H   0  0  0  0  0  0  0  0  0  0  0  0
    6.5691    9.3864   -0.7177 H   0  0  0  0  0  0  0  0  0  0  0  0
   10.3507    8.8467   -1.2412 H   0  0  0  0  0  0  0  0  0  0  0  0
   13.1504    9.9533   -4.1565 H   0  0  0  0  0  0  0  0  0  0  0  0
   12.0209    8.8377   -3.2939 H   0  0  0  0  0  0  0  0  0  0  0  0
   13.7625   11.0208   -1.9986 H   0  0  0  0  0  0  0  0  0  0  0  0
   12.6398    9.9157   -1.1178 H   0  0  0  0  0  0  0  0  0  0  0  0
    4.0930    5.3749    2.9581 H   0  0  0  0  0  0  0  0  0  0  0  0
    4.7905   -0.6948   -2.4767 H   0  0  0  0  0  0  0  0  0  0  0  0
    3.1662   -0.8098   -1.7977 H   0  0  0  0  0  0  0  0  0  0  0  0
    5.7370   -1.0031   -0.3904 H   0  0  0  0  0  0  0  0  0  0  0  0
  1  2  1  0  0  0  0
  1 37  1  0  0  0  0
  1 38  1  0  0  0  0
  1 39  1  0  0  0  0
  2  3  1  0  0  0  0
  2 36  1  0  0  0  0
  2 40  1  6  0  0  0
  3  4  1  0  0  0  0
  3 41  1  0  0  0  0
  3 42  1  0  0  0  0
  4  5  1  0  0  0  0
  4  9  2  0  0  0  0
  5  6  2  0  0  0  0
  5 35  1  0  0  0  0
  6  7  1  0  0  0  0
  7  8  2  0  0  0  0
  7 43  1  0  0  0  0
  8  9  1  0  0  0  0
  9 10  1  0  0  0  0
 10 11  1  0  0  0  0
 11 12  1  0  0  0  0
 11 34  2  0  0  0  0
 12 13  2  0  0  0  0
 12 44  1  0  0  0  0
 13 14  1  0  0  0  0
 13 45  1  0  0  0  0
 14 15  2  0  0  0  0
 14 18  1  0  0  0  0
 15 16  1  0  0  0  0
 15 34  1  0  0  0  0
 16 17  2  0  0  0  0
 16 46  1  0  0  0  0
 17 18  1  0  0  0  0
 17 47  1  0  0  0  0
 18 19  1  0  0  0  0
 19 20  2  0  0  0  0
 19 21  1  0  0  0  0
 21 22  1  0  0  0  0
 21 48  1  0  0  0  0
 22 23  1  0  0  0  0
 22 33  2  0  0  0  0
 23 24  2  0  0  0  0
 23 49  1  0  0  0  0
 24 25  1  0  0  0  0
 24 32  1  0  0  0  0
 25 26  1  0  0  0  0
 25 30  1  0  0  0  0
 25 31  1  0  0  0  0
 26 27  1  0  0  0  0
 26 28  1  0  0  0  0
 26 29  1  0  0  0  0
 30 31  1  0  0  0  0
 30 50  1  0  0  0  0
 30 51  1  0  0  0  0
 31 52  1  0  0  0  0
 31 53  1  0  0  0  0
 32 33  1  0  0  0  0
 34 54  1  0  0  0  0
 35 36  1  0  0  0  0
 35 55  1  0  0  0  0
 35 56  1  0  0  0  0
 36 57  1  0  0  0  0
M  END
$$$$
