CHEMBL1084453
 OpenBabel04072215363D

 76 81  0  0  0  0  0  0  0  0999 V2000
    6.3205   -0.5790   -7.8300 C   0  0  0  0  0  0  0  0  0  0  0  0
    6.4813    0.5564   -6.9135 N   0  0  0  0  0  0  0  0  0  0  0  0
    7.7666    0.4337   -6.2330 C   0  0  0  0  0  0  0  0  0  0  0  0
    6.2921    1.8272   -7.6528 C   0  0  0  0  0  0  0  0  0  0  0  0
    6.3394    3.2127   -6.9126 C   0  0  0  0  0  0  0  0  0  0  0  0
    5.9474    4.2996   -7.9521 C   0  0  0  0  0  0  0  0  0  0  0  0
    5.2581    3.2330   -5.8135 C   0  0  0  0  0  0  0  0  0  0  0  0
    7.7785    3.5515   -6.4112 C   0  0  0  0  0  0  0  0  0  0  0  0
    7.8541    4.8084   -5.6848 N   0  0  0  0  0  0  0  0  0  0  0  0
    7.6987    4.7547   -4.3109 C   0  0  0  0  0  0  0  0  0  0  0  0
    7.4388    3.5946   -3.6938 N   0  0  0  0  0  0  0  0  0  0  0  0
    7.0988    3.6468   -2.3993 C   0  0  0  0  0  0  0  0  0  0  0  0
    6.9911    4.8181   -1.6928 C   0  0  0  0  0  0  0  0  0  0  0  0
    7.3181    5.9735   -2.3761 C   0  0  0  0  0  0  0  0  0  0  0  0
    7.1435    7.3382   -1.8388 C   0  0  0  0  0  0  0  0  0  0  0  0
    6.8576    8.3865   -2.7413 C   0  0  0  0  0  0  0  0  0  0  0  0
    6.6210    9.6860   -2.3062 C   0  0  0  0  0  0  0  0  0  0  0  0
    6.7143    9.9347   -0.9573 C   0  0  0  0  0  0  0  0  0  0  0  0
    7.0212    8.9870   -0.0538 N   0  0  0  0  0  0  0  0  0  0  0  0
    7.1870    7.7066   -0.4880 C   0  0  0  0  0  0  0  0  0  0  0  0
    7.4175    6.7285    0.4818 O   0  0  0  0  0  0  0  0  0  0  0  0
    6.9697    6.9690    1.7743 C   0  0  0  0  0  0  0  0  0  0  0  0
    5.7404    7.5857    2.0089 C   0  0  0  0  0  0  0  0  0  0  0  0
    5.3867    7.9665    3.2959 C   0  0  0  0  0  0  0  0  0  0  0  0
    6.2107    7.6766    4.3896 C   0  0  0  0  0  0  0  0  0  0  0  0
    5.9394    8.2450    5.6707 N   0  0  0  0  0  0  0  0  0  0  0  0
    5.3297    9.4430    5.8692 C   0  0  0  0  0  0  0  0  0  0  0  0
    4.8229   10.3057    5.0158 N   0  0  0  0  0  0  0  0  0  0  0  0
    4.3665   11.3617    5.7613 C   0  0  0  0  0  0  0  0  0  0  0  0
    3.7489   12.5518    5.3512 C   0  0  0  0  0  0  0  0  0  0  0  0
    3.3454   13.4691    6.3297 C   0  0  0  0  0  0  0  0  0  0  0  0
    3.5576   13.2077    7.6862 C   0  0  0  0  0  0  0  0  0  0  0  0
    4.1888   12.0325    8.1123 C   0  0  0  0  0  0  0  0  0  0  0  0
    4.5798   11.1376    7.1147 C   0  0  0  0  0  0  0  0  0  0  0  0
    5.2094    9.9207    7.1521 N   0  0  0  0  0  0  0  0  0  0  0  0
    7.3210    6.7983    4.1926 C   0  0  0  0  0  0  0  0  0  0  0  0
    8.0387    6.2016    5.2610 C   0  0  0  0  0  0  0  0  0  0  0  0
    9.1554    5.3938    5.0455 C   0  0  0  0  0  0  0  0  0  0  0  0
    9.6082    5.1814    3.7536 C   0  0  0  0  0  0  0  0  0  0  0  0
    8.9088    5.7274    2.6763 C   0  0  0  0  0  0  0  0  0  0  0  0
    7.7393    6.4983    2.8637 C   0  0  0  0  0  0  0  0  0  0  0  0
    7.7114    5.9236   -3.6762 N   0  0  0  0  0  0  0  0  0  0  0  0
    6.4425   -1.5289   -7.2953 H   0  0  0  0  0  0  0  0  0  0  0  0
    7.0511   -0.5527   -8.6470 H   0  0  0  0  0  0  0  0  0  0  0  0
    5.3130   -0.5949   -8.2575 H   0  0  0  0  0  0  0  0  0  0  0  0
    8.0096   -0.6073   -5.9909 H   0  0  0  0  0  0  0  0  0  0  0  0
    7.7243    0.9365   -5.2626 H   0  0  0  0  0  0  0  0  0  0  0  0
    8.5947    0.8246   -6.8355 H   0  0  0  0  0  0  0  0  0  0  0  0
    5.2884    1.7608   -8.1015 H   0  0  0  0  0  0  0  0  0  0  0  0
    6.9915    1.8644   -8.4985 H   0  0  0  0  0  0  0  0  0  0  0  0
    4.9805    4.0784   -8.4186 H   0  0  0  0  0  0  0  0  0  0  0  0
    6.6915    4.3666   -8.7539 H   0  0  0  0  0  0  0  0  0  0  0  0
    5.8655    5.2892   -7.4880 H   0  0  0  0  0  0  0  0  0  0  0  0
    4.2565    3.1276   -6.2478 H   0  0  0  0  0  0  0  0  0  0  0  0
    5.2448    4.1815   -5.2671 H   0  0  0  0  0  0  0  0  0  0  0  0
    5.3911    2.4211   -5.0930 H   0  0  0  0  0  0  0  0  0  0  0  0
    8.4343    3.6307   -7.2889 H   0  0  0  0  0  0  0  0  0  0  0  0
    8.2309    2.7704   -5.8096 H   0  0  0  0  0  0  0  0  0  0  0  0
    8.6434    5.4103   -5.8832 H   0  0  0  0  0  0  0  0  0  0  0  0
    6.8546    2.6894   -1.9468 H   0  0  0  0  0  0  0  0  0  0  0  0
    6.6259    4.8001   -0.6772 H   0  0  0  0  0  0  0  0  0  0  0  0
    6.7916    8.1821   -3.8103 H   0  0  0  0  0  0  0  0  0  0  0  0
    6.3682   10.4734   -3.0063 H   0  0  0  0  0  0  0  0  0  0  0  0
    6.5279   10.9230   -0.5486 H   0  0  0  0  0  0  0  0  0  0  0  0
    5.0801    7.8568    1.1902 H   0  0  0  0  0  0  0  0  0  0  0  0
    4.4704    8.5363    3.4258 H   0  0  0  0  0  0  0  0  0  0  0  0
    6.6605    8.0068    6.3373 H   0  0  0  0  0  0  0  0  0  0  0  0
    3.5878   12.7455    4.2966 H   0  0  0  0  0  0  0  0  0  0  0  0
    2.8578   14.3927    6.0267 H   0  0  0  0  0  0  0  0  0  0  0  0
    3.2256   13.9330    8.4265 H   0  0  0  0  0  0  0  0  0  0  0  0
    4.3561   11.8328    9.1645 H   0  0  0  0  0  0  0  0  0  0  0  0
    5.5133    9.4384    7.9813 H   0  0  0  0  0  0  0  0  0  0  0  0
    7.7067    6.3142    6.2890 H   0  0  0  0  0  0  0  0  0  0  0  0
    9.6640    4.9318    5.8879 H   0  0  0  0  0  0  0  0  0  0  0  0
   10.4905    4.5718    3.5778 H   0  0  0  0  0  0  0  0  0  0  0  0
    9.2754    5.5266    1.6718 H   0  0  0  0  0  0  0  0  0  0  0  0
  1  2  1  0  0  0  0
  1 43  1  0  0  0  0
  1 44  1  0  0  0  0
  1 45  1  0  0  0  0
  2  3  1  0  0  0  0
  2  4  1  0  0  0  0
  3 46  1  0  0  0  0
  3 47  1  0  0  0  0
  3 48  1  0  0  0  0
  4  5  1  0  0  0  0
  4 49  1  0  0  0  0
  4 50  1  0  0  0  0
  5  6  1  0  0  0  0
  5  7  1  0  0  0  0
  5  8  1  0  0  0  0
  6 51  1  0  0  0  0
  6 52  1  0  0  0  0
  6 53  1  0  0  0  0
  7 54  1  0  0  0  0
  7 55  1  0  0  0  0
  7 56  1  0  0  0  0
  8  9  1  0  0  0  0
  8 57  1  0  0  0  0
  8 58  1  0  0  0  0
  9 10  1  0  0  0  0
  9 59  1  0  0  0  0
 10 11  1  0  0  0  0
 10 42  2  0  0  0  0
 11 12  2  0  0  0  0
 12 13  1  0  0  0  0
 12 60  1  0  0  0  0
 13 14  2  0  0  0  0
 13 61  1  0  0  0  0
 14 15  1  0  0  0  0
 14 42  1  0  0  0  0
 15 16  1  0  0  0  0
 15 20  2  0  0  0  0
 16 17  2  0  0  0  0
 16 62  1  0  0  0  0
 17 18  1  0  0  0  0
 17 63  1  0  0  0  0
 18 19  2  0  0  0  0
 18 64  1  0  0  0  0
 19 20  1  0  0  0  0
 20 21  1  0  0  0  0
 21 22  1  0  0  0  0
 22 23  1  0  0  0  0
 22 41  2  0  0  0  0
 23 24  2  0  0  0  0
 23 65  1  0  0  0  0
 24 25  1  0  0  0  0
 24 66  1  0  0  0  0
 25 26  1  0  0  0  0
 25 36  2  0  0  0  0
 26 27  1  0  0  0  0
 26 67  1  0  0  0  0
 27 28  2  0  0  0  0
 27 35  1  0  0  0  0
 28 29  1  0  0  0  0
 29 30  1  0  0  0  0
 29 34  2  0  0  0  0
 30 31  2  0  0  0  0
 30 68  1  0  0  0  0
 31 32  1  0  0  0  0
 31 69  1  0  0  0  0
 32 33  2  0  0  0  0
 32 70  1  0  0  0  0
 33 34  1  0  0  0  0
 33 71  1  0  0  0  0
 34 35  1  0  0  0  0
 35 72  1  0  0  0  0
 36 37  1  0  0  0  0
 36 41  1  0  0  0  0
 37 38  2  0  0  0  0
 37 73  1  0  0  0  0
 38 39  1  0  0  0  0
 38 74  1  0  0  0  0
 39 40  2  0  0  0  0
 39 75  1  0  0  0  0
 40 41  1  0  0  0  0
 40 76  1  0  0  0  0
M  END
$$$$
