CHEMBL3676345
 OpenBabel04072215373D

 67 69  0  0  0  0  0  0  0  0999 V2000
    1.5574   -0.4717   -1.2215 C   0  0  0  0  0  0  0  0  0  0  0  0
    2.5998   -0.1196   -0.4626 C   0  0  0  0  0  0  0  0  0  0  0  0
    3.1735    1.2528   -0.5406 C   0  0  0  0  0  0  0  0  0  0  0  0
    2.5458    2.1902   -1.0119 O   0  0  0  0  0  0  0  0  0  0  0  0
    4.4702    1.2932   -0.0662 N   0  0  0  0  0  0  0  0  0  0  0  0
    5.2031    2.4927   -0.0255 C   0  0  0  0  0  0  0  0  0  0  0  0
    6.3823    2.5206   -0.7640 C   0  0  0  0  0  0  0  0  0  0  0  0
    7.0862    3.7336   -0.9460 C   0  0  0  0  0  0  0  0  0  0  0  0
    8.1487    3.9065   -1.8353 C   0  0  0  0  0  0  0  0  0  0  0  0
    8.4921    2.8723   -2.7472 N   0  0  0  0  0  0  0  0  0  0  0  0
    9.2382    3.0957   -3.9289 C   0  0  0  0  0  0  0  0  0  0  0  0
    8.9344    4.1906   -4.7531 C   0  0  0  0  0  0  0  0  0  0  0  0
    9.7698    4.5525   -5.8103 C   0  0  0  0  0  0  0  0  0  0  0  0
   10.9086    3.7956   -6.0728 C   0  0  0  0  0  0  0  0  0  0  0  0
   12.1019    4.3719   -7.4213 Br  0  0  0  0  0  0  0  0  0  0  0  0
   11.1761    2.6539   -5.3186 C   0  0  0  0  0  0  0  0  0  0  0  0
   12.2571    1.9031   -5.5825 F   0  0  0  0  0  0  0  0  0  0  0  0
   10.3419    2.3044   -4.2598 C   0  0  0  0  0  0  0  0  0  0  0  0
   10.6283    1.2240   -3.5146 F   0  0  0  0  0  0  0  0  0  0  0  0
    8.8004    5.0859   -1.9400 N   0  0  0  0  0  0  0  0  0  0  0  0
    8.3557    6.0986   -1.1894 C   0  0  0  0  0  0  0  0  0  0  0  0
    7.3136    6.0590   -0.3644 N   0  0  0  0  0  0  0  0  0  0  0  0
    6.6745    4.8854   -0.2613 C   0  0  0  0  0  0  0  0  0  0  0  0
    5.5499    4.8173    0.5430 C   0  0  0  0  0  0  0  0  0  0  0  0
    4.8110    3.6367    0.6835 C   0  0  0  0  0  0  0  0  0  0  0  0
    3.7927    3.7374    1.5936 O   0  0  0  0  0  0  0  0  0  0  0  0
    3.5517    2.6162    2.4455 C   0  0  0  0  0  0  0  0  0  0  0  0
    4.7754    2.1354    3.2312 C   0  0  0  0  0  0  0  0  0  0  0  0
    4.4849    0.9399    3.9872 N   0  0  0  0  0  0  0  0  0  0  0  0
    4.5421   -0.3303    3.4667 C   0  0  0  0  0  0  0  0  0  0  0  0
    4.8871   -0.5677    2.3106 O   0  0  0  0  0  0  0  0  0  0  0  0
    4.0504   -1.4211    4.4030 C   0  0  0  0  0  0  0  0  0  0  0  0
    4.1980   -1.0982    5.8966 C   0  0  0  0  0  0  0  0  0  0  0  0
    3.4337    0.0846    6.3805 N   0  0  0  0  0  0  0  0  0  0  0  0
    1.9839    0.0002    6.1269 C   0  0  0  0  0  0  0  0  0  0  0  0
    1.2308   -1.0781    6.8938 C   0  0  0  0  0  0  0  0  0  0  0  0
    3.7826    0.3443    7.7906 C   0  0  0  0  0  0  0  0  0  0  0  0
    3.1385    1.5888    8.3926 C   0  0  0  0  0  0  0  0  0  0  0  0
    1.1073   -1.4540   -1.1286 H   0  0  0  0  0  0  0  0  0  0  0  0
    1.1257    0.2145   -1.9464 H   0  0  0  0  0  0  0  0  0  0  0  0
    3.0228   -0.8018    0.2696 H   0  0  0  0  0  0  0  0  0  0  0  0
    4.9883    0.4228   -0.1070 H   0  0  0  0  0  0  0  0  0  0  0  0
    6.7125    1.6228   -1.2759 H   0  0  0  0  0  0  0  0  0  0  0  0
    8.7337    2.0053   -2.2758 H   0  0  0  0  0  0  0  0  0  0  0  0
    8.0591    4.8028   -4.5379 H   0  0  0  0  0  0  0  0  0  0  0  0
    9.5374    5.4424   -6.3872 H   0  0  0  0  0  0  0  0  0  0  0  0
    8.8870    7.0401   -1.2813 H   0  0  0  0  0  0  0  0  0  0  0  0
    5.2337    5.7062    1.0829 H   0  0  0  0  0  0  0  0  0  0  0  0
    3.0579    1.8069    1.9066 H   0  0  0  0  0  0  0  0  0  0  0  0
    2.7964    2.9461    3.1705 H   0  0  0  0  0  0  0  0  0  0  0  0
    5.0884    2.9057    3.9436 H   0  0  0  0  0  0  0  0  0  0  0  0
    5.6347    1.9257    2.5903 H   0  0  0  0  0  0  0  0  0  0  0  0
    4.0773    1.0490    4.9178 H   0  0  0  0  0  0  0  0  0  0  0  0
    4.6513   -2.3142    4.1916 H   0  0  0  0  0  0  0  0  0  0  0  0
    3.0174   -1.6666    4.1381 H   0  0  0  0  0  0  0  0  0  0  0  0
    5.2651   -0.9066    6.0745 H   0  0  0  0  0  0  0  0  0  0  0  0
    3.9424   -1.9892    6.4812 H   0  0  0  0  0  0  0  0  0  0  0  0
    1.8077   -0.1363    5.0540 H   0  0  0  0  0  0  0  0  0  0  0  0
    1.5213    0.9739    6.3314 H   0  0  0  0  0  0  0  0  0  0  0  0
    1.7732   -2.0265    6.9211 H   0  0  0  0  0  0  0  0  0  0  0  0
    0.2664   -1.2688    6.4123 H   0  0  0  0  0  0  0  0  0  0  0  0
    1.0365   -0.7628    7.9232 H   0  0  0  0  0  0  0  0  0  0  0  0
    4.8688    0.4921    7.8537 H   0  0  0  0  0  0  0  0  0  0  0  0
    3.5437   -0.5237    8.4161 H   0  0  0  0  0  0  0  0  0  0  0  0
    3.3755    2.4833    7.8084 H   0  0  0  0  0  0  0  0  0  0  0  0
    3.5158    1.7412    9.4095 H   0  0  0  0  0  0  0  0  0  0  0  0
    2.0507    1.4953    8.4642 H   0  0  0  0  0  0  0  0  0  0  0  0
  1  2  2  0  0  0  0
  1 39  1  0  0  0  0
  1 40  1  0  0  0  0
  2  3  1  0  0  0  0
  2 41  1  0  0  0  0
  3  4  2  0  0  0  0
  3  5  1  0  0  0  0
  5  6  1  0  0  0  0
  5 42  1  0  0  0  0
  6  7  1  0  0  0  0
  6 25  2  0  0  0  0
  7  8  2  0  0  0  0
  7 43  1  0  0  0  0
  8  9  1  0  0  0  0
  8 23  1  0  0  0  0
  9 10  1  0  0  0  0
  9 20  2  0  0  0  0
 10 11  1  0  0  0  0
 10 44  1  0  0  0  0
 11 12  1  0  0  0  0
 11 18  2  0  0  0  0
 12 13  2  0  0  0  0
 12 45  1  0  0  0  0
 13 14  1  0  0  0  0
 13 46  1  0  0  0  0
 14 15  1  0  0  0  0
 14 16  2  0  0  0  0
 16 17  1  0  0  0  0
 16 18  1  0  0  0  0
 18 19  1  0  0  0  0
 20 21  1  0  0  0  0
 21 22  2  0  0  0  0
 21 47  1  0  0  0  0
 22 23  1  0  0  0  0
 23 24  2  0  0  0  0
 24 25  1  0  0  0  0
 24 48  1  0  0  0  0
 25 26  1  0  0  0  0
 26 27  1  0  0  0  0
 27 28  1  0  0  0  0
 27 49  1  0  0  0  0
 27 50  1  0  0  0  0
 28 29  1  0  0  0  0
 28 51  1  0  0  0  0
 28 52  1  0  0  0  0
 29 30  1  0  0  0  0
 29 53  1  0  0  0  0
 30 31  2  0  0  0  0
 30 32  1  0  0  0  0
 32 33  1  0  0  0  0
 32 54  1  0  0  0  0
 32 55  1  0  0  0  0
 33 34  1  0  0  0  0
 33 56  1  0  0  0  0
 33 57  1  0  0  0  0
 34 35  1  0  0  0  0
 34 37  1  0  0  0  0
 35 36  1  0  0  0  0
 35 58  1  0  0  0  0
 35 59  1  0  0  0  0
 36 60  1  0  0  0  0
 36 61  1  0  0  0  0
 36 62  1  0  0  0  0
 37 38  1  0  0  0  0
 37 63  1  0  0  0  0
 37 64  1  0  0  0  0
 38 65  1  0  0  0  0
 38 66  1  0  0  0  0
 38 67  1  0  0  0  0
M  END
$$$$
