CHEMBL3956618
 OpenBabel04072215373D

 53 57  0  0  0  0  0  0  0  0999 V2000
    2.4403    0.7560   -1.2715 O   0  0  0  0  0  0  0  0  0  0  0  0
    3.5066    0.1965   -1.0276 C   0  0  0  0  0  0  0  0  0  0  0  0
    3.7864   -1.1469   -1.2099 N   0  0  0  0  0  0  0  0  0  0  0  0
    2.8883   -2.0724   -1.8241 C   0  0  0  0  0  0  0  0  0  0  0  0
    1.7967   -1.6392   -2.5888 C   0  0  0  0  0  0  0  0  0  0  0  0
    0.8313   -2.5305   -3.0399 C   0  0  0  0  0  0  0  0  0  0  0  0
    0.9718   -3.8813   -2.7699 C   0  0  0  0  0  0  0  0  0  0  0  0
    2.1331   -4.3535   -2.1490 C   0  0  0  0  0  0  0  0  0  0  0  0
    2.3745   -5.8151   -2.0139 C   0  0  0  0  0  0  0  0  0  0  0  0
    3.0455   -6.2218   -1.0697 O   0  0  0  0  0  0  0  0  0  0  0  0
    1.8131   -6.7927   -3.0020 C   0  0  0  0  0  0  0  0  0  0  0  0
    1.5012   -6.4381   -4.3287 C   0  0  0  0  0  0  0  0  0  0  0  0
    0.8446   -7.3314   -5.1997 C   0  0  0  0  0  0  0  0  0  0  0  0
    0.6945   -8.6629   -4.7766 C   0  0  0  0  0  0  0  0  0  0  0  0
    0.1711   -9.9130   -5.2505 C   0  0  0  0  0  0  0  0  0  0  0  0
   -1.1839  -10.4307   -5.1071 C   0  0  0  0  0  0  0  0  0  0  0  0
   -2.1046   -9.9377   -4.2542 C   0  0  0  0  0  0  0  0  0  0  0  0
   -2.9668  -10.8332   -3.4440 C   0  0  0  0  0  0  0  0  0  0  0  0
   -3.8739  -10.2970   -2.5343 C   0  0  0  0  0  0  0  0  0  0  0  0
   -4.4907  -11.1423   -1.6088 C   0  0  0  0  0  0  0  0  0  0  0  0
   -4.1835  -12.4968   -1.6064 C   0  0  0  0  0  0  0  0  0  0  0  0
   -3.2785  -12.9543   -2.5460 C   0  0  0  0  0  0  0  0  0  0  0  0
   -2.6740  -12.1585   -3.4588 N   0  0  0  0  0  0  0  0  0  0  0  0
    1.1065  -10.8291   -4.9188 N   0  0  0  0  0  0  0  0  0  0  0  0
    1.4731  -10.3814   -3.6994 N   0  0  0  0  0  0  0  0  0  0  0  0
    1.2981   -9.0273   -3.5751 C   0  0  0  0  0  0  0  0  0  0  0  0
    1.6988   -8.1249   -2.5931 C   0  0  0  0  0  0  0  0  0  0  0  0
    3.0799   -3.4457   -1.6440 C   0  0  0  0  0  0  0  0  0  0  0  0
    4.5558    1.0299   -0.4159 C   0  0  0  0  0  0  0  0  0  0  0  0
    4.1337    2.0735    0.4111 C   0  0  0  0  0  0  0  0  0  0  0  0
    5.0838    2.9456    0.8968 C   0  0  0  0  0  0  0  0  0  0  0  0
    6.3969    2.8380    0.6162 N   0  0  0  0  0  0  0  0  0  0  0  0
    6.7748    1.8220   -0.1938 C   0  0  0  0  0  0  0  0  0  0  0  0
    5.9014    0.8903   -0.7289 C   0  0  0  0  0  0  0  0  0  0  0  0
    4.5973   -1.5450   -0.7580 H   0  0  0  0  0  0  0  0  0  0  0  0
    1.6614   -0.5921   -2.8458 H   0  0  0  0  0  0  0  0  0  0  0  0
   -0.0292   -2.1635   -3.5914 H   0  0  0  0  0  0  0  0  0  0  0  0
    0.1763   -4.5525   -3.0804 H   0  0  0  0  0  0  0  0  0  0  0  0
    1.7728   -5.4569   -4.7148 H   0  0  0  0  0  0  0  0  0  0  0  0
    0.5883   -7.0230   -6.2099 H   0  0  0  0  0  0  0  0  0  0  0  0
   -1.2571  -11.4859   -5.3780 H   0  0  0  0  0  0  0  0  0  0  0  0
   -2.0502   -8.9128   -3.9049 H   0  0  0  0  0  0  0  0  0  0  0  0
   -4.0729   -9.2316   -2.5046 H   0  0  0  0  0  0  0  0  0  0  0  0
   -5.1855  -10.7404   -0.8764 H   0  0  0  0  0  0  0  0  0  0  0  0
   -4.6280  -13.1752   -0.8859 H   0  0  0  0  0  0  0  0  0  0  0  0
   -2.9902  -14.0020   -2.5794 H   0  0  0  0  0  0  0  0  0  0  0  0
    1.9629  -11.0121   -3.0789 H   0  0  0  0  0  0  0  0  0  0  0  0
    2.0154   -8.4528   -1.6086 H   0  0  0  0  0  0  0  0  0  0  0  0
    3.9409   -3.8223   -1.0986 H   0  0  0  0  0  0  0  0  0  0  0  0
    3.0827    2.2224    0.6449 H   0  0  0  0  0  0  0  0  0  0  0  0
    4.8019    3.7850    1.5280 H   0  0  0  0  0  0  0  0  0  0  0  0
    7.8377    1.7941   -0.4213 H   0  0  0  0  0  0  0  0  0  0  0  0
    6.2638    0.1295   -1.4099 H   0  0  0  0  0  0  0  0  0  0  0  0
  1  2  2  0  0  0  0
  2  3  1  0  0  0  0
  2 29  1  0  0  0  0
  3  4  1  0  0  0  0
  3 35  1  0  0  0  0
  4  5  1  0  0  0  0
  4 28  2  0  0  0  0
  5  6  2  0  0  0  0
  5 36  1  0  0  0  0
  6  7  1  0  0  0  0
  6 37  1  0  0  0  0
  7  8  2  0  0  0  0
  7 38  1  0  0  0  0
  8  9  1  0  0  0  0
  8 28  1  0  0  0  0
  9 10  2  0  0  0  0
  9 11  1  0  0  0  0
 11 12  1  0  0  0  0
 11 27  2  0  0  0  0
 12 13  2  0  0  0  0
 12 39  1  0  0  0  0
 13 14  1  0  0  0  0
 13 40  1  0  0  0  0
 14 15  1  0  0  0  0
 14 26  2  0  0  0  0
 15 16  1  0  0  0  0
 15 24  2  0  0  0  0
 16 17  2  0  0  0  0
 16 41  1  0  0  0  0
 17 18  1  0  0  0  0
 17 42  1  0  0  0  0
 18 19  1  0  0  0  0
 18 23  2  0  0  0  0
 19 20  2  0  0  0  0
 19 43  1  0  0  0  0
 20 21  1  0  0  0  0
 20 44  1  0  0  0  0
 21 22  2  0  0  0  0
 21 45  1  0  0  0  0
 22 23  1  0  0  0  0
 22 46  1  0  0  0  0
 24 25  1  0  0  0  0
 25 26  1  0  0  0  0
 25 47  1  0  0  0  0
 26 27  1  0  0  0  0
 27 48  1  0  0  0  0
 28 49  1  0  0  0  0
 29 30  1  0  0  0  0
 29 34  2  0  0  0  0
 30 31  2  0  0  0  0
 30 50  1  0  0  0  0
 31 32  1  0  0  0  0
 31 51  1  0  0  0  0
 32 33  2  0  0  0  0
 33 34  1  0  0  0  0
 33 52  1  0  0  0  0
 34 53  1  0  0  0  0
M  END
$$$$
