CHEMBL2016917
 OpenBabel04072215363D

 54 58  0  0  0  0  0  0  0  0999 V2000
    1.2776   -0.3140    0.3065 O   0  0  0  0  0  0  0  0  0  0  0  0
    2.4545   -0.0086    0.0969 C   0  0  0  0  0  0  0  0  0  0  0  0
    3.1999   -0.6013   -1.1082 C   0  0  0  0  0  0  0  0  0  0  0  0
    4.3751   -1.3736   -0.6516 N   0  0  0  0  0  0  0  0  0  0  0  0
    3.9708   -2.4960    0.2130 C   0  0  0  0  0  0  0  0  0  0  0  0
    5.1905   -3.2348    0.7517 C   0  0  0  0  0  0  0  0  0  0  0  0
    6.0913   -3.7099   -0.3800 C   0  0  0  0  0  0  0  0  0  0  0  0
    6.4390   -2.5474   -1.3013 C   0  0  0  0  0  0  0  0  0  0  0  0
    5.1790   -1.8300   -1.7887 C   0  0  0  0  0  0  0  0  0  0  0  0
    3.1777    0.8273    0.9596 N   0  0  0  0  0  0  0  0  0  0  0  0
    2.4525    1.2627    2.1743 C   0  0  0  0  0  0  0  0  0  0  0  0
    3.2680    1.9178    3.2972 C   0  0  0  0  0  0  0  0  0  0  0  0
    4.4784    2.5655    2.7702 C   0  0  0  0  0  0  0  0  0  0  0  0
    5.3251    3.3492    3.4971 N   0  0  0  0  0  0  0  0  0  0  0  0
    6.2773    3.7244    2.6536 C   0  0  0  0  0  0  0  0  0  0  0  0
    7.4065    4.5627    2.8760 C   0  0  0  0  0  0  0  0  0  0  0  0
    7.6550    4.9757    4.1323 C   0  0  0  0  0  0  0  0  0  0  0  0
    8.7670    5.8777    4.4311 C   0  0  0  0  0  0  0  0  0  0  0  0
    9.0333    6.2951    5.7352 C   0  0  0  0  0  0  0  0  0  0  0  0
   10.0931    7.1777    5.9832 C   0  0  0  0  0  0  0  0  0  0  0  0
   10.8791    7.6384    4.9263 C   0  0  0  0  0  0  0  0  0  0  0  0
   10.6168    7.2195    3.6238 C   0  0  0  0  0  0  0  0  0  0  0  0
    9.5652    6.3371    3.3800 C   0  0  0  0  0  0  0  0  0  0  0  0
    9.3068    5.8947    2.0770 N   0  0  0  0  0  0  0  0  0  0  0  0
    8.3023    5.0159    1.7593 C   0  0  0  0  0  0  0  0  0  0  0  0
    8.1480    4.6271    0.6013 O   0  0  0  0  0  0  0  0  0  0  0  0
    6.0459    3.1849    1.4035 N   0  0  0  0  0  0  0  0  0  0  0  0
    4.9078    2.4268    1.4799 C   0  0  0  0  0  0  0  0  0  0  0  0
    4.2793    1.6417    0.4122 C   0  0  0  0  0  0  0  0  0  0  0  0
    3.4939    0.2243   -1.7666 H   0  0  0  0  0  0  0  0  0  0  0  0
    2.5057   -1.2354   -1.6737 H   0  0  0  0  0  0  0  0  0  0  0  0
    3.3180   -3.1906   -0.3308 H   0  0  0  0  0  0  0  0  0  0  0  0
    3.4086   -2.1362    1.0817 H   0  0  0  0  0  0  0  0  0  0  0  0
    4.8669   -4.0942    1.3547 H   0  0  0  0  0  0  0  0  0  0  0  0
    5.7572   -2.5741    1.4200 H   0  0  0  0  0  0  0  0  0  0  0  0
    5.5762   -4.4906   -0.9537 H   0  0  0  0  0  0  0  0  0  0  0  0
    7.0056   -4.1550    0.0273 H   0  0  0  0  0  0  0  0  0  0  0  0
    7.0140   -2.9161   -2.1578 H   0  0  0  0  0  0  0  0  0  0  0  0
    7.0830   -1.8362   -0.7676 H   0  0  0  0  0  0  0  0  0  0  0  0
    4.5977   -2.4938   -2.4410 H   0  0  0  0  0  0  0  0  0  0  0  0
    5.4904   -0.9682   -2.3917 H   0  0  0  0  0  0  0  0  0  0  0  0
    1.9541    0.3792    2.5936 H   0  0  0  0  0  0  0  0  0  0  0  0
    1.6554    1.9377    1.8424 H   0  0  0  0  0  0  0  0  0  0  0  0
    3.5590    1.1665    4.0419 H   0  0  0  0  0  0  0  0  0  0  0  0
    2.6397    2.6538    3.8123 H   0  0  0  0  0  0  0  0  0  0  0  0
    7.0196    4.6660    4.9584 H   0  0  0  0  0  0  0  0  0  0  0  0
    8.4256    5.9455    6.5674 H   0  0  0  0  0  0  0  0  0  0  0  0
   10.3015    7.4991    6.9989 H   0  0  0  0  0  0  0  0  0  0  0  0
   11.6988    8.3231    5.1261 H   0  0  0  0  0  0  0  0  0  0  0  0
   11.2374    7.5870    2.8112 H   0  0  0  0  0  0  0  0  0  0  0  0
    9.8868    6.2084    1.3103 H   0  0  0  0  0  0  0  0  0  0  0  0
    6.6297    3.3472    0.5880 H   0  0  0  0  0  0  0  0  0  0  0  0
    5.0247    0.9981   -0.0601 H   0  0  0  0  0  0  0  0  0  0  0  0
    3.8598    2.2999   -0.3575 H   0  0  0  0  0  0  0  0  0  0  0  0
  1  2  2  0  0  0  0
  2  3  1  0  0  0  0
  2 10  1  0  0  0  0
  3  4  1  0  0  0  0
  3 30  1  0  0  0  0
  3 31  1  0  0  0  0
  4  5  1  0  0  0  0
  4  9  1  0  0  0  0
  5  6  1  0  0  0  0
  5 32  1  0  0  0  0
  5 33  1  0  0  0  0
  6  7  1  0  0  0  0
  6 34  1  0  0  0  0
  6 35  1  0  0  0  0
  7  8  1  0  0  0  0
  7 36  1  0  0  0  0
  7 37  1  0  0  0  0
  8  9  1  0  0  0  0
  8 38  1  0  0  0  0
  8 39  1  0  0  0  0
  9 40  1  0  0  0  0
  9 41  1  0  0  0  0
 10 11  1  0  0  0  0
 10 29  1  0  0  0  0
 11 12  1  0  0  0  0
 11 42  1  0  0  0  0
 11 43  1  0  0  0  0
 12 13  1  0  0  0  0
 12 44  1  0  0  0  0
 12 45  1  0  0  0  0
 13 14  1  0  0  0  0
 13 28  2  0  0  0  0
 14 15  2  0  0  0  0
 15 16  1  0  0  0  0
 15 27  1  0  0  0  0
 16 17  2  0  0  0  0
 16 25  1  0  0  0  0
 17 18  1  0  0  0  0
 17 46  1  0  0  0  0
 18 19  1  0  0  0  0
 18 23  2  0  0  0  0
 19 20  2  0  0  0  0
 19 47  1  0  0  0  0
 20 21  1  0  0  0  0
 20 48  1  0  0  0  0
 21 22  2  0  0  0  0
 21 49  1  0  0  0  0
 22 23  1  0  0  0  0
 22 50  1  0  0  0  0
 23 24  1  0  0  0  0
 24 25  1  0  0  0  0
 24 51  1  0  0  0  0
 25 26  2  0  0  0  0
 27 28  1  0  0  0  0
 27 52  1  0  0  0  0
 28 29  1  0  0  0  0
 29 53  1  0  0  0  0
 29 54  1  0  0  0  0
M  END
$$$$
