CHEMBL396056
 OpenBabel04072215373D

 53 56  0  0  0  0  0  0  0  0999 V2000
    6.8961   -2.0312    2.2992 C   0  0  0  0  0  0  0  0  0  0  0  0
    6.4355   -0.7696    1.8107 O   0  0  0  0  0  0  0  0  0  0  0  0
    7.0656   -0.3591    0.6713 C   0  0  0  0  0  0  0  0  0  0  0  0
    7.9385   -1.0105    0.1188 O   0  0  0  0  0  0  0  0  0  0  0  0
    6.5522    0.8576    0.3216 N   0  0  0  0  0  0  0  0  0  0  0  0
    6.9621    1.5310   -0.7982 C   0  0  0  0  0  0  0  0  0  0  0  0
    7.8408    1.1589   -1.6984 N   0  0  0  0  0  0  0  0  0  0  0  0
    7.8744    2.1545   -2.6401 C   0  0  0  0  0  0  0  0  0  0  0  0
    8.6320    2.2535   -3.8173 C   0  0  0  0  0  0  0  0  0  0  0  0
    8.4704    3.3856   -4.6250 C   0  0  0  0  0  0  0  0  0  0  0  0
    9.2402    3.4243   -5.7777 O   0  0  0  0  0  0  0  0  0  0  0  0
    9.6645    4.6483   -6.2457 C   0  0  0  0  0  0  0  0  0  0  0  0
   10.0393    5.6854   -5.4002 C   0  0  0  0  0  0  0  0  0  0  0  0
   10.3124    6.9462   -5.9234 C   0  0  0  0  0  0  0  0  0  0  0  0
   10.2954    7.1828   -7.3011 C   0  0  0  0  0  0  0  0  0  0  0  0
   10.4743    8.4730   -7.8606 N   0  0  0  0  0  0  0  0  0  0  0  0
   10.7101    9.6292   -7.1353 C   0  0  0  0  0  0  0  0  0  0  0  0
   10.9113    9.6802   -5.9281 O   0  0  0  0  0  0  0  0  0  0  0  0
   10.6528   10.7731   -7.9207 N   0  0  0  0  0  0  0  0  0  0  0  0
   10.8645   12.0339   -7.3000 C   0  0  0  0  0  0  0  0  0  0  0  0
   11.9387   12.2443   -6.4244 C   0  0  0  0  0  0  0  0  0  0  0  0
   12.0756   13.4564   -5.7294 C   0  0  0  0  0  0  0  0  0  0  0  0
   13.2305   13.6800   -4.7824 C   0  0  0  0  0  0  0  0  0  0  0  0
   14.0983   12.6335   -4.7117 F   0  0  0  0  0  0  0  0  0  0  0  0
   13.9818   14.7591   -5.1411 F   0  0  0  0  0  0  0  0  0  0  0  0
   12.8230   13.9191   -3.5057 F   0  0  0  0  0  0  0  0  0  0  0  0
   11.1114   14.4595   -5.9225 C   0  0  0  0  0  0  0  0  0  0  0  0
   10.0550   14.2656   -6.8171 C   0  0  0  0  0  0  0  0  0  0  0  0
    9.9519   13.0655   -7.5158 C   0  0  0  0  0  0  0  0  0  0  0  0
    8.9160   12.8760   -8.3469 F   0  0  0  0  0  0  0  0  0  0  0  0
   10.0491    6.1005   -8.1548 C   0  0  0  0  0  0  0  0  0  0  0  0
    9.7324    4.8370   -7.6271 C   0  0  0  0  0  0  0  0  0  0  0  0
    7.5390    4.3776   -4.2747 C   0  0  0  0  0  0  0  0  0  0  0  0
    6.8051    4.3127   -3.0826 C   0  0  0  0  0  0  0  0  0  0  0  0
    6.9957    3.1755   -2.3004 C   0  0  0  0  0  0  0  0  0  0  0  0
    6.4377    2.7588   -1.1183 N   0  0  0  0  0  0  0  0  0  0  0  0
    6.2349   -2.3490    3.1050 H   0  0  0  0  0  0  0  0  0  0  0  0
    7.9116   -1.9315    2.6918 H   0  0  0  0  0  0  0  0  0  0  0  0
    6.8626   -2.7972    1.5079 H   0  0  0  0  0  0  0  0  0  0  0  0
    5.8445    1.2321    0.9324 H   0  0  0  0  0  0  0  0  0  0  0  0
    9.3247    1.4634   -4.0834 H   0  0  0  0  0  0  0  0  0  0  0  0
   10.0722    5.5511   -4.3226 H   0  0  0  0  0  0  0  0  0  0  0  0
   10.5160    7.7242   -5.1973 H   0  0  0  0  0  0  0  0  0  0  0  0
   10.4718    8.5505   -8.8689 H   0  0  0  0  0  0  0  0  0  0  0  0
    9.9239   10.7616   -8.6235 H   0  0  0  0  0  0  0  0  0  0  0  0
   12.6654   11.4482   -6.2592 H   0  0  0  0  0  0  0  0  0  0  0  0
   11.1819   15.3954   -5.3689 H   0  0  0  0  0  0  0  0  0  0  0  0
    9.3011   15.0345   -6.9557 H   0  0  0  0  0  0  0  0  0  0  0  0
   10.0711    6.2234   -9.2341 H   0  0  0  0  0  0  0  0  0  0  0  0
    9.5139    4.0087   -8.2967 H   0  0  0  0  0  0  0  0  0  0  0  0
    7.3823    5.2379   -4.9224 H   0  0  0  0  0  0  0  0  0  0  0  0
    6.1202    5.1046   -2.8003 H   0  0  0  0  0  0  0  0  0  0  0  0
    5.7455    3.2612   -0.5859 H   0  0  0  0  0  0  0  0  0  0  0  0
  1  2  1  0  0  0  0
  1 37  1  0  0  0  0
  1 38  1  0  0  0  0
  1 39  1  0  0  0  0
  2  3  1  0  0  0  0
  3  4  2  0  0  0  0
  3  5  1  0  0  0  0
  5  6  1  0  0  0  0
  5 40  1  0  0  0  0
  6  7  2  0  0  0  0
  6 36  1  0  0  0  0
  7  8  1  0  0  0  0
  8  9  1  0  0  0  0
  8 35  2  0  0  0  0
  9 10  2  0  0  0  0
  9 41  1  0  0  0  0
 10 11  1  0  0  0  0
 10 33  1  0  0  0  0
 11 12  1  0  0  0  0
 12 13  1  0  0  0  0
 12 32  2  0  0  0  0
 13 14  2  0  0  0  0
 13 42  1  0  0  0  0
 14 15  1  0  0  0  0
 14 43  1  0  0  0  0
 15 16  1  0  0  0  0
 15 31  2  0  0  0  0
 16 17  1  0  0  0  0
 16 44  1  0  0  0  0
 17 18  2  0  0  0  0
 17 19  1  0  0  0  0
 19 20  1  0  0  0  0
 19 45  1  0  0  0  0
 20 21  1  0  0  0  0
 20 29  2  0  0  0  0
 21 22  2  0  0  0  0
 21 46  1  0  0  0  0
 22 23  1  0  0  0  0
 22 27  1  0  0  0  0
 23 24  1  0  0  0  0
 23 25  1  0  0  0  0
 23 26  1  0  0  0  0
 27 28  2  0  0  0  0
 27 47  1  0  0  0  0
 28 29  1  0  0  0  0
 28 48  1  0  0  0  0
 29 30  1  0  0  0  0
 31 32  1  0  0  0  0
 31 49  1  0  0  0  0
 32 50  1  0  0  0  0
 33 34  2  0  0  0  0
 33 51  1  0  0  0  0
 34 35  1  0  0  0  0
 34 52  1  0  0  0  0
 35 36  1  0  0  0  0
 36 53  1  0  0  0  0
M  END
$$$$
