CHEMBL4536156
 OpenBabel04072215383D

 53 57  0  0  0  0  0  0  0  0999 V2000
    3.5220    5.6603   -1.5427 N   0  0  0  0  0  0  0  0  0  0  0  0
    4.3105    4.5355   -1.3663 C   0  0  0  0  0  0  0  0  0  0  0  0
    5.5813    4.6714   -1.7924 N   0  0  0  0  0  0  0  0  0  0  0  0
    6.4450    3.6633   -1.6093 C   0  0  0  0  0  0  0  0  0  0  0  0
    6.2057    2.4907   -1.0284 N   0  0  0  0  0  0  0  0  0  0  0  0
    4.9331    2.3549   -0.6103 C   0  0  0  0  0  0  0  0  0  0  0  0
    4.3654    1.2709    0.0426 C   0  0  0  0  0  0  0  0  0  0  0  0
    3.0570    1.5681    0.2898 C   0  0  0  0  0  0  0  0  0  0  0  0
    2.7378    2.8104   -0.2132 N   0  0  0  0  0  0  0  0  0  0  0  0
    1.4366    3.4003   -0.1549 C   0  0  0  0  0  0  0  0  0  0  0  0
    0.5936    3.1401    0.9369 C   0  0  0  0  0  0  0  0  0  0  0  0
   -0.6905    3.6958    0.9983 C   0  0  0  0  0  0  0  0  0  0  0  0
   -1.1630    4.5354   -0.0171 C   0  0  0  0  0  0  0  0  0  0  0  0
   -2.5917    5.0266    0.0126 C   0  0  0  0  0  0  0  0  0  0  0  0
   -2.8198    6.5227   -0.0714 C   0  0  0  0  0  0  0  0  0  0  0  0
   -3.6113    6.9837   -0.8939 O   0  0  0  0  0  0  0  0  0  0  0  0
   -2.1367    7.2888    0.8619 N   0  0  0  0  0  0  0  0  0  0  0  0
   -2.2992    8.6956    0.8880 C   0  0  0  0  0  0  0  0  0  0  0  0
   -3.5665    9.2910    0.8665 C   0  0  0  0  0  0  0  0  0  0  0  0
   -3.7022   10.6884    0.7844 C   0  0  0  0  0  0  0  0  0  0  0  0
   -5.0670   11.3445    0.7601 C   0  0  0  0  0  0  0  0  0  0  0  0
   -6.0986   10.4718    0.9267 F   0  0  0  0  0  0  0  0  0  0  0  0
   -5.2093   12.2768    1.7431 F   0  0  0  0  0  0  0  0  0  0  0  0
   -5.3096   11.9981   -0.4090 F   0  0  0  0  0  0  0  0  0  0  0  0
   -2.5414   11.4774    0.7041 C   0  0  0  0  0  0  0  0  0  0  0  0
   -1.2774   10.8876    0.7640 C   0  0  0  0  0  0  0  0  0  0  0  0
   -1.1644    9.5063    0.8887 C   0  0  0  0  0  0  0  0  0  0  0  0
    0.0546    8.9474    0.9253 F   0  0  0  0  0  0  0  0  0  0  0  0
   -0.3238    4.7904   -1.1085 C   0  0  0  0  0  0  0  0  0  0  0  0
    0.9534    4.2126   -1.1846 C   0  0  0  0  0  0  0  0  0  0  0  0
    3.9291    3.3288   -0.7717 C   0  0  0  0  0  0  0  0  0  0  0  0
    2.3103    0.4341    0.8895 C   0  0  0  0  0  0  0  0  0  0  0  0
    3.3261   -0.7391    0.6709 C   0  0  0  0  0  0  0  0  0  0  0  0
    4.7328   -0.0875    0.4830 C   0  0  0  0  0  0  0  0  0  0  0  0
    4.1108    6.4403   -1.8174 H   0  0  0  0  0  0  0  0  0  0  0  0
    2.8889    5.8532   -0.7784 H   0  0  0  0  0  0  0  0  0  0  0  0
    7.4577    3.8284   -1.9627 H   0  0  0  0  0  0  0  0  0  0  0  0
    0.9123    2.5175    1.7660 H   0  0  0  0  0  0  0  0  0  0  0  0
   -1.3299    3.4425    1.8445 H   0  0  0  0  0  0  0  0  0  0  0  0
   -3.1049    4.6776    0.9164 H   0  0  0  0  0  0  0  0  0  0  0  0
   -3.1132    4.5656   -0.8366 H   0  0  0  0  0  0  0  0  0  0  0  0
   -1.2183    6.9414    1.1231 H   0  0  0  0  0  0  0  0  0  0  0  0
   -4.4597    8.6672    0.9147 H   0  0  0  0  0  0  0  0  0  0  0  0
   -2.6251   12.5579    0.5857 H   0  0  0  0  0  0  0  0  0  0  0  0
   -0.3798   11.4942    0.6899 H   0  0  0  0  0  0  0  0  0  0  0  0
   -0.6694    5.4071   -1.9380 H   0  0  0  0  0  0  0  0  0  0  0  0
    1.5265    4.3675   -2.0967 H   0  0  0  0  0  0  0  0  0  0  0  0
    1.3585    0.2237    0.3957 H   0  0  0  0  0  0  0  0  0  0  0  0
    2.1542    0.5872    1.9615 H   0  0  0  0  0  0  0  0  0  0  0  0
    3.0580   -1.2740   -0.2501 H   0  0  0  0  0  0  0  0  0  0  0  0
    3.3100   -1.4659    1.4891 H   0  0  0  0  0  0  0  0  0  0  0  0
    5.3265   -0.6330   -0.2554 H   0  0  0  0  0  0  0  0  0  0  0  0
    5.2730   -0.0570    1.4350 H   0  0  0  0  0  0  0  0  0  0  0  0
  1  2  1  0  0  0  0
  1 35  1  0  0  0  0
  1 36  1  0  0  0  0
  2  3  1  0  0  0  0
  2 31  2  0  0  0  0
  3  4  2  0  0  0  0
  4  5  1  0  0  0  0
  4 37  1  0  0  0  0
  5  6  2  0  0  0  0
  6  7  1  0  0  0  0
  6 31  1  0  0  0  0
  7  8  2  0  0  0  0
  7 34  1  0  0  0  0
  8  9  1  0  0  0  0
  8 32  1  0  0  0  0
  9 10  1  0  0  0  0
  9 31  1  0  0  0  0
 10 11  1  0  0  0  0
 10 30  2  0  0  0  0
 11 12  2  0  0  0  0
 11 38  1  0  0  0  0
 12 13  1  0  0  0  0
 12 39  1  0  0  0  0
 13 14  1  0  0  0  0
 13 29  2  0  0  0  0
 14 15  1  0  0  0  0
 14 40  1  0  0  0  0
 14 41  1  0  0  0  0
 15 16  2  0  0  0  0
 15 17  1  0  0  0  0
 17 18  1  0  0  0  0
 17 42  1  0  0  0  0
 18 19  1  0  0  0  0
 18 27  2  0  0  0  0
 19 20  2  0  0  0  0
 19 43  1  0  0  0  0
 20 21  1  0  0  0  0
 20 25  1  0  0  0  0
 21 22  1  0  0  0  0
 21 23  1  0  0  0  0
 21 24  1  0  0  0  0
 25 26  2  0  0  0  0
 25 44  1  0  0  0  0
 26 27  1  0  0  0  0
 26 45  1  0  0  0  0
 27 28  1  0  0  0  0
 29 30  1  0  0  0  0
 29 46  1  0  0  0  0
 30 47  1  0  0  0  0
 32 33  1  0  0  0  0
 32 48  1  0  0  0  0
 32 49  1  0  0  0  0
 33 34  1  0  0  0  0
 33 50  1  0  0  0  0
 33 51  1  0  0  0  0
 34 52  1  0  0  0  0
 34 53  1  0  0  0  0
M  END
$$$$
