CHEMBL4092294
 OpenBabel04072215383D

 65 69  0  0  0  0  0  0  0  0999 V2000
    2.0468   -0.1428   -0.8812 C   0  0  0  0  0  0  0  0  0  0  0  0
    0.6063    0.0809   -0.9893 N   0  0  0  0  0  0  0  0  0  0  0  0
   -0.1367   -1.1406   -0.6426 C   0  0  0  0  0  0  0  0  0  0  0  0
   -1.6668   -0.9111   -0.6692 C   0  0  0  0  0  0  0  0  0  0  0  0
   -2.1487    0.1539    0.2421 N   0  0  0  0  0  0  0  0  0  0  0  0
   -2.0037   -0.1632    1.6773 C   0  0  0  0  0  0  0  0  0  0  0  0
   -2.7330   -1.4183    2.1445 C   0  0  0  0  0  0  0  0  0  0  0  0
   -1.9989   -2.6140    2.0955 C   0  0  0  0  0  0  0  0  0  0  0  0
   -2.5481   -3.8424    2.4520 C   0  0  0  0  0  0  0  0  0  0  0  0
   -3.8449   -3.9474    2.9318 C   0  0  0  0  0  0  0  0  0  0  0  0
   -4.4123   -5.1989    3.3280 N   0  0  0  0  0  0  0  0  0  0  0  0
   -3.7445   -6.4264    3.2965 C   0  0  0  0  0  0  0  0  0  0  0  0
   -2.5762   -6.5998    2.9593 O   0  0  0  0  0  0  0  0  0  0  0  0
   -4.4674   -7.6652    3.7059 C   0  0  0  0  0  0  0  0  0  0  0  0
   -5.8430   -7.8203    3.5750 C   0  0  0  0  0  0  0  0  0  0  0  0
   -6.3798   -9.0624    3.8860 C   0  0  0  0  0  0  0  0  0  0  0  0
   -5.6505  -10.1219    4.3137 N   0  0  0  0  0  0  0  0  0  0  0  0
   -4.3162   -9.9513    4.4275 C   0  0  0  0  0  0  0  0  0  0  0  0
   -3.6086  -11.1179    4.8618 C   0  0  0  0  0  0  0  0  0  0  0  0
   -3.1514  -12.1714    5.2213 C   0  0  0  0  0  0  0  0  0  0  0  0
   -2.7771  -13.4924    5.6554 C   0  0  0  0  0  0  0  0  0  0  0  0
   -1.9737  -13.6456    6.7798 C   0  0  0  0  0  0  0  0  0  0  0  0
   -1.6826  -14.8393    7.3507 N   0  0  0  0  0  0  0  0  0  0  0  0
   -2.1799  -15.9353    6.7345 C   0  0  0  0  0  0  0  0  0  0  0  0
   -2.9049  -15.9115    5.5407 C   0  0  0  0  0  0  0  0  0  0  0  0
   -3.2850  -17.0993    4.8829 C   0  0  0  0  0  0  0  0  0  0  0  0
   -4.0019  -17.0425    3.6871 C   0  0  0  0  0  0  0  0  0  0  0  0
   -4.3914  -15.8153    3.1715 C   0  0  0  0  0  0  0  0  0  0  0  0
   -4.0294  -14.6330    3.8236 C   0  0  0  0  0  0  0  0  0  0  0  0
   -3.2432  -14.6534    5.0025 C   0  0  0  0  0  0  0  0  0  0  0  0
   -3.6872   -8.7568    4.1328 C   0  0  0  0  0  0  0  0  0  0  0  0
   -4.5933   -2.7593    3.0157 C   0  0  0  0  0  0  0  0  0  0  0  0
   -4.0629   -1.4904    2.6047 C   0  0  0  0  0  0  0  0  0  0  0  0
   -4.9801   -0.2837    2.7242 C   0  0  0  0  0  0  0  0  0  0  0  0
   -4.4647    0.9095    2.3304 F   0  0  0  0  0  0  0  0  0  0  0  0
   -6.1324   -0.4396    2.0110 F   0  0  0  0  0  0  0  0  0  0  0  0
   -5.3826   -0.0884    4.0158 F   0  0  0  0  0  0  0  0  0  0  0  0
   -1.3761    1.3800   -0.1002 C   0  0  0  0  0  0  0  0  0  0  0  0
    0.1706    1.2056   -0.1394 C   0  0  0  0  0  0  0  0  0  0  0  0
    2.3553   -0.9831   -1.5141 H   0  0  0  0  0  0  0  0  0  0  0  0
    2.3583   -0.3611    0.1471 H   0  0  0  0  0  0  0  0  0  0  0  0
    2.5998    0.7351   -1.2312 H   0  0  0  0  0  0  0  0  0  0  0  0
    0.1788   -1.4972    0.3434 H   0  0  0  0  0  0  0  0  0  0  0  0
    0.1043   -1.9351   -1.3587 H   0  0  0  0  0  0  0  0  0  0  0  0
   -2.1956   -1.8525   -0.4916 H   0  0  0  0  0  0  0  0  0  0  0  0
   -1.9517   -0.6322   -1.6941 H   0  0  0  0  0  0  0  0  0  0  0  0
   -2.3398    0.6869    2.2803 H   0  0  0  0  0  0  0  0  0  0  0  0
   -0.9474   -0.2694    1.9532 H   0  0  0  0  0  0  0  0  0  0  0  0
   -0.9684   -2.6166    1.7564 H   0  0  0  0  0  0  0  0  0  0  0  0
   -1.8965   -4.6989    2.3326 H   0  0  0  0  0  0  0  0  0  0  0  0
   -5.3540   -5.1660    3.6973 H   0  0  0  0  0  0  0  0  0  0  0  0
   -6.4900   -7.0402    3.1956 H   0  0  0  0  0  0  0  0  0  0  0  0
   -7.4427   -9.2594    3.7795 H   0  0  0  0  0  0  0  0  0  0  0  0
   -1.5183  -12.7912    7.2758 H   0  0  0  0  0  0  0  0  0  0  0  0
   -1.9700  -16.8719    7.2463 H   0  0  0  0  0  0  0  0  0  0  0  0
   -3.0015  -18.0694    5.2806 H   0  0  0  0  0  0  0  0  0  0  0  0
   -4.2532  -17.9591    3.1582 H   0  0  0  0  0  0  0  0  0  0  0  0
   -4.9682  -15.7639    2.2512 H   0  0  0  0  0  0  0  0  0  0  0  0
   -4.3486  -13.6874    3.3882 H   0  0  0  0  0  0  0  0  0  0  0  0
   -2.6059   -8.6751    4.2086 H   0  0  0  0  0  0  0  0  0  0  0  0
   -5.6132   -2.7883    3.4005 H   0  0  0  0  0  0  0  0  0  0  0  0
   -1.6354    2.1956    0.5855 H   0  0  0  0  0  0  0  0  0  0  0  0
   -1.7052    1.7179   -1.0930 H   0  0  0  0  0  0  0  0  0  0  0  0
    0.5422    1.0784    0.8853 H   0  0  0  0  0  0  0  0  0  0  0  0
    0.6109    2.1329   -0.5258 H   0  0  0  0  0  0  0  0  0  0  0  0
  1  2  1  0  0  0  0
  1 40  1  0  0  0  0
  1 41  1  0  0  0  0
  1 42  1  0  0  0  0
  2  3  1  0  0  0  0
  2 39  1  0  0  0  0
  3  4  1  0  0  0  0
  3 43  1  0  0  0  0
  3 44  1  0  0  0  0
  4  5  1  0  0  0  0
  4 45  1  0  0  0  0
  4 46  1  0  0  0  0
  5  6  1  0  0  0  0
  5 38  1  0  0  0  0
  6  7  1  0  0  0  0
  6 47  1  0  0  0  0
  6 48  1  0  0  0  0
  7  8  1  0  0  0  0
  7 33  2  0  0  0  0
  8  9  2  0  0  0  0
  8 49  1  0  0  0  0
  9 10  1  0  0  0  0
  9 50  1  0  0  0  0
 10 11  1  0  0  0  0
 10 32  2  0  0  0  0
 11 12  1  0  0  0  0
 11 51  1  0  0  0  0
 12 13  2  0  0  0  0
 12 14  1  0  0  0  0
 14 15  1  0  0  0  0
 14 31  2  0  0  0  0
 15 16  2  0  0  0  0
 15 52  1  0  0  0  0
 16 17  1  0  0  0  0
 16 53  1  0  0  0  0
 17 18  2  0  0  0  0
 18 19  1  0  0  0  0
 18 31  1  0  0  0  0
 19 20  3  0  0  0  0
 20 21  1  0  0  0  0
 21 22  1  0  0  0  0
 21 30  2  0  0  0  0
 22 23  2  0  0  0  0
 22 54  1  0  0  0  0
 23 24  1  0  0  0  0
 24 25  2  0  0  0  0
 24 55  1  0  0  0  0
 25 26  1  0  0  0  0
 25 30  1  0  0  0  0
 26 27  2  0  0  0  0
 26 56  1  0  0  0  0
 27 28  1  0  0  0  0
 27 57  1  0  0  0  0
 28 29  2  0  0  0  0
 28 58  1  0  0  0  0
 29 30  1  0  0  0  0
 29 59  1  0  0  0  0
 31 60  1  0  0  0  0
 32 33  1  0  0  0  0
 32 61  1  0  0  0  0
 33 34  1  0  0  0  0
 34 35  1  0  0  0  0
 34 36  1  0  0  0  0
 34 37  1  0  0  0  0
 38 39  1  0  0  0  0
 38 62  1  0  0  0  0
 38 63  1  0  0  0  0
 39 64  1  0  0  0  0
 39 65  1  0  0  0  0
M  END
$$$$
