CHEMBL3896623
 OpenBabel04072215373D

 70 73  0  0  1  0  0  0  0  0999 V2000
    0.7326   -3.3860   -2.9709 C   0  0  0  0  0  0  0  0  0  0  0  0
    2.0825   -3.6476   -2.7925 O   0  0  0  0  0  0  0  0  0  0  0  0
    2.9964   -2.8305   -2.1955 C   0  0  0  0  0  0  0  0  0  0  0  0
    2.6900   -1.4996   -1.8378 C   0  0  0  0  0  0  0  0  0  0  0  0
    3.6300   -0.7134   -1.1536 C   0  0  0  0  0  0  0  0  0  0  0  0
    3.3795    0.5723   -0.7713 O   0  0  0  0  0  0  0  0  0  0  0  0
    2.2074    1.2801   -0.9548 C   0  0  0  0  0  0  0  0  0  0  0  0
    4.8751   -1.2668   -0.8344 C   0  0  0  0  0  0  0  0  0  0  0  0
    5.2349   -2.5925   -1.2054 C   0  0  0  0  0  0  0  0  0  0  0  0
    6.4659   -3.1854   -0.7232 N   0  0  0  0  0  0  0  0  0  0  0  0
    6.9177   -2.7822    0.6527 C   0  0  0  0  0  0  0  0  0  0  0  0
    5.9408   -2.9997    1.8640 C   0  0  0  0  0  0  0  0  0  0  0  0
    5.5443   -4.3819    2.2099 N   0  0  0  0  0  0  0  0  0  0  0  0
    6.5842   -5.2121    2.8598 C   0  0  0  0  0  0  0  0  0  0  0  0
    6.0276   -6.5921    3.2830 C   0  0  3  0  0  0  0  0  0  0  0  0
    7.1555   -7.5616    3.6704 C   0  0  0  0  0  0  0  0  0  0  0  0
    6.4864   -8.8664    3.3828 C   0  0  0  0  0  0  0  0  0  0  0  0
    5.8131   -8.5051    2.0743 C   0  0  0  0  0  0  0  0  0  0  0  0
    5.3069   -7.1961    2.2193 O   0  0  0  0  0  0  0  0  0  0  0  0
    7.4339   -4.0099   -1.4675 C   0  0  0  0  0  0  0  0  0  0  0  0
    8.0418   -5.0030   -0.7150 C   0  0  0  0  0  0  0  0  0  0  0  0
    9.2182   -5.6110   -1.0468 C   0  0  0  0  0  0  0  0  0  0  0  0
    9.8403   -5.2958   -2.2189 C   0  0  0  0  0  0  0  0  0  0  0  0
   11.0765   -5.8101   -2.4040 N   0  0  0  0  0  0  0  0  0  0  0  0
   11.7693   -5.5754   -3.5247 C   0  0  0  0  0  0  0  0  0  0  0  0
   11.1722   -4.9037   -4.5830 C   0  0  0  0  0  0  0  0  0  0  0  0
   11.9517   -5.0341   -5.8519 C   0  0  0  0  0  0  0  0  0  0  0  0
   11.5743   -5.7239   -6.9928 C   0  0  0  0  0  0  0  0  0  0  0  0
   12.6231   -5.7887   -7.8449 N   0  0  0  0  0  0  0  0  0  0  0  0
   13.6514   -5.1759   -7.2800 N   0  0  0  0  0  0  0  0  0  0  0  0
   14.9669   -5.0316   -7.9110 C   0  0  0  0  0  0  0  0  0  0  0  0
   13.2962   -4.7270   -6.0585 C   0  0  0  0  0  0  0  0  0  0  0  0
    9.9056   -4.3324   -4.4018 N   0  0  0  0  0  0  0  0  0  0  0  0
    9.2294   -4.4622   -3.1898 C   0  0  0  0  0  0  0  0  0  0  0  0
    7.9895   -3.7777   -2.8030 C   0  0  0  0  0  0  0  0  0  0  0  0
    4.2777   -3.3537   -1.9042 C   0  0  0  0  0  0  0  0  0  0  0  0
   -1.5681   -0.4887   -1.2794 Cl  0  0  0  0  0  0  0  0  0  0  0  0
    0.2554   -4.2629   -3.4556 H   0  0  0  0  0  0  0  0  0  0  0  0
    0.5772   -2.4988   -3.6208 H   0  0  0  0  0  0  0  0  0  0  0  0
    0.2308   -3.2368   -1.9912 H   0  0  0  0  0  0  0  0  0  0  0  0
    1.7230   -1.0843   -2.0700 H   0  0  0  0  0  0  0  0  0  0  0  0
    2.3346    2.3075   -0.5507 H   0  0  0  0  0  0  0  0  0  0  0  0
    1.3701    0.7956   -0.4087 H   0  0  0  0  0  0  0  0  0  0  0  0
    1.9628    1.3601   -2.0361 H   0  0  0  0  0  0  0  0  0  0  0  0
    5.5537   -0.6415   -0.2771 H   0  0  0  0  0  0  0  0  0  0  0  0
    7.1585   -1.7032    0.6368 H   0  0  0  0  0  0  0  0  0  0  0  0
    7.8910   -3.2283    0.9368 H   0  0  0  0  0  0  0  0  0  0  0  0
    5.0181   -2.4098    1.6956 H   0  0  0  0  0  0  0  0  0  0  0  0
    6.4269   -2.5483    2.7610 H   0  0  0  0  0  0  0  0  0  0  0  0
    5.0997   -4.8525    1.3910 H   0  0  0  0  0  0  0  0  0  0  0  0
    7.0291   -4.7016    3.7399 H   0  0  0  0  0  0  0  0  0  0  0  0
    7.4072   -5.3902    2.1710 H   0  0  0  0  0  0  0  0  0  0  0  0
    5.3199   -6.4865    4.1375 H   0  0  0  0  0  0  0  0  0  0  0  0
    7.5567   -7.4473    4.7001 H   0  0  0  0  0  0  0  0  0  0  0  0
    8.0006   -7.4707    2.9486 H   0  0  0  0  0  0  0  0  0  0  0  0
    5.7086   -9.0630    4.1541 H   0  0  0  0  0  0  0  0  0  0  0  0
    7.1694   -9.7419    3.3109 H   0  0  0  0  0  0  0  0  0  0  0  0
    5.0136   -9.2343    1.8264 H   0  0  0  0  0  0  0  0  0  0  0  0
    6.5558   -8.4803    1.2456 H   0  0  0  0  0  0  0  0  0  0  0  0
    7.6334   -5.2641    0.2157 H   0  0  0  0  0  0  0  0  0  0  0  0
    9.6742   -6.2882   -0.3507 H   0  0  0  0  0  0  0  0  0  0  0  0
   12.7541   -6.0190   -3.6163 H   0  0  0  0  0  0  0  0  0  0  0  0
   10.6306   -6.2241   -7.1614 H   0  0  0  0  0  0  0  0  0  0  0  0
   14.9727   -5.5067   -8.9164 H   0  0  0  0  0  0  0  0  0  0  0  0
   15.7648   -5.5017   -7.2920 H   0  0  0  0  0  0  0  0  0  0  0  0
   15.1939   -3.9538   -8.0360 H   0  0  0  0  0  0  0  0  0  0  0  0
   13.9691   -4.2292   -5.3709 H   0  0  0  0  0  0  0  0  0  0  0  0
    7.5539   -3.0354   -3.4641 H   0  0  0  0  0  0  0  0  0  0  0  0
    4.4879   -4.3869   -2.1488 H   0  0  0  0  0  0  0  0  0  0  0  0
   -0.3465   -1.1059   -1.2596 H   0  0  0  0  0  0  0  0  0  0  0  0
  1  2  1  0  0  0  0
  1 38  1  0  0  0  0
  1 39  1  0  0  0  0
  1 40  1  0  0  0  0
  2  3  1  0  0  0  0
  3  4  1  0  0  0  0
  3 36  2  0  0  0  0
  4  5  2  0  0  0  0
  4 41  1  0  0  0  0
  5  6  1  0  0  0  0
  5  8  1  0  0  0  0
  6  7  1  0  0  0  0
  7 42  1  0  0  0  0
  7 43  1  0  0  0  0
  7 44  1  0  0  0  0
  8  9  2  0  0  0  0
  8 45  1  0  0  0  0
  9 10  1  0  0  0  0
  9 36  1  0  0  0  0
 10 11  1  0  0  0  0
 10 20  1  0  0  0  0
 11 12  1  0  0  0  0
 11 46  1  0  0  0  0
 11 47  1  0  0  0  0
 12 13  1  0  0  0  0
 12 48  1  0  0  0  0
 12 49  1  0  0  0  0
 13 14  1  0  0  0  0
 13 50  1  0  0  0  0
 14 15  1  0  0  0  0
 14 51  1  0  0  0  0
 14 52  1  0  0  0  0
 15 16  1  0  0  0  0
 15 19  1  0  0  0  0
 15 53  1  0  0  0  0
 16 17  1  0  0  0  0
 16 54  1  0  0  0  0
 16 55  1  0  0  0  0
 17 18  1  0  0  0  0
 17 56  1  0  0  0  0
 17 57  1  0  0  0  0
 18 19  1  0  0  0  0
 18 58  1  0  0  0  0
 18 59  1  0  0  0  0
 20 21  1  0  0  0  0
 20 35  2  0  0  0  0
 21 22  2  0  0  0  0
 21 60  1  0  0  0  0
 22 23  1  0  0  0  0
 22 61  1  0  0  0  0
 23 24  1  0  0  0  0
 23 34  2  0  0  0  0
 24 25  2  0  0  0  0
 25 26  1  0  0  0  0
 25 62  1  0  0  0  0
 26 27  1  0  0  0  0
 26 33  2  0  0  0  0
 27 28  1  0  0  0  0
 27 32  2  0  0  0  0
 28 29  2  0  0  0  0
 28 63  1  0  0  0  0
 29 30  1  0  0  0  0
 30 31  1  0  0  0  0
 30 32  1  0  0  0  0
 31 64  1  0  0  0  0
 31 65  1  0  0  0  0
 31 66  1  0  0  0  0
 32 67  1  0  0  0  0
 33 34  1  0  0  0  0
 34 35  1  0  0  0  0
 35 68  1  0  0  0  0
 36 69  1  0  0  0  0
 37 70  1  0  0  0  0
M  END
$$$$
