CHEMBL279351
 OpenBabel04072215363D

 52 55  0  0  0  0  0  0  0  0999 V2000
   10.6109    1.7928   -0.9002 C   0  0  0  0  0  0  0  0  0  0  0  0
    9.8153    2.2613   -1.9956 O   0  0  0  0  0  0  0  0  0  0  0  0
    8.8960    3.2327   -1.6917 C   0  0  0  0  0  0  0  0  0  0  0  0
    9.0840    4.0898   -0.5932 C   0  0  0  0  0  0  0  0  0  0  0  0
    8.1411    5.0284   -0.1948 C   0  0  0  0  0  0  0  0  0  0  0  0
    8.4106    5.7628    0.8895 N   0  0  0  0  0  0  0  0  0  0  0  0
    7.5083    6.6804    1.2857 C   0  0  0  0  0  0  0  0  0  0  0  0
    6.3124    6.8927    0.6458 C   0  0  0  0  0  0  0  0  0  0  0  0
    5.9897    6.0708   -0.4324 C   0  0  0  0  0  0  0  0  0  0  0  0
    4.7344    6.1439   -1.0297 O   0  0  0  0  0  0  0  0  0  0  0  0
    3.6176    6.2314   -0.2107 C   0  0  0  0  0  0  0  0  0  0  0  0
    3.5720    5.7129    1.0799 C   0  0  0  0  0  0  0  0  0  0  0  0
    2.4377    5.8795    1.8744 C   0  0  0  0  0  0  0  0  0  0  0  0
    1.2670    6.4677    1.3831 C   0  0  0  0  0  0  0  0  0  0  0  0
    0.0674    6.5232    2.1582 N   0  0  0  0  0  0  0  0  0  0  0  0
   -0.1201    5.8604    3.3588 C   0  0  0  0  0  0  0  0  0  0  0  0
    0.7547    5.2297    3.9459 O   0  0  0  0  0  0  0  0  0  0  0  0
   -1.4225    5.9081    3.8347 N   0  0  0  0  0  0  0  0  0  0  0  0
   -1.7457    5.1439    4.9950 C   0  0  0  0  0  0  0  0  0  0  0  0
   -0.9181    5.1295    6.1280 C   0  0  0  0  0  0  0  0  0  0  0  0
   -1.1607    4.2334    7.1705 C   0  0  0  0  0  0  0  0  0  0  0  0
   -2.2391    3.3587    7.0825 C   0  0  0  0  0  0  0  0  0  0  0  0
   -2.4367    2.4604    8.0560 F   0  0  0  0  0  0  0  0  0  0  0  0
   -3.1001    3.3894    5.9930 C   0  0  0  0  0  0  0  0  0  0  0  0
   -2.8606    4.2997    4.9667 C   0  0  0  0  0  0  0  0  0  0  0  0
   -3.6647    4.3028    3.8924 F   0  0  0  0  0  0  0  0  0  0  0  0
    1.3095    6.9671    0.0673 C   0  0  0  0  0  0  0  0  0  0  0  0
   -0.0835    7.7167   -0.6356 Cl  0  0  0  0  0  0  0  0  0  0  0  0
    2.4729    6.8517   -0.7213 C   0  0  0  0  0  0  0  0  0  0  0  0
    6.9433    5.1489   -0.9328 C   0  0  0  0  0  0  0  0  0  0  0  0
    6.7862    4.3458   -2.0828 C   0  0  0  0  0  0  0  0  0  0  0  0
    7.7509    3.3975   -2.4796 C   0  0  0  0  0  0  0  0  0  0  0  0
    7.3710    2.7453   -3.6188 O   0  0  0  0  0  0  0  0  0  0  0  0
    8.1777    1.7305   -4.1926 C   0  0  0  0  0  0  0  0  0  0  0  0
   10.9920    0.7972   -1.1456 H   0  0  0  0  0  0  0  0  0  0  0  0
   10.0312    1.6946    0.0275 H   0  0  0  0  0  0  0  0  0  0  0  0
   11.4715    2.4539   -0.7459 H   0  0  0  0  0  0  0  0  0  0  0  0
    9.9905    4.0460    0.0025 H   0  0  0  0  0  0  0  0  0  0  0  0
    7.7799    7.2426    2.1721 H   0  0  0  0  0  0  0  0  0  0  0  0
    5.6206    7.6373    1.0267 H   0  0  0  0  0  0  0  0  0  0  0  0
    4.4150    5.1844    1.5172 H   0  0  0  0  0  0  0  0  0  0  0  0
    2.5283    5.5241    2.8941 H   0  0  0  0  0  0  0  0  0  0  0  0
   -0.7155    7.0125    1.7436 H   0  0  0  0  0  0  0  0  0  0  0  0
   -2.1408    5.9179    3.1206 H   0  0  0  0  0  0  0  0  0  0  0  0
   -0.0502    5.7828    6.1902 H   0  0  0  0  0  0  0  0  0  0  0  0
   -0.4969    4.1886    8.0288 H   0  0  0  0  0  0  0  0  0  0  0  0
   -3.9238    2.6893    5.9286 H   0  0  0  0  0  0  0  0  0  0  0  0
    2.4844    7.2381   -1.7371 H   0  0  0  0  0  0  0  0  0  0  0  0
    5.8971    4.4644   -2.6986 H   0  0  0  0  0  0  0  0  0  0  0  0
    7.5369    1.1776   -4.8895 H   0  0  0  0  0  0  0  0  0  0  0  0
    8.5352    0.9997   -3.4652 H   0  0  0  0  0  0  0  0  0  0  0  0
    8.9960    2.1635   -4.7765 H   0  0  0  0  0  0  0  0  0  0  0  0
  1  2  1  0  0  0  0
  1 35  1  0  0  0  0
  1 36  1  0  0  0  0
  1 37  1  0  0  0  0
  2  3  1  0  0  0  0
  3  4  1  0  0  0  0
  3 32  2  0  0  0  0
  4  5  2  0  0  0  0
  4 38  1  0  0  0  0
  5  6  1  0  0  0  0
  5 30  1  0  0  0  0
  6  7  2  0  0  0  0
  7  8  1  0  0  0  0
  7 39  1  0  0  0  0
  8  9  2  0  0  0  0
  8 40  1  0  0  0  0
  9 10  1  0  0  0  0
  9 30  1  0  0  0  0
 10 11  1  0  0  0  0
 11 12  1  0  0  0  0
 11 29  2  0  0  0  0
 12 13  2  0  0  0  0
 12 41  1  0  0  0  0
 13 14  1  0  0  0  0
 13 42  1  0  0  0  0
 14 15  1  0  0  0  0
 14 27  2  0  0  0  0
 15 16  1  0  0  0  0
 15 43  1  0  0  0  0
 16 17  2  0  0  0  0
 16 18  1  0  0  0  0
 18 19  1  0  0  0  0
 18 44  1  0  0  0  0
 19 20  1  0  0  0  0
 19 25  2  0  0  0  0
 20 21  2  0  0  0  0
 20 45  1  0  0  0  0
 21 22  1  0  0  0  0
 21 46  1  0  0  0  0
 22 23  1  0  0  0  0
 22 24  2  0  0  0  0
 24 25  1  0  0  0  0
 24 47  1  0  0  0  0
 25 26  1  0  0  0  0
 27 28  1  0  0  0  0
 27 29  1  0  0  0  0
 29 48  1  0  0  0  0
 30 31  2  0  0  0  0
 31 32  1  0  0  0  0
 31 49  1  0  0  0  0
 32 33  1  0  0  0  0
 33 34  1  0  0  0  0
 34 50  1  0  0  0  0
 34 51  1  0  0  0  0
 34 52  1  0  0  0  0
M  END
$$$$
