CHEMBL3918670
 OpenBabel04072215373D

 63 66  0  0  1  0  0  0  0  0999 V2000
    3.7690   -3.9570    3.1436 C   0  0  0  0  0  0  0  0  0  0  0  0
    4.4252   -2.7027    3.1494 O   0  0  0  0  0  0  0  0  0  0  0  0
    3.8512   -1.5658    2.6681 C   0  0  0  0  0  0  0  0  0  0  0  0
    4.7121   -0.4637    2.8133 C   0  0  0  0  0  0  0  0  0  0  0  0
    4.3772    0.8259    2.3139 C   0  0  0  0  0  0  0  0  0  0  0  0
    5.1848    1.9647    2.3337 C   0  0  0  0  0  0  0  0  0  0  0  0
    6.5083    1.8808    2.8458 N   0  0  0  0  0  0  0  0  0  0  0  0
    7.2376    3.0194    3.2489 C   0  0  0  0  0  0  0  0  0  0  0  0
    6.6292    3.9688    4.0872 C   0  0  0  0  0  0  0  0  0  0  0  0
    7.2826    5.1563    4.4169 C   0  0  0  0  0  0  0  0  0  0  0  0
    8.5558    5.4043    3.9200 C   0  0  0  0  0  0  0  0  0  0  0  0
    9.2832    6.9213    4.3169 Cl  0  0  0  0  0  0  0  0  0  0  0  0
    9.1902    4.4477    3.1171 C   0  0  0  0  0  0  0  0  0  0  0  0
   10.7754    4.6945    2.4729 Cl  0  0  0  0  0  0  0  0  0  0  0  0
    8.5314    3.2532    2.7882 C   0  0  0  0  0  0  0  0  0  0  0  0
    4.7618    3.1584    1.8648 N   0  0  0  0  0  0  0  0  0  0  0  0
    3.5262    3.2163    1.3596 C   0  0  0  0  0  0  0  0  0  0  0  0
    2.6848    2.1949    1.2786 N   0  0  0  0  0  0  0  0  0  0  0  0
    3.1242    1.0269    1.7553 C   0  0  0  0  0  0  0  0  0  0  0  0
    2.2700   -0.0411    1.6609 C   0  0  0  0  0  0  0  0  0  0  0  0
    2.6220   -1.3535    2.0393 C   0  0  0  0  0  0  0  0  0  0  0  0
    1.7633   -2.3906    1.7606 O   0  0  0  0  0  0  0  0  0  0  0  0
    0.8754   -2.0994    0.6702 C   0  0  0  0  0  0  0  0  0  0  0  0
    0.2512   -3.3368    0.0621 C   0  0  3  0  0  0  0  0  0  0  0  0
    1.3366   -4.3220   -0.4158 C   0  0  0  0  0  0  0  0  0  0  0  0
    0.7658   -5.4901   -1.1249 N   0  0  0  0  0  0  0  0  0  0  0  0
    0.0056   -6.3310   -0.1772 C   0  0  0  0  0  0  0  0  0  0  0  0
   -0.5671   -7.6017   -0.8029 C   0  0  0  0  0  0  0  0  0  0  0  0
   -1.2894   -8.3334    0.1935 O   0  0  0  0  0  0  0  0  0  0  0  0
   -1.8868   -9.4983   -0.3932 C   0  0  0  0  0  0  0  0  0  0  0  0
   -2.6485  -10.2594    0.6808 C   0  0  0  0  0  0  0  0  0  0  0  0
   -3.6891   -9.4467    1.2190 O   0  0  0  0  0  0  0  0  0  0  0  0
   -0.0624   -4.9560   -2.2311 C   0  0  0  0  0  0  0  0  0  0  0  0
   -1.1384   -3.9631   -1.7671 C   0  0  0  0  0  0  0  0  0  0  0  0
   -0.5600   -2.8772   -1.0405 O   0  0  0  0  0  0  0  0  0  0  0  0
    4.5439   -4.7213    3.0161 H   0  0  0  0  0  0  0  0  0  0  0  0
    3.0644   -4.1054    2.3302 H   0  0  0  0  0  0  0  0  0  0  0  0
    3.2909   -4.1335    4.1115 H   0  0  0  0  0  0  0  0  0  0  0  0
    5.6632   -0.6109    3.3199 H   0  0  0  0  0  0  0  0  0  0  0  0
    7.0446    1.2244    2.2915 H   0  0  0  0  0  0  0  0  0  0  0  0
    5.6269    3.7931    4.4591 H   0  0  0  0  0  0  0  0  0  0  0  0
    6.7693    5.8808    5.0433 H   0  0  0  0  0  0  0  0  0  0  0  0
    9.0252    2.5309    2.1412 H   0  0  0  0  0  0  0  0  0  0  0  0
    3.1842    4.1725    0.9854 H   0  0  0  0  0  0  0  0  0  0  0  0
    1.3007    0.1877    1.2271 H   0  0  0  0  0  0  0  0  0  0  0  0
    1.4035   -1.5756   -0.1409 H   0  0  0  0  0  0  0  0  0  0  0  0
    0.0559   -1.4619    1.0283 H   0  0  0  0  0  0  0  0  0  0  0  0
   -0.3965   -3.7969    0.8165 H   0  0  0  0  0  0  0  0  0  0  0  0
    1.9609   -4.6610    0.4169 H   0  0  0  0  0  0  0  0  0  0  0  0
    2.0158   -3.8065   -1.1103 H   0  0  0  0  0  0  0  0  0  0  0  0
   -0.8192   -5.7917    0.3030 H   0  0  0  0  0  0  0  0  0  0  0  0
    0.6664   -6.6297    0.6479 H   0  0  0  0  0  0  0  0  0  0  0  0
    0.2432   -8.2222   -1.2005 H   0  0  0  0  0  0  0  0  0  0  0  0
   -1.2621   -7.3491   -1.6093 H   0  0  0  0  0  0  0  0  0  0  0  0
   -1.1017  -10.1307   -0.8187 H   0  0  0  0  0  0  0  0  0  0  0  0
   -2.5753   -9.1776   -1.1839 H   0  0  0  0  0  0  0  0  0  0  0  0
   -1.9867  -10.5416    1.5055 H   0  0  0  0  0  0  0  0  0  0  0  0
   -3.1000  -11.1618    0.2585 H   0  0  0  0  0  0  0  0  0  0  0  0
   -3.2485   -8.6303    1.5225 H   0  0  0  0  0  0  0  0  0  0  0  0
   -0.5116   -5.7622   -2.8178 H   0  0  0  0  0  0  0  0  0  0  0  0
    0.6130   -4.4360   -2.9243 H   0  0  0  0  0  0  0  0  0  0  0  0
   -1.9019   -4.4423   -1.1455 H   0  0  0  0  0  0  0  0  0  0  0  0
   -1.6472   -3.5387   -2.6385 H   0  0  0  0  0  0  0  0  0  0  0  0
  1  2  1  0  0  0  0
  1 36  1  0  0  0  0
  1 37  1  0  0  0  0
  1 38  1  0  0  0  0
  2  3  1  0  0  0  0
  3  4  1  0  0  0  0
  3 21  2  0  0  0  0
  4  5  2  0  0  0  0
  4 39  1  0  0  0  0
  5  6  1  0  0  0  0
  5 19  1  0  0  0  0
  6  7  1  0  0  0  0
  6 16  2  0  0  0  0
  7  8  1  0  0  0  0
  7 40  1  0  0  0  0
  8  9  1  0  0  0  0
  8 15  2  0  0  0  0
  9 10  2  0  0  0  0
  9 41  1  0  0  0  0
 10 11  1  0  0  0  0
 10 42  1  0  0  0  0
 11 12  1  0  0  0  0
 11 13  2  0  0  0  0
 13 14  1  0  0  0  0
 13 15  1  0  0  0  0
 15 43  1  0  0  0  0
 16 17  1  0  0  0  0
 17 18  2  0  0  0  0
 17 44  1  0  0  0  0
 18 19  1  0  0  0  0
 19 20  2  0  0  0  0
 20 21  1  0  0  0  0
 20 45  1  0  0  0  0
 21 22  1  0  0  0  0
 22 23  1  0  0  0  0
 23 24  1  0  0  0  0
 23 46  1  0  0  0  0
 23 47  1  0  0  0  0
 24 25  1  0  0  0  0
 24 35  1  0  0  0  0
 24 48  1  0  0  0  0
 25 26  1  0  0  0  0
 25 49  1  0  0  0  0
 25 50  1  0  0  0  0
 26 27  1  0  0  0  0
 26 33  1  0  0  0  0
 27 28  1  0  0  0  0
 27 51  1  0  0  0  0
 27 52  1  0  0  0  0
 28 29  1  0  0  0  0
 28 53  1  0  0  0  0
 28 54  1  0  0  0  0
 29 30  1  0  0  0  0
 30 31  1  0  0  0  0
 30 55  1  0  0  0  0
 30 56  1  0  0  0  0
 31 32  1  0  0  0  0
 31 57  1  0  0  0  0
 31 58  1  0  0  0  0
 32 59  1  0  0  0  0
 33 34  1  0  0  0  0
 33 60  1  0  0  0  0
 33 61  1  0  0  0  0
 34 35  1  0  0  0  0
 34 62  1  0  0  0  0
 34 63  1  0  0  0  0
M  END
$$$$
