CHEMBL377481
 OpenBabel04072215373D

 76 81  0  0  0  0  0  0  0  0999 V2000
    2.4440    1.9189   -2.3382 C   0  0  0  0  0  0  0  0  0  0  0  0
    3.1849    1.1947   -1.2487 C   0  0  0  0  0  0  0  0  0  0  0  0
    3.9233    0.0535   -1.6023 C   0  0  0  0  0  0  0  0  0  0  0  0
    4.7661   -0.5732   -0.6843 C   0  0  0  0  0  0  0  0  0  0  0  0
    4.8855   -0.0711    0.6083 C   0  0  0  0  0  0  0  0  0  0  0  0
    4.1491    1.0540    1.0065 C   0  0  0  0  0  0  0  0  0  0  0  0
    4.3288    1.5843    2.3999 C   0  0  0  0  0  0  0  0  0  0  0  0
    3.2921    1.6732    0.0712 C   0  0  0  0  0  0  0  0  0  0  0  0
    2.7716    2.9448    0.4277 O   0  0  0  0  0  0  0  0  0  0  0  0
    1.4292    3.3210    0.2288 C   0  0  0  0  0  0  0  0  0  0  0  0
    0.5151    2.5069    0.2530 O   0  0  0  0  0  0  0  0  0  0  0  0
    1.2873    4.7108    0.0626 N   0  0  0  0  0  0  0  0  0  0  0  0
    0.0075    5.3705   -0.0131 C   0  0  0  0  0  0  0  0  0  0  0  0
   -1.0756    4.9468    0.7573 C   0  0  0  0  0  0  0  0  0  0  0  0
   -2.2770    5.6797    0.7732 C   0  0  0  0  0  0  0  0  0  0  0  0
   -2.4373    6.8337   -0.0127 C   0  0  0  0  0  0  0  0  0  0  0  0
   -3.6218    7.5900    0.0142 C   0  0  0  0  0  0  0  0  0  0  0  0
   -3.7678    8.7289   -0.7827 C   0  0  0  0  0  0  0  0  0  0  0  0
   -2.7279    9.1244   -1.6193 C   0  0  0  0  0  0  0  0  0  0  0  0
   -1.5424    8.3864   -1.6544 C   0  0  0  0  0  0  0  0  0  0  0  0
   -1.3793    7.2458   -0.8499 C   0  0  0  0  0  0  0  0  0  0  0  0
   -0.1818    6.5010   -0.8431 C   0  0  0  0  0  0  0  0  0  0  0  0
    2.4414    5.5301   -0.1254 C   0  0  0  0  0  0  0  0  0  0  0  0
    2.5430    6.7189    0.5712 C   0  0  0  0  0  0  0  0  0  0  0  0
    3.6392    7.4893    0.2929 C   0  0  0  0  0  0  0  0  0  0  0  0
    4.5605    7.1558   -0.6235 N   0  0  0  0  0  0  0  0  0  0  0  0
    4.4180    5.9685   -1.2309 C   0  0  0  0  0  0  0  0  0  0  0  0
    5.3366    5.6877   -2.2385 N   0  0  0  0  0  0  0  0  0  0  0  0
    5.8502    4.4627   -2.6701 C   0  0  0  0  0  0  0  0  0  0  0  0
    6.2922    4.3295   -3.9885 C   0  0  0  0  0  0  0  0  0  0  0  0
    6.7033    3.0863   -4.4872 C   0  0  0  0  0  0  0  0  0  0  0  0
    6.7344    1.9343   -3.6939 C   0  0  0  0  0  0  0  0  0  0  0  0
    7.1251    0.7186   -4.2220 N   0  0  0  0  0  0  0  0  0  0  0  0
    7.5330   -0.4181   -3.3814 C   0  0  0  0  0  0  0  0  0  0  0  0
    8.6015   -1.2385   -4.1445 C   0  0  0  0  0  0  0  0  0  0  0  0
    8.1244   -1.7175   -5.4643 N   0  0  0  0  0  0  0  0  0  0  0  0
    9.1968   -2.4161   -6.1687 C   0  0  0  0  0  0  0  0  0  0  0  0
    7.6485   -0.5607   -6.2617 C   0  0  0  0  0  0  0  0  0  0  0  0
    6.5770    0.2760   -5.5222 C   0  0  0  0  0  0  0  0  0  0  0  0
    6.4042    2.1153   -2.3486 C   0  0  0  0  0  0  0  0  0  0  0  0
    5.9263    3.3410   -1.8532 C   0  0  0  0  0  0  0  0  0  0  0  0
    3.3967    5.1336   -0.9892 N   0  0  0  0  0  0  0  0  0  0  0  0
    2.4313    1.3338   -3.2642 H   0  0  0  0  0  0  0  0  0  0  0  0
    2.9280    2.8733   -2.5634 H   0  0  0  0  0  0  0  0  0  0  0  0
    1.3995    2.0880   -2.0726 H   0  0  0  0  0  0  0  0  0  0  0  0
    3.9151   -0.3023   -2.6313 H   0  0  0  0  0  0  0  0  0  0  0  0
    5.3776   -1.4142   -0.9997 H   0  0  0  0  0  0  0  0  0  0  0  0
    5.5886   -0.5421    1.2919 H   0  0  0  0  0  0  0  0  0  0  0  0
    5.0482    0.9788    2.9647 H   0  0  0  0  0  0  0  0  0  0  0  0
    3.3792    1.5514    2.9419 H   0  0  0  0  0  0  0  0  0  0  0  0
    4.7109    2.6094    2.3813 H   0  0  0  0  0  0  0  0  0  0  0  0
   -1.0007    4.0742    1.4036 H   0  0  0  0  0  0  0  0  0  0  0  0
   -3.0837    5.3398    1.4138 H   0  0  0  0  0  0  0  0  0  0  0  0
   -4.4474    7.2954    0.6589 H   0  0  0  0  0  0  0  0  0  0  0  0
   -4.6916    9.3025   -0.7490 H   0  0  0  0  0  0  0  0  0  0  0  0
   -2.8427   10.0088   -2.2454 H   0  0  0  0  0  0  0  0  0  0  0  0
   -0.7447    8.7157   -2.3180 H   0  0  0  0  0  0  0  0  0  0  0  0
    0.6123    6.8162   -1.5202 H   0  0  0  0  0  0  0  0  0  0  0  0
    1.8092    7.0294    1.3042 H   0  0  0  0  0  0  0  0  0  0  0  0
    3.8069    8.4310    0.8067 H   0  0  0  0  0  0  0  0  0  0  0  0
    5.9200    6.4919   -2.4164 H   0  0  0  0  0  0  0  0  0  0  0  0
    6.2877    5.1865   -4.6534 H   0  0  0  0  0  0  0  0  0  0  0  0
    7.0326    3.0391   -5.5216 H   0  0  0  0  0  0  0  0  0  0  0  0
    6.6684   -1.0540   -3.1520 H   0  0  0  0  0  0  0  0  0  0  0  0
    7.9784   -0.0918   -2.4358 H   0  0  0  0  0  0  0  0  0  0  0  0
    8.8919   -2.0948   -3.5250 H   0  0  0  0  0  0  0  0  0  0  0  0
    9.4913   -0.6066   -4.2739 H   0  0  0  0  0  0  0  0  0  0  0  0
    9.5301   -3.2852   -5.5911 H   0  0  0  0  0  0  0  0  0  0  0  0
   10.0641   -1.7713   -6.3518 H   0  0  0  0  0  0  0  0  0  0  0  0
    8.8390   -2.7945   -7.1323 H   0  0  0  0  0  0  0  0  0  0  0  0
    7.2223   -0.9181   -7.2064 H   0  0  0  0  0  0  0  0  0  0  0  0
    8.4912    0.1001   -6.5077 H   0  0  0  0  0  0  0  0  0  0  0  0
    5.6786   -0.3354   -5.3559 H   0  0  0  0  0  0  0  0  0  0  0  0
    6.2750    1.1051   -6.1695 H   0  0  0  0  0  0  0  0  0  0  0  0
    6.4572    1.2926   -1.6492 H   0  0  0  0  0  0  0  0  0  0  0  0
    5.6188    3.3928   -0.8120 H   0  0  0  0  0  0  0  0  0  0  0  0
  1  2  1  0  0  0  0
  1 43  1  0  0  0  0
  1 44  1  0  0  0  0
  1 45  1  0  0  0  0
  2  3  1  0  0  0  0
  2  8  2  0  0  0  0
  3  4  2  0  0  0  0
  3 46  1  0  0  0  0
  4  5  1  0  0  0  0
  4 47  1  0  0  0  0
  5  6  2  0  0  0  0
  5 48  1  0  0  0  0
  6  7  1  0  0  0  0
  6  8  1  0  0  0  0
  7 49  1  0  0  0  0
  7 50  1  0  0  0  0
  7 51  1  0  0  0  0
  8  9  1  0  0  0  0
  9 10  1  0  0  0  0
 10 11  2  0  0  0  0
 10 12  1  0  0  0  0
 12 13  1  0  0  0  0
 12 23  1  0  0  0  0
 13 14  1  0  0  0  0
 13 22  2  0  0  0  0
 14 15  2  0  0  0  0
 14 52  1  0  0  0  0
 15 16  1  0  0  0  0
 15 53  1  0  0  0  0
 16 17  1  0  0  0  0
 16 21  2  0  0  0  0
 17 18  2  0  0  0  0
 17 54  1  0  0  0  0
 18 19  1  0  0  0  0
 18 55  1  0  0  0  0
 19 20  2  0  0  0  0
 19 56  1  0  0  0  0
 20 21  1  0  0  0  0
 20 57  1  0  0  0  0
 21 22  1  0  0  0  0
 22 58  1  0  0  0  0
 23 24  1  0  0  0  0
 23 42  2  0  0  0  0
 24 25  2  0  0  0  0
 24 59  1  0  0  0  0
 25 26  1  0  0  0  0
 25 60  1  0  0  0  0
 26 27  2  0  0  0  0
 27 28  1  0  0  0  0
 27 42  1  0  0  0  0
 28 29  1  0  0  0  0
 28 61  1  0  0  0  0
 29 30  1  0  0  0  0
 29 41  2  0  0  0  0
 30 31  2  0  0  0  0
 30 62  1  0  0  0  0
 31 32  1  0  0  0  0
 31 63  1  0  0  0  0
 32 33  1  0  0  0  0
 32 40  2  0  0  0  0
 33 34  1  0  0  0  0
 33 39  1  0  0  0  0
 34 35  1  0  0  0  0
 34 64  1  0  0  0  0
 34 65  1  0  0  0  0
 35 36  1  0  0  0  0
 35 66  1  0  0  0  0
 35 67  1  0  0  0  0
 36 37  1  0  0  0  0
 36 38  1  0  0  0  0
 37 68  1  0  0  0  0
 37 69  1  0  0  0  0
 37 70  1  0  0  0  0
 38 39  1  0  0  0  0
 38 71  1  0  0  0  0
 38 72  1  0  0  0  0
 39 73  1  0  0  0  0
 39 74  1  0  0  0  0
 40 41  1  0  0  0  0
 40 75  1  0  0  0  0
 41 76  1  0  0  0  0
M  END
$$$$
