CHEMBL2403374
 OpenBabel04072215363D

 57 61  0  0  0  0  0  0  0  0999 V2000
    1.2607    2.0528   -0.7224 C   0  0  0  0  0  0  0  0  0  0  0  0
    2.5775    2.1134   -1.4468 C   0  0  0  0  0  0  0  0  0  0  0  0
    2.7713    2.9783   -2.2951 O   0  0  0  0  0  0  0  0  0  0  0  0
    3.4681    1.1218   -1.0538 N   0  0  0  0  0  0  0  0  0  0  0  0
    4.8161    1.0171   -1.4766 C   0  0  0  0  0  0  0  0  0  0  0  0
    5.4739    2.0890   -2.1145 C   0  0  0  0  0  0  0  0  0  0  0  0
    6.8021    2.0001   -2.5246 C   0  0  0  0  0  0  0  0  0  0  0  0
    7.4499    0.8182   -2.2755 C   0  0  0  0  0  0  0  0  0  0  0  0
    6.8407   -0.2703   -1.6423 C   0  0  0  0  0  0  0  0  0  0  0  0
    5.5183   -0.1783   -1.2183 C   0  0  0  0  0  0  0  0  0  0  0  0
    7.8829   -1.3094   -1.5634 C   0  0  0  0  0  0  0  0  0  0  0  0
    7.7686   -2.5262   -1.0074 C   0  0  0  0  0  0  0  0  0  0  0  0
    8.8874   -3.3791   -0.8843 C   0  0  0  0  0  0  0  0  0  0  0  0
    9.8000   -3.6134    0.1319 C   0  0  0  0  0  0  0  0  0  0  0  0
   10.8370   -4.4350   -0.3919 C   0  0  0  0  0  0  0  0  0  0  0  0
   10.4741   -4.7017   -1.6896 C   0  0  0  0  0  0  0  0  0  0  0  0
    9.2880   -4.0978   -1.9780 N   0  0  0  0  0  0  0  0  0  0  0  0
   11.2760   -5.4315   -2.6598 C   0  0  0  0  0  0  0  0  0  0  0  0
   12.4672   -6.0942   -1.9808 C   0  0  0  0  0  0  0  0  0  0  0  0
   12.9488   -5.7343   -0.6548 N   0  0  0  0  0  0  0  0  0  0  0  0
   14.0637   -6.3290   -0.0643 C   0  0  0  0  0  0  0  0  0  0  0  0
   14.3970   -5.9694    1.0790 O   0  0  0  0  0  0  0  0  0  0  0  0
   14.7771   -7.3376   -0.7049 N   0  0  0  0  0  0  0  0  0  0  0  0
   14.5695   -8.0838   -1.9660 C   0  0  0  0  0  0  0  0  0  0  0  0
   14.1288   -9.5111   -1.6457 C   0  0  0  0  0  0  0  0  0  0  0  0
   15.1905  -10.1849   -0.9609 O   0  0  0  0  0  0  0  0  0  0  0  0
   15.5092   -9.5082    0.2696 C   0  0  0  0  0  0  0  0  0  0  0  0
   15.8382   -8.0131    0.0657 C   0  0  0  0  0  0  0  0  0  0  0  0
   12.1106   -4.8989    0.2404 C   0  0  0  0  0  0  0  0  0  0  0  0
    9.1296   -0.7333   -2.2127 C   0  0  0  0  0  0  0  0  0  0  0  0
   10.2086   -1.2497   -2.4241 O   0  0  0  0  0  0  0  0  0  0  0  0
    8.7721    0.5442   -2.5936 N   0  0  0  0  0  0  0  0  0  0  0  0
    0.5892    2.8064   -1.1480 H   0  0  0  0  0  0  0  0  0  0  0  0
    1.4096    2.2788    0.3362 H   0  0  0  0  0  0  0  0  0  0  0  0
    0.8018    1.0698   -0.8452 H   0  0  0  0  0  0  0  0  0  0  0  0
    3.1052    0.3735   -0.4797 H   0  0  0  0  0  0  0  0  0  0  0  0
    4.9758    3.0395   -2.2867 H   0  0  0  0  0  0  0  0  0  0  0  0
    7.2926    2.8375   -3.0066 H   0  0  0  0  0  0  0  0  0  0  0  0
    5.0459   -1.0123   -0.7115 H   0  0  0  0  0  0  0  0  0  0  0  0
    6.8315   -2.8646   -0.5783 H   0  0  0  0  0  0  0  0  0  0  0  0
    9.7688   -3.1630    1.1148 H   0  0  0  0  0  0  0  0  0  0  0  0
    8.8525   -4.0784   -2.8921 H   0  0  0  0  0  0  0  0  0  0  0  0
   11.6231   -4.7632   -3.4550 H   0  0  0  0  0  0  0  0  0  0  0  0
   10.6799   -6.2138   -3.1502 H   0  0  0  0  0  0  0  0  0  0  0  0
   13.3126   -5.9270   -2.6566 H   0  0  0  0  0  0  0  0  0  0  0  0
   12.2009   -7.1501   -1.8889 H   0  0  0  0  0  0  0  0  0  0  0  0
   15.5380   -8.0968   -2.4811 H   0  0  0  0  0  0  0  0  0  0  0  0
   13.8849   -7.6752   -2.6881 H   0  0  0  0  0  0  0  0  0  0  0  0
   13.9170  -10.0560   -2.5714 H   0  0  0  0  0  0  0  0  0  0  0  0
   13.2208   -9.5287   -1.0291 H   0  0  0  0  0  0  0  0  0  0  0  0
   16.3760  -10.0219    0.6959 H   0  0  0  0  0  0  0  0  0  0  0  0
   14.6657   -9.6347    0.9562 H   0  0  0  0  0  0  0  0  0  0  0  0
   16.7550   -7.9209   -0.5294 H   0  0  0  0  0  0  0  0  0  0  0  0
   16.0272   -7.5445    1.0348 H   0  0  0  0  0  0  0  0  0  0  0  0
   12.7065   -4.0372    0.5698 H   0  0  0  0  0  0  0  0  0  0  0  0
   11.8705   -5.4973    1.1277 H   0  0  0  0  0  0  0  0  0  0  0  0
    9.4131    1.1693   -3.0535 H   0  0  0  0  0  0  0  0  0  0  0  0
  1  2  1  0  0  0  0
  1 33  1  0  0  0  0
  1 34  1  0  0  0  0
  1 35  1  0  0  0  0
  2  3  2  0  0  0  0
  2  4  1  0  0  0  0
  4  5  1  0  0  0  0
  4 36  1  0  0  0  0
  5  6  1  0  0  0  0
  5 10  2  0  0  0  0
  6  7  2  0  0  0  0
  6 37  1  0  0  0  0
  7  8  1  0  0  0  0
  7 38  1  0  0  0  0
  8  9  2  0  0  0  0
  8 32  1  0  0  0  0
  9 10  1  0  0  0  0
  9 11  1  0  0  0  0
 10 39  1  0  0  0  0
 11 12  2  0  0  0  0
 11 30  1  0  0  0  0
 12 13  1  0  0  0  0
 12 40  1  0  0  0  0
 13 14  2  0  0  0  0
 13 17  1  0  0  0  0
 14 15  1  0  0  0  0
 14 41  1  0  0  0  0
 15 16  2  0  0  0  0
 15 29  1  0  0  0  0
 16 17  1  0  0  0  0
 16 18  1  0  0  0  0
 17 42  1  0  0  0  0
 18 19  1  0  0  0  0
 18 43  1  0  0  0  0
 18 44  1  0  0  0  0
 19 20  1  0  0  0  0
 19 45  1  0  0  0  0
 19 46  1  0  0  0  0
 20 21  1  0  0  0  0
 20 29  1  0  0  0  0
 21 22  2  0  0  0  0
 21 23  1  0  0  0  0
 23 24  1  0  0  0  0
 23 28  1  0  0  0  0
 24 25  1  0  0  0  0
 24 47  1  0  0  0  0
 24 48  1  0  0  0  0
 25 26  1  0  0  0  0
 25 49  1  0  0  0  0
 25 50  1  0  0  0  0
 26 27  1  0  0  0  0
 27 28  1  0  0  0  0
 27 51  1  0  0  0  0
 27 52  1  0  0  0  0
 28 53  1  0  0  0  0
 28 54  1  0  0  0  0
 29 55  1  0  0  0  0
 29 56  1  0  0  0  0
 30 31  2  0  0  0  0
 30 32  1  0  0  0  0
 32 57  1  0  0  0  0
M  END
$$$$
