CHEMBL213796
 OpenBabel04072215363D

 73 79  0  0  0  0  0  0  0  0999 V2000
   -8.2182    4.6115    3.5098 C   0  0  0  0  0  0  0  0  0  0  0  0
   -8.4923    3.1824    3.8721 C   0  0  0  0  0  0  0  0  0  0  0  0
   -9.0628    2.8627    5.1071 C   0  0  0  0  0  0  0  0  0  0  0  0
   -9.3202    1.5342    5.4346 C   0  0  0  0  0  0  0  0  0  0  0  0
   -9.0382    0.5238    4.5155 C   0  0  0  0  0  0  0  0  0  0  0  0
   -8.5149    0.8253    3.2544 C   0  0  0  0  0  0  0  0  0  0  0  0
   -8.3275   -0.1470    2.2406 N   0  0  0  0  0  0  0  0  0  0  0  0
   -8.8747   -1.3975    2.2573 C   0  0  0  0  0  0  0  0  0  0  0  0
   -9.6932   -1.7934    3.0742 O   0  0  0  0  0  0  0  0  0  0  0  0
   -8.4123   -2.2971    1.2482 N   0  0  0  0  0  0  0  0  0  0  0  0
   -7.3405   -1.9614    0.3068 C   0  0  0  0  0  0  0  0  0  0  0  0
   -7.0419   -2.9689   -0.8073 C   0  0  0  0  0  0  0  0  0  0  0  0
   -7.4814   -4.3423   -0.4827 C   0  0  0  0  0  0  0  0  0  0  0  0
   -7.1612   -5.5171   -1.2021 C   0  0  0  0  0  0  0  0  0  0  0  0
   -8.0575   -6.5516   -0.9839 C   0  0  0  0  0  0  0  0  0  0  0  0
   -8.2795   -7.7071   -1.9459 C   0  0  0  0  0  0  0  0  0  0  0  0
   -8.7231   -8.9338   -1.6345 N   0  0  0  0  0  0  0  0  0  0  0  0
   -8.2836   -9.7203   -2.6715 N   0  0  0  0  0  0  0  0  0  0  0  0
   -7.6904   -9.0184   -3.6942 C   0  0  0  0  0  0  0  0  0  0  0  0
   -7.8450   -7.6923   -3.2954 C   0  0  0  0  0  0  0  0  0  0  0  0
   -6.8685   -6.8315   -3.9910 C   0  0  0  0  0  0  0  0  0  0  0  0
   -5.7711   -7.8872   -3.7964 C   0  0  0  0  0  0  0  0  0  0  0  0
   -4.9612   -8.0570   -2.6498 C   0  0  0  0  0  0  0  0  0  0  0  0
   -4.3634   -9.3145   -2.4313 C   0  0  0  0  0  0  0  0  0  0  0  0
   -4.0273   -9.8530   -1.0477 C   0  0  0  0  0  0  0  0  0  0  0  0
   -2.6051   -9.9044   -0.7091 N   0  0  0  0  0  0  0  0  0  0  0  0
   -2.0878   -8.5498   -0.4591 C   0  0  0  0  0  0  0  0  0  0  0  0
   -0.6148   -8.5726    0.0013 C   0  0  0  0  0  0  0  0  0  0  0  0
   -0.3483   -9.3943    1.1983 N   0  0  0  0  0  0  0  0  0  0  0  0
   -0.8500   -8.7590    2.4144 C   0  0  0  0  0  0  0  0  0  0  0  0
   -0.9347  -10.7347    0.9999 C   0  0  0  0  0  0  0  0  0  0  0  0
   -2.4022  -10.7379    0.5029 C   0  0  0  0  0  0  0  0  0  0  0  0
   -4.3800  -10.2234   -3.4889 C   0  0  0  0  0  0  0  0  0  0  0  0
   -5.4427  -10.1661   -4.3844 C   0  0  0  0  0  0  0  0  0  0  0  0
   -6.3006   -9.0950   -4.3014 C   0  0  0  0  0  0  0  0  0  0  0  0
   -8.8105   -6.2959    0.5284 S   0  0  0  0  0  0  0  0  0  0  0  0
   -8.3200   -4.6494    0.5519 C   0  0  0  0  0  0  0  0  0  0  0  0
   -8.7920   -3.6837    1.5568 C   0  0  0  0  0  0  0  0  0  0  0  0
   -8.2075    2.1563    2.9554 C   0  0  0  0  0  0  0  0  0  0  0  0
   -8.4725    5.2876    4.3332 H   0  0  0  0  0  0  0  0  0  0  0  0
   -8.8189    4.8991    2.6410 H   0  0  0  0  0  0  0  0  0  0  0  0
   -7.1571    4.7464    3.2797 H   0  0  0  0  0  0  0  0  0  0  0  0
   -9.3158    3.6401    5.8233 H   0  0  0  0  0  0  0  0  0  0  0  0
   -9.7545    1.2793    6.3970 H   0  0  0  0  0  0  0  0  0  0  0  0
   -9.2444   -0.4973    4.8198 H   0  0  0  0  0  0  0  0  0  0  0  0
   -7.8794    0.1831    1.3997 H   0  0  0  0  0  0  0  0  0  0  0  0
   -6.4277   -1.7531    0.8790 H   0  0  0  0  0  0  0  0  0  0  0  0
   -7.6149   -1.0160   -0.1837 H   0  0  0  0  0  0  0  0  0  0  0  0
   -5.9737   -2.9261   -1.0711 H   0  0  0  0  0  0  0  0  0  0  0  0
   -7.5843   -2.6590   -1.7122 H   0  0  0  0  0  0  0  0  0  0  0  0
   -6.3834   -5.4889   -1.9444 H   0  0  0  0  0  0  0  0  0  0  0  0
   -8.3885  -10.7258   -2.5797 H   0  0  0  0  0  0  0  0  0  0  0  0
   -6.6657   -5.8240   -3.6708 H   0  0  0  0  0  0  0  0  0  0  0  0
   -7.1325   -6.7555   -5.0558 H   0  0  0  0  0  0  0  0  0  0  0  0
   -5.0245   -7.3527   -1.8219 H   0  0  0  0  0  0  0  0  0  0  0  0
   -4.4218  -10.8825   -1.0344 H   0  0  0  0  0  0  0  0  0  0  0  0
   -4.6161   -9.3316   -0.2801 H   0  0  0  0  0  0  0  0  0  0  0  0
   -2.7008   -8.0346    0.2923 H   0  0  0  0  0  0  0  0  0  0  0  0
   -2.1426   -7.9607   -1.3808 H   0  0  0  0  0  0  0  0  0  0  0  0
   -0.2708   -7.5447    0.1641 H   0  0  0  0  0  0  0  0  0  0  0  0
   -0.0017   -8.9643   -0.8212 H   0  0  0  0  0  0  0  0  0  0  0  0
   -0.4038   -7.7658    2.5376 H   0  0  0  0  0  0  0  0  0  0  0  0
   -0.5557   -9.3417    3.2945 H   0  0  0  0  0  0  0  0  0  0  0  0
   -1.9386   -8.6457    2.4313 H   0  0  0  0  0  0  0  0  0  0  0  0
   -0.8556  -11.3228    1.9236 H   0  0  0  0  0  0  0  0  0  0  0  0
   -0.3184  -11.2659    0.2625 H   0  0  0  0  0  0  0  0  0  0  0  0
   -3.0564  -10.4004    1.3184 H   0  0  0  0  0  0  0  0  0  0  0  0
   -2.6795  -11.7769    0.2832 H   0  0  0  0  0  0  0  0  0  0  0  0
   -3.6600  -11.0358   -3.5234 H   0  0  0  0  0  0  0  0  0  0  0  0
   -5.4869  -10.8373   -5.2342 H   0  0  0  0  0  0  0  0  0  0  0  0
   -8.3788   -3.9460    2.5401 H   0  0  0  0  0  0  0  0  0  0  0  0
   -9.8871   -3.7261    1.6191 H   0  0  0  0  0  0  0  0  0  0  0  0
   -7.7750    2.4172    1.9919 H   0  0  0  0  0  0  0  0  0  0  0  0
  1  2  1  0  0  0  0
  1 40  1  0  0  0  0
  1 41  1  0  0  0  0
  1 42  1  0  0  0  0
  2  3  1  0  0  0  0
  2 39  2  0  0  0  0
  3  4  2  0  0  0  0
  3 43  1  0  0  0  0
  4  5  1  0  0  0  0
  4 44  1  0  0  0  0
  5  6  2  0  0  0  0
  5 45  1  0  0  0  0
  6  7  1  0  0  0  0
  6 39  1  0  0  0  0
  7  8  1  0  0  0  0
  7 46  1  0  0  0  0
  8  9  2  0  0  0  0
  8 10  1  0  0  0  0
 10 11  1  0  0  0  0
 10 38  1  0  0  0  0
 11 12  1  0  0  0  0
 11 47  1  0  0  0  0
 11 48  1  0  0  0  0
 12 13  1  0  0  0  0
 12 49  1  0  0  0  0
 12 50  1  0  0  0  0
 13 14  1  0  0  0  0
 13 37  2  0  0  0  0
 14 15  2  0  0  0  0
 14 51  1  0  0  0  0
 15 16  1  0  0  0  0
 15 36  1  0  0  0  0
 16 17  2  0  0  0  0
 16 20  1  0  0  0  0
 17 18  1  0  0  0  0
 18 19  1  0  0  0  0
 18 52  1  0  0  0  0
 19 20  2  0  0  0  0
 19 35  1  0  0  0  0
 20 21  1  0  0  0  0
 21 22  1  0  0  0  0
 21 53  1  0  0  0  0
 21 54  1  0  0  0  0
 22 23  1  0  0  0  0
 22 35  2  0  0  0  0
 23 24  2  0  0  0  0
 23 55  1  0  0  0  0
 24 25  1  0  0  0  0
 24 33  1  0  0  0  0
 25 26  1  0  0  0  0
 25 56  1  0  0  0  0
 25 57  1  0  0  0  0
 26 27  1  0  0  0  0
 26 32  1  0  0  0  0
 27 28  1  0  0  0  0
 27 58  1  0  0  0  0
 27 59  1  0  0  0  0
 28 29  1  0  0  0  0
 28 60  1  0  0  0  0
 28 61  1  0  0  0  0
 29 30  1  0  0  0  0
 29 31  1  0  0  0  0
 30 62  1  0  0  0  0
 30 63  1  0  0  0  0
 30 64  1  0  0  0  0
 31 32  1  0  0  0  0
 31 65  1  0  0  0  0
 31 66  1  0  0  0  0
 32 67  1  0  0  0  0
 32 68  1  0  0  0  0
 33 34  2  0  0  0  0
 33 69  1  0  0  0  0
 34 35  1  0  0  0  0
 34 70  1  0  0  0  0
 36 37  1  0  0  0  0
 37 38  1  0  0  0  0
 38 71  1  0  0  0  0
 38 72  1  0  0  0  0
 39 73  1  0  0  0  0
M  END
$$$$
