CHEMBL598435
 OpenBabel04072215383D

 38 42  0  0  0  0  0  0  0  0999 V2000
    1.3561   -0.5377    0.5000 O   0  0  0  0  0  0  0  0  0  0  0  0
    2.5138   -0.2771    0.1842 C   0  0  0  0  0  0  0  0  0  0  0  0
    3.2015   -0.8758   -1.0247 C   0  0  0  0  0  0  0  0  0  0  0  0
    4.3698   -1.6152   -0.4693 C   0  0  0  0  0  0  0  0  0  0  0  0
    4.0468   -2.9726    0.0596 C   0  0  0  0  0  0  0  0  0  0  0  0
    4.6611   -3.5500    1.0400 N   0  0  0  0  0  0  0  0  0  0  0  0
    5.8485   -2.9777    1.3631 C   0  0  0  0  0  0  0  0  0  0  0  0
    6.7891   -3.2334    2.3211 C   0  0  0  0  0  0  0  0  0  0  0  0
    7.9378   -3.2612    1.4836 C   0  0  0  0  0  0  0  0  0  0  0  0
    8.9723   -4.3339    1.5916 C   0  0  0  0  0  0  0  0  0  0  0  0
    8.6956   -5.4689    2.3993 C   0  0  0  0  0  0  0  0  0  0  0  0
    9.6019   -6.5212    2.5684 C   0  0  0  0  0  0  0  0  0  0  0  0
   10.8173   -6.4833    1.9055 C   0  0  0  0  0  0  0  0  0  0  0  0
   11.0907   -5.4117    1.0553 C   0  0  0  0  0  0  0  0  0  0  0  0
   10.1748   -4.3509    0.8828 C   0  0  0  0  0  0  0  0  0  0  0  0
    7.8089   -2.2906    0.5334 N   0  0  0  0  0  0  0  0  0  0  0  0
    6.4490   -1.9614    0.6068 N   0  0  0  0  0  0  0  0  0  0  0  0
    5.5686   -1.0972   -0.1008 C   0  0  0  0  0  0  0  0  0  0  0  0
    5.5923    0.4048   -0.0179 C   0  0  0  0  0  0  0  0  0  0  0  0
    6.7068    1.0272   -0.4714 N   0  0  0  0  0  0  0  0  0  0  0  0
    6.7299    2.3932   -0.3812 C   0  0  0  0  0  0  0  0  0  0  0  0
    5.7271    3.1762    0.1638 C   0  0  0  0  0  0  0  0  0  0  0  0
    4.6086    2.5393    0.6707 C   0  0  0  0  0  0  0  0  0  0  0  0
    4.5068    1.1519    0.5412 C   0  0  0  0  0  0  0  0  0  0  0  0
    3.2393    0.6298    0.9147 N   0  0  0  0  0  0  0  0  0  0  0  0
    3.4874   -0.0853   -1.7311 H   0  0  0  0  0  0  0  0  0  0  0  0
    2.5105   -1.5383   -1.5543 H   0  0  0  0  0  0  0  0  0  0  0  0
    3.1548   -3.4590   -0.3730 H   0  0  0  0  0  0  0  0  0  0  0  0
    6.6241   -3.8161    3.2125 H   0  0  0  0  0  0  0  0  0  0  0  0
    7.7406   -5.5789    2.9089 H   0  0  0  0  0  0  0  0  0  0  0  0
    9.3451   -7.3629    3.2057 H   0  0  0  0  0  0  0  0  0  0  0  0
   11.5347   -7.2906    2.0364 H   0  0  0  0  0  0  0  0  0  0  0  0
   12.0358   -5.4075    0.5092 H   0  0  0  0  0  0  0  0  0  0  0  0
   10.4151   -3.5508    0.1875 H   0  0  0  0  0  0  0  0  0  0  0  0
    7.6123    2.8685   -0.8084 H   0  0  0  0  0  0  0  0  0  0  0  0
    5.7910    4.2627    0.1723 H   0  0  0  0  0  0  0  0  0  0  0  0
    3.7829    3.1341    1.0706 H   0  0  0  0  0  0  0  0  0  0  0  0
    2.6578    1.1656    1.5441 H   0  0  0  0  0  0  0  0  0  0  0  0
  1  2  2  0  0  0  0
  2  3  1  0  0  0  0
  2 25  1  0  0  0  0
  3  4  1  0  0  0  0
  3 26  1  0  0  0  0
  3 27  1  0  0  0  0
  4  5  1  0  0  0  0
  4 18  2  0  0  0  0
  5  6  2  0  0  0  0
  5 28  1  0  0  0  0
  6  7  1  0  0  0  0
  7  8  2  0  0  0  0
  7 17  1  0  0  0  0
  8  9  1  0  0  0  0
  8 29  1  0  0  0  0
  9 10  1  0  0  0  0
  9 16  2  0  0  0  0
 10 11  1  0  0  0  0
 10 15  2  0  0  0  0
 11 12  2  0  0  0  0
 11 30  1  0  0  0  0
 12 13  1  0  0  0  0
 12 31  1  0  0  0  0
 13 14  2  0  0  0  0
 13 32  1  0  0  0  0
 14 15  1  0  0  0  0
 14 33  1  0  0  0  0
 15 34  1  0  0  0  0
 16 17  1  0  0  0  0
 17 18  1  0  0  0  0
 18 19  1  0  0  0  0
 19 20  1  0  0  0  0
 19 24  2  0  0  0  0
 20 21  2  0  0  0  0
 21 22  1  0  0  0  0
 21 35  1  0  0  0  0
 22 23  2  0  0  0  0
 22 36  1  0  0  0  0
 23 24  1  0  0  0  0
 23 37  1  0  0  0  0
 24 25  1  0  0  0  0
 25 38  1  0  0  0  0
M  END
$$$$
