CHEMBL500152
 OpenBabel04072215383D

 36 38  0  0  0  0  0  0  0  0999 V2000
    2.2304    0.0481   -0.0436 C   0  0  0  0  0  0  0  0  0  0  0  0
    0.7977   -0.1022    0.0445 N   0  0  0  0  0  0  0  0  0  0  0  0
   -0.0791    0.9401    0.1294 C   0  0  0  0  0  0  0  0  0  0  0  0
   -1.3204    0.5220    0.1506 N   0  0  0  0  0  0  0  0  0  0  0  0
   -1.2495   -0.8507    0.0327 C   0  0  0  0  0  0  0  0  0  0  0  0
   -2.4468   -1.6777   -0.0191 C   0  0  0  0  0  0  0  0  0  0  0  0
   -3.5964   -1.1831   -0.6503 C   0  0  0  0  0  0  0  0  0  0  0  0
   -4.7475   -1.9688   -0.7549 C   0  0  0  0  0  0  0  0  0  0  0  0
   -4.7648   -3.2540   -0.2175 C   0  0  0  0  0  0  0  0  0  0  0  0
   -3.6423   -3.7430    0.4471 C   0  0  0  0  0  0  0  0  0  0  0  0
   -2.4927   -2.9555    0.5553 C   0  0  0  0  0  0  0  0  0  0  0  0
    0.0725   -1.2698   -0.0720 C   0  0  0  0  0  0  0  0  0  0  0  0
    0.5911   -2.5832   -0.3805 C   0  0  0  0  0  0  0  0  0  0  0  0
    0.1342   -3.2620   -1.2989 O   0  0  0  0  0  0  0  0  0  0  0  0
    1.5852   -3.0207    0.4712 N   0  0  0  0  0  0  0  0  0  0  0  0
    2.1103   -4.3208    0.4158 C   0  0  0  0  0  0  0  0  0  0  0  0
    2.3171   -4.9771   -0.7774 C   0  0  0  0  0  0  0  0  0  0  0  0
    2.7582   -6.2707   -0.6763 C   0  0  0  0  0  0  0  0  0  0  0  0
    2.9724   -6.8842    0.4985 N   0  0  0  0  0  0  0  0  0  0  0  0
    2.7690   -6.1528    1.5966 C   0  0  0  0  0  0  0  0  0  0  0  0
    2.8704   -6.8072    2.8087 N   0  0  0  0  0  0  0  0  0  0  0  0
    2.3717   -4.8764    1.6097 N   0  0  0  0  0  0  0  0  0  0  0  0
    2.4818    1.1085   -0.1383 H   0  0  0  0  0  0  0  0  0  0  0  0
    2.5942   -0.4910   -0.9207 H   0  0  0  0  0  0  0  0  0  0  0  0
    2.6721   -0.3495    0.8722 H   0  0  0  0  0  0  0  0  0  0  0  0
    0.2320    1.9777    0.1579 H   0  0  0  0  0  0  0  0  0  0  0  0
   -3.5939   -0.1811   -1.0755 H   0  0  0  0  0  0  0  0  0  0  0  0
   -5.6251   -1.5781   -1.2627 H   0  0  0  0  0  0  0  0  0  0  0  0
   -5.6525   -3.8733   -0.3146 H   0  0  0  0  0  0  0  0  0  0  0  0
   -3.6559   -4.7414    0.8761 H   0  0  0  0  0  0  0  0  0  0  0  0
   -1.6389   -3.3588    1.0909 H   0  0  0  0  0  0  0  0  0  0  0  0
    1.6412   -2.5985    1.3887 H   0  0  0  0  0  0  0  0  0  0  0  0
    2.1500   -4.5211   -1.7435 H   0  0  0  0  0  0  0  0  0  0  0  0
    2.9440   -6.8722   -1.5609 H   0  0  0  0  0  0  0  0  0  0  0  0
    2.7398   -7.7975    2.6454 H   0  0  0  0  0  0  0  0  0  0  0  0
    2.2396   -6.3785    3.4715 H   0  0  0  0  0  0  0  0  0  0  0  0
  1  2  1  0  0  0  0
  1 23  1  0  0  0  0
  1 24  1  0  0  0  0
  1 25  1  0  0  0  0
  2  3  1  0  0  0  0
  2 12  1  0  0  0  0
  3  4  2  0  0  0  0
  3 26  1  0  0  0  0
  4  5  1  0  0  0  0
  5  6  1  0  0  0  0
  5 12  2  0  0  0  0
  6  7  1  0  0  0  0
  6 11  2  0  0  0  0
  7  8  2  0  0  0  0
  7 27  1  0  0  0  0
  8  9  1  0  0  0  0
  8 28  1  0  0  0  0
  9 10  2  0  0  0  0
  9 29  1  0  0  0  0
 10 11  1  0  0  0  0
 10 30  1  0  0  0  0
 11 31  1  0  0  0  0
 12 13  1  0  0  0  0
 13 14  2  0  0  0  0
 13 15  1  0  0  0  0
 15 16  1  0  0  0  0
 15 32  1  0  0  0  0
 16 17  1  0  0  0  0
 16 22  2  0  0  0  0
 17 18  2  0  0  0  0
 17 33  1  0  0  0  0
 18 19  1  0  0  0  0
 18 34  1  0  0  0  0
 19 20  2  0  0  0  0
 20 21  1  0  0  0  0
 20 22  1  0  0  0  0
 21 35  1  0  0  0  0
 21 36  1  0  0  0  0
M  END
$$$$
