CHEMBL3648097
 OpenBabel04072215373D

 39 40  0  0  0  0  0  0  0  0999 V2000
    0.6667   -2.4164    0.8730 C   0  0  0  0  0  0  0  0  0  0  0  0
    2.1477   -2.7007    1.0420 C   0  0  0  0  0  0  0  0  0  0  0  0
    2.8071   -1.4756    1.3633 O   0  0  0  0  0  0  0  0  0  0  0  0
    4.1576   -1.6530    1.6030 C   0  0  0  0  0  0  0  0  0  0  0  0
    4.7937   -2.6598    0.9560 N   0  0  0  0  0  0  0  0  0  0  0  0
    6.0957   -2.8134    1.2108 C   0  0  0  0  0  0  0  0  0  0  0  0
    6.7638   -3.8481    0.5560 N   0  0  0  0  0  0  0  0  0  0  0  0
    8.0672   -4.3250    0.7578 C   0  0  0  0  0  0  0  0  0  0  0  0
    8.7188   -4.1876    1.9931 C   0  0  0  0  0  0  0  0  0  0  0  0
   10.0652   -4.5094    2.1531 C   0  0  0  0  0  0  0  0  0  0  0  0
   10.7856   -4.9882    1.0644 C   0  0  0  0  0  0  0  0  0  0  0  0
   12.5168   -5.3787    1.2525 S   0  0  3  0  0  0  0  0  0  0  0  0
   12.7177   -5.7915    2.7261 N   0  0  0  0  0  0  0  0  0  0  0  0
   12.8707   -6.2273    0.1318 O   0  0  0  0  0  0  0  0  0  0  0  0
   13.3154   -3.7995    1.0084 C   0  0  0  0  0  0  0  0  0  0  0  0
   14.8256   -3.9226    1.0995 C   0  0  0  0  0  0  0  0  0  0  0  0
   10.1538   -5.1805   -0.1676 C   0  0  0  0  0  0  0  0  0  0  0  0
    8.8010   -4.8446   -0.3172 C   0  0  0  0  0  0  0  0  0  0  0  0
    6.7784   -2.0041    2.0451 N   0  0  0  0  0  0  0  0  0  0  0  0
    6.1142   -1.0034    2.6485 C   0  0  0  0  0  0  0  0  0  0  0  0
    4.7799   -0.7704    2.4593 C   0  0  0  0  0  0  0  0  0  0  0  0
    3.9141    0.6332    3.3637 Br  0  0  0  0  0  0  0  0  0  0  0  0
    0.1288   -3.3291    0.6017 H   0  0  0  0  0  0  0  0  0  0  0  0
    0.5049   -1.6649    0.0934 H   0  0  0  0  0  0  0  0  0  0  0  0
    0.2393   -2.0162    1.7982 H   0  0  0  0  0  0  0  0  0  0  0  0
    2.5336   -3.1170    0.1049 H   0  0  0  0  0  0  0  0  0  0  0  0
    2.2858   -3.4226    1.8565 H   0  0  0  0  0  0  0  0  0  0  0  0
    6.2093   -4.2439   -0.1869 H   0  0  0  0  0  0  0  0  0  0  0  0
    8.1751   -3.8205    2.8610 H   0  0  0  0  0  0  0  0  0  0  0  0
   10.5288   -4.3677    3.1278 H   0  0  0  0  0  0  0  0  0  0  0  0
   12.2685   -6.6908    2.9076 H   0  0  0  0  0  0  0  0  0  0  0  0
   12.9416   -3.1021    1.7638 H   0  0  0  0  0  0  0  0  0  0  0  0
   13.0280   -3.4343    0.0171 H   0  0  0  0  0  0  0  0  0  0  0  0
   15.1348   -4.2857    2.0850 H   0  0  0  0  0  0  0  0  0  0  0  0
   15.3008   -2.9514    0.9315 H   0  0  0  0  0  0  0  0  0  0  0  0
   15.2093   -4.6240    0.3516 H   0  0  0  0  0  0  0  0  0  0  0  0
   10.7053   -5.5695   -1.0206 H   0  0  0  0  0  0  0  0  0  0  0  0
    8.3356   -4.9619   -1.2931 H   0  0  0  0  0  0  0  0  0  0  0  0
    6.7206   -0.3935    3.3108 H   0  0  0  0  0  0  0  0  0  0  0  0
  1  2  1  0  0  0  0
  1 23  1  0  0  0  0
  1 24  1  0  0  0  0
  1 25  1  0  0  0  0
  2  3  1  0  0  0  0
  2 26  1  0  0  0  0
  2 27  1  0  0  0  0
  3  4  1  0  0  0  0
  4  5  1  0  0  0  0
  4 21  2  0  0  0  0
  5  6  2  0  0  0  0
  6  7  1  0  0  0  0
  6 19  1  0  0  0  0
  7  8  1  0  0  0  0
  7 28  1  0  0  0  0
  8  9  1  0  0  0  0
  8 18  2  0  0  0  0
  9 10  2  0  0  0  0
  9 29  1  0  0  0  0
 10 11  1  0  0  0  0
 10 30  1  0  0  0  0
 11 12  1  0  0  0  0
 11 17  2  0  0  0  0
 12 13  2  0  0  0  0
 12 14  2  0  0  0  0
 12 15  1  0  0  0  0
 13 31  1  0  0  0  0
 15 16  1  0  0  0  0
 15 32  1  0  0  0  0
 15 33  1  0  0  0  0
 16 34  1  0  0  0  0
 16 35  1  0  0  0  0
 16 36  1  0  0  0  0
 17 18  1  0  0  0  0
 17 37  1  0  0  0  0
 18 38  1  0  0  0  0
 19 20  2  0  0  0  0
 20 21  1  0  0  0  0
 20 39  1  0  0  0  0
 21 22  1  0  0  0  0
M  END
$$$$
