CHEMBL3125888
 OpenBabel04072215363D

 57 61  0  0  0  0  0  0  0  0999 V2000
    3.7435   -0.9431    1.2805 N   0  0  0  0  0  0  0  0  0  0  0  0
    3.1075    0.0218    1.4148 C   0  0  0  0  0  0  0  0  0  0  0  0
    2.2909    1.1848    1.5958 C   0  0  0  0  0  0  0  0  0  0  0  0
    2.5513    2.4035    0.9485 C   0  0  0  0  0  0  0  0  0  0  0  0
    3.6458    2.4817    0.0995 O   0  0  0  0  0  0  0  0  0  0  0  0
    4.4190    3.6298    0.1022 C   0  0  0  0  0  0  0  0  0  0  0  0
    4.5689    4.4452    1.2272 C   0  0  0  0  0  0  0  0  0  0  0  0
    5.3252    5.6067    1.1486 C   0  0  0  0  0  0  0  0  0  0  0  0
    6.0003    5.9168   -0.0290 C   0  0  0  0  0  0  0  0  0  0  0  0
    5.9418    5.0696   -1.1411 C   0  0  0  0  0  0  0  0  0  0  0  0
    6.6794    5.3393   -2.3220 N   0  0  0  0  0  0  0  0  0  0  0  0
    7.7515    6.2187   -2.4121 C   0  0  0  0  0  0  0  0  0  0  0  0
    8.2613    6.8412   -1.4769 O   0  0  0  0  0  0  0  0  0  0  0  0
    8.3259    6.3659   -3.8093 C   0  0  0  0  0  0  0  0  0  0  0  0
    9.4642    5.4173   -4.0941 C   0  0  0  0  0  0  0  0  0  0  0  0
    9.3787    4.5377   -5.1799 C   0  0  0  0  0  0  0  0  0  0  0  0
   10.4462    3.7003   -5.4984 C   0  0  0  0  0  0  0  0  0  0  0  0
   11.6089    3.7207   -4.7298 C   0  0  0  0  0  0  0  0  0  0  0  0
   11.7160    4.5737   -3.6222 C   0  0  0  0  0  0  0  0  0  0  0  0
   12.9604    4.5734   -2.7662 C   0  0  0  0  0  0  0  0  0  0  0  0
   13.9134    3.6976   -3.1958 F   0  0  0  0  0  0  0  0  0  0  0  0
   13.5718    5.7906   -2.7233 F   0  0  0  0  0  0  0  0  0  0  0  0
   12.7066    4.2342   -1.4718 F   0  0  0  0  0  0  0  0  0  0  0  0
   10.6391    5.4268   -3.3199 C   0  0  0  0  0  0  0  0  0  0  0  0
    5.1171    3.9354   -1.0796 C   0  0  0  0  0  0  0  0  0  0  0  0
    1.6858    3.4878    1.1209 C   0  0  0  0  0  0  0  0  0  0  0  0
    0.5980    3.4039    1.9933 C   0  0  0  0  0  0  0  0  0  0  0  0
    0.3171    2.1932    2.6533 C   0  0  0  0  0  0  0  0  0  0  0  0
   -0.7694    1.9738    3.4798 N   0  0  0  0  0  0  0  0  0  0  0  0
   -0.7612    0.7377    3.8897 C   0  0  0  0  0  0  0  0  0  0  0  0
   -1.6726    0.0554    4.6375 N   0  0  0  0  0  0  0  0  0  0  0  0
   -2.8960    0.5616    5.0028 C   0  0  0  0  0  0  0  0  0  0  0  0
   -3.3757    1.6576    4.7822 O   0  0  0  0  0  0  0  0  0  0  0  0
   -3.6987   -0.4938    5.7279 C   0  0  0  0  0  0  0  0  0  0  0  0
   -2.9901   -0.4510    7.1590 C   0  0  0  0  0  0  0  0  0  0  0  0
   -4.3356   -0.9217    7.0458 C   0  0  0  0  0  0  0  0  0  0  0  0
    0.5643   -0.2178    3.4037 S   0  0  0  0  0  0  0  0  0  0  0  0
    1.1677    1.0978    2.4530 C   0  0  0  0  0  0  0  0  0  0  0  0
    4.0885    4.2110    2.1721 H   0  0  0  0  0  0  0  0  0  0  0  0
    5.4020    6.2727    2.0037 H   0  0  0  0  0  0  0  0  0  0  0  0
    6.5713    6.8400   -0.0417 H   0  0  0  0  0  0  0  0  0  0  0  0
    6.4981    4.7412   -3.1200 H   0  0  0  0  0  0  0  0  0  0  0  0
    8.6971    7.3994   -3.9108 H   0  0  0  0  0  0  0  0  0  0  0  0
    7.5250    6.2658   -4.5457 H   0  0  0  0  0  0  0  0  0  0  0  0
    8.4844    4.5074   -5.7978 H   0  0  0  0  0  0  0  0  0  0  0  0
   10.3739    3.0310   -6.3539 H   0  0  0  0  0  0  0  0  0  0  0  0
   12.4353    3.0641   -4.9996 H   0  0  0  0  0  0  0  0  0  0  0  0
   10.7234    6.1081   -2.4694 H   0  0  0  0  0  0  0  0  0  0  0  0
    5.0308    3.2659   -1.9297 H   0  0  0  0  0  0  0  0  0  0  0  0
    1.8532    4.4247    0.5954 H   0  0  0  0  0  0  0  0  0  0  0  0
   -0.0495    4.2617    2.1558 H   0  0  0  0  0  0  0  0  0  0  0  0
   -1.4435   -0.8962    4.8767 H   0  0  0  0  0  0  0  0  0  0  0  0
   -4.6700   -0.3026    5.2620 H   0  0  0  0  0  0  0  0  0  0  0  0
   -2.8377    0.5150    7.6330 H   0  0  0  0  0  0  0  0  0  0  0  0
   -2.1853   -1.1576    7.3271 H   0  0  0  0  0  0  0  0  0  0  0  0
   -5.1276   -0.3133    7.4717 H   0  0  0  0  0  0  0  0  0  0  0  0
   -4.5232   -1.9861    7.1614 H   0  0  0  0  0  0  0  0  0  0  0  0
  1  2  3  0  0  0  0
  2  3  1  0  0  0  0
  3  4  1  0  0  0  0
  3 38  2  0  0  0  0
  4  5  1  0  0  0  0
  4 26  2  0  0  0  0
  5  6  1  0  0  0  0
  6  7  1  0  0  0  0
  6 25  2  0  0  0  0
  7  8  2  0  0  0  0
  7 39  1  0  0  0  0
  8  9  1  0  0  0  0
  8 40  1  0  0  0  0
  9 10  2  0  0  0  0
  9 41  1  0  0  0  0
 10 11  1  0  0  0  0
 10 25  1  0  0  0  0
 11 12  1  0  0  0  0
 11 42  1  0  0  0  0
 12 13  2  0  0  0  0
 12 14  1  0  0  0  0
 14 15  1  0  0  0  0
 14 43  1  0  0  0  0
 14 44  1  0  0  0  0
 15 16  1  0  0  0  0
 15 24  2  0  0  0  0
 16 17  2  0  0  0  0
 16 45  1  0  0  0  0
 17 18  1  0  0  0  0
 17 46  1  0  0  0  0
 18 19  2  0  0  0  0
 18 47  1  0  0  0  0
 19 20  1  0  0  0  0
 19 24  1  0  0  0  0
 20 21  1  0  0  0  0
 20 22  1  0  0  0  0
 20 23  1  0  0  0  0
 24 48  1  0  0  0  0
 25 49  1  0  0  0  0
 26 27  1  0  0  0  0
 26 50  1  0  0  0  0
 27 28  2  0  0  0  0
 27 51  1  0  0  0  0
 28 29  1  0  0  0  0
 28 38  1  0  0  0  0
 29 30  2  0  0  0  0
 30 31  1  0  0  0  0
 30 37  1  0  0  0  0
 31 32  1  0  0  0  0
 31 52  1  0  0  0  0
 32 33  2  0  0  0  0
 32 34  1  0  0  0  0
 34 35  1  0  0  0  0
 34 36  1  0  0  0  0
 34 53  1  0  0  0  0
 35 36  1  0  0  0  0
 35 54  1  0  0  0  0
 35 55  1  0  0  0  0
 36 56  1  0  0  0  0
 36 57  1  0  0  0  0
 37 38  1  0  0  0  0
M  END
$$$$
