CHEMBL3660272
 OpenBabel04072215373D

 59 62  0  0  0  0  0  0  0  0999 V2000
   -0.1524    3.9517   -1.1514 C   0  0  0  0  0  0  0  0  0  0  0  0
    1.0676    3.5162   -0.3598 C   0  0  0  0  0  0  0  0  0  0  0  0
    2.2458    4.2700   -0.7284 N   0  0  0  0  0  0  0  0  0  0  0  0
    3.0497    3.8577   -1.7653 C   0  0  0  0  0  0  0  0  0  0  0  0
    2.8218    2.8348   -2.4059 O   0  0  0  0  0  0  0  0  0  0  0  0
    4.2127    4.6997   -2.0617 C   0  0  0  0  0  0  0  0  0  0  0  0
    4.6589    5.8700   -1.4712 C   0  0  0  0  0  0  0  0  0  0  0  0
    5.8259    6.2562   -2.1001 N   0  0  0  0  0  0  0  0  0  0  0  0
    6.1560    5.3543   -3.0865 C   0  0  0  0  0  0  0  0  0  0  0  0
    7.3419    5.4603   -3.9324 C   0  0  0  0  0  0  0  0  0  0  0  0
    7.5909    4.5117   -4.9170 C   0  0  0  0  0  0  0  0  0  0  0  0
    8.6599    4.6974   -5.7889 C   0  0  0  0  0  0  0  0  0  0  0  0
    8.9293    3.8593   -6.8574 O   0  0  0  0  0  0  0  0  0  0  0  0
    7.8696    3.2354   -7.4894 C   0  0  0  0  0  0  0  0  0  0  0  0
    6.6444    3.8599   -7.7028 C   0  0  0  0  0  0  0  0  0  0  0  0
    5.5700    3.1376   -8.2214 C   0  0  0  0  0  0  0  0  0  0  0  0
    5.7087    1.8034   -8.6147 C   0  0  0  0  0  0  0  0  0  0  0  0
    4.6227    1.0190   -9.0841 N   0  0  0  0  0  0  0  0  0  0  0  0
    3.3319    1.4764   -9.2780 C   0  0  0  0  0  0  0  0  0  0  0  0
    2.9814    2.6440   -9.1645 O   0  0  0  0  0  0  0  0  0  0  0  0
    2.4331    0.4603   -9.5659 N   0  0  0  0  0  0  0  0  0  0  0  0
    1.0616    0.7898   -9.7583 C   0  0  0  0  0  0  0  0  0  0  0  0
    0.6697    1.8738  -10.5563 C   0  0  0  0  0  0  0  0  0  0  0  0
   -0.6767    2.2571  -10.6375 C   0  0  0  0  0  0  0  0  0  0  0  0
   -1.0877    3.4338  -11.4744 C   0  0  0  0  0  0  0  0  0  0  0  0
   -1.6338    1.5412   -9.9075 C   0  0  0  0  0  0  0  0  0  0  0  0
   -1.2544    0.4386   -9.1377 C   0  0  0  0  0  0  0  0  0  0  0  0
    0.0838    0.0574   -9.0870 C   0  0  0  0  0  0  0  0  0  0  0  0
    0.4411   -0.9843   -8.3198 F   0  0  0  0  0  0  0  0  0  0  0  0
    6.9748    1.2145   -8.5062 C   0  0  0  0  0  0  0  0  0  0  0  0
    8.0494    1.9263   -7.9423 C   0  0  0  0  0  0  0  0  0  0  0  0
    9.5205    5.7643   -5.5700 C   0  0  0  0  0  0  0  0  0  0  0  0
    9.2240    6.6388   -4.5314 C   0  0  0  0  0  0  0  0  0  0  0  0
    8.1427    6.5280   -3.7190 N   0  0  0  0  0  0  0  0  0  0  0  0
    5.1498    4.4065   -3.0873 C   0  0  0  0  0  0  0  0  0  0  0  0
   -1.0272    3.3640   -0.8560 H   0  0  0  0  0  0  0  0  0  0  0  0
    0.0022    3.8168   -2.2272 H   0  0  0  0  0  0  0  0  0  0  0  0
   -0.3729    5.0096   -0.9760 H   0  0  0  0  0  0  0  0  0  0  0  0
    1.2520    2.4487   -0.5262 H   0  0  0  0  0  0  0  0  0  0  0  0
    0.9026    3.6676    0.7110 H   0  0  0  0  0  0  0  0  0  0  0  0
    2.4310    5.1566   -0.2864 H   0  0  0  0  0  0  0  0  0  0  0  0
    4.2703    6.4674   -0.6590 H   0  0  0  0  0  0  0  0  0  0  0  0
    6.3842    7.0740   -1.8830 H   0  0  0  0  0  0  0  0  0  0  0  0
    6.9309    3.6610   -5.0296 H   0  0  0  0  0  0  0  0  0  0  0  0
    6.4781    4.8960   -7.4203 H   0  0  0  0  0  0  0  0  0  0  0  0
    4.6257    3.6670   -8.2772 H   0  0  0  0  0  0  0  0  0  0  0  0
    4.8180    0.0716   -9.3704 H   0  0  0  0  0  0  0  0  0  0  0  0
    2.5925   -0.3995   -9.0568 H   0  0  0  0  0  0  0  0  0  0  0  0
    1.4212    2.4452  -11.0984 H   0  0  0  0  0  0  0  0  0  0  0  0
   -0.2286    3.8904  -11.9775 H   0  0  0  0  0  0  0  0  0  0  0  0
   -1.5559    4.2012  -10.8497 H   0  0  0  0  0  0  0  0  0  0  0  0
   -1.7954    3.1156  -12.2466 H   0  0  0  0  0  0  0  0  0  0  0  0
   -2.6778    1.8468   -9.9295 H   0  0  0  0  0  0  0  0  0  0  0  0
   -1.9911   -0.1075   -8.5578 H   0  0  0  0  0  0  0  0  0  0  0  0
    7.1431    0.1919   -8.8328 H   0  0  0  0  0  0  0  0  0  0  0  0
    9.0189    1.4468   -7.8341 H   0  0  0  0  0  0  0  0  0  0  0  0
   10.3889    5.9230   -6.1989 H   0  0  0  0  0  0  0  0  0  0  0  0
    9.8658    7.4922   -4.3277 H   0  0  0  0  0  0  0  0  0  0  0  0
    5.0798    3.5508   -3.7482 H   0  0  0  0  0  0  0  0  0  0  0  0
  1  2  1  0  0  0  0
  1 36  1  0  0  0  0
  1 37  1  0  0  0  0
  1 38  1  0  0  0  0
  2  3  1  0  0  0  0
  2 39  1  0  0  0  0
  2 40  1  0  0  0  0
  3  4  1  0  0  0  0
  3 41  1  0  0  0  0
  4  5  2  0  0  0  0
  4  6  1  0  0  0  0
  6  7  2  0  0  0  0
  6 35  1  0  0  0  0
  7  8  1  0  0  0  0
  7 42  1  0  0  0  0
  8  9  1  0  0  0  0
  8 43  1  0  0  0  0
  9 10  1  0  0  0  0
  9 35  2  0  0  0  0
 10 11  1  0  0  0  0
 10 34  2  0  0  0  0
 11 12  2  0  0  0  0
 11 44  1  0  0  0  0
 12 13  1  0  0  0  0
 12 32  1  0  0  0  0
 13 14  1  0  0  0  0
 14 15  1  0  0  0  0
 14 31  2  0  0  0  0
 15 16  2  0  0  0  0
 15 45  1  0  0  0  0
 16 17  1  0  0  0  0
 16 46  1  0  0  0  0
 17 18  1  0  0  0  0
 17 30  2  0  0  0  0
 18 19  1  0  0  0  0
 18 47  1  0  0  0  0
 19 20  2  0  0  0  0
 19 21  1  0  0  0  0
 21 22  1  0  0  0  0
 21 48  1  0  0  0  0
 22 23  1  0  0  0  0
 22 28  2  0  0  0  0
 23 24  2  0  0  0  0
 23 49  1  0  0  0  0
 24 25  1  0  0  0  0
 24 26  1  0  0  0  0
 25 50  1  0  0  0  0
 25 51  1  0  0  0  0
 25 52  1  0  0  0  0
 26 27  2  0  0  0  0
 26 53  1  0  0  0  0
 27 28  1  0  0  0  0
 27 54  1  0  0  0  0
 28 29  1  0  0  0  0
 30 31  1  0  0  0  0
 30 55  1  0  0  0  0
 31 56  1  0  0  0  0
 32 33  2  0  0  0  0
 32 57  1  0  0  0  0
 33 34  1  0  0  0  0
 33 58  1  0  0  0  0
 35 59  1  0  0  0  0
M  END
$$$$
