CHEMBL3919709
 OpenBabel04072215373D

 63 66  0  0  0  0  0  0  0  0999 V2000
    1.5082   -4.5224    0.5385 H   0  0  0  0  0  0  0  0  0  0  0  0
    1.3471   -4.8369    1.5948 C   0  0  0  0  0  0  0  0  0  0  0  0
    0.3307   -5.2725    1.6942 H   0  0  0  0  0  0  0  0  0  0  0  0
    2.0986   -5.6039    1.8572 H   0  0  0  0  0  0  0  0  0  0  0  0
    1.4668   -3.6749    2.4711 N   0  0  0  0  0  0  0  0  0  0  0  0
    2.3712   -3.5264    3.4485 C   0  0  0  0  0  0  0  0  0  0  0  0
    2.1606   -2.2919    4.0404 C   0  0  0  0  0  0  0  0  0  0  0  0
    2.9503   -1.7246    5.1458 C   0  0  0  0  0  0  0  0  0  0  0  0
    2.6808   -0.4608    5.7027 C   0  0  0  0  0  0  0  0  0  0  0  0
    3.4852    0.0212    6.6908 N   0  0  0  0  0  0  0  0  0  0  0  0
    4.5524   -0.6920    7.1438 C   0  0  0  0  0  0  0  0  0  0  0  0
    5.4020   -0.1757    8.1231 C   0  0  0  0  0  0  0  0  0  0  0  0
    6.5274   -0.9066    8.5287 C   0  0  0  0  0  0  0  0  0  0  0  0
    6.8179   -2.1827    7.9794 C   0  0  0  0  0  0  0  0  0  0  0  0
    8.0421   -2.8788    8.3462 N   0  0  0  0  0  0  0  0  0  0  0  0
    8.7081   -3.7977    7.3957 C   0  0  0  0  0  0  0  0  0  0  0  0
    8.7998   -3.2117    5.9758 C   0  0  0  0  0  0  0  0  0  0  0  0
    9.5859   -4.0418    5.0471 N   0  0  0  0  0  0  0  0  0  0  0  0
    9.3798   -3.5808    3.6519 C   0  0  0  0  0  0  0  0  0  0  0  0
    9.8315   -2.1204    3.4610 C   0  0  0  0  0  0  0  0  0  0  0  0
   10.1370   -4.4771    2.6686 C   0  0  0  0  0  0  0  0  0  0  0  0
    8.5321   -2.7991    9.7087 C   0  0  0  0  0  0  0  0  0  0  0  0
    7.6124   -2.6394   10.7658 C   0  0  0  0  0  0  0  0  0  0  0  0
    8.0242   -2.6351   12.1076 C   0  0  0  0  0  0  0  0  0  0  0  0
    7.1430   -2.5129   13.1348 O   0  0  0  0  0  0  0  0  0  0  0  0
    5.7736   -2.3930   13.0027 C   0  0  0  0  0  0  0  0  0  0  0  0
    9.3785   -2.7895   12.4069 C   0  0  0  0  0  0  0  0  0  0  0  0
   10.3249   -2.9532   11.3804 C   0  0  0  0  0  0  0  0  0  0  0  0
   11.6484   -3.1333   11.6317 O   0  0  0  0  0  0  0  0  0  0  0  0
   12.2279   -3.2230   12.8814 C   0  0  0  0  0  0  0  0  0  0  0  0
    9.8985   -2.9526   10.0456 C   0  0  0  0  0  0  0  0  0  0  0  0
    5.9155   -2.7030    7.0264 C   0  0  0  0  0  0  0  0  0  0  0  0
    4.8129   -1.9585    6.5988 C   0  0  0  0  0  0  0  0  0  0  0  0
    4.0033   -2.4387    5.6229 N   0  0  0  0  0  0  0  0  0  0  0  0
    1.0901   -1.7362    3.3544 C   0  0  0  0  0  0  0  0  0  0  0  0
    0.6872   -2.5989    2.3997 N   0  0  0  0  0  0  0  0  0  0  0  0
    3.1296   -4.2462    3.7137 H   0  0  0  0  0  0  0  0  0  0  0  0
    1.8540    0.1425    5.3518 H   0  0  0  0  0  0  0  0  0  0  0  0
    5.2128    0.8032    8.5481 H   0  0  0  0  0  0  0  0  0  0  0  0
    7.1912   -0.4531    9.2532 H   0  0  0  0  0  0  0  0  0  0  0  0
    8.1894   -4.7787    7.3948 H   0  0  0  0  0  0  0  0  0  0  0  0
    9.7479   -4.0115    7.6969 H   0  0  0  0  0  0  0  0  0  0  0  0
    9.2693   -2.2164    6.0754 H   0  0  0  0  0  0  0  0  0  0  0  0
    7.7984   -3.0905    5.5393 H   0  0  0  0  0  0  0  0  0  0  0  0
    9.2437   -5.0312    5.1110 H   0  0  0  0  0  0  0  0  0  0  0  0
    8.2992   -3.6549    3.3868 H   0  0  0  0  0  0  0  0  0  0  0  0
   10.8979   -2.0067    3.7496 H   0  0  0  0  0  0  0  0  0  0  0  0
    9.2161   -1.4215    4.0636 H   0  0  0  0  0  0  0  0  0  0  0  0
    9.6963   -1.8099    2.4054 H   0  0  0  0  0  0  0  0  0  0  0  0
   11.2289   -4.4450    2.8653 H   0  0  0  0  0  0  0  0  0  0  0  0
    9.9480   -4.1277    1.6292 H   0  0  0  0  0  0  0  0  0  0  0  0
    9.7791   -5.5253    2.7441 H   0  0  0  0  0  0  0  0  0  0  0  0
    6.5607   -2.5542   10.5420 H   0  0  0  0  0  0  0  0  0  0  0  0
    5.3122   -2.3374   14.0086 H   0  0  0  0  0  0  0  0  0  0  0  0
    5.3602   -3.2803   12.4747 H   0  0  0  0  0  0  0  0  0  0  0  0
    5.5229   -1.4675   12.4411 H   0  0  0  0  0  0  0  0  0  0  0  0
    9.6772   -2.7989   13.4444 H   0  0  0  0  0  0  0  0  0  0  0  0
   13.3134   -3.4155   12.7655 H   0  0  0  0  0  0  0  0  0  0  0  0
   11.7864   -4.0689   13.4502 H   0  0  0  0  0  0  0  0  0  0  0  0
   12.0888   -2.2738   13.4419 H   0  0  0  0  0  0  0  0  0  0  0  0
   10.6641   -3.0725    9.2959 H   0  0  0  0  0  0  0  0  0  0  0  0
    6.0691   -3.6797    6.5894 H   0  0  0  0  0  0  0  0  0  0  0  0
    0.6339   -0.7715    3.5201 H   0  0  0  0  0  0  0  0  0  0  0  0
  1  2  1  0  0  0  0
  2  3  1  0  0  0  0
  2  4  1  0  0  0  0
  2  5  1  0  0  0  0
  5  6  1  0  0  0  0
  5 36  1  0  0  0  0
  6  7  2  0  0  0  0
  6 37  1  0  0  0  0
  7  8  1  0  0  0  0
  7 35  1  0  0  0  0
  8  9  1  0  0  0  0
  8 34  2  0  0  0  0
  9 10  2  0  0  0  0
  9 38  1  0  0  0  0
 10 11  1  0  0  0  0
 11 12  1  0  0  0  0
 11 33  2  0  0  0  0
 12 13  2  0  0  0  0
 12 39  1  0  0  0  0
 13 14  1  0  0  0  0
 13 40  1  0  0  0  0
 14 15  1  0  0  0  0
 14 32  2  0  0  0  0
 15 16  1  0  0  0  0
 15 22  1  0  0  0  0
 16 17  1  0  0  0  0
 16 41  1  0  0  0  0
 16 42  1  0  0  0  0
 17 18  1  0  0  0  0
 17 43  1  0  0  0  0
 17 44  1  0  0  0  0
 18 19  1  0  0  0  0
 18 45  1  0  0  0  0
 19 20  1  0  0  0  0
 19 21  1  0  0  0  0
 19 46  1  0  0  0  0
 20 47  1  0  0  0  0
 20 48  1  0  0  0  0
 20 49  1  0  0  0  0
 21 50  1  0  0  0  0
 21 51  1  0  0  0  0
 21 52  1  0  0  0  0
 22 23  1  0  0  0  0
 22 31  2  0  0  0  0
 23 24  2  0  0  0  0
 23 53  1  0  0  0  0
 24 25  1  0  0  0  0
 24 27  1  0  0  0  0
 25 26  1  0  0  0  0
 26 54  1  0  0  0  0
 26 55  1  0  0  0  0
 26 56  1  0  0  0  0
 27 28  2  0  0  0  0
 27 57  1  0  0  0  0
 28 29  1  0  0  0  0
 28 31  1  0  0  0  0
 29 30  1  0  0  0  0
 30 58  1  0  0  0  0
 30 59  1  0  0  0  0
 30 60  1  0  0  0  0
 31 61  1  0  0  0  0
 32 33  1  0  0  0  0
 32 62  1  0  0  0  0
 33 34  1  0  0  0  0
 35 36  2  0  0  0  0
 35 63  1  0  0  0  0
M  ISO  3   1   2   3   2   4   2
M  END
$$$$
