CHEMBL3128226
 OpenBabel04072215363D

 62 66  0  0  0  0  0  0  0  0999 V2000
    9.4539    1.9876   -0.0591 O   0  0  0  0  0  0  0  0  0  0  0  0
    8.1936    1.7090    0.6048 S   0  0  0  0  0  0  0  0  0  0  0  0
    8.1305    1.4726    2.0305 O   0  0  0  0  0  0  0  0  0  0  0  0
    6.9936    2.9591    0.1208 C   0  0  0  0  0  0  0  0  0  0  0  0
    7.4394    4.3367    0.5528 C   0  0  0  0  0  0  0  0  0  0  0  0
    8.1446    5.1738   -0.3277 C   0  0  0  0  0  0  0  0  0  0  0  0
    8.5004    6.4718    0.0529 C   0  0  0  0  0  0  0  0  0  0  0  0
    8.1619    6.9482    1.3162 C   0  0  0  0  0  0  0  0  0  0  0  0
    7.4723    6.1256    2.2033 C   0  0  0  0  0  0  0  0  0  0  0  0
    7.1162    4.8269    1.8264 C   0  0  0  0  0  0  0  0  0  0  0  0
    7.6020    0.3348   -0.2124 N   0  0  0  0  0  0  0  0  0  0  0  0
    6.7811   -0.5961    0.4965 C   0  0  0  0  0  0  0  0  0  0  0  0
    5.4158   -0.3551    0.6242 C   0  0  0  0  0  0  0  0  0  0  0  0
    4.6033   -1.2828    1.2782 C   0  0  0  0  0  0  0  0  0  0  0  0
    5.1537   -2.4532    1.8063 C   0  0  0  0  0  0  0  0  0  0  0  0
    6.5278   -2.7132    1.6919 C   0  0  0  0  0  0  0  0  0  0  0  0
    7.0717   -4.0503    2.1729 C   0  0  0  0  0  0  0  0  0  0  0  0
    8.4531   -3.9162    2.5886 N   0  0  0  0  0  0  0  0  0  0  0  0
    9.1505   -5.0722    2.9150 C   0  0  0  0  0  0  0  0  0  0  0  0
    8.5753   -6.2972    2.8516 N   0  0  0  0  0  0  0  0  0  0  0  0
    9.3195   -7.3795    3.1693 C   0  0  0  0  0  0  0  0  0  0  0  0
   10.6127   -7.4257    3.5333 N   0  0  0  0  0  0  0  0  0  0  0  0
   11.1615   -6.1964    3.5591 C   0  0  0  0  0  0  0  0  0  0  0  0
   10.5004   -5.0107    3.2870 C   0  0  0  0  0  0  0  0  0  0  0  0
   11.4823   -4.0146    3.4494 C   0  0  0  0  0  0  0  0  0  0  0  0
   12.6753   -4.5094    3.7911 N   0  0  0  0  0  0  0  0  0  0  0  0
   12.4629   -5.8513    3.8245 N   0  0  0  0  0  0  0  0  0  0  0  0
   13.5914   -6.7121    4.1510 C   0  0  0  0  0  0  0  0  0  0  0  0
   13.5692   -8.0909    3.4941 C   0  0  0  0  0  0  0  0  0  0  0  0
   14.8188   -8.8949    3.7664 C   0  0  0  0  0  0  0  0  0  0  0  0
   14.8813   -9.7502    4.8756 C   0  0  0  0  0  0  0  0  0  0  0  0
   16.0064  -10.5473    5.0924 C   0  0  0  0  0  0  0  0  0  0  0  0
   17.0831  -10.4891    4.2102 C   0  0  0  0  0  0  0  0  0  0  0  0
   17.0423   -9.6219    3.1197 C   0  0  0  0  0  0  0  0  0  0  0  0
   15.9177   -8.8237    2.9004 C   0  0  0  0  0  0  0  0  0  0  0  0
    7.3368   -1.7632    1.0332 C   0  0  0  0  0  0  0  0  0  0  0  0
    6.0346    2.7058    0.5887 H   0  0  0  0  0  0  0  0  0  0  0  0
    6.8764    2.9166   -0.9664 H   0  0  0  0  0  0  0  0  0  0  0  0
    8.4196    4.8279   -1.3219 H   0  0  0  0  0  0  0  0  0  0  0  0
    9.0418    7.1134   -0.6382 H   0  0  0  0  0  0  0  0  0  0  0  0
    8.4344    7.9593    1.6109 H   0  0  0  0  0  0  0  0  0  0  0  0
    7.2084    6.4958    3.1924 H   0  0  0  0  0  0  0  0  0  0  0  0
    6.5764    4.2050    2.5383 H   0  0  0  0  0  0  0  0  0  0  0  0
    8.3765   -0.0858   -0.7313 H   0  0  0  0  0  0  0  0  0  0  0  0
    4.9638    0.5250    0.1792 H   0  0  0  0  0  0  0  0  0  0  0  0
    3.5331   -1.1068    1.3561 H   0  0  0  0  0  0  0  0  0  0  0  0
    4.4970   -3.1722    2.2938 H   0  0  0  0  0  0  0  0  0  0  0  0
    6.9811   -4.7576    1.3380 H   0  0  0  0  0  0  0  0  0  0  0  0
    6.4634   -4.4189    3.0088 H   0  0  0  0  0  0  0  0  0  0  0  0
    8.6140   -3.1706    3.2584 H   0  0  0  0  0  0  0  0  0  0  0  0
    8.8088   -8.3367    3.1229 H   0  0  0  0  0  0  0  0  0  0  0  0
   11.3746   -2.9471    3.3208 H   0  0  0  0  0  0  0  0  0  0  0  0
   13.6189   -6.7876    5.2432 H   0  0  0  0  0  0  0  0  0  0  0  0
   14.4945   -6.1725    3.8349 H   0  0  0  0  0  0  0  0  0  0  0  0
   13.4328   -7.9934    2.4094 H   0  0  0  0  0  0  0  0  0  0  0  0
   12.7161   -8.6742    3.8536 H   0  0  0  0  0  0  0  0  0  0  0  0
   14.0437   -9.8188    5.5666 H   0  0  0  0  0  0  0  0  0  0  0  0
   16.0374  -11.2232    5.9431 H   0  0  0  0  0  0  0  0  0  0  0  0
   17.9521  -11.1219    4.3701 H   0  0  0  0  0  0  0  0  0  0  0  0
   17.8829   -9.5762    2.4321 H   0  0  0  0  0  0  0  0  0  0  0  0
   15.8984   -8.1621    2.0372 H   0  0  0  0  0  0  0  0  0  0  0  0
    8.4024   -1.9517    0.9226 H   0  0  0  0  0  0  0  0  0  0  0  0
  1  2  2  0  0  0  0
  2  3  2  0  0  0  0
  2  4  1  0  0  0  0
  2 11  1  0  0  0  0
  4  5  1  0  0  0  0
  4 37  1  0  0  0  0
  4 38  1  0  0  0  0
  5  6  1  0  0  0  0
  5 10  2  0  0  0  0
  6  7  2  0  0  0  0
  6 39  1  0  0  0  0
  7  8  1  0  0  0  0
  7 40  1  0  0  0  0
  8  9  2  0  0  0  0
  8 41  1  0  0  0  0
  9 10  1  0  0  0  0
  9 42  1  0  0  0  0
 10 43  1  0  0  0  0
 11 12  1  0  0  0  0
 11 44  1  0  0  0  0
 12 13  1  0  0  0  0
 12 36  2  0  0  0  0
 13 14  2  0  0  0  0
 13 45  1  0  0  0  0
 14 15  1  0  0  0  0
 14 46  1  0  0  0  0
 15 16  2  0  0  0  0
 15 47  1  0  0  0  0
 16 17  1  0  0  0  0
 16 36  1  0  0  0  0
 17 18  1  0  0  0  0
 17 48  1  0  0  0  0
 17 49  1  0  0  0  0
 18 19  1  0  0  0  0
 18 50  1  0  0  0  0
 19 20  1  0  0  0  0
 19 24  2  0  0  0  0
 20 21  2  0  0  0  0
 21 22  1  0  0  0  0
 21 51  1  0  0  0  0
 22 23  2  0  0  0  0
 23 24  1  0  0  0  0
 23 27  1  0  0  0  0
 24 25  1  0  0  0  0
 25 26  2  0  0  0  0
 25 52  1  0  0  0  0
 26 27  1  0  0  0  0
 27 28  1  0  0  0  0
 28 29  1  0  0  0  0
 28 53  1  0  0  0  0
 28 54  1  0  0  0  0
 29 30  1  0  0  0  0
 29 55  1  0  0  0  0
 29 56  1  0  0  0  0
 30 31  1  0  0  0  0
 30 35  2  0  0  0  0
 31 32  2  0  0  0  0
 31 57  1  0  0  0  0
 32 33  1  0  0  0  0
 32 58  1  0  0  0  0
 33 34  2  0  0  0  0
 33 59  1  0  0  0  0
 34 35  1  0  0  0  0
 34 60  1  0  0  0  0
 35 61  1  0  0  0  0
 36 62  1  0  0  0  0
M  END
$$$$
