CHEMBL445799
 OpenBabel04072215383D

 70 74  0  0  0  0  0  0  0  0999 V2000
    4.3192   -9.4589   -2.9608 C   0  0  0  0  0  0  0  0  0  0  0  0
    4.9707   -8.4642   -2.1737 O   0  0  0  0  0  0  0  0  0  0  0  0
    5.5803   -7.4711   -2.8912 C   0  0  0  0  0  0  0  0  0  0  0  0
    5.2034   -7.0821   -4.1683 C   0  0  0  0  0  0  0  0  0  0  0  0
    5.9034   -6.0669   -4.8118 C   0  0  0  0  0  0  0  0  0  0  0  0
    6.9266   -5.3484   -4.1550 C   0  0  0  0  0  0  0  0  0  0  0  0
    7.5759   -4.2064   -4.6867 C   0  0  0  0  0  0  0  0  0  0  0  0
    7.2838   -3.6113   -5.9001 O   0  0  0  0  0  0  0  0  0  0  0  0
    5.9830   -3.2765   -6.2265 C   0  0  0  0  0  0  0  0  0  0  0  0
    4.9378   -3.1574   -5.3119 C   0  0  0  0  0  0  0  0  0  0  0  0
    3.6225   -3.0064   -5.7655 C   0  0  0  0  0  0  0  0  0  0  0  0
    3.3334   -2.8815   -7.1286 C   0  0  0  0  0  0  0  0  0  0  0  0
    2.0155   -2.7414   -7.6195 N   0  0  0  0  0  0  0  0  0  0  0  0
    0.8616   -3.0797   -6.9311 C   0  0  0  0  0  0  0  0  0  0  0  0
    0.8365   -3.7117   -5.8786 O   0  0  0  0  0  0  0  0  0  0  0  0
   -0.4005   -2.6475   -7.5659 C   0  0  0  0  0  0  0  0  0  0  0  0
   -1.6407   -2.5918   -7.0228 C   0  0  0  0  0  0  0  0  0  0  0  0
   -2.0001   -3.0045   -5.6269 C   0  0  0  0  0  0  0  0  0  0  0  0
   -2.5746   -2.0367   -7.9080 N   0  0  0  0  0  0  0  0  0  0  0  0
   -4.0434   -2.1562   -7.8588 C   0  0  0  0  0  0  0  0  0  0  0  0
   -4.6891   -3.3284   -8.6597 C   0  0  0  0  0  0  0  0  0  0  0  0
   -4.3236   -4.6924   -8.0788 C   0  0  0  0  0  0  0  0  0  0  0  0
   -6.2076   -3.1044   -8.7009 C   0  0  0  0  0  0  0  0  0  0  0  0
   -4.3103   -3.3766  -10.0347 O   0  0  0  0  0  0  0  0  0  0  0  0
   -1.9051   -1.8238   -9.1253 N   0  0  0  0  0  0  0  0  0  0  0  0
   -2.4317   -1.1105  -10.2178 C   0  0  0  0  0  0  0  0  0  0  0  0
   -2.3469   -1.6972  -11.4868 C   0  0  0  0  0  0  0  0  0  0  0  0
   -3.0461   -1.1527  -12.5635 C   0  0  0  0  0  0  0  0  0  0  0  0
   -3.7436    0.0429  -12.4070 C   0  0  0  0  0  0  0  0  0  0  0  0
   -3.7612    0.6806  -11.1667 C   0  0  0  0  0  0  0  0  0  0  0  0
   -3.1305    0.0912  -10.0660 C   0  0  0  0  0  0  0  0  0  0  0  0
   -0.5615   -2.1618   -8.9628 C   0  0  0  0  0  0  0  0  0  0  0  0
    0.3688   -2.0754   -9.7498 O   0  0  0  0  0  0  0  0  0  0  0  0
    4.3964   -2.8618   -8.0356 C   0  0  0  0  0  0  0  0  0  0  0  0
    5.7012   -3.0813   -7.5814 C   0  0  0  0  0  0  0  0  0  0  0  0
    6.6905   -3.1442   -8.4863 F   0  0  0  0  0  0  0  0  0  0  0  0
    8.6390   -3.6249   -4.0008 C   0  0  0  0  0  0  0  0  0  0  0  0
    8.9794   -4.1506   -2.7750 C   0  0  0  0  0  0  0  0  0  0  0  0
    8.3316   -5.1832   -2.1951 N   0  0  0  0  0  0  0  0  0  0  0  0
    7.3234   -5.7643   -2.8650 C   0  0  0  0  0  0  0  0  0  0  0  0
    6.6377   -6.8124   -2.2598 C   0  0  0  0  0  0  0  0  0  0  0  0
    4.0051  -10.2672   -2.2951 H   0  0  0  0  0  0  0  0  0  0  0  0
    5.0063   -9.8806   -3.7034 H   0  0  0  0  0  0  0  0  0  0  0  0
    3.4194   -9.0610   -3.4418 H   0  0  0  0  0  0  0  0  0  0  0  0
    4.3593   -7.5249   -4.6842 H   0  0  0  0  0  0  0  0  0  0  0  0
    5.6030   -5.8153   -5.8245 H   0  0  0  0  0  0  0  0  0  0  0  0
    5.1039   -3.2486   -4.2423 H   0  0  0  0  0  0  0  0  0  0  0  0
    2.8354   -2.9874   -5.0164 H   0  0  0  0  0  0  0  0  0  0  0  0
    1.9065   -2.4256   -8.5845 H   0  0  0  0  0  0  0  0  0  0  0  0
   -1.1580   -2.9201   -4.9337 H   0  0  0  0  0  0  0  0  0  0  0  0
   -2.3403   -4.0451   -5.6174 H   0  0  0  0  0  0  0  0  0  0  0  0
   -2.7886   -2.3753   -5.2047 H   0  0  0  0  0  0  0  0  0  0  0  0
   -4.4770   -1.2074   -8.1919 H   0  0  0  0  0  0  0  0  0  0  0  0
   -4.3616   -2.2445   -6.8115 H   0  0  0  0  0  0  0  0  0  0  0  0
   -4.4009   -4.7155   -6.9901 H   0  0  0  0  0  0  0  0  0  0  0  0
   -3.3026   -4.9725   -8.3671 H   0  0  0  0  0  0  0  0  0  0  0  0
   -4.9717   -5.4748   -8.4910 H   0  0  0  0  0  0  0  0  0  0  0  0
   -6.6131   -2.8046   -7.7308 H   0  0  0  0  0  0  0  0  0  0  0  0
   -6.7352   -4.0034   -9.0374 H   0  0  0  0  0  0  0  0  0  0  0  0
   -6.4552   -2.3220   -9.4322 H   0  0  0  0  0  0  0  0  0  0  0  0
   -3.3513   -3.5326  -10.0535 H   0  0  0  0  0  0  0  0  0  0  0  0
   -1.8382   -2.6496  -11.6165 H   0  0  0  0  0  0  0  0  0  0  0  0
   -3.0711   -1.6832  -13.5116 H   0  0  0  0  0  0  0  0  0  0  0  0
   -4.2791    0.4721  -13.2502 H   0  0  0  0  0  0  0  0  0  0  0  0
   -4.2861    1.6264  -11.0549 H   0  0  0  0  0  0  0  0  0  0  0  0
   -3.1746    0.5853   -9.0999 H   0  0  0  0  0  0  0  0  0  0  0  0
    4.2316   -2.7341   -9.1002 H   0  0  0  0  0  0  0  0  0  0  0  0
    9.1827   -2.7829   -4.4128 H   0  0  0  0  0  0  0  0  0  0  0  0
    9.8049   -3.7426   -2.1985 H   0  0  0  0  0  0  0  0  0  0  0  0
    6.9353   -7.1246   -1.2600 H   0  0  0  0  0  0  0  0  0  0  0  0
  1  2  1  0  0  0  0
  1 42  1  0  0  0  0
  1 43  1  0  0  0  0
  1 44  1  0  0  0  0
  2  3  1  0  0  0  0
  3  4  1  0  0  0  0
  3 41  2  0  0  0  0
  4  5  2  0  0  0  0
  4 45  1  0  0  0  0
  5  6  1  0  0  0  0
  5 46  1  0  0  0  0
  6  7  1  0  0  0  0
  6 40  2  0  0  0  0
  7  8  1  0  0  0  0
  7 37  2  0  0  0  0
  8  9  1  0  0  0  0
  9 10  1  0  0  0  0
  9 35  2  0  0  0  0
 10 11  2  0  0  0  0
 10 47  1  0  0  0  0
 11 12  1  0  0  0  0
 11 48  1  0  0  0  0
 12 13  1  0  0  0  0
 12 34  2  0  0  0  0
 13 14  1  0  0  0  0
 13 49  1  0  0  0  0
 14 15  2  0  0  0  0
 14 16  1  0  0  0  0
 16 17  2  0  0  0  0
 16 32  1  0  0  0  0
 17 18  1  0  0  0  0
 17 19  1  0  0  0  0
 18 50  1  0  0  0  0
 18 51  1  0  0  0  0
 18 52  1  0  0  0  0
 19 20  1  0  0  0  0
 19 25  1  0  0  0  0
 20 21  1  0  0  0  0
 20 53  1  0  0  0  0
 20 54  1  0  0  0  0
 21 22  1  0  0  0  0
 21 23  1  0  0  0  0
 21 24  1  0  0  0  0
 22 55  1  0  0  0  0
 22 56  1  0  0  0  0
 22 57  1  0  0  0  0
 23 58  1  0  0  0  0
 23 59  1  0  0  0  0
 23 60  1  0  0  0  0
 24 61  1  0  0  0  0
 25 26  1  0  0  0  0
 25 32  1  0  0  0  0
 26 27  1  0  0  0  0
 26 31  2  0  0  0  0
 27 28  2  0  0  0  0
 27 62  1  0  0  0  0
 28 29  1  0  0  0  0
 28 63  1  0  0  0  0
 29 30  2  0  0  0  0
 29 64  1  0  0  0  0
 30 31  1  0  0  0  0
 30 65  1  0  0  0  0
 31 66  1  0  0  0  0
 32 33  2  0  0  0  0
 34 35  1  0  0  0  0
 34 67  1  0  0  0  0
 35 36  1  0  0  0  0
 37 38  1  0  0  0  0
 37 68  1  0  0  0  0
 38 39  2  0  0  0  0
 38 69  1  0  0  0  0
 39 40  1  0  0  0  0
 40 41  1  0  0  0  0
 41 70  1  0  0  0  0
M  END
$$$$
