CHEMBL1761937
 OpenBabel04072215363D

 51 54  0  0  0  0  0  0  0  0999 V2000
   10.5981   -1.1250    4.5599 C   0  0  0  0  0  0  0  0  0  0  0  0
    9.7703   -1.6705    5.5896 O   0  0  0  0  0  0  0  0  0  0  0  0
    8.5384   -2.1065    5.1711 C   0  0  0  0  0  0  0  0  0  0  0  0
    7.8701   -1.5021    4.1002 C   0  0  0  0  0  0  0  0  0  0  0  0
    6.6803   -1.9951    3.5919 C   0  0  0  0  0  0  0  0  0  0  0  0
    6.1583   -1.3626    2.5397 N   0  0  0  0  0  0  0  0  0  0  0  0
    5.0219   -1.8529    2.0424 C   0  0  0  0  0  0  0  0  0  0  0  0
    4.3622   -2.9094    2.5087 N   0  0  0  0  0  0  0  0  0  0  0  0
    4.9362   -3.5655    3.5418 C   0  0  0  0  0  0  0  0  0  0  0  0
    4.3362   -4.7589    3.9707 O   0  0  0  0  0  0  0  0  0  0  0  0
    3.5535   -5.4126    3.0344 C   0  0  0  0  0  0  0  0  0  0  0  0
    3.9921   -5.6114    1.7278 C   0  0  0  0  0  0  0  0  0  0  0  0
    3.1195   -6.1173    0.7631 C   0  0  0  0  0  0  0  0  0  0  0  0
    1.8200   -6.5022    1.0901 C   0  0  0  0  0  0  0  0  0  0  0  0
    0.8689   -6.9001    0.1164 N   0  0  0  0  0  0  0  0  0  0  0  0
    1.1039   -6.9784   -1.2522 C   0  0  0  0  0  0  0  0  0  0  0  0
    2.1967   -6.8279   -1.7885 O   0  0  0  0  0  0  0  0  0  0  0  0
   -0.0603   -7.1923   -1.9871 N   0  0  0  0  0  0  0  0  0  0  0  0
    0.0198   -7.2750   -3.4022 C   0  0  0  0  0  0  0  0  0  0  0  0
    1.0056   -8.0517   -4.0274 C   0  0  0  0  0  0  0  0  0  0  0  0
    1.1534   -8.0313   -5.4156 C   0  0  0  0  0  0  0  0  0  0  0  0
    0.3142   -7.2285   -6.1814 C   0  0  0  0  0  0  0  0  0  0  0  0
    0.5570   -7.1398   -8.0540 Br  0  0  0  0  0  0  0  0  0  0  0  0
   -0.6924   -6.4772   -5.5735 C   0  0  0  0  0  0  0  0  0  0  0  0
   -0.8570   -6.5192   -4.1835 C   0  0  0  0  0  0  0  0  0  0  0  0
    1.4302   -6.4192    2.4339 C   0  0  0  0  0  0  0  0  0  0  0  0
    2.2938   -5.8776    3.4063 C   0  0  0  0  0  0  0  0  0  0  0  0
    6.1097   -3.1321    4.1748 C   0  0  0  0  0  0  0  0  0  0  0  0
    6.7472   -3.7235    5.2961 C   0  0  0  0  0  0  0  0  0  0  0  0
    7.9341   -3.1886    5.8202 C   0  0  0  0  0  0  0  0  0  0  0  0
    8.4139   -3.8541    6.9174 O   0  0  0  0  0  0  0  0  0  0  0  0
    9.1023   -3.0635    7.8846 C   0  0  0  0  0  0  0  0  0  0  0  0
   11.6346   -1.1456    4.9076 H   0  0  0  0  0  0  0  0  0  0  0  0
   10.3305   -0.0808    4.3660 H   0  0  0  0  0  0  0  0  0  0  0  0
   10.5468   -1.7162    3.6375 H   0  0  0  0  0  0  0  0  0  0  0  0
    8.2777   -0.6158    3.6213 H   0  0  0  0  0  0  0  0  0  0  0  0
    4.6112   -1.3566    1.1699 H   0  0  0  0  0  0  0  0  0  0  0  0
    4.9840   -5.3011    1.4165 H   0  0  0  0  0  0  0  0  0  0  0  0
    3.5052   -6.1574   -0.2478 H   0  0  0  0  0  0  0  0  0  0  0  0
   -0.0456   -7.1834    0.4397 H   0  0  0  0  0  0  0  0  0  0  0  0
   -0.8785   -6.7342   -1.6134 H   0  0  0  0  0  0  0  0  0  0  0  0
    1.6866   -8.6600   -3.4364 H   0  0  0  0  0  0  0  0  0  0  0  0
    1.9415   -8.6203   -5.8769 H   0  0  0  0  0  0  0  0  0  0  0  0
   -1.3333   -5.8340   -6.1708 H   0  0  0  0  0  0  0  0  0  0  0  0
   -1.6198   -5.8965   -3.7262 H   0  0  0  0  0  0  0  0  0  0  0  0
    0.4366   -6.7436    2.7444 H   0  0  0  0  0  0  0  0  0  0  0  0
    1.9615   -5.7913    4.4371 H   0  0  0  0  0  0  0  0  0  0  0  0
    6.3097   -4.5993    5.7714 H   0  0  0  0  0  0  0  0  0  0  0  0
    8.9434   -3.5268    8.8641 H   0  0  0  0  0  0  0  0  0  0  0  0
    8.7242   -2.0369    7.9493 H   0  0  0  0  0  0  0  0  0  0  0  0
   10.1783   -3.0763    7.6855 H   0  0  0  0  0  0  0  0  0  0  0  0
  1  2  1  0  0  0  0
  1 33  1  0  0  0  0
  1 34  1  0  0  0  0
  1 35  1  0  0  0  0
  2  3  1  0  0  0  0
  3  4  1  0  0  0  0
  3 30  2  0  0  0  0
  4  5  2  0  0  0  0
  4 36  1  0  0  0  0
  5  6  1  0  0  0  0
  5 28  1  0  0  0  0
  6  7  2  0  0  0  0
  7  8  1  0  0  0  0
  7 37  1  0  0  0  0
  8  9  2  0  0  0  0
  9 10  1  0  0  0  0
  9 28  1  0  0  0  0
 10 11  1  0  0  0  0
 11 12  1  0  0  0  0
 11 27  2  0  0  0  0
 12 13  2  0  0  0  0
 12 38  1  0  0  0  0
 13 14  1  0  0  0  0
 13 39  1  0  0  0  0
 14 15  1  0  0  0  0
 14 26  2  0  0  0  0
 15 16  1  0  0  0  0
 15 40  1  0  0  0  0
 16 17  2  0  0  0  0
 16 18  1  0  0  0  0
 18 19  1  0  0  0  0
 18 41  1  0  0  0  0
 19 20  1  0  0  0  0
 19 25  2  0  0  0  0
 20 21  2  0  0  0  0
 20 42  1  0  0  0  0
 21 22  1  0  0  0  0
 21 43  1  0  0  0  0
 22 23  1  0  0  0  0
 22 24  2  0  0  0  0
 24 25  1  0  0  0  0
 24 44  1  0  0  0  0
 25 45  1  0  0  0  0
 26 27  1  0  0  0  0
 26 46  1  0  0  0  0
 27 47  1  0  0  0  0
 28 29  2  0  0  0  0
 29 30  1  0  0  0  0
 29 48  1  0  0  0  0
 30 31  1  0  0  0  0
 31 32  1  0  0  0  0
 32 49  1  0  0  0  0
 32 50  1  0  0  0  0
 32 51  1  0  0  0  0
M  END
$$$$
