CHEMBL382610
 OpenBabel04072215373D

 51 54  0  0  0  0  0  0  0  0999 V2000
    1.9035   -0.8965   -1.6272 C   0  0  0  0  0  0  0  0  0  0  0  0
    3.1999   -0.5487   -1.1560 O   0  0  0  0  0  0  0  0  0  0  0  0
    3.6985   -1.2628   -0.1006 C   0  0  0  0  0  0  0  0  0  0  0  0
    3.2560   -2.5474    0.2260 C   0  0  0  0  0  0  0  0  0  0  0  0
    3.8577   -3.2800    1.2580 C   0  0  0  0  0  0  0  0  0  0  0  0
    4.9175   -2.7579    2.0000 C   0  0  0  0  0  0  0  0  0  0  0  0
    5.5942   -3.4675    3.0127 N   0  0  0  0  0  0  0  0  0  0  0  0
    5.4455   -4.7497    3.4032 C   0  0  0  0  0  0  0  0  0  0  0  0
    5.7356   -5.2910    4.5685 N   0  0  0  0  0  0  0  0  0  0  0  0
    5.4268   -6.6348    4.4759 N   0  0  0  0  0  0  0  0  0  0  0  0
    5.0090   -6.8437    3.2453 C   0  0  0  0  0  0  0  0  0  0  0  0
    4.5655   -8.0573    2.5576 C   0  0  0  0  0  0  0  0  0  0  0  0
    4.2037   -7.9819    1.1952 C   0  0  0  0  0  0  0  0  0  0  0  0
    3.7593   -9.1014    0.4994 C   0  0  0  0  0  0  0  0  0  0  0  0
    3.6763  -10.2907    1.1849 C   0  0  0  0  0  0  0  0  0  0  0  0
    4.0114  -10.4154    2.4827 N   0  0  0  0  0  0  0  0  0  0  0  0
    4.4713   -9.3227    3.1641 C   0  0  0  0  0  0  0  0  0  0  0  0
    4.7928   -9.5915    4.6253 C   0  0  0  0  0  0  0  0  0  0  0  0
    5.2383  -11.0469    4.8798 C   0  0  0  0  0  0  0  0  0  0  0  0
    5.4719  -11.4581    6.3151 C   0  0  0  0  0  0  0  0  0  0  0  0
    5.3500  -12.8159    6.6480 C   0  0  0  0  0  0  0  0  0  0  0  0
    5.5844  -13.2211    7.9525 C   0  0  0  0  0  0  0  0  0  0  0  0
    5.9425  -12.3762    8.9421 N   0  0  0  0  0  0  0  0  0  0  0  0
    6.0768  -11.0778    8.6028 C   0  0  0  0  0  0  0  0  0  0  0  0
    5.8641  -10.5769    7.3253 C   0  0  0  0  0  0  0  0  0  0  0  0
    5.0009   -5.6832    2.5084 O   0  0  0  0  0  0  0  0  0  0  0  0
    5.3676   -1.4727    1.6558 C   0  0  0  0  0  0  0  0  0  0  0  0
    4.7576   -0.7141    0.6378 C   0  0  0  0  0  0  0  0  0  0  0  0
    5.3289    0.5209    0.4545 O   0  0  0  0  0  0  0  0  0  0  0  0
    4.4556    1.5654    0.0329 C   0  0  0  0  0  0  0  0  0  0  0  0
    1.6379   -0.1920   -2.4212 H   0  0  0  0  0  0  0  0  0  0  0  0
    1.1606   -0.8004   -0.8284 H   0  0  0  0  0  0  0  0  0  0  0  0
    1.8874   -1.8985   -2.0668 H   0  0  0  0  0  0  0  0  0  0  0  0
    2.4538   -3.0312   -0.3203 H   0  0  0  0  0  0  0  0  0  0  0  0
    3.4568   -4.2666    1.4644 H   0  0  0  0  0  0  0  0  0  0  0  0
    6.0461   -2.8646    3.6917 H   0  0  0  0  0  0  0  0  0  0  0  0
    4.2664   -7.0391    0.6541 H   0  0  0  0  0  0  0  0  0  0  0  0
    3.4834   -9.0431   -0.5473 H   0  0  0  0  0  0  0  0  0  0  0  0
    3.3313  -11.2008    0.7033 H   0  0  0  0  0  0  0  0  0  0  0  0
    3.9003   -9.3608    5.2205 H   0  0  0  0  0  0  0  0  0  0  0  0
    5.6038   -8.9408    4.9576 H   0  0  0  0  0  0  0  0  0  0  0  0
    6.1639  -11.2397    4.3204 H   0  0  0  0  0  0  0  0  0  0  0  0
    4.4762  -11.7264    4.4760 H   0  0  0  0  0  0  0  0  0  0  0  0
    5.0738  -13.5547    5.9000 H   0  0  0  0  0  0  0  0  0  0  0  0
    5.4893  -14.2618    8.2412 H   0  0  0  0  0  0  0  0  0  0  0  0
    6.3760  -10.4182    9.4149 H   0  0  0  0  0  0  0  0  0  0  0  0
    6.0102   -9.5191    7.1409 H   0  0  0  0  0  0  0  0  0  0  0  0
    6.2114   -1.0315    2.1831 H   0  0  0  0  0  0  0  0  0  0  0  0
    4.9286    2.5189    0.2895 H   0  0  0  0  0  0  0  0  0  0  0  0
    3.4896    1.5293    0.5489 H   0  0  0  0  0  0  0  0  0  0  0  0
    4.3305    1.5550   -1.0536 H   0  0  0  0  0  0  0  0  0  0  0  0
  1  2  1  0  0  0  0
  1 31  1  0  0  0  0
  1 32  1  0  0  0  0
  1 33  1  0  0  0  0
  2  3  1  0  0  0  0
  3  4  1  0  0  0  0
  3 28  2  0  0  0  0
  4  5  2  0  0  0  0
  4 34  1  0  0  0  0
  5  6  1  0  0  0  0
  5 35  1  0  0  0  0
  6  7  1  0  0  0  0
  6 27  2  0  0  0  0
  7  8  1  0  0  0  0
  7 36  1  0  0  0  0
  8  9  2  0  0  0  0
  8 26  1  0  0  0  0
  9 10  1  0  0  0  0
 10 11  2  0  0  0  0
 11 12  1  0  0  0  0
 11 26  1  0  0  0  0
 12 13  1  0  0  0  0
 12 17  2  0  0  0  0
 13 14  2  0  0  0  0
 13 37  1  0  0  0  0
 14 15  1  0  0  0  0
 14 38  1  0  0  0  0
 15 16  2  0  0  0  0
 15 39  1  0  0  0  0
 16 17  1  0  0  0  0
 17 18  1  0  0  0  0
 18 19  1  0  0  0  0
 18 40  1  0  0  0  0
 18 41  1  0  0  0  0
 19 20  1  0  0  0  0
 19 42  1  0  0  0  0
 19 43  1  0  0  0  0
 20 21  1  0  0  0  0
 20 25  2  0  0  0  0
 21 22  2  0  0  0  0
 21 44  1  0  0  0  0
 22 23  1  0  0  0  0
 22 45  1  0  0  0  0
 23 24  2  0  0  0  0
 24 25  1  0  0  0  0
 24 46  1  0  0  0  0
 25 47  1  0  0  0  0
 27 28  1  0  0  0  0
 27 48  1  0  0  0  0
 28 29  1  0  0  0  0
 29 30  1  0  0  0  0
 30 49  1  0  0  0  0
 30 50  1  0  0  0  0
 30 51  1  0  0  0  0
M  END
$$$$
