CHEMBL4069483
 OpenBabel04072215383D

 61 65  0  0  0  0  0  0  0  0999 V2000
    5.3789   -0.8565   -0.9543 C   0  0  0  0  0  0  0  0  0  0  0  0
    4.4262   -0.9428    0.1027 O   0  0  0  0  0  0  0  0  0  0  0  0
    4.5149    0.0418    1.0486 C   0  0  0  0  0  0  0  0  0  0  0  0
    4.9422    1.3464    0.7262 C   0  0  0  0  0  0  0  0  0  0  0  0
    5.0606    2.3659    1.6654 C   0  0  0  0  0  0  0  0  0  0  0  0
    5.5038    3.5637    1.2622 N   0  0  0  0  0  0  0  0  0  0  0  0
    5.5815    4.5368    2.1773 C   0  0  0  0  0  0  0  0  0  0  0  0
    5.2536    4.4288    3.4655 N   0  0  0  0  0  0  0  0  0  0  0  0
    4.8612    3.1891    3.8647 C   0  0  0  0  0  0  0  0  0  0  0  0
    4.6609    3.0041    5.2603 N   0  0  0  0  0  0  0  0  0  0  0  0
    4.8348    1.8020    5.8487 N   0  0  0  0  0  0  0  0  0  0  0  0
    4.6512    2.0756    7.1355 C   0  0  0  0  0  0  0  0  0  0  0  0
    4.7127    1.1451    8.0984 N   0  0  0  0  0  0  0  0  0  0  0  0
    4.9816    1.3517    9.4540 C   0  0  0  0  0  0  0  0  0  0  0  0
    4.4250    0.4964   10.4008 C   0  0  0  0  0  0  0  0  0  0  0  0
    4.5674    0.7827   11.7571 C   0  0  0  0  0  0  0  0  0  0  0  0
    5.2610    1.9175   12.2108 C   0  0  0  0  0  0  0  0  0  0  0  0
    5.3597    2.1534   13.5683 N   0  0  0  0  0  0  0  0  0  0  0  0
    6.4035    3.0242   14.1238 C   0  0  0  0  0  0  0  0  0  0  0  0
    6.6696    2.5905   15.5853 C   0  0  0  0  0  0  0  0  0  0  0  0
    5.4454    2.5992   16.4249 N   0  0  0  0  0  0  0  0  0  0  0  0
    5.7428    2.0849   17.7602 C   0  0  0  0  0  0  0  0  0  0  0  0
    4.3977    1.7696   15.7833 C   0  0  0  0  0  0  0  0  0  0  0  0
    4.1037    2.2142   14.3368 C   0  0  0  0  0  0  0  0  0  0  0  0
    5.8561    2.7354   11.2526 C   0  0  0  0  0  0  0  0  0  0  0  0
    5.7065    2.4630    9.8954 C   0  0  0  0  0  0  0  0  0  0  0  0
    4.3509    3.3748    7.4037 N   0  0  0  0  0  0  0  0  0  0  0  0
    4.3533    3.9498    6.2289 C   0  0  0  0  0  0  0  0  0  0  0  0
    4.0205    5.2298    5.9804 N   0  0  0  0  0  0  0  0  0  0  0  0
    4.7084    2.0926    2.9855 C   0  0  0  0  0  0  0  0  0  0  0  0
    4.2095    0.7959    3.2896 C   0  0  0  0  0  0  0  0  0  0  0  0
    4.1305   -0.2342    2.3551 C   0  0  0  0  0  0  0  0  0  0  0  0
    3.6903   -1.3884    2.9322 O   0  0  0  0  0  0  0  0  0  0  0  0
    3.5639   -2.5731    2.1706 C   0  0  0  0  0  0  0  0  0  0  0  0
    5.4335   -1.8357   -1.4371 H   0  0  0  0  0  0  0  0  0  0  0  0
    6.3804   -0.6105   -0.5819 H   0  0  0  0  0  0  0  0  0  0  0  0
    5.0520   -0.1298   -1.7047 H   0  0  0  0  0  0  0  0  0  0  0  0
    5.1918    1.6051   -0.2990 H   0  0  0  0  0  0  0  0  0  0  0  0
    5.9577    5.4975    1.8406 H   0  0  0  0  0  0  0  0  0  0  0  0
    4.7430    0.1770    7.8081 H   0  0  0  0  0  0  0  0  0  0  0  0
    3.8496   -0.3714   10.0974 H   0  0  0  0  0  0  0  0  0  0  0  0
    4.1311    0.0940   12.4745 H   0  0  0  0  0  0  0  0  0  0  0  0
    6.0897    4.0756   14.0864 H   0  0  0  0  0  0  0  0  0  0  0  0
    7.3430    2.9281   13.5665 H   0  0  0  0  0  0  0  0  0  0  0  0
    7.4191    3.2632   16.0170 H   0  0  0  0  0  0  0  0  0  0  0  0
    7.1035    1.5807   15.5666 H   0  0  0  0  0  0  0  0  0  0  0  0
    6.4907    2.7143   18.2532 H   0  0  0  0  0  0  0  0  0  0  0  0
    6.1179    1.0552   17.7353 H   0  0  0  0  0  0  0  0  0  0  0  0
    4.8437    2.1087   18.3853 H   0  0  0  0  0  0  0  0  0  0  0  0
    3.4692    1.8317   16.3619 H   0  0  0  0  0  0  0  0  0  0  0  0
    4.7070    0.7150   15.7642 H   0  0  0  0  0  0  0  0  0  0  0  0
    3.7092    3.2394   14.3256 H   0  0  0  0  0  0  0  0  0  0  0  0
    3.3186    1.5688   13.9279 H   0  0  0  0  0  0  0  0  0  0  0  0
    6.4140    3.6235   11.5315 H   0  0  0  0  0  0  0  0  0  0  0  0
    6.1655    3.1377    9.1769 H   0  0  0  0  0  0  0  0  0  0  0  0
    3.9310    5.8473    6.7797 H   0  0  0  0  0  0  0  0  0  0  0  0
    4.3433    5.6679    5.1210 H   0  0  0  0  0  0  0  0  0  0  0  0
    3.8564    0.5505    4.2882 H   0  0  0  0  0  0  0  0  0  0  0  0
    3.4551   -3.3989    2.8828 H   0  0  0  0  0  0  0  0  0  0  0  0
    4.4527   -2.7923    1.5754 H   0  0  0  0  0  0  0  0  0  0  0  0
    2.6557   -2.5361    1.5636 H   0  0  0  0  0  0  0  0  0  0  0  0
  1  2  1  0  0  0  0
  1 35  1  0  0  0  0
  1 36  1  0  0  0  0
  1 37  1  0  0  0  0
  2  3  1  0  0  0  0
  3  4  1  0  0  0  0
  3 32  2  0  0  0  0
  4  5  2  0  0  0  0
  4 38  1  0  0  0  0
  5  6  1  0  0  0  0
  5 30  1  0  0  0  0
  6  7  2  0  0  0  0
  7  8  1  0  0  0  0
  7 39  1  0  0  0  0
  8  9  2  0  0  0  0
  9 10  1  0  0  0  0
  9 30  1  0  0  0  0
 10 11  1  0  0  0  0
 10 28  1  0  0  0  0
 11 12  2  0  0  0  0
 12 13  1  0  0  0  0
 12 27  1  0  0  0  0
 13 14  1  0  0  0  0
 13 40  1  0  0  0  0
 14 15  1  0  0  0  0
 14 26  2  0  0  0  0
 15 16  2  0  0  0  0
 15 41  1  0  0  0  0
 16 17  1  0  0  0  0
 16 42  1  0  0  0  0
 17 18  1  0  0  0  0
 17 25  2  0  0  0  0
 18 19  1  0  0  0  0
 18 24  1  0  0  0  0
 19 20  1  0  0  0  0
 19 43  1  0  0  0  0
 19 44  1  0  0  0  0
 20 21  1  0  0  0  0
 20 45  1  0  0  0  0
 20 46  1  0  0  0  0
 21 22  1  0  0  0  0
 21 23  1  0  0  0  0
 22 47  1  0  0  0  0
 22 48  1  0  0  0  0
 22 49  1  0  0  0  0
 23 24  1  0  0  0  0
 23 50  1  0  0  0  0
 23 51  1  0  0  0  0
 24 52  1  0  0  0  0
 24 53  1  0  0  0  0
 25 26  1  0  0  0  0
 25 54  1  0  0  0  0
 26 55  1  0  0  0  0
 27 28  2  0  0  0  0
 28 29  1  0  0  0  0
 29 56  1  0  0  0  0
 29 57  1  0  0  0  0
 30 31  2  0  0  0  0
 31 32  1  0  0  0  0
 31 58  1  0  0  0  0
 32 33  1  0  0  0  0
 33 34  1  0  0  0  0
 34 59  1  0  0  0  0
 34 60  1  0  0  0  0
 34 61  1  0  0  0  0
M  END
$$$$
