CHEMBL243908
 OpenBabel04072215363D

 50 53  0  0  0  0  0  0  0  0999 V2000
    7.6457    2.4235    1.8600 C   0  0  0  0  0  0  0  0  0  0  0  0
    7.0032    2.0369    0.6381 O   0  0  0  0  0  0  0  0  0  0  0  0
    7.5183    0.9006    0.0940 C   0  0  0  0  0  0  0  0  0  0  0  0
    8.4280    0.2671    0.6089 O   0  0  0  0  0  0  0  0  0  0  0  0
    6.8626    0.6379   -1.0728 N   0  0  0  0  0  0  0  0  0  0  0  0
    7.1441   -0.4533   -1.8453 C   0  0  0  0  0  0  0  0  0  0  0  0
    8.0189   -1.4086   -1.6170 N   0  0  0  0  0  0  0  0  0  0  0  0
    7.9051   -2.2937   -2.6602 C   0  0  0  0  0  0  0  0  0  0  0  0
    8.5801   -3.5036   -2.8976 C   0  0  0  0  0  0  0  0  0  0  0  0
    8.2600   -4.2426   -4.0434 C   0  0  0  0  0  0  0  0  0  0  0  0
    8.9313   -5.4460   -4.2087 O   0  0  0  0  0  0  0  0  0  0  0  0
    9.1934   -5.9013   -5.4836 C   0  0  0  0  0  0  0  0  0  0  0  0
    9.4786   -5.0475   -6.5412 C   0  0  0  0  0  0  0  0  0  0  0  0
    9.6206   -5.5468   -7.8327 C   0  0  0  0  0  0  0  0  0  0  0  0
    9.5479   -6.9181   -8.1015 C   0  0  0  0  0  0  0  0  0  0  0  0
    9.6183   -7.4426   -9.4216 N   0  0  0  0  0  0  0  0  0  0  0  0
    9.7545   -6.6868  -10.5765 C   0  0  0  0  0  0  0  0  0  0  0  0
    9.8814   -5.4674  -10.6138 O   0  0  0  0  0  0  0  0  0  0  0  0
    9.6938   -7.4530  -11.7366 N   0  0  0  0  0  0  0  0  0  0  0  0
    9.8149   -6.7921  -12.9911 C   0  0  0  0  0  0  0  0  0  0  0  0
   10.8925   -5.9322  -13.2482 C   0  0  0  0  0  0  0  0  0  0  0  0
   10.9628   -5.2164  -14.4451 C   0  0  0  0  0  0  0  0  0  0  0  0
    9.9467   -5.3475  -15.3895 C   0  0  0  0  0  0  0  0  0  0  0  0
    8.8823   -6.2138  -15.1385 C   0  0  0  0  0  0  0  0  0  0  0  0
    7.4802   -6.3482  -16.4021 Br  0  0  0  0  0  0  0  0  0  0  0  0
    8.8200   -6.9562  -13.9543 C   0  0  0  0  0  0  0  0  0  0  0  0
    9.3865   -7.7890   -7.0139 C   0  0  0  0  0  0  0  0  0  0  0  0
    9.2068   -7.2809   -5.7112 C   0  0  0  0  0  0  0  0  0  0  0  0
    7.2629   -3.7792   -4.9201 C   0  0  0  0  0  0  0  0  0  0  0  0
    6.6126   -2.5538   -4.7218 C   0  0  0  0  0  0  0  0  0  0  0  0
    6.9491   -1.8529   -3.5659 C   0  0  0  0  0  0  0  0  0  0  0  0
    6.4821   -0.6833   -3.0243 N   0  0  0  0  0  0  0  0  0  0  0  0
    7.0658    3.2288    2.3142 H   0  0  0  0  0  0  0  0  0  0  0  0
    8.6528    2.7965    1.6454 H   0  0  0  0  0  0  0  0  0  0  0  0
    7.6859    1.5908    2.5690 H   0  0  0  0  0  0  0  0  0  0  0  0
    6.1502    1.3053   -1.3418 H   0  0  0  0  0  0  0  0  0  0  0  0
    9.3283   -3.8507   -2.1909 H   0  0  0  0  0  0  0  0  0  0  0  0
    9.5561   -3.9747   -6.3950 H   0  0  0  0  0  0  0  0  0  0  0  0
    9.7669   -4.8072   -8.6093 H   0  0  0  0  0  0  0  0  0  0  0  0
    9.5998   -8.4473   -9.5199 H   0  0  0  0  0  0  0  0  0  0  0  0
    9.0285   -8.2111  -11.6965 H   0  0  0  0  0  0  0  0  0  0  0  0
   11.6786   -5.7986  -12.5074 H   0  0  0  0  0  0  0  0  0  0  0  0
   11.7961   -4.5432  -14.6267 H   0  0  0  0  0  0  0  0  0  0  0  0
    9.9893   -4.7646  -16.3056 H   0  0  0  0  0  0  0  0  0  0  0  0
    7.9614   -7.5914  -13.7614 H   0  0  0  0  0  0  0  0  0  0  0  0
    9.3777   -8.8651   -7.1567 H   0  0  0  0  0  0  0  0  0  0  0  0
    9.0593   -7.9652   -4.8785 H   0  0  0  0  0  0  0  0  0  0  0  0
    6.9821   -4.3650   -5.7916 H   0  0  0  0  0  0  0  0  0  0  0  0
    5.8740   -2.1891   -5.4264 H   0  0  0  0  0  0  0  0  0  0  0  0
    5.7503   -0.1080   -3.4109 H   0  0  0  0  0  0  0  0  0  0  0  0
  1  2  1  0  0  0  0
  1 33  1  0  0  0  0
  1 34  1  0  0  0  0
  1 35  1  0  0  0  0
  2  3  1  0  0  0  0
  3  4  2  0  0  0  0
  3  5  1  0  0  0  0
  5  6  1  0  0  0  0
  5 36  1  0  0  0  0
  6  7  2  0  0  0  0
  6 32  1  0  0  0  0
  7  8  1  0  0  0  0
  8  9  1  0  0  0  0
  8 31  2  0  0  0  0
  9 10  2  0  0  0  0
  9 37  1  0  0  0  0
 10 11  1  0  0  0  0
 10 29  1  0  0  0  0
 11 12  1  0  0  0  0
 12 13  1  0  0  0  0
 12 28  2  0  0  0  0
 13 14  2  0  0  0  0
 13 38  1  0  0  0  0
 14 15  1  0  0  0  0
 14 39  1  0  0  0  0
 15 16  1  0  0  0  0
 15 27  2  0  0  0  0
 16 17  1  0  0  0  0
 16 40  1  0  0  0  0
 17 18  2  0  0  0  0
 17 19  1  0  0  0  0
 19 20  1  0  0  0  0
 19 41  1  0  0  0  0
 20 21  1  0  0  0  0
 20 26  2  0  0  0  0
 21 22  2  0  0  0  0
 21 42  1  0  0  0  0
 22 23  1  0  0  0  0
 22 43  1  0  0  0  0
 23 24  2  0  0  0  0
 23 44  1  0  0  0  0
 24 25  1  0  0  0  0
 24 26  1  0  0  0  0
 26 45  1  0  0  0  0
 27 28  1  0  0  0  0
 27 46  1  0  0  0  0
 28 47  1  0  0  0  0
 29 30  2  0  0  0  0
 29 48  1  0  0  0  0
 30 31  1  0  0  0  0
 30 49  1  0  0  0  0
 31 32  1  0  0  0  0
 32 50  1  0  0  0  0
M  END
$$$$
