CHEMBL475510
 OpenBabel04072215383D

 48 50  0  0  0  0  0  0  0  0999 V2000
    5.3499    0.5460   -0.0545 C   0  0  0  0  0  0  0  0  0  0  0  0
    4.0741   -0.2850   -0.3190 C   0  0  0  0  0  0  0  0  0  0  0  0
    2.9270    0.6577   -0.7391 C   0  0  0  0  0  0  0  0  0  0  0  0
    4.3802   -1.2154   -1.5117 C   0  0  0  0  0  0  0  0  0  0  0  0
    3.6468   -1.0289    0.9556 C   0  0  0  0  0  0  0  0  0  0  0  0
    3.4612   -0.3010    2.1455 C   0  0  0  0  0  0  0  0  0  0  0  0
    3.0432   -0.9227    3.3150 C   0  0  0  0  0  0  0  0  0  0  0  0
    2.7920   -2.2887    3.3132 C   0  0  0  0  0  0  0  0  0  0  0  0
    2.9627   -3.0549    2.1546 C   0  0  0  0  0  0  0  0  0  0  0  0
    2.7033   -4.4442    2.1050 N   0  0  0  0  0  0  0  0  0  0  0  0
    2.4898   -5.2540    3.2060 C   0  0  0  0  0  0  0  0  0  0  0  0
    2.5912   -4.8420    4.3549 O   0  0  0  0  0  0  0  0  0  0  0  0
    2.1498   -6.6676    2.9060 C   0  0  0  0  0  0  0  0  0  0  0  0
    1.9874   -7.0083    1.6133 N   0  0  0  0  0  0  0  0  0  0  0  0
    1.4959   -8.5809    1.5124 S   0  0  0  0  0  0  0  0  0  0  0  0
    1.5043   -8.8866    3.1873 C   0  0  0  0  0  0  0  0  0  0  0  0
    1.9306   -7.7590    3.8583 C   0  0  0  0  0  0  0  0  0  0  0  0
    2.0687   -7.8036    5.2177 N   0  0  0  0  0  0  0  0  0  0  0  0
    2.8782   -6.8665    5.9752 C   0  0  0  0  0  0  0  0  0  0  0  0
    3.2830   -7.4232    7.3101 C   0  0  0  0  0  0  0  0  0  0  0  0
    4.3740   -8.2843    7.4282 C   0  0  0  0  0  0  0  0  0  0  0  0
    4.7508   -8.6984    8.6936 C   0  0  0  0  0  0  0  0  0  0  0  0
    4.1162   -8.3226    9.8269 N   0  0  0  0  0  0  0  0  0  0  0  0
    3.0584   -7.4961    9.6888 C   0  0  0  0  0  0  0  0  0  0  0  0
    2.6057   -7.0301    8.4674 C   0  0  0  0  0  0  0  0  0  0  0  0
    3.3877   -2.4157    0.9840 C   0  0  0  0  0  0  0  0  0  0  0  0
    5.6764    1.0671   -0.9614 H   0  0  0  0  0  0  0  0  0  0  0  0
    6.1744   -0.0949    0.2802 H   0  0  0  0  0  0  0  0  0  0  0  0
    5.2009    1.3137    0.7127 H   0  0  0  0  0  0  0  0  0  0  0  0
    3.1699    1.1901   -1.6651 H   0  0  0  0  0  0  0  0  0  0  0  0
    2.7169    1.4155    0.0250 H   0  0  0  0  0  0  0  0  0  0  0  0
    1.9991    0.0977   -0.9062 H   0  0  0  0  0  0  0  0  0  0  0  0
    4.6591   -0.6371   -2.4002 H   0  0  0  0  0  0  0  0  0  0  0  0
    3.5111   -1.8231   -1.7884 H   0  0  0  0  0  0  0  0  0  0  0  0
    5.2126   -1.8924   -1.2867 H   0  0  0  0  0  0  0  0  0  0  0  0
    3.6243    0.7736    2.1776 H   0  0  0  0  0  0  0  0  0  0  0  0
    2.8997   -0.3486    4.2250 H   0  0  0  0  0  0  0  0  0  0  0  0
    2.4341   -2.7109    4.2451 H   0  0  0  0  0  0  0  0  0  0  0  0
    2.6964   -4.9160    1.2046 H   0  0  0  0  0  0  0  0  0  0  0  0
    1.2293   -9.8525    3.5851 H   0  0  0  0  0  0  0  0  0  0  0  0
    1.8107   -8.6345    5.7442 H   0  0  0  0  0  0  0  0  0  0  0  0
    2.3027   -5.9587    6.1749 H   0  0  0  0  0  0  0  0  0  0  0  0
    3.7970   -6.6098    5.4301 H   0  0  0  0  0  0  0  0  0  0  0  0
    4.9391   -8.5993    6.5568 H   0  0  0  0  0  0  0  0  0  0  0  0
    5.6068   -9.3476    8.8377 H   0  0  0  0  0  0  0  0  0  0  0  0
    2.5749   -7.1962   10.6129 H   0  0  0  0  0  0  0  0  0  0  0  0
    1.7606   -6.3457    8.4232 H   0  0  0  0  0  0  0  0  0  0  0  0
    3.5247   -3.0189    0.0917 H   0  0  0  0  0  0  0  0  0  0  0  0
  1  2  1  0  0  0  0
  1 27  1  0  0  0  0
  1 28  1  0  0  0  0
  1 29  1  0  0  0  0
  2  3  1  0  0  0  0
  2  4  1  0  0  0  0
  2  5  1  0  0  0  0
  3 30  1  0  0  0  0
  3 31  1  0  0  0  0
  3 32  1  0  0  0  0
  4 33  1  0  0  0  0
  4 34  1  0  0  0  0
  4 35  1  0  0  0  0
  5  6  1  0  0  0  0
  5 26  2  0  0  0  0
  6  7  2  0  0  0  0
  6 36  1  0  0  0  0
  7  8  1  0  0  0  0
  7 37  1  0  0  0  0
  8  9  2  0  0  0  0
  8 38  1  0  0  0  0
  9 10  1  0  0  0  0
  9 26  1  0  0  0  0
 10 11  1  0  0  0  0
 10 39  1  0  0  0  0
 11 12  2  0  0  0  0
 11 13  1  0  0  0  0
 13 14  2  0  0  0  0
 13 17  1  0  0  0  0
 14 15  1  0  0  0  0
 15 16  1  0  0  0  0
 16 17  2  0  0  0  0
 16 40  1  0  0  0  0
 17 18  1  0  0  0  0
 18 19  1  0  0  0  0
 18 41  1  0  0  0  0
 19 20  1  0  0  0  0
 19 42  1  0  0  0  0
 19 43  1  0  0  0  0
 20 21  1  0  0  0  0
 20 25  2  0  0  0  0
 21 22  2  0  0  0  0
 21 44  1  0  0  0  0
 22 23  1  0  0  0  0
 22 45  1  0  0  0  0
 23 24  2  0  0  0  0
 24 25  1  0  0  0  0
 24 46  1  0  0  0  0
 25 47  1  0  0  0  0
 26 48  1  0  0  0  0
M  END
$$$$
