CHEMBL4577116
 OpenBabel04072215383D

 50 53  0  0  0  0  0  0  0  0999 V2000
    1.2907    0.5905   -0.6136 O   0  0  0  0  0  0  0  0  0  0  0  0
    2.3684    0.1937   -0.1830 C   0  0  0  0  0  0  0  0  0  0  0  0
    2.9183   -1.0409   -0.4986 N   0  0  0  0  0  0  0  0  0  0  0  0
    2.3164   -1.9728   -1.3755 C   0  0  0  0  0  0  0  0  0  0  0  0
    1.3423   -1.6098   -2.3092 C   0  0  0  0  0  0  0  0  0  0  0  0
    0.6714   -2.5727   -3.0651 C   0  0  0  0  0  0  0  0  0  0  0  0
    0.9569   -3.9292   -2.8935 C   0  0  0  0  0  0  0  0  0  0  0  0
    0.1161   -5.0205   -3.4891 C   0  0  0  0  0  0  0  0  0  0  0  0
    0.5025   -6.1837   -3.4253 O   0  0  0  0  0  0  0  0  0  0  0  0
   -1.1291   -4.6258   -3.9750 N   0  0  0  0  0  0  0  0  0  0  0  0
   -2.1955   -5.4446   -3.7050 N   0  0  0  0  0  0  0  0  0  0  0  0
   -3.3656   -4.8969   -3.8377 C   0  0  0  0  0  0  0  0  0  0  0  0
   -3.7634   -3.5877   -4.5431 C   0  0  0  0  0  0  0  0  0  0  0  0
   -3.1400   -3.0384   -5.4166 O   0  0  0  0  0  0  0  0  0  0  0  0
   -4.8708   -3.1351   -3.8512 N   0  0  0  0  0  0  0  0  0  0  0  0
   -5.1146   -3.9662   -2.7608 C   0  0  0  0  0  0  0  0  0  0  0  0
   -5.7105   -3.6080   -1.5711 C   0  0  0  0  0  0  0  0  0  0  0  0
   -5.6229   -4.5255   -0.5123 C   0  0  0  0  0  0  0  0  0  0  0  0
   -5.0300   -5.7943   -0.6894 C   0  0  0  0  0  0  0  0  0  0  0  0
   -4.9450   -6.8843    0.6389 Cl  0  0  0  0  0  0  0  0  0  0  0  0
   -4.4168   -6.1388   -1.8880 C   0  0  0  0  0  0  0  0  0  0  0  0
   -4.4284   -5.1759   -2.8760 C   0  0  0  0  0  0  0  0  0  0  0  0
    2.0061   -4.2883   -2.0319 C   0  0  0  0  0  0  0  0  0  0  0  0
    2.6910   -3.3151   -1.2880 C   0  0  0  0  0  0  0  0  0  0  0  0
    3.1720    0.9141    0.6887 N   0  0  0  0  0  0  0  0  0  0  0  0
    2.8735    2.1872    1.2381 C   0  0  0  0  0  0  0  0  0  0  0  0
    1.7102    2.9016    0.9519 C   0  0  0  0  0  0  0  0  0  0  0  0
    1.4814    4.1584    1.5142 C   0  0  0  0  0  0  0  0  0  0  0  0
    2.4049    4.7246    2.3924 C   0  0  0  0  0  0  0  0  0  0  0  0
    2.0195    6.2911    2.9992 Cl  0  0  0  0  0  0  0  0  0  0  0  0
    3.5676    4.0252    2.7274 C   0  0  0  0  0  0  0  0  0  0  0  0
    4.6005    4.5198    3.7050 C   0  0  0  0  0  0  0  0  0  0  0  0
    4.3628    5.7193    4.2929 F   0  0  0  0  0  0  0  0  0  0  0  0
    4.7696    3.6394    4.7350 F   0  0  0  0  0  0  0  0  0  0  0  0
    5.8299    4.6325    3.1247 F   0  0  0  0  0  0  0  0  0  0  0  0
    3.7932    2.7586    2.1268 C   0  0  0  0  0  0  0  0  0  0  0  0
    3.6334   -1.3936    0.1188 H   0  0  0  0  0  0  0  0  0  0  0  0
    1.0619   -0.5717   -2.4693 H   0  0  0  0  0  0  0  0  0  0  0  0
   -0.0806   -2.2113   -3.7581 H   0  0  0  0  0  0  0  0  0  0  0  0
   -1.3537   -3.6383   -3.9622 H   0  0  0  0  0  0  0  0  0  0  0  0
   -5.3018   -2.2441   -4.0366 H   0  0  0  0  0  0  0  0  0  0  0  0
   -6.0874   -2.6045   -1.3997 H   0  0  0  0  0  0  0  0  0  0  0  0
   -5.9604   -4.2291    0.4795 H   0  0  0  0  0  0  0  0  0  0  0  0
   -3.8458   -7.0536   -2.0062 H   0  0  0  0  0  0  0  0  0  0  0  0
    2.2600   -5.3393   -1.8968 H   0  0  0  0  0  0  0  0  0  0  0  0
    3.4746   -3.6383   -0.6076 H   0  0  0  0  0  0  0  0  0  0  0  0
    4.0689    0.5154    0.9250 H   0  0  0  0  0  0  0  0  0  0  0  0
    0.9448    2.5221    0.2837 H   0  0  0  0  0  0  0  0  0  0  0  0
    0.5672    4.6888    1.2538 H   0  0  0  0  0  0  0  0  0  0  0  0
    4.7065    2.2200    2.3815 H   0  0  0  0  0  0  0  0  0  0  0  0
  1  2  2  0  0  0  0
  2  3  1  0  0  0  0
  2 25  1  0  0  0  0
  3  4  1  0  0  0  0
  3 37  1  0  0  0  0
  4  5  1  0  0  0  0
  4 24  2  0  0  0  0
  5  6  2  0  0  0  0
  5 38  1  0  0  0  0
  6  7  1  0  0  0  0
  6 39  1  0  0  0  0
  7  8  1  0  0  0  0
  7 23  2  0  0  0  0
  8  9  2  0  0  0  0
  8 10  1  0  0  0  0
 10 11  1  0  0  0  0
 10 40  1  0  0  0  0
 11 12  2  0  0  0  0
 12 13  1  0  0  0  0
 12 22  1  0  0  0  0
 13 14  2  0  0  0  0
 13 15  1  0  0  0  0
 15 16  1  0  0  0  0
 15 41  1  0  0  0  0
 16 17  1  0  0  0  0
 16 22  2  0  0  0  0
 17 18  2  0  0  0  0
 17 42  1  0  0  0  0
 18 19  1  0  0  0  0
 18 43  1  0  0  0  0
 19 20  1  0  0  0  0
 19 21  2  0  0  0  0
 21 22  1  0  0  0  0
 21 44  1  0  0  0  0
 23 24  1  0  0  0  0
 23 45  1  0  0  0  0
 24 46  1  0  0  0  0
 25 26  1  0  0  0  0
 25 47  1  0  0  0  0
 26 27  1  0  0  0  0
 26 36  2  0  0  0  0
 27 28  2  0  0  0  0
 27 48  1  0  0  0  0
 28 29  1  0  0  0  0
 28 49  1  0  0  0  0
 29 30  1  0  0  0  0
 29 31  2  0  0  0  0
 31 32  1  0  0  0  0
 31 36  1  0  0  0  0
 32 33  1  0  0  0  0
 32 34  1  0  0  0  0
 32 35  1  0  0  0  0
 36 50  1  0  0  0  0
M  END
$$$$
