CHEMBL374259
 OpenBabel04072215373D

 67 71  0  0  0  0  0  0  0  0999 V2000
    0.3868   -4.5923    9.5497 C   0  0  0  0  0  0  0  0  0  0  0  0
    1.1604   -3.4934   10.0763 N   0  0  0  0  0  0  0  0  0  0  0  0
    1.9959   -2.8389    9.1873 C   0  0  0  0  0  0  0  0  0  0  0  0
    3.1323   -2.3682    9.7049 N   0  0  0  0  0  0  0  0  0  0  0  0
    3.8872   -1.5930    8.9060 C   0  0  0  0  0  0  0  0  0  0  0  0
    3.5463   -1.2569    7.6170 C   0  0  0  0  0  0  0  0  0  0  0  0
    2.3657   -1.7873    7.1469 C   0  0  0  0  0  0  0  0  0  0  0  0
    1.7258   -1.3878    5.8721 C   0  0  0  0  0  0  0  0  0  0  0  0
    0.3139   -1.4405    5.7948 C   0  0  0  0  0  0  0  0  0  0  0  0
   -0.3838   -1.0482    4.6575 C   0  0  0  0  0  0  0  0  0  0  0  0
    0.3439   -0.5728    3.5954 C   0  0  0  0  0  0  0  0  0  0  0  0
    1.6858   -0.4845    3.6054 N   0  0  0  0  0  0  0  0  0  0  0  0
    2.3630   -0.9173    4.7141 C   0  0  0  0  0  0  0  0  0  0  0  0
    3.7630   -0.9160    4.6257 O   0  0  0  0  0  0  0  0  0  0  0  0
    4.3002   -1.0019    3.3482 C   0  0  0  0  0  0  0  0  0  0  0  0
    3.7455   -1.8559    2.3905 C   0  0  0  0  0  0  0  0  0  0  0  0
    4.1642   -1.8230    1.0628 C   0  0  0  0  0  0  0  0  0  0  0  0
    3.4231   -2.6276    0.0506 C   0  0  0  0  0  0  0  0  0  0  0  0
    4.0383   -3.1480   -0.8769 O   0  0  0  0  0  0  0  0  0  0  0  0
    2.0533   -2.6461    0.2451 N   0  0  0  0  0  0  0  0  0  0  0  0
    1.1856   -3.3667   -0.6069 C   0  0  0  0  0  0  0  0  0  0  0  0
    0.6000   -2.6528   -1.6597 C   0  0  0  0  0  0  0  0  0  0  0  0
   -0.2606   -3.3021   -2.5620 C   0  0  0  0  0  0  0  0  0  0  0  0
   -0.8769   -2.5475   -3.7075 C   0  0  0  0  0  0  0  0  0  0  0  0
   -0.5207   -1.2319   -3.7526 F   0  0  0  0  0  0  0  0  0  0  0  0
   -0.5405   -3.0656   -4.9203 F   0  0  0  0  0  0  0  0  0  0  0  0
   -2.2396   -2.5571   -3.6628 F   0  0  0  0  0  0  0  0  0  0  0  0
   -0.5232   -4.6643   -2.3678 C   0  0  0  0  0  0  0  0  0  0  0  0
    0.0485   -5.3607   -1.2971 C   0  0  0  0  0  0  0  0  0  0  0  0
    0.8981   -4.7344   -0.3682 C   0  0  0  0  0  0  0  0  0  0  0  0
    1.3500   -5.4152    0.7565 N   0  0  0  0  0  0  0  0  0  0  0  0
    1.6733   -6.8429    0.7371 C   0  0  0  0  0  0  0  0  0  0  0  0
    0.7164   -7.6225    1.6417 C   0  0  0  0  0  0  0  0  0  0  0  0
    0.6497   -7.0157    3.0429 C   0  0  0  0  0  0  0  0  0  0  0  0
    0.2967   -5.5371    2.9683 C   0  0  0  0  0  0  0  0  0  0  0  0
    1.2742   -4.7845    2.0739 C   0  0  0  0  0  0  0  0  0  0  0  0
    5.2546   -1.0248    0.6992 C   0  0  0  0  0  0  0  0  0  0  0  0
    5.8838   -0.2368    1.6756 C   0  0  0  0  0  0  0  0  0  0  0  0
    5.3952   -0.2216    2.9879 C   0  0  0  0  0  0  0  0  0  0  0  0
    6.0059    0.5611    3.8950 F   0  0  0  0  0  0  0  0  0  0  0  0
    1.6118   -2.6117    7.9254 N   0  0  0  0  0  0  0  0  0  0  0  0
   -0.1888   -5.0441   10.3651 H   0  0  0  0  0  0  0  0  0  0  0  0
    1.0284   -5.3728    9.1274 H   0  0  0  0  0  0  0  0  0  0  0  0
   -0.3323   -4.2614    8.7930 H   0  0  0  0  0  0  0  0  0  0  0  0
    1.7074   -3.6935   10.9049 H   0  0  0  0  0  0  0  0  0  0  0  0
    4.7886   -1.1990    9.3662 H   0  0  0  0  0  0  0  0  0  0  0  0
    4.1550   -0.5634    7.0543 H   0  0  0  0  0  0  0  0  0  0  0  0
   -0.2639   -1.7848    6.6531 H   0  0  0  0  0  0  0  0  0  0  0  0
   -1.4655   -1.1009    4.6203 H   0  0  0  0  0  0  0  0  0  0  0  0
   -0.1403   -0.2495    2.6793 H   0  0  0  0  0  0  0  0  0  0  0  0
    2.9313   -2.5157    2.6827 H   0  0  0  0  0  0  0  0  0  0  0  0
    1.6532   -1.8751    0.7529 H   0  0  0  0  0  0  0  0  0  0  0  0
    0.8402   -1.6073   -1.8013 H   0  0  0  0  0  0  0  0  0  0  0  0
   -1.1885   -5.1897   -3.0515 H   0  0  0  0  0  0  0  0  0  0  0  0
   -0.2221   -6.4037   -1.1715 H   0  0  0  0  0  0  0  0  0  0  0  0
    2.6992   -6.9701    1.1053 H   0  0  0  0  0  0  0  0  0  0  0  0
    1.6657   -7.2685   -0.2732 H   0  0  0  0  0  0  0  0  0  0  0  0
    1.0388   -8.6673    1.7116 H   0  0  0  0  0  0  0  0  0  0  0  0
   -0.2884   -7.6225    1.2020 H   0  0  0  0  0  0  0  0  0  0  0  0
    1.6173   -7.1358    3.5454 H   0  0  0  0  0  0  0  0  0  0  0  0
   -0.0971   -7.5426    3.6462 H   0  0  0  0  0  0  0  0  0  0  0  0
    0.3047   -5.0946    3.9705 H   0  0  0  0  0  0  0  0  0  0  0  0
   -0.7202   -5.4229    2.5719 H   0  0  0  0  0  0  0  0  0  0  0  0
    2.2734   -4.7800    2.5242 H   0  0  0  0  0  0  0  0  0  0  0  0
    0.9192   -3.7509    2.0403 H   0  0  0  0  0  0  0  0  0  0  0  0
    5.5979   -1.0071   -0.3317 H   0  0  0  0  0  0  0  0  0  0  0  0
    6.7351    0.3801    1.4044 H   0  0  0  0  0  0  0  0  0  0  0  0
  1  2  1  0  0  0  0
  1 42  1  0  0  0  0
  1 43  1  0  0  0  0
  1 44  1  0  0  0  0
  2  3  1  0  0  0  0
  2 45  1  0  0  0  0
  3  4  1  0  0  0  0
  3 41  2  0  0  0  0
  4  5  2  0  0  0  0
  5  6  1  0  0  0  0
  5 46  1  0  0  0  0
  6  7  2  0  0  0  0
  6 47  1  0  0  0  0
  7  8  1  0  0  0  0
  7 41  1  0  0  0  0
  8  9  1  0  0  0  0
  8 13  2  0  0  0  0
  9 10  2  0  0  0  0
  9 48  1  0  0  0  0
 10 11  1  0  0  0  0
 10 49  1  0  0  0  0
 11 12  2  0  0  0  0
 11 50  1  0  0  0  0
 12 13  1  0  0  0  0
 13 14  1  0  0  0  0
 14 15  1  0  0  0  0
 15 16  1  0  0  0  0
 15 39  2  0  0  0  0
 16 17  2  0  0  0  0
 16 51  1  0  0  0  0
 17 18  1  0  0  0  0
 17 37  1  0  0  0  0
 18 19  2  0  0  0  0
 18 20  1  0  0  0  0
 20 21  1  0  0  0  0
 20 52  1  0  0  0  0
 21 22  1  0  0  0  0
 21 30  2  0  0  0  0
 22 23  2  0  0  0  0
 22 53  1  0  0  0  0
 23 24  1  0  0  0  0
 23 28  1  0  0  0  0
 24 25  1  0  0  0  0
 24 26  1  0  0  0  0
 24 27  1  0  0  0  0
 28 29  2  0  0  0  0
 28 54  1  0  0  0  0
 29 30  1  0  0  0  0
 29 55  1  0  0  0  0
 30 31  1  0  0  0  0
 31 32  1  0  0  0  0
 31 36  1  0  0  0  0
 32 33  1  0  0  0  0
 32 56  1  0  0  0  0
 32 57  1  0  0  0  0
 33 34  1  0  0  0  0
 33 58  1  0  0  0  0
 33 59  1  0  0  0  0
 34 35  1  0  0  0  0
 34 60  1  0  0  0  0
 34 61  1  0  0  0  0
 35 36  1  0  0  0  0
 35 62  1  0  0  0  0
 35 63  1  0  0  0  0
 36 64  1  0  0  0  0
 36 65  1  0  0  0  0
 37 38  2  0  0  0  0
 37 66  1  0  0  0  0
 38 39  1  0  0  0  0
 38 67  1  0  0  0  0
 39 40  1  0  0  0  0
M  END
$$$$
