CHEMBL3922418
 OpenBabel04072215373D

 52 55  0  0  0  0  0  0  0  0999 V2000
    2.5508    1.6141    0.0670 C   0  0  0  0  0  0  0  0  0  0  0  0
    2.3460    0.1200   -0.1544 C   0  0  0  0  0  0  0  0  0  0  0  0
    2.9219   -0.3313   -1.4445 N   0  0  0  0  0  0  0  0  0  0  0  0
    1.9749   -0.5244   -2.4860 C   0  0  0  0  0  0  0  0  0  0  0  0
    2.1508   -1.5316   -3.4427 C   0  0  0  0  0  0  0  0  0  0  0  0
    1.3038   -1.6208   -4.5536 C   0  0  0  0  0  0  0  0  0  0  0  0
    0.2426   -0.7424   -4.7248 C   0  0  0  0  0  0  0  0  0  0  0  0
   -0.5339   -0.8170   -5.8215 N   0  0  0  0  0  0  0  0  0  0  0  0
   -1.5703    0.0585   -5.8826 C   0  0  0  0  0  0  0  0  0  0  0  0
   -1.8494    0.9738   -4.8785 C   0  0  0  0  0  0  0  0  0  0  0  0
   -3.0258    1.8154   -4.8954 C   0  0  0  0  0  0  0  0  0  0  0  0
   -4.0914    1.9184   -5.8239 C   0  0  0  0  0  0  0  0  0  0  0  0
   -5.0370    2.7793   -5.4364 N   0  0  0  0  0  0  0  0  0  0  0  0
   -4.5860    3.2279   -4.2515 N   0  0  0  0  0  0  0  0  0  0  0  0
   -5.3837    4.1456   -3.4737 C   0  0  0  0  0  0  0  0  0  0  0  0
   -3.3810    2.6976   -3.8937 C   0  0  0  0  0  0  0  0  0  0  0  0
   -1.0488    1.0717   -3.7958 N   0  0  0  0  0  0  0  0  0  0  0  0
   -0.0011    0.2254   -3.7261 C   0  0  0  0  0  0  0  0  0  0  0  0
    0.8601    0.3158   -2.6434 C   0  0  0  0  0  0  0  0  0  0  0  0
    4.3471   -0.3971   -1.5628 C   0  0  0  0  0  0  0  0  0  0  0  0
    5.1304   -0.7534   -0.4426 C   0  0  0  0  0  0  0  0  0  0  0  0
    6.5268   -0.8419   -0.4878 C   0  0  0  0  0  0  0  0  0  0  0  0
    7.1202   -1.0990    0.7183 O   0  0  0  0  0  0  0  0  0  0  0  0
    8.5415   -1.0395    0.7639 C   0  0  0  0  0  0  0  0  0  0  0  0
    7.1808   -0.6661   -1.6987 C   0  0  0  0  0  0  0  0  0  0  0  0
    6.4586   -0.3183   -2.8443 C   0  0  0  0  0  0  0  0  0  0  0  0
    7.2541   -0.0816   -3.9415 O   0  0  0  0  0  0  0  0  0  0  0  0
    6.8352   -0.7037   -5.1560 C   0  0  0  0  0  0  0  0  0  0  0  0
    5.0642   -0.1049   -2.7624 C   0  0  0  0  0  0  0  0  0  0  0  0
    4.2995    0.7746   -4.0611 Cl  0  0  0  0  0  0  0  0  0  0  0  0
    1.9215    1.9589    0.8939 H   0  0  0  0  0  0  0  0  0  0  0  0
    2.2948    2.2013   -0.8201 H   0  0  0  0  0  0  0  0  0  0  0  0
    3.5913    1.8369    0.3204 H   0  0  0  0  0  0  0  0  0  0  0  0
    1.2725   -0.1080   -0.1039 H   0  0  0  0  0  0  0  0  0  0  0  0
    2.7495   -0.4392    0.6955 H   0  0  0  0  0  0  0  0  0  0  0  0
    2.9734   -2.2367   -3.3510 H   0  0  0  0  0  0  0  0  0  0  0  0
    1.4874   -2.3797   -5.3101 H   0  0  0  0  0  0  0  0  0  0  0  0
   -2.1811   -0.0254   -6.7742 H   0  0  0  0  0  0  0  0  0  0  0  0
   -4.2291    1.3907   -6.7576 H   0  0  0  0  0  0  0  0  0  0  0  0
   -6.3025    4.3839   -4.0155 H   0  0  0  0  0  0  0  0  0  0  0  0
   -4.8003    5.0543   -3.3079 H   0  0  0  0  0  0  0  0  0  0  0  0
   -5.6264    3.6663   -2.5216 H   0  0  0  0  0  0  0  0  0  0  0  0
   -2.8942    2.9635   -2.9653 H   0  0  0  0  0  0  0  0  0  0  0  0
    0.6606    1.1148   -1.9373 H   0  0  0  0  0  0  0  0  0  0  0  0
    4.6720   -0.9658    0.5182 H   0  0  0  0  0  0  0  0  0  0  0  0
    8.8466   -1.1098    1.8127 H   0  0  0  0  0  0  0  0  0  0  0  0
    8.9239   -0.0897    0.3741 H   0  0  0  0  0  0  0  0  0  0  0  0
    8.9747   -1.8900    0.2289 H   0  0  0  0  0  0  0  0  0  0  0  0
    8.2585   -0.7617   -1.7821 H   0  0  0  0  0  0  0  0  0  0  0  0
    7.7340   -0.9374   -5.7367 H   0  0  0  0  0  0  0  0  0  0  0  0
    6.2509   -0.0036   -5.7587 H   0  0  0  0  0  0  0  0  0  0  0  0
    6.2860   -1.6379   -4.9960 H   0  0  0  0  0  0  0  0  0  0  0  0
  1  2  1  0  0  0  0
  1 31  1  0  0  0  0
  1 32  1  0  0  0  0
  1 33  1  0  0  0  0
  2  3  1  0  0  0  0
  2 34  1  0  0  0  0
  2 35  1  0  0  0  0
  3  4  1  0  0  0  0
  3 20  1  0  0  0  0
  4  5  1  0  0  0  0
  4 19  2  0  0  0  0
  5  6  2  0  0  0  0
  5 36  1  0  0  0  0
  6  7  1  0  0  0  0
  6 37  1  0  0  0  0
  7  8  1  0  0  0  0
  7 18  2  0  0  0  0
  8  9  2  0  0  0  0
  9 10  1  0  0  0  0
  9 38  1  0  0  0  0
 10 11  1  0  0  0  0
 10 17  2  0  0  0  0
 11 12  1  0  0  0  0
 11 16  2  0  0  0  0
 12 13  2  0  0  0  0
 12 39  1  0  0  0  0
 13 14  1  0  0  0  0
 14 15  1  0  0  0  0
 14 16  1  0  0  0  0
 15 40  1  0  0  0  0
 15 41  1  0  0  0  0
 15 42  1  0  0  0  0
 16 43  1  0  0  0  0
 17 18  1  0  0  0  0
 18 19  1  0  0  0  0
 19 44  1  0  0  0  0
 20 21  1  0  0  0  0
 20 29  2  0  0  0  0
 21 22  2  0  0  0  0
 21 45  1  0  0  0  0
 22 23  1  0  0  0  0
 22 25  1  0  0  0  0
 23 24  1  0  0  0  0
 24 46  1  0  0  0  0
 24 47  1  0  0  0  0
 24 48  1  0  0  0  0
 25 26  2  0  0  0  0
 25 49  1  0  0  0  0
 26 27  1  0  0  0  0
 26 29  1  0  0  0  0
 27 28  1  0  0  0  0
 28 50  1  0  0  0  0
 28 51  1  0  0  0  0
 28 52  1  0  0  0  0
 29 30  1  0  0  0  0
M  END
$$$$
