CHEMBL193920
 OpenBabel04072215363D

 47 50  0  0  0  0  0  0  0  0999 V2000
    2.8032   -3.5801    0.4003 C   0  0  0  0  0  0  0  0  0  0  0  0
    1.4330   -3.9571   -0.0714 C   0  0  0  0  0  0  0  0  0  0  0  0
    1.1369   -5.2565   -0.4780 C   0  0  0  0  0  0  0  0  0  0  0  0
   -0.1601   -5.5968   -0.8627 C   0  0  0  0  0  0  0  0  0  0  0  0
   -1.1733   -4.6322   -0.8284 C   0  0  0  0  0  0  0  0  0  0  0  0
   -0.9021   -3.3156   -0.4512 C   0  0  0  0  0  0  0  0  0  0  0  0
   -1.8711   -2.3101   -0.3635 N   0  0  0  0  0  0  0  0  0  0  0  0
   -3.2347   -2.3962   -0.3562 C   0  0  0  0  0  0  0  0  0  0  0  0
   -3.8844   -0.7505   -0.3523 S   0  0  0  0  0  0  0  0  0  0  0  0
   -3.9344   -3.4896   -0.3434 N   0  0  0  0  0  0  0  0  0  0  0  0
   -5.3332   -3.5748   -0.3304 C   0  0  0  0  0  0  0  0  0  0  0  0
   -6.1458   -2.7990   -1.1450 C   0  0  0  0  0  0  0  0  0  0  0  0
   -7.5318   -2.8174   -1.0192 C   0  0  0  0  0  0  0  0  0  0  0  0
   -8.1718   -3.7899   -0.2508 C   0  0  0  0  0  0  0  0  0  0  0  0
   -9.6468   -3.8384   -0.1983 C   0  0  0  0  0  0  0  0  0  0  0  0
  -10.4249   -3.5725   -1.3324 C   0  0  0  0  0  0  0  0  0  0  0  0
  -10.0704   -3.2437   -2.7553 C   0  0  0  0  0  0  0  0  0  0  0  0
  -12.1013   -3.6166   -0.9888 S   0  0  0  0  0  0  0  0  0  0  0  0
  -11.8363   -4.0237    0.6290 C   0  0  0  0  0  0  0  0  0  0  0  0
  -12.9009   -4.2087    1.4260 N   0  0  0  0  0  0  0  0  0  0  0  0
  -12.5559   -4.5189    2.6695 C   0  0  0  0  0  0  0  0  0  0  0  0
  -11.3170   -4.6373    3.1568 N   0  0  0  0  0  0  0  0  0  0  0  0
  -10.2704   -4.4280    2.3348 C   0  0  0  0  0  0  0  0  0  0  0  0
   -9.0335   -4.5382    2.9558 N   0  0  0  0  0  0  0  0  0  0  0  0
  -10.4942   -4.1149    0.9728 C   0  0  0  0  0  0  0  0  0  0  0  0
   -7.3582   -4.6938    0.4446 C   0  0  0  0  0  0  0  0  0  0  0  0
   -5.9579   -4.5489    0.4513 C   0  0  0  0  0  0  0  0  0  0  0  0
    0.4111   -2.9975   -0.0688 C   0  0  0  0  0  0  0  0  0  0  0  0
    3.5127   -4.4033    0.2720 H   0  0  0  0  0  0  0  0  0  0  0  0
    2.7683   -3.3238    1.4644 H   0  0  0  0  0  0  0  0  0  0  0  0
    3.1780   -2.7205   -0.1641 H   0  0  0  0  0  0  0  0  0  0  0  0
    1.9069   -6.0231   -0.4935 H   0  0  0  0  0  0  0  0  0  0  0  0
   -0.3961   -6.6088   -1.1651 H   0  0  0  0  0  0  0  0  0  0  0  0
   -2.1746   -4.9353   -1.1244 H   0  0  0  0  0  0  0  0  0  0  0  0
   -1.5082   -1.3684   -0.3211 H   0  0  0  0  0  0  0  0  0  0  0  0
   -4.1426   -0.7279   -1.6690 H   0  0  0  0  0  0  0  0  0  0  0  0
   -5.7199   -2.1248   -1.8803 H   0  0  0  0  0  0  0  0  0  0  0  0
   -8.0901   -2.0640   -1.5677 H   0  0  0  0  0  0  0  0  0  0  0  0
   -9.0321   -3.4675   -3.0070 H   0  0  0  0  0  0  0  0  0  0  0  0
  -10.2473   -2.1780   -2.9472 H   0  0  0  0  0  0  0  0  0  0  0  0
  -10.6815   -3.8210   -3.4570 H   0  0  0  0  0  0  0  0  0  0  0  0
  -13.3681   -4.6932    3.3669 H   0  0  0  0  0  0  0  0  0  0  0  0
   -9.1596   -4.5803    3.9617 H   0  0  0  0  0  0  0  0  0  0  0  0
   -8.3468   -3.8666    2.6376 H   0  0  0  0  0  0  0  0  0  0  0  0
   -7.7913   -5.5174    1.0084 H   0  0  0  0  0  0  0  0  0  0  0  0
   -5.3506   -5.2118    1.0672 H   0  0  0  0  0  0  0  0  0  0  0  0
    0.6450   -1.9872    0.2621 H   0  0  0  0  0  0  0  0  0  0  0  0
  1  2  1  0  0  0  0
  1 29  1  0  0  0  0
  1 30  1  0  0  0  0
  1 31  1  0  0  0  0
  2  3  1  0  0  0  0
  2 28  2  0  0  0  0
  3  4  2  0  0  0  0
  3 32  1  0  0  0  0
  4  5  1  0  0  0  0
  4 33  1  0  0  0  0
  5  6  2  0  0  0  0
  5 34  1  0  0  0  0
  6  7  1  0  0  0  0
  6 28  1  0  0  0  0
  7  8  1  0  0  0  0
  7 35  1  0  0  0  0
  8  9  1  0  0  0  0
  8 10  2  0  0  0  0
  9 36  1  0  0  0  0
 10 11  1  0  0  0  0
 11 12  1  0  0  0  0
 11 27  2  0  0  0  0
 12 13  2  0  0  0  0
 12 37  1  0  0  0  0
 13 14  1  0  0  0  0
 13 38  1  0  0  0  0
 14 15  1  0  0  0  0
 14 26  2  0  0  0  0
 15 16  2  0  0  0  0
 15 25  1  0  0  0  0
 16 17  1  0  0  0  0
 16 18  1  0  0  0  0
 17 39  1  0  0  0  0
 17 40  1  0  0  0  0
 17 41  1  0  0  0  0
 18 19  1  0  0  0  0
 19 20  1  0  0  0  0
 19 25  2  0  0  0  0
 20 21  2  0  0  0  0
 21 22  1  0  0  0  0
 21 42  1  0  0  0  0
 22 23  2  0  0  0  0
 23 24  1  0  0  0  0
 23 25  1  0  0  0  0
 24 43  1  0  0  0  0
 24 44  1  0  0  0  0
 26 27  1  0  0  0  0
 26 45  1  0  0  0  0
 27 46  1  0  0  0  0
 28 47  1  0  0  0  0
M  END
$$$$
