CHEMBL189851
 OpenBabel04072215363D

 73 76  0  0  0  0  0  0  0  0999 V2000
    1.0471   -0.0203   -2.1802 C   0  0  0  0  0  0  0  0  0  0  0  0
    2.5610   -0.0072   -2.2991 C   0  0  0  0  0  0  0  0  0  0  0  0
    3.1712   -1.2766   -1.9455 N   0  0  0  0  0  0  0  0  0  0  0  0
    4.5515   -1.3609   -1.9128 C   0  0  0  0  0  0  0  0  0  0  0  0
    5.2928   -0.4131   -2.1406 O   0  0  0  0  0  0  0  0  0  0  0  0
    4.9659   -2.6518   -1.6307 N   0  0  0  0  0  0  0  0  0  0  0  0
    6.3515   -2.9048   -1.5964 C   0  0  0  0  0  0  0  0  0  0  0  0
    6.8444   -3.4518   -2.7390 N   0  0  0  0  0  0  0  0  0  0  0  0
    8.1516   -3.6937   -2.8560 C   0  0  0  0  0  0  0  0  0  0  0  0
    8.6381   -4.1506   -4.0065 N   0  0  0  0  0  0  0  0  0  0  0  0
    9.9402   -4.4389   -4.0907 C   0  0  0  0  0  0  0  0  0  0  0  0
   10.5095   -4.8583   -5.2724 N   0  0  0  0  0  0  0  0  0  0  0  0
    9.7561   -4.7010   -6.4984 C   0  0  0  0  0  0  0  0  0  0  0  0
   10.7318   -4.7901   -7.6784 C   0  0  0  0  0  0  0  0  0  0  0  0
   10.0279   -4.5075   -9.0128 C   0  0  0  0  0  0  0  0  0  0  0  0
   10.9357   -4.5042  -10.1726 N   0  0  0  0  0  0  0  0  0  0  0  0
   11.5997   -5.8014  -10.4003 C   0  0  0  0  0  0  0  0  0  0  0  0
   12.5132   -5.7792  -11.6499 C   0  0  0  0  0  0  0  0  0  0  0  0
   11.8508   -5.3686  -12.9021 N   0  0  0  0  0  0  0  0  0  0  0  0
   10.9837   -6.4200  -13.4251 C   0  0  0  0  0  0  0  0  0  0  0  0
   11.1117   -4.1127  -12.6620 C   0  0  0  0  0  0  0  0  0  0  0  0
   10.2123   -4.1044  -11.3997 C   0  0  0  0  0  0  0  0  0  0  0  0
   10.7993   -4.3295   -3.0689 N   0  0  0  0  0  0  0  0  0  0  0  0
   10.3155   -3.8006   -1.9419 C   0  0  0  0  0  0  0  0  0  0  0  0
    8.9934   -3.4669   -1.7698 C   0  0  0  0  0  0  0  0  0  0  0  0
    8.4781   -2.9575   -0.5699 C   0  0  0  0  0  0  0  0  0  0  0  0
    7.1180   -2.6613   -0.4375 C   0  0  0  0  0  0  0  0  0  0  0  0
    6.5908   -2.2672    0.8977 C   0  0  0  0  0  0  0  0  0  0  0  0
    7.3704   -1.5131    1.8024 C   0  0  0  0  0  0  0  0  0  0  0  0
    6.9499   -1.2748    3.1169 C   0  0  0  0  0  0  0  0  0  0  0  0
    7.6657   -0.6174    4.0810 O   0  0  0  0  0  0  0  0  0  0  0  0
    8.9844   -0.2028    3.7437 C   0  0  0  0  0  0  0  0  0  0  0  0
    5.7035   -1.7424    3.5364 C   0  0  0  0  0  0  0  0  0  0  0  0
    4.8939   -2.4593    2.6619 C   0  0  0  0  0  0  0  0  0  0  0  0
    3.6548   -2.9712    2.9358 O   0  0  0  0  0  0  0  0  0  0  0  0
    3.1612   -2.7808    4.2546 C   0  0  0  0  0  0  0  0  0  0  0  0
    5.3515   -2.7301    1.3687 C   0  0  0  0  0  0  0  0  0  0  0  0
    0.6341    0.9290   -2.5383 H   0  0  0  0  0  0  0  0  0  0  0  0
    0.7384   -0.1481   -1.1371 H   0  0  0  0  0  0  0  0  0  0  0  0
    0.6032   -0.8295   -2.7656 H   0  0  0  0  0  0  0  0  0  0  0  0
    2.9799    0.7740   -1.6549 H   0  0  0  0  0  0  0  0  0  0  0  0
    2.8501    0.2192   -3.3304 H   0  0  0  0  0  0  0  0  0  0  0  0
    2.7210   -1.8202   -1.2216 H   0  0  0  0  0  0  0  0  0  0  0  0
    4.5089   -3.2668   -2.2937 H   0  0  0  0  0  0  0  0  0  0  0  0
   10.9756   -5.7506   -5.1197 H   0  0  0  0  0  0  0  0  0  0  0  0
    9.2688   -3.7154   -6.5225 H   0  0  0  0  0  0  0  0  0  0  0  0
    8.9825   -5.4718   -6.5775 H   0  0  0  0  0  0  0  0  0  0  0  0
   11.1828   -5.7896   -7.6768 H   0  0  0  0  0  0  0  0  0  0  0  0
   11.5489   -4.0725   -7.5355 H   0  0  0  0  0  0  0  0  0  0  0  0
    9.5691   -3.5129   -8.9363 H   0  0  0  0  0  0  0  0  0  0  0  0
    9.2129   -5.2270   -9.1598 H   0  0  0  0  0  0  0  0  0  0  0  0
   10.8553   -6.6017  -10.4989 H   0  0  0  0  0  0  0  0  0  0  0  0
   12.2388   -6.0535   -9.5479 H   0  0  0  0  0  0  0  0  0  0  0  0
   12.9853   -6.7614  -11.7765 H   0  0  0  0  0  0  0  0  0  0  0  0
   13.3399   -5.0805  -11.4623 H   0  0  0  0  0  0  0  0  0  0  0  0
   11.5582   -7.3374  -13.5980 H   0  0  0  0  0  0  0  0  0  0  0  0
   10.5752   -6.1248  -14.3980 H   0  0  0  0  0  0  0  0  0  0  0  0
   10.1467   -6.6637  -12.7635 H   0  0  0  0  0  0  0  0  0  0  0  0
   10.5104   -3.8555  -13.5430 H   0  0  0  0  0  0  0  0  0  0  0  0
   11.8496   -3.3051  -12.5651 H   0  0  0  0  0  0  0  0  0  0  0  0
    9.3515   -4.7649  -11.5662 H   0  0  0  0  0  0  0  0  0  0  0  0
    9.8190   -3.0877  -11.2748 H   0  0  0  0  0  0  0  0  0  0  0  0
   11.0533   -3.6507   -1.1590 H   0  0  0  0  0  0  0  0  0  0  0  0
    9.1570   -2.8399    0.2713 H   0  0  0  0  0  0  0  0  0  0  0  0
    8.3265   -1.1213    1.4686 H   0  0  0  0  0  0  0  0  0  0  0  0
    9.4275    0.2612    4.6299 H   0  0  0  0  0  0  0  0  0  0  0  0
    8.9658    0.5483    2.9478 H   0  0  0  0  0  0  0  0  0  0  0  0
    9.6129   -1.0570    3.4677 H   0  0  0  0  0  0  0  0  0  0  0  0
    5.3987   -1.5359    4.5574 H   0  0  0  0  0  0  0  0  0  0  0  0
    2.1762   -3.2571    4.3111 H   0  0  0  0  0  0  0  0  0  0  0  0
    3.0308   -1.7176    4.4793 H   0  0  0  0  0  0  0  0  0  0  0  0
    3.8088   -3.2667    4.9900 H   0  0  0  0  0  0  0  0  0  0  0  0
    4.7179   -3.3516    0.7416 H   0  0  0  0  0  0  0  0  0  0  0  0
  1  2  1  0  0  0  0
  1 38  1  0  0  0  0
  1 39  1  0  0  0  0
  1 40  1  0  0  0  0
  2  3  1  0  0  0  0
  2 41  1  0  0  0  0
  2 42  1  0  0  0  0
  3  4  1  0  0  0  0
  3 43  1  0  0  0  0
  4  5  2  0  0  0  0
  4  6  1  0  0  0  0
  6  7  1  0  0  0  0
  6 44  1  0  0  0  0
  7  8  1  0  0  0  0
  7 27  2  0  0  0  0
  8  9  2  0  0  0  0
  9 10  1  0  0  0  0
  9 25  1  0  0  0  0
 10 11  2  0  0  0  0
 11 12  1  0  0  0  0
 11 23  1  0  0  0  0
 12 13  1  0  0  0  0
 12 45  1  0  0  0  0
 13 14  1  0  0  0  0
 13 46  1  0  0  0  0
 13 47  1  0  0  0  0
 14 15  1  0  0  0  0
 14 48  1  0  0  0  0
 14 49  1  0  0  0  0
 15 16  1  0  0  0  0
 15 50  1  0  0  0  0
 15 51  1  0  0  0  0
 16 17  1  0  0  0  0
 16 22  1  0  0  0  0
 17 18  1  0  0  0  0
 17 52  1  0  0  0  0
 17 53  1  0  0  0  0
 18 19  1  0  0  0  0
 18 54  1  0  0  0  0
 18 55  1  0  0  0  0
 19 20  1  0  0  0  0
 19 21  1  0  0  0  0
 20 56  1  0  0  0  0
 20 57  1  0  0  0  0
 20 58  1  0  0  0  0
 21 22  1  0  0  0  0
 21 59  1  0  0  0  0
 21 60  1  0  0  0  0
 22 61  1  0  0  0  0
 22 62  1  0  0  0  0
 23 24  2  0  0  0  0
 24 25  1  0  0  0  0
 24 63  1  0  0  0  0
 25 26  2  0  0  0  0
 26 27  1  0  0  0  0
 26 64  1  0  0  0  0
 27 28  1  0  0  0  0
 28 29  1  0  0  0  0
 28 37  2  0  0  0  0
 29 30  2  0  0  0  0
 29 65  1  0  0  0  0
 30 31  1  0  0  0  0
 30 33  1  0  0  0  0
 31 32  1  0  0  0  0
 32 66  1  0  0  0  0
 32 67  1  0  0  0  0
 32 68  1  0  0  0  0
 33 34  2  0  0  0  0
 33 69  1  0  0  0  0
 34 35  1  0  0  0  0
 34 37  1  0  0  0  0
 35 36  1  0  0  0  0
 36 70  1  0  0  0  0
 36 71  1  0  0  0  0
 36 72  1  0  0  0  0
 37 73  1  0  0  0  0
M  END
$$$$
