CHEMBL3917141
 OpenBabel04072215373D

 71 75  0  0  0  0  0  0  0  0999 V2000
    1.3042    0.0499    0.4477 C   0  0  0  0  0  0  0  0  0  0  0  0
    2.3804    0.2730   -0.4635 O   0  0  0  0  0  0  0  0  0  0  0  0
    3.1078    1.4216   -0.2908 C   0  0  0  0  0  0  0  0  0  0  0  0
    2.7416    2.4851    0.5208 C   0  0  0  0  0  0  0  0  0  0  0  0
    3.5449    3.6205    0.5744 C   0  0  0  0  0  0  0  0  0  0  0  0
    3.2790    4.7428    1.3131 O   0  0  0  0  0  0  0  0  0  0  0  0
    2.1903    4.6594    2.2249 C   0  0  0  0  0  0  0  0  0  0  0  0
    4.7379    3.6806   -0.1652 C   0  0  0  0  0  0  0  0  0  0  0  0
    5.1931    2.6044   -0.9320 C   0  0  0  0  0  0  0  0  0  0  0  0
    6.4358    2.6657   -1.6180 N   0  0  0  0  0  0  0  0  0  0  0  0
    7.0243    1.3505   -2.0932 C   0  0  0  0  0  0  0  0  0  0  0  0
    8.0270    0.8111   -1.0458 C   0  0  0  0  0  0  0  0  0  0  0  0
    8.7623   -0.4448   -1.3142 N   0  0  0  0  0  0  0  0  0  0  0  0
    9.7446   -0.5931   -0.2172 C   0  0  0  0  0  0  0  0  0  0  0  0
   10.5598   -1.8759   -0.3095 C   0  0  0  0  0  0  0  0  0  0  0  0
    9.6632   -3.1146   -0.3929 C   0  0  0  0  0  0  0  0  0  0  0  0
    8.9677   -3.4293    0.9396 C   0  0  0  0  0  0  0  0  0  0  0  0
    9.9240   -3.6569    1.9672 O   0  0  0  0  0  0  0  0  0  0  0  0
    8.6471   -2.9178   -1.5248 C   0  0  0  0  0  0  0  0  0  0  0  0
    7.8656   -1.6028   -1.3985 C   0  0  0  0  0  0  0  0  0  0  0  0
    7.5021    3.6469   -1.5501 C   0  0  0  0  0  0  0  0  0  0  0  0
    8.1814    3.8659   -2.7450 C   0  0  0  0  0  0  0  0  0  0  0  0
    9.5100    4.2528   -2.7285 C   0  0  0  0  0  0  0  0  0  0  0  0
   10.1470    4.5687   -1.5522 C   0  0  0  0  0  0  0  0  0  0  0  0
   11.4759    4.7198   -1.6606 N   0  0  0  0  0  0  0  0  0  0  0  0
   12.1121    5.1765   -0.5811 C   0  0  0  0  0  0  0  0  0  0  0  0
   11.4328    5.5748    0.5579 C   0  0  0  0  0  0  0  0  0  0  0  0
   12.1640    6.4509    1.4585 C   0  0  0  0  0  0  0  0  0  0  0  0
   12.1061    7.8661    1.5652 C   0  0  0  0  0  0  0  0  0  0  0  0
   13.0987    8.3756    2.3055 N   0  0  0  0  0  0  0  0  0  0  0  0
   13.7995    7.2911    2.6767 N   0  0  0  0  0  0  0  0  0  0  0  0
   14.8262    7.3949    3.6870 C   0  0  0  0  0  0  0  0  0  0  0  0
   13.3658    6.1409    2.0754 C   0  0  0  0  0  0  0  0  0  0  0  0
   10.1006    5.3059    0.7176 N   0  0  0  0  0  0  0  0  0  0  0  0
    9.4336    4.7196   -0.3439 C   0  0  0  0  0  0  0  0  0  0  0  0
    8.0916    4.1788   -0.3654 C   0  0  0  0  0  0  0  0  0  0  0  0
    4.3033    1.5113   -1.0284 C   0  0  0  0  0  0  0  0  0  0  0  0
    0.9158   -0.9609    0.2818 H   0  0  0  0  0  0  0  0  0  0  0  0
    0.4831    0.7523    0.2685 H   0  0  0  0  0  0  0  0  0  0  0  0
    1.6461    0.1029    1.4871 H   0  0  0  0  0  0  0  0  0  0  0  0
    1.8221    2.4396    1.0874 H   0  0  0  0  0  0  0  0  0  0  0  0
    2.1653    5.5876    2.8022 H   0  0  0  0  0  0  0  0  0  0  0  0
    2.3244    3.8318    2.9303 H   0  0  0  0  0  0  0  0  0  0  0  0
    1.2382    4.5720    1.6909 H   0  0  0  0  0  0  0  0  0  0  0  0
    5.3074    4.6019   -0.1282 H   0  0  0  0  0  0  0  0  0  0  0  0
    7.5281    1.4766   -3.0605 H   0  0  0  0  0  0  0  0  0  0  0  0
    6.2701    0.5963   -2.3174 H   0  0  0  0  0  0  0  0  0  0  0  0
    7.5133    0.7466   -0.0785 H   0  0  0  0  0  0  0  0  0  0  0  0
    8.8054    1.5726   -0.9374 H   0  0  0  0  0  0  0  0  0  0  0  0
    9.2396   -0.5488    0.7564 H   0  0  0  0  0  0  0  0  0  0  0  0
   10.4478    0.2496   -0.2462 H   0  0  0  0  0  0  0  0  0  0  0  0
   11.2346   -1.9371    0.5523 H   0  0  0  0  0  0  0  0  0  0  0  0
   11.1992   -1.8304   -1.2003 H   0  0  0  0  0  0  0  0  0  0  0  0
   10.3090   -3.9678   -0.6373 H   0  0  0  0  0  0  0  0  0  0  0  0
    8.3502   -4.3290    0.8488 H   0  0  0  0  0  0  0  0  0  0  0  0
    8.3163   -2.6161    1.2724 H   0  0  0  0  0  0  0  0  0  0  0  0
   10.4876   -4.3975    1.6853 H   0  0  0  0  0  0  0  0  0  0  0  0
    7.9473   -3.7611   -1.5547 H   0  0  0  0  0  0  0  0  0  0  0  0
    9.1826   -2.9236   -2.4838 H   0  0  0  0  0  0  0  0  0  0  0  0
    7.1999   -1.6477   -0.5284 H   0  0  0  0  0  0  0  0  0  0  0  0
    7.2284   -1.5121   -2.2860 H   0  0  0  0  0  0  0  0  0  0  0  0
    7.7373    3.5840   -3.6959 H   0  0  0  0  0  0  0  0  0  0  0  0
   10.0784    4.2482   -3.6524 H   0  0  0  0  0  0  0  0  0  0  0  0
   13.1860    5.2879   -0.6794 H   0  0  0  0  0  0  0  0  0  0  0  0
   11.4112    8.5505    1.0943 H   0  0  0  0  0  0  0  0  0  0  0  0
   14.9339    8.4358    4.0037 H   0  0  0  0  0  0  0  0  0  0  0  0
   15.7714    7.0221    3.2855 H   0  0  0  0  0  0  0  0  0  0  0  0
   14.5058    6.7856    4.5365 H   0  0  0  0  0  0  0  0  0  0  0  0
   13.9308    5.2225    2.1522 H   0  0  0  0  0  0  0  0  0  0  0  0
    7.5666    4.0872    0.5840 H   0  0  0  0  0  0  0  0  0  0  0  0
    4.4749    0.6789   -1.7063 H   0  0  0  0  0  0  0  0  0  0  0  0
  1  2  1  0  0  0  0
  1 38  1  0  0  0  0
  1 39  1  0  0  0  0
  1 40  1  0  0  0  0
  2  3  1  0  0  0  0
  3  4  1  0  0  0  0
  3 37  2  0  0  0  0
  4  5  2  0  0  0  0
  4 41  1  0  0  0  0
  5  6  1  0  0  0  0
  5  8  1  0  0  0  0
  6  7  1  0  0  0  0
  7 42  1  0  0  0  0
  7 43  1  0  0  0  0
  7 44  1  0  0  0  0
  8  9  2  0  0  0  0
  8 45  1  0  0  0  0
  9 10  1  0  0  0  0
  9 37  1  0  0  0  0
 10 11  1  0  0  0  0
 10 21  1  0  0  0  0
 11 12  1  0  0  0  0
 11 46  1  0  0  0  0
 11 47  1  0  0  0  0
 12 13  1  0  0  0  0
 12 48  1  0  0  0  0
 12 49  1  0  0  0  0
 13 14  1  0  0  0  0
 13 20  1  0  0  0  0
 14 15  1  0  0  0  0
 14 50  1  0  0  0  0
 14 51  1  0  0  0  0
 15 16  1  0  0  0  0
 15 52  1  0  0  0  0
 15 53  1  0  0  0  0
 16 17  1  0  0  0  0
 16 19  1  0  0  0  0
 16 54  1  0  0  0  0
 17 18  1  0  0  0  0
 17 55  1  0  0  0  0
 17 56  1  0  0  0  0
 18 57  1  0  0  0  0
 19 20  1  0  0  0  0
 19 58  1  0  0  0  0
 19 59  1  0  0  0  0
 20 60  1  0  0  0  0
 20 61  1  0  0  0  0
 21 22  1  0  0  0  0
 21 36  2  0  0  0  0
 22 23  2  0  0  0  0
 22 62  1  0  0  0  0
 23 24  1  0  0  0  0
 23 63  1  0  0  0  0
 24 25  1  0  0  0  0
 24 35  2  0  0  0  0
 25 26  2  0  0  0  0
 26 27  1  0  0  0  0
 26 64  1  0  0  0  0
 27 28  1  0  0  0  0
 27 34  2  0  0  0  0
 28 29  1  0  0  0  0
 28 33  2  0  0  0  0
 29 30  2  0  0  0  0
 29 65  1  0  0  0  0
 30 31  1  0  0  0  0
 31 32  1  0  0  0  0
 31 33  1  0  0  0  0
 32 66  1  0  0  0  0
 32 67  1  0  0  0  0
 32 68  1  0  0  0  0
 33 69  1  0  0  0  0
 34 35  1  0  0  0  0
 35 36  1  0  0  0  0
 36 70  1  0  0  0  0
 37 71  1  0  0  0  0
M  END
$$$$
