CHEMBL2023222
 OpenBabel04072215363D

 52 56  0  0  0  0  0  0  0  0999 V2000
    2.3921   -0.4129    1.4848 C   0  0  0  0  0  0  0  0  0  0  0  0
    0.8958   -0.2948    1.4563 C   0  0  0  0  0  0  0  0  0  0  0  0
    0.2871    0.8938    1.8713 C   0  0  0  0  0  0  0  0  0  0  0  0
   -1.0956    1.0099    1.8564 C   0  0  0  0  0  0  0  0  0  0  0  0
   -1.8815   -0.0592    1.4264 C   0  0  0  0  0  0  0  0  0  0  0  0
   -1.3075   -1.2579    0.9926 C   0  0  0  0  0  0  0  0  0  0  0  0
   -2.0698   -2.3693    0.5513 N   0  0  0  0  0  0  0  0  0  0  0  0
   -3.4446   -2.3689    0.3672 C   0  0  0  0  0  0  0  0  0  0  0  0
   -4.1667   -1.3891    0.4560 O   0  0  0  0  0  0  0  0  0  0  0  0
   -3.9376   -3.6471    0.0793 N   0  0  0  0  0  0  0  0  0  0  0  0
   -5.3266   -3.8289   -0.1433 C   0  0  0  0  0  0  0  0  0  0  0  0
   -6.0615   -2.9115   -0.8953 C   0  0  0  0  0  0  0  0  0  0  0  0
   -7.4544   -2.9827   -0.9369 C   0  0  0  0  0  0  0  0  0  0  0  0
   -8.1459   -4.0014   -0.2639 C   0  0  0  0  0  0  0  0  0  0  0  0
   -9.6202   -3.9894   -0.2290 C   0  0  0  0  0  0  0  0  0  0  0  0
  -10.2990   -3.5997   -1.3666 C   0  0  0  0  0  0  0  0  0  0  0  0
  -11.9689   -3.5191   -1.1575 S   0  0  0  0  0  0  0  0  0  0  0  0
  -11.8973   -4.1163    0.4636 C   0  0  0  0  0  0  0  0  0  0  0  0
  -12.9849   -4.3775    1.3341 C   0  0  0  0  0  0  0  0  0  0  0  0
  -14.3785   -4.2075    0.9488 C   0  0  0  0  0  0  0  0  0  0  0  0
  -15.0441   -4.3752   -0.2992 C   0  0  0  0  0  0  0  0  0  0  0  0
  -16.3694   -4.0760   -0.0904 C   0  0  0  0  0  0  0  0  0  0  0  0
  -16.5808   -3.7593    1.2095 O   0  0  0  0  0  0  0  0  0  0  0  0
  -15.3784   -3.8443    1.8343 C   0  0  0  0  0  0  0  0  0  0  0  0
  -12.6309   -4.8138    2.6004 C   0  0  0  0  0  0  0  0  0  0  0  0
  -11.3713   -4.9651    3.0390 N   0  0  0  0  0  0  0  0  0  0  0  0
  -10.3343   -4.7028    2.2195 C   0  0  0  0  0  0  0  0  0  0  0  0
   -9.0971   -4.8453    2.8332 N   0  0  0  0  0  0  0  0  0  0  0  0
  -10.5533   -4.2932    0.8715 C   0  0  0  0  0  0  0  0  0  0  0  0
   -7.3888   -4.9943    0.3698 C   0  0  0  0  0  0  0  0  0  0  0  0
   -5.9884   -4.9026    0.4478 C   0  0  0  0  0  0  0  0  0  0  0  0
    0.0917   -1.3678    1.0179 C   0  0  0  0  0  0  0  0  0  0  0  0
    2.8545    0.5045    1.8701 H   0  0  0  0  0  0  0  0  0  0  0  0
    2.7796   -0.5808    0.4761 H   0  0  0  0  0  0  0  0  0  0  0  0
    2.6964   -1.2346    2.1392 H   0  0  0  0  0  0  0  0  0  0  0  0
    0.8843    1.7377    2.2095 H   0  0  0  0  0  0  0  0  0  0  0  0
   -1.5734    1.9325    2.1760 H   0  0  0  0  0  0  0  0  0  0  0  0
   -2.9551    0.0939    1.4498 H   0  0  0  0  0  0  0  0  0  0  0  0
   -1.5627   -3.1787    0.2263 H   0  0  0  0  0  0  0  0  0  0  0  0
   -3.4481   -4.4035    0.5339 H   0  0  0  0  0  0  0  0  0  0  0  0
   -5.5652   -2.0971   -1.4188 H   0  0  0  0  0  0  0  0  0  0  0  0
   -7.9813   -2.1990   -1.4761 H   0  0  0  0  0  0  0  0  0  0  0  0
   -9.8870   -3.3222   -2.3279 H   0  0  0  0  0  0  0  0  0  0  0  0
  -14.6227   -4.6765   -1.2473 H   0  0  0  0  0  0  0  0  0  0  0  0
  -17.2410   -4.0510   -0.7295 H   0  0  0  0  0  0  0  0  0  0  0  0
  -15.4026   -3.6142    2.8910 H   0  0  0  0  0  0  0  0  0  0  0  0
  -13.3836   -5.0658    3.3433 H   0  0  0  0  0  0  0  0  0  0  0  0
   -9.2436   -4.9411    3.8334 H   0  0  0  0  0  0  0  0  0  0  0  0
   -8.4370   -4.1235    2.5705 H   0  0  0  0  0  0  0  0  0  0  0  0
   -7.8791   -5.8322    0.8612 H   0  0  0  0  0  0  0  0  0  0  0  0
   -5.4489   -5.6350    1.0414 H   0  0  0  0  0  0  0  0  0  0  0  0
    0.5775   -2.2858    0.6950 H   0  0  0  0  0  0  0  0  0  0  0  0
  1  2  1  0  0  0  0
  1 33  1  0  0  0  0
  1 34  1  0  0  0  0
  1 35  1  0  0  0  0
  2  3  1  0  0  0  0
  2 32  2  0  0  0  0
  3  4  2  0  0  0  0
  3 36  1  0  0  0  0
  4  5  1  0  0  0  0
  4 37  1  0  0  0  0
  5  6  2  0  0  0  0
  5 38  1  0  0  0  0
  6  7  1  0  0  0  0
  6 32  1  0  0  0  0
  7  8  1  0  0  0  0
  7 39  1  0  0  0  0
  8  9  2  0  0  0  0
  8 10  1  0  0  0  0
 10 11  1  0  0  0  0
 10 40  1  0  0  0  0
 11 12  1  0  0  0  0
 11 31  2  0  0  0  0
 12 13  2  0  0  0  0
 12 41  1  0  0  0  0
 13 14  1  0  0  0  0
 13 42  1  0  0  0  0
 14 15  1  0  0  0  0
 14 30  2  0  0  0  0
 15 16  2  0  0  0  0
 15 29  1  0  0  0  0
 16 17  1  0  0  0  0
 16 43  1  0  0  0  0
 17 18  1  0  0  0  0
 18 19  1  0  0  0  0
 18 29  2  0  0  0  0
 19 20  1  0  0  0  0
 19 25  2  0  0  0  0
 20 21  1  0  0  0  0
 20 24  2  0  0  0  0
 21 22  2  0  0  0  0
 21 44  1  0  0  0  0
 22 23  1  0  0  0  0
 22 45  1  0  0  0  0
 23 24  1  0  0  0  0
 24 46  1  0  0  0  0
 25 26  1  0  0  0  0
 25 47  1  0  0  0  0
 26 27  2  0  0  0  0
 27 28  1  0  0  0  0
 27 29  1  0  0  0  0
 28 48  1  0  0  0  0
 28 49  1  0  0  0  0
 30 31  1  0  0  0  0
 30 50  1  0  0  0  0
 31 51  1  0  0  0  0
 32 52  1  0  0  0  0
M  END
$$$$
