CHEMBL3696084
 OpenBabel04072215373D

 57 59  0  0  0  0  0  0  0  0999 V2000
    1.9698   -0.4850    2.5770 C   0  0  0  0  0  0  0  0  0  0  0  0
    0.5786   -0.2905    2.0616 C   0  0  0  0  0  0  0  0  0  0  0  0
    0.0005    0.9748    2.0822 C   0  0  0  0  0  0  0  0  0  0  0  0
   -1.2943    1.1700    1.6043 C   0  0  0  0  0  0  0  0  0  0  0  0
   -2.0433    0.1117    1.0778 C   0  0  0  0  0  0  0  0  0  0  0  0
   -3.3688    0.2673    0.5838 N   0  0  0  0  0  0  0  0  0  0  0  0
   -4.0116    1.4862    0.4412 C   0  0  0  0  0  0  0  0  0  0  0  0
   -3.4943    2.5823    0.6269 O   0  0  0  0  0  0  0  0  0  0  0  0
   -5.3463    1.3438    0.0927 N   0  0  0  0  0  0  0  0  0  0  0  0
   -6.1331    2.5048   -0.0921 C   0  0  0  0  0  0  0  0  0  0  0  0
   -5.6436    3.5874   -0.8244 C   0  0  0  0  0  0  0  0  0  0  0  0
   -6.3806    4.7665   -0.9219 C   0  0  0  0  0  0  0  0  0  0  0  0
   -7.6332    4.8776   -0.3029 C   0  0  0  0  0  0  0  0  0  0  0  0
   -8.4245    6.1007   -0.5078 C   0  0  0  0  0  0  0  0  0  0  0  0
   -8.3448    6.6591   -1.7231 N   0  0  0  0  0  0  0  0  0  0  0  0
   -9.3607    7.9426   -1.8259 S   0  0  0  0  0  0  0  0  0  0  0  0
   -9.9430    7.8282   -0.2349 C   0  0  0  0  0  0  0  0  0  0  0  0
  -10.9356    8.6957    0.1979 N   0  0  0  0  0  0  0  0  0  0  0  0
  -10.7920   10.0491   -0.0299 C   0  0  0  0  0  0  0  0  0  0  0  0
   -9.7993   10.5892   -0.5045 O   0  0  0  0  0  0  0  0  0  0  0  0
  -11.8820   10.7741    0.3855 N   0  0  0  0  0  0  0  0  0  0  0  0
  -11.8736   12.2208    0.3039 C   0  0  0  0  0  0  0  0  0  0  0  0
  -11.4623   12.8757    1.6184 C   0  0  0  0  0  0  0  0  0  0  0  0
  -10.0860   12.4460    2.1151 C   0  0  0  0  0  0  0  0  0  0  0  0
   -9.7884   13.1275    3.3296 O   0  0  0  0  0  0  0  0  0  0  0  0
   -9.3186    6.7785    0.4209 C   0  0  0  0  0  0  0  0  0  0  0  0
   -9.5654    6.5157    1.8270 C   0  0  0  0  0  0  0  0  0  0  0  0
   -8.5036    6.0775    2.5644 N   0  0  0  0  0  0  0  0  0  0  0  0
  -10.6450    6.7466    2.3652 O   0  0  0  0  0  0  0  0  0  0  0  0
   -8.1303    3.7773    0.4109 C   0  0  0  0  0  0  0  0  0  0  0  0
   -7.3901    2.5903    0.5051 C   0  0  0  0  0  0  0  0  0  0  0  0
   -1.4639   -1.1589    1.0502 C   0  0  0  0  0  0  0  0  0  0  0  0
   -0.1625   -1.3596    1.5369 C   0  0  0  0  0  0  0  0  0  0  0  0
    2.3862    0.4542    2.9619 H   0  0  0  0  0  0  0  0  0  0  0  0
    2.6303   -0.8348    1.7779 H   0  0  0  0  0  0  0  0  0  0  0  0
    1.9720   -1.2062    3.3980 H   0  0  0  0  0  0  0  0  0  0  0  0
    0.5442    1.8335    2.4725 H   0  0  0  0  0  0  0  0  0  0  0  0
   -1.6792    2.1793    1.6677 H   0  0  0  0  0  0  0  0  0  0  0  0
   -3.8141   -0.5405    0.1895 H   0  0  0  0  0  0  0  0  0  0  0  0
   -5.8061    0.5367    0.4891 H   0  0  0  0  0  0  0  0  0  0  0  0
   -4.6787    3.5357   -1.3256 H   0  0  0  0  0  0  0  0  0  0  0  0
   -5.9701    5.5932   -1.5005 H   0  0  0  0  0  0  0  0  0  0  0  0
  -11.3847    8.4459    1.0735 H   0  0  0  0  0  0  0  0  0  0  0  0
  -12.6958   10.2958    0.7440 H   0  0  0  0  0  0  0  0  0  0  0  0
  -12.8860   12.5361    0.0308 H   0  0  0  0  0  0  0  0  0  0  0  0
  -11.2042   12.5455   -0.5015 H   0  0  0  0  0  0  0  0  0  0  0  0
  -12.2060   12.6527    2.3927 H   0  0  0  0  0  0  0  0  0  0  0  0
  -11.4760   13.9656    1.4956 H   0  0  0  0  0  0  0  0  0  0  0  0
   -9.3007   12.6686    1.3854 H   0  0  0  0  0  0  0  0  0  0  0  0
  -10.0609   11.3749    2.3355 H   0  0  0  0  0  0  0  0  0  0  0  0
   -9.6191   14.0575    3.1027 H   0  0  0  0  0  0  0  0  0  0  0  0
   -7.5555    6.0884    2.2096 H   0  0  0  0  0  0  0  0  0  0  0  0
   -8.6267    6.0156    3.5668 H   0  0  0  0  0  0  0  0  0  0  0  0
   -9.1014    3.8209    0.8970 H   0  0  0  0  0  0  0  0  0  0  0  0
   -7.7858    1.7651    1.0894 H   0  0  0  0  0  0  0  0  0  0  0  0
   -2.0039   -2.0136    0.6538 H   0  0  0  0  0  0  0  0  0  0  0  0
    0.2743   -2.3551    1.5071 H   0  0  0  0  0  0  0  0  0  0  0  0
  1  2  1  0  0  0  0
  1 34  1  0  0  0  0
  1 35  1  0  0  0  0
  1 36  1  0  0  0  0
  2  3  1  0  0  0  0
  2 33  2  0  0  0  0
  3  4  2  0  0  0  0
  3 37  1  0  0  0  0
  4  5  1  0  0  0  0
  4 38  1  0  0  0  0
  5  6  1  0  0  0  0
  5 32  2  0  0  0  0
  6  7  1  0  0  0  0
  6 39  1  0  0  0  0
  7  8  2  0  0  0  0
  7  9  1  0  0  0  0
  9 10  1  0  0  0  0
  9 40  1  0  0  0  0
 10 11  1  0  0  0  0
 10 31  2  0  0  0  0
 11 12  2  0  0  0  0
 11 41  1  0  0  0  0
 12 13  1  0  0  0  0
 12 42  1  0  0  0  0
 13 14  1  0  0  0  0
 13 30  2  0  0  0  0
 14 15  2  0  0  0  0
 14 26  1  0  0  0  0
 15 16  1  0  0  0  0
 16 17  1  0  0  0  0
 17 18  1  0  0  0  0
 17 26  2  0  0  0  0
 18 19  1  0  0  0  0
 18 43  1  0  0  0  0
 19 20  2  0  0  0  0
 19 21  1  0  0  0  0
 21 22  1  0  0  0  0
 21 44  1  0  0  0  0
 22 23  1  0  0  0  0
 22 45  1  0  0  0  0
 22 46  1  0  0  0  0
 23 24  1  0  0  0  0
 23 47  1  0  0  0  0
 23 48  1  0  0  0  0
 24 25  1  0  0  0  0
 24 49  1  0  0  0  0
 24 50  1  0  0  0  0
 25 51  1  0  0  0  0
 26 27  1  0  0  0  0
 27 28  1  0  0  0  0
 27 29  2  0  0  0  0
 28 52  1  0  0  0  0
 28 53  1  0  0  0  0
 30 31  1  0  0  0  0
 30 54  1  0  0  0  0
 31 55  1  0  0  0  0
 32 33  1  0  0  0  0
 32 56  1  0  0  0  0
 33 57  1  0  0  0  0
M  END
$$$$
