CHEMBL4453974
 OpenBabel04072215383D

 76 82  0  0  1  0  0  0  0  0999 V2000
   -0.6871   -4.0244    4.8505 C   0  0  0  0  0  0  0  0  0  0  0  0
   -1.6544   -3.2306    4.0151 C   0  0  0  0  0  0  0  0  0  0  0  0
   -2.0773   -1.9464    4.3813 C   0  0  0  0  0  0  0  0  0  0  0  0
   -2.9894   -1.2288    3.5761 C   0  0  0  0  0  0  0  0  0  0  0  0
   -3.4957   -1.7816    2.3898 C   0  0  0  0  0  0  0  0  0  0  0  0
   -4.4210   -1.1828    1.4978 N   0  0  0  0  0  0  0  0  0  0  0  0
   -5.0044   -0.1557    1.9078 N   0  0  0  0  0  0  0  0  0  0  0  0
   -6.0698    0.2754    1.1474 C   0  0  0  0  0  0  0  0  0  0  0  0
   -7.2090   -0.8475    0.4273 S   0  0  0  0  0  0  0  0  0  0  0  0
   -8.3063    0.4257    0.0154 C   0  0  0  0  0  0  0  0  0  0  0  0
   -9.5544    0.2110   -0.5261 N   0  0  0  0  0  0  0  0  0  0  0  0
  -10.1400   -1.0410   -0.9932 N   0  0  0  0  0  0  0  0  0  0  0  0
  -11.3520   -0.6960   -1.3803 C   0  0  0  0  0  0  0  0  0  0  0  0
  -12.6044   -1.5413   -1.4591 C   0  0  0  0  0  0  0  0  0  0  0  0
  -12.6097   -2.8128   -1.9027 C   0  0  0  0  0  0  0  0  0  0  0  0
  -11.4819   -3.4949   -2.3114 O   0  0  0  0  0  0  0  0  0  0  0  0
  -13.8706   -3.5787   -1.9650 C   0  0  0  0  0  0  0  0  0  0  0  0
  -13.9780   -4.8939   -2.4351 C   0  0  0  0  0  0  0  0  0  0  0  0
  -15.2189   -5.5540   -2.4515 C   0  0  0  0  0  0  0  0  0  0  0  0
  -16.3737   -4.9292   -1.9886 C   0  0  0  0  0  0  0  0  0  0  0  0
  -16.2898   -3.6231   -1.5175 C   0  0  0  0  0  0  0  0  0  0  0  0
  -15.0488   -2.9801   -1.5249 C   0  0  0  0  0  0  0  0  0  0  0  0
  -15.0524   -1.6734   -1.0523 O   0  0  0  0  0  0  0  0  0  0  0  0
  -13.8856   -0.9528   -0.9573 C   0  0  0  0  0  0  0  0  0  0  0  0
  -13.9359    0.1526   -0.4287 O   0  0  0  0  0  0  0  0  0  0  0  0
  -11.4747    0.8072   -1.5400 C   0  0  0  0  0  0  0  0  0  0  0  0
  -10.7216    1.0585   -0.2506 C   0  0  3  0  0  0  0  0  0  0  0  0
  -11.0083    2.3349    0.4872 C   0  0  0  0  0  0  0  0  0  0  0  0
  -12.2400    2.3218    1.1830 C   0  0  0  0  0  0  0  0  0  0  0  0
  -12.6369    3.3127    2.0681 C   0  0  0  0  0  0  0  0  0  0  0  0
  -11.8203    4.3996    2.3436 C   0  0  0  0  0  0  0  0  0  0  0  0
  -12.2037    5.3089    3.3184 N   0  0  0  0  0  0  0  0  0  0  0  0
  -12.8787    4.8355    4.5351 C   0  0  0  0  0  0  0  0  0  0  0  0
  -11.5994    6.6245    3.4342 C   0  0  0  0  0  0  0  0  0  0  0  0
  -10.6658    4.4997    1.5386 C   0  0  0  0  0  0  0  0  0  0  0  0
  -10.2740    3.5028    0.6010 C   0  0  0  0  0  0  0  0  0  0  0  0
   -7.7930    1.6152    0.2368 N   0  0  0  0  0  0  0  0  0  0  0  0
   -6.5520    1.5582    0.8928 C   0  0  0  0  0  0  0  0  0  0  0  0
   -5.9749    2.8153    1.3949 C   0  0  0  0  0  0  0  0  0  0  0  0
   -6.8698    3.8467    1.7163 C   0  0  0  0  0  0  0  0  0  0  0  0
   -6.4552    5.0658    2.2476 C   0  0  0  0  0  0  0  0  0  0  0  0
   -5.1064    5.2734    2.4893 C   0  0  0  0  0  0  0  0  0  0  0  0
   -4.1874    4.2732    2.1664 C   0  0  0  0  0  0  0  0  0  0  0  0
   -4.6131    3.0539    1.6069 C   0  0  0  0  0  0  0  0  0  0  0  0
   -3.0539   -3.0660    2.0385 C   0  0  0  0  0  0  0  0  0  0  0  0
   -2.1497   -3.7820    2.8347 C   0  0  0  0  0  0  0  0  0  0  0  0
   -0.3951   -3.4906    5.7617 H   0  0  0  0  0  0  0  0  0  0  0  0
    0.2230   -4.2340    4.2781 H   0  0  0  0  0  0  0  0  0  0  0  0
   -1.1381   -4.9762    5.1520 H   0  0  0  0  0  0  0  0  0  0  0  0
   -1.7062   -1.4921    5.2985 H   0  0  0  0  0  0  0  0  0  0  0  0
   -3.2969   -0.2378    3.8967 H   0  0  0  0  0  0  0  0  0  0  0  0
  -10.6850   -2.9880   -2.0537 H   0  0  0  0  0  0  0  0  0  0  0  0
  -13.0992   -5.4166   -2.8124 H   0  0  0  0  0  0  0  0  0  0  0  0
  -15.2855   -6.5752   -2.8280 H   0  0  0  0  0  0  0  0  0  0  0  0
  -17.3316   -5.4428   -1.9853 H   0  0  0  0  0  0  0  0  0  0  0  0
  -17.1732   -3.1086   -1.1497 H   0  0  0  0  0  0  0  0  0  0  0  0
  -12.4703    1.2274   -1.6212 H   0  0  0  0  0  0  0  0  0  0  0  0
  -10.9078    1.1085   -2.4309 H   0  0  0  0  0  0  0  0  0  0  0  0
  -11.1652    0.4097    0.5320 H   0  0  0  0  0  0  0  0  0  0  0  0
  -12.9243    1.4841    1.0794 H   0  0  0  0  0  0  0  0  0  0  0  0
  -13.6074    3.1969    2.5396 H   0  0  0  0  0  0  0  0  0  0  0  0
  -13.2444    3.8046    4.4953 H   0  0  0  0  0  0  0  0  0  0  0  0
  -13.7423    5.4749    4.7491 H   0  0  0  0  0  0  0  0  0  0  0  0
  -12.1981    4.8866    5.3931 H   0  0  0  0  0  0  0  0  0  0  0  0
  -11.1495    6.9785    2.5037 H   0  0  0  0  0  0  0  0  0  0  0  0
  -10.8444    6.6365    4.2271 H   0  0  0  0  0  0  0  0  0  0  0  0
  -12.3783    7.3499    3.6967 H   0  0  0  0  0  0  0  0  0  0  0  0
   -9.9978    5.3483    1.6558 H   0  0  0  0  0  0  0  0  0  0  0  0
   -9.3793    3.6429    0.0031 H   0  0  0  0  0  0  0  0  0  0  0  0
   -7.9289    3.6859    1.5821 H   0  0  0  0  0  0  0  0  0  0  0  0
   -7.1935    5.8266    2.4861 H   0  0  0  0  0  0  0  0  0  0  0  0
   -4.7785    6.2089    2.9338 H   0  0  0  0  0  0  0  0  0  0  0  0
   -3.1295    4.4473    2.3527 H   0  0  0  0  0  0  0  0  0  0  0  0
   -3.8642    2.3097    1.3506 H   0  0  0  0  0  0  0  0  0  0  0  0
   -3.4269   -3.5262    1.1288 H   0  0  0  0  0  0  0  0  0  0  0  0
   -1.8433   -4.7793    2.5247 H   0  0  0  0  0  0  0  0  0  0  0  0
  1  2  1  0  0  0  0
  1 47  1  0  0  0  0
  1 48  1  0  0  0  0
  1 49  1  0  0  0  0
  2  3  1  0  0  0  0
  2 46  2  0  0  0  0
  3  4  2  0  0  0  0
  3 50  1  0  0  0  0
  4  5  1  0  0  0  0
  4 51  1  0  0  0  0
  5  6  1  0  0  0  0
  5 45  2  0  0  0  0
  6  7  2  0  0  0  0
  7  8  1  0  0  0  0
  8  9  1  0  0  0  0
  8 38  2  0  0  0  0
  9 10  1  0  0  0  0
 10 11  1  0  0  0  0
 10 37  2  0  0  0  0
 11 12  1  0  0  0  0
 11 27  1  0  0  0  0
 12 13  2  0  0  0  0
 13 14  1  0  0  0  0
 13 26  1  0  0  0  0
 14 15  2  0  0  0  0
 14 24  1  0  0  0  0
 15 16  1  0  0  0  0
 15 17  1  0  0  0  0
 16 52  1  0  0  0  0
 17 18  1  0  0  0  0
 17 22  2  0  0  0  0
 18 19  2  0  0  0  0
 18 53  1  0  0  0  0
 19 20  1  0  0  0  0
 19 54  1  0  0  0  0
 20 21  2  0  0  0  0
 20 55  1  0  0  0  0
 21 22  1  0  0  0  0
 21 56  1  0  0  0  0
 22 23  1  0  0  0  0
 23 24  1  0  0  0  0
 24 25  2  0  0  0  0
 26 27  1  0  0  0  0
 26 57  1  0  0  0  0
 26 58  1  0  0  0  0
 27 28  1  0  0  0  0
 27 59  1  0  0  0  0
 28 29  1  0  0  0  0
 28 36  2  0  0  0  0
 29 30  2  0  0  0  0
 29 60  1  0  0  0  0
 30 31  1  0  0  0  0
 30 61  1  0  0  0  0
 31 32  1  0  0  0  0
 31 35  2  0  0  0  0
 32 33  1  0  0  0  0
 32 34  1  0  0  0  0
 33 62  1  0  0  0  0
 33 63  1  0  0  0  0
 33 64  1  0  0  0  0
 34 65  1  0  0  0  0
 34 66  1  0  0  0  0
 34 67  1  0  0  0  0
 35 36  1  0  0  0  0
 35 68  1  0  0  0  0
 36 69  1  0  0  0  0
 37 38  1  0  0  0  0
 38 39  1  0  0  0  0
 39 40  1  0  0  0  0
 39 44  2  0  0  0  0
 40 41  2  0  0  0  0
 40 70  1  0  0  0  0
 41 42  1  0  0  0  0
 41 71  1  0  0  0  0
 42 43  2  0  0  0  0
 42 72  1  0  0  0  0
 43 44  1  0  0  0  0
 43 73  1  0  0  0  0
 44 74  1  0  0  0  0
 45 46  1  0  0  0  0
 45 75  1  0  0  0  0
 46 76  1  0  0  0  0
M  END
$$$$
