CHEMBL3918306
 OpenBabel04072215373D

 67 71  0  0  1  0  0  0  0  0999 V2000
    3.4418   -1.9741   -4.9961 C   0  0  0  0  0  0  0  0  0  0  0  0
    4.0331   -2.4224   -3.7841 O   0  0  0  0  0  0  0  0  0  0  0  0
    4.0752   -1.5524   -2.7331 C   0  0  0  0  0  0  0  0  0  0  0  0
    5.2314   -1.7030   -1.9442 C   0  0  0  0  0  0  0  0  0  0  0  0
    5.4587   -0.9019   -0.7930 C   0  0  0  0  0  0  0  0  0  0  0  0
    6.5807   -0.9277    0.0501 C   0  0  0  0  0  0  0  0  0  0  0  0
    7.6382   -1.8364   -0.2094 N   0  0  0  0  0  0  0  0  0  0  0  0
    8.6265   -2.1680    0.7421 C   0  0  0  0  0  0  0  0  0  0  0  0
    8.2635   -2.4834    2.0622 C   0  0  0  0  0  0  0  0  0  0  0  0
    9.2329   -2.7567    3.0258 C   0  0  0  0  0  0  0  0  0  0  0  0
   10.5848   -2.7169    2.6831 C   0  0  0  0  0  0  0  0  0  0  0  0
   11.7381   -3.0294    3.9299 Cl  0  0  0  0  0  0  0  0  0  0  0  0
   10.9586   -2.4220    1.3668 C   0  0  0  0  0  0  0  0  0  0  0  0
   12.6135   -2.3509    0.8704 Cl  0  0  0  0  0  0  0  0  0  0  0  0
    9.9814   -2.1566    0.3996 C   0  0  0  0  0  0  0  0  0  0  0  0
    6.6957   -0.1118    1.1212 N   0  0  0  0  0  0  0  0  0  0  0  0
    5.6902    0.7242    1.3642 C   0  0  0  0  0  0  0  0  0  0  0  0
    4.5734    0.8115    0.6500 N   0  0  0  0  0  0  0  0  0  0  0  0
    4.4813    0.0053   -0.4069 C   0  0  0  0  0  0  0  0  0  0  0  0
    3.3261    0.0896   -1.1486 C   0  0  0  0  0  0  0  0  0  0  0  0
    3.0983   -0.6308   -2.3357 C   0  0  0  0  0  0  0  0  0  0  0  0
    1.9577   -0.4494   -3.0933 O   0  0  0  0  0  0  0  0  0  0  0  0
    1.0273    0.4890   -2.5407 C   0  0  0  0  0  0  0  0  0  0  0  0
    0.0568    1.1349   -3.5209 C   0  0  3  0  0  0  0  0  0  0  0  0
    0.8374    1.8225   -4.6550 C   0  0  0  0  0  0  0  0  0  0  0  0
   -0.0363    2.7244   -5.4005 N   0  0  0  0  0  0  0  0  0  0  0  0
   -0.3649    2.4304   -6.7129 C   0  0  0  0  0  0  0  0  0  0  0  0
    0.0964    1.4569   -7.3088 O   0  0  0  0  0  0  0  0  0  0  0  0
   -1.3227    3.3973   -7.3820 C   0  0  0  0  0  0  0  0  0  0  0  0
   -1.6040    3.0238   -8.8306 C   0  0  0  0  0  0  0  0  0  0  0  0
   -2.5349    4.0267   -9.4650 C   0  0  0  0  0  0  0  0  0  0  0  0
   -2.0208    5.1583  -10.1115 C   0  0  0  0  0  0  0  0  0  0  0  0
   -2.8805    6.0848  -10.7020 C   0  0  0  0  0  0  0  0  0  0  0  0
   -4.2597    5.8937  -10.6424 C   0  0  0  0  0  0  0  0  0  0  0  0
   -4.7815    4.7849   -9.9783 C   0  0  0  0  0  0  0  0  0  0  0  0
   -3.9235    3.8571   -9.3868 C   0  0  0  0  0  0  0  0  0  0  0  0
   -0.7148    3.7053   -4.5486 C   0  0  0  0  0  0  0  0  0  0  0  0
   -1.5017    2.9740   -3.4602 C   0  0  0  0  0  0  0  0  0  0  0  0
   -0.6550    2.1067   -2.7052 O   0  0  0  0  0  0  0  0  0  0  0  0
    4.0764   -2.3290   -5.8163 H   0  0  0  0  0  0  0  0  0  0  0  0
    3.3813   -0.8862   -5.0850 H   0  0  0  0  0  0  0  0  0  0  0  0
    2.4572   -2.4352   -5.1148 H   0  0  0  0  0  0  0  0  0  0  0  0
    5.9621   -2.4545   -2.2352 H   0  0  0  0  0  0  0  0  0  0  0  0
    8.0078   -1.6721   -1.1391 H   0  0  0  0  0  0  0  0  0  0  0  0
    7.2131   -2.5098    2.3460 H   0  0  0  0  0  0  0  0  0  0  0  0
    8.9229   -2.9820    4.0428 H   0  0  0  0  0  0  0  0  0  0  0  0
   10.2842   -1.9070   -0.6134 H   0  0  0  0  0  0  0  0  0  0  0  0
    5.7861    1.3893    2.2145 H   0  0  0  0  0  0  0  0  0  0  0  0
    2.5988    0.7729   -0.7251 H   0  0  0  0  0  0  0  0  0  0  0  0
    1.5491    1.3615   -2.1337 H   0  0  0  0  0  0  0  0  0  0  0  0
    0.4728    0.0070   -1.7253 H   0  0  0  0  0  0  0  0  0  0  0  0
   -0.6596    0.4090   -3.9201 H   0  0  0  0  0  0  0  0  0  0  0  0
    1.3089    1.0812   -5.3077 H   0  0  0  0  0  0  0  0  0  0  0  0
    1.6362    2.4532   -4.2425 H   0  0  0  0  0  0  0  0  0  0  0  0
   -0.8827    4.4008   -7.3354 H   0  0  0  0  0  0  0  0  0  0  0  0
   -2.2655    3.3948   -6.8228 H   0  0  0  0  0  0  0  0  0  0  0  0
   -2.0481    2.0214   -8.8885 H   0  0  0  0  0  0  0  0  0  0  0  0
   -0.6712    2.9705   -9.4063 H   0  0  0  0  0  0  0  0  0  0  0  0
   -0.9464    5.3201  -10.1643 H   0  0  0  0  0  0  0  0  0  0  0  0
   -2.4733    6.9525  -11.2141 H   0  0  0  0  0  0  0  0  0  0  0  0
   -4.9280    6.6084  -11.1149 H   0  0  0  0  0  0  0  0  0  0  0  0
   -5.8572    4.6393   -9.9267 H   0  0  0  0  0  0  0  0  0  0  0  0
   -4.3445    2.9970   -8.8710 H   0  0  0  0  0  0  0  0  0  0  0  0
   -1.3796    4.3636   -5.1086 H   0  0  0  0  0  0  0  0  0  0  0  0
    0.0691    4.3255   -4.0985 H   0  0  0  0  0  0  0  0  0  0  0  0
   -2.3228    2.3835   -3.8783 H   0  0  0  0  0  0  0  0  0  0  0  0
   -1.9262    3.7025   -2.7614 H   0  0  0  0  0  0  0  0  0  0  0  0
  1  2  1  0  0  0  0
  1 40  1  0  0  0  0
  1 41  1  0  0  0  0
  1 42  1  0  0  0  0
  2  3  1  0  0  0  0
  3  4  1  0  0  0  0
  3 21  2  0  0  0  0
  4  5  2  0  0  0  0
  4 43  1  0  0  0  0
  5  6  1  0  0  0  0
  5 19  1  0  0  0  0
  6  7  1  0  0  0  0
  6 16  2  0  0  0  0
  7  8  1  0  0  0  0
  7 44  1  0  0  0  0
  8  9  1  0  0  0  0
  8 15  2  0  0  0  0
  9 10  2  0  0  0  0
  9 45  1  0  0  0  0
 10 11  1  0  0  0  0
 10 46  1  0  0  0  0
 11 12  1  0  0  0  0
 11 13  2  0  0  0  0
 13 14  1  0  0  0  0
 13 15  1  0  0  0  0
 15 47  1  0  0  0  0
 16 17  1  0  0  0  0
 17 18  2  0  0  0  0
 17 48  1  0  0  0  0
 18 19  1  0  0  0  0
 19 20  2  0  0  0  0
 20 21  1  0  0  0  0
 20 49  1  0  0  0  0
 21 22  1  0  0  0  0
 22 23  1  0  0  0  0
 23 24  1  0  0  0  0
 23 50  1  0  0  0  0
 23 51  1  0  0  0  0
 24 25  1  0  0  0  0
 24 39  1  0  0  0  0
 24 52  1  0  0  0  0
 25 26  1  0  0  0  0
 25 53  1  0  0  0  0
 25 54  1  0  0  0  0
 26 27  1  0  0  0  0
 26 37  1  0  0  0  0
 27 28  2  0  0  0  0
 27 29  1  0  0  0  0
 29 30  1  0  0  0  0
 29 55  1  0  0  0  0
 29 56  1  0  0  0  0
 30 31  1  0  0  0  0
 30 57  1  0  0  0  0
 30 58  1  0  0  0  0
 31 32  1  0  0  0  0
 31 36  2  0  0  0  0
 32 33  2  0  0  0  0
 32 59  1  0  0  0  0
 33 34  1  0  0  0  0
 33 60  1  0  0  0  0
 34 35  2  0  0  0  0
 34 61  1  0  0  0  0
 35 36  1  0  0  0  0
 35 62  1  0  0  0  0
 36 63  1  0  0  0  0
 37 38  1  0  0  0  0
 37 64  1  0  0  0  0
 37 65  1  0  0  0  0
 38 39  1  0  0  0  0
 38 66  1  0  0  0  0
 38 67  1  0  0  0  0
M  END
$$$$
