CHEMBL3690485
 OpenBabel04072215373D

 52 56  0  0  0  0  0  0  0  0999 V2000
    4.9713    3.8051   -2.4555 O   0  0  0  0  0  0  0  0  0  0  0  0
    5.1839    3.9195   -1.2520 C   0  0  0  0  0  0  0  0  0  0  0  0
    5.1047    5.1408   -0.6194 N   0  0  0  0  0  0  0  0  0  0  0  0
    4.8733    6.3494   -1.4230 C   0  0  0  0  0  0  0  0  0  0  0  0
    6.1380    6.9999   -2.0010 C   0  0  0  0  0  0  0  0  0  0  0  0
    7.2566    6.3218   -1.6526 F   0  0  0  0  0  0  0  0  0  0  0  0
    6.1020    7.0901   -3.3456 F   0  0  0  0  0  0  0  0  0  0  0  0
    6.2772    8.2575   -1.5120 F   0  0  0  0  0  0  0  0  0  0  0  0
    5.4992    2.9117   -0.3805 N   0  0  0  0  0  0  0  0  0  0  0  0
    5.7491    1.5619   -0.7111 C   0  0  0  0  0  0  0  0  0  0  0  0
    5.6335    1.0175   -1.9842 C   0  0  0  0  0  0  0  0  0  0  0  0
    5.9601   -0.2627   -2.2991 N   0  0  0  0  0  0  0  0  0  0  0  0
    6.4476   -1.0340   -1.3016 C   0  0  0  0  0  0  0  0  0  0  0  0
    6.5709   -0.6111    0.0151 C   0  0  0  0  0  0  0  0  0  0  0  0
    7.0648   -1.4467    1.1085 C   0  0  0  0  0  0  0  0  0  0  0  0
    7.7890   -1.0537    2.2265 C   0  0  0  0  0  0  0  0  0  0  0  0
    7.7871   -2.0024    3.2043 N   0  0  0  0  0  0  0  0  0  0  0  0
    7.0025   -2.9475    2.7401 C   0  0  0  0  0  0  0  0  0  0  0  0
    6.3571   -4.0030    3.4304 C   0  0  0  0  0  0  0  0  0  0  0  0
    5.4387   -4.7799    2.8029 C   0  0  0  0  0  0  0  0  0  0  0  0
    4.5482   -5.6131    3.5494 C   0  0  0  0  0  0  0  0  0  0  0  0
    3.2412   -6.0192    3.2236 C   0  0  0  0  0  0  0  0  0  0  0  0
    2.6763   -6.7464    4.1909 N   0  0  0  0  0  0  0  0  0  0  0  0
    3.6173   -6.7835    5.1582 N   0  0  0  0  0  0  0  0  0  0  0  0
    3.3775   -7.5182    6.3637 C   0  0  0  0  0  0  0  0  0  0  0  0
    3.4380   -6.6560    7.6477 C   0  0  0  0  0  0  0  0  0  0  0  0
    4.1345   -7.7894    8.3158 N   0  0  0  0  0  0  0  0  0  0  0  0
    4.6243   -8.1980    6.9755 C   0  0  0  0  0  0  0  0  0  0  0  0
    4.7522   -6.1034    4.8194 C   0  0  0  0  0  0  0  0  0  0  0  0
    5.2879   -4.6624    1.3462 C   0  0  0  0  0  0  0  0  0  0  0  0
    5.8659   -3.6401    0.6975 C   0  0  0  0  0  0  0  0  0  0  0  0
    6.6432   -2.7310    1.4145 N   0  0  0  0  0  0  0  0  0  0  0  0
    6.1813    0.7067    0.3009 C   0  0  0  0  0  0  0  0  0  0  0  0
    5.7217    5.2572    0.1739 H   0  0  0  0  0  0  0  0  0  0  0  0
    4.3648    7.0579   -0.7628 H   0  0  0  0  0  0  0  0  0  0  0  0
    4.1810    6.1111   -2.2384 H   0  0  0  0  0  0  0  0  0  0  0  0
    5.5967    3.1668    0.5977 H   0  0  0  0  0  0  0  0  0  0  0  0
    5.2727    1.5898   -2.8311 H   0  0  0  0  0  0  0  0  0  0  0  0
    6.7512   -2.0238   -1.6257 H   0  0  0  0  0  0  0  0  0  0  0  0
    8.2282   -0.0815    2.4133 H   0  0  0  0  0  0  0  0  0  0  0  0
    6.5100   -4.0372    4.5008 H   0  0  0  0  0  0  0  0  0  0  0  0
    2.6650   -5.8026    2.3323 H   0  0  0  0  0  0  0  0  0  0  0  0
    2.4737   -8.1388    6.3268 H   0  0  0  0  0  0  0  0  0  0  0  0
    2.4677   -6.4055    8.0893 H   0  0  0  0  0  0  0  0  0  0  0  0
    4.0429   -5.7419    7.6132 H   0  0  0  0  0  0  0  0  0  0  0  0
    3.4902   -8.4700    8.7241 H   0  0  0  0  0  0  0  0  0  0  0  0
    4.6876   -9.2762    6.8137 H   0  0  0  0  0  0  0  0  0  0  0  0
    5.6086   -7.7701    6.7509 H   0  0  0  0  0  0  0  0  0  0  0  0
    5.5964   -6.0185    5.4910 H   0  0  0  0  0  0  0  0  0  0  0  0
    4.6719   -5.3777    0.8095 H   0  0  0  0  0  0  0  0  0  0  0  0
    5.7244   -3.4910   -0.3621 H   0  0  0  0  0  0  0  0  0  0  0  0
    6.2301    1.0647    1.3268 H   0  0  0  0  0  0  0  0  0  0  0  0
  1  2  2  0  0  0  0
  2  3  1  0  0  0  0
  2  9  1  0  0  0  0
  3  4  1  0  0  0  0
  3 34  1  0  0  0  0
  4  5  1  0  0  0  0
  4 35  1  0  0  0  0
  4 36  1  0  0  0  0
  5  6  1  0  0  0  0
  5  7  1  0  0  0  0
  5  8  1  0  0  0  0
  9 10  1  0  0  0  0
  9 37  1  0  0  0  0
 10 11  1  0  0  0  0
 10 33  2  0  0  0  0
 11 12  2  0  0  0  0
 11 38  1  0  0  0  0
 12 13  1  0  0  0  0
 13 14  2  0  0  0  0
 13 39  1  0  0  0  0
 14 15  1  0  0  0  0
 14 33  1  0  0  0  0
 15 16  2  0  0  0  0
 15 32  1  0  0  0  0
 16 17  1  0  0  0  0
 16 40  1  0  0  0  0
 17 18  2  0  0  0  0
 18 19  1  0  0  0  0
 18 32  1  0  0  0  0
 19 20  2  0  0  0  0
 19 41  1  0  0  0  0
 20 21  1  0  0  0  0
 20 30  1  0  0  0  0
 21 22  1  0  0  0  0
 21 29  2  0  0  0  0
 22 23  2  0  0  0  0
 22 42  1  0  0  0  0
 23 24  1  0  0  0  0
 24 25  1  0  0  0  0
 24 29  1  0  0  0  0
 25 26  1  0  0  0  0
 25 28  1  0  0  0  0
 25 43  1  0  0  0  0
 26 27  1  0  0  0  0
 26 44  1  0  0  0  0
 26 45  1  0  0  0  0
 27 28  1  0  0  0  0
 27 46  1  0  0  0  0
 28 47  1  0  0  0  0
 28 48  1  0  0  0  0
 29 49  1  0  0  0  0
 30 31  2  0  0  0  0
 30 50  1  0  0  0  0
 31 32  1  0  0  0  0
 31 51  1  0  0  0  0
 33 52  1  0  0  0  0
M  END
$$$$
