CHEMBL4164127
 OpenBabel04072215383D

 58 62  0  0  0  0  0  0  0  0999 V2000
    0.9775    0.3482    0.0169 O   0  0  0  0  0  0  0  0  0  0  0  0
    2.1835    0.0677    0.0605 C   0  0  0  0  0  0  0  0  0  0  0  0
    2.7098   -1.0573   -0.5702 N   0  0  0  0  0  0  0  0  0  0  0  0
    1.9812   -1.9741   -1.3651 C   0  0  0  0  0  0  0  0  0  0  0  0
    0.7507   -1.6785   -1.9475 C   0  0  0  0  0  0  0  0  0  0  0  0
    0.0778   -2.6222   -2.7352 C   0  0  0  0  0  0  0  0  0  0  0  0
    0.6059   -3.9041   -2.9728 C   0  0  0  0  0  0  0  0  0  0  0  0
   -0.0510   -4.8385   -3.9141 C   0  0  0  0  0  0  0  0  0  0  0  0
    0.7299   -5.6367   -4.7780 C   0  0  0  0  0  0  0  0  0  0  0  0
    0.1639   -6.2945   -5.8678 C   0  0  0  0  0  0  0  0  0  0  0  0
   -1.2118   -6.2311   -6.0409 C   0  0  0  0  0  0  0  0  0  0  0  0
   -1.8789   -6.7455   -7.2581 C   0  0  0  0  0  0  0  0  0  0  0  0
   -1.2914   -6.6707   -8.3283 O   0  0  0  0  0  0  0  0  0  0  0  0
   -3.1637   -7.2404   -7.1194 N   0  0  0  0  0  0  0  0  0  0  0  0
   -3.8435   -6.7320   -6.1480 C   0  0  0  0  0  0  0  0  0  0  0  0
   -3.4316   -5.7785   -5.2485 N   0  0  0  0  0  0  0  0  0  0  0  0
   -2.0444   -5.6467   -5.0801 C   0  0  0  0  0  0  0  0  0  0  0  0
   -1.4577   -4.8945   -4.0604 C   0  0  0  0  0  0  0  0  0  0  0  0
    1.8487   -4.1900   -2.3662 C   0  0  0  0  0  0  0  0  0  0  0  0
    2.5369   -3.2336   -1.6018 C   0  0  0  0  0  0  0  0  0  0  0  0
    3.1812    0.9848    0.8711 C   0  0  0  0  0  0  0  0  0  0  0  0
    4.3975    0.1318    1.3650 C   0  0  0  0  0  0  0  0  0  0  0  0
    5.2742   -0.2616    0.5849 O   0  0  0  0  0  0  0  0  0  0  0  0
    4.3740   -0.2387    2.7033 N   0  0  0  0  0  0  0  0  0  0  0  0
    5.3962   -0.9826    3.3250 C   0  0  0  0  0  0  0  0  0  0  0  0
    5.0237   -1.9756    4.2317 C   0  0  0  0  0  0  0  0  0  0  0  0
    5.9957   -2.7722    4.8367 C   0  0  0  0  0  0  0  0  0  0  0  0
    7.3481   -2.5358    4.5899 C   0  0  0  0  0  0  0  0  0  0  0  0
    7.7434   -1.5039    3.7257 C   0  0  0  0  0  0  0  0  0  0  0  0
    9.2039   -1.1963    3.4995 C   0  0  0  0  0  0  0  0  0  0  0  0
   10.0449   -2.0306    4.1751 F   0  0  0  0  0  0  0  0  0  0  0  0
    9.5671   -1.2838    2.1912 F   0  0  0  0  0  0  0  0  0  0  0  0
    9.5371    0.0631    3.8991 F   0  0  0  0  0  0  0  0  0  0  0  0
    6.7527   -0.7423    3.0794 C   0  0  0  0  0  0  0  0  0  0  0  0
    2.4776    1.9442    1.9069 C   0  0  0  0  0  0  0  0  0  0  0  0
    3.3478    3.0943    1.3926 C   0  0  0  0  0  0  0  0  0  0  0  0
    3.5860    2.2960    0.1048 C   0  0  0  0  0  0  0  0  0  0  0  0
    3.6903   -1.2830   -0.4091 H   0  0  0  0  0  0  0  0  0  0  0  0
    0.2982   -0.6962   -1.8545 H   0  0  0  0  0  0  0  0  0  0  0  0
   -0.8523   -2.3071   -3.2014 H   0  0  0  0  0  0  0  0  0  0  0  0
    1.8101   -5.6909   -4.6639 H   0  0  0  0  0  0  0  0  0  0  0  0
    0.7857   -6.8285   -6.5817 H   0  0  0  0  0  0  0  0  0  0  0  0
   -4.8652   -7.0962   -5.9506 H   0  0  0  0  0  0  0  0  0  0  0  0
   -4.0056   -5.6007   -4.4345 H   0  0  0  0  0  0  0  0  0  0  0  0
   -2.0950   -4.3301   -3.3843 H   0  0  0  0  0  0  0  0  0  0  0  0
    2.3155   -5.1615   -2.4979 H   0  0  0  0  0  0  0  0  0  0  0  0
    3.5037   -3.4993   -1.1776 H   0  0  0  0  0  0  0  0  0  0  0  0
    3.4756   -0.2243    3.1710 H   0  0  0  0  0  0  0  0  0  0  0  0
    3.9756   -2.1840    4.4288 H   0  0  0  0  0  0  0  0  0  0  0  0
    5.6980   -3.5839    5.4962 H   0  0  0  0  0  0  0  0  0  0  0  0
    8.0948   -3.1596    5.0801 H   0  0  0  0  0  0  0  0  0  0  0  0
    7.0561    0.0628    2.4108 H   0  0  0  0  0  0  0  0  0  0  0  0
    2.5987    1.7240    2.9703 H   0  0  0  0  0  0  0  0  0  0  0  0
    1.4072    2.1039    1.7275 H   0  0  0  0  0  0  0  0  0  0  0  0
    4.2522    3.2564    1.9883 H   0  0  0  0  0  0  0  0  0  0  0  0
    2.8295    4.0482    1.2639 H   0  0  0  0  0  0  0  0  0  0  0  0
    4.6135    2.3366   -0.2698 H   0  0  0  0  0  0  0  0  0  0  0  0
    2.9096    2.5632   -0.7154 H   0  0  0  0  0  0  0  0  0  0  0  0
  1  2  2  0  0  0  0
  2  3  1  0  0  0  0
  2 21  1  0  0  0  0
  3  4  1  0  0  0  0
  3 38  1  0  0  0  0
  4  5  1  0  0  0  0
  4 20  2  0  0  0  0
  5  6  2  0  0  0  0
  5 39  1  0  0  0  0
  6  7  1  0  0  0  0
  6 40  1  0  0  0  0
  7  8  1  0  0  0  0
  7 19  2  0  0  0  0
  8  9  1  0  0  0  0
  8 18  2  0  0  0  0
  9 10  2  0  0  0  0
  9 41  1  0  0  0  0
 10 11  1  0  0  0  0
 10 42  1  0  0  0  0
 11 12  1  0  0  0  0
 11 17  2  0  0  0  0
 12 13  2  0  0  0  0
 12 14  1  0  0  0  0
 14 15  2  0  0  0  0
 15 16  1  0  0  0  0
 15 43  1  0  0  0  0
 16 17  1  0  0  0  0
 16 44  1  0  0  0  0
 17 18  1  0  0  0  0
 18 45  1  0  0  0  0
 19 20  1  0  0  0  0
 19 46  1  0  0  0  0
 20 47  1  0  0  0  0
 21 22  1  0  0  0  0
 21 35  1  0  0  0  0
 21 37  1  0  0  0  0
 22 23  2  0  0  0  0
 22 24  1  0  0  0  0
 24 25  1  0  0  0  0
 24 48  1  0  0  0  0
 25 26  1  0  0  0  0
 25 34  2  0  0  0  0
 26 27  2  0  0  0  0
 26 49  1  0  0  0  0
 27 28  1  0  0  0  0
 27 50  1  0  0  0  0
 28 29  2  0  0  0  0
 28 51  1  0  0  0  0
 29 30  1  0  0  0  0
 29 34  1  0  0  0  0
 30 31  1  0  0  0  0
 30 32  1  0  0  0  0
 30 33  1  0  0  0  0
 34 52  1  0  0  0  0
 35 36  1  0  0  0  0
 35 53  1  0  0  0  0
 35 54  1  0  0  0  0
 36 37  1  0  0  0  0
 36 55  1  0  0  0  0
 36 56  1  0  0  0  0
 37 57  1  0  0  0  0
 37 58  1  0  0  0  0
M  END
$$$$
