CHEMBL3964320
 OpenBabel04072215373D

 59 62  0  0  0  0  0  0  0  0999 V2000
    2.9025   -4.6380   -4.6241 C   0  0  0  0  0  0  0  0  0  0  0  0
    2.4088   -3.6683   -6.0709 S   0  0  0  0  0  0  0  0  0  0  0  0
    3.1772   -2.1151   -5.6801 C   0  0  0  0  0  0  0  0  0  0  0  0
    3.8171   -1.9896   -4.5061 N   0  0  0  0  0  0  0  0  0  0  0  0
    4.4141   -0.8088   -4.2766 C   0  0  0  0  0  0  0  0  0  0  0  0
    4.4028    0.2443   -5.1669 C   0  0  0  0  0  0  0  0  0  0  0  0
    3.6960    0.0295   -6.3349 C   0  0  0  0  0  0  0  0  0  0  0  0
    3.0811   -1.1429   -6.6052 N   0  0  0  0  0  0  0  0  0  0  0  0
    3.6489    1.0915   -7.4002 C   0  0  0  0  0  0  0  0  0  0  0  0
    3.9605    2.4734   -6.8236 C   0  0  0  0  0  0  0  0  0  0  0  0
    5.1806    2.4279   -6.0060 N   0  0  0  0  0  0  0  0  0  0  0  0
    6.3857    2.9737   -6.4405 C   0  0  0  0  0  0  0  0  0  0  0  0
    6.6730    3.0317   -7.8306 C   0  0  0  0  0  0  0  0  0  0  0  0
    7.8625    3.5809   -8.3230 C   0  0  0  0  0  0  0  0  0  0  0  0
    8.2571    3.5496   -9.7582 C   0  0  0  0  0  0  0  0  0  0  0  0
    9.4503    3.3923   -9.9891 O   0  0  0  0  0  0  0  0  0  0  0  0
    7.2650    3.7684  -10.7075 N   0  0  0  0  0  0  0  0  0  0  0  0
    7.4949    3.8564  -12.1106 C   0  0  0  0  0  0  0  0  0  0  0  0
    8.6835    3.4324  -12.7132 C   0  0  0  0  0  0  0  0  0  0  0  0
    8.9013    3.6135  -14.0789 C   0  0  0  0  0  0  0  0  0  0  0  0
    7.9315    4.2176  -14.8688 C   0  0  0  0  0  0  0  0  0  0  0  0
    6.7169    4.6350  -14.3048 C   0  0  0  0  0  0  0  0  0  0  0  0
    5.6769    5.3499  -15.1535 C   0  0  0  0  0  0  0  0  0  0  0  0
    6.2268    6.6752  -15.6964 C   0  0  0  0  0  0  0  0  0  0  0  0
    5.1674    4.4788  -16.3062 C   0  0  0  0  0  0  0  0  0  0  0  0
    6.5014    4.4248  -12.9244 C   0  0  0  0  0  0  0  0  0  0  0  0
    8.8006    4.0984   -7.4318 C   0  0  0  0  0  0  0  0  0  0  0  0
    8.5613    4.0521   -6.0675 C   0  0  0  0  0  0  0  0  0  0  0  0
    7.3725    3.4946   -5.5536 C   0  0  0  0  0  0  0  0  0  0  0  0
    7.2405    3.5395   -4.0502 C   0  0  0  0  0  0  0  0  0  0  0  0
    5.1193    1.5227   -4.8552 C   0  0  0  0  0  0  0  0  0  0  0  0
    2.5248   -5.6581   -4.7310 H   0  0  0  0  0  0  0  0  0  0  0  0
    2.4794   -4.2116   -3.7098 H   0  0  0  0  0  0  0  0  0  0  0  0
    3.9924   -4.6866   -4.5365 H   0  0  0  0  0  0  0  0  0  0  0  0
    4.9376   -0.7416   -3.3263 H   0  0  0  0  0  0  0  0  0  0  0  0
    2.6564    1.1063   -7.8661 H   0  0  0  0  0  0  0  0  0  0  0  0
    4.3782    0.8276   -8.1726 H   0  0  0  0  0  0  0  0  0  0  0  0
    3.1323    2.7963   -6.1786 H   0  0  0  0  0  0  0  0  0  0  0  0
    4.0153    3.2219   -7.6226 H   0  0  0  0  0  0  0  0  0  0  0  0
    5.9868    2.5806   -8.5418 H   0  0  0  0  0  0  0  0  0  0  0  0
    6.3504    4.0497  -10.3810 H   0  0  0  0  0  0  0  0  0  0  0  0
    9.4738    2.9526  -12.1465 H   0  0  0  0  0  0  0  0  0  0  0  0
    9.8419    3.2929  -14.5186 H   0  0  0  0  0  0  0  0  0  0  0  0
    8.1387    4.3710  -15.9241 H   0  0  0  0  0  0  0  0  0  0  0  0
    4.8127    5.5898  -14.5214 H   0  0  0  0  0  0  0  0  0  0  0  0
    7.0806    6.5230  -16.3663 H   0  0  0  0  0  0  0  0  0  0  0  0
    6.5532    7.3278  -14.8787 H   0  0  0  0  0  0  0  0  0  0  0  0
    5.4595    7.2088  -16.2663 H   0  0  0  0  0  0  0  0  0  0  0  0
    5.9611    4.2340  -17.0202 H   0  0  0  0  0  0  0  0  0  0  0  0
    4.3774    4.9991  -16.8591 H   0  0  0  0  0  0  0  0  0  0  0  0
    4.7506    3.5371  -15.9324 H   0  0  0  0  0  0  0  0  0  0  0  0
    5.5633    4.7520  -12.4831 H   0  0  0  0  0  0  0  0  0  0  0  0
    9.7317    4.5258   -7.7979 H   0  0  0  0  0  0  0  0  0  0  0  0
    9.3190    4.4563   -5.3981 H   0  0  0  0  0  0  0  0  0  0  0  0
    8.0623    4.1045   -3.5929 H   0  0  0  0  0  0  0  0  0  0  0  0
    7.3060    2.5415   -3.6105 H   0  0  0  0  0  0  0  0  0  0  0  0
    6.3108    4.0310   -3.7542 H   0  0  0  0  0  0  0  0  0  0  0  0
    4.6048    2.0305   -4.0323 H   0  0  0  0  0  0  0  0  0  0  0  0
    6.1176    1.2223   -4.5270 H   0  0  0  0  0  0  0  0  0  0  0  0
  1  2  1  0  0  0  0
  1 32  1  0  0  0  0
  1 33  1  0  0  0  0
  1 34  1  0  0  0  0
  2  3  1  0  0  0  0
  3  4  1  0  0  0  0
  3  8  2  0  0  0  0
  4  5  2  0  0  0  0
  5  6  1  0  0  0  0
  5 35  1  0  0  0  0
  6  7  2  0  0  0  0
  6 31  1  0  0  0  0
  7  8  1  0  0  0  0
  7  9  1  0  0  0  0
  9 10  1  0  0  0  0
  9 36  1  0  0  0  0
  9 37  1  0  0  0  0
 10 11  1  0  0  0  0
 10 38  1  0  0  0  0
 10 39  1  0  0  0  0
 11 12  1  0  0  0  0
 11 31  1  0  0  0  0
 12 13  1  0  0  0  0
 12 29  2  0  0  0  0
 13 14  2  0  0  0  0
 13 40  1  0  0  0  0
 14 15  1  0  0  0  0
 14 27  1  0  0  0  0
 15 16  2  0  0  0  0
 15 17  1  0  0  0  0
 17 18  1  0  0  0  0
 17 41  1  0  0  0  0
 18 19  1  0  0  0  0
 18 26  2  0  0  0  0
 19 20  2  0  0  0  0
 19 42  1  0  0  0  0
 20 21  1  0  0  0  0
 20 43  1  0  0  0  0
 21 22  2  0  0  0  0
 21 44  1  0  0  0  0
 22 23  1  0  0  0  0
 22 26  1  0  0  0  0
 23 24  1  0  0  0  0
 23 25  1  0  0  0  0
 23 45  1  0  0  0  0
 24 46  1  0  0  0  0
 24 47  1  0  0  0  0
 24 48  1  0  0  0  0
 25 49  1  0  0  0  0
 25 50  1  0  0  0  0
 25 51  1  0  0  0  0
 26 52  1  0  0  0  0
 27 28  2  0  0  0  0
 27 53  1  0  0  0  0
 28 29  1  0  0  0  0
 28 54  1  0  0  0  0
 29 30  1  0  0  0  0
 30 55  1  0  0  0  0
 30 56  1  0  0  0  0
 30 57  1  0  0  0  0
 31 58  1  0  0  0  0
 31 59  1  0  0  0  0
M  END
$$$$
