CHEMBL594228
 OpenBabel04072215383D

 71 76  0  0  0  0  0  0  0  0999 V2000
    3.1464   -0.5759   -1.1338 C   0  0  0  0  0  0  0  0  0  0  0  0
    2.4999   -0.1508    0.0609 O   0  0  0  0  0  0  0  0  0  0  0  0
    3.1539    0.6011    0.9899 C   0  0  0  0  0  0  0  0  0  0  0  0
    4.2974    1.3284    0.6778 C   0  0  0  0  0  0  0  0  0  0  0  0
    4.9721    2.0996    1.6411 C   0  0  0  0  0  0  0  0  0  0  0  0
    6.1127    2.8590    1.3535 C   0  0  0  0  0  0  0  0  0  0  0  0
    6.5945    2.9183    0.0159 N   0  0  0  0  0  0  0  0  0  0  0  0
    7.4177    3.9490   -0.4837 C   0  0  0  0  0  0  0  0  0  0  0  0
    7.1704    5.2776   -0.1355 C   0  0  0  0  0  0  0  0  0  0  0  0
    8.0438    6.2878   -0.5239 C   0  0  0  0  0  0  0  0  0  0  0  0
    9.1931    5.9999   -1.2770 C   0  0  0  0  0  0  0  0  0  0  0  0
   10.1840    7.0473   -1.5650 C   0  0  0  0  0  0  0  0  0  0  0  0
   10.9430    7.1093   -2.6395 N   0  0  0  0  0  0  0  0  0  0  0  0
   11.7235    8.2558   -2.6011 C   0  0  0  0  0  0  0  0  0  0  0  0
   12.6189    8.6903   -3.6002 C   0  0  0  0  0  0  0  0  0  0  0  0
   13.3242    9.8863   -3.4287 C   0  0  0  0  0  0  0  0  0  0  0  0
   13.1587   10.6514   -2.2786 C   0  0  0  0  0  0  0  0  0  0  0  0
   12.2896   10.2368   -1.2665 C   0  0  0  0  0  0  0  0  0  0  0  0
   11.5850    9.0382   -1.4565 C   0  0  0  0  0  0  0  0  0  0  0  0
   10.4638    8.2933   -0.4031 S   0  0  0  0  0  0  0  0  0  0  0  0
    9.3832    4.6857   -1.7257 C   0  0  0  0  0  0  0  0  0  0  0  0
    8.4968    3.6803   -1.3327 C   0  0  0  0  0  0  0  0  0  0  0  0
    8.7129    2.4193   -1.7418 F   0  0  0  0  0  0  0  0  0  0  0  0
    6.7417    3.5729    2.3028 N   0  0  0  0  0  0  0  0  0  0  0  0
    6.2171    3.5350    3.5305 C   0  0  0  0  0  0  0  0  0  0  0  0
    5.1066    2.8852    3.8969 N   0  0  0  0  0  0  0  0  0  0  0  0
    4.4818    2.1778    2.9471 C   0  0  0  0  0  0  0  0  0  0  0  0
    3.2926    1.5152    3.2369 C   0  0  0  0  0  0  0  0  0  0  0  0
    2.6223    0.7235    2.2869 C   0  0  0  0  0  0  0  0  0  0  0  0
    1.4409    0.1785    2.7517 O   0  0  0  0  0  0  0  0  0  0  0  0
    1.1147   -1.0969    2.1983 C   0  0  0  0  0  0  0  0  0  0  0  0
   -0.0880   -1.7231    2.9026 C   0  0  0  0  0  0  0  0  0  0  0  0
   -0.3497   -3.1314    2.3388 C   0  0  0  0  0  0  0  0  0  0  0  0
    0.7963   -4.0363    2.5107 N   0  0  0  0  0  0  0  0  0  0  0  0
    1.0850   -4.3105    3.9295 C   0  0  0  0  0  0  0  0  0  0  0  0
    2.2834   -5.2667    4.1009 C   0  0  0  0  0  0  0  0  0  0  0  0
    2.1376   -6.5583    3.4054 N   0  0  0  0  0  0  0  0  0  0  0  0
    1.1469   -7.4076    4.0624 C   0  0  0  0  0  0  0  0  0  0  0  0
    1.7856   -6.3004    1.9938 C   0  0  0  0  0  0  0  0  0  0  0  0
    0.6199   -5.2997    1.7695 C   0  0  0  0  0  0  0  0  0  0  0  0
    3.1747   -1.6694   -1.1436 H   0  0  0  0  0  0  0  0  0  0  0  0
    4.1709   -0.2336   -1.2856 H   0  0  0  0  0  0  0  0  0  0  0  0
    2.5409   -0.2387   -1.9794 H   0  0  0  0  0  0  0  0  0  0  0  0
    4.6755    1.3550   -0.3355 H   0  0  0  0  0  0  0  0  0  0  0  0
    6.8755    2.0007   -0.3173 H   0  0  0  0  0  0  0  0  0  0  0  0
    6.3081    5.5327    0.4761 H   0  0  0  0  0  0  0  0  0  0  0  0
    7.8184    7.3010   -0.2002 H   0  0  0  0  0  0  0  0  0  0  0  0
   12.7461    8.0964   -4.4988 H   0  0  0  0  0  0  0  0  0  0  0  0
   14.0070   10.2221   -4.2064 H   0  0  0  0  0  0  0  0  0  0  0  0
   13.7099   11.5799   -2.1643 H   0  0  0  0  0  0  0  0  0  0  0  0
   12.1583   10.8310   -0.3720 H   0  0  0  0  0  0  0  0  0  0  0  0
   10.2368    4.4262   -2.3467 H   0  0  0  0  0  0  0  0  0  0  0  0
    6.7446    4.0900    4.2993 H   0  0  0  0  0  0  0  0  0  0  0  0
    2.8715    1.6160    4.2358 H   0  0  0  0  0  0  0  0  0  0  0  0
    1.9897   -1.7507    2.2842 H   0  0  0  0  0  0  0  0  0  0  0  0
    0.8102   -0.9868    1.1565 H   0  0  0  0  0  0  0  0  0  0  0  0
   -0.9723   -1.0951    2.7331 H   0  0  0  0  0  0  0  0  0  0  0  0
    0.0492   -1.7324    3.9892 H   0  0  0  0  0  0  0  0  0  0  0  0
   -0.5554   -3.0210    1.2648 H   0  0  0  0  0  0  0  0  0  0  0  0
   -1.2562   -3.5527    2.7897 H   0  0  0  0  0  0  0  0  0  0  0  0
    0.1983   -4.7218    4.4275 H   0  0  0  0  0  0  0  0  0  0  0  0
    1.3470   -3.3834    4.4492 H   0  0  0  0  0  0  0  0  0  0  0  0
    2.4714   -5.4286    5.1692 H   0  0  0  0  0  0  0  0  0  0  0  0
    3.1854   -4.7702    3.7171 H   0  0  0  0  0  0  0  0  0  0  0  0
    1.4013   -7.5457    5.1196 H   0  0  0  0  0  0  0  0  0  0  0  0
    1.1465   -8.4045    3.6094 H   0  0  0  0  0  0  0  0  0  0  0  0
    0.1283   -7.0103    4.0103 H   0  0  0  0  0  0  0  0  0  0  0  0
    1.5617   -7.2458    1.4839 H   0  0  0  0  0  0  0  0  0  0  0  0
    2.6812   -5.9047    1.4956 H   0  0  0  0  0  0  0  0  0  0  0  0
   -0.3270   -5.7780    2.0477 H   0  0  0  0  0  0  0  0  0  0  0  0
    0.5693   -5.0832    0.6949 H   0  0  0  0  0  0  0  0  0  0  0  0
  1  2  1  0  0  0  0
  1 41  1  0  0  0  0
  1 42  1  0  0  0  0
  1 43  1  0  0  0  0
  2  3  1  0  0  0  0
  3  4  1  0  0  0  0
  3 29  2  0  0  0  0
  4  5  2  0  0  0  0
  4 44  1  0  0  0  0
  5  6  1  0  0  0  0
  5 27  1  0  0  0  0
  6  7  1  0  0  0  0
  6 24  2  0  0  0  0
  7  8  1  0  0  0  0
  7 45  1  0  0  0  0
  8  9  1  0  0  0  0
  8 22  2  0  0  0  0
  9 10  2  0  0  0  0
  9 46  1  0  0  0  0
 10 11  1  0  0  0  0
 10 47  1  0  0  0  0
 11 12  1  0  0  0  0
 11 21  2  0  0  0  0
 12 13  2  0  0  0  0
 12 20  1  0  0  0  0
 13 14  1  0  0  0  0
 14 15  1  0  0  0  0
 14 19  2  0  0  0  0
 15 16  2  0  0  0  0
 15 48  1  0  0  0  0
 16 17  1  0  0  0  0
 16 49  1  0  0  0  0
 17 18  2  0  0  0  0
 17 50  1  0  0  0  0
 18 19  1  0  0  0  0
 18 51  1  0  0  0  0
 19 20  1  0  0  0  0
 21 22  1  0  0  0  0
 21 52  1  0  0  0  0
 22 23  1  0  0  0  0
 24 25  1  0  0  0  0
 25 26  2  0  0  0  0
 25 53  1  0  0  0  0
 26 27  1  0  0  0  0
 27 28  2  0  0  0  0
 28 29  1  0  0  0  0
 28 54  1  0  0  0  0
 29 30  1  0  0  0  0
 30 31  1  0  0  0  0
 31 32  1  0  0  0  0
 31 55  1  0  0  0  0
 31 56  1  0  0  0  0
 32 33  1  0  0  0  0
 32 57  1  0  0  0  0
 32 58  1  0  0  0  0
 33 34  1  0  0  0  0
 33 59  1  0  0  0  0
 33 60  1  0  0  0  0
 34 35  1  0  0  0  0
 34 40  1  0  0  0  0
 35 36  1  0  0  0  0
 35 61  1  0  0  0  0
 35 62  1  0  0  0  0
 36 37  1  0  0  0  0
 36 63  1  0  0  0  0
 36 64  1  0  0  0  0
 37 38  1  0  0  0  0
 37 39  1  0  0  0  0
 38 65  1  0  0  0  0
 38 66  1  0  0  0  0
 38 67  1  0  0  0  0
 39 40  1  0  0  0  0
 39 68  1  0  0  0  0
 39 69  1  0  0  0  0
 40 70  1  0  0  0  0
 40 71  1  0  0  0  0
M  END
$$$$
