CHEMBL1242567
 OpenBabel04072215363D

 35 38  0  0  0  0  0  0  0  0999 V2000
    1.1327    0.3663    0.1270 N   0  0  0  0  0  0  0  0  0  0  0  0
    2.5081    0.1752    0.1102 C   0  0  0  0  0  0  0  0  0  0  0  0
    3.2460    1.3022    0.1510 N   0  0  0  0  0  0  0  0  0  0  0  0
    4.5839    1.1973    0.1787 C   0  0  0  0  0  0  0  0  0  0  0  0
    5.3126    0.0762    0.1804 N   0  0  0  0  0  0  0  0  0  0  0  0
    4.5517   -1.0314    0.1096 C   0  0  0  0  0  0  0  0  0  0  0  0
    3.1633   -1.0674    0.0703 C   0  0  0  0  0  0  0  0  0  0  0  0
    2.8342   -2.4588   -0.0137 C   0  0  0  0  0  0  0  0  0  0  0  0
    1.5208   -3.1111   -0.1165 C   0  0  0  0  0  0  0  0  0  0  0  0
    0.4680   -2.5205   -0.8332 C   0  0  0  0  0  0  0  0  0  0  0  0
   -0.7892   -3.1300   -0.9017 C   0  0  0  0  0  0  0  0  0  0  0  0
   -0.9778   -4.3658   -0.3025 C   0  0  0  0  0  0  0  0  0  0  0  0
   -2.1710   -4.9716   -0.3809 F   0  0  0  0  0  0  0  0  0  0  0  0
    0.0680   -4.9919    0.3658 C   0  0  0  0  0  0  0  0  0  0  0  0
   -0.1006   -6.2293    0.9198 O   0  0  0  0  0  0  0  0  0  0  0  0
    1.3085   -4.3703    0.4733 C   0  0  0  0  0  0  0  0  0  0  0  0
    3.9444   -3.2161    0.0097 N   0  0  0  0  0  0  0  0  0  0  0  0
    4.9702   -2.3379    0.0522 N   0  0  0  0  0  0  0  0  0  0  0  0
    6.3177   -2.8439    0.0116 C   0  0  0  0  0  0  0  0  0  0  0  0
    7.1893   -2.4046    1.2066 C   0  0  0  0  0  0  0  0  0  0  0  0
    8.3255   -2.2266    0.2689 N   0  0  0  0  0  0  0  0  0  0  0  0
    7.3347   -2.0331   -0.8191 C   0  0  0  0  0  0  0  0  0  0  0  0
    0.9259    1.3364    0.3455 H   0  0  0  0  0  0  0  0  0  0  0  0
    0.6214   -0.3098    0.6807 H   0  0  0  0  0  0  0  0  0  0  0  0
    5.1355    2.1319    0.2023 H   0  0  0  0  0  0  0  0  0  0  0  0
    0.6117   -1.5833   -1.3660 H   0  0  0  0  0  0  0  0  0  0  0  0
   -1.6074   -2.6529   -1.4315 H   0  0  0  0  0  0  0  0  0  0  0  0
   -0.9978   -6.5285    0.6788 H   0  0  0  0  0  0  0  0  0  0  0  0
    2.1125   -4.8775    1.0027 H   0  0  0  0  0  0  0  0  0  0  0  0
    6.3655   -3.9281   -0.1600 H   0  0  0  0  0  0  0  0  0  0  0  0
    7.3548   -3.1798    1.9630 H   0  0  0  0  0  0  0  0  0  0  0  0
    6.9091   -1.4826    1.7261 H   0  0  0  0  0  0  0  0  0  0  0  0
    8.8930   -3.0674    0.1533 H   0  0  0  0  0  0  0  0  0  0  0  0
    7.6220   -2.4951   -1.7699 H   0  0  0  0  0  0  0  0  0  0  0  0
    7.1331   -0.9784   -1.0215 H   0  0  0  0  0  0  0  0  0  0  0  0
  1  2  1  0  0  0  0
  1 23  1  0  0  0  0
  1 24  1  0  0  0  0
  2  3  1  0  0  0  0
  2  7  2  0  0  0  0
  3  4  2  0  0  0  0
  4  5  1  0  0  0  0
  4 25  1  0  0  0  0
  5  6  2  0  0  0  0
  6  7  1  0  0  0  0
  6 18  1  0  0  0  0
  7  8  1  0  0  0  0
  8  9  1  0  0  0  0
  8 17  2  0  0  0  0
  9 10  1  0  0  0  0
  9 16  2  0  0  0  0
 10 11  2  0  0  0  0
 10 26  1  0  0  0  0
 11 12  1  0  0  0  0
 11 27  1  0  0  0  0
 12 13  1  0  0  0  0
 12 14  2  0  0  0  0
 14 15  1  0  0  0  0
 14 16  1  0  0  0  0
 15 28  1  0  0  0  0
 16 29  1  0  0  0  0
 17 18  1  0  0  0  0
 18 19  1  0  0  0  0
 19 20  1  0  0  0  0
 19 22  1  0  0  0  0
 19 30  1  0  0  0  0
 20 21  1  0  0  0  0
 20 31  1  0  0  0  0
 20 32  1  0  0  0  0
 21 22  1  0  0  0  0
 21 33  1  0  0  0  0
 22 34  1  0  0  0  0
 22 35  1  0  0  0  0
M  END
$$$$
