CHEMBL2000832
 OpenBabel04072215363D

 58 62  0  0  0  0  0  0  0  0999 V2000
    6.7801    3.2782   -2.2723 C   0  0  0  0  0  0  0  0  0  0  0  0
    6.2588    2.1264   -1.6255 O   0  0  0  0  0  0  0  0  0  0  0  0
    5.0549    2.2518   -0.9826 C   0  0  0  0  0  0  0  0  0  0  0  0
    4.3288    3.4445   -0.8660 C   0  0  0  0  0  0  0  0  0  0  0  0
    3.0814    3.4952   -0.2085 C   0  0  0  0  0  0  0  0  0  0  0  0
    2.3122    4.7591   -0.1114 C   0  0  0  0  0  0  0  0  0  0  0  0
    1.5633    5.0650    1.0303 C   0  0  0  0  0  0  0  0  0  0  0  0
    0.8649    6.2659    1.1322 C   0  0  0  0  0  0  0  0  0  0  0  0
    0.9295    7.2179    0.1048 C   0  0  0  0  0  0  0  0  0  0  0  0
    1.6470    6.9519   -1.0569 C   0  0  0  0  0  0  0  0  0  0  0  0
    2.3163    5.7126   -1.1535 C   0  0  0  0  0  0  0  0  0  0  0  0
    1.8142    7.8909   -2.0947 N   0  0  0  0  0  0  0  0  0  0  0  0
    2.2341    9.2238   -1.8940 C   0  0  0  0  0  0  0  0  0  0  0  0
    3.1006    9.7869   -2.8499 C   0  0  0  0  0  0  0  0  0  0  0  0
    3.6275   11.0709   -2.6877 C   0  0  0  0  0  0  0  0  0  0  0  0
    3.2854   11.8315   -1.5698 C   0  0  0  0  0  0  0  0  0  0  0  0
    3.9290   13.1614   -1.3905 C   0  0  0  0  0  0  0  0  0  0  0  0
    5.0046   13.3966   -1.9288 O   0  0  0  0  0  0  0  0  0  0  0  0
    3.2534   14.0778   -0.6119 N   0  0  0  0  0  0  0  0  0  0  0  0
    3.7815   15.4099   -0.4151 C   0  0  0  0  0  0  0  0  0  0  0  0
    3.3234   15.9937    0.8965 C   0  0  0  0  0  0  0  0  0  0  0  0
    2.6263   17.2102    0.9402 C   0  0  0  0  0  0  0  0  0  0  0  0
    2.2464   17.7708    2.1654 C   0  0  0  0  0  0  0  0  0  0  0  0
    2.5599   17.1193    3.3570 C   0  0  0  0  0  0  0  0  0  0  0  0
    3.2484   15.9139    3.3152 C   0  0  0  0  0  0  0  0  0  0  0  0
    3.5524   15.2877    4.4595 F   0  0  0  0  0  0  0  0  0  0  0  0
    3.6337   15.3493    2.1037 C   0  0  0  0  0  0  0  0  0  0  0  0
    2.3842   11.3073   -0.6387 C   0  0  0  0  0  0  0  0  0  0  0  0
    1.8399   10.0215   -0.8059 C   0  0  0  0  0  0  0  0  0  0  0  0
    0.8273    9.6772    0.1020 N   0  0  0  0  0  0  0  0  0  0  0  0
    0.2183    8.4807    0.3545 C   0  0  0  0  0  0  0  0  0  0  0  0
   -0.8499    8.4643    0.9670 O   0  0  0  0  0  0  0  0  0  0  0  0
    2.6006    2.3029    0.3620 C   0  0  0  0  0  0  0  0  0  0  0  0
    3.3208    1.1096    0.2728 C   0  0  0  0  0  0  0  0  0  0  0  0
    4.5354    1.0884   -0.4056 C   0  0  0  0  0  0  0  0  0  0  0  0
    5.2320   -0.0850   -0.5141 O   0  0  0  0  0  0  0  0  0  0  0  0
    7.7200    2.9956   -2.7560 H   0  0  0  0  0  0  0  0  0  0  0  0
    7.0039    4.0687   -1.5482 H   0  0  0  0  0  0  0  0  0  0  0  0
    6.1000    3.6370   -3.0524 H   0  0  0  0  0  0  0  0  0  0  0  0
    4.7344    4.3641   -1.2744 H   0  0  0  0  0  0  0  0  0  0  0  0
    1.5307    4.3835    1.8790 H   0  0  0  0  0  0  0  0  0  0  0  0
    0.2918    6.4762    2.0342 H   0  0  0  0  0  0  0  0  0  0  0  0
    2.8799    5.4983   -2.0594 H   0  0  0  0  0  0  0  0  0  0  0  0
    2.2133    7.4779   -2.9316 H   0  0  0  0  0  0  0  0  0  0  0  0
    3.3956    9.2187   -3.7295 H   0  0  0  0  0  0  0  0  0  0  0  0
    4.3167   11.4686   -3.4308 H   0  0  0  0  0  0  0  0  0  0  0  0
    2.2752   13.9355   -0.4042 H   0  0  0  0  0  0  0  0  0  0  0  0
    3.4344   16.0163   -1.2588 H   0  0  0  0  0  0  0  0  0  0  0  0
    4.8769   15.3980   -0.4456 H   0  0  0  0  0  0  0  0  0  0  0  0
    2.3818   17.7406    0.0219 H   0  0  0  0  0  0  0  0  0  0  0  0
    1.7147   18.7190    2.1895 H   0  0  0  0  0  0  0  0  0  0  0  0
    2.2796   17.5455    4.3150 H   0  0  0  0  0  0  0  0  0  0  0  0
    4.1847   14.4125    2.1095 H   0  0  0  0  0  0  0  0  0  0  0  0
    2.1296   11.8751    0.2520 H   0  0  0  0  0  0  0  0  0  0  0  0
    0.3903   10.4286    0.6201 H   0  0  0  0  0  0  0  0  0  0  0  0
    1.6442    2.2845    0.8808 H   0  0  0  0  0  0  0  0  0  0  0  0
    2.9157    0.2132    0.7317 H   0  0  0  0  0  0  0  0  0  0  0  0
    4.7278   -0.7941   -0.0867 H   0  0  0  0  0  0  0  0  0  0  0  0
  1  2  1  0  0  0  0
  1 37  1  0  0  0  0
  1 38  1  0  0  0  0
  1 39  1  0  0  0  0
  2  3  1  0  0  0  0
  3  4  1  0  0  0  0
  3 35  2  0  0  0  0
  4  5  2  0  0  0  0
  4 40  1  0  0  0  0
  5  6  1  0  0  0  0
  5 33  1  0  0  0  0
  6  7  1  0  0  0  0
  6 11  2  0  0  0  0
  7  8  2  0  0  0  0
  7 41  1  0  0  0  0
  8  9  1  0  0  0  0
  8 42  1  0  0  0  0
  9 10  2  0  0  0  0
  9 31  1  0  0  0  0
 10 11  1  0  0  0  0
 10 12  1  0  0  0  0
 11 43  1  0  0  0  0
 12 13  1  0  0  0  0
 12 44  1  0  0  0  0
 13 14  1  0  0  0  0
 13 29  2  0  0  0  0
 14 15  2  0  0  0  0
 14 45  1  0  0  0  0
 15 16  1  0  0  0  0
 15 46  1  0  0  0  0
 16 17  1  0  0  0  0
 16 28  2  0  0  0  0
 17 18  2  0  0  0  0
 17 19  1  0  0  0  0
 19 20  1  0  0  0  0
 19 47  1  0  0  0  0
 20 21  1  0  0  0  0
 20 48  1  0  0  0  0
 20 49  1  0  0  0  0
 21 22  1  0  0  0  0
 21 27  2  0  0  0  0
 22 23  2  0  0  0  0
 22 50  1  0  0  0  0
 23 24  1  0  0  0  0
 23 51  1  0  0  0  0
 24 25  2  0  0  0  0
 24 52  1  0  0  0  0
 25 26  1  0  0  0  0
 25 27  1  0  0  0  0
 27 53  1  0  0  0  0
 28 29  1  0  0  0  0
 28 54  1  0  0  0  0
 29 30  1  0  0  0  0
 30 31  1  0  0  0  0
 30 55  1  0  0  0  0
 31 32  2  0  0  0  0
 33 34  2  0  0  0  0
 33 56  1  0  0  0  0
 34 35  1  0  0  0  0
 34 57  1  0  0  0  0
 35 36  1  0  0  0  0
 36 58  1  0  0  0  0
M  END
$$$$
