CHEMBL1982135
 OpenBabel04072215363D

 48 52  0  0  0  0  0  0  0  0999 V2000
   -1.1085   -3.0012    1.2923 C   0  0  0  0  0  0  0  0  0  0  0  0
   -0.2310   -1.8954    1.8200 C   0  0  0  0  0  0  0  0  0  0  0  0
   -0.8999   -0.9465    2.6442 C   0  0  0  0  0  0  0  0  0  0  0  0
   -0.2275    0.1377    3.1996 C   0  0  0  0  0  0  0  0  0  0  0  0
    1.1216    0.2802    2.9355 C   0  0  0  0  0  0  0  0  0  0  0  0
    1.8016   -0.6438    2.1291 C   0  0  0  0  0  0  0  0  0  0  0  0
    1.1685   -1.7546    1.5358 C   0  0  0  0  0  0  0  0  0  0  0  0
    1.9126   -2.6810    0.6866 N   0  0  0  0  0  0  0  0  0  0  0  0
    3.2941   -2.5943    0.3303 C   0  0  0  0  0  0  0  0  0  0  0  0
    4.0681   -1.7300    0.7089 O   0  0  0  0  0  0  0  0  0  0  0  0
    3.7033   -3.6265   -0.5059 N   0  0  0  0  0  0  0  0  0  0  0  0
    5.0288   -3.8877   -1.0774 C   0  0  0  0  0  0  0  0  0  0  0  0
    6.1736   -3.0695   -1.0221 C   0  0  0  0  0  0  0  0  0  0  0  0
    7.4617   -3.4651   -1.6235 C   0  0  0  0  0  0  0  0  0  0  0  0
    7.6795   -4.7271   -2.2148 C   0  0  0  0  0  0  0  0  0  0  0  0
    6.5705   -5.5813   -1.9307 C   0  0  0  0  0  0  0  0  0  0  0  0
    5.2428   -5.1382   -1.6251 C   0  0  0  0  0  0  0  0  0  0  0  0
    6.9438   -6.8725   -1.1578 C   0  0  0  0  0  0  0  0  0  0  0  0
    8.1466   -6.4952   -0.2377 C   0  0  0  0  0  0  0  0  0  0  0  0
    9.2464   -6.2583   -1.2199 C   0  0  0  0  0  0  0  0  0  0  0  0
   10.4117   -7.4766   -1.3615 S   0  0  0  0  0  0  0  0  0  0  0  0
   10.0734   -7.5210   -3.0247 C   0  0  0  0  0  0  0  0  0  0  0  0
   10.3521   -8.6342   -3.7203 N   0  0  0  0  0  0  0  0  0  0  0  0
   10.4835   -8.3916   -5.0130 C   0  0  0  0  0  0  0  0  0  0  0  0
   10.5311   -7.1775   -5.5640 N   0  0  0  0  0  0  0  0  0  0  0  0
   10.2594   -6.0813   -4.8024 C   0  0  0  0  0  0  0  0  0  0  0  0
   10.8792   -4.9340   -5.3152 N   0  0  0  0  0  0  0  0  0  0  0  0
    9.7460   -6.2369   -3.4830 C   0  0  0  0  0  0  0  0  0  0  0  0
    9.0878   -5.4363   -2.3419 C   0  0  0  0  0  0  0  0  0  0  0  0
   -2.1349   -2.9213    1.6852 H   0  0  0  0  0  0  0  0  0  0  0  0
   -0.7352   -3.9781    1.6060 H   0  0  0  0  0  0  0  0  0  0  0  0
   -1.1877   -2.9436    0.2042 H   0  0  0  0  0  0  0  0  0  0  0  0
   -1.9652   -1.0423    2.8619 H   0  0  0  0  0  0  0  0  0  0  0  0
   -0.7528    0.8564    3.8276 H   0  0  0  0  0  0  0  0  0  0  0  0
    1.6691    1.1233    3.3534 H   0  0  0  0  0  0  0  0  0  0  0  0
    2.8518   -0.4567    1.9766 H   0  0  0  0  0  0  0  0  0  0  0  0
    1.3523   -3.4285    0.3080 H   0  0  0  0  0  0  0  0  0  0  0  0
    3.0263   -4.3741   -0.6472 H   0  0  0  0  0  0  0  0  0  0  0  0
    6.1452   -2.1379   -0.4516 H   0  0  0  0  0  0  0  0  0  0  0  0
    8.3071   -2.7970   -1.4461 H   0  0  0  0  0  0  0  0  0  0  0  0
    4.4582   -5.8893   -1.5710 H   0  0  0  0  0  0  0  0  0  0  0  0
    7.1914   -7.6566   -1.8825 H   0  0  0  0  0  0  0  0  0  0  0  0
    6.1181   -7.2119   -0.5364 H   0  0  0  0  0  0  0  0  0  0  0  0
    8.3823   -7.3088    0.4549 H   0  0  0  0  0  0  0  0  0  0  0  0
    7.9724   -5.5901    0.3573 H   0  0  0  0  0  0  0  0  0  0  0  0
   10.6551   -9.2494   -5.6578 H   0  0  0  0  0  0  0  0  0  0  0  0
   11.4923   -5.2888   -6.0589 H   0  0  0  0  0  0  0  0  0  0  0  0
   11.4398   -4.4792   -4.5990 H   0  0  0  0  0  0  0  0  0  0  0  0
  1  2  1  0  0  0  0
  1 30  1  0  0  0  0
  1 31  1  0  0  0  0
  1 32  1  0  0  0  0
  2  3  1  0  0  0  0
  2  7  2  0  0  0  0
  3  4  2  0  0  0  0
  3 33  1  0  0  0  0
  4  5  1  0  0  0  0
  4 34  1  0  0  0  0
  5  6  2  0  0  0  0
  5 35  1  0  0  0  0
  6  7  1  0  0  0  0
  6 36  1  0  0  0  0
  7  8  1  0  0  0  0
  8  9  1  0  0  0  0
  8 37  1  0  0  0  0
  9 10  2  0  0  0  0
  9 11  1  0  0  0  0
 11 12  1  0  0  0  0
 11 38  1  0  0  0  0
 12 13  1  0  0  0  0
 12 17  2  0  0  0  0
 13 14  2  0  0  0  0
 13 39  1  0  0  0  0
 14 15  1  0  0  0  0
 14 40  1  0  0  0  0
 15 16  2  0  0  0  0
 15 29  1  0  0  0  0
 16 17  1  0  0  0  0
 16 18  1  0  0  0  0
 17 41  1  0  0  0  0
 18 19  1  0  0  0  0
 18 42  1  0  0  0  0
 18 43  1  0  0  0  0
 19 20  1  0  0  0  0
 19 44  1  0  0  0  0
 19 45  1  0  0  0  0
 20 21  1  0  0  0  0
 20 29  2  0  0  0  0
 21 22  1  0  0  0  0
 22 23  1  0  0  0  0
 22 28  2  0  0  0  0
 23 24  2  0  0  0  0
 24 25  1  0  0  0  0
 24 46  1  0  0  0  0
 25 26  2  0  0  0  0
 26 27  1  0  0  0  0
 26 28  1  0  0  0  0
 27 47  1  0  0  0  0
 27 48  1  0  0  0  0
 28 29  1  0  0  0  0
M  END
$$$$
