CHEMBL3287595
 OpenBabel04072215363D

 62 66  0  0  0  0  0  0  0  0999 V2000
    0.7358    1.1572  -11.2329 C   0  0  0  0  0  0  0  0  0  0  0  0
    2.0013    0.5978  -10.8969 O   0  0  0  0  0  0  0  0  0  0  0  0
    2.3078    0.5639   -9.5621 C   0  0  0  0  0  0  0  0  0  0  0  0
    1.5096    1.0767   -8.5399 C   0  0  0  0  0  0  0  0  0  0  0  0
    1.9197    0.9821   -7.2170 C   0  0  0  0  0  0  0  0  0  0  0  0
    3.1296    0.3678   -6.9126 C   0  0  0  0  0  0  0  0  0  0  0  0
    3.9559   -0.1568   -7.9134 C   0  0  0  0  0  0  0  0  0  0  0  0
    5.1363   -0.8525   -7.6184 N   0  0  0  0  0  0  0  0  0  0  0  0
    5.6509   -1.2262   -6.3809 C   0  0  0  0  0  0  0  0  0  0  0  0
    4.8451   -1.4898   -5.3365 N   0  0  0  0  0  0  0  0  0  0  0  0
    5.4069   -1.8290   -4.1688 C   0  0  0  0  0  0  0  0  0  0  0  0
    6.7569   -1.9387   -3.9959 C   0  0  0  0  0  0  0  0  0  0  0  0
    7.4997   -1.6963   -5.1250 C   0  0  0  0  0  0  0  0  0  0  0  0
    8.8769   -1.8347   -5.0160 O   0  0  0  0  0  0  0  0  0  0  0  0
    9.5530   -2.2331   -6.1461 C   0  0  0  0  0  0  0  0  0  0  0  0
    9.0697   -3.2096   -7.0193 C   0  0  0  0  0  0  0  0  0  0  0  0
    9.8276   -3.6050   -8.1225 C   0  0  0  0  0  0  0  0  0  0  0  0
   11.0979   -3.0704   -8.3455 C   0  0  0  0  0  0  0  0  0  0  0  0
   11.9307   -3.5054   -9.3972 N   0  0  0  0  0  0  0  0  0  0  0  0
   11.7484   -4.6424  -10.1683 C   0  0  0  0  0  0  0  0  0  0  0  0
   10.8664   -5.4831  -10.0662 O   0  0  0  0  0  0  0  0  0  0  0  0
   12.7939   -4.8320  -11.2251 C   0  0  0  0  0  0  0  0  0  0  0  0
   14.1363   -5.2619  -10.7220 C   0  0  0  0  0  0  0  0  0  0  0  0
   14.8412   -4.3990  -10.2151 O   0  0  0  0  0  0  0  0  0  0  0  0
   14.4410   -6.6029  -10.8974 N   0  0  0  0  0  0  0  0  0  0  0  0
   15.6606   -7.2198  -10.5387 C   0  0  0  0  0  0  0  0  0  0  0  0
   16.5812   -6.6236   -9.6694 C   0  0  0  0  0  0  0  0  0  0  0  0
   17.8200   -7.2180   -9.4196 C   0  0  0  0  0  0  0  0  0  0  0  0
   18.1349   -8.4220  -10.0294 C   0  0  0  0  0  0  0  0  0  0  0  0
   19.3386   -8.9714   -9.8226 F   0  0  0  0  0  0  0  0  0  0  0  0
   17.2163   -9.0616  -10.8530 C   0  0  0  0  0  0  0  0  0  0  0  0
   15.9704   -8.4688  -11.0967 C   0  0  0  0  0  0  0  0  0  0  0  0
   12.7660   -3.8195  -12.3757 C   0  0  0  0  0  0  0  0  0  0  0  0
   12.3524   -5.2330  -12.6313 C   0  0  0  0  0  0  0  0  0  0  0  0
   11.5737   -2.0758   -7.4835 C   0  0  0  0  0  0  0  0  0  0  0  0
   10.8065   -1.6760   -6.3870 C   0  0  0  0  0  0  0  0  0  0  0  0
   11.3002   -0.7491   -5.5517 F   0  0  0  0  0  0  0  0  0  0  0  0
    6.9797   -1.3277   -6.3107 N   0  0  0  0  0  0  0  0  0  0  0  0
    3.5244   -0.0529   -9.2438 C   0  0  0  0  0  0  0  0  0  0  0  0
    0.6159    1.0999  -12.3182 H   0  0  0  0  0  0  0  0  0  0  0  0
    0.6849    2.2136  -10.9473 H   0  0  0  0  0  0  0  0  0  0  0  0
   -0.0799    0.5856  -10.7765 H   0  0  0  0  0  0  0  0  0  0  0  0
    0.5556    1.5568   -8.7363 H   0  0  0  0  0  0  0  0  0  0  0  0
    1.3028    1.3773   -6.4156 H   0  0  0  0  0  0  0  0  0  0  0  0
    3.4213    0.3208   -5.8683 H   0  0  0  0  0  0  0  0  0  0  0  0
    5.8838   -0.7668   -8.2928 H   0  0  0  0  0  0  0  0  0  0  0  0
    4.7087   -2.0143   -3.3590 H   0  0  0  0  0  0  0  0  0  0  0  0
    7.2002   -2.2168   -3.0511 H   0  0  0  0  0  0  0  0  0  0  0  0
    8.0968   -3.6695   -6.8674 H   0  0  0  0  0  0  0  0  0  0  0  0
    9.3885   -4.3367   -8.7935 H   0  0  0  0  0  0  0  0  0  0  0  0
   12.8124   -3.0146   -9.5222 H   0  0  0  0  0  0  0  0  0  0  0  0
   13.7732   -7.1673  -11.4110 H   0  0  0  0  0  0  0  0  0  0  0  0
   16.3590   -5.6924   -9.1581 H   0  0  0  0  0  0  0  0  0  0  0  0
   18.5352   -6.7376   -8.7605 H   0  0  0  0  0  0  0  0  0  0  0  0
   17.4847  -10.0083  -11.3119 H   0  0  0  0  0  0  0  0  0  0  0  0
   15.2749   -8.9797  -11.7574 H   0  0  0  0  0  0  0  0  0  0  0  0
   13.7142   -3.4770  -12.7763 H   0  0  0  0  0  0  0  0  0  0  0  0
   11.9906   -3.0599  -12.3761 H   0  0  0  0  0  0  0  0  0  0  0  0
   13.0100   -5.8321  -13.2500 H   0  0  0  0  0  0  0  0  0  0  0  0
   11.2979   -5.4383  -12.7879 H   0  0  0  0  0  0  0  0  0  0  0  0
   12.5481   -1.6182   -7.6211 H   0  0  0  0  0  0  0  0  0  0  0  0
    4.1299   -0.4662  -10.0474 H   0  0  0  0  0  0  0  0  0  0  0  0
  1  2  1  0  0  0  0
  1 40  1  0  0  0  0
  1 41  1  0  0  0  0
  1 42  1  0  0  0  0
  2  3  1  0  0  0  0
  3  4  1  0  0  0  0
  3 39  2  0  0  0  0
  4  5  2  0  0  0  0
  4 43  1  0  0  0  0
  5  6  1  0  0  0  0
  5 44  1  0  0  0  0
  6  7  2  0  0  0  0
  6 45  1  0  0  0  0
  7  8  1  0  0  0  0
  7 39  1  0  0  0  0
  8  9  1  0  0  0  0
  8 46  1  0  0  0  0
  9 10  1  0  0  0  0
  9 38  2  0  0  0  0
 10 11  2  0  0  0  0
 11 12  1  0  0  0  0
 11 47  1  0  0  0  0
 12 13  2  0  0  0  0
 12 48  1  0  0  0  0
 13 14  1  0  0  0  0
 13 38  1  0  0  0  0
 14 15  1  0  0  0  0
 15 16  1  0  0  0  0
 15 36  2  0  0  0  0
 16 17  2  0  0  0  0
 16 49  1  0  0  0  0
 17 18  1  0  0  0  0
 17 50  1  0  0  0  0
 18 19  1  0  0  0  0
 18 35  2  0  0  0  0
 19 20  1  0  0  0  0
 19 51  1  0  0  0  0
 20 21  2  0  0  0  0
 20 22  1  0  0  0  0
 22 23  1  0  0  0  0
 22 33  1  0  0  0  0
 22 34  1  0  0  0  0
 23 24  2  0  0  0  0
 23 25  1  0  0  0  0
 25 26  1  0  0  0  0
 25 52  1  0  0  0  0
 26 27  1  0  0  0  0
 26 32  2  0  0  0  0
 27 28  2  0  0  0  0
 27 53  1  0  0  0  0
 28 29  1  0  0  0  0
 28 54  1  0  0  0  0
 29 30  1  0  0  0  0
 29 31  2  0  0  0  0
 31 32  1  0  0  0  0
 31 55  1  0  0  0  0
 32 56  1  0  0  0  0
 33 34  1  0  0  0  0
 33 57  1  0  0  0  0
 33 58  1  0  0  0  0
 34 59  1  0  0  0  0
 34 60  1  0  0  0  0
 35 36  1  0  0  0  0
 35 61  1  0  0  0  0
 36 37  1  0  0  0  0
 39 62  1  0  0  0  0
M  END
$$$$
