CHEMBL494084
 OpenBabel04072215383D

 61 64  0  0  0  0  0  0  0  0999 V2000
    8.3378    1.1438    4.5492 C   0  0  0  0  0  0  0  0  0  0  0  0
    8.0060    0.2750    3.4741 O   0  0  0  0  0  0  0  0  0  0  0  0
    6.6364    0.4148    3.0802 C   0  0  0  0  0  0  0  0  0  0  0  0
    6.3836   -0.4276    1.8294 C   0  0  0  0  0  0  0  0  0  0  0  0
    6.6543   -1.8376    2.0514 N   0  0  0  0  0  0  0  0  0  0  0  0
    6.5884   -2.7499    1.0194 C   0  0  0  0  0  0  0  0  0  0  0  0
    6.2265   -2.4493   -0.1124 O   0  0  0  0  0  0  0  0  0  0  0  0
    6.9825   -4.1528    1.3540 C   0  0  0  0  0  0  0  0  0  0  0  0
    8.0449   -4.3796    2.2432 C   0  0  0  0  0  0  0  0  0  0  0  0
    8.4337   -5.6808    2.5728 C   0  0  0  0  0  0  0  0  0  0  0  0
    7.7839   -6.7738    2.0020 C   0  0  0  0  0  0  0  0  0  0  0  0
    6.7200   -6.5735    1.1157 C   0  0  0  0  0  0  0  0  0  0  0  0
    6.3146   -5.2560    0.7919 C   0  0  0  0  0  0  0  0  0  0  0  0
    5.1030   -5.1547   -0.1018 C   0  0  0  0  0  0  0  0  0  0  0  0
    4.1052   -6.2109    0.3862 C   0  0  0  0  0  0  0  0  0  0  0  0
    4.5721   -7.5943    0.2076 N   0  0  0  0  0  0  0  0  0  0  0  0
    4.2086   -8.1552   -1.1070 C   0  0  0  0  0  0  0  0  0  0  0  0
    2.7272   -8.2449   -1.4044 C   0  0  0  0  0  0  0  0  0  0  0  0
    2.1991   -7.4603   -2.4426 C   0  0  0  0  0  0  0  0  0  0  0  0
    0.8676   -7.6026   -2.7711 C   0  0  0  0  0  0  0  0  0  0  0  0
    0.0411   -8.4748   -2.1642 N   0  0  0  0  0  0  0  0  0  0  0  0
    0.5331   -9.2219   -1.1638 C   0  0  0  0  0  0  0  0  0  0  0  0
   -0.3103  -10.1404   -0.5565 C   0  0  0  0  0  0  0  0  0  0  0  0
    0.0586  -10.9664    0.5300 C   0  0  0  0  0  0  0  0  0  0  0  0
   -1.0266  -11.7021    0.8993 O   0  0  0  0  0  0  0  0  0  0  0  0
   -0.9806  -12.7042    1.8827 C   0  0  0  0  0  0  0  0  0  0  0  0
    1.3396  -10.8204    1.0547 C   0  0  0  0  0  0  0  0  0  0  0  0
    1.8355  -11.2442    2.2565 O   0  0  0  0  0  0  0  0  0  0  0  0
    1.9336  -12.6304    2.5364 C   0  0  0  0  0  0  0  0  0  0  0  0
    2.2207   -9.9172    0.4236 C   0  0  0  0  0  0  0  0  0  0  0  0
    1.8556   -9.1320   -0.7053 C   0  0  0  0  0  0  0  0  0  0  0  0
    6.0332   -7.7443    0.4308 C   0  0  0  0  0  0  0  0  0  0  0  0
    9.3515    0.9053    4.8824 H   0  0  0  0  0  0  0  0  0  0  0  0
    7.6510    1.0020    5.3889 H   0  0  0  0  0  0  0  0  0  0  0  0
    8.3166    2.1858    4.2157 H   0  0  0  0  0  0  0  0  0  0  0  0
    6.4152    1.4667    2.8664 H   0  0  0  0  0  0  0  0  0  0  0  0
    5.9976    0.0737    3.9030 H   0  0  0  0  0  0  0  0  0  0  0  0
    7.0271   -0.0931    1.0081 H   0  0  0  0  0  0  0  0  0  0  0  0
    5.3401   -0.3313    1.5105 H   0  0  0  0  0  0  0  0  0  0  0  0
    7.0118   -2.1071    2.9579 H   0  0  0  0  0  0  0  0  0  0  0  0
    8.5968   -3.5489    2.6756 H   0  0  0  0  0  0  0  0  0  0  0  0
    9.2544   -5.8398    3.2683 H   0  0  0  0  0  0  0  0  0  0  0  0
    8.1104   -7.7805    2.2545 H   0  0  0  0  0  0  0  0  0  0  0  0
    5.3929   -5.3253   -1.1456 H   0  0  0  0  0  0  0  0  0  0  0  0
    4.6125   -4.1810   -0.0371 H   0  0  0  0  0  0  0  0  0  0  0  0
    3.1255   -6.0399   -0.0691 H   0  0  0  0  0  0  0  0  0  0  0  0
    3.9358   -6.0658    1.4639 H   0  0  0  0  0  0  0  0  0  0  0  0
    4.5976   -9.1804   -1.1866 H   0  0  0  0  0  0  0  0  0  0  0  0
    4.7050   -7.5924   -1.9031 H   0  0  0  0  0  0  0  0  0  0  0  0
    2.8165   -6.7586   -2.9882 H   0  0  0  0  0  0  0  0  0  0  0  0
    0.4150   -7.0078   -3.5598 H   0  0  0  0  0  0  0  0  0  0  0  0
   -1.3310  -10.2086   -0.9319 H   0  0  0  0  0  0  0  0  0  0  0  0
   -1.9723  -13.1674    1.9245 H   0  0  0  0  0  0  0  0  0  0  0  0
   -0.7864  -12.2746    2.8668 H   0  0  0  0  0  0  0  0  0  0  0  0
   -0.2931  -13.5068    1.6097 H   0  0  0  0  0  0  0  0  0  0  0  0
    2.9158  -12.8403    2.9736 H   0  0  0  0  0  0  0  0  0  0  0  0
    1.8090  -13.2767    1.6639 H   0  0  0  0  0  0  0  0  0  0  0  0
    1.2099  -12.8673    3.3214 H   0  0  0  0  0  0  0  0  0  0  0  0
    3.2118   -9.7812    0.8550 H   0  0  0  0  0  0  0  0  0  0  0  0
    6.5663   -7.8885   -0.5200 H   0  0  0  0  0  0  0  0  0  0  0  0
    6.1852   -8.6575    1.0187 H   0  0  0  0  0  0  0  0  0  0  0  0
  1  2  1  0  0  0  0
  1 33  1  0  0  0  0
  1 34  1  0  0  0  0
  1 35  1  0  0  0  0
  2  3  1  0  0  0  0
  3  4  1  0  0  0  0
  3 36  1  0  0  0  0
  3 37  1  0  0  0  0
  4  5  1  0  0  0  0
  4 38  1  0  0  0  0
  4 39  1  0  0  0  0
  5  6  1  0  0  0  0
  5 40  1  0  0  0  0
  6  7  2  0  0  0  0
  6  8  1  0  0  0  0
  8  9  1  0  0  0  0
  8 13  2  0  0  0  0
  9 10  2  0  0  0  0
  9 41  1  0  0  0  0
 10 11  1  0  0  0  0
 10 42  1  0  0  0  0
 11 12  2  0  0  0  0
 11 43  1  0  0  0  0
 12 13  1  0  0  0  0
 12 32  1  0  0  0  0
 13 14  1  0  0  0  0
 14 15  1  0  0  0  0
 14 44  1  0  0  0  0
 14 45  1  0  0  0  0
 15 16  1  0  0  0  0
 15 46  1  0  0  0  0
 15 47  1  0  0  0  0
 16 17  1  0  0  0  0
 16 32  1  0  0  0  0
 17 18  1  0  0  0  0
 17 48  1  0  0  0  0
 17 49  1  0  0  0  0
 18 19  1  0  0  0  0
 18 31  2  0  0  0  0
 19 20  2  0  0  0  0
 19 50  1  0  0  0  0
 20 21  1  0  0  0  0
 20 51  1  0  0  0  0
 21 22  2  0  0  0  0
 22 23  1  0  0  0  0
 22 31  1  0  0  0  0
 23 24  2  0  0  0  0
 23 52  1  0  0  0  0
 24 25  1  0  0  0  0
 24 27  1  0  0  0  0
 25 26  1  0  0  0  0
 26 53  1  0  0  0  0
 26 54  1  0  0  0  0
 26 55  1  0  0  0  0
 27 28  1  0  0  0  0
 27 30  2  0  0  0  0
 28 29  1  0  0  0  0
 29 56  1  0  0  0  0
 29 57  1  0  0  0  0
 29 58  1  0  0  0  0
 30 31  1  0  0  0  0
 30 59  1  0  0  0  0
 32 60  1  0  0  0  0
 32 61  1  0  0  0  0
M  END
$$$$
