CHEMBL2036725
 OpenBabel04072215363D

 38 41  0  0  0  0  0  0  0  0999 V2000
   -0.9575   -2.9324    1.3290 C   0  0  0  0  0  0  0  0  0  0  0  0
   -0.9148   -1.6220    0.7211 N   0  0  0  0  0  0  0  0  0  0  0  0
   -1.9307   -0.9411    0.0693 C   0  0  0  0  0  0  0  0  0  0  0  0
   -3.3155   -1.3943   -0.0629 C   0  0  0  0  0  0  0  0  0  0  0  0
   -4.0885   -1.0778   -1.1514 C   0  0  0  0  0  0  0  0  0  0  0  0
   -5.3596   -1.6003   -1.1389 C   0  0  0  0  0  0  0  0  0  0  0  0
   -5.8430   -2.3703   -0.1435 N   0  0  0  0  0  0  0  0  0  0  0  0
   -5.0364   -2.5794    0.9035 C   0  0  0  0  0  0  0  0  0  0  0  0
   -5.5070   -3.3684    1.9488 N   0  0  0  0  0  0  0  0  0  0  0  0
   -5.1217   -3.3269    3.2975 C   0  0  0  0  0  0  0  0  0  0  0  0
   -4.5985   -2.1668    3.8880 C   0  0  0  0  0  0  0  0  0  0  0  0
   -4.1552   -2.1641    5.2111 C   0  0  0  0  0  0  0  0  0  0  0  0
   -4.2124   -3.3333    5.9615 C   0  0  0  0  0  0  0  0  0  0  0  0
   -4.7296   -4.4958    5.3931 C   0  0  0  0  0  0  0  0  0  0  0  0
   -5.1924   -4.4894    4.0737 C   0  0  0  0  0  0  0  0  0  0  0  0
   -3.7829   -2.1131    0.9718 N   0  0  0  0  0  0  0  0  0  0  0  0
   -1.4657    0.1964   -0.4269 N   0  0  0  0  0  0  0  0  0  0  0  0
   -0.1614    0.2903   -0.0164 C   0  0  0  0  0  0  0  0  0  0  0  0
    0.7653    1.3244   -0.2155 C   0  0  0  0  0  0  0  0  0  0  0  0
    2.0566    1.1826    0.3073 C   0  0  0  0  0  0  0  0  0  0  0  0
    2.4214    0.0308    1.0064 C   0  0  0  0  0  0  0  0  0  0  0  0
    1.5094   -1.0095    1.2147 C   0  0  0  0  0  0  0  0  0  0  0  0
    0.2207   -0.8404    0.6942 C   0  0  0  0  0  0  0  0  0  0  0  0
   -1.8640   -3.4747    1.0665 H   0  0  0  0  0  0  0  0  0  0  0  0
   -0.8845   -2.8108    2.4127 H   0  0  0  0  0  0  0  0  0  0  0  0
   -0.1071   -3.5116    0.9563 H   0  0  0  0  0  0  0  0  0  0  0  0
   -3.7185   -0.4664   -1.9627 H   0  0  0  0  0  0  0  0  0  0  0  0
   -6.0470   -1.4124   -1.9581 H   0  0  0  0  0  0  0  0  0  0  0  0
   -6.4146   -3.7600    1.7449 H   0  0  0  0  0  0  0  0  0  0  0  0
   -4.5413   -1.2396    3.3213 H   0  0  0  0  0  0  0  0  0  0  0  0
   -3.7596   -1.2494    5.6449 H   0  0  0  0  0  0  0  0  0  0  0  0
   -3.8497   -3.3382    6.9857 H   0  0  0  0  0  0  0  0  0  0  0  0
   -4.7611   -5.4138    5.9737 H   0  0  0  0  0  0  0  0  0  0  0  0
   -5.5669   -5.4123    3.6389 H   0  0  0  0  0  0  0  0  0  0  0  0
    0.4739    2.2169   -0.7567 H   0  0  0  0  0  0  0  0  0  0  0  0
    2.7808    1.9814    0.1676 H   0  0  0  0  0  0  0  0  0  0  0  0
    3.4316   -0.0589    1.4010 H   0  0  0  0  0  0  0  0  0  0  0  0
    1.7947   -1.9000    1.7639 H   0  0  0  0  0  0  0  0  0  0  0  0
  1  2  1  0  0  0  0
  1 24  1  0  0  0  0
  1 25  1  0  0  0  0
  1 26  1  0  0  0  0
  2  3  1  0  0  0  0
  2 23  1  0  0  0  0
  3  4  1  0  0  0  0
  3 17  2  0  0  0  0
  4  5  1  0  0  0  0
  4 16  2  0  0  0  0
  5  6  2  0  0  0  0
  5 27  1  0  0  0  0
  6  7  1  0  0  0  0
  6 28  1  0  0  0  0
  7  8  2  0  0  0  0
  8  9  1  0  0  0  0
  8 16  1  0  0  0  0
  9 10  1  0  0  0  0
  9 29  1  0  0  0  0
 10 11  1  0  0  0  0
 10 15  2  0  0  0  0
 11 12  2  0  0  0  0
 11 30  1  0  0  0  0
 12 13  1  0  0  0  0
 12 31  1  0  0  0  0
 13 14  2  0  0  0  0
 13 32  1  0  0  0  0
 14 15  1  0  0  0  0
 14 33  1  0  0  0  0
 15 34  1  0  0  0  0
 17 18  1  0  0  0  0
 18 19  1  0  0  0  0
 18 23  2  0  0  0  0
 19 20  2  0  0  0  0
 19 35  1  0  0  0  0
 20 21  1  0  0  0  0
 20 36  1  0  0  0  0
 21 22  2  0  0  0  0
 21 37  1  0  0  0  0
 22 23  1  0  0  0  0
 22 38  1  0  0  0  0
M  END
$$$$
