CHEMBL390175
 OpenBabel04072215373D

 62 67  0  0  0  0  0  0  0  0999 V2000
    2.0260    0.0358   -0.9686 C   0  0  0  0  0  0  0  0  0  0  0  0
    0.5766    0.2293   -1.0462 N   0  0  0  0  0  0  0  0  0  0  0  0
   -0.1083   -1.0361   -0.7363 C   0  0  0  0  0  0  0  0  0  0  0  0
   -1.6436   -0.8865   -0.6715 C   0  0  0  0  0  0  0  0  0  0  0  0
   -2.1177    0.1078    0.3144 N   0  0  0  0  0  0  0  0  0  0  0  0
   -1.9171   -0.3035    1.7213 C   0  0  0  0  0  0  0  0  0  0  0  0
   -2.6760   -1.5579    2.1387 C   0  0  0  0  0  0  0  0  0  0  0  0
   -4.0217   -1.4400    2.5506 C   0  0  0  0  0  0  0  0  0  0  0  0
   -4.7684   -2.5581    2.9643 C   0  0  0  0  0  0  0  0  0  0  0  0
   -6.0393   -2.4710    3.5634 N   0  0  0  0  0  0  0  0  0  0  0  0
   -6.8974   -1.4505    3.4177 C   0  0  0  0  0  0  0  0  0  0  0  0
   -7.0896   -0.6502    2.3920 N   0  0  0  0  0  0  0  0  0  0  0  0
   -8.1214    0.1512    2.7871 C   0  0  0  0  0  0  0  0  0  0  0  0
   -8.7990    1.1678    2.1076 C   0  0  0  0  0  0  0  0  0  0  0  0
   -9.8466    1.8181    2.7727 C   0  0  0  0  0  0  0  0  0  0  0  0
  -10.4999    2.7899    2.0396 O   0  0  0  0  0  0  0  0  0  0  0  0
  -11.8666    2.9482    2.1854 C   0  0  0  0  0  0  0  0  0  0  0  0
  -12.7143    1.8822    2.4760 C   0  0  0  0  0  0  0  0  0  0  0  0
  -14.0468    2.1551    2.6890 C   0  0  0  0  0  0  0  0  0  0  0  0
  -14.5873    3.3846    2.5822 N   0  0  0  0  0  0  0  0  0  0  0  0
  -13.7897    4.3985    2.2042 C   0  0  0  0  0  0  0  0  0  0  0  0
  -14.3546    5.6554    2.0510 C   0  0  0  0  0  0  0  0  0  0  0  0
  -13.6036    6.7530    1.6234 C   0  0  0  0  0  0  0  0  0  0  0  0
  -12.2495    6.6009    1.3598 C   0  0  0  0  0  0  0  0  0  0  0  0
  -11.6497    5.3541    1.5413 C   0  0  0  0  0  0  0  0  0  0  0  0
  -12.4085    4.2387    1.9741 C   0  0  0  0  0  0  0  0  0  0  0  0
  -10.1517    1.5104    4.1116 C   0  0  0  0  0  0  0  0  0  0  0  0
   -9.4969    0.4737    4.7932 C   0  0  0  0  0  0  0  0  0  0  0  0
   -8.4999   -0.1746    4.0776 C   0  0  0  0  0  0  0  0  0  0  0  0
   -7.7245   -1.2208    4.4853 O   0  0  0  0  0  0  0  0  0  0  0  0
   -4.2069   -3.8282    2.8171 C   0  0  0  0  0  0  0  0  0  0  0  0
   -2.8867   -3.9719    2.4094 C   0  0  0  0  0  0  0  0  0  0  0  0
   -2.1065   -2.8436    2.1494 C   0  0  0  0  0  0  0  0  0  0  0  0
   -0.4195   -3.1433    1.9555 Cl  0  0  0  0  0  0  0  0  0  0  0  0
   -1.4141    1.3821    0.0142 C   0  0  0  0  0  0  0  0  0  0  0  0
    0.1328    1.2801   -0.1081 C   0  0  0  0  0  0  0  0  0  0  0  0
    2.3432   -0.7740   -1.6364 H   0  0  0  0  0  0  0  0  0  0  0  0
    2.3578   -0.2175    0.0460 H   0  0  0  0  0  0  0  0  0  0  0  0
    2.5537    0.9390   -1.2898 H   0  0  0  0  0  0  0  0  0  0  0  0
    0.2729   -1.4029    0.2157 H   0  0  0  0  0  0  0  0  0  0  0  0
    0.1351   -1.7913   -1.4924 H   0  0  0  0  0  0  0  0  0  0  0  0
   -2.1140   -1.8605   -0.5041 H   0  0  0  0  0  0  0  0  0  0  0  0
   -2.0003   -0.5761   -1.6638 H   0  0  0  0  0  0  0  0  0  0  0  0
   -2.2920    0.5120    2.3576 H   0  0  0  0  0  0  0  0  0  0  0  0
   -0.8587   -0.3913    1.9853 H   0  0  0  0  0  0  0  0  0  0  0  0
   -4.4636   -0.4456    2.6076 H   0  0  0  0  0  0  0  0  0  0  0  0
   -6.0697   -2.9439    4.4594 H   0  0  0  0  0  0  0  0  0  0  0  0
   -8.5252    1.4215    1.0900 H   0  0  0  0  0  0  0  0  0  0  0  0
  -12.3587    0.8626    2.5599 H   0  0  0  0  0  0  0  0  0  0  0  0
  -14.7403    1.3671    2.9671 H   0  0  0  0  0  0  0  0  0  0  0  0
  -15.4172    5.7767    2.2405 H   0  0  0  0  0  0  0  0  0  0  0  0
  -14.0856    7.7197    1.4950 H   0  0  0  0  0  0  0  0  0  0  0  0
  -11.6632    7.4482    1.0118 H   0  0  0  0  0  0  0  0  0  0  0  0
  -10.5890    5.2480    1.3210 H   0  0  0  0  0  0  0  0  0  0  0  0
  -10.9288    2.0624    4.6368 H   0  0  0  0  0  0  0  0  0  0  0  0
   -9.7499    0.1951    5.8088 H   0  0  0  0  0  0  0  0  0  0  0  0
   -4.7915   -4.7173    3.0399 H   0  0  0  0  0  0  0  0  0  0  0  0
   -2.4570   -4.9671    2.3316 H   0  0  0  0  0  0  0  0  0  0  0  0
   -1.6733    2.1446    0.7587 H   0  0  0  0  0  0  0  0  0  0  0  0
   -1.8049    1.7638   -0.9397 H   0  0  0  0  0  0  0  0  0  0  0  0
    0.5538    1.1084    0.8909 H   0  0  0  0  0  0  0  0  0  0  0  0
    0.5166    2.2468   -0.4563 H   0  0  0  0  0  0  0  0  0  0  0  0
  1  2  1  0  0  0  0
  1 37  1  0  0  0  0
  1 38  1  0  0  0  0
  1 39  1  0  0  0  0
  2  3  1  0  0  0  0
  2 36  1  0  0  0  0
  3  4  1  0  0  0  0
  3 40  1  0  0  0  0
  3 41  1  0  0  0  0
  4  5  1  0  0  0  0
  4 42  1  0  0  0  0
  4 43  1  0  0  0  0
  5  6  1  0  0  0  0
  5 35  1  0  0  0  0
  6  7  1  0  0  0  0
  6 44  1  0  0  0  0
  6 45  1  0  0  0  0
  7  8  1  0  0  0  0
  7 33  2  0  0  0  0
  8  9  2  0  0  0  0
  8 46  1  0  0  0  0
  9 10  1  0  0  0  0
  9 31  1  0  0  0  0
 10 11  1  0  0  0  0
 10 47  1  0  0  0  0
 11 12  2  0  0  0  0
 11 30  1  0  0  0  0
 12 13  1  0  0  0  0
 13 14  1  0  0  0  0
 13 29  2  0  0  0  0
 14 15  2  0  0  0  0
 14 48  1  0  0  0  0
 15 16  1  0  0  0  0
 15 27  1  0  0  0  0
 16 17  1  0  0  0  0
 17 18  1  0  0  0  0
 17 26  2  0  0  0  0
 18 19  2  0  0  0  0
 18 49  1  0  0  0  0
 19 20  1  0  0  0  0
 19 50  1  0  0  0  0
 20 21  2  0  0  0  0
 21 22  1  0  0  0  0
 21 26  1  0  0  0  0
 22 23  2  0  0  0  0
 22 51  1  0  0  0  0
 23 24  1  0  0  0  0
 23 52  1  0  0  0  0
 24 25  2  0  0  0  0
 24 53  1  0  0  0  0
 25 26  1  0  0  0  0
 25 54  1  0  0  0  0
 27 28  2  0  0  0  0
 27 55  1  0  0  0  0
 28 29  1  0  0  0  0
 28 56  1  0  0  0  0
 29 30  1  0  0  0  0
 31 32  2  0  0  0  0
 31 57  1  0  0  0  0
 32 33  1  0  0  0  0
 32 58  1  0  0  0  0
 33 34  1  0  0  0  0
 35 36  1  0  0  0  0
 35 59  1  0  0  0  0
 35 60  1  0  0  0  0
 36 61  1  0  0  0  0
 36 62  1  0  0  0  0
M  END
$$$$
