CHEMBL3970430
 OpenBabel04072215373D

 76 80  0  0  0  0  0  0  0  0999 V2000
    0.6197   -4.2698   -0.4333 C   0  0  0  0  0  0  0  0  0  0  0  0
    1.9464   -4.5069    0.0442 O   0  0  0  0  0  0  0  0  0  0  0  0
    2.8509   -3.4833   -0.1176 C   0  0  0  0  0  0  0  0  0  0  0  0
    2.5271   -2.2468   -0.6837 C   0  0  0  0  0  0  0  0  0  0  0  0
    3.4935   -1.2581   -0.7892 C   0  0  0  0  0  0  0  0  0  0  0  0
    3.2932    0.0093   -1.2678 O   0  0  0  0  0  0  0  0  0  0  0  0
    1.9925    0.3121   -1.7600 C   0  0  0  0  0  0  0  0  0  0  0  0
    4.7937   -1.5321   -0.3544 C   0  0  0  0  0  0  0  0  0  0  0  0
    5.1584   -2.7419    0.2705 C   0  0  0  0  0  0  0  0  0  0  0  0
    6.4413   -2.8717    0.8590 N   0  0  0  0  0  0  0  0  0  0  0  0
    6.8536   -1.6900    1.7878 C   0  0  0  0  0  0  0  0  0  0  0  0
    5.9326   -0.5126    2.2563 C   0  0  0  0  0  0  0  0  0  0  0  0
    4.8552   -0.7086    3.3545 C   0  0  0  0  0  0  0  0  0  0  0  0
    4.0501    0.5292    3.5384 N   0  0  0  0  0  0  0  0  0  0  0  0
    4.7603    1.7018    4.0656 C   0  0  0  0  0  0  0  0  0  0  0  0
    4.2874    1.8790    5.4957 C   0  0  0  0  0  0  0  0  0  0  0  0
    2.8415    1.4469    5.4236 C   0  0  0  0  0  0  0  0  0  0  0  0
    2.8354    0.3549    4.3549 C   0  0  0  0  0  0  0  0  0  0  0  0
    7.3396   -4.0190    0.9839 C   0  0  0  0  0  0  0  0  0  0  0  0
    7.6869   -4.3345    2.2737 C   0  0  0  0  0  0  0  0  0  0  0  0
    8.9312   -4.8406    2.5184 C   0  0  0  0  0  0  0  0  0  0  0  0
    9.7706   -5.2854    1.5549 C   0  0  0  0  0  0  0  0  0  0  0  0
   10.9584   -5.3805    2.1336 N   0  0  0  0  0  0  0  0  0  0  0  0
   11.8323   -6.1988    1.5904 C   0  0  0  0  0  0  0  0  0  0  0  0
   11.5811   -6.9983    0.5063 C   0  0  0  0  0  0  0  0  0  0  0  0
   12.5770   -8.1671    0.5174 C   0  0  0  0  0  0  0  0  0  0  0  0
   13.4349   -8.8457   -0.3868 C   0  0  0  0  0  0  0  0  0  0  0  0
   14.4018   -9.5749    0.1840 N   0  0  0  0  0  0  0  0  0  0  0  0
   14.2026   -9.4252    1.5055 N   0  0  0  0  0  0  0  0  0  0  0  0
   15.1546   -9.9480    2.4879 C   0  0  0  0  0  0  0  0  0  0  0  0
   14.5898  -10.7733    3.6388 C   0  0  0  0  0  0  0  0  0  0  0  0
   13.6631  -12.2077    3.1424 S   0  0  0  0  0  0  0  0  0  0  0  0
   14.8424  -13.2701    2.3428 C   0  0  0  0  0  0  0  0  0  0  0  0
   13.2505  -12.8798    4.3609 O   0  0  0  0  0  0  0  0  0  0  0  0
   12.6706  -11.8048    2.1700 O   0  0  0  0  0  0  0  0  0  0  0  0
   13.1327   -8.6071    1.7440 C   0  0  0  0  0  0  0  0  0  0  0  0
   10.4293   -6.6769   -0.2635 N   0  0  0  0  0  0  0  0  0  0  0  0
    9.4109   -5.6269    0.2559 C   0  0  0  0  0  0  0  0  0  0  0  0
    8.1036   -4.7818   -0.0262 C   0  0  0  0  0  0  0  0  0  0  0  0
    4.1617   -3.7252    0.3564 C   0  0  0  0  0  0  0  0  0  0  0  0
    0.0064   -5.1459   -0.2033 H   0  0  0  0  0  0  0  0  0  0  0  0
    0.6104   -4.1344   -1.5214 H   0  0  0  0  0  0  0  0  0  0  0  0
    0.1586   -3.4109    0.0694 H   0  0  0  0  0  0  0  0  0  0  0  0
    1.5246   -2.0504   -1.0373 H   0  0  0  0  0  0  0  0  0  0  0  0
    1.9872    1.3565   -2.0859 H   0  0  0  0  0  0  0  0  0  0  0  0
    1.2290    0.2066   -0.9807 H   0  0  0  0  0  0  0  0  0  0  0  0
    1.7578   -0.3115   -2.6287 H   0  0  0  0  0  0  0  0  0  0  0  0
    5.5365   -0.7483   -0.4809 H   0  0  0  0  0  0  0  0  0  0  0  0
    7.6825   -1.2107    1.2506 H   0  0  0  0  0  0  0  0  0  0  0  0
    7.2939   -2.0477    2.7227 H   0  0  0  0  0  0  0  0  0  0  0  0
    5.4923    0.0337    1.4234 H   0  0  0  0  0  0  0  0  0  0  0  0
    6.6459    0.2088    2.6835 H   0  0  0  0  0  0  0  0  0  0  0  0
    5.3167   -0.9971    4.3083 H   0  0  0  0  0  0  0  0  0  0  0  0
    4.1870   -1.5213    3.0503 H   0  0  0  0  0  0  0  0  0  0  0  0
    4.4464    2.5744    3.4771 H   0  0  0  0  0  0  0  0  0  0  0  0
    5.8499    1.6570    4.0129 H   0  0  0  0  0  0  0  0  0  0  0  0
    4.3929    2.9106    5.8485 H   0  0  0  0  0  0  0  0  0  0  0  0
    4.8480    1.2240    6.1719 H   0  0  0  0  0  0  0  0  0  0  0  0
    2.2152    2.2935    5.1140 H   0  0  0  0  0  0  0  0  0  0  0  0
    2.4721    1.0938    6.3920 H   0  0  0  0  0  0  0  0  0  0  0  0
    1.9456    0.4683    3.7247 H   0  0  0  0  0  0  0  0  0  0  0  0
    2.7828   -0.6295    4.8315 H   0  0  0  0  0  0  0  0  0  0  0  0
    7.1105   -4.0037    3.1259 H   0  0  0  0  0  0  0  0  0  0  0  0
    9.2900   -4.8458    3.5505 H   0  0  0  0  0  0  0  0  0  0  0  0
   12.7210   -6.2874    2.1982 H   0  0  0  0  0  0  0  0  0  0  0  0
   13.4565   -8.7835   -1.4751 H   0  0  0  0  0  0  0  0  0  0  0  0
   15.6740   -9.0781    2.9218 H   0  0  0  0  0  0  0  0  0  0  0  0
   15.9246  -10.5207    1.9581 H   0  0  0  0  0  0  0  0  0  0  0  0
   13.9269  -10.1741    4.2724 H   0  0  0  0  0  0  0  0  0  0  0  0
   15.3988  -11.1387    4.2870 H   0  0  0  0  0  0  0  0  0  0  0  0
   15.5658  -13.6120    3.0862 H   0  0  0  0  0  0  0  0  0  0  0  0
   15.3384  -12.7353    1.5333 H   0  0  0  0  0  0  0  0  0  0  0  0
   14.2950  -14.1258    1.9406 H   0  0  0  0  0  0  0  0  0  0  0  0
   12.9082   -8.3463    2.7701 H   0  0  0  0  0  0  0  0  0  0  0  0
    7.7708   -4.7165   -1.0631 H   0  0  0  0  0  0  0  0  0  0  0  0
    4.3730   -4.6716    0.8459 H   0  0  0  0  0  0  0  0  0  0  0  0
  1  2  1  0  0  0  0
  1 41  1  0  0  0  0
  1 42  1  0  0  0  0
  1 43  1  0  0  0  0
  2  3  1  0  0  0  0
  3  4  1  0  0  0  0
  3 40  2  0  0  0  0
  4  5  2  0  0  0  0
  4 44  1  0  0  0  0
  5  6  1  0  0  0  0
  5  8  1  0  0  0  0
  6  7  1  0  0  0  0
  7 45  1  0  0  0  0
  7 46  1  0  0  0  0
  7 47  1  0  0  0  0
  8  9  2  0  0  0  0
  8 48  1  0  0  0  0
  9 10  1  0  0  0  0
  9 40  1  0  0  0  0
 10 11  1  0  0  0  0
 10 19  1  0  0  0  0
 11 12  1  0  0  0  0
 11 49  1  0  0  0  0
 11 50  1  0  0  0  0
 12 13  1  0  0  0  0
 12 51  1  0  0  0  0
 12 52  1  0  0  0  0
 13 14  1  0  0  0  0
 13 53  1  0  0  0  0
 13 54  1  0  0  0  0
 14 15  1  0  0  0  0
 14 18  1  0  0  0  0
 15 16  1  0  0  0  0
 15 55  1  0  0  0  0
 15 56  1  0  0  0  0
 16 17  1  0  0  0  0
 16 57  1  0  0  0  0
 16 58  1  0  0  0  0
 17 18  1  0  0  0  0
 17 59  1  0  0  0  0
 17 60  1  0  0  0  0
 18 61  1  0  0  0  0
 18 62  1  0  0  0  0
 19 20  1  0  0  0  0
 19 39  2  0  0  0  0
 20 21  2  0  0  0  0
 20 63  1  0  0  0  0
 21 22  1  0  0  0  0
 21 64  1  0  0  0  0
 22 23  1  0  0  0  0
 22 38  2  0  0  0  0
 23 24  2  0  0  0  0
 24 25  1  0  0  0  0
 24 65  1  0  0  0  0
 25 26  1  0  0  0  0
 25 37  2  0  0  0  0
 26 27  1  0  0  0  0
 26 36  2  0  0  0  0
 27 28  2  0  0  0  0
 27 66  1  0  0  0  0
 28 29  1  0  0  0  0
 29 30  1  0  0  0  0
 29 36  1  0  0  0  0
 30 31  1  0  0  0  0
 30 67  1  0  0  0  0
 30 68  1  0  0  0  0
 31 32  1  0  0  0  0
 31 69  1  0  0  0  0
 31 70  1  0  0  0  0
 32 33  1  0  0  0  0
 32 34  2  0  0  0  0
 32 35  2  0  0  0  0
 33 71  1  0  0  0  0
 33 72  1  0  0  0  0
 33 73  1  0  0  0  0
 36 74  1  0  0  0  0
 37 38  1  0  0  0  0
 38 39  1  0  0  0  0
 39 75  1  0  0  0  0
 40 76  1  0  0  0  0
M  END
$$$$
