CHEMBL4750035
 OpenBabel04072215383D

 50 54  0  0  0  0  0  0  0  0999 V2000
   -3.9380    0.0918    0.3908 O   0  0  0  0  0  0  0  0  0  0  0  0
   -2.7316    0.1729    0.2972 C   0  0  0  0  0  0  0  0  0  0  0  0
   -1.7326   -0.9849    0.1219 C   0  0  0  0  0  0  0  0  0  0  0  0
   -1.9438   -2.2551   -0.0354 N   0  0  0  0  0  0  0  0  0  0  0  0
   -3.2800   -2.6149    0.0458 N   0  0  0  0  0  0  0  0  0  0  0  0
   -3.5693   -3.8146   -0.3494 C   0  0  0  0  0  0  0  0  0  0  0  0
   -4.8197   -4.3754   -0.3086 N   0  0  0  0  0  0  0  0  0  0  0  0
   -4.9666   -5.6320   -0.8657 C   0  0  0  0  0  0  0  0  0  0  0  0
   -6.2807   -6.3015   -0.8844 C   0  0  0  0  0  0  0  0  0  0  0  0
   -7.2068   -6.0563    0.1412 C   0  0  0  0  0  0  0  0  0  0  0  0
   -8.4685   -6.6544    0.1389 C   0  0  0  0  0  0  0  0  0  0  0  0
   -8.8183   -7.5307   -0.8900 C   0  0  0  0  0  0  0  0  0  0  0  0
  -10.1442   -8.1600   -0.8893 N   0  3  0  0  0  0  0  0  0  0  0  0
  -10.9125   -7.8861    0.0387 O   0  0  0  0  0  0  0  0  0  0  0  0
  -10.4134   -8.9356   -1.8212 O   0  5  0  0  0  0  0  0  0  0  0  0
   -7.9108   -7.7936   -1.9237 C   0  0  0  0  0  0  0  0  0  0  0  0
   -6.6522   -7.1857   -1.9172 C   0  0  0  0  0  0  0  0  0  0  0  0
   -3.8048   -6.1319   -1.3339 C   0  0  0  0  0  0  0  0  0  0  0  0
   -2.4678   -5.0207   -1.0667 S   0  0  0  0  0  0  0  0  0  0  0  0
   -0.4076   -0.3731    0.1127 C   0  0  0  0  0  0  0  0  0  0  0  0
    0.8305   -0.9777   -0.0054 C   0  0  0  0  0  0  0  0  0  0  0  0
    1.9400   -0.1397    0.0242 C   0  0  0  0  0  0  0  0  0  0  0  0
    3.5167   -0.8176   -0.1130 Cl  0  0  0  0  0  0  0  0  0  0  0  0
    1.7953    1.2536    0.1703 C   0  0  0  0  0  0  0  0  0  0  0  0
    0.5163    1.8401    0.2668 C   0  0  0  0  0  0  0  0  0  0  0  0
   -0.5827    1.0066    0.2239 C   0  0  0  0  0  0  0  0  0  0  0  0
   -1.9523    1.3269    0.2781 N   0  0  0  0  0  0  0  0  0  0  0  0
   -2.5210    2.6434    0.0756 C   0  0  0  0  0  0  0  0  0  0  0  0
   -2.6103    3.4946    1.3159 C   0  0  0  0  0  0  0  0  0  0  0  0
   -2.0416    4.7775    1.3344 C   0  0  0  0  0  0  0  0  0  0  0  0
   -2.0871    5.5578    2.4906 C   0  0  0  0  0  0  0  0  0  0  0  0
   -2.7245    5.0759    3.6315 C   0  0  0  0  0  0  0  0  0  0  0  0
   -3.3517    3.8319    3.6040 C   0  0  0  0  0  0  0  0  0  0  0  0
   -3.3038    3.0484    2.4496 C   0  0  0  0  0  0  0  0  0  0  0  0
   -5.6117   -3.8090   -0.0510 H   0  0  0  0  0  0  0  0  0  0  0  0
   -6.9506   -5.4004    0.9758 H   0  0  0  0  0  0  0  0  0  0  0  0
   -9.1567   -6.4402    0.9587 H   0  0  0  0  0  0  0  0  0  0  0  0
   -8.1682   -8.4758   -2.7358 H   0  0  0  0  0  0  0  0  0  0  0  0
   -5.9679   -7.3999   -2.7354 H   0  0  0  0  0  0  0  0  0  0  0  0
   -3.6573   -7.0905   -1.8092 H   0  0  0  0  0  0  0  0  0  0  0  0
    0.9217   -2.0540   -0.1127 H   0  0  0  0  0  0  0  0  0  0  0  0
    2.6812    1.8861    0.2159 H   0  0  0  0  0  0  0  0  0  0  0  0
    0.4277    2.9125    0.4019 H   0  0  0  0  0  0  0  0  0  0  0  0
   -3.5320    2.5331   -0.3370 H   0  0  0  0  0  0  0  0  0  0  0  0
   -1.9327    3.1478   -0.7010 H   0  0  0  0  0  0  0  0  0  0  0  0
   -1.5577    5.1812    0.4477 H   0  0  0  0  0  0  0  0  0  0  0  0
   -1.6226    6.5405    2.5027 H   0  0  0  0  0  0  0  0  0  0  0  0
   -2.7406    5.6731    4.5394 H   0  0  0  0  0  0  0  0  0  0  0  0
   -3.8758    3.4678    4.4840 H   0  0  0  0  0  0  0  0  0  0  0  0
   -3.8136    2.0862    2.4399 H   0  0  0  0  0  0  0  0  0  0  0  0
  1  2  2  0  0  0  0
  2  3  1  0  0  0  0
  2 27  1  0  0  0  0
  3  4  2  0  0  0  0
  3 20  1  0  0  0  0
  4  5  1  0  0  0  0
  5  6  2  0  0  0  0
  6  7  1  0  0  0  0
  6 19  1  0  0  0  0
  7  8  1  0  0  0  0
  7 35  1  0  0  0  0
  8  9  1  0  0  0  0
  8 18  2  0  0  0  0
  9 10  1  0  0  0  0
  9 17  2  0  0  0  0
 10 11  2  0  0  0  0
 10 36  1  0  0  0  0
 11 12  1  0  0  0  0
 11 37  1  0  0  0  0
 12 13  1  0  0  0  0
 12 16  2  0  0  0  0
 13 14  2  0  0  0  0
 13 15  1  0  0  0  0
 16 17  1  0  0  0  0
 16 38  1  0  0  0  0
 17 39  1  0  0  0  0
 18 19  1  0  0  0  0
 18 40  1  0  0  0  0
 20 21  1  0  0  0  0
 20 26  2  0  0  0  0
 21 22  2  0  0  0  0
 21 41  1  0  0  0  0
 22 23  1  0  0  0  0
 22 24  1  0  0  0  0
 24 25  2  0  0  0  0
 24 42  1  0  0  0  0
 25 26  1  0  0  0  0
 25 43  1  0  0  0  0
 26 27  1  0  0  0  0
 27 28  1  0  0  0  0
 28 29  1  0  0  0  0
 28 44  1  0  0  0  0
 28 45  1  0  0  0  0
 29 30  1  0  0  0  0
 29 34  2  0  0  0  0
 30 31  2  0  0  0  0
 30 46  1  0  0  0  0
 31 32  1  0  0  0  0
 31 47  1  0  0  0  0
 32 33  2  0  0  0  0
 32 48  1  0  0  0  0
 33 34  1  0  0  0  0
 33 49  1  0  0  0  0
 34 50  1  0  0  0  0
M  CHG  2  13   1  15  -1
M  END
$$$$
