CHEMBL270084
 OpenBabel04072215363D

 49 52  0  0  0  0  0  0  0  0999 V2000
    2.0470   -1.3384   -0.3142 C   0  0  0  0  0  0  0  0  0  0  0  0
    1.7891    0.0544   -0.4621 O   0  0  0  0  0  0  0  0  0  0  0  0
    2.5782    0.6793   -1.4082 C   0  0  0  0  0  0  0  0  0  0  0  0
    2.8702    2.0198   -1.1750 C   0  0  0  0  0  0  0  0  0  0  0  0
    3.6059    2.7533   -2.0982 C   0  0  0  0  0  0  0  0  0  0  0  0
    4.1044    2.1993   -3.3152 C   0  0  0  0  0  0  0  0  0  0  0  0
    4.8095    3.0629   -4.2887 C   0  0  0  0  0  0  0  0  0  0  0  0
    5.6122    4.1228   -3.8501 C   0  0  0  0  0  0  0  0  0  0  0  0
    6.2025    5.0163   -4.7488 C   0  0  0  0  0  0  0  0  0  0  0  0
    6.0667    4.8595   -6.1279 C   0  0  0  0  0  0  0  0  0  0  0  0
    6.5851    5.7773   -7.0713 N   0  0  0  0  0  0  0  0  0  0  0  0
    7.2573    6.9426   -6.7566 C   0  0  0  0  0  0  0  0  0  0  0  0
    7.5727    7.2911   -5.6228 O   0  0  0  0  0  0  0  0  0  0  0  0
    7.5248    7.7255   -7.8702 N   0  0  0  0  0  0  0  0  0  0  0  0
    8.2131    8.9517   -7.6692 C   0  0  0  0  0  0  0  0  0  0  0  0
    9.4195    8.9942   -6.9532 C   0  0  0  0  0  0  0  0  0  0  0  0
   10.0422   10.2167   -6.6829 C   0  0  0  0  0  0  0  0  0  0  0  0
   11.3300   10.2629   -5.9108 C   0  0  0  0  0  0  0  0  0  0  0  0
    9.4436   11.4060   -7.1227 C   0  0  0  0  0  0  0  0  0  0  0  0
    8.2456   11.3664   -7.8509 C   0  0  0  0  0  0  0  0  0  0  0  0
    7.6543   10.1415   -8.1357 C   0  0  0  0  0  0  0  0  0  0  0  0
    6.4903   10.1148   -8.7994 F   0  0  0  0  0  0  0  0  0  0  0  0
    5.3309    3.7718   -6.5902 C   0  0  0  0  0  0  0  0  0  0  0  0
    4.6629    2.9355   -5.6810 C   0  0  0  0  0  0  0  0  0  0  0  0
    3.8274    0.8202   -3.5475 C   0  0  0  0  0  0  0  0  0  0  0  0
    4.0885   -0.1943   -4.5281 C   0  0  0  0  0  0  0  0  0  0  0  0
    4.8542   -0.0744   -5.6249 N   0  0  0  0  0  0  0  0  0  0  0  0
    3.4452   -1.3321   -4.2566 N   0  0  0  0  0  0  0  0  0  0  0  0
    2.8118   -1.1214   -3.0577 O   0  0  0  0  0  0  0  0  0  0  0  0
    3.0525    0.1386   -2.6080 C   0  0  0  0  0  0  0  0  0  0  0  0
    1.4787   -1.6934    0.5496 H   0  0  0  0  0  0  0  0  0  0  0  0
    3.1098   -1.5237   -0.1224 H   0  0  0  0  0  0  0  0  0  0  0  0
    1.6938   -1.9070   -1.1782 H   0  0  0  0  0  0  0  0  0  0  0  0
    2.5095    2.5010   -0.2687 H   0  0  0  0  0  0  0  0  0  0  0  0
    3.7774    3.8085   -1.8719 H   0  0  0  0  0  0  0  0  0  0  0  0
    5.7739    4.3104   -2.7902 H   0  0  0  0  0  0  0  0  0  0  0  0
    6.7525    5.8387   -4.3059 H   0  0  0  0  0  0  0  0  0  0  0  0
    6.4519    5.5710   -8.0494 H   0  0  0  0  0  0  0  0  0  0  0  0
    6.7635    7.7719   -8.5350 H   0  0  0  0  0  0  0  0  0  0  0  0
    9.8570    8.0705   -6.5837 H   0  0  0  0  0  0  0  0  0  0  0  0
   11.6579    9.2600   -5.6178 H   0  0  0  0  0  0  0  0  0  0  0  0
   11.2096   10.8547   -4.9977 H   0  0  0  0  0  0  0  0  0  0  0  0
   12.1188   10.7065   -6.5252 H   0  0  0  0  0  0  0  0  0  0  0  0
    9.8950   12.3638   -6.8968 H   0  0  0  0  0  0  0  0  0  0  0  0
    7.7680   12.2871   -8.1690 H   0  0  0  0  0  0  0  0  0  0  0  0
    5.2218    3.5739   -7.6527 H   0  0  0  0  0  0  0  0  0  0  0  0
    3.9938    2.1830   -6.0936 H   0  0  0  0  0  0  0  0  0  0  0  0
    5.5417    0.6576   -5.7578 H   0  0  0  0  0  0  0  0  0  0  0  0
    4.8734   -0.8271   -6.3031 H   0  0  0  0  0  0  0  0  0  0  0  0
  1  2  1  0  0  0  0
  1 31  1  0  0  0  0
  1 32  1  0  0  0  0
  1 33  1  0  0  0  0
  2  3  1  0  0  0  0
  3  4  1  0  0  0  0
  3 30  2  0  0  0  0
  4  5  2  0  0  0  0
  4 34  1  0  0  0  0
  5  6  1  0  0  0  0
  5 35  1  0  0  0  0
  6  7  1  0  0  0  0
  6 25  2  0  0  0  0
  7  8  1  0  0  0  0
  7 24  2  0  0  0  0
  8  9  2  0  0  0  0
  8 36  1  0  0  0  0
  9 10  1  0  0  0  0
  9 37  1  0  0  0  0
 10 11  1  0  0  0  0
 10 23  2  0  0  0  0
 11 12  1  0  0  0  0
 11 38  1  0  0  0  0
 12 13  2  0  0  0  0
 12 14  1  0  0  0  0
 14 15  1  0  0  0  0
 14 39  1  0  0  0  0
 15 16  1  0  0  0  0
 15 21  2  0  0  0  0
 16 17  2  0  0  0  0
 16 40  1  0  0  0  0
 17 18  1  0  0  0  0
 17 19  1  0  0  0  0
 18 41  1  0  0  0  0
 18 42  1  0  0  0  0
 18 43  1  0  0  0  0
 19 20  2  0  0  0  0
 19 44  1  0  0  0  0
 20 21  1  0  0  0  0
 20 45  1  0  0  0  0
 21 22  1  0  0  0  0
 23 24  1  0  0  0  0
 23 46  1  0  0  0  0
 24 47  1  0  0  0  0
 25 26  1  0  0  0  0
 25 30  1  0  0  0  0
 26 27  1  0  0  0  0
 26 28  2  0  0  0  0
 27 48  1  0  0  0  0
 27 49  1  0  0  0  0
 28 29  1  0  0  0  0
 29 30  1  0  0  0  0
M  END
$$$$
