CHEMBL3397918
 OpenBabel04072215363D

 65 68  0  0  0  0  0  0  0  0999 V2000
    1.5167   -0.3394   -0.3218 C   0  0  0  0  0  0  0  0  0  0  0  0
    2.5223   -0.0423    0.6315 O   0  0  0  0  0  0  0  0  0  0  0  0
    3.1802    1.1576    0.5217 C   0  0  0  0  0  0  0  0  0  0  0  0
    2.8585    2.1535   -0.3924 C   0  0  0  0  0  0  0  0  0  0  0  0
    3.6251    3.3168   -0.4443 C   0  0  0  0  0  0  0  0  0  0  0  0
    4.7346    3.4888    0.4029 C   0  0  0  0  0  0  0  0  0  0  0  0
    5.5766    4.6868    0.1116 C   0  0  0  0  0  0  0  0  0  0  0  0
    6.7742    4.5296   -0.0822 O   0  0  0  0  0  0  0  0  0  0  0  0
    4.8978    5.9004    0.1257 N   0  0  0  0  0  0  0  0  0  0  0  0
    5.5371    7.1527   -0.0163 C   0  0  0  0  0  0  0  0  0  0  0  0
    6.6715    7.3390   -0.8083 C   0  0  0  0  0  0  0  0  0  0  0  0
    7.3192    8.5808   -0.8439 C   0  0  0  0  0  0  0  0  0  0  0  0
    6.8328    9.6440   -0.0751 C   0  0  0  0  0  0  0  0  0  0  0  0
    7.3922   10.8943   -0.0021 O   0  0  0  0  0  0  0  0  0  0  0  0
    8.1890   11.2672   -1.1209 C   0  0  0  0  0  0  0  0  0  0  0  0
    8.2578   12.7955   -1.2287 C   0  0  0  0  0  0  0  0  0  0  0  0
    8.9943   13.1261   -2.5284 C   0  0  0  0  0  0  0  0  0  0  0  0
    9.0995   14.5362   -2.9336 N   0  0  0  0  0  0  0  0  0  0  0  0
    7.8025   15.2369   -3.0617 C   0  0  0  0  0  0  0  0  0  0  0  0
    6.9253   14.7250   -4.2182 C   0  0  0  0  0  0  0  0  0  0  0  0
    7.6165   14.7734   -5.4739 O   0  0  0  0  0  0  0  0  0  0  0  0
    8.8614   14.0726   -5.4155 C   0  0  0  0  0  0  0  0  0  0  0  0
    9.7554   14.6029   -4.2699 C   0  0  0  0  0  0  0  0  0  0  0  0
    5.6972    9.4595    0.7016 C   0  0  0  0  0  0  0  0  0  0  0  0
    5.0256    8.2334    0.7061 C   0  0  0  0  0  0  0  0  0  0  0  0
    5.0841    2.5144    1.3788 C   0  0  0  0  0  0  0  0  0  0  0  0
    6.2384    2.6735    2.3231 C   0  0  0  0  0  0  0  0  0  0  0  0
    6.5130    3.8910    2.9808 C   0  0  0  0  0  0  0  0  0  0  0  0
    7.6005    4.0281    3.8558 C   0  0  0  0  0  0  0  0  0  0  0  0
    8.4152    2.9376    4.1467 C   0  0  0  0  0  0  0  0  0  0  0  0
    8.1395    1.7215    3.5412 C   0  0  0  0  0  0  0  0  0  0  0  0
    8.8649    0.6031    3.8397 O   0  0  0  0  0  0  0  0  0  0  0  0
    7.1008    1.5961    2.6193 C   0  0  0  0  0  0  0  0  0  0  0  0
    4.2465    1.3606    1.4202 C   0  0  0  0  0  0  0  0  0  0  0  0
    4.4245    0.3615    2.3502 O   0  0  0  0  0  0  0  0  0  0  0  0
    1.1889   -1.3716   -0.1554 H   0  0  0  0  0  0  0  0  0  0  0  0
    1.8910   -0.2757   -1.3488 H   0  0  0  0  0  0  0  0  0  0  0  0
    0.6473    0.3121   -0.1776 H   0  0  0  0  0  0  0  0  0  0  0  0
    2.0351    2.0474   -1.0885 H   0  0  0  0  0  0  0  0  0  0  0  0
    3.3831    4.0642   -1.1951 H   0  0  0  0  0  0  0  0  0  0  0  0
    3.9629    5.9090    0.5141 H   0  0  0  0  0  0  0  0  0  0  0  0
    7.0645    6.5265   -1.4188 H   0  0  0  0  0  0  0  0  0  0  0  0
    8.2131    8.6709   -1.4533 H   0  0  0  0  0  0  0  0  0  0  0  0
    7.7408   10.8864   -2.0477 H   0  0  0  0  0  0  0  0  0  0  0  0
    9.1987   10.8541   -1.0098 H   0  0  0  0  0  0  0  0  0  0  0  0
    8.7669   13.2225   -0.3557 H   0  0  0  0  0  0  0  0  0  0  0  0
    7.2367   13.1934   -1.2232 H   0  0  0  0  0  0  0  0  0  0  0  0
    8.5214   12.5363   -3.3168 H   0  0  0  0  0  0  0  0  0  0  0  0
   10.0162   12.7385   -2.4255 H   0  0  0  0  0  0  0  0  0  0  0  0
    8.0241   16.2971   -3.2482 H   0  0  0  0  0  0  0  0  0  0  0  0
    7.2472   15.2199   -2.1187 H   0  0  0  0  0  0  0  0  0  0  0  0
    6.0420   15.3653   -4.3149 H   0  0  0  0  0  0  0  0  0  0  0  0
    6.5718   13.7048   -4.0338 H   0  0  0  0  0  0  0  0  0  0  0  0
    9.3730   14.2139   -6.3723 H   0  0  0  0  0  0  0  0  0  0  0  0
    8.6683   12.9968   -5.3253 H   0  0  0  0  0  0  0  0  0  0  0  0
    9.9940   15.6548   -4.4755 H   0  0  0  0  0  0  0  0  0  0  0  0
   10.7106   14.0674   -4.2532 H   0  0  0  0  0  0  0  0  0  0  0  0
    5.3339   10.2801    1.3170 H   0  0  0  0  0  0  0  0  0  0  0  0
    4.1462    8.1244    1.3298 H   0  0  0  0  0  0  0  0  0  0  0  0
    5.8939    4.7675    2.8090 H   0  0  0  0  0  0  0  0  0  0  0  0
    7.8212    4.9991    4.2947 H   0  0  0  0  0  0  0  0  0  0  0  0
    9.2481    3.0569    4.8311 H   0  0  0  0  0  0  0  0  0  0  0  0
    9.5108    0.8249    4.5308 H   0  0  0  0  0  0  0  0  0  0  0  0
    6.9651    0.6285    2.1371 H   0  0  0  0  0  0  0  0  0  0  0  0
    4.9110    0.7092    3.1156 H   0  0  0  0  0  0  0  0  0  0  0  0
  1  2  1  0  0  0  0
  1 36  1  0  0  0  0
  1 37  1  0  0  0  0
  1 38  1  0  0  0  0
  2  3  1  0  0  0  0
  3  4  1  0  0  0  0
  3 34  2  0  0  0  0
  4  5  2  0  0  0  0
  4 39  1  0  0  0  0
  5  6  1  0  0  0  0
  5 40  1  0  0  0  0
  6  7  1  0  0  0  0
  6 26  2  0  0  0  0
  7  8  2  0  0  0  0
  7  9  1  0  0  0  0
  9 10  1  0  0  0  0
  9 41  1  0  0  0  0
 10 11  1  0  0  0  0
 10 25  2  0  0  0  0
 11 12  2  0  0  0  0
 11 42  1  0  0  0  0
 12 13  1  0  0  0  0
 12 43  1  0  0  0  0
 13 14  1  0  0  0  0
 13 24  2  0  0  0  0
 14 15  1  0  0  0  0
 15 16  1  0  0  0  0
 15 44  1  0  0  0  0
 15 45  1  0  0  0  0
 16 17  1  0  0  0  0
 16 46  1  0  0  0  0
 16 47  1  0  0  0  0
 17 18  1  0  0  0  0
 17 48  1  0  0  0  0
 17 49  1  0  0  0  0
 18 19  1  0  0  0  0
 18 23  1  0  0  0  0
 19 20  1  0  0  0  0
 19 50  1  0  0  0  0
 19 51  1  0  0  0  0
 20 21  1  0  0  0  0
 20 52  1  0  0  0  0
 20 53  1  0  0  0  0
 21 22  1  0  0  0  0
 22 23  1  0  0  0  0
 22 54  1  0  0  0  0
 22 55  1  0  0  0  0
 23 56  1  0  0  0  0
 23 57  1  0  0  0  0
 24 25  1  0  0  0  0
 24 58  1  0  0  0  0
 25 59  1  0  0  0  0
 26 27  1  0  0  0  0
 26 34  1  0  0  0  0
 27 28  1  0  0  0  0
 27 33  2  0  0  0  0
 28 29  2  0  0  0  0
 28 60  1  0  0  0  0
 29 30  1  0  0  0  0
 29 61  1  0  0  0  0
 30 31  2  0  0  0  0
 30 62  1  0  0  0  0
 31 32  1  0  0  0  0
 31 33  1  0  0  0  0
 32 63  1  0  0  0  0
 33 64  1  0  0  0  0
 34 35  1  0  0  0  0
 35 65  1  0  0  0  0
M  END
$$$$
