CHEMBL464620
 OpenBabel04072215383D

 36 38  0  0  0  0  0  0  0  0999 V2000
    1.2445   -0.2288   -0.4378 O   0  0  0  0  0  0  0  0  0  0  0  0
    2.2820    0.2739   -0.0246 C   0  0  0  0  0  0  0  0  0  0  0  0
    2.8415    1.4275   -0.5559 N   0  0  0  0  0  0  0  0  0  0  0  0
    2.2921    2.1740   -1.6256 C   0  0  0  0  0  0  0  0  0  0  0  0
    0.9681    2.0232   -2.0611 C   0  0  0  0  0  0  0  0  0  0  0  0
    0.4881    2.7147   -3.1734 C   0  0  0  0  0  0  0  0  0  0  0  0
    1.3263    3.5828   -3.8595 C   0  0  0  0  0  0  0  0  0  0  0  0
    2.6300    3.7754   -3.4077 C   0  0  0  0  0  0  0  0  0  0  0  0
    3.6667    4.8543   -4.2602 Cl  0  0  0  0  0  0  0  0  0  0  0  0
    3.1134    3.0896   -2.2880 C   0  0  0  0  0  0  0  0  0  0  0  0
    3.0260   -0.3245    1.0758 C   0  0  0  0  0  0  0  0  0  0  0  0
    4.0662    0.3287    1.7043 N   0  0  0  0  0  0  0  0  0  0  0  0
    4.4596   -0.4080    2.7329 N   0  0  0  0  0  0  0  0  0  0  0  0
    3.6832   -1.5022    2.7626 N   0  0  0  0  0  0  0  0  0  0  0  0
    2.8065   -1.5441    1.7102 C   0  0  0  0  0  0  0  0  0  0  0  0
    2.0340   -2.6552    1.5275 N   0  0  0  0  0  0  0  0  0  0  0  0
    1.4212   -2.9253    0.2272 C   0  0  0  0  0  0  0  0  0  0  0  0
    1.0482   -4.3813    0.1043 C   0  0  0  0  0  0  0  0  0  0  0  0
   -0.2488   -4.7465   -0.2715 C   0  0  0  0  0  0  0  0  0  0  0  0
   -0.5407   -6.0904   -0.4368 C   0  0  0  0  0  0  0  0  0  0  0  0
    0.3587   -7.0803   -0.2584 N   0  0  0  0  0  0  0  0  0  0  0  0
    1.6079   -6.7081    0.0943 C   0  0  0  0  0  0  0  0  0  0  0  0
    1.9972   -5.3917    0.2828 C   0  0  0  0  0  0  0  0  0  0  0  0
    3.7607    1.6805   -0.2076 H   0  0  0  0  0  0  0  0  0  0  0  0
    0.2644    1.3742   -1.5484 H   0  0  0  0  0  0  0  0  0  0  0  0
   -0.5378    2.5597   -3.5022 H   0  0  0  0  0  0  0  0  0  0  0  0
    0.9580    4.1031   -4.7394 H   0  0  0  0  0  0  0  0  0  0  0  0
    4.1386    3.2490   -1.9675 H   0  0  0  0  0  0  0  0  0  0  0  0
    3.8324   -2.1964    3.4837 H   0  0  0  0  0  0  0  0  0  0  0  0
    1.4240   -2.9469    2.2926 H   0  0  0  0  0  0  0  0  0  0  0  0
    2.1138   -2.6907   -0.5908 H   0  0  0  0  0  0  0  0  0  0  0  0
    0.5142   -2.3241    0.1187 H   0  0  0  0  0  0  0  0  0  0  0  0
   -1.0182   -4.0015   -0.4479 H   0  0  0  0  0  0  0  0  0  0  0  0
   -1.5341   -6.4133   -0.7347 H   0  0  0  0  0  0  0  0  0  0  0  0
    2.3148   -7.5234    0.2178 H   0  0  0  0  0  0  0  0  0  0  0  0
    3.0219   -5.1565    0.5519 H   0  0  0  0  0  0  0  0  0  0  0  0
  1  2  2  0  0  0  0
  2  3  1  0  0  0  0
  2 11  1  0  0  0  0
  3  4  1  0  0  0  0
  3 24  1  0  0  0  0
  4  5  1  0  0  0  0
  4 10  2  0  0  0  0
  5  6  2  0  0  0  0
  5 25  1  0  0  0  0
  6  7  1  0  0  0  0
  6 26  1  0  0  0  0
  7  8  2  0  0  0  0
  7 27  1  0  0  0  0
  8  9  1  0  0  0  0
  8 10  1  0  0  0  0
 10 28  1  0  0  0  0
 11 12  1  0  0  0  0
 11 15  2  0  0  0  0
 12 13  2  0  0  0  0
 13 14  1  0  0  0  0
 14 15  1  0  0  0  0
 14 29  1  0  0  0  0
 15 16  1  0  0  0  0
 16 17  1  0  0  0  0
 16 30  1  0  0  0  0
 17 18  1  0  0  0  0
 17 31  1  0  0  0  0
 17 32  1  0  0  0  0
 18 19  1  0  0  0  0
 18 23  2  0  0  0  0
 19 20  2  0  0  0  0
 19 33  1  0  0  0  0
 20 21  1  0  0  0  0
 20 34  1  0  0  0  0
 21 22  2  0  0  0  0
 22 23  1  0  0  0  0
 22 35  1  0  0  0  0
 23 36  1  0  0  0  0
M  END
$$$$
