CHEMBL1999918
 OpenBabel04072215363D

 28 30  0  0  0  0  0  0  0  0999 V2000
    1.1997    0.5614   -0.1062 N   0  0  0  0  0  0  0  0  0  0  0  0
    2.4079    0.0051    0.2183 C   0  0  0  0  0  0  0  0  0  0  0  0
    2.8315    0.1184    1.3635 O   0  0  0  0  0  0  0  0  0  0  0  0
    3.1098   -0.7131   -0.8344 C   0  0  0  0  0  0  0  0  0  0  0  0
    4.3243   -1.3627   -0.7227 C   0  0  0  0  0  0  0  0  0  0  0  0
    4.7453   -2.0593   -1.9184 C   0  0  0  0  0  0  0  0  0  0  0  0
    5.8688   -2.8949   -2.2100 C   0  0  0  0  0  0  0  0  0  0  0  0
    6.8680   -3.3162   -1.1950 C   0  0  0  0  0  0  0  0  0  0  0  0
    6.5103   -3.6010    0.1383 C   0  0  0  0  0  0  0  0  0  0  0  0
    7.4503   -4.0396    1.0836 C   0  0  0  0  0  0  0  0  0  0  0  0
    8.7717   -4.2518    0.7039 C   0  0  0  0  0  0  0  0  0  0  0  0
   10.0158   -4.8972    1.9713 Br  0  0  0  0  0  0  0  0  0  0  0  0
    9.1534   -4.0035   -0.6061 C   0  0  0  0  0  0  0  0  0  0  0  0
   10.4148   -4.2296   -1.0049 F   0  0  0  0  0  0  0  0  0  0  0  0
    8.2219   -3.5293   -1.5308 C   0  0  0  0  0  0  0  0  0  0  0  0
    8.6533   -3.2899   -2.7800 F   0  0  0  0  0  0  0  0  0  0  0  0
    5.9480   -3.3303   -3.5419 C   0  0  0  0  0  0  0  0  0  0  0  0
    5.0762   -3.0438   -4.5307 N   0  0  0  0  0  0  0  0  0  0  0  0
    4.0093   -2.2819   -4.2403 C   0  0  0  0  0  0  0  0  0  0  0  0
    3.8280   -1.7959   -2.9465 C   0  0  0  0  0  0  0  0  0  0  0  0
    2.4974   -0.8444   -2.4151 S   0  0  0  0  0  0  0  0  0  0  0  0
    0.6938    1.0496    0.6189 H   0  0  0  0  0  0  0  0  0  0  0  0
    0.7974    0.4771   -1.0288 H   0  0  0  0  0  0  0  0  0  0  0  0
    4.8758   -1.3500    0.2108 H   0  0  0  0  0  0  0  0  0  0  0  0
    5.4771   -3.5141    0.4696 H   0  0  0  0  0  0  0  0  0  0  0  0
    7.1305   -4.2289    2.1064 H   0  0  0  0  0  0  0  0  0  0  0  0
    6.7585   -3.9771   -3.8731 H   0  0  0  0  0  0  0  0  0  0  0  0
    3.3171   -2.0781   -5.0494 H   0  0  0  0  0  0  0  0  0  0  0  0
  1  2  1  0  0  0  0
  1 22  1  0  0  0  0
  1 23  1  0  0  0  0
  2  3  2  0  0  0  0
  2  4  1  0  0  0  0
  4  5  2  0  0  0  0
  4 21  1  0  0  0  0
  5  6  1  0  0  0  0
  5 24  1  0  0  0  0
  6  7  1  0  0  0  0
  6 20  2  0  0  0  0
  7  8  1  0  0  0  0
  7 17  2  0  0  0  0
  8  9  1  0  0  0  0
  8 15  2  0  0  0  0
  9 10  2  0  0  0  0
  9 25  1  0  0  0  0
 10 11  1  0  0  0  0
 10 26  1  0  0  0  0
 11 12  1  0  0  0  0
 11 13  2  0  0  0  0
 13 14  1  0  0  0  0
 13 15  1  0  0  0  0
 15 16  1  0  0  0  0
 17 18  1  0  0  0  0
 17 27  1  0  0  0  0
 18 19  2  0  0  0  0
 19 20  1  0  0  0  0
 19 28  1  0  0  0  0
 20 21  1  0  0  0  0
M  END
$$$$
