CHEMBL222852
 OpenBabel04072215363D

 43 45  0  0  0  0  0  0  0  0999 V2000
   -0.9751   -3.9801    3.4502 N   0  0  0  0  0  0  0  0  0  0  0  0
    0.1657   -3.8295    3.2939 C   0  0  0  0  0  0  0  0  0  0  0  0
    1.5502   -3.6657    3.0312 C   0  0  0  0  0  0  0  0  0  0  0  0
    2.0788   -2.8821    2.0339 C   0  0  0  0  0  0  0  0  0  0  0  0
    3.4381   -2.9911    1.8671 N   0  0  0  0  0  0  0  0  0  0  0  0
    3.9500   -3.8257    2.7428 C   0  0  0  0  0  0  0  0  0  0  0  0
    5.2287   -4.2799    2.7204 N   0  0  0  0  0  0  0  0  0  0  0  0
    5.9479   -4.4293    1.5289 C   0  0  0  0  0  0  0  0  0  0  0  0
    5.3090   -4.8040    0.3398 C   0  0  0  0  0  0  0  0  0  0  0  0
    6.0402   -5.0430   -0.8273 C   0  0  0  0  0  0  0  0  0  0  0  0
    5.3574   -5.5980   -2.0597 C   0  0  0  0  0  0  0  0  0  0  0  0
    4.8474   -4.6993   -3.0931 N   0  0  0  0  0  0  0  0  0  0  0  0
    5.8076   -3.8182   -3.7498 C   0  0  0  0  0  0  0  0  0  0  0  0
    6.0561   -2.4850   -3.0271 C   0  0  0  0  0  0  0  0  0  0  0  0
    4.8300   -1.8002   -2.6069 N   0  0  0  0  0  0  0  0  0  0  0  0
    4.8340   -0.4752   -2.1808 C   0  0  0  0  0  0  0  0  0  0  0  0
    3.8441    0.0744   -1.6882 O   0  0  0  0  0  0  0  0  0  0  0  0
    6.1354    0.3222   -2.3435 C   0  0  0  0  0  0  0  0  0  0  0  0
    5.9970    1.6710   -1.9153 O   0  0  0  0  0  0  0  0  0  0  0  0
    3.7402   -2.6400   -2.1014 C   0  0  0  0  0  0  0  0  0  0  0  0
    3.5952   -3.9915   -2.8169 C   0  0  0  0  0  0  0  0  0  0  0  0
    7.4228   -4.8847   -0.7527 C   0  0  0  0  0  0  0  0  0  0  0  0
    7.9902   -4.5095    0.4605 C   0  0  0  0  0  0  0  0  0  0  0  0
    7.2858   -4.2957    1.5966 N   0  0  0  0  0  0  0  0  0  0  0  0
    2.8135   -4.4345    3.8923 S   0  0  0  0  0  0  0  0  0  0  0  0
    1.5203   -2.2437    1.3590 H   0  0  0  0  0  0  0  0  0  0  0  0
    5.8497   -4.0135    3.4727 H   0  0  0  0  0  0  0  0  0  0  0  0
    4.2340   -4.9553    0.3295 H   0  0  0  0  0  0  0  0  0  0  0  0
    4.5352   -6.2458   -1.7264 H   0  0  0  0  0  0  0  0  0  0  0  0
    6.0558   -6.2961   -2.5364 H   0  0  0  0  0  0  0  0  0  0  0  0
    5.4002   -3.5835   -4.7441 H   0  0  0  0  0  0  0  0  0  0  0  0
    6.7540   -4.3350   -3.9450 H   0  0  0  0  0  0  0  0  0  0  0  0
    6.6133   -1.8309   -3.7051 H   0  0  0  0  0  0  0  0  0  0  0  0
    6.6747   -2.6237   -2.1376 H   0  0  0  0  0  0  0  0  0  0  0  0
    6.4323    0.3372   -3.3944 H   0  0  0  0  0  0  0  0  0  0  0  0
    6.9188   -0.1428   -1.7373 H   0  0  0  0  0  0  0  0  0  0  0  0
    5.0454    1.7856   -1.7129 H   0  0  0  0  0  0  0  0  0  0  0  0
    2.7961   -2.0885   -2.1909 H   0  0  0  0  0  0  0  0  0  0  0  0
    3.9168   -2.7920   -1.0330 H   0  0  0  0  0  0  0  0  0  0  0  0
    3.1225   -3.7950   -3.7906 H   0  0  0  0  0  0  0  0  0  0  0  0
    2.8821   -4.6314   -2.2838 H   0  0  0  0  0  0  0  0  0  0  0  0
    8.0598   -5.0736   -1.6104 H   0  0  0  0  0  0  0  0  0  0  0  0
    9.0658   -4.3975    0.5603 H   0  0  0  0  0  0  0  0  0  0  0  0
  1  2  3  0  0  0  0
  2  3  1  0  0  0  0
  3  4  2  0  0  0  0
  3 25  1  0  0  0  0
  4  5  1  0  0  0  0
  4 26  1  0  0  0  0
  5  6  2  0  0  0  0
  6  7  1  0  0  0  0
  6 25  1  0  0  0  0
  7  8  1  0  0  0  0
  7 27  1  0  0  0  0
  8  9  1  0  0  0  0
  8 24  2  0  0  0  0
  9 10  2  0  0  0  0
  9 28  1  0  0  0  0
 10 11  1  0  0  0  0
 10 22  1  0  0  0  0
 11 12  1  0  0  0  0
 11 29  1  0  0  0  0
 11 30  1  0  0  0  0
 12 13  1  0  0  0  0
 12 21  1  0  0  0  0
 13 14  1  0  0  0  0
 13 31  1  0  0  0  0
 13 32  1  0  0  0  0
 14 15  1  0  0  0  0
 14 33  1  0  0  0  0
 14 34  1  0  0  0  0
 15 16  1  0  0  0  0
 15 20  1  0  0  0  0
 16 17  2  0  0  0  0
 16 18  1  0  0  0  0
 18 19  1  0  0  0  0
 18 35  1  0  0  0  0
 18 36  1  0  0  0  0
 19 37  1  0  0  0  0
 20 21  1  0  0  0  0
 20 38  1  0  0  0  0
 20 39  1  0  0  0  0
 21 40  1  0  0  0  0
 21 41  1  0  0  0  0
 22 23  2  0  0  0  0
 22 42  1  0  0  0  0
 23 24  1  0  0  0  0
 23 43  1  0  0  0  0
M  END
$$$$
