CHEMBL2086726
 OpenBabel04072215363D

 41 45  0  0  0  0  0  0  0  0999 V2000
   -2.9672    0.8163   -0.2136 O   0  0  0  0  0  0  0  0  0  0  0  0
   -1.7993    0.5181   -0.0611 C   0  0  0  0  0  0  0  0  0  0  0  0
   -0.7543    1.4178    0.0379 N   0  0  0  0  0  0  0  0  0  0  0  0
    0.4741    0.7751    0.0393 C   0  0  0  0  0  0  0  0  0  0  0  0
    1.7094    1.3966    0.0618 C   0  0  0  0  0  0  0  0  0  0  0  0
    2.8383    0.5825    0.0024 C   0  0  0  0  0  0  0  0  0  0  0  0
    2.7029   -0.8117   -0.0842 C   0  0  0  0  0  0  0  0  0  0  0  0
    1.4364   -1.4176   -0.0992 C   0  0  0  0  0  0  0  0  0  0  0  0
    0.3092   -0.6147   -0.0246 C   0  0  0  0  0  0  0  0  0  0  0  0
   -1.1553   -0.8595   -0.0232 C   0  0  0  0  0  0  0  0  0  0  0  0
   -1.8579   -2.0160    0.0456 C   0  0  0  0  0  0  0  0  0  0  0  0
   -1.1715   -3.3230    0.1491 C   0  0  0  0  0  0  0  0  0  0  0  0
   -0.8470   -3.8511    1.4067 C   0  0  0  0  0  0  0  0  0  0  0  0
   -0.2043   -5.0834    1.4948 C   0  0  0  0  0  0  0  0  0  0  0  0
    0.1183   -5.5739    2.6983 F   0  0  0  0  0  0  0  0  0  0  0  0
    0.1138   -5.8105    0.3564 C   0  0  0  0  0  0  0  0  0  0  0  0
   -0.2277   -5.2917   -0.8845 C   0  0  0  0  0  0  0  0  0  0  0  0
    0.0683   -5.9835   -1.9923 F   0  0  0  0  0  0  0  0  0  0  0  0
   -0.8665   -4.0596   -1.0030 C   0  0  0  0  0  0  0  0  0  0  0  0
   -3.2841   -1.9808    0.1242 C   0  0  0  0  0  0  0  0  0  0  0  0
   -4.0819   -1.9270    1.1704 N   0  0  0  0  0  0  0  0  0  0  0  0
   -5.3608   -1.9290    0.6626 C   0  0  0  0  0  0  0  0  0  0  0  0
   -6.5951   -1.8324    1.3239 C   0  0  0  0  0  0  0  0  0  0  0  0
   -7.7715   -1.8643    0.5638 C   0  0  0  0  0  0  0  0  0  0  0  0
   -7.7226   -2.0024   -0.8260 C   0  0  0  0  0  0  0  0  0  0  0  0
   -6.5024   -2.1036   -1.5038 C   0  0  0  0  0  0  0  0  0  0  0  0
   -5.3449   -2.0531   -0.7215 C   0  0  0  0  0  0  0  0  0  0  0  0
   -4.0118   -2.0874   -1.0385 N   0  0  0  0  0  0  0  0  0  0  0  0
   -0.9001    2.4155    0.0321 H   0  0  0  0  0  0  0  0  0  0  0  0
    1.8042    2.4752    0.1158 H   0  0  0  0  0  0  0  0  0  0  0  0
    3.8305    1.0287    0.0161 H   0  0  0  0  0  0  0  0  0  0  0  0
    3.5954   -1.4322   -0.1425 H   0  0  0  0  0  0  0  0  0  0  0  0
    1.3807   -2.4952   -0.1768 H   0  0  0  0  0  0  0  0  0  0  0  0
   -1.0956   -3.3153    2.3200 H   0  0  0  0  0  0  0  0  0  0  0  0
    0.6155   -6.7677    0.4361 H   0  0  0  0  0  0  0  0  0  0  0  0
   -1.1131   -3.6890   -1.9930 H   0  0  0  0  0  0  0  0  0  0  0  0
   -6.6250   -1.7226    2.4017 H   0  0  0  0  0  0  0  0  0  0  0  0
   -8.7326   -1.7762    1.0637 H   0  0  0  0  0  0  0  0  0  0  0  0
   -8.6515   -2.0239   -1.3931 H   0  0  0  0  0  0  0  0  0  0  0  0
   -6.4651   -2.2032   -2.5828 H   0  0  0  0  0  0  0  0  0  0  0  0
   -3.6309   -2.1497   -1.9694 H   0  0  0  0  0  0  0  0  0  0  0  0
  1  2  2  0  0  0  0
  2  3  1  0  0  0  0
  2 10  1  0  0  0  0
  3  4  1  0  0  0  0
  3 29  1  0  0  0  0
  4  5  1  0  0  0  0
  4  9  2  0  0  0  0
  5  6  2  0  0  0  0
  5 30  1  0  0  0  0
  6  7  1  0  0  0  0
  6 31  1  0  0  0  0
  7  8  2  0  0  0  0
  7 32  1  0  0  0  0
  8  9  1  0  0  0  0
  8 33  1  0  0  0  0
  9 10  1  0  0  0  0
 10 11  2  3  0  0  0
 11 12  1  0  0  0  0
 11 20  1  0  0  0  0
 12 13  1  0  0  0  0
 12 19  2  0  0  0  0
 13 14  2  0  0  0  0
 13 34  1  0  0  0  0
 14 15  1  0  0  0  0
 14 16  1  0  0  0  0
 16 17  2  0  0  0  0
 16 35  1  0  0  0  0
 17 18  1  0  0  0  0
 17 19  1  0  0  0  0
 19 36  1  0  0  0  0
 20 21  2  0  0  0  0
 20 28  1  0  0  0  0
 21 22  1  0  0  0  0
 22 23  1  0  0  0  0
 22 27  2  0  0  0  0
 23 24  2  0  0  0  0
 23 37  1  0  0  0  0
 24 25  1  0  0  0  0
 24 38  1  0  0  0  0
 25 26  2  0  0  0  0
 25 39  1  0  0  0  0
 26 27  1  0  0  0  0
 26 40  1  0  0  0  0
 27 28  1  0  0  0  0
 28 41  1  0  0  0  0
M  END
$$$$
