CHEMBL1969190
 OpenBabel04072215363D

 46 49  0  0  0  0  0  0  0  0999 V2000
    2.4022    1.1207   -0.4767 C   0  0  0  0  0  0  0  0  0  0  0  0
    2.2986   -0.2562   -0.1227 O   0  0  0  0  0  0  0  0  0  0  0  0
    3.0674   -1.1120   -0.8931 C   0  0  0  0  0  0  0  0  0  0  0  0
    2.5710   -2.4033   -1.0523 C   0  0  0  0  0  0  0  0  0  0  0  0
    3.2671   -3.3505   -1.8079 C   0  0  0  0  0  0  0  0  0  0  0  0
    4.5151   -3.0712   -2.4180 C   0  0  0  0  0  0  0  0  0  0  0  0
    5.1813   -4.0921   -3.2569 C   0  0  0  0  0  0  0  0  0  0  0  0
    5.7877   -3.7425   -4.4663 C   0  0  0  0  0  0  0  0  0  0  0  0
    6.4690   -4.6762   -5.2482 C   0  0  0  0  0  0  0  0  0  0  0  0
    6.4965   -6.0284   -4.8995 C   0  0  0  0  0  0  0  0  0  0  0  0
    7.1274   -7.0126   -5.6964 N   0  0  0  0  0  0  0  0  0  0  0  0
    7.9859   -6.7415   -6.7537 C   0  0  0  0  0  0  0  0  0  0  0  0
    8.4413   -5.6370   -7.0251 O   0  0  0  0  0  0  0  0  0  0  0  0
    8.2338   -7.8731   -7.5232 N   0  0  0  0  0  0  0  0  0  0  0  0
    9.0346   -7.7598   -8.6867 C   0  0  0  0  0  0  0  0  0  0  0  0
   10.2379   -7.0445   -8.6763 C   0  0  0  0  0  0  0  0  0  0  0  0
   10.9357   -6.8403   -9.8605 C   0  0  0  0  0  0  0  0  0  0  0  0
   12.0756   -6.1376   -9.8431 F   0  0  0  0  0  0  0  0  0  0  0  0
   10.4578   -7.3368  -11.0637 C   0  0  0  0  0  0  0  0  0  0  0  0
    9.2817   -8.0744  -11.0589 C   0  0  0  0  0  0  0  0  0  0  0  0
    8.7947   -8.5383  -12.2174 F   0  0  0  0  0  0  0  0  0  0  0  0
    8.5767   -8.3164   -9.8805 C   0  0  0  0  0  0  0  0  0  0  0  0
    5.8249   -6.4176   -3.7423 C   0  0  0  0  0  0  0  0  0  0  0  0
    5.1924   -5.4611   -2.9239 C   0  0  0  0  0  0  0  0  0  0  0  0
    5.0617   -1.7666   -2.2100 C   0  0  0  0  0  0  0  0  0  0  0  0
    6.2337   -1.0032   -2.5430 C   0  0  0  0  0  0  0  0  0  0  0  0
    7.3021   -1.4294   -3.2385 N   0  0  0  0  0  0  0  0  0  0  0  0
    6.1729    0.2450   -2.0754 N   0  0  0  0  0  0  0  0  0  0  0  0
    4.9845    0.3276   -1.3968 O   0  0  0  0  0  0  0  0  0  0  0  0
    4.3137   -0.8459   -1.4700 C   0  0  0  0  0  0  0  0  0  0  0  0
    1.6001    1.6547    0.0405 H   0  0  0  0  0  0  0  0  0  0  0  0
    2.2641    1.2696   -1.5527 H   0  0  0  0  0  0  0  0  0  0  0  0
    3.3470    1.5484   -0.1322 H   0  0  0  0  0  0  0  0  0  0  0  0
    1.6152   -2.6656   -0.6050 H   0  0  0  0  0  0  0  0  0  0  0  0
    2.8019   -4.3281   -1.9425 H   0  0  0  0  0  0  0  0  0  0  0  0
    5.7537   -2.7169   -4.8292 H   0  0  0  0  0  0  0  0  0  0  0  0
    6.9553   -4.2971   -6.1398 H   0  0  0  0  0  0  0  0  0  0  0  0
    7.0883   -7.9628   -5.3820 H   0  0  0  0  0  0  0  0  0  0  0  0
    7.4525   -8.5120   -7.5726 H   0  0  0  0  0  0  0  0  0  0  0  0
   10.6325   -6.6154   -7.7583 H   0  0  0  0  0  0  0  0  0  0  0  0
   10.9880   -7.1418  -11.9877 H   0  0  0  0  0  0  0  0  0  0  0  0
    7.6434   -8.8662   -9.9346 H   0  0  0  0  0  0  0  0  0  0  0  0
    5.7838   -7.4634   -3.4462 H   0  0  0  0  0  0  0  0  0  0  0  0
    4.7007   -5.8088   -2.0168 H   0  0  0  0  0  0  0  0  0  0  0  0
    7.5457   -2.4147   -3.2955 H   0  0  0  0  0  0  0  0  0  0  0  0
    8.1041   -0.8093   -3.3040 H   0  0  0  0  0  0  0  0  0  0  0  0
  1  2  1  0  0  0  0
  1 31  1  0  0  0  0
  1 32  1  0  0  0  0
  1 33  1  0  0  0  0
  2  3  1  0  0  0  0
  3  4  1  0  0  0  0
  3 30  2  0  0  0  0
  4  5  2  0  0  0  0
  4 34  1  0  0  0  0
  5  6  1  0  0  0  0
  5 35  1  0  0  0  0
  6  7  1  0  0  0  0
  6 25  2  0  0  0  0
  7  8  1  0  0  0  0
  7 24  2  0  0  0  0
  8  9  2  0  0  0  0
  8 36  1  0  0  0  0
  9 10  1  0  0  0  0
  9 37  1  0  0  0  0
 10 11  1  0  0  0  0
 10 23  2  0  0  0  0
 11 12  1  0  0  0  0
 11 38  1  0  0  0  0
 12 13  2  0  0  0  0
 12 14  1  0  0  0  0
 14 15  1  0  0  0  0
 14 39  1  0  0  0  0
 15 16  1  0  0  0  0
 15 22  2  0  0  0  0
 16 17  2  0  0  0  0
 16 40  1  0  0  0  0
 17 18  1  0  0  0  0
 17 19  1  0  0  0  0
 19 20  2  0  0  0  0
 19 41  1  0  0  0  0
 20 21  1  0  0  0  0
 20 22  1  0  0  0  0
 22 42  1  0  0  0  0
 23 24  1  0  0  0  0
 23 43  1  0  0  0  0
 24 44  1  0  0  0  0
 25 26  1  0  0  0  0
 25 30  1  0  0  0  0
 26 27  1  0  0  0  0
 26 28  2  0  0  0  0
 27 45  1  0  0  0  0
 27 46  1  0  0  0  0
 28 29  1  0  0  0  0
 29 30  1  0  0  0  0
M  END
$$$$
