CHEMBL3813969
 OpenBabel04072215373D

 49 52  0  0  0  0  0  0  0  0999 V2000
    1.8400    0.3926    1.2324 O   0  0  0  0  0  0  0  0  0  0  0  0
    2.3104    0.1792    0.1131 C   0  0  0  0  0  0  0  0  0  0  0  0
    2.1480   -0.9829   -0.6184 N   0  0  0  0  0  0  0  0  0  0  0  0
    1.3637   -2.0986   -0.2361 C   0  0  0  0  0  0  0  0  0  0  0  0
    0.6316   -2.1470    0.9551 C   0  0  0  0  0  0  0  0  0  0  0  0
   -0.0955   -3.2818    1.3191 C   0  0  0  0  0  0  0  0  0  0  0  0
   -0.1227   -4.4038    0.4895 C   0  0  0  0  0  0  0  0  0  0  0  0
   -0.8685   -5.6397    0.9241 C   0  0  0  0  0  0  0  0  0  0  0  0
   -2.2572   -5.6476    0.5018 N   0  0  0  0  0  0  0  0  0  0  0  0
   -3.2540   -4.7967    0.8746 C   0  0  0  0  0  0  0  0  0  0  0  0
   -4.4039   -5.2359    0.4157 N   0  0  0  0  0  0  0  0  0  0  0  0
   -4.0557   -6.3842   -0.2324 C   0  0  0  0  0  0  0  0  0  0  0  0
   -2.7557   -6.6874   -0.2000 N   0  0  0  0  0  0  0  0  0  0  0  0
    0.5707   -4.3492   -0.7285 C   0  0  0  0  0  0  0  0  0  0  0  0
    1.3124   -3.2090   -1.0839 C   0  0  0  0  0  0  0  0  0  0  0  0
    3.1056    1.2827   -0.4924 C   0  0  0  0  0  0  0  0  0  0  0  0
    2.7414    2.5740   -0.0465 C   0  0  0  0  0  0  0  0  0  0  0  0
    3.4386    3.7059   -0.4499 C   0  0  0  0  0  0  0  0  0  0  0  0
    4.5419    3.5575   -1.2718 C   0  0  0  0  0  0  0  0  0  0  0  0
    4.9084    2.2861   -1.7269 C   0  0  0  0  0  0  0  0  0  0  0  0
    4.1628    1.1264   -1.4122 C   0  0  0  0  0  0  0  0  0  0  0  0
    4.5375   -0.1555   -1.9174 N   0  0  0  0  0  0  0  0  0  0  0  0
    5.3134   -0.1106   -3.1683 C   0  0  0  0  0  0  0  0  0  0  0  0
    5.2130   -1.3674   -3.9954 C   0  0  0  0  0  0  0  0  0  0  0  0
    5.2497   -1.2447   -5.3940 C   0  0  0  0  0  0  0  0  0  0  0  0
    5.2281   -2.3862   -6.1768 C   0  0  0  0  0  0  0  0  0  0  0  0
    5.1848   -3.6322   -5.6672 N   0  0  0  0  0  0  0  0  0  0  0  0
    5.1663   -3.7364   -4.3207 C   0  0  0  0  0  0  0  0  0  0  0  0
    5.1847   -2.6521   -3.4524 C   0  0  0  0  0  0  0  0  0  0  0  0
    2.6570   -1.0267   -1.4991 H   0  0  0  0  0  0  0  0  0  0  0  0
    0.6034   -1.3138    1.6486 H   0  0  0  0  0  0  0  0  0  0  0  0
   -0.6262   -3.2702    2.2690 H   0  0  0  0  0  0  0  0  0  0  0  0
   -0.8672   -5.7287    2.0181 H   0  0  0  0  0  0  0  0  0  0  0  0
   -0.3807   -6.5383    0.5294 H   0  0  0  0  0  0  0  0  0  0  0  0
   -3.0988   -3.9071    1.4680 H   0  0  0  0  0  0  0  0  0  0  0  0
   -4.7717   -7.0234   -0.7330 H   0  0  0  0  0  0  0  0  0  0  0  0
    0.5513   -5.2005   -1.4077 H   0  0  0  0  0  0  0  0  0  0  0  0
    1.8470   -3.2068   -2.0306 H   0  0  0  0  0  0  0  0  0  0  0  0
    1.8972    2.6967    0.6317 H   0  0  0  0  0  0  0  0  0  0  0  0
    3.1332    4.6884   -0.1010 H   0  0  0  0  0  0  0  0  0  0  0  0
    5.1227    4.4283   -1.5630 H   0  0  0  0  0  0  0  0  0  0  0  0
    5.8028    2.2374   -2.3425 H   0  0  0  0  0  0  0  0  0  0  0  0
    5.0866   -0.6207   -1.1880 H   0  0  0  0  0  0  0  0  0  0  0  0
    6.3724    0.0782   -2.9529 H   0  0  0  0  0  0  0  0  0  0  0  0
    4.9345    0.7045   -3.7986 H   0  0  0  0  0  0  0  0  0  0  0  0
    5.3007   -0.2720   -5.8747 H   0  0  0  0  0  0  0  0  0  0  0  0
    5.2534   -2.3224   -7.2613 H   0  0  0  0  0  0  0  0  0  0  0  0
    5.1443   -4.7550   -3.9436 H   0  0  0  0  0  0  0  0  0  0  0  0
    5.1838   -2.8206   -2.3819 H   0  0  0  0  0  0  0  0  0  0  0  0
  1  2  2  0  0  0  0
  2  3  1  0  0  0  0
  2 16  1  0  0  0  0
  3  4  1  0  0  0  0
  3 30  1  0  0  0  0
  4  5  1  0  0  0  0
  4 15  2  0  0  0  0
  5  6  2  0  0  0  0
  5 31  1  0  0  0  0
  6  7  1  0  0  0  0
  6 32  1  0  0  0  0
  7  8  1  0  0  0  0
  7 14  2  0  0  0  0
  8  9  1  0  0  0  0
  8 33  1  0  0  0  0
  8 34  1  0  0  0  0
  9 10  1  0  0  0  0
  9 13  1  0  0  0  0
 10 11  2  0  0  0  0
 10 35  1  0  0  0  0
 11 12  1  0  0  0  0
 12 13  2  0  0  0  0
 12 36  1  0  0  0  0
 14 15  1  0  0  0  0
 14 37  1  0  0  0  0
 15 38  1  0  0  0  0
 16 17  1  0  0  0  0
 16 21  2  0  0  0  0
 17 18  2  0  0  0  0
 17 39  1  0  0  0  0
 18 19  1  0  0  0  0
 18 40  1  0  0  0  0
 19 20  2  0  0  0  0
 19 41  1  0  0  0  0
 20 21  1  0  0  0  0
 20 42  1  0  0  0  0
 21 22  1  0  0  0  0
 22 23  1  0  0  0  0
 22 43  1  0  0  0  0
 23 24  1  0  0  0  0
 23 44  1  0  0  0  0
 23 45  1  0  0  0  0
 24 25  1  0  0  0  0
 24 29  2  0  0  0  0
 25 26  2  0  0  0  0
 25 46  1  0  0  0  0
 26 27  1  0  0  0  0
 26 47  1  0  0  0  0
 27 28  2  0  0  0  0
 28 29  1  0  0  0  0
 28 48  1  0  0  0  0
 29 49  1  0  0  0  0
M  END
$$$$
