CHEMBL384294
 OpenBabel04072215373D

 69 74  0  0  0  0  0  0  0  0999 V2000
    2.0064   -0.1916   -0.9886 C   0  0  0  0  0  0  0  0  0  0  0  0
    0.5743    0.0814   -1.0643 N   0  0  0  0  0  0  0  0  0  0  0  0
   -0.2069   -1.1171   -0.7169 C   0  0  0  0  0  0  0  0  0  0  0  0
   -1.7251   -0.8286   -0.7256 C   0  0  0  0  0  0  0  0  0  0  0  0
   -2.1447    0.2477    0.1979 N   0  0  0  0  0  0  0  0  0  0  0  0
   -1.9913   -0.0876    1.6245 C   0  0  0  0  0  0  0  0  0  0  0  0
   -2.7774   -1.3058    2.0843 C   0  0  0  0  0  0  0  0  0  0  0  0
   -2.1915   -2.5973    1.9995 C   0  0  0  0  0  0  0  0  0  0  0  0
   -2.8921   -3.7583    2.3399 C   0  0  0  0  0  0  0  0  0  0  0  0
   -4.1790   -3.6179    2.8208 C   0  0  0  0  0  0  0  0  0  0  0  0
   -4.7371   -2.3215    2.9694 C   0  0  0  0  0  0  0  0  0  0  0  0
   -4.0782   -1.1695    2.5908 C   0  0  0  0  0  0  0  0  0  0  0  0
   -6.0135   -2.5204    3.5648 C   0  0  0  0  0  0  0  0  0  0  0  0
   -6.9743   -1.7523    4.0541 N   0  0  0  0  0  0  0  0  0  0  0  0
   -7.8533   -2.6760    4.5225 N   0  0  0  0  0  0  0  0  0  0  0  0
   -7.4732   -3.9929    4.3270 C   0  0  0  0  0  0  0  0  0  0  0  0
   -8.2566   -5.1215    4.7334 C   0  0  0  0  0  0  0  0  0  0  0  0
   -8.0984   -6.4373    4.3471 C   0  0  0  0  0  0  0  0  0  0  0  0
   -9.0222   -7.3118    4.9966 C   0  0  0  0  0  0  0  0  0  0  0  0
   -9.8359   -6.6445    5.8926 C   0  0  0  0  0  0  0  0  0  0  0  0
  -10.7931   -7.2273    6.8924 C   0  0  0  0  0  0  0  0  0  0  0  0
  -12.1454   -7.3629    6.3583 N   0  0  0  0  0  0  0  0  0  0  0  0
  -13.0839   -6.2805    6.6184 C   0  0  0  0  0  0  0  0  0  0  0  0
  -12.4328   -8.5186    5.6389 C   0  0  0  0  0  0  0  0  0  0  0  0
  -11.5888   -9.4037    5.5076 O   0  0  0  0  0  0  0  0  0  0  0  0
  -13.7031   -8.5704    5.1029 N   0  0  0  0  0  0  0  0  0  0  0  0
  -14.2498   -9.6115    4.3224 C   0  0  0  0  0  0  0  0  0  0  0  0
  -13.6460  -10.8627    4.1625 C   0  0  0  0  0  0  0  0  0  0  0  0
  -14.1968  -11.8099    3.2940 C   0  0  0  0  0  0  0  0  0  0  0  0
  -15.3603  -11.5104    2.6018 C   0  0  0  0  0  0  0  0  0  0  0  0
  -15.8644  -12.4036    1.7399 F   0  0  0  0  0  0  0  0  0  0  0  0
  -16.0057  -10.2960    2.7877 C   0  0  0  0  0  0  0  0  0  0  0  0
  -15.4543   -9.3484    3.6548 C   0  0  0  0  0  0  0  0  0  0  0  0
   -9.5654   -4.9564    5.8315 S   0  0  0  0  0  0  0  0  0  0  0  0
   -6.2444   -3.8952    3.7248 C   0  0  0  0  0  0  0  0  0  0  0  0
   -5.1252   -4.7483    3.2427 C   0  0  0  0  0  0  0  0  0  0  0  0
   -1.3386    1.4476   -0.1381 C   0  0  0  0  0  0  0  0  0  0  0  0
    0.1962    1.2120   -0.1943 C   0  0  0  0  0  0  0  0  0  0  0  0
    2.2738   -1.0268   -1.6460 H   0  0  0  0  0  0  0  0  0  0  0  0
    2.3294   -0.4416    0.0287 H   0  0  0  0  0  0  0  0  0  0  0  0
    2.5800    0.6759   -1.3311 H   0  0  0  0  0  0  0  0  0  0  0  0
    0.1015   -1.4965    0.2641 H   0  0  0  0  0  0  0  0  0  0  0  0
   -0.0046   -1.9130   -1.4434 H   0  0  0  0  0  0  0  0  0  0  0  0
   -2.2885   -1.7495   -0.5462 H   0  0  0  0  0  0  0  0  0  0  0  0
   -2.0141   -0.5327   -1.7442 H   0  0  0  0  0  0  0  0  0  0  0  0
   -2.3443    0.7662    2.2212 H   0  0  0  0  0  0  0  0  0  0  0  0
   -0.9456   -0.2297    1.9147 H   0  0  0  0  0  0  0  0  0  0  0  0
   -1.1723   -2.7040    1.6376 H   0  0  0  0  0  0  0  0  0  0  0  0
   -2.4308   -4.7342    2.2301 H   0  0  0  0  0  0  0  0  0  0  0  0
   -4.5576   -0.2011    2.6879 H   0  0  0  0  0  0  0  0  0  0  0  0
   -8.6974   -2.3507    4.9790 H   0  0  0  0  0  0  0  0  0  0  0  0
   -7.3473   -6.7740    3.6458 H   0  0  0  0  0  0  0  0  0  0  0  0
   -9.0516   -8.3877    4.8585 H   0  0  0  0  0  0  0  0  0  0  0  0
  -10.8215   -6.6215    7.8056 H   0  0  0  0  0  0  0  0  0  0  0  0
  -10.4232   -8.2125    7.2011 H   0  0  0  0  0  0  0  0  0  0  0  0
  -12.7303   -5.6401    7.4308 H   0  0  0  0  0  0  0  0  0  0  0  0
  -14.0520   -6.6960    6.9148 H   0  0  0  0  0  0  0  0  0  0  0  0
  -13.2077   -5.6883    5.7077 H   0  0  0  0  0  0  0  0  0  0  0  0
  -14.2305   -7.7140    5.1117 H   0  0  0  0  0  0  0  0  0  0  0  0
  -12.7392  -11.1335    4.6935 H   0  0  0  0  0  0  0  0  0  0  0  0
  -13.7096  -12.7675    3.1475 H   0  0  0  0  0  0  0  0  0  0  0  0
  -16.9188  -10.0852    2.2423 H   0  0  0  0  0  0  0  0  0  0  0  0
  -15.9660   -8.3977    3.7787 H   0  0  0  0  0  0  0  0  0  0  0  0
   -5.4116   -5.3539    2.3790 H   0  0  0  0  0  0  0  0  0  0  0  0
   -4.6854   -5.3502    4.0410 H   0  0  0  0  0  0  0  0  0  0  0  0
   -1.5602    2.2615    0.5635 H   0  0  0  0  0  0  0  0  0  0  0  0
   -1.6688    1.8111   -1.1206 H   0  0  0  0  0  0  0  0  0  0  0  0
    0.5723    1.0539    0.8245 H   0  0  0  0  0  0  0  0  0  0  0  0
    0.6687    2.1267   -0.5713 H   0  0  0  0  0  0  0  0  0  0  0  0
  1  2  1  0  0  0  0
  1 39  1  0  0  0  0
  1 40  1  0  0  0  0
  1 41  1  0  0  0  0
  2  3  1  0  0  0  0
  2 38  1  0  0  0  0
  3  4  1  0  0  0  0
  3 42  1  0  0  0  0
  3 43  1  0  0  0  0
  4  5  1  0  0  0  0
  4 44  1  0  0  0  0
  4 45  1  0  0  0  0
  5  6  1  0  0  0  0
  5 37  1  0  0  0  0
  6  7  1  0  0  0  0
  6 46  1  0  0  0  0
  6 47  1  0  0  0  0
  7  8  1  0  0  0  0
  7 12  2  0  0  0  0
  8  9  2  0  0  0  0
  8 48  1  0  0  0  0
  9 10  1  0  0  0  0
  9 49  1  0  0  0  0
 10 11  2  0  0  0  0
 10 36  1  0  0  0  0
 11 12  1  0  0  0  0
 11 13  1  0  0  0  0
 12 50  1  0  0  0  0
 13 14  2  0  0  0  0
 13 35  1  0  0  0  0
 14 15  1  0  0  0  0
 15 16  1  0  0  0  0
 15 51  1  0  0  0  0
 16 17  1  0  0  0  0
 16 35  2  0  0  0  0
 17 18  2  0  0  0  0
 17 34  1  0  0  0  0
 18 19  1  0  0  0  0
 18 52  1  0  0  0  0
 19 20  2  0  0  0  0
 19 53  1  0  0  0  0
 20 21  1  0  0  0  0
 20 34  1  0  0  0  0
 21 22  1  0  0  0  0
 21 54  1  0  0  0  0
 21 55  1  0  0  0  0
 22 23  1  0  0  0  0
 22 24  1  0  0  0  0
 23 56  1  0  0  0  0
 23 57  1  0  0  0  0
 23 58  1  0  0  0  0
 24 25  2  0  0  0  0
 24 26  1  0  0  0  0
 26 27  1  0  0  0  0
 26 59  1  0  0  0  0
 27 28  1  0  0  0  0
 27 33  2  0  0  0  0
 28 29  2  0  0  0  0
 28 60  1  0  0  0  0
 29 30  1  0  0  0  0
 29 61  1  0  0  0  0
 30 31  1  0  0  0  0
 30 32  2  0  0  0  0
 32 33  1  0  0  0  0
 32 62  1  0  0  0  0
 33 63  1  0  0  0  0
 35 36  1  0  0  0  0
 36 64  1  0  0  0  0
 36 65  1  0  0  0  0
 37 38  1  0  0  0  0
 37 66  1  0  0  0  0
 37 67  1  0  0  0  0
 38 68  1  0  0  0  0
 38 69  1  0  0  0  0
M  END
$$$$
