CHEMBL394465
 OpenBabel04072215373D

 52 56  0  0  0  0  0  0  0  0999 V2000
    1.9896   -1.3149   -1.1719 C   0  0  0  0  0  0  0  0  0  0  0  0
    0.8766   -0.4400   -0.8102 N   0  0  0  0  0  0  0  0  0  0  0  0
   -0.3423   -0.8096   -1.5698 C   0  0  0  0  0  0  0  0  0  0  0  0
   -1.5827    0.0318   -1.1742 C   0  0  0  0  0  0  0  0  0  0  0  0
   -1.7996   -0.0931    0.2725 N   0  0  0  0  0  0  0  0  0  0  0  0
   -3.0606   -0.0178    0.8416 C   0  0  0  0  0  0  0  0  0  0  0  0
   -3.2772   -0.6297    2.0919 C   0  0  0  0  0  0  0  0  0  0  0  0
   -4.5260   -0.6478    2.7227 C   0  0  0  0  0  0  0  0  0  0  0  0
   -5.5985   -0.0389    2.0723 C   0  0  0  0  0  0  0  0  0  0  0  0
   -6.8997    0.0712    2.4759 N   0  0  0  0  0  0  0  0  0  0  0  0
   -7.5212    0.6947    1.4960 C   0  0  0  0  0  0  0  0  0  0  0  0
   -8.9825    1.0114    1.4639 C   0  0  0  0  0  0  0  0  0  0  0  0
   -9.5441    1.5814    0.3843 N   0  0  0  0  0  0  0  0  0  0  0  0
  -10.8441    1.6717    0.7170 N   0  0  0  0  0  0  0  0  0  0  0  0
  -11.1294    1.2069    1.9679 C   0  0  0  0  0  0  0  0  0  0  0  0
   -9.9350    0.7713    2.4944 C   0  0  0  0  0  0  0  0  0  0  0  0
   -9.7159    0.2113    3.7910 C   0  0  0  0  0  0  0  0  0  0  0  0
  -10.6205    0.0556    4.7702 C   0  0  0  0  0  0  0  0  0  0  0  0
  -10.2958   -0.5263    6.0834 C   0  0  0  0  0  0  0  0  0  0  0  0
   -9.0469   -0.3856    6.6987 C   0  0  0  0  0  0  0  0  0  0  0  0
   -8.8143   -0.9577    7.9477 C   0  0  0  0  0  0  0  0  0  0  0  0
   -9.8505   -1.6428    8.5592 C   0  0  0  0  0  0  0  0  0  0  0  0
  -11.0782   -1.7824    8.0179 N   0  0  0  0  0  0  0  0  0  0  0  0
  -11.2700   -1.2201    6.7992 C   0  0  0  0  0  0  0  0  0  0  0  0
   -6.6506    1.0094    0.4846 N   0  0  0  0  0  0  0  0  0  0  0  0
   -5.4038    0.5511    0.8312 C   0  0  0  0  0  0  0  0  0  0  0  0
   -4.1558    0.5836    0.1919 C   0  0  0  0  0  0  0  0  0  0  0  0
   -0.6254    0.3070    1.0711 C   0  0  0  0  0  0  0  0  0  0  0  0
    0.5969   -0.5365    0.6422 C   0  0  0  0  0  0  0  0  0  0  0  0
    2.2155   -1.2245   -2.2398 H   0  0  0  0  0  0  0  0  0  0  0  0
    1.7812   -2.3683   -0.9514 H   0  0  0  0  0  0  0  0  0  0  0  0
    2.8964   -1.0233   -0.6307 H   0  0  0  0  0  0  0  0  0  0  0  0
   -0.5782   -1.8704   -1.4034 H   0  0  0  0  0  0  0  0  0  0  0  0
   -0.1614   -0.6778   -2.6425 H   0  0  0  0  0  0  0  0  0  0  0  0
   -2.4393   -0.3483   -1.7427 H   0  0  0  0  0  0  0  0  0  0  0  0
   -1.4311    1.0843   -1.4461 H   0  0  0  0  0  0  0  0  0  0  0  0
   -2.4625   -1.1577    2.5814 H   0  0  0  0  0  0  0  0  0  0  0  0
   -4.6659   -1.1404    3.6772 H   0  0  0  0  0  0  0  0  0  0  0  0
  -11.4885    2.0640    0.0385 H   0  0  0  0  0  0  0  0  0  0  0  0
  -12.1372    1.2292    2.3554 H   0  0  0  0  0  0  0  0  0  0  0  0
   -8.6993   -0.1200    3.9876 H   0  0  0  0  0  0  0  0  0  0  0  0
  -11.6577    0.3448    4.6225 H   0  0  0  0  0  0  0  0  0  0  0  0
   -8.2433    0.1681    6.2188 H   0  0  0  0  0  0  0  0  0  0  0  0
   -7.8491   -0.8662    8.4309 H   0  0  0  0  0  0  0  0  0  0  0  0
   -9.7155   -2.1089    9.5310 H   0  0  0  0  0  0  0  0  0  0  0  0
  -12.2700   -1.3599    6.3968 H   0  0  0  0  0  0  0  0  0  0  0  0
   -6.9167    1.4867   -0.3648 H   0  0  0  0  0  0  0  0  0  0  0  0
   -4.0476    1.0707   -0.7700 H   0  0  0  0  0  0  0  0  0  0  0  0
   -0.7744    0.1758    2.1480 H   0  0  0  0  0  0  0  0  0  0  0  0
   -0.4201    1.3733    0.9084 H   0  0  0  0  0  0  0  0  0  0  0  0
    0.4138   -1.5830    0.9238 H   0  0  0  0  0  0  0  0  0  0  0  0
    1.4707   -0.1921    1.2078 H   0  0  0  0  0  0  0  0  0  0  0  0
  1  2  1  0  0  0  0
  1 30  1  0  0  0  0
  1 31  1  0  0  0  0
  1 32  1  0  0  0  0
  2  3  1  0  0  0  0
  2 29  1  0  0  0  0
  3  4  1  0  0  0  0
  3 33  1  0  0  0  0
  3 34  1  0  0  0  0
  4  5  1  0  0  0  0
  4 35  1  0  0  0  0
  4 36  1  0  0  0  0
  5  6  1  0  0  0  0
  5 28  1  0  0  0  0
  6  7  1  0  0  0  0
  6 27  2  0  0  0  0
  7  8  2  0  0  0  0
  7 37  1  0  0  0  0
  8  9  1  0  0  0  0
  8 38  1  0  0  0  0
  9 10  1  0  0  0  0
  9 26  2  0  0  0  0
 10 11  2  0  0  0  0
 11 12  1  0  0  0  0
 11 25  1  0  0  0  0
 12 13  2  0  0  0  0
 12 16  1  0  0  0  0
 13 14  1  0  0  0  0
 14 15  1  0  0  0  0
 14 39  1  0  0  0  0
 15 16  2  0  0  0  0
 15 40  1  0  0  0  0
 16 17  1  0  0  0  0
 17 18  2  0  0  0  0
 17 41  1  0  0  0  0
 18 19  1  0  0  0  0
 18 42  1  0  0  0  0
 19 20  1  0  0  0  0
 19 24  2  0  0  0  0
 20 21  2  0  0  0  0
 20 43  1  0  0  0  0
 21 22  1  0  0  0  0
 21 44  1  0  0  0  0
 22 23  2  0  0  0  0
 22 45  1  0  0  0  0
 23 24  1  0  0  0  0
 24 46  1  0  0  0  0
 25 26  1  0  0  0  0
 25 47  1  0  0  0  0
 26 27  1  0  0  0  0
 27 48  1  0  0  0  0
 28 29  1  0  0  0  0
 28 49  1  0  0  0  0
 28 50  1  0  0  0  0
 29 51  1  0  0  0  0
 29 52  1  0  0  0  0
M  END
$$$$
