CHEMBL3922242
 OpenBabel04072215373D

 66 70  0  0  0  0  0  0  0  0999 V2000
    4.1865    0.9554    0.7503 C   0  0  0  0  0  0  0  0  0  0  0  0
    2.9590    0.2154    0.1771 C   0  0  0  0  0  0  0  0  0  0  0  0
    2.4626   -0.7670    1.2587 C   0  0  0  0  0  0  0  0  0  0  0  0
    1.8611    1.2683   -0.0912 C   0  0  0  0  0  0  0  0  0  0  0  0
    3.2609   -0.5402   -1.1261 C   0  0  0  0  0  0  0  0  0  0  0  0
    4.5313   -0.5462   -1.7298 C   0  0  0  0  0  0  0  0  0  0  0  0
    4.7630   -1.2086   -2.9432 C   0  0  0  0  0  0  0  0  0  0  0  0
    3.7169   -1.8750   -3.5773 C   0  0  0  0  0  0  0  0  0  0  0  0
    3.8653   -2.5945   -4.8648 C   0  0  0  0  0  0  0  0  0  0  0  0
    3.1377   -3.5660   -5.0446 O   0  0  0  0  0  0  0  0  0  0  0  0
    4.8176   -2.1061   -5.7541 N   0  0  0  0  0  0  0  0  0  0  0  0
    5.0439   -2.6424   -7.0386 C   0  0  0  0  0  0  0  0  0  0  0  0
    4.1399   -3.4986   -7.6701 C   0  0  0  0  0  0  0  0  0  0  0  0
    4.4557   -4.1162   -8.8835 C   0  0  0  0  0  0  0  0  0  0  0  0
    5.6758   -3.8442   -9.4890 C   0  0  0  0  0  0  0  0  0  0  0  0
    6.5310   -2.8852   -8.9406 C   0  0  0  0  0  0  0  0  0  0  0  0
    7.7902   -2.4872   -9.6122 C   0  0  0  0  0  0  0  0  0  0  0  0
    8.7262   -2.0929   -8.9180 O   0  0  0  0  0  0  0  0  0  0  0  0
    7.9543   -2.5468  -11.0941 C   0  0  0  0  0  0  0  0  0  0  0  0
    6.8730   -2.5284  -11.9948 C   0  0  0  0  0  0  0  0  0  0  0  0
    7.0618   -2.6985  -13.3812 C   0  0  0  0  0  0  0  0  0  0  0  0
    8.3819   -2.6800  -13.8619 C   0  0  0  0  0  0  0  0  0  0  0  0
    9.1048   -2.7692  -15.1006 C   0  0  0  0  0  0  0  0  0  0  0  0
    9.6226   -3.9735  -15.7412 C   0  0  0  0  0  0  0  0  0  0  0  0
    9.7570   -5.1680  -15.1296 C   0  0  0  0  0  0  0  0  0  0  0  0
   10.9394   -6.0331  -15.3551 C   0  0  0  0  0  0  0  0  0  0  0  0
   11.0650   -7.2355  -14.6648 C   0  0  0  0  0  0  0  0  0  0  0  0
   12.2806   -7.9234  -14.7116 C   0  0  0  0  0  0  0  0  0  0  0  0
   13.3402   -7.3919  -15.4345 C   0  0  0  0  0  0  0  0  0  0  0  0
   13.1356   -6.1941  -16.0940 C   0  0  0  0  0  0  0  0  0  0  0  0
   11.9649   -5.5133  -16.0742 N   0  0  0  0  0  0  0  0  0  0  0  0
   10.0287   -1.7894  -15.0286 N   0  0  0  0  0  0  0  0  0  0  0  0
   10.4012   -1.8888  -13.7373 N   0  0  0  0  0  0  0  0  0  0  0  0
    9.3938   -2.3917  -12.9532 C   0  0  0  0  0  0  0  0  0  0  0  0
    9.2651   -2.5011  -11.5747 C   0  0  0  0  0  0  0  0  0  0  0  0
    6.2229   -2.2984   -7.6982 C   0  0  0  0  0  0  0  0  0  0  0  0
    2.4554   -1.9092   -2.9770 C   0  0  0  0  0  0  0  0  0  0  0  0
    2.2310   -1.2523   -1.7709 C   0  0  0  0  0  0  0  0  0  0  0  0
    3.9329    1.4854    1.6774 H   0  0  0  0  0  0  0  0  0  0  0  0
    4.5702    1.7005    0.0440 H   0  0  0  0  0  0  0  0  0  0  0  0
    4.9988    0.2581    0.9848 H   0  0  0  0  0  0  0  0  0  0  0  0
    2.2381   -0.2406    2.1937 H   0  0  0  0  0  0  0  0  0  0  0  0
    3.2184   -1.5304    1.4781 H   0  0  0  0  0  0  0  0  0  0  0  0
    1.5470   -1.2897    0.9600 H   0  0  0  0  0  0  0  0  0  0  0  0
    1.6245    1.8320    0.8180 H   0  0  0  0  0  0  0  0  0  0  0  0
    0.9259    0.8134   -0.4383 H   0  0  0  0  0  0  0  0  0  0  0  0
    2.1806    1.9839   -0.8583 H   0  0  0  0  0  0  0  0  0  0  0  0
    5.3763   -0.0358   -1.2753 H   0  0  0  0  0  0  0  0  0  0  0  0
    5.7695   -1.2083   -3.3485 H   0  0  0  0  0  0  0  0  0  0  0  0
    5.4391   -1.3742   -5.4473 H   0  0  0  0  0  0  0  0  0  0  0  0
    3.1665   -3.7229   -7.2458 H   0  0  0  0  0  0  0  0  0  0  0  0
    3.7542   -4.8015   -9.3392 H   0  0  0  0  0  0  0  0  0  0  0  0
    5.9302   -4.3859  -10.3930 H   0  0  0  0  0  0  0  0  0  0  0  0
    5.8590   -2.3593  -11.6371 H   0  0  0  0  0  0  0  0  0  0  0  0
    6.2099   -2.7052  -14.0554 H   0  0  0  0  0  0  0  0  0  0  0  0
   10.2880   -3.7496  -16.5767 H   0  0  0  0  0  0  0  0  0  0  0  0
    9.1656   -5.4139  -14.2550 H   0  0  0  0  0  0  0  0  0  0  0  0
   10.2528   -7.6218  -14.0605 H   0  0  0  0  0  0  0  0  0  0  0  0
   12.4048   -8.8543  -14.1647 H   0  0  0  0  0  0  0  0  0  0  0  0
   14.3031   -7.8906  -15.4722 H   0  0  0  0  0  0  0  0  0  0  0  0
   13.9360   -5.7247  -16.6598 H   0  0  0  0  0  0  0  0  0  0  0  0
   11.2687   -1.4680  -13.4415 H   0  0  0  0  0  0  0  0  0  0  0  0
   10.1212   -2.4212  -10.9138 H   0  0  0  0  0  0  0  0  0  0  0  0
    6.9255   -1.5991   -7.2554 H   0  0  0  0  0  0  0  0  0  0  0  0
    1.6371   -2.4487   -3.4515 H   0  0  0  0  0  0  0  0  0  0  0  0
    1.2318   -1.2998   -1.3446 H   0  0  0  0  0  0  0  0  0  0  0  0
  1  2  1  0  0  0  0
  1 39  1  0  0  0  0
  1 40  1  0  0  0  0
  1 41  1  0  0  0  0
  2  3  1  0  0  0  0
  2  4  1  0  0  0  0
  2  5  1  0  0  0  0
  3 42  1  0  0  0  0
  3 43  1  0  0  0  0
  3 44  1  0  0  0  0
  4 45  1  0  0  0  0
  4 46  1  0  0  0  0
  4 47  1  0  0  0  0
  5  6  1  0  0  0  0
  5 38  2  0  0  0  0
  6  7  2  0  0  0  0
  6 48  1  0  0  0  0
  7  8  1  0  0  0  0
  7 49  1  0  0  0  0
  8  9  1  0  0  0  0
  8 37  2  0  0  0  0
  9 10  2  0  0  0  0
  9 11  1  0  0  0  0
 11 12  1  0  0  0  0
 11 50  1  0  0  0  0
 12 13  1  0  0  0  0
 12 36  2  0  0  0  0
 13 14  2  0  0  0  0
 13 51  1  0  0  0  0
 14 15  1  0  0  0  0
 14 52  1  0  0  0  0
 15 16  2  0  0  0  0
 15 53  1  0  0  0  0
 16 17  1  0  0  0  0
 16 36  1  0  0  0  0
 17 18  2  0  0  0  0
 17 19  1  0  0  0  0
 19 20  1  0  0  0  0
 19 35  2  0  0  0  0
 20 21  2  0  0  0  0
 20 54  1  0  0  0  0
 21 22  1  0  0  0  0
 21 55  1  0  0  0  0
 22 23  1  0  0  0  0
 22 34  2  0  0  0  0
 23 24  1  0  0  0  0
 23 32  2  0  0  0  0
 24 25  2  0  0  0  0
 24 56  1  0  0  0  0
 25 26  1  0  0  0  0
 25 57  1  0  0  0  0
 26 27  1  0  0  0  0
 26 31  2  0  0  0  0
 27 28  2  0  0  0  0
 27 58  1  0  0  0  0
 28 29  1  0  0  0  0
 28 59  1  0  0  0  0
 29 30  2  0  0  0  0
 29 60  1  0  0  0  0
 30 31  1  0  0  0  0
 30 61  1  0  0  0  0
 32 33  1  0  0  0  0
 33 34  1  0  0  0  0
 33 62  1  0  0  0  0
 34 35  1  0  0  0  0
 35 63  1  0  0  0  0
 36 64  1  0  0  0  0
 37 38  1  0  0  0  0
 37 65  1  0  0  0  0
 38 66  1  0  0  0  0
M  END
$$$$
