CHEMBL4454810
 OpenBabel04072215383D

 54 58  0  0  0  0  0  0  0  0999 V2000
    0.7970    0.0044   -0.0080 C   0  0  0  0  0  0  0  0  0  0  0  0
    2.3040    0.0512    0.0413 C   0  0  0  0  0  0  0  0  0  0  0  0
    2.9815   -1.1075    0.0323 C   0  0  0  0  0  0  0  0  0  0  0  0
    4.4356   -1.1234   -0.0402 C   0  0  0  0  0  0  0  0  0  0  0  0
    5.1151   -2.3348   -0.1210 C   0  0  0  0  0  0  0  0  0  0  0  0
    6.4869   -2.3033   -0.1809 C   0  0  0  0  0  0  0  0  0  0  0  0
    7.1955   -1.1628   -0.1295 N   0  0  0  0  0  0  0  0  0  0  0  0
    6.5524    0.0270   -0.0342 C   0  0  0  0  0  0  0  0  0  0  0  0
    7.3242    1.1985    0.1048 N   0  0  0  0  0  0  0  0  0  0  0  0
    8.6663    1.3393    0.5028 C   0  0  0  0  0  0  0  0  0  0  0  0
    9.0406    2.4944    1.2034 C   0  0  0  0  0  0  0  0  0  0  0  0
   10.3433    2.6550    1.6831 C   0  0  0  0  0  0  0  0  0  0  0  0
   11.3169    1.6928    1.3993 C   0  0  0  0  0  0  0  0  0  0  0  0
   12.6466    1.8190    1.7337 O   0  0  0  0  0  0  0  0  0  0  0  0
   13.2114    3.0763    1.7054 C   0  0  0  0  0  0  0  0  0  0  0  0
   12.8644    4.0129    0.7299 C   0  0  0  0  0  0  0  0  0  0  0  0
   13.3663    5.2907    0.8462 C   0  0  0  0  0  0  0  0  0  0  0  0
   14.2295    5.6668    1.8098 N   0  0  0  0  0  0  0  0  0  0  0  0
   14.6382    4.7290    2.6881 C   0  0  0  0  0  0  0  0  0  0  0  0
   15.5248    5.2011    3.6542 N   0  0  0  0  0  0  0  0  0  0  0  0
   14.1622    3.4142    2.6710 C   0  0  0  0  0  0  0  0  0  0  0  0
   14.8805    1.9819    4.0320 I   0  0  0  0  0  0  0  0  0  0  0  0
   10.9433    0.5299    0.7387 C   0  0  0  0  0  0  0  0  0  0  0  0
   11.8451   -0.4355    0.5040 F   0  0  0  0  0  0  0  0  0  0  0  0
    9.6390    0.3561    0.2896 C   0  0  0  0  0  0  0  0  0  0  0  0
    5.1507    0.0757   -0.0285 C   0  0  0  0  0  0  0  0  0  0  0  0
    4.3941    1.3527    0.0139 C   0  0  0  0  0  0  0  0  0  0  0  0
    5.0375    2.4036    0.0705 O   0  0  0  0  0  0  0  0  0  0  0  0
    2.9778    1.2820    0.0046 N   0  0  0  0  0  0  0  0  0  0  0  0
    2.2893    2.5388   -0.0202 C   0  0  0  0  0  0  0  0  0  0  0  0
    2.4974    3.4195   -1.0902 C   0  0  0  0  0  0  0  0  0  0  0  0
    1.8673    4.6641   -1.1145 C   0  0  0  0  0  0  0  0  0  0  0  0
    1.0384    5.0444   -0.0609 C   0  0  0  0  0  0  0  0  0  0  0  0
    0.8280    4.1756    1.0099 C   0  0  0  0  0  0  0  0  0  0  0  0
    1.4465    2.9228    1.0289 C   0  0  0  0  0  0  0  0  0  0  0  0
    0.4297   -1.0226   -0.1270 H   0  0  0  0  0  0  0  0  0  0  0  0
    0.4178    0.5726   -0.8631 H   0  0  0  0  0  0  0  0  0  0  0  0
    0.3530    0.3873    0.9142 H   0  0  0  0  0  0  0  0  0  0  0  0
    2.4672   -2.0637    0.0514 H   0  0  0  0  0  0  0  0  0  0  0  0
    4.5942   -3.2884   -0.1413 H   0  0  0  0  0  0  0  0  0  0  0  0
    7.0770   -3.2093   -0.2708 H   0  0  0  0  0  0  0  0  0  0  0  0
    6.7414    2.0274    0.2470 H   0  0  0  0  0  0  0  0  0  0  0  0
    8.3115    3.2793    1.3961 H   0  0  0  0  0  0  0  0  0  0  0  0
   10.5849    3.5503    2.2494 H   0  0  0  0  0  0  0  0  0  0  0  0
   12.1782    3.7758   -0.0756 H   0  0  0  0  0  0  0  0  0  0  0  0
   13.0632    6.0739    0.1569 H   0  0  0  0  0  0  0  0  0  0  0  0
   15.7610    6.1575    3.4058 H   0  0  0  0  0  0  0  0  0  0  0  0
   16.3367    4.6019    3.7428 H   0  0  0  0  0  0  0  0  0  0  0  0
    9.4154   -0.5588   -0.2460 H   0  0  0  0  0  0  0  0  0  0  0  0
    3.1491    3.1372   -1.9133 H   0  0  0  0  0  0  0  0  0  0  0  0
    2.0352    5.3399   -1.9488 H   0  0  0  0  0  0  0  0  0  0  0  0
    0.5675    6.0241   -0.0679 H   0  0  0  0  0  0  0  0  0  0  0  0
    0.1977    4.4827    1.8405 H   0  0  0  0  0  0  0  0  0  0  0  0
    1.3061    2.2764    1.8902 H   0  0  0  0  0  0  0  0  0  0  0  0
  1  2  1  0  0  0  0
  1 36  1  0  0  0  0
  1 37  1  0  0  0  0
  1 38  1  0  0  0  0
  2  3  2  0  0  0  0
  2 29  1  0  0  0  0
  3  4  1  0  0  0  0
  3 39  1  0  0  0  0
  4  5  1  0  0  0  0
  4 26  2  0  0  0  0
  5  6  2  0  0  0  0
  5 40  1  0  0  0  0
  6  7  1  0  0  0  0
  6 41  1  0  0  0  0
  7  8  2  0  0  0  0
  8  9  1  0  0  0  0
  8 26  1  0  0  0  0
  9 10  1  0  0  0  0
  9 42  1  0  0  0  0
 10 11  1  0  0  0  0
 10 25  2  0  0  0  0
 11 12  2  0  0  0  0
 11 43  1  0  0  0  0
 12 13  1  0  0  0  0
 12 44  1  0  0  0  0
 13 14  1  0  0  0  0
 13 23  2  0  0  0  0
 14 15  1  0  0  0  0
 15 16  1  0  0  0  0
 15 21  2  0  0  0  0
 16 17  2  0  0  0  0
 16 45  1  0  0  0  0
 17 18  1  0  0  0  0
 17 46  1  0  0  0  0
 18 19  2  0  0  0  0
 19 20  1  0  0  0  0
 19 21  1  0  0  0  0
 20 47  1  0  0  0  0
 20 48  1  0  0  0  0
 21 22  1  0  0  0  0
 23 24  1  0  0  0  0
 23 25  1  0  0  0  0
 25 49  1  0  0  0  0
 26 27  1  0  0  0  0
 27 28  2  0  0  0  0
 27 29  1  0  0  0  0
 29 30  1  0  0  0  0
 30 31  1  0  0  0  0
 30 35  2  0  0  0  0
 31 32  2  0  0  0  0
 31 50  1  0  0  0  0
 32 33  1  0  0  0  0
 32 51  1  0  0  0  0
 33 34  2  0  0  0  0
 33 52  1  0  0  0  0
 34 35  1  0  0  0  0
 34 53  1  0  0  0  0
 35 54  1  0  0  0  0
M  END
$$$$
