CHEMBL3287599
 OpenBabel04072215363D

 61 64  0  0  0  0  0  0  0  0999 V2000
    1.7872    0.3180   -5.5959 C   0  0  0  0  0  0  0  0  0  0  0  0
    1.9401    1.7903   -5.2669 C   0  0  0  0  0  0  0  0  0  0  0  0
    2.7201    1.9158   -4.0800 O   0  0  0  0  0  0  0  0  0  0  0  0
    2.9050    3.2909   -3.7125 C   0  0  0  0  0  0  0  0  0  0  0  0
    3.7441    3.3638   -2.4315 C   0  0  0  0  0  0  0  0  0  0  0  0
    5.0527    2.7613   -2.6266 N   0  0  0  0  0  0  0  0  0  0  0  0
    6.0692    3.5625   -3.1101 C   0  0  0  0  0  0  0  0  0  0  0  0
    6.9711    2.9451   -3.8786 N   0  0  0  0  0  0  0  0  0  0  0  0
    8.0503    3.6577   -4.2424 C   0  0  0  0  0  0  0  0  0  0  0  0
    8.2580    4.9595   -3.8637 C   0  0  0  0  0  0  0  0  0  0  0  0
    7.2303    5.5404   -3.1548 C   0  0  0  0  0  0  0  0  0  0  0  0
    7.2515    6.8390   -2.6906 O   0  0  0  0  0  0  0  0  0  0  0  0
    7.9298    7.8248   -3.3648 C   0  0  0  0  0  0  0  0  0  0  0  0
    8.4634    8.8451   -2.5715 C   0  0  0  0  0  0  0  0  0  0  0  0
    9.1538    9.9102   -3.1581 C   0  0  0  0  0  0  0  0  0  0  0  0
    9.3686    9.9251   -4.5384 C   0  0  0  0  0  0  0  0  0  0  0  0
   10.1531   10.9538   -5.0754 N   0  0  0  0  0  0  0  0  0  0  0  0
   11.0753   10.7522   -6.0859 C   0  0  0  0  0  0  0  0  0  0  0  0
   11.3390    9.6957   -6.6394 O   0  0  0  0  0  0  0  0  0  0  0  0
   11.8344   11.9923   -6.4491 C   0  0  0  0  0  0  0  0  0  0  0  0
   12.7096   12.5121   -5.3537 C   0  0  0  0  0  0  0  0  0  0  0  0
   12.1536   13.0023   -4.3740 O   0  0  0  0  0  0  0  0  0  0  0  0
   14.0722   12.4027   -5.5447 N   0  0  0  0  0  0  0  0  0  0  0  0
   14.9889   12.8482   -4.5680 C   0  0  0  0  0  0  0  0  0  0  0  0
   14.7867   12.5801   -3.2069 C   0  0  0  0  0  0  0  0  0  0  0  0
   15.6418   13.1224   -2.2485 C   0  0  0  0  0  0  0  0  0  0  0  0
   16.6824   13.9455   -2.6562 C   0  0  0  0  0  0  0  0  0  0  0  0
   17.4638   14.5245   -1.7358 F   0  0  0  0  0  0  0  0  0  0  0  0
   16.9192   14.1854   -4.0066 C   0  0  0  0  0  0  0  0  0  0  0  0
   16.0918   13.6047   -4.9714 C   0  0  0  0  0  0  0  0  0  0  0  0
   11.0613   13.0343   -7.2647 C   0  0  0  0  0  0  0  0  0  0  0  0
   12.1444   12.2388   -7.9209 C   0  0  0  0  0  0  0  0  0  0  0  0
    8.8033    8.9347   -5.3359 C   0  0  0  0  0  0  0  0  0  0  0  0
    8.0518    7.9194   -4.7516 C   0  0  0  0  0  0  0  0  0  0  0  0
    7.4548    7.0345   -5.5618 F   0  0  0  0  0  0  0  0  0  0  0  0
    6.1445    4.8524   -2.7556 N   0  0  0  0  0  0  0  0  0  0  0  0
    1.1922    0.1827   -6.5037 H   0  0  0  0  0  0  0  0  0  0  0  0
    1.3000   -0.2147   -4.7725 H   0  0  0  0  0  0  0  0  0  0  0  0
    2.7664   -0.1493   -5.7431 H   0  0  0  0  0  0  0  0  0  0  0  0
    0.9532    2.2387   -5.1085 H   0  0  0  0  0  0  0  0  0  0  0  0
    2.4413    2.3051   -6.0933 H   0  0  0  0  0  0  0  0  0  0  0  0
    1.9251    3.7463   -3.5290 H   0  0  0  0  0  0  0  0  0  0  0  0
    3.4012    3.8238   -4.5312 H   0  0  0  0  0  0  0  0  0  0  0  0
    3.2384    2.7838   -1.6511 H   0  0  0  0  0  0  0  0  0  0  0  0
    3.8033    4.3960   -2.0690 H   0  0  0  0  0  0  0  0  0  0  0  0
    5.0309    1.9171   -3.1967 H   0  0  0  0  0  0  0  0  0  0  0  0
    8.7720    3.1292   -4.8578 H   0  0  0  0  0  0  0  0  0  0  0  0
    9.1623    5.4779   -4.1406 H   0  0  0  0  0  0  0  0  0  0  0  0
    8.3518    8.8069   -1.4895 H   0  0  0  0  0  0  0  0  0  0  0  0
    9.5769   10.6815   -2.5191 H   0  0  0  0  0  0  0  0  0  0  0  0
   10.2891   11.7930   -4.5138 H   0  0  0  0  0  0  0  0  0  0  0  0
   14.4124   12.2748   -6.4872 H   0  0  0  0  0  0  0  0  0  0  0  0
   13.9674   11.9430   -2.8829 H   0  0  0  0  0  0  0  0  0  0  0  0
   15.4868   12.9251   -1.1929 H   0  0  0  0  0  0  0  0  0  0  0  0
   17.7309   14.8450   -4.2959 H   0  0  0  0  0  0  0  0  0  0  0  0
   16.2676   13.8228   -6.0208 H   0  0  0  0  0  0  0  0  0  0  0  0
   11.2460   14.0855   -7.0702 H   0  0  0  0  0  0  0  0  0  0  0  0
   10.0310   12.8144   -7.5266 H   0  0  0  0  0  0  0  0  0  0  0  0
   13.0426   12.7688   -8.2091 H   0  0  0  0  0  0  0  0  0  0  0  0
   11.8479   11.4706   -8.6302 H   0  0  0  0  0  0  0  0  0  0  0  0
    8.9064    8.9500   -6.4162 H   0  0  0  0  0  0  0  0  0  0  0  0
  1  2  1  0  0  0  0
  1 37  1  0  0  0  0
  1 38  1  0  0  0  0
  1 39  1  0  0  0  0
  2  3  1  0  0  0  0
  2 40  1  0  0  0  0
  2 41  1  0  0  0  0
  3  4  1  0  0  0  0
  4  5  1  0  0  0  0
  4 42  1  0  0  0  0
  4 43  1  0  0  0  0
  5  6  1  0  0  0  0
  5 44  1  0  0  0  0
  5 45  1  0  0  0  0
  6  7  1  0  0  0  0
  6 46  1  0  0  0  0
  7  8  1  0  0  0  0
  7 36  2  0  0  0  0
  8  9  2  0  0  0  0
  9 10  1  0  0  0  0
  9 47  1  0  0  0  0
 10 11  2  0  0  0  0
 10 48  1  0  0  0  0
 11 12  1  0  0  0  0
 11 36  1  0  0  0  0
 12 13  1  0  0  0  0
 13 14  1  0  0  0  0
 13 34  2  0  0  0  0
 14 15  2  0  0  0  0
 14 49  1  0  0  0  0
 15 16  1  0  0  0  0
 15 50  1  0  0  0  0
 16 17  1  0  0  0  0
 16 33  2  0  0  0  0
 17 18  1  0  0  0  0
 17 51  1  0  0  0  0
 18 19  2  0  0  0  0
 18 20  1  0  0  0  0
 20 21  1  0  0  0  0
 20 31  1  0  0  0  0
 20 32  1  0  0  0  0
 21 22  2  0  0  0  0
 21 23  1  0  0  0  0
 23 24  1  0  0  0  0
 23 52  1  0  0  0  0
 24 25  1  0  0  0  0
 24 30  2  0  0  0  0
 25 26  2  0  0  0  0
 25 53  1  0  0  0  0
 26 27  1  0  0  0  0
 26 54  1  0  0  0  0
 27 28  1  0  0  0  0
 27 29  2  0  0  0  0
 29 30  1  0  0  0  0
 29 55  1  0  0  0  0
 30 56  1  0  0  0  0
 31 32  1  0  0  0  0
 31 57  1  0  0  0  0
 31 58  1  0  0  0  0
 32 59  1  0  0  0  0
 32 60  1  0  0  0  0
 33 34  1  0  0  0  0
 33 61  1  0  0  0  0
 34 35  1  0  0  0  0
M  END
$$$$
