CHEMBL1980896
 OpenBabel04072215363D

 42 45  0  0  0  0  0  0  0  0999 V2000
    1.2843   -0.2618   -1.7096 N   0  0  0  0  0  0  0  0  0  0  0  0
    2.6411   -0.3199   -1.4294 C   0  0  0  0  0  0  0  0  0  0  0  0
    3.3445    0.7350   -1.8821 N   0  0  0  0  0  0  0  0  0  0  0  0
    4.6550    0.7919   -1.6361 C   0  0  0  0  0  0  0  0  0  0  0  0
    5.3846   -0.0979   -0.9694 N   0  0  0  0  0  0  0  0  0  0  0  0
    4.6627   -1.1515   -0.5540 C   0  0  0  0  0  0  0  0  0  0  0  0
    5.4348   -2.3976    0.2907 S   0  0  0  0  0  0  0  0  0  0  0  0
    4.0028   -3.3003    0.3759 C   0  0  0  0  0  0  0  0  0  0  0  0
    4.0995   -5.0403    1.1064 Br  0  0  0  0  0  0  0  0  0  0  0  0
    2.8912   -2.6445   -0.1408 C   0  0  0  0  0  0  0  0  0  0  0  0
    1.5307   -3.2115   -0.0823 C   0  0  0  0  0  0  0  0  0  0  0  0
    1.0394   -3.7685    1.1039 C   0  0  0  0  0  0  0  0  0  0  0  0
   -0.2509   -4.3058    1.1792 C   0  0  0  0  0  0  0  0  0  0  0  0
   -1.1230   -4.2304    0.0979 C   0  0  0  0  0  0  0  0  0  0  0  0
   -2.4434   -4.7190    0.1316 N   0  0  0  0  0  0  0  0  0  0  0  0
   -3.0588   -5.3863    1.1859 C   0  0  0  0  0  0  0  0  0  0  0  0
   -2.5733   -5.5967    2.2944 O   0  0  0  0  0  0  0  0  0  0  0  0
   -4.4273   -5.9259    0.8341 C   0  0  0  0  0  0  0  0  0  0  0  0
   -4.3287   -7.2326    0.0827 C   0  0  0  0  0  0  0  0  0  0  0  0
   -3.7283   -8.3524    0.6875 C   0  0  0  0  0  0  0  0  0  0  0  0
   -3.5464   -9.5328   -0.0307 C   0  0  0  0  0  0  0  0  0  0  0  0
   -3.9661   -9.6111   -1.3558 C   0  0  0  0  0  0  0  0  0  0  0  0
   -4.5821   -8.5117   -1.9493 C   0  0  0  0  0  0  0  0  0  0  0  0
   -5.0986   -8.6085   -3.5917 Cl  0  0  0  0  0  0  0  0  0  0  0  0
   -4.7737   -7.3292   -1.2403 C   0  0  0  0  0  0  0  0  0  0  0  0
   -0.6577   -3.6408   -1.0833 C   0  0  0  0  0  0  0  0  0  0  0  0
    0.6679   -3.1810   -1.1846 C   0  0  0  0  0  0  0  0  0  0  0  0
    3.3003   -1.3611   -0.7360 C   0  0  0  0  0  0  0  0  0  0  0  0
    1.0511    0.6638   -2.0525 H   0  0  0  0  0  0  0  0  0  0  0  0
    0.6962   -0.5964   -0.9567 H   0  0  0  0  0  0  0  0  0  0  0  0
    5.1829    1.6610   -2.0180 H   0  0  0  0  0  0  0  0  0  0  0  0
    1.6479   -3.8140    2.0032 H   0  0  0  0  0  0  0  0  0  0  0  0
   -0.5334   -4.7757    2.1155 H   0  0  0  0  0  0  0  0  0  0  0  0
   -2.9784   -4.6216   -0.7244 H   0  0  0  0  0  0  0  0  0  0  0  0
   -4.9864   -5.1734    0.2617 H   0  0  0  0  0  0  0  0  0  0  0  0
   -4.9931   -6.0817    1.7631 H   0  0  0  0  0  0  0  0  0  0  0  0
   -3.3779   -8.2962    1.7193 H   0  0  0  0  0  0  0  0  0  0  0  0
   -3.0602  -10.3834    0.4421 H   0  0  0  0  0  0  0  0  0  0  0  0
   -3.8043  -10.5255   -1.9179 H   0  0  0  0  0  0  0  0  0  0  0  0
   -5.2515   -6.4824   -1.7250 H   0  0  0  0  0  0  0  0  0  0  0  0
   -1.3068   -3.5385   -1.9496 H   0  0  0  0  0  0  0  0  0  0  0  0
    0.9997   -2.7743   -2.1384 H   0  0  0  0  0  0  0  0  0  0  0  0
  1  2  1  0  0  0  0
  1 29  1  0  0  0  0
  1 30  1  0  0  0  0
  2  3  1  0  0  0  0
  2 28  2  0  0  0  0
  3  4  2  0  0  0  0
  4  5  1  0  0  0  0
  4 31  1  0  0  0  0
  5  6  2  0  0  0  0
  6  7  1  0  0  0  0
  6 28  1  0  0  0  0
  7  8  1  0  0  0  0
  8  9  1  0  0  0  0
  8 10  2  0  0  0  0
 10 11  1  0  0  0  0
 10 28  1  0  0  0  0
 11 12  1  0  0  0  0
 11 27  2  0  0  0  0
 12 13  2  0  0  0  0
 12 32  1  0  0  0  0
 13 14  1  0  0  0  0
 13 33  1  0  0  0  0
 14 15  1  0  0  0  0
 14 26  2  0  0  0  0
 15 16  1  0  0  0  0
 15 34  1  0  0  0  0
 16 17  2  0  0  0  0
 16 18  1  0  0  0  0
 18 19  1  0  0  0  0
 18 35  1  0  0  0  0
 18 36  1  0  0  0  0
 19 20  1  0  0  0  0
 19 25  2  0  0  0  0
 20 21  2  0  0  0  0
 20 37  1  0  0  0  0
 21 22  1  0  0  0  0
 21 38  1  0  0  0  0
 22 23  2  0  0  0  0
 22 39  1  0  0  0  0
 23 24  1  0  0  0  0
 23 25  1  0  0  0  0
 25 40  1  0  0  0  0
 26 27  1  0  0  0  0
 26 41  1  0  0  0  0
 27 42  1  0  0  0  0
M  END
$$$$
