CHEMBL3781034
 OpenBabel04072215373D

 50 53  0  0  0  0  0  0  0  0999 V2000
   11.0628    2.3652   -1.6675 C   0  0  0  0  0  0  0  0  0  0  0  0
   10.3077    1.3220   -2.2719 O   0  0  0  0  0  0  0  0  0  0  0  0
    9.0696    1.6631   -2.7435 C   0  0  0  0  0  0  0  0  0  0  0  0
    8.4810    2.9247   -2.6573 C   0  0  0  0  0  0  0  0  0  0  0  0
    7.2036    3.1494   -3.1829 C   0  0  0  0  0  0  0  0  0  0  0  0
    6.5028    2.1220   -3.8240 C   0  0  0  0  0  0  0  0  0  0  0  0
    5.0974    2.3036   -4.3460 C   0  0  0  0  0  0  0  0  0  0  0  0
    4.7068    3.6659   -4.8726 C   0  0  0  0  0  0  0  0  0  0  0  0
    4.0020    4.4165   -4.0004 N   0  0  0  0  0  0  0  0  0  0  0  0
    3.3931    5.5552   -4.4197 N   0  0  0  0  0  0  0  0  0  0  0  0
    3.4530    5.9496   -5.7106 C   0  0  0  0  0  0  0  0  0  0  0  0
    2.6379    7.0379   -6.1261 N   0  0  0  0  0  0  0  0  0  0  0  0
    1.4203    7.4100   -5.5117 C   0  0  0  0  0  0  0  0  0  0  0  0
    0.9639    8.7339   -5.5626 C   0  0  0  0  0  0  0  0  0  0  0  0
   -0.2665    9.0895   -4.9887 C   0  0  0  0  0  0  0  0  0  0  0  0
   -1.0618    8.1079   -4.3901 C   0  0  0  0  0  0  0  0  0  0  0  0
   -2.6223    8.5258   -3.6804 S   0  0  0  0  0  0  0  0  0  0  0  0
   -3.6551    8.2652   -4.9767 N   0  0  0  0  0  0  0  0  0  0  0  0
   -2.9812    7.5442   -2.6841 O   0  0  0  0  0  0  0  0  0  0  0  0
   -2.6635    9.9465   -3.4198 O   0  0  0  0  0  0  0  0  0  0  0  0
   -0.6342    6.7844   -4.3432 C   0  0  0  0  0  0  0  0  0  0  0  0
    0.5895    6.4445   -4.9169 C   0  0  0  0  0  0  0  0  0  0  0  0
    4.2585    5.2570   -6.6384 C   0  0  0  0  0  0  0  0  0  0  0  0
    4.3818    5.6316   -7.9990 C   0  0  0  0  0  0  0  0  0  0  0  0
    5.1740    4.9040   -8.8891 C   0  0  0  0  0  0  0  0  0  0  0  0
    5.8592    3.7827   -8.4438 C   0  0  0  0  0  0  0  0  0  0  0  0
    5.7305    3.3735   -7.1168 C   0  0  0  0  0  0  0  0  0  0  0  0
    4.9240    4.0851   -6.1973 C   0  0  0  0  0  0  0  0  0  0  0  0
    7.0899    0.8483   -3.8801 C   0  0  0  0  0  0  0  0  0  0  0  0
    8.3622    0.6246   -3.3482 C   0  0  0  0  0  0  0  0  0  0  0  0
   12.0361    1.9560   -1.3812 H   0  0  0  0  0  0  0  0  0  0  0  0
   10.5711    2.7266   -0.7581 H   0  0  0  0  0  0  0  0  0  0  0  0
   11.2418    3.1840   -2.3727 H   0  0  0  0  0  0  0  0  0  0  0  0
    8.9815    3.7575   -2.1757 H   0  0  0  0  0  0  0  0  0  0  0  0
    6.7616    4.1380   -3.0688 H   0  0  0  0  0  0  0  0  0  0  0  0
    4.4129    2.0433   -3.5263 H   0  0  0  0  0  0  0  0  0  0  0  0
    4.8925    1.5644   -5.1316 H   0  0  0  0  0  0  0  0  0  0  0  0
    3.2054    7.8093   -6.4465 H   0  0  0  0  0  0  0  0  0  0  0  0
    1.5601    9.5086   -6.0372 H   0  0  0  0  0  0  0  0  0  0  0  0
   -0.5997   10.1252   -5.0196 H   0  0  0  0  0  0  0  0  0  0  0  0
   -4.3003    7.5055   -4.7640 H   0  0  0  0  0  0  0  0  0  0  0  0
   -4.1071    9.1393   -5.2441 H   0  0  0  0  0  0  0  0  0  0  0  0
   -1.2397    6.0120   -3.8761 H   0  0  0  0  0  0  0  0  0  0  0  0
    0.8900    5.3991   -4.8938 H   0  0  0  0  0  0  0  0  0  0  0  0
    3.8392    6.4921   -8.3858 H   0  0  0  0  0  0  0  0  0  0  0  0
    5.2502    5.2113   -9.9293 H   0  0  0  0  0  0  0  0  0  0  0  0
    6.4856    3.2164   -9.1287 H   0  0  0  0  0  0  0  0  0  0  0  0
    6.2789    2.4862   -6.8059 H   0  0  0  0  0  0  0  0  0  0  0  0
    6.5547    0.0121   -4.3259 H   0  0  0  0  0  0  0  0  0  0  0  0
    8.7999   -0.3699   -3.3972 H   0  0  0  0  0  0  0  0  0  0  0  0
  1  2  1  0  0  0  0
  1 31  1  0  0  0  0
  1 32  1  0  0  0  0
  1 33  1  0  0  0  0
  2  3  1  0  0  0  0
  3  4  1  0  0  0  0
  3 30  2  0  0  0  0
  4  5  2  0  0  0  0
  4 34  1  0  0  0  0
  5  6  1  0  0  0  0
  5 35  1  0  0  0  0
  6  7  1  0  0  0  0
  6 29  2  0  0  0  0
  7  8  1  0  0  0  0
  7 36  1  0  0  0  0
  7 37  1  0  0  0  0
  8  9  1  0  0  0  0
  8 28  2  0  0  0  0
  9 10  2  0  0  0  0
 10 11  1  0  0  0  0
 11 12  1  0  0  0  0
 11 23  2  0  0  0  0
 12 13  1  0  0  0  0
 12 38  1  0  0  0  0
 13 14  1  0  0  0  0
 13 22  2  0  0  0  0
 14 15  2  0  0  0  0
 14 39  1  0  0  0  0
 15 16  1  0  0  0  0
 15 40  1  0  0  0  0
 16 17  1  0  0  0  0
 16 21  2  0  0  0  0
 17 18  1  0  0  0  0
 17 19  2  0  0  0  0
 17 20  2  0  0  0  0
 18 41  1  0  0  0  0
 18 42  1  0  0  0  0
 21 22  1  0  0  0  0
 21 43  1  0  0  0  0
 22 44  1  0  0  0  0
 23 24  1  0  0  0  0
 23 28  1  0  0  0  0
 24 25  2  0  0  0  0
 24 45  1  0  0  0  0
 25 26  1  0  0  0  0
 25 46  1  0  0  0  0
 26 27  2  0  0  0  0
 26 47  1  0  0  0  0
 27 28  1  0  0  0  0
 27 48  1  0  0  0  0
 29 30  1  0  0  0  0
 29 49  1  0  0  0  0
 30 50  1  0  0  0  0
M  END
$$$$
