CHEMBL4549604
 OpenBabel04072215383D

 51 54  0  0  0  0  0  0  0  0999 V2000
  -12.1313    5.8028    3.4018 C   0  0  0  0  0  0  0  0  0  0  0  0
  -11.4780    4.7396    2.5688 C   0  0  0  0  0  0  0  0  0  0  0  0
  -10.6979    5.0854    1.4624 C   0  0  0  0  0  0  0  0  0  0  0  0
  -10.0597    4.0986    0.7068 C   0  0  0  0  0  0  0  0  0  0  0  0
  -10.1918    2.7453    1.0493 C   0  0  0  0  0  0  0  0  0  0  0  0
   -9.5058    1.7387    0.3117 N   0  0  0  0  0  0  0  0  0  0  0  0
   -8.6119    1.9254   -0.7191 C   0  0  0  0  0  0  0  0  0  0  0  0
   -8.1148    0.6984   -1.0774 C   0  0  0  0  0  0  0  0  0  0  0  0
   -7.1511    0.4106   -2.0336 N   0  0  0  0  0  0  0  0  0  0  0  0
   -6.5076    1.3696   -2.7989 C   0  0  0  0  0  0  0  0  0  0  0  0
   -6.7039    2.5798   -2.7634 O   0  0  0  0  0  0  0  0  0  0  0  0
   -5.5015    0.8684   -3.7769 C   0  0  0  0  0  0  0  0  0  0  0  0
   -4.7344   -0.2827   -3.5574 C   0  0  0  0  0  0  0  0  0  0  0  0
   -3.8039   -0.6913   -4.5161 C   0  0  0  0  0  0  0  0  0  0  0  0
   -3.6412    0.0406   -5.6940 C   0  0  0  0  0  0  0  0  0  0  0  0
   -4.3811    1.2019   -5.9005 C   0  0  0  0  0  0  0  0  0  0  0  0
   -4.1998    1.9334   -7.1042 N   0  0  0  0  0  0  0  0  0  0  0  0
   -5.1078    1.5102   -8.4680 S   0  0  0  0  0  0  0  0  0  0  0  0
   -4.8039    2.4934   -9.4859 O   0  0  0  0  0  0  0  0  0  0  0  0
   -4.9457    0.0926   -8.7124 O   0  0  0  0  0  0  0  0  0  0  0  0
   -6.7852    1.8020   -7.9527 C   0  0  0  0  0  0  0  0  0  0  0  0
   -7.1893    3.1126   -7.6708 C   0  0  0  0  0  0  0  0  0  0  0  0
   -8.4872    3.3483   -7.2189 C   0  0  0  0  0  0  0  0  0  0  0  0
   -9.3796    2.2847   -7.0758 C   0  0  0  0  0  0  0  0  0  0  0  0
   -8.9822    0.9840   -7.3930 C   0  0  0  0  0  0  0  0  0  0  0  0
   -7.6814    0.7368   -7.8336 C   0  0  0  0  0  0  0  0  0  0  0  0
   -5.3019    1.6224   -4.9445 C   0  0  0  0  0  0  0  0  0  0  0  0
   -8.8108   -0.1985   -0.2432 C   0  0  0  0  0  0  0  0  0  0  0  0
   -9.6483    0.4147    0.5979 N   0  0  0  0  0  0  0  0  0  0  0  0
  -10.9868    2.3934    2.1480 C   0  0  0  0  0  0  0  0  0  0  0  0
  -11.6191    3.3873    2.9046 C   0  0  0  0  0  0  0  0  0  0  0  0
  -12.0097    6.7939    2.9511 H   0  0  0  0  0  0  0  0  0  0  0  0
  -11.6800    5.8290    4.3987 H   0  0  0  0  0  0  0  0  0  0  0  0
  -13.2046    5.6101    3.4935 H   0  0  0  0  0  0  0  0  0  0  0  0
  -10.5729    6.1288    1.1806 H   0  0  0  0  0  0  0  0  0  0  0  0
   -9.4658    4.4271   -0.1404 H   0  0  0  0  0  0  0  0  0  0  0  0
   -8.3801    2.9087   -1.0935 H   0  0  0  0  0  0  0  0  0  0  0  0
   -6.9477   -0.5688   -2.1805 H   0  0  0  0  0  0  0  0  0  0  0  0
   -4.8178   -0.8520   -2.6356 H   0  0  0  0  0  0  0  0  0  0  0  0
   -3.1944   -1.5763   -4.3459 H   0  0  0  0  0  0  0  0  0  0  0  0
   -2.9176   -0.2841   -6.4386 H   0  0  0  0  0  0  0  0  0  0  0  0
   -4.0395    2.9370   -7.0360 H   0  0  0  0  0  0  0  0  0  0  0  0
   -6.5018    3.9461   -7.7908 H   0  0  0  0  0  0  0  0  0  0  0  0
   -8.8060    4.3597   -6.9770 H   0  0  0  0  0  0  0  0  0  0  0  0
  -10.3912    2.4715   -6.7219 H   0  0  0  0  0  0  0  0  0  0  0  0
   -9.6894    0.1635   -7.2956 H   0  0  0  0  0  0  0  0  0  0  0  0
   -7.3790   -0.2786   -8.0794 H   0  0  0  0  0  0  0  0  0  0  0  0
   -5.8803    2.5303   -5.0963 H   0  0  0  0  0  0  0  0  0  0  0  0
   -8.7378   -1.2772   -0.2005 H   0  0  0  0  0  0  0  0  0  0  0  0
  -11.1084    1.3516    2.4398 H   0  0  0  0  0  0  0  0  0  0  0  0
  -12.2169    3.0981    3.7666 H   0  0  0  0  0  0  0  0  0  0  0  0
  1  2  1  0  0  0  0
  1 32  1  0  0  0  0
  1 33  1  0  0  0  0
  1 34  1  0  0  0  0
  2  3  1  0  0  0  0
  2 31  2  0  0  0  0
  3  4  2  0  0  0  0
  3 35  1  0  0  0  0
  4  5  1  0  0  0  0
  4 36  1  0  0  0  0
  5  6  1  0  0  0  0
  5 30  2  0  0  0  0
  6  7  1  0  0  0  0
  6 29  1  0  0  0  0
  7  8  2  0  0  0  0
  7 37  1  0  0  0  0
  8  9  1  0  0  0  0
  8 28  1  0  0  0  0
  9 10  1  0  0  0  0
  9 38  1  0  0  0  0
 10 11  2  0  0  0  0
 10 12  1  0  0  0  0
 12 13  1  0  0  0  0
 12 27  2  0  0  0  0
 13 14  2  0  0  0  0
 13 39  1  0  0  0  0
 14 15  1  0  0  0  0
 14 40  1  0  0  0  0
 15 16  2  0  0  0  0
 15 41  1  0  0  0  0
 16 17  1  0  0  0  0
 16 27  1  0  0  0  0
 17 18  1  0  0  0  0
 17 42  1  0  0  0  0
 18 19  2  0  0  0  0
 18 20  2  0  0  0  0
 18 21  1  0  0  0  0
 21 22  1  0  0  0  0
 21 26  2  0  0  0  0
 22 23  2  0  0  0  0
 22 43  1  0  0  0  0
 23 24  1  0  0  0  0
 23 44  1  0  0  0  0
 24 25  2  0  0  0  0
 24 45  1  0  0  0  0
 25 26  1  0  0  0  0
 25 46  1  0  0  0  0
 26 47  1  0  0  0  0
 27 48  1  0  0  0  0
 28 29  2  0  0  0  0
 28 49  1  0  0  0  0
 30 31  1  0  0  0  0
 30 50  1  0  0  0  0
 31 51  1  0  0  0  0
M  END
$$$$
