CHEMBL213831
 OpenBabel04072215363D

 76 80  0  0  0  0  0  0  0  0999 V2000
   -3.9942   -4.9677    1.9119 C   0  0  0  0  0  0  0  0  0  0  0  0
   -2.9321   -3.9989    1.7844 N   0  0  0  0  0  0  0  0  0  0  0  0
   -1.7082   -4.4036    2.2931 C   0  0  0  0  0  0  0  0  0  0  0  0
   -0.9304   -3.4220    2.7598 N   0  0  0  0  0  0  0  0  0  0  0  0
    0.2885   -3.7807    3.1989 C   0  0  0  0  0  0  0  0  0  0  0  0
    0.7543   -5.0850    3.2043 C   0  0  0  0  0  0  0  0  0  0  0  0
    2.0416   -5.4534    3.6471 C   0  0  0  0  0  0  0  0  0  0  0  0
    2.4363   -6.7968    3.7612 C   0  0  0  0  0  0  0  0  0  0  0  0
    3.7610   -7.1685    4.3403 C   0  0  0  0  0  0  0  0  0  0  0  0
    4.5271   -8.2161    3.7584 C   0  0  0  0  0  0  0  0  0  0  0  0
    5.7913   -8.5649    4.2622 C   0  0  0  0  0  0  0  0  0  0  0  0
    6.5697   -9.7355    3.7743 C   0  0  0  0  0  0  0  0  0  0  0  0
    7.1239  -10.4414    4.6118 O   0  0  0  0  0  0  0  0  0  0  0  0
    6.6987   -9.8846    2.4011 N   0  0  0  0  0  0  0  0  0  0  0  0
    7.4173  -10.9670    1.8206 C   0  0  0  0  0  0  0  0  0  0  0  0
    7.2916  -12.2646    2.3657 C   0  0  0  0  0  0  0  0  0  0  0  0
    7.9261  -13.3775    1.7861 C   0  0  0  0  0  0  0  0  0  0  0  0
    7.7670  -14.7781    2.3134 C   0  0  0  0  0  0  0  0  0  0  0  0
    6.9429  -14.8779    3.3902 F   0  0  0  0  0  0  0  0  0  0  0  0
    7.2555  -15.6250    1.3744 F   0  0  0  0  0  0  0  0  0  0  0  0
    8.9547  -15.3281    2.6934 F   0  0  0  0  0  0  0  0  0  0  0  0
    8.7335  -13.1807    0.6736 C   0  0  0  0  0  0  0  0  0  0  0  0
    8.8894  -11.9027    0.1472 C   0  0  0  0  0  0  0  0  0  0  0  0
    8.2125  -10.7878    0.6717 C   0  0  0  0  0  0  0  0  0  0  0  0
    8.4105   -9.4994    0.0919 N   0  0  0  0  0  0  0  0  0  0  0  0
    8.9112   -9.3212   -1.1766 C   0  0  0  0  0  0  0  0  0  0  0  0
    9.1013  -10.2187   -1.9835 O   0  0  0  0  0  0  0  0  0  0  0  0
    9.1615   -8.0079   -1.4965 N   0  0  0  0  0  0  0  0  0  0  0  0
    9.8507   -7.7502   -2.7659 C   0  0  0  0  0  0  0  0  0  0  0  0
    9.0955   -8.2481   -4.0265 C   0  0  0  0  0  0  0  0  0  0  0  0
    9.8375   -8.0919   -5.2948 N   0  0  0  0  0  0  0  0  0  0  0  0
   10.1388   -6.6901   -5.6289 C   0  0  0  0  0  0  0  0  0  0  0  0
    8.8800   -5.8760   -5.9548 C   0  0  0  0  0  0  0  0  0  0  0  0
    8.1704   -6.4486   -7.0603 O   0  0  0  0  0  0  0  0  0  0  0  0
    7.8271   -7.8202   -6.8125 C   0  0  0  0  0  0  0  0  0  0  0  0
    9.0561   -8.6636   -6.4210 C   0  0  0  0  0  0  0  0  0  0  0  0
    6.3285   -7.8574    5.3372 C   0  0  0  0  0  0  0  0  0  0  0  0
    5.5968   -6.8400    5.9362 C   0  0  0  0  0  0  0  0  0  0  0  0
    4.3047   -6.5164    5.4865 C   0  0  0  0  0  0  0  0  0  0  0  0
    3.5537   -5.4917    6.3083 C   0  0  0  0  0  0  0  0  0  0  0  0
    1.5144   -7.7487    3.3013 C   0  0  0  0  0  0  0  0  0  0  0  0
    0.2582   -7.3651    2.7909 C   0  0  0  0  0  0  0  0  0  0  0  0
   -0.1489   -6.0362    2.7499 C   0  0  0  0  0  0  0  0  0  0  0  0
   -1.3632   -5.7007    2.2902 N   0  0  0  0  0  0  0  0  0  0  0  0
   -4.9200   -4.5410    1.5135 H   0  0  0  0  0  0  0  0  0  0  0  0
   -4.1722   -5.2334    2.9600 H   0  0  0  0  0  0  0  0  0  0  0  0
   -3.7838   -5.8763    1.3373 H   0  0  0  0  0  0  0  0  0  0  0  0
   -3.1167   -3.0799    2.1689 H   0  0  0  0  0  0  0  0  0  0  0  0
    0.8941   -2.9604    3.5736 H   0  0  0  0  0  0  0  0  0  0  0  0
    2.7345   -4.6590    3.9082 H   0  0  0  0  0  0  0  0  0  0  0  0
    4.1166   -8.7920    2.9316 H   0  0  0  0  0  0  0  0  0  0  0  0
    6.4706   -9.0949    1.8150 H   0  0  0  0  0  0  0  0  0  0  0  0
    6.6561  -12.4276    3.2353 H   0  0  0  0  0  0  0  0  0  0  0  0
    9.2562  -14.0116    0.2029 H   0  0  0  0  0  0  0  0  0  0  0  0
    9.5831  -11.8254   -0.6812 H   0  0  0  0  0  0  0  0  0  0  0  0
    8.0523   -8.6925    0.5733 H   0  0  0  0  0  0  0  0  0  0  0  0
    9.4628   -7.4430   -0.7238 H   0  0  0  0  0  0  0  0  0  0  0  0
   10.8403   -8.2195   -2.7068 H   0  0  0  0  0  0  0  0  0  0  0  0
    9.9906   -6.6653   -2.8093 H   0  0  0  0  0  0  0  0  0  0  0  0
    8.1137   -7.7644   -4.0487 H   0  0  0  0  0  0  0  0  0  0  0  0
    8.8829   -9.3154   -3.9417 H   0  0  0  0  0  0  0  0  0  0  0  0
   10.7930   -6.6957   -6.5105 H   0  0  0  0  0  0  0  0  0  0  0  0
   10.7206   -6.2132   -4.8346 H   0  0  0  0  0  0  0  0  0  0  0  0
    9.1666   -4.8582   -6.2342 H   0  0  0  0  0  0  0  0  0  0  0  0
    8.2093   -5.7975   -5.0912 H   0  0  0  0  0  0  0  0  0  0  0  0
    7.3912   -8.2174   -7.7347 H   0  0  0  0  0  0  0  0  0  0  0  0
    7.0482   -7.8615   -6.0429 H   0  0  0  0  0  0  0  0  0  0  0  0
    9.7261   -8.7255   -7.2888 H   0  0  0  0  0  0  0  0  0  0  0  0
    8.7535   -9.6953   -6.2031 H   0  0  0  0  0  0  0  0  0  0  0  0
    7.3060   -8.1206    5.7372 H   0  0  0  0  0  0  0  0  0  0  0  0
    6.0281   -6.3222    6.7919 H   0  0  0  0  0  0  0  0  0  0  0  0
    4.0296   -5.3385    7.2838 H   0  0  0  0  0  0  0  0  0  0  0  0
    2.5322   -5.8276    6.5127 H   0  0  0  0  0  0  0  0  0  0  0  0
    3.5448   -4.5166    5.8157 H   0  0  0  0  0  0  0  0  0  0  0  0
    1.7432   -8.8119    3.3386 H   0  0  0  0  0  0  0  0  0  0  0  0
   -0.4293   -8.1293    2.4329 H   0  0  0  0  0  0  0  0  0  0  0  0
  1  2  1  0  0  0  0
  1 45  1  0  0  0  0
  1 46  1  0  0  0  0
  1 47  1  0  0  0  0
  2  3  1  0  0  0  0
  2 48  1  0  0  0  0
  3  4  1  0  0  0  0
  3 44  2  0  0  0  0
  4  5  2  0  0  0  0
  5  6  1  0  0  0  0
  5 49  1  0  0  0  0
  6  7  1  0  0  0  0
  6 43  2  0  0  0  0
  7  8  2  0  0  0  0
  7 50  1  0  0  0  0
  8  9  1  0  0  0  0
  8 41  1  0  0  0  0
  9 10  1  0  0  0  0
  9 39  2  0  0  0  0
 10 11  2  0  0  0  0
 10 51  1  0  0  0  0
 11 12  1  0  0  0  0
 11 37  1  0  0  0  0
 12 13  2  0  0  0  0
 12 14  1  0  0  0  0
 14 15  1  0  0  0  0
 14 52  1  0  0  0  0
 15 16  1  0  0  0  0
 15 24  2  0  0  0  0
 16 17  2  0  0  0  0
 16 53  1  0  0  0  0
 17 18  1  0  0  0  0
 17 22  1  0  0  0  0
 18 19  1  0  0  0  0
 18 20  1  0  0  0  0
 18 21  1  0  0  0  0
 22 23  2  0  0  0  0
 22 54  1  0  0  0  0
 23 24  1  0  0  0  0
 23 55  1  0  0  0  0
 24 25  1  0  0  0  0
 25 26  1  0  0  0  0
 25 56  1  0  0  0  0
 26 27  2  0  0  0  0
 26 28  1  0  0  0  0
 28 29  1  0  0  0  0
 28 57  1  0  0  0  0
 29 30  1  0  0  0  0
 29 58  1  0  0  0  0
 29 59  1  0  0  0  0
 30 31  1  0  0  0  0
 30 60  1  0  0  0  0
 30 61  1  0  0  0  0
 31 32  1  0  0  0  0
 31 36  1  0  0  0  0
 32 33  1  0  0  0  0
 32 62  1  0  0  0  0
 32 63  1  0  0  0  0
 33 34  1  0  0  0  0
 33 64  1  0  0  0  0
 33 65  1  0  0  0  0
 34 35  1  0  0  0  0
 35 36  1  0  0  0  0
 35 66  1  0  0  0  0
 35 67  1  0  0  0  0
 36 68  1  0  0  0  0
 36 69  1  0  0  0  0
 37 38  2  0  0  0  0
 37 70  1  0  0  0  0
 38 39  1  0  0  0  0
 38 71  1  0  0  0  0
 39 40  1  0  0  0  0
 40 72  1  0  0  0  0
 40 73  1  0  0  0  0
 40 74  1  0  0  0  0
 41 42  2  0  0  0  0
 41 75  1  0  0  0  0
 42 43  1  0  0  0  0
 42 76  1  0  0  0  0
 43 44  1  0  0  0  0
M  END
$$$$
