CHEMBL4165836
 OpenBabel04072215383D

 51 54  0  0  0  0  0  0  0  0999 V2000
    7.9321    6.0880    3.7838 C   0  0  0  0  0  0  0  0  0  0  0  0
    7.7715    5.0556    2.6824 C   0  0  0  0  0  0  0  0  0  0  0  0
    6.4578    3.9170    3.0648 S   0  0  0  0  0  0  0  0  0  0  0  0
    6.8290    3.1757    4.2561 O   0  0  0  0  0  0  0  0  0  0  0  0
    5.2003    4.6367    3.0062 O   0  0  0  0  0  0  0  0  0  0  0  0
    6.4643    2.7715    1.7068 C   0  0  0  0  0  0  0  0  0  0  0  0
    5.6177    2.9751    0.6190 C   0  0  0  0  0  0  0  0  0  0  0  0
    5.5305    2.0003   -0.3795 C   0  0  0  0  0  0  0  0  0  0  0  0
    6.2840    0.8210   -0.2917 C   0  0  0  0  0  0  0  0  0  0  0  0
    6.2126   -0.2058   -1.2028 O   0  0  0  0  0  0  0  0  0  0  0  0
    5.7195    0.1273   -2.4969 C   0  0  0  0  0  0  0  0  0  0  0  0
    7.1614    0.6292    0.7986 C   0  0  0  0  0  0  0  0  0  0  0  0
    7.9467   -0.5403    0.8935 N   0  0  0  0  0  0  0  0  0  0  0  0
    9.2013   -0.5623    1.3723 C   0  0  0  0  0  0  0  0  0  0  0  0
   10.0938    0.4047    1.4255 N   0  0  0  0  0  0  0  0  0  0  0  0
   11.1880   -0.1841    1.9991 C   0  0  0  0  0  0  0  0  0  0  0  0
   10.9177   -1.4976    2.3106 C   0  0  0  0  0  0  0  0  0  0  0  0
   11.6493   -2.5857    2.9452 C   0  0  0  0  0  0  0  0  0  0  0  0
   11.0494   -3.8372    3.1433 C   0  0  0  0  0  0  0  0  0  0  0  0
   11.7534   -4.8803    3.7448 C   0  0  0  0  0  0  0  0  0  0  0  0
   13.0752   -4.6897    4.1423 C   0  0  0  0  0  0  0  0  0  0  0  0
   13.7090   -3.4567    3.9458 C   0  0  0  0  0  0  0  0  0  0  0  0
   15.1202   -3.3147    4.2825 C   0  0  0  0  0  0  0  0  0  0  0  0
   16.1538   -4.2917    4.2009 C   0  0  0  0  0  0  0  0  0  0  0  0
   17.3308   -3.6997    4.5983 C   0  0  0  0  0  0  0  0  0  0  0  0
   17.0530   -2.4024    4.9333 N   0  0  0  0  0  0  0  0  0  0  0  0
   15.7152   -2.1559    4.7439 C   0  0  0  0  0  0  0  0  0  0  0  0
   12.9812   -2.4059    3.3643 C   0  0  0  0  0  0  0  0  0  0  0  0
    9.6371   -1.7533    1.8810 O   0  0  0  0  0  0  0  0  0  0  0  0
    7.2365    1.6153    1.7955 C   0  0  0  0  0  0  0  0  0  0  0  0
    8.7247    6.7985    3.5324 H   0  0  0  0  0  0  0  0  0  0  0  0
    8.1899    5.6105    4.7349 H   0  0  0  0  0  0  0  0  0  0  0  0
    7.0044    6.6494    3.9365 H   0  0  0  0  0  0  0  0  0  0  0  0
    8.6950    4.4818    2.5611 H   0  0  0  0  0  0  0  0  0  0  0  0
    7.5203    5.5445    1.7368 H   0  0  0  0  0  0  0  0  0  0  0  0
    4.9987    3.8675    0.5538 H   0  0  0  0  0  0  0  0  0  0  0  0
    4.8402    2.1767   -1.1981 H   0  0  0  0  0  0  0  0  0  0  0  0
    5.8278   -0.7551   -3.1352 H   0  0  0  0  0  0  0  0  0  0  0  0
    6.3032    0.9386   -2.9455 H   0  0  0  0  0  0  0  0  0  0  0  0
    4.6542    0.3781   -2.4672 H   0  0  0  0  0  0  0  0  0  0  0  0
    7.4050   -1.3946    0.8816 H   0  0  0  0  0  0  0  0  0  0  0  0
   12.1012    0.3694    2.1618 H   0  0  0  0  0  0  0  0  0  0  0  0
   10.0238   -4.0154    2.8267 H   0  0  0  0  0  0  0  0  0  0  0  0
   11.2759   -5.8454    3.8924 H   0  0  0  0  0  0  0  0  0  0  0  0
   13.6091   -5.5167    4.6048 H   0  0  0  0  0  0  0  0  0  0  0  0
   16.0520   -5.3156    3.8647 H   0  0  0  0  0  0  0  0  0  0  0  0
   18.3366   -4.0924    4.6675 H   0  0  0  0  0  0  0  0  0  0  0  0
   17.7321   -1.7276    5.2611 H   0  0  0  0  0  0  0  0  0  0  0  0
   15.3112   -1.1772    4.9645 H   0  0  0  0  0  0  0  0  0  0  0  0
   13.4721   -1.4485    3.2084 H   0  0  0  0  0  0  0  0  0  0  0  0
    7.8722    1.4541    2.6644 H   0  0  0  0  0  0  0  0  0  0  0  0
  1  2  1  0  0  0  0
  1 31  1  0  0  0  0
  1 32  1  0  0  0  0
  1 33  1  0  0  0  0
  2  3  1  0  0  0  0
  2 34  1  0  0  0  0
  2 35  1  0  0  0  0
  3  4  2  0  0  0  0
  3  5  2  0  0  0  0
  3  6  1  0  0  0  0
  6  7  1  0  0  0  0
  6 30  2  0  0  0  0
  7  8  2  0  0  0  0
  7 36  1  0  0  0  0
  8  9  1  0  0  0  0
  8 37  1  0  0  0  0
  9 10  1  0  0  0  0
  9 12  2  0  0  0  0
 10 11  1  0  0  0  0
 11 38  1  0  0  0  0
 11 39  1  0  0  0  0
 11 40  1  0  0  0  0
 12 13  1  0  0  0  0
 12 30  1  0  0  0  0
 13 14  1  0  0  0  0
 13 41  1  0  0  0  0
 14 15  2  0  0  0  0
 14 29  1  0  0  0  0
 15 16  1  0  0  0  0
 16 17  2  0  0  0  0
 16 42  1  0  0  0  0
 17 18  1  0  0  0  0
 17 29  1  0  0  0  0
 18 19  1  0  0  0  0
 18 28  2  0  0  0  0
 19 20  2  0  0  0  0
 19 43  1  0  0  0  0
 20 21  1  0  0  0  0
 20 44  1  0  0  0  0
 21 22  2  0  0  0  0
 21 45  1  0  0  0  0
 22 23  1  0  0  0  0
 22 28  1  0  0  0  0
 23 24  1  0  0  0  0
 23 27  2  0  0  0  0
 24 25  2  0  0  0  0
 24 46  1  0  0  0  0
 25 26  1  0  0  0  0
 25 47  1  0  0  0  0
 26 27  1  0  0  0  0
 26 48  1  0  0  0  0
 27 49  1  0  0  0  0
 28 50  1  0  0  0  0
 30 51  1  0  0  0  0
M  END
$$$$
