CHEMBL537435
 OpenBabel04072215383D

 49 51  0  0  0  0  0  0  0  0999 V2000
    2.4688   -0.5106    1.9074 C   0  0  0  0  0  0  0  0  0  0  0  0
    0.9771   -0.3750    1.8093 C   0  0  0  0  0  0  0  0  0  0  0  0
    0.3547    0.8111    2.2127 C   0  0  0  0  0  0  0  0  0  0  0  0
   -1.0266    0.9381    2.1261 C   0  0  0  0  0  0  0  0  0  0  0  0
   -1.8045   -0.1098    1.6344 C   0  0  0  0  0  0  0  0  0  0  0  0
   -1.2081   -1.3277    1.2120 C   0  0  0  0  0  0  0  0  0  0  0  0
   -1.9542   -2.4673    0.7277 N   0  0  0  0  0  0  0  0  0  0  0  0
   -3.2979   -2.5106    0.4581 C   0  0  0  0  0  0  0  0  0  0  0  0
   -3.9739   -1.4986    0.5354 O   0  0  0  0  0  0  0  0  0  0  0  0
   -3.9081   -3.7022    0.1637 N   0  0  0  0  0  0  0  0  0  0  0  0
   -5.3258   -3.8045   -0.0214 C   0  0  0  0  0  0  0  0  0  0  0  0
   -6.0514   -2.8203   -0.7148 C   0  0  0  0  0  0  0  0  0  0  0  0
   -7.4432   -2.8777   -0.7867 C   0  0  0  0  0  0  0  0  0  0  0  0
   -8.1611   -3.9143   -0.1611 C   0  0  0  0  0  0  0  0  0  0  0  0
   -9.6642   -3.9118   -0.1808 C   0  0  0  0  0  0  0  0  0  0  0  0
  -10.4081   -3.5768   -1.3492 C   0  0  0  0  0  0  0  0  0  0  0  0
   -9.9354   -3.2303   -2.7329 C   0  0  0  0  0  0  0  0  0  0  0  0
  -12.0545   -3.6984   -1.0537 S   0  0  0  0  0  0  0  0  0  0  0  0
  -11.8883   -4.1780    0.5260 C   0  0  0  0  0  0  0  0  0  0  0  0
  -12.9240   -4.4572    1.3465 N   0  0  0  0  0  0  0  0  0  0  0  0
  -12.6708   -4.8206    2.6269 C   0  0  0  0  0  0  0  0  0  0  0  0
  -11.3907   -4.8601    3.0793 N   0  0  0  0  0  0  0  0  0  0  0  0
  -10.3183   -4.5648    2.2921 C   0  0  0  0  0  0  0  0  0  0  0  0
   -9.0530   -4.5273    2.9359 N   0  0  0  0  0  0  0  0  0  0  0  0
  -10.5459   -4.2377    0.9161 C   0  0  0  0  0  0  0  0  0  0  0  0
   -7.4247   -4.9331    0.4774 C   0  0  0  0  0  0  0  0  0  0  0  0
   -6.0246   -4.8808    0.5427 C   0  0  0  0  0  0  0  0  0  0  0  0
    0.1960   -1.4368    1.3160 C   0  0  0  0  0  0  0  0  0  0  0  0
    0.3360   -0.0647   -2.7123 Cl  0  0  0  0  0  0  0  0  0  0  0  0
    2.9347    0.4130    2.3150 H   0  0  0  0  0  0  0  0  0  0  0  0
    2.8947   -0.6979    0.8999 H   0  0  0  0  0  0  0  0  0  0  0  0
    2.7281   -1.3548    2.5800 H   0  0  0  0  0  0  0  0  0  0  0  0
    0.9359    1.6385    2.6010 H   0  0  0  0  0  0  0  0  0  0  0  0
   -1.5020    1.8560    2.4497 H   0  0  0  0  0  0  0  0  0  0  0  0
   -2.8609    0.0771    1.6246 H   0  0  0  0  0  0  0  0  0  0  0  0
   -1.4245   -3.3432    0.5972 H   0  0  0  0  0  0  0  0  0  0  0  0
   -3.3560   -4.5711    0.2418 H   0  0  0  0  0  0  0  0  0  0  0  0
   -5.5468   -1.9952   -1.1990 H   0  0  0  0  0  0  0  0  0  0  0  0
   -7.9523   -2.0738   -1.2990 H   0  0  0  0  0  0  0  0  0  0  0  0
   -8.8461   -3.3226   -2.8748 H   0  0  0  0  0  0  0  0  0  0  0  0
  -10.2601   -2.1986   -2.9846 H   0  0  0  0  0  0  0  0  0  0  0  0
  -10.4058   -3.9312   -3.4541 H   0  0  0  0  0  0  0  0  0  0  0  0
  -13.4900   -5.0497    3.2950 H   0  0  0  0  0  0  0  0  0  0  0  0
   -8.9759   -4.8307    3.9098 H   0  0  0  0  0  0  0  0  0  0  0  0
   -8.2554   -4.0234    2.5341 H   0  0  0  0  0  0  0  0  0  0  0  0
   -7.9359   -5.7606    0.9525 H   0  0  0  0  0  0  0  0  0  0  0  0
   -5.4887   -5.6516    1.0832 H   0  0  0  0  0  0  0  0  0  0  0  0
    0.6864   -2.3543    1.0127 H   0  0  0  0  0  0  0  0  0  0  0  0
    1.4078    0.5391   -2.0971 H   0  0  0  0  0  0  0  0  0  0  0  0
  1  2  1  0  0  0  0
  1 30  1  0  0  0  0
  1 31  1  0  0  0  0
  1 32  1  0  0  0  0
  2  3  1  0  0  0  0
  2 28  2  0  0  0  0
  3  4  2  0  0  0  0
  3 33  1  0  0  0  0
  4  5  1  0  0  0  0
  4 34  1  0  0  0  0
  5  6  2  0  0  0  0
  5 35  1  0  0  0  0
  6  7  1  0  0  0  0
  6 28  1  0  0  0  0
  7  8  1  0  0  0  0
  7 36  1  0  0  0  0
  8  9  2  0  0  0  0
  8 10  1  0  0  0  0
 10 11  1  0  0  0  0
 10 37  1  0  0  0  0
 11 12  1  0  0  0  0
 11 27  2  0  0  0  0
 12 13  2  0  0  0  0
 12 38  1  0  0  0  0
 13 14  1  0  0  0  0
 13 39  1  0  0  0  0
 14 15  1  0  0  0  0
 14 26  2  0  0  0  0
 15 16  2  0  0  0  0
 15 25  1  0  0  0  0
 16 17  1  0  0  0  0
 16 18  1  0  0  0  0
 17 40  1  0  0  0  0
 17 41  1  0  0  0  0
 17 42  1  0  0  0  0
 18 19  1  0  0  0  0
 19 20  1  0  0  0  0
 19 25  2  0  0  0  0
 20 21  2  0  0  0  0
 21 22  1  0  0  0  0
 21 43  1  0  0  0  0
 22 23  2  0  0  0  0
 23 24  1  0  0  0  0
 23 25  1  0  0  0  0
 24 44  1  0  0  0  0
 24 45  1  0  0  0  0
 26 27  1  0  0  0  0
 26 46  1  0  0  0  0
 27 47  1  0  0  0  0
 28 48  1  0  0  0  0
 29 49  1  0  0  0  0
M  END
$$$$
