CHEMBL3740276
 OpenBabel04072215373D

 61 65  0  0  0  0  0  0  0  0999 V2000
    7.7740   -3.3592    0.2594 C   0  0  0  0  0  0  0  0  0  0  0  0
    6.1380   -2.6572    0.3404 S   0  0  0  0  0  0  0  0  0  0  0  0
    6.0516   -1.7604    1.4569 O   0  0  0  0  0  0  0  0  0  0  0  0
    5.7931   -2.2124   -1.0065 O   0  0  0  0  0  0  0  0  0  0  0  0
    5.1804   -4.0211    0.6091 N   0  0  0  0  0  0  0  0  0  0  0  0
    4.9093   -4.3929    1.9568 C   0  0  0  0  0  0  0  0  0  0  0  0
    3.8456   -3.8251    2.6564 C   0  0  0  0  0  0  0  0  0  0  0  0
    3.5792   -4.2458    3.9631 C   0  0  0  0  0  0  0  0  0  0  0  0
    4.3816   -5.2219    4.5610 C   0  0  0  0  0  0  0  0  0  0  0  0
    5.4761   -5.7672    3.8795 C   0  0  0  0  0  0  0  0  0  0  0  0
    6.2079   -6.8074    4.4876 N   0  0  0  0  0  0  0  0  0  0  0  0
    7.5377   -7.1395    4.1987 C   0  0  0  0  0  0  0  0  0  0  0  0
    7.8135   -8.4653    4.1888 N   0  0  0  0  0  0  0  0  0  0  0  0
    9.0771   -8.8158    3.8871 C   0  0  0  0  0  0  0  0  0  0  0  0
   10.0682   -7.9080    3.6205 C   0  0  0  0  0  0  0  0  0  0  0  0
    9.7047   -6.5803    3.7115 C   0  0  0  0  0  0  0  0  0  0  0  0
   10.5838   -5.5307    3.5023 O   0  0  0  0  0  0  0  0  0  0  0  0
   11.9178   -5.7341    3.7664 C   0  0  0  0  0  0  0  0  0  0  0  0
   12.8264   -5.3070    2.8060 C   0  0  0  0  0  0  0  0  0  0  0  0
   14.1699   -5.6872    2.9243 C   0  0  0  0  0  0  0  0  0  0  0  0
   14.6150   -6.4019    4.0546 C   0  0  0  0  0  0  0  0  0  0  0  0
   15.9432   -6.7856    4.3039 C   0  0  0  0  0  0  0  0  0  0  0  0
   16.0769   -8.2445    4.9093 C   0  0  0  0  0  0  0  0  0  0  0  0
   15.1615   -9.0606    4.7814 O   0  0  0  0  0  0  0  0  0  0  0  0
   17.2771   -8.4998    5.5956 N   0  0  0  0  0  0  0  0  0  0  0  0
   17.6608   -9.6429    6.3544 C   0  0  0  0  0  0  0  0  0  0  0  0
   16.8429  -10.7491    6.5954 C   0  0  0  0  0  0  0  0  0  0  0  0
   17.3075  -11.8447    7.3377 C   0  0  0  0  0  0  0  0  0  0  0  0
   18.5987  -11.8548    7.8671 C   0  0  0  0  0  0  0  0  0  0  0  0
   19.4212  -10.7518    7.6663 C   0  0  0  0  0  0  0  0  0  0  0  0
   18.9483   -9.6551    6.9227 C   0  0  0  0  0  0  0  0  0  0  0  0
   16.5192   -5.8703    5.1457 C   0  0  0  0  0  0  0  0  0  0  0  0
   15.8051   -5.6001    6.3090 C   0  0  0  0  0  0  0  0  0  0  0  0
   14.4498   -5.9921    6.3727 C   0  0  0  0  0  0  0  0  0  0  0  0
   13.7845   -6.2970    5.1693 C   0  0  0  0  0  0  0  0  0  0  0  0
   12.3959   -6.1822    4.9959 C   0  0  0  0  0  0  0  0  0  0  0  0
    8.4485   -6.1925    3.9664 N   0  0  0  0  0  0  0  0  0  0  0  0
    5.7216   -5.3467    2.5670 C   0  0  0  0  0  0  0  0  0  0  0  0
    8.4799   -2.5412    0.0940 H   0  0  0  0  0  0  0  0  0  0  0  0
    7.8232   -4.0604   -0.5767 H   0  0  0  0  0  0  0  0  0  0  0  0
    8.0054   -3.8531    1.2033 H   0  0  0  0  0  0  0  0  0  0  0  0
    4.3689   -3.9979   -0.0102 H   0  0  0  0  0  0  0  0  0  0  0  0
    3.2219   -3.0603    2.2040 H   0  0  0  0  0  0  0  0  0  0  0  0
    2.7570   -3.8071    4.5186 H   0  0  0  0  0  0  0  0  0  0  0  0
    4.1625   -5.5396    5.5786 H   0  0  0  0  0  0  0  0  0  0  0  0
    5.6924   -7.6821    4.4913 H   0  0  0  0  0  0  0  0  0  0  0  0
    9.2778   -9.8842    3.8857 H   0  0  0  0  0  0  0  0  0  0  0  0
   11.0695   -8.2362    3.3680 H   0  0  0  0  0  0  0  0  0  0  0  0
   12.5033   -4.6830    1.9750 H   0  0  0  0  0  0  0  0  0  0  0  0
   14.8856   -5.3480    2.1790 H   0  0  0  0  0  0  0  0  0  0  0  0
   17.9654   -7.7626    5.5852 H   0  0  0  0  0  0  0  0  0  0  0  0
   15.8267  -10.7887    6.2163 H   0  0  0  0  0  0  0  0  0  0  0  0
   16.6565  -12.7032    7.5047 H   0  0  0  0  0  0  0  0  0  0  0  0
   18.9570  -12.7125    8.4293 H   0  0  0  0  0  0  0  0  0  0  0  0
   20.4256  -10.7435    8.0772 H   0  0  0  0  0  0  0  0  0  0  0  0
   19.6226   -8.8109    6.7925 H   0  0  0  0  0  0  0  0  0  0  0  0
   17.4500   -5.3832    4.8839 H   0  0  0  0  0  0  0  0  0  0  0  0
   16.2579   -5.0284    7.1091 H   0  0  0  0  0  0  0  0  0  0  0  0
   13.8846   -5.7957    7.2792 H   0  0  0  0  0  0  0  0  0  0  0  0
   11.7156   -6.2938    5.8340 H   0  0  0  0  0  0  0  0  0  0  0  0
    6.5344   -5.7884    1.9990 H   0  0  0  0  0  0  0  0  0  0  0  0
  1  2  1  0  0  0  0
  1 39  1  0  0  0  0
  1 40  1  0  0  0  0
  1 41  1  0  0  0  0
  2  3  2  0  0  0  0
  2  4  2  0  0  0  0
  2  5  1  0  0  0  0
  5  6  1  0  0  0  0
  5 42  1  0  0  0  0
  6  7  1  0  0  0  0
  6 38  2  0  0  0  0
  7  8  2  0  0  0  0
  7 43  1  0  0  0  0
  8  9  1  0  0  0  0
  8 44  1  0  0  0  0
  9 10  2  0  0  0  0
  9 45  1  0  0  0  0
 10 11  1  0  0  0  0
 10 38  1  0  0  0  0
 11 12  1  0  0  0  0
 11 46  1  0  0  0  0
 12 13  1  0  0  0  0
 12 37  2  0  0  0  0
 13 14  2  0  0  0  0
 14 15  1  0  0  0  0
 14 47  1  0  0  0  0
 15 16  2  0  0  0  0
 15 48  1  0  0  0  0
 16 17  1  0  0  0  0
 16 37  1  0  0  0  0
 17 18  1  0  0  0  0
 18 19  1  0  0  0  0
 18 36  2  0  0  0  0
 19 20  2  0  0  0  0
 19 49  1  0  0  0  0
 20 21  1  0  0  0  0
 20 50  1  0  0  0  0
 21 22  1  0  0  0  0
 21 35  2  0  0  0  0
 22 23  1  0  0  0  0
 22 32  2  0  0  0  0
 23 24  2  0  0  0  0
 23 25  1  0  0  0  0
 25 26  1  0  0  0  0
 25 51  1  0  0  0  0
 26 27  1  0  0  0  0
 26 31  2  0  0  0  0
 27 28  2  0  0  0  0
 27 52  1  0  0  0  0
 28 29  1  0  0  0  0
 28 53  1  0  0  0  0
 29 30  2  0  0  0  0
 29 54  1  0  0  0  0
 30 31  1  0  0  0  0
 30 55  1  0  0  0  0
 31 56  1  0  0  0  0
 32 33  1  0  0  0  0
 32 57  1  0  0  0  0
 33 34  2  0  0  0  0
 33 58  1  0  0  0  0
 34 35  1  0  0  0  0
 34 59  1  0  0  0  0
 35 36  1  0  0  0  0
 36 60  1  0  0  0  0
 38 61  1  0  0  0  0
M  END
$$$$
