CHEMBL3109342
 OpenBabel04072215363D

 60 64  0  0  0  0  0  0  0  0999 V2000
    1.4468   -0.5926   -5.9097 C   0  0  0  0  0  0  0  0  0  0  0  0
    2.8327   -0.5834   -5.5875 O   0  0  0  0  0  0  0  0  0  0  0  0
    3.2116    0.6474   -4.9765 C   0  0  0  0  0  0  0  0  0  0  0  0
    4.6960    0.6188   -4.6491 C   0  0  0  0  0  0  0  0  0  0  0  0
    5.0585    1.8567   -4.0264 O   0  0  0  0  0  0  0  0  0  0  0  0
    6.3903    2.0109   -3.6931 C   0  0  0  0  0  0  0  0  0  0  0  0
    7.3279    0.9145   -3.9223 C   0  0  0  0  0  0  0  0  0  0  0  0
    8.6172    1.0835   -3.6668 C   0  0  0  0  0  0  0  0  0  0  0  0
    9.0775    2.3024   -3.1676 N   0  0  0  0  0  0  0  0  0  0  0  0
   10.3399    2.7163   -2.7885 C   0  0  0  0  0  0  0  0  0  0  0  0
   11.5498    1.9077   -2.7802 C   0  0  0  0  0  0  0  0  0  0  0  0
   12.5559    2.1628   -1.8643 C   0  0  0  0  0  0  0  0  0  0  0  0
   13.7127    1.4054   -1.9291 C   0  0  0  0  0  0  0  0  0  0  0  0
   13.8473    0.4228   -2.9116 C   0  0  0  0  0  0  0  0  0  0  0  0
   15.0284   -0.3287   -2.9896 C   0  0  0  0  0  0  0  0  0  0  0  0
   15.1817   -1.2993   -3.9655 C   0  0  0  0  0  0  0  0  0  0  0  0
   14.1514   -1.5218   -4.8688 C   0  0  0  0  0  0  0  0  0  0  0  0
   12.9573   -0.7853   -4.7968 C   0  0  0  0  0  0  0  0  0  0  0  0
   11.9265   -0.9434   -5.7014 O   0  0  0  0  0  0  0  0  0  0  0  0
   11.7482   -2.2438   -6.2620 C   0  0  0  0  0  0  0  0  0  0  0  0
   11.1438   -2.1241   -7.6683 C   0  0  0  0  0  0  0  0  0  0  0  0
    9.7793   -1.4232   -7.6175 C   0  0  0  0  0  0  0  0  0  0  0  0
    8.7053   -2.3162   -6.9946 C   0  0  0  0  0  0  0  0  0  0  0  0
    8.5866   -3.5907   -7.7055 N   0  0  0  0  0  0  0  0  0  0  0  0
    9.8546   -4.3224   -7.7190 C   0  0  0  0  0  0  0  0  0  0  0  0
   10.9846   -3.4992   -8.3407 C   0  0  0  0  0  0  0  0  0  0  0  0
   12.7809    0.2136   -3.8174 C   0  0  0  0  0  0  0  0  0  0  0  0
   11.6449    0.9510   -3.7287 N   0  0  0  0  0  0  0  0  0  0  0  0
   10.1655    4.0293   -2.3828 C   0  0  0  0  0  0  0  0  0  0  0  0
    8.8604    4.4270   -2.4608 N   0  0  0  0  0  0  0  0  0  0  0  0
    8.2144    3.3781   -2.9276 C   0  0  0  0  0  0  0  0  0  0  0  0
    6.8325    3.1935   -3.2125 C   0  0  0  0  0  0  0  0  0  0  0  0
    1.2059   -1.5500   -6.3792 H   0  0  0  0  0  0  0  0  0  0  0  0
    1.2112    0.2105   -6.6152 H   0  0  0  0  0  0  0  0  0  0  0  0
    0.8426   -0.4862   -5.0034 H   0  0  0  0  0  0  0  0  0  0  0  0
    2.6343    0.8067   -4.0582 H   0  0  0  0  0  0  0  0  0  0  0  0
    3.0067    1.4815   -5.6541 H   0  0  0  0  0  0  0  0  0  0  0  0
    5.2618    0.4718   -5.5771 H   0  0  0  0  0  0  0  0  0  0  0  0
    4.9075   -0.2198   -3.9758 H   0  0  0  0  0  0  0  0  0  0  0  0
    6.9821   -0.0261   -4.3349 H   0  0  0  0  0  0  0  0  0  0  0  0
    9.3550    0.3049   -3.8450 H   0  0  0  0  0  0  0  0  0  0  0  0
   12.4521    2.9385   -1.1139 H   0  0  0  0  0  0  0  0  0  0  0  0
   14.5126    1.5977   -1.2189 H   0  0  0  0  0  0  0  0  0  0  0  0
   15.8436   -0.1547   -2.2916 H   0  0  0  0  0  0  0  0  0  0  0  0
   16.1002   -1.8771   -4.0307 H   0  0  0  0  0  0  0  0  0  0  0  0
   14.3325   -2.2779   -5.6241 H   0  0  0  0  0  0  0  0  0  0  0  0
   11.0872   -2.8171   -5.6080 H   0  0  0  0  0  0  0  0  0  0  0  0
   12.6885   -2.7911   -6.3413 H   0  0  0  0  0  0  0  0  0  0  0  0
   11.8260   -1.5170   -8.2787 H   0  0  0  0  0  0  0  0  0  0  0  0
    9.4752   -1.1539   -8.6374 H   0  0  0  0  0  0  0  0  0  0  0  0
    9.8478   -0.4837   -7.0560 H   0  0  0  0  0  0  0  0  0  0  0  0
    7.7389   -1.8001   -7.0301 H   0  0  0  0  0  0  0  0  0  0  0  0
    8.9107   -2.4985   -5.9331 H   0  0  0  0  0  0  0  0  0  0  0  0
    8.3063   -3.4017   -8.6688 H   0  0  0  0  0  0  0  0  0  0  0  0
    9.7205   -5.2438   -8.2961 H   0  0  0  0  0  0  0  0  0  0  0  0
   10.1133   -4.6361   -6.7016 H   0  0  0  0  0  0  0  0  0  0  0  0
   10.7665   -3.3462   -9.4061 H   0  0  0  0  0  0  0  0  0  0  0  0
   11.9236   -4.0622   -8.2941 H   0  0  0  0  0  0  0  0  0  0  0  0
   10.9281    4.7072   -2.0207 H   0  0  0  0  0  0  0  0  0  0  0  0
    6.1617    4.0301   -3.0652 H   0  0  0  0  0  0  0  0  0  0  0  0
  1  2  1  0  0  0  0
  1 33  1  0  0  0  0
  1 34  1  0  0  0  0
  1 35  1  0  0  0  0
  2  3  1  0  0  0  0
  3  4  1  0  0  0  0
  3 36  1  0  0  0  0
  3 37  1  0  0  0  0
  4  5  1  0  0  0  0
  4 38  1  0  0  0  0
  4 39  1  0  0  0  0
  5  6  1  0  0  0  0
  6  7  1  0  0  0  0
  6 32  2  0  0  0  0
  7  8  2  0  0  0  0
  7 40  1  0  0  0  0
  8  9  1  0  0  0  0
  8 41  1  0  0  0  0
  9 10  1  0  0  0  0
  9 31  1  0  0  0  0
 10 11  1  0  0  0  0
 10 29  2  0  0  0  0
 11 12  1  0  0  0  0
 11 28  2  0  0  0  0
 12 13  2  0  0  0  0
 12 42  1  0  0  0  0
 13 14  1  0  0  0  0
 13 43  1  0  0  0  0
 14 15  1  0  0  0  0
 14 27  2  0  0  0  0
 15 16  2  0  0  0  0
 15 44  1  0  0  0  0
 16 17  1  0  0  0  0
 16 45  1  0  0  0  0
 17 18  2  0  0  0  0
 17 46  1  0  0  0  0
 18 19  1  0  0  0  0
 18 27  1  0  0  0  0
 19 20  1  0  0  0  0
 20 21  1  0  0  0  0
 20 47  1  0  0  0  0
 20 48  1  0  0  0  0
 21 22  1  0  0  0  0
 21 26  1  0  0  0  0
 21 49  1  0  0  0  0
 22 23  1  0  0  0  0
 22 50  1  0  0  0  0
 22 51  1  0  0  0  0
 23 24  1  0  0  0  0
 23 52  1  0  0  0  0
 23 53  1  0  0  0  0
 24 25  1  0  0  0  0
 24 54  1  0  0  0  0
 25 26  1  0  0  0  0
 25 55  1  0  0  0  0
 25 56  1  0  0  0  0
 26 57  1  0  0  0  0
 26 58  1  0  0  0  0
 27 28  1  0  0  0  0
 29 30  1  0  0  0  0
 29 59  1  0  0  0  0
 30 31  2  0  0  0  0
 31 32  1  0  0  0  0
 32 60  1  0  0  0  0
M  END
$$$$
