CHEMBL3671507
 OpenBabel04072215373D

 58 60  0  0  0  0  0  0  0  0999 V2000
    2.3699    2.0928    0.5949 C   0  0  0  0  0  0  0  0  0  0  0  0
    2.9242    0.8869    0.4247 C   0  0  0  0  0  0  0  0  0  0  0  0
    3.5863    0.1745    1.5499 C   0  0  0  0  0  0  0  0  0  0  0  0
    3.3614    0.4464    2.7205 O   0  0  0  0  0  0  0  0  0  0  0  0
    4.4820   -0.7733    1.0821 N   0  0  0  0  0  0  0  0  0  0  0  0
    5.2781   -1.4810    2.0039 C   0  0  0  0  0  0  0  0  0  0  0  0
    6.4550   -0.8735    2.4439 C   0  0  0  0  0  0  0  0  0  0  0  0
    7.2483   -1.4785    3.4451 C   0  0  0  0  0  0  0  0  0  0  0  0
    8.3880   -0.8902    4.0255 C   0  0  0  0  0  0  0  0  0  0  0  0
    8.7849    0.4198    3.6479 N   0  0  0  0  0  0  0  0  0  0  0  0
    9.6025    1.2503    4.4514 C   0  0  0  0  0  0  0  0  0  0  0  0
    9.3935    1.3398    5.8355 C   0  0  0  0  0  0  0  0  0  0  0  0
   10.2527    2.0842    6.6442 C   0  0  0  0  0  0  0  0  0  0  0  0
   11.3183    2.7699    6.0658 C   0  0  0  0  0  0  0  0  0  0  0  0
   12.5327    3.7034    7.1727 Br  0  0  0  0  0  0  0  0  0  0  0  0
   11.5039    2.7556    4.6853 C   0  0  0  0  0  0  0  0  0  0  0  0
   10.6383    2.0066    3.8911 C   0  0  0  0  0  0  0  0  0  0  0  0
   10.8286    1.9845    2.5619 F   0  0  0  0  0  0  0  0  0  0  0  0
    9.1007   -1.5213    4.9760 N   0  0  0  0  0  0  0  0  0  0  0  0
    8.6714   -2.7201    5.3695 C   0  0  0  0  0  0  0  0  0  0  0  0
    7.5842   -3.3489    4.9152 N   0  0  0  0  0  0  0  0  0  0  0  0
    6.8727   -2.7238    3.9687 C   0  0  0  0  0  0  0  0  0  0  0  0
    5.7125   -3.3226    3.4946 C   0  0  0  0  0  0  0  0  0  0  0  0
    4.9126   -2.7370    2.5042 C   0  0  0  0  0  0  0  0  0  0  0  0
    3.8318   -3.5013    2.1292 O   0  0  0  0  0  0  0  0  0  0  0  0
    3.4260   -3.3797    0.7620 C   0  0  0  0  0  0  0  0  0  0  0  0
    2.8056   -4.6884    0.2586 C   0  0  0  0  0  0  0  0  0  0  0  0
    2.4873   -4.6346   -1.1639 N   0  0  0  0  0  0  0  0  0  0  0  0
    3.4903   -4.7065   -2.0968 C   0  0  0  0  0  0  0  0  0  0  0  0
    4.6610   -4.9286   -1.8141 O   0  0  0  0  0  0  0  0  0  0  0  0
    3.0492   -4.4696   -3.3753 N   0  0  0  0  0  0  0  0  0  0  0  0
    3.9839   -4.6554   -4.4707 C   0  0  0  0  0  0  0  0  0  0  0  0
    3.4181   -4.2737   -5.8345 C   0  0  0  0  0  0  0  0  0  0  0  0
    3.0571   -2.8005   -5.9410 C   0  0  0  0  0  0  0  0  0  0  0  0
    1.8562    2.5867   -0.2232 H   0  0  0  0  0  0  0  0  0  0  0  0
    2.4100    2.6094    1.5505 H   0  0  0  0  0  0  0  0  0  0  0  0
    2.8659    0.3754   -0.5281 H   0  0  0  0  0  0  0  0  0  0  0  0
    4.9611   -0.4730    0.2416 H   0  0  0  0  0  0  0  0  0  0  0  0
    6.7275    0.1028    2.0532 H   0  0  0  0  0  0  0  0  0  0  0  0
    9.0615    0.4415    2.6700 H   0  0  0  0  0  0  0  0  0  0  0  0
    8.5670    0.8017    6.2956 H   0  0  0  0  0  0  0  0  0  0  0  0
   10.0887    2.1012    7.7178 H   0  0  0  0  0  0  0  0  0  0  0  0
   12.3189    3.2989    4.2204 H   0  0  0  0  0  0  0  0  0  0  0  0
    9.2510   -3.2238    6.1316 H   0  0  0  0  0  0  0  0  0  0  0  0
    5.4203   -4.2838    3.9136 H   0  0  0  0  0  0  0  0  0  0  0  0
    4.2779   -3.1342    0.1181 H   0  0  0  0  0  0  0  0  0  0  0  0
    2.6714   -2.5887    0.6884 H   0  0  0  0  0  0  0  0  0  0  0  0
    1.8816   -4.9128    0.8009 H   0  0  0  0  0  0  0  0  0  0  0  0
    3.4960   -5.5220    0.4352 H   0  0  0  0  0  0  0  0  0  0  0  0
    1.5861   -4.2848   -1.4501 H   0  0  0  0  0  0  0  0  0  0  0  0
    2.0742   -4.6521   -3.5561 H   0  0  0  0  0  0  0  0  0  0  0  0
    4.2691   -5.7142   -4.4799 H   0  0  0  0  0  0  0  0  0  0  0  0
    4.8907   -4.0765   -4.2585 H   0  0  0  0  0  0  0  0  0  0  0  0
    2.5337   -4.8811   -6.0584 H   0  0  0  0  0  0  0  0  0  0  0  0
    4.1683   -4.5060   -6.6009 H   0  0  0  0  0  0  0  0  0  0  0  0
    2.2558   -2.5376   -5.2442 H   0  0  0  0  0  0  0  0  0  0  0  0
    2.7100   -2.5716   -6.9539 H   0  0  0  0  0  0  0  0  0  0  0  0
    3.9237   -2.1666   -5.7288 H   0  0  0  0  0  0  0  0  0  0  0  0
  1  2  2  0  0  0  0
  1 35  1  0  0  0  0
  1 36  1  0  0  0  0
  2  3  1  0  0  0  0
  2 37  1  0  0  0  0
  3  4  2  0  0  0  0
  3  5  1  0  0  0  0
  5  6  1  0  0  0  0
  5 38  1  0  0  0  0
  6  7  1  0  0  0  0
  6 24  2  0  0  0  0
  7  8  2  0  0  0  0
  7 39  1  0  0  0  0
  8  9  1  0  0  0  0
  8 22  1  0  0  0  0
  9 10  1  0  0  0  0
  9 19  2  0  0  0  0
 10 11  1  0  0  0  0
 10 40  1  0  0  0  0
 11 12  1  0  0  0  0
 11 17  2  0  0  0  0
 12 13  2  0  0  0  0
 12 41  1  0  0  0  0
 13 14  1  0  0  0  0
 13 42  1  0  0  0  0
 14 15  1  0  0  0  0
 14 16  2  0  0  0  0
 16 17  1  0  0  0  0
 16 43  1  0  0  0  0
 17 18  1  0  0  0  0
 19 20  1  0  0  0  0
 20 21  2  0  0  0  0
 20 44  1  0  0  0  0
 21 22  1  0  0  0  0
 22 23  2  0  0  0  0
 23 24  1  0  0  0  0
 23 45  1  0  0  0  0
 24 25  1  0  0  0  0
 25 26  1  0  0  0  0
 26 27  1  0  0  0  0
 26 46  1  0  0  0  0
 26 47  1  0  0  0  0
 27 28  1  0  0  0  0
 27 48  1  0  0  0  0
 27 49  1  0  0  0  0
 28 29  1  0  0  0  0
 28 50  1  0  0  0  0
 29 30  2  0  0  0  0
 29 31  1  0  0  0  0
 31 32  1  0  0  0  0
 31 51  1  0  0  0  0
 32 33  1  0  0  0  0
 32 52  1  0  0  0  0
 32 53  1  0  0  0  0
 33 34  1  0  0  0  0
 33 54  1  0  0  0  0
 33 55  1  0  0  0  0
 34 56  1  0  0  0  0
 34 57  1  0  0  0  0
 34 58  1  0  0  0  0
M  END
$$$$
