CHEMBL189995
 OpenBabel04072215363D

 80 83  0  0  0  0  0  0  0  0999 V2000
    1.6968   -4.6044    2.5221 C   0  0  0  0  0  0  0  0  0  0  0  0
    3.0269   -4.1807    2.2527 O   0  0  0  0  0  0  0  0  0  0  0  0
    3.2660   -2.8315    2.2813 C   0  0  0  0  0  0  0  0  0  0  0  0
    2.3024   -1.8340    2.4264 C   0  0  0  0  0  0  0  0  0  0  0  0
    2.7000   -0.5011    2.4729 C   0  0  0  0  0  0  0  0  0  0  0  0
    1.8622    0.5613    2.6879 O   0  0  0  0  0  0  0  0  0  0  0  0
    0.7174    0.2903    3.4924 C   0  0  0  0  0  0  0  0  0  0  0  0
    4.0473   -0.1714    2.2964 C   0  0  0  0  0  0  0  0  0  0  0  0
    5.0482   -1.1545    2.1788 C   0  0  0  0  0  0  0  0  0  0  0  0
    6.4880   -0.7883    2.2169 C   0  0  0  0  0  0  0  0  0  0  0  0
    6.8732    0.2805    3.0471 C   0  0  0  0  0  0  0  0  0  0  0  0
    8.2121    0.6480    3.1900 C   0  0  0  0  0  0  0  0  0  0  0  0
    8.6121    1.7230    3.9776 C   0  0  0  0  0  0  0  0  0  0  0  0
    9.9018    2.0811    4.1540 N   0  0  0  0  0  0  0  0  0  0  0  0
   10.8363    1.3694    3.5021 C   0  0  0  0  0  0  0  0  0  0  0  0
   12.1786    1.6150    3.7602 N   0  0  0  0  0  0  0  0  0  0  0  0
   12.5407    2.5033    4.8561 C   0  0  0  0  0  0  0  0  0  0  0  0
   12.4579    1.6859    6.1471 C   0  0  0  0  0  0  0  0  0  0  0  0
   12.8772    2.4477    7.4012 C   0  0  0  0  0  0  0  0  0  0  0  0
   12.1173    3.6753    7.6599 N   0  0  0  0  0  0  0  0  0  0  0  0
   10.6693    3.4341    7.8207 C   0  0  0  0  0  0  0  0  0  0  0  0
    9.8990    4.7407    8.1208 C   0  0  0  0  0  0  0  0  0  0  0  0
   10.3843    5.4917    9.2957 N   0  0  0  0  0  0  0  0  0  0  0  0
   10.0044    4.8367   10.5442 C   0  0  0  0  0  0  0  0  0  0  0  0
   11.8482    5.6563    9.1862 C   0  0  0  0  0  0  0  0  0  0  0  0
   12.6369    4.3656    8.8569 C   0  0  0  0  0  0  0  0  0  0  0  0
   10.5012    0.2826    2.6963 C   0  0  0  0  0  0  0  0  0  0  0  0
    9.1817   -0.1104    2.5402 C   0  0  0  0  0  0  0  0  0  0  0  0
    8.8619   -1.1848    1.7909 N   0  0  0  0  0  0  0  0  0  0  0  0
    7.5491   -1.4783    1.5996 C   0  0  0  0  0  0  0  0  0  0  0  0
    7.3330   -2.6030    0.7684 N   0  0  0  0  0  0  0  0  0  0  0  0
    7.0468   -2.3717   -0.5678 C   0  0  0  0  0  0  0  0  0  0  0  0
    6.9674   -1.2654   -1.0839 O   0  0  0  0  0  0  0  0  0  0  0  0
    6.9273   -3.5671   -1.2619 N   0  0  0  0  0  0  0  0  0  0  0  0
    6.7942   -3.6510   -2.7326 C   0  0  0  0  0  0  0  0  0  0  0  0
    8.0917   -3.1688   -3.4043 C   0  0  0  0  0  0  0  0  0  0  0  0
    6.5737   -5.1212   -3.1479 C   0  0  0  0  0  0  0  0  0  0  0  0
    5.5967   -2.8375   -3.2493 C   0  0  0  0  0  0  0  0  0  0  0  0
    4.6183   -2.4907    2.1701 C   0  0  0  0  0  0  0  0  0  0  0  0
    1.7045   -5.6968    2.5785 H   0  0  0  0  0  0  0  0  0  0  0  0
    1.0235   -4.3132    1.7098 H   0  0  0  0  0  0  0  0  0  0  0  0
    1.3434   -4.2250    3.4868 H   0  0  0  0  0  0  0  0  0  0  0  0
    1.2501   -2.0789    2.5004 H   0  0  0  0  0  0  0  0  0  0  0  0
    0.3908    1.2321    3.9457 H   0  0  0  0  0  0  0  0  0  0  0  0
    0.9343   -0.4050    4.3116 H   0  0  0  0  0  0  0  0  0  0  0  0
   -0.0980   -0.0872    2.8683 H   0  0  0  0  0  0  0  0  0  0  0  0
    4.3098    0.8853    2.3063 H   0  0  0  0  0  0  0  0  0  0  0  0
    6.1250    0.8273    3.6180 H   0  0  0  0  0  0  0  0  0  0  0  0
    7.8892    2.3265    4.5250 H   0  0  0  0  0  0  0  0  0  0  0  0
   12.8226    1.5308    2.9873 H   0  0  0  0  0  0  0  0  0  0  0  0
   11.9238    3.4108    4.8883 H   0  0  0  0  0  0  0  0  0  0  0  0
   13.5737    2.8410    4.7054 H   0  0  0  0  0  0  0  0  0  0  0  0
   13.1070    0.8065    6.0420 H   0  0  0  0  0  0  0  0  0  0  0  0
   11.4476    1.2805    6.2774 H   0  0  0  0  0  0  0  0  0  0  0  0
   13.9390    2.7024    7.2926 H   0  0  0  0  0  0  0  0  0  0  0  0
   12.8024    1.7627    8.2559 H   0  0  0  0  0  0  0  0  0  0  0  0
   10.4862    2.7014    8.6176 H   0  0  0  0  0  0  0  0  0  0  0  0
   10.2447    3.0214    6.9003 H   0  0  0  0  0  0  0  0  0  0  0  0
    8.8295    4.5210    8.2274 H   0  0  0  0  0  0  0  0  0  0  0  0
    9.9762    5.3974    7.2435 H   0  0  0  0  0  0  0  0  0  0  0  0
    8.9150    4.7317   10.6031 H   0  0  0  0  0  0  0  0  0  0  0  0
   10.3024    5.4525   11.3999 H   0  0  0  0  0  0  0  0  0  0  0  0
   10.4476    3.8438   10.6690 H   0  0  0  0  0  0  0  0  0  0  0  0
   12.2472    6.1040   10.1047 H   0  0  0  0  0  0  0  0  0  0  0  0
   12.0435    6.3899    8.3926 H   0  0  0  0  0  0  0  0  0  0  0  0
   12.6169    3.6944    9.7257 H   0  0  0  0  0  0  0  0  0  0  0  0
   13.6847    4.6426    8.6884 H   0  0  0  0  0  0  0  0  0  0  0  0
   11.2804   -0.2918    2.2131 H   0  0  0  0  0  0  0  0  0  0  0  0
    8.1448   -3.2053    0.7996 H   0  0  0  0  0  0  0  0  0  0  0  0
    6.4974   -4.3054   -0.7200 H   0  0  0  0  0  0  0  0  0  0  0  0
    8.9480   -3.7719   -3.0781 H   0  0  0  0  0  0  0  0  0  0  0  0
    8.3169   -2.1265   -3.1599 H   0  0  0  0  0  0  0  0  0  0  0  0
    8.0270   -3.2468   -4.4959 H   0  0  0  0  0  0  0  0  0  0  0  0
    7.4099   -5.7590   -2.8408 H   0  0  0  0  0  0  0  0  0  0  0  0
    6.4719   -5.2113   -4.2373 H   0  0  0  0  0  0  0  0  0  0  0  0
    5.6624   -5.5312   -2.6978 H   0  0  0  0  0  0  0  0  0  0  0  0
    5.7218   -1.7641   -3.0832 H   0  0  0  0  0  0  0  0  0  0  0  0
    4.6696   -3.1447   -2.7529 H   0  0  0  0  0  0  0  0  0  0  0  0
    5.4637   -2.9761   -4.3287 H   0  0  0  0  0  0  0  0  0  0  0  0
    5.3364   -3.3035    2.1343 H   0  0  0  0  0  0  0  0  0  0  0  0
  1  2  1  0  0  0  0
  1 40  1  0  0  0  0
  1 41  1  0  0  0  0
  1 42  1  0  0  0  0
  2  3  1  0  0  0  0
  3  4  1  0  0  0  0
  3 39  2  0  0  0  0
  4  5  2  0  0  0  0
  4 43  1  0  0  0  0
  5  6  1  0  0  0  0
  5  8  1  0  0  0  0
  6  7  1  0  0  0  0
  7 44  1  0  0  0  0
  7 45  1  0  0  0  0
  7 46  1  0  0  0  0
  8  9  2  0  0  0  0
  8 47  1  0  0  0  0
  9 10  1  0  0  0  0
  9 39  1  0  0  0  0
 10 11  1  0  0  0  0
 10 30  2  0  0  0  0
 11 12  2  0  0  0  0
 11 48  1  0  0  0  0
 12 13  1  0  0  0  0
 12 28  1  0  0  0  0
 13 14  2  0  0  0  0
 13 49  1  0  0  0  0
 14 15  1  0  0  0  0
 15 16  1  0  0  0  0
 15 27  2  0  0  0  0
 16 17  1  0  0  0  0
 16 50  1  0  0  0  0
 17 18  1  0  0  0  0
 17 51  1  0  0  0  0
 17 52  1  0  0  0  0
 18 19  1  0  0  0  0
 18 53  1  0  0  0  0
 18 54  1  0  0  0  0
 19 20  1  0  0  0  0
 19 55  1  0  0  0  0
 19 56  1  0  0  0  0
 20 21  1  0  0  0  0
 20 26  1  0  0  0  0
 21 22  1  0  0  0  0
 21 57  1  0  0  0  0
 21 58  1  0  0  0  0
 22 23  1  0  0  0  0
 22 59  1  0  0  0  0
 22 60  1  0  0  0  0
 23 24  1  0  0  0  0
 23 25  1  0  0  0  0
 24 61  1  0  0  0  0
 24 62  1  0  0  0  0
 24 63  1  0  0  0  0
 25 26  1  0  0  0  0
 25 64  1  0  0  0  0
 25 65  1  0  0  0  0
 26 66  1  0  0  0  0
 26 67  1  0  0  0  0
 27 28  1  0  0  0  0
 27 68  1  0  0  0  0
 28 29  2  0  0  0  0
 29 30  1  0  0  0  0
 30 31  1  0  0  0  0
 31 32  1  0  0  0  0
 31 69  1  0  0  0  0
 32 33  2  0  0  0  0
 32 34  1  0  0  0  0
 34 35  1  0  0  0  0
 34 70  1  0  0  0  0
 35 36  1  0  0  0  0
 35 37  1  0  0  0  0
 35 38  1  0  0  0  0
 36 71  1  0  0  0  0
 36 72  1  0  0  0  0
 36 73  1  0  0  0  0
 37 74  1  0  0  0  0
 37 75  1  0  0  0  0
 37 76  1  0  0  0  0
 38 77  1  0  0  0  0
 38 78  1  0  0  0  0
 38 79  1  0  0  0  0
 39 80  1  0  0  0  0
M  END
$$$$
