CHEMBL3923808
 OpenBabel04072215373D

 63 67  0  0  0  0  0  0  0  0999 V2000
    1.6436    0.0763    0.5945 C   0  0  0  0  0  0  0  0  0  0  0  0
    2.5396   -0.0216   -0.5076 O   0  0  0  0  0  0  0  0  0  0  0  0
    3.1383    1.1449   -0.9049 C   0  0  0  0  0  0  0  0  0  0  0  0
    2.7080    2.4250   -0.5959 C   0  0  0  0  0  0  0  0  0  0  0  0
    3.4055    3.5246   -1.1042 C   0  0  0  0  0  0  0  0  0  0  0  0
    3.0341    4.8318   -0.9244 O   0  0  0  0  0  0  0  0  0  0  0  0
    2.0007    5.0686    0.0277 C   0  0  0  0  0  0  0  0  0  0  0  0
    4.5722    3.3395   -1.8674 C   0  0  0  0  0  0  0  0  0  0  0  0
    5.0885    2.0653   -2.1117 C   0  0  0  0  0  0  0  0  0  0  0  0
    6.3215    1.8715   -2.7823 N   0  0  0  0  0  0  0  0  0  0  0  0
    6.8499    0.4602   -2.7824 C   0  0  0  0  0  0  0  0  0  0  0  0
    7.4852    0.0673   -1.4391 C   0  0  0  0  0  0  0  0  0  0  0  0
    8.0670    0.8812   -0.7250 O   0  0  0  0  0  0  0  0  0  0  0  0
    7.5222   -1.2786   -1.1091 N   0  0  0  0  0  0  0  0  0  0  0  0
    8.3504   -1.7152   -0.0048 C   0  0  0  0  0  0  0  0  0  0  0  0
    8.3642   -3.2251   -0.1402 C   0  0  0  0  0  0  0  0  0  0  0  0
    6.9617   -3.5374   -0.6477 C   0  0  0  0  0  0  0  0  0  0  0  0
    6.5732   -2.3117   -1.4809 C   0  0  0  0  0  0  0  0  0  0  0  0
    7.3838    2.7868   -3.1031 C   0  0  0  0  0  0  0  0  0  0  0  0
    7.9888    2.5887   -4.3474 C   0  0  0  0  0  0  0  0  0  0  0  0
    9.2813    3.0088   -4.5721 C   0  0  0  0  0  0  0  0  0  0  0  0
    9.9619    3.7495   -3.6387 C   0  0  0  0  0  0  0  0  0  0  0  0
   11.2631    3.9070   -3.9059 N   0  0  0  0  0  0  0  0  0  0  0  0
   11.9376    4.7344   -3.1008 C   0  0  0  0  0  0  0  0  0  0  0  0
   11.3116    5.4616   -2.1105 C   0  0  0  0  0  0  0  0  0  0  0  0
   12.0554    6.5920   -1.5792 C   0  0  0  0  0  0  0  0  0  0  0  0
   11.9879    7.9624   -1.9383 C   0  0  0  0  0  0  0  0  0  0  0  0
   12.9913    8.6844   -1.4225 N   0  0  0  0  0  0  0  0  0  0  0  0
   13.7015    7.7781   -0.7297 N   0  0  0  0  0  0  0  0  0  0  0  0
   14.7240    8.2019    0.1969 C   0  0  0  0  0  0  0  0  0  0  0  0
   13.2704    6.4954   -0.9240 C   0  0  0  0  0  0  0  0  0  0  0  0
   10.0041    5.2277   -1.7609 N   0  0  0  0  0  0  0  0  0  0  0  0
    9.3078    4.2816   -2.5008 C   0  0  0  0  0  0  0  0  0  0  0  0
    8.0075    3.7186   -2.2283 C   0  0  0  0  0  0  0  0  0  0  0  0
    4.2775    0.9843   -1.6945 C   0  0  0  0  0  0  0  0  0  0  0  0
    1.4601   -0.9341    0.9728 H   0  0  0  0  0  0  0  0  0  0  0  0
    0.6858    0.4961    0.2716 H   0  0  0  0  0  0  0  0  0  0  0  0
    2.0732    0.6605    1.4161 H   0  0  0  0  0  0  0  0  0  0  0  0
    1.8242    2.5597    0.0099 H   0  0  0  0  0  0  0  0  0  0  0  0
    1.8341    6.1481    0.0839 H   0  0  0  0  0  0  0  0  0  0  0  0
    2.3014    4.7206    1.0221 H   0  0  0  0  0  0  0  0  0  0  0  0
    1.0574    4.6047   -0.2816 H   0  0  0  0  0  0  0  0  0  0  0  0
    5.0744    4.2175   -2.2634 H   0  0  0  0  0  0  0  0  0  0  0  0
    7.6549    0.3194   -3.5173 H   0  0  0  0  0  0  0  0  0  0  0  0
    6.0940   -0.2509   -3.1234 H   0  0  0  0  0  0  0  0  0  0  0  0
    7.8705   -1.3923    0.9250 H   0  0  0  0  0  0  0  0  0  0  0  0
    9.3495   -1.2748   -0.0683 H   0  0  0  0  0  0  0  0  0  0  0  0
    8.6014   -3.7244    0.8038 H   0  0  0  0  0  0  0  0  0  0  0  0
    9.1048   -3.5327   -0.8874 H   0  0  0  0  0  0  0  0  0  0  0  0
    6.2773   -3.6446    0.2022 H   0  0  0  0  0  0  0  0  0  0  0  0
    6.9241   -4.4655   -1.2234 H   0  0  0  0  0  0  0  0  0  0  0  0
    5.5609   -1.9821   -1.2266 H   0  0  0  0  0  0  0  0  0  0  0  0
    6.6241   -2.5059   -2.5561 H   0  0  0  0  0  0  0  0  0  0  0  0
    7.4929    1.9819   -5.1027 H   0  0  0  0  0  0  0  0  0  0  0  0
    9.7818    2.6949   -5.4873 H   0  0  0  0  0  0  0  0  0  0  0  0
   12.9923    4.8473   -3.3239 H   0  0  0  0  0  0  0  0  0  0  0  0
   11.2792    8.4572   -2.5906 H   0  0  0  0  0  0  0  0  0  0  0  0
   14.8472    9.2870    0.1474 H   0  0  0  0  0  0  0  0  0  0  0  0
   15.6645    7.7018   -0.0458 H   0  0  0  0  0  0  0  0  0  0  0  0
   14.3879    7.9164    1.1975 H   0  0  0  0  0  0  0  0  0  0  0  0
   13.8390    5.6503   -0.5632 H   0  0  0  0  0  0  0  0  0  0  0  0
    7.5383    3.9625   -1.2765 H   0  0  0  0  0  0  0  0  0  0  0  0
    4.5111   -0.0404   -1.9565 H   0  0  0  0  0  0  0  0  0  0  0  0
  1  2  1  0  0  0  0
  1 36  1  0  0  0  0
  1 37  1  0  0  0  0
  1 38  1  0  0  0  0
  2  3  1  0  0  0  0
  3  4  1  0  0  0  0
  3 35  2  0  0  0  0
  4  5  2  0  0  0  0
  4 39  1  0  0  0  0
  5  6  1  0  0  0  0
  5  8  1  0  0  0  0
  6  7  1  0  0  0  0
  7 40  1  0  0  0  0
  7 41  1  0  0  0  0
  7 42  1  0  0  0  0
  8  9  2  0  0  0  0
  8 43  1  0  0  0  0
  9 10  1  0  0  0  0
  9 35  1  0  0  0  0
 10 11  1  0  0  0  0
 10 19  1  0  0  0  0
 11 12  1  0  0  0  0
 11 44  1  0  0  0  0
 11 45  1  0  0  0  0
 12 13  2  0  0  0  0
 12 14  1  0  0  0  0
 14 15  1  0  0  0  0
 14 18  1  0  0  0  0
 15 16  1  0  0  0  0
 15 46  1  0  0  0  0
 15 47  1  0  0  0  0
 16 17  1  0  0  0  0
 16 48  1  0  0  0  0
 16 49  1  0  0  0  0
 17 18  1  0  0  0  0
 17 50  1  0  0  0  0
 17 51  1  0  0  0  0
 18 52  1  0  0  0  0
 18 53  1  0  0  0  0
 19 20  1  0  0  0  0
 19 34  2  0  0  0  0
 20 21  2  0  0  0  0
 20 54  1  0  0  0  0
 21 22  1  0  0  0  0
 21 55  1  0  0  0  0
 22 23  1  0  0  0  0
 22 33  2  0  0  0  0
 23 24  2  0  0  0  0
 24 25  1  0  0  0  0
 24 56  1  0  0  0  0
 25 26  1  0  0  0  0
 25 32  2  0  0  0  0
 26 27  1  0  0  0  0
 26 31  2  0  0  0  0
 27 28  2  0  0  0  0
 27 57  1  0  0  0  0
 28 29  1  0  0  0  0
 29 30  1  0  0  0  0
 29 31  1  0  0  0  0
 30 58  1  0  0  0  0
 30 59  1  0  0  0  0
 30 60  1  0  0  0  0
 31 61  1  0  0  0  0
 32 33  1  0  0  0  0
 33 34  1  0  0  0  0
 34 62  1  0  0  0  0
 35 63  1  0  0  0  0
M  END
$$$$
