CHEMBL260620
 OpenBabel04072215363D

 33 35  0  0  0  0  0  0  0  0999 V2000
    1.1971   -0.0541    0.2672 N   0  0  0  0  0  0  0  0  0  0  0  0
    2.5738   -0.0428    0.1720 C   0  0  0  0  0  0  0  0  0  0  0  0
    3.1582    1.1269   -0.0785 N   0  0  0  0  0  0  0  0  0  0  0  0
    4.4973    1.1181   -0.1453 C   0  0  0  0  0  0  0  0  0  0  0  0
    5.1054    2.3516   -0.4427 N   0  0  0  0  0  0  0  0  0  0  0  0
    5.2786   -0.0315   -0.0059 C   0  0  0  0  0  0  0  0  0  0  0  0
    4.5505   -1.2033    0.2151 C   0  0  0  0  0  0  0  0  0  0  0  0
    3.2062   -1.2119    0.2987 N   0  0  0  0  0  0  0  0  0  0  0  0
    5.1195   -2.4532    0.4194 N   0  0  0  0  0  0  0  0  0  0  0  0
    6.2254   -2.9507   -0.3849 C   0  0  0  0  0  0  0  0  0  0  0  0
    6.8279   -1.9636   -1.3677 C   0  0  0  0  0  0  0  0  0  0  0  0
    7.4233   -0.8021   -0.6001 C   0  0  0  0  0  0  0  0  0  0  0  0
    8.9099   -0.6686   -0.5365 C   0  0  0  0  0  0  0  0  0  0  0  0
    9.4729    0.6105   -0.4318 C   0  0  0  0  0  0  0  0  0  0  0  0
   10.8599    0.7654   -0.3546 C   0  0  0  0  0  0  0  0  0  0  0  0
   11.6836   -0.3585   -0.3730 C   0  0  0  0  0  0  0  0  0  0  0  0
   13.3907   -0.1727   -0.2765 Cl  0  0  0  0  0  0  0  0  0  0  0  0
   11.1324   -1.6359   -0.4634 C   0  0  0  0  0  0  0  0  0  0  0  0
    9.7452   -1.7925   -0.5424 C   0  0  0  0  0  0  0  0  0  0  0  0
    6.6946    0.0859    0.0031 N   0  0  0  0  0  0  0  0  0  0  0  0
    0.8134    0.7394   -0.2263 H   0  0  0  0  0  0  0  0  0  0  0  0
    0.8413   -0.9693    0.0329 H   0  0  0  0  0  0  0  0  0  0  0  0
    4.4111    3.0836   -0.3426 H   0  0  0  0  0  0  0  0  0  0  0  0
    5.9304    2.4672    0.1389 H   0  0  0  0  0  0  0  0  0  0  0  0
    4.3530   -3.1138    0.5278 H   0  0  0  0  0  0  0  0  0  0  0  0
    5.8751   -3.8261   -0.9443 H   0  0  0  0  0  0  0  0  0  0  0  0
    6.9975   -3.3133    0.3039 H   0  0  0  0  0  0  0  0  0  0  0  0
    6.0801   -1.5865   -2.0756 H   0  0  0  0  0  0  0  0  0  0  0  0
    7.5882   -2.4594   -1.9793 H   0  0  0  0  0  0  0  0  0  0  0  0
    8.8346    1.4925   -0.4121 H   0  0  0  0  0  0  0  0  0  0  0  0
   11.2880    1.7614   -0.2761 H   0  0  0  0  0  0  0  0  0  0  0  0
   11.7752   -2.5125   -0.4643 H   0  0  0  0  0  0  0  0  0  0  0  0
    9.3416   -2.7996   -0.5819 H   0  0  0  0  0  0  0  0  0  0  0  0
  1  2  1  0  0  0  0
  1 21  1  0  0  0  0
  1 22  1  0  0  0  0
  2  3  1  0  0  0  0
  2  8  2  0  0  0  0
  3  4  2  0  0  0  0
  4  5  1  0  0  0  0
  4  6  1  0  0  0  0
  5 23  1  0  0  0  0
  5 24  1  0  0  0  0
  6  7  2  0  0  0  0
  6 20  1  0  0  0  0
  7  8  1  0  0  0  0
  7  9  1  0  0  0  0
  9 10  1  0  0  0  0
  9 25  1  0  0  0  0
 10 11  1  0  0  0  0
 10 26  1  0  0  0  0
 10 27  1  0  0  0  0
 11 12  1  0  0  0  0
 11 28  1  0  0  0  0
 11 29  1  0  0  0  0
 12 13  1  0  0  0  0
 12 20  2  0  0  0  0
 13 14  1  0  0  0  0
 13 19  2  0  0  0  0
 14 15  2  0  0  0  0
 14 30  1  0  0  0  0
 15 16  1  0  0  0  0
 15 31  1  0  0  0  0
 16 17  1  0  0  0  0
 16 18  2  0  0  0  0
 18 19  1  0  0  0  0
 18 32  1  0  0  0  0
 19 33  1  0  0  0  0
M  END
$$$$
