CHEMBL379001
 OpenBabel04072215373D

 51 54  0  0  1  0  0  0  0  0999 V2000
   -1.0354   -4.3968    1.9855 C   0  0  0  0  0  0  0  0  0  0  0  0
   -1.3438   -5.1847    0.8326 O   0  0  0  0  0  0  0  0  0  0  0  0
   -0.9899   -4.6248   -0.3656 C   0  0  0  0  0  0  0  0  0  0  0  0
    0.2155   -3.9111   -0.4907 C   0  0  0  0  0  0  0  0  0  0  0  0
    0.5308   -3.2209   -1.6694 C   0  0  0  0  0  0  0  0  0  0  0  0
   -0.3173   -3.3309   -2.7666 C   0  0  0  0  0  0  0  0  0  0  0  0
   -1.4692   -4.1153   -2.6742 C   0  0  0  0  0  0  0  0  0  0  0  0
   -1.8213   -4.7677   -1.4847 C   0  0  0  0  0  0  0  0  0  0  0  0
   -2.9956   -5.4574   -1.6189 O   0  0  0  0  0  0  0  0  0  0  0  0
   -3.5099   -6.1903   -0.5205 C   0  0  0  0  0  0  0  0  0  0  0  0
    0.0193   -2.7112   -3.9843 N   0  0  0  0  0  0  0  0  0  0  0  0
    1.2414   -2.9117   -4.6499 C   0  0  0  0  0  0  0  0  0  0  0  0
    1.0707   -3.0804   -5.9741 N   0  0  0  0  0  0  0  0  0  0  0  0
    2.1572   -3.4138   -6.6727 C   0  0  0  0  0  0  0  0  0  0  0  0
    3.3910   -3.5744   -6.1868 N   0  0  0  0  0  0  0  0  0  0  0  0
    3.5575   -3.3524   -4.8760 C   0  0  0  0  0  0  0  0  0  0  0  0
    4.8696   -3.3619   -4.3636 N   0  0  0  0  0  0  0  0  0  0  0  0
    5.8765   -4.1582   -5.0713 C   0  0  2  0  0  0  0  0  0  0  0  0
    5.7707   -5.6166   -4.5968 C   0  0  0  0  0  0  0  0  0  0  0  0
    7.2740   -3.5640   -4.8593 C   0  0  0  0  0  0  0  0  0  0  0  0
    8.4339   -4.3492   -4.9958 C   0  0  0  0  0  0  0  0  0  0  0  0
    9.7090   -3.7915   -4.8603 C   0  0  0  0  0  0  0  0  0  0  0  0
    9.8523   -2.4318   -4.6021 C   0  0  0  0  0  0  0  0  0  0  0  0
    8.7221   -1.6294   -4.4888 C   0  0  0  0  0  0  0  0  0  0  0  0
    7.4470   -2.1877   -4.6246 C   0  0  0  0  0  0  0  0  0  0  0  0
    2.4906   -3.0054   -4.0152 C   0  0  0  0  0  0  0  0  0  0  0  0
    2.7596   -2.8458   -2.6262 N   0  0  0  0  0  0  0  0  0  0  0  0
    1.7204   -2.3105   -1.7608 C   0  0  0  0  0  0  0  0  0  0  0  0
   -1.9365   -4.3239    2.6010 H   0  0  0  0  0  0  0  0  0  0  0  0
   -0.7187   -3.3700    1.7675 H   0  0  0  0  0  0  0  0  0  0  0  0
   -0.2568   -4.9043    2.5627 H   0  0  0  0  0  0  0  0  0  0  0  0
    0.9106   -3.8619    0.3441 H   0  0  0  0  0  0  0  0  0  0  0  0
   -2.1158   -4.2342   -3.5413 H   0  0  0  0  0  0  0  0  0  0  0  0
   -4.4530   -6.6399   -0.8475 H   0  0  0  0  0  0  0  0  0  0  0  0
   -3.7439   -5.5326    0.3215 H   0  0  0  0  0  0  0  0  0  0  0  0
   -2.8399   -7.0065   -0.2350 H   0  0  0  0  0  0  0  0  0  0  0  0
   -0.7073   -2.7741   -4.6932 H   0  0  0  0  0  0  0  0  0  0  0  0
    2.0228   -3.5783   -7.7347 H   0  0  0  0  0  0  0  0  0  0  0  0
    4.8933   -3.4346   -3.3553 H   0  0  0  0  0  0  0  0  0  0  0  0
    5.7145   -4.1277   -6.1563 H   0  0  0  0  0  0  0  0  0  0  0  0
    6.1891   -5.7437   -3.5909 H   0  0  0  0  0  0  0  0  0  0  0  0
    6.3119   -6.2892   -5.2712 H   0  0  0  0  0  0  0  0  0  0  0  0
    4.7320   -5.9640   -4.5679 H   0  0  0  0  0  0  0  0  0  0  0  0
    8.3685   -5.4095   -5.2254 H   0  0  0  0  0  0  0  0  0  0  0  0
   10.5896   -4.4191   -4.9685 H   0  0  0  0  0  0  0  0  0  0  0  0
   10.8431   -1.9965   -4.5047 H   0  0  0  0  0  0  0  0  0  0  0  0
    8.8271   -0.5631   -4.3059 H   0  0  0  0  0  0  0  0  0  0  0  0
    6.5804   -1.5318   -4.5564 H   0  0  0  0  0  0  0  0  0  0  0  0
    3.1240   -3.7218   -2.2613 H   0  0  0  0  0  0  0  0  0  0  0  0
    1.4119   -1.3056   -2.0829 H   0  0  0  0  0  0  0  0  0  0  0  0
    2.1559   -2.1708   -0.7627 H   0  0  0  0  0  0  0  0  0  0  0  0
  1  2  1  0  0  0  0
  1 29  1  0  0  0  0
  1 30  1  0  0  0  0
  1 31  1  0  0  0  0
  2  3  1  0  0  0  0
  3  4  1  0  0  0  0
  3  8  2  0  0  0  0
  4  5  2  0  0  0  0
  4 32  1  0  0  0  0
  5  6  1  0  0  0  0
  5 28  1  0  0  0  0
  6  7  2  0  0  0  0
  6 11  1  0  0  0  0
  7  8  1  0  0  0  0
  7 33  1  0  0  0  0
  8  9  1  0  0  0  0
  9 10  1  0  0  0  0
 10 34  1  0  0  0  0
 10 35  1  0  0  0  0
 10 36  1  0  0  0  0
 11 12  1  0  0  0  0
 11 37  1  0  0  0  0
 12 13  1  0  0  0  0
 12 26  2  0  0  0  0
 13 14  2  0  0  0  0
 14 15  1  0  0  0  0
 14 38  1  0  0  0  0
 15 16  2  0  0  0  0
 16 17  1  0  0  0  0
 16 26  1  0  0  0  0
 17 39  1  0  0  0  0
 18 20  1  0  0  0  0
 18 19  1  0  0  0  0
 18 17  1  0  0  0  0
 18 40  1  6  0  0  0
 19 41  1  0  0  0  0
 19 42  1  0  0  0  0
 19 43  1  0  0  0  0
 20 21  1  0  0  0  0
 20 25  2  0  0  0  0
 21 22  2  0  0  0  0
 21 44  1  0  0  0  0
 22 23  1  0  0  0  0
 22 45  1  0  0  0  0
 23 24  2  0  0  0  0
 23 46  1  0  0  0  0
 24 25  1  0  0  0  0
 24 47  1  0  0  0  0
 25 48  1  0  0  0  0
 26 27  1  0  0  0  0
 27 28  1  0  0  0  0
 27 49  1  0  0  0  0
 28 50  1  0  0  0  0
 28 51  1  0  0  0  0
M  END
$$$$
