CHEMBL3694709
 OpenBabel04072215373D

 57 60  0  0  0  0  0  0  0  0999 V2000
    3.3294    4.7406   -2.2907 C   0  0  0  0  0  0  0  0  0  0  0  0
    4.5191    4.2857   -1.4365 C   0  0  0  0  0  0  0  0  0  0  0  0
    5.5584    3.5608   -2.3023 C   0  0  0  0  0  0  0  0  0  0  0  0
    5.1404    5.4739   -0.9279 O   0  0  0  0  0  0  0  0  0  0  0  0
    4.0810    3.3899   -0.2786 C   0  0  0  0  0  0  0  0  0  0  0  0
    3.3564    2.2074   -0.5174 C   0  0  0  0  0  0  0  0  0  0  0  0
    2.9968    1.3544    0.5288 C   0  0  0  0  0  0  0  0  0  0  0  0
    3.3681    1.6576    1.8359 C   0  0  0  0  0  0  0  0  0  0  0  0
    4.0954    2.8201    2.1047 C   0  0  0  0  0  0  0  0  0  0  0  0
    4.5532    3.0989    3.4752 C   0  0  0  0  0  0  0  0  0  0  0  0
    3.6984    3.7008    4.4965 C   0  0  0  0  0  0  0  0  0  0  0  0
    4.1821    3.9040    5.7349 C   0  0  0  0  0  0  0  0  0  0  0  0
    5.5059    3.5603    6.0292 N   0  0  0  0  0  0  0  0  0  0  0  0
    6.2573    3.6912    7.1940 C   0  0  0  0  0  0  0  0  0  0  0  0
    5.8574    4.2763    8.4823 C   0  0  0  0  0  0  0  0  0  0  0  0
    6.3745    3.7138    9.6598 C   0  0  0  0  0  0  0  0  0  0  0  0
    6.0876    4.2650   10.9053 C   0  0  0  0  0  0  0  0  0  0  0  0
    5.2744    5.3897   10.9965 C   0  0  0  0  0  0  0  0  0  0  0  0
    4.7569    5.9923    9.8489 C   0  0  0  0  0  0  0  0  0  0  0  0
    3.9461    7.1538    9.8902 N   0  0  0  0  0  0  0  0  0  0  0  0
    3.6469    7.9033   11.0083 C   0  0  0  0  0  0  0  0  0  0  0  0
    4.0380    7.7130   12.1498 O   0  0  0  0  0  0  0  0  0  0  0  0
    2.7790    8.9358   10.7293 N   0  0  0  0  0  0  0  0  0  0  0  0
    2.4108    9.8394   11.8287 C   0  0  0  0  0  0  0  0  0  0  0  0
    3.4577   10.8999   12.2045 C   0  0  0  0  0  0  0  0  0  0  0  0
    4.4755   10.9487   11.3138 F   0  0  0  0  0  0  0  0  0  0  0  0
    2.8829   12.1298   12.2053 F   0  0  0  0  0  0  0  0  0  0  0  0
    3.9791   10.7021   13.4322 F   0  0  0  0  0  0  0  0  0  0  0  0
    5.0517    5.4253    8.5937 C   0  0  0  0  0  0  0  0  0  0  0  0
    7.4776    3.1123    6.8658 C   0  0  0  0  0  0  0  0  0  0  0  0
    7.5202    2.6696    5.5771 N   0  0  0  0  0  0  0  0  0  0  0  0
    6.3390    2.9581    5.0836 C   0  0  0  0  0  0  0  0  0  0  0  0
    5.8183    2.7361    3.7793 C   0  0  0  0  0  0  0  0  0  0  0  0
    4.4321    3.6851    1.0513 C   0  0  0  0  0  0  0  0  0  0  0  0
    3.6642    5.3947   -3.1047 H   0  0  0  0  0  0  0  0  0  0  0  0
    2.6225    5.3276   -1.6925 H   0  0  0  0  0  0  0  0  0  0  0  0
    2.7860    3.9025   -2.7381 H   0  0  0  0  0  0  0  0  0  0  0  0
    5.9204    4.2116   -3.1068 H   0  0  0  0  0  0  0  0  0  0  0  0
    5.1565    2.6499   -2.7582 H   0  0  0  0  0  0  0  0  0  0  0  0
    6.4379    3.2854   -1.7077 H   0  0  0  0  0  0  0  0  0  0  0  0
    5.4690    5.9841   -1.6867 H   0  0  0  0  0  0  0  0  0  0  0  0
    3.0769    1.9252   -1.5300 H   0  0  0  0  0  0  0  0  0  0  0  0
    2.4452    0.4411    0.3199 H   0  0  0  0  0  0  0  0  0  0  0  0
    3.1105    0.9715    2.6395 H   0  0  0  0  0  0  0  0  0  0  0  0
    2.6792    3.9641    4.2318 H   0  0  0  0  0  0  0  0  0  0  0  0
    3.5738    4.3209    6.5239 H   0  0  0  0  0  0  0  0  0  0  0  0
    7.0221    2.8394    9.6234 H   0  0  0  0  0  0  0  0  0  0  0  0
    6.4983    3.8212   11.8074 H   0  0  0  0  0  0  0  0  0  0  0  0
    5.0701    5.7707   11.9900 H   0  0  0  0  0  0  0  0  0  0  0  0
    3.5696    7.4746    9.0118 H   0  0  0  0  0  0  0  0  0  0  0  0
    2.8438    9.3452    9.8098 H   0  0  0  0  0  0  0  0  0  0  0  0
    2.1848    9.2335   12.7146 H   0  0  0  0  0  0  0  0  0  0  0  0
    1.4815   10.3281   11.5259 H   0  0  0  0  0  0  0  0  0  0  0  0
    4.6824    5.9099    7.6949 H   0  0  0  0  0  0  0  0  0  0  0  0
    8.3426    3.0034    7.5086 H   0  0  0  0  0  0  0  0  0  0  0  0
    6.4746    2.2660    3.0536 H   0  0  0  0  0  0  0  0  0  0  0  0
    4.9995    4.5886    1.2716 H   0  0  0  0  0  0  0  0  0  0  0  0
  1  2  1  0  0  0  0
  1 35  1  0  0  0  0
  1 36  1  0  0  0  0
  1 37  1  0  0  0  0
  2  3  1  0  0  0  0
  2  4  1  0  0  0  0
  2  5  1  0  0  0  0
  3 38  1  0  0  0  0
  3 39  1  0  0  0  0
  3 40  1  0  0  0  0
  4 41  1  0  0  0  0
  5  6  1  0  0  0  0
  5 34  2  0  0  0  0
  6  7  2  0  0  0  0
  6 42  1  0  0  0  0
  7  8  1  0  0  0  0
  7 43  1  0  0  0  0
  8  9  2  0  0  0  0
  8 44  1  0  0  0  0
  9 10  1  0  0  0  0
  9 34  1  0  0  0  0
 10 11  1  0  0  0  0
 10 33  2  0  0  0  0
 11 12  2  0  0  0  0
 11 45  1  0  0  0  0
 12 13  1  0  0  0  0
 12 46  1  0  0  0  0
 13 14  1  0  0  0  0
 13 32  1  0  0  0  0
 14 15  1  0  0  0  0
 14 30  2  0  0  0  0
 15 16  1  0  0  0  0
 15 29  2  0  0  0  0
 16 17  2  0  0  0  0
 16 47  1  0  0  0  0
 17 18  1  0  0  0  0
 17 48  1  0  0  0  0
 18 19  2  0  0  0  0
 18 49  1  0  0  0  0
 19 20  1  0  0  0  0
 19 29  1  0  0  0  0
 20 21  1  0  0  0  0
 20 50  1  0  0  0  0
 21 22  2  0  0  0  0
 21 23  1  0  0  0  0
 23 24  1  0  0  0  0
 23 51  1  0  0  0  0
 24 25  1  0  0  0  0
 24 52  1  0  0  0  0
 24 53  1  0  0  0  0
 25 26  1  0  0  0  0
 25 27  1  0  0  0  0
 25 28  1  0  0  0  0
 29 54  1  0  0  0  0
 30 31  1  0  0  0  0
 30 55  1  0  0  0  0
 31 32  2  0  0  0  0
 32 33  1  0  0  0  0
 33 56  1  0  0  0  0
 34 57  1  0  0  0  0
M  END
$$$$
