CHEMBL233667
 OpenBabel04072215363D

 49 52  0  0  0  0  0  0  0  0999 V2000
    0.2850   -3.3447    4.4734 N   0  0  0  0  0  0  0  0  0  0  0  0
    0.7866   -2.9144    3.5314 C   0  0  0  0  0  0  0  0  0  0  0  0
    1.4396   -2.3934    2.3915 C   0  0  0  0  0  0  0  0  0  0  0  0
    2.7670   -2.0477    2.4897 C   0  0  0  0  0  0  0  0  0  0  0  0
    3.4534   -1.4464    1.5061 N   0  0  0  0  0  0  0  0  0  0  0  0
    2.7948   -1.1719    0.3646 C   0  0  0  0  0  0  0  0  0  0  0  0
    3.4042   -0.3399   -0.5858 N   0  0  0  0  0  0  0  0  0  0  0  0
    4.3194    0.6837   -0.2507 C   0  0  0  0  0  0  0  0  0  0  0  0
    4.1678    1.3952    0.9510 C   0  0  0  0  0  0  0  0  0  0  0  0
    5.0913    2.3530    1.3483 C   0  0  0  0  0  0  0  0  0  0  0  0
    6.1395    2.6813    0.5008 C   0  0  0  0  0  0  0  0  0  0  0  0
    6.2290    2.1126   -0.7789 C   0  0  0  0  0  0  0  0  0  0  0  0
    7.2956    2.6091   -1.7292 C   0  0  0  0  0  0  0  0  0  0  0  0
    7.0180    3.8112   -2.5237 N   0  0  0  0  0  0  0  0  0  0  0  0
    6.5855    5.0179   -1.8029 C   0  0  0  0  0  0  0  0  0  0  0  0
    5.0613    5.1715   -1.6148 C   0  0  0  0  0  0  0  0  0  0  0  0
    4.3299    4.9553   -2.8285 O   0  0  0  0  0  0  0  0  0  0  0  0
    4.6702    3.7031   -3.4327 C   0  0  0  0  0  0  0  0  0  0  0  0
    6.1756    3.6129   -3.7080 C   0  0  0  0  0  0  0  0  0  0  0  0
    5.3269    1.0900   -1.1361 C   0  0  0  0  0  0  0  0  0  0  0  0
    1.5348   -1.5608    0.1458 N   0  0  0  0  0  0  0  0  0  0  0  0
    0.8432   -2.1366    1.1714 C   0  0  0  0  0  0  0  0  0  0  0  0
   -0.5994   -2.3329    0.8807 C   0  0  0  0  0  0  0  0  0  0  0  0
   -1.3314   -3.4481    1.3264 C   0  0  0  0  0  0  0  0  0  0  0  0
   -2.7052   -3.5571    1.0855 C   0  0  0  0  0  0  0  0  0  0  0  0
   -3.3723   -2.5691    0.3689 C   0  0  0  0  0  0  0  0  0  0  0  0
   -2.6663   -1.4730   -0.1153 C   0  0  0  0  0  0  0  0  0  0  0  0
   -1.2988   -1.3590    0.1405 C   0  0  0  0  0  0  0  0  0  0  0  0
    3.3367   -2.2006    3.4074 H   0  0  0  0  0  0  0  0  0  0  0  0
    3.6705   -0.9058   -1.3776 H   0  0  0  0  0  0  0  0  0  0  0  0
    3.3279    1.1857    1.6090 H   0  0  0  0  0  0  0  0  0  0  0  0
    4.9830    2.8421    2.3112 H   0  0  0  0  0  0  0  0  0  0  0  0
    6.8653    3.4217    0.8262 H   0  0  0  0  0  0  0  0  0  0  0  0
    7.5908    1.7893   -2.3978 H   0  0  0  0  0  0  0  0  0  0  0  0
    8.2029    2.8011   -1.1396 H   0  0  0  0  0  0  0  0  0  0  0  0
    6.9136    5.8708   -2.4129 H   0  0  0  0  0  0  0  0  0  0  0  0
    7.1116    5.1329   -0.8487 H   0  0  0  0  0  0  0  0  0  0  0  0
    4.8469    6.1992   -1.3009 H   0  0  0  0  0  0  0  0  0  0  0  0
    4.6648    4.5168   -0.8352 H   0  0  0  0  0  0  0  0  0  0  0  0
    4.1294    3.6465   -4.3827 H   0  0  0  0  0  0  0  0  0  0  0  0
    4.3071    2.8804   -2.8130 H   0  0  0  0  0  0  0  0  0  0  0  0
    6.4283    4.4219   -4.4077 H   0  0  0  0  0  0  0  0  0  0  0  0
    6.4289    2.6816   -4.2258 H   0  0  0  0  0  0  0  0  0  0  0  0
    5.4160    0.6137   -2.1096 H   0  0  0  0  0  0  0  0  0  0  0  0
   -0.8519   -4.2595    1.8702 H   0  0  0  0  0  0  0  0  0  0  0  0
   -3.2540   -4.4179    1.4631 H   0  0  0  0  0  0  0  0  0  0  0  0
   -4.4404   -2.6560    0.1819 H   0  0  0  0  0  0  0  0  0  0  0  0
   -3.1771   -0.7030   -0.6872 H   0  0  0  0  0  0  0  0  0  0  0  0
   -0.7716   -0.4845   -0.2407 H   0  0  0  0  0  0  0  0  0  0  0  0
  1  2  3  0  0  0  0
  2  3  1  0  0  0  0
  3  4  1  0  0  0  0
  3 22  2  0  0  0  0
  4  5  2  0  0  0  0
  4 29  1  0  0  0  0
  5  6  1  0  0  0  0
  6  7  1  0  0  0  0
  6 21  2  0  0  0  0
  7  8  1  0  0  0  0
  7 30  1  0  0  0  0
  8  9  1  0  0  0  0
  8 20  2  0  0  0  0
  9 10  2  0  0  0  0
  9 31  1  0  0  0  0
 10 11  1  0  0  0  0
 10 32  1  0  0  0  0
 11 12  2  0  0  0  0
 11 33  1  0  0  0  0
 12 13  1  0  0  0  0
 12 20  1  0  0  0  0
 13 14  1  0  0  0  0
 13 34  1  0  0  0  0
 13 35  1  0  0  0  0
 14 15  1  0  0  0  0
 14 19  1  0  0  0  0
 15 16  1  0  0  0  0
 15 36  1  0  0  0  0
 15 37  1  0  0  0  0
 16 17  1  0  0  0  0
 16 38  1  0  0  0  0
 16 39  1  0  0  0  0
 17 18  1  0  0  0  0
 18 19  1  0  0  0  0
 18 40  1  0  0  0  0
 18 41  1  0  0  0  0
 19 42  1  0  0  0  0
 19 43  1  0  0  0  0
 20 44  1  0  0  0  0
 21 22  1  0  0  0  0
 22 23  1  0  0  0  0
 23 24  1  0  0  0  0
 23 28  2  0  0  0  0
 24 25  2  0  0  0  0
 24 45  1  0  0  0  0
 25 26  1  0  0  0  0
 25 46  1  0  0  0  0
 26 27  2  0  0  0  0
 26 47  1  0  0  0  0
 27 28  1  0  0  0  0
 27 48  1  0  0  0  0
 28 49  1  0  0  0  0
M  END
$$$$
