CHEMBL225318
 OpenBabel04072215363D

 63 68  0  0  0  0  0  0  0  0999 V2000
    1.9309    0.0417   -1.0543 C   0  0  0  0  0  0  0  0  0  0  0  0
    0.4832    0.2278   -1.0876 N   0  0  0  0  0  0  0  0  0  0  0  0
   -0.2163   -1.0208   -0.7440 C   0  0  0  0  0  0  0  0  0  0  0  0
   -1.7490   -0.8233   -0.7227 C   0  0  0  0  0  0  0  0  0  0  0  0
   -2.2174    0.2101    0.2272 N   0  0  0  0  0  0  0  0  0  0  0  0
   -2.0260   -0.1486    1.6448 C   0  0  0  0  0  0  0  0  0  0  0  0
   -2.7455   -1.4117    2.0894 C   0  0  0  0  0  0  0  0  0  0  0  0
   -2.0858   -2.6650    1.9970 C   0  0  0  0  0  0  0  0  0  0  0  0
   -2.7119   -3.8607    2.3501 C   0  0  0  0  0  0  0  0  0  0  0  0
   -3.9921   -3.7681    2.8337 C   0  0  0  0  0  0  0  0  0  0  0  0
   -4.6730   -2.5299    2.9806 C   0  0  0  0  0  0  0  0  0  0  0  0
   -4.0593   -1.3487    2.5878 C   0  0  0  0  0  0  0  0  0  0  0  0
   -6.0760   -2.6863    3.6038 C   0  0  0  0  0  0  0  0  0  0  0  0
   -6.0656   -4.1725    3.7302 C   0  0  0  0  0  0  0  0  0  0  0  0
   -6.8366   -5.2485    4.1826 C   0  0  0  0  0  0  0  0  0  0  0  0
   -8.1720   -5.1546    4.7681 C   0  0  0  0  0  0  0  0  0  0  0  0
   -8.6861   -6.0313    5.7001 C   0  0  0  0  0  0  0  0  0  0  0  0
  -10.2782   -5.6118    6.1641 S   0  0  0  0  0  0  0  0  0  0  0  0
  -10.2990   -4.2804    5.0955 C   0  0  0  0  0  0  0  0  0  0  0  0
  -11.4232   -3.4260    4.9330 C   0  0  0  0  0  0  0  0  0  0  0  0
  -12.4843   -2.6766    4.8213 C   0  0  0  0  0  0  0  0  0  0  0  0
  -13.7213   -1.8030    4.6912 C   0  0  0  0  0  0  0  0  0  0  0  0
  -14.8822   -2.5612    5.0106 O   0  0  0  0  0  0  0  0  0  0  0  0
  -16.0730   -1.8812    4.9330 C   0  0  0  0  0  0  0  0  0  0  0  0
  -16.3066   -0.8228    4.0453 C   0  0  0  0  0  0  0  0  0  0  0  0
  -17.5540   -0.1935    4.0011 C   0  0  0  0  0  0  0  0  0  0  0  0
  -18.5841   -0.6202    4.8349 C   0  0  0  0  0  0  0  0  0  0  0  0
  -18.3707   -1.6840    5.7105 C   0  0  0  0  0  0  0  0  0  0  0  0
  -17.1235   -2.3153    5.7559 C   0  0  0  0  0  0  0  0  0  0  0  0
  -16.9175   -3.6249    6.8655 Cl  0  0  0  0  0  0  0  0  0  0  0  0
   -9.1117   -4.1425    4.4144 C   0  0  0  0  0  0  0  0  0  0  0  0
   -6.1839   -6.4201    4.0364 N   0  0  0  0  0  0  0  0  0  0  0  0
   -5.0039   -6.0780    3.4607 N   0  0  0  0  0  0  0  0  0  0  0  0
   -4.9037   -4.7472    3.2991 C   0  0  0  0  0  0  0  0  0  0  0  0
   -1.4851    1.4613   -0.0950 C   0  0  0  0  0  0  0  0  0  0  0  0
    0.0596    1.3182   -0.1891 C   0  0  0  0  0  0  0  0  0  0  0  0
    2.2308   -0.7661   -1.7315 H   0  0  0  0  0  0  0  0  0  0  0  0
    2.2962   -0.2018   -0.0500 H   0  0  0  0  0  0  0  0  0  0  0  0
    2.4413    0.9473   -1.3987 H   0  0  0  0  0  0  0  0  0  0  0  0
    0.1319   -1.3964    0.2254 H   0  0  0  0  0  0  0  0  0  0  0  0
    0.0194   -1.7916   -1.4871 H   0  0  0  0  0  0  0  0  0  0  0  0
   -2.2510   -1.7804   -0.5498 H   0  0  0  0  0  0  0  0  0  0  0  0
   -2.0727   -0.5277   -1.7309 H   0  0  0  0  0  0  0  0  0  0  0  0
   -2.4085    0.6750    2.2636 H   0  0  0  0  0  0  0  0  0  0  0  0
   -0.9673   -0.2424    1.9137 H   0  0  0  0  0  0  0  0  0  0  0  0
   -1.0640   -2.7107    1.6290 H   0  0  0  0  0  0  0  0  0  0  0  0
   -2.2004   -4.8097    2.2517 H   0  0  0  0  0  0  0  0  0  0  0  0
   -4.5792   -0.3989    2.6693 H   0  0  0  0  0  0  0  0  0  0  0  0
   -6.8486   -2.3273    2.9209 H   0  0  0  0  0  0  0  0  0  0  0  0
   -6.1226   -2.1951    4.5796 H   0  0  0  0  0  0  0  0  0  0  0  0
   -8.1971   -6.8929    6.1348 H   0  0  0  0  0  0  0  0  0  0  0  0
  -13.7429   -1.4696    3.6481 H   0  0  0  0  0  0  0  0  0  0  0  0
  -13.6262   -0.9409    5.3615 H   0  0  0  0  0  0  0  0  0  0  0  0
  -15.5492   -0.4758    3.3506 H   0  0  0  0  0  0  0  0  0  0  0  0
  -17.7219    0.6231    3.3021 H   0  0  0  0  0  0  0  0  0  0  0  0
  -19.5546   -0.1314    4.7996 H   0  0  0  0  0  0  0  0  0  0  0  0
  -19.1800   -2.0209    6.3536 H   0  0  0  0  0  0  0  0  0  0  0  0
   -8.9444   -3.3640    3.6818 H   0  0  0  0  0  0  0  0  0  0  0  0
   -4.3437   -6.8107    3.2244 H   0  0  0  0  0  0  0  0  0  0  0  0
   -1.7368    2.2452    0.6300 H   0  0  0  0  0  0  0  0  0  0  0  0
   -1.8560    1.8283   -1.0618 H   0  0  0  0  0  0  0  0  0  0  0  0
    0.4678    1.1655    0.8182 H   0  0  0  0  0  0  0  0  0  0  0  0
    0.4685    2.2659   -0.5599 H   0  0  0  0  0  0  0  0  0  0  0  0
  1  2  1  0  0  0  0
  1 37  1  0  0  0  0
  1 38  1  0  0  0  0
  1 39  1  0  0  0  0
  2  3  1  0  0  0  0
  2 36  1  0  0  0  0
  3  4  1  0  0  0  0
  3 40  1  0  0  0  0
  3 41  1  0  0  0  0
  4  5  1  0  0  0  0
  4 42  1  0  0  0  0
  4 43  1  0  0  0  0
  5  6  1  0  0  0  0
  5 35  1  0  0  0  0
  6  7  1  0  0  0  0
  6 44  1  0  0  0  0
  6 45  1  0  0  0  0
  7  8  1  0  0  0  0
  7 12  2  0  0  0  0
  8  9  2  0  0  0  0
  8 46  1  0  0  0  0
  9 10  1  0  0  0  0
  9 47  1  0  0  0  0
 10 11  2  0  0  0  0
 10 34  1  0  0  0  0
 11 12  1  0  0  0  0
 11 13  1  0  0  0  0
 12 48  1  0  0  0  0
 13 14  1  0  0  0  0
 13 49  1  0  0  0  0
 13 50  1  0  0  0  0
 14 15  1  0  0  0  0
 14 34  2  0  0  0  0
 15 16  1  0  0  0  0
 15 32  2  0  0  0  0
 16 17  2  0  0  0  0
 16 31  1  0  0  0  0
 17 18  1  0  0  0  0
 17 51  1  0  0  0  0
 18 19  1  0  0  0  0
 19 20  1  0  0  0  0
 19 31  2  0  0  0  0
 20 21  3  0  0  0  0
 21 22  1  0  0  0  0
 22 23  1  0  0  0  0
 22 52  1  0  0  0  0
 22 53  1  0  0  0  0
 23 24  1  0  0  0  0
 24 25  1  0  0  0  0
 24 29  2  0  0  0  0
 25 26  2  0  0  0  0
 25 54  1  0  0  0  0
 26 27  1  0  0  0  0
 26 55  1  0  0  0  0
 27 28  2  0  0  0  0
 27 56  1  0  0  0  0
 28 29  1  0  0  0  0
 28 57  1  0  0  0  0
 29 30  1  0  0  0  0
 31 58  1  0  0  0  0
 32 33  1  0  0  0  0
 33 34  1  0  0  0  0
 33 59  1  0  0  0  0
 35 36  1  0  0  0  0
 35 60  1  0  0  0  0
 35 61  1  0  0  0  0
 36 62  1  0  0  0  0
 36 63  1  0  0  0  0
M  END
$$$$
