CHEMBL373397
 OpenBabel04072215373D

 52 57  0  0  0  0  0  0  0  0999 V2000
    3.5534   -1.4054   -0.3799 C   0  0  0  0  0  0  0  0  0  0  0  0
    3.2228   -0.1021    0.3320 C   0  0  0  0  0  0  0  0  0  0  0  0
    3.7481   -0.0232    1.7755 C   0  0  0  0  0  0  0  0  0  0  0  0
    5.1945    0.1259    1.8998 N   0  0  0  0  0  0  0  0  0  0  0  0
    5.8639    1.3641    1.7758 C   0  0  0  0  0  0  0  0  0  0  0  0
    5.3899    2.6776    1.5971 C   0  0  0  0  0  0  0  0  0  0  0  0
    6.3299    3.7101    1.4086 C   0  0  0  0  0  0  0  0  0  0  0  0
    7.7035    3.4809    1.4589 C   0  0  0  0  0  0  0  0  0  0  0  0
    8.6246    4.4818    1.1220 N   0  0  0  0  0  0  0  0  0  0  0  0
    8.1539    2.1707    1.5827 C   0  0  0  0  0  0  0  0  0  0  0  0
    7.2431    1.1103    1.7323 C   0  0  0  0  0  0  0  0  0  0  0  0
    7.2913   -0.2635    1.7255 C   0  0  0  0  0  0  0  0  0  0  0  0
    8.3999   -0.9761    1.2394 C   0  0  0  0  0  0  0  0  0  0  0  0
    8.1225   -2.2795    0.7734 C   0  0  0  0  0  0  0  0  0  0  0  0
    6.8785   -2.9139    0.9348 C   0  0  0  0  0  0  0  0  0  0  0  0
    6.0785   -2.3287    1.9736 C   0  0  0  0  0  0  0  0  0  0  0  0
    6.1190   -0.9177    1.9765 C   0  0  0  0  0  0  0  0  0  0  0  0
    6.1143   -3.1877    3.3039 C   0  0  0  0  0  0  0  0  0  0  0  0
    7.1630   -4.3748    3.2862 C   0  0  0  0  0  0  0  0  0  0  0  0
    6.9527   -5.1106    2.0102 C   0  0  0  0  0  0  0  0  0  0  0  0
    6.5567   -6.3736    1.8571 N   0  0  0  0  0  0  0  0  0  0  0  0
    6.0858   -6.3800    0.5840 N   0  0  0  0  0  0  0  0  0  0  0  0
    5.4135   -7.5528    0.0797 C   0  0  0  0  0  0  0  0  0  0  0  0
    6.1035   -5.1437   -0.0154 C   0  0  0  0  0  0  0  0  0  0  0  0
    6.8209   -4.3481    0.8398 C   0  0  0  0  0  0  0  0  0  0  0  0
    9.3626   -2.8246    0.2732 C   0  0  0  0  0  0  0  0  0  0  0  0
    9.6672   -3.8941   -0.2325 O   0  0  0  0  0  0  0  0  0  0  0  0
   10.3057   -1.8239    0.5159 N   0  0  0  0  0  0  0  0  0  0  0  0
    9.7929   -0.5915    1.0569 C   0  0  0  0  0  0  0  0  0  0  0  0
    3.1296   -1.4038   -1.3903 H   0  0  0  0  0  0  0  0  0  0  0  0
    3.1356   -2.2629    0.1571 H   0  0  0  0  0  0  0  0  0  0  0  0
    4.6315   -1.5429   -0.4830 H   0  0  0  0  0  0  0  0  0  0  0  0
    2.1294   -0.0032    0.3544 H   0  0  0  0  0  0  0  0  0  0  0  0
    3.5989    0.7367   -0.2654 H   0  0  0  0  0  0  0  0  0  0  0  0
    3.4381   -0.8939    2.3606 H   0  0  0  0  0  0  0  0  0  0  0  0
    3.2997    0.8558    2.2564 H   0  0  0  0  0  0  0  0  0  0  0  0
    4.3289    2.8995    1.5435 H   0  0  0  0  0  0  0  0  0  0  0  0
    5.9657    4.7139    1.2013 H   0  0  0  0  0  0  0  0  0  0  0  0
    8.3144    5.4213    1.3388 H   0  0  0  0  0  0  0  0  0  0  0  0
    9.5677    4.2987    1.4533 H   0  0  0  0  0  0  0  0  0  0  0  0
    9.2178    1.9742    1.5381 H   0  0  0  0  0  0  0  0  0  0  0  0
    5.1151   -3.6076    3.4601 H   0  0  0  0  0  0  0  0  0  0  0  0
    6.3584   -2.5342    4.1494 H   0  0  0  0  0  0  0  0  0  0  0  0
    7.0738   -5.0230    4.1606 H   0  0  0  0  0  0  0  0  0  0  0  0
    8.1852   -3.9642    3.2875 H   0  0  0  0  0  0  0  0  0  0  0  0
    5.6528   -8.4097    0.7142 H   0  0  0  0  0  0  0  0  0  0  0  0
    5.7531   -7.7373   -0.9420 H   0  0  0  0  0  0  0  0  0  0  0  0
    4.3374   -7.3606    0.0981 H   0  0  0  0  0  0  0  0  0  0  0  0
    5.5652   -4.9440   -0.9323 H   0  0  0  0  0  0  0  0  0  0  0  0
   11.2694   -2.0002    0.3065 H   0  0  0  0  0  0  0  0  0  0  0  0
    9.9241    0.1934    0.3098 H   0  0  0  0  0  0  0  0  0  0  0  0
   10.2870   -0.3552    2.0038 H   0  0  0  0  0  0  0  0  0  0  0  0
  1  2  1  0  0  0  0
  1 30  1  0  0  0  0
  1 31  1  0  0  0  0
  1 32  1  0  0  0  0
  2  3  1  0  0  0  0
  2 33  1  0  0  0  0
  2 34  1  0  0  0  0
  3  4  1  0  0  0  0
  3 35  1  0  0  0  0
  3 36  1  0  0  0  0
  4  5  1  0  0  0  0
  4 17  1  0  0  0  0
  5  6  1  0  0  0  0
  5 11  2  0  0  0  0
  6  7  2  0  0  0  0
  6 37  1  0  0  0  0
  7  8  1  0  0  0  0
  7 38  1  0  0  0  0
  8  9  1  0  0  0  0
  8 10  2  0  0  0  0
  9 39  1  0  0  0  0
  9 40  1  0  0  0  0
 10 11  1  0  0  0  0
 10 41  1  0  0  0  0
 11 12  1  0  0  0  0
 12 13  1  0  0  0  0
 12 17  2  0  0  0  0
 13 14  2  0  0  0  0
 13 29  1  0  0  0  0
 14 15  1  0  0  0  0
 14 26  1  0  0  0  0
 15 16  2  0  0  0  0
 15 25  1  0  0  0  0
 16 17  1  0  0  0  0
 16 18  1  0  0  0  0
 18 19  1  0  0  0  0
 18 42  1  0  0  0  0
 18 43  1  0  0  0  0
 19 20  1  0  0  0  0
 19 44  1  0  0  0  0
 19 45  1  0  0  0  0
 20 21  2  0  0  0  0
 20 25  1  0  0  0  0
 21 22  1  0  0  0  0
 22 23  1  0  0  0  0
 22 24  1  0  0  0  0
 23 46  1  0  0  0  0
 23 47  1  0  0  0  0
 23 48  1  0  0  0  0
 24 25  2  0  0  0  0
 24 49  1  0  0  0  0
 26 27  2  0  0  0  0
 26 28  1  0  0  0  0
 28 29  1  0  0  0  0
 28 50  1  0  0  0  0
 29 51  1  0  0  0  0
 29 52  1  0  0  0  0
M  END
$$$$
