CHEMBL2010877
 OpenBabel04072215363D

 60 66  0  0  0  0  0  0  0  0999 V2000
    3.3449   -0.9914   -0.2918 C   0  0  0  0  0  0  0  0  0  0  0  0
    2.1130   -0.6372    0.5507 C   0  0  0  0  0  0  0  0  0  0  0  0
    0.8381   -1.1432   -0.1201 C   0  0  0  0  0  0  0  0  0  0  0  0
    2.2929   -1.0155    1.9612 N   0  0  0  0  0  0  0  0  0  0  0  0
    2.9136   -0.1359    2.8924 C   0  0  0  0  0  0  0  0  0  0  0  0
    3.3195    1.2086    2.7845 C   0  0  0  0  0  0  0  0  0  0  0  0
    4.0382    1.7832    3.8503 C   0  0  0  0  0  0  0  0  0  0  0  0
    4.3247    1.0760    5.0198 C   0  0  0  0  0  0  0  0  0  0  0  0
    5.1055    1.5819    6.0733 N   0  0  0  0  0  0  0  0  0  0  0  0
    6.0802    2.5836    6.0655 C   0  0  0  0  0  0  0  0  0  0  0  0
    6.9231    2.7710    4.9779 C   0  0  0  0  0  0  0  0  0  0  0  0
    7.8578    3.7971    5.0032 C   0  0  0  0  0  0  0  0  0  0  0  0
    7.9209    4.5852    6.1316 C   0  0  0  0  0  0  0  0  0  0  0  0
    7.1307    4.3721    7.2000 N   0  0  0  0  0  0  0  0  0  0  0  0
    6.2128    3.3538    7.1660 N   0  0  0  0  0  0  0  0  0  0  0  0
    3.8723   -0.2364    5.1297 C   0  0  0  0  0  0  0  0  0  0  0  0
    3.2228   -0.8599    4.0469 C   0  0  0  0  0  0  0  0  0  0  0  0
    2.8781   -2.1446    3.6913 C   0  0  0  0  0  0  0  0  0  0  0  0
    3.4647   -3.2654    4.3149 C   0  0  0  0  0  0  0  0  0  0  0  0
    3.5084   -4.4273    3.5237 C   0  0  0  0  0  0  0  0  0  0  0  0
    2.8557   -4.5730    2.2828 C   0  0  0  0  0  0  0  0  0  0  0  0
    1.8210   -3.5884    2.0932 C   0  0  0  0  0  0  0  0  0  0  0  0
    2.1971   -2.2960    2.5154 C   0  0  0  0  0  0  0  0  0  0  0  0
    0.3860   -4.1931    2.4565 C   0  0  0  0  0  0  0  0  0  0  0  0
    0.4190   -5.6234    3.1376 C   0  0  0  0  0  0  0  0  0  0  0  0
    1.3062   -6.4702    2.2977 C   0  0  0  0  0  0  0  0  0  0  0  0
    1.0076   -7.6030    1.6648 N   0  0  0  0  0  0  0  0  0  0  0  0
    2.0310   -7.7214    0.7790 N   0  0  0  0  0  0  0  0  0  0  0  0
    2.0218   -8.7946   -0.1838 C   0  0  0  0  0  0  0  0  0  0  0  0
    2.8924   -6.6498    0.7821 C   0  0  0  0  0  0  0  0  0  0  0  0
    2.5214   -5.9126    1.8721 C   0  0  0  0  0  0  0  0  0  0  0  0
    4.1533   -5.4463    4.3271 C   0  0  0  0  0  0  0  0  0  0  0  0
    4.4478   -6.6159    4.1255 O   0  0  0  0  0  0  0  0  0  0  0  0
    4.4023   -4.8294    5.5427 N   0  0  0  0  0  0  0  0  0  0  0  0
    4.0841   -3.4266    5.6213 C   0  0  0  0  0  0  0  0  0  0  0  0
    3.2151   -0.6638   -1.3301 H   0  0  0  0  0  0  0  0  0  0  0  0
    3.5312   -2.0701   -0.2999 H   0  0  0  0  0  0  0  0  0  0  0  0
    4.2443   -0.4991    0.0949 H   0  0  0  0  0  0  0  0  0  0  0  0
    2.0230    0.4563    0.5426 H   0  0  0  0  0  0  0  0  0  0  0  0
    0.8559   -2.2246   -0.2775 H   0  0  0  0  0  0  0  0  0  0  0  0
    0.7280   -0.6734   -1.1067 H   0  0  0  0  0  0  0  0  0  0  0  0
   -0.0481   -0.8853    0.4667 H   0  0  0  0  0  0  0  0  0  0  0  0
    3.1426    1.7970    1.8897 H   0  0  0  0  0  0  0  0  0  0  0  0
    4.3679    2.8151    3.7485 H   0  0  0  0  0  0  0  0  0  0  0  0
    4.6544    1.5337    6.9816 H   0  0  0  0  0  0  0  0  0  0  0  0
    6.8680    2.1108    4.1188 H   0  0  0  0  0  0  0  0  0  0  0  0
    8.5160    3.9709    4.1604 H   0  0  0  0  0  0  0  0  0  0  0  0
    8.6124    5.4146    6.2156 H   0  0  0  0  0  0  0  0  0  0  0  0
    4.0995   -0.7944    6.0296 H   0  0  0  0  0  0  0  0  0  0  0  0
   -0.1848   -4.2672    1.5252 H   0  0  0  0  0  0  0  0  0  0  0  0
   -0.1347   -3.5055    3.1333 H   0  0  0  0  0  0  0  0  0  0  0  0
   -0.5783   -6.0523    3.2559 H   0  0  0  0  0  0  0  0  0  0  0  0
    0.8575   -5.5431    4.1448 H   0  0  0  0  0  0  0  0  0  0  0  0
    1.3144   -9.5637    0.1364 H   0  0  0  0  0  0  0  0  0  0  0  0
    3.0280   -9.2154   -0.2457 H   0  0  0  0  0  0  0  0  0  0  0  0
    1.7172   -8.3812   -1.1486 H   0  0  0  0  0  0  0  0  0  0  0  0
    3.6303   -6.5039    0.0065 H   0  0  0  0  0  0  0  0  0  0  0  0
    4.7721   -5.3750    6.3059 H   0  0  0  0  0  0  0  0  0  0  0  0
    5.0204   -2.8634    5.7262 H   0  0  0  0  0  0  0  0  0  0  0  0
    3.3854   -3.2456    6.4388 H   0  0  0  0  0  0  0  0  0  0  0  0
  1  2  1  0  0  0  0
  1 36  1  0  0  0  0
  1 37  1  0  0  0  0
  1 38  1  0  0  0  0
  2  3  1  0  0  0  0
  2  4  1  0  0  0  0
  2 39  1  0  0  0  0
  3 40  1  0  0  0  0
  3 41  1  0  0  0  0
  3 42  1  0  0  0  0
  4  5  1  0  0  0  0
  4 23  1  0  0  0  0
  5  6  1  0  0  0  0
  5 17  2  0  0  0  0
  6  7  2  0  0  0  0
  6 43  1  0  0  0  0
  7  8  1  0  0  0  0
  7 44  1  0  0  0  0
  8  9  1  0  0  0  0
  8 16  2  0  0  0  0
  9 10  1  0  0  0  0
  9 45  1  0  0  0  0
 10 11  1  0  0  0  0
 10 15  2  0  0  0  0
 11 12  2  0  0  0  0
 11 46  1  0  0  0  0
 12 13  1  0  0  0  0
 12 47  1  0  0  0  0
 13 14  2  0  0  0  0
 13 48  1  0  0  0  0
 14 15  1  0  0  0  0
 16 17  1  0  0  0  0
 16 49  1  0  0  0  0
 17 18  1  0  0  0  0
 18 19  1  0  0  0  0
 18 23  2  0  0  0  0
 19 20  2  0  0  0  0
 19 35  1  0  0  0  0
 20 21  1  0  0  0  0
 20 32  1  0  0  0  0
 21 22  2  0  0  0  0
 21 31  1  0  0  0  0
 22 23  1  0  0  0  0
 22 24  1  0  0  0  0
 24 25  1  0  0  0  0
 24 50  1  0  0  0  0
 24 51  1  0  0  0  0
 25 26  1  0  0  0  0
 25 52  1  0  0  0  0
 25 53  1  0  0  0  0
 26 27  2  0  0  0  0
 26 31  1  0  0  0  0
 27 28  1  0  0  0  0
 28 29  1  0  0  0  0
 28 30  1  0  0  0  0
 29 54  1  0  0  0  0
 29 55  1  0  0  0  0
 29 56  1  0  0  0  0
 30 31  2  0  0  0  0
 30 57  1  0  0  0  0
 32 33  2  0  0  0  0
 32 34  1  0  0  0  0
 34 35  1  0  0  0  0
 34 58  1  0  0  0  0
 35 59  1  0  0  0  0
 35 60  1  0  0  0  0
M  END
$$$$
