CHEMBL1241270
 OpenBabel04072215363D

 29 31  0  0  0  0  0  0  0  0999 V2000
   -1.7773   -1.5859    0.0035 C   0  0  0  0  0  0  0  0  0  0  0  0
   -0.5218   -0.7656    0.0486 C   0  0  0  0  0  0  0  0  0  0  0  0
    0.7240   -1.3923    0.1434 C   0  0  0  0  0  0  0  0  0  0  0  0
    1.8963   -0.6345    0.1897 C   0  0  0  0  0  0  0  0  0  0  0  0
    1.8549    0.7606    0.0845 C   0  0  0  0  0  0  0  0  0  0  0  0
    3.0882    1.5508    0.0240 C   0  0  0  0  0  0  0  0  0  0  0  0
    3.1447    2.7653    0.6088 N   0  0  0  0  0  0  0  0  0  0  0  0
    4.4060    3.1768    0.3865 N   0  0  0  0  0  0  0  0  0  0  0  0
    5.1517    2.3043   -0.3451 C   0  0  0  0  0  0  0  0  0  0  0  0
    6.4290    2.4768   -0.7165 N   0  0  0  0  0  0  0  0  0  0  0  0
    6.8653    1.4339   -1.4395 C   0  0  0  0  0  0  0  0  0  0  0  0
    6.1757    0.3376   -1.8072 N   0  0  0  0  0  0  0  0  0  0  0  0
    4.8888    0.2153   -1.4144 C   0  0  0  0  0  0  0  0  0  0  0  0
    4.2262   -0.9213   -1.8577 N   0  0  0  0  0  0  0  0  0  0  0  0
    4.3260    1.2314   -0.6266 C   0  0  0  0  0  0  0  0  0  0  0  0
    0.6042    1.3928    0.0307 C   0  0  0  0  0  0  0  0  0  0  0  0
   -0.5665    0.6311    0.0199 C   0  0  0  0  0  0  0  0  0  0  0  0
   -1.7872    1.2446   -0.0272 O   0  0  0  0  0  0  0  0  0  0  0  0
   -1.5530   -2.6581   -0.0066 H   0  0  0  0  0  0  0  0  0  0  0  0
   -2.3470   -1.3609   -0.9039 H   0  0  0  0  0  0  0  0  0  0  0  0
   -2.3949   -1.3819    0.8835 H   0  0  0  0  0  0  0  0  0  0  0  0
    0.7953   -2.4769    0.1849 H   0  0  0  0  0  0  0  0  0  0  0  0
    2.8437   -1.1565    0.3054 H   0  0  0  0  0  0  0  0  0  0  0  0
    4.7050    4.0728    0.7505 H   0  0  0  0  0  0  0  0  0  0  0  0
    7.8957    1.4799   -1.7784 H   0  0  0  0  0  0  0  0  0  0  0  0
    4.7579   -1.3762   -2.5918 H   0  0  0  0  0  0  0  0  0  0  0  0
    3.2416   -0.7902   -2.0538 H   0  0  0  0  0  0  0  0  0  0  0  0
    0.5555    2.4783   -0.0071 H   0  0  0  0  0  0  0  0  0  0  0  0
   -1.6549    2.2040    0.0500 H   0  0  0  0  0  0  0  0  0  0  0  0
  1  2  1  0  0  0  0
  1 19  1  0  0  0  0
  1 20  1  0  0  0  0
  1 21  1  0  0  0  0
  2  3  1  0  0  0  0
  2 17  2  0  0  0  0
  3  4  2  0  0  0  0
  3 22  1  0  0  0  0
  4  5  1  0  0  0  0
  4 23  1  0  0  0  0
  5  6  1  0  0  0  0
  5 16  2  0  0  0  0
  6  7  2  0  0  0  0
  6 15  1  0  0  0  0
  7  8  1  0  0  0  0
  8  9  1  0  0  0  0
  8 24  1  0  0  0  0
  9 10  1  0  0  0  0
  9 15  2  0  0  0  0
 10 11  2  0  0  0  0
 11 12  1  0  0  0  0
 11 25  1  0  0  0  0
 12 13  2  0  0  0  0
 13 14  1  0  0  0  0
 13 15  1  0  0  0  0
 14 26  1  0  0  0  0
 14 27  1  0  0  0  0
 16 17  1  0  0  0  0
 16 28  1  0  0  0  0
 17 18  1  0  0  0  0
 18 29  1  0  0  0  0
M  END
$$$$
