CHEMBL3977907
 OpenBabel04072215373D

 49 52  0  0  0  0  0  0  0  0999 V2000
    2.0910   -1.4310    0.0259 C   0  0  0  0  0  0  0  0  0  0  0  0
    1.8410   -2.2508    1.2785 C   0  0  0  0  0  0  0  0  0  0  0  0
    2.6473   -1.7882    2.3841 N   0  0  0  0  0  0  0  0  0  0  0  0
    3.9349   -2.2309    2.6082 C   0  0  0  0  0  0  0  0  0  0  0  0
    4.4529   -3.0942    1.9075 O   0  0  0  0  0  0  0  0  0  0  0  0
    4.6304   -1.5962    3.7185 C   0  0  0  0  0  0  0  0  0  0  0  0
    5.9189   -1.8509    4.1412 C   0  0  0  0  0  0  0  0  0  0  0  0
    6.3180   -1.0286    5.2322 C   0  0  0  0  0  0  0  0  0  0  0  0
    7.5432   -1.0610    5.8198 N   0  0  0  0  0  0  0  0  0  0  0  0
    7.7403   -0.1709    6.8066 C   0  0  0  0  0  0  0  0  0  0  0  0
    6.7970    0.7281    7.2662 C   0  0  0  0  0  0  0  0  0  0  0  0
    5.5071    0.6972    6.7277 C   0  0  0  0  0  0  0  0  0  0  0  0
    4.4714    1.4976    7.1819 O   0  0  0  0  0  0  0  0  0  0  0  0
    4.3435    1.6989    8.5439 C   0  0  0  0  0  0  0  0  0  0  0  0
    4.7725    0.7642    9.4909 C   0  0  0  0  0  0  0  0  0  0  0  0
    4.7701    1.0917   10.8365 C   0  0  0  0  0  0  0  0  0  0  0  0
    4.2703    2.3254   11.2424 C   0  0  0  0  0  0  0  0  0  0  0  0
    3.7463    3.2411   10.3215 C   0  0  0  0  0  0  0  0  0  0  0  0
    3.2024    4.4849   10.7328 N   0  0  0  0  0  0  0  0  0  0  0  0
    3.4599    5.0850   11.9633 C   0  0  0  0  0  0  0  0  0  0  0  0
    4.3084    4.6789   12.7489 O   0  0  0  0  0  0  0  0  0  0  0  0
    2.6659    6.2575   12.2771 C   0  0  0  0  0  0  0  0  0  0  0  0
    1.7925    6.7865   11.3671 O   0  0  0  0  0  0  0  0  0  0  0  0
    1.1916    7.8471   11.9691 C   0  0  0  0  0  0  0  0  0  0  0  0
    1.6588    8.0092   13.2537 C   0  0  0  0  0  0  0  0  0  0  0  0
    2.6287    6.9931   13.4566 C   0  0  0  0  0  0  0  0  0  0  0  0
    3.4337    6.7374   14.6799 C   0  0  0  0  0  0  0  0  0  0  0  0
    3.7581    2.9063    8.9608 C   0  0  0  0  0  0  0  0  0  0  0  0
    5.2962   -0.1748    5.6477 C   0  0  0  0  0  0  0  0  0  0  0  0
    3.8904   -0.3932    4.6880 S   0  0  0  0  0  0  0  0  0  0  0  0
    1.4613   -1.7886   -0.7953 H   0  0  0  0  0  0  0  0  0  0  0  0
    3.1371   -1.4988   -0.2894 H   0  0  0  0  0  0  0  0  0  0  0  0
    1.8634   -0.3758    0.1985 H   0  0  0  0  0  0  0  0  0  0  0  0
    2.0552   -3.3074    1.0875 H   0  0  0  0  0  0  0  0  0  0  0  0
    0.7933   -2.1608    1.5844 H   0  0  0  0  0  0  0  0  0  0  0  0
    2.3022   -1.0273    2.9566 H   0  0  0  0  0  0  0  0  0  0  0  0
    6.5629   -2.5893    3.6767 H   0  0  0  0  0  0  0  0  0  0  0  0
    8.7305   -0.2040    7.2554 H   0  0  0  0  0  0  0  0  0  0  0  0
    7.0605    1.4112    8.0672 H   0  0  0  0  0  0  0  0  0  0  0  0
    5.1521   -0.2104    9.1973 H   0  0  0  0  0  0  0  0  0  0  0  0
    5.1678    0.3995   11.5728 H   0  0  0  0  0  0  0  0  0  0  0  0
    4.2791    2.5248   12.3095 H   0  0  0  0  0  0  0  0  0  0  0  0
    2.6412    5.0164   10.0797 H   0  0  0  0  0  0  0  0  0  0  0  0
    0.4619    8.3787   11.3745 H   0  0  0  0  0  0  0  0  0  0  0  0
    1.3428    8.7642   13.9600 H   0  0  0  0  0  0  0  0  0  0  0  0
    3.1919    7.4448   15.4771 H   0  0  0  0  0  0  0  0  0  0  0  0
    4.5035    6.8294   14.4597 H   0  0  0  0  0  0  0  0  0  0  0  0
    3.2466    5.7258   15.0575 H   0  0  0  0  0  0  0  0  0  0  0  0
    3.3688    3.5920    8.2140 H   0  0  0  0  0  0  0  0  0  0  0  0
  1  2  1  0  0  0  0
  1 31  1  0  0  0  0
  1 32  1  0  0  0  0
  1 33  1  0  0  0  0
  2  3  1  0  0  0  0
  2 34  1  0  0  0  0
  2 35  1  0  0  0  0
  3  4  1  0  0  0  0
  3 36  1  0  0  0  0
  4  5  2  0  0  0  0
  4  6  1  0  0  0  0
  6  7  2  0  0  0  0
  6 30  1  0  0  0  0
  7  8  1  0  0  0  0
  7 37  1  0  0  0  0
  8  9  1  0  0  0  0
  8 29  2  0  0  0  0
  9 10  2  0  0  0  0
 10 11  1  0  0  0  0
 10 38  1  0  0  0  0
 11 12  2  0  0  0  0
 11 39  1  0  0  0  0
 12 13  1  0  0  0  0
 12 29  1  0  0  0  0
 13 14  1  0  0  0  0
 14 15  1  0  0  0  0
 14 28  2  0  0  0  0
 15 16  2  0  0  0  0
 15 40  1  0  0  0  0
 16 17  1  0  0  0  0
 16 41  1  0  0  0  0
 17 18  2  0  0  0  0
 17 42  1  0  0  0  0
 18 19  1  0  0  0  0
 18 28  1  0  0  0  0
 19 20  1  0  0  0  0
 19 43  1  0  0  0  0
 20 21  2  0  0  0  0
 20 22  1  0  0  0  0
 22 23  1  0  0  0  0
 22 26  2  0  0  0  0
 23 24  1  0  0  0  0
 24 25  2  0  0  0  0
 24 44  1  0  0  0  0
 25 26  1  0  0  0  0
 25 45  1  0  0  0  0
 26 27  1  0  0  0  0
 27 46  1  0  0  0  0
 27 47  1  0  0  0  0
 27 48  1  0  0  0  0
 28 49  1  0  0  0  0
 29 30  1  0  0  0  0
M  END
$$$$
