CHEMBL1934331
 OpenBabel04072215363D

 66 70  0  0  0  0  0  0  0  0999 V2000
    7.4238   -3.8588   -1.1426 C   0  0  0  0  0  0  0  0  0  0  0  0
    6.3468   -3.1841   -0.4138 N   0  0  0  0  0  0  0  0  0  0  0  0
    5.9554   -1.9557   -1.1190 C   0  0  0  0  0  0  0  0  0  0  0  0
    4.8092   -1.2341   -0.4061 C   0  0  0  0  0  0  0  0  0  0  0  0
    3.5904   -2.1459   -0.2186 C   0  0  0  0  0  0  0  0  0  0  0  0
    2.9245   -2.4958   -1.5557 C   0  0  0  0  0  0  0  0  0  0  0  0
    2.5344   -1.3124   -2.2672 O   0  0  0  0  0  0  0  0  0  0  0  0
    2.5005   -1.4867   -3.6285 C   0  0  0  0  0  0  0  0  0  0  0  0
    2.7128   -0.3616   -4.4151 C   0  0  0  0  0  0  0  0  0  0  0  0
    2.8246   -0.5115   -5.7991 C   0  0  0  0  0  0  0  0  0  0  0  0
    2.7344   -1.7953   -6.3965 C   0  0  0  0  0  0  0  0  0  0  0  0
    2.9318   -2.0931   -7.7588 C   0  0  0  0  0  0  0  0  0  0  0  0
    3.3900   -1.0715   -8.6182 N   0  0  0  0  0  0  0  0  0  0  0  0
    3.1757   -0.9267  -10.0034 C   0  0  0  0  0  0  0  0  0  0  0  0
    3.8965    0.0508  -10.6946 C   0  0  0  0  0  0  0  0  0  0  0  0
    3.5540    0.4056  -11.9974 C   0  0  0  0  0  0  0  0  0  0  0  0
    2.4693   -0.1774  -12.6544 C   0  0  0  0  0  0  0  0  0  0  0  0
    2.0062    0.2617  -13.9228 N   0  0  0  0  0  0  0  0  0  0  0  0
    2.3409    1.4867  -14.4896 C   0  0  0  0  0  0  0  0  0  0  0  0
    3.0964    2.3114  -13.9855 O   0  0  0  0  0  0  0  0  0  0  0  0
    1.6780    1.7327  -15.6835 N   0  0  0  0  0  0  0  0  0  0  0  0
    1.9285    2.9430  -16.3818 C   0  0  0  0  0  0  0  0  0  0  0  0
    0.8522    3.7651  -16.7275 C   0  0  0  0  0  0  0  0  0  0  0  0
    1.0719    4.9639  -17.4162 C   0  0  0  0  0  0  0  0  0  0  0  0
    2.3636    5.3241  -17.7969 C   0  0  0  0  0  0  0  0  0  0  0  0
    3.4299    4.5024  -17.4509 C   0  0  0  0  0  0  0  0  0  0  0  0
    4.6692    4.8449  -17.8270 F   0  0  0  0  0  0  0  0  0  0  0  0
    3.2281    3.3260  -16.7323 C   0  0  0  0  0  0  0  0  0  0  0  0
    1.7944   -1.2095  -11.9864 C   0  0  0  0  0  0  0  0  0  0  0  0
    0.7439   -1.8052  -12.5670 F   0  0  0  0  0  0  0  0  0  0  0  0
    2.1389   -1.5727  -10.6845 C   0  0  0  0  0  0  0  0  0  0  0  0
    2.7342   -3.3211   -8.2649 N   0  0  0  0  0  0  0  0  0  0  0  0
    2.3584   -4.2758   -7.4052 C   0  0  0  0  0  0  0  0  0  0  0  0
    2.2056   -4.1227   -6.0876 N   0  0  0  0  0  0  0  0  0  0  0  0
    2.3976   -2.8956   -5.6016 C   0  0  0  0  0  0  0  0  0  0  0  0
    2.2801   -2.7223   -4.2400 C   0  0  0  0  0  0  0  0  0  0  0  0
    4.0414   -3.4247    0.5036 C   0  0  0  0  0  0  0  0  0  0  0  0
    5.2240   -4.1056   -0.1986 C   0  0  0  0  0  0  0  0  0  0  0  0
    8.2855   -3.1932   -1.2617 H   0  0  0  0  0  0  0  0  0  0  0  0
    7.1038   -4.1868   -2.1389 H   0  0  0  0  0  0  0  0  0  0  0  0
    7.7750   -4.7357   -0.5882 H   0  0  0  0  0  0  0  0  0  0  0  0
    5.6767   -2.1699   -2.1588 H   0  0  0  0  0  0  0  0  0  0  0  0
    6.8111   -1.2710   -1.1588 H   0  0  0  0  0  0  0  0  0  0  0  0
    4.5364   -0.3320   -0.9654 H   0  0  0  0  0  0  0  0  0  0  0  0
    5.1552   -0.8945    0.5790 H   0  0  0  0  0  0  0  0  0  0  0  0
    2.8554   -1.6153    0.3988 H   0  0  0  0  0  0  0  0  0  0  0  0
    2.0308   -3.1050   -1.3748 H   0  0  0  0  0  0  0  0  0  0  0  0
    3.6280   -3.0852   -2.1534 H   0  0  0  0  0  0  0  0  0  0  0  0
    2.8181    0.6175   -3.9576 H   0  0  0  0  0  0  0  0  0  0  0  0
    2.9696    0.3744   -6.4150 H   0  0  0  0  0  0  0  0  0  0  0  0
    4.2818   -0.7032   -8.3007 H   0  0  0  0  0  0  0  0  0  0  0  0
    4.7148    0.5840  -10.2195 H   0  0  0  0  0  0  0  0  0  0  0  0
    4.1592    1.1760  -12.4762 H   0  0  0  0  0  0  0  0  0  0  0  0
    1.2972   -0.3037  -14.3640 H   0  0  0  0  0  0  0  0  0  0  0  0
    0.7249    1.4004  -15.7012 H   0  0  0  0  0  0  0  0  0  0  0  0
   -0.1575    3.5155  -16.4146 H   0  0  0  0  0  0  0  0  0  0  0  0
    0.2355    5.6180  -17.6510 H   0  0  0  0  0  0  0  0  0  0  0  0
    2.5468    6.2384  -18.3533 H   0  0  0  0  0  0  0  0  0  0  0  0
    4.0879    2.7178  -16.4709 H   0  0  0  0  0  0  0  0  0  0  0  0
    1.5485   -2.3420  -10.1941 H   0  0  0  0  0  0  0  0  0  0  0  0
    2.1641   -5.2574   -7.8134 H   0  0  0  0  0  0  0  0  0  0  0  0
    2.0315   -3.6015   -3.6522 H   0  0  0  0  0  0  0  0  0  0  0  0
    3.2068   -4.1319    0.5809 H   0  0  0  0  0  0  0  0  0  0  0  0
    4.3338   -3.1720    1.5307 H   0  0  0  0  0  0  0  0  0  0  0  0
    4.8915   -4.5475   -1.1467 H   0  0  0  0  0  0  0  0  0  0  0  0
    5.5555   -4.9409    0.4309 H   0  0  0  0  0  0  0  0  0  0  0  0
  1  2  1  0  0  0  0
  1 39  1  0  0  0  0
  1 40  1  0  0  0  0
  1 41  1  0  0  0  0
  2  3  1  0  0  0  0
  2 38  1  0  0  0  0
  3  4  1  0  0  0  0
  3 42  1  0  0  0  0
  3 43  1  0  0  0  0
  4  5  1  0  0  0  0
  4 44  1  0  0  0  0
  4 45  1  0  0  0  0
  5  6  1  0  0  0  0
  5 37  1  0  0  0  0
  5 46  1  0  0  0  0
  6  7  1  0  0  0  0
  6 47  1  0  0  0  0
  6 48  1  0  0  0  0
  7  8  1  0  0  0  0
  8  9  1  0  0  0  0
  8 36  2  0  0  0  0
  9 10  2  0  0  0  0
  9 49  1  0  0  0  0
 10 11  1  0  0  0  0
 10 50  1  0  0  0  0
 11 12  1  0  0  0  0
 11 35  2  0  0  0  0
 12 13  1  0  0  0  0
 12 32  2  0  0  0  0
 13 14  1  0  0  0  0
 13 51  1  0  0  0  0
 14 15  1  0  0  0  0
 14 31  2  0  0  0  0
 15 16  2  0  0  0  0
 15 52  1  0  0  0  0
 16 17  1  0  0  0  0
 16 53  1  0  0  0  0
 17 18  1  0  0  0  0
 17 29  2  0  0  0  0
 18 19  1  0  0  0  0
 18 54  1  0  0  0  0
 19 20  2  0  0  0  0
 19 21  1  0  0  0  0
 21 22  1  0  0  0  0
 21 55  1  0  0  0  0
 22 23  1  0  0  0  0
 22 28  2  0  0  0  0
 23 24  2  0  0  0  0
 23 56  1  0  0  0  0
 24 25  1  0  0  0  0
 24 57  1  0  0  0  0
 25 26  2  0  0  0  0
 25 58  1  0  0  0  0
 26 27  1  0  0  0  0
 26 28  1  0  0  0  0
 28 59  1  0  0  0  0
 29 30  1  0  0  0  0
 29 31  1  0  0  0  0
 31 60  1  0  0  0  0
 32 33  1  0  0  0  0
 33 34  2  0  0  0  0
 33 61  1  0  0  0  0
 34 35  1  0  0  0  0
 35 36  1  0  0  0  0
 36 62  1  0  0  0  0
 37 38  1  0  0  0  0
 37 63  1  0  0  0  0
 37 64  1  0  0  0  0
 38 65  1  0  0  0  0
 38 66  1  0  0  0  0
M  END
$$$$
