CHEMBL3980939
 OpenBabel04072215373D

 55 58  0  0  0  0  0  0  0  0999 V2000
    2.4682    1.0250   -0.1593 C   0  0  0  0  0  0  0  0  0  0  0  0
    3.8590    0.4784    0.1301 C   0  0  0  0  0  0  0  0  0  0  0  0
    3.7829   -0.8835    0.1464 F   0  0  0  0  0  0  0  0  0  0  0  0
    4.6533    0.7839   -0.9385 F   0  0  0  0  0  0  0  0  0  0  0  0
    4.3911    1.0451    1.4274 C   0  0  0  0  0  0  0  0  0  0  0  0
    5.1490    2.2257    1.4017 C   0  0  0  0  0  0  0  0  0  0  0  0
    5.5784    2.8075    2.5860 C   0  0  0  0  0  0  0  0  0  0  0  0
    5.2318    2.2277    3.8065 C   0  0  0  0  0  0  0  0  0  0  0  0
    4.4455    1.0679    3.8693 C   0  0  0  0  0  0  0  0  0  0  0  0
    4.0059    0.5226    5.0988 N   0  0  0  0  0  0  0  0  0  0  0  0
    3.8140    1.2937    6.2286 C   0  0  0  0  0  0  0  0  0  0  0  0
    3.9027    2.5208    6.2497 O   0  0  0  0  0  0  0  0  0  0  0  0
    3.5006    0.5462    7.3562 N   0  0  0  0  0  0  0  0  0  0  0  0
    3.2427    1.2241    8.5827 C   0  0  0  0  0  0  0  0  0  0  0  0
    2.4271    2.3592    8.6209 C   0  0  0  0  0  0  0  0  0  0  0  0
    2.3099    3.1123    9.7924 C   0  0  0  0  0  0  0  0  0  0  0  0
    2.9480    2.7013   10.9679 C   0  0  0  0  0  0  0  0  0  0  0  0
    2.8995    3.4114   12.1545 O   0  0  0  0  0  0  0  0  0  0  0  0
    1.7271    4.0477   12.5257 C   0  0  0  0  0  0  0  0  0  0  0  0
    0.4680    3.5733   12.1742 C   0  0  0  0  0  0  0  0  0  0  0  0
   -0.6248    4.3112   12.5604 C   0  0  0  0  0  0  0  0  0  0  0  0
   -0.5371    5.4223   13.3096 N   0  0  0  0  0  0  0  0  0  0  0  0
    0.6680    5.8518   13.7232 C   0  0  0  0  0  0  0  0  0  0  0  0
    0.7283    6.9762   14.5773 N   0  0  0  0  0  0  0  0  0  0  0  0
   -0.3990    7.6746   14.9772 C   0  0  0  0  0  0  0  0  0  0  0  0
   -1.5444    7.5119   14.5746 O   0  0  0  0  0  0  0  0  0  0  0  0
   -0.2395    8.7498   16.0002 C   0  0  0  0  0  0  0  0  0  0  0  0
    1.0152    9.3439   16.5727 C   0  0  0  0  0  0  0  0  0  0  0  0
    0.2295    8.3547   17.3816 C   0  0  0  0  0  0  0  0  0  0  0  0
    1.8337    5.1835   13.3465 C   0  0  0  0  0  0  0  0  0  0  0  0
    3.7445    1.5508   10.9422 C   0  0  0  0  0  0  0  0  0  0  0  0
    3.8715    0.8136    9.7599 C   0  0  0  0  0  0  0  0  0  0  0  0
    4.6735   -0.2631    9.7413 F   0  0  0  0  0  0  0  0  0  0  0  0
    4.0701    0.4533    2.6680 C   0  0  0  0  0  0  0  0  0  0  0  0
    2.1119    0.6563   -1.1263 H   0  0  0  0  0  0  0  0  0  0  0  0
    2.4693    2.1197   -0.2045 H   0  0  0  0  0  0  0  0  0  0  0  0
    1.7499    0.7076    0.6037 H   0  0  0  0  0  0  0  0  0  0  0  0
    5.3983    2.7008    0.4541 H   0  0  0  0  0  0  0  0  0  0  0  0
    6.1622    3.7245    2.5695 H   0  0  0  0  0  0  0  0  0  0  0  0
    5.5883    2.7158    4.7111 H   0  0  0  0  0  0  0  0  0  0  0  0
    3.4914   -0.3471    5.0672 H   0  0  0  0  0  0  0  0  0  0  0  0
    4.0199   -0.3199    7.4386 H   0  0  0  0  0  0  0  0  0  0  0  0
    1.9057    2.6951    7.7266 H   0  0  0  0  0  0  0  0  0  0  0  0
    1.7211    4.0256    9.7599 H   0  0  0  0  0  0  0  0  0  0  0  0
    0.3215    2.6684   11.5980 H   0  0  0  0  0  0  0  0  0  0  0  0
   -1.6329    4.0280   12.2753 H   0  0  0  0  0  0  0  0  0  0  0  0
    1.6247    7.2474   14.9456 H   0  0  0  0  0  0  0  0  0  0  0  0
   -1.0803    9.4446   15.9629 H   0  0  0  0  0  0  0  0  0  0  0  0
    0.9656   10.3835   16.8930 H   0  0  0  0  0  0  0  0  0  0  0  0
    1.9820    9.0586   16.1890 H   0  0  0  0  0  0  0  0  0  0  0  0
   -0.3776    8.7002   18.2131 H   0  0  0  0  0  0  0  0  0  0  0  0
    0.6547    7.3695   17.5309 H   0  0  0  0  0  0  0  0  0  0  0  0
    2.8101    5.5274   13.6685 H   0  0  0  0  0  0  0  0  0  0  0  0
    4.2929    1.2385   11.8243 H   0  0  0  0  0  0  0  0  0  0  0  0
    3.4820   -0.4612    2.6805 H   0  0  0  0  0  0  0  0  0  0  0  0
  1  2  1  0  0  0  0
  1 35  1  0  0  0  0
  1 36  1  0  0  0  0
  1 37  1  0  0  0  0
  2  3  1  0  0  0  0
  2  4  1  0  0  0  0
  2  5  1  0  0  0  0
  5  6  1  0  0  0  0
  5 34  2  0  0  0  0
  6  7  2  0  0  0  0
  6 38  1  0  0  0  0
  7  8  1  0  0  0  0
  7 39  1  0  0  0  0
  8  9  2  0  0  0  0
  8 40  1  0  0  0  0
  9 10  1  0  0  0  0
  9 34  1  0  0  0  0
 10 11  1  0  0  0  0
 10 41  1  0  0  0  0
 11 12  2  0  0  0  0
 11 13  1  0  0  0  0
 13 14  1  0  0  0  0
 13 42  1  0  0  0  0
 14 15  1  0  0  0  0
 14 32  2  0  0  0  0
 15 16  2  0  0  0  0
 15 43  1  0  0  0  0
 16 17  1  0  0  0  0
 16 44  1  0  0  0  0
 17 18  1  0  0  0  0
 17 31  2  0  0  0  0
 18 19  1  0  0  0  0
 19 20  1  0  0  0  0
 19 30  2  0  0  0  0
 20 21  2  0  0  0  0
 20 45  1  0  0  0  0
 21 22  1  0  0  0  0
 21 46  1  0  0  0  0
 22 23  2  0  0  0  0
 23 24  1  0  0  0  0
 23 30  1  0  0  0  0
 24 25  1  0  0  0  0
 24 47  1  0  0  0  0
 25 26  2  0  0  0  0
 25 27  1  0  0  0  0
 27 28  1  0  0  0  0
 27 29  1  0  0  0  0
 27 48  1  0  0  0  0
 28 29  1  0  0  0  0
 28 49  1  0  0  0  0
 28 50  1  0  0  0  0
 29 51  1  0  0  0  0
 29 52  1  0  0  0  0
 30 53  1  0  0  0  0
 31 32  1  0  0  0  0
 31 54  1  0  0  0  0
 32 33  1  0  0  0  0
 34 55  1  0  0  0  0
M  END
$$$$
