CHEMBL412082
 OpenBabel04072215383D

 38 41  0  0  0  0  0  0  0  0999 V2000
    1.2757    2.4714   -0.7896 C   0  0  0  0  0  0  0  0  0  0  0  0
    2.6924    2.3127   -0.7888 O   0  0  0  0  0  0  0  0  0  0  0  0
    3.1163    1.0162   -0.7417 C   0  0  0  0  0  0  0  0  0  0  0  0
    2.3676    0.0461   -0.7077 O   0  0  0  0  0  0  0  0  0  0  0  0
    4.5751    0.9092   -0.7314 C   0  0  0  0  0  0  0  0  0  0  0  0
    5.4474    1.9791   -0.7295 C   0  0  0  0  0  0  0  0  0  0  0  0
    6.7229    1.5092   -0.6996 N   0  0  0  0  0  0  0  0  0  0  0  0
    7.8058    2.2942   -0.6701 N   0  0  0  0  0  0  0  0  0  0  0  0
    8.9194    1.6407   -0.6627 C   0  0  0  0  0  0  0  0  0  0  0  0
    9.0652    0.2843   -0.6949 N   0  0  0  0  0  0  0  0  0  0  0  0
    8.0258   -0.4985   -0.7264 C   0  0  0  0  0  0  0  0  0  0  0  0
    8.1768   -1.8684   -0.7898 N   0  0  0  0  0  0  0  0  0  0  0  0
    9.2740   -2.5914   -1.3044 C   0  0  0  0  0  0  0  0  0  0  0  0
   10.5961   -2.1342   -1.3337 C   0  0  0  0  0  0  0  0  0  0  0  0
   11.6696   -2.7744   -1.8691 N   0  0  0  0  0  0  0  0  0  0  0  0
   11.3464   -3.9580   -2.4131 C   0  0  0  0  0  0  0  0  0  0  0  0
   12.2339   -4.7922   -3.0319 N   0  0  0  0  0  0  0  0  0  0  0  0
   11.5797   -5.9097   -3.4833 C   0  0  0  0  0  0  0  0  0  0  0  0
   10.2485   -5.7897   -3.1415 C   0  0  0  0  0  0  0  0  0  0  0  0
   10.0937   -4.5540   -2.4589 C   0  0  0  0  0  0  0  0  0  0  0  0
    9.0266   -3.8523   -1.8751 C   0  0  0  0  0  0  0  0  0  0  0  0
    6.7242    0.1396   -0.7106 C   0  0  0  0  0  0  0  0  0  0  0  0
    5.3924   -0.2860   -0.7265 C   0  0  0  0  0  0  0  0  0  0  0  0
    4.8012   -1.6567   -0.7437 C   0  0  0  0  0  0  0  0  0  0  0  0
    1.0570    3.5269   -0.9728 H   0  0  0  0  0  0  0  0  0  0  0  0
    0.8675    2.1954    0.1871 H   0  0  0  0  0  0  0  0  0  0  0  0
    0.8131    1.8813   -1.5869 H   0  0  0  0  0  0  0  0  0  0  0  0
    5.2648    3.0450   -0.7410 H   0  0  0  0  0  0  0  0  0  0  0  0
    9.8581    2.2203   -0.6340 H   0  0  0  0  0  0  0  0  0  0  0  0
    7.3305   -2.4075   -0.7980 H   0  0  0  0  0  0  0  0  0  0  0  0
   10.8673   -1.1822   -0.8862 H   0  0  0  0  0  0  0  0  0  0  0  0
   13.2167   -4.5851   -3.1319 H   0  0  0  0  0  0  0  0  0  0  0  0
   12.1162   -6.6904   -4.0067 H   0  0  0  0  0  0  0  0  0  0  0  0
    9.4726   -6.5101   -3.3650 H   0  0  0  0  0  0  0  0  0  0  0  0
    8.0296   -4.2790   -1.9005 H   0  0  0  0  0  0  0  0  0  0  0  0
    5.5255   -2.4648   -0.7846 H   0  0  0  0  0  0  0  0  0  0  0  0
    4.1535   -1.7744   -1.6199 H   0  0  0  0  0  0  0  0  0  0  0  0
    4.1977   -1.8164    0.1561 H   0  0  0  0  0  0  0  0  0  0  0  0
  1  2  1  0  0  0  0
  1 25  1  0  0  0  0
  1 26  1  0  0  0  0
  1 27  1  0  0  0  0
  2  3  1  0  0  0  0
  3  4  2  0  0  0  0
  3  5  1  0  0  0  0
  5  6  2  0  0  0  0
  5 23  1  0  0  0  0
  6  7  1  0  0  0  0
  6 28  1  0  0  0  0
  7  8  1  0  0  0  0
  7 22  1  0  0  0  0
  8  9  2  0  0  0  0
  9 10  1  0  0  0  0
  9 29  1  0  0  0  0
 10 11  2  0  0  0  0
 11 12  1  0  0  0  0
 11 22  1  0  0  0  0
 12 13  1  0  0  0  0
 12 30  1  0  0  0  0
 13 14  1  0  0  0  0
 13 21  2  0  0  0  0
 14 15  2  0  0  0  0
 14 31  1  0  0  0  0
 15 16  1  0  0  0  0
 16 17  1  0  0  0  0
 16 20  2  0  0  0  0
 17 18  1  0  0  0  0
 17 32  1  0  0  0  0
 18 19  2  0  0  0  0
 18 33  1  0  0  0  0
 19 20  1  0  0  0  0
 19 34  1  0  0  0  0
 20 21  1  0  0  0  0
 21 35  1  0  0  0  0
 22 23  2  0  0  0  0
 23 24  1  0  0  0  0
 24 36  1  0  0  0  0
 24 37  1  0  0  0  0
 24 38  1  0  0  0  0
M  END
$$$$
