CHEMBL404366
 OpenBabel04072215373D

 45 48  0  0  0  0  0  0  0  0999 V2000
    2.5080    5.0457    1.7093 C   0  0  0  0  0  0  0  0  0  0  0  0
    3.7381    4.3522    1.3991 N   0  0  0  0  0  0  0  0  0  0  0  0
    4.9029    4.9470    1.6511 N   0  0  0  0  0  0  0  0  0  0  0  0
    5.8129    4.0622    1.2582 C   0  0  0  0  0  0  0  0  0  0  0  0
    7.1161    4.3512    1.3605 N   0  0  0  0  0  0  0  0  0  0  0  0
    5.2289    2.8501    0.7557 C   0  0  0  0  0  0  0  0  0  0  0  0
    5.6506    1.5886    0.2418 C   0  0  0  0  0  0  0  0  0  0  0  0
    7.0653    1.1845    0.1368 C   0  0  0  0  0  0  0  0  0  0  0  0
    7.9772    1.4677    1.1551 C   0  0  0  0  0  0  0  0  0  0  0  0
    9.3376    1.1799    1.0241 C   0  0  0  0  0  0  0  0  0  0  0  0
    9.8225    0.4979   -0.0881 C   0  0  0  0  0  0  0  0  0  0  0  0
   11.1942    0.1974   -0.2399 N   0  0  0  0  0  0  0  0  0  0  0  0
   12.1164    0.1978    0.7936 C   0  0  0  0  0  0  0  0  0  0  0  0
   11.8361    0.2474    1.9864 O   0  0  0  0  0  0  0  0  0  0  0  0
   13.4186    0.1821    0.3165 N   0  0  0  0  0  0  0  0  0  0  0  0
   14.5134    0.1330    1.2107 C   0  0  0  0  0  0  0  0  0  0  0  0
   15.5983    0.9878    0.9983 C   0  0  0  0  0  0  0  0  0  0  0  0
   16.6751    0.9842    1.8893 C   0  0  0  0  0  0  0  0  0  0  0  0
   16.6924    0.0941    2.9634 C   0  0  0  0  0  0  0  0  0  0  0  0
   15.6212   -0.7754    3.1580 C   0  0  0  0  0  0  0  0  0  0  0  0
   15.6568   -1.8936    4.4660 Cl  0  0  0  0  0  0  0  0  0  0  0  0
   14.5276   -0.7514    2.2954 C   0  0  0  0  0  0  0  0  0  0  0  0
    8.9213    0.1341   -1.0859 C   0  0  0  0  0  0  0  0  0  0  0  0
    7.5618    0.4769   -0.9774 C   0  0  0  0  0  0  0  0  0  0  0  0
    4.6072    0.7381   -0.1359 C   0  0  0  0  0  0  0  0  0  0  0  0
    3.2799    1.0047   -0.0561 N   0  0  0  0  0  0  0  0  0  0  0  0
    2.8883    2.1910    0.4482 C   0  0  0  0  0  0  0  0  0  0  0  0
    3.8531    3.1041    0.8477 C   0  0  0  0  0  0  0  0  0  0  0  0
    2.7422    6.0210    2.1508 H   0  0  0  0  0  0  0  0  0  0  0  0
    1.9398    4.4429    2.4198 H   0  0  0  0  0  0  0  0  0  0  0  0
    1.9492    5.1856    0.7827 H   0  0  0  0  0  0  0  0  0  0  0  0
    7.3538    5.2919    1.6527 H   0  0  0  0  0  0  0  0  0  0  0  0
    7.8054    3.9170    0.7598 H   0  0  0  0  0  0  0  0  0  0  0  0
    7.6491    1.9495    2.0749 H   0  0  0  0  0  0  0  0  0  0  0  0
    9.9918    1.5289    1.8172 H   0  0  0  0  0  0  0  0  0  0  0  0
   11.4789   -0.2757   -1.0859 H   0  0  0  0  0  0  0  0  0  0  0  0
   13.5486    0.7155   -0.5315 H   0  0  0  0  0  0  0  0  0  0  0  0
   15.5934    1.7026    0.1807 H   0  0  0  0  0  0  0  0  0  0  0  0
   17.4976    1.6824    1.7521 H   0  0  0  0  0  0  0  0  0  0  0  0
   17.5375    0.0844    3.6466 H   0  0  0  0  0  0  0  0  0  0  0  0
   13.6931   -1.4267    2.4680 H   0  0  0  0  0  0  0  0  0  0  0  0
    9.2493   -0.4297   -1.9565 H   0  0  0  0  0  0  0  0  0  0  0  0
    6.8922    0.1826   -1.7857 H   0  0  0  0  0  0  0  0  0  0  0  0
    4.8183   -0.2581   -0.5213 H   0  0  0  0  0  0  0  0  0  0  0  0
    1.8230    2.3689    0.5133 H   0  0  0  0  0  0  0  0  0  0  0  0
  1  2  1  0  0  0  0
  1 29  1  0  0  0  0
  1 30  1  0  0  0  0
  1 31  1  0  0  0  0
  2  3  1  0  0  0  0
  2 28  1  0  0  0  0
  3  4  2  0  0  0  0
  4  5  1  0  0  0  0
  4  6  1  0  0  0  0
  5 32  1  0  0  0  0
  5 33  1  0  0  0  0
  6  7  1  0  0  0  0
  6 28  2  0  0  0  0
  7  8  1  0  0  0  0
  7 25  2  0  0  0  0
  8  9  1  0  0  0  0
  8 24  2  0  0  0  0
  9 10  2  0  0  0  0
  9 34  1  0  0  0  0
 10 11  1  0  0  0  0
 10 35  1  0  0  0  0
 11 12  1  0  0  0  0
 11 23  2  0  0  0  0
 12 13  1  0  0  0  0
 12 36  1  0  0  0  0
 13 14  2  0  0  0  0
 13 15  1  0  0  0  0
 15 16  1  0  0  0  0
 15 37  1  0  0  0  0
 16 17  1  0  0  0  0
 16 22  2  0  0  0  0
 17 18  2  0  0  0  0
 17 38  1  0  0  0  0
 18 19  1  0  0  0  0
 18 39  1  0  0  0  0
 19 20  2  0  0  0  0
 19 40  1  0  0  0  0
 20 21  1  0  0  0  0
 20 22  1  0  0  0  0
 22 41  1  0  0  0  0
 23 24  1  0  0  0  0
 23 42  1  0  0  0  0
 24 43  1  0  0  0  0
 25 26  1  0  0  0  0
 25 44  1  0  0  0  0
 26 27  2  0  0  0  0
 27 28  1  0  0  0  0
 27 45  1  0  0  0  0
M  END
$$$$
