CHEMBL2016929
 OpenBabel04072215363D

 52 56  0  0  0  0  0  0  0  0999 V2000
    1.9712    0.3181    1.2253 C   0  0  0  0  0  0  0  0  0  0  0  0
    2.8871    0.0914    0.1585 O   0  0  0  0  0  0  0  0  0  0  0  0
    3.2461    1.1861   -0.5782 C   0  0  0  0  0  0  0  0  0  0  0  0
    2.8595    2.4981   -0.3254 C   0  0  0  0  0  0  0  0  0  0  0  0
    3.2879    3.5364   -1.1627 C   0  0  0  0  0  0  0  0  0  0  0  0
    4.1123    3.2865   -2.2624 C   0  0  0  0  0  0  0  0  0  0  0  0
    4.5831    4.2935   -3.1425 N   0  0  0  0  0  0  0  0  0  0  0  0
    4.5091    5.6526   -2.9378 C   0  0  0  0  0  0  0  0  0  0  0  0
    4.0192    6.1672   -1.9321 O   0  0  0  0  0  0  0  0  0  0  0  0
    5.0510    6.4642   -3.9442 N   0  0  0  0  0  0  0  0  0  0  0  0
    5.3884    6.0006   -5.3182 C   0  0  0  0  0  0  0  0  0  0  0  0
    6.1653    6.9532   -6.2712 C   0  0  0  0  0  0  0  0  0  0  0  0
    6.2562    8.3231   -5.7396 C   0  0  0  0  0  0  0  0  0  0  0  0
    7.1647    9.2798   -6.1245 N   0  0  0  0  0  0  0  0  0  0  0  0
    7.1425   10.1834   -5.1438 C   0  0  0  0  0  0  0  0  0  0  0  0
    8.2401   10.8953   -4.5104 C   0  0  0  0  0  0  0  0  0  0  0  0
    9.4584   10.3812   -4.8053 C   0  0  0  0  0  0  0  0  0  0  0  0
    9.7233    9.1585   -3.9895 C   0  0  0  0  0  0  0  0  0  0  0  0
   10.1999    7.9958   -4.5968 C   0  0  0  0  0  0  0  0  0  0  0  0
   10.0807    6.7755   -3.9321 C   0  0  0  0  0  0  0  0  0  0  0  0
    9.5513    6.7240   -2.6390 C   0  0  0  0  0  0  0  0  0  0  0  0
    9.1578    7.8945   -1.9867 C   0  0  0  0  0  0  0  0  0  0  0  0
    9.2088    9.0982   -2.6822 C   0  0  0  0  0  0  0  0  0  0  0  0
    8.5722   10.2382   -2.1712 N   0  0  0  0  0  0  0  0  0  0  0  0
    8.0628   11.1902   -3.0301 C   0  0  0  0  0  0  0  0  0  0  0  0
    7.3456   12.1055   -2.6397 O   0  0  0  0  0  0  0  0  0  0  0  0
    5.9758   10.0224   -4.4148 N   0  0  0  0  0  0  0  0  0  0  0  0
    5.6097    8.7199   -4.6082 C   0  0  0  0  0  0  0  0  0  0  0  0
    4.8269    7.8949   -3.6805 C   0  0  0  0  0  0  0  0  0  0  0  0
    4.4972    1.9651   -2.5134 C   0  0  0  0  0  0  0  0  0  0  0  0
    4.0729    0.9267   -1.6723 C   0  0  0  0  0  0  0  0  0  0  0  0
    1.7499   -0.6467    1.6913 H   0  0  0  0  0  0  0  0  0  0  0  0
    1.0268    0.7325    0.8554 H   0  0  0  0  0  0  0  0  0  0  0  0
    2.4120    0.9644    1.9918 H   0  0  0  0  0  0  0  0  0  0  0  0
    2.2244    2.7606    0.5141 H   0  0  0  0  0  0  0  0  0  0  0  0
    2.9409    4.5357   -0.9210 H   0  0  0  0  0  0  0  0  0  0  0  0
    5.1389    3.9683   -3.9132 H   0  0  0  0  0  0  0  0  0  0  0  0
    4.4460    5.6981   -5.7912 H   0  0  0  0  0  0  0  0  0  0  0  0
    5.9871    5.0868   -5.2287 H   0  0  0  0  0  0  0  0  0  0  0  0
    5.6707    6.9648   -7.2499 H   0  0  0  0  0  0  0  0  0  0  0  0
    7.1728    6.5536   -6.4364 H   0  0  0  0  0  0  0  0  0  0  0  0
    9.7119   10.2148   -5.8529 H   0  0  0  0  0  0  0  0  0  0  0  0
   10.5524    8.0143   -5.6250 H   0  0  0  0  0  0  0  0  0  0  0  0
   10.3490    5.8574   -4.4486 H   0  0  0  0  0  0  0  0  0  0  0  0
    9.3995    5.7602   -2.1587 H   0  0  0  0  0  0  0  0  0  0  0  0
    8.7023    7.8308   -1.0029 H   0  0  0  0  0  0  0  0  0  0  0  0
    8.2716   10.2817   -1.2075 H   0  0  0  0  0  0  0  0  0  0  0  0
    5.7239   10.5795   -3.6165 H   0  0  0  0  0  0  0  0  0  0  0  0
    3.7588    8.1151   -3.7479 H   0  0  0  0  0  0  0  0  0  0  0  0
    5.1666    8.1028   -2.6581 H   0  0  0  0  0  0  0  0  0  0  0  0
    5.1434    1.7200   -3.3511 H   0  0  0  0  0  0  0  0  0  0  0  0
    4.3902   -0.0938   -1.8734 H   0  0  0  0  0  0  0  0  0  0  0  0
  1  2  1  0  0  0  0
  1 32  1  0  0  0  0
  1 33  1  0  0  0  0
  1 34  1  0  0  0  0
  2  3  1  0  0  0  0
  3  4  1  0  0  0  0
  3 31  2  0  0  0  0
  4  5  2  0  0  0  0
  4 35  1  0  0  0  0
  5  6  1  0  0  0  0
  5 36  1  0  0  0  0
  6  7  1  0  0  0  0
  6 30  2  0  0  0  0
  7  8  1  0  0  0  0
  7 37  1  0  0  0  0
  8  9  2  0  0  0  0
  8 10  1  0  0  0  0
 10 11  1  0  0  0  0
 10 29  1  0  0  0  0
 11 12  1  0  0  0  0
 11 38  1  0  0  0  0
 11 39  1  0  0  0  0
 12 13  1  0  0  0  0
 12 40  1  0  0  0  0
 12 41  1  0  0  0  0
 13 14  1  0  0  0  0
 13 28  2  0  0  0  0
 14 15  2  0  0  0  0
 15 16  1  0  0  0  0
 15 27  1  0  0  0  0
 16 17  2  0  0  0  0
 16 25  1  0  0  0  0
 17 18  1  0  0  0  0
 17 42  1  0  0  0  0
 18 19  1  0  0  0  0
 18 23  2  0  0  0  0
 19 20  2  0  0  0  0
 19 43  1  0  0  0  0
 20 21  1  0  0  0  0
 20 44  1  0  0  0  0
 21 22  2  0  0  0  0
 21 45  1  0  0  0  0
 22 23  1  0  0  0  0
 22 46  1  0  0  0  0
 23 24  1  0  0  0  0
 24 25  1  0  0  0  0
 24 47  1  0  0  0  0
 25 26  2  0  0  0  0
 27 28  1  0  0  0  0
 27 48  1  0  0  0  0
 28 29  1  0  0  0  0
 29 49  1  0  0  0  0
 29 50  1  0  0  0  0
 30 31  1  0  0  0  0
 30 51  1  0  0  0  0
 31 52  1  0  0  0  0
M  END
$$$$
