CHEMBL223997
 OpenBabel04072215363D

 58 62  0  0  0  0  0  0  0  0999 V2000
    6.9500   -7.1852    5.4777 C   0  0  0  0  0  0  0  0  0  0  0  0
    7.5260   -5.9889    4.7245 C   0  0  0  0  0  0  0  0  0  0  0  0
    6.4529   -4.9484    4.3845 C   0  0  0  0  0  0  0  0  0  0  0  0
    6.9573   -3.8416    3.5554 C   0  0  0  0  0  0  0  0  0  0  0  0
    7.3499   -2.9332    2.8728 C   0  0  0  0  0  0  0  0  0  0  0  0
    7.8262   -1.8242    2.0803 C   0  0  0  0  0  0  0  0  0  0  0  0
    9.1576   -1.5133    1.8760 C   0  0  0  0  0  0  0  0  0  0  0  0
    9.3802   -0.3495    1.0208 C   0  0  0  0  0  0  0  0  0  0  0  0
   10.8062    0.0730    0.7063 C   0  0  0  0  0  0  0  0  0  0  0  0
   11.7407   -0.3954    1.5613 N   0  0  0  0  0  0  0  0  0  0  0  0
   12.2944   -1.3841    0.8127 N   0  0  0  0  0  0  0  0  0  0  0  0
   11.9441   -1.2787   -0.5084 C   0  0  0  0  0  0  0  0  0  0  0  0
   11.4602    0.0406   -0.5855 C   0  0  0  0  0  0  0  0  0  0  0  0
   11.1081    0.3291   -2.0126 C   0  0  0  0  0  0  0  0  0  0  0  0
   10.4995   -1.0378   -2.2850 C   0  0  0  0  0  0  0  0  0  0  0  0
    9.2412   -1.1151   -2.8617 C   0  0  0  0  0  0  0  0  0  0  0  0
    8.3849   -2.0870   -2.3557 C   0  0  0  0  0  0  0  0  0  0  0  0
    6.9010   -1.7370   -2.2660 C   0  0  0  0  0  0  0  0  0  0  0  0
    6.2803   -1.1270   -3.4479 N   0  0  0  0  0  0  0  0  0  0  0  0
    6.1546   -2.1006   -4.5383 C   0  0  0  0  0  0  0  0  0  0  0  0
    5.4173   -1.4825   -5.7432 C   0  0  0  0  0  0  0  0  0  0  0  0
    4.0537   -1.0020   -5.4425 N   0  0  0  0  0  0  0  0  0  0  0  0
    3.1383   -2.1116   -5.1825 C   0  0  0  0  0  0  0  0  0  0  0  0
    4.1191   -0.0767   -4.2931 C   0  0  0  0  0  0  0  0  0  0  0  0
    4.9442   -0.5900   -3.0852 C   0  0  0  0  0  0  0  0  0  0  0  0
    8.9148   -3.1395   -1.5594 C   0  0  0  0  0  0  0  0  0  0  0  0
   10.2554   -3.1378   -1.1041 C   0  0  0  0  0  0  0  0  0  0  0  0
   11.0364   -2.0338   -1.4086 C   0  0  0  0  0  0  0  0  0  0  0  0
    8.1731    0.1480    0.5868 C   0  0  0  0  0  0  0  0  0  0  0  0
    6.8251   -0.6970    1.2873 S   0  0  0  0  0  0  0  0  0  0  0  0
    7.7392   -7.9104    5.7044 H   0  0  0  0  0  0  0  0  0  0  0  0
    6.1880   -7.6958    4.8796 H   0  0  0  0  0  0  0  0  0  0  0  0
    6.4932   -6.8773    6.4237 H   0  0  0  0  0  0  0  0  0  0  0  0
    8.0058   -6.3492    3.8072 H   0  0  0  0  0  0  0  0  0  0  0  0
    8.3112   -5.5282    5.3357 H   0  0  0  0  0  0  0  0  0  0  0  0
    6.0302   -4.5542    5.3196 H   0  0  0  0  0  0  0  0  0  0  0  0
    5.6241   -5.4486    3.8599 H   0  0  0  0  0  0  0  0  0  0  0  0
    9.9525   -2.1013    2.2968 H   0  0  0  0  0  0  0  0  0  0  0  0
   13.0677   -1.8966    1.2204 H   0  0  0  0  0  0  0  0  0  0  0  0
   12.0185    0.4340   -2.6215 H   0  0  0  0  0  0  0  0  0  0  0  0
   10.4393    1.1725   -2.1699 H   0  0  0  0  0  0  0  0  0  0  0  0
    8.8438   -0.2580   -3.4012 H   0  0  0  0  0  0  0  0  0  0  0  0
    6.8669   -0.9597   -1.4985 H   0  0  0  0  0  0  0  0  0  0  0  0
    6.3199   -2.5822   -1.8833 H   0  0  0  0  0  0  0  0  0  0  0  0
    5.6297   -3.0007   -4.1946 H   0  0  0  0  0  0  0  0  0  0  0  0
    7.1495   -2.4141   -4.8725 H   0  0  0  0  0  0  0  0  0  0  0  0
    5.3895   -2.2049   -6.5666 H   0  0  0  0  0  0  0  0  0  0  0  0
    6.0043   -0.6317   -6.1165 H   0  0  0  0  0  0  0  0  0  0  0  0
    3.1884   -2.8515   -5.9892 H   0  0  0  0  0  0  0  0  0  0  0  0
    2.1061   -1.7464   -5.1567 H   0  0  0  0  0  0  0  0  0  0  0  0
    3.3363   -2.6294   -4.2383 H   0  0  0  0  0  0  0  0  0  0  0  0
    3.1056    0.1837   -3.9597 H   0  0  0  0  0  0  0  0  0  0  0  0
    4.5625    0.8651   -4.6420 H   0  0  0  0  0  0  0  0  0  0  0  0
    4.3587   -1.3568   -2.5608 H   0  0  0  0  0  0  0  0  0  0  0  0
    5.0672    0.2474   -2.3853 H   0  0  0  0  0  0  0  0  0  0  0  0
    8.2314   -3.8812   -1.1466 H   0  0  0  0  0  0  0  0  0  0  0  0
   10.5512   -3.8509   -0.3402 H   0  0  0  0  0  0  0  0  0  0  0  0
    7.9727    0.9617   -0.0917 H   0  0  0  0  0  0  0  0  0  0  0  0
  1  2  1  0  0  0  0
  1 31  1  0  0  0  0
  1 32  1  0  0  0  0
  1 33  1  0  0  0  0
  2  3  1  0  0  0  0
  2 34  1  0  0  0  0
  2 35  1  0  0  0  0
  3  4  1  0  0  0  0
  3 36  1  0  0  0  0
  3 37  1  0  0  0  0
  4  5  3  0  0  0  0
  5  6  1  0  0  0  0
  6  7  2  0  0  0  0
  6 30  1  0  0  0  0
  7  8  1  0  0  0  0
  7 38  1  0  0  0  0
  8  9  1  0  0  0  0
  8 29  2  0  0  0  0
  9 10  2  0  0  0  0
  9 13  1  0  0  0  0
 10 11  1  0  0  0  0
 11 12  1  0  0  0  0
 11 39  1  0  0  0  0
 12 13  2  0  0  0  0
 12 28  1  0  0  0  0
 13 14  1  0  0  0  0
 14 15  1  0  0  0  0
 14 40  1  0  0  0  0
 14 41  1  0  0  0  0
 15 16  1  0  0  0  0
 15 28  2  0  0  0  0
 16 17  2  0  0  0  0
 16 42  1  0  0  0  0
 17 18  1  0  0  0  0
 17 26  1  0  0  0  0
 18 19  1  0  0  0  0
 18 43  1  0  0  0  0
 18 44  1  0  0  0  0
 19 20  1  0  0  0  0
 19 25  1  0  0  0  0
 20 21  1  0  0  0  0
 20 45  1  0  0  0  0
 20 46  1  0  0  0  0
 21 22  1  0  0  0  0
 21 47  1  0  0  0  0
 21 48  1  0  0  0  0
 22 23  1  0  0  0  0
 22 24  1  0  0  0  0
 23 49  1  0  0  0  0
 23 50  1  0  0  0  0
 23 51  1  0  0  0  0
 24 25  1  0  0  0  0
 24 52  1  0  0  0  0
 24 53  1  0  0  0  0
 25 54  1  0  0  0  0
 25 55  1  0  0  0  0
 26 27  2  0  0  0  0
 26 56  1  0  0  0  0
 27 28  1  0  0  0  0
 27 57  1  0  0  0  0
 29 30  1  0  0  0  0
 29 58  1  0  0  0  0
M  END
$$$$
