CHEMBL3577119
 OpenBabel04072215363D

 57 59  0  0  0  0  0  0  0  0999 V2000
    2.4239   -1.4755   -0.1113 C   0  0  0  0  0  0  0  0  0  0  0  0
    3.3834   -0.3954   -0.1663 N   0  0  0  0  0  0  0  0  0  0  0  0
    3.9549   -0.0675    1.0553 C   0  0  0  0  0  0  0  0  0  0  0  0
    4.0990   -1.0110    1.9926 N   0  0  0  0  0  0  0  0  0  0  0  0
    4.6402   -0.6238    3.1486 C   0  0  0  0  0  0  0  0  0  0  0  0
    5.0413    0.6685    3.3969 C   0  0  0  0  0  0  0  0  0  0  0  0
    5.5978    1.0800    4.6125 C   0  0  0  0  0  0  0  0  0  0  0  0
    6.0387    2.3954    4.8073 C   0  0  0  0  0  0  0  0  0  0  0  0
    6.6742    2.7418    6.1054 C   0  0  0  0  0  0  0  0  0  0  0  0
    6.4997    3.9829    6.7451 C   0  0  0  0  0  0  0  0  0  0  0  0
    7.1641    4.2875    7.9393 C   0  0  0  0  0  0  0  0  0  0  0  0
    7.9876    3.3425    8.5322 C   0  0  0  0  0  0  0  0  0  0  0  0
    8.5871    3.6450    9.6910 F   0  0  0  0  0  0  0  0  0  0  0  0
    8.1409    2.0817    7.9556 C   0  0  0  0  0  0  0  0  0  0  0  0
    8.9461    1.0857    8.5223 N   0  0  0  0  0  0  0  0  0  0  0  0
   10.2306    1.2292    8.9656 C   0  0  0  0  0  0  0  0  0  0  0  0
   10.7570    0.3486    9.6389 O   0  0  0  0  0  0  0  0  0  0  0  0
   10.8893    2.3289    8.4930 N   0  0  0  0  0  0  0  0  0  0  0  0
   12.2571    2.6276    8.8243 C   0  0  0  0  0  0  0  0  0  0  0  0
   13.2584    1.6907    8.1444 C   0  0  0  0  0  0  0  0  0  0  0  0
   14.7387    1.9781    8.5076 C   0  0  0  0  0  0  0  0  0  0  0  0
   14.9713    1.8302   10.0216 C   0  0  0  0  0  0  0  0  0  0  0  0
   15.6336    0.9590    7.7787 C   0  0  0  0  0  0  0  0  0  0  0  0
   15.1425    3.3931    8.0614 C   0  0  0  0  0  0  0  0  0  0  0  0
    7.4812    1.7893    6.7635 C   0  0  0  0  0  0  0  0  0  0  0  0
    5.8680    3.2442    3.6998 C   0  0  0  0  0  0  0  0  0  0  0  0
    6.3015    4.6807    3.6526 C   0  0  0  0  0  0  0  0  0  0  0  0
    5.2768    2.8403    2.5328 N   0  0  0  0  0  0  0  0  0  0  0  0
    4.8708    1.5727    2.3653 C   0  0  0  0  0  0  0  0  0  0  0  0
    4.3200    1.2092    1.2097 N   0  0  0  0  0  0  0  0  0  0  0  0
    1.9878   -1.6228   -1.1041 H   0  0  0  0  0  0  0  0  0  0  0  0
    1.6065   -1.2542    0.5840 H   0  0  0  0  0  0  0  0  0  0  0  0
    2.8969   -2.4213    0.1770 H   0  0  0  0  0  0  0  0  0  0  0  0
    3.0584    0.4715   -0.5786 H   0  0  0  0  0  0  0  0  0  0  0  0
    4.7543   -1.4123    3.8879 H   0  0  0  0  0  0  0  0  0  0  0  0
    5.6864    0.3432    5.4087 H   0  0  0  0  0  0  0  0  0  0  0  0
    5.8417    4.7402    6.3259 H   0  0  0  0  0  0  0  0  0  0  0  0
    7.0358    5.2558    8.4159 H   0  0  0  0  0  0  0  0  0  0  0  0
    8.6296    0.1253    8.5203 H   0  0  0  0  0  0  0  0  0  0  0  0
   10.4455    2.8835    7.7793 H   0  0  0  0  0  0  0  0  0  0  0  0
   12.3368    2.5726    9.9147 H   0  0  0  0  0  0  0  0  0  0  0  0
   12.4184    3.6624    8.5150 H   0  0  0  0  0  0  0  0  0  0  0  0
   13.1257    1.7580    7.0562 H   0  0  0  0  0  0  0  0  0  0  0  0
   13.0243    0.6501    8.4050 H   0  0  0  0  0  0  0  0  0  0  0  0
   14.7038    0.8237   10.3632 H   0  0  0  0  0  0  0  0  0  0  0  0
   14.3812    2.5476   10.6007 H   0  0  0  0  0  0  0  0  0  0  0  0
   16.0216    2.0029   10.2780 H   0  0  0  0  0  0  0  0  0  0  0  0
   15.4079   -0.0653    8.0965 H   0  0  0  0  0  0  0  0  0  0  0  0
   16.6935    1.1445    7.9876 H   0  0  0  0  0  0  0  0  0  0  0  0
   15.4939    1.0112    6.6934 H   0  0  0  0  0  0  0  0  0  0  0  0
   14.5763    4.1654    8.5913 H   0  0  0  0  0  0  0  0  0  0  0  0
   14.9735    3.5292    6.9872 H   0  0  0  0  0  0  0  0  0  0  0  0
   16.2037    3.5815    8.2590 H   0  0  0  0  0  0  0  0  0  0  0  0
    7.6690    0.8173    6.3079 H   0  0  0  0  0  0  0  0  0  0  0  0
    7.0648    4.9363    4.3889 H   0  0  0  0  0  0  0  0  0  0  0  0
    5.4314    5.3321    3.7918 H   0  0  0  0  0  0  0  0  0  0  0  0
    6.7408    4.9042    2.6732 H   0  0  0  0  0  0  0  0  0  0  0  0
  1  2  1  0  0  0  0
  1 31  1  0  0  0  0
  1 32  1  0  0  0  0
  1 33  1  0  0  0  0
  2  3  1  0  0  0  0
  2 34  1  0  0  0  0
  3  4  1  0  0  0  0
  3 30  2  0  0  0  0
  4  5  2  0  0  0  0
  5  6  1  0  0  0  0
  5 35  1  0  0  0  0
  6  7  1  0  0  0  0
  6 29  2  0  0  0  0
  7  8  2  0  0  0  0
  7 36  1  0  0  0  0
  8  9  1  0  0  0  0
  8 26  1  0  0  0  0
  9 10  1  0  0  0  0
  9 25  2  0  0  0  0
 10 11  2  0  0  0  0
 10 37  1  0  0  0  0
 11 12  1  0  0  0  0
 11 38  1  0  0  0  0
 12 13  1  0  0  0  0
 12 14  2  0  0  0  0
 14 15  1  0  0  0  0
 14 25  1  0  0  0  0
 15 16  1  0  0  0  0
 15 39  1  0  0  0  0
 16 17  2  0  0  0  0
 16 18  1  0  0  0  0
 18 19  1  0  0  0  0
 18 40  1  0  0  0  0
 19 20  1  0  0  0  0
 19 41  1  0  0  0  0
 19 42  1  0  0  0  0
 20 21  1  0  0  0  0
 20 43  1  0  0  0  0
 20 44  1  0  0  0  0
 21 22  1  0  0  0  0
 21 23  1  0  0  0  0
 21 24  1  0  0  0  0
 22 45  1  0  0  0  0
 22 46  1  0  0  0  0
 22 47  1  0  0  0  0
 23 48  1  0  0  0  0
 23 49  1  0  0  0  0
 23 50  1  0  0  0  0
 24 51  1  0  0  0  0
 24 52  1  0  0  0  0
 24 53  1  0  0  0  0
 25 54  1  0  0  0  0
 26 27  1  0  0  0  0
 26 28  2  0  0  0  0
 27 55  1  0  0  0  0
 27 56  1  0  0  0  0
 27 57  1  0  0  0  0
 28 29  1  0  0  0  0
 29 30  1  0  0  0  0
M  END
$$$$
