CHEMBL3644553
 OpenBabel04072215373D

 59 62  0  0  0  0  0  0  0  0999 V2000
    8.4658   -0.7699    2.8101 C   0  0  0  0  0  0  0  0  0  0  0  0
    8.7107   -0.2093    1.5167 O   0  0  0  0  0  0  0  0  0  0  0  0
    8.5250   -1.0945    0.5064 C   0  0  0  0  0  0  0  0  0  0  0  0
    8.1951   -2.2643    0.6405 O   0  0  0  0  0  0  0  0  0  0  0  0
    8.7152   -0.4346   -0.8031 C   0  0  0  0  0  0  0  0  0  0  0  0
    9.6512    0.5830   -0.9402 C   0  0  0  0  0  0  0  0  0  0  0  0
    9.9368    1.1991   -2.1138 N   0  0  0  0  0  0  0  0  0  0  0  0
    9.2719    0.7617   -3.2070 C   0  0  0  0  0  0  0  0  0  0  0  0
    8.3117   -0.2472   -3.1909 C   0  0  0  0  0  0  0  0  0  0  0  0
    7.9983   -0.8349   -1.9461 C   0  0  0  0  0  0  0  0  0  0  0  0
    6.9356   -1.9077   -1.8766 C   0  0  0  0  0  0  0  0  0  0  0  0
    5.9975   -1.8547   -3.0764 C   0  0  0  0  0  0  0  0  0  0  0  0
    6.7779   -1.8311   -4.3072 N   0  0  0  0  0  0  0  0  0  0  0  0
    6.9144   -2.9571   -5.1013 C   0  0  0  0  0  0  0  0  0  0  0  0
    7.1135   -2.8288   -6.4865 C   0  0  0  0  0  0  0  0  0  0  0  0
    7.2125   -3.9434   -7.3220 C   0  0  0  0  0  0  0  0  0  0  0  0
    7.1218   -5.2193   -6.7825 C   0  0  0  0  0  0  0  0  0  0  0  0
    6.9313   -5.3888   -5.4062 C   0  0  0  0  0  0  0  0  0  0  0  0
    6.9155   -6.7834   -4.8850 C   0  0  0  0  0  0  0  0  0  0  0  0
    7.6271   -7.5927   -5.4727 O   0  0  0  0  0  0  0  0  0  0  0  0
    6.0396   -7.0627   -3.8417 N   0  0  0  0  0  0  0  0  0  0  0  0
    5.7856   -8.3642   -3.3283 C   0  0  0  0  0  0  0  0  0  0  0  0
    6.6303   -9.4496   -3.5740 C   0  0  0  0  0  0  0  0  0  0  0  0
    6.2904  -10.7343   -3.1512 C   0  0  0  0  0  0  0  0  0  0  0  0
    5.0991  -10.9518   -2.4693 C   0  0  0  0  0  0  0  0  0  0  0  0
    4.2416   -9.8831   -2.1740 C   0  0  0  0  0  0  0  0  0  0  0  0
    2.9235  -10.1849   -1.4782 C   0  0  0  0  0  0  0  0  0  0  0  0
    2.8336   -9.5479   -0.0924 C   0  0  0  0  0  0  0  0  0  0  0  0
    1.7247   -9.7950   -2.3458 C   0  0  0  0  0  0  0  0  0  0  0  0
    4.6131   -8.5831   -2.5834 C   0  0  0  0  0  0  0  0  0  0  0  0
    6.8313   -4.2633   -4.5777 C   0  0  0  0  0  0  0  0  0  0  0  0
    7.6404   -0.6564   -4.4876 C   0  0  0  0  0  0  0  0  0  0  0  0
    8.6292    0.0114    3.5558 H   0  0  0  0  0  0  0  0  0  0  0  0
    9.1580   -1.5937    3.0082 H   0  0  0  0  0  0  0  0  0  0  0  0
    7.4272   -1.1097    2.8868 H   0  0  0  0  0  0  0  0  0  0  0  0
   10.2337    0.9400   -0.0951 H   0  0  0  0  0  0  0  0  0  0  0  0
    9.5487    1.2662   -4.1313 H   0  0  0  0  0  0  0  0  0  0  0  0
    6.3237   -1.7803   -0.9778 H   0  0  0  0  0  0  0  0  0  0  0  0
    7.4342   -2.8827   -1.8286 H   0  0  0  0  0  0  0  0  0  0  0  0
    5.3924   -0.9390   -3.0334 H   0  0  0  0  0  0  0  0  0  0  0  0
    5.2802   -2.6830   -3.0469 H   0  0  0  0  0  0  0  0  0  0  0  0
    7.1603   -1.8433   -6.9440 H   0  0  0  0  0  0  0  0  0  0  0  0
    7.3570   -3.8131   -8.3916 H   0  0  0  0  0  0  0  0  0  0  0  0
    7.2099   -6.0875   -7.4334 H   0  0  0  0  0  0  0  0  0  0  0  0
    5.3976   -6.3342   -3.5607 H   0  0  0  0  0  0  0  0  0  0  0  0
    7.5713   -9.3329   -4.1019 H   0  0  0  0  0  0  0  0  0  0  0  0
    6.9519  -11.5661   -3.3789 H   0  0  0  0  0  0  0  0  0  0  0  0
    4.8401  -11.9689   -2.1836 H   0  0  0  0  0  0  0  0  0  0  0  0
    2.8553  -11.2713   -1.3262 H   0  0  0  0  0  0  0  0  0  0  0  0
    2.8854   -8.4560   -0.1394 H   0  0  0  0  0  0  0  0  0  0  0  0
    3.6486   -9.8978    0.5511 H   0  0  0  0  0  0  0  0  0  0  0  0
    1.8892   -9.8199    0.3934 H   0  0  0  0  0  0  0  0  0  0  0  0
    1.6684   -8.7145   -2.5121 H   0  0  0  0  0  0  0  0  0  0  0  0
    0.7881  -10.1089   -1.8700 H   0  0  0  0  0  0  0  0  0  0  0  0
    1.7775  -10.2829   -3.3263 H   0  0  0  0  0  0  0  0  0  0  0  0
    3.9510   -7.7505   -2.3607 H   0  0  0  0  0  0  0  0  0  0  0  0
    6.7534   -4.4125   -3.5057 H   0  0  0  0  0  0  0  0  0  0  0  0
    7.0240    0.1790   -4.8428 H   0  0  0  0  0  0  0  0  0  0  0  0
    8.4258   -0.8388   -5.2318 H   0  0  0  0  0  0  0  0  0  0  0  0
  1  2  1  0  0  0  0
  1 33  1  0  0  0  0
  1 34  1  0  0  0  0
  1 35  1  0  0  0  0
  2  3  1  0  0  0  0
  3  4  2  0  0  0  0
  3  5  1  0  0  0  0
  5  6  1  0  0  0  0
  5 10  2  0  0  0  0
  6  7  2  0  0  0  0
  6 36  1  0  0  0  0
  7  8  1  0  0  0  0
  8  9  2  0  0  0  0
  8 37  1  0  0  0  0
  9 10  1  0  0  0  0
  9 32  1  0  0  0  0
 10 11  1  0  0  0  0
 11 12  1  0  0  0  0
 11 38  1  0  0  0  0
 11 39  1  0  0  0  0
 12 13  1  0  0  0  0
 12 40  1  0  0  0  0
 12 41  1  0  0  0  0
 13 14  1  0  0  0  0
 13 32  1  0  0  0  0
 14 15  1  0  0  0  0
 14 31  2  0  0  0  0
 15 16  2  0  0  0  0
 15 42  1  0  0  0  0
 16 17  1  0  0  0  0
 16 43  1  0  0  0  0
 17 18  2  0  0  0  0
 17 44  1  0  0  0  0
 18 19  1  0  0  0  0
 18 31  1  0  0  0  0
 19 20  2  0  0  0  0
 19 21  1  0  0  0  0
 21 22  1  0  0  0  0
 21 45  1  0  0  0  0
 22 23  1  0  0  0  0
 22 30  2  0  0  0  0
 23 24  2  0  0  0  0
 23 46  1  0  0  0  0
 24 25  1  0  0  0  0
 24 47  1  0  0  0  0
 25 26  2  0  0  0  0
 25 48  1  0  0  0  0
 26 27  1  0  0  0  0
 26 30  1  0  0  0  0
 27 28  1  0  0  0  0
 27 29  1  0  0  0  0
 27 49  1  0  0  0  0
 28 50  1  0  0  0  0
 28 51  1  0  0  0  0
 28 52  1  0  0  0  0
 29 53  1  0  0  0  0
 29 54  1  0  0  0  0
 29 55  1  0  0  0  0
 30 56  1  0  0  0  0
 31 57  1  0  0  0  0
 32 58  1  0  0  0  0
 32 59  1  0  0  0  0
M  END
$$$$
