CHEMBL4644718
 OpenBabel04072215383D

 77 82  0  0  0  0  0  0  0  0999 V2000
    1.1705    0.9448   -1.0851 C   0  0  0  0  0  0  0  0  0  0  0  0
    2.5774    0.7680   -0.8983 O   0  0  0  0  0  0  0  0  0  0  0  0
    3.0867    1.4767    0.1400 C   0  0  0  0  0  0  0  0  0  0  0  0
    2.4472    2.1994    0.8895 O   0  0  0  0  0  0  0  0  0  0  0  0
    4.5624    1.2941    0.2465 C   0  0  0  0  0  0  0  0  0  0  0  0
    5.2984    0.4635   -0.6293 C   0  0  0  0  0  0  0  0  0  0  0  0
    6.7001    0.3615   -0.5326 C   0  0  0  0  0  0  0  0  0  0  0  0
    7.3569    1.1081    0.4317 C   0  0  0  0  0  0  0  0  0  0  0  0
    6.6059    1.9118    1.3036 C   0  0  0  0  0  0  0  0  0  0  0  0
    5.2289    2.0167    1.2439 C   0  0  0  0  0  0  0  0  0  0  0  0
    7.4395    2.6167    2.1654 N   0  0  0  0  0  0  0  0  0  0  0  0
    8.7673    2.3985    1.8528 C   0  0  0  0  0  0  0  0  0  0  0  0
    9.7180    3.0820    2.1897 O   0  0  0  0  0  0  0  0  0  0  0  0
    8.7665    1.2942    0.8306 C   0  0  0  0  0  0  0  0  0  0  0  0
    9.9359    0.7239    0.4561 C   0  0  0  0  0  0  0  0  0  0  0  0
   11.1927    0.8630    1.0610 N   0  0  0  0  0  0  0  0  0  0  0  0
   11.3842    0.5993    2.4518 C   0  0  0  0  0  0  0  0  0  0  0  0
   10.7350   -0.4558    3.0993 C   0  0  0  0  0  0  0  0  0  0  0  0
   10.8826   -0.6603    4.4786 C   0  0  0  0  0  0  0  0  0  0  0  0
   11.7352    0.1501    5.2374 C   0  0  0  0  0  0  0  0  0  0  0  0
   11.8105   -0.0082    6.6646 N   0  0  0  0  0  0  0  0  0  0  0  0
   11.7402   -1.2160    7.3764 C   0  0  0  0  0  0  0  0  0  0  0  0
   11.6948   -2.5898    6.7965 C   0  0  0  0  0  0  0  0  0  0  0  0
   11.7822   -0.9354    8.7290 C   0  0  0  0  0  0  0  0  0  0  0  0
   11.9011    0.4495    8.8809 C   0  0  0  0  0  0  0  0  0  0  0  0
   11.8749    1.0213    7.6208 C   0  0  0  0  0  0  0  0  0  0  0  0
   11.7525    2.4969    7.3532 C   0  0  0  0  0  0  0  0  0  0  0  0
   10.6013    2.8112    6.5157 N   0  0  0  0  0  0  0  0  0  0  0  0
    9.3110    2.4198    7.0976 C   0  0  0  0  0  0  0  0  0  0  0  0
    8.1743    2.6419    6.0751 C   0  0  0  0  0  0  0  0  0  0  0  0
    8.0453    4.0275    5.5777 N   0  0  0  0  0  0  0  0  0  0  0  0
    7.4567    4.9012    6.5859 C   0  0  0  0  0  0  0  0  0  0  0  0
    9.3793    4.5197    5.1618 C   0  0  0  0  0  0  0  0  0  0  0  0
   10.5610    4.2242    6.1184 C   0  0  0  0  0  0  0  0  0  0  0  0
   12.4631    1.1461    4.5760 C   0  0  0  0  0  0  0  0  0  0  0  0
   12.2903    1.3647    3.1983 C   0  0  0  0  0  0  0  0  0  0  0  0
   10.0032   -0.0448   -0.7981 C   0  0  0  0  0  0  0  0  0  0  0  0
   10.2481    0.6475   -1.9945 C   0  0  0  0  0  0  0  0  0  0  0  0
   10.3689   -0.0472   -3.1952 C   0  0  0  0  0  0  0  0  0  0  0  0
   10.2416   -1.4344   -3.2062 C   0  0  0  0  0  0  0  0  0  0  0  0
   10.0009   -2.1288   -2.0190 C   0  0  0  0  0  0  0  0  0  0  0  0
    9.8870   -1.4369   -0.8132 C   0  0  0  0  0  0  0  0  0  0  0  0
    0.8292    0.2107   -1.8223 H   0  0  0  0  0  0  0  0  0  0  0  0
    0.9677    1.9477   -1.4741 H   0  0  0  0  0  0  0  0  0  0  0  0
    0.6220    0.7748   -0.1536 H   0  0  0  0  0  0  0  0  0  0  0  0
    4.7889   -0.1049   -1.4058 H   0  0  0  0  0  0  0  0  0  0  0  0
    7.2371   -0.2796   -1.2232 H   0  0  0  0  0  0  0  0  0  0  0  0
    4.6853    2.6596    1.9295 H   0  0  0  0  0  0  0  0  0  0  0  0
    7.1547    3.3265    2.8295 H   0  0  0  0  0  0  0  0  0  0  0  0
   11.5551    1.7977    0.8672 H   0  0  0  0  0  0  0  0  0  0  0  0
   10.0731   -1.1123    2.5437 H   0  0  0  0  0  0  0  0  0  0  0  0
   10.2662   -1.4237    4.9416 H   0  0  0  0  0  0  0  0  0  0  0  0
   11.9551   -2.6425    5.7394 H   0  0  0  0  0  0  0  0  0  0  0  0
   10.6969   -3.0193    6.9415 H   0  0  0  0  0  0  0  0  0  0  0  0
   12.4105   -3.2337    7.3199 H   0  0  0  0  0  0  0  0  0  0  0  0
   11.7329   -1.6707    9.5223 H   0  0  0  0  0  0  0  0  0  0  0  0
   11.9282    0.9950    9.8159 H   0  0  0  0  0  0  0  0  0  0  0  0
   12.6842    2.8489    6.8963 H   0  0  0  0  0  0  0  0  0  0  0  0
   11.6743    3.0352    8.3082 H   0  0  0  0  0  0  0  0  0  0  0  0
    9.1047    2.9692    8.0213 H   0  0  0  0  0  0  0  0  0  0  0  0
    9.2974    1.3564    7.3600 H   0  0  0  0  0  0  0  0  0  0  0  0
    7.2234    2.3029    6.5059 H   0  0  0  0  0  0  0  0  0  0  0  0
    8.3532    1.9851    5.2130 H   0  0  0  0  0  0  0  0  0  0  0  0
    6.4737    4.5256    6.8898 H   0  0  0  0  0  0  0  0  0  0  0  0
    7.2911    5.8992    6.1655 H   0  0  0  0  0  0  0  0  0  0  0  0
    8.0766    5.0073    7.4822 H   0  0  0  0  0  0  0  0  0  0  0  0
    9.3388    5.5935    4.9434 H   0  0  0  0  0  0  0  0  0  0  0  0
    9.6141    4.0441    4.2126 H   0  0  0  0  0  0  0  0  0  0  0  0
   10.4928    4.8741    6.9998 H   0  0  0  0  0  0  0  0  0  0  0  0
   11.4887    4.4826    5.5931 H   0  0  0  0  0  0  0  0  0  0  0  0
   13.1674    1.7781    5.1049 H   0  0  0  0  0  0  0  0  0  0  0  0
   12.8344    2.1808    2.7292 H   0  0  0  0  0  0  0  0  0  0  0  0
   10.3660    1.7291   -1.9886 H   0  0  0  0  0  0  0  0  0  0  0  0
   10.5766    0.4934   -4.1150 H   0  0  0  0  0  0  0  0  0  0  0  0
   10.3465   -1.9784   -4.1409 H   0  0  0  0  0  0  0  0  0  0  0  0
    9.9176   -3.2123   -2.0308 H   0  0  0  0  0  0  0  0  0  0  0  0
    9.7203   -1.9824    0.1111 H   0  0  0  0  0  0  0  0  0  0  0  0
  1  2  1  0  0  0  0
  1 43  1  0  0  0  0
  1 44  1  0  0  0  0
  1 45  1  0  0  0  0
  2  3  1  0  0  0  0
  3  4  2  0  0  0  0
  3  5  1  0  0  0  0
  5  6  1  0  0  0  0
  5 10  2  0  0  0  0
  6  7  2  0  0  0  0
  6 46  1  0  0  0  0
  7  8  1  0  0  0  0
  7 47  1  0  0  0  0
  8  9  2  0  0  0  0
  8 14  1  0  0  0  0
  9 10  1  0  0  0  0
  9 11  1  0  0  0  0
 10 48  1  0  0  0  0
 11 12  1  0  0  0  0
 11 49  1  0  0  0  0
 12 13  2  0  0  0  0
 12 14  1  0  0  0  0
 14 15  2  0  0  0  0
 15 16  1  0  0  0  0
 15 37  1  0  0  0  0
 16 17  1  0  0  0  0
 16 50  1  0  0  0  0
 17 18  1  0  0  0  0
 17 36  2  0  0  0  0
 18 19  2  0  0  0  0
 18 51  1  0  0  0  0
 19 20  1  0  0  0  0
 19 52  1  0  0  0  0
 20 21  1  0  0  0  0
 20 35  2  0  0  0  0
 21 22  1  0  0  0  0
 21 26  1  0  0  0  0
 22 23  1  0  0  0  0
 22 24  2  0  0  0  0
 23 53  1  0  0  0  0
 23 54  1  0  0  0  0
 23 55  1  0  0  0  0
 24 25  1  0  0  0  0
 24 56  1  0  0  0  0
 25 26  2  0  0  0  0
 25 57  1  0  0  0  0
 26 27  1  0  0  0  0
 27 28  1  0  0  0  0
 27 58  1  0  0  0  0
 27 59  1  0  0  0  0
 28 29  1  0  0  0  0
 28 34  1  0  0  0  0
 29 30  1  0  0  0  0
 29 60  1  0  0  0  0
 29 61  1  0  0  0  0
 30 31  1  0  0  0  0
 30 62  1  0  0  0  0
 30 63  1  0  0  0  0
 31 32  1  0  0  0  0
 31 33  1  0  0  0  0
 32 64  1  0  0  0  0
 32 65  1  0  0  0  0
 32 66  1  0  0  0  0
 33 34  1  0  0  0  0
 33 67  1  0  0  0  0
 33 68  1  0  0  0  0
 34 69  1  0  0  0  0
 34 70  1  0  0  0  0
 35 36  1  0  0  0  0
 35 71  1  0  0  0  0
 36 72  1  0  0  0  0
 37 38  1  0  0  0  0
 37 42  2  0  0  0  0
 38 39  2  0  0  0  0
 38 73  1  0  0  0  0
 39 40  1  0  0  0  0
 39 74  1  0  0  0  0
 40 41  2  0  0  0  0
 40 75  1  0  0  0  0
 41 42  1  0  0  0  0
 41 76  1  0  0  0  0
 42 77  1  0  0  0  0
M  END
$$$$
