CHEMBL379661
 OpenBabel04072215373D

 41 43  0  0  0  0  0  0  0  0999 V2000
    4.1041   -0.7270   -6.2556 C   0  0  0  0  0  0  0  0  0  0  0  0
    4.6398   -0.2323   -5.0299 O   0  0  0  0  0  0  0  0  0  0  0  0
    4.4805   -1.2473   -4.0590 N   0  0  0  0  0  0  0  0  0  0  0  0
    5.5796   -2.0578   -3.8638 C   0  0  0  0  0  0  0  0  0  0  0  0
    6.6098   -2.0205   -4.5283 O   0  0  0  0  0  0  0  0  0  0  0  0
    5.4506   -3.0464   -2.7581 C   0  0  0  0  0  0  0  0  0  0  0  0
    4.1983   -3.5081   -2.3356 C   0  0  0  0  0  0  0  0  0  0  0  0
    4.1153   -4.4606   -1.3216 C   0  0  0  0  0  0  0  0  0  0  0  0
    5.2783   -4.9755   -0.7429 C   0  0  0  0  0  0  0  0  0  0  0  0
    6.5432   -4.5464   -1.1710 C   0  0  0  0  0  0  0  0  0  0  0  0
    7.8024   -5.1523   -0.5962 C   0  0  0  0  0  0  0  0  0  0  0  0
    8.3415   -6.6028   -1.5545 S   0  0  0  0  0  0  0  0  0  0  0  0
    9.8082   -7.1053   -0.7327 C   0  0  0  0  0  0  0  0  0  0  0  0
   10.7026   -6.3464   -0.0137 C   0  0  0  0  0  0  0  0  0  0  0  0
   11.7781   -7.0300    0.5018 N   0  0  0  0  0  0  0  0  0  0  0  0
   11.7725   -8.2901    0.1264 C   0  0  0  0  0  0  0  0  0  0  0  0
   12.7501   -9.1963    0.3687 N   0  0  0  0  0  0  0  0  0  0  0  0
   14.0920   -8.8810    0.6004 C   0  0  0  0  0  0  0  0  0  0  0  0
   14.5106   -7.6635    1.1431 C   0  0  0  0  0  0  0  0  0  0  0  0
   15.8643   -7.3603    1.2279 C   0  0  0  0  0  0  0  0  0  0  0  0
   16.7889   -8.3013    0.8145 C   0  0  0  0  0  0  0  0  0  0  0  0
   16.3101   -9.5130    0.3485 C   0  0  0  0  0  0  0  0  0  0  0  0
   14.9946   -9.8216    0.2377 N   0  0  0  0  0  0  0  0  0  0  0  0
   10.3713   -8.7289   -0.7865 S   0  0  0  0  0  0  0  0  0  0  0  0
    6.6165   -3.5749   -2.1845 C   0  0  0  0  0  0  0  0  0  0  0  0
    4.2623    0.0220   -7.0348 H   0  0  0  0  0  0  0  0  0  0  0  0
    3.0295   -0.9069   -6.1479 H   0  0  0  0  0  0  0  0  0  0  0  0
    4.6089   -1.6526   -6.5519 H   0  0  0  0  0  0  0  0  0  0  0  0
    3.8679   -1.0099   -3.2877 H   0  0  0  0  0  0  0  0  0  0  0  0
    3.2808   -3.1672   -2.8079 H   0  0  0  0  0  0  0  0  0  0  0  0
    3.1412   -4.8219   -1.0000 H   0  0  0  0  0  0  0  0  0  0  0  0
    5.1876   -5.7313    0.0346 H   0  0  0  0  0  0  0  0  0  0  0  0
    7.6387   -5.4381    0.4458 H   0  0  0  0  0  0  0  0  0  0  0  0
    8.6003   -4.3890   -0.6019 H   0  0  0  0  0  0  0  0  0  0  0  0
   10.6470   -5.2823    0.1702 H   0  0  0  0  0  0  0  0  0  0  0  0
   12.6989  -10.1005   -0.0852 H   0  0  0  0  0  0  0  0  0  0  0  0
   13.7984   -6.9225    1.4834 H   0  0  0  0  0  0  0  0  0  0  0  0
   16.1753   -6.3903    1.6032 H   0  0  0  0  0  0  0  0  0  0  0  0
   17.8513   -8.0945    0.8578 H   0  0  0  0  0  0  0  0  0  0  0  0
   16.9968  -10.2913    0.0277 H   0  0  0  0  0  0  0  0  0  0  0  0
    7.5882   -3.2340   -2.5425 H   0  0  0  0  0  0  0  0  0  0  0  0
  1  2  1  0  0  0  0
  1 26  1  0  0  0  0
  1 27  1  0  0  0  0
  1 28  1  0  0  0  0
  2  3  1  0  0  0  0
  3  4  1  0  0  0  0
  3 29  1  0  0  0  0
  4  5  2  0  0  0  0
  4  6  1  0  0  0  0
  6  7  1  0  0  0  0
  6 25  2  0  0  0  0
  7  8  2  0  0  0  0
  7 30  1  0  0  0  0
  8  9  1  0  0  0  0
  8 31  1  0  0  0  0
  9 10  2  0  0  0  0
  9 32  1  0  0  0  0
 10 11  1  0  0  0  0
 10 25  1  0  0  0  0
 11 12  1  0  0  0  0
 11 33  1  0  0  0  0
 11 34  1  0  0  0  0
 12 13  1  0  0  0  0
 13 14  2  0  0  0  0
 13 24  1  0  0  0  0
 14 15  1  0  0  0  0
 14 35  1  0  0  0  0
 15 16  2  0  0  0  0
 16 17  1  0  0  0  0
 16 24  1  0  0  0  0
 17 18  1  0  0  0  0
 17 36  1  0  0  0  0
 18 19  1  0  0  0  0
 18 23  2  0  0  0  0
 19 20  2  0  0  0  0
 19 37  1  0  0  0  0
 20 21  1  0  0  0  0
 20 38  1  0  0  0  0
 21 22  2  0  0  0  0
 21 39  1  0  0  0  0
 22 23  1  0  0  0  0
 22 40  1  0  0  0  0
 25 41  1  0  0  0  0
M  END
$$$$
