CHEMBL4071242
 OpenBabel04072215383D

 69 76  0  0  1  0  0  0  0  0999 V2000
    5.6450    2.1609    2.8221 N   0  0  0  0  0  0  0  0  0  0  0  0
    5.4613    0.8647    2.5136 C   0  0  0  0  0  0  0  0  0  0  0  0
    5.3848    0.3804    1.3010 N   0  0  0  0  0  0  0  0  0  0  0  0
    5.2525   -0.9662    1.4866 C   0  0  0  0  0  0  0  0  0  0  0  0
    5.1181   -1.6865    0.3722 N   0  0  0  0  0  0  0  0  0  0  0  0
    4.9497   -3.0627    0.1841 C   0  0  0  0  0  0  0  0  0  0  0  0
    4.1972   -3.5221   -0.8989 C   0  0  0  0  0  0  0  0  0  0  0  0
    3.8785   -4.8806   -1.0431 C   0  0  0  0  0  0  0  0  0  0  0  0
    4.3019   -5.8436   -0.1184 C   0  0  0  0  0  0  0  0  0  0  0  0
    3.9289   -7.1821   -0.3021 N   0  0  0  0  0  0  0  0  0  0  0  0
    4.7047   -8.2204    0.3981 C   0  0  0  0  0  0  0  0  0  0  0  0
    4.3100   -9.6258   -0.1209 C   0  0  0  0  0  0  0  0  0  0  0  0
    2.8592   -9.9545   -0.0367 N   0  0  0  0  0  0  0  0  0  0  0  0
    2.4095  -10.1638    1.3483 C   0  0  3  0  0  0  0  0  0  0  0  0
    3.0605  -11.3996    2.0314 C   0  0  0  0  0  0  0  0  0  0  0  0
    1.8607  -12.1673    2.6139 C   0  0  3  0  0  0  0  0  0  0  0  0
    1.1081  -12.8471    1.4578 C   0  0  0  0  0  0  0  0  0  0  0  0
    0.4004  -11.6709    0.7732 C   0  0  0  0  0  0  0  0  0  0  0  0
    0.8936  -10.4525    1.5743 C   0  0  3  0  0  0  0  0  0  0  0  0
    0.9118  -11.0342    2.9930 C   0  0  0  0  0  0  0  0  0  0  0  0
    2.1308   -8.8637   -0.7319 C   0  0  0  0  0  0  0  0  0  0  0  0
    2.4643   -7.4216   -0.2688 C   0  0  0  0  0  0  0  0  0  0  0  0
    5.0888   -5.3851    0.9408 C   0  0  0  0  0  0  0  0  0  0  0  0
    5.3927   -4.0227    1.1000 C   0  0  0  0  0  0  0  0  0  0  0  0
    5.2269   -1.3483    2.7712 N   0  0  0  0  0  0  0  0  0  0  0  0
    5.3360   -0.1690    3.4463 N   0  0  0  0  0  0  0  0  0  0  0  0
    5.4884   -0.0804    4.8506 C   0  0  0  0  0  0  0  0  0  0  0  0
    5.7067    1.1774    5.3828 N   0  0  0  0  0  0  0  0  0  0  0  0
    6.0881    1.2781    6.6576 C   0  0  0  0  0  0  0  0  0  0  0  0
    6.3817    0.2699    7.4636 N   0  0  0  0  0  0  0  0  0  0  0  0
    6.0337   -0.9507    6.9853 C   0  0  0  0  0  0  0  0  0  0  0  0
    5.4420   -1.1476    5.7348 C   0  0  0  0  0  0  0  0  0  0  0  0
    4.7633   -2.7442    5.7034 S   0  0  0  0  0  0  0  0  0  0  0  0
    5.1394   -2.9629    7.3599 C   0  0  0  0  0  0  0  0  0  0  0  0
    4.4835   -3.7804    8.2115 N   0  0  0  0  0  0  0  0  0  0  0  0
    4.8944   -3.6262    9.5008 C   0  0  0  0  0  0  0  0  0  0  0  0
    6.0395   -2.9679    9.9090 C   0  0  0  0  0  0  0  0  0  0  0  0
    6.8520   -2.4470    8.9186 C   0  0  0  0  0  0  0  0  0  0  0  0
    6.2339   -2.1820    7.6841 C   0  0  0  0  0  0  0  0  0  0  0  0
    5.5669    2.8659    2.0994 H   0  0  0  0  0  0  0  0  0  0  0  0
    5.5487    2.4786    3.7846 H   0  0  0  0  0  0  0  0  0  0  0  0
    5.0376   -1.1404   -0.4832 H   0  0  0  0  0  0  0  0  0  0  0  0
    3.8152   -2.8151   -1.6364 H   0  0  0  0  0  0  0  0  0  0  0  0
    3.2859   -5.1938   -1.8973 H   0  0  0  0  0  0  0  0  0  0  0  0
    4.5458   -8.1641    1.4817 H   0  0  0  0  0  0  0  0  0  0  0  0
    5.7748   -8.0754    0.2055 H   0  0  0  0  0  0  0  0  0  0  0  0
    4.9155  -10.3832    0.3877 H   0  0  0  0  0  0  0  0  0  0  0  0
    4.6007   -9.6878   -1.1790 H   0  0  0  0  0  0  0  0  0  0  0  0
    2.6559   -9.2814    1.9536 H   0  0  0  0  0  0  0  0  0  0  0  0
    3.7322  -11.0651    2.8311 H   0  0  0  0  0  0  0  0  0  0  0  0
    3.6405  -12.0315    1.3502 H   0  0  0  0  0  0  0  0  0  0  0  0
    2.1292  -12.8522    3.4207 H   0  0  0  0  0  0  0  0  0  0  0  0
    0.3709  -13.5645    1.8362 H   0  0  0  0  0  0  0  0  0  0  0  0
    1.7774  -13.3777    0.7729 H   0  0  0  0  0  0  0  0  0  0  0  0
   -0.6840  -11.7810    0.8869 H   0  0  0  0  0  0  0  0  0  0  0  0
    0.6206  -11.6137   -0.2967 H   0  0  0  0  0  0  0  0  0  0  0  0
    0.2576   -9.5717    1.4603 H   0  0  0  0  0  0  0  0  0  0  0  0
   -0.0690  -11.3869    3.3299 H   0  0  0  0  0  0  0  0  0  0  0  0
    1.3306  -10.3503    3.7385 H   0  0  0  0  0  0  0  0  0  0  0  0
    1.0486   -9.0255   -0.6848 H   0  0  0  0  0  0  0  0  0  0  0  0
    2.3794   -8.9378   -1.8000 H   0  0  0  0  0  0  0  0  0  0  0  0
    2.0779   -7.2544    0.7449 H   0  0  0  0  0  0  0  0  0  0  0  0
    1.9331   -6.7349   -0.9384 H   0  0  0  0  0  0  0  0  0  0  0  0
    5.4572   -6.0690    1.7004 H   0  0  0  0  0  0  0  0  0  0  0  0
    5.9888   -3.7219    1.9589 H   0  0  0  0  0  0  0  0  0  0  0  0
    6.1890    2.2781    7.0663 H   0  0  0  0  0  0  0  0  0  0  0  0
    4.2695   -4.1077   10.2480 H   0  0  0  0  0  0  0  0  0  0  0  0
    6.3538   -2.9308   10.9458 H   0  0  0  0  0  0  0  0  0  0  0  0
    7.8685   -2.8589    8.8867 H   0  0  0  0  0  0  0  0  0  0  0  0
  1  2  1  0  0  0  0
  1 40  1  0  0  0  0
  1 41  1  0  0  0  0
  2  3  2  0  0  0  0
  2 26  1  0  0  0  0
  3  4  1  0  0  0  0
  4  5  1  0  0  0  0
  4 25  2  0  0  0  0
  5  6  1  0  0  0  0
  5 42  1  0  0  0  0
  6  7  1  0  0  0  0
  6 24  2  0  0  0  0
  7  8  2  0  0  0  0
  7 43  1  0  0  0  0
  8  9  1  0  0  0  0
  8 44  1  0  0  0  0
  9 10  1  0  0  0  0
  9 23  2  0  0  0  0
 10 11  1  0  0  0  0
 10 22  1  0  0  0  0
 11 12  1  0  0  0  0
 11 45  1  0  0  0  0
 11 46  1  0  0  0  0
 12 13  1  0  0  0  0
 12 47  1  0  0  0  0
 12 48  1  0  0  0  0
 13 14  1  0  0  0  0
 13 21  1  0  0  0  0
 14 15  1  0  0  0  0
 14 19  1  0  0  0  0
 14 49  1  0  0  0  0
 15 16  1  0  0  0  0
 15 50  1  0  0  0  0
 15 51  1  0  0  0  0
 16 17  1  0  0  0  0
 16 20  1  0  0  0  0
 16 52  1  0  0  0  0
 17 18  1  0  0  0  0
 17 53  1  0  0  0  0
 17 54  1  0  0  0  0
 18 19  1  0  0  0  0
 18 55  1  0  0  0  0
 18 56  1  0  0  0  0
 19 20  1  0  0  0  0
 19 57  1  0  0  0  0
 20 58  1  0  0  0  0
 20 59  1  0  0  0  0
 21 22  1  0  0  0  0
 21 60  1  0  0  0  0
 21 61  1  0  0  0  0
 22 62  1  0  0  0  0
 22 63  1  0  0  0  0
 23 24  1  0  0  0  0
 23 64  1  0  0  0  0
 24 65  1  0  0  0  0
 25 26  1  0  0  0  0
 26 27  1  0  0  0  0
 27 28  1  0  0  0  0
 27 32  2  0  0  0  0
 28 29  2  0  0  0  0
 29 30  1  0  0  0  0
 29 66  1  0  0  0  0
 30 31  2  0  0  0  0
 31 32  1  0  0  0  0
 31 39  1  0  0  0  0
 32 33  1  0  0  0  0
 33 34  1  0  0  0  0
 34 35  1  0  0  0  0
 34 39  2  0  0  0  0
 35 36  2  0  0  0  0
 36 37  1  0  0  0  0
 36 67  1  0  0  0  0
 37 38  2  0  0  0  0
 37 68  1  0  0  0  0
 38 39  1  0  0  0  0
 38 69  1  0  0  0  0
M  END
$$$$
