CHEMBL1242290
 OpenBabel04072215363D

 42 44  0  0  0  0  0  0  0  0999 V2000
    3.3366    0.0297    1.2650 C   0  0  0  0  0  0  0  0  0  0  0  0
    2.9504    0.6314    0.0338 O   0  0  0  0  0  0  0  0  0  0  0  0
    3.5970    0.1829   -1.0875 C   0  0  0  0  0  0  0  0  0  0  0  0
    4.1984   -1.0766   -1.1523 C   0  0  0  0  0  0  0  0  0  0  0  0
    4.8323   -1.5045   -2.3182 C   0  0  0  0  0  0  0  0  0  0  0  0
    4.7937   -0.7358   -3.4816 C   0  0  0  0  0  0  0  0  0  0  0  0
    5.4212   -1.2194   -4.7154 C   0  0  0  0  0  0  0  0  0  0  0  0
    6.0150   -0.3436   -5.5474 N   0  0  0  0  0  0  0  0  0  0  0  0
    6.5579   -1.1120   -6.5178 N   0  0  0  0  0  0  0  0  0  0  0  0
    7.2764   -0.4922   -7.6252 C   0  0  0  0  0  0  0  0  0  0  0  0
    6.3561    0.4056   -8.4533 C   0  0  0  0  0  0  0  0  0  0  0  0
    8.5107    0.2771   -7.1540 C   0  0  0  0  0  0  0  0  0  0  0  0
    6.3285   -2.4465   -6.3361 C   0  0  0  0  0  0  0  0  0  0  0  0
    6.7726   -3.4476   -7.1217 N   0  0  0  0  0  0  0  0  0  0  0  0
    6.3702   -4.6430   -6.6672 C   0  0  0  0  0  0  0  0  0  0  0  0
    5.5946   -4.9019   -5.5992 N   0  0  0  0  0  0  0  0  0  0  0  0
    5.1561   -3.8695   -4.8461 C   0  0  0  0  0  0  0  0  0  0  0  0
    4.3724   -4.2147   -3.7618 N   0  0  0  0  0  0  0  0  0  0  0  0
    5.5411   -2.5574   -5.1945 C   0  0  0  0  0  0  0  0  0  0  0  0
    4.1822    0.5247   -3.4237 C   0  0  0  0  0  0  0  0  0  0  0  0
    3.6162    1.0011   -2.2294 C   0  0  0  0  0  0  0  0  0  0  0  0
    3.0861    2.2649   -2.3231 O   0  0  0  0  0  0  0  0  0  0  0  0
    3.3019    3.0981   -1.1871 C   0  0  0  0  0  0  0  0  0  0  0  0
    2.8789    0.6011    2.0784 H   0  0  0  0  0  0  0  0  0  0  0  0
    4.4234    0.0665    1.4007 H   0  0  0  0  0  0  0  0  0  0  0  0
    2.9649   -0.9970    1.3358 H   0  0  0  0  0  0  0  0  0  0  0  0
    4.1916   -1.7611   -0.3109 H   0  0  0  0  0  0  0  0  0  0  0  0
    5.3607   -2.4534   -2.2923 H   0  0  0  0  0  0  0  0  0  0  0  0
    7.6216   -1.3046   -8.2758 H   0  0  0  0  0  0  0  0  0  0  0  0
    5.9530    1.2315   -7.8551 H   0  0  0  0  0  0  0  0  0  0  0  0
    5.5069   -0.1631   -8.8487 H   0  0  0  0  0  0  0  0  0  0  0  0
    6.8974    0.8423   -9.3010 H   0  0  0  0  0  0  0  0  0  0  0  0
    8.2423    1.1134   -6.4979 H   0  0  0  0  0  0  0  0  0  0  0  0
    9.0595    0.6864   -8.0092 H   0  0  0  0  0  0  0  0  0  0  0  0
    9.1944   -0.3755   -6.6024 H   0  0  0  0  0  0  0  0  0  0  0  0
    6.7105   -5.5097   -7.2274 H   0  0  0  0  0  0  0  0  0  0  0  0
    4.1242   -5.1958   -3.7269 H   0  0  0  0  0  0  0  0  0  0  0  0
    3.7123   -3.5437   -3.3937 H   0  0  0  0  0  0  0  0  0  0  0  0
    4.1678    1.1627   -4.3059 H   0  0  0  0  0  0  0  0  0  0  0  0
    3.2468    4.1391   -1.5211 H   0  0  0  0  0  0  0  0  0  0  0  0
    4.2914    2.9485   -0.7395 H   0  0  0  0  0  0  0  0  0  0  0  0
    2.5076    2.9557   -0.4492 H   0  0  0  0  0  0  0  0  0  0  0  0
  1  2  1  0  0  0  0
  1 24  1  0  0  0  0
  1 25  1  0  0  0  0
  1 26  1  0  0  0  0
  2  3  1  0  0  0  0
  3  4  1  0  0  0  0
  3 21  2  0  0  0  0
  4  5  2  0  0  0  0
  4 27  1  0  0  0  0
  5  6  1  0  0  0  0
  5 28  1  0  0  0  0
  6  7  1  0  0  0  0
  6 20  2  0  0  0  0
  7  8  2  0  0  0  0
  7 19  1  0  0  0  0
  8  9  1  0  0  0  0
  9 10  1  0  0  0  0
  9 13  1  0  0  0  0
 10 11  1  0  0  0  0
 10 12  1  0  0  0  0
 10 29  1  0  0  0  0
 11 30  1  0  0  0  0
 11 31  1  0  0  0  0
 11 32  1  0  0  0  0
 12 33  1  0  0  0  0
 12 34  1  0  0  0  0
 12 35  1  0  0  0  0
 13 14  1  0  0  0  0
 13 19  2  0  0  0  0
 14 15  2  0  0  0  0
 15 16  1  0  0  0  0
 15 36  1  0  0  0  0
 16 17  2  0  0  0  0
 17 18  1  0  0  0  0
 17 19  1  0  0  0  0
 18 37  1  0  0  0  0
 18 38  1  0  0  0  0
 20 21  1  0  0  0  0
 20 39  1  0  0  0  0
 21 22  1  0  0  0  0
 22 23  1  0  0  0  0
 23 40  1  0  0  0  0
 23 41  1  0  0  0  0
 23 42  1  0  0  0  0
M  END
$$$$
