CHEMBL3660283
 OpenBabel04072215373D

 51 54  0  0  0  0  0  0  0  0999 V2000
    2.7904    0.8132   -2.4949 C   0  0  0  0  0  0  0  0  0  0  0  0
    1.3909    0.5315   -2.0287 C   0  0  0  0  0  0  0  0  0  0  0  0
    0.8796   -0.7670   -2.1181 C   0  0  0  0  0  0  0  0  0  0  0  0
   -0.4021   -1.0394   -1.6596 C   0  0  0  0  0  0  0  0  0  0  0  0
   -1.1867   -0.0189   -1.1276 C   0  0  0  0  0  0  0  0  0  0  0  0
   -2.3487   -0.4002   -0.5838 F   0  0  0  0  0  0  0  0  0  0  0  0
   -0.7333    1.3084   -1.0824 C   0  0  0  0  0  0  0  0  0  0  0  0
   -1.5105    2.4178   -0.6391 N   0  0  0  0  0  0  0  0  0  0  0  0
   -2.8917    2.4407   -0.5680 C   0  0  0  0  0  0  0  0  0  0  0  0
   -3.6296    1.5211   -0.9004 O   0  0  0  0  0  0  0  0  0  0  0  0
   -3.3932    3.6704   -0.1435 N   0  0  0  0  0  0  0  0  0  0  0  0
   -4.7948    3.7855    0.0477 C   0  0  0  0  0  0  0  0  0  0  0  0
   -5.4740    2.8466    0.8317 C   0  0  0  0  0  0  0  0  0  0  0  0
   -6.8662    2.8581    0.9058 C   0  0  0  0  0  0  0  0  0  0  0  0
   -7.5954    3.8513    0.2493 C   0  0  0  0  0  0  0  0  0  0  0  0
   -8.9752    3.9250    0.2639 O   0  0  0  0  0  0  0  0  0  0  0  0
   -9.6600    3.5560    1.4075 C   0  0  0  0  0  0  0  0  0  0  0  0
   -9.1667    3.7420    2.6907 C   0  0  0  0  0  0  0  0  0  0  0  0
   -9.9222    3.2927    3.7536 C   0  0  0  0  0  0  0  0  0  0  0  0
  -11.1448    2.7432    3.6159 N   0  0  0  0  0  0  0  0  0  0  0  0
  -11.6468    2.6224    2.3652 C   0  0  0  0  0  0  0  0  0  0  0  0
  -13.0055    2.0833    2.3180 C   0  0  0  0  0  0  0  0  0  0  0  0
  -13.5225    1.3812    1.2468 C   0  0  0  0  0  0  0  0  0  0  0  0
  -15.1329    0.8618    1.5113 S   0  0  0  0  0  0  0  0  0  0  0  0
  -15.1765    1.5460    3.0815 C   0  0  0  0  0  0  0  0  0  0  0  0
  -16.3444    1.4643    3.9388 C   0  0  0  0  0  0  0  0  0  0  0  0
  -16.4383    1.9496    5.0596 O   0  0  0  0  0  0  0  0  0  0  0  0
  -17.3770    0.7774    3.3799 O   0  0  0  0  0  0  0  0  0  0  0  0
  -13.9745    2.1574    3.3814 C   0  0  0  0  0  0  0  0  0  0  0  0
  -10.9360    3.0102    1.2307 C   0  0  0  0  0  0  0  0  0  0  0  0
   -6.9177    4.7985   -0.5268 C   0  0  0  0  0  0  0  0  0  0  0  0
   -5.5169    4.7834   -0.6098 C   0  0  0  0  0  0  0  0  0  0  0  0
    0.5815    1.5629   -1.5082 C   0  0  0  0  0  0  0  0  0  0  0  0
    3.2827   -0.0998   -2.8493 H   0  0  0  0  0  0  0  0  0  0  0  0
    3.3906    1.2135   -1.6722 H   0  0  0  0  0  0  0  0  0  0  0  0
    2.7792    1.5279   -3.3234 H   0  0  0  0  0  0  0  0  0  0  0  0
    1.4790   -1.5779   -2.5253 H   0  0  0  0  0  0  0  0  0  0  0  0
   -0.8031   -2.0480   -1.6915 H   0  0  0  0  0  0  0  0  0  0  0  0
   -1.0304    3.2918   -0.4936 H   0  0  0  0  0  0  0  0  0  0  0  0
   -2.9372    4.4648   -0.5659 H   0  0  0  0  0  0  0  0  0  0  0  0
   -4.9240    2.0714    1.3607 H   0  0  0  0  0  0  0  0  0  0  0  0
   -7.3597    2.0733    1.4712 H   0  0  0  0  0  0  0  0  0  0  0  0
   -8.2052    4.2077    2.8774 H   0  0  0  0  0  0  0  0  0  0  0  0
   -9.5533    3.3618    4.7725 H   0  0  0  0  0  0  0  0  0  0  0  0
  -13.0376    1.1264    0.3142 H   0  0  0  0  0  0  0  0  0  0  0  0
  -17.1428    0.4490    2.4905 H   0  0  0  0  0  0  0  0  0  0  0  0
  -13.7879    2.6469    4.3318 H   0  0  0  0  0  0  0  0  0  0  0  0
  -11.3540    2.9183    0.2369 H   0  0  0  0  0  0  0  0  0  0  0  0
   -7.4817    5.5354   -1.0930 H   0  0  0  0  0  0  0  0  0  0  0  0
   -5.0174    5.5011   -1.2536 H   0  0  0  0  0  0  0  0  0  0  0  0
    0.9863    2.5720   -1.4672 H   0  0  0  0  0  0  0  0  0  0  0  0
  1  2  1  0  0  0  0
  1 34  1  0  0  0  0
  1 35  1  0  0  0  0
  1 36  1  0  0  0  0
  2  3  1  0  0  0  0
  2 33  2  0  0  0  0
  3  4  2  0  0  0  0
  3 37  1  0  0  0  0
  4  5  1  0  0  0  0
  4 38  1  0  0  0  0
  5  6  1  0  0  0  0
  5  7  2  0  0  0  0
  7  8  1  0  0  0  0
  7 33  1  0  0  0  0
  8  9  1  0  0  0  0
  8 39  1  0  0  0  0
  9 10  2  0  0  0  0
  9 11  1  0  0  0  0
 11 12  1  0  0  0  0
 11 40  1  0  0  0  0
 12 13  1  0  0  0  0
 12 32  2  0  0  0  0
 13 14  2  0  0  0  0
 13 41  1  0  0  0  0
 14 15  1  0  0  0  0
 14 42  1  0  0  0  0
 15 16  1  0  0  0  0
 15 31  2  0  0  0  0
 16 17  1  0  0  0  0
 17 18  1  0  0  0  0
 17 30  2  0  0  0  0
 18 19  2  0  0  0  0
 18 43  1  0  0  0  0
 19 20  1  0  0  0  0
 19 44  1  0  0  0  0
 20 21  2  0  0  0  0
 21 22  1  0  0  0  0
 21 30  1  0  0  0  0
 22 23  2  0  0  0  0
 22 29  1  0  0  0  0
 23 24  1  0  0  0  0
 23 45  1  0  0  0  0
 24 25  1  0  0  0  0
 25 26  1  0  0  0  0
 25 29  2  0  0  0  0
 26 27  2  0  0  0  0
 26 28  1  0  0  0  0
 28 46  1  0  0  0  0
 29 47  1  0  0  0  0
 30 48  1  0  0  0  0
 31 32  1  0  0  0  0
 31 49  1  0  0  0  0
 32 50  1  0  0  0  0
 33 51  1  0  0  0  0
M  END
$$$$
