CHEMBL3671539
 OpenBabel04072215373D

 54 56  0  0  0  0  0  0  0  0999 V2000
    3.2019   -0.7637   -4.0206 C   0  0  0  0  0  0  0  0  0  0  0  0
    3.2877    0.2759   -3.1817 C   0  0  0  0  0  0  0  0  0  0  0  0
    3.5823    0.0280   -1.7441 C   0  0  0  0  0  0  0  0  0  0  0  0
    3.1907   -0.9777   -1.1608 O   0  0  0  0  0  0  0  0  0  0  0  0
    4.3670    0.9543   -1.0936 N   0  0  0  0  0  0  0  0  0  0  0  0
    5.1367    1.9096   -1.7834 C   0  0  0  0  0  0  0  0  0  0  0  0
    6.1950    1.4528   -2.5695 C   0  0  0  0  0  0  0  0  0  0  0  0
    6.7816    2.2978   -3.5351 C   0  0  0  0  0  0  0  0  0  0  0  0
    7.7939    1.8997   -4.4252 C   0  0  0  0  0  0  0  0  0  0  0  0
    8.2195    0.5533   -4.4256 N   0  0  0  0  0  0  0  0  0  0  0  0
    9.5015    0.0390   -4.7091 C   0  0  0  0  0  0  0  0  0  0  0  0
   10.6645    0.7847   -4.4881 C   0  0  0  0  0  0  0  0  0  0  0  0
   11.9245    0.1827   -4.5630 C   0  0  0  0  0  0  0  0  0  0  0  0
   12.0306   -1.1729   -4.8677 C   0  0  0  0  0  0  0  0  0  0  0  0
   13.7261   -2.0068   -4.8440 Br  0  0  0  0  0  0  0  0  0  0  0  0
   10.8935   -1.9251   -5.1423 C   0  0  0  0  0  0  0  0  0  0  0  0
    9.6453   -1.3150   -5.0529 C   0  0  0  0  0  0  0  0  0  0  0  0
    8.5462   -2.0546   -5.2775 F   0  0  0  0  0  0  0  0  0  0  0  0
    8.3334    2.7456   -5.3179 N   0  0  0  0  0  0  0  0  0  0  0  0
    7.8301    3.9833   -5.3441 C   0  0  0  0  0  0  0  0  0  0  0  0
    6.8563    4.4613   -4.5592 N   0  0  0  0  0  0  0  0  0  0  0  0
    6.3442    3.6233   -3.6540 C   0  0  0  0  0  0  0  0  0  0  0  0
    5.3376    4.0765   -2.8037 C   0  0  0  0  0  0  0  0  0  0  0  0
    4.7392    3.2489   -1.8471 C   0  0  0  0  0  0  0  0  0  0  0  0
    3.7605    3.8458   -1.0880 O   0  0  0  0  0  0  0  0  0  0  0  0
    3.6372    3.3416    0.2484 C   0  0  0  0  0  0  0  0  0  0  0  0
    3.2032    4.4482    1.2131 C   0  0  0  0  0  0  0  0  0  0  0  0
    3.2065    3.9842    2.5953 N   0  0  0  0  0  0  0  0  0  0  0  0
    4.3851    3.8738    3.3001 C   0  0  0  0  0  0  0  0  0  0  0  0
    5.4750    4.2172    2.8478 O   0  0  0  0  0  0  0  0  0  0  0  0
    4.2230    3.2757    4.6824 C   0  0  0  0  0  0  0  0  0  0  0  0
    5.5415    3.2924    5.4413 C   0  0  0  0  0  0  0  0  0  0  0  0
    5.9619    4.6290    5.6922 O   0  0  0  0  0  0  0  0  0  0  0  0
    3.0558   -0.6109   -5.0842 H   0  0  0  0  0  0  0  0  0  0  0  0
    3.2945   -1.7861   -3.6639 H   0  0  0  0  0  0  0  0  0  0  0  0
    3.2158    1.2957   -3.5401 H   0  0  0  0  0  0  0  0  0  0  0  0
    4.8002    0.5184   -0.2853 H   0  0  0  0  0  0  0  0  0  0  0  0
    6.5246    0.4205   -2.4746 H   0  0  0  0  0  0  0  0  0  0  0  0
    7.4763   -0.0681   -4.7274 H   0  0  0  0  0  0  0  0  0  0  0  0
   10.5988    1.8345   -4.2125 H   0  0  0  0  0  0  0  0  0  0  0  0
   12.8091    0.7778   -4.3489 H   0  0  0  0  0  0  0  0  0  0  0  0
   10.9558   -2.9788   -5.3906 H   0  0  0  0  0  0  0  0  0  0  0  0
    8.2452    4.6639   -6.0794 H   0  0  0  0  0  0  0  0  0  0  0  0
    4.9986    5.1057   -2.8998 H   0  0  0  0  0  0  0  0  0  0  0  0
    4.5865    2.9285    0.6094 H   0  0  0  0  0  0  0  0  0  0  0  0
    2.8733    2.5549    0.2596 H   0  0  0  0  0  0  0  0  0  0  0  0
    2.1932    4.7972    0.9743 H   0  0  0  0  0  0  0  0  0  0  0  0
    3.8748    5.3097    1.1239 H   0  0  0  0  0  0  0  0  0  0  0  0
    2.3473    3.6214    2.9912 H   0  0  0  0  0  0  0  0  0  0  0  0
    3.8784    2.2434    4.5685 H   0  0  0  0  0  0  0  0  0  0  0  0
    3.4654    3.8506    5.2262 H   0  0  0  0  0  0  0  0  0  0  0  0
    6.3382    2.7715    4.8976 H   0  0  0  0  0  0  0  0  0  0  0  0
    5.4205    2.7990    6.4115 H   0  0  0  0  0  0  0  0  0  0  0  0
    6.2214    4.9970    4.8223 H   0  0  0  0  0  0  0  0  0  0  0  0
  1  2  2  0  0  0  0
  1 34  1  0  0  0  0
  1 35  1  0  0  0  0
  2  3  1  0  0  0  0
  2 36  1  0  0  0  0
  3  4  2  0  0  0  0
  3  5  1  0  0  0  0
  5  6  1  0  0  0  0
  5 37  1  0  0  0  0
  6  7  1  0  0  0  0
  6 24  2  0  0  0  0
  7  8  2  0  0  0  0
  7 38  1  0  0  0  0
  8  9  1  0  0  0  0
  8 22  1  0  0  0  0
  9 10  1  0  0  0  0
  9 19  2  0  0  0  0
 10 11  1  0  0  0  0
 10 39  1  0  0  0  0
 11 12  1  0  0  0  0
 11 17  2  0  0  0  0
 12 13  2  0  0  0  0
 12 40  1  0  0  0  0
 13 14  1  0  0  0  0
 13 41  1  0  0  0  0
 14 15  1  0  0  0  0
 14 16  2  0  0  0  0
 16 17  1  0  0  0  0
 16 42  1  0  0  0  0
 17 18  1  0  0  0  0
 19 20  1  0  0  0  0
 20 21  2  0  0  0  0
 20 43  1  0  0  0  0
 21 22  1  0  0  0  0
 22 23  2  0  0  0  0
 23 24  1  0  0  0  0
 23 44  1  0  0  0  0
 24 25  1  0  0  0  0
 25 26  1  0  0  0  0
 26 27  1  0  0  0  0
 26 45  1  0  0  0  0
 26 46  1  0  0  0  0
 27 28  1  0  0  0  0
 27 47  1  0  0  0  0
 27 48  1  0  0  0  0
 28 29  1  0  0  0  0
 28 49  1  0  0  0  0
 29 30  2  0  0  0  0
 29 31  1  0  0  0  0
 31 32  1  0  0  0  0
 31 50  1  0  0  0  0
 31 51  1  0  0  0  0
 32 33  1  0  0  0  0
 32 52  1  0  0  0  0
 32 53  1  0  0  0  0
 33 54  1  0  0  0  0
M  END
$$$$
