CHEMBL465217
 OpenBabel04072215383D

 60 64  0  0  0  0  0  0  0  0999 V2000
    0.9894   -0.3431   -0.8272 C   0  0  0  0  0  0  0  0  0  0  0  0
    2.4126   -0.3560   -0.8264 O   0  0  0  0  0  0  0  0  0  0  0  0
    2.9544    0.8812   -0.6923 C   0  0  0  0  0  0  0  0  0  0  0  0
    2.3350    1.9273   -0.6185 O   0  0  0  0  0  0  0  0  0  0  0  0
    4.4417    0.8049   -0.6685 C   0  0  0  0  0  0  0  0  0  0  0  0
    5.1623   -0.4044   -0.7969 C   0  0  0  0  0  0  0  0  0  0  0  0
    6.5686   -0.4040   -0.8889 C   0  0  0  0  0  0  0  0  0  0  0  0
    7.2389    0.8149   -0.8856 C   0  0  0  0  0  0  0  0  0  0  0  0
    6.4948    1.9875   -0.6992 C   0  0  0  0  0  0  0  0  0  0  0  0
    5.1094    2.0213   -0.5758 C   0  0  0  0  0  0  0  0  0  0  0  0
    7.2910    3.1187   -0.7926 N   0  0  0  0  0  0  0  0  0  0  0  0
    8.5599    2.7763   -1.2339 C   0  0  0  0  0  0  0  0  0  0  0  0
    9.3034    3.5188   -1.8271 O   0  0  0  0  0  0  0  0  0  0  0  0
    8.6389    1.2632   -1.0737 C   0  0  0  0  0  0  0  0  0  0  0  0
    9.8252    0.6132   -1.1612 C   0  0  0  0  0  0  0  0  0  0  0  0
   11.0996    1.1786   -1.1017 N   0  0  0  0  0  0  0  0  0  0  0  0
   11.6081    1.9589   -0.0436 C   0  0  0  0  0  0  0  0  0  0  0  0
   11.2007    1.7381    1.2783 C   0  0  0  0  0  0  0  0  0  0  0  0
   11.4577    2.6740    2.2877 C   0  0  0  0  0  0  0  0  0  0  0  0
   12.1833    3.8405    2.0197 C   0  0  0  0  0  0  0  0  0  0  0  0
   12.3618    4.9220    3.0712 C   0  0  0  0  0  0  0  0  0  0  0  0
   13.5682    4.7765    3.8742 N   0  0  0  0  0  0  0  0  0  0  0  0
   13.8286    3.6376    4.7172 C   0  0  0  0  0  0  0  0  0  0  0  0
   15.0595    4.0538    5.5049 C   0  0  0  0  0  0  0  0  0  0  0  0
   15.7817    4.9974    4.5553 C   0  0  0  0  0  0  0  0  0  0  0  0
   14.6345    5.6630    3.8361 C   0  0  0  0  0  0  0  0  0  0  0  0
   14.6818    6.7432    3.2781 O   0  0  0  0  0  0  0  0  0  0  0  0
   12.6909    4.0115    0.7227 C   0  0  0  0  0  0  0  0  0  0  0  0
   12.4033    3.0822   -0.2957 C   0  0  0  0  0  0  0  0  0  0  0  0
    9.8620   -0.8495   -1.4006 C   0  0  0  0  0  0  0  0  0  0  0  0
    9.8901   -1.3150   -2.7259 C   0  0  0  0  0  0  0  0  0  0  0  0
    9.9611   -2.6841   -2.9991 C   0  0  0  0  0  0  0  0  0  0  0  0
   10.0200   -3.5988   -1.9521 C   0  0  0  0  0  0  0  0  0  0  0  0
   10.0080   -3.1507   -0.6306 C   0  0  0  0  0  0  0  0  0  0  0  0
    9.9271   -1.7787   -0.3559 C   0  0  0  0  0  0  0  0  0  0  0  0
    0.6409   -1.3732   -0.7332 H   0  0  0  0  0  0  0  0  0  0  0  0
    0.6152    0.0722   -1.7709 H   0  0  0  0  0  0  0  0  0  0  0  0
    0.6017    0.2282    0.0239 H   0  0  0  0  0  0  0  0  0  0  0  0
    4.6302   -1.3516   -0.8633 H   0  0  0  0  0  0  0  0  0  0  0  0
    7.0924   -1.3434   -1.0035 H   0  0  0  0  0  0  0  0  0  0  0  0
    4.5853    2.9564   -0.4821 H   0  0  0  0  0  0  0  0  0  0  0  0
    6.9344    4.0620   -0.8552 H   0  0  0  0  0  0  0  0  0  0  0  0
   11.6647    1.1061   -1.9388 H   0  0  0  0  0  0  0  0  0  0  0  0
   10.6504    0.8332    1.5257 H   0  0  0  0  0  0  0  0  0  0  0  0
   11.0263    2.4978    3.2704 H   0  0  0  0  0  0  0  0  0  0  0  0
   11.5036    4.9335    3.7499 H   0  0  0  0  0  0  0  0  0  0  0  0
   12.3837    5.8970    2.5789 H   0  0  0  0  0  0  0  0  0  0  0  0
   14.0268    2.7668    4.0863 H   0  0  0  0  0  0  0  0  0  0  0  0
   12.9755    3.4428    5.3754 H   0  0  0  0  0  0  0  0  0  0  0  0
   15.6750    3.2061    5.8180 H   0  0  0  0  0  0  0  0  0  0  0  0
   14.7621    4.6061    6.4056 H   0  0  0  0  0  0  0  0  0  0  0  0
   16.3712    4.4473    3.8154 H   0  0  0  0  0  0  0  0  0  0  0  0
   16.4133    5.7186    5.0817 H   0  0  0  0  0  0  0  0  0  0  0  0
   13.2518    4.9109    0.4743 H   0  0  0  0  0  0  0  0  0  0  0  0
   12.7450    3.2950   -1.3051 H   0  0  0  0  0  0  0  0  0  0  0  0
    9.8772   -0.6101   -3.5521 H   0  0  0  0  0  0  0  0  0  0  0  0
    9.9835   -3.0288   -4.0290 H   0  0  0  0  0  0  0  0  0  0  0  0
   10.0869   -4.6635   -2.1641 H   0  0  0  0  0  0  0  0  0  0  0  0
   10.0757   -3.8652    0.1821 H   0  0  0  0  0  0  0  0  0  0  0  0
    9.9279   -1.4441    0.6794 H   0  0  0  0  0  0  0  0  0  0  0  0
  1  2  1  0  0  0  0
  1 36  1  0  0  0  0
  1 37  1  0  0  0  0
  1 38  1  0  0  0  0
  2  3  1  0  0  0  0
  3  4  2  0  0  0  0
  3  5  1  0  0  0  0
  5  6  1  0  0  0  0
  5 10  2  0  0  0  0
  6  7  2  0  0  0  0
  6 39  1  0  0  0  0
  7  8  1  0  0  0  0
  7 40  1  0  0  0  0
  8  9  2  0  0  0  0
  8 14  1  0  0  0  0
  9 10  1  0  0  0  0
  9 11  1  0  0  0  0
 10 41  1  0  0  0  0
 11 12  1  0  0  0  0
 11 42  1  0  0  0  0
 12 13  2  0  0  0  0
 12 14  1  0  0  0  0
 14 15  2  0  0  0  0
 15 16  1  0  0  0  0
 15 30  1  0  0  0  0
 16 17  1  0  0  0  0
 16 43  1  0  0  0  0
 17 18  1  0  0  0  0
 17 29  2  0  0  0  0
 18 19  2  0  0  0  0
 18 44  1  0  0  0  0
 19 20  1  0  0  0  0
 19 45  1  0  0  0  0
 20 21  1  0  0  0  0
 20 28  2  0  0  0  0
 21 22  1  0  0  0  0
 21 46  1  0  0  0  0
 21 47  1  0  0  0  0
 22 23  1  0  0  0  0
 22 26  1  0  0  0  0
 23 24  1  0  0  0  0
 23 48  1  0  0  0  0
 23 49  1  0  0  0  0
 24 25  1  0  0  0  0
 24 50  1  0  0  0  0
 24 51  1  0  0  0  0
 25 26  1  0  0  0  0
 25 52  1  0  0  0  0
 25 53  1  0  0  0  0
 26 27  2  0  0  0  0
 28 29  1  0  0  0  0
 28 54  1  0  0  0  0
 29 55  1  0  0  0  0
 30 31  1  0  0  0  0
 30 35  2  0  0  0  0
 31 32  2  0  0  0  0
 31 56  1  0  0  0  0
 32 33  1  0  0  0  0
 32 57  1  0  0  0  0
 33 34  2  0  0  0  0
 33 58  1  0  0  0  0
 34 35  1  0  0  0  0
 34 59  1  0  0  0  0
 35 60  1  0  0  0  0
M  END
$$$$
