CHEMBL173550
 OpenBabel04072215363D

 57 61  0  0  0  0  0  0  0  0999 V2000
    0.3556   -0.5912   -0.9061 C   0  0  0  0  0  0  0  0  0  0  0  0
    1.8147   -0.9543   -0.7966 C   0  0  0  0  0  0  0  0  0  0  0  0
    2.2019   -1.6863    0.1095 O   0  0  0  0  0  0  0  0  0  0  0  0
    2.6609   -0.4543   -1.7678 N   0  0  0  0  0  0  0  0  0  0  0  0
    2.2861    0.5179   -2.7966 C   0  0  0  0  0  0  0  0  0  0  0  0
    2.8008    0.0746   -4.1784 C   0  0  0  0  0  0  0  0  0  0  0  0
    4.2559   -0.1938   -4.2295 N   0  0  0  0  0  0  0  0  0  0  0  0
    5.0925    1.0074   -4.0467 C   0  0  0  0  0  0  0  0  0  0  0  0
    4.8807    2.0899   -5.0837 C   0  0  0  0  0  0  0  0  0  0  0  0
    3.9409    3.1103   -4.8660 C   0  0  0  0  0  0  0  0  0  0  0  0
    3.7187    4.0922   -5.8290 C   0  0  0  0  0  0  0  0  0  0  0  0
    4.4604    4.0884   -7.0129 C   0  0  0  0  0  0  0  0  0  0  0  0
    4.2040    5.1086   -8.0362 C   0  0  0  0  0  0  0  0  0  0  0  0
    3.2900    4.8660   -9.1486 C   0  0  0  0  0  0  0  0  0  0  0  0
    3.0568    5.8413  -10.0415 C   0  0  0  0  0  0  0  0  0  0  0  0
    3.6735    7.0897   -9.8818 N   0  0  0  0  0  0  0  0  0  0  0  0
    3.5490    8.2715  -10.6037 C   0  0  0  0  0  0  0  0  0  0  0  0
    2.6397    8.5455  -11.7251 C   0  0  0  0  0  0  0  0  0  0  0  0
    1.3502    7.9997  -11.7934 C   0  0  0  0  0  0  0  0  0  0  0  0
    0.5020    8.2827  -12.8681 C   0  0  0  0  0  0  0  0  0  0  0  0
    0.9125    9.1572  -13.8688 C   0  0  0  0  0  0  0  0  0  0  0  0
    2.1729    9.7429  -13.7988 C   0  0  0  0  0  0  0  0  0  0  0  0
    3.0319    9.4328  -12.7400 C   0  0  0  0  0  0  0  0  0  0  0  0
    4.4737    9.1194  -10.0071 C   0  0  0  0  0  0  0  0  0  0  0  0
    5.1015    8.5440   -8.9407 N   0  0  0  0  0  0  0  0  0  0  0  0
    4.5931    7.3351   -8.8611 C   0  0  0  0  0  0  0  0  0  0  0  0
    4.8362    6.2971   -7.9192 C   0  0  0  0  0  0  0  0  0  0  0  0
    5.4167    3.0916   -7.2292 C   0  0  0  0  0  0  0  0  0  0  0  0
    5.6177    2.0917   -6.2753 C   0  0  0  0  0  0  0  0  0  0  0  0
    4.5698   -1.2002   -3.1800 C   0  0  0  0  0  0  0  0  0  0  0  0
    4.0789   -0.8296   -1.7606 C   0  0  0  0  0  0  0  0  0  0  0  0
   -0.1956   -1.0485   -0.0794 H   0  0  0  0  0  0  0  0  0  0  0  0
   -0.0509   -0.9791   -1.8442 H   0  0  0  0  0  0  0  0  0  0  0  0
    0.2236    0.4920   -0.8454 H   0  0  0  0  0  0  0  0  0  0  0  0
    2.7220    1.4777   -2.4985 H   0  0  0  0  0  0  0  0  0  0  0  0
    1.2063    0.6659   -2.8457 H   0  0  0  0  0  0  0  0  0  0  0  0
    2.4993    0.7933   -4.9469 H   0  0  0  0  0  0  0  0  0  0  0  0
    2.2803   -0.8545   -4.4509 H   0  0  0  0  0  0  0  0  0  0  0  0
    6.1474    0.7055   -4.1036 H   0  0  0  0  0  0  0  0  0  0  0  0
    4.9735    1.4550   -3.0532 H   0  0  0  0  0  0  0  0  0  0  0  0
    3.3600    3.1408   -3.9490 H   0  0  0  0  0  0  0  0  0  0  0  0
    2.9638    4.8550   -5.6520 H   0  0  0  0  0  0  0  0  0  0  0  0
    2.8145    3.8936   -9.2322 H   0  0  0  0  0  0  0  0  0  0  0  0
    2.4066    5.6911  -10.8884 H   0  0  0  0  0  0  0  0  0  0  0  0
    0.9667    7.3631  -11.0015 H   0  0  0  0  0  0  0  0  0  0  0  0
   -0.4856    7.8308  -12.9116 H   0  0  0  0  0  0  0  0  0  0  0  0
    0.2463    9.3924  -14.6945 H   0  0  0  0  0  0  0  0  0  0  0  0
    2.4899   10.4448  -14.5659 H   0  0  0  0  0  0  0  0  0  0  0  0
    4.0135    9.9010  -12.7179 H   0  0  0  0  0  0  0  0  0  0  0  0
    4.6965   10.1413  -10.2855 H   0  0  0  0  0  0  0  0  0  0  0  0
    5.5312    6.5041   -7.1120 H   0  0  0  0  0  0  0  0  0  0  0  0
    6.0060    3.0857   -8.1435 H   0  0  0  0  0  0  0  0  0  0  0  0
    6.3555    1.3152   -6.4646 H   0  0  0  0  0  0  0  0  0  0  0  0
    5.6465   -1.4083   -3.1633 H   0  0  0  0  0  0  0  0  0  0  0  0
    4.0906   -2.1448   -3.4720 H   0  0  0  0  0  0  0  0  0  0  0  0
    4.6415    0.0242   -1.3658 H   0  0  0  0  0  0  0  0  0  0  0  0
    4.2571   -1.6717   -1.0842 H   0  0  0  0  0  0  0  0  0  0  0  0
  1  2  1  0  0  0  0
  1 32  1  0  0  0  0
  1 33  1  0  0  0  0
  1 34  1  0  0  0  0
  2  3  2  0  0  0  0
  2  4  1  0  0  0  0
  4  5  1  0  0  0  0
  4 31  1  0  0  0  0
  5  6  1  0  0  0  0
  5 35  1  0  0  0  0
  5 36  1  0  0  0  0
  6  7  1  0  0  0  0
  6 37  1  0  0  0  0
  6 38  1  0  0  0  0
  7  8  1  0  0  0  0
  7 30  1  0  0  0  0
  8  9  1  0  0  0  0
  8 39  1  0  0  0  0
  8 40  1  0  0  0  0
  9 10  1  0  0  0  0
  9 29  2  0  0  0  0
 10 11  2  0  0  0  0
 10 41  1  0  0  0  0
 11 12  1  0  0  0  0
 11 42  1  0  0  0  0
 12 13  1  0  0  0  0
 12 28  2  0  0  0  0
 13 14  1  0  0  0  0
 13 27  2  0  0  0  0
 14 15  2  0  0  0  0
 14 43  1  0  0  0  0
 15 16  1  0  0  0  0
 15 44  1  0  0  0  0
 16 17  1  0  0  0  0
 16 26  1  0  0  0  0
 17 18  1  0  0  0  0
 17 24  2  0  0  0  0
 18 19  1  0  0  0  0
 18 23  2  0  0  0  0
 19 20  2  0  0  0  0
 19 45  1  0  0  0  0
 20 21  1  0  0  0  0
 20 46  1  0  0  0  0
 21 22  2  0  0  0  0
 21 47  1  0  0  0  0
 22 23  1  0  0  0  0
 22 48  1  0  0  0  0
 23 49  1  0  0  0  0
 24 25  1  0  0  0  0
 24 50  1  0  0  0  0
 25 26  2  0  0  0  0
 26 27  1  0  0  0  0
 27 51  1  0  0  0  0
 28 29  1  0  0  0  0
 28 52  1  0  0  0  0
 29 53  1  0  0  0  0
 30 31  1  0  0  0  0
 30 54  1  0  0  0  0
 30 55  1  0  0  0  0
 31 56  1  0  0  0  0
 31 57  1  0  0  0  0
M  END
$$$$
