CHEMBL3898974
 OpenBabel04072215373D

 53 56  0  0  0  0  0  0  0  0999 V2000
    1.6005    1.3915   -0.2186 C   0  0  0  0  0  0  0  0  0  0  0  0
    2.5399    0.1696   -0.1063 C   0  0  0  0  0  0  0  0  0  0  0  0
    3.7486    0.6066    0.7538 C   0  0  0  0  0  0  0  0  0  0  0  0
    1.7709   -0.9391    0.6426 C   0  0  0  0  0  0  0  0  0  0  0  0
    3.0197   -0.3615   -1.4690 C   0  0  0  0  0  0  0  0  0  0  0  0
    2.5769    0.1720   -2.6917 C   0  0  0  0  0  0  0  0  0  0  0  0
    3.0335   -0.3310   -3.9168 C   0  0  0  0  0  0  0  0  0  0  0  0
    3.9796   -1.3567   -3.9568 C   0  0  0  0  0  0  0  0  0  0  0  0
    4.4738   -1.8456   -5.2047 N   0  0  0  0  0  0  0  0  0  0  0  0
    3.5939   -2.1596   -6.2330 C   0  0  0  0  0  0  0  0  0  0  0  0
    4.0185   -2.6301   -7.4084 C   0  0  0  0  0  0  0  0  0  0  0  0
    5.4215   -2.7869   -7.6554 C   0  0  0  0  0  0  0  0  0  0  0  0
    6.3463   -2.4900   -6.7288 C   0  0  0  0  0  0  0  0  0  0  0  0
    7.7232   -2.5582   -6.9926 N   0  0  0  0  0  0  0  0  0  0  0  0
    8.6264   -3.2509   -6.0258 C   0  0  0  0  0  0  0  0  0  0  0  0
    9.8738   -2.4316   -5.6899 C   0  0  0  0  0  0  0  0  0  0  0  0
   10.5591   -2.1681   -7.0043 C   0  0  0  0  0  0  0  0  0  0  0  0
   11.8415   -2.5356   -7.1819 N   0  0  0  0  0  0  0  0  0  0  0  0
   12.3185   -2.4232   -8.4269 C   0  0  0  0  0  0  0  0  0  0  0  0
   13.5809   -2.9110   -8.6719 N   0  0  0  0  0  0  0  0  0  0  0  0
   11.6537   -1.8925   -9.4622 N   0  0  0  0  0  0  0  0  0  0  0  0
   10.3764   -1.5334   -9.2384 C   0  0  0  0  0  0  0  0  0  0  0  0
    9.7599   -1.6867   -8.0227 C   0  0  0  0  0  0  0  0  0  0  0  0
    8.3173   -1.4274   -7.7477 C   0  0  0  0  0  0  0  0  0  0  0  0
    5.8683   -1.9655   -5.3704 C   0  0  0  0  0  0  0  0  0  0  0  0
    6.7067   -1.6196   -4.5344 O   0  0  0  0  0  0  0  0  0  0  0  0
    4.4298   -1.8992   -2.7499 C   0  0  0  0  0  0  0  0  0  0  0  0
    3.9427   -1.4213   -1.5296 C   0  0  0  0  0  0  0  0  0  0  0  0
    1.2861    1.7427    0.7713 H   0  0  0  0  0  0  0  0  0  0  0  0
    0.6894    1.1504   -0.7782 H   0  0  0  0  0  0  0  0  0  0  0  0
    2.0955    2.2323   -0.7187 H   0  0  0  0  0  0  0  0  0  0  0  0
    3.4192    0.9857    1.7279 H   0  0  0  0  0  0  0  0  0  0  0  0
    4.3166    1.4035    0.2600 H   0  0  0  0  0  0  0  0  0  0  0  0
    4.4400   -0.2190    0.9509 H   0  0  0  0  0  0  0  0  0  0  0  0
    1.4247   -0.5853    1.6210 H   0  0  0  0  0  0  0  0  0  0  0  0
    2.3916   -1.8239    0.8224 H   0  0  0  0  0  0  0  0  0  0  0  0
    0.8908   -1.2635    0.0753 H   0  0  0  0  0  0  0  0  0  0  0  0
    1.8782    1.0027   -2.7272 H   0  0  0  0  0  0  0  0  0  0  0  0
    2.6889    0.1385   -4.8354 H   0  0  0  0  0  0  0  0  0  0  0  0
    2.5343   -2.0548   -6.0273 H   0  0  0  0  0  0  0  0  0  0  0  0
    3.3172   -2.9077   -8.1896 H   0  0  0  0  0  0  0  0  0  0  0  0
    5.7250   -3.1542   -8.6305 H   0  0  0  0  0  0  0  0  0  0  0  0
    8.9325   -4.1955   -6.4965 H   0  0  0  0  0  0  0  0  0  0  0  0
    8.1040   -3.5351   -5.1066 H   0  0  0  0  0  0  0  0  0  0  0  0
   10.5306   -2.9757   -5.0041 H   0  0  0  0  0  0  0  0  0  0  0  0
    9.6026   -1.4793   -5.2156 H   0  0  0  0  0  0  0  0  0  0  0  0
   14.1283   -2.9180   -7.8241 H   0  0  0  0  0  0  0  0  0  0  0  0
   13.9706   -2.4766   -9.4952 H   0  0  0  0  0  0  0  0  0  0  0  0
    9.8474   -1.1477  -10.1046 H   0  0  0  0  0  0  0  0  0  0  0  0
    7.7740   -1.2865   -8.6888 H   0  0  0  0  0  0  0  0  0  0  0  0
    8.2191   -0.5020   -7.1700 H   0  0  0  0  0  0  0  0  0  0  0  0
    5.1456   -2.7177   -2.7480 H   0  0  0  0  0  0  0  0  0  0  0  0
    4.3072   -1.8931   -0.6193 H   0  0  0  0  0  0  0  0  0  0  0  0
  1  2  1  0  0  0  0
  1 29  1  0  0  0  0
  1 30  1  0  0  0  0
  1 31  1  0  0  0  0
  2  3  1  0  0  0  0
  2  4  1  0  0  0  0
  2  5  1  0  0  0  0
  3 32  1  0  0  0  0
  3 33  1  0  0  0  0
  3 34  1  0  0  0  0
  4 35  1  0  0  0  0
  4 36  1  0  0  0  0
  4 37  1  0  0  0  0
  5  6  1  0  0  0  0
  5 28  2  0  0  0  0
  6  7  2  0  0  0  0
  6 38  1  0  0  0  0
  7  8  1  0  0  0  0
  7 39  1  0  0  0  0
  8  9  1  0  0  0  0
  8 27  2  0  0  0  0
  9 10  1  0  0  0  0
  9 25  1  0  0  0  0
 10 11  2  0  0  0  0
 10 40  1  0  0  0  0
 11 12  1  0  0  0  0
 11 41  1  0  0  0  0
 12 13  2  0  0  0  0
 12 42  1  0  0  0  0
 13 14  1  0  0  0  0
 13 25  1  0  0  0  0
 14 15  1  0  0  0  0
 14 24  1  0  0  0  0
 15 16  1  0  0  0  0
 15 43  1  0  0  0  0
 15 44  1  0  0  0  0
 16 17  1  0  0  0  0
 16 45  1  0  0  0  0
 16 46  1  0  0  0  0
 17 18  1  0  0  0  0
 17 23  2  0  0  0  0
 18 19  2  0  0  0  0
 19 20  1  0  0  0  0
 19 21  1  0  0  0  0
 20 47  1  0  0  0  0
 20 48  1  0  0  0  0
 21 22  2  0  0  0  0
 22 23  1  0  0  0  0
 22 49  1  0  0  0  0
 23 24  1  0  0  0  0
 24 50  1  0  0  0  0
 24 51  1  0  0  0  0
 25 26  2  0  0  0  0
 27 28  1  0  0  0  0
 27 52  1  0  0  0  0
 28 53  1  0  0  0  0
M  END
$$$$
