CHEMBL426528
 OpenBabel04072215383D

 66 72  0  0  0  0  0  0  0  0999 V2000
    3.5273   -3.1938   -0.9067 C   0  0  0  0  0  0  0  0  0  0  0  0
    3.1984   -1.9047   -0.1677 C   0  0  0  0  0  0  0  0  0  0  0  0
    3.7476   -1.8241    1.2688 C   0  0  0  0  0  0  0  0  0  0  0  0
    5.1979   -1.7085    1.4001 N   0  0  0  0  0  0  0  0  0  0  0  0
    5.9046   -0.4876    1.2995 C   0  0  0  0  0  0  0  0  0  0  0  0
    5.4702    0.8430    1.1836 C   0  0  0  0  0  0  0  0  0  0  0  0
    6.4396    1.8585    1.0357 C   0  0  0  0  0  0  0  0  0  0  0  0
    7.8104    1.5912    1.0197 C   0  0  0  0  0  0  0  0  0  0  0  0
    8.8306    2.5750    0.9034 N   0  0  0  0  0  0  0  0  0  0  0  0
    8.6466    3.9381    1.0328 C   0  0  0  0  0  0  0  0  0  0  0  0
    7.5696    4.4548    1.2910 O   0  0  0  0  0  0  0  0  0  0  0  0
    9.8266    4.6551    0.8664 N   0  0  0  0  0  0  0  0  0  0  0  0
    9.9286    6.0541    1.0858 C   0  0  0  0  0  0  0  0  0  0  0  0
    9.0246    6.7510    1.8998 C   0  0  0  0  0  0  0  0  0  0  0  0
    9.0785    8.1416    2.0161 C   0  0  0  0  0  0  0  0  0  0  0  0
   10.0629    8.8528    1.3421 C   0  0  0  0  0  0  0  0  0  0  0  0
   11.0043    8.1585    0.5918 C   0  0  0  0  0  0  0  0  0  0  0  0
   11.9672    8.8425   -0.0398 F   0  0  0  0  0  0  0  0  0  0  0  0
   10.9565    6.7681    0.4656 C   0  0  0  0  0  0  0  0  0  0  0  0
    8.2238    0.2638    1.1147 C   0  0  0  0  0  0  0  0  0  0  0  0
    7.2760   -0.7745    1.2404 C   0  0  0  0  0  0  0  0  0  0  0  0
    7.2809   -2.1515    1.2385 C   0  0  0  0  0  0  0  0  0  0  0  0
    8.3761   -2.9017    0.8000 C   0  0  0  0  0  0  0  0  0  0  0  0
    8.0669   -4.1985    0.3501 C   0  0  0  0  0  0  0  0  0  0  0  0
    6.8078   -4.8062    0.5076 C   0  0  0  0  0  0  0  0  0  0  0  0
    6.0164   -4.1879    1.5326 C   0  0  0  0  0  0  0  0  0  0  0  0
    6.0921   -2.7754    1.4990 C   0  0  0  0  0  0  0  0  0  0  0  0
    6.0472   -5.0297    2.8822 C   0  0  0  0  0  0  0  0  0  0  0  0
    7.0904   -6.2269    2.8879 C   0  0  0  0  0  0  0  0  0  0  0  0
    6.8712   -6.9854    1.6270 C   0  0  0  0  0  0  0  0  0  0  0  0
    6.4859   -8.2537    1.4943 N   0  0  0  0  0  0  0  0  0  0  0  0
    6.0098   -8.2828    0.2232 N   0  0  0  0  0  0  0  0  0  0  0  0
    5.3584   -9.4725   -0.2686 C   0  0  0  0  0  0  0  0  0  0  0  0
    6.0067   -7.0535   -0.3915 C   0  0  0  0  0  0  0  0  0  0  0  0
    6.7287   -6.2427    0.4446 C   0  0  0  0  0  0  0  0  0  0  0  0
    9.3002   -4.7894   -0.1061 C   0  0  0  0  0  0  0  0  0  0  0  0
    9.5913   -5.8783   -0.5693 O   0  0  0  0  0  0  0  0  0  0  0  0
   10.2645   -3.8170    0.1410 N   0  0  0  0  0  0  0  0  0  0  0  0
    9.7828   -2.5595    0.6498 C   0  0  0  0  0  0  0  0  0  0  0  0
    3.0039   -3.2188   -1.8700 H   0  0  0  0  0  0  0  0  0  0  0  0
    3.2099   -4.0715   -0.3353 H   0  0  0  0  0  0  0  0  0  0  0  0
    4.5969   -3.2727   -1.1155 H   0  0  0  0  0  0  0  0  0  0  0  0
    2.1038   -1.8261   -0.1174 H   0  0  0  0  0  0  0  0  0  0  0  0
    3.5420   -1.0524   -0.7657 H   0  0  0  0  0  0  0  0  0  0  0  0
    3.4211   -2.6843    1.8607 H   0  0  0  0  0  0  0  0  0  0  0  0
    3.3187   -0.9342    1.7452 H   0  0  0  0  0  0  0  0  0  0  0  0
    4.4168    1.1081    1.1805 H   0  0  0  0  0  0  0  0  0  0  0  0
    6.0669    2.8728    0.9198 H   0  0  0  0  0  0  0  0  0  0  0  0
    9.7849    2.2467    0.9064 H   0  0  0  0  0  0  0  0  0  0  0  0
   10.5347    4.2303    0.2874 H   0  0  0  0  0  0  0  0  0  0  0  0
    8.2496    6.2344    2.4599 H   0  0  0  0  0  0  0  0  0  0  0  0
    8.3393    8.6599    2.6218 H   0  0  0  0  0  0  0  0  0  0  0  0
   10.1018    9.9364    1.3999 H   0  0  0  0  0  0  0  0  0  0  0  0
   11.7106    6.2818   -0.1436 H   0  0  0  0  0  0  0  0  0  0  0  0
    9.2800    0.0285    1.1057 H   0  0  0  0  0  0  0  0  0  0  0  0
    5.0466   -5.4481    3.0365 H   0  0  0  0  0  0  0  0  0  0  0  0
    6.2859   -4.3675    3.7222 H   0  0  0  0  0  0  0  0  0  0  0  0
    6.9961   -6.8602    3.7735 H   0  0  0  0  0  0  0  0  0  0  0  0
    8.1162   -5.8252    2.8829 H   0  0  0  0  0  0  0  0  0  0  0  0
    5.5937  -10.3141    0.3876 H   0  0  0  0  0  0  0  0  0  0  0  0
    5.7193   -9.6742   -1.2798 H   0  0  0  0  0  0  0  0  0  0  0  0
    4.2805   -9.2907   -0.2746 H   0  0  0  0  0  0  0  0  0  0  0  0
    5.4600   -6.8708   -1.3059 H   0  0  0  0  0  0  0  0  0  0  0  0
   11.2348   -4.0427   -0.0142 H   0  0  0  0  0  0  0  0  0  0  0  0
    9.9615   -1.7892   -0.0995 H   0  0  0  0  0  0  0  0  0  0  0  0
   10.2568   -2.3375    1.6081 H   0  0  0  0  0  0  0  0  0  0  0  0
  1  2  1  0  0  0  0
  1 40  1  0  0  0  0
  1 41  1  0  0  0  0
  1 42  1  0  0  0  0
  2  3  1  0  0  0  0
  2 43  1  0  0  0  0
  2 44  1  0  0  0  0
  3  4  1  0  0  0  0
  3 45  1  0  0  0  0
  3 46  1  0  0  0  0
  4  5  1  0  0  0  0
  4 27  1  0  0  0  0
  5  6  1  0  0  0  0
  5 21  2  0  0  0  0
  6  7  2  0  0  0  0
  6 47  1  0  0  0  0
  7  8  1  0  0  0  0
  7 48  1  0  0  0  0
  8  9  1  0  0  0  0
  8 20  2  0  0  0  0
  9 10  1  0  0  0  0
  9 49  1  0  0  0  0
 10 11  2  0  0  0  0
 10 12  1  0  0  0  0
 12 13  1  0  0  0  0
 12 50  1  0  0  0  0
 13 14  1  0  0  0  0
 13 19  2  0  0  0  0
 14 15  2  0  0  0  0
 14 51  1  0  0  0  0
 15 16  1  0  0  0  0
 15 52  1  0  0  0  0
 16 17  2  0  0  0  0
 16 53  1  0  0  0  0
 17 18  1  0  0  0  0
 17 19  1  0  0  0  0
 19 54  1  0  0  0  0
 20 21  1  0  0  0  0
 20 55  1  0  0  0  0
 21 22  1  0  0  0  0
 22 23  1  0  0  0  0
 22 27  2  0  0  0  0
 23 24  2  0  0  0  0
 23 39  1  0  0  0  0
 24 25  1  0  0  0  0
 24 36  1  0  0  0  0
 25 26  2  0  0  0  0
 25 35  1  0  0  0  0
 26 27  1  0  0  0  0
 26 28  1  0  0  0  0
 28 29  1  0  0  0  0
 28 56  1  0  0  0  0
 28 57  1  0  0  0  0
 29 30  1  0  0  0  0
 29 58  1  0  0  0  0
 29 59  1  0  0  0  0
 30 31  2  0  0  0  0
 30 35  1  0  0  0  0
 31 32  1  0  0  0  0
 32 33  1  0  0  0  0
 32 34  1  0  0  0  0
 33 60  1  0  0  0  0
 33 61  1  0  0  0  0
 33 62  1  0  0  0  0
 34 35  2  0  0  0  0
 34 63  1  0  0  0  0
 36 37  2  0  0  0  0
 36 38  1  0  0  0  0
 38 39  1  0  0  0  0
 38 64  1  0  0  0  0
 39 65  1  0  0  0  0
 39 66  1  0  0  0  0
M  END
$$$$
