CHEMBL3671476
 OpenBabel04072215373D

 60 63  0  0  0  0  0  0  0  0999 V2000
    3.0464   -0.0437   -2.3158 C   0  0  0  0  0  0  0  0  0  0  0  0
    3.9494   -0.3206   -1.3661 C   0  0  0  0  0  0  0  0  0  0  0  0
    4.8944    0.7563   -1.0060 C   0  0  0  0  0  0  0  0  0  0  0  0
    5.5497    1.3123   -1.8772 O   0  0  0  0  0  0  0  0  0  0  0  0
    4.8055    1.0829    0.3366 N   0  0  0  0  0  0  0  0  0  0  0  0
    5.4027    2.2297    0.9210 C   0  0  0  0  0  0  0  0  0  0  0  0
    6.5709    2.7077    0.3178 C   0  0  0  0  0  0  0  0  0  0  0  0
    7.1878    3.9121    0.6860 C   0  0  0  0  0  0  0  0  0  0  0  0
    8.2953    4.4451    0.0106 C   0  0  0  0  0  0  0  0  0  0  0  0
    8.7539    3.8022   -1.1583 N   0  0  0  0  0  0  0  0  0  0  0  0
   10.0543    3.6911   -1.6736 C   0  0  0  0  0  0  0  0  0  0  0  0
   11.1807    3.7501   -0.8480 C   0  0  0  0  0  0  0  0  0  0  0  0
   12.4530    3.4777   -1.3578 C   0  0  0  0  0  0  0  0  0  0  0  0
   12.6076    3.1657   -2.7064 C   0  0  0  0  0  0  0  0  0  0  0  0
   14.3176    2.7011   -3.3649 Br  0  0  0  0  0  0  0  0  0  0  0  0
   11.5111    3.1543   -3.5610 C   0  0  0  0  0  0  0  0  0  0  0  0
   10.2477    3.4120   -3.0360 C   0  0  0  0  0  0  0  0  0  0  0  0
    9.1878    3.3735   -3.8587 F   0  0  0  0  0  0  0  0  0  0  0  0
    8.9114    5.5558    0.4409 N   0  0  0  0  0  0  0  0  0  0  0  0
    8.3667    6.1615    1.4986 C   0  0  0  0  0  0  0  0  0  0  0  0
    7.2793    5.7644    2.1829 N   0  0  0  0  0  0  0  0  0  0  0  0
    6.6978    4.6295    1.7717 C   0  0  0  0  0  0  0  0  0  0  0  0
    5.5727    4.1232    2.4255 C   0  0  0  0  0  0  0  0  0  0  0  0
    4.9066    2.9341    2.0341 C   0  0  0  0  0  0  0  0  0  0  0  0
    3.8061    2.7013    2.8265 O   0  0  0  0  0  0  0  0  0  0  0  0
    3.0386    1.5316    2.6056 C   0  0  0  0  0  0  0  0  0  0  0  0
    1.8725    1.3861    3.5959 C   0  0  0  0  0  0  0  0  0  0  0  0
    1.1090    0.0803    3.3027 C   0  0  0  0  0  0  0  0  0  0  0  0
    0.2649    0.1618    2.0272 C   0  0  0  0  0  0  0  0  0  0  0  0
   -0.6014    1.3433    2.0292 N   0  0  0  0  0  0  0  0  0  0  0  0
   -1.9119    1.1938    1.5500 C   0  0  0  0  0  0  0  0  0  0  0  0
   -2.2780    0.0804    1.1365 O   0  0  0  0  0  0  0  0  0  0  0  0
   -2.9308    2.3687    1.5351 C   0  0  0  0  0  0  0  0  0  0  0  0
   -2.5306    3.5242    2.1284 F   0  0  0  0  0  0  0  0  0  0  0  0
   -3.2847    2.7065    0.2617 F   0  0  0  0  0  0  0  0  0  0  0  0
   -4.0900    2.0272    2.1711 F   0  0  0  0  0  0  0  0  0  0  0  0
    0.0924    2.6139    2.2585 C   0  0  0  0  0  0  0  0  0  0  0  0
    0.8941    2.5680    3.5585 C   0  0  0  0  0  0  0  0  0  0  0  0
    2.3297   -0.7834   -2.6508 H   0  0  0  0  0  0  0  0  0  0  0  0
    3.0182    0.9352   -2.7929 H   0  0  0  0  0  0  0  0  0  0  0  0
    4.0199   -1.2782   -0.8703 H   0  0  0  0  0  0  0  0  0  0  0  0
    4.1011    0.5818    0.8427 H   0  0  0  0  0  0  0  0  0  0  0  0
    7.0502    2.1153   -0.4584 H   0  0  0  0  0  0  0  0  0  0  0  0
    8.0225    3.6691   -1.8527 H   0  0  0  0  0  0  0  0  0  0  0  0
   11.0690    3.9632    0.2119 H   0  0  0  0  0  0  0  0  0  0  0  0
   13.3052    3.4898   -0.6838 H   0  0  0  0  0  0  0  0  0  0  0  0
   11.6136    2.9295   -4.6169 H   0  0  0  0  0  0  0  0  0  0  0  0
    8.8495    7.0735    1.8354 H   0  0  0  0  0  0  0  0  0  0  0  0
    5.1851    4.6889    3.2726 H   0  0  0  0  0  0  0  0  0  0  0  0
    3.6854    0.6577    2.7426 H   0  0  0  0  0  0  0  0  0  0  0  0
    2.6314    1.5717    1.5929 H   0  0  0  0  0  0  0  0  0  0  0  0
    2.2952    1.3345    4.6075 H   0  0  0  0  0  0  0  0  0  0  0  0
    0.4455   -0.1386    4.1484 H   0  0  0  0  0  0  0  0  0  0  0  0
    1.8074   -0.7621    3.2245 H   0  0  0  0  0  0  0  0  0  0  0  0
   -0.3146   -0.7624    1.9333 H   0  0  0  0  0  0  0  0  0  0  0  0
    0.8992    0.2225    1.1348 H   0  0  0  0  0  0  0  0  0  0  0  0
   -0.5764    3.4656    2.2913 H   0  0  0  0  0  0  0  0  0  0  0  0
    0.7493    2.7837    1.3979 H   0  0  0  0  0  0  0  0  0  0  0  0
    0.1909    2.4618    4.3963 H   0  0  0  0  0  0  0  0  0  0  0  0
    1.4222    3.5152    3.7088 H   0  0  0  0  0  0  0  0  0  0  0  0
  1  2  2  0  0  0  0
  1 39  1  0  0  0  0
  1 40  1  0  0  0  0
  2  3  1  0  0  0  0
  2 41  1  0  0  0  0
  3  4  2  0  0  0  0
  3  5  1  0  0  0  0
  5  6  1  0  0  0  0
  5 42  1  0  0  0  0
  6  7  1  0  0  0  0
  6 24  2  0  0  0  0
  7  8  2  0  0  0  0
  7 43  1  0  0  0  0
  8  9  1  0  0  0  0
  8 22  1  0  0  0  0
  9 10  1  0  0  0  0
  9 19  2  0  0  0  0
 10 11  1  0  0  0  0
 10 44  1  0  0  0  0
 11 12  1  0  0  0  0
 11 17  2  0  0  0  0
 12 13  2  0  0  0  0
 12 45  1  0  0  0  0
 13 14  1  0  0  0  0
 13 46  1  0  0  0  0
 14 15  1  0  0  0  0
 14 16  2  0  0  0  0
 16 17  1  0  0  0  0
 16 47  1  0  0  0  0
 17 18  1  0  0  0  0
 19 20  1  0  0  0  0
 20 21  2  0  0  0  0
 20 48  1  0  0  0  0
 21 22  1  0  0  0  0
 22 23  2  0  0  0  0
 23 24  1  0  0  0  0
 23 49  1  0  0  0  0
 24 25  1  0  0  0  0
 25 26  1  0  0  0  0
 26 27  1  0  0  0  0
 26 50  1  0  0  0  0
 26 51  1  0  0  0  0
 27 28  1  0  0  0  0
 27 38  1  0  0  0  0
 27 52  1  0  0  0  0
 28 29  1  0  0  0  0
 28 53  1  0  0  0  0
 28 54  1  0  0  0  0
 29 30  1  0  0  0  0
 29 55  1  0  0  0  0
 29 56  1  0  0  0  0
 30 31  1  0  0  0  0
 30 37  1  0  0  0  0
 31 32  2  0  0  0  0
 31 33  1  0  0  0  0
 33 34  1  0  0  0  0
 33 35  1  0  0  0  0
 33 36  1  0  0  0  0
 37 38  1  0  0  0  0
 37 57  1  0  0  0  0
 37 58  1  0  0  0  0
 38 59  1  0  0  0  0
 38 60  1  0  0  0  0
M  END
$$$$
