CHEMBL3939332
 OpenBabel04072215373D

 67 71  0  0  0  0  0  0  0  0999 V2000
    0.2664    3.1466   -1.7544 C   0  0  0  0  0  0  0  0  0  0  0  0
    1.5270    3.2359   -2.4272 O   0  0  0  0  0  0  0  0  0  0  0  0
    2.5955    2.5952   -1.8410 C   0  0  0  0  0  0  0  0  0  0  0  0
    2.5153    1.9127   -0.6277 C   0  0  0  0  0  0  0  0  0  0  0  0
    3.6337    1.2553   -0.1248 C   0  0  0  0  0  0  0  0  0  0  0  0
    3.6668    0.5312    1.0382 O   0  0  0  0  0  0  0  0  0  0  0  0
    2.4834    0.5302    1.8306 C   0  0  0  0  0  0  0  0  0  0  0  0
    4.8364    1.2746   -0.8458 C   0  0  0  0  0  0  0  0  0  0  0  0
    4.9644    1.9336   -2.0800 C   0  0  0  0  0  0  0  0  0  0  0  0
    6.1025    1.7721   -2.9182 N   0  0  0  0  0  0  0  0  0  0  0  0
    6.7770    0.4049   -2.8605 C   0  0  0  0  0  0  0  0  0  0  0  0
    5.9423   -0.8850   -3.0357 C   0  0  0  0  0  0  0  0  0  0  0  0
    5.4678   -1.2599   -4.4504 C   0  0  0  0  0  0  0  0  0  0  0  0
    4.8018   -2.6338   -4.4613 C   0  0  0  0  0  0  0  0  0  0  0  0
    3.4482   -2.7620   -4.1372 C   0  0  0  0  0  0  0  0  0  0  0  0
    2.8543   -4.0301   -4.1217 C   0  0  0  0  0  0  0  0  0  0  0  0
    1.4018   -4.2041   -3.7744 C   0  0  0  0  0  0  0  0  0  0  0  0
    3.6342   -5.1396   -4.4421 C   0  0  0  0  0  0  0  0  0  0  0  0
    4.9722   -4.9325   -4.7516 C   0  0  0  0  0  0  0  0  0  0  0  0
    5.5676   -3.7112   -4.7590 N   0  0  0  0  0  0  0  0  0  0  0  0
    7.1511    2.7394   -3.2445 C   0  0  0  0  0  0  0  0  0  0  0  0
    7.7471    2.5187   -4.4764 C   0  0  0  0  0  0  0  0  0  0  0  0
    9.0706    2.8880   -4.6794 C   0  0  0  0  0  0  0  0  0  0  0  0
    9.7655    3.6357   -3.7721 C   0  0  0  0  0  0  0  0  0  0  0  0
   11.0676    3.7359   -4.0505 N   0  0  0  0  0  0  0  0  0  0  0  0
   11.7505    4.6643   -3.3892 C   0  0  0  0  0  0  0  0  0  0  0  0
   11.1326    5.5528   -2.5391 C   0  0  0  0  0  0  0  0  0  0  0  0
   11.8812    6.7877   -2.2849 C   0  0  0  0  0  0  0  0  0  0  0  0
   11.7399    8.0698   -2.8848 C   0  0  0  0  0  0  0  0  0  0  0  0
   12.7639    8.8932   -2.6188 N   0  0  0  0  0  0  0  0  0  0  0  0
   13.5778    8.1429   -1.8586 N   0  0  0  0  0  0  0  0  0  0  0  0
   14.6739    8.7479   -1.1364 C   0  0  0  0  0  0  0  0  0  0  0  0
   13.1734    6.8366   -1.7776 C   0  0  0  0  0  0  0  0  0  0  0  0
    9.8179    5.3562   -2.1366 N   0  0  0  0  0  0  0  0  0  0  0  0
    9.0954    4.3031   -2.7196 C   0  0  0  0  0  0  0  0  0  0  0  0
    7.7664    3.7324   -2.4161 C   0  0  0  0  0  0  0  0  0  0  0  0
    3.8185    2.6168   -2.5496 C   0  0  0  0  0  0  0  0  0  0  0  0
   -0.4891    3.6638   -2.3548 H   0  0  0  0  0  0  0  0  0  0  0  0
    0.3020    3.6412   -0.7764 H   0  0  0  0  0  0  0  0  0  0  0  0
   -0.0614    2.1047   -1.6498 H   0  0  0  0  0  0  0  0  0  0  0  0
    1.5837    1.8814   -0.0805 H   0  0  0  0  0  0  0  0  0  0  0  0
    2.6910   -0.0324    2.7452 H   0  0  0  0  0  0  0  0  0  0  0  0
    1.6601    0.0278    1.3104 H   0  0  0  0  0  0  0  0  0  0  0  0
    2.2012    1.5474    2.1235 H   0  0  0  0  0  0  0  0  0  0  0  0
    5.6734    0.7204   -0.4321 H   0  0  0  0  0  0  0  0  0  0  0  0
    7.3057    0.3414   -1.9008 H   0  0  0  0  0  0  0  0  0  0  0  0
    7.5686    0.3211   -3.6154 H   0  0  0  0  0  0  0  0  0  0  0  0
    5.1012   -0.9233   -2.3421 H   0  0  0  0  0  0  0  0  0  0  0  0
    6.6152   -1.6997   -2.7255 H   0  0  0  0  0  0  0  0  0  0  0  0
    6.3167   -1.2888   -5.1469 H   0  0  0  0  0  0  0  0  0  0  0  0
    4.7656   -0.5156   -4.8409 H   0  0  0  0  0  0  0  0  0  0  0  0
    2.8686   -1.8756   -3.8909 H   0  0  0  0  0  0  0  0  0  0  0  0
    0.9349   -3.2447   -3.5329 H   0  0  0  0  0  0  0  0  0  0  0  0
    1.2915   -4.8574   -2.9021 H   0  0  0  0  0  0  0  0  0  0  0  0
    0.8590   -4.6391   -4.6193 H   0  0  0  0  0  0  0  0  0  0  0  0
    3.2210   -6.1411   -4.4517 H   0  0  0  0  0  0  0  0  0  0  0  0
    5.6133   -5.7703   -5.0086 H   0  0  0  0  0  0  0  0  0  0  0  0
    7.2575    1.8985   -5.2215 H   0  0  0  0  0  0  0  0  0  0  0  0
    9.5834    2.5108   -5.5652 H   0  0  0  0  0  0  0  0  0  0  0  0
   12.8019    4.7294   -3.6441 H   0  0  0  0  0  0  0  0  0  0  0  0
   10.9584    8.4285   -3.5430 H   0  0  0  0  0  0  0  0  0  0  0  0
   14.7212    9.8191   -1.3523 H   0  0  0  0  0  0  0  0  0  0  0  0
   15.6124    8.2641   -1.4179 H   0  0  0  0  0  0  0  0  0  0  0  0
   14.4764    8.6012   -0.0707 H   0  0  0  0  0  0  0  0  0  0  0  0
   13.8231    6.0830   -1.3550 H   0  0  0  0  0  0  0  0  0  0  0  0
    7.2893    4.0491   -1.4931 H   0  0  0  0  0  0  0  0  0  0  0  0
    3.8493    3.1155   -3.5162 H   0  0  0  0  0  0  0  0  0  0  0  0
  1  2  1  0  0  0  0
  1 38  1  0  0  0  0
  1 39  1  0  0  0  0
  1 40  1  0  0  0  0
  2  3  1  0  0  0  0
  3  4  1  0  0  0  0
  3 37  2  0  0  0  0
  4  5  2  0  0  0  0
  4 41  1  0  0  0  0
  5  6  1  0  0  0  0
  5  8  1  0  0  0  0
  6  7  1  0  0  0  0
  7 42  1  0  0  0  0
  7 43  1  0  0  0  0
  7 44  1  0  0  0  0
  8  9  2  0  0  0  0
  8 45  1  0  0  0  0
  9 10  1  0  0  0  0
  9 37  1  0  0  0  0
 10 11  1  0  0  0  0
 10 21  1  0  0  0  0
 11 12  1  0  0  0  0
 11 46  1  0  0  0  0
 11 47  1  0  0  0  0
 12 13  1  0  0  0  0
 12 48  1  0  0  0  0
 12 49  1  0  0  0  0
 13 14  1  0  0  0  0
 13 50  1  0  0  0  0
 13 51  1  0  0  0  0
 14 15  1  0  0  0  0
 14 20  2  0  0  0  0
 15 16  2  0  0  0  0
 15 52  1  0  0  0  0
 16 17  1  0  0  0  0
 16 18  1  0  0  0  0
 17 53  1  0  0  0  0
 17 54  1  0  0  0  0
 17 55  1  0  0  0  0
 18 19  2  0  0  0  0
 18 56  1  0  0  0  0
 19 20  1  0  0  0  0
 19 57  1  0  0  0  0
 21 22  1  0  0  0  0
 21 36  2  0  0  0  0
 22 23  2  0  0  0  0
 22 58  1  0  0  0  0
 23 24  1  0  0  0  0
 23 59  1  0  0  0  0
 24 25  1  0  0  0  0
 24 35  2  0  0  0  0
 25 26  2  0  0  0  0
 26 27  1  0  0  0  0
 26 60  1  0  0  0  0
 27 28  1  0  0  0  0
 27 34  2  0  0  0  0
 28 29  1  0  0  0  0
 28 33  2  0  0  0  0
 29 30  2  0  0  0  0
 29 61  1  0  0  0  0
 30 31  1  0  0  0  0
 31 32  1  0  0  0  0
 31 33  1  0  0  0  0
 32 62  1  0  0  0  0
 32 63  1  0  0  0  0
 32 64  1  0  0  0  0
 33 65  1  0  0  0  0
 34 35  1  0  0  0  0
 35 36  1  0  0  0  0
 36 66  1  0  0  0  0
 37 67  1  0  0  0  0
M  END
$$$$
