CHEMBL3925081
 OpenBabel04072215373D

 53 56  0  0  0  0  0  0  0  0999 V2000
    6.5178    2.3334    1.4717 H   0  0  0  0  0  0  0  0  0  0  0  0
    5.8287    1.4867    1.2802 C   0  0  0  0  0  0  0  0  0  0  0  0
    5.6594    0.9496    2.2360 H   0  0  0  0  0  0  0  0  0  0  0  0
    4.8642    1.9069    0.9186 H   0  0  0  0  0  0  0  0  0  0  0  0
    6.3855    0.6213    0.3345 O   0  0  0  0  0  0  0  0  0  0  0  0
    5.7904   -0.5139   -0.1387 C   0  0  0  0  0  0  0  0  0  0  0  0
    4.4878   -0.8568    0.2678 C   0  0  0  0  0  0  0  0  0  0  0  0
    3.8606   -1.9979   -0.2343 C   0  0  0  0  0  0  0  0  0  0  0  0
    2.6094   -2.3712    0.1469 O   0  0  0  0  0  0  0  0  0  0  0  0
    1.8287   -1.7388    1.0930 C   0  0  0  0  0  0  0  0  0  0  0  0
    4.5329   -2.7976   -1.1566 C   0  0  0  0  0  0  0  0  0  0  0  0
    5.8544   -2.5261   -1.5861 C   0  0  0  0  0  0  0  0  0  0  0  0
    6.4644   -3.4020   -2.5799 N   0  0  0  0  0  0  0  0  0  0  0  0
    5.6045   -3.9257   -3.6913 C   0  0  0  0  0  0  0  0  0  0  0  0
    5.2367   -2.9478   -4.8557 C   0  0  0  0  0  0  0  0  0  0  0  0
    4.4282   -1.8867   -4.4300 O   0  0  0  0  0  0  0  0  0  0  0  0
    7.8744   -3.8012   -2.6814 C   0  0  0  0  0  0  0  0  0  0  0  0
    8.4111   -3.5154   -3.9260 C   0  0  0  0  0  0  0  0  0  0  0  0
    9.5837   -3.9956   -4.3516 C   0  0  0  0  0  0  0  0  0  0  0  0
   10.3405   -4.8071   -3.5426 C   0  0  0  0  0  0  0  0  0  0  0  0
   11.4374   -5.2521   -4.1330 N   0  0  0  0  0  0  0  0  0  0  0  0
   12.2715   -6.0788   -3.5404 C   0  0  0  0  0  0  0  0  0  0  0  0
   12.0747   -6.5188   -2.2287 C   0  0  0  0  0  0  0  0  0  0  0  0
   13.2554   -7.4411   -1.7850 C   0  0  0  0  0  0  0  0  0  0  0  0
   14.1724   -7.9747   -2.7360 C   0  0  0  0  0  0  0  0  0  0  0  0
   15.1612   -8.6258   -2.1462 N   0  0  0  0  0  0  0  0  0  0  0  0
   14.9614   -8.5885   -0.8520 N   0  0  0  0  0  0  0  0  0  0  0  0
   15.9640   -9.1581    0.0425 C   0  0  0  0  0  0  0  0  0  0  0  0
   13.7965   -7.9168   -0.5712 C   0  0  0  0  0  0  0  0  0  0  0  0
   10.9189   -6.0291   -1.5556 N   0  0  0  0  0  0  0  0  0  0  0  0
   10.0037   -5.1627   -2.2273 C   0  0  0  0  0  0  0  0  0  0  0  0
    8.6955   -4.6250   -1.7581 C   0  0  0  0  0  0  0  0  0  0  0  0
    6.4795   -1.3602   -1.0606 C   0  0  0  0  0  0  0  0  0  0  0  0
    3.9550   -0.2350    0.9734 H   0  0  0  0  0  0  0  0  0  0  0  0
    0.8781   -2.2977    1.2121 H   0  0  0  0  0  0  0  0  0  0  0  0
    1.5950   -0.7020    0.7704 H   0  0  0  0  0  0  0  0  0  0  0  0
    2.3533   -1.7252    2.0728 H   0  0  0  0  0  0  0  0  0  0  0  0
    3.9952   -3.6599   -1.5070 H   0  0  0  0  0  0  0  0  0  0  0  0
    4.6776   -4.3924   -3.3202 H   0  0  0  0  0  0  0  0  0  0  0  0
    6.1307   -4.7638   -4.1958 H   0  0  0  0  0  0  0  0  0  0  0  0
    4.7091   -3.5545   -5.6367 H   0  0  0  0  0  0  0  0  0  0  0  0
    6.0841   -2.5297   -5.4306 H   0  0  0  0  0  0  0  0  0  0  0  0
    3.5648   -1.9690   -4.9174 H   0  0  0  0  0  0  0  0  0  0  0  0
    7.8968   -2.9263   -4.6452 H   0  0  0  0  0  0  0  0  0  0  0  0
    9.9271   -3.7781   -5.3393 H   0  0  0  0  0  0  0  0  0  0  0  0
   13.0983   -6.3137   -4.1594 H   0  0  0  0  0  0  0  0  0  0  0  0
   14.1838   -7.9178   -3.8072 H   0  0  0  0  0  0  0  0  0  0  0  0
   16.8288   -9.5401   -0.5572 H   0  0  0  0  0  0  0  0  0  0  0  0
   15.5501  -10.0065    0.6170 H   0  0  0  0  0  0  0  0  0  0  0  0
   16.3682   -8.3700    0.7109 H   0  0  0  0  0  0  0  0  0  0  0  0
   13.4298   -7.7471    0.4324 H   0  0  0  0  0  0  0  0  0  0  0  0
    8.3014   -4.8866   -0.7802 H   0  0  0  0  0  0  0  0  0  0  0  0
    7.4718   -1.0786   -1.3865 H   0  0  0  0  0  0  0  0  0  0  0  0
  1  2  1  0  0  0  0
  2  3  1  0  0  0  0
  2  4  1  0  0  0  0
  2  5  1  0  0  0  0
  5  6  1  0  0  0  0
  6  7  1  0  0  0  0
  6 33  2  0  0  0  0
  7  8  2  0  0  0  0
  7 34  1  0  0  0  0
  8  9  1  0  0  0  0
  8 11  1  0  0  0  0
  9 10  1  0  0  0  0
 10 35  1  0  0  0  0
 10 36  1  0  0  0  0
 10 37  1  0  0  0  0
 11 12  2  0  0  0  0
 11 38  1  0  0  0  0
 12 13  1  0  0  0  0
 12 33  1  0  0  0  0
 13 14  1  0  0  0  0
 13 17  1  0  0  0  0
 14 15  1  0  0  0  0
 14 39  1  0  0  0  0
 14 40  1  0  0  0  0
 15 16  1  0  0  0  0
 15 41  1  0  0  0  0
 15 42  1  0  0  0  0
 16 43  1  0  0  0  0
 17 18  1  0  0  0  0
 17 32  2  0  0  0  0
 18 19  2  0  0  0  0
 18 44  1  0  0  0  0
 19 20  1  0  0  0  0
 19 45  1  0  0  0  0
 20 21  1  0  0  0  0
 20 31  2  0  0  0  0
 21 22  2  0  0  0  0
 22 23  1  0  0  0  0
 22 46  1  0  0  0  0
 23 24  1  0  0  0  0
 23 30  2  0  0  0  0
 24 25  1  0  0  0  0
 24 29  2  0  0  0  0
 25 26  2  0  0  0  0
 25 47  1  0  0  0  0
 26 27  1  0  0  0  0
 27 28  1  0  0  0  0
 27 29  1  0  0  0  0
 28 48  1  0  0  0  0
 28 49  1  0  0  0  0
 28 50  1  0  0  0  0
 29 51  1  0  0  0  0
 30 31  1  0  0  0  0
 31 32  1  0  0  0  0
 32 52  1  0  0  0  0
 33 53  1  0  0  0  0
M  ISO  3   1   2   3   2   4   2
M  END
$$$$
