CHEMBL1094492
 OpenBabel04072215363D

 77 80  0  0  1  0  0  0  0  0999 V2000
   -2.8892    2.4829   -4.1273 C   0  0  0  0  0  0  0  0  0  0  0  0
   -2.8146    3.7187   -4.7350 O   0  0  0  0  0  0  0  0  0  0  0  0
   -1.8785    4.6600   -4.4567 C   0  0  0  0  0  0  0  0  0  0  0  0
   -0.7833    4.4029   -3.6075 C   0  0  0  0  0  0  0  0  0  0  0  0
    0.1249    5.4139   -3.3061 C   0  0  0  0  0  0  0  0  0  0  0  0
   -0.0431    6.6979   -3.8442 C   0  0  0  0  0  0  0  0  0  0  0  0
    0.9120    7.7996   -3.4817 C   0  0  0  0  0  0  0  0  0  0  0  0
    2.3154    7.4584   -3.9443 C   0  0  0  0  0  0  0  0  0  0  0  0
    3.2909    8.5894   -3.6132 C   0  0  0  0  0  0  0  0  0  0  0  0
    4.6962    8.2180   -4.0779 C   0  0  0  0  0  0  0  0  0  0  0  0
    4.7860    7.9927   -5.5990 C   0  0  0  0  0  0  0  0  0  0  0  0
    4.6656    9.1567   -6.5085 N   0  0  0  0  0  0  0  0  0  0  0  0
    4.4904    9.0289   -7.8656 C   0  0  0  0  0  0  0  0  0  0  0  0
    4.8070   10.2082   -8.4935 C   0  0  0  0  0  0  0  0  0  0  0  0
    5.1431   11.0818   -7.5296 C   0  0  0  0  0  0  0  0  0  0  0  0
    5.6072   12.3587   -7.7017 C   0  0  0  0  0  0  0  0  0  0  0  0
    5.9455   13.1029   -6.5863 C   0  0  0  0  0  0  0  0  0  0  0  0
    6.5314   14.2823   -6.8332 O   0  0  0  0  0  0  0  0  0  0  0  0
    7.3145   15.0148   -5.9693 C   0  0  0  0  0  0  0  0  0  0  0  0
    8.5537   14.2273   -5.4747 C   0  0  0  0  0  0  0  0  0  0  0  0
    9.5976   13.8293   -6.5145 C   0  0  0  0  0  0  0  0  0  0  0  0
   10.8895   14.3859   -6.4354 C   0  0  0  0  0  0  0  0  0  0  0  0
   11.8951   13.9976   -7.3238 C   0  0  0  0  0  0  0  0  0  0  0  0
   11.6360   13.0366   -8.3083 C   0  0  0  0  0  0  0  0  0  0  0  0
   12.6090   12.6378   -9.1550 O   0  0  0  0  0  0  0  0  0  0  0  0
   10.3569   12.4780   -8.4059 C   0  0  0  0  0  0  0  0  0  0  0  0
    9.3416   12.8699   -7.5174 C   0  0  0  0  0  0  0  0  0  0  0  0
    5.6912   12.5652   -5.2906 C   0  0  0  0  0  0  0  0  0  0  0  0
    5.2270   11.2399   -5.1443 C   0  0  0  0  0  0  0  0  0  0  0  0
    4.9978   10.4787   -6.3143 C   0  0  0  0  0  0  0  0  0  0  0  0
    4.8426   10.4595   -9.9574 C   0  0  0  0  0  0  0  0  0  0  0  0
    3.9012    9.4980  -10.6766 C   0  0  3  0  0  0  0  0  0  0  0  0
    2.5216    9.9441  -10.4817 N   0  0  0  0  0  0  0  0  0  0  0  0
    4.1272    8.0370  -10.1965 C   0  0  0  0  0  0  0  0  0  0  0  0
    4.0039    7.8234   -8.6521 C   0  0  0  0  0  0  0  0  0  0  0  0
   -1.1131    6.9492   -4.7137 C   0  0  0  0  0  0  0  0  0  0  0  0
   -2.0237    5.9351   -5.0177 C   0  0  0  0  0  0  0  0  0  0  0  0
   -0.9243    0.3447    1.6658 Cl  0  0  0  0  0  0  0  0  0  0  0  0
   -3.7739    1.9386   -4.5122 H   0  0  0  0  0  0  0  0  0  0  0  0
   -3.0038    2.6125   -3.0282 H   0  0  0  0  0  0  0  0  0  0  0  0
   -1.9764    1.8891   -4.3440 H   0  0  0  0  0  0  0  0  0  0  0  0
   -0.6295    3.4301   -3.1631 H   0  0  0  0  0  0  0  0  0  0  0  0
    0.9516    5.1948   -2.6402 H   0  0  0  0  0  0  0  0  0  0  0  0
    0.9006    7.9483   -2.3815 H   0  0  0  0  0  0  0  0  0  0  0  0
    0.6096    8.7501   -3.9713 H   0  0  0  0  0  0  0  0  0  0  0  0
    2.2577    7.2964   -5.0401 H   0  0  0  0  0  0  0  0  0  0  0  0
    2.6705    6.5197   -3.4608 H   0  0  0  0  0  0  0  0  0  0  0  0
    3.3137    8.7337   -2.5076 H   0  0  0  0  0  0  0  0  0  0  0  0
    2.9652    9.5364   -4.0905 H   0  0  0  0  0  0  0  0  0  0  0  0
    4.9897    7.2742   -3.5653 H   0  0  0  0  0  0  0  0  0  0  0  0
    5.4571    8.9395   -3.7385 H   0  0  0  0  0  0  0  0  0  0  0  0
    4.1591    7.1477   -5.9391 H   0  0  0  0  0  0  0  0  0  0  0  0
    5.8213    7.6122   -5.7571 H   0  0  0  0  0  0  0  0  0  0  0  0
    5.7727   12.7685   -8.6878 H   0  0  0  0  0  0  0  0  0  0  0  0
    6.7024   15.3242   -5.0986 H   0  0  0  0  0  0  0  0  0  0  0  0
    7.6566   15.9276   -6.4961 H   0  0  0  0  0  0  0  0  0  0  0  0
    8.2402   13.3130   -4.9294 H   0  0  0  0  0  0  0  0  0  0  0  0
    9.0374   14.8886   -4.7257 H   0  0  0  0  0  0  0  0  0  0  0  0
   11.1237   15.1161   -5.6709 H   0  0  0  0  0  0  0  0  0  0  0  0
   12.8810   14.4355   -7.2352 H   0  0  0  0  0  0  0  0  0  0  0  0
   13.5119   12.9851   -9.1011 H   0  0  0  0  0  0  0  0  0  0  0  0
   10.1563   11.7279   -9.1628 H   0  0  0  0  0  0  0  0  0  0  0  0
    8.3755   12.3993   -7.6054 H   0  0  0  0  0  0  0  0  0  0  0  0
    5.8833   13.1544   -4.4025 H   0  0  0  0  0  0  0  0  0  0  0  0
    5.0528   10.8873   -4.1483 H   0  0  0  0  0  0  0  0  0  0  0  0
    5.9041   10.3589  -10.2752 H   0  0  0  0  0  0  0  0  0  0  0  0
    4.5187   11.4989  -10.1803 H   0  0  0  0  0  0  0  0  0  0  0  0
    4.1277    9.5806  -11.7628 H   0  0  0  0  0  0  0  0  0  0  0  0
    1.8807    9.3846  -11.0850 H   0  0  0  0  0  0  0  0  0  0  0  0
    2.2350    9.8848   -9.4795 H   0  0  0  0  0  0  0  0  0  0  0  0
    5.1610    7.7643  -10.4940 H   0  0  0  0  0  0  0  0  0  0  0  0
    3.4345    7.3495  -10.7316 H   0  0  0  0  0  0  0  0  0  0  0  0
    2.9307    7.7063   -8.3845 H   0  0  0  0  0  0  0  0  0  0  0  0
    4.5272    6.8818   -8.3849 H   0  0  0  0  0  0  0  0  0  0  0  0
   -1.2516    7.9328   -5.1481 H   0  0  0  0  0  0  0  0  0  0  0  0
   -2.8555    6.1488   -5.6762 H   0  0  0  0  0  0  0  0  0  0  0  0
    0.4212    0.5064    1.9023 H   0  0  0  0  0  0  0  0  0  0  0  0
  1  2  1  0  0  0  0
  1 39  1  0  0  0  0
  1 40  1  0  0  0  0
  1 41  1  0  0  0  0
  2  3  1  0  0  0  0
  3  4  1  0  0  0  0
  3 37  2  0  0  0  0
  4  5  2  0  0  0  0
  4 42  1  0  0  0  0
  5  6  1  0  0  0  0
  5 43  1  0  0  0  0
  6  7  1  0  0  0  0
  6 36  2  0  0  0  0
  7  8  1  0  0  0  0
  7 44  1  0  0  0  0
  7 45  1  0  0  0  0
  8  9  1  0  0  0  0
  8 46  1  0  0  0  0
  8 47  1  0  0  0  0
  9 10  1  0  0  0  0
  9 48  1  0  0  0  0
  9 49  1  0  0  0  0
 10 11  1  0  0  0  0
 10 50  1  0  0  0  0
 10 51  1  0  0  0  0
 11 12  1  0  0  0  0
 11 52  1  0  0  0  0
 11 53  1  0  0  0  0
 12 13  1  0  0  0  0
 12 30  1  0  0  0  0
 13 14  2  0  0  0  0
 13 35  1  0  0  0  0
 14 15  1  0  0  0  0
 14 31  1  0  0  0  0
 15 16  1  0  0  0  0
 15 30  2  0  0  0  0
 16 17  2  0  0  0  0
 16 54  1  0  0  0  0
 17 18  1  0  0  0  0
 17 28  1  0  0  0  0
 18 19  1  0  0  0  0
 19 20  1  0  0  0  0
 19 55  1  0  0  0  0
 19 56  1  0  0  0  0
 20 21  1  0  0  0  0
 20 57  1  0  0  0  0
 20 58  1  0  0  0  0
 21 22  1  0  0  0  0
 21 27  2  0  0  0  0
 22 23  2  0  0  0  0
 22 59  1  0  0  0  0
 23 24  1  0  0  0  0
 23 60  1  0  0  0  0
 24 25  1  0  0  0  0
 24 26  2  0  0  0  0
 25 61  1  0  0  0  0
 26 27  1  0  0  0  0
 26 62  1  0  0  0  0
 27 63  1  0  0  0  0
 28 29  2  0  0  0  0
 28 64  1  0  0  0  0
 29 30  1  0  0  0  0
 29 65  1  0  0  0  0
 31 32  1  0  0  0  0
 31 66  1  0  0  0  0
 31 67  1  0  0  0  0
 32 33  1  0  0  0  0
 32 34  1  0  0  0  0
 32 68  1  0  0  0  0
 33 69  1  0  0  0  0
 33 70  1  0  0  0  0
 34 35  1  0  0  0  0
 34 71  1  0  0  0  0
 34 72  1  0  0  0  0
 35 73  1  0  0  0  0
 35 74  1  0  0  0  0
 36 37  1  0  0  0  0
 36 75  1  0  0  0  0
 37 76  1  0  0  0  0
 38 77  1  0  0  0  0
M  END
$$$$
