CHEMBL3893786
 OpenBabel04072215373D

 71 73  0  0  0  0  0  0  0  0999 V2000
    0.7314   -2.6118   -3.4605 C   0  0  0  0  0  0  0  0  0  0  0  0
    1.9754   -3.1084   -3.0855 O   0  0  0  0  0  0  0  0  0  0  0  0
    2.9213   -2.4205   -2.3845 C   0  0  0  0  0  0  0  0  0  0  0  0
    2.6742   -1.1016   -1.9509 C   0  0  0  0  0  0  0  0  0  0  0  0
    3.6151   -0.4110   -1.1972 C   0  0  0  0  0  0  0  0  0  0  0  0
    3.3396    0.8586   -0.8023 O   0  0  0  0  0  0  0  0  0  0  0  0
    4.1945    1.6581   -0.0643 C   0  0  0  0  0  0  0  0  0  0  0  0
    4.8113   -1.0517   -0.8618 C   0  0  0  0  0  0  0  0  0  0  0  0
    5.1229   -2.3664   -1.2722 C   0  0  0  0  0  0  0  0  0  0  0  0
    6.3295   -2.9806   -0.7572 N   0  0  0  0  0  0  0  0  0  0  0  0
    6.7184   -2.6210    0.6635 C   0  0  0  0  0  0  0  0  0  0  0  0
    5.6758   -3.0308    1.7445 C   0  0  0  0  0  0  0  0  0  0  0  0
    6.1388   -2.7485    3.1283 N   0  0  0  0  0  0  0  0  0  0  0  0
    5.0754   -2.9410    4.1602 C   0  0  0  0  0  0  0  0  0  0  0  0
    4.6205   -4.4045    4.2467 C   0  0  0  0  0  0  0  0  0  0  0  0
    5.5661   -2.5114    5.5646 C   0  0  0  0  0  0  0  0  0  0  0  0
    7.3021   -3.8327   -1.4609 C   0  0  0  0  0  0  0  0  0  0  0  0
    7.8459   -4.8254   -0.6468 C   0  0  0  0  0  0  0  0  0  0  0  0
    9.0316   -5.4077   -0.9212 C   0  0  0  0  0  0  0  0  0  0  0  0
    9.7108   -5.1068   -2.0606 C   0  0  0  0  0  0  0  0  0  0  0  0
   10.9662   -5.5502   -2.1043 N   0  0  0  0  0  0  0  0  0  0  0  0
   11.7275   -5.4218   -3.1750 C   0  0  0  0  0  0  0  0  0  0  0  0
   11.1664   -4.9871   -4.3718 C   0  0  0  0  0  0  0  0  0  0  0  0
   11.8854   -5.6204   -5.5756 C   0  0  0  0  0  0  0  0  0  0  0  0
   11.5710   -5.6728   -6.9268 C   0  0  0  0  0  0  0  0  0  0  0  0
   12.2794   -6.6835   -7.5102 N   0  0  0  0  0  0  0  0  0  0  0  0
   13.0675   -7.2461   -6.6002 N   0  0  0  0  0  0  0  0  0  0  0  0
   13.7633   -8.5561   -6.7530 C   0  0  0  0  0  0  0  0  0  0  0  0
   15.3002   -8.4959   -6.7073 C   0  0  0  0  0  0  0  0  0  0  0  0
   13.2825   -9.5345   -5.6536 C   0  0  0  0  0  0  0  0  0  0  0  0
   12.9083   -6.5930   -5.4459 C   0  0  0  0  0  0  0  0  0  0  0  0
    9.9038   -4.3644   -4.3234 N   0  0  0  0  0  0  0  0  0  0  0  0
    9.1639   -4.3395   -3.1189 C   0  0  0  0  0  0  0  0  0  0  0  0
    7.9062   -3.6404   -2.7976 C   0  0  0  0  0  0  0  0  0  0  0  0
    4.1603   -3.0481   -2.0577 C   0  0  0  0  0  0  0  0  0  0  0  0
    1.0059   -0.7553    2.2450 Cl  0  0  0  0  0  0  0  0  0  0  0  0
    0.1558   -3.3921   -4.0003 H   0  0  0  0  0  0  0  0  0  0  0  0
    0.8546   -1.7404   -4.1396 H   0  0  0  0  0  0  0  0  0  0  0  0
    0.1354   -2.3035   -2.5717 H   0  0  0  0  0  0  0  0  0  0  0  0
    1.7444   -0.5969   -2.1823 H   0  0  0  0  0  0  0  0  0  0  0  0
    3.7325    2.6525    0.0876 H   0  0  0  0  0  0  0  0  0  0  0  0
    5.1538    1.7940   -0.6106 H   0  0  0  0  0  0  0  0  0  0  0  0
    4.3915    1.1993    0.9298 H   0  0  0  0  0  0  0  0  0  0  0  0
    5.5071   -0.5003   -0.2594 H   0  0  0  0  0  0  0  0  0  0  0  0
    6.9450   -1.5420    0.7552 H   0  0  0  0  0  0  0  0  0  0  0  0
    7.6878   -3.0596    0.9687 H   0  0  0  0  0  0  0  0  0  0  0  0
    5.5051   -4.1241    1.6434 H   0  0  0  0  0  0  0  0  0  0  0  0
    4.7199   -2.4997    1.5532 H   0  0  0  0  0  0  0  0  0  0  0  0
    6.4323   -1.7408    3.1734 H   0  0  0  0  0  0  0  0  0  0  0  0
    4.1954   -2.3055    3.9129 H   0  0  0  0  0  0  0  0  0  0  0  0
    5.4742   -5.0682    4.5128 H   0  0  0  0  0  0  0  0  0  0  0  0
    4.1695   -4.7492    3.2970 H   0  0  0  0  0  0  0  0  0  0  0  0
    3.8359   -4.5154    5.0297 H   0  0  0  0  0  0  0  0  0  0  0  0
    6.4216   -3.1351    5.9071 H   0  0  0  0  0  0  0  0  0  0  0  0
    4.7384   -2.6508    6.3064 H   0  0  0  0  0  0  0  0  0  0  0  0
    5.8526   -1.4474    5.5909 H   0  0  0  0  0  0  0  0  0  0  0  0
    7.4030   -5.0770    0.3038 H   0  0  0  0  0  0  0  0  0  0  0  0
    9.4726   -6.0736   -0.1954 H   0  0  0  0  0  0  0  0  0  0  0  0
   12.7047   -5.8360   -3.0744 H   0  0  0  0  0  0  0  0  0  0  0  0
   10.7959   -5.1236   -7.4394 H   0  0  0  0  0  0  0  0  0  0  0  0
   13.4837   -8.9871   -7.7365 H   0  0  0  0  0  0  0  0  0  0  0  0
   15.6833   -8.1131   -5.7379 H   0  0  0  0  0  0  0  0  0  0  0  0
   15.7020   -7.8929   -7.5446 H   0  0  0  0  0  0  0  0  0  0  0  0
   15.6997   -9.5323   -6.8330 H   0  0  0  0  0  0  0  0  0  0  0  0
   13.6006   -9.1981   -4.6402 H   0  0  0  0  0  0  0  0  0  0  0  0
   13.7114  -10.5473   -5.8053 H   0  0  0  0  0  0  0  0  0  0  0  0
   12.1764   -9.6173   -5.6595 H   0  0  0  0  0  0  0  0  0  0  0  0
   13.4064   -6.9440   -4.5616 H   0  0  0  0  0  0  0  0  0  0  0  0
    7.4982   -2.9122   -3.4919 H   0  0  0  0  0  0  0  0  0  0  0  0
    4.3301   -4.0701   -2.3538 H   0  0  0  0  0  0  0  0  0  0  0  0
    1.7098   -1.4811    1.3130 H   0  0  0  0  0  0  0  0  0  0  0  0
  1  2  1  0  0  0  0
  1 37  1  0  0  0  0
  1 38  1  0  0  0  0
  1 39  1  0  0  0  0
  2  3  1  0  0  0  0
  3  4  1  0  0  0  0
  3 35  2  0  0  0  0
  4  5  2  0  0  0  0
  4 40  1  0  0  0  0
  5  6  1  0  0  0  0
  5  8  1  0  0  0  0
  6  7  1  0  0  0  0
  7 41  1  0  0  0  0
  7 42  1  0  0  0  0
  7 43  1  0  0  0  0
  8  9  2  0  0  0  0
  8 44  1  0  0  0  0
  9 10  1  0  0  0  0
  9 35  1  0  0  0  0
 10 11  1  0  0  0  0
 10 17  1  0  0  0  0
 11 12  1  0  0  0  0
 11 45  1  0  0  0  0
 11 46  1  0  0  0  0
 12 13  1  0  0  0  0
 12 47  1  0  0  0  0
 12 48  1  0  0  0  0
 13 14  1  0  0  0  0
 13 49  1  0  0  0  0
 14 15  1  0  0  0  0
 14 16  1  0  0  0  0
 14 50  1  0  0  0  0
 15 51  1  0  0  0  0
 15 52  1  0  0  0  0
 15 53  1  0  0  0  0
 16 54  1  0  0  0  0
 16 55  1  0  0  0  0
 16 56  1  0  0  0  0
 17 18  1  0  0  0  0
 17 34  2  0  0  0  0
 18 19  2  0  0  0  0
 18 57  1  0  0  0  0
 19 20  1  0  0  0  0
 19 58  1  0  0  0  0
 20 21  1  0  0  0  0
 20 33  2  0  0  0  0
 21 22  2  0  0  0  0
 22 23  1  0  0  0  0
 22 59  1  0  0  0  0
 23 24  1  0  0  0  0
 23 32  2  0  0  0  0
 24 25  1  0  0  0  0
 24 31  2  0  0  0  0
 25 26  2  0  0  0  0
 25 60  1  0  0  0  0
 26 27  1  0  0  0  0
 27 28  1  0  0  0  0
 27 31  1  0  0  0  0
 28 29  1  0  0  0  0
 28 30  1  0  0  0  0
 28 61  1  0  0  0  0
 29 62  1  0  0  0  0
 29 63  1  0  0  0  0
 29 64  1  0  0  0  0
 30 65  1  0  0  0  0
 30 66  1  0  0  0  0
 30 67  1  0  0  0  0
 31 68  1  0  0  0  0
 32 33  1  0  0  0  0
 33 34  1  0  0  0  0
 34 69  1  0  0  0  0
 35 70  1  0  0  0  0
 36 71  1  0  0  0  0
M  END
$$$$
