CHEMBL462381
 OpenBabel04072215383D

 57 61  0  0  0  0  0  0  0  0999 V2000
   10.5150    1.1779    0.9944 C   0  0  0  0  0  0  0  0  0  0  0  0
    9.8098    2.4145    1.1555 O   0  0  0  0  0  0  0  0  0  0  0  0
    8.9463    2.4607    2.2201 C   0  0  0  0  0  0  0  0  0  0  0  0
    9.2375    1.7715    3.4074 C   0  0  0  0  0  0  0  0  0  0  0  0
    8.3366    1.6765    4.4566 C   0  0  0  0  0  0  0  0  0  0  0  0
    8.6811    0.9156    5.5071 N   0  0  0  0  0  0  0  0  0  0  0  0
    7.7980    0.7841    6.5166 C   0  0  0  0  0  0  0  0  0  0  0  0
    6.5547    1.3729    6.5234 C   0  0  0  0  0  0  0  0  0  0  0  0
    6.1839    2.1269    5.4117 C   0  0  0  0  0  0  0  0  0  0  0  0
    4.9254    2.6965    5.3275 O   0  0  0  0  0  0  0  0  0  0  0  0
    3.8306    1.9536    5.7382 C   0  0  0  0  0  0  0  0  0  0  0  0
    2.7936    2.6736    6.3358 C   0  0  0  0  0  0  0  0  0  0  0  0
    1.6110    2.0352    6.7450 C   0  0  0  0  0  0  0  0  0  0  0  0
    1.4681    0.6493    6.5247 C   0  0  0  0  0  0  0  0  0  0  0  0
    0.4244   -0.3104    6.6843 C   0  0  0  0  0  0  0  0  0  0  0  0
   -0.7988    0.0184    7.1509 N   0  0  0  0  0  0  0  0  0  0  0  0
   -1.9552   -0.7929    6.8273 C   0  0  0  0  0  0  0  0  0  0  0  0
   -3.1995    0.0745    6.8449 C   0  0  0  0  0  0  0  0  0  0  0  0
   -3.2755    1.2213    6.0358 C   0  0  0  0  0  0  0  0  0  0  0  0
   -4.4336    2.0044    6.0100 C   0  0  0  0  0  0  0  0  0  0  0  0
   -5.5311    1.6442    6.7840 C   0  0  0  0  0  0  0  0  0  0  0  0
   -5.4735    0.5050    7.5871 C   0  0  0  0  0  0  0  0  0  0  0  0
   -4.3140   -0.2830    7.6155 C   0  0  0  0  0  0  0  0  0  0  0  0
    0.7878   -1.5119    6.2401 N   0  0  0  0  0  0  0  0  0  0  0  0
    2.0491   -1.3351    5.8063 N   0  0  0  0  0  0  0  0  0  0  0  0
    2.7495   -2.4409    5.1972 C   0  0  0  0  0  0  0  0  0  0  0  0
    2.5082   -0.0461    5.9164 C   0  0  0  0  0  0  0  0  0  0  0  0
    3.7025    0.5744    5.5077 C   0  0  0  0  0  0  0  0  0  0  0  0
    7.1048    2.3411    4.3571 C   0  0  0  0  0  0  0  0  0  0  0  0
    6.8643    3.1498    3.2222 C   0  0  0  0  0  0  0  0  0  0  0  0
    7.7690    3.2099    2.1464 C   0  0  0  0  0  0  0  0  0  0  0  0
    7.3201    4.0188    1.1378 O   0  0  0  0  0  0  0  0  0  0  0  0
    7.9764    4.0031   -0.1207 C   0  0  0  0  0  0  0  0  0  0  0  0
   10.6287    0.9865   -0.0762 H   0  0  0  0  0  0  0  0  0  0  0  0
    9.9863    0.3139    1.4173 H   0  0  0  0  0  0  0  0  0  0  0  0
   11.5127    1.2666    1.4362 H   0  0  0  0  0  0  0  0  0  0  0  0
   10.1869    1.2572    3.5283 H   0  0  0  0  0  0  0  0  0  0  0  0
    8.1258    0.1548    7.3385 H   0  0  0  0  0  0  0  0  0  0  0  0
    5.8867    1.2230    7.3629 H   0  0  0  0  0  0  0  0  0  0  0  0
    2.8900    3.7476    6.4707 H   0  0  0  0  0  0  0  0  0  0  0  0
    0.7995    2.6058    7.1809 H   0  0  0  0  0  0  0  0  0  0  0  0
   -0.8687    0.5176    8.0309 H   0  0  0  0  0  0  0  0  0  0  0  0
   -2.0443   -1.6185    7.5416 H   0  0  0  0  0  0  0  0  0  0  0  0
   -1.8759   -1.2286    5.8212 H   0  0  0  0  0  0  0  0  0  0  0  0
   -2.4217    1.5065    5.4221 H   0  0  0  0  0  0  0  0  0  0  0  0
   -4.4752    2.8845    5.3770 H   0  0  0  0  0  0  0  0  0  0  0  0
   -6.4395    2.2447    6.7526 H   0  0  0  0  0  0  0  0  0  0  0  0
   -6.3384    0.2180    8.1874 H   0  0  0  0  0  0  0  0  0  0  0  0
   -4.2927   -1.1698    8.2408 H   0  0  0  0  0  0  0  0  0  0  0  0
    2.1734   -3.3602    5.3315 H   0  0  0  0  0  0  0  0  0  0  0  0
    3.7260   -2.5442    5.6769 H   0  0  0  0  0  0  0  0  0  0  0  0
    2.8633   -2.2236    4.1324 H   0  0  0  0  0  0  0  0  0  0  0  0
    4.4791    0.0069    5.0069 H   0  0  0  0  0  0  0  0  0  0  0  0
    5.9434    3.7279    3.1561 H   0  0  0  0  0  0  0  0  0  0  0  0
    7.3080    4.4922   -0.8379 H   0  0  0  0  0  0  0  0  0  0  0  0
    8.1411    2.9877   -0.4917 H   0  0  0  0  0  0  0  0  0  0  0  0
    8.9035    4.5835   -0.0874 H   0  0  0  0  0  0  0  0  0  0  0  0
  1  2  1  0  0  0  0
  1 34  1  0  0  0  0
  1 35  1  0  0  0  0
  1 36  1  0  0  0  0
  2  3  1  0  0  0  0
  3  4  1  0  0  0  0
  3 31  2  0  0  0  0
  4  5  2  0  0  0  0
  4 37  1  0  0  0  0
  5  6  1  0  0  0  0
  5 29  1  0  0  0  0
  6  7  2  0  0  0  0
  7  8  1  0  0  0  0
  7 38  1  0  0  0  0
  8  9  2  0  0  0  0
  8 39  1  0  0  0  0
  9 10  1  0  0  0  0
  9 29  1  0  0  0  0
 10 11  1  0  0  0  0
 11 12  1  0  0  0  0
 11 28  2  0  0  0  0
 12 13  2  0  0  0  0
 12 40  1  0  0  0  0
 13 14  1  0  0  0  0
 13 41  1  0  0  0  0
 14 15  1  0  0  0  0
 14 27  2  0  0  0  0
 15 16  1  0  0  0  0
 15 24  2  0  0  0  0
 16 17  1  0  0  0  0
 16 42  1  0  0  0  0
 17 18  1  0  0  0  0
 17 43  1  0  0  0  0
 17 44  1  0  0  0  0
 18 19  1  0  0  0  0
 18 23  2  0  0  0  0
 19 20  2  0  0  0  0
 19 45  1  0  0  0  0
 20 21  1  0  0  0  0
 20 46  1  0  0  0  0
 21 22  2  0  0  0  0
 21 47  1  0  0  0  0
 22 23  1  0  0  0  0
 22 48  1  0  0  0  0
 23 49  1  0  0  0  0
 24 25  1  0  0  0  0
 25 26  1  0  0  0  0
 25 27  1  0  0  0  0
 26 50  1  0  0  0  0
 26 51  1  0  0  0  0
 26 52  1  0  0  0  0
 27 28  1  0  0  0  0
 28 53  1  0  0  0  0
 29 30  2  0  0  0  0
 30 31  1  0  0  0  0
 30 54  1  0  0  0  0
 31 32  1  0  0  0  0
 32 33  1  0  0  0  0
 33 55  1  0  0  0  0
 33 56  1  0  0  0  0
 33 57  1  0  0  0  0
M  END
$$$$
