CHEMBL3690431
 OpenBabel04072215373D

 79 81  0  0  1  0  0  0  0  0999 V2000
   15.3637   -3.7937    4.7236 C   0  0  0  0  0  0  0  0  0  0  0  0
   14.8004   -2.7679    3.7468 C   0  0  0  0  0  0  0  0  0  0  0  0
   13.7518   -1.8890    4.2942 N   0  0  0  0  0  0  0  0  0  0  0  0
   14.1677   -1.1592    5.5108 C   0  0  0  0  0  0  0  0  0  0  0  0
   15.2929   -0.1354    5.3510 C   0  0  0  0  0  0  0  0  0  0  0  0
   13.2483   -0.9483    3.2667 C   0  0  0  0  0  0  0  0  0  0  0  0
   12.6302   -1.5897    2.0097 C   0  0  0  0  0  0  0  0  0  0  0  0
   11.4556   -2.3932    2.2761 N   0  0  0  0  0  0  0  0  0  0  0  0
   10.5301   -2.6169    1.2760 C   0  0  0  0  0  0  0  0  0  0  0  0
   10.6415   -2.1102    0.1615 O   0  0  0  0  0  0  0  0  0  0  0  0
    9.3668   -3.5708    1.6355 C   0  0  0  0  0  0  0  0  0  0  0  0
    8.6184   -3.0348    2.8648 C   0  0  0  0  0  0  0  0  0  0  0  0
    8.3722   -3.6748    0.4662 C   0  0  0  0  0  0  0  0  0  0  0  0
    9.8886   -4.9207    1.9880 N   0  0  0  0  0  0  0  0  0  0  0  0
   10.5771   -5.5300    1.0824 C   0  0  0  0  0  0  0  0  0  0  0  0
   11.0618   -6.9564    1.2964 C   0  0  3  0  0  0  0  0  0  0  0  0
   10.4907   -7.8785    0.2292 C   0  0  0  0  0  0  0  0  0  0  0  0
   11.0505   -8.9546   -0.2236 N   0  0  0  0  0  0  0  0  0  0  0  0
   12.5764   -6.9884    1.3971 C   0  0  0  0  0  0  0  0  0  0  0  0
   13.3841   -6.5723    0.2482 C   0  0  0  0  0  0  0  0  0  0  0  0
   14.7258   -6.6011    0.3302 C   0  0  0  0  0  0  0  0  0  0  0  0
   15.3530   -6.9988    1.5169 N   0  0  0  0  0  0  0  0  0  0  0  0
   16.7016   -7.0419    1.8887 C   0  0  0  0  0  0  0  0  0  0  0  0
   17.8595   -6.5479    1.1205 C   0  0  0  0  0  0  0  0  0  0  0  0
   17.7236   -5.4399    0.2744 C   0  0  0  0  0  0  0  0  0  0  0  0
   18.7927   -4.9770   -0.4790 C   0  0  0  0  0  0  0  0  0  0  0  0
   20.0453   -5.5581   -0.3339 C   0  0  0  0  0  0  0  0  0  0  0  0
   20.2563   -6.6025    0.5673 C   0  0  0  0  0  0  0  0  0  0  0  0
   21.5499   -7.1414    0.8068 N   0  0  0  0  0  0  0  0  0  0  0  0
   22.7307   -6.6703    0.2754 C   0  0  0  0  0  0  0  0  0  0  0  0
   22.8726   -5.7178   -0.4892 O   0  0  0  0  0  0  0  0  0  0  0  0
   23.8296   -7.4128    0.6457 N   0  0  0  0  0  0  0  0  0  0  0  0
   25.1450   -6.9906    0.1371 C   0  0  0  0  0  0  0  0  0  0  0  0
   25.8261   -5.8291    0.8790 C   0  0  0  0  0  0  0  0  0  0  0  0
   25.1487   -5.4644    1.9914 F   0  0  0  0  0  0  0  0  0  0  0  0
   27.0661   -6.2069    1.2840 F   0  0  0  0  0  0  0  0  0  0  0  0
   25.9780   -4.7378    0.1002 F   0  0  0  0  0  0  0  0  0  0  0  0
   19.1475   -7.1158    1.2694 C   0  0  0  0  0  0  0  0  0  0  0  0
   16.6703   -7.5932    3.1620 C   0  0  0  0  0  0  0  0  0  0  0  0
   15.3960   -7.8407    3.5942 N   0  0  0  0  0  0  0  0  0  0  0  0
   14.6171   -7.4513    2.6113 C   0  0  0  0  0  0  0  0  0  0  0  0
   13.1948   -7.4314    2.5154 C   0  0  0  0  0  0  0  0  0  0  0  0
   15.9242   -4.5532    4.1681 H   0  0  0  0  0  0  0  0  0  0  0  0
   14.5665   -4.3051    5.2722 H   0  0  0  0  0  0  0  0  0  0  0  0
   16.0521   -3.3359    5.4401 H   0  0  0  0  0  0  0  0  0  0  0  0
   14.3734   -3.3556    2.9282 H   0  0  0  0  0  0  0  0  0  0  0  0
   15.6247   -2.1841    3.3204 H   0  0  0  0  0  0  0  0  0  0  0  0
   14.4509   -1.8768    6.2892 H   0  0  0  0  0  0  0  0  0  0  0  0
   13.2932   -0.6407    5.9271 H   0  0  0  0  0  0  0  0  0  0  0  0
   16.1325   -0.5238    4.7683 H   0  0  0  0  0  0  0  0  0  0  0  0
   15.6834    0.1459    6.3351 H   0  0  0  0  0  0  0  0  0  0  0  0
   14.9317    0.7791    4.8691 H   0  0  0  0  0  0  0  0  0  0  0  0
   14.0575   -0.2870    2.9326 H   0  0  0  0  0  0  0  0  0  0  0  0
   12.4775   -0.3117    3.7205 H   0  0  0  0  0  0  0  0  0  0  0  0
   13.3461   -2.2223    1.4771 H   0  0  0  0  0  0  0  0  0  0  0  0
   12.3553   -0.7873    1.3142 H   0  0  0  0  0  0  0  0  0  0  0  0
   11.4852   -3.0405    3.0616 H   0  0  0  0  0  0  0  0  0  0  0  0
    8.2281   -2.0269    2.6807 H   0  0  0  0  0  0  0  0  0  0  0  0
    9.2657   -2.9799    3.7468 H   0  0  0  0  0  0  0  0  0  0  0  0
    7.7741   -3.6827    3.1282 H   0  0  0  0  0  0  0  0  0  0  0  0
    7.9317   -2.6973    0.2358 H   0  0  0  0  0  0  0  0  0  0  0  0
    7.5576   -4.3711    0.6936 H   0  0  0  0  0  0  0  0  0  0  0  0
    8.8546   -4.0260   -0.4529 H   0  0  0  0  0  0  0  0  0  0  0  0
   10.8133   -5.0709    0.1044 H   0  0  0  0  0  0  0  0  0  0  0  0
   10.6167   -7.2994    2.2409 H   0  0  0  0  0  0  0  0  0  0  0  0
    9.4799   -7.6333   -0.1427 H   0  0  0  0  0  0  0  0  0  0  0  0
   11.9630   -9.1226    0.2170 H   0  0  0  0  0  0  0  0  0  0  0  0
   12.9003   -6.2644   -0.6743 H   0  0  0  0  0  0  0  0  0  0  0  0
   15.3445   -6.3303   -0.5135 H   0  0  0  0  0  0  0  0  0  0  0  0
   16.7887   -4.8970    0.1936 H   0  0  0  0  0  0  0  0  0  0  0  0
   18.6633   -4.1452   -1.1661 H   0  0  0  0  0  0  0  0  0  0  0  0
   20.8424   -5.1466   -0.9427 H   0  0  0  0  0  0  0  0  0  0  0  0
   21.6117   -7.9044    1.4664 H   0  0  0  0  0  0  0  0  0  0  0  0
   23.8034   -7.8599    1.5506 H   0  0  0  0  0  0  0  0  0  0  0  0
   25.0381   -6.7159   -0.9186 H   0  0  0  0  0  0  0  0  0  0  0  0
   25.7876   -7.8771    0.1691 H   0  0  0  0  0  0  0  0  0  0  0  0
   19.2849   -7.9551    1.9465 H   0  0  0  0  0  0  0  0  0  0  0  0
   17.5138   -7.7893    3.8114 H   0  0  0  0  0  0  0  0  0  0  0  0
   12.6370   -7.7830    3.3793 H   0  0  0  0  0  0  0  0  0  0  0  0
  1  2  1  0  0  0  0
  1 43  1  0  0  0  0
  1 44  1  0  0  0  0
  1 45  1  0  0  0  0
  2  3  1  0  0  0  0
  2 46  1  0  0  0  0
  2 47  1  0  0  0  0
  3  4  1  0  0  0  0
  3  6  1  0  0  0  0
  4  5  1  0  0  0  0
  4 48  1  0  0  0  0
  4 49  1  0  0  0  0
  5 50  1  0  0  0  0
  5 51  1  0  0  0  0
  5 52  1  0  0  0  0
  6  7  1  0  0  0  0
  6 53  1  0  0  0  0
  6 54  1  0  0  0  0
  7  8  1  0  0  0  0
  7 55  1  0  0  0  0
  7 56  1  0  0  0  0
  8  9  1  0  0  0  0
  8 57  1  0  0  0  0
  9 10  2  0  0  0  0
  9 11  1  0  0  0  0
 11 12  1  0  0  0  0
 11 13  1  0  0  0  0
 11 14  1  0  0  0  0
 12 58  1  0  0  0  0
 12 59  1  0  0  0  0
 12 60  1  0  0  0  0
 13 61  1  0  0  0  0
 13 62  1  0  0  0  0
 13 63  1  0  0  0  0
 14 15  2  0  0  0  0
 15 16  1  0  0  0  0
 15 64  1  0  0  0  0
 16 17  1  0  0  0  0
 16 19  1  0  0  0  0
 16 65  1  0  0  0  0
 17 18  2  0  0  0  0
 17 66  1  0  0  0  0
 18 67  1  0  0  0  0
 19 20  1  0  0  0  0
 19 42  2  0  0  0  0
 20 21  2  0  0  0  0
 20 68  1  0  0  0  0
 21 22  1  0  0  0  0
 21 69  1  0  0  0  0
 22 23  1  0  0  0  0
 22 41  1  0  0  0  0
 23 24  1  0  0  0  0
 23 39  2  0  0  0  0
 24 25  1  0  0  0  0
 24 38  2  0  0  0  0
 25 26  2  0  0  0  0
 25 70  1  0  0  0  0
 26 27  1  0  0  0  0
 26 71  1  0  0  0  0
 27 28  2  0  0  0  0
 27 72  1  0  0  0  0
 28 29  1  0  0  0  0
 28 38  1  0  0  0  0
 29 30  1  0  0  0  0
 29 73  1  0  0  0  0
 30 31  2  0  0  0  0
 30 32  1  0  0  0  0
 32 33  1  0  0  0  0
 32 74  1  0  0  0  0
 33 34  1  0  0  0  0
 33 75  1  0  0  0  0
 33 76  1  0  0  0  0
 34 35  1  0  0  0  0
 34 36  1  0  0  0  0
 34 37  1  0  0  0  0
 38 77  1  0  0  0  0
 39 40  1  0  0  0  0
 39 78  1  0  0  0  0
 40 41  2  0  0  0  0
 41 42  1  0  0  0  0
 42 79  1  0  0  0  0
M  END
$$$$
