CHEMBL3582439
 OpenBabel04072215363D

 45 49  0  0  1  0  0  0  0  0999 V2000
    0.3004   -6.2212    2.3397 F   0  0  0  0  0  0  0  0  0  0  0  0
    0.2561   -5.3377    1.3338 C   0  0  0  0  0  0  0  0  0  0  0  0
    1.2522   -5.3479    0.3694 C   0  0  0  0  0  0  0  0  0  0  0  0
    1.2001   -4.4266   -0.6727 C   0  0  0  0  0  0  0  0  0  0  0  0
    0.1441   -3.5098   -0.7465 C   0  0  0  0  0  0  0  0  0  0  0  0
   -0.8858   -3.5056    0.2140 C   0  0  0  0  0  0  0  0  0  0  0  0
   -2.0357   -2.5056    0.0992 C   0  0  1  0  0  0  0  0  0  0  0  0
   -2.8003   -2.6296   -1.2315 C   0  0  0  0  0  0  0  0  0  0  0  0
   -3.7454   -3.7971   -0.9877 C   0  0  0  0  0  0  0  0  0  0  0  0
   -4.0923   -3.6904    0.4946 C   0  0  0  0  0  0  0  0  0  0  0  0
   -3.1122   -2.7715    1.0649 N   0  0  0  0  0  0  0  0  0  0  0  0
   -3.1654   -2.2158    2.3335 C   0  0  0  0  0  0  0  0  0  0  0  0
   -4.3013   -2.5814    3.2489 C   0  0  0  0  0  0  0  0  0  0  0  0
   -4.3421   -2.0772    4.4832 C   0  0  0  0  0  0  0  0  0  0  0  0
   -3.3194   -1.2124    4.9058 C   0  0  0  0  0  0  0  0  0  0  0  0
   -3.1295   -0.6266    6.0665 N   0  0  0  0  0  0  0  0  0  0  0  0
   -1.9795    0.0935    5.9014 C   0  0  0  0  0  0  0  0  0  0  0  0
   -1.4677   -0.0191    4.6187 C   0  0  0  0  0  0  0  0  0  0  0  0
   -0.2921    0.6251    4.0500 C   0  0  0  0  0  0  0  0  0  0  0  0
   -0.1378    0.9024    2.6980 C   0  0  0  0  0  0  0  0  0  0  0  0
    0.9963    1.5976    2.2770 C   0  0  0  0  0  0  0  0  0  0  0  0
    1.9419    1.9897    3.2161 C   0  0  0  0  0  0  0  0  0  0  0  0
    1.7129    1.6750    4.5428 C   0  0  0  0  0  0  0  0  0  0  0  0
    0.6183    1.0126    4.9771 N   0  0  0  0  0  0  0  0  0  0  0  0
   -2.3290   -0.8993    3.9876 N   0  0  0  0  0  0  0  0  0  0  0  0
   -2.2225   -1.3821    2.7063 N   0  0  0  0  0  0  0  0  0  0  0  0
   -0.7954   -4.4294    1.2695 C   0  0  0  0  0  0  0  0  0  0  0  0
    2.0616   -6.0662    0.4422 H   0  0  0  0  0  0  0  0  0  0  0  0
    1.9819   -4.4195   -1.4282 H   0  0  0  0  0  0  0  0  0  0  0  0
    0.1350   -2.7953   -1.5678 H   0  0  0  0  0  0  0  0  0  0  0  0
   -1.6347   -1.4896    0.1991 H   0  0  0  0  0  0  0  0  0  0  0  0
   -2.1746   -2.7836   -2.1146 H   0  0  0  0  0  0  0  0  0  0  0  0
   -3.3935   -1.7207   -1.3988 H   0  0  0  0  0  0  0  0  0  0  0  0
   -3.2451   -4.7497   -1.1955 H   0  0  0  0  0  0  0  0  0  0  0  0
   -4.6386   -3.7471   -1.6181 H   0  0  0  0  0  0  0  0  0  0  0  0
   -4.0244   -4.6723    0.9759 H   0  0  0  0  0  0  0  0  0  0  0  0
   -5.1098   -3.3066    0.6144 H   0  0  0  0  0  0  0  0  0  0  0  0
   -5.0737   -3.2513    2.8993 H   0  0  0  0  0  0  0  0  0  0  0  0
   -5.1437   -2.3139    5.1723 H   0  0  0  0  0  0  0  0  0  0  0  0
   -1.5682    0.6862    6.7102 H   0  0  0  0  0  0  0  0  0  0  0  0
   -0.8902    0.6143    1.9718 H   0  0  0  0  0  0  0  0  0  0  0  0
    1.1301    1.8360    1.2277 H   0  0  0  0  0  0  0  0  0  0  0  0
    2.8317    2.5349    2.9214 H   0  0  0  0  0  0  0  0  0  0  0  0
    2.4191    1.9596    5.3170 H   0  0  0  0  0  0  0  0  0  0  0  0
   -1.5376   -4.4629    2.0601 H   0  0  0  0  0  0  0  0  0  0  0  0
  1  2  1  0  0  0  0
  2  3  1  0  0  0  0
  2 27  2  0  0  0  0
  3  4  2  0  0  0  0
  3 28  1  0  0  0  0
  4  5  1  0  0  0  0
  4 29  1  0  0  0  0
  5  6  2  0  0  0  0
  5 30  1  0  0  0  0
  6 27  1  0  0  0  0
  7  8  1  0  0  0  0
  7 11  1  0  0  0  0
  7  6  1  0  0  0  0
  7 31  1  1  0  0  0
  8  9  1  0  0  0  0
  8 32  1  0  0  0  0
  8 33  1  0  0  0  0
  9 10  1  0  0  0  0
  9 34  1  0  0  0  0
  9 35  1  0  0  0  0
 10 11  1  0  0  0  0
 10 36  1  0  0  0  0
 10 37  1  0  0  0  0
 11 12  1  0  0  0  0
 12 13  1  0  0  0  0
 12 26  2  0  0  0  0
 13 14  2  0  0  0  0
 13 38  1  0  0  0  0
 14 15  1  0  0  0  0
 14 39  1  0  0  0  0
 15 16  2  0  0  0  0
 15 25  1  0  0  0  0
 16 17  1  0  0  0  0
 17 18  2  0  0  0  0
 17 40  1  0  0  0  0
 18 19  1  0  0  0  0
 18 25  1  0  0  0  0
 19 20  1  0  0  0  0
 19 24  2  0  0  0  0
 20 21  2  0  0  0  0
 20 41  1  0  0  0  0
 21 22  1  0  0  0  0
 21 42  1  0  0  0  0
 22 23  2  0  0  0  0
 22 43  1  0  0  0  0
 23 24  1  0  0  0  0
 23 44  1  0  0  0  0
 25 26  1  0  0  0  0
 27 45  1  0  0  0  0
M  END
$$$$
