CHEMBL1983111
 OpenBabel04072215363D

 59 63  0  0  1  0  0  0  0  0999 V2000
    4.0306   -5.3356    4.0645 C   0  0  0  0  0  0  0  0  0  0  0  0
    4.6859   -4.1092    3.4934 C   0  0  0  0  0  0  0  0  0  0  0  0
    5.6030   -3.5225    4.0486 O   0  0  0  0  0  0  0  0  0  0  0  0
    4.1211   -3.6709    2.3176 N   0  0  0  0  0  0  0  0  0  0  0  0
    4.6271   -2.4957    1.6305 C   0  0  0  0  0  0  0  0  0  0  0  0
    5.6406   -2.8607    0.5453 C   0  0  0  0  0  0  0  0  0  0  0  0
    5.2498   -3.3436   -0.5230 O   0  0  0  0  0  0  0  0  0  0  0  0
    6.9761   -2.7265    0.8254 N   0  0  0  0  0  0  0  0  0  0  0  0
    7.9900   -2.8700   -0.1934 C   0  0  3  0  0  0  0  0  0  0  0  0
    8.2945   -1.3622   -0.5163 C   0  0  0  0  0  0  0  0  0  0  0  0
    7.8698   -0.6342    0.8143 C   0  0  0  0  0  0  0  0  0  0  0  0
    7.6655   -1.8296    1.7622 C   0  0  3  0  0  0  0  0  0  0  0  0
    9.0377   -2.4923    1.8445 C   0  0  0  0  0  0  0  0  0  0  0  0
   10.1644   -2.1893    2.5830 C   0  0  0  0  0  0  0  0  0  0  0  0
   11.3985   -2.7337    2.1719 C   0  0  0  0  0  0  0  0  0  0  0  0
   12.5734   -2.2961    2.8107 N   0  0  0  0  0  0  0  0  0  0  0  0
   13.8564   -2.8354    2.8072 C   0  0  0  0  0  0  0  0  0  0  0  0
   14.0180   -4.1367    2.5485 N   0  0  0  0  0  0  0  0  0  0  0  0
   15.2368   -4.6550    2.7182 C   0  0  0  0  0  0  0  0  0  0  0  0
   16.3177   -3.9235    3.1405 C   0  0  0  0  0  0  0  0  0  0  0  0
   17.6163   -4.5946    3.3764 C   0  0  0  0  0  0  0  0  0  0  0  0
   17.5721   -5.9412    3.1545 F   0  0  0  0  0  0  0  0  0  0  0  0
   18.6285   -4.1328    2.5956 F   0  0  0  0  0  0  0  0  0  0  0  0
   18.0404   -4.4563    4.6654 F   0  0  0  0  0  0  0  0  0  0  0  0
   16.0976   -2.5724    3.3285 C   0  0  0  0  0  0  0  0  0  0  0  0
   17.1808   -1.7291    3.6531 N   0  0  0  0  0  0  0  0  0  0  0  0
   17.1933   -0.2998    3.5075 C   0  0  0  0  0  0  0  0  0  0  0  0
   18.2482    0.1318    2.4672 C   0  0  0  0  0  0  0  0  0  0  0  0
   19.0011    0.9171    3.5468 C   0  0  0  0  0  0  0  0  0  0  0  0
   18.0111    0.4126    4.6037 C   0  0  0  0  0  0  0  0  0  0  0  0
   14.8722   -2.0287    3.1591 N   0  0  0  0  0  0  0  0  0  0  0  0
   11.4231   -3.6911    1.1251 C   0  0  0  0  0  0  0  0  0  0  0  0
   10.2999   -3.9573    0.3467 C   0  0  0  0  0  0  0  0  0  0  0  0
    9.1564   -3.2736    0.6753 C   0  0  0  0  0  0  0  0  0  0  0  0
    4.5467   -5.6266    4.9837 H   0  0  0  0  0  0  0  0  0  0  0  0
    4.0694   -6.1643    3.3531 H   0  0  0  0  0  0  0  0  0  0  0  0
    2.9905   -5.1058    4.3070 H   0  0  0  0  0  0  0  0  0  0  0  0
    3.4703   -4.2706    1.8168 H   0  0  0  0  0  0  0  0  0  0  0  0
    5.0319   -1.7820    2.3478 H   0  0  0  0  0  0  0  0  0  0  0  0
    3.7707   -2.0195    1.1397 H   0  0  0  0  0  0  0  0  0  0  0  0
    7.7581   -3.5159   -1.0404 H   0  0  0  0  0  0  0  0  0  0  0  0
    7.7201   -0.9802   -1.3618 H   0  0  0  0  0  0  0  0  0  0  0  0
    9.3623   -1.1860   -0.7176 H   0  0  0  0  0  0  0  0  0  0  0  0
    6.9250   -0.1039    0.6465 H   0  0  0  0  0  0  0  0  0  0  0  0
    8.6187    0.0835    1.1651 H   0  0  0  0  0  0  0  0  0  0  0  0
    7.1540   -1.6462    2.7058 H   0  0  0  0  0  0  0  0  0  0  0  0
   10.1172   -1.4651    3.3891 H   0  0  0  0  0  0  0  0  0  0  0  0
   12.5993   -1.3230    3.0776 H   0  0  0  0  0  0  0  0  0  0  0  0
   15.3022   -5.7198    2.5091 H   0  0  0  0  0  0  0  0  0  0  0  0
   17.7148   -2.0700    4.4482 H   0  0  0  0  0  0  0  0  0  0  0  0
   16.2070    0.1470    3.3466 H   0  0  0  0  0  0  0  0  0  0  0  0
   17.8546    0.7540    1.6565 H   0  0  0  0  0  0  0  0  0  0  0  0
   18.8398   -0.6768    2.0230 H   0  0  0  0  0  0  0  0  0  0  0  0
   18.9933    2.0022    3.4012 H   0  0  0  0  0  0  0  0  0  0  0  0
   20.0345    0.5909    3.7039 H   0  0  0  0  0  0  0  0  0  0  0  0
   17.4692    1.2164    5.1143 H   0  0  0  0  0  0  0  0  0  0  0  0
   18.4677   -0.2279    5.3655 H   0  0  0  0  0  0  0  0  0  0  0  0
   12.3560   -4.1585    0.8218 H   0  0  0  0  0  0  0  0  0  0  0  0
   10.3623   -4.5826   -0.5362 H   0  0  0  0  0  0  0  0  0  0  0  0
  1  2  1  0  0  0  0
  1 35  1  0  0  0  0
  1 36  1  0  0  0  0
  1 37  1  0  0  0  0
  2  3  2  0  0  0  0
  2  4  1  0  0  0  0
  4  5  1  0  0  0  0
  4 38  1  0  0  0  0
  5  6  1  0  0  0  0
  5 39  1  0  0  0  0
  5 40  1  0  0  0  0
  6  7  2  0  0  0  0
  6  8  1  0  0  0  0
  8  9  1  0  0  0  0
  8 12  1  0  0  0  0
  9 10  1  0  0  0  0
  9 34  1  0  0  0  0
  9 41  1  0  0  0  0
 10 11  1  0  0  0  0
 10 42  1  0  0  0  0
 10 43  1  0  0  0  0
 11 12  1  0  0  0  0
 11 44  1  0  0  0  0
 11 45  1  0  0  0  0
 12 13  1  0  0  0  0
 12 46  1  0  0  0  0
 13 14  1  0  0  0  0
 13 34  2  0  0  0  0
 14 15  2  0  0  0  0
 14 47  1  0  0  0  0
 15 16  1  0  0  0  0
 15 32  1  0  0  0  0
 16 17  1  0  0  0  0
 16 48  1  0  0  0  0
 17 18  1  0  0  0  0
 17 31  2  0  0  0  0
 18 19  2  0  0  0  0
 19 20  1  0  0  0  0
 19 49  1  0  0  0  0
 20 21  1  0  0  0  0
 20 25  2  0  0  0  0
 21 22  1  0  0  0  0
 21 23  1  0  0  0  0
 21 24  1  0  0  0  0
 25 26  1  0  0  0  0
 25 31  1  0  0  0  0
 26 27  1  0  0  0  0
 26 50  1  0  0  0  0
 27 28  1  0  0  0  0
 27 30  1  0  0  0  0
 27 51  1  0  0  0  0
 28 29  1  0  0  0  0
 28 52  1  0  0  0  0
 28 53  1  0  0  0  0
 29 30  1  0  0  0  0
 29 54  1  0  0  0  0
 29 55  1  0  0  0  0
 30 56  1  0  0  0  0
 30 57  1  0  0  0  0
 32 33  2  0  0  0  0
 32 58  1  0  0  0  0
 33 34  1  0  0  0  0
 33 59  1  0  0  0  0
M  END
$$$$
