CHEMBL3642838
 OpenBabel04072215373D

 59 62  0  0  0  0  0  0  0  0999 V2000
    1.5304    4.3794    1.9459 C   0  0  0  0  0  0  0  0  0  0  0  0
    2.8181    4.0508    1.7771 C   0  0  0  0  0  0  0  0  0  0  0  0
    3.4045    2.9266    2.5485 C   0  0  0  0  0  0  0  0  0  0  0  0
    2.7534    2.2615    3.3442 O   0  0  0  0  0  0  0  0  0  0  0  0
    4.7330    2.7137    2.2821 N   0  0  0  0  0  0  0  0  0  0  0  0
    5.4263    1.6403    2.9510 C   0  0  0  0  0  0  0  0  0  0  0  0
    6.8673    1.5409    2.5274 C   0  0  0  0  0  0  0  0  0  0  0  0
    7.8707    2.2782    3.1771 C   0  0  0  0  0  0  0  0  0  0  0  0
    9.2177    2.1375    2.8135 C   0  0  0  0  0  0  0  0  0  0  0  0
    9.5693    1.2645    1.7800 C   0  0  0  0  0  0  0  0  0  0  0  0
   10.9738    0.9770    1.3697 C   0  0  0  0  0  0  0  0  0  0  0  0
   11.1960   -0.1503    0.9335 O   0  0  0  0  0  0  0  0  0  0  0  0
   11.9054    1.9865    1.5170 N   0  0  0  0  0  0  0  0  0  0  0  0
   13.2590    1.9041    1.1056 C   0  0  0  0  0  0  0  0  0  0  0  0
   13.7368    0.9153    0.2543 C   0  0  0  0  0  0  0  0  0  0  0  0
   15.0964    0.8248   -0.0377 C   0  0  0  0  0  0  0  0  0  0  0  0
   16.0141    1.7421    0.4939 C   0  0  0  0  0  0  0  0  0  0  0  0
   17.4735    1.5091    0.2210 C   0  0  0  0  0  0  0  0  0  0  0  0
   15.5350    2.8353    1.2424 C   0  0  0  0  0  0  0  0  0  0  0  0
   16.3922    3.8794    1.6444 N   0  0  0  0  0  0  0  0  0  0  0  0
   16.1046    5.2438    1.7540 C   0  0  0  0  0  0  0  0  0  0  0  0
   17.1061    6.0639    2.0975 N   0  0  0  0  0  0  0  0  0  0  0  0
   16.8219    7.3819    2.1459 C   0  0  0  0  0  0  0  0  0  0  0  0
   15.5938    7.9141    1.8283 C   0  0  0  0  0  0  0  0  0  0  0  0
   14.6231    7.0106    1.4578 C   0  0  0  0  0  0  0  0  0  0  0  0
   13.2645    7.3681    1.0127 C   0  0  0  0  0  0  0  0  0  0  0  0
   12.6204    8.5633    1.3568 C   0  0  0  0  0  0  0  0  0  0  0  0
   11.3335    8.8352    0.8843 C   0  0  0  0  0  0  0  0  0  0  0  0
   10.7112    7.8994    0.0765 C   0  0  0  0  0  0  0  0  0  0  0  0
   11.2759    6.7274   -0.2678 N   0  0  0  0  0  0  0  0  0  0  0  0
   12.5279    6.4963    0.1986 C   0  0  0  0  0  0  0  0  0  0  0  0
   14.8801    5.6895    1.4469 N   0  0  0  0  0  0  0  0  0  0  0  0
   14.1586    2.8719    1.5639 C   0  0  0  0  0  0  0  0  0  0  0  0
    8.5633    0.5448    1.1146 C   0  0  0  0  0  0  0  0  0  0  0  0
    7.2228    0.6903    1.4729 C   0  0  0  0  0  0  0  0  0  0  0  0
    1.0829    5.1981    1.3938 H   0  0  0  0  0  0  0  0  0  0  0  0
    0.8931    3.8362    2.6402 H   0  0  0  0  0  0  0  0  0  0  0  0
    3.4450    4.5952    1.0838 H   0  0  0  0  0  0  0  0  0  0  0  0
    5.2283    3.2684    1.5985 H   0  0  0  0  0  0  0  0  0  0  0  0
    4.9001    0.7024    2.7346 H   0  0  0  0  0  0  0  0  0  0  0  0
    5.3561    1.7957    4.0328 H   0  0  0  0  0  0  0  0  0  0  0  0
    7.6066    2.9407    3.9996 H   0  0  0  0  0  0  0  0  0  0  0  0
    9.9701    2.6757    3.3822 H   0  0  0  0  0  0  0  0  0  0  0  0
   11.6327    2.8405    1.9832 H   0  0  0  0  0  0  0  0  0  0  0  0
   13.0751    0.1880   -0.2039 H   0  0  0  0  0  0  0  0  0  0  0  0
   15.4306    0.0138   -0.6813 H   0  0  0  0  0  0  0  0  0  0  0  0
   17.6422    0.4963   -0.1655 H   0  0  0  0  0  0  0  0  0  0  0  0
   18.0507    1.5835    1.1483 H   0  0  0  0  0  0  0  0  0  0  0  0
   17.8535    2.2219   -0.5149 H   0  0  0  0  0  0  0  0  0  0  0  0
   17.3822    3.7651    1.4856 H   0  0  0  0  0  0  0  0  0  0  0  0
   17.6470    8.0201    2.4471 H   0  0  0  0  0  0  0  0  0  0  0  0
   15.4326    8.9821    1.8454 H   0  0  0  0  0  0  0  0  0  0  0  0
   13.0961    9.2927    2.0054 H   0  0  0  0  0  0  0  0  0  0  0  0
   10.8284    9.7587    1.1433 H   0  0  0  0  0  0  0  0  0  0  0  0
    9.7132    8.0689   -0.3194 H   0  0  0  0  0  0  0  0  0  0  0  0
   12.9464    5.5426   -0.1219 H   0  0  0  0  0  0  0  0  0  0  0  0
   13.7940    3.6582    2.2198 H   0  0  0  0  0  0  0  0  0  0  0  0
    8.8283   -0.1535    0.3231 H   0  0  0  0  0  0  0  0  0  0  0  0
    6.4655    0.1062    0.9549 H   0  0  0  0  0  0  0  0  0  0  0  0
  1  2  2  0  0  0  0
  1 36  1  0  0  0  0
  1 37  1  0  0  0  0
  2  3  1  0  0  0  0
  2 38  1  0  0  0  0
  3  4  2  0  0  0  0
  3  5  1  0  0  0  0
  5  6  1  0  0  0  0
  5 39  1  0  0  0  0
  6  7  1  0  0  0  0
  6 40  1  0  0  0  0
  6 41  1  0  0  0  0
  7  8  1  0  0  0  0
  7 35  2  0  0  0  0
  8  9  2  0  0  0  0
  8 42  1  0  0  0  0
  9 10  1  0  0  0  0
  9 43  1  0  0  0  0
 10 11  1  0  0  0  0
 10 34  2  0  0  0  0
 11 12  2  0  0  0  0
 11 13  1  0  0  0  0
 13 14  1  0  0  0  0
 13 44  1  0  0  0  0
 14 15  1  0  0  0  0
 14 33  2  0  0  0  0
 15 16  2  0  0  0  0
 15 45  1  0  0  0  0
 16 17  1  0  0  0  0
 16 46  1  0  0  0  0
 17 18  1  0  0  0  0
 17 19  2  0  0  0  0
 18 47  1  0  0  0  0
 18 48  1  0  0  0  0
 18 49  1  0  0  0  0
 19 20  1  0  0  0  0
 19 33  1  0  0  0  0
 20 21  1  0  0  0  0
 20 50  1  0  0  0  0
 21 22  1  0  0  0  0
 21 32  2  0  0  0  0
 22 23  2  0  0  0  0
 23 24  1  0  0  0  0
 23 51  1  0  0  0  0
 24 25  2  0  0  0  0
 24 52  1  0  0  0  0
 25 26  1  0  0  0  0
 25 32  1  0  0  0  0
 26 27  1  0  0  0  0
 26 31  2  0  0  0  0
 27 28  2  0  0  0  0
 27 53  1  0  0  0  0
 28 29  1  0  0  0  0
 28 54  1  0  0  0  0
 29 30  2  0  0  0  0
 29 55  1  0  0  0  0
 30 31  1  0  0  0  0
 31 56  1  0  0  0  0
 33 57  1  0  0  0  0
 34 35  1  0  0  0  0
 34 58  1  0  0  0  0
 35 59  1  0  0  0  0
M  END
$$$$
