CHEMBL4535949
 OpenBabel04072215383D

 54 57  0  0  0  0  0  0  0  0999 V2000
    2.2949   -0.2078    1.2086 C   0  0  0  0  0  0  0  0  0  0  0  0
    2.4385    0.2079   -0.1477 O   0  0  0  0  0  0  0  0  0  0  0  0
    3.0591   -0.6261   -1.0298 C   0  0  0  0  0  0  0  0  0  0  0  0
    4.0850   -1.4762   -0.6291 C   0  0  0  0  0  0  0  0  0  0  0  0
    4.6789   -2.3931   -1.5142 C   0  0  0  0  0  0  0  0  0  0  0  0
    5.6700   -3.3042   -1.1262 C   0  0  0  0  0  0  0  0  0  0  0  0
    6.0246   -3.4025    0.2501 N   0  0  0  0  0  0  0  0  0  0  0  0
    7.2158   -3.9861    0.7378 C   0  0  0  0  0  0  0  0  0  0  0  0
    8.4430   -3.6603    0.1392 C   0  0  0  0  0  0  0  0  0  0  0  0
    9.6287   -4.2453    0.5785 C   0  0  0  0  0  0  0  0  0  0  0  0
    9.5946   -5.1489    1.6320 C   0  0  0  0  0  0  0  0  0  0  0  0
   10.7314   -5.7324    2.0323 F   0  0  0  0  0  0  0  0  0  0  0  0
    8.4039   -5.4558    2.2784 C   0  0  0  0  0  0  0  0  0  0  0  0
    7.2195   -4.8635    1.8388 C   0  0  0  0  0  0  0  0  0  0  0  0
    5.7480   -5.2517    2.6614 Cl  0  0  0  0  0  0  0  0  0  0  0  0
    6.2634   -4.1251   -2.0119 N   0  0  0  0  0  0  0  0  0  0  0  0
    5.8322   -4.0466   -3.2733 C   0  0  0  0  0  0  0  0  0  0  0  0
    4.8739   -3.2361   -3.7381 N   0  0  0  0  0  0  0  0  0  0  0  0
    4.3010   -2.4050   -2.8603 C   0  0  0  0  0  0  0  0  0  0  0  0
    3.3167   -1.5055   -3.2738 C   0  0  0  0  0  0  0  0  0  0  0  0
    2.7041   -0.5977   -2.3898 C   0  0  0  0  0  0  0  0  0  0  0  0
    1.7630    0.2285   -2.9716 O   0  0  0  0  0  0  0  0  0  0  0  0
    1.7119    1.5534   -2.4309 C   0  0  0  0  0  0  0  0  0  0  0  0
    0.8092    2.4768   -3.2572 C   0  0  0  0  0  0  0  0  0  0  0  0
    0.7447    3.8136   -2.6648 N   0  0  0  0  0  0  0  0  0  0  0  0
    1.6913    4.7709   -2.9710 C   0  0  0  0  0  0  0  0  0  0  0  0
    2.5339    4.6043   -3.8515 O   0  0  0  0  0  0  0  0  0  0  0  0
    1.6371    6.0448   -2.1566 C   0  0  0  0  0  0  0  0  0  0  0  0
    2.8879    6.2663   -1.4597 N   0  0  0  0  0  0  0  0  0  0  0  0
    4.1267    6.4594   -1.9985 C   0  0  0  0  0  0  0  0  0  0  0  0
    5.0086    6.6409   -1.0414 N   0  0  0  0  0  0  0  0  0  0  0  0
    4.2394    6.5531    0.0940 C   0  0  0  0  0  0  0  0  0  0  0  0
    4.7967    6.6614    1.4357 N   0  3  0  0  0  0  0  0  0  0  0  0
    6.0278    6.7938    1.5298 O   0  0  0  0  0  0  0  0  0  0  0  0
    4.0124    6.6095    2.3977 O   0  5  0  0  0  0  0  0  0  0  0  0
    2.9251    6.3380   -0.1103 N   0  0  0  0  0  0  0  0  0  0  0  0
    2.5252    0.6525    1.8431 H   0  0  0  0  0  0  0  0  0  0  0  0
    2.9274   -1.0378    1.5293 H   0  0  0  0  0  0  0  0  0  0  0  0
    1.2547   -0.4983    1.3807 H   0  0  0  0  0  0  0  0  0  0  0  0
    4.4820   -1.4136    0.3803 H   0  0  0  0  0  0  0  0  0  0  0  0
    5.2119   -3.7362    0.7722 H   0  0  0  0  0  0  0  0  0  0  0  0
    8.4727   -2.9490   -0.6833 H   0  0  0  0  0  0  0  0  0  0  0  0
   10.5709   -4.0056    0.0967 H   0  0  0  0  0  0  0  0  0  0  0  0
    8.4136   -6.1560    3.1068 H   0  0  0  0  0  0  0  0  0  0  0  0
    6.3088   -4.7124   -3.9850 H   0  0  0  0  0  0  0  0  0  0  0  0
    3.0311   -1.5009   -4.3244 H   0  0  0  0  0  0  0  0  0  0  0  0
    2.7221    1.9782   -2.3765 H   0  0  0  0  0  0  0  0  0  0  0  0
    1.2611    1.5321   -1.4363 H   0  0  0  0  0  0  0  0  0  0  0  0
   -0.2123    2.0820   -3.2809 H   0  0  0  0  0  0  0  0  0  0  0  0
    1.1576    2.5410   -4.2935 H   0  0  0  0  0  0  0  0  0  0  0  0
    0.1874    3.9200   -1.8256 H   0  0  0  0  0  0  0  0  0  0  0  0
    0.8280    6.0189   -1.4189 H   0  0  0  0  0  0  0  0  0  0  0  0
    1.4701    6.8966   -2.8238 H   0  0  0  0  0  0  0  0  0  0  0  0
    4.3251    6.4410   -3.0633 H   0  0  0  0  0  0  0  0  0  0  0  0
  1  2  1  0  0  0  0
  1 37  1  0  0  0  0
  1 38  1  0  0  0  0
  1 39  1  0  0  0  0
  2  3  1  0  0  0  0
  3  4  1  0  0  0  0
  3 21  2  0  0  0  0
  4  5  2  0  0  0  0
  4 40  1  0  0  0  0
  5  6  1  0  0  0  0
  5 19  1  0  0  0  0
  6  7  1  0  0  0  0
  6 16  2  0  0  0  0
  7  8  1  0  0  0  0
  7 41  1  0  0  0  0
  8  9  1  0  0  0  0
  8 14  2  0  0  0  0
  9 10  2  0  0  0  0
  9 42  1  0  0  0  0
 10 11  1  0  0  0  0
 10 43  1  0  0  0  0
 11 12  1  0  0  0  0
 11 13  2  0  0  0  0
 13 14  1  0  0  0  0
 13 44  1  0  0  0  0
 14 15  1  0  0  0  0
 16 17  1  0  0  0  0
 17 18  2  0  0  0  0
 17 45  1  0  0  0  0
 18 19  1  0  0  0  0
 19 20  2  0  0  0  0
 20 21  1  0  0  0  0
 20 46  1  0  0  0  0
 21 22  1  0  0  0  0
 22 23  1  0  0  0  0
 23 24  1  0  0  0  0
 23 47  1  0  0  0  0
 23 48  1  0  0  0  0
 24 25  1  0  0  0  0
 24 49  1  0  0  0  0
 24 50  1  0  0  0  0
 25 26  1  0  0  0  0
 25 51  1  0  0  0  0
 26 27  2  0  0  0  0
 26 28  1  0  0  0  0
 28 29  1  0  0  0  0
 28 52  1  0  0  0  0
 28 53  1  0  0  0  0
 29 30  1  0  0  0  0
 29 36  1  0  0  0  0
 30 31  2  0  0  0  0
 30 54  1  0  0  0  0
 31 32  1  0  0  0  0
 32 33  1  0  0  0  0
 32 36  2  0  0  0  0
 33 34  2  0  0  0  0
 33 35  1  0  0  0  0
M  CHG  2  33   1  35  -1
M  END
$$$$
