CHEMBL215563
 OpenBabel04072215363D

 69 74  0  0  0  0  0  0  0  0999 V2000
   -6.0495   -0.0471    9.5496 C   0  0  0  0  0  0  0  0  0  0  0  0
   -5.1950   -0.3129    8.3585 C   0  0  0  0  0  0  0  0  0  0  0  0
   -4.0153    0.4190    8.1422 C   0  0  0  0  0  0  0  0  0  0  0  0
   -3.2287    0.1657    7.0221 C   0  0  0  0  0  0  0  0  0  0  0  0
   -3.5999   -0.8226    6.1120 C   0  0  0  0  0  0  0  0  0  0  0  0
   -4.7627   -1.5825    6.3063 C   0  0  0  0  0  0  0  0  0  0  0  0
   -5.1750   -2.6054    5.4325 N   0  0  0  0  0  0  0  0  0  0  0  0
   -4.4839   -3.0701    4.3400 C   0  0  0  0  0  0  0  0  0  0  0  0
   -3.4008   -2.6667    3.9310 O   0  0  0  0  0  0  0  0  0  0  0  0
   -5.1537   -4.0849    3.6862 N   0  0  0  0  0  0  0  0  0  0  0  0
   -4.5203   -4.5734    2.4843 C   0  0  0  0  0  0  0  0  0  0  0  0
   -5.3209   -5.6505    1.8458 C   0  0  0  0  0  0  0  0  0  0  0  0
   -5.0019   -6.9894    1.6592 C   0  0  0  0  0  0  0  0  0  0  0  0
   -5.8275   -7.6119    0.6636 C   0  0  0  0  0  0  0  0  0  0  0  0
   -5.4397   -8.8677   -0.0702 C   0  0  0  0  0  0  0  0  0  0  0  0
   -4.1925   -9.3758   -0.0301 N   0  0  0  0  0  0  0  0  0  0  0  0
   -3.9937   -9.8981   -1.2791 N   0  0  0  0  0  0  0  0  0  0  0  0
   -5.1067   -9.8483   -2.0832 C   0  0  0  0  0  0  0  0  0  0  0  0
   -6.1024   -9.3338   -1.2398 C   0  0  0  0  0  0  0  0  0  0  0  0
   -7.1728   -8.7305   -2.0678 C   0  0  0  0  0  0  0  0  0  0  0  0
   -6.1511   -8.1269   -3.0369 C   0  0  0  0  0  0  0  0  0  0  0  0
   -5.5073   -6.8796   -2.8937 C   0  0  0  0  0  0  0  0  0  0  0  0
   -4.2886   -6.6689   -3.5642 C   0  0  0  0  0  0  0  0  0  0  0  0
   -3.2127   -5.7168   -3.0530 C   0  0  0  0  0  0  0  0  0  0  0  0
   -3.1420   -4.4077   -3.6999 N   0  0  0  0  0  0  0  0  0  0  0  0
   -4.2819   -3.5659   -3.2988 C   0  0  0  0  0  0  0  0  0  0  0  0
   -4.1833   -2.1519   -3.9084 C   0  0  0  0  0  0  0  0  0  0  0  0
   -2.9452   -1.4187   -3.5800 N   0  0  0  0  0  0  0  0  0  0  0  0
   -2.9409   -0.9613   -2.1923 C   0  0  0  0  0  0  0  0  0  0  0  0
   -1.7832   -2.2798   -3.8758 C   0  0  0  0  0  0  0  0  0  0  0  0
   -1.8795   -3.7234   -3.3214 C   0  0  0  0  0  0  0  0  0  0  0  0
   -3.9234   -7.5913   -4.5453 C   0  0  0  0  0  0  0  0  0  0  0  0
   -4.3682   -8.9047   -4.4132 C   0  0  0  0  0  0  0  0  0  0  0  0
   -5.3013   -9.1821   -3.4346 C   0  0  0  0  0  0  0  0  0  0  0  0
   -6.8917   -6.7764    0.3798 C   0  0  0  0  0  0  0  0  0  0  0  0
   -6.7829   -5.2285    1.0795 S   0  0  0  0  0  0  0  0  0  0  0  0
   -5.5561   -1.3100    7.4297 C   0  0  0  0  0  0  0  0  0  0  0  0
   -5.6372    0.7703   10.1471 H   0  0  0  0  0  0  0  0  0  0  0  0
   -6.1077   -0.9351   10.1848 H   0  0  0  0  0  0  0  0  0  0  0  0
   -7.0553    0.2683    9.2614 H   0  0  0  0  0  0  0  0  0  0  0  0
   -3.7094    1.1872    8.8398 H   0  0  0  0  0  0  0  0  0  0  0  0
   -2.3187    0.7339    6.8541 H   0  0  0  0  0  0  0  0  0  0  0  0
   -2.9483   -0.9779    5.2600 H   0  0  0  0  0  0  0  0  0  0  0  0
   -6.0004   -3.1202    5.6889 H   0  0  0  0  0  0  0  0  0  0  0  0
   -6.1599   -4.0133    3.6679 H   0  0  0  0  0  0  0  0  0  0  0  0
   -3.5177   -4.9337    2.7342 H   0  0  0  0  0  0  0  0  0  0  0  0
   -4.4079   -3.7320    1.7847 H   0  0  0  0  0  0  0  0  0  0  0  0
   -4.1198   -7.4504    2.0883 H   0  0  0  0  0  0  0  0  0  0  0  0
   -3.0422  -10.1247   -1.5465 H   0  0  0  0  0  0  0  0  0  0  0  0
   -7.9000   -8.0610   -1.6469 H   0  0  0  0  0  0  0  0  0  0  0  0
   -7.7368   -9.5284   -2.5732 H   0  0  0  0  0  0  0  0  0  0  0  0
   -5.7875   -6.2097   -2.0843 H   0  0  0  0  0  0  0  0  0  0  0  0
   -2.2529   -6.2348   -3.2196 H   0  0  0  0  0  0  0  0  0  0  0  0
   -3.2794   -5.6306   -1.9591 H   0  0  0  0  0  0  0  0  0  0  0  0
   -4.3453   -3.4965   -2.2044 H   0  0  0  0  0  0  0  0  0  0  0  0
   -5.2161   -4.0183   -3.6492 H   0  0  0  0  0  0  0  0  0  0  0  0
   -5.0588   -1.5609   -3.6147 H   0  0  0  0  0  0  0  0  0  0  0  0
   -4.2421   -2.2441   -5.0010 H   0  0  0  0  0  0  0  0  0  0  0  0
   -3.8203   -0.3388   -1.9924 H   0  0  0  0  0  0  0  0  0  0  0  0
   -2.0657   -0.3281   -2.0073 H   0  0  0  0  0  0  0  0  0  0  0  0
   -2.9293   -1.7772   -1.4630 H   0  0  0  0  0  0  0  0  0  0  0  0
   -0.8604   -1.8059   -3.5160 H   0  0  0  0  0  0  0  0  0  0  0  0
   -1.6755   -2.3362   -4.9674 H   0  0  0  0  0  0  0  0  0  0  0  0
   -1.7665   -3.6945   -2.2283 H   0  0  0  0  0  0  0  0  0  0  0  0
   -1.0241   -4.2892   -3.7133 H   0  0  0  0  0  0  0  0  0  0  0  0
   -3.2066   -7.3154   -5.3141 H   0  0  0  0  0  0  0  0  0  0  0  0
   -4.1125   -9.6492   -5.1594 H   0  0  0  0  0  0  0  0  0  0  0  0
   -7.7099   -6.8765   -0.3020 H   0  0  0  0  0  0  0  0  0  0  0  0
   -6.4671   -1.8775    7.5986 H   0  0  0  0  0  0  0  0  0  0  0  0
  1  2  1  0  0  0  0
  1 38  1  0  0  0  0
  1 39  1  0  0  0  0
  1 40  1  0  0  0  0
  2  3  1  0  0  0  0
  2 37  2  0  0  0  0
  3  4  2  0  0  0  0
  3 41  1  0  0  0  0
  4  5  1  0  0  0  0
  4 42  1  0  0  0  0
  5  6  2  0  0  0  0
  5 43  1  0  0  0  0
  6  7  1  0  0  0  0
  6 37  1  0  0  0  0
  7  8  1  0  0  0  0
  7 44  1  0  0  0  0
  8  9  2  0  0  0  0
  8 10  1  0  0  0  0
 10 11  1  0  0  0  0
 10 45  1  0  0  0  0
 11 12  1  0  0  0  0
 11 46  1  0  0  0  0
 11 47  1  0  0  0  0
 12 13  2  0  0  0  0
 12 36  1  0  0  0  0
 13 14  1  0  0  0  0
 13 48  1  0  0  0  0
 14 15  1  0  0  0  0
 14 35  2  0  0  0  0
 15 16  2  0  0  0  0
 15 19  1  0  0  0  0
 16 17  1  0  0  0  0
 17 18  1  0  0  0  0
 17 49  1  0  0  0  0
 18 19  2  0  0  0  0
 18 34  1  0  0  0  0
 19 20  1  0  0  0  0
 20 21  1  0  0  0  0
 20 50  1  0  0  0  0
 20 51  1  0  0  0  0
 21 22  1  0  0  0  0
 21 34  2  0  0  0  0
 22 23  2  0  0  0  0
 22 52  1  0  0  0  0
 23 24  1  0  0  0  0
 23 32  1  0  0  0  0
 24 25  1  0  0  0  0
 24 53  1  0  0  0  0
 24 54  1  0  0  0  0
 25 26  1  0  0  0  0
 25 31  1  0  0  0  0
 26 27  1  0  0  0  0
 26 55  1  0  0  0  0
 26 56  1  0  0  0  0
 27 28  1  0  0  0  0
 27 57  1  0  0  0  0
 27 58  1  0  0  0  0
 28 29  1  0  0  0  0
 28 30  1  0  0  0  0
 29 59  1  0  0  0  0
 29 60  1  0  0  0  0
 29 61  1  0  0  0  0
 30 31  1  0  0  0  0
 30 62  1  0  0  0  0
 30 63  1  0  0  0  0
 31 64  1  0  0  0  0
 31 65  1  0  0  0  0
 32 33  2  0  0  0  0
 32 66  1  0  0  0  0
 33 34  1  0  0  0  0
 33 67  1  0  0  0  0
 35 36  1  0  0  0  0
 35 68  1  0  0  0  0
 37 69  1  0  0  0  0
M  END
$$$$
