CHEMBL436117
 OpenBabel04072215383D

 61 64  0  0  0  0  0  0  0  0999 V2000
   -0.6863    6.9127   -8.0545 C   0  0  0  0  0  0  0  0  0  0  0  0
   -1.1831    6.2189   -6.9116 O   0  0  0  0  0  0  0  0  0  0  0  0
   -0.1039    5.5305   -6.3044 N   0  0  0  0  0  0  0  0  0  0  0  0
    0.5248    6.2241   -5.2923 C   0  0  0  0  0  0  0  0  0  0  0  0
    0.3642    7.4191   -5.0590 O   0  0  0  0  0  0  0  0  0  0  0  0
    1.4799    5.4606   -4.4537 C   0  0  0  0  0  0  0  0  0  0  0  0
    2.5288    6.1671   -3.8402 C   0  0  0  0  0  0  0  0  0  0  0  0
    3.4084    5.5414   -2.9438 C   0  0  0  0  0  0  0  0  0  0  0  0
    4.4498    6.2527   -2.3069 N   0  0  0  0  0  0  0  0  0  0  0  0
    5.1389    7.3237   -2.8439 C   0  0  0  0  0  0  0  0  0  0  0  0
    5.2467    7.4002   -4.1434 N   0  0  0  0  0  0  0  0  0  0  0  0
    5.9577    8.4119   -4.7218 C   0  0  0  0  0  0  0  0  0  0  0  0
    6.5767    9.3612   -4.1067 N   0  0  0  0  0  0  0  0  0  0  0  0
    6.4604    9.3122   -2.7748 N   0  0  0  0  0  0  0  0  0  0  0  0
    7.0078   10.2243   -1.9359 C   0  0  0  0  0  0  0  0  0  0  0  0
    6.6720    9.9141   -0.6425 C   0  0  0  0  0  0  0  0  0  0  0  0
    7.0866   10.6522    0.4625 N   0  0  0  0  0  0  0  0  0  0  0  0
    7.8897   11.7742    0.4144 C   0  0  0  0  0  0  0  0  0  0  0  0
    8.2946   12.3535   -0.5828 O   0  0  0  0  0  0  0  0  0  0  0  0
    8.2500   12.1386    1.6782 O   0  0  0  0  0  0  0  0  0  0  0  0
    9.4725   12.8947    1.7406 C   0  0  0  0  0  0  0  0  0  0  0  0
    9.3161   14.3433    2.1403 C   0  0  0  0  0  0  0  0  0  0  0  0
    9.9969   14.8336    3.2683 C   0  0  0  0  0  0  0  0  0  0  0  0
    9.9937   16.1987    3.5718 C   0  0  0  0  0  0  0  0  0  0  0  0
    9.3071   17.0916    2.7541 C   0  0  0  0  0  0  0  0  0  0  0  0
    8.6179   16.6197    1.6381 C   0  0  0  0  0  0  0  0  0  0  0  0
    8.6214   15.2525    1.3317 C   0  0  0  0  0  0  0  0  0  0  0  0
    5.8451    8.7211   -0.6988 C   0  0  0  0  0  0  0  0  0  0  0  0
    5.1645    7.9942    0.4486 C   0  0  0  0  0  0  0  0  0  0  0  0
    6.0829    6.9488    1.0857 C   0  0  0  0  0  0  0  0  0  0  0  0
    4.5900    8.9080    1.5383 C   0  0  0  0  0  0  0  0  0  0  0  0
    5.7769    8.3636   -2.0607 C   0  0  0  0  0  0  0  0  0  0  0  0
    3.2347    4.1664   -2.7250 C   0  0  0  0  0  0  0  0  0  0  0  0
    4.0634    3.5220   -1.8896 F   0  0  0  0  0  0  0  0  0  0  0  0
    2.2192    3.4409   -3.3509 C   0  0  0  0  0  0  0  0  0  0  0  0
    1.3433    4.0971   -4.2098 C   0  0  0  0  0  0  0  0  0  0  0  0
    0.3555    3.3918   -4.7827 F   0  0  0  0  0  0  0  0  0  0  0  0
   -1.5150    7.4563   -8.5157 H   0  0  0  0  0  0  0  0  0  0  0  0
   -0.2812    6.2026   -8.7820 H   0  0  0  0  0  0  0  0  0  0  0  0
    0.0836    7.6363   -7.7674 H   0  0  0  0  0  0  0  0  0  0  0  0
   -0.2111    4.5219   -6.2555 H   0  0  0  0  0  0  0  0  0  0  0  0
    2.6330    7.2317   -4.0486 H   0  0  0  0  0  0  0  0  0  0  0  0
    4.8124    5.8308   -1.4621 H   0  0  0  0  0  0  0  0  0  0  0  0
    6.0061    8.3978   -5.8241 H   0  0  0  0  0  0  0  0  0  0  0  0
    7.5919   11.0257   -2.3583 H   0  0  0  0  0  0  0  0  0  0  0  0
    6.8724   10.3219    1.3870 H   0  0  0  0  0  0  0  0  0  0  0  0
   10.0536   12.8453    0.8096 H   0  0  0  0  0  0  0  0  0  0  0  0
   10.0885   12.3806    2.4870 H   0  0  0  0  0  0  0  0  0  0  0  0
   10.5670   14.1605    3.9028 H   0  0  0  0  0  0  0  0  0  0  0  0
   10.5447   16.5647    4.4345 H   0  0  0  0  0  0  0  0  0  0  0  0
    9.3203   18.1554    2.9785 H   0  0  0  0  0  0  0  0  0  0  0  0
    8.0956   17.3199    0.9907 H   0  0  0  0  0  0  0  0  0  0  0  0
    8.1100   14.9131    0.4333 H   0  0  0  0  0  0  0  0  0  0  0  0
    4.2987    7.4636    0.0347 H   0  0  0  0  0  0  0  0  0  0  0  0
    6.9683    7.4121    1.5338 H   0  0  0  0  0  0  0  0  0  0  0  0
    6.4255    6.2173    0.3466 H   0  0  0  0  0  0  0  0  0  0  0  0
    5.5555    6.4005    1.8746 H   0  0  0  0  0  0  0  0  0  0  0  0
    5.3649    9.3376    2.1762 H   0  0  0  0  0  0  0  0  0  0  0  0
    3.9374    8.3352    2.2061 H   0  0  0  0  0  0  0  0  0  0  0  0
    3.9999    9.7241    1.1093 H   0  0  0  0  0  0  0  0  0  0  0  0
    2.1040    2.3793   -3.1598 H   0  0  0  0  0  0  0  0  0  0  0  0
  1  2  1  0  0  0  0
  1 38  1  0  0  0  0
  1 39  1  0  0  0  0
  1 40  1  0  0  0  0
  2  3  1  0  0  0  0
  3  4  1  0  0  0  0
  3 41  1  0  0  0  0
  4  5  2  0  0  0  0
  4  6  1  0  0  0  0
  6  7  1  0  0  0  0
  6 36  2  0  0  0  0
  7  8  2  0  0  0  0
  7 42  1  0  0  0  0
  8  9  1  0  0  0  0
  8 33  1  0  0  0  0
  9 10  1  0  0  0  0
  9 43  1  0  0  0  0
 10 11  2  0  0  0  0
 10 32  1  0  0  0  0
 11 12  1  0  0  0  0
 12 13  2  0  0  0  0
 12 44  1  0  0  0  0
 13 14  1  0  0  0  0
 14 15  1  0  0  0  0
 14 32  1  0  0  0  0
 15 16  2  0  0  0  0
 15 45  1  0  0  0  0
 16 17  1  0  0  0  0
 16 28  1  0  0  0  0
 17 18  1  0  0  0  0
 17 46  1  0  0  0  0
 18 19  2  0  0  0  0
 18 20  1  0  0  0  0
 20 21  1  0  0  0  0
 21 22  1  0  0  0  0
 21 47  1  0  0  0  0
 21 48  1  0  0  0  0
 22 23  1  0  0  0  0
 22 27  2  0  0  0  0
 23 24  2  0  0  0  0
 23 49  1  0  0  0  0
 24 25  1  0  0  0  0
 24 50  1  0  0  0  0
 25 26  2  0  0  0  0
 25 51  1  0  0  0  0
 26 27  1  0  0  0  0
 26 52  1  0  0  0  0
 27 53  1  0  0  0  0
 28 29  1  0  0  0  0
 28 32  2  0  0  0  0
 29 30  1  0  0  0  0
 29 31  1  0  0  0  0
 29 54  1  0  0  0  0
 30 55  1  0  0  0  0
 30 56  1  0  0  0  0
 30 57  1  0  0  0  0
 31 58  1  0  0  0  0
 31 59  1  0  0  0  0
 31 60  1  0  0  0  0
 33 34  1  0  0  0  0
 33 35  2  0  0  0  0
 35 36  1  0  0  0  0
 35 61  1  0  0  0  0
 36 37  1  0  0  0  0
M  END
$$$$
