CHEMBL3955288
 OpenBabel04072215373D

 60 64  0  0  0  0  0  0  0  0999 V2000
    2.6192   -5.7379    1.6883 C   0  0  0  0  0  0  0  0  0  0  0  0
    2.1081   -4.6149    0.9844 O   0  0  0  0  0  0  0  0  0  0  0  0
    3.0188   -3.6417    0.6665 C   0  0  0  0  0  0  0  0  0  0  0  0
    2.4528   -2.4924    0.0969 C   0  0  0  0  0  0  0  0  0  0  0  0
    3.2585   -1.4169   -0.2335 C   0  0  0  0  0  0  0  0  0  0  0  0
    2.8324   -0.2358   -0.7820 O   0  0  0  0  0  0  0  0  0  0  0  0
    1.4628   -0.1622   -1.1710 C   0  0  0  0  0  0  0  0  0  0  0  0
    4.6366   -1.5058    0.0158 C   0  0  0  0  0  0  0  0  0  0  0  0
    5.2466   -2.6568    0.5889 C   0  0  0  0  0  0  0  0  0  0  0  0
    6.6610   -2.7005    0.8868 N   0  0  0  0  0  0  0  0  0  0  0  0
    7.0007   -1.3979    1.6403 C   0  0  0  0  0  0  0  0  0  0  0  0
    8.2536   -0.7001    1.1840 C   0  0  0  0  0  0  0  0  0  0  0  0
    8.3782   -0.4174   -0.2896 C   0  0  0  0  0  0  0  0  0  0  0  0
    9.3858   -1.3002    0.3893 C   0  0  0  0  0  0  0  0  0  0  0  0
    7.4406   -3.8500    1.3636 C   0  0  0  0  0  0  0  0  0  0  0  0
    7.8054   -3.8345    2.6885 C   0  0  0  0  0  0  0  0  0  0  0  0
    9.0451   -4.3178    2.9478 C   0  0  0  0  0  0  0  0  0  0  0  0
    9.7811   -4.9426    2.0213 C   0  0  0  0  0  0  0  0  0  0  0  0
   11.0196   -4.7087    2.3260 N   0  0  0  0  0  0  0  0  0  0  0  0
   11.8194   -5.7488    2.2833 C   0  0  0  0  0  0  0  0  0  0  0  0
   11.5373   -7.0042    1.7723 C   0  0  0  0  0  0  0  0  0  0  0  0
   12.5033   -8.0169    2.3606 C   0  0  0  0  0  0  0  0  0  0  0  0
   13.0458   -9.3052    2.0956 C   0  0  0  0  0  0  0  0  0  0  0  0
   14.0080   -9.7162    2.9773 N   0  0  0  0  0  0  0  0  0  0  0  0
   14.1114   -8.6996    3.8386 N   0  0  0  0  0  0  0  0  0  0  0  0
   15.0824   -8.6249    4.9379 C   0  0  0  0  0  0  0  0  0  0  0  0
   15.2932   -9.8995    5.7435 C   0  0  0  0  0  0  0  0  0  0  0  0
   15.9950  -10.8864    4.9981 O   0  0  0  0  0  0  0  0  0  0  0  0
   13.2904   -7.6717    3.4816 C   0  0  0  0  0  0  0  0  0  0  0  0
   10.3297   -6.9982    0.9891 N   0  0  0  0  0  0  0  0  0  0  0  0
    9.2974   -5.7841    1.0645 C   0  0  0  0  0  0  0  0  0  0  0  0
    8.0474   -4.9574    0.5787 C   0  0  0  0  0  0  0  0  0  0  0  0
    4.4039   -3.7288    0.8839 C   0  0  0  0  0  0  0  0  0  0  0  0
    1.7736   -6.3621    1.9864 H   0  0  0  0  0  0  0  0  0  0  0  0
    3.1425   -5.4324    2.6012 H   0  0  0  0  0  0  0  0  0  0  0  0
    3.2692   -6.3300    1.0368 H   0  0  0  0  0  0  0  0  0  0  0  0
    1.3804   -2.4802   -0.0651 H   0  0  0  0  0  0  0  0  0  0  0  0
    1.2967    0.8058   -1.6553 H   0  0  0  0  0  0  0  0  0  0  0  0
    0.8016   -0.2124   -0.2992 H   0  0  0  0  0  0  0  0  0  0  0  0
    1.2135   -0.9414   -1.8999 H   0  0  0  0  0  0  0  0  0  0  0  0
    5.2316   -0.6317   -0.2444 H   0  0  0  0  0  0  0  0  0  0  0  0
    7.0192   -1.5079    2.7318 H   0  0  0  0  0  0  0  0  0  0  0  0
    6.2225   -0.6260    1.5590 H   0  0  0  0  0  0  0  0  0  0  0  0
    8.5259    0.0943    1.8753 H   0  0  0  0  0  0  0  0  0  0  0  0
    8.6731    0.5770   -0.5938 H   0  0  0  0  0  0  0  0  0  0  0  0
    7.6612   -0.8931   -0.9505 H   0  0  0  0  0  0  0  0  0  0  0  0
   10.3814   -0.8947    0.5320 H   0  0  0  0  0  0  0  0  0  0  0  0
    9.3787   -2.3546    0.1592 H   0  0  0  0  0  0  0  0  0  0  0  0
    7.4005   -3.1952    3.4548 H   0  0  0  0  0  0  0  0  0  0  0  0
    9.5344   -4.0650    3.8998 H   0  0  0  0  0  0  0  0  0  0  0  0
   12.6331   -5.5259    2.9487 H   0  0  0  0  0  0  0  0  0  0  0  0
   12.8470   -9.9816    1.2803 H   0  0  0  0  0  0  0  0  0  0  0  0
   14.7077   -7.8614    5.6342 H   0  0  0  0  0  0  0  0  0  0  0  0
   16.0341   -8.2567    4.5214 H   0  0  0  0  0  0  0  0  0  0  0  0
   14.3545  -10.3288    6.1022 H   0  0  0  0  0  0  0  0  0  0  0  0
   15.9103   -9.6833    6.6256 H   0  0  0  0  0  0  0  0  0  0  0  0
   15.4994  -10.9854    4.1606 H   0  0  0  0  0  0  0  0  0  0  0  0
   13.3892   -6.7796    4.0815 H   0  0  0  0  0  0  0  0  0  0  0  0
    7.6351   -5.1571   -0.4178 H   0  0  0  0  0  0  0  0  0  0  0  0
    4.8432   -4.6149    1.3246 H   0  0  0  0  0  0  0  0  0  0  0  0
  1  2  1  0  0  0  0
  1 34  1  0  0  0  0
  1 35  1  0  0  0  0
  1 36  1  0  0  0  0
  2  3  1  0  0  0  0
  3  4  1  0  0  0  0
  3 33  2  0  0  0  0
  4  5  2  0  0  0  0
  4 37  1  0  0  0  0
  5  6  1  0  0  0  0
  5  8  1  0  0  0  0
  6  7  1  0  0  0  0
  7 38  1  0  0  0  0
  7 39  1  0  0  0  0
  7 40  1  0  0  0  0
  8  9  2  0  0  0  0
  8 41  1  0  0  0  0
  9 10  1  0  0  0  0
  9 33  1  0  0  0  0
 10 11  1  0  0  0  0
 10 15  1  0  0  0  0
 11 12  1  0  0  0  0
 11 42  1  0  0  0  0
 11 43  1  0  0  0  0
 12 13  1  0  0  0  0
 12 14  1  0  0  0  0
 12 44  1  0  0  0  0
 13 14  1  0  0  0  0
 13 45  1  0  0  0  0
 13 46  1  0  0  0  0
 14 47  1  0  0  0  0
 14 48  1  0  0  0  0
 15 16  1  0  0  0  0
 15 32  2  0  0  0  0
 16 17  2  0  0  0  0
 16 49  1  0  0  0  0
 17 18  1  0  0  0  0
 17 50  1  0  0  0  0
 18 19  1  0  0  0  0
 18 31  2  0  0  0  0
 19 20  2  0  0  0  0
 20 21  1  0  0  0  0
 20 51  1  0  0  0  0
 21 22  1  0  0  0  0
 21 30  2  0  0  0  0
 22 23  1  0  0  0  0
 22 29  2  0  0  0  0
 23 24  2  0  0  0  0
 23 52  1  0  0  0  0
 24 25  1  0  0  0  0
 25 26  1  0  0  0  0
 25 29  1  0  0  0  0
 26 27  1  0  0  0  0
 26 53  1  0  0  0  0
 26 54  1  0  0  0  0
 27 28  1  0  0  0  0
 27 55  1  0  0  0  0
 27 56  1  0  0  0  0
 28 57  1  0  0  0  0
 29 58  1  0  0  0  0
 30 31  1  0  0  0  0
 31 32  1  0  0  0  0
 32 59  1  0  0  0  0
 33 60  1  0  0  0  0
M  END
$$$$
