CHEMBL401041
 OpenBabel04072215373D

 52 54  0  0  0  0  0  0  0  0999 V2000
    2.1180   -1.4684   -1.4231 C   0  0  0  0  0  0  0  0  0  0  0  0
    1.1400   -0.7238   -0.6553 N   0  0  0  0  0  0  0  0  0  0  0  0
    1.2751    0.6129   -0.5676 N   0  0  0  0  0  0  0  0  0  0  0  0
    0.2292    0.9795    0.1671 C   0  0  0  0  0  0  0  0  0  0  0  0
   -0.5835   -0.1148    0.5478 C   0  0  0  0  0  0  0  0  0  0  0  0
   -1.6963    0.0204    1.3116 N   0  0  0  0  0  0  0  0  0  0  0  0
   -2.1528   -0.9501    2.2967 C   0  0  0  0  0  0  0  0  0  0  0  0
   -3.5902   -1.3467    2.0307 C   0  0  0  0  0  0  0  0  0  0  0  0
   -4.3459   -0.8061    0.9798 C   0  0  0  0  0  0  0  0  0  0  0  0
   -5.6371   -1.2615    0.7713 C   0  0  0  0  0  0  0  0  0  0  0  0
   -6.2265   -2.2056    1.5310 N   0  0  0  0  0  0  0  0  0  0  0  0
   -5.4971   -2.7062    2.5512 C   0  0  0  0  0  0  0  0  0  0  0  0
   -4.1970   -2.3153    2.8378 C   0  0  0  0  0  0  0  0  0  0  0  0
    0.0107   -1.2237   -0.0274 C   0  0  0  0  0  0  0  0  0  0  0  0
   -0.2809   -2.6396   -0.0453 C   0  0  0  0  0  0  0  0  0  0  0  0
    0.6421   -3.4458   -0.0745 O   0  0  0  0  0  0  0  0  0  0  0  0
   -1.6242   -2.9918   -0.0694 N   0  0  0  0  0  0  0  0  0  0  0  0
   -2.1389   -4.3109   -0.0848 C   0  0  0  0  0  0  0  0  0  0  0  0
   -1.3261   -5.4368   -0.0812 C   0  0  0  0  0  0  0  0  0  0  0  0
   -1.8590   -6.7249   -0.1571 C   0  0  0  0  0  0  0  0  0  0  0  0
   -3.2359   -6.9513   -0.2234 C   0  0  0  0  0  0  0  0  0  0  0  0
   -3.8014   -8.3707   -0.3754 C   0  0  0  0  0  0  0  0  0  0  0  0
   -2.6994   -9.4492   -0.5120 C   0  0  0  0  0  0  0  0  0  0  0  0
   -4.6567   -8.7354    0.8520 C   0  0  0  0  0  0  0  0  0  0  0  0
   -4.6694   -8.4570   -1.6485 C   0  0  0  0  0  0  0  0  0  0  0  0
   -4.0632   -5.8146   -0.1672 C   0  0  0  0  0  0  0  0  0  0  0  0
   -3.5228   -4.5144   -0.1098 C   0  0  0  0  0  0  0  0  0  0  0  0
    2.8219   -0.7731   -1.8885 H   0  0  0  0  0  0  0  0  0  0  0  0
    1.5960   -2.0321   -2.2001 H   0  0  0  0  0  0  0  0  0  0  0  0
    2.6608   -2.1316   -0.7461 H   0  0  0  0  0  0  0  0  0  0  0  0
    0.1112    2.0263    0.4121 H   0  0  0  0  0  0  0  0  0  0  0  0
   -1.9473    0.9649    1.6033 H   0  0  0  0  0  0  0  0  0  0  0  0
   -2.0975   -0.4860    3.2890 H   0  0  0  0  0  0  0  0  0  0  0  0
   -1.5170   -1.8410    2.3287 H   0  0  0  0  0  0  0  0  0  0  0  0
   -3.9376   -0.0580    0.3073 H   0  0  0  0  0  0  0  0  0  0  0  0
   -6.2376   -0.8783   -0.0490 H   0  0  0  0  0  0  0  0  0  0  0  0
   -5.9971   -3.4663    3.1449 H   0  0  0  0  0  0  0  0  0  0  0  0
   -3.6665   -2.7790    3.6637 H   0  0  0  0  0  0  0  0  0  0  0  0
   -2.2895   -2.2314   -0.1066 H   0  0  0  0  0  0  0  0  0  0  0  0
   -0.2464   -5.3787   -0.0394 H   0  0  0  0  0  0  0  0  0  0  0  0
   -1.1418   -7.5371   -0.1658 H   0  0  0  0  0  0  0  0  0  0  0  0
   -2.0655   -9.4939    0.3829 H   0  0  0  0  0  0  0  0  0  0  0  0
   -2.0520   -9.2547   -1.3762 H   0  0  0  0  0  0  0  0  0  0  0  0
   -3.1267  -10.4492   -0.6498 H   0  0  0  0  0  0  0  0  0  0  0  0
   -4.0645   -8.6900    1.7736 H   0  0  0  0  0  0  0  0  0  0  0  0
   -5.0558   -9.7531    0.7640 H   0  0  0  0  0  0  0  0  0  0  0  0
   -5.5108   -8.0607    0.9744 H   0  0  0  0  0  0  0  0  0  0  0  0
   -4.0897   -8.1896   -2.5403 H   0  0  0  0  0  0  0  0  0  0  0  0
   -5.5371   -7.7900   -1.6053 H   0  0  0  0  0  0  0  0  0  0  0  0
   -5.0516   -9.4747   -1.7956 H   0  0  0  0  0  0  0  0  0  0  0  0
   -5.1461   -5.9218   -0.1782 H   0  0  0  0  0  0  0  0  0  0  0  0
   -4.2149   -3.6777   -0.0912 H   0  0  0  0  0  0  0  0  0  0  0  0
  1  2  1  0  0  0  0
  1 28  1  0  0  0  0
  1 29  1  0  0  0  0
  1 30  1  0  0  0  0
  2  3  1  0  0  0  0
  2 14  1  0  0  0  0
  3  4  2  0  0  0  0
  4  5  1  0  0  0  0
  4 31  1  0  0  0  0
  5  6  1  0  0  0  0
  5 14  2  0  0  0  0
  6  7  1  0  0  0  0
  6 32  1  0  0  0  0
  7  8  1  0  0  0  0
  7 33  1  0  0  0  0
  7 34  1  0  0  0  0
  8  9  1  0  0  0  0
  8 13  2  0  0  0  0
  9 10  2  0  0  0  0
  9 35  1  0  0  0  0
 10 11  1  0  0  0  0
 10 36  1  0  0  0  0
 11 12  2  0  0  0  0
 12 13  1  0  0  0  0
 12 37  1  0  0  0  0
 13 38  1  0  0  0  0
 14 15  1  0  0  0  0
 15 16  2  0  0  0  0
 15 17  1  0  0  0  0
 17 18  1  0  0  0  0
 17 39  1  0  0  0  0
 18 19  1  0  0  0  0
 18 27  2  0  0  0  0
 19 20  2  0  0  0  0
 19 40  1  0  0  0  0
 20 21  1  0  0  0  0
 20 41  1  0  0  0  0
 21 22  1  0  0  0  0
 21 26  2  0  0  0  0
 22 23  1  0  0  0  0
 22 24  1  0  0  0  0
 22 25  1  0  0  0  0
 23 42  1  0  0  0  0
 23 43  1  0  0  0  0
 23 44  1  0  0  0  0
 24 45  1  0  0  0  0
 24 46  1  0  0  0  0
 24 47  1  0  0  0  0
 25 48  1  0  0  0  0
 25 49  1  0  0  0  0
 25 50  1  0  0  0  0
 26 27  1  0  0  0  0
 26 51  1  0  0  0  0
 27 52  1  0  0  0  0
M  END
$$$$
