CHEMBL4558158
 OpenBabel04072215383D

 44 46  0  0  0  0  0  0  0  0999 V2000
   -6.4169   -6.5204   -1.2594 C   0  0  0  0  0  0  0  0  0  0  0  0
   -6.0976   -5.0822   -0.9713 C   0  0  0  0  0  0  0  0  0  0  0  0
   -7.0409   -4.0940   -1.2432 C   0  0  0  0  0  0  0  0  0  0  0  0
   -6.7619   -2.7540   -0.9768 C   0  0  0  0  0  0  0  0  0  0  0  0
   -5.5441   -2.3638   -0.4133 C   0  0  0  0  0  0  0  0  0  0  0  0
   -5.2292   -1.0133   -0.1143 N   0  0  0  0  0  0  0  0  0  0  0  0
   -6.1104    0.0601   -0.2000 C   0  0  0  0  0  0  0  0  0  0  0  0
   -7.3093   -0.0282   -0.4475 O   0  0  0  0  0  0  0  0  0  0  0  0
   -5.4685    1.2736   -0.0212 N   0  0  0  0  0  0  0  0  0  0  0  0
   -6.1788    2.4978   -0.1406 C   0  0  0  0  0  0  0  0  0  0  0  0
   -5.5898    3.5121   -0.8950 C   0  0  0  0  0  0  0  0  0  0  0  0
   -6.2719    4.7066   -1.0961 C   0  0  0  0  0  0  0  0  0  0  0  0
   -7.5242    4.9087   -0.5123 C   0  0  0  0  0  0  0  0  0  0  0  0
   -8.1313    3.9182    0.2647 C   0  0  0  0  0  0  0  0  0  0  0  0
   -9.4113    4.0824    0.8537 N   0  0  0  0  0  0  0  0  0  0  0  0
  -10.2067    5.2215    0.7951 C   0  0  0  0  0  0  0  0  0  0  0  0
   -9.9058    6.2952    0.2814 O   0  0  0  0  0  0  0  0  0  0  0  0
  -11.5610    5.1006    1.4261 C   0  0  0  0  0  0  0  0  0  0  0  0
  -12.4191    6.2010    1.3877 C   0  0  0  0  0  0  0  0  0  0  0  0
  -13.6858    6.0816    1.9481 C   0  0  0  0  0  0  0  0  0  0  0  0
  -14.0568    4.8753    2.5288 C   0  0  0  0  0  0  0  0  0  0  0  0
  -13.1336    3.8328    2.5272 C   0  0  0  0  0  0  0  0  0  0  0  0
  -11.8869    3.9080    1.9928 N   0  0  0  0  0  0  0  0  0  0  0  0
   -7.4465    2.7045    0.4416 C   0  0  0  0  0  0  0  0  0  0  0  0
   -4.5900   -3.3542   -0.1503 C   0  0  0  0  0  0  0  0  0  0  0  0
   -4.8661   -4.7060   -0.4286 C   0  0  0  0  0  0  0  0  0  0  0  0
   -7.4192   -6.6277   -1.6904 H   0  0  0  0  0  0  0  0  0  0  0  0
   -6.3884   -7.1084   -0.3374 H   0  0  0  0  0  0  0  0  0  0  0  0
   -5.7022   -6.9319   -1.9787 H   0  0  0  0  0  0  0  0  0  0  0  0
   -8.0085   -4.3470   -1.6693 H   0  0  0  0  0  0  0  0  0  0  0  0
   -7.5363   -2.0381   -1.2287 H   0  0  0  0  0  0  0  0  0  0  0  0
   -4.3354   -0.8337    0.3152 H   0  0  0  0  0  0  0  0  0  0  0  0
   -4.5103    1.2890   -0.3409 H   0  0  0  0  0  0  0  0  0  0  0  0
   -4.6340    3.3648   -1.3882 H   0  0  0  0  0  0  0  0  0  0  0  0
   -5.8461    5.4834   -1.7254 H   0  0  0  0  0  0  0  0  0  0  0  0
   -8.0071    5.8599   -0.7056 H   0  0  0  0  0  0  0  0  0  0  0  0
   -9.8195    3.2913    1.3469 H   0  0  0  0  0  0  0  0  0  0  0  0
  -12.1083    7.1323    0.9225 H   0  0  0  0  0  0  0  0  0  0  0  0
  -14.3760    6.9209    1.9261 H   0  0  0  0  0  0  0  0  0  0  0  0
  -15.0375    4.7473    2.9664 H   0  0  0  0  0  0  0  0  0  0  0  0
  -13.3895    2.8736    2.9728 H   0  0  0  0  0  0  0  0  0  0  0  0
   -7.8949    1.9130    1.0369 H   0  0  0  0  0  0  0  0  0  0  0  0
   -3.6208   -3.1011    0.2704 H   0  0  0  0  0  0  0  0  0  0  0  0
   -4.1108   -5.4592   -0.2134 H   0  0  0  0  0  0  0  0  0  0  0  0
  1  2  1  0  0  0  0
  1 27  1  0  0  0  0
  1 28  1  0  0  0  0
  1 29  1  0  0  0  0
  2  3  1  0  0  0  0
  2 26  2  0  0  0  0
  3  4  2  0  0  0  0
  3 30  1  0  0  0  0
  4  5  1  0  0  0  0
  4 31  1  0  0  0  0
  5  6  1  0  0  0  0
  5 25  2  0  0  0  0
  6  7  1  0  0  0  0
  6 32  1  0  0  0  0
  7  8  2  0  0  0  0
  7  9  1  0  0  0  0
  9 10  1  0  0  0  0
  9 33  1  0  0  0  0
 10 11  1  0  0  0  0
 10 24  2  0  0  0  0
 11 12  2  0  0  0  0
 11 34  1  0  0  0  0
 12 13  1  0  0  0  0
 12 35  1  0  0  0  0
 13 14  2  0  0  0  0
 13 36  1  0  0  0  0
 14 15  1  0  0  0  0
 14 24  1  0  0  0  0
 15 16  1  0  0  0  0
 15 37  1  0  0  0  0
 16 17  2  0  0  0  0
 16 18  1  0  0  0  0
 18 19  1  0  0  0  0
 18 23  2  0  0  0  0
 19 20  2  0  0  0  0
 19 38  1  0  0  0  0
 20 21  1  0  0  0  0
 20 39  1  0  0  0  0
 21 22  2  0  0  0  0
 21 40  1  0  0  0  0
 22 23  1  0  0  0  0
 22 41  1  0  0  0  0
 24 42  1  0  0  0  0
 25 26  1  0  0  0  0
 25 43  1  0  0  0  0
 26 44  1  0  0  0  0
M  END
$$$$
