CHEMBL3740247
 OpenBabel04072215373D

 60 64  0  0  0  0  0  0  0  0999 V2000
    2.1911    0.3770   -1.8589 C   0  0  0  0  0  0  0  0  0  0  0  0
    3.3666    0.4512   -0.9177 C   0  0  0  0  0  0  0  0  0  0  0  0
    3.8038    1.5465   -0.5629 O   0  0  0  0  0  0  0  0  0  0  0  0
    3.9959   -0.8096   -0.5055 C   0  0  0  0  0  0  0  0  0  0  0  0
    3.9560   -1.9040   -1.2915 N   0  0  0  0  0  0  0  0  0  0  0  0
    4.6412   -2.8568   -0.6080 N   0  0  0  0  0  0  0  0  0  0  0  0
    4.8529   -4.1490   -1.1543 C   0  0  0  0  0  0  0  0  0  0  0  0
    4.4138   -4.4328   -2.4547 C   0  0  0  0  0  0  0  0  0  0  0  0
    4.6117   -5.7030   -2.9975 C   0  0  0  0  0  0  0  0  0  0  0  0
    5.2493   -6.7020   -2.2519 C   0  0  0  0  0  0  0  0  0  0  0  0
    5.4303   -8.0832   -2.8032 C   0  0  0  0  0  0  0  0  0  0  0  0
    5.6962   -6.4129   -0.9626 C   0  0  0  0  0  0  0  0  0  0  0  0
    5.5075   -5.1448   -0.4163 C   0  0  0  0  0  0  0  0  0  0  0  0
    5.0607   -2.3993    0.6172 C   0  0  0  0  0  0  0  0  0  0  0  0
    4.7174   -1.0691    0.6930 C   0  0  0  0  0  0  0  0  0  0  0  0
    4.9032   -0.1714    1.8124 C   0  0  0  0  0  0  0  0  0  0  0  0
    4.0155    0.6394    2.0478 O   0  0  0  0  0  0  0  0  0  0  0  0
    6.0972   -0.3191    2.6763 C   0  0  0  0  0  0  0  0  0  0  0  0
    7.3765   -0.7471    2.3122 C   0  0  0  0  0  0  0  0  0  0  0  0
    7.9985   -1.1382    1.0122 C   0  0  0  0  0  0  0  0  0  0  0  0
    8.1554   -0.7572    3.4467 N   0  0  0  0  0  0  0  0  0  0  0  0
    7.4511   -0.3384    4.5492 C   0  0  0  0  0  0  0  0  0  0  0  0
    8.0624   -0.3046    5.8920 C   0  0  0  0  0  0  0  0  0  0  0  0
    7.7432    0.7221    6.7913 C   0  0  0  0  0  0  0  0  0  0  0  0
    8.0802    0.6247    8.1423 C   0  0  0  0  0  0  0  0  0  0  0  0
    8.8188   -0.4625    8.5965 C   0  0  0  0  0  0  0  0  0  0  0  0
    9.2419   -1.4364    7.6940 C   0  0  0  0  0  0  0  0  0  0  0  0
    8.8626   -1.3624    6.3489 C   0  0  0  0  0  0  0  0  0  0  0  0
    6.1580   -0.0324    4.1051 C   0  0  0  0  0  0  0  0  0  0  0  0
    5.0785    0.4297    4.9917 C   0  0  0  0  0  0  0  0  0  0  0  0
    4.2699    1.5111    4.6229 C   0  0  0  0  0  0  0  0  0  0  0  0
    3.1879    1.9122    5.4082 C   0  0  0  0  0  0  0  0  0  0  0  0
    2.9782    1.3234    6.6486 C   0  0  0  0  0  0  0  0  0  0  0  0
    3.8233    0.3041    7.0774 C   0  0  0  0  0  0  0  0  0  0  0  0
    4.8299   -0.1751    6.2325 C   0  0  0  0  0  0  0  0  0  0  0  0
    1.6576    1.3328   -1.8501 H   0  0  0  0  0  0  0  0  0  0  0  0
    1.4907   -0.4000   -1.5389 H   0  0  0  0  0  0  0  0  0  0  0  0
    2.5441    0.1744   -2.8725 H   0  0  0  0  0  0  0  0  0  0  0  0
    3.9161   -3.6752   -3.0576 H   0  0  0  0  0  0  0  0  0  0  0  0
    4.2599   -5.9073   -4.0054 H   0  0  0  0  0  0  0  0  0  0  0  0
    5.1116   -8.1433   -3.8482 H   0  0  0  0  0  0  0  0  0  0  0  0
    4.8338   -8.7948   -2.2228 H   0  0  0  0  0  0  0  0  0  0  0  0
    6.4847   -8.3726   -2.7553 H   0  0  0  0  0  0  0  0  0  0  0  0
    6.1907   -7.1791   -0.3651 H   0  0  0  0  0  0  0  0  0  0  0  0
    5.8699   -4.9770    0.5976 H   0  0  0  0  0  0  0  0  0  0  0  0
    5.5611   -3.0302    1.3358 H   0  0  0  0  0  0  0  0  0  0  0  0
    7.3652   -0.9092    0.1530 H   0  0  0  0  0  0  0  0  0  0  0  0
    8.2167   -2.2124    1.0037 H   0  0  0  0  0  0  0  0  0  0  0  0
    8.9416   -0.6027    0.8600 H   0  0  0  0  0  0  0  0  0  0  0  0
    9.1314   -1.0233    3.4660 H   0  0  0  0  0  0  0  0  0  0  0  0
    7.1499    1.5738    6.4638 H   0  0  0  0  0  0  0  0  0  0  0  0
    7.7300    1.3822    8.8385 H   0  0  0  0  0  0  0  0  0  0  0  0
    9.0558   -0.5534    9.6532 H   0  0  0  0  0  0  0  0  0  0  0  0
    9.8334   -2.2771    8.0476 H   0  0  0  0  0  0  0  0  0  0  0  0
    9.1520   -2.1727    5.6856 H   0  0  0  0  0  0  0  0  0  0  0  0
    4.4505    2.0515    3.6973 H   0  0  0  0  0  0  0  0  0  0  0  0
    2.5211    2.6882    5.0422 H   0  0  0  0  0  0  0  0  0  0  0  0
    2.1628    1.6639    7.2792 H   0  0  0  0  0  0  0  0  0  0  0  0
    3.6989   -0.1252    8.0673 H   0  0  0  0  0  0  0  0  0  0  0  0
    5.4469   -1.0000    6.5805 H   0  0  0  0  0  0  0  0  0  0  0  0
  1  2  1  0  0  0  0
  1 36  1  0  0  0  0
  1 37  1  0  0  0  0
  1 38  1  0  0  0  0
  2  3  2  0  0  0  0
  2  4  1  0  0  0  0
  4  5  2  0  0  0  0
  4 15  1  0  0  0  0
  5  6  1  0  0  0  0
  6  7  1  0  0  0  0
  6 14  1  0  0  0  0
  7  8  1  0  0  0  0
  7 13  2  0  0  0  0
  8  9  2  0  0  0  0
  8 39  1  0  0  0  0
  9 10  1  0  0  0  0
  9 40  1  0  0  0  0
 10 11  1  0  0  0  0
 10 12  2  0  0  0  0
 11 41  1  0  0  0  0
 11 42  1  0  0  0  0
 11 43  1  0  0  0  0
 12 13  1  0  0  0  0
 12 44  1  0  0  0  0
 13 45  1  0  0  0  0
 14 15  2  0  0  0  0
 14 46  1  0  0  0  0
 15 16  1  0  0  0  0
 16 17  2  0  0  0  0
 16 18  1  0  0  0  0
 18 19  2  0  0  0  0
 18 29  1  0  0  0  0
 19 20  1  0  0  0  0
 19 21  1  0  0  0  0
 20 47  1  0  0  0  0
 20 48  1  0  0  0  0
 20 49  1  0  0  0  0
 21 22  1  0  0  0  0
 21 50  1  0  0  0  0
 22 23  1  0  0  0  0
 22 29  2  0  0  0  0
 23 24  1  0  0  0  0
 23 28  2  0  0  0  0
 24 25  2  0  0  0  0
 24 51  1  0  0  0  0
 25 26  1  0  0  0  0
 25 52  1  0  0  0  0
 26 27  2  0  0  0  0
 26 53  1  0  0  0  0
 27 28  1  0  0  0  0
 27 54  1  0  0  0  0
 28 55  1  0  0  0  0
 29 30  1  0  0  0  0
 30 31  1  0  0  0  0
 30 35  2  0  0  0  0
 31 32  2  0  0  0  0
 31 56  1  0  0  0  0
 32 33  1  0  0  0  0
 32 57  1  0  0  0  0
 33 34  2  0  0  0  0
 33 58  1  0  0  0  0
 34 35  1  0  0  0  0
 34 59  1  0  0  0  0
 35 60  1  0  0  0  0
M  END
$$$$
