CHEMBL1242568
 OpenBabel04072215363D

 39 42  0  0  0  0  0  0  0  0999 V2000
    0.9989    0.3461    0.0174 N   0  0  0  0  0  0  0  0  0  0  0  0
    2.3761    0.1675   -0.0172 C   0  0  0  0  0  0  0  0  0  0  0  0
    3.1081    1.3019   -0.0031 N   0  0  0  0  0  0  0  0  0  0  0  0
    4.4493    1.2065   -0.0083 C   0  0  0  0  0  0  0  0  0  0  0  0
    5.1940    0.0925   -0.0027 N   0  0  0  0  0  0  0  0  0  0  0  0
    4.4278   -1.0123   -0.0222 C   0  0  0  0  0  0  0  0  0  0  0  0
    3.0420   -1.0683   -0.0480 C   0  0  0  0  0  0  0  0  0  0  0  0
    2.7368   -2.4684   -0.1107 C   0  0  0  0  0  0  0  0  0  0  0  0
    1.4363   -3.1401   -0.2322 C   0  0  0  0  0  0  0  0  0  0  0  0
    0.3798   -2.5606   -0.9542 C   0  0  0  0  0  0  0  0  0  0  0  0
   -0.8645   -3.1902   -1.0463 C   0  0  0  0  0  0  0  0  0  0  0  0
   -1.0382   -4.4358   -0.4650 C   0  0  0  0  0  0  0  0  0  0  0  0
   -2.2204   -5.0634   -0.5664 F   0  0  0  0  0  0  0  0  0  0  0  0
    0.0101   -5.0527    0.2088 C   0  0  0  0  0  0  0  0  0  0  0  0
   -0.1434   -6.3004    0.7425 O   0  0  0  0  0  0  0  0  0  0  0  0
    1.2390   -4.4118    0.3396 C   0  0  0  0  0  0  0  0  0  0  0  0
    3.8603   -3.2081   -0.0550 N   0  0  0  0  0  0  0  0  0  0  0  0
    4.8645   -2.3077   -0.0281 N   0  0  0  0  0  0  0  0  0  0  0  0
    6.2438   -2.7488   -0.0185 C   0  0  0  0  0  0  0  0  0  0  0  0
    6.6260   -3.6381   -1.2034 C   0  0  0  0  0  0  0  0  0  0  0  0
    7.8650   -4.4038   -0.7429 C   0  0  0  0  0  0  0  0  0  0  0  0
    7.9295   -4.2589    0.7769 C   0  0  0  0  0  0  0  0  0  0  0  0
    6.6190   -3.6028    1.1918 C   0  0  0  0  0  0  0  0  0  0  0  0
    0.7819    1.3101    0.2502 H   0  0  0  0  0  0  0  0  0  0  0  0
    0.4978   -0.3491    0.5565 H   0  0  0  0  0  0  0  0  0  0  0  0
    4.9921    2.1471   -0.0131 H   0  0  0  0  0  0  0  0  0  0  0  0
    0.5165   -1.6160   -1.4768 H   0  0  0  0  0  0  0  0  0  0  0  0
   -1.6841   -2.7202   -1.5824 H   0  0  0  0  0  0  0  0  0  0  0  0
   -1.0336   -6.6101    0.4887 H   0  0  0  0  0  0  0  0  0  0  0  0
    2.0462   -4.9105    0.8701 H   0  0  0  0  0  0  0  0  0  0  0  0
    6.8835   -1.8567   -0.0311 H   0  0  0  0  0  0  0  0  0  0  0  0
    6.8225   -3.0513   -2.1069 H   0  0  0  0  0  0  0  0  0  0  0  0
    5.8303   -4.3514   -1.4492 H   0  0  0  0  0  0  0  0  0  0  0  0
    8.7718   -3.9934   -1.2009 H   0  0  0  0  0  0  0  0  0  0  0  0
    7.7994   -5.4563   -1.0395 H   0  0  0  0  0  0  0  0  0  0  0  0
    8.7757   -3.6174    1.0498 H   0  0  0  0  0  0  0  0  0  0  0  0
    8.0759   -5.2232    1.2740 H   0  0  0  0  0  0  0  0  0  0  0  0
    6.7317   -3.0050    2.1021 H   0  0  0  0  0  0  0  0  0  0  0  0
    5.8653   -4.3737    1.3923 H   0  0  0  0  0  0  0  0  0  0  0  0
  1  2  1  0  0  0  0
  1 24  1  0  0  0  0
  1 25  1  0  0  0  0
  2  3  1  0  0  0  0
  2  7  2  0  0  0  0
  3  4  2  0  0  0  0
  4  5  1  0  0  0  0
  4 26  1  0  0  0  0
  5  6  2  0  0  0  0
  6  7  1  0  0  0  0
  6 18  1  0  0  0  0
  7  8  1  0  0  0  0
  8  9  1  0  0  0  0
  8 17  2  0  0  0  0
  9 10  1  0  0  0  0
  9 16  2  0  0  0  0
 10 11  2  0  0  0  0
 10 27  1  0  0  0  0
 11 12  1  0  0  0  0
 11 28  1  0  0  0  0
 12 13  1  0  0  0  0
 12 14  2  0  0  0  0
 14 15  1  0  0  0  0
 14 16  1  0  0  0  0
 15 29  1  0  0  0  0
 16 30  1  0  0  0  0
 17 18  1  0  0  0  0
 18 19  1  0  0  0  0
 19 20  1  0  0  0  0
 19 23  1  0  0  0  0
 19 31  1  0  0  0  0
 20 21  1  0  0  0  0
 20 32  1  0  0  0  0
 20 33  1  0  0  0  0
 21 22  1  0  0  0  0
 21 34  1  0  0  0  0
 21 35  1  0  0  0  0
 22 23  1  0  0  0  0
 22 36  1  0  0  0  0
 22 37  1  0  0  0  0
 23 38  1  0  0  0  0
 23 39  1  0  0  0  0
M  END
$$$$
