CHEMBL2016907
 OpenBabel04072215363D

 52 56  0  0  0  0  0  0  0  0999 V2000
    1.0706   -0.1926    0.2499 O   0  0  0  0  0  0  0  0  0  0  0  0
    2.2591    0.0807    0.0444 C   0  0  0  0  0  0  0  0  0  0  0  0
    2.9164   -0.3778   -1.2696 C   0  0  0  0  0  0  0  0  0  0  0  0
    3.5767   -1.6909   -1.0919 N   0  0  0  0  0  0  0  0  0  0  0  0
    4.2279   -2.1361   -2.3443 C   0  0  0  0  0  0  0  0  0  0  0  0
    3.2495   -2.6049   -3.4385 C   0  0  0  0  0  0  0  0  0  0  0  0
    2.3597   -3.6201   -2.9600 O   0  0  0  0  0  0  0  0  0  0  0  0
    1.6459   -3.1720   -1.7996 C   0  0  0  0  0  0  0  0  0  0  0  0
    2.6220   -2.7564   -0.6865 C   0  0  0  0  0  0  0  0  0  0  0  0
    3.0409    0.7386    1.0014 N   0  0  0  0  0  0  0  0  0  0  0  0
    2.3308    1.0547    2.2618 C   0  0  0  0  0  0  0  0  0  0  0  0
    3.1724    1.5219    3.4613 C   0  0  0  0  0  0  0  0  0  0  0  0
    4.3746    2.2344    3.0080 C   0  0  0  0  0  0  0  0  0  0  0  0
    5.2146    2.9439    3.8134 N   0  0  0  0  0  0  0  0  0  0  0  0
    6.1637    3.4132    3.0162 C   0  0  0  0  0  0  0  0  0  0  0  0
    7.2913    4.2255    3.3273 C   0  0  0  0  0  0  0  0  0  0  0  0
    7.5566    4.4740    4.6230 C   0  0  0  0  0  0  0  0  0  0  0  0
    8.6703    5.3285    5.0217 C   0  0  0  0  0  0  0  0  0  0  0  0
    8.9559    5.5782    6.3669 C   0  0  0  0  0  0  0  0  0  0  0  0
   10.0141    6.4249    6.7143 C   0  0  0  0  0  0  0  0  0  0  0  0
   10.7868    7.0191    5.7138 C   0  0  0  0  0  0  0  0  0  0  0  0
   10.5135    6.7687    4.3676 C   0  0  0  0  0  0  0  0  0  0  0  0
    9.4578    5.9235    4.0272 C   0  0  0  0  0  0  0  0  0  0  0  0
    9.1838    5.6506    2.6808 N   0  0  0  0  0  0  0  0  0  0  0  0
    8.1703    4.8231    2.2651 C   0  0  0  0  0  0  0  0  0  0  0  0
    7.9971    4.5889    1.0686 O   0  0  0  0  0  0  0  0  0  0  0  0
    5.9397    3.0016    1.7133 N   0  0  0  0  0  0  0  0  0  0  0  0
    4.8049    2.2385    1.7100 C   0  0  0  0  0  0  0  0  0  0  0  0
    4.1678    1.5792    0.5588 C   0  0  0  0  0  0  0  0  0  0  0  0
    3.6381    0.3687   -1.6125 H   0  0  0  0  0  0  0  0  0  0  0  0
    2.1324   -0.3988   -2.0355 H   0  0  0  0  0  0  0  0  0  0  0  0
    4.8831   -2.9786   -2.0862 H   0  0  0  0  0  0  0  0  0  0  0  0
    4.8845   -1.3504   -2.7356 H   0  0  0  0  0  0  0  0  0  0  0  0
    3.8144   -3.0346   -4.2720 H   0  0  0  0  0  0  0  0  0  0  0  0
    2.6608   -1.7716   -3.8379 H   0  0  0  0  0  0  0  0  0  0  0  0
    1.0246   -4.0043   -1.4539 H   0  0  0  0  0  0  0  0  0  0  0  0
    0.9695   -2.3573   -2.0822 H   0  0  0  0  0  0  0  0  0  0  0  0
    3.2191   -3.6348   -0.4083 H   0  0  0  0  0  0  0  0  0  0  0  0
    2.0729   -2.4854    0.2203 H   0  0  0  0  0  0  0  0  0  0  0  0
    1.7805    0.1558    2.5726 H   0  0  0  0  0  0  0  0  0  0  0  0
    1.5757    1.8125    2.0198 H   0  0  0  0  0  0  0  0  0  0  0  0
    3.4738    0.6619    4.0694 H   0  0  0  0  0  0  0  0  0  0  0  0
    2.5603    2.1709    4.0980 H   0  0  0  0  0  0  0  0  0  0  0  0
    6.9371    4.0535    5.4113 H   0  0  0  0  0  0  0  0  0  0  0  0
    8.3580    5.1228    7.1539 H   0  0  0  0  0  0  0  0  0  0  0  0
   10.2342    6.6159    7.7605 H   0  0  0  0  0  0  0  0  0  0  0  0
   11.6053    7.6804    5.9890 H   0  0  0  0  0  0  0  0  0  0  0  0
   11.1223    7.2421    3.6033 H   0  0  0  0  0  0  0  0  0  0  0  0
    9.7568    6.0535    1.9518 H   0  0  0  0  0  0  0  0  0  0  0  0
    6.5281    3.2516    0.9235 H   0  0  0  0  0  0  0  0  0  0  0  0
    4.8940    0.9550    0.0296 H   0  0  0  0  0  0  0  0  0  0  0  0
    3.7727    2.3280   -0.1378 H   0  0  0  0  0  0  0  0  0  0  0  0
  1  2  2  0  0  0  0
  2  3  1  0  0  0  0
  2 10  1  0  0  0  0
  3  4  1  0  0  0  0
  3 30  1  0  0  0  0
  3 31  1  0  0  0  0
  4  5  1  0  0  0  0
  4  9  1  0  0  0  0
  5  6  1  0  0  0  0
  5 32  1  0  0  0  0
  5 33  1  0  0  0  0
  6  7  1  0  0  0  0
  6 34  1  0  0  0  0
  6 35  1  0  0  0  0
  7  8  1  0  0  0  0
  8  9  1  0  0  0  0
  8 36  1  0  0  0  0
  8 37  1  0  0  0  0
  9 38  1  0  0  0  0
  9 39  1  0  0  0  0
 10 11  1  0  0  0  0
 10 29  1  0  0  0  0
 11 12  1  0  0  0  0
 11 40  1  0  0  0  0
 11 41  1  0  0  0  0
 12 13  1  0  0  0  0
 12 42  1  0  0  0  0
 12 43  1  0  0  0  0
 13 14  1  0  0  0  0
 13 28  2  0  0  0  0
 14 15  2  0  0  0  0
 15 16  1  0  0  0  0
 15 27  1  0  0  0  0
 16 17  2  0  0  0  0
 16 25  1  0  0  0  0
 17 18  1  0  0  0  0
 17 44  1  0  0  0  0
 18 19  1  0  0  0  0
 18 23  2  0  0  0  0
 19 20  2  0  0  0  0
 19 45  1  0  0  0  0
 20 21  1  0  0  0  0
 20 46  1  0  0  0  0
 21 22  2  0  0  0  0
 21 47  1  0  0  0  0
 22 23  1  0  0  0  0
 22 48  1  0  0  0  0
 23 24  1  0  0  0  0
 24 25  1  0  0  0  0
 24 49  1  0  0  0  0
 25 26  2  0  0  0  0
 27 28  1  0  0  0  0
 27 50  1  0  0  0  0
 28 29  1  0  0  0  0
 29 51  1  0  0  0  0
 29 52  1  0  0  0  0
M  END
$$$$
