CHEMBL507533
 OpenBabel04072215383D

 54 57  0  0  0  0  0  0  0  0999 V2000
    8.6914   -2.2994    0.9832 C   0  0  0  0  0  0  0  0  0  0  0  0
    8.3657   -2.1098    2.4555 C   0  0  0  0  0  0  0  0  0  0  0  0
    7.0710   -2.6662    2.6996 O   0  0  0  0  0  0  0  0  0  0  0  0
    6.0118   -1.8612    2.4116 C   0  0  0  0  0  0  0  0  0  0  0  0
    6.0719   -0.6388    2.3389 O   0  0  0  0  0  0  0  0  0  0  0  0
    4.8232   -2.6033    2.0567 C   0  0  0  0  0  0  0  0  0  0  0  0
    3.6223   -2.0742    1.5464 C   0  0  0  0  0  0  0  0  0  0  0  0
    2.7344   -3.0110    1.2113 N   0  0  0  0  0  0  0  0  0  0  0  0
    3.3729   -4.1886    1.4808 N   0  0  0  0  0  0  0  0  0  0  0  0
    2.8752   -5.4988    1.2450 C   0  0  0  0  0  0  0  0  0  0  0  0
    1.6486   -5.6002    0.5913 N   0  0  0  0  0  0  0  0  0  0  0  0
    3.6198   -6.5463    1.6638 C   0  0  0  0  0  0  0  0  0  0  0  0
    3.2366   -7.9494    1.4992 C   0  0  0  0  0  0  0  0  0  0  0  0
    3.5983   -8.6335    0.3388 C   0  0  0  0  0  0  0  0  0  0  0  0
    3.2694   -9.9817    0.1892 C   0  0  0  0  0  0  0  0  0  0  0  0
    2.5842  -10.6710    1.1958 C   0  0  0  0  0  0  0  0  0  0  0  0
    2.2738  -12.0462    1.0919 N   0  0  0  0  0  0  0  0  0  0  0  0
    2.9857  -12.9430    0.3110 C   0  0  0  0  0  0  0  0  0  0  0  0
    4.0356  -12.6833   -0.2648 O   0  0  0  0  0  0  0  0  0  0  0  0
    2.3494  -14.1753    0.2446 N   0  0  0  0  0  0  0  0  0  0  0  0
    2.9368  -15.2578   -0.4514 C   0  0  0  0  0  0  0  0  0  0  0  0
    4.2957  -15.5583   -0.3165 C   0  0  0  0  0  0  0  0  0  0  0  0
    4.8601  -16.6054   -1.0416 C   0  0  0  0  0  0  0  0  0  0  0  0
    4.0772  -17.3388   -1.9362 C   0  0  0  0  0  0  0  0  0  0  0  0
    2.7146  -17.0421   -2.0873 C   0  0  0  0  0  0  0  0  0  0  0  0
    1.8859  -17.7630   -3.1073 C   0  0  0  0  0  0  0  0  0  0  0  0
    2.1418  -16.0237   -1.3080 C   0  0  0  0  0  0  0  0  0  0  0  0
    2.1803   -9.9720    2.3371 C   0  0  0  0  0  0  0  0  0  0  0  0
    2.5153   -8.6202    2.4942 C   0  0  0  0  0  0  0  0  0  0  0  0
    4.9351   -6.1988    2.2864 C   0  0  0  0  0  0  0  0  0  0  0  0
    5.4146   -5.0099    2.4778 N   0  0  0  0  0  0  0  0  0  0  0  0
    4.6250   -3.9716    2.0661 C   0  0  0  0  0  0  0  0  0  0  0  0
    9.7016   -1.9551    0.7523 H   0  0  0  0  0  0  0  0  0  0  0  0
    7.9804   -1.7531    0.3537 H   0  0  0  0  0  0  0  0  0  0  0  0
    8.6027   -3.3564    0.7064 H   0  0  0  0  0  0  0  0  0  0  0  0
    8.4235   -1.0573    2.7524 H   0  0  0  0  0  0  0  0  0  0  0  0
    9.0820   -2.6668    3.0678 H   0  0  0  0  0  0  0  0  0  0  0  0
    3.3717   -1.0323    1.3868 H   0  0  0  0  0  0  0  0  0  0  0  0
    1.1134   -4.7303    0.6469 H   0  0  0  0  0  0  0  0  0  0  0  0
    1.1189   -6.4403    0.8010 H   0  0  0  0  0  0  0  0  0  0  0  0
    4.1424   -8.1318   -0.4590 H   0  0  0  0  0  0  0  0  0  0  0  0
    3.5604  -10.4738   -0.7356 H   0  0  0  0  0  0  0  0  0  0  0  0
    1.7368  -12.4603    1.8407 H   0  0  0  0  0  0  0  0  0  0  0  0
    1.3415  -14.1171    0.2171 H   0  0  0  0  0  0  0  0  0  0  0  0
    4.9298  -14.9805    0.3513 H   0  0  0  0  0  0  0  0  0  0  0  0
    5.9190  -16.8272   -0.9387 H   0  0  0  0  0  0  0  0  0  0  0  0
    4.5384  -18.1262   -2.5249 H   0  0  0  0  0  0  0  0  0  0  0  0
    2.4787  -18.5034   -3.6550 H   0  0  0  0  0  0  0  0  0  0  0  0
    1.4925  -17.0490   -3.8385 H   0  0  0  0  0  0  0  0  0  0  0  0
    1.0542  -18.2820   -2.6232 H   0  0  0  0  0  0  0  0  0  0  0  0
    1.0891  -15.7873   -1.4374 H   0  0  0  0  0  0  0  0  0  0  0  0
    1.6340  -10.4711    3.1328 H   0  0  0  0  0  0  0  0  0  0  0  0
    2.2202   -8.1008    3.4037 H   0  0  0  0  0  0  0  0  0  0  0  0
    5.5494   -7.0621    2.6003 H   0  0  0  0  0  0  0  0  0  0  0  0
  1  2  1  0  0  0  0
  1 33  1  0  0  0  0
  1 34  1  0  0  0  0
  1 35  1  0  0  0  0
  2  3  1  0  0  0  0
  2 36  1  0  0  0  0
  2 37  1  0  0  0  0
  3  4  1  0  0  0  0
  4  5  2  0  0  0  0
  4  6  1  0  0  0  0
  6  7  1  0  0  0  0
  6 32  2  0  0  0  0
  7  8  2  0  0  0  0
  7 38  1  0  0  0  0
  8  9  1  0  0  0  0
  9 10  1  0  0  0  0
  9 32  1  0  0  0  0
 10 11  1  0  0  0  0
 10 12  2  0  0  0  0
 11 39  1  0  0  0  0
 11 40  1  0  0  0  0
 12 13  1  0  0  0  0
 12 30  1  0  0  0  0
 13 14  1  0  0  0  0
 13 29  2  0  0  0  0
 14 15  2  0  0  0  0
 14 41  1  0  0  0  0
 15 16  1  0  0  0  0
 15 42  1  0  0  0  0
 16 17  1  0  0  0  0
 16 28  2  0  0  0  0
 17 18  1  0  0  0  0
 17 43  1  0  0  0  0
 18 19  2  0  0  0  0
 18 20  1  0  0  0  0
 20 21  1  0  0  0  0
 20 44  1  0  0  0  0
 21 22  1  0  0  0  0
 21 27  2  0  0  0  0
 22 23  2  0  0  0  0
 22 45  1  0  0  0  0
 23 24  1  0  0  0  0
 23 46  1  0  0  0  0
 24 25  2  0  0  0  0
 24 47  1  0  0  0  0
 25 26  1  0  0  0  0
 25 27  1  0  0  0  0
 26 48  1  0  0  0  0
 26 49  1  0  0  0  0
 26 50  1  0  0  0  0
 27 51  1  0  0  0  0
 28 29  1  0  0  0  0
 28 52  1  0  0  0  0
 29 53  1  0  0  0  0
 30 31  2  0  0  0  0
 30 54  1  0  0  0  0
 31 32  1  0  0  0  0
M  END
$$$$
