CHEMBL376307
 OpenBabel04072215373D

 40 43  0  0  0  0  0  0  0  0999 V2000
   -1.0029    2.1651   -3.1966 N   0  0  0  0  0  0  0  0  0  0  0  0
   -1.2684    1.0307   -2.5323 C   0  0  0  0  0  0  0  0  0  0  0  0
   -1.6149   -0.0603   -3.2072 N   0  0  0  0  0  0  0  0  0  0  0  0
   -1.8075   -0.9756   -2.2568 N   0  0  0  0  0  0  0  0  0  0  0  0
   -1.5941   -0.5244   -0.9832 C   0  0  0  0  0  0  0  0  0  0  0  0
   -1.6981   -1.1984    0.2352 C   0  0  0  0  0  0  0  0  0  0  0  0
   -1.3935   -0.4837    1.3888 C   0  0  0  0  0  0  0  0  0  0  0  0
   -1.0026    0.8531    1.3159 C   0  0  0  0  0  0  0  0  0  0  0  0
   -0.9065    1.5465    0.0862 C   0  0  0  0  0  0  0  0  0  0  0  0
   -0.4569    2.9524    0.0590 C   0  0  0  0  0  0  0  0  0  0  0  0
    0.4851    3.3674   -0.8747 C   0  0  0  0  0  0  0  0  0  0  0  0
    0.8456    4.7099   -0.9947 C   0  0  0  0  0  0  0  0  0  0  0  0
    0.3651    5.6936   -0.1282 C   0  0  0  0  0  0  0  0  0  0  0  0
    0.7312    7.0614   -0.2414 N   0  0  0  0  0  0  0  0  0  0  0  0
    1.4887    7.5702   -1.2851 C   0  0  0  0  0  0  0  0  0  0  0  0
    1.8552    6.9071   -2.2455 O   0  0  0  0  0  0  0  0  0  0  0  0
    1.8159    8.9070   -1.1476 N   0  0  0  0  0  0  0  0  0  0  0  0
    2.5701    9.5675   -2.1298 C   0  0  0  0  0  0  0  0  0  0  0  0
    2.7935    9.1445   -3.4840 C   0  0  0  0  0  0  0  0  0  0  0  0
    3.6630    9.9520   -4.1750 C   0  0  0  0  0  0  0  0  0  0  0  0
    4.1643   11.2806   -3.2309 S   0  0  0  0  0  0  0  0  0  0  0  0
    3.2297   10.7546   -1.8896 C   0  0  0  0  0  0  0  0  0  0  0  0
   -0.5028    5.2792    0.8842 C   0  0  0  0  0  0  0  0  0  0  0  0
   -0.9143    3.9274    0.9675 C   0  0  0  0  0  0  0  0  0  0  0  0
   -1.2189    0.8181   -1.1079 C   0  0  0  0  0  0  0  0  0  0  0  0
   -1.1943    2.1657   -4.1919 H   0  0  0  0  0  0  0  0  0  0  0  0
   -1.0939    3.0716   -2.7581 H   0  0  0  0  0  0  0  0  0  0  0  0
   -2.0852   -1.9062   -2.5414 H   0  0  0  0  0  0  0  0  0  0  0  0
   -1.9933   -2.2417    0.2857 H   0  0  0  0  0  0  0  0  0  0  0  0
   -1.4461   -0.9767    2.3554 H   0  0  0  0  0  0  0  0  0  0  0  0
   -0.7411    1.3599    2.2434 H   0  0  0  0  0  0  0  0  0  0  0  0
    0.9396    2.6568   -1.5644 H   0  0  0  0  0  0  0  0  0  0  0  0
    1.5259    4.9154   -1.8148 H   0  0  0  0  0  0  0  0  0  0  0  0
    0.3256    7.7040    0.4191 H   0  0  0  0  0  0  0  0  0  0  0  0
    1.7599    9.3361   -0.2353 H   0  0  0  0  0  0  0  0  0  0  0  0
    2.3654    8.2565   -3.9428 H   0  0  0  0  0  0  0  0  0  0  0  0
    4.0178    9.8110   -5.1865 H   0  0  0  0  0  0  0  0  0  0  0  0
    3.2585   11.3383   -0.9810 H   0  0  0  0  0  0  0  0  0  0  0  0
   -0.8858    5.9835    1.6148 H   0  0  0  0  0  0  0  0  0  0  0  0
   -1.6100    3.6490    1.7566 H   0  0  0  0  0  0  0  0  0  0  0  0
  1  2  1  0  0  0  0
  1 26  1  0  0  0  0
  1 27  1  0  0  0  0
  2  3  2  0  0  0  0
  2 25  1  0  0  0  0
  3  4  1  0  0  0  0
  4  5  1  0  0  0  0
  4 28  1  0  0  0  0
  5  6  1  0  0  0  0
  5 25  2  0  0  0  0
  6  7  2  0  0  0  0
  6 29  1  0  0  0  0
  7  8  1  0  0  0  0
  7 30  1  0  0  0  0
  8  9  2  0  0  0  0
  8 31  1  0  0  0  0
  9 10  1  0  0  0  0
  9 25  1  0  0  0  0
 10 11  1  0  0  0  0
 10 24  2  0  0  0  0
 11 12  2  0  0  0  0
 11 32  1  0  0  0  0
 12 13  1  0  0  0  0
 12 33  1  0  0  0  0
 13 14  1  0  0  0  0
 13 23  2  0  0  0  0
 14 15  1  0  0  0  0
 14 34  1  0  0  0  0
 15 16  2  0  0  0  0
 15 17  1  0  0  0  0
 17 18  1  0  0  0  0
 17 35  1  0  0  0  0
 18 19  1  0  0  0  0
 18 22  2  0  0  0  0
 19 20  2  0  0  0  0
 19 36  1  0  0  0  0
 20 21  1  0  0  0  0
 20 37  1  0  0  0  0
 21 22  1  0  0  0  0
 22 38  1  0  0  0  0
 23 24  1  0  0  0  0
 23 39  1  0  0  0  0
 24 40  1  0  0  0  0
M  END
$$$$
