CHEMBL1807483
 OpenBabel04072215363D

 64 68  0  0  0  0  0  0  0  0999 V2000
    1.9299    2.9256   -4.9639 C   0  0  0  0  0  0  0  0  0  0  0  0
    2.2989    2.1711   -3.7251 C   0  0  0  0  0  0  0  0  0  0  0  0
    1.8161    2.6569   -2.5705 N   0  0  0  0  0  0  0  0  0  0  0  0
    2.1142    1.9972   -1.4397 C   0  0  0  0  0  0  0  0  0  0  0  0
    1.6544    2.4830   -0.1916 N   0  0  0  0  0  0  0  0  0  0  0  0
    0.9815    3.6509   -0.0529 C   0  0  0  0  0  0  0  0  0  0  0  0
    0.1441    4.1298    0.9219 C   0  0  0  0  0  0  0  0  0  0  0  0
   -0.2886    5.4043    0.4526 C   0  0  0  0  0  0  0  0  0  0  0  0
   -1.2421    6.3120    1.0762 C   0  0  0  0  0  0  0  0  0  0  0  0
   -2.0341    7.1551    0.2809 C   0  0  0  0  0  0  0  0  0  0  0  0
   -2.9742    8.0025    0.8649 C   0  0  0  0  0  0  0  0  0  0  0  0
   -3.1310    8.0064    2.2489 C   0  0  0  0  0  0  0  0  0  0  0  0
   -2.3320    7.1842    3.0435 C   0  0  0  0  0  0  0  0  0  0  0  0
   -2.5109    7.1885    4.4495 N   0  0  0  0  0  0  0  0  0  0  0  0
   -3.6986    6.2071    5.1314 S   0  0  0  0  0  0  0  0  0  0  0  0
   -3.6053    6.4074    6.5632 O   0  0  0  0  0  0  0  0  0  0  0  0
   -4.9462    6.3954    4.4275 O   0  0  0  0  0  0  0  0  0  0  0  0
   -3.1297    4.5427    4.8100 C   0  0  0  0  0  0  0  0  0  0  0  0
   -2.2935    3.9139    5.7413 C   0  0  0  0  0  0  0  0  0  0  0  0
   -1.9435    2.5746    5.5627 C   0  0  0  0  0  0  0  0  0  0  0  0
   -2.4313    1.8663    4.4640 C   0  0  0  0  0  0  0  0  0  0  0  0
   -3.2647    2.4954    3.5371 C   0  0  0  0  0  0  0  0  0  0  0  0
   -3.6218    3.8348    3.7094 C   0  0  0  0  0  0  0  0  0  0  0  0
   -1.3869    6.3403    2.4665 C   0  0  0  0  0  0  0  0  0  0  0  0
    0.2847    5.7086   -0.7210 N   0  0  0  0  0  0  0  0  0  0  0  0
    1.0423    4.6408   -0.9953 N   0  0  0  0  0  0  0  0  0  0  0  0
    2.9482    0.9095   -1.4601 C   0  0  0  0  0  0  0  0  0  0  0  0
    3.4520    0.4959   -2.6825 C   0  0  0  0  0  0  0  0  0  0  0  0
    4.3309   -0.5889   -2.6638 N   0  0  0  0  0  0  0  0  0  0  0  0
    4.4842   -1.3664   -3.9018 C   0  0  0  0  0  0  0  0  0  0  0  0
    5.2126   -2.6922   -3.5386 C   0  0  0  0  0  0  0  0  0  0  0  0
    6.5244   -2.4750   -2.8739 N   0  0  0  0  0  0  0  0  0  0  0  0
    7.1090   -3.7451   -2.4488 C   0  0  0  0  0  0  0  0  0  0  0  0
    6.3575   -1.5786   -1.7073 C   0  0  0  0  0  0  0  0  0  0  0  0
    5.6441   -0.2610   -2.0734 C   0  0  0  0  0  0  0  0  0  0  0  0
    3.1050    1.1017   -3.8300 N   0  0  0  0  0  0  0  0  0  0  0  0
    1.2475    3.7494   -4.7230 H   0  0  0  0  0  0  0  0  0  0  0  0
    1.4289    2.2675   -5.6780 H   0  0  0  0  0  0  0  0  0  0  0  0
    2.8255    3.3523   -5.4229 H   0  0  0  0  0  0  0  0  0  0  0  0
    1.4570    1.7318    0.4626 H   0  0  0  0  0  0  0  0  0  0  0  0
   -0.1617    3.6192    1.8230 H   0  0  0  0  0  0  0  0  0  0  0  0
   -1.9234    7.1452   -0.8028 H   0  0  0  0  0  0  0  0  0  0  0  0
   -3.5825    8.6515    0.2404 H   0  0  0  0  0  0  0  0  0  0  0  0
   -3.8680    8.6631    2.7052 H   0  0  0  0  0  0  0  0  0  0  0  0
   -1.6878    7.3022    5.0378 H   0  0  0  0  0  0  0  0  0  0  0  0
   -1.9399    4.4457    6.6223 H   0  0  0  0  0  0  0  0  0  0  0  0
   -1.3142    2.0738    6.2953 H   0  0  0  0  0  0  0  0  0  0  0  0
   -2.1803    0.8146    4.3421 H   0  0  0  0  0  0  0  0  0  0  0  0
   -3.6588    1.9329    2.6935 H   0  0  0  0  0  0  0  0  0  0  0  0
   -4.2958    4.3090    2.9993 H   0  0  0  0  0  0  0  0  0  0  0  0
   -0.7681    5.7087    3.0950 H   0  0  0  0  0  0  0  0  0  0  0  0
    1.5468    4.5918   -1.8747 H   0  0  0  0  0  0  0  0  0  0  0  0
    3.2149    0.3854   -0.5520 H   0  0  0  0  0  0  0  0  0  0  0  0
    5.0640   -0.8118   -4.6513 H   0  0  0  0  0  0  0  0  0  0  0  0
    3.5067   -1.6111   -4.3342 H   0  0  0  0  0  0  0  0  0  0  0  0
    5.3583   -3.2767   -4.4541 H   0  0  0  0  0  0  0  0  0  0  0  0
    4.5553   -3.2736   -2.8765 H   0  0  0  0  0  0  0  0  0  0  0  0
    7.2733   -4.4005   -3.3096 H   0  0  0  0  0  0  0  0  0  0  0  0
    6.4763   -4.2739   -1.7255 H   0  0  0  0  0  0  0  0  0  0  0  0
    8.0882   -3.5768   -1.9859 H   0  0  0  0  0  0  0  0  0  0  0  0
    7.3388   -1.3364   -1.2832 H   0  0  0  0  0  0  0  0  0  0  0  0
    5.7731   -2.0814   -0.9240 H   0  0  0  0  0  0  0  0  0  0  0  0
    6.2508    0.3139   -2.7868 H   0  0  0  0  0  0  0  0  0  0  0  0
    5.5492    0.3429   -1.1633 H   0  0  0  0  0  0  0  0  0  0  0  0
  1  2  1  0  0  0  0
  1 37  1  0  0  0  0
  1 38  1  0  0  0  0
  1 39  1  0  0  0  0
  2  3  1  0  0  0  0
  2 36  2  0  0  0  0
  3  4  2  0  0  0  0
  4  5  1  0  0  0  0
  4 27  1  0  0  0  0
  5  6  1  0  0  0  0
  5 40  1  0  0  0  0
  6  7  2  0  0  0  0
  6 26  1  0  0  0  0
  7  8  1  0  0  0  0
  7 41  1  0  0  0  0
  8  9  1  0  0  0  0
  8 25  2  0  0  0  0
  9 10  1  0  0  0  0
  9 24  2  0  0  0  0
 10 11  2  0  0  0  0
 10 42  1  0  0  0  0
 11 12  1  0  0  0  0
 11 43  1  0  0  0  0
 12 13  2  0  0  0  0
 12 44  1  0  0  0  0
 13 14  1  0  0  0  0
 13 24  1  0  0  0  0
 14 15  1  0  0  0  0
 14 45  1  0  0  0  0
 15 16  2  0  0  0  0
 15 17  2  0  0  0  0
 15 18  1  0  0  0  0
 18 19  1  0  0  0  0
 18 23  2  0  0  0  0
 19 20  2  0  0  0  0
 19 46  1  0  0  0  0
 20 21  1  0  0  0  0
 20 47  1  0  0  0  0
 21 22  2  0  0  0  0
 21 48  1  0  0  0  0
 22 23  1  0  0  0  0
 22 49  1  0  0  0  0
 23 50  1  0  0  0  0
 24 51  1  0  0  0  0
 25 26  1  0  0  0  0
 26 52  1  0  0  0  0
 27 28  2  0  0  0  0
 27 53  1  0  0  0  0
 28 29  1  0  0  0  0
 28 36  1  0  0  0  0
 29 30  1  0  0  0  0
 29 35  1  0  0  0  0
 30 31  1  0  0  0  0
 30 54  1  0  0  0  0
 30 55  1  0  0  0  0
 31 32  1  0  0  0  0
 31 56  1  0  0  0  0
 31 57  1  0  0  0  0
 32 33  1  0  0  0  0
 32 34  1  0  0  0  0
 33 58  1  0  0  0  0
 33 59  1  0  0  0  0
 33 60  1  0  0  0  0
 34 35  1  0  0  0  0
 34 61  1  0  0  0  0
 34 62  1  0  0  0  0
 35 63  1  0  0  0  0
 35 64  1  0  0  0  0
M  END
$$$$
