CHEMBL189998
 OpenBabel04072215363D

 56 59  0  0  0  0  0  0  0  0999 V2000
    9.9527   -4.3317    5.9356 Cl  0  0  0  0  0  0  0  0  0  0  0  0
    9.4836   -3.4615    4.5265 C   0  0  0  0  0  0  0  0  0  0  0  0
   10.4572   -2.8460    3.7423 C   0  0  0  0  0  0  0  0  0  0  0  0
   10.0765   -2.1301    2.6099 C   0  0  0  0  0  0  0  0  0  0  0  0
    8.7268   -2.0509    2.2594 C   0  0  0  0  0  0  0  0  0  0  0  0
    7.7448   -2.7016    3.0213 C   0  0  0  0  0  0  0  0  0  0  0  0
    6.3620   -2.5708    2.7332 N   0  0  0  0  0  0  0  0  0  0  0  0
    5.8304   -2.5017    1.4230 C   0  0  0  0  0  0  0  0  0  0  0  0
    4.5880   -1.9064    1.1990 C   0  0  0  0  0  0  0  0  0  0  0  0
    3.9850   -1.8565   -0.0120 N   0  0  0  0  0  0  0  0  0  0  0  0
    4.6634   -2.4671   -1.0099 C   0  0  0  0  0  0  0  0  0  0  0  0
    5.8955   -3.0908   -0.8275 C   0  0  0  0  0  0  0  0  0  0  0  0
    6.6465   -3.7389   -1.9105 C   0  0  0  0  0  0  0  0  0  0  0  0
    7.4936   -4.8213   -1.6737 C   0  0  0  0  0  0  0  0  0  0  0  0
    8.2150   -5.4610   -2.6269 N   0  0  0  0  0  0  0  0  0  0  0  0
    8.1274   -4.9668   -3.8831 C   0  0  0  0  0  0  0  0  0  0  0  0
    7.3591   -3.8656   -4.2520 C   0  0  0  0  0  0  0  0  0  0  0  0
    7.4144   -3.3803   -5.5598 N   0  0  0  0  0  0  0  0  0  0  0  0
    7.0994   -1.9843   -5.8469 C   0  0  0  0  0  0  0  0  0  0  0  0
    8.0882   -1.0582   -5.1268 C   0  0  0  0  0  0  0  0  0  0  0  0
    7.7759    0.4100   -5.4028 C   0  0  0  0  0  0  0  0  0  0  0  0
    8.6667    1.3514   -4.6950 N   0  0  0  0  0  0  0  0  0  0  0  0
    8.6150    1.2269   -3.2205 C   0  0  0  0  0  0  0  0  0  0  0  0
    7.2598    1.6437   -2.6074 C   0  0  0  0  0  0  0  0  0  0  0  0
    6.8832    3.0259   -2.9534 N   0  0  0  0  0  0  0  0  0  0  0  0
    6.9701    3.2284   -4.4118 C   0  0  0  0  0  0  0  0  0  0  0  0
    8.3012    2.7454   -5.0400 C   0  0  0  0  0  0  0  0  0  0  0  0
    6.5872   -3.2871   -3.2387 C   0  0  0  0  0  0  0  0  0  0  0  0
    6.4777   -3.1068    0.3983 N   0  0  0  0  0  0  0  0  0  0  0  0
    8.1336   -3.3762    4.1831 C   0  0  0  0  0  0  0  0  0  0  0  0
   11.5078   -2.9150    4.0089 H   0  0  0  0  0  0  0  0  0  0  0  0
   10.8254   -1.6359    1.9962 H   0  0  0  0  0  0  0  0  0  0  0  0
    8.4495   -1.4795    1.3764 H   0  0  0  0  0  0  0  0  0  0  0  0
    5.9849   -1.8248    3.3115 H   0  0  0  0  0  0  0  0  0  0  0  0
    4.0353   -1.4315    2.0024 H   0  0  0  0  0  0  0  0  0  0  0  0
    4.1664   -2.4476   -1.9730 H   0  0  0  0  0  0  0  0  0  0  0  0
    7.6212   -5.2226   -0.6703 H   0  0  0  0  0  0  0  0  0  0  0  0
    8.7627   -5.4633   -4.6119 H   0  0  0  0  0  0  0  0  0  0  0  0
    7.0372   -4.0460   -6.2323 H   0  0  0  0  0  0  0  0  0  0  0  0
    6.0592   -1.7535   -5.5831 H   0  0  0  0  0  0  0  0  0  0  0  0
    7.1855   -1.8297   -6.9287 H   0  0  0  0  0  0  0  0  0  0  0  0
    9.1146   -1.2966   -5.4307 H   0  0  0  0  0  0  0  0  0  0  0  0
    8.0316   -1.2450   -4.0523 H   0  0  0  0  0  0  0  0  0  0  0  0
    6.7224    0.5947   -5.1667 H   0  0  0  0  0  0  0  0  0  0  0  0
    7.8876    0.5742   -6.4816 H   0  0  0  0  0  0  0  0  0  0  0  0
    9.3997    1.8712   -2.7995 H   0  0  0  0  0  0  0  0  0  0  0  0
    8.8889    0.2204   -2.8890 H   0  0  0  0  0  0  0  0  0  0  0  0
    7.3187    1.5597   -1.5167 H   0  0  0  0  0  0  0  0  0  0  0  0
    6.4647    0.9539   -2.9220 H   0  0  0  0  0  0  0  0  0  0  0  0
    7.5662    3.6500   -2.5134 H   0  0  0  0  0  0  0  0  0  0  0  0
    6.8476    4.2964   -4.6195 H   0  0  0  0  0  0  0  0  0  0  0  0
    6.1214    2.7267   -4.8927 H   0  0  0  0  0  0  0  0  0  0  0  0
    9.1117    3.4019   -4.6965 H   0  0  0  0  0  0  0  0  0  0  0  0
    8.2657    2.8679   -6.1295 H   0  0  0  0  0  0  0  0  0  0  0  0
    5.9598   -2.4337   -3.4744 H   0  0  0  0  0  0  0  0  0  0  0  0
    7.3846   -3.8606    4.8032 H   0  0  0  0  0  0  0  0  0  0  0  0
  1  2  1  0  0  0  0
  2  3  1  0  0  0  0
  2 30  2  0  0  0  0
  3  4  2  0  0  0  0
  3 31  1  0  0  0  0
  4  5  1  0  0  0  0
  4 32  1  0  0  0  0
  5  6  2  0  0  0  0
  5 33  1  0  0  0  0
  6  7  1  0  0  0  0
  6 30  1  0  0  0  0
  7  8  1  0  0  0  0
  7 34  1  0  0  0  0
  8  9  1  0  0  0  0
  8 29  2  0  0  0  0
  9 10  2  0  0  0  0
  9 35  1  0  0  0  0
 10 11  1  0  0  0  0
 11 12  2  0  0  0  0
 11 36  1  0  0  0  0
 12 13  1  0  0  0  0
 12 29  1  0  0  0  0
 13 14  1  0  0  0  0
 13 28  2  0  0  0  0
 14 15  2  0  0  0  0
 14 37  1  0  0  0  0
 15 16  1  0  0  0  0
 16 17  2  0  0  0  0
 16 38  1  0  0  0  0
 17 18  1  0  0  0  0
 17 28  1  0  0  0  0
 18 19  1  0  0  0  0
 18 39  1  0  0  0  0
 19 20  1  0  0  0  0
 19 40  1  0  0  0  0
 19 41  1  0  0  0  0
 20 21  1  0  0  0  0
 20 42  1  0  0  0  0
 20 43  1  0  0  0  0
 21 22  1  0  0  0  0
 21 44  1  0  0  0  0
 21 45  1  0  0  0  0
 22 23  1  0  0  0  0
 22 27  1  0  0  0  0
 23 24  1  0  0  0  0
 23 46  1  0  0  0  0
 23 47  1  0  0  0  0
 24 25  1  0  0  0  0
 24 48  1  0  0  0  0
 24 49  1  0  0  0  0
 25 26  1  0  0  0  0
 25 50  1  0  0  0  0
 26 27  1  0  0  0  0
 26 51  1  0  0  0  0
 26 52  1  0  0  0  0
 27 53  1  0  0  0  0
 27 54  1  0  0  0  0
 28 55  1  0  0  0  0
 30 56  1  0  0  0  0
M  END
$$$$
