CHEMBL410093
 OpenBabel04072215383D

 45 49  0  0  0  0  0  0  0  0999 V2000
    2.8180    1.0427    0.2530 O   0  0  0  0  0  0  0  0  0  0  0  0
    2.1900    0.0443   -0.0762 C   0  0  0  0  0  0  0  0  0  0  0  0
    0.8107   -0.1026   -0.0537 N   0  0  0  0  0  0  0  0  0  0  0  0
   -0.1207    0.8489    0.4208 C   0  0  0  0  0  0  0  0  0  0  0  0
    0.2186    2.1650    0.7476 C   0  0  0  0  0  0  0  0  0  0  0  0
   -0.7265    3.0292    1.3089 C   0  0  0  0  0  0  0  0  0  0  0  0
   -2.0244    2.5838    1.5323 C   0  0  0  0  0  0  0  0  0  0  0  0
   -3.1698    3.6284    2.2764 Cl  0  0  0  0  0  0  0  0  0  0  0  0
   -2.3938    1.2925    1.1659 C   0  0  0  0  0  0  0  0  0  0  0  0
   -1.4461    0.4296    0.6025 C   0  0  0  0  0  0  0  0  0  0  0  0
    2.9511   -1.1623   -0.5282 C   0  0  0  0  0  0  0  0  0  0  0  0
    2.5157   -1.8055   -1.6944 C   0  0  0  0  0  0  0  0  0  0  0  0
    3.1965   -2.9206   -2.1699 C   0  0  0  0  0  0  0  0  0  0  0  0
    4.3149   -3.3983   -1.4844 C   0  0  0  0  0  0  0  0  0  0  0  0
    4.7795   -2.7678   -0.3186 C   0  0  0  0  0  0  0  0  0  0  0  0
    5.9077   -3.2730    0.3595 C   0  0  0  0  0  0  0  0  0  0  0  0
    6.3848   -2.6650    1.5215 C   0  0  0  0  0  0  0  0  0  0  0  0
    7.4933   -3.2322    2.1154 O   0  0  0  0  0  0  0  0  0  0  0  0
    7.6344   -3.0838    3.4926 C   0  0  0  0  0  0  0  0  0  0  0  0
    6.5316   -3.0541    4.2842 N   0  0  0  0  0  0  0  0  0  0  0  0
    6.7044   -2.8160    5.5956 C   0  0  0  0  0  0  0  0  0  0  0  0
    7.8577   -2.6242    6.2570 N   0  0  0  0  0  0  0  0  0  0  0  0
    8.9158   -2.7303    5.4403 C   0  0  0  0  0  0  0  0  0  0  0  0
   10.2182   -2.5954    5.8338 N   0  0  0  0  0  0  0  0  0  0  0  0
   11.0481   -2.7879    4.7582 C   0  0  0  0  0  0  0  0  0  0  0  0
   10.2560   -3.0183    3.6507 C   0  0  0  0  0  0  0  0  0  0  0  0
    8.8990   -2.9726    4.0740 C   0  0  0  0  0  0  0  0  0  0  0  0
    5.7654   -1.5057    1.9796 C   0  0  0  0  0  0  0  0  0  0  0  0
    4.6268   -1.0157    1.3398 C   0  0  0  0  0  0  0  0  0  0  0  0
    4.1038   -1.6218    0.1757 C   0  0  0  0  0  0  0  0  0  0  0  0
    0.4415   -1.0199   -0.2685 H   0  0  0  0  0  0  0  0  0  0  0  0
    1.2188    2.5546    0.5853 H   0  0  0  0  0  0  0  0  0  0  0  0
   -0.4298    4.0391    1.5791 H   0  0  0  0  0  0  0  0  0  0  0  0
   -3.4108    0.9456    1.3314 H   0  0  0  0  0  0  0  0  0  0  0  0
   -1.7546   -0.5785    0.3389 H   0  0  0  0  0  0  0  0  0  0  0  0
    1.6681   -1.4248   -2.2597 H   0  0  0  0  0  0  0  0  0  0  0  0
    2.8695   -3.4143   -3.0807 H   0  0  0  0  0  0  0  0  0  0  0  0
    4.8343   -4.2700   -1.8793 H   0  0  0  0  0  0  0  0  0  0  0  0
    6.4234   -4.1540   -0.0172 H   0  0  0  0  0  0  0  0  0  0  0  0
    5.7975   -2.7587    6.1891 H   0  0  0  0  0  0  0  0  0  0  0  0
   10.4985   -2.3870    6.7809 H   0  0  0  0  0  0  0  0  0  0  0  0
   12.1230   -2.7386    4.8742 H   0  0  0  0  0  0  0  0  0  0  0  0
   10.6149   -3.2035    2.6464 H   0  0  0  0  0  0  0  0  0  0  0  0
    6.1371   -0.9724    2.8498 H   0  0  0  0  0  0  0  0  0  0  0  0
    4.1579   -0.1345    1.7747 H   0  0  0  0  0  0  0  0  0  0  0  0
  1  2  2  0  0  0  0
  2  3  1  0  0  0  0
  2 11  1  0  0  0  0
  3  4  1  0  0  0  0
  3 31  1  0  0  0  0
  4  5  1  0  0  0  0
  4 10  2  0  0  0  0
  5  6  2  0  0  0  0
  5 32  1  0  0  0  0
  6  7  1  0  0  0  0
  6 33  1  0  0  0  0
  7  8  1  0  0  0  0
  7  9  2  0  0  0  0
  9 10  1  0  0  0  0
  9 34  1  0  0  0  0
 10 35  1  0  0  0  0
 11 12  1  0  0  0  0
 11 30  2  0  0  0  0
 12 13  2  0  0  0  0
 12 36  1  0  0  0  0
 13 14  1  0  0  0  0
 13 37  1  0  0  0  0
 14 15  2  0  0  0  0
 14 38  1  0  0  0  0
 15 16  1  0  0  0  0
 15 30  1  0  0  0  0
 16 17  2  0  0  0  0
 16 39  1  0  0  0  0
 17 18  1  0  0  0  0
 17 28  1  0  0  0  0
 18 19  1  0  0  0  0
 19 20  1  0  0  0  0
 19 27  2  0  0  0  0
 20 21  2  0  0  0  0
 21 22  1  0  0  0  0
 21 40  1  0  0  0  0
 22 23  2  0  0  0  0
 23 24  1  0  0  0  0
 23 27  1  0  0  0  0
 24 25  1  0  0  0  0
 24 41  1  0  0  0  0
 25 26  2  0  0  0  0
 25 42  1  0  0  0  0
 26 27  1  0  0  0  0
 26 43  1  0  0  0  0
 28 29  2  0  0  0  0
 28 44  1  0  0  0  0
 29 30  1  0  0  0  0
 29 45  1  0  0  0  0
M  END
$$$$
