CHEMBL4212513
 OpenBabel04072215383D

 57 60  0  0  0  0  0  0  0  0999 V2000
    8.4097    2.6473    4.9525 C   0  0  0  0  0  0  0  0  0  0  0  0
    8.0886    2.2710    3.5183 C   0  0  0  0  0  0  0  0  0  0  0  0
    6.7068    1.9311    3.4401 O   0  0  0  0  0  0  0  0  0  0  0  0
    6.2185    1.5172    2.2160 C   0  0  0  0  0  0  0  0  0  0  0  0
    6.9192    1.4487    1.0674 C   0  0  0  0  0  0  0  0  0  0  0  0
    6.2702    0.9671   -0.1711 C   0  0  0  0  0  0  0  0  0  0  0  0
    6.8953    0.8788   -1.2214 O   0  0  0  0  0  0  0  0  0  0  0  0
    4.9468    0.6253   -0.0612 N   0  0  0  0  0  0  0  0  0  0  0  0
    4.2305    0.6917    1.1078 C   0  0  0  0  0  0  0  0  0  0  0  0
    4.8079    1.1228    2.2500 C   0  0  0  0  0  0  0  0  0  0  0  0
    3.9912    1.0897    3.4824 C   0  0  0  0  0  0  0  0  0  0  0  0
    3.1175    2.1341    3.8213 C   0  0  0  0  0  0  0  0  0  0  0  0
    2.3543    2.0733    4.9989 C   0  0  0  0  0  0  0  0  0  0  0  0
    2.4585    0.9725    5.8604 C   0  0  0  0  0  0  0  0  0  0  0  0
    1.5879    0.8289    7.0857 C   0  0  0  0  0  0  0  0  0  0  0  0
    1.7073    1.9552    8.0944 C   0  0  0  0  0  0  0  0  0  0  0  0
    0.8857    2.8688    8.1337 O   0  0  0  0  0  0  0  0  0  0  0  0
    2.8201    1.8516    8.9167 N   0  0  0  0  0  0  0  0  0  0  0  0
    3.1207    2.8224    9.8921 C   0  0  0  0  0  0  0  0  0  0  0  0
    4.4231    3.3140    9.9388 C   0  0  0  0  0  0  0  0  0  0  0  0
    4.7665    4.3587   10.8077 C   0  0  0  0  0  0  0  0  0  0  0  0
    6.0921    4.9518   10.6867 C   0  0  0  0  0  0  0  0  0  0  0  0
    7.0180    4.7352    9.7715 N   0  0  0  0  0  0  0  0  0  0  0  0
    8.0715    5.5691   10.0722 N   0  0  0  0  0  0  0  0  0  0  0  0
    7.7206    6.2288   11.1546 C   0  0  0  0  0  0  0  0  0  0  0  0
    8.4811    7.2234   11.9258 C   0  0  0  0  0  0  0  0  0  0  0  0
    6.4697    5.8967   11.6055 O   0  0  0  0  0  0  0  0  0  0  0  0
    3.8026    4.8378   11.7076 C   0  0  0  0  0  0  0  0  0  0  0  0
    2.4944    4.3187   11.7075 C   0  0  0  0  0  0  0  0  0  0  0  0
    1.4485    4.8424   12.6630 C   0  0  0  0  0  0  0  0  0  0  0  0
    1.9078    5.8396   13.4712 F   0  0  0  0  0  0  0  0  0  0  0  0
    0.3615    5.3546   12.0250 F   0  0  0  0  0  0  0  0  0  0  0  0
    0.9755    3.8783   13.5001 F   0  0  0  0  0  0  0  0  0  0  0  0
    2.1607    3.3166   10.7794 C   0  0  0  0  0  0  0  0  0  0  0  0
    3.3454   -0.0510    5.5134 C   0  0  0  0  0  0  0  0  0  0  0  0
    3.4763   -1.1183    6.3135 F   0  0  0  0  0  0  0  0  0  0  0  0
    4.1019   -0.0032    4.3450 C   0  0  0  0  0  0  0  0  0  0  0  0
    9.4624    2.9263    5.0515 H   0  0  0  0  0  0  0  0  0  0  0  0
    8.2013    1.8099    5.6264 H   0  0  0  0  0  0  0  0  0  0  0  0
    7.7878    3.4862    5.2814 H   0  0  0  0  0  0  0  0  0  0  0  0
    8.7033    1.4118    3.2284 H   0  0  0  0  0  0  0  0  0  0  0  0
    8.3045    3.1230    2.8643 H   0  0  0  0  0  0  0  0  0  0  0  0
    7.9600    1.7193    0.9662 H   0  0  0  0  0  0  0  0  0  0  0  0
    4.5110    0.2834   -0.9094 H   0  0  0  0  0  0  0  0  0  0  0  0
    3.2009    0.3655    1.0514 H   0  0  0  0  0  0  0  0  0  0  0  0
    3.0229    3.0017    3.1700 H   0  0  0  0  0  0  0  0  0  0  0  0
    1.6707    2.8913    5.2285 H   0  0  0  0  0  0  0  0  0  0  0  0
    1.7979   -0.1115    7.6101 H   0  0  0  0  0  0  0  0  0  0  0  0
    0.5395    0.7652    6.7691 H   0  0  0  0  0  0  0  0  0  0  0  0
    3.6030    1.3423    8.5201 H   0  0  0  0  0  0  0  0  0  0  0  0
    5.1637    2.9463    9.2295 H   0  0  0  0  0  0  0  0  0  0  0  0
    9.4388    7.4334   11.4396 H   0  0  0  0  0  0  0  0  0  0  0  0
    8.6850    6.8469   12.9321 H   0  0  0  0  0  0  0  0  0  0  0  0
    7.9250    8.1613   12.0069 H   0  0  0  0  0  0  0  0  0  0  0  0
    4.0564    5.6428   12.3981 H   0  0  0  0  0  0  0  0  0  0  0  0
    1.1459    2.9195   10.7623 H   0  0  0  0  0  0  0  0  0  0  0  0
    4.7733   -0.8254    4.1152 H   0  0  0  0  0  0  0  0  0  0  0  0
  1  2  1  0  0  0  0
  1 38  1  0  0  0  0
  1 39  1  0  0  0  0
  1 40  1  0  0  0  0
  2  3  1  0  0  0  0
  2 41  1  0  0  0  0
  2 42  1  0  0  0  0
  3  4  1  0  0  0  0
  4  5  2  0  0  0  0
  4 10  1  0  0  0  0
  5  6  1  0  0  0  0
  5 43  1  0  0  0  0
  6  7  2  0  0  0  0
  6  8  1  0  0  0  0
  8  9  1  0  0  0  0
  8 44  1  0  0  0  0
  9 10  2  0  0  0  0
  9 45  1  0  0  0  0
 10 11  1  0  0  0  0
 11 12  1  0  0  0  0
 11 37  2  0  0  0  0
 12 13  2  0  0  0  0
 12 46  1  0  0  0  0
 13 14  1  0  0  0  0
 13 47  1  0  0  0  0
 14 15  1  0  0  0  0
 14 35  2  0  0  0  0
 15 16  1  0  0  0  0
 15 48  1  0  0  0  0
 15 49  1  0  0  0  0
 16 17  2  0  0  0  0
 16 18  1  0  0  0  0
 18 19  1  0  0  0  0
 18 50  1  0  0  0  0
 19 20  1  0  0  0  0
 19 34  2  0  0  0  0
 20 21  2  0  0  0  0
 20 51  1  0  0  0  0
 21 22  1  0  0  0  0
 21 28  1  0  0  0  0
 22 23  2  0  0  0  0
 22 27  1  0  0  0  0
 23 24  1  0  0  0  0
 24 25  2  0  0  0  0
 25 26  1  0  0  0  0
 25 27  1  0  0  0  0
 26 52  1  0  0  0  0
 26 53  1  0  0  0  0
 26 54  1  0  0  0  0
 28 29  2  0  0  0  0
 28 55  1  0  0  0  0
 29 30  1  0  0  0  0
 29 34  1  0  0  0  0
 30 31  1  0  0  0  0
 30 32  1  0  0  0  0
 30 33  1  0  0  0  0
 34 56  1  0  0  0  0
 35 36  1  0  0  0  0
 35 37  1  0  0  0  0
 37 57  1  0  0  0  0
M  END
$$$$
