CHEMBL4741847
 OpenBabel04072215383D

 48 52  0  0  0  0  0  0  0  0999 V2000
   -3.9503    0.1068    0.3355 O   0  0  0  0  0  0  0  0  0  0  0  0
   -2.7393    0.1804    0.2805 C   0  0  0  0  0  0  0  0  0  0  0  0
   -1.7377   -0.9816    0.1582 C   0  0  0  0  0  0  0  0  0  0  0  0
   -1.9470   -2.2540    0.0395 N   0  0  0  0  0  0  0  0  0  0  0  0
   -3.2863   -2.6013    0.1011 N   0  0  0  0  0  0  0  0  0  0  0  0
   -3.5814   -3.7923   -0.3126 C   0  0  0  0  0  0  0  0  0  0  0  0
   -4.8382   -4.3384   -0.3022 N   0  0  0  0  0  0  0  0  0  0  0  0
   -4.9791   -5.6049   -0.8313 C   0  0  0  0  0  0  0  0  0  0  0  0
   -6.2943   -6.2645   -0.8587 C   0  0  0  0  0  0  0  0  0  0  0  0
   -7.2350   -6.0179    0.1554 C   0  0  0  0  0  0  0  0  0  0  0  0
   -8.5024   -6.6071    0.1236 C   0  0  0  0  0  0  0  0  0  0  0  0
   -8.8477   -7.4578   -0.9219 C   0  0  0  0  0  0  0  0  0  0  0  0
   -7.9258   -7.7226   -1.9315 C   0  0  0  0  0  0  0  0  0  0  0  0
   -6.6587   -7.1301   -1.9012 C   0  0  0  0  0  0  0  0  0  0  0  0
   -3.8140   -6.1216   -1.2678 C   0  0  0  0  0  0  0  0  0  0  0  0
   -2.4774   -5.0048   -1.0169 S   0  0  0  0  0  0  0  0  0  0  0  0
   -0.4142   -0.3728    0.1472 C   0  0  0  0  0  0  0  0  0  0  0  0
    0.8263   -0.9750    0.0406 C   0  0  0  0  0  0  0  0  0  0  0  0
    1.9329   -0.1320    0.0485 C   0  0  0  0  0  0  0  0  0  0  0  0
    3.5116   -0.8053   -0.0839 Cl  0  0  0  0  0  0  0  0  0  0  0  0
    1.7816    1.2640    0.1609 C   0  0  0  0  0  0  0  0  0  0  0  0
    0.5071    1.8483    0.2447 C   0  0  0  0  0  0  0  0  0  0  0  0
   -0.5909    1.0091    0.2277 C   0  0  0  0  0  0  0  0  0  0  0  0
   -1.9587    1.3327    0.2685 N   0  0  0  0  0  0  0  0  0  0  0  0
   -2.5156    2.6528    0.0723 C   0  0  0  0  0  0  0  0  0  0  0  0
   -2.5614    3.5127    1.3093 C   0  0  0  0  0  0  0  0  0  0  0  0
   -1.9835    4.7918    1.3015 C   0  0  0  0  0  0  0  0  0  0  0  0
   -2.0386    5.6039    2.4354 C   0  0  0  0  0  0  0  0  0  0  0  0
   -2.6842    5.1530    3.5842 C   0  0  0  0  0  0  0  0  0  0  0  0
   -3.2952    3.9006    3.5924 C   0  0  0  0  0  0  0  0  0  0  0  0
   -3.2407    3.0865    2.4593 C   0  0  0  0  0  0  0  0  0  0  0  0
   -5.6329   -3.7736   -0.0462 H   0  0  0  0  0  0  0  0  0  0  0  0
   -6.9891   -5.3722    0.9957 H   0  0  0  0  0  0  0  0  0  0  0  0
   -9.2168   -6.4007    0.9168 H   0  0  0  0  0  0  0  0  0  0  0  0
   -9.8343   -7.9140   -0.9497 H   0  0  0  0  0  0  0  0  0  0  0  0
   -8.1948   -8.3870   -2.7490 H   0  0  0  0  0  0  0  0  0  0  0  0
   -5.9682   -7.3446   -2.7136 H   0  0  0  0  0  0  0  0  0  0  0  0
   -3.6667   -7.0957   -1.7120 H   0  0  0  0  0  0  0  0  0  0  0  0
    0.9189   -2.0518   -0.0498 H   0  0  0  0  0  0  0  0  0  0  0  0
    2.6646    1.8997    0.1845 H   0  0  0  0  0  0  0  0  0  0  0  0
    0.4101    2.9231    0.3420 H   0  0  0  0  0  0  0  0  0  0  0  0
   -3.5379    2.5564   -0.3137 H   0  0  0  0  0  0  0  0  0  0  0  0
   -1.9391    3.1436   -0.7220 H   0  0  0  0  0  0  0  0  0  0  0  0
   -1.4934    5.1717    0.4077 H   0  0  0  0  0  0  0  0  0  0  0  0
   -1.5829    6.5906    2.4207 H   0  0  0  0  0  0  0  0  0  0  0  0
   -2.7209    5.7818    4.4700 H   0  0  0  0  0  0  0  0  0  0  0  0
   -3.8202    3.5580    4.4804 H   0  0  0  0  0  0  0  0  0  0  0  0
   -3.7435    2.1207    2.4750 H   0  0  0  0  0  0  0  0  0  0  0  0
  1  2  2  0  0  0  0
  2  3  1  0  0  0  0
  2 24  1  0  0  0  0
  3  4  2  0  0  0  0
  3 17  1  0  0  0  0
  4  5  1  0  0  0  0
  5  6  2  0  0  0  0
  6  7  1  0  0  0  0
  6 16  1  0  0  0  0
  7  8  1  0  0  0  0
  7 32  1  0  0  0  0
  8  9  1  0  0  0  0
  8 15  2  0  0  0  0
  9 10  1  0  0  0  0
  9 14  2  0  0  0  0
 10 11  2  0  0  0  0
 10 33  1  0  0  0  0
 11 12  1  0  0  0  0
 11 34  1  0  0  0  0
 12 13  2  0  0  0  0
 12 35  1  0  0  0  0
 13 14  1  0  0  0  0
 13 36  1  0  0  0  0
 14 37  1  0  0  0  0
 15 16  1  0  0  0  0
 15 38  1  0  0  0  0
 17 18  1  0  0  0  0
 17 23  2  0  0  0  0
 18 19  2  0  0  0  0
 18 39  1  0  0  0  0
 19 20  1  0  0  0  0
 19 21  1  0  0  0  0
 21 22  2  0  0  0  0
 21 40  1  0  0  0  0
 22 23  1  0  0  0  0
 22 41  1  0  0  0  0
 23 24  1  0  0  0  0
 24 25  1  0  0  0  0
 25 26  1  0  0  0  0
 25 42  1  0  0  0  0
 25 43  1  0  0  0  0
 26 27  1  0  0  0  0
 26 31  2  0  0  0  0
 27 28  2  0  0  0  0
 27 44  1  0  0  0  0
 28 29  1  0  0  0  0
 28 45  1  0  0  0  0
 29 30  2  0  0  0  0
 29 46  1  0  0  0  0
 30 31  1  0  0  0  0
 30 47  1  0  0  0  0
 31 48  1  0  0  0  0
M  END
$$$$
