CHEMBL4793436
 OpenBabel04072215383D

 85 90  0  0  0  0  0  0  0  0999 V2000
    0.8341    2.8136    0.3218 C   0  0  0  0  0  0  0  0  0  0  0  0
    0.9796    1.6566    1.1490 O   0  0  0  0  0  0  0  0  0  0  0  0
    2.1641    1.5516    1.8366 C   0  0  0  0  0  0  0  0  0  0  0  0
    3.3591    2.1661    1.4059 C   0  0  0  0  0  0  0  0  0  0  0  0
    4.5592    2.2188    2.1972 C   0  0  0  0  0  0  0  0  0  0  0  0
    5.7948    2.8965    2.0077 C   0  0  0  0  0  0  0  0  0  0  0  0
    6.2865    3.5686    0.9151 O   0  0  0  0  0  0  0  0  0  0  0  0
    5.5377    4.0860   -0.0928 C   0  0  0  0  0  0  0  0  0  0  0  0
    6.0387    3.9389   -1.3887 C   0  0  0  0  0  0  0  0  0  0  0  0
    5.2309    4.2414   -2.4910 C   0  0  0  0  0  0  0  0  0  0  0  0
    3.9255    4.7038   -2.3019 C   0  0  0  0  0  0  0  0  0  0  0  0
    3.0429    4.7878   -3.3999 N   0  0  0  0  0  0  0  0  0  0  0  0
    1.8348    5.5020   -3.4439 C   0  0  0  0  0  0  0  0  0  0  0  0
    1.8368    6.7239   -2.8411 N   0  0  0  0  0  0  0  0  0  0  0  0
    0.7089    7.4488   -2.8119 C   0  0  0  0  0  0  0  0  0  0  0  0
   -0.4794    7.0226   -3.3609 C   0  0  0  0  0  0  0  0  0  0  0  0
   -0.5084    5.7735   -3.9742 C   0  0  0  0  0  0  0  0  0  0  0  0
   -1.6923    5.3159   -4.5684 N   0  0  0  0  0  0  0  0  0  0  0  0
   -1.7561    4.0793   -5.1529 C   0  0  0  0  0  0  0  0  0  0  0  0
   -0.7279    3.2287   -5.2607 C   0  0  0  0  0  0  0  0  0  0  0  0
   -0.9342    1.9190   -5.8918 C   0  0  0  0  0  0  0  0  0  0  0  0
   -0.7760    1.7586   -7.2763 C   0  0  0  0  0  0  0  0  0  0  0  0
   -0.9946    0.5115   -7.8699 C   0  0  0  0  0  0  0  0  0  0  0  0
   -1.3774   -0.5663   -7.0807 C   0  0  0  0  0  0  0  0  0  0  0  0
   -1.5755   -1.7638   -7.6488 F   0  0  0  0  0  0  0  0  0  0  0  0
   -1.5614   -0.4206   -5.7113 C   0  0  0  0  0  0  0  0  0  0  0  0
   -1.3433    0.8241   -5.1154 C   0  0  0  0  0  0  0  0  0  0  0  0
    0.5924    3.6585   -4.6794 C   0  0  0  0  0  0  0  0  0  0  0  0
    1.5805    2.9287   -4.7152 O   0  0  0  0  0  0  0  0  0  0  0  0
    0.6667    5.0017   -4.0323 C   0  0  0  0  0  0  0  0  0  0  0  0
    3.5395    5.0618   -1.0029 C   0  0  0  0  0  0  0  0  0  0  0  0
    4.3590    4.7870    0.0851 C   0  0  0  0  0  0  0  0  0  0  0  0
    3.9073    5.0707    1.3166 F   0  0  0  0  0  0  0  0  0  0  0  0
    6.7820    2.8799    2.9472 N   0  0  0  0  0  0  0  0  0  0  0  0
    6.5496    2.1868    4.0556 C   0  0  0  0  0  0  0  0  0  0  0  0
    5.4822    1.4355    4.2829 N   0  0  0  0  0  0  0  0  0  0  0  0
    4.5151    1.4657    3.3746 C   0  0  0  0  0  0  0  0  0  0  0  0
    3.4094    0.7063    3.6895 C   0  0  0  0  0  0  0  0  0  0  0  0
    2.1968    0.7854    3.0069 C   0  0  0  0  0  0  0  0  0  0  0  0
    1.0373    0.1747    3.4747 O   0  0  0  0  0  0  0  0  0  0  0  0
    1.1608   -0.3109    4.8311 C   0  0  0  0  0  0  0  0  0  0  0  0
   -0.1609   -0.5874    5.5363 C   0  0  0  0  0  0  0  0  0  0  0  0
   -0.7401   -1.8211    5.1237 O   0  0  0  0  0  0  0  0  0  0  0  0
    1.7095   -1.3561   -0.5501 C   0  0  0  0  0  0  0  0  0  0  0  0
    3.1931   -1.1874   -0.6985 C   0  0  0  0  0  0  0  0  0  0  0  0
    3.7348    0.0570   -1.0361 C   0  0  0  0  0  0  0  0  0  0  0  0
    5.1144    0.2479   -1.0340 C   0  0  0  0  0  0  0  0  0  0  0  0
    5.9574   -0.8262   -0.7527 C   0  0  0  0  0  0  0  0  0  0  0  0
    7.6982   -0.5330   -0.6209 S   0  0  0  0  0  0  0  0  0  0  0  0
    8.2305   -1.4638    0.3538 O   0  0  0  0  0  0  0  0  0  0  0  0
    8.2251   -0.4263   -1.9640 O   0  0  0  0  0  0  0  0  0  0  0  0
    7.7934    0.9190    0.0760 O   0  0  0  0  0  0  0  0  0  0  0  0
    5.4377   -2.0970   -0.5018 C   0  0  0  0  0  0  0  0  0  0  0  0
    4.0523   -2.2726   -0.4833 C   0  0  0  0  0  0  0  0  0  0  0  0
    0.9998    3.7345    0.8931 H   0  0  0  0  0  0  0  0  0  0  0  0
   -0.1903    2.8388   -0.0632 H   0  0  0  0  0  0  0  0  0  0  0  0
    1.4942    2.7716   -0.5512 H   0  0  0  0  0  0  0  0  0  0  0  0
    3.3610    2.6333    0.4348 H   0  0  0  0  0  0  0  0  0  0  0  0
    7.0392    3.5414   -1.5461 H   0  0  0  0  0  0  0  0  0  0  0  0
    5.6207    4.0884   -3.4959 H   0  0  0  0  0  0  0  0  0  0  0  0
    3.0174    3.9323   -3.9645 H   0  0  0  0  0  0  0  0  0  0  0  0
    0.7946    8.4112   -2.3155 H   0  0  0  0  0  0  0  0  0  0  0  0
   -1.3568    7.6555   -3.3069 H   0  0  0  0  0  0  0  0  0  0  0  0
   -2.5554    5.8258   -4.4136 H   0  0  0  0  0  0  0  0  0  0  0  0
   -2.7465    3.8365   -5.5327 H   0  0  0  0  0  0  0  0  0  0  0  0
   -0.4792    2.5978   -7.9016 H   0  0  0  0  0  0  0  0  0  0  0  0
   -0.8641    0.3730   -8.9387 H   0  0  0  0  0  0  0  0  0  0  0  0
   -1.8679   -1.2753   -5.1167 H   0  0  0  0  0  0  0  0  0  0  0  0
   -1.4923    0.9319   -4.0435 H   0  0  0  0  0  0  0  0  0  0  0  0
    2.5594    5.4812   -0.8003 H   0  0  0  0  0  0  0  0  0  0  0  0
    7.2875    2.2469    4.8433 H   0  0  0  0  0  0  0  0  0  0  0  0
    3.5215    0.0687    4.5652 H   0  0  0  0  0  0  0  0  0  0  0  0
    1.6450    0.4574    5.4437 H   0  0  0  0  0  0  0  0  0  0  0  0
    1.7528   -1.2344    4.8112 H   0  0  0  0  0  0  0  0  0  0  0  0
   -0.8879    0.2149    5.3817 H   0  0  0  0  0  0  0  0  0  0  0  0
    0.0337   -0.6840    6.6069 H   0  0  0  0  0  0  0  0  0  0  0  0
   -0.9942   -1.7076    4.1868 H   0  0  0  0  0  0  0  0  0  0  0  0
    1.2106   -0.3888   -0.4410 H   0  0  0  0  0  0  0  0  0  0  0  0
    1.4886   -1.9317    0.3557 H   0  0  0  0  0  0  0  0  0  0  0  0
    1.2860   -1.8642   -1.4195 H   0  0  0  0  0  0  0  0  0  0  0  0
    3.0805    0.8967   -1.2571 H   0  0  0  0  0  0  0  0  0  0  0  0
    5.5238    1.2316   -1.2330 H   0  0  0  0  0  0  0  0  0  0  0  0
    7.8020    0.8072    1.0523 H   0  0  0  0  0  0  0  0  0  0  0  0
    6.0938   -2.9378   -0.3019 H   0  0  0  0  0  0  0  0  0  0  0  0
    3.6418   -3.2582   -0.2732 H   0  0  0  0  0  0  0  0  0  0  0  0
  1  2  1  0  0  0  0
  1 55  1  0  0  0  0
  1 56  1  0  0  0  0
  1 57  1  0  0  0  0
  2  3  1  0  0  0  0
  3  4  1  0  0  0  0
  3 39  2  0  0  0  0
  4  5  2  0  0  0  0
  4 58  1  0  0  0  0
  5  6  1  0  0  0  0
  5 37  1  0  0  0  0
  6  7  1  0  0  0  0
  6 34  2  0  0  0  0
  7  8  1  0  0  0  0
  8  9  1  0  0  0  0
  8 32  2  0  0  0  0
  9 10  2  0  0  0  0
  9 59  1  0  0  0  0
 10 11  1  0  0  0  0
 10 60  1  0  0  0  0
 11 12  1  0  0  0  0
 11 31  2  0  0  0  0
 12 13  1  0  0  0  0
 12 61  1  0  0  0  0
 13 14  1  0  0  0  0
 13 30  2  0  0  0  0
 14 15  2  0  0  0  0
 15 16  1  0  0  0  0
 15 62  1  0  0  0  0
 16 17  2  0  0  0  0
 16 63  1  0  0  0  0
 17 18  1  0  0  0  0
 17 30  1  0  0  0  0
 18 19  1  0  0  0  0
 18 64  1  0  0  0  0
 19 20  2  0  0  0  0
 19 65  1  0  0  0  0
 20 21  1  0  0  0  0
 20 28  1  0  0  0  0
 21 22  1  0  0  0  0
 21 27  2  0  0  0  0
 22 23  2  0  0  0  0
 22 66  1  0  0  0  0
 23 24  1  0  0  0  0
 23 67  1  0  0  0  0
 24 25  1  0  0  0  0
 24 26  2  0  0  0  0
 26 27  1  0  0  0  0
 26 68  1  0  0  0  0
 27 69  1  0  0  0  0
 28 29  2  0  0  0  0
 28 30  1  0  0  0  0
 31 32  1  0  0  0  0
 31 70  1  0  0  0  0
 32 33  1  0  0  0  0
 34 35  1  0  0  0  0
 35 36  2  0  0  0  0
 35 71  1  0  0  0  0
 36 37  1  0  0  0  0
 37 38  2  0  0  0  0
 38 39  1  0  0  0  0
 38 72  1  0  0  0  0
 39 40  1  0  0  0  0
 40 41  1  0  0  0  0
 41 42  1  0  0  0  0
 41 73  1  0  0  0  0
 41 74  1  0  0  0  0
 42 43  1  0  0  0  0
 42 75  1  0  0  0  0
 42 76  1  0  0  0  0
 43 77  1  0  0  0  0
 44 45  1  0  0  0  0
 44 78  1  0  0  0  0
 44 79  1  0  0  0  0
 44 80  1  0  0  0  0
 45 46  1  0  0  0  0
 45 54  2  0  0  0  0
 46 47  2  0  0  0  0
 46 81  1  0  0  0  0
 47 48  1  0  0  0  0
 47 82  1  0  0  0  0
 48 49  1  0  0  0  0
 48 53  2  0  0  0  0
 49 50  2  0  0  0  0
 49 51  2  0  0  0  0
 49 52  1  0  0  0  0
 52 83  1  0  0  0  0
 53 54  1  0  0  0  0
 53 84  1  0  0  0  0
 54 85  1  0  0  0  0
M  END
$$$$
