CHEMBL187033
 OpenBabel04072215363D

 61 64  0  0  0  0  0  0  0  0999 V2000
    1.2679   -0.1483   -0.0312 C   0  0  0  0  0  0  0  0  0  0  0  0
    2.7119    0.1196   -0.0237 N   0  0  0  0  0  0  0  0  0  0  0  0
    3.3420    0.1390    1.2349 C   0  0  0  0  0  0  0  0  0  0  0  0
    2.8912   -0.6487    2.2985 C   0  0  0  0  0  0  0  0  0  0  0  0
    3.5111   -0.6049    3.5482 C   0  0  0  0  0  0  0  0  0  0  0  0
    4.6035    0.2274    3.7691 C   0  0  0  0  0  0  0  0  0  0  0  0
    5.2569    0.3202    5.0064 N   0  0  0  0  0  0  0  0  0  0  0  0
    4.9959   -0.4013    6.1441 C   0  0  0  0  0  0  0  0  0  0  0  0
    4.0920   -1.2020    6.3373 O   0  0  0  0  0  0  0  0  0  0  0  0
    5.9904   -0.1258    7.0670 O   0  0  0  0  0  0  0  0  0  0  0  0
    6.5309   -1.2746    7.6597 C   0  0  0  0  0  0  0  0  0  0  0  0
    6.8730   -2.3922    6.8904 C   0  0  0  0  0  0  0  0  0  0  0  0
    7.5464   -3.4559    7.4829 C   0  0  0  0  0  0  0  0  0  0  0  0
    7.8889   -3.3933    8.8331 C   0  0  0  0  0  0  0  0  0  0  0  0
    7.5437   -2.2750    9.5965 C   0  0  0  0  0  0  0  0  0  0  0  0
    6.8633   -1.2074    9.0099 C   0  0  0  0  0  0  0  0  0  0  0  0
    5.0863    1.0024    2.7120 C   0  0  0  0  0  0  0  0  0  0  0  0
    4.4548    0.9644    1.4629 C   0  0  0  0  0  0  0  0  0  0  0  0
    3.3248   -0.1489   -1.2739 C   0  0  0  0  0  0  0  0  0  0  0  0
    4.6236   -0.6127   -1.3541 C   0  0  0  0  0  0  0  0  0  0  0  0
    5.1216   -0.8655   -2.6087 C   0  0  0  0  0  0  0  0  0  0  0  0
    4.4242   -0.6726   -3.7387 N   0  0  0  0  0  0  0  0  0  0  0  0
    3.1811   -0.2037   -3.5908 C   0  0  0  0  0  0  0  0  0  0  0  0
    2.4562    0.0444   -4.7571 N   0  0  0  0  0  0  0  0  0  0  0  0
    1.5261    1.0852   -4.9414 C   0  0  0  0  0  0  0  0  0  0  0  0
    0.5268    0.9570   -5.9094 C   0  0  0  0  0  0  0  0  0  0  0  0
   -0.4283    1.9582   -6.0726 C   0  0  0  0  0  0  0  0  0  0  0  0
   -0.3857    3.1145   -5.2843 C   0  0  0  0  0  0  0  0  0  0  0  0
    0.6314    3.2895   -4.3407 C   0  0  0  0  0  0  0  0  0  0  0  0
    0.7342    4.5470   -3.5191 C   0  0  0  0  0  0  0  0  0  0  0  0
   -0.2020    4.4467   -1.9980 S   0  0  0  0  0  0  0  0  0  0  0  0
    0.4856    3.0648   -1.1304 C   0  0  0  0  0  0  0  0  0  0  0  0
    0.1238    5.6292   -1.2179 O   0  0  0  0  0  0  0  0  0  0  0  0
   -1.5885    4.1420   -2.3008 O   0  0  0  0  0  0  0  0  0  0  0  0
    1.5857    2.2726   -4.1945 C   0  0  0  0  0  0  0  0  0  0  0  0
    2.6153    0.0471   -2.3976 N   0  0  0  0  0  0  0  0  0  0  0  0
    0.7826    0.1769    0.8982 H   0  0  0  0  0  0  0  0  0  0  0  0
    1.0632   -1.2144   -0.1779 H   0  0  0  0  0  0  0  0  0  0  0  0
    0.7556    0.3981   -0.8230 H   0  0  0  0  0  0  0  0  0  0  0  0
    2.0552   -1.3304    2.1741 H   0  0  0  0  0  0  0  0  0  0  0  0
    3.1050   -1.2470    4.3223 H   0  0  0  0  0  0  0  0  0  0  0  0
    6.0690    0.9176    5.0747 H   0  0  0  0  0  0  0  0  0  0  0  0
    6.6302   -2.4429    5.8327 H   0  0  0  0  0  0  0  0  0  0  0  0
    7.8134   -4.3248    6.8876 H   0  0  0  0  0  0  0  0  0  0  0  0
    8.4320   -4.2173    9.2891 H   0  0  0  0  0  0  0  0  0  0  0  0
    7.8185   -2.2323   10.6471 H   0  0  0  0  0  0  0  0  0  0  0  0
    6.6079   -0.3317    9.5985 H   0  0  0  0  0  0  0  0  0  0  0  0
    5.9508    1.6492    2.8390 H   0  0  0  0  0  0  0  0  0  0  0  0
    4.8281    1.6055    0.6663 H   0  0  0  0  0  0  0  0  0  0  0  0
    5.2278   -0.8129   -0.4806 H   0  0  0  0  0  0  0  0  0  0  0  0
    6.1296   -1.2467   -2.7406 H   0  0  0  0  0  0  0  0  0  0  0  0
    3.0637   -0.1081   -5.5531 H   0  0  0  0  0  0  0  0  0  0  0  0
    0.4642    0.0557   -6.5121 H   0  0  0  0  0  0  0  0  0  0  0  0
   -1.2190    1.8382   -6.8093 H   0  0  0  0  0  0  0  0  0  0  0  0
   -1.1530    3.8755   -5.4182 H   0  0  0  0  0  0  0  0  0  0  0  0
    0.3574    5.4099   -4.0752 H   0  0  0  0  0  0  0  0  0  0  0  0
    1.7757    4.7536   -3.2474 H   0  0  0  0  0  0  0  0  0  0  0  0
    1.5660    3.1924   -1.0387 H   0  0  0  0  0  0  0  0  0  0  0  0
    0.2359    2.1690   -1.6945 H   0  0  0  0  0  0  0  0  0  0  0  0
    0.0337    3.0133   -0.1373 H   0  0  0  0  0  0  0  0  0  0  0  0
    2.3940    2.4045   -3.4778 H   0  0  0  0  0  0  0  0  0  0  0  0
  1  2  1  0  0  0  0
  1 37  1  0  0  0  0
  1 38  1  0  0  0  0
  1 39  1  0  0  0  0
  2  3  1  0  0  0  0
  2 19  1  0  0  0  0
  3  4  1  0  0  0  0
  3 18  2  0  0  0  0
  4  5  2  0  0  0  0
  4 40  1  0  0  0  0
  5  6  1  0  0  0  0
  5 41  1  0  0  0  0
  6  7  1  0  0  0  0
  6 17  2  0  0  0  0
  7  8  1  0  0  0  0
  7 42  1  0  0  0  0
  8  9  2  0  0  0  0
  8 10  1  0  0  0  0
 10 11  1  0  0  0  0
 11 12  1  0  0  0  0
 11 16  2  0  0  0  0
 12 13  2  0  0  0  0
 12 43  1  0  0  0  0
 13 14  1  0  0  0  0
 13 44  1  0  0  0  0
 14 15  2  0  0  0  0
 14 45  1  0  0  0  0
 15 16  1  0  0  0  0
 15 46  1  0  0  0  0
 16 47  1  0  0  0  0
 17 18  1  0  0  0  0
 17 48  1  0  0  0  0
 18 49  1  0  0  0  0
 19 20  1  0  0  0  0
 19 36  2  0  0  0  0
 20 21  2  0  0  0  0
 20 50  1  0  0  0  0
 21 22  1  0  0  0  0
 21 51  1  0  0  0  0
 22 23  2  0  0  0  0
 23 24  1  0  0  0  0
 23 36  1  0  0  0  0
 24 25  1  0  0  0  0
 24 52  1  0  0  0  0
 25 26  1  0  0  0  0
 25 35  2  0  0  0  0
 26 27  2  0  0  0  0
 26 53  1  0  0  0  0
 27 28  1  0  0  0  0
 27 54  1  0  0  0  0
 28 29  2  0  0  0  0
 28 55  1  0  0  0  0
 29 30  1  0  0  0  0
 29 35  1  0  0  0  0
 30 31  1  0  0  0  0
 30 56  1  0  0  0  0
 30 57  1  0  0  0  0
 31 32  1  0  0  0  0
 31 33  2  0  0  0  0
 31 34  2  0  0  0  0
 32 58  1  0  0  0  0
 32 59  1  0  0  0  0
 32 60  1  0  0  0  0
 35 61  1  0  0  0  0
M  END
$$$$
