CHEMBL1242757
 OpenBabel04072215363D

 38 41  0  0  0  0  0  0  0  0999 V2000
    1.5371    0.7917    0.7635 C   0  0  0  0  0  0  0  0  0  0  0  0
    2.4865   -0.1184   -0.0162 C   0  0  0  0  0  0  0  0  0  0  0  0
    3.6768    0.6730   -0.5668 C   0  0  0  0  0  0  0  0  0  0  0  0
    2.9142   -1.2509    0.7945 N   0  0  0  0  0  0  0  0  0  0  0  0
    3.6476   -1.0441    1.9032 N   0  0  0  0  0  0  0  0  0  0  0  0
    3.7863   -2.2604    2.4633 C   0  0  0  0  0  0  0  0  0  0  0  0
    4.5752   -2.4245    3.6916 C   0  0  0  0  0  0  0  0  0  0  0  0
    5.3538   -3.5754    3.9149 C   0  0  0  0  0  0  0  0  0  0  0  0
    6.0688   -3.7605    5.0962 C   0  0  0  0  0  0  0  0  0  0  0  0
    6.0919   -2.7745    6.0785 C   0  0  0  0  0  0  0  0  0  0  0  0
    5.3840   -1.5939    5.8243 C   0  0  0  0  0  0  0  0  0  0  0  0
    5.3042   -0.4479    6.5862 N   0  0  0  0  0  0  0  0  0  0  0  0
    4.5149    0.4780    5.9664 C   0  0  0  0  0  0  0  0  0  0  0  0
    4.0502   -0.0873    4.8008 C   0  0  0  0  0  0  0  0  0  0  0  0
    4.6172   -1.3957    4.6716 C   0  0  0  0  0  0  0  0  0  0  0  0
    3.1092   -3.2579    1.6805 C   0  0  0  0  0  0  0  0  0  0  0  0
    2.8475   -4.6394    1.7038 C   0  0  0  0  0  0  0  0  0  0  0  0
    3.2113   -5.5166    2.7076 N   0  0  0  0  0  0  0  0  0  0  0  0
    2.2071   -5.1948    0.6501 N   0  0  0  0  0  0  0  0  0  0  0  0
    1.8191   -4.4036   -0.3663 C   0  0  0  0  0  0  0  0  0  0  0  0
    1.9572   -3.0760   -0.4724 N   0  0  0  0  0  0  0  0  0  0  0  0
    2.6123   -2.5664    0.5846 C   0  0  0  0  0  0  0  0  0  0  0  0
    1.1764    1.6110    0.1324 H   0  0  0  0  0  0  0  0  0  0  0  0
    2.0252    1.2324    1.6401 H   0  0  0  0  0  0  0  0  0  0  0  0
    0.6648    0.2301    1.1174 H   0  0  0  0  0  0  0  0  0  0  0  0
    1.9360   -0.5266   -0.8712 H   0  0  0  0  0  0  0  0  0  0  0  0
    4.2664    1.1283    0.2362 H   0  0  0  0  0  0  0  0  0  0  0  0
    3.3316    1.4770   -1.2264 H   0  0  0  0  0  0  0  0  0  0  0  0
    4.3422    0.0243   -1.1450 H   0  0  0  0  0  0  0  0  0  0  0  0
    5.4238   -4.3443    3.1502 H   0  0  0  0  0  0  0  0  0  0  0  0
    6.6306   -4.6807    5.2455 H   0  0  0  0  0  0  0  0  0  0  0  0
    6.6670   -2.9082    6.9883 H   0  0  0  0  0  0  0  0  0  0  0  0
    5.7896   -0.3061    7.4615 H   0  0  0  0  0  0  0  0  0  0  0  0
    4.3585    1.4579    6.3962 H   0  0  0  0  0  0  0  0  0  0  0  0
    3.4075    0.4067    4.0845 H   0  0  0  0  0  0  0  0  0  0  0  0
    3.3496   -5.1646    3.6449 H   0  0  0  0  0  0  0  0  0  0  0  0
    2.8338   -6.4481    2.5961 H   0  0  0  0  0  0  0  0  0  0  0  0
    1.3369   -4.9033   -1.2015 H   0  0  0  0  0  0  0  0  0  0  0  0
  1  2  1  0  0  0  0
  1 23  1  0  0  0  0
  1 24  1  0  0  0  0
  1 25  1  0  0  0  0
  2  3  1  0  0  0  0
  2  4  1  0  0  0  0
  2 26  1  0  0  0  0
  3 27  1  0  0  0  0
  3 28  1  0  0  0  0
  3 29  1  0  0  0  0
  4  5  1  0  0  0  0
  4 22  1  0  0  0  0
  5  6  2  0  0  0  0
  6  7  1  0  0  0  0
  6 16  1  0  0  0  0
  7  8  1  0  0  0  0
  7 15  2  0  0  0  0
  8  9  2  0  0  0  0
  8 30  1  0  0  0  0
  9 10  1  0  0  0  0
  9 31  1  0  0  0  0
 10 11  2  0  0  0  0
 10 32  1  0  0  0  0
 11 12  1  0  0  0  0
 11 15  1  0  0  0  0
 12 13  1  0  0  0  0
 12 33  1  0  0  0  0
 13 14  2  0  0  0  0
 13 34  1  0  0  0  0
 14 15  1  0  0  0  0
 14 35  1  0  0  0  0
 16 17  1  0  0  0  0
 16 22  2  0  0  0  0
 17 18  1  0  0  0  0
 17 19  2  0  0  0  0
 18 36  1  0  0  0  0
 18 37  1  0  0  0  0
 19 20  1  0  0  0  0
 20 21  2  0  0  0  0
 20 38  1  0  0  0  0
 21 22  1  0  0  0  0
M  END
$$$$
