CHEMBL400859
 OpenBabel04072215373D

 43 47  0  0  0  0  0  0  0  0999 V2000
    8.1227   -1.8717   -3.3438 C   0  0  0  0  0  0  0  0  0  0  0  0
    7.2285   -1.8432   -2.2409 O   0  0  0  0  0  0  0  0  0  0  0  0
    7.7443   -1.0485   -1.1730 C   0  0  0  0  0  0  0  0  0  0  0  0
    6.7444   -1.0015   -0.0519 C   0  0  0  0  0  0  0  0  0  0  0  0
    6.3005   -2.1937    0.5597 C   0  0  0  0  0  0  0  0  0  0  0  0
    5.4015   -2.1815    1.6302 C   0  0  0  0  0  0  0  0  0  0  0  0
    4.9133   -0.9811    2.1527 C   0  0  0  0  0  0  0  0  0  0  0  0
    5.3611    0.1911    1.5431 C   0  0  0  0  0  0  0  0  0  0  0  0
    5.1136    1.5149    1.7975 N   0  0  0  0  0  0  0  0  0  0  0  0
    5.8018    2.2660    0.8813 C   0  0  0  0  0  0  0  0  0  0  0  0
    5.7702    3.7562    0.8563 C   0  0  0  0  0  0  0  0  0  0  0  0
    5.1400    4.4651    1.8094 N   0  0  0  0  0  0  0  0  0  0  0  0
    5.3855    5.7445    1.4458 N   0  0  0  0  0  0  0  0  0  0  0  0
    6.1152    5.8671    0.3009 C   0  0  0  0  0  0  0  0  0  0  0  0
    6.4935    7.0162   -0.2852 N   0  0  0  0  0  0  0  0  0  0  0  0
    7.1926    6.8038   -1.4339 C   0  0  0  0  0  0  0  0  0  0  0  0
    7.5162    5.5686   -2.0221 C   0  0  0  0  0  0  0  0  0  0  0  0
    8.2404    5.4743   -3.3074 C   0  0  0  0  0  0  0  0  0  0  0  0
    9.0953    4.4029   -3.6123 C   0  0  0  0  0  0  0  0  0  0  0  0
    9.7499    4.3374   -4.8424 C   0  0  0  0  0  0  0  0  0  0  0  0
    9.5440    5.3585   -5.7515 C   0  0  0  0  0  0  0  0  0  0  0  0
    8.7391    6.4113   -5.5140 N   0  0  0  0  0  0  0  0  0  0  0  0
    8.1085    6.4371   -4.3134 C   0  0  0  0  0  0  0  0  0  0  0  0
    7.0945    4.4220   -1.3241 C   0  0  0  0  0  0  0  0  0  0  0  0
    6.3748    4.5789   -0.1263 C   0  0  0  0  0  0  0  0  0  0  0  0
    6.4914    1.5004    0.0605 N   0  0  0  0  0  0  0  0  0  0  0  0
    6.2392    0.2080    0.4629 C   0  0  0  0  0  0  0  0  0  0  0  0
    7.7031   -2.5283   -4.1103 H   0  0  0  0  0  0  0  0  0  0  0  0
    9.0961   -2.2683   -3.0390 H   0  0  0  0  0  0  0  0  0  0  0  0
    8.2409   -0.8699   -3.7689 H   0  0  0  0  0  0  0  0  0  0  0  0
    7.9675   -0.0390   -1.5374 H   0  0  0  0  0  0  0  0  0  0  0  0
    8.6744   -1.4950   -0.8003 H   0  0  0  0  0  0  0  0  0  0  0  0
    6.6634   -3.1489    0.1829 H   0  0  0  0  0  0  0  0  0  0  0  0
    5.0792   -3.1255    2.0652 H   0  0  0  0  0  0  0  0  0  0  0  0
    4.2219   -0.9700    2.9881 H   0  0  0  0  0  0  0  0  0  0  0  0
    4.5289    1.9017    2.5240 H   0  0  0  0  0  0  0  0  0  0  0  0
    5.0255    6.5018    2.0146 H   0  0  0  0  0  0  0  0  0  0  0  0
    7.5140    7.7344   -1.9002 H   0  0  0  0  0  0  0  0  0  0  0  0
    9.2691    3.6050   -2.8935 H   0  0  0  0  0  0  0  0  0  0  0  0
   10.4054    3.5080   -5.0823 H   0  0  0  0  0  0  0  0  0  0  0  0
   10.0322    5.3545   -6.7223 H   0  0  0  0  0  0  0  0  0  0  0  0
    7.4535    7.2967   -4.1942 H   0  0  0  0  0  0  0  0  0  0  0  0
    7.2822    3.4196   -1.6974 H   0  0  0  0  0  0  0  0  0  0  0  0
  1  2  1  0  0  0  0
  1 28  1  0  0  0  0
  1 29  1  0  0  0  0
  1 30  1  0  0  0  0
  2  3  1  0  0  0  0
  3  4  1  0  0  0  0
  3 31  1  0  0  0  0
  3 32  1  0  0  0  0
  4  5  1  0  0  0  0
  4 27  2  0  0  0  0
  5  6  2  0  0  0  0
  5 33  1  0  0  0  0
  6  7  1  0  0  0  0
  6 34  1  0  0  0  0
  7  8  2  0  0  0  0
  7 35  1  0  0  0  0
  8  9  1  0  0  0  0
  8 27  1  0  0  0  0
  9 10  1  0  0  0  0
  9 36  1  0  0  0  0
 10 11  1  0  0  0  0
 10 26  2  0  0  0  0
 11 12  2  0  0  0  0
 11 25  1  0  0  0  0
 12 13  1  0  0  0  0
 13 14  1  0  0  0  0
 13 37  1  0  0  0  0
 14 15  1  0  0  0  0
 14 25  2  0  0  0  0
 15 16  2  0  0  0  0
 16 17  1  0  0  0  0
 16 38  1  0  0  0  0
 17 18  1  0  0  0  0
 17 24  2  0  0  0  0
 18 19  1  0  0  0  0
 18 23  2  0  0  0  0
 19 20  2  0  0  0  0
 19 39  1  0  0  0  0
 20 21  1  0  0  0  0
 20 40  1  0  0  0  0
 21 22  2  0  0  0  0
 21 41  1  0  0  0  0
 22 23  1  0  0  0  0
 23 42  1  0  0  0  0
 24 25  1  0  0  0  0
 24 43  1  0  0  0  0
 26 27  1  0  0  0  0
M  END
$$$$
