CHEMBL3956492
 OpenBabel04072215373D

 67 71  0  0  0  0  0  0  0  0999 V2000
    3.6853    0.2515    4.7092 C   0  0  0  0  0  0  0  0  0  0  0  0
    3.6726    0.5717    3.3228 O   0  0  0  0  0  0  0  0  0  0  0  0
    3.8741   -0.4499    2.4300 C   0  0  0  0  0  0  0  0  0  0  0  0
    3.5815   -1.7889    2.7357 C   0  0  0  0  0  0  0  0  0  0  0  0
    3.7110   -2.8160    1.7866 C   0  0  0  0  0  0  0  0  0  0  0  0
    3.4344   -4.2180    2.1382 C   0  0  0  0  0  0  0  0  0  0  0  0
    2.8995   -5.1970    1.3889 C   0  0  0  0  0  0  0  0  0  0  0  0
    2.3200   -5.2492    0.0931 C   0  0  0  0  0  0  0  0  0  0  0  0
    0.9590   -5.0753   -0.0645 C   0  0  0  0  0  0  0  0  0  0  0  0
    0.5634   -6.0780   -0.9158 N   0  0  0  0  0  0  0  0  0  0  0  0
   -0.7454   -6.7099   -0.9371 C   0  0  0  0  0  0  0  0  0  0  0  0
   -1.9757   -5.8478   -0.6215 C   0  0  0  0  0  0  0  0  0  0  0  0
   -3.2276   -6.6410   -0.6115 N   0  0  0  0  0  0  0  0  0  0  0  0
   -4.3724   -5.7866   -0.2584 C   0  0  0  0  0  0  0  0  0  0  0  0
   -5.6639   -6.5990   -0.1636 C   0  0  0  0  0  0  0  0  0  0  0  0
   -5.9415   -7.3556   -1.4578 C   0  0  0  0  0  0  0  0  0  0  0  0
   -4.7322   -8.1909   -1.8427 C   0  0  0  0  0  0  0  0  0  0  0  0
   -3.4636   -7.3428   -1.8837 C   0  0  0  0  0  0  0  0  0  0  0  0
    1.6680   -6.6596   -1.5197 C   0  0  0  0  0  0  0  0  0  0  0  0
    1.7672   -7.7722   -2.3734 C   0  0  0  0  0  0  0  0  0  0  0  0
    3.0346   -8.1696   -2.7992 C   0  0  0  0  0  0  0  0  0  0  0  0
    4.1667   -7.4688   -2.4005 C   0  0  0  0  0  0  0  0  0  0  0  0
    4.0683   -6.4135   -1.4843 C   0  0  0  0  0  0  0  0  0  0  0  0
    2.7988   -6.0194   -1.0080 C   0  0  0  0  0  0  0  0  0  0  0  0
    2.7417   -6.4029    2.2593 C   0  0  0  0  0  0  0  0  0  0  0  0
    2.1701   -7.4431    1.9761 O   0  0  0  0  0  0  0  0  0  0  0  0
    3.2745   -6.1079    3.4471 N   0  0  0  0  0  0  0  0  0  0  0  0
    3.6042   -4.8081    3.4968 C   0  0  0  0  0  0  0  0  0  0  0  0
    3.9223   -4.2069    4.5108 O   0  0  0  0  0  0  0  0  0  0  0  0
    4.1351   -2.4708    0.5002 C   0  0  0  0  0  0  0  0  0  0  0  0
    4.3992   -1.1380    0.1601 C   0  0  0  0  0  0  0  0  0  0  0  0
    4.8124   -0.7700   -1.1000 O   0  0  0  0  0  0  0  0  0  0  0  0
    4.2715   -1.5454   -2.1658 C   0  0  0  0  0  0  0  0  0  0  0  0
    4.3044   -0.1226    1.1322 C   0  0  0  0  0  0  0  0  0  0  0  0
    4.5868    1.1474    0.6831 O   0  0  0  0  0  0  0  0  0  0  0  0
    5.2030    2.0332    1.6099 C   0  0  0  0  0  0  0  0  0  0  0  0
    3.5962    1.1903    5.2648 H   0  0  0  0  0  0  0  0  0  0  0  0
    4.6312   -0.2206    4.9964 H   0  0  0  0  0  0  0  0  0  0  0  0
    2.8282   -0.3684    4.9888 H   0  0  0  0  0  0  0  0  0  0  0  0
    3.2179   -2.0433    3.7276 H   0  0  0  0  0  0  0  0  0  0  0  0
    0.2402   -4.5706    0.5664 H   0  0  0  0  0  0  0  0  0  0  0  0
   -0.6826   -7.5447   -0.2258 H   0  0  0  0  0  0  0  0  0  0  0  0
   -0.8478   -7.1144   -1.9467 H   0  0  0  0  0  0  0  0  0  0  0  0
   -2.0416   -5.0182   -1.3369 H   0  0  0  0  0  0  0  0  0  0  0  0
   -1.8508   -5.4040    0.3738 H   0  0  0  0  0  0  0  0  0  0  0  0
   -4.4981   -4.9828   -0.9949 H   0  0  0  0  0  0  0  0  0  0  0  0
   -4.1982   -5.3109    0.7143 H   0  0  0  0  0  0  0  0  0  0  0  0
   -6.5052   -5.9333    0.0593 H   0  0  0  0  0  0  0  0  0  0  0  0
   -5.5896   -7.3119    0.6671 H   0  0  0  0  0  0  0  0  0  0  0  0
   -6.1652   -6.6439   -2.2614 H   0  0  0  0  0  0  0  0  0  0  0  0
   -6.8188   -8.0001   -1.3402 H   0  0  0  0  0  0  0  0  0  0  0  0
   -4.8931   -8.6554   -2.8216 H   0  0  0  0  0  0  0  0  0  0  0  0
   -4.6024   -9.0072   -1.1203 H   0  0  0  0  0  0  0  0  0  0  0  0
   -3.5108   -6.6294   -2.7150 H   0  0  0  0  0  0  0  0  0  0  0  0
   -2.6499   -8.0437   -2.0939 H   0  0  0  0  0  0  0  0  0  0  0  0
    0.8945   -8.3501   -2.6594 H   0  0  0  0  0  0  0  0  0  0  0  0
    3.1321   -9.0479   -3.4330 H   0  0  0  0  0  0  0  0  0  0  0  0
    5.1431   -7.7797   -2.7658 H   0  0  0  0  0  0  0  0  0  0  0  0
    4.9693   -5.9207   -1.1338 H   0  0  0  0  0  0  0  0  0  0  0  0
    3.1795   -6.7067    4.2537 H   0  0  0  0  0  0  0  0  0  0  0  0
    4.2784   -3.2493   -0.2411 H   0  0  0  0  0  0  0  0  0  0  0  0
    4.4029   -0.9814   -3.0934 H   0  0  0  0  0  0  0  0  0  0  0  0
    3.1985   -1.7265   -2.0336 H   0  0  0  0  0  0  0  0  0  0  0  0
    4.8164   -2.4891   -2.2709 H   0  0  0  0  0  0  0  0  0  0  0  0
    5.7361    2.7976    1.0351 H   0  0  0  0  0  0  0  0  0  0  0  0
    5.9382    1.5302    2.2480 H   0  0  0  0  0  0  0  0  0  0  0  0
    4.4467    2.5539    2.2048 H   0  0  0  0  0  0  0  0  0  0  0  0
  1  2  1  0  0  0  0
  1 37  1  0  0  0  0
  1 38  1  0  0  0  0
  1 39  1  0  0  0  0
  2  3  1  0  0  0  0
  3  4  1  0  0  0  0
  3 34  2  0  0  0  0
  4  5  2  0  0  0  0
  4 40  1  0  0  0  0
  5  6  1  0  0  0  0
  5 30  1  0  0  0  0
  6  7  2  0  0  0  0
  6 28  1  0  0  0  0
  7  8  1  0  0  0  0
  7 25  1  0  0  0  0
  8  9  2  0  0  0  0
  8 24  1  0  0  0  0
  9 10  1  0  0  0  0
  9 41  1  0  0  0  0
 10 11  1  0  0  0  0
 10 19  1  0  0  0  0
 11 12  1  0  0  0  0
 11 42  1  0  0  0  0
 11 43  1  0  0  0  0
 12 13  1  0  0  0  0
 12 44  1  0  0  0  0
 12 45  1  0  0  0  0
 13 14  1  0  0  0  0
 13 18  1  0  0  0  0
 14 15  1  0  0  0  0
 14 46  1  0  0  0  0
 14 47  1  0  0  0  0
 15 16  1  0  0  0  0
 15 48  1  0  0  0  0
 15 49  1  0  0  0  0
 16 17  1  0  0  0  0
 16 50  1  0  0  0  0
 16 51  1  0  0  0  0
 17 18  1  0  0  0  0
 17 52  1  0  0  0  0
 17 53  1  0  0  0  0
 18 54  1  0  0  0  0
 18 55  1  0  0  0  0
 19 20  1  0  0  0  0
 19 24  2  0  0  0  0
 20 21  2  0  0  0  0
 20 56  1  0  0  0  0
 21 22  1  0  0  0  0
 21 57  1  0  0  0  0
 22 23  2  0  0  0  0
 22 58  1  0  0  0  0
 23 24  1  0  0  0  0
 23 59  1  0  0  0  0
 25 26  2  0  0  0  0
 25 27  1  0  0  0  0
 27 28  1  0  0  0  0
 27 60  1  0  0  0  0
 28 29  2  0  0  0  0
 30 31  2  0  0  0  0
 30 61  1  0  0  0  0
 31 32  1  0  0  0  0
 31 34  1  0  0  0  0
 32 33  1  0  0  0  0
 33 62  1  0  0  0  0
 33 63  1  0  0  0  0
 33 64  1  0  0  0  0
 34 35  1  0  0  0  0
 35 36  1  0  0  0  0
 36 65  1  0  0  0  0
 36 66  1  0  0  0  0
 36 67  1  0  0  0  0
M  END
$$$$
