CHEMBL2016918
 OpenBabel04072215363D

 54 58  0  0  0  0  0  0  0  0999 V2000
    1.2532   -0.1671    0.7063 O   0  0  0  0  0  0  0  0  0  0  0  0
    2.3756   -0.0886    0.1965 C   0  0  0  0  0  0  0  0  0  0  0  0
    3.0118   -1.3295   -0.4432 C   0  0  0  0  0  0  0  0  0  0  0  0
    4.2795   -1.6760    0.2303 N   0  0  0  0  0  0  0  0  0  0  0  0
    4.0823   -1.9512    1.6637 C   0  0  0  0  0  0  0  0  0  0  0  0
    5.4355   -2.1524    2.3433 C   0  0  0  0  0  0  0  0  0  0  0  0
    6.2040   -3.2954    1.6924 C   0  0  0  0  0  0  0  0  0  0  0  0
    6.2989   -3.0873    0.1841 C   0  0  0  0  0  0  0  0  0  0  0  0
    4.9291   -2.8092   -0.4369 C   0  0  0  0  0  0  0  0  0  0  0  0
    3.1220    1.0972    0.2143 N   0  0  0  0  0  0  0  0  0  0  0  0
    2.4758    2.2176    0.9256 C   0  0  0  0  0  0  0  0  0  0  0  0
    3.2908    3.4907    1.1913 C   0  0  0  0  0  0  0  0  0  0  0  0
    4.4194    3.6088    0.2636 C   0  0  0  0  0  0  0  0  0  0  0  0
    5.2658    4.6713    0.2117 N   0  0  0  0  0  0  0  0  0  0  0  0
    6.1287    4.3852   -0.7534 C   0  0  0  0  0  0  0  0  0  0  0  0
    7.1950    5.1804   -1.2504 C   0  0  0  0  0  0  0  0  0  0  0  0
    7.4705    6.3355   -0.6153 C   0  0  0  0  0  0  0  0  0  0  0  0
    8.4305    7.2859   -1.1617 C   0  0  0  0  0  0  0  0  0  0  0  0
    8.6863    8.5101   -0.5440 C   0  0  0  0  0  0  0  0  0  0  0  0
    8.1158    8.8113    0.6331 F   0  0  0  0  0  0  0  0  0  0  0  0
    9.5158    9.4505   -1.1458 C   0  0  0  0  0  0  0  0  0  0  0  0
   10.1153    9.1594   -2.3713 C   0  0  0  0  0  0  0  0  0  0  0  0
    9.9002    7.9183   -2.9807 C   0  0  0  0  0  0  0  0  0  0  0  0
    9.0584    6.9902   -2.3742 C   0  0  0  0  0  0  0  0  0  0  0  0
    8.8239    5.7518   -2.9900 N   0  0  0  0  0  0  0  0  0  0  0  0
    7.9593    4.8121   -2.4870 C   0  0  0  0  0  0  0  0  0  0  0  0
    7.8080    3.7276   -3.0493 O   0  0  0  0  0  0  0  0  0  0  0  0
    5.8386    3.1645   -1.3137 N   0  0  0  0  0  0  0  0  0  0  0  0
    4.7689    2.6426   -0.6393 C   0  0  0  0  0  0  0  0  0  0  0  0
    4.1245    1.3410   -0.8403 C   0  0  0  0  0  0  0  0  0  0  0  0
    3.1768   -1.1115   -1.5049 H   0  0  0  0  0  0  0  0  0  0  0  0
    2.2922   -2.1560   -0.3889 H   0  0  0  0  0  0  0  0  0  0  0  0
    3.4472   -2.8344    1.8111 H   0  0  0  0  0  0  0  0  0  0  0  0
    3.5907   -1.1114    2.1669 H   0  0  0  0  0  0  0  0  0  0  0  0
    5.2903   -2.3575    3.4097 H   0  0  0  0  0  0  0  0  0  0  0  0
    6.0216   -1.2264    2.2734 H   0  0  0  0  0  0  0  0  0  0  0  0
    5.6896   -4.2414    1.8995 H   0  0  0  0  0  0  0  0  0  0  0  0
    7.2064   -3.3687    2.1267 H   0  0  0  0  0  0  0  0  0  0  0  0
    6.7435   -3.9732   -0.2834 H   0  0  0  0  0  0  0  0  0  0  0  0
    6.9705   -2.2444   -0.0240 H   0  0  0  0  0  0  0  0  0  0  0  0
    4.3024   -3.7087   -0.3824 H   0  0  0  0  0  0  0  0  0  0  0  0
    5.0777   -2.5787   -1.4989 H   0  0  0  0  0  0  0  0  0  0  0  0
    2.1388    1.8353    1.8992 H   0  0  0  0  0  0  0  0  0  0  0  0
    1.5691    2.4718    0.3653 H   0  0  0  0  0  0  0  0  0  0  0  0
    3.6655    3.4949    2.2200 H   0  0  0  0  0  0  0  0  0  0  0  0
    2.6343    4.3606    1.0842 H   0  0  0  0  0  0  0  0  0  0  0  0
    6.9263    6.6295    0.2790 H   0  0  0  0  0  0  0  0  0  0  0  0
    9.6731   10.4095   -0.6609 H   0  0  0  0  0  0  0  0  0  0  0  0
   10.7454    9.9019   -2.8546 H   0  0  0  0  0  0  0  0  0  0  0  0
   10.3768    7.7034   -3.9326 H   0  0  0  0  0  0  0  0  0  0  0  0
    9.3005    5.5070   -3.8443 H   0  0  0  0  0  0  0  0  0  0  0  0
    6.3379    2.7551   -2.1003 H   0  0  0  0  0  0  0  0  0  0  0  0
    4.8800    0.5499   -0.8230 H   0  0  0  0  0  0  0  0  0  0  0  0
    3.6134    1.3025   -1.8089 H   0  0  0  0  0  0  0  0  0  0  0  0
  1  2  2  0  0  0  0
  2  3  1  0  0  0  0
  2 10  1  0  0  0  0
  3  4  1  0  0  0  0
  3 31  1  0  0  0  0
  3 32  1  0  0  0  0
  4  5  1  0  0  0  0
  4  9  1  0  0  0  0
  5  6  1  0  0  0  0
  5 33  1  0  0  0  0
  5 34  1  0  0  0  0
  6  7  1  0  0  0  0
  6 35  1  0  0  0  0
  6 36  1  0  0  0  0
  7  8  1  0  0  0  0
  7 37  1  0  0  0  0
  7 38  1  0  0  0  0
  8  9  1  0  0  0  0
  8 39  1  0  0  0  0
  8 40  1  0  0  0  0
  9 41  1  0  0  0  0
  9 42  1  0  0  0  0
 10 11  1  0  0  0  0
 10 30  1  0  0  0  0
 11 12  1  0  0  0  0
 11 43  1  0  0  0  0
 11 44  1  0  0  0  0
 12 13  1  0  0  0  0
 12 45  1  0  0  0  0
 12 46  1  0  0  0  0
 13 14  1  0  0  0  0
 13 29  2  0  0  0  0
 14 15  2  0  0  0  0
 15 16  1  0  0  0  0
 15 28  1  0  0  0  0
 16 17  2  0  0  0  0
 16 26  1  0  0  0  0
 17 18  1  0  0  0  0
 17 47  1  0  0  0  0
 18 19  1  0  0  0  0
 18 24  2  0  0  0  0
 19 20  1  0  0  0  0
 19 21  2  0  0  0  0
 21 22  1  0  0  0  0
 21 48  1  0  0  0  0
 22 23  2  0  0  0  0
 22 49  1  0  0  0  0
 23 24  1  0  0  0  0
 23 50  1  0  0  0  0
 24 25  1  0  0  0  0
 25 26  1  0  0  0  0
 25 51  1  0  0  0  0
 26 27  2  0  0  0  0
 28 29  1  0  0  0  0
 28 52  1  0  0  0  0
 29 30  1  0  0  0  0
 30 53  1  0  0  0  0
 30 54  1  0  0  0  0
M  END
$$$$
