CHEMBL3986404
 OpenBabel04072215373D

 53 57  0  0  1  0  0  0  0  0999 V2000
    3.0313   -1.0520    0.4019 C   0  0  0  0  0  0  0  0  0  0  0  0
    2.4880    0.2535    0.2016 O   0  0  0  0  0  0  0  0  0  0  0  0
    3.0960    1.0486   -0.7341 C   0  0  0  0  0  0  0  0  0  0  0  0
    4.1092    0.5924   -1.5796 C   0  0  0  0  0  0  0  0  0  0  0  0
    4.6460    1.3980   -2.6010 C   0  0  0  0  0  0  0  0  0  0  0  0
    5.6455    0.9656   -3.4908 C   0  0  0  0  0  0  0  0  0  0  0  0
    6.0451   -0.3897   -3.4528 N   0  0  0  0  0  0  0  0  0  0  0  0
    7.3178   -0.9535   -3.6665 C   0  0  0  0  0  0  0  0  0  0  0  0
    8.4938   -0.2392   -3.4474 C   0  0  0  0  0  0  0  0  0  0  0  0
    9.7364   -0.8820   -3.4669 C   0  0  0  0  0  0  0  0  0  0  0  0
    9.8192   -2.2548   -3.7241 C   0  0  0  0  0  0  0  0  0  0  0  0
   11.3820   -2.9894   -3.6384 Cl  0  0  0  0  0  0  0  0  0  0  0  0
    8.6604   -2.9858   -3.9972 C   0  0  0  0  0  0  0  0  0  0  0  0
    8.7016   -4.6728   -4.3661 Cl  0  0  0  0  0  0  0  0  0  0  0  0
    7.4257   -2.3296   -3.9581 C   0  0  0  0  0  0  0  0  0  0  0  0
    6.2928   -3.0247   -4.1711 F   0  0  0  0  0  0  0  0  0  0  0  0
    6.1874    1.7844   -4.4051 N   0  0  0  0  0  0  0  0  0  0  0  0
    5.6738    3.0183   -4.4660 C   0  0  0  0  0  0  0  0  0  0  0  0
    4.7001    3.5197   -3.6895 N   0  0  0  0  0  0  0  0  0  0  0  0
    4.1967    2.7107   -2.7522 C   0  0  0  0  0  0  0  0  0  0  0  0
    3.2044    3.1759   -1.8864 C   0  0  0  0  0  0  0  0  0  0  0  0
    2.6592    2.3800   -0.8660 C   0  0  0  0  0  0  0  0  0  0  0  0
    1.7034    2.8345    0.0173 O   0  0  0  0  0  0  0  0  0  0  0  0
    1.6731    4.2461    0.2847 C   0  0  2  0  0  0  0  0  0  0  0  0
    0.9691    4.5030    1.6126 C   0  0  0  0  0  0  0  0  0  0  0  0
    0.3987    5.8864    1.4461 C   0  0  1  0  0  0  0  0  0  0  0  0
    1.2888    6.9101    1.9163 O   0  0  0  0  0  0  0  0  0  0  0  0
    1.0767    8.0235    1.0335 C   0  0  0  0  0  0  0  0  0  0  0  0
    0.9670    7.3989   -0.3478 C   0  0  2  0  0  0  0  0  0  0  0  0
    0.2514    8.2619   -1.2298 O   0  0  0  0  0  0  0  0  0  0  0  0
    0.1865    7.7484   -2.5565 C   0  0  0  0  0  0  0  0  0  0  0  0
    0.2562    6.0759   -0.0534 C   0  0  1  0  0  0  0  0  0  0  0  0
    0.9239    4.9777   -0.7035 O   0  0  0  0  0  0  0  0  0  0  0  0
    2.3291   -1.6365    1.0011 H   0  0  0  0  0  0  0  0  0  0  0  0
    3.9721   -0.9775    0.9569 H   0  0  0  0  0  0  0  0  0  0  0  0
    3.1760   -1.6111   -0.5324 H   0  0  0  0  0  0  0  0  0  0  0  0
    4.5316   -0.3997   -1.4539 H   0  0  0  0  0  0  0  0  0  0  0  0
    5.2807   -1.0045   -3.7246 H   0  0  0  0  0  0  0  0  0  0  0  0
    8.4537    0.8213   -3.2124 H   0  0  0  0  0  0  0  0  0  0  0  0
   10.6341   -0.3069   -3.2498 H   0  0  0  0  0  0  0  0  0  0  0  0
    6.0833    3.6811   -5.2215 H   0  0  0  0  0  0  0  0  0  0  0  0
    2.8516    4.1913   -2.0446 H   0  0  0  0  0  0  0  0  0  0  0  0
    2.6902    4.6568    0.3377 H   0  0  0  0  0  0  0  0  0  0  0  0
    1.6562    4.4103    2.4595 H   0  0  0  0  0  0  0  0  0  0  0  0
    0.1576    3.7800    1.7555 H   0  0  0  0  0  0  0  0  0  0  0  0
   -0.5524    6.0152    1.9744 H   0  0  0  0  0  0  0  0  0  0  0  0
    1.9101    8.7284    1.1112 H   0  0  0  0  0  0  0  0  0  0  0  0
    0.1605    8.5539    1.3240 H   0  0  0  0  0  0  0  0  0  0  0  0
    1.9756    7.2272   -0.7456 H   0  0  0  0  0  0  0  0  0  0  0  0
   -0.2499    8.5172   -3.1999 H   0  0  0  0  0  0  0  0  0  0  0  0
   -0.4568    6.8651   -2.5952 H   0  0  0  0  0  0  0  0  0  0  0  0
    1.1856    7.5057   -2.9307 H   0  0  0  0  0  0  0  0  0  0  0  0
   -0.7911    6.0678   -0.3707 H   0  0  0  0  0  0  0  0  0  0  0  0
  1  2  1  0  0  0  0
  1 34  1  0  0  0  0
  1 35  1  0  0  0  0
  1 36  1  0  0  0  0
  2  3  1  0  0  0  0
  3  4  1  0  0  0  0
  3 22  2  0  0  0  0
  4  5  2  0  0  0  0
  4 37  1  0  0  0  0
  5  6  1  0  0  0  0
  5 20  1  0  0  0  0
  6  7  1  0  0  0  0
  6 17  2  0  0  0  0
  7  8  1  0  0  0  0
  7 38  1  0  0  0  0
  8  9  1  0  0  0  0
  8 15  2  0  0  0  0
  9 10  2  0  0  0  0
  9 39  1  0  0  0  0
 10 11  1  0  0  0  0
 10 40  1  0  0  0  0
 11 12  1  0  0  0  0
 11 13  2  0  0  0  0
 13 14  1  0  0  0  0
 13 15  1  0  0  0  0
 15 16  1  0  0  0  0
 17 18  1  0  0  0  0
 18 19  2  0  0  0  0
 18 41  1  0  0  0  0
 19 20  1  0  0  0  0
 20 21  2  0  0  0  0
 21 22  1  0  0  0  0
 21 42  1  0  0  0  0
 22 23  1  0  0  0  0
 23 24  1  0  0  0  0
 24 25  1  0  0  0  0
 24 33  1  0  0  0  0
 24 43  1  1  0  0  0
 25 26  1  0  0  0  0
 25 44  1  0  0  0  0
 25 45  1  0  0  0  0
 26 27  1  0  0  0  0
 26 32  1  0  0  0  0
 26 46  1  1  0  0  0
 27 28  1  0  0  0  0
 28 29  1  0  0  0  0
 28 47  1  0  0  0  0
 28 48  1  0  0  0  0
 29 30  1  0  0  0  0
 29 32  1  0  0  0  0
 29 49  1  6  0  0  0
 30 31  1  0  0  0  0
 31 50  1  0  0  0  0
 31 51  1  0  0  0  0
 31 52  1  0  0  0  0
 32 33  1  0  0  0  0
 32 53  1  6  0  0  0
M  END
$$$$
