CHEMBL3910064
 OpenBabel04072215373D

 60 64  0  0  1  0  0  0  0  0999 V2000
    5.1043    5.0805   -3.7131 C   0  0  0  0  0  0  0  0  0  0  0  0
    4.3650    4.0303   -2.8920 C   0  0  0  0  0  0  0  0  0  0  0  0
    4.1346    2.7704   -3.6086 N   0  0  0  0  0  0  0  0  0  0  0  0
    3.2654    2.8761   -4.7860 C   0  0  0  0  0  0  0  0  0  0  0  0
    1.8577    2.7492   -4.2453 C   0  0  0  0  0  0  0  0  0  0  0  0
    2.0045    1.6828   -3.1752 C   0  0  0  0  0  0  0  0  0  0  0  0
    3.4715    1.7765   -2.7155 C   0  0  1  0  0  0  0  0  0  0  0  0
    4.1908    0.4457   -2.7937 C   0  0  0  0  0  0  0  0  0  0  0  0
    3.9307   -0.4990   -3.6728 N   0  0  0  0  0  0  0  0  0  0  0  0
    4.8280   -1.5538   -3.5253 C   0  0  0  0  0  0  0  0  0  0  0  0
    4.6886   -2.6841   -4.4798 C   0  0  0  0  0  0  0  0  0  0  0  0
    5.7152   -3.6937   -4.3759 O   0  0  0  0  0  0  0  0  0  0  0  0
    5.7403   -4.5577   -5.4491 C   0  0  0  0  0  0  0  0  0  0  0  0
    4.6093   -4.7256   -6.2833 C   0  0  0  0  0  0  0  0  0  0  0  0
    4.6084   -5.4976   -7.4289 C   0  0  0  0  0  0  0  0  0  0  0  0
    3.4988   -5.5518   -8.1716 N   0  0  0  0  0  0  0  0  0  0  0  0
    3.5579   -6.3171   -9.2680 C   0  0  0  0  0  0  0  0  0  0  0  0
    4.6058   -7.0357   -9.6645 N   0  0  0  0  0  0  0  0  0  0  0  0
    5.7156   -6.9699   -8.9049 C   0  0  0  0  0  0  0  0  0  0  0  0
    6.8641   -7.7247   -9.2600 N   0  0  0  0  0  0  0  0  0  0  0  0
    7.0681   -8.4686  -10.4465 C   0  0  0  0  0  0  0  0  0  0  0  0
    6.4478   -8.1303  -11.6554 C   0  0  0  0  0  0  0  0  0  0  0  0
    6.6340   -8.9003  -12.7997 C   0  0  0  0  0  0  0  0  0  0  0  0
    7.4957   -9.9964  -12.7741 C   0  0  0  0  0  0  0  0  0  0  0  0
    7.6489  -10.9311  -14.2132 Cl  0  0  0  0  0  0  0  0  0  0  0  0
    8.1955  -10.2937  -11.5980 C   0  0  0  0  0  0  0  0  0  0  0  0
    9.3201  -11.6032  -11.5026 Cl  0  0  0  0  0  0  0  0  0  0  0  0
    7.9928   -9.5214  -10.4479 C   0  0  0  0  0  0  0  0  0  0  0  0
    5.7795   -6.1728   -7.7566 C   0  0  0  0  0  0  0  0  0  0  0  0
    6.9138   -6.0245   -6.9359 C   0  0  0  0  0  0  0  0  0  0  0  0
    6.9056   -5.2577   -5.7707 C   0  0  0  0  0  0  0  0  0  0  0  0
    8.1261   -5.3167   -5.1712 O   0  0  0  0  0  0  0  0  0  0  0  0
    8.3522   -4.9146   -3.8362 C   0  0  0  0  0  0  0  0  0  0  0  0
    5.7369   -1.4010   -2.5028 C   0  0  0  0  0  0  0  0  0  0  0  0
    5.4897    0.0986   -1.7139 S   0  0  0  0  0  0  0  0  0  0  0  0
    5.3710    5.9273   -3.0715 H   0  0  0  0  0  0  0  0  0  0  0  0
    4.4887    5.4722   -4.5276 H   0  0  0  0  0  0  0  0  0  0  0  0
    6.0302    4.6776   -4.1362 H   0  0  0  0  0  0  0  0  0  0  0  0
    3.4313    4.4570   -2.5083 H   0  0  0  0  0  0  0  0  0  0  0  0
    4.9983    3.8130   -2.0220 H   0  0  0  0  0  0  0  0  0  0  0  0
    3.4776    2.0312   -5.4545 H   0  0  0  0  0  0  0  0  0  0  0  0
    3.4057    3.7817   -5.3823 H   0  0  0  0  0  0  0  0  0  0  0  0
    1.1353    2.4643   -5.0162 H   0  0  0  0  0  0  0  0  0  0  0  0
    1.5242    3.6936   -3.7996 H   0  0  0  0  0  0  0  0  0  0  0  0
    1.7482    0.7049   -3.5983 H   0  0  0  0  0  0  0  0  0  0  0  0
    1.3094    1.8724   -2.3499 H   0  0  0  0  0  0  0  0  0  0  0  0
    3.4790    2.1073   -1.6677 H   0  0  0  0  0  0  0  0  0  0  0  0
    4.7065   -2.2434   -5.4873 H   0  0  0  0  0  0  0  0  0  0  0  0
    3.7064   -3.1373   -4.2895 H   0  0  0  0  0  0  0  0  0  0  0  0
    3.6599   -4.2306   -6.0702 H   0  0  0  0  0  0  0  0  0  0  0  0
    2.6709   -6.3480   -9.8917 H   0  0  0  0  0  0  0  0  0  0  0  0
    7.1965   -8.2300   -8.4485 H   0  0  0  0  0  0  0  0  0  0  0  0
    5.7863   -7.2724  -11.7148 H   0  0  0  0  0  0  0  0  0  0  0  0
    6.0950   -8.6352  -13.7101 H   0  0  0  0  0  0  0  0  0  0  0  0
    8.5450   -9.7662   -9.5416 H   0  0  0  0  0  0  0  0  0  0  0  0
    7.8528   -6.5063   -7.2144 H   0  0  0  0  0  0  0  0  0  0  0  0
    9.1042   -5.6029   -3.4274 H   0  0  0  0  0  0  0  0  0  0  0  0
    7.4774   -4.9699   -3.1876 H   0  0  0  0  0  0  0  0  0  0  0  0
    8.7985   -3.9174   -3.8352 H   0  0  0  0  0  0  0  0  0  0  0  0
    6.5189   -2.0795   -2.2012 H   0  0  0  0  0  0  0  0  0  0  0  0
  1  2  1  0  0  0  0
  1 36  1  0  0  0  0
  1 37  1  0  0  0  0
  1 38  1  0  0  0  0
  2  3  1  0  0  0  0
  2 39  1  0  0  0  0
  2 40  1  0  0  0  0
  3  4  1  0  0  0  0
  3  7  1  0  0  0  0
  4  5  1  0  0  0  0
  4 41  1  0  0  0  0
  4 42  1  0  0  0  0
  5  6  1  0  0  0  0
  5 43  1  0  0  0  0
  5 44  1  0  0  0  0
  6  7  1  0  0  0  0
  6 45  1  0  0  0  0
  6 46  1  0  0  0  0
  7  8  1  0  0  0  0
  7 47  1  1  0  0  0
  8  9  2  0  0  0  0
  8 35  1  0  0  0  0
  9 10  1  0  0  0  0
 10 11  1  0  0  0  0
 10 34  2  0  0  0  0
 11 12  1  0  0  0  0
 11 48  1  0  0  0  0
 11 49  1  0  0  0  0
 12 13  1  0  0  0  0
 13 14  1  0  0  0  0
 13 31  2  0  0  0  0
 14 15  2  0  0  0  0
 14 50  1  0  0  0  0
 15 16  1  0  0  0  0
 15 29  1  0  0  0  0
 16 17  2  0  0  0  0
 17 18  1  0  0  0  0
 17 51  1  0  0  0  0
 18 19  2  0  0  0  0
 19 20  1  0  0  0  0
 19 29  1  0  0  0  0
 20 21  1  0  0  0  0
 20 52  1  0  0  0  0
 21 22  1  0  0  0  0
 21 28  2  0  0  0  0
 22 23  2  0  0  0  0
 22 53  1  0  0  0  0
 23 24  1  0  0  0  0
 23 54  1  0  0  0  0
 24 25  1  0  0  0  0
 24 26  2  0  0  0  0
 26 27  1  0  0  0  0
 26 28  1  0  0  0  0
 28 55  1  0  0  0  0
 29 30  2  0  0  0  0
 30 31  1  0  0  0  0
 30 56  1  0  0  0  0
 31 32  1  0  0  0  0
 32 33  1  0  0  0  0
 33 57  1  0  0  0  0
 33 58  1  0  0  0  0
 33 59  1  0  0  0  0
 34 35  1  0  0  0  0
 34 60  1  0  0  0  0
M  END
$$$$
