CHEMBL2337362
 OpenBabel04072215363D

 43 46  0  0  0  0  0  0  0  0999 V2000
    0.8233   -0.5285   -0.6471 C   0  0  0  0  0  0  0  0  0  0  0  0
    2.2711   -0.3751   -0.1756 C   0  0  0  0  0  0  0  0  0  0  0  0
    2.2988    0.2366    1.2299 C   0  0  0  0  0  0  0  0  0  0  0  0
    3.1468   -1.6207   -0.2560 C   0  0  0  0  0  0  0  0  0  0  0  0
    4.5339   -1.4259   -0.3885 C   0  0  0  0  0  0  0  0  0  0  0  0
    5.4272   -2.4906   -0.4730 C   0  0  0  0  0  0  0  0  0  0  0  0
    4.9866   -3.8122   -0.4121 C   0  0  0  0  0  0  0  0  0  0  0  0
    5.8675   -4.9008   -0.4353 N   0  0  0  0  0  0  0  0  0  0  0  0
    7.2223   -5.0809   -0.7920 C   0  0  0  0  0  0  0  0  0  0  0  0
    7.6225   -6.3843   -0.6789 N   0  0  0  0  0  0  0  0  0  0  0  0
    8.1181   -6.9611   -1.7776 C   0  0  0  0  0  0  0  0  0  0  0  0
    8.7599   -8.1750   -1.6553 N   0  0  0  0  0  0  0  0  0  0  0  0
    8.0678   -6.4360   -3.0069 N   0  0  0  0  0  0  0  0  0  0  0  0
    7.9040   -5.0950   -2.9733 C   0  0  0  0  0  0  0  0  0  0  0  0
    8.4264   -4.2364   -3.9111 N   0  0  0  0  0  0  0  0  0  0  0  0
    9.6455   -3.9501   -3.3092 C   0  0  0  0  0  0  0  0  0  0  0  0
   10.9330   -3.9151   -3.8524 C   0  0  0  0  0  0  0  0  0  0  0  0
   11.9889   -3.7472   -2.9596 C   0  0  0  0  0  0  0  0  0  0  0  0
   11.7416   -3.5188   -1.6053 C   0  0  0  0  0  0  0  0  0  0  0  0
   10.4290   -3.5567   -1.0979 C   0  0  0  0  0  0  0  0  0  0  0  0
   10.1024   -3.2826    0.5521 Cl  0  0  0  0  0  0  0  0  0  0  0  0
    9.3307   -3.8615   -1.9344 C   0  0  0  0  0  0  0  0  0  0  0  0
    7.9149   -4.3391   -1.7867 C   0  0  0  0  0  0  0  0  0  0  0  0
    3.5955   -4.0164   -0.2968 C   0  0  0  0  0  0  0  0  0  0  0  0
    2.6834   -2.9394   -0.2180 C   0  0  0  0  0  0  0  0  0  0  0  0
    0.3314    0.4528   -0.6647 H   0  0  0  0  0  0  0  0  0  0  0  0
    0.2365   -1.1755    0.0135 H   0  0  0  0  0  0  0  0  0  0  0  0
    0.7771   -0.9350   -1.6622 H   0  0  0  0  0  0  0  0  0  0  0  0
    2.7196    0.3617   -0.8579 H   0  0  0  0  0  0  0  0  0  0  0  0
    1.8115   -0.4140    1.9646 H   0  0  0  0  0  0  0  0  0  0  0  0
    1.7785    1.2018    1.2394 H   0  0  0  0  0  0  0  0  0  0  0  0
    3.3248    0.4157    1.5725 H   0  0  0  0  0  0  0  0  0  0  0  0
    4.9381   -0.4135   -0.4083 H   0  0  0  0  0  0  0  0  0  0  0  0
    6.4877   -2.2781   -0.5414 H   0  0  0  0  0  0  0  0  0  0  0  0
    5.4585   -5.8057   -0.2308 H   0  0  0  0  0  0  0  0  0  0  0  0
    8.2599   -8.7864   -1.0305 H   0  0  0  0  0  0  0  0  0  0  0  0
    8.9952   -8.5240   -2.5732 H   0  0  0  0  0  0  0  0  0  0  0  0
    7.8774   -3.4525   -4.2268 H   0  0  0  0  0  0  0  0  0  0  0  0
   11.1059   -4.1246   -4.9040 H   0  0  0  0  0  0  0  0  0  0  0  0
   13.0114   -3.8106   -3.3292 H   0  0  0  0  0  0  0  0  0  0  0  0
   12.5879   -3.3602   -0.9382 H   0  0  0  0  0  0  0  0  0  0  0  0
    3.1947   -5.0287   -0.2707 H   0  0  0  0  0  0  0  0  0  0  0  0
    1.6252   -3.1668   -0.1152 H   0  0  0  0  0  0  0  0  0  0  0  0
  1  2  1  0  0  0  0
  1 26  1  0  0  0  0
  1 27  1  0  0  0  0
  1 28  1  0  0  0  0
  2  3  1  0  0  0  0
  2  4  1  0  0  0  0
  2 29  1  0  0  0  0
  3 30  1  0  0  0  0
  3 31  1  0  0  0  0
  3 32  1  0  0  0  0
  4  5  1  0  0  0  0
  4 25  2  0  0  0  0
  5  6  2  0  0  0  0
  5 33  1  0  0  0  0
  6  7  1  0  0  0  0
  6 34  1  0  0  0  0
  7  8  1  0  0  0  0
  7 24  2  0  0  0  0
  8  9  1  0  0  0  0
  8 35  1  0  0  0  0
  9 10  1  0  0  0  0
  9 23  2  0  0  0  0
 10 11  2  0  0  0  0
 11 12  1  0  0  0  0
 11 13  1  0  0  0  0
 12 36  1  0  0  0  0
 12 37  1  0  0  0  0
 13 14  2  0  0  0  0
 14 15  1  0  0  0  0
 14 23  1  0  0  0  0
 15 16  1  0  0  0  0
 15 38  1  0  0  0  0
 16 17  1  0  0  0  0
 16 22  2  0  0  0  0
 17 18  2  0  0  0  0
 17 39  1  0  0  0  0
 18 19  1  0  0  0  0
 18 40  1  0  0  0  0
 19 20  2  0  0  0  0
 19 41  1  0  0  0  0
 20 21  1  0  0  0  0
 20 22  1  0  0  0  0
 22 23  1  0  0  0  0
 24 25  1  0  0  0  0
 24 42  1  0  0  0  0
 25 43  1  0  0  0  0
M  END
$$$$
