CHEMBL204426
 OpenBabel04072215363D

 46 50  0  0  0  0  0  0  0  0999 V2000
    0.9863   -0.3290   -0.2109 N   0  0  0  0  0  0  0  0  0  0  0  0
    2.3786   -0.3434   -0.2282 C   0  0  0  0  0  0  0  0  0  0  0  0
    3.1422   -1.4678   -0.2476 C   0  0  0  0  0  0  0  0  0  0  0  0
    2.5753   -2.7923   -0.2698 C   0  0  0  0  0  0  0  0  0  0  0  0
    1.4265   -3.3054   -0.6999 N   0  0  0  0  0  0  0  0  0  0  0  0
    1.4719   -4.6599   -0.3777 C   0  0  0  0  0  0  0  0  0  0  0  0
    0.5498   -5.7024   -0.5691 C   0  0  0  0  0  0  0  0  0  0  0  0
    0.8004   -6.9915   -0.0265 C   0  0  0  0  0  0  0  0  0  0  0  0
   -0.2017   -7.9592   -0.1225 N   0  0  0  0  0  0  0  0  0  0  0  0
    0.1040   -9.4000   -0.0128 C   0  0  0  0  0  0  0  0  0  0  0  0
   -1.1201  -10.1852   -0.5316 C   0  0  0  0  0  0  0  0  0  0  0  0
   -2.3239   -9.8432    0.1846 O   0  0  0  0  0  0  0  0  0  0  0  0
   -2.5790   -8.4284    0.1037 C   0  0  0  0  0  0  0  0  0  0  0  0
   -1.4047   -7.6242    0.6720 C   0  0  0  0  0  0  0  0  0  0  0  0
    2.0244   -7.2312    0.6102 C   0  0  0  0  0  0  0  0  0  0  0  0
    2.9865   -6.2321    0.7567 C   0  0  0  0  0  0  0  0  0  0  0  0
    2.6539   -4.9718    0.2673 C   0  0  0  0  0  0  0  0  0  0  0  0
    3.3379   -3.7982    0.2851 N   0  0  0  0  0  0  0  0  0  0  0  0
    4.6442   -1.3571   -0.1629 C   0  0  0  0  0  0  0  0  0  0  0  0
    5.3807   -2.3455   -0.1247 O   0  0  0  0  0  0  0  0  0  0  0  0
    5.1961   -0.1254   -0.0791 N   0  0  0  0  0  0  0  0  0  0  0  0
    4.4677    1.0485   -0.0811 C   0  0  0  0  0  0  0  0  0  0  0  0
    5.1782    2.2496   -0.0045 C   0  0  0  0  0  0  0  0  0  0  0  0
    4.4989    3.4545   -0.0250 C   0  0  0  0  0  0  0  0  0  0  0  0
    3.1086    3.4482   -0.1063 C   0  0  0  0  0  0  0  0  0  0  0  0
    2.4000    2.2349   -0.1621 C   0  0  0  0  0  0  0  0  0  0  0  0
    3.0684    0.9988   -0.1631 C   0  0  0  0  0  0  0  0  0  0  0  0
    0.5953   -1.2410   -0.4704 H   0  0  0  0  0  0  0  0  0  0  0  0
    0.5702    0.4125   -0.7648 H   0  0  0  0  0  0  0  0  0  0  0  0
   -0.3661   -5.5104   -1.1162 H   0  0  0  0  0  0  0  0  0  0  0  0
    0.2881   -9.6683    1.0361 H   0  0  0  0  0  0  0  0  0  0  0  0
    0.9851   -9.6717   -0.6048 H   0  0  0  0  0  0  0  0  0  0  0  0
   -0.9601  -11.2606   -0.4068 H   0  0  0  0  0  0  0  0  0  0  0  0
   -1.2792   -9.9901   -1.5991 H   0  0  0  0  0  0  0  0  0  0  0  0
   -3.4874   -8.2162    0.6749 H   0  0  0  0  0  0  0  0  0  0  0  0
   -2.7628   -8.1551   -0.9426 H   0  0  0  0  0  0  0  0  0  0  0  0
   -1.2326   -7.9061    1.7205 H   0  0  0  0  0  0  0  0  0  0  0  0
   -1.6473   -6.5570    0.6466 H   0  0  0  0  0  0  0  0  0  0  0  0
    2.2412   -8.2045    1.0433 H   0  0  0  0  0  0  0  0  0  0  0  0
    3.9257   -6.4178    1.2635 H   0  0  0  0  0  0  0  0  0  0  0  0
    4.2822   -3.6792    0.6286 H   0  0  0  0  0  0  0  0  0  0  0  0
    6.2074   -0.1085    0.0069 H   0  0  0  0  0  0  0  0  0  0  0  0
    6.2637    2.2495    0.0727 H   0  0  0  0  0  0  0  0  0  0  0  0
    5.0479    4.3917    0.0215 H   0  0  0  0  0  0  0  0  0  0  0  0
    2.5700    4.3929   -0.1199 H   0  0  0  0  0  0  0  0  0  0  0  0
    1.3165    2.2911   -0.1962 H   0  0  0  0  0  0  0  0  0  0  0  0
  1  2  1  0  0  0  0
  1 28  1  0  0  0  0
  1 29  1  0  0  0  0
  2  3  2  0  0  0  0
  2 27  1  0  0  0  0
  3  4  1  0  0  0  0
  3 19  1  0  0  0  0
  4  5  2  0  0  0  0
  4 18  1  0  0  0  0
  5  6  1  0  0  0  0
  6  7  1  0  0  0  0
  6 17  2  0  0  0  0
  7  8  2  0  0  0  0
  7 30  1  0  0  0  0
  8  9  1  0  0  0  0
  8 15  1  0  0  0  0
  9 10  1  0  0  0  0
  9 14  1  0  0  0  0
 10 11  1  0  0  0  0
 10 31  1  0  0  0  0
 10 32  1  0  0  0  0
 11 12  1  0  0  0  0
 11 33  1  0  0  0  0
 11 34  1  0  0  0  0
 12 13  1  0  0  0  0
 13 14  1  0  0  0  0
 13 35  1  0  0  0  0
 13 36  1  0  0  0  0
 14 37  1  0  0  0  0
 14 38  1  0  0  0  0
 15 16  2  0  0  0  0
 15 39  1  0  0  0  0
 16 17  1  0  0  0  0
 16 40  1  0  0  0  0
 17 18  1  0  0  0  0
 18 41  1  0  0  0  0
 19 20  2  0  0  0  0
 19 21  1  0  0  0  0
 21 22  1  0  0  0  0
 21 42  1  0  0  0  0
 22 23  1  0  0  0  0
 22 27  2  0  0  0  0
 23 24  2  0  0  0  0
 23 43  1  0  0  0  0
 24 25  1  0  0  0  0
 24 44  1  0  0  0  0
 25 26  2  0  0  0  0
 25 45  1  0  0  0  0
 26 27  1  0  0  0  0
 26 46  1  0  0  0  0
M  END
$$$$
