CHEMBL3656116
 OpenBabel04072215373D

 54 57  0  0  0  0  0  0  0  0999 V2000
    2.3525   -0.4581    1.6480 C   0  0  0  0  0  0  0  0  0  0  0  0
    0.8585   -0.3372    1.5973 C   0  0  0  0  0  0  0  0  0  0  0  0
    0.2507    0.8534    2.0086 C   0  0  0  0  0  0  0  0  0  0  0  0
   -1.1295    0.9783    1.9695 C   0  0  0  0  0  0  0  0  0  0  0  0
   -1.9144   -0.0822    1.5241 C   0  0  0  0  0  0  0  0  0  0  0  0
   -1.3414   -1.2916    1.0945 C   0  0  0  0  0  0  0  0  0  0  0  0
   -2.1160   -2.3900    0.6397 N   0  0  0  0  0  0  0  0  0  0  0  0
   -3.4894   -2.3753    0.4576 C   0  0  0  0  0  0  0  0  0  0  0  0
   -4.2040   -1.3881    0.5952 O   0  0  0  0  0  0  0  0  0  0  0  0
   -4.0095   -3.6266    0.1302 N   0  0  0  0  0  0  0  0  0  0  0  0
   -5.4108   -3.7408   -0.0790 C   0  0  0  0  0  0  0  0  0  0  0  0
   -6.0894   -2.8089   -0.8741 C   0  0  0  0  0  0  0  0  0  0  0  0
   -7.4835   -2.8019   -0.9374 C   0  0  0  0  0  0  0  0  0  0  0  0
   -8.2169   -3.7756   -0.2612 C   0  0  0  0  0  0  0  0  0  0  0  0
   -9.5948   -3.8270   -0.2321 O   0  0  0  0  0  0  0  0  0  0  0  0
  -10.3282   -3.4175   -1.3260 C   0  0  0  0  0  0  0  0  0  0  0  0
   -9.9148   -3.5783   -2.6448 C   0  0  0  0  0  0  0  0  0  0  0  0
  -10.7442   -3.1128   -3.6486 C   0  0  0  0  0  0  0  0  0  0  0  0
  -11.9541   -2.5570   -3.4286 N   0  0  0  0  0  0  0  0  0  0  0  0
  -12.3638   -2.4630   -2.1400 C   0  0  0  0  0  0  0  0  0  0  0  0
  -13.6986   -1.8893   -1.9884 C   0  0  0  0  0  0  0  0  0  0  0  0
  -14.4966   -1.6499   -0.8825 C   0  0  0  0  0  0  0  0  0  0  0  0
  -15.7305   -1.0675   -1.3159 C   0  0  0  0  0  0  0  0  0  0  0  0
  -16.8925   -0.6429   -0.5406 C   0  0  0  0  0  0  0  0  0  0  0  0
  -17.9067   -0.1614   -1.0496 O   0  0  0  0  0  0  0  0  0  0  0  0
  -16.7845   -0.8051    0.8187 N   0  0  0  0  0  0  0  0  0  0  0  0
  -17.8559   -0.3405    1.6136 O   0  0  0  0  0  0  0  0  0  0  0  0
  -15.6356   -0.9742   -2.6941 C   0  0  0  0  0  0  0  0  0  0  0  0
  -14.4225   -1.4692   -3.0845 N   0  0  0  0  0  0  0  0  0  0  0  0
  -11.5871   -2.8784   -1.0658 C   0  0  0  0  0  0  0  0  0  0  0  0
   -7.5407   -4.7247    0.5145 C   0  0  0  0  0  0  0  0  0  0  0  0
   -6.1389   -4.7251    0.5895 C   0  0  0  0  0  0  0  0  0  0  0  0
    0.0559   -1.4040    1.1378 C   0  0  0  0  0  0  0  0  0  0  0  0
    2.8109    0.4539    2.0520 H   0  0  0  0  0  0  0  0  0  0  0  0
    2.7568   -0.6130    0.6431 H   0  0  0  0  0  0  0  0  0  0  0  0
    2.6466   -1.2881    2.2972 H   0  0  0  0  0  0  0  0  0  0  0  0
    0.8459    1.6915    2.3638 H   0  0  0  0  0  0  0  0  0  0  0  0
   -1.6096    1.9000    2.2891 H   0  0  0  0  0  0  0  0  0  0  0  0
   -2.9855    0.0811    1.5318 H   0  0  0  0  0  0  0  0  0  0  0  0
   -1.6147   -3.2017    0.3108 H   0  0  0  0  0  0  0  0  0  0  0  0
   -3.5583   -4.4011    0.5951 H   0  0  0  0  0  0  0  0  0  0  0  0
   -5.5384   -2.0418   -1.4144 H   0  0  0  0  0  0  0  0  0  0  0  0
   -7.9704   -2.0102   -1.4989 H   0  0  0  0  0  0  0  0  0  0  0  0
   -8.9670   -4.0366   -2.9000 H   0  0  0  0  0  0  0  0  0  0  0  0
  -10.4449   -3.1765   -4.6914 H   0  0  0  0  0  0  0  0  0  0  0  0
  -14.2169   -1.8786    0.1360 H   0  0  0  0  0  0  0  0  0  0  0  0
  -15.9444   -1.0906    1.3008 H   0  0  0  0  0  0  0  0  0  0  0  0
  -18.4821    0.0028    0.9387 H   0  0  0  0  0  0  0  0  0  0  0  0
  -16.3402   -0.5970   -3.4247 H   0  0  0  0  0  0  0  0  0  0  0  0
  -14.0736   -1.5342   -4.0342 H   0  0  0  0  0  0  0  0  0  0  0  0
  -11.9410   -2.7893   -0.0457 H   0  0  0  0  0  0  0  0  0  0  0  0
   -8.1094   -5.4477    1.0945 H   0  0  0  0  0  0  0  0  0  0  0  0
   -5.6460   -5.4426    1.2387 H   0  0  0  0  0  0  0  0  0  0  0  0
    0.5394   -2.3232    0.8175 H   0  0  0  0  0  0  0  0  0  0  0  0
  1  2  1  0  0  0  0
  1 34  1  0  0  0  0
  1 35  1  0  0  0  0
  1 36  1  0  0  0  0
  2  3  1  0  0  0  0
  2 33  2  0  0  0  0
  3  4  2  0  0  0  0
  3 37  1  0  0  0  0
  4  5  1  0  0  0  0
  4 38  1  0  0  0  0
  5  6  2  0  0  0  0
  5 39  1  0  0  0  0
  6  7  1  0  0  0  0
  6 33  1  0  0  0  0
  7  8  1  0  0  0  0
  7 40  1  0  0  0  0
  8  9  2  0  0  0  0
  8 10  1  0  0  0  0
 10 11  1  0  0  0  0
 10 41  1  0  0  0  0
 11 12  1  0  0  0  0
 11 32  2  0  0  0  0
 12 13  2  0  0  0  0
 12 42  1  0  0  0  0
 13 14  1  0  0  0  0
 13 43  1  0  0  0  0
 14 15  1  0  0  0  0
 14 31  2  0  0  0  0
 15 16  1  0  0  0  0
 16 17  1  0  0  0  0
 16 30  2  0  0  0  0
 17 18  2  0  0  0  0
 17 44  1  0  0  0  0
 18 19  1  0  0  0  0
 18 45  1  0  0  0  0
 19 20  2  0  0  0  0
 20 21  1  0  0  0  0
 20 30  1  0  0  0  0
 21 22  2  0  0  0  0
 21 29  1  0  0  0  0
 22 23  1  0  0  0  0
 22 46  1  0  0  0  0
 23 24  1  0  0  0  0
 23 28  2  0  0  0  0
 24 25  2  0  0  0  0
 24 26  1  0  0  0  0
 26 27  1  0  0  0  0
 26 47  1  0  0  0  0
 27 48  1  0  0  0  0
 28 29  1  0  0  0  0
 28 49  1  0  0  0  0
 29 50  1  0  0  0  0
 30 51  1  0  0  0  0
 31 32  1  0  0  0  0
 31 52  1  0  0  0  0
 32 53  1  0  0  0  0
 33 54  1  0  0  0  0
M  END
$$$$
