CHEMBL3321895
 OpenBabel04072215363D

 44 48  0  0  0  0  0  0  0  0999 V2000
    2.5213    0.0944    0.0494 C   0  0  0  0  0  0  0  0  0  0  0  0
    1.0220    0.0896    0.0035 C   0  0  0  0  0  0  0  0  0  0  0  0
    0.3397    0.1842   -1.2132 C   0  0  0  0  0  0  0  0  0  0  0  0
   -1.0578    0.1639   -1.2461 C   0  0  0  0  0  0  0  0  0  0  0  0
   -1.7968    0.0481   -0.0621 C   0  0  0  0  0  0  0  0  0  0  0  0
   -3.2579    0.0143   -0.0652 C   0  0  0  0  0  0  0  0  0  0  0  0
   -4.0205   -0.5701    0.8384 N   0  0  0  0  0  0  0  0  0  0  0  0
   -5.3138   -0.3563    0.4398 C   0  0  0  0  0  0  0  0  0  0  0  0
   -6.5074   -0.7717    1.0332 C   0  0  0  0  0  0  0  0  0  0  0  0
   -7.7120   -0.3980    0.4266 C   0  0  0  0  0  0  0  0  0  0  0  0
   -7.7551    0.3517   -0.7643 C   0  0  0  0  0  0  0  0  0  0  0  0
   -8.9940    0.7737   -1.3078 N   0  0  0  0  0  0  0  0  0  0  0  0
  -10.2215    0.0766   -1.1756 C   0  0  0  0  0  0  0  0  0  0  0  0
  -10.1733   -1.2666   -1.0905 N   0  0  0  0  0  0  0  0  0  0  0  0
  -11.3305   -1.9001   -0.8949 C   0  0  0  0  0  0  0  0  0  0  0  0
  -12.5286   -1.3264   -0.7663 N   0  0  0  0  0  0  0  0  0  0  0  0
  -12.5684    0.0054   -0.8657 C   0  0  0  0  0  0  0  0  0  0  0  0
  -13.7919    0.6385   -0.6946 C   0  0  0  0  0  0  0  0  0  0  0  0
  -13.9245    2.0262   -0.7807 C   0  0  0  0  0  0  0  0  0  0  0  0
  -12.8107    2.8090   -1.0540 C   0  0  0  0  0  0  0  0  0  0  0  0
  -11.5671    2.1990   -1.2138 C   0  0  0  0  0  0  0  0  0  0  0  0
  -11.4318    0.7899   -1.1107 C   0  0  0  0  0  0  0  0  0  0  0  0
   -6.5528    0.7929   -1.3429 C   0  0  0  0  0  0  0  0  0  0  0  0
   -5.3604    0.4036   -0.7217 C   0  0  0  0  0  0  0  0  0  0  0  0
   -4.0410    0.6281   -1.0179 N   0  0  0  0  0  0  0  0  0  0  0  0
   -1.1077   -0.0554    1.1537 C   0  0  0  0  0  0  0  0  0  0  0  0
    0.2883   -0.0295    1.1884 C   0  0  0  0  0  0  0  0  0  0  0  0
    2.9518    0.2148   -0.9500 H   0  0  0  0  0  0  0  0  0  0  0  0
    2.8875   -0.8511    0.4622 H   0  0  0  0  0  0  0  0  0  0  0  0
    2.8776    0.9225    0.6704 H   0  0  0  0  0  0  0  0  0  0  0  0
    0.8906    0.2612   -2.1477 H   0  0  0  0  0  0  0  0  0  0  0  0
   -1.5518    0.2091   -2.2127 H   0  0  0  0  0  0  0  0  0  0  0  0
   -6.4965   -1.3610    1.9429 H   0  0  0  0  0  0  0  0  0  0  0  0
   -8.6358   -0.7065    0.9107 H   0  0  0  0  0  0  0  0  0  0  0  0
   -8.9205    1.1707   -2.2370 H   0  0  0  0  0  0  0  0  0  0  0  0
  -11.2890   -2.9814   -0.8257 H   0  0  0  0  0  0  0  0  0  0  0  0
  -14.6676    0.0322   -0.4717 H   0  0  0  0  0  0  0  0  0  0  0  0
  -14.8973    2.4862   -0.6270 H   0  0  0  0  0  0  0  0  0  0  0  0
  -12.9073    3.8896   -1.1245 H   0  0  0  0  0  0  0  0  0  0  0  0
  -10.6963    2.8240   -1.3986 H   0  0  0  0  0  0  0  0  0  0  0  0
   -6.5421    1.4033   -2.2381 H   0  0  0  0  0  0  0  0  0  0  0  0
   -3.6952    1.1692   -1.7946 H   0  0  0  0  0  0  0  0  0  0  0  0
   -1.6645   -0.1572    2.0842 H   0  0  0  0  0  0  0  0  0  0  0  0
    0.7964   -0.1108    2.1466 H   0  0  0  0  0  0  0  0  0  0  0  0
  1  2  1  0  0  0  0
  1 28  1  0  0  0  0
  1 29  1  0  0  0  0
  1 30  1  0  0  0  0
  2  3  1  0  0  0  0
  2 27  2  0  0  0  0
  3  4  2  0  0  0  0
  3 31  1  0  0  0  0
  4  5  1  0  0  0  0
  4 32  1  0  0  0  0
  5  6  1  0  0  0  0
  5 26  2  0  0  0  0
  6  7  2  0  0  0  0
  6 25  1  0  0  0  0
  7  8  1  0  0  0  0
  8  9  1  0  0  0  0
  8 24  2  0  0  0  0
  9 10  2  0  0  0  0
  9 33  1  0  0  0  0
 10 11  1  0  0  0  0
 10 34  1  0  0  0  0
 11 12  1  0  0  0  0
 11 23  2  0  0  0  0
 12 13  1  0  0  0  0
 12 35  1  0  0  0  0
 13 14  1  0  0  0  0
 13 22  2  0  0  0  0
 14 15  2  0  0  0  0
 15 16  1  0  0  0  0
 15 36  1  0  0  0  0
 16 17  2  0  0  0  0
 17 18  1  0  0  0  0
 17 22  1  0  0  0  0
 18 19  2  0  0  0  0
 18 37  1  0  0  0  0
 19 20  1  0  0  0  0
 19 38  1  0  0  0  0
 20 21  2  0  0  0  0
 20 39  1  0  0  0  0
 21 22  1  0  0  0  0
 21 40  1  0  0  0  0
 23 24  1  0  0  0  0
 23 41  1  0  0  0  0
 24 25  1  0  0  0  0
 25 42  1  0  0  0  0
 26 27  1  0  0  0  0
 26 43  1  0  0  0  0
 27 44  1  0  0  0  0
M  END
$$$$
