CHEMBL3787614
 OpenBabel04072215373D

 63 68  0  0  1  0  0  0  0  0999 V2000
    6.0146   -8.7084   -2.0045 N   0  0  0  0  0  0  0  0  0  0  0  0
    6.3662   -7.3648   -2.0337 C   0  0  0  0  0  0  0  0  0  0  0  0
    6.9767   -6.9512   -3.1598 N   0  0  0  0  0  0  0  0  0  0  0  0
    7.3077   -5.6539   -3.2707 C   0  0  0  0  0  0  0  0  0  0  0  0
    7.0963   -4.6694   -2.3883 N   0  0  0  0  0  0  0  0  0  0  0  0
    6.5153   -5.1168   -1.2641 C   0  0  0  0  0  0  0  0  0  0  0  0
    6.1227   -6.4355   -1.0024 C   0  0  0  0  0  0  0  0  0  0  0  0
    5.5296   -6.4416    0.3116 C   0  0  0  0  0  0  0  0  0  0  0  0
    4.9358   -7.5152    1.1005 C   0  0  0  0  0  0  0  0  0  0  0  0
    3.8391   -7.2796    1.9416 C   0  0  0  0  0  0  0  0  0  0  0  0
    3.2356   -8.3302    2.6338 C   0  0  0  0  0  0  0  0  0  0  0  0
    3.6922   -9.6370    2.4600 C   0  0  0  0  0  0  0  0  0  0  0  0
    4.7897   -9.8852    1.6388 C   0  0  0  0  0  0  0  0  0  0  0  0
    5.3168  -11.1095    1.3355 O   0  0  0  0  0  0  0  0  0  0  0  0
    4.6329  -12.2460    1.8527 C   0  0  0  0  0  0  0  0  0  0  0  0
    5.2912  -13.5192    1.3253 C   0  0  2  0  0  0  0  0  0  0  0  0
    5.1817  -13.6923   -0.1854 C   0  0  0  0  0  0  0  0  0  0  0  0
    5.1264  -15.1932   -0.3305 C   0  0  0  0  0  0  0  0  0  0  0  0
    4.3298  -15.5993    0.8883 C   0  0  0  0  0  0  0  0  0  0  0  0
    4.6606  -14.6676    1.9245 O   0  0  0  0  0  0  0  0  0  0  0  0
    5.4381   -8.8158    1.0184 C   0  0  0  0  0  0  0  0  0  0  0  0
    5.5435   -5.1332    0.7593 C   0  0  0  0  0  0  0  0  0  0  0  0
    6.2068   -4.3629   -0.1524 N   0  0  0  0  0  0  0  0  0  0  0  0
    6.3492   -2.9242   -0.0309 C   0  0  1  0  0  0  0  0  0  0  0  0
    6.4915   -2.3859    1.4142 C   0  0  0  0  0  0  0  0  0  0  0  0
    8.0295   -2.3210    1.1989 C   0  0  1  0  0  0  0  0  0  0  0  0
    8.8399   -3.5031    1.7504 C   0  0  0  0  0  0  0  0  0  0  0  0
   10.2715   -3.3234    1.4765 N   0  0  0  0  0  0  0  0  0  0  0  0
   11.0395   -4.4764    2.0210 C   0  0  0  0  0  0  0  0  0  0  0  0
   12.0842   -3.4639    2.5209 C   0  0  0  0  0  0  0  0  0  0  0  0
   10.9162   -2.4608    2.5034 C   0  0  0  0  0  0  0  0  0  0  0  0
    7.7457   -2.3368   -0.3293 C   0  0  0  0  0  0  0  0  0  0  0  0
    6.1027   -9.1306   -2.9210 H   0  0  0  0  0  0  0  0  0  0  0  0
    5.1647   -8.9184   -1.5007 H   0  0  0  0  0  0  0  0  0  0  0  0
    7.8054   -5.3730   -4.1960 H   0  0  0  0  0  0  0  0  0  0  0  0
    3.4305   -6.2796    2.0641 H   0  0  0  0  0  0  0  0  0  0  0  0
    2.3936   -8.1310    3.2921 H   0  0  0  0  0  0  0  0  0  0  0  0
    3.1723  -10.4335    2.9808 H   0  0  0  0  0  0  0  0  0  0  0  0
    3.5748  -12.2392    1.5573 H   0  0  0  0  0  0  0  0  0  0  0  0
    4.6852  -12.2452    2.9478 H   0  0  0  0  0  0  0  0  0  0  0  0
    6.3496  -13.5338    1.6133 H   0  0  0  0  0  0  0  0  0  0  0  0
    6.0196  -13.2411   -0.7255 H   0  0  0  0  0  0  0  0  0  0  0  0
    4.2552  -13.2497   -0.5705 H   0  0  0  0  0  0  0  0  0  0  0  0
    6.1385  -15.6103   -0.2726 H   0  0  0  0  0  0  0  0  0  0  0  0
    4.6699  -15.5275   -1.2660 H   0  0  0  0  0  0  0  0  0  0  0  0
    4.5550  -16.6155    1.2224 H   0  0  0  0  0  0  0  0  0  0  0  0
    3.2531  -15.5214    0.7032 H   0  0  0  0  0  0  0  0  0  0  0  0
    6.3388   -9.0248    0.4456 H   0  0  0  0  0  0  0  0  0  0  0  0
    5.1379   -4.7070    1.6654 H   0  0  0  0  0  0  0  0  0  0  0  0
    5.5732   -2.4275   -0.6282 H   0  0  0  0  0  0  0  0  0  0  0  0
    6.1750   -2.9967    2.2631 H   0  0  0  0  0  0  0  0  0  0  0  0
    6.0297   -1.3985    1.5436 H   0  0  0  0  0  0  0  0  0  0  0  0
    8.4377   -1.3681    1.5618 H   0  0  0  0  0  0  0  0  0  0  0  0
    8.5165   -4.4334    1.2700 H   0  0  0  0  0  0  0  0  0  0  0  0
    8.6358   -3.6221    2.8224 H   0  0  0  0  0  0  0  0  0  0  0  0
   11.3993   -5.1822    1.2668 H   0  0  0  0  0  0  0  0  0  0  0  0
   10.5533   -5.0382    2.8289 H   0  0  0  0  0  0  0  0  0  0  0  0
   12.8782   -3.2444    1.7980 H   0  0  0  0  0  0  0  0  0  0  0  0
   12.5287   -3.6722    3.4972 H   0  0  0  0  0  0  0  0  0  0  0  0
   11.1770   -1.4559    2.1586 H   0  0  0  0  0  0  0  0  0  0  0  0
   10.3948   -2.3806    3.4655 H   0  0  0  0  0  0  0  0  0  0  0  0
    8.4391   -2.9138   -0.9433 H   0  0  0  0  0  0  0  0  0  0  0  0
    7.6888   -1.3241   -0.7515 H   0  0  0  0  0  0  0  0  0  0  0  0
  1  2  1  0  0  0  0
  1 33  1  0  0  0  0
  1 34  1  0  0  0  0
  2  3  1  0  0  0  0
  2  7  2  0  0  0  0
  3  4  2  0  0  0  0
  4  5  1  0  0  0  0
  4 35  1  0  0  0  0
  5  6  2  0  0  0  0
  6  7  1  0  0  0  0
  6 23  1  0  0  0  0
  7  8  1  0  0  0  0
  8  9  1  0  0  0  0
  8 22  2  0  0  0  0
  9 10  1  0  0  0  0
  9 21  2  0  0  0  0
 10 11  2  0  0  0  0
 10 36  1  0  0  0  0
 11 12  1  0  0  0  0
 11 37  1  0  0  0  0
 12 13  2  0  0  0  0
 12 38  1  0  0  0  0
 13 14  1  0  0  0  0
 13 21  1  0  0  0  0
 14 15  1  0  0  0  0
 15 16  1  0  0  0  0
 15 39  1  0  0  0  0
 15 40  1  0  0  0  0
 16 17  1  0  0  0  0
 16 20  1  0  0  0  0
 16 41  1  1  0  0  0
 17 18  1  0  0  0  0
 17 42  1  0  0  0  0
 17 43  1  0  0  0  0
 18 19  1  0  0  0  0
 18 44  1  0  0  0  0
 18 45  1  0  0  0  0
 19 20  1  0  0  0  0
 19 46  1  0  0  0  0
 19 47  1  0  0  0  0
 21 48  1  0  0  0  0
 22 23  1  0  0  0  0
 22 49  1  0  0  0  0
 24 25  1  0  0  0  0
 24 32  1  0  0  0  0
 24 23  1  0  0  0  0
 24 50  1  6  0  0  0
 25 26  1  0  0  0  0
 25 51  1  0  0  0  0
 25 52  1  0  0  0  0
 26 27  1  0  0  0  0
 26 32  1  0  0  0  0
 26 53  1  1  0  0  0
 27 28  1  0  0  0  0
 27 54  1  0  0  0  0
 27 55  1  0  0  0  0
 28 29  1  0  0  0  0
 28 31  1  0  0  0  0
 29 30  1  0  0  0  0
 29 56  1  0  0  0  0
 29 57  1  0  0  0  0
 30 31  1  0  0  0  0
 30 58  1  0  0  0  0
 30 59  1  0  0  0  0
 31 60  1  0  0  0  0
 31 61  1  0  0  0  0
 32 62  1  0  0  0  0
 32 63  1  0  0  0  0
M  END
$$$$
