CHEMBL256974
 OpenBabel04072215363D

 50 53  0  0  0  0  0  0  0  0999 V2000
    1.1798   -1.5347   -2.3633 N   0  0  0  0  0  0  0  0  0  0  0  0
    2.4014   -1.9147   -2.8453 C   0  0  0  0  0  0  0  0  0  0  0  0
    2.7766   -1.4867   -3.9324 O   0  0  0  0  0  0  0  0  0  0  0  0
    3.1861   -2.8032   -2.0079 C   0  0  0  0  0  0  0  0  0  0  0  0
    4.4705   -3.2495   -2.2484 C   0  0  0  0  0  0  0  0  0  0  0  0
    4.9796   -4.0675   -1.2001 C   0  0  0  0  0  0  0  0  0  0  0  0
    6.2292   -4.6028   -1.1613 N   0  0  0  0  0  0  0  0  0  0  0  0
    6.5318   -5.2996   -0.0515 C   0  0  0  0  0  0  0  0  0  0  0  0
    5.6692   -5.5334    1.0017 C   0  0  0  0  0  0  0  0  0  0  0  0
    4.3561   -5.0688    0.9130 C   0  0  0  0  0  0  0  0  0  0  0  0
    3.3933   -5.3052    1.8715 O   0  0  0  0  0  0  0  0  0  0  0  0
    3.3387   -6.5434    2.4679 C   0  0  0  0  0  0  0  0  0  0  0  0
    3.7236   -7.7286    1.8418 C   0  0  0  0  0  0  0  0  0  0  0  0
    3.7509   -8.9169    2.5698 C   0  0  0  0  0  0  0  0  0  0  0  0
    3.3624   -8.9455    3.9165 C   0  0  0  0  0  0  0  0  0  0  0  0
    3.5030  -10.1842    4.5635 N   0  0  0  0  0  0  0  0  0  0  0  0
    3.6310  -10.5414    5.8852 C   0  0  0  0  0  0  0  0  0  0  0  0
    3.7545   -9.5650    7.2340 S   0  0  0  0  0  0  0  0  0  0  0  0
    3.7426  -11.9108    6.0951 N   0  0  0  0  0  0  0  0  0  0  0  0
    3.7957  -12.9164    5.1384 C   0  0  0  0  0  0  0  0  0  0  0  0
    3.6316  -12.7141    3.9358 O   0  0  0  0  0  0  0  0  0  0  0  0
    4.1131  -14.2937    5.6762 C   0  0  0  0  0  0  0  0  0  0  0  0
    2.9030  -15.0666    6.1301 C   0  0  0  0  0  0  0  0  0  0  0  0
    1.8321  -15.3064    5.2564 C   0  0  0  0  0  0  0  0  0  0  0  0
    0.7444  -16.0789    5.6661 C   0  0  0  0  0  0  0  0  0  0  0  0
    0.7175  -16.6240    6.9475 C   0  0  0  0  0  0  0  0  0  0  0  0
    1.7766  -16.3949    7.8229 C   0  0  0  0  0  0  0  0  0  0  0  0
    2.8656  -15.6224    7.4164 C   0  0  0  0  0  0  0  0  0  0  0  0
    2.8506   -7.7893    4.4967 C   0  0  0  0  0  0  0  0  0  0  0  0
    2.8401   -6.5997    3.7689 C   0  0  0  0  0  0  0  0  0  0  0  0
    2.3456   -5.4943    4.3464 F   0  0  0  0  0  0  0  0  0  0  0  0
    4.0371   -4.2693   -0.1942 C   0  0  0  0  0  0  0  0  0  0  0  0
    2.5740   -3.4434   -0.5455 S   0  0  0  0  0  0  0  0  0  0  0  0
    0.6310   -0.8892   -2.9118 H   0  0  0  0  0  0  0  0  0  0  0  0
    0.8462   -1.8335   -1.4577 H   0  0  0  0  0  0  0  0  0  0  0  0
    5.0389   -2.9792   -3.1307 H   0  0  0  0  0  0  0  0  0  0  0  0
    7.5438   -5.6982   -0.0275 H   0  0  0  0  0  0  0  0  0  0  0  0
    6.0150   -6.0966    1.8619 H   0  0  0  0  0  0  0  0  0  0  0  0
    4.0402   -7.7448    0.8027 H   0  0  0  0  0  0  0  0  0  0  0  0
    4.1256   -9.8148    2.0808 H   0  0  0  0  0  0  0  0  0  0  0  0
    3.6451  -10.9700    3.9261 H   0  0  0  0  0  0  0  0  0  0  0  0
    3.8529  -12.1684    7.0678 H   0  0  0  0  0  0  0  0  0  0  0  0
    4.8479  -14.1958    6.4845 H   0  0  0  0  0  0  0  0  0  0  0  0
    4.6137  -14.8572    4.8791 H   0  0  0  0  0  0  0  0  0  0  0  0
    1.8424  -14.9060    4.2445 H   0  0  0  0  0  0  0  0  0  0  0  0
   -0.0777  -16.2658    4.9791 H   0  0  0  0  0  0  0  0  0  0  0  0
   -0.1250  -17.2354    7.2606 H   0  0  0  0  0  0  0  0  0  0  0  0
    1.7579  -16.8276    8.8199 H   0  0  0  0  0  0  0  0  0  0  0  0
    3.6897  -15.4750    8.1121 H   0  0  0  0  0  0  0  0  0  0  0  0
    2.4289   -7.7745    5.4936 H   0  0  0  0  0  0  0  0  0  0  0  0
  1  2  1  0  0  0  0
  1 34  1  0  0  0  0
  1 35  1  0  0  0  0
  2  3  2  0  0  0  0
  2  4  1  0  0  0  0
  4  5  2  0  0  0  0
  4 33  1  0  0  0  0
  5  6  1  0  0  0  0
  5 36  1  0  0  0  0
  6  7  1  0  0  0  0
  6 32  2  0  0  0  0
  7  8  2  0  0  0  0
  8  9  1  0  0  0  0
  8 37  1  0  0  0  0
  9 10  2  0  0  0  0
  9 38  1  0  0  0  0
 10 11  1  0  0  0  0
 10 32  1  0  0  0  0
 11 12  1  0  0  0  0
 12 13  1  0  0  0  0
 12 30  2  0  0  0  0
 13 14  2  0  0  0  0
 13 39  1  0  0  0  0
 14 15  1  0  0  0  0
 14 40  1  0  0  0  0
 15 16  1  0  0  0  0
 15 29  2  0  0  0  0
 16 17  1  0  0  0  0
 16 41  1  0  0  0  0
 17 18  2  0  0  0  0
 17 19  1  0  0  0  0
 19 20  1  0  0  0  0
 19 42  1  0  0  0  0
 20 21  2  0  0  0  0
 20 22  1  0  0  0  0
 22 23  1  0  0  0  0
 22 43  1  0  0  0  0
 22 44  1  0  0  0  0
 23 24  1  0  0  0  0
 23 28  2  0  0  0  0
 24 25  2  0  0  0  0
 24 45  1  0  0  0  0
 25 26  1  0  0  0  0
 25 46  1  0  0  0  0
 26 27  2  0  0  0  0
 26 47  1  0  0  0  0
 27 28  1  0  0  0  0
 27 48  1  0  0  0  0
 28 49  1  0  0  0  0
 29 30  1  0  0  0  0
 29 50  1  0  0  0  0
 30 31  1  0  0  0  0
 32 33  1  0  0  0  0
M  END
$$$$
