CHEMBL3932817
 OpenBabel04072215373D

 71 73  0  0  0  0  0  0  0  0999 V2000
    1.3290    3.0641   -4.2303 C   0  0  0  0  0  0  0  0  0  0  0  0
    2.6716    3.0111   -4.0058 O   0  0  0  0  0  0  0  0  0  0  0  0
    3.2217    2.1219   -3.1659 C   0  0  0  0  0  0  0  0  0  0  0  0
    2.5268    1.5536   -2.0802 C   0  0  0  0  0  0  0  0  0  0  0  0
    3.1322    0.5701   -1.3127 C   0  0  0  0  0  0  0  0  0  0  0  0
    2.4554    0.0471   -0.2567 O   0  0  0  0  0  0  0  0  0  0  0  0
    2.9560   -0.9006    0.6130 C   0  0  0  0  0  0  0  0  0  0  0  0
    4.4199    0.1466   -1.6596 C   0  0  0  0  0  0  0  0  0  0  0  0
    5.1300    0.7277   -2.7552 C   0  0  0  0  0  0  0  0  0  0  0  0
    6.4003    0.2457   -3.2100 N   0  0  0  0  0  0  0  0  0  0  0  0
    6.8933   -1.0822   -2.6395 C   0  0  0  0  0  0  0  0  0  0  0  0
    8.2841   -0.8433   -2.1127 C   0  0  0  0  0  0  0  0  0  0  0  0
    8.9432   -1.9673   -1.4482 N   0  0  0  0  0  0  0  0  0  0  0  0
   10.3026   -1.5298   -1.0355 C   0  0  0  0  0  0  0  0  0  0  0  0
   10.2746   -0.2870   -0.1102 C   0  0  0  0  0  0  0  0  0  0  0  0
   11.0050   -2.6663   -0.3077 C   0  0  0  0  0  0  0  0  0  0  0  0
    7.2076    0.8638   -4.3260 C   0  0  0  0  0  0  0  0  0  0  0  0
    7.6348   -0.1721   -5.1193 C   0  0  0  0  0  0  0  0  0  0  0  0
    8.6187   -0.0193   -5.8941 C   0  0  0  0  0  0  0  0  0  0  0  0
    9.2269    1.0999   -6.0706 C   0  0  0  0  0  0  0  0  0  0  0  0
   10.4287    0.8117   -6.2968 N   0  0  0  0  0  0  0  0  0  0  0  0
   11.2802    1.4833   -6.8208 C   0  0  0  0  0  0  0  0  0  0  0  0
   10.9049    2.5487   -7.5565 C   0  0  0  0  0  0  0  0  0  0  0  0
   11.9296    2.3322   -8.9630 C   0  0  0  0  0  0  0  0  0  0  0  0
   12.0863    2.9979  -10.2329 C   0  0  0  0  0  0  0  0  0  0  0  0
   11.6540    4.2752  -10.8422 C   0  0  0  0  0  0  0  0  0  0  0  0
   12.8633    2.2696  -11.0686 N   0  0  0  0  0  0  0  0  0  0  0  0
   13.3200    1.2000  -10.5139 N   0  0  0  0  0  0  0  0  0  0  0  0
   14.1505    0.1857  -11.2717 C   0  0  0  0  0  0  0  0  0  0  0  0
   12.8895    1.1587   -9.2210 C   0  0  0  0  0  0  0  0  0  0  0  0
   13.4431   -0.0165   -8.3962 C   0  0  0  0  0  0  0  0  0  0  0  0
    9.7065    3.1655   -6.8293 N   0  0  0  0  0  0  0  0  0  0  0  0
    8.8449    2.3745   -5.8764 C   0  0  0  0  0  0  0  0  0  0  0  0
    7.7028    2.2692   -4.7576 C   0  0  0  0  0  0  0  0  0  0  0  0
    4.5042    1.7247   -3.4734 C   0  0  0  0  0  0  0  0  0  0  0  0
   -0.4916    0.7606    0.8643 Cl  0  0  0  0  0  0  0  0  0  0  0  0
    1.1590    3.7255   -5.0979 H   0  0  0  0  0  0  0  0  0  0  0  0
    0.8073    3.4407   -3.3305 H   0  0  0  0  0  0  0  0  0  0  0  0
    0.9817    2.0333   -4.4747 H   0  0  0  0  0  0  0  0  0  0  0  0
    1.5187    1.8575   -1.8290 H   0  0  0  0  0  0  0  0  0  0  0  0
    2.2246   -1.0942    1.4219 H   0  0  0  0  0  0  0  0  0  0  0  0
    3.8975   -0.5261    1.0734 H   0  0  0  0  0  0  0  0  0  0  0  0
    3.1505   -1.8463    0.0640 H   0  0  0  0  0  0  0  0  0  0  0  0
    4.8047   -0.6366   -1.0492 H   0  0  0  0  0  0  0  0  0  0  0  0
    6.8821   -1.9389   -3.3470 H   0  0  0  0  0  0  0  0  0  0  0  0
    6.3305   -1.5362   -1.8192 H   0  0  0  0  0  0  0  0  0  0  0  0
    8.0903   -0.0549   -1.3702 H   0  0  0  0  0  0  0  0  0  0  0  0
    8.9349   -0.5089   -2.9429 H   0  0  0  0  0  0  0  0  0  0  0  0
    9.0505   -2.7548   -2.1371 H   0  0  0  0  0  0  0  0  0  0  0  0
   10.9089   -1.2734   -1.9367 H   0  0  0  0  0  0  0  0  0  0  0  0
    9.6462   -0.4890    0.7829 H   0  0  0  0  0  0  0  0  0  0  0  0
    9.8921    0.6188   -0.6260 H   0  0  0  0  0  0  0  0  0  0  0  0
   11.2983   -0.0082    0.2060 H   0  0  0  0  0  0  0  0  0  0  0  0
   10.4211   -2.9413    0.5950 H   0  0  0  0  0  0  0  0  0  0  0  0
   12.0267   -2.3472   -0.0049 H   0  0  0  0  0  0  0  0  0  0  0  0
   11.0911   -3.5444   -0.9796 H   0  0  0  0  0  0  0  0  0  0  0  0
    7.3864   -1.2001   -5.0868 H   0  0  0  0  0  0  0  0  0  0  0  0
    9.0469   -0.8742   -6.3958 H   0  0  0  0  0  0  0  0  0  0  0  0
   12.0351    0.9359   -7.0051 H   0  0  0  0  0  0  0  0  0  0  0  0
   11.1057    4.9042  -10.1400 H   0  0  0  0  0  0  0  0  0  0  0  0
   11.0906    4.0236  -11.7702 H   0  0  0  0  0  0  0  0  0  0  0  0
   12.5876    4.8076  -11.2011 H   0  0  0  0  0  0  0  0  0  0  0  0
   14.2697    0.4646  -12.3471 H   0  0  0  0  0  0  0  0  0  0  0  0
   13.6857   -0.8315  -11.3025 H   0  0  0  0  0  0  0  0  0  0  0  0
   15.1915    0.0517  -10.8836 H   0  0  0  0  0  0  0  0  0  0  0  0
   14.1181   -0.6838   -8.9680 H   0  0  0  0  0  0  0  0  0  0  0  0
   12.6691   -0.7241   -8.0287 H   0  0  0  0  0  0  0  0  0  0  0  0
   14.0972    0.3641   -7.5729 H   0  0  0  0  0  0  0  0  0  0  0  0
    7.2389    3.0854   -4.1752 H   0  0  0  0  0  0  0  0  0  0  0  0
    4.9769    2.1632   -4.3336 H   0  0  0  0  0  0  0  0  0  0  0  0
    0.7657    1.1415    1.2708 H   0  0  0  0  0  0  0  0  0  0  0  0
  1  2  1  0  0  0  0
  1 37  1  0  0  0  0
  1 38  1  0  0  0  0
  1 39  1  0  0  0  0
  2  3  1  0  0  0  0
  3  4  1  0  0  0  0
  3 35  2  0  0  0  0
  4  5  2  0  0  0  0
  4 40  1  0  0  0  0
  5  6  1  0  0  0  0
  5  8  1  0  0  0  0
  6  7  1  0  0  0  0
  7 41  1  0  0  0  0
  7 42  1  0  0  0  0
  7 43  1  0  0  0  0
  8  9  2  0  0  0  0
  8 44  1  0  0  0  0
  9 10  1  0  0  0  0
  9 35  1  0  0  0  0
 10 11  1  0  0  0  0
 10 17  1  0  0  0  0
 11 12  1  0  0  0  0
 11 45  1  0  0  0  0
 11 46  1  0  0  0  0
 12 13  1  0  0  0  0
 12 47  1  0  0  0  0
 12 48  1  0  0  0  0
 13 14  1  0  0  0  0
 13 49  1  0  0  0  0
 14 15  1  0  0  0  0
 14 16  1  0  0  0  0
 14 50  1  0  0  0  0
 15 51  1  0  0  0  0
 15 52  1  0  0  0  0
 15 53  1  0  0  0  0
 16 54  1  0  0  0  0
 16 55  1  0  0  0  0
 16 56  1  0  0  0  0
 17 18  1  0  0  0  0
 17 34  2  0  0  0  0
 18 19  2  0  0  0  0
 18 57  1  0  0  0  0
 19 20  1  0  0  0  0
 19 58  1  0  0  0  0
 20 21  1  0  0  0  0
 20 33  2  0  0  0  0
 21 22  2  0  0  0  0
 22 23  1  0  0  0  0
 22 59  1  0  0  0  0
 23 24  1  0  0  0  0
 23 32  2  0  0  0  0
 24 25  1  0  0  0  0
 24 30  2  0  0  0  0
 25 26  1  0  0  0  0
 25 27  2  0  0  0  0
 26 60  1  0  0  0  0
 26 61  1  0  0  0  0
 26 62  1  0  0  0  0
 27 28  1  0  0  0  0
 28 29  1  0  0  0  0
 28 30  1  0  0  0  0
 29 63  1  0  0  0  0
 29 64  1  0  0  0  0
 29 65  1  0  0  0  0
 30 31  1  0  0  0  0
 31 66  1  0  0  0  0
 31 67  1  0  0  0  0
 31 68  1  0  0  0  0
 32 33  1  0  0  0  0
 33 34  1  0  0  0  0
 34 69  1  0  0  0  0
 35 70  1  0  0  0  0
 36 71  1  0  0  0  0
M  END
$$$$
