CHEMBL3644020
 OpenBabel04072215373D

 52 54  0  0  1  0  0  0  0  0999 V2000
    4.2345   -1.3839   -0.6118 C   0  0  0  0  0  0  0  0  0  0  0  0
    3.6162    0.0052   -0.7059 C   0  0  1  0  0  0  0  0  0  0  0  0
    2.2571   -0.0965   -0.2605 O   0  0  0  0  0  0  0  0  0  0  0  0
    4.3786    1.0983    0.1009 C   0  0  1  0  0  0  0  0  0  0  0  0
    3.6482    2.4321   -0.0881 C   0  0  0  0  0  0  0  0  0  0  0  0
    4.3728    0.7008    1.4833 O   0  0  0  0  0  0  0  0  0  0  0  0
    5.1387    1.4165    2.3841 C   0  0  0  0  0  0  0  0  0  0  0  0
    6.1229    2.2412    1.9451 N   0  0  0  0  0  0  0  0  0  0  0  0
    6.8112    2.9074    2.8939 C   0  0  0  0  0  0  0  0  0  0  0  0
    7.9753    3.6094    2.5722 N   0  0  0  0  0  0  0  0  0  0  0  0
    9.0656    3.8301    3.4464 C   0  0  0  0  0  0  0  0  0  0  0  0
    9.3662    2.9376    4.4937 C   0  0  0  0  0  0  0  0  0  0  0  0
   10.3517    3.2175    5.4445 C   0  0  0  0  0  0  0  0  0  0  0  0
   11.0589    4.4126    5.3602 C   0  0  0  0  0  0  0  0  0  0  0  0
   12.3348    4.7489    6.5520 S   0  0  0  0  0  0  0  0  0  0  0  0
   12.8453    3.4679    7.0087 O   0  0  0  0  0  0  0  0  0  0  0  0
   13.2432    5.7011    5.9403 O   0  0  0  0  0  0  0  0  0  0  0  0
   11.5972    5.5560    7.9621 C   0  0  0  0  0  0  0  0  0  0  0  0
   11.1720    4.7913    9.0555 C   0  0  0  0  0  0  0  0  0  0  0  0
   10.6952    5.4303   10.2032 C   0  0  0  0  0  0  0  0  0  0  0  0
   10.6539    6.8235   10.2626 C   0  0  0  0  0  0  0  0  0  0  0  0
   11.0876    7.5840    9.1755 C   0  0  0  0  0  0  0  0  0  0  0  0
   11.5643    6.9530    8.0241 C   0  0  0  0  0  0  0  0  0  0  0  0
   10.8281    5.2886    4.2934 C   0  0  0  0  0  0  0  0  0  0  0  0
    9.8382    4.9930    3.3409 C   0  0  0  0  0  0  0  0  0  0  0  0
    6.4637    2.8872    4.1924 N   0  0  0  0  0  0  0  0  0  0  0  0
    5.5161    2.0335    4.5801 C   0  0  0  0  0  0  0  0  0  0  0  0
    4.8554    1.2083    3.7138 C   0  0  0  0  0  0  0  0  0  0  0  0
    3.9732    0.1617    4.2764 C   0  0  0  0  0  0  0  0  0  0  0  0
    3.3677   -0.6592    3.3790 F   0  0  0  0  0  0  0  0  0  0  0  0
    4.6695   -0.6665    5.1120 F   0  0  0  0  0  0  0  0  0  0  0  0
    2.9750    0.6815    5.0431 F   0  0  0  0  0  0  0  0  0  0  0  0
    3.5896   -2.1181   -1.1104 H   0  0  0  0  0  0  0  0  0  0  0  0
    4.3302   -1.7143    0.4273 H   0  0  0  0  0  0  0  0  0  0  0  0
    5.2196   -1.4111   -1.0851 H   0  0  0  0  0  0  0  0  0  0  0  0
    3.5780    0.2952   -1.7626 H   0  0  0  0  0  0  0  0  0  0  0  0
    2.2859   -0.3248    0.6869 H   0  0  0  0  0  0  0  0  0  0  0  0
    5.4070    1.1559   -0.2750 H   0  0  0  0  0  0  0  0  0  0  0  0
    2.6505    2.4084    0.3642 H   0  0  0  0  0  0  0  0  0  0  0  0
    3.5385    2.6692   -1.1536 H   0  0  0  0  0  0  0  0  0  0  0  0
    4.1858    3.2580    0.3835 H   0  0  0  0  0  0  0  0  0  0  0  0
    8.1802    3.6043    1.5838 H   0  0  0  0  0  0  0  0  0  0  0  0
    8.8228    1.9993    4.5865 H   0  0  0  0  0  0  0  0  0  0  0  0
   10.5494    2.4983    6.2355 H   0  0  0  0  0  0  0  0  0  0  0  0
   11.2322    3.7054    9.0371 H   0  0  0  0  0  0  0  0  0  0  0  0
   10.3759    4.8433   11.0623 H   0  0  0  0  0  0  0  0  0  0  0  0
   10.2987    7.3188   11.1648 H   0  0  0  0  0  0  0  0  0  0  0  0
   11.0731    8.6697    9.2354 H   0  0  0  0  0  0  0  0  0  0  0  0
   11.9324    7.5575    7.1965 H   0  0  0  0  0  0  0  0  0  0  0  0
   11.4057    6.2058    4.1968 H   0  0  0  0  0  0  0  0  0  0  0  0
    9.6459    5.7038    2.5400 H   0  0  0  0  0  0  0  0  0  0  0  0
    5.3364    2.0151    5.6526 H   0  0  0  0  0  0  0  0  0  0  0  0
  1  2  1  0  0  0  0
  1 33  1  0  0  0  0
  1 34  1  0  0  0  0
  1 35  1  0  0  0  0
  2  3  1  0  0  0  0
  2  4  1  0  0  0  0
  2 36  1  6  0  0  0
  3 37  1  0  0  0  0
  4  5  1  0  0  0  0
  4  6  1  0  0  0  0
  4 38  1  6  0  0  0
  5 39  1  0  0  0  0
  5 40  1  0  0  0  0
  5 41  1  0  0  0  0
  6  7  1  0  0  0  0
  7  8  1  0  0  0  0
  7 28  2  0  0  0  0
  8  9  2  0  0  0  0
  9 10  1  0  0  0  0
  9 26  1  0  0  0  0
 10 11  1  0  0  0  0
 10 42  1  0  0  0  0
 11 12  1  0  0  0  0
 11 25  2  0  0  0  0
 12 13  2  0  0  0  0
 12 43  1  0  0  0  0
 13 14  1  0  0  0  0
 13 44  1  0  0  0  0
 14 15  1  0  0  0  0
 14 24  2  0  0  0  0
 15 16  2  0  0  0  0
 15 17  2  0  0  0  0
 15 18  1  0  0  0  0
 18 19  1  0  0  0  0
 18 23  2  0  0  0  0
 19 20  2  0  0  0  0
 19 45  1  0  0  0  0
 20 21  1  0  0  0  0
 20 46  1  0  0  0  0
 21 22  2  0  0  0  0
 21 47  1  0  0  0  0
 22 23  1  0  0  0  0
 22 48  1  0  0  0  0
 23 49  1  0  0  0  0
 24 25  1  0  0  0  0
 24 50  1  0  0  0  0
 25 51  1  0  0  0  0
 26 27  2  0  0  0  0
 27 28  1  0  0  0  0
 27 52  1  0  0  0  0
 28 29  1  0  0  0  0
 29 30  1  0  0  0  0
 29 31  1  0  0  0  0
 29 32  1  0  0  0  0
M  END
$$$$
