CHEMBL3781479
 OpenBabel04072215373D

 52 56  0  0  0  0  0  0  0  0999 V2000
   -8.5474    7.2532   -6.0693 C   0  0  0  0  0  0  0  0  0  0  0  0
   -9.1833    7.2207   -4.8336 C   0  0  0  0  0  0  0  0  0  0  0  0
   -8.9127    6.1822   -3.9383 C   0  0  0  0  0  0  0  0  0  0  0  0
   -8.0080    5.1517   -4.2560 C   0  0  0  0  0  0  0  0  0  0  0  0
   -7.7322    4.0575   -3.3044 C   0  0  0  0  0  0  0  0  0  0  0  0
   -8.6841    3.5697   -2.4156 C   0  0  0  0  0  0  0  0  0  0  0  0
   -8.4471    2.5736   -1.5259 N   0  0  0  0  0  0  0  0  0  0  0  0
   -7.1985    2.0539   -1.5186 C   0  0  0  0  0  0  0  0  0  0  0  0
   -6.8679    1.0258   -0.6250 C   0  0  0  0  0  0  0  0  0  0  0  0
   -7.8275    0.5321    0.2934 N   0  0  0  0  0  0  0  0  0  0  0  0
   -7.6246   -0.0469    1.5547 C   0  0  0  0  0  0  0  0  0  0  0  0
   -6.5451    0.3073    2.3632 C   0  0  0  0  0  0  0  0  0  0  0  0
   -6.2776   -0.3639    3.5638 C   0  0  0  0  0  0  0  0  0  0  0  0
   -7.0769   -1.4232    4.0058 C   0  0  0  0  0  0  0  0  0  0  0  0
   -6.8143   -2.1012    5.1822 N   0  0  0  0  0  0  0  0  0  0  0  0
   -6.0910   -1.4798    6.2962 C   0  0  0  0  0  0  0  0  0  0  0  0
   -4.7067   -2.1043    6.4585 C   0  0  0  0  0  0  0  0  0  0  0  0
   -4.7942   -3.6256    6.5642 C   0  0  0  0  0  0  0  0  0  0  0  0
   -5.5771   -4.2117    5.3913 C   0  0  0  0  0  0  0  0  0  0  0  0
   -6.9544   -3.5595    5.2487 C   0  0  0  0  0  0  0  0  0  0  0  0
   -8.1792   -1.7497    3.2001 C   0  0  0  0  0  0  0  0  0  0  0  0
   -8.4570   -1.0771    1.9988 C   0  0  0  0  0  0  0  0  0  0  0  0
   -5.5619    0.5396   -0.6556 C   0  0  0  0  0  0  0  0  0  0  0  0
   -4.5968    0.9881   -1.4804 N   0  0  0  0  0  0  0  0  0  0  0  0
   -4.9636    1.9733   -2.3329 C   0  0  0  0  0  0  0  0  0  0  0  0
   -6.2194    2.5453   -2.4127 C   0  0  0  0  0  0  0  0  0  0  0  0
   -6.4840    3.5291   -3.3080 N   0  0  0  0  0  0  0  0  0  0  0  0
   -7.3806    5.2101   -5.5129 C   0  0  0  0  0  0  0  0  0  0  0  0
   -7.6479    6.2482   -6.4124 C   0  0  0  0  0  0  0  0  0  0  0  0
   -8.7505    8.0660   -6.7629 H   0  0  0  0  0  0  0  0  0  0  0  0
   -9.8850    8.0036   -4.5580 H   0  0  0  0  0  0  0  0  0  0  0  0
   -9.4135    6.2066   -2.9725 H   0  0  0  0  0  0  0  0  0  0  0  0
   -9.6947    3.9629   -2.3923 H   0  0  0  0  0  0  0  0  0  0  0  0
   -8.7849    0.7783    0.0558 H   0  0  0  0  0  0  0  0  0  0  0  0
   -5.8877    1.1235    2.0783 H   0  0  0  0  0  0  0  0  0  0  0  0
   -5.4008   -0.0561    4.1231 H   0  0  0  0  0  0  0  0  0  0  0  0
   -6.6710   -1.6414    7.2124 H   0  0  0  0  0  0  0  0  0  0  0  0
   -6.0046   -0.3924    6.1945 H   0  0  0  0  0  0  0  0  0  0  0  0
   -4.2258   -1.7019    7.3576 H   0  0  0  0  0  0  0  0  0  0  0  0
   -4.0715   -1.8358    5.6058 H   0  0  0  0  0  0  0  0  0  0  0  0
   -5.2866   -3.8996    7.5053 H   0  0  0  0  0  0  0  0  0  0  0  0
   -3.7867   -4.0553    6.5920 H   0  0  0  0  0  0  0  0  0  0  0  0
   -5.6940   -5.2925    5.5298 H   0  0  0  0  0  0  0  0  0  0  0  0
   -5.0040   -4.0656    4.4670 H   0  0  0  0  0  0  0  0  0  0  0  0
   -7.5784   -3.8143    6.1135 H   0  0  0  0  0  0  0  0  0  0  0  0
   -7.4445   -3.9869    4.3679 H   0  0  0  0  0  0  0  0  0  0  0  0
   -8.8652   -2.5364    3.5086 H   0  0  0  0  0  0  0  0  0  0  0  0
   -9.3073   -1.3926    1.4012 H   0  0  0  0  0  0  0  0  0  0  0  0
   -5.2528   -0.2724   -0.0020 H   0  0  0  0  0  0  0  0  0  0  0  0
   -4.1682    2.3204   -2.9875 H   0  0  0  0  0  0  0  0  0  0  0  0
   -6.6725    4.4332   -5.8057 H   0  0  0  0  0  0  0  0  0  0  0  0
   -7.1506    6.2718   -7.3787 H   0  0  0  0  0  0  0  0  0  0  0  0
  1  2  1  0  0  0  0
  1 29  2  0  0  0  0
  1 30  1  0  0  0  0
  2  3  2  0  0  0  0
  2 31  1  0  0  0  0
  3  4  1  0  0  0  0
  3 32  1  0  0  0  0
  4  5  1  0  0  0  0
  4 28  2  0  0  0  0
  5  6  1  0  0  0  0
  5 27  2  0  0  0  0
  6  7  2  0  0  0  0
  6 33  1  0  0  0  0
  7  8  1  0  0  0  0
  8  9  1  0  0  0  0
  8 26  2  0  0  0  0
  9 10  1  0  0  0  0
  9 23  2  0  0  0  0
 10 11  1  0  0  0  0
 10 34  1  0  0  0  0
 11 12  1  0  0  0  0
 11 22  2  0  0  0  0
 12 13  2  0  0  0  0
 12 35  1  0  0  0  0
 13 14  1  0  0  0  0
 13 36  1  0  0  0  0
 14 15  1  0  0  0  0
 14 21  2  0  0  0  0
 15 16  1  0  0  0  0
 15 20  1  0  0  0  0
 16 17  1  0  0  0  0
 16 37  1  0  0  0  0
 16 38  1  0  0  0  0
 17 18  1  0  0  0  0
 17 39  1  0  0  0  0
 17 40  1  0  0  0  0
 18 19  1  0  0  0  0
 18 41  1  0  0  0  0
 18 42  1  0  0  0  0
 19 20  1  0  0  0  0
 19 43  1  0  0  0  0
 19 44  1  0  0  0  0
 20 45  1  0  0  0  0
 20 46  1  0  0  0  0
 21 22  1  0  0  0  0
 21 47  1  0  0  0  0
 22 48  1  0  0  0  0
 23 24  1  0  0  0  0
 23 49  1  0  0  0  0
 24 25  2  0  0  0  0
 25 26  1  0  0  0  0
 25 50  1  0  0  0  0
 26 27  1  0  0  0  0
 28 29  1  0  0  0  0
 28 51  1  0  0  0  0
 29 52  1  0  0  0  0
M  END
$$$$
