CHEMBL271563
 OpenBabel04072215363D

 59 63  0  0  0  0  0  0  0  0999 V2000
    5.0693   -0.9631   -1.5371 C   0  0  0  0  0  0  0  0  0  0  0  0
    3.9213   -0.9629   -0.6825 O   0  0  0  0  0  0  0  0  0  0  0  0
    4.1698   -0.8251    0.6566 C   0  0  0  0  0  0  0  0  0  0  0  0
    5.3352   -0.1844    1.1368 C   0  0  0  0  0  0  0  0  0  0  0  0
    5.7045   -0.2184    2.4729 C   0  0  0  0  0  0  0  0  0  0  0  0
    6.9174    0.2648    2.7986 N   0  0  0  0  0  0  0  0  0  0  0  0
    7.3414    0.1344    4.0710 C   0  0  0  0  0  0  0  0  0  0  0  0
    6.6064   -0.4905    5.0582 C   0  0  0  0  0  0  0  0  0  0  0  0
    5.3487   -0.9871    4.7250 C   0  0  0  0  0  0  0  0  0  0  0  0
    4.7429   -1.6509    5.7838 O   0  0  0  0  0  0  0  0  0  0  0  0
    3.8795   -2.7008    5.5696 C   0  0  0  0  0  0  0  0  0  0  0  0
    3.9917   -3.6103    4.5270 C   0  0  0  0  0  0  0  0  0  0  0  0
    2.8913   -4.4066    4.1923 C   0  0  0  0  0  0  0  0  0  0  0  0
    1.7271   -4.4790    5.0021 C   0  0  0  0  0  0  0  0  0  0  0  0
    0.5607   -5.2618    4.7360 C   0  0  0  0  0  0  0  0  0  0  0  0
    0.3100   -6.1022    3.5167 C   0  0  0  0  0  0  0  0  0  0  0  0
   -0.8447   -6.1451    3.0989 O   0  0  0  0  0  0  0  0  0  0  0  0
    1.3774   -6.7984    2.9754 N   0  0  0  0  0  0  0  0  0  0  0  0
    1.3467   -7.6508    1.8450 C   0  0  0  0  0  0  0  0  0  0  0  0
    0.1737   -8.0303    1.1887 C   0  0  0  0  0  0  0  0  0  0  0  0
    0.2069   -8.9311    0.1212 C   0  0  0  0  0  0  0  0  0  0  0  0
    1.4208   -9.4418   -0.3268 C   0  0  0  0  0  0  0  0  0  0  0  0
    2.6175   -9.0448    0.2828 C   0  0  0  0  0  0  0  0  0  0  0  0
    3.9450   -9.5473   -0.2262 C   0  0  0  0  0  0  0  0  0  0  0  0
    3.8395  -10.4134   -1.2723 F   0  0  0  0  0  0  0  0  0  0  0  0
    4.7486   -8.5363   -0.6602 F   0  0  0  0  0  0  0  0  0  0  0  0
    4.6566  -10.2033    0.7317 F   0  0  0  0  0  0  0  0  0  0  0  0
    2.5674   -8.1568    1.3765 C   0  0  0  0  0  0  0  0  0  0  0  0
   -0.5297   -5.2207    5.6303 C   0  0  0  0  0  0  0  0  0  0  0  0
   -0.5002   -4.4317    6.7725 C   0  0  0  0  0  0  0  0  0  0  0  0
    0.6179   -3.6514    7.0328 C   0  0  0  0  0  0  0  0  0  0  0  0
    1.7189   -3.6551    6.1651 C   0  0  0  0  0  0  0  0  0  0  0  0
    2.7824   -2.7784    6.4262 C   0  0  0  0  0  0  0  0  0  0  0  0
    4.8399   -0.7911    3.4042 C   0  0  0  0  0  0  0  0  0  0  0  0
    3.5563   -1.1740    2.9438 C   0  0  0  0  0  0  0  0  0  0  0  0
    3.2519   -1.3080    1.5851 C   0  0  0  0  0  0  0  0  0  0  0  0
    2.0736   -1.9749    1.4140 O   0  0  0  0  0  0  0  0  0  0  0  0
    1.6725   -2.4431    0.1391 C   0  0  0  0  0  0  0  0  0  0  0  0
    4.8782   -1.6527   -2.3642 H   0  0  0  0  0  0  0  0  0  0  0  0
    5.9852   -1.3132   -1.0461 H   0  0  0  0  0  0  0  0  0  0  0  0
    5.2202    0.0398   -1.9492 H   0  0  0  0  0  0  0  0  0  0  0  0
    6.0138    0.3077    0.4505 H   0  0  0  0  0  0  0  0  0  0  0  0
    8.3260    0.5374    4.2738 H   0  0  0  0  0  0  0  0  0  0  0  0
    7.0134   -0.6013    6.0541 H   0  0  0  0  0  0  0  0  0  0  0  0
    4.8548   -3.5986    3.8666 H   0  0  0  0  0  0  0  0  0  0  0  0
    2.9466   -4.8992    3.2264 H   0  0  0  0  0  0  0  0  0  0  0  0
    2.2641   -6.7366    3.4543 H   0  0  0  0  0  0  0  0  0  0  0  0
   -0.8003   -7.6645    1.4972 H   0  0  0  0  0  0  0  0  0  0  0  0
   -0.7235   -9.2335   -0.3541 H   0  0  0  0  0  0  0  0  0  0  0  0
    1.4269  -10.1464   -1.1572 H   0  0  0  0  0  0  0  0  0  0  0  0
    3.5021   -7.8550    1.8464 H   0  0  0  0  0  0  0  0  0  0  0  0
   -1.4272   -5.8041    5.4242 H   0  0  0  0  0  0  0  0  0  0  0  0
   -1.3574   -4.4067    7.4412 H   0  0  0  0  0  0  0  0  0  0  0  0
    0.6108   -3.0155    7.9169 H   0  0  0  0  0  0  0  0  0  0  0  0
    2.7350   -2.0914    7.2705 H   0  0  0  0  0  0  0  0  0  0  0  0
    2.7873   -1.4845    3.6470 H   0  0  0  0  0  0  0  0  0  0  0  0
    0.9084   -3.2122    0.2999 H   0  0  0  0  0  0  0  0  0  0  0  0
    2.4827   -2.9148   -0.4248 H   0  0  0  0  0  0  0  0  0  0  0  0
    1.2035   -1.6309   -0.4227 H   0  0  0  0  0  0  0  0  0  0  0  0
  1  2  1  0  0  0  0
  1 39  1  0  0  0  0
  1 40  1  0  0  0  0
  1 41  1  0  0  0  0
  2  3  1  0  0  0  0
  3  4  1  0  0  0  0
  3 36  2  0  0  0  0
  4  5  2  0  0  0  0
  4 42  1  0  0  0  0
  5  6  1  0  0  0  0
  5 34  1  0  0  0  0
  6  7  2  0  0  0  0
  7  8  1  0  0  0  0
  7 43  1  0  0  0  0
  8  9  2  0  0  0  0
  8 44  1  0  0  0  0
  9 10  1  0  0  0  0
  9 34  1  0  0  0  0
 10 11  1  0  0  0  0
 11 12  1  0  0  0  0
 11 33  2  0  0  0  0
 12 13  2  0  0  0  0
 12 45  1  0  0  0  0
 13 14  1  0  0  0  0
 13 46  1  0  0  0  0
 14 15  1  0  0  0  0
 14 32  2  0  0  0  0
 15 16  1  0  0  0  0
 15 29  2  0  0  0  0
 16 17  2  0  0  0  0
 16 18  1  0  0  0  0
 18 19  1  0  0  0  0
 18 47  1  0  0  0  0
 19 20  1  0  0  0  0
 19 28  2  0  0  0  0
 20 21  2  0  0  0  0
 20 48  1  0  0  0  0
 21 22  1  0  0  0  0
 21 49  1  0  0  0  0
 22 23  2  0  0  0  0
 22 50  1  0  0  0  0
 23 24  1  0  0  0  0
 23 28  1  0  0  0  0
 24 25  1  0  0  0  0
 24 26  1  0  0  0  0
 24 27  1  0  0  0  0
 28 51  1  0  0  0  0
 29 30  1  0  0  0  0
 29 52  1  0  0  0  0
 30 31  2  0  0  0  0
 30 53  1  0  0  0  0
 31 32  1  0  0  0  0
 31 54  1  0  0  0  0
 32 33  1  0  0  0  0
 33 55  1  0  0  0  0
 34 35  2  0  0  0  0
 35 36  1  0  0  0  0
 35 56  1  0  0  0  0
 36 37  1  0  0  0  0
 37 38  1  0  0  0  0
 38 57  1  0  0  0  0
 38 58  1  0  0  0  0
 38 59  1  0  0  0  0
M  END
$$$$
