CHEMBL3323603
 OpenBabel04072215363D

 42 46  0  0  0  0  0  0  0  0999 V2000
   -1.8026    0.1783   -1.2381 Cl  0  0  0  0  0  0  0  0  0  0  0  0
   -0.2312    0.1054   -0.5405 C   0  0  0  0  0  0  0  0  0  0  0  0
    0.3291    1.2500    0.0207 C   0  0  0  0  0  0  0  0  0  0  0  0
    1.6033    1.1907    0.5848 C   0  0  0  0  0  0  0  0  0  0  0  0
    2.3102   -0.0158    0.5951 C   0  0  0  0  0  0  0  0  0  0  0  0
    1.7482   -1.1733    0.0385 C   0  0  0  0  0  0  0  0  0  0  0  0
    2.4568   -2.4528    0.0201 C   0  0  0  0  0  0  0  0  0  0  0  0
    2.2878   -3.4031   -0.8796 N   0  0  0  0  0  0  0  0  0  0  0  0
    3.1137   -4.4299   -0.5095 C   0  0  0  0  0  0  0  0  0  0  0  0
    3.3245   -5.6656   -1.1257 C   0  0  0  0  0  0  0  0  0  0  0  0
    4.2248   -6.5593   -0.5336 C   0  0  0  0  0  0  0  0  0  0  0  0
    4.9128   -6.2457    0.6493 C   0  0  0  0  0  0  0  0  0  0  0  0
    5.8659   -7.1370    1.1861 N   0  0  0  0  0  0  0  0  0  0  0  0
    6.8273   -7.9358    0.5131 C   0  0  0  0  0  0  0  0  0  0  0  0
    7.2177   -7.6296   -0.7937 C   0  0  0  0  0  0  0  0  0  0  0  0
    8.1326   -8.4429   -1.4288 C   0  0  0  0  0  0  0  0  0  0  0  0
    8.6895   -9.5271   -0.8605 N   0  0  0  0  0  0  0  0  0  0  0  0
    8.3212   -9.8407    0.3908 C   0  0  0  0  0  0  0  0  0  0  0  0
    8.8998  -10.9594    0.9728 C   0  0  0  0  0  0  0  0  0  0  0  0
    8.5722  -11.3735    2.2646 C   0  0  0  0  0  0  0  0  0  0  0  0
    7.6288  -10.6643    2.9933 C   0  0  0  0  0  0  0  0  0  0  0  0
    7.0314   -9.5359    2.4317 C   0  0  0  0  0  0  0  0  0  0  0  0
    7.3777   -9.0902    1.1319 C   0  0  0  0  0  0  0  0  0  0  0  0
    4.7000   -5.0017    1.2716 C   0  0  0  0  0  0  0  0  0  0  0  0
    3.7969   -4.1232    0.6594 C   0  0  0  0  0  0  0  0  0  0  0  0
    3.3688   -2.8570    0.9705 N   0  0  0  0  0  0  0  0  0  0  0  0
    0.4720   -1.0971   -0.5394 C   0  0  0  0  0  0  0  0  0  0  0  0
   -0.2171    2.1894    0.0138 H   0  0  0  0  0  0  0  0  0  0  0  0
    2.0498    2.0873    1.0079 H   0  0  0  0  0  0  0  0  0  0  0  0
    3.3119   -0.0264    1.0166 H   0  0  0  0  0  0  0  0  0  0  0  0
    2.8006   -5.9197   -2.0399 H   0  0  0  0  0  0  0  0  0  0  0  0
    4.3733   -7.5284   -1.0059 H   0  0  0  0  0  0  0  0  0  0  0  0
    6.0811   -6.9881    2.1653 H   0  0  0  0  0  0  0  0  0  0  0  0
    6.8418   -6.7549   -1.3116 H   0  0  0  0  0  0  0  0  0  0  0  0
    8.4557   -8.2317   -2.4441 H   0  0  0  0  0  0  0  0  0  0  0  0
    9.6290  -11.5278    0.3994 H   0  0  0  0  0  0  0  0  0  0  0  0
    9.0494  -12.2526    2.6889 H   0  0  0  0  0  0  0  0  0  0  0  0
    7.3536  -10.9890    3.9934 H   0  0  0  0  0  0  0  0  0  0  0  0
    6.2784   -9.0125    3.0149 H   0  0  0  0  0  0  0  0  0  0  0  0
    5.2285   -4.7225    2.1740 H   0  0  0  0  0  0  0  0  0  0  0  0
    3.6451   -2.3226    1.7796 H   0  0  0  0  0  0  0  0  0  0  0  0
    0.0296   -1.9854   -0.9877 H   0  0  0  0  0  0  0  0  0  0  0  0
  1  2  1  0  0  0  0
  2  3  1  0  0  0  0
  2 27  2  0  0  0  0
  3  4  2  0  0  0  0
  3 28  1  0  0  0  0
  4  5  1  0  0  0  0
  4 29  1  0  0  0  0
  5  6  2  0  0  0  0
  5 30  1  0  0  0  0
  6  7  1  0  0  0  0
  6 27  1  0  0  0  0
  7  8  2  0  0  0  0
  7 26  1  0  0  0  0
  8  9  1  0  0  0  0
  9 10  1  0  0  0  0
  9 25  2  0  0  0  0
 10 11  2  0  0  0  0
 10 31  1  0  0  0  0
 11 12  1  0  0  0  0
 11 32  1  0  0  0  0
 12 13  1  0  0  0  0
 12 24  2  0  0  0  0
 13 14  1  0  0  0  0
 13 33  1  0  0  0  0
 14 15  1  0  0  0  0
 14 23  2  0  0  0  0
 15 16  2  0  0  0  0
 15 34  1  0  0  0  0
 16 17  1  0  0  0  0
 16 35  1  0  0  0  0
 17 18  2  0  0  0  0
 18 19  1  0  0  0  0
 18 23  1  0  0  0  0
 19 20  2  0  0  0  0
 19 36  1  0  0  0  0
 20 21  1  0  0  0  0
 20 37  1  0  0  0  0
 21 22  2  0  0  0  0
 21 38  1  0  0  0  0
 22 23  1  0  0  0  0
 22 39  1  0  0  0  0
 24 25  1  0  0  0  0
 24 40  1  0  0  0  0
 25 26  1  0  0  0  0
 26 41  1  0  0  0  0
 27 42  1  0  0  0  0
M  END
$$$$
