CHEMBL3952496
 OpenBabel04072215373D

 54 58  0  0  0  0  0  0  0  0999 V2000
    2.3546   -0.9880    1.2631 O   0  0  0  0  0  0  0  0  0  0  0  0
    3.4351   -0.4506    1.0682 C   0  0  0  0  0  0  0  0  0  0  0  0
    3.7584    0.8736    1.3450 N   0  0  0  0  0  0  0  0  0  0  0  0
    2.9078    1.8114    1.9650 C   0  0  0  0  0  0  0  0  0  0  0  0
    1.7292    1.4575    2.6290 C   0  0  0  0  0  0  0  0  0  0  0  0
    0.8790    2.4320    3.1595 C   0  0  0  0  0  0  0  0  0  0  0  0
    1.2242    3.7800    3.0615 C   0  0  0  0  0  0  0  0  0  0  0  0
    2.4437    4.1420    2.4804 C   0  0  0  0  0  0  0  0  0  0  0  0
    2.8756    5.5466    2.4027 C   0  0  0  0  0  0  0  0  0  0  0  0
    3.5243    5.8864    1.4135 O   0  0  0  0  0  0  0  0  0  0  0  0
    2.6122    6.5455    3.4843 C   0  0  0  0  0  0  0  0  0  0  0  0
    2.1973    6.2173    4.7905 C   0  0  0  0  0  0  0  0  0  0  0  0
    1.9697    7.2114    5.7709 C   0  0  0  0  0  0  0  0  0  0  0  0
    2.3590    8.5287    5.4660 C   0  0  0  0  0  0  0  0  0  0  0  0
    2.4460    9.8239    6.0857 C   0  0  0  0  0  0  0  0  0  0  0  0
    1.4607   10.8999    6.0585 C   0  0  0  0  0  0  0  0  0  0  0  0
    0.4029   10.9465    5.2246 C   0  0  0  0  0  0  0  0  0  0  0  0
   -0.0220   12.2094    4.5731 C   0  0  0  0  0  0  0  0  0  0  0  0
   -1.0863   12.2052    3.6761 C   0  0  0  0  0  0  0  0  0  0  0  0
   -1.3215   13.3382    2.8945 C   0  0  0  0  0  0  0  0  0  0  0  0
   -0.4870   14.4413    3.0189 C   0  0  0  0  0  0  0  0  0  0  0  0
    0.5445   14.3705    3.9370 C   0  0  0  0  0  0  0  0  0  0  0  0
    0.7884   13.2881    4.7132 N   0  0  0  0  0  0  0  0  0  0  0  0
    3.6803   10.2696    5.7600 N   0  0  0  0  0  0  0  0  0  0  0  0
    3.7552    9.8594    4.4774 N   0  0  0  0  0  0  0  0  0  0  0  0
    3.0165    8.7299    4.2550 C   0  0  0  0  0  0  0  0  0  0  0  0
    2.9740    7.8595    3.1790 C   0  0  0  0  0  0  0  0  0  0  0  0
    3.2764    3.1596    1.9135 C   0  0  0  0  0  0  0  0  0  0  0  0
    4.5012   -1.2533    0.4235 C   0  0  0  0  0  0  0  0  0  0  0  0
    4.1156   -2.2273   -0.5071 C   0  0  0  0  0  0  0  0  0  0  0  0
    5.0774   -3.0446   -1.1038 C   0  0  0  0  0  0  0  0  0  0  0  0
    6.4207   -2.8942   -0.7628 C   0  0  0  0  0  0  0  0  0  0  0  0
    6.8054   -1.9304    0.1717 C   0  0  0  0  0  0  0  0  0  0  0  0
    5.8484   -1.1095    0.7712 C   0  0  0  0  0  0  0  0  0  0  0  0
    4.6131    1.2326    0.9383 H   0  0  0  0  0  0  0  0  0  0  0  0
    1.4365    0.4213    2.7473 H   0  0  0  0  0  0  0  0  0  0  0  0
   -0.0562    2.1309    3.6348 H   0  0  0  0  0  0  0  0  0  0  0  0
    0.5223    4.5232    3.4275 H   0  0  0  0  0  0  0  0  0  0  0  0
    2.0907    5.1793    5.0961 H   0  0  0  0  0  0  0  0  0  0  0  0
    1.6587    6.9327    6.7741 H   0  0  0  0  0  0  0  0  0  0  0  0
    1.8622   11.8462    6.4265 H   0  0  0  0  0  0  0  0  0  0  0  0
    0.0054   10.0420    4.7797 H   0  0  0  0  0  0  0  0  0  0  0  0
   -1.7041   11.3237    3.5455 H   0  0  0  0  0  0  0  0  0  0  0  0
   -2.1341   13.3477    2.1734 H   0  0  0  0  0  0  0  0  0  0  0  0
   -0.6294   15.3275    2.4100 H   0  0  0  0  0  0  0  0  0  0  0  0
    1.2361   15.1991    4.0645 H   0  0  0  0  0  0  0  0  0  0  0  0
    4.4526   10.2828    3.8696 H   0  0  0  0  0  0  0  0  0  0  0  0
    3.3760    8.1386    2.2117 H   0  0  0  0  0  0  0  0  0  0  0  0
    4.1998    3.4619    1.4308 H   0  0  0  0  0  0  0  0  0  0  0  0
    3.0665   -2.3562   -0.7620 H   0  0  0  0  0  0  0  0  0  0  0  0
    4.7749   -3.8026   -1.8224 H   0  0  0  0  0  0  0  0  0  0  0  0
    7.1678   -3.5396   -1.2188 H   0  0  0  0  0  0  0  0  0  0  0  0
    7.8540   -1.8336    0.4440 H   0  0  0  0  0  0  0  0  0  0  0  0
    6.1643   -0.3924    1.5252 H   0  0  0  0  0  0  0  0  0  0  0  0
  1  2  2  0  0  0  0
  2  3  1  0  0  0  0
  2 29  1  0  0  0  0
  3  4  1  0  0  0  0
  3 35  1  0  0  0  0
  4  5  1  0  0  0  0
  4 28  2  0  0  0  0
  5  6  2  0  0  0  0
  5 36  1  0  0  0  0
  6  7  1  0  0  0  0
  6 37  1  0  0  0  0
  7  8  2  0  0  0  0
  7 38  1  0  0  0  0
  8  9  1  0  0  0  0
  8 28  1  0  0  0  0
  9 10  2  0  0  0  0
  9 11  1  0  0  0  0
 11 12  1  0  0  0  0
 11 27  2  0  0  0  0
 12 13  2  0  0  0  0
 12 39  1  0  0  0  0
 13 14  1  0  0  0  0
 13 40  1  0  0  0  0
 14 15  1  0  0  0  0
 14 26  2  0  0  0  0
 15 16  1  0  0  0  0
 15 24  2  0  0  0  0
 16 17  2  0  0  0  0
 16 41  1  0  0  0  0
 17 18  1  0  0  0  0
 17 42  1  0  0  0  0
 18 19  1  0  0  0  0
 18 23  2  0  0  0  0
 19 20  2  0  0  0  0
 19 43  1  0  0  0  0
 20 21  1  0  0  0  0
 20 44  1  0  0  0  0
 21 22  2  0  0  0  0
 21 45  1  0  0  0  0
 22 23  1  0  0  0  0
 22 46  1  0  0  0  0
 24 25  1  0  0  0  0
 25 26  1  0  0  0  0
 25 47  1  0  0  0  0
 26 27  1  0  0  0  0
 27 48  1  0  0  0  0
 28 49  1  0  0  0  0
 29 30  1  0  0  0  0
 29 34  2  0  0  0  0
 30 31  2  0  0  0  0
 30 50  1  0  0  0  0
 31 32  1  0  0  0  0
 31 51  1  0  0  0  0
 32 33  2  0  0  0  0
 32 52  1  0  0  0  0
 33 34  1  0  0  0  0
 33 53  1  0  0  0  0
 34 54  1  0  0  0  0
M  END
$$$$
