CHEMBL3671575
 OpenBabel04072215373D

 67 70  0  0  1  0  0  0  0  0999 V2000
    4.7833   -1.9486   -1.3902 C   0  0  0  0  0  0  0  0  0  0  0  0
    4.2885   -0.8610   -0.7895 C   0  0  0  0  0  0  0  0  0  0  0  0
    5.1568   -0.0636    0.1148 C   0  0  0  0  0  0  0  0  0  0  0  0
    6.3386   -0.3550    0.2710 O   0  0  0  0  0  0  0  0  0  0  0  0
    4.5121    0.9920    0.7279 N   0  0  0  0  0  0  0  0  0  0  0  0
    5.2255    2.0381    1.3567 C   0  0  0  0  0  0  0  0  0  0  0  0
    6.4205    2.4974    0.7794 C   0  0  0  0  0  0  0  0  0  0  0  0
    7.1415    3.5716    1.3388 C   0  0  0  0  0  0  0  0  0  0  0  0
    8.2421    4.2250    0.7541 C   0  0  0  0  0  0  0  0  0  0  0  0
    8.6494    3.8998   -0.5657 N   0  0  0  0  0  0  0  0  0  0  0  0
    9.4426    4.7492   -1.3760 C   0  0  0  0  0  0  0  0  0  0  0  0
    9.1773    6.1257   -1.4552 C   0  0  0  0  0  0  0  0  0  0  0  0
   10.0094    6.9791   -2.1839 C   0  0  0  0  0  0  0  0  0  0  0  0
   11.1125    6.4555   -2.8535 C   0  0  0  0  0  0  0  0  0  0  0  0
   12.2771    7.6208   -3.7781 Br  0  0  0  0  0  0  0  0  0  0  0  0
   11.3710    5.0875   -2.8293 C   0  0  0  0  0  0  0  0  0  0  0  0
   10.5301    4.2480   -2.1005 C   0  0  0  0  0  0  0  0  0  0  0  0
   10.7946    2.9323   -2.0683 F   0  0  0  0  0  0  0  0  0  0  0  0
    8.8859    5.2325    1.3783 N   0  0  0  0  0  0  0  0  0  0  0  0
    8.4240    5.6048    2.5702 C   0  0  0  0  0  0  0  0  0  0  0  0
    7.3582    5.0951    3.1872 N   0  0  0  0  0  0  0  0  0  0  0  0
    6.7173    4.1108    2.5542 C   0  0  0  0  0  0  0  0  0  0  0  0
    5.5398    3.6492    3.1122 C   0  0  0  0  0  0  0  0  0  0  0  0
    4.7314    2.6768    2.4996 C   0  0  0  0  0  0  0  0  0  0  0  0
    3.4909    2.3098    2.9894 O   0  0  0  0  0  0  0  0  0  0  0  0
    2.9515    3.2313    3.9568 C   0  0  0  0  0  0  0  0  0  0  0  0
    1.4750    2.9734    4.2732 C   0  0  0  0  0  0  0  0  0  0  0  0
    0.9085    4.0475    5.0840 N   0  0  0  0  0  0  0  0  0  0  0  0
    0.5221    5.2410    4.5065 C   0  0  0  0  0  0  0  0  0  0  0  0
    0.6569    5.4504    3.2999 O   0  0  0  0  0  0  0  0  0  0  0  0
    0.1836    6.3949    5.4788 C   0  0  3  0  0  0  0  0  0  0  0  0
    1.4976    6.9268    6.0700 C   0  0  0  0  0  0  0  0  0  0  0  0
    1.0653    7.7292    7.2872 C   0  0  0  0  0  0  0  0  0  0  0  0
   -0.2190    7.0604    7.7493 C   0  0  0  0  0  0  0  0  0  0  0  0
   -0.6008    6.1354    6.6905 N   0  0  0  0  0  0  0  0  0  0  0  0
   -1.8645    5.5645    6.6127 C   0  0  0  0  0  0  0  0  0  0  0  0
   -2.2690    5.0065    5.5968 O   0  0  0  0  0  0  0  0  0  0  0  0
   -2.7076    5.6721    7.8831 C   0  0  0  0  0  0  0  0  0  0  0  0
   -3.9820    4.8457    7.8584 C   0  0  0  0  0  0  0  0  0  0  0  0
    4.2074   -2.5031   -2.1266 H   0  0  0  0  0  0  0  0  0  0  0  0
    5.7947   -2.2965   -1.1900 H   0  0  0  0  0  0  0  0  0  0  0  0
    3.3000   -0.4884   -1.0253 H   0  0  0  0  0  0  0  0  0  0  0  0
    3.5193    0.9330    0.9188 H   0  0  0  0  0  0  0  0  0  0  0  0
    6.7661    2.0572   -0.1566 H   0  0  0  0  0  0  0  0  0  0  0  0
    8.9215    2.9219   -0.6385 H   0  0  0  0  0  0  0  0  0  0  0  0
    8.3234    6.5445   -0.9279 H   0  0  0  0  0  0  0  0  0  0  0  0
    9.7948    8.0444   -2.1994 H   0  0  0  0  0  0  0  0  0  0  0  0
   12.2236    4.6649   -3.3490 H   0  0  0  0  0  0  0  0  0  0  0  0
    8.9462    6.4112    3.0713 H   0  0  0  0  0  0  0  0  0  0  0  0
    5.2537    4.1165    4.0495 H   0  0  0  0  0  0  0  0  0  0  0  0
    3.0467    4.2572    3.5790 H   0  0  0  0  0  0  0  0  0  0  0  0
    3.5136    3.1384    4.8951 H   0  0  0  0  0  0  0  0  0  0  0  0
    1.3603    2.0366    4.8272 H   0  0  0  0  0  0  0  0  0  0  0  0
    0.9017    2.8810    3.3443 H   0  0  0  0  0  0  0  0  0  0  0  0
    0.8974    3.9744    6.0941 H   0  0  0  0  0  0  0  0  0  0  0  0
   -0.3423    7.1770    4.9138 H   0  0  0  0  0  0  0  0  0  0  0  0
    2.0754    7.5216    5.3566 H   0  0  0  0  0  0  0  0  0  0  0  0
    2.1404    6.1009    6.4029 H   0  0  0  0  0  0  0  0  0  0  0  0
    0.8721    8.7709    7.0067 H   0  0  0  0  0  0  0  0  0  0  0  0
    1.8255    7.7330    8.0753 H   0  0  0  0  0  0  0  0  0  0  0  0
   -1.0041    7.8126    7.8868 H   0  0  0  0  0  0  0  0  0  0  0  0
   -0.0921    6.5061    8.6827 H   0  0  0  0  0  0  0  0  0  0  0  0
   -2.9846    6.7232    8.0151 H   0  0  0  0  0  0  0  0  0  0  0  0
   -2.1055    5.3568    8.7416 H   0  0  0  0  0  0  0  0  0  0  0  0
   -4.6249    5.1288    7.0203 H   0  0  0  0  0  0  0  0  0  0  0  0
   -4.5416    4.9966    8.7853 H   0  0  0  0  0  0  0  0  0  0  0  0
   -3.7533    3.7782    7.7686 H   0  0  0  0  0  0  0  0  0  0  0  0
  1  2  2  0  0  0  0
  1 40  1  0  0  0  0
  1 41  1  0  0  0  0
  2  3  1  0  0  0  0
  2 42  1  0  0  0  0
  3  4  2  0  0  0  0
  3  5  1  0  0  0  0
  5  6  1  0  0  0  0
  5 43  1  0  0  0  0
  6  7  1  0  0  0  0
  6 24  2  0  0  0  0
  7  8  2  0  0  0  0
  7 44  1  0  0  0  0
  8  9  1  0  0  0  0
  8 22  1  0  0  0  0
  9 10  1  0  0  0  0
  9 19  2  0  0  0  0
 10 11  1  0  0  0  0
 10 45  1  0  0  0  0
 11 12  1  0  0  0  0
 11 17  2  0  0  0  0
 12 13  2  0  0  0  0
 12 46  1  0  0  0  0
 13 14  1  0  0  0  0
 13 47  1  0  0  0  0
 14 15  1  0  0  0  0
 14 16  2  0  0  0  0
 16 17  1  0  0  0  0
 16 48  1  0  0  0  0
 17 18  1  0  0  0  0
 19 20  1  0  0  0  0
 20 21  2  0  0  0  0
 20 49  1  0  0  0  0
 21 22  1  0  0  0  0
 22 23  2  0  0  0  0
 23 24  1  0  0  0  0
 23 50  1  0  0  0  0
 24 25  1  0  0  0  0
 25 26  1  0  0  0  0
 26 27  1  0  0  0  0
 26 51  1  0  0  0  0
 26 52  1  0  0  0  0
 27 28  1  0  0  0  0
 27 53  1  0  0  0  0
 27 54  1  0  0  0  0
 28 29  1  0  0  0  0
 28 55  1  0  0  0  0
 29 30  2  0  0  0  0
 29 31  1  0  0  0  0
 31 32  1  0  0  0  0
 31 35  1  0  0  0  0
 31 56  1  0  0  0  0
 32 33  1  0  0  0  0
 32 57  1  0  0  0  0
 32 58  1  0  0  0  0
 33 34  1  0  0  0  0
 33 59  1  0  0  0  0
 33 60  1  0  0  0  0
 34 35  1  0  0  0  0
 34 61  1  0  0  0  0
 34 62  1  0  0  0  0
 35 36  1  0  0  0  0
 36 37  2  0  0  0  0
 36 38  1  0  0  0  0
 38 39  1  0  0  0  0
 38 63  1  0  0  0  0
 38 64  1  0  0  0  0
 39 65  1  0  0  0  0
 39 66  1  0  0  0  0
 39 67  1  0  0  0  0
M  END
$$$$
