CHEMBL3891581
 OpenBabel04072215373D

 66 70  0  0  0  0  0  0  0  0999 V2000
    4.8768   -5.0603  -10.9525 C   0  0  0  0  0  0  0  0  0  0  0  0
    5.9747   -4.3269  -10.3083 N   0  0  0  0  0  0  0  0  0  0  0  0
    5.8731   -2.9020  -10.6647 C   0  0  0  0  0  0  0  0  0  0  0  0
    6.8510   -2.0113   -9.8914 C   0  0  0  0  0  0  0  0  0  0  0  0
    6.7362   -2.2044   -8.3698 C   0  0  0  0  0  0  0  0  0  0  0  0
    5.4618   -1.6191   -7.7706 C   0  0  0  0  0  0  0  0  0  0  0  0
    5.2149   -1.6890   -6.4001 C   0  0  0  0  0  0  0  0  0  0  0  0
    4.0463   -1.1204   -5.8836 C   0  0  0  0  0  0  0  0  0  0  0  0
    3.1205   -0.5226   -6.7359 C   0  0  0  0  0  0  0  0  0  0  0  0
    1.9638    0.0714   -6.2185 N   0  0  0  0  0  0  0  0  0  0  0  0
    0.7281    0.1412   -6.8679 C   0  0  0  0  0  0  0  0  0  0  0  0
   -0.0785    1.1584   -6.5439 N   0  0  0  0  0  0  0  0  0  0  0  0
   -1.3227    1.1324   -7.0760 C   0  0  0  0  0  0  0  0  0  0  0  0
   -1.8007    0.1347   -7.9005 C   0  0  0  0  0  0  0  0  0  0  0  0
   -3.4431    0.1485   -8.3838 Cl  0  0  0  0  0  0  0  0  0  0  0  0
   -0.8919   -0.8523   -8.2238 C   0  0  0  0  0  0  0  0  0  0  0  0
   -1.2267   -2.0940   -9.0141 C   0  0  0  0  0  0  0  0  0  0  0  0
   -1.6437   -1.9211  -10.4887 C   0  0  0  0  0  0  0  0  0  0  0  0
   -1.8833   -3.2164  -11.2673 C   0  0  0  0  0  0  0  0  0  0  0  0
   -1.5408   -4.4660  -10.7024 C   0  0  0  0  0  0  0  0  0  0  0  0
   -1.6889   -5.6604  -11.4053 C   0  0  0  0  0  0  0  0  0  0  0  0
   -2.1316   -5.6337  -12.7143 C   0  0  0  0  0  0  0  0  0  0  0  0
   -2.4979   -4.4178  -13.2854 C   0  0  0  0  0  0  0  0  0  0  0  0
   -2.4438   -3.1928  -12.5740 C   0  0  0  0  0  0  0  0  0  0  0  0
   -3.1646   -1.9850  -13.1974 C   0  0  0  0  0  0  0  0  0  0  0  0
   -4.6169   -1.8667  -12.8018 C   0  0  0  0  0  0  0  0  0  0  0  0
   -5.5085   -2.4826  -13.6311 N   0  0  0  0  0  0  0  0  0  0  0  0
   -4.9661   -1.2599  -11.7987 O   0  0  0  0  0  0  0  0  0  0  0  0
   -2.7792   -1.6220  -14.6393 C   0  0  0  0  0  0  0  0  0  0  0  0
   -2.4570   -0.6795  -13.5275 C   0  0  0  0  0  0  0  0  0  0  0  0
    0.3701   -0.8350   -7.7121 N   0  0  0  0  0  0  0  0  0  0  0  0
    3.4618   -0.4810   -8.0831 C   0  0  0  0  0  0  0  0  0  0  0  0
    4.5998   -0.9945   -8.6059 N   0  0  0  0  0  0  0  0  0  0  0  0
    6.9236   -3.7007   -8.0824 C   0  0  0  0  0  0  0  0  0  0  0  0
    5.9255   -4.5600   -8.8585 C   0  0  0  0  0  0  0  0  0  0  0  0
    4.9004   -4.9245  -12.0391 H   0  0  0  0  0  0  0  0  0  0  0  0
    3.8955   -4.7273  -10.5899 H   0  0  0  0  0  0  0  0  0  0  0  0
    4.9630   -6.1351  -10.7607 H   0  0  0  0  0  0  0  0  0  0  0  0
    4.8469   -2.5424  -10.5315 H   0  0  0  0  0  0  0  0  0  0  0  0
    6.1001   -2.7928  -11.7330 H   0  0  0  0  0  0  0  0  0  0  0  0
    6.6922   -0.9614  -10.1667 H   0  0  0  0  0  0  0  0  0  0  0  0
    7.8753   -2.2565  -10.2030 H   0  0  0  0  0  0  0  0  0  0  0  0
    7.5656   -1.6560   -7.9035 H   0  0  0  0  0  0  0  0  0  0  0  0
    5.9145   -2.1769   -5.7292 H   0  0  0  0  0  0  0  0  0  0  0  0
    3.8456   -1.1821   -4.8173 H   0  0  0  0  0  0  0  0  0  0  0  0
    2.1230    0.9554   -5.7485 H   0  0  0  0  0  0  0  0  0  0  0  0
   -1.9589    1.9631   -6.7793 H   0  0  0  0  0  0  0  0  0  0  0  0
   -1.9925   -2.6536   -8.4627 H   0  0  0  0  0  0  0  0  0  0  0  0
   -0.3211   -2.7175   -8.9924 H   0  0  0  0  0  0  0  0  0  0  0  0
   -0.8528   -1.3635  -11.0067 H   0  0  0  0  0  0  0  0  0  0  0  0
   -2.5532   -1.3198  -10.5407 H   0  0  0  0  0  0  0  0  0  0  0  0
   -1.1686   -4.5492   -9.6849 H   0  0  0  0  0  0  0  0  0  0  0  0
   -1.4524   -6.6061  -10.9248 H   0  0  0  0  0  0  0  0  0  0  0  0
   -2.2288   -6.5561  -13.2791 H   0  0  0  0  0  0  0  0  0  0  0  0
   -2.8849   -4.4290  -14.3024 H   0  0  0  0  0  0  0  0  0  0  0  0
   -5.2174   -3.0284  -14.4275 H   0  0  0  0  0  0  0  0  0  0  0  0
   -6.4851   -2.4579  -13.3740 H   0  0  0  0  0  0  0  0  0  0  0  0
   -3.5706   -1.3558  -15.3311 H   0  0  0  0  0  0  0  0  0  0  0  0
   -1.9404   -2.1220  -15.1113 H   0  0  0  0  0  0  0  0  0  0  0  0
   -3.0414    0.2359  -13.4715 H   0  0  0  0  0  0  0  0  0  0  0  0
   -1.4176   -0.5486  -13.2603 H   0  0  0  0  0  0  0  0  0  0  0  0
    2.8128   -0.0064   -8.8139 H   0  0  0  0  0  0  0  0  0  0  0  0
    6.8394   -3.9194   -7.0121 H   0  0  0  0  0  0  0  0  0  0  0  0
    7.9434   -3.9913   -8.3715 H   0  0  0  0  0  0  0  0  0  0  0  0
    4.9164   -4.3940   -8.4613 H   0  0  0  0  0  0  0  0  0  0  0  0
    6.1746   -5.6121   -8.6681 H   0  0  0  0  0  0  0  0  0  0  0  0
  1  2  1  0  0  0  0
  1 36  1  0  0  0  0
  1 37  1  0  0  0  0
  1 38  1  0  0  0  0
  2  3  1  0  0  0  0
  2 35  1  0  0  0  0
  3  4  1  0  0  0  0
  3 39  1  0  0  0  0
  3 40  1  0  0  0  0
  4  5  1  0  0  0  0
  4 41  1  0  0  0  0
  4 42  1  0  0  0  0
  5  6  1  0  0  0  0
  5 34  1  0  0  0  0
  5 43  1  0  0  0  0
  6  7  1  0  0  0  0
  6 33  2  0  0  0  0
  7  8  2  0  0  0  0
  7 44  1  0  0  0  0
  8  9  1  0  0  0  0
  8 45  1  0  0  0  0
  9 10  1  0  0  0  0
  9 32  2  0  0  0  0
 10 11  1  0  0  0  0
 10 46  1  0  0  0  0
 11 12  1  0  0  0  0
 11 31  2  0  0  0  0
 12 13  2  0  0  0  0
 13 14  1  0  0  0  0
 13 47  1  0  0  0  0
 14 15  1  0  0  0  0
 14 16  2  0  0  0  0
 16 17  1  0  0  0  0
 16 31  1  0  0  0  0
 17 18  1  0  0  0  0
 17 48  1  0  0  0  0
 17 49  1  0  0  0  0
 18 19  1  0  0  0  0
 18 50  1  0  0  0  0
 18 51  1  0  0  0  0
 19 20  1  0  0  0  0
 19 24  2  0  0  0  0
 20 21  2  0  0  0  0
 20 52  1  0  0  0  0
 21 22  1  0  0  0  0
 21 53  1  0  0  0  0
 22 23  2  0  0  0  0
 22 54  1  0  0  0  0
 23 24  1  0  0  0  0
 23 55  1  0  0  0  0
 24 25  1  0  0  0  0
 25 26  1  0  0  0  0
 25 29  1  0  0  0  0
 25 30  1  0  0  0  0
 26 27  1  0  0  0  0
 26 28  2  0  0  0  0
 27 56  1  0  0  0  0
 27 57  1  0  0  0  0
 29 30  1  0  0  0  0
 29 58  1  0  0  0  0
 29 59  1  0  0  0  0
 30 60  1  0  0  0  0
 30 61  1  0  0  0  0
 32 33  1  0  0  0  0
 32 62  1  0  0  0  0
 34 35  1  0  0  0  0
 34 63  1  0  0  0  0
 34 64  1  0  0  0  0
 35 65  1  0  0  0  0
 35 66  1  0  0  0  0
M  END
$$$$
