CHEMBL1688215
 OpenBabel04072215363D

 27 29  0  0  0  0  0  0  0  0999 V2000
   -2.0713    0.0142    0.9590 N   0  0  0  0  0  0  0  0  0  0  0  0
   -0.7804    0.0082    0.4769 C   0  0  0  0  0  0  0  0  0  0  0  0
   -0.3008   -1.1587    0.0418 N   0  0  0  0  0  0  0  0  0  0  0  0
    0.9442   -1.1420   -0.4580 C   0  0  0  0  0  0  0  0  0  0  0  0
    1.7150   -0.0087   -0.5276 C   0  0  0  0  0  0  0  0  0  0  0  0
    1.1456    1.1516   -0.0360 C   0  0  0  0  0  0  0  0  0  0  0  0
    1.8594    2.4498   -0.0513 C   0  0  0  0  0  0  0  0  0  0  0  0
    2.7541    2.7777   -1.0901 C   0  0  0  0  0  0  0  0  0  0  0  0
    3.4859    3.9763   -1.1029 C   0  0  0  0  0  0  0  0  0  0  0  0
    3.3150    4.8862   -0.0474 C   0  0  0  0  0  0  0  0  0  0  0  0
    3.8581    6.1432    0.3279 C   0  0  0  0  0  0  0  0  0  0  0  0
    4.8063    6.7970   -0.3568 N   0  0  0  0  0  0  0  0  0  0  0  0
    3.3228    6.6082    1.4529 N   0  0  0  0  0  0  0  0  0  0  0  0
    2.4521    5.6485    1.8116 N   0  0  0  0  0  0  0  0  0  0  0  0
    2.4084    4.5786    0.9582 C   0  0  0  0  0  0  0  0  0  0  0  0
    1.6688    3.3865    0.9857 C   0  0  0  0  0  0  0  0  0  0  0  0
   -0.1002    1.1591    0.4928 N   0  0  0  0  0  0  0  0  0  0  0  0
   -2.3396   -0.9162    1.2484 H   0  0  0  0  0  0  0  0  0  0  0  0
   -2.2091    0.7728    1.6079 H   0  0  0  0  0  0  0  0  0  0  0  0
    1.3154   -2.0968   -0.8183 H   0  0  0  0  0  0  0  0  0  0  0  0
    2.7153   -0.0444   -0.9363 H   0  0  0  0  0  0  0  0  0  0  0  0
    2.8945    2.0986   -1.9293 H   0  0  0  0  0  0  0  0  0  0  0  0
    4.1735    4.1908   -1.9145 H   0  0  0  0  0  0  0  0  0  0  0  0
    5.0294    6.5618   -1.3148 H   0  0  0  0  0  0  0  0  0  0  0  0
    4.9885    7.7582   -0.0978 H   0  0  0  0  0  0  0  0  0  0  0  0
    1.9161    5.7816    2.6610 H   0  0  0  0  0  0  0  0  0  0  0  0
    0.9774    3.1806    1.7993 H   0  0  0  0  0  0  0  0  0  0  0  0
  1  2  1  0  0  0  0
  1 18  1  0  0  0  0
  1 19  1  0  0  0  0
  2  3  1  0  0  0  0
  2 17  2  0  0  0  0
  3  4  2  0  0  0  0
  4  5  1  0  0  0  0
  4 20  1  0  0  0  0
  5  6  2  0  0  0  0
  5 21  1  0  0  0  0
  6  7  1  0  0  0  0
  6 17  1  0  0  0  0
  7  8  1  0  0  0  0
  7 16  2  0  0  0  0
  8  9  2  0  0  0  0
  8 22  1  0  0  0  0
  9 10  1  0  0  0  0
  9 23  1  0  0  0  0
 10 11  1  0  0  0  0
 10 15  2  0  0  0  0
 11 12  1  0  0  0  0
 11 13  2  0  0  0  0
 12 24  1  0  0  0  0
 12 25  1  0  0  0  0
 13 14  1  0  0  0  0
 14 15  1  0  0  0  0
 14 26  1  0  0  0  0
 15 16  1  0  0  0  0
 16 27  1  0  0  0  0
M  END
$$$$
