CHEMBL3907551
 OpenBabel04072215373D

 48 52  0  0  0  0  0  0  0  0999 V2000
   -0.7871    1.2868    1.7987 C   0  0  0  0  0  0  0  0  0  0  0  0
   -0.0446    0.4488    0.8885 N   0  0  0  0  0  0  0  0  0  0  0  0
    1.0707   -0.2835    1.1679 C   0  0  0  0  0  0  0  0  0  0  0  0
    1.3882   -0.9765    0.0143 C   0  0  0  0  0  0  0  0  0  0  0  0
    2.5210   -1.8751   -0.1252 C   0  0  0  0  0  0  0  0  0  0  0  0
    2.8690   -2.4515   -1.3372 C   0  0  0  0  0  0  0  0  0  0  0  0
    3.9959   -3.1898   -1.5075 N   0  0  0  0  0  0  0  0  0  0  0  0
    4.7971   -3.3111   -0.4288 C   0  0  0  0  0  0  0  0  0  0  0  0
    6.0336   -3.9276   -0.5309 C   0  0  0  0  0  0  0  0  0  0  0  0
    6.9520   -3.9159    0.5359 C   0  0  0  0  0  0  0  0  0  0  0  0
    6.6342   -3.3425    1.7743 C   0  0  0  0  0  0  0  0  0  0  0  0
    7.5717   -3.1350    2.8314 N   0  0  0  0  0  0  0  0  0  0  0  0
    8.7709   -4.0074    2.8796 C   0  0  0  0  0  0  0  0  0  0  0  0
    8.5925   -5.1649    3.8364 C   0  0  0  0  0  0  0  0  0  0  0  0
    9.8163   -5.9993    4.1713 C   0  0  0  0  0  0  0  0  0  0  0  0
    8.6676   -6.6068    3.4192 C   0  0  0  0  0  0  0  0  0  0  0  0
    7.4562   -2.1923    3.9142 C   0  0  0  0  0  0  0  0  0  0  0  0
    8.1357   -2.3412    5.1400 C   0  0  0  0  0  0  0  0  0  0  0  0
    7.8457   -1.5531    6.2611 C   0  0  0  0  0  0  0  0  0  0  0  0
    6.8902   -0.5529    6.1810 C   0  0  0  0  0  0  0  0  0  0  0  0
    6.2980   -0.2860    4.9563 C   0  0  0  0  0  0  0  0  0  0  0  0
    6.6166   -1.0655    3.8361 C   0  0  0  0  0  0  0  0  0  0  0  0
    5.3003   -2.9022    1.8923 C   0  0  0  0  0  0  0  0  0  0  0  0
    4.4261   -2.7773    0.8178 C   0  0  0  0  0  0  0  0  0  0  0  0
    3.2804   -2.0809    0.9774 N   0  0  0  0  0  0  0  0  0  0  0  0
    0.4114   -0.5437   -0.9123 C   0  0  0  0  0  0  0  0  0  0  0  0
   -0.4627    0.3177   -0.3836 N   0  0  0  0  0  0  0  0  0  0  0  0
   -0.2428    1.3731    2.7422 H   0  0  0  0  0  0  0  0  0  0  0  0
   -1.7616    0.8224    1.9700 H   0  0  0  0  0  0  0  0  0  0  0  0
   -0.9077    2.2748    1.3471 H   0  0  0  0  0  0  0  0  0  0  0  0
    1.5404   -0.2627    2.1422 H   0  0  0  0  0  0  0  0  0  0  0  0
    2.2728   -2.3212   -2.2330 H   0  0  0  0  0  0  0  0  0  0  0  0
    6.3248   -4.3642   -1.4840 H   0  0  0  0  0  0  0  0  0  0  0  0
    7.9298   -4.3291    0.3192 H   0  0  0  0  0  0  0  0  0  0  0  0
    9.6431   -3.4069    3.1730 H   0  0  0  0  0  0  0  0  0  0  0  0
    9.0669   -4.3930    1.9032 H   0  0  0  0  0  0  0  0  0  0  0  0
    7.9047   -4.9492    4.6440 H   0  0  0  0  0  0  0  0  0  0  0  0
    9.9663   -6.2737    5.2088 H   0  0  0  0  0  0  0  0  0  0  0  0
   10.7370   -5.8292    3.6229 H   0  0  0  0  0  0  0  0  0  0  0  0
    8.0315   -7.3045    3.9549 H   0  0  0  0  0  0  0  0  0  0  0  0
    8.7994   -6.8403    2.3710 H   0  0  0  0  0  0  0  0  0  0  0  0
    8.8918   -3.1040    5.2897 H   0  0  0  0  0  0  0  0  0  0  0  0
    8.3560   -1.7478    7.2003 H   0  0  0  0  0  0  0  0  0  0  0  0
    6.6255    0.0262    7.0603 H   0  0  0  0  0  0  0  0  0  0  0  0
    5.5728    0.5178    4.8638 H   0  0  0  0  0  0  0  0  0  0  0  0
    6.1609   -0.7740    2.8937 H   0  0  0  0  0  0  0  0  0  0  0  0
    4.9177   -2.5668    2.8520 H   0  0  0  0  0  0  0  0  0  0  0  0
    0.2939   -0.8139   -1.9534 H   0  0  0  0  0  0  0  0  0  0  0  0
  1  2  1  0  0  0  0
  1 28  1  0  0  0  0
  1 29  1  0  0  0  0
  1 30  1  0  0  0  0
  2  3  1  0  0  0  0
  2 27  1  0  0  0  0
  3  4  2  0  0  0  0
  3 31  1  0  0  0  0
  4  5  1  0  0  0  0
  4 26  1  0  0  0  0
  5  6  1  0  0  0  0
  5 25  2  0  0  0  0
  6  7  2  0  0  0  0
  6 32  1  0  0  0  0
  7  8  1  0  0  0  0
  8  9  1  0  0  0  0
  8 24  2  0  0  0  0
  9 10  2  0  0  0  0
  9 33  1  0  0  0  0
 10 11  1  0  0  0  0
 10 34  1  0  0  0  0
 11 12  1  0  0  0  0
 11 23  2  0  0  0  0
 12 13  1  0  0  0  0
 12 17  1  0  0  0  0
 13 14  1  0  0  0  0
 13 35  1  0  0  0  0
 13 36  1  0  0  0  0
 14 15  1  0  0  0  0
 14 16  1  0  0  0  0
 14 37  1  0  0  0  0
 15 16  1  0  0  0  0
 15 38  1  0  0  0  0
 15 39  1  0  0  0  0
 16 40  1  0  0  0  0
 16 41  1  0  0  0  0
 17 18  1  0  0  0  0
 17 22  2  0  0  0  0
 18 19  2  0  0  0  0
 18 42  1  0  0  0  0
 19 20  1  0  0  0  0
 19 43  1  0  0  0  0
 20 21  2  0  0  0  0
 20 44  1  0  0  0  0
 21 22  1  0  0  0  0
 21 45  1  0  0  0  0
 22 46  1  0  0  0  0
 23 24  1  0  0  0  0
 23 47  1  0  0  0  0
 24 25  1  0  0  0  0
 26 27  2  0  0  0  0
 26 48  1  0  0  0  0
M  END
$$$$
