CHEMBL3747273
 OpenBabel04072215373D

 50 54  0  0  0  0  0  0  0  0999 V2000
    1.6270    0.8003    2.4067 C   0  0  0  0  0  0  0  0  0  0  0  0
    0.5211    0.2199    1.5216 C   0  0  0  0  0  0  0  0  0  0  0  0
    0.1911    1.1766    0.3773 C   0  0  0  0  0  0  0  0  0  0  0  0
    0.9108   -1.1338    1.0327 C   0  0  0  0  0  0  0  0  0  0  0  0
    0.4038   -2.4013    1.2068 C   0  0  0  0  0  0  0  0  0  0  0  0
    1.3512   -3.2566    0.5908 C   0  0  0  0  0  0  0  0  0  0  0  0
    1.2869   -4.6422    0.5989 N   0  0  0  0  0  0  0  0  0  0  0  0
    2.1285   -5.4152   -0.1672 C   0  0  0  0  0  0  0  0  0  0  0  0
    2.9665   -5.0820   -0.9917 O   0  0  0  0  0  0  0  0  0  0  0  0
    1.8317   -6.7928   -0.0498 N   0  0  0  0  0  0  0  0  0  0  0  0
    1.8718   -7.6496   -1.1382 C   0  0  0  0  0  0  0  0  0  0  0  0
    1.5520   -8.9199   -0.7393 C   0  0  0  0  0  0  0  0  0  0  0  0
    1.3912   -8.8898    0.6643 C   0  0  0  0  0  0  0  0  0  0  0  0
    1.1773   -9.9131    1.6136 C   0  0  0  0  0  0  0  0  0  0  0  0
    1.1579   -9.6042    2.9731 C   0  0  0  0  0  0  0  0  0  0  0  0
    1.0338  -10.6949    3.8170 O   0  0  0  0  0  0  0  0  0  0  0  0
    1.4452  -10.5277    5.1260 C   0  0  0  0  0  0  0  0  0  0  0  0
    2.6590   -9.9884    5.3655 N   0  0  0  0  0  0  0  0  0  0  0  0
    2.8736   -9.5552    6.6229 C   0  0  0  0  0  0  0  0  0  0  0  0
    1.9863   -9.5719    7.6326 N   0  0  0  0  0  0  0  0  0  0  0  0
    0.8309  -10.1763    7.3272 C   0  0  0  0  0  0  0  0  0  0  0  0
    0.5318  -10.7391    6.1108 C   0  0  0  0  0  0  0  0  0  0  0  0
   -0.8467  -11.2683    6.1259 C   0  0  0  0  0  0  0  0  0  0  0  0
   -1.5313  -10.4177    7.1341 N   0  0  0  0  0  0  0  0  0  0  0  0
   -0.4478  -10.1095    8.1258 C   0  0  0  0  0  0  0  0  0  0  0  0
    1.2480   -8.2682    3.3761 C   0  0  0  0  0  0  0  0  0  0  0  0
    1.4541   -7.2308    2.4522 C   0  0  0  0  0  0  0  0  0  0  0  0
    1.5283   -7.5593    1.0857 C   0  0  0  0  0  0  0  0  0  0  0  0
    2.3255   -2.5374    0.0275 N   0  0  0  0  0  0  0  0  0  0  0  0
    2.0526   -1.2168    0.3017 O   0  0  0  0  0  0  0  0  0  0  0  0
    1.3107    1.7475    2.8553 H   0  0  0  0  0  0  0  0  0  0  0  0
    2.5436    0.9880    1.8349 H   0  0  0  0  0  0  0  0  0  0  0  0
    1.8811    0.1094    3.2186 H   0  0  0  0  0  0  0  0  0  0  0  0
   -0.3799    0.1123    2.1387 H   0  0  0  0  0  0  0  0  0  0  0  0
    1.0553    1.3468   -0.2747 H   0  0  0  0  0  0  0  0  0  0  0  0
   -0.1264    2.1494    0.7706 H   0  0  0  0  0  0  0  0  0  0  0  0
   -0.6231    0.7857   -0.2426 H   0  0  0  0  0  0  0  0  0  0  0  0
   -0.4958   -2.6647    1.7402 H   0  0  0  0  0  0  0  0  0  0  0  0
    0.4977   -5.0626    1.0680 H   0  0  0  0  0  0  0  0  0  0  0  0
    2.1110   -7.2517   -2.1168 H   0  0  0  0  0  0  0  0  0  0  0  0
    1.5020   -9.7887   -1.3810 H   0  0  0  0  0  0  0  0  0  0  0  0
    1.0977  -10.9449    1.2888 H   0  0  0  0  0  0  0  0  0  0  0  0
    3.8398   -9.1026    6.8199 H   0  0  0  0  0  0  0  0  0  0  0  0
   -0.8490  -12.3059    6.4860 H   0  0  0  0  0  0  0  0  0  0  0  0
   -1.3474  -11.2336    5.1543 H   0  0  0  0  0  0  0  0  0  0  0  0
   -1.7376   -9.5362    6.6576 H   0  0  0  0  0  0  0  0  0  0  0  0
   -0.4506  -10.8587    8.9215 H   0  0  0  0  0  0  0  0  0  0  0  0
   -0.5964   -9.1098    8.5463 H   0  0  0  0  0  0  0  0  0  0  0  0
    1.2095   -8.0004    4.4292 H   0  0  0  0  0  0  0  0  0  0  0  0
    1.6191   -6.2203    2.8171 H   0  0  0  0  0  0  0  0  0  0  0  0
  1  2  1  0  0  0  0
  1 31  1  0  0  0  0
  1 32  1  0  0  0  0
  1 33  1  0  0  0  0
  2  3  1  0  0  0  0
  2  4  1  0  0  0  0
  2 34  1  0  0  0  0
  3 35  1  0  0  0  0
  3 36  1  0  0  0  0
  3 37  1  0  0  0  0
  4  5  2  0  0  0  0
  4 30  1  0  0  0  0
  5  6  1  0  0  0  0
  5 38  1  0  0  0  0
  6  7  1  0  0  0  0
  6 29  2  0  0  0  0
  7  8  1  0  0  0  0
  7 39  1  0  0  0  0
  8  9  2  0  0  0  0
  8 10  1  0  0  0  0
 10 11  1  0  0  0  0
 10 28  1  0  0  0  0
 11 12  2  0  0  0  0
 11 40  1  0  0  0  0
 12 13  1  0  0  0  0
 12 41  1  0  0  0  0
 13 14  1  0  0  0  0
 13 28  2  0  0  0  0
 14 15  2  0  0  0  0
 14 42  1  0  0  0  0
 15 16  1  0  0  0  0
 15 26  1  0  0  0  0
 16 17  1  0  0  0  0
 17 18  1  0  0  0  0
 17 22  2  0  0  0  0
 18 19  2  0  0  0  0
 19 20  1  0  0  0  0
 19 43  1  0  0  0  0
 20 21  2  0  0  0  0
 21 22  1  0  0  0  0
 21 25  1  0  0  0  0
 22 23  1  0  0  0  0
 23 24  1  0  0  0  0
 23 44  1  0  0  0  0
 23 45  1  0  0  0  0
 24 25  1  0  0  0  0
 24 46  1  0  0  0  0
 25 47  1  0  0  0  0
 25 48  1  0  0  0  0
 26 27  2  0  0  0  0
 26 49  1  0  0  0  0
 27 28  1  0  0  0  0
 27 50  1  0  0  0  0
 29 30  1  0  0  0  0
M  END
$$$$
