CHEMBL3694724
 OpenBabel04072215373D

 39 42  0  0  0  0  0  0  0  0999 V2000
    2.0136   -0.5491   -1.8683 N   0  0  0  0  0  0  0  0  0  0  0  0
    3.1214   -0.0552   -1.2417 C   0  0  0  0  0  0  0  0  0  0  0  0
    3.4568    1.1028   -1.4399 O   0  0  0  0  0  0  0  0  0  0  0  0
    3.7242   -1.0016   -0.4512 N   0  0  0  0  0  0  0  0  0  0  0  0
    4.8812   -0.8150    0.3359 C   0  0  0  0  0  0  0  0  0  0  0  0
    5.3807    0.4464    0.6536 C   0  0  0  0  0  0  0  0  0  0  0  0
    6.5800    0.5728    1.3501 C   0  0  0  0  0  0  0  0  0  0  0  0
    7.2776   -0.5661    1.7461 C   0  0  0  0  0  0  0  0  0  0  0  0
    6.7481   -1.8450    1.5388 C   0  0  0  0  0  0  0  0  0  0  0  0
    7.4274   -3.0502    2.0391 C   0  0  0  0  0  0  0  0  0  0  0  0
    7.5131   -4.3160    1.4769 C   0  0  0  0  0  0  0  0  0  0  0  0
    8.2256   -5.1865    2.2566 N   0  0  0  0  0  0  0  0  0  0  0  0
    8.5880   -4.4876    3.3094 C   0  0  0  0  0  0  0  0  0  0  0  0
    9.3420   -4.8696    4.4599 C   0  0  0  0  0  0  0  0  0  0  0  0
    9.6044   -3.9856    5.4546 C   0  0  0  0  0  0  0  0  0  0  0  0
   10.3801   -4.4144    6.6511 C   0  0  0  0  0  0  0  0  0  0  0  0
   10.7694   -5.6989    6.7473 N   0  0  0  0  0  0  0  0  0  0  0  0
   11.4515   -6.0385    7.8570 C   0  0  0  0  0  0  0  0  0  0  0  0
   11.7586   -5.1517    8.8634 C   0  0  0  0  0  0  0  0  0  0  0  0
   11.3185   -3.8656    8.6708 C   0  0  0  0  0  0  0  0  0  0  0  0
   10.6323   -3.4721    7.5831 N   0  0  0  0  0  0  0  0  0  0  0  0
    9.0840   -2.6158    5.3315 C   0  0  0  0  0  0  0  0  0  0  0  0
    8.3510   -2.2592    4.2673 C   0  0  0  0  0  0  0  0  0  0  0  0
    8.1173   -3.1771    3.2435 N   0  0  0  0  0  0  0  0  0  0  0  0
    5.5499   -1.9554    0.8117 C   0  0  0  0  0  0  0  0  0  0  0  0
    1.5259    0.1729   -2.3881 H   0  0  0  0  0  0  0  0  0  0  0  0
    1.4086   -1.1436   -1.3234 H   0  0  0  0  0  0  0  0  0  0  0  0
    3.4473   -1.9528   -0.6420 H   0  0  0  0  0  0  0  0  0  0  0  0
    4.8649    1.3560    0.3586 H   0  0  0  0  0  0  0  0  0  0  0  0
    6.9753    1.5605    1.5695 H   0  0  0  0  0  0  0  0  0  0  0  0
    8.2458   -0.4259    2.2184 H   0  0  0  0  0  0  0  0  0  0  0  0
    7.0968   -4.6443    0.5325 H   0  0  0  0  0  0  0  0  0  0  0  0
    9.6847   -5.8989    4.4995 H   0  0  0  0  0  0  0  0  0  0  0  0
   11.7535   -7.0795    7.9163 H   0  0  0  0  0  0  0  0  0  0  0  0
   12.3088   -5.4468    9.7446 H   0  0  0  0  0  0  0  0  0  0  0  0
   11.5086   -3.0888    9.4056 H   0  0  0  0  0  0  0  0  0  0  0  0
    9.2908   -1.9054    6.1268 H   0  0  0  0  0  0  0  0  0  0  0  0
    7.9319   -1.2678    4.1871 H   0  0  0  0  0  0  0  0  0  0  0  0
    5.1392   -2.9396    0.6040 H   0  0  0  0  0  0  0  0  0  0  0  0
  1  2  1  0  0  0  0
  1 26  1  0  0  0  0
  1 27  1  0  0  0  0
  2  3  2  0  0  0  0
  2  4  1  0  0  0  0
  4  5  1  0  0  0  0
  4 28  1  0  0  0  0
  5  6  1  0  0  0  0
  5 25  2  0  0  0  0
  6  7  2  0  0  0  0
  6 29  1  0  0  0  0
  7  8  1  0  0  0  0
  7 30  1  0  0  0  0
  8  9  2  0  0  0  0
  8 31  1  0  0  0  0
  9 10  1  0  0  0  0
  9 25  1  0  0  0  0
 10 11  2  0  0  0  0
 10 24  1  0  0  0  0
 11 12  1  0  0  0  0
 11 32  1  0  0  0  0
 12 13  2  0  0  0  0
 13 14  1  0  0  0  0
 13 24  1  0  0  0  0
 14 15  2  0  0  0  0
 14 33  1  0  0  0  0
 15 16  1  0  0  0  0
 15 22  1  0  0  0  0
 16 17  1  0  0  0  0
 16 21  2  0  0  0  0
 17 18  2  0  0  0  0
 18 19  1  0  0  0  0
 18 34  1  0  0  0  0
 19 20  2  0  0  0  0
 19 35  1  0  0  0  0
 20 21  1  0  0  0  0
 20 36  1  0  0  0  0
 22 23  2  0  0  0  0
 22 37  1  0  0  0  0
 23 24  1  0  0  0  0
 23 38  1  0  0  0  0
 25 39  1  0  0  0  0
M  END
$$$$
