CHEMBL4067869
 OpenBabel04072215383D

 67 73  0  0  1  0  0  0  0  0999 V2000
   18.7376   -3.2600   -1.8111 C   0  0  0  0  0  0  0  0  0  0  0  0
   17.3133   -2.8263   -1.7505 C   0  0  0  0  0  0  0  0  0  0  0  0
   16.3970   -3.0570   -2.7498 C   0  0  0  0  0  0  0  0  0  0  0  0
   14.8636   -2.4405   -2.3729 S   0  0  0  0  0  0  0  0  0  0  0  0
   15.3649   -1.8391   -0.8312 C   0  0  0  0  0  0  0  0  0  0  0  0
   14.6731   -1.1469    0.1852 C   0  0  0  0  0  0  0  0  0  0  0  0
   13.2911   -0.8277    0.0871 N   0  0  0  0  0  0  0  0  0  0  0  0
   12.5696   -1.1840   -0.9843 N   0  0  0  0  0  0  0  0  0  0  0  0
   11.3452   -0.7705   -0.6962 C   0  0  0  0  0  0  0  0  0  0  0  0
   10.2571   -0.9236   -1.4696 N   0  0  0  0  0  0  0  0  0  0  0  0
   10.1128   -1.6981   -2.6375 C   0  0  0  0  0  0  0  0  0  0  0  0
    9.1687   -1.3213   -3.5918 C   0  0  0  0  0  0  0  0  0  0  0  0
    9.0516   -2.0173   -4.8025 C   0  0  0  0  0  0  0  0  0  0  0  0
    9.8694   -3.1143   -5.1207 C   0  0  0  0  0  0  0  0  0  0  0  0
    9.7264   -3.7241   -6.3668 N   0  0  0  0  0  0  0  0  0  0  0  0
   10.8253   -4.5413   -6.9091 C   0  0  0  0  0  0  0  0  0  0  0  0
   10.6460   -4.6753   -8.4442 C   0  0  0  0  0  0  0  0  0  0  0  0
    9.3387   -5.2489   -8.8774 N   0  0  0  0  0  0  0  0  0  0  0  0
    9.2171   -6.6635   -8.4973 C   0  0  3  0  0  0  0  0  0  0  0  0
   10.2200   -7.6002   -9.2228 C   0  0  0  0  0  0  0  0  0  0  0  0
    9.3412   -8.7832   -9.6716 C   0  0  3  0  0  0  0  0  0  0  0  0
    8.5178   -8.3403  -10.8912 C   0  0  0  0  0  0  0  0  0  0  0  0
    7.5046   -7.3628  -10.2801 C   0  0  0  0  0  0  0  0  0  0  0  0
    7.8647   -7.3732   -8.7841 C   0  0  3  0  0  0  0  0  0  0  0  0
    8.2735   -8.8358   -8.5815 C   0  0  0  0  0  0  0  0  0  0  0  0
    8.2792   -4.4025   -8.2705 C   0  0  0  0  0  0  0  0  0  0  0  0
    8.3773   -4.2001   -6.7368 C   0  0  0  0  0  0  0  0  0  0  0  0
   10.8340   -3.4594   -4.1630 C   0  0  0  0  0  0  0  0  0  0  0  0
   11.6735   -4.4890   -4.3675 F   0  0  0  0  0  0  0  0  0  0  0  0
   10.9549   -2.7694   -2.9546 C   0  0  0  0  0  0  0  0  0  0  0  0
   11.2391   -0.0974    0.4824 N   0  0  0  0  0  0  0  0  0  0  0  0
   12.4562   -0.1502    0.9783 C   0  0  0  0  0  0  0  0  0  0  0  0
   12.8439    0.3708    2.1587 N   0  0  0  0  0  0  0  0  0  0  0  0
   15.3649   -0.7776    1.3028 N   0  0  0  0  0  0  0  0  0  0  0  0
   16.6587   -1.1168    1.3870 C   0  0  0  0  0  0  0  0  0  0  0  0
   17.3868   -1.7731    0.4844 N   0  0  0  0  0  0  0  0  0  0  0  0
   16.7184   -2.1288   -0.6404 C   0  0  0  0  0  0  0  0  0  0  0  0
   18.9634   -3.7540   -2.7633 H   0  0  0  0  0  0  0  0  0  0  0  0
   18.9576   -3.9660   -1.0048 H   0  0  0  0  0  0  0  0  0  0  0  0
   19.3995   -2.3943   -1.7158 H   0  0  0  0  0  0  0  0  0  0  0  0
   16.5508   -3.5586   -3.6956 H   0  0  0  0  0  0  0  0  0  0  0  0
    9.4165   -0.4551   -1.1611 H   0  0  0  0  0  0  0  0  0  0  0  0
    8.5392   -0.4508   -3.4288 H   0  0  0  0  0  0  0  0  0  0  0  0
    8.3391   -1.6463   -5.5345 H   0  0  0  0  0  0  0  0  0  0  0  0
   10.8504   -5.5291   -6.4326 H   0  0  0  0  0  0  0  0  0  0  0  0
   11.7940   -4.0599   -6.7303 H   0  0  0  0  0  0  0  0  0  0  0  0
   11.4823   -5.2391   -8.8705 H   0  0  0  0  0  0  0  0  0  0  0  0
   10.7259   -3.6681   -8.8784 H   0  0  0  0  0  0  0  0  0  0  0  0
    9.3920   -6.7706   -7.4194 H   0  0  0  0  0  0  0  0  0  0  0  0
   10.9931   -7.9296   -8.5187 H   0  0  0  0  0  0  0  0  0  0  0  0
   10.7225   -7.1320  -10.0768 H   0  0  0  0  0  0  0  0  0  0  0  0
    9.8989   -9.7075   -9.8335 H   0  0  0  0  0  0  0  0  0  0  0  0
    7.9964   -9.1947  -11.3384 H   0  0  0  0  0  0  0  0  0  0  0  0
    9.1281   -7.8702  -11.6685 H   0  0  0  0  0  0  0  0  0  0  0  0
    6.4885   -7.7490  -10.4270 H   0  0  0  0  0  0  0  0  0  0  0  0
    7.5560   -6.3703  -10.7357 H   0  0  0  0  0  0  0  0  0  0  0  0
    7.0496   -7.0426   -8.1365 H   0  0  0  0  0  0  0  0  0  0  0  0
    7.4656   -9.5427   -8.7956 H   0  0  0  0  0  0  0  0  0  0  0  0
    8.6824   -9.0376   -7.5857 H   0  0  0  0  0  0  0  0  0  0  0  0
    7.2835   -4.7769   -8.5310 H   0  0  0  0  0  0  0  0  0  0  0  0
    8.3387   -3.4121   -8.7435 H   0  0  0  0  0  0  0  0  0  0  0  0
    8.1538   -5.1372   -6.2116 H   0  0  0  0  0  0  0  0  0  0  0  0
    7.5995   -3.4829   -6.4540 H   0  0  0  0  0  0  0  0  0  0  0  0
   11.7227   -3.1058   -2.2661 H   0  0  0  0  0  0  0  0  0  0  0  0
   12.2255    1.0366    2.6111 H   0  0  0  0  0  0  0  0  0  0  0  0
   13.8338    0.4742    2.3702 H   0  0  0  0  0  0  0  0  0  0  0  0
   17.1757   -0.8253    2.2964 H   0  0  0  0  0  0  0  0  0  0  0  0
  1  2  1  0  0  0  0
  1 38  1  0  0  0  0
  1 39  1  0  0  0  0
  1 40  1  0  0  0  0
  2  3  2  0  0  0  0
  2 37  1  0  0  0  0
  3  4  1  0  0  0  0
  3 41  1  0  0  0  0
  4  5  1  0  0  0  0
  5  6  1  0  0  0  0
  5 37  2  0  0  0  0
  6  7  1  0  0  0  0
  6 34  2  0  0  0  0
  7  8  1  0  0  0  0
  7 32  1  0  0  0  0
  8  9  2  0  0  0  0
  9 10  1  0  0  0  0
  9 31  1  0  0  0  0
 10 11  1  0  0  0  0
 10 42  1  0  0  0  0
 11 12  1  0  0  0  0
 11 30  2  0  0  0  0
 12 13  2  0  0  0  0
 12 43  1  0  0  0  0
 13 14  1  0  0  0  0
 13 44  1  0  0  0  0
 14 15  1  0  0  0  0
 14 28  2  0  0  0  0
 15 16  1  0  0  0  0
 15 27  1  0  0  0  0
 16 17  1  0  0  0  0
 16 45  1  0  0  0  0
 16 46  1  0  0  0  0
 17 18  1  0  0  0  0
 17 47  1  0  0  0  0
 17 48  1  0  0  0  0
 18 19  1  0  0  0  0
 18 26  1  0  0  0  0
 19 20  1  0  0  0  0
 19 24  1  0  0  0  0
 19 49  1  0  0  0  0
 20 21  1  0  0  0  0
 20 50  1  0  0  0  0
 20 51  1  0  0  0  0
 21 22  1  0  0  0  0
 21 25  1  0  0  0  0
 21 52  1  0  0  0  0
 22 23  1  0  0  0  0
 22 53  1  0  0  0  0
 22 54  1  0  0  0  0
 23 24  1  0  0  0  0
 23 55  1  0  0  0  0
 23 56  1  0  0  0  0
 24 25  1  0  0  0  0
 24 57  1  0  0  0  0
 25 58  1  0  0  0  0
 25 59  1  0  0  0  0
 26 27  1  0  0  0  0
 26 60  1  0  0  0  0
 26 61  1  0  0  0  0
 27 62  1  0  0  0  0
 27 63  1  0  0  0  0
 28 29  1  0  0  0  0
 28 30  1  0  0  0  0
 30 64  1  0  0  0  0
 31 32  2  0  0  0  0
 32 33  1  0  0  0  0
 33 65  1  0  0  0  0
 33 66  1  0  0  0  0
 34 35  1  0  0  0  0
 35 36  2  0  0  0  0
 35 67  1  0  0  0  0
 36 37  1  0  0  0  0
M  END
$$$$
