CHEMBL1076194
 OpenBabel04072215353D

 77 81  0  0  0  0  0  0  0  0999 V2000
  -16.5775   -0.1012   -0.0111 C   0  0  0  0  0  0  0  0  0  0  0  0
  -15.6194   -1.0368    0.6719 C   0  0  0  0  0  0  0  0  0  0  0  0
  -16.1081   -2.0327    1.5205 C   0  0  0  0  0  0  0  0  0  0  0  0
  -15.2128   -2.8757    2.1899 C   0  0  0  0  0  0  0  0  0  0  0  0
  -13.8392   -2.7348    1.9994 C   0  0  0  0  0  0  0  0  0  0  0  0
  -13.3222   -1.7826    1.1150 C   0  0  0  0  0  0  0  0  0  0  0  0
  -11.9350   -1.6370    0.8367 N   0  0  0  0  0  0  0  0  0  0  0  0
  -10.8917   -2.4035    1.3540 C   0  0  0  0  0  0  0  0  0  0  0  0
  -11.0089   -3.3382    2.1456 O   0  0  0  0  0  0  0  0  0  0  0  0
   -9.5066   -2.0228    0.9555 C   0  0  0  0  0  0  0  0  0  0  0  0
   -8.4697   -2.2467    1.8703 C   0  0  0  0  0  0  0  0  0  0  0  0
   -7.1951   -1.7439    1.6254 C   0  0  0  0  0  0  0  0  0  0  0  0
   -6.9098   -1.0627    0.4314 C   0  0  0  0  0  0  0  0  0  0  0  0
   -5.6093   -0.2950    0.3833 C   0  0  0  0  0  0  0  0  0  0  0  0
   -7.8839   -1.0448   -0.5984 C   0  0  0  0  0  0  0  0  0  0  0  0
   -7.5371   -0.6840   -1.9287 N   0  0  0  0  0  0  0  0  0  0  0  0
   -8.4036   -0.1296   -2.8373 C   0  0  0  0  0  0  0  0  0  0  0  0
   -9.3855    0.6939   -2.5326 N   0  0  0  0  0  0  0  0  0  0  0  0
   -9.8033    1.2524   -3.6990 C   0  0  0  0  0  0  0  0  0  0  0  0
  -10.7469    2.2732   -3.9081 C   0  0  0  0  0  0  0  0  0  0  0  0
  -11.0226    2.6961   -5.2112 C   0  0  0  0  0  0  0  0  0  0  0  0
  -10.3941    2.0903   -6.2966 C   0  0  0  0  0  0  0  0  0  0  0  0
   -9.4570    1.0698   -6.1135 C   0  0  0  0  0  0  0  0  0  0  0  0
   -9.1489    0.6879   -4.7949 C   0  0  0  0  0  0  0  0  0  0  0  0
   -8.2798   -0.2509   -4.2301 N   0  0  0  0  0  0  0  0  0  0  0  0
   -7.4314   -1.1302   -4.9719 C   0  0  0  0  0  0  0  0  0  0  0  0
   -7.1529   -2.3907   -4.4713 C   0  0  0  0  0  0  0  0  0  0  0  0
   -6.2701   -3.1830   -5.1901 C   0  0  0  0  0  0  0  0  0  0  0  0
   -6.0231   -4.4825   -4.7518 N   0  0  0  0  0  0  0  0  0  0  0  0
   -4.7380   -5.0666   -5.1499 C   0  0  0  0  0  0  0  0  0  0  0  0
   -4.5990   -6.4687   -4.5480 C   0  0  0  0  0  0  0  0  0  0  0  0
   -5.7110   -7.3911   -5.0554 C   0  0  0  0  0  0  0  0  0  0  0  0
   -5.6261   -8.8066   -4.4785 C   0  0  0  0  0  0  0  0  0  0  0  0
   -5.7110   -8.8595   -3.0091 N   0  0  0  0  0  0  0  0  0  0  0  0
   -6.9656   -8.3005   -2.4994 C   0  0  0  0  0  0  0  0  0  0  0  0
   -5.5716  -10.2445   -2.5523 C   0  0  0  0  0  0  0  0  0  0  0  0
   -5.7335   -2.7529   -6.3384 N   0  0  0  0  0  0  0  0  0  0  0  0
   -6.0967   -1.5390   -6.7686 C   0  0  0  0  0  0  0  0  0  0  0  0
   -6.9395   -0.7034   -6.1446 N   0  0  0  0  0  0  0  0  0  0  0  0
   -9.1913   -1.4821   -0.2952 C   0  0  0  0  0  0  0  0  0  0  0  0
  -14.2295   -0.9223    0.4700 C   0  0  0  0  0  0  0  0  0  0  0  0
  -17.6168   -0.3180    0.2678 H   0  0  0  0  0  0  0  0  0  0  0  0
  -16.5009   -0.1990   -1.0980 H   0  0  0  0  0  0  0  0  0  0  0  0
  -16.3728    0.9347    0.2777 H   0  0  0  0  0  0  0  0  0  0  0  0
  -17.1760   -2.1603    1.6771 H   0  0  0  0  0  0  0  0  0  0  0  0
  -15.5968   -3.6332    2.8660 H   0  0  0  0  0  0  0  0  0  0  0  0
  -13.1941   -3.3948    2.5680 H   0  0  0  0  0  0  0  0  0  0  0  0
  -11.6882   -0.8701    0.2181 H   0  0  0  0  0  0  0  0  0  0  0  0
   -8.6602   -2.7699    2.8058 H   0  0  0  0  0  0  0  0  0  0  0  0
   -6.4351   -1.8449    2.3990 H   0  0  0  0  0  0  0  0  0  0  0  0
   -5.1325   -0.2851    1.3770 H   0  0  0  0  0  0  0  0  0  0  0  0
   -5.8003    0.7582    0.1479 H   0  0  0  0  0  0  0  0  0  0  0  0
   -4.8875   -0.7166   -0.3173 H   0  0  0  0  0  0  0  0  0  0  0  0
   -6.7852   -1.2802   -2.2598 H   0  0  0  0  0  0  0  0  0  0  0  0
  -11.2344    2.7367   -3.0563 H   0  0  0  0  0  0  0  0  0  0  0  0
  -11.7330    3.5042   -5.3764 H   0  0  0  0  0  0  0  0  0  0  0  0
  -10.6267    2.4248   -7.3059 H   0  0  0  0  0  0  0  0  0  0  0  0
   -8.9866    0.5928   -6.9708 H   0  0  0  0  0  0  0  0  0  0  0  0
   -7.6218   -2.7790   -3.5783 H   0  0  0  0  0  0  0  0  0  0  0  0
   -6.2421   -4.6418   -3.7746 H   0  0  0  0  0  0  0  0  0  0  0  0
   -3.9078   -4.4468   -4.7870 H   0  0  0  0  0  0  0  0  0  0  0  0
   -4.6584   -5.1403   -6.2405 H   0  0  0  0  0  0  0  0  0  0  0  0
   -4.6197   -6.4048   -3.4526 H   0  0  0  0  0  0  0  0  0  0  0  0
   -3.6226   -6.8877   -4.8215 H   0  0  0  0  0  0  0  0  0  0  0  0
   -5.6560   -7.4459   -6.1490 H   0  0  0  0  0  0  0  0  0  0  0  0
   -6.6929   -6.9620   -4.8285 H   0  0  0  0  0  0  0  0  0  0  0  0
   -4.6673   -9.2372   -4.7969 H   0  0  0  0  0  0  0  0  0  0  0  0
   -6.4145   -9.4191   -4.9353 H   0  0  0  0  0  0  0  0  0  0  0  0
   -7.0304   -7.2249   -2.6945 H   0  0  0  0  0  0  0  0  0  0  0  0
   -7.0169   -8.4017   -1.4098 H   0  0  0  0  0  0  0  0  0  0  0  0
   -7.8440   -8.7889   -2.9351 H   0  0  0  0  0  0  0  0  0  0  0  0
   -4.6093  -10.6614   -2.8689 H   0  0  0  0  0  0  0  0  0  0  0  0
   -6.3725  -10.8870   -2.9362 H   0  0  0  0  0  0  0  0  0  0  0  0
   -5.5877  -10.2901   -1.4577 H   0  0  0  0  0  0  0  0  0  0  0  0
   -5.6516   -1.1948   -7.6964 H   0  0  0  0  0  0  0  0  0  0  0  0
   -9.9631   -1.4299   -1.0622 H   0  0  0  0  0  0  0  0  0  0  0  0
  -13.8622   -0.1513   -0.2036 H   0  0  0  0  0  0  0  0  0  0  0  0
  1  2  1  0  0  0  0
  1 42  1  0  0  0  0
  1 43  1  0  0  0  0
  1 44  1  0  0  0  0
  2  3  1  0  0  0  0
  2 41  2  0  0  0  0
  3  4  2  0  0  0  0
  3 45  1  0  0  0  0
  4  5  1  0  0  0  0
  4 46  1  0  0  0  0
  5  6  2  0  0  0  0
  5 47  1  0  0  0  0
  6  7  1  0  0  0  0
  6 41  1  0  0  0  0
  7  8  1  0  0  0  0
  7 48  1  0  0  0  0
  8  9  2  0  0  0  0
  8 10  1  0  0  0  0
 10 11  1  0  0  0  0
 10 40  2  0  0  0  0
 11 12  2  0  0  0  0
 11 49  1  0  0  0  0
 12 13  1  0  0  0  0
 12 50  1  0  0  0  0
 13 14  1  0  0  0  0
 13 15  2  0  0  0  0
 14 51  1  0  0  0  0
 14 52  1  0  0  0  0
 14 53  1  0  0  0  0
 15 16  1  0  0  0  0
 15 40  1  0  0  0  0
 16 17  1  0  0  0  0
 16 54  1  0  0  0  0
 17 18  2  0  0  0  0
 17 25  1  0  0  0  0
 18 19  1  0  0  0  0
 19 20  1  0  0  0  0
 19 24  2  0  0  0  0
 20 21  2  0  0  0  0
 20 55  1  0  0  0  0
 21 22  1  0  0  0  0
 21 56  1  0  0  0  0
 22 23  2  0  0  0  0
 22 57  1  0  0  0  0
 23 24  1  0  0  0  0
 23 58  1  0  0  0  0
 24 25  1  0  0  0  0
 25 26  1  0  0  0  0
 26 27  1  0  0  0  0
 26 39  2  0  0  0  0
 27 28  2  0  0  0  0
 27 59  1  0  0  0  0
 28 29  1  0  0  0  0
 28 37  1  0  0  0  0
 29 30  1  0  0  0  0
 29 60  1  0  0  0  0
 30 31  1  0  0  0  0
 30 61  1  0  0  0  0
 30 62  1  0  0  0  0
 31 32  1  0  0  0  0
 31 63  1  0  0  0  0
 31 64  1  0  0  0  0
 32 33  1  0  0  0  0
 32 65  1  0  0  0  0
 32 66  1  0  0  0  0
 33 34  1  0  0  0  0
 33 67  1  0  0  0  0
 33 68  1  0  0  0  0
 34 35  1  0  0  0  0
 34 36  1  0  0  0  0
 35 69  1  0  0  0  0
 35 70  1  0  0  0  0
 35 71  1  0  0  0  0
 36 72  1  0  0  0  0
 36 73  1  0  0  0  0
 36 74  1  0  0  0  0
 37 38  2  0  0  0  0
 38 39  1  0  0  0  0
 38 75  1  0  0  0  0
 40 76  1  0  0  0  0
 41 77  1  0  0  0  0
M  END
$$$$
