CHEMBL329457
 OpenBabel04072215363D

 37 40  0  0  0  0  0  0  0  0999 V2000
    2.8320    1.0948   -0.0927 C   0  0  0  0  0  0  0  0  0  0  0  0
    2.2959   -0.2170    0.0274 O   0  0  0  0  0  0  0  0  0  0  0  0
    3.1678   -1.2136    0.3677 C   0  0  0  0  0  0  0  0  0  0  0  0
    4.5426   -1.0724    0.5572 C   0  0  0  0  0  0  0  0  0  0  0  0
    5.3208   -2.1793    0.9164 C   0  0  0  0  0  0  0  0  0  0  0  0
    4.7309   -3.4367    1.0836 C   0  0  0  0  0  0  0  0  0  0  0  0
    5.5445   -4.5868    1.4635 C   0  0  0  0  0  0  0  0  0  0  0  0
    6.1776   -5.4819    0.4477 C   0  0  0  0  0  0  0  0  0  0  0  0
    6.9119   -6.5262    0.6934 N   0  0  0  0  0  0  0  0  0  0  0  0
    7.1173   -6.8230    2.0172 C   0  0  0  0  0  0  0  0  0  0  0  0
    7.8216   -7.8345    2.6481 C   0  0  0  0  0  0  0  0  0  0  0  0
    8.5494   -8.9026    1.9852 C   0  0  0  0  0  0  0  0  0  0  0  0
    9.6847   -9.4722    2.5707 C   0  0  0  0  0  0  0  0  0  0  0  0
   10.3505  -10.5166    1.9295 C   0  0  0  0  0  0  0  0  0  0  0  0
    9.8563  -10.9676    0.7170 C   0  0  0  0  0  0  0  0  0  0  0  0
    8.7656  -10.4503    0.1161 N   0  0  0  0  0  0  0  0  0  0  0  0
    8.1431   -9.4301    0.7607 C   0  0  0  0  0  0  0  0  0  0  0  0
    7.6521   -7.5697    4.0240 C   0  0  0  0  0  0  0  0  0  0  0  0
    6.9068   -6.4919    4.2677 N   0  0  0  0  0  0  0  0  0  0  0  0
    6.5713   -6.0324    3.0384 N   0  0  0  0  0  0  0  0  0  0  0  0
    5.7869   -4.9236    2.7400 C   0  0  0  0  0  0  0  0  0  0  0  0
    3.3546   -3.5788    0.8888 C   0  0  0  0  0  0  0  0  0  0  0  0
    2.5816   -2.4713    0.5311 C   0  0  0  0  0  0  0  0  0  0  0  0
    2.0019    1.7779   -0.2969 H   0  0  0  0  0  0  0  0  0  0  0  0
    3.5308    1.1556   -0.9334 H   0  0  0  0  0  0  0  0  0  0  0  0
    3.3055    1.4192    0.8399 H   0  0  0  0  0  0  0  0  0  0  0  0
    5.0415   -0.1166    0.4352 H   0  0  0  0  0  0  0  0  0  0  0  0
    6.3909   -2.0472    1.0646 H   0  0  0  0  0  0  0  0  0  0  0  0
    5.9894   -5.2104   -0.6053 H   0  0  0  0  0  0  0  0  0  0  0  0
   10.0709   -9.1070    3.5184 H   0  0  0  0  0  0  0  0  0  0  0  0
   11.2347  -10.9678    2.3651 H   0  0  0  0  0  0  0  0  0  0  0  0
   10.3380  -11.7802    0.1809 H   0  0  0  0  0  0  0  0  0  0  0  0
    7.2662   -9.0521    0.2419 H   0  0  0  0  0  0  0  0  0  0  0  0
    8.0366   -8.1306    4.8666 H   0  0  0  0  0  0  0  0  0  0  0  0
    5.4025   -4.3782    3.5920 H   0  0  0  0  0  0  0  0  0  0  0  0
    2.8703   -4.5448    1.0145 H   0  0  0  0  0  0  0  0  0  0  0  0
    1.5104   -2.5880    0.3818 H   0  0  0  0  0  0  0  0  0  0  0  0
  1  2  1  0  0  0  0
  1 24  1  0  0  0  0
  1 25  1  0  0  0  0
  1 26  1  0  0  0  0
  2  3  1  0  0  0  0
  3  4  1  0  0  0  0
  3 23  2  0  0  0  0
  4  5  2  0  0  0  0
  4 27  1  0  0  0  0
  5  6  1  0  0  0  0
  5 28  1  0  0  0  0
  6  7  1  0  0  0  0
  6 22  2  0  0  0  0
  7  8  1  0  0  0  0
  7 21  2  0  0  0  0
  8  9  2  0  0  0  0
  8 29  1  0  0  0  0
  9 10  1  0  0  0  0
 10 11  2  0  0  0  0
 10 20  1  0  0  0  0
 11 12  1  0  0  0  0
 11 18  1  0  0  0  0
 12 13  1  0  0  0  0
 12 17  2  0  0  0  0
 13 14  2  0  0  0  0
 13 30  1  0  0  0  0
 14 15  1  0  0  0  0
 14 31  1  0  0  0  0
 15 16  2  0  0  0  0
 15 32  1  0  0  0  0
 16 17  1  0  0  0  0
 17 33  1  0  0  0  0
 18 19  2  0  0  0  0
 18 34  1  0  0  0  0
 19 20  1  0  0  0  0
 20 21  1  0  0  0  0
 21 35  1  0  0  0  0
 22 23  1  0  0  0  0
 22 36  1  0  0  0  0
 23 37  1  0  0  0  0
M  END
$$$$
