CHEMBL3913492
 OpenBabel04072215373D

 74 78  0  0  0  0  0  0  0  0999 V2000
    0.2477    2.7980   -2.3012 C   0  0  0  0  0  0  0  0  0  0  0  0
    1.5738    3.1785   -2.6965 O   0  0  0  0  0  0  0  0  0  0  0  0
    2.5857    2.4646   -2.1092 C   0  0  0  0  0  0  0  0  0  0  0  0
    2.4672    1.9207   -0.8455 C   0  0  0  0  0  0  0  0  0  0  0  0
    3.4970    1.1633   -0.2927 C   0  0  0  0  0  0  0  0  0  0  0  0
    3.4763    0.5363    0.9226 O   0  0  0  0  0  0  0  0  0  0  0  0
    2.2290    0.7591    1.6456 C   0  0  0  0  0  0  0  0  0  0  0  0
    4.6761    0.9752   -1.0197 C   0  0  0  0  0  0  0  0  0  0  0  0
    4.8728    1.5486   -2.2904 C   0  0  0  0  0  0  0  0  0  0  0  0
    6.0819    1.3037   -3.0010 N   0  0  0  0  0  0  0  0  0  0  0  0
    6.7273   -0.1037   -2.8251 C   0  0  0  0  0  0  0  0  0  0  0  0
    5.8103   -1.3418   -3.0779 C   0  0  0  0  0  0  0  0  0  0  0  0
    6.4060   -2.6825   -2.8404 N   0  0  0  0  0  0  0  0  0  0  0  0
    5.4146   -3.7544   -3.1034 C   0  0  0  0  0  0  0  0  0  0  0  0
    4.8702   -3.7375   -4.5380 C   0  0  0  0  0  0  0  0  0  0  0  0
    6.0736   -5.1097   -2.8405 C   0  0  0  0  0  0  0  0  0  0  0  0
    6.9796    2.2565   -3.6460 C   0  0  0  0  0  0  0  0  0  0  0  0
    7.4312    1.8431   -4.8853 C   0  0  0  0  0  0  0  0  0  0  0  0
    8.5438    2.4260   -5.3956 C   0  0  0  0  0  0  0  0  0  0  0  0
    9.1731    3.4244   -4.7913 C   0  0  0  0  0  0  0  0  0  0  0  0
   10.4277    3.1473   -5.0873 N   0  0  0  0  0  0  0  0  0  0  0  0
   10.9022    3.9838   -5.9650 C   0  0  0  0  0  0  0  0  0  0  0  0
   10.8802    5.2945   -5.7631 C   0  0  0  0  0  0  0  0  0  0  0  0
   12.0373    5.9235   -6.8599 C   0  0  0  0  0  0  0  0  0  0  0  0
   12.9738    7.0149   -6.8343 C   0  0  0  0  0  0  0  0  0  0  0  0
   13.8622    7.1178   -7.8481 N   0  0  0  0  0  0  0  0  0  0  0  0
   13.6064    6.1017   -8.7105 N   0  0  0  0  0  0  0  0  0  0  0  0
   14.4021    6.0650  -10.0453 C   0  0  0  0  0  0  0  0  0  0  0  0
   13.6865    6.7349  -11.2611 C   0  0  0  0  0  0  0  0  0  0  0  0
   14.4957    6.7268  -12.5815 C   0  0  0  0  0  0  0  0  0  0  0  0
   14.9105    5.4085  -12.9180 O   0  0  0  0  0  0  0  0  0  0  0  0
   15.7755    4.8696  -11.9255 C   0  0  0  0  0  0  0  0  0  0  0  0
   15.0370    4.7278  -10.5622 C   0  0  0  0  0  0  0  0  0  0  0  0
   12.5147    5.3493   -8.1395 C   0  0  0  0  0  0  0  0  0  0  0  0
    9.9569    5.5867   -4.5856 N   0  0  0  0  0  0  0  0  0  0  0  0
    8.8029    4.4649   -4.0051 C   0  0  0  0  0  0  0  0  0  0  0  0
    7.5606    3.5624   -3.2086 C   0  0  0  0  0  0  0  0  0  0  0  0
    3.8038    2.3237   -2.8028 C   0  0  0  0  0  0  0  0  0  0  0  0
   -0.4690    3.3383   -2.9260 H   0  0  0  0  0  0  0  0  0  0  0  0
    0.0331    3.0766   -1.2626 H   0  0  0  0  0  0  0  0  0  0  0  0
    0.0853    1.7237   -2.4527 H   0  0  0  0  0  0  0  0  0  0  0  0
    1.5559    2.0850   -0.2717 H   0  0  0  0  0  0  0  0  0  0  0  0
    2.2838    0.2378    2.5930 H   0  0  0  0  0  0  0  0  0  0  0  0
    1.3859    0.3457    1.0734 H   0  0  0  0  0  0  0  0  0  0  0  0
    2.0702    1.8287    1.8472 H   0  0  0  0  0  0  0  0  0  0  0  0
    5.4742    0.4022   -0.5617 H   0  0  0  0  0  0  0  0  0  0  0  0
    7.1775   -0.1644   -1.8312 H   0  0  0  0  0  0  0  0  0  0  0  0
    7.5621   -0.2476   -3.5245 H   0  0  0  0  0  0  0  0  0  0  0  0
    5.5406   -1.3010   -4.1347 H   0  0  0  0  0  0  0  0  0  0  0  0
    4.9125   -1.2912   -2.4636 H   0  0  0  0  0  0  0  0  0  0  0  0
    6.7059   -2.7675   -1.8647 H   0  0  0  0  0  0  0  0  0  0  0  0
    4.5731   -3.6470   -2.4059 H   0  0  0  0  0  0  0  0  0  0  0  0
    5.6844   -3.8196   -5.2658 H   0  0  0  0  0  0  0  0  0  0  0  0
    4.3073   -2.8245   -4.7554 H   0  0  0  0  0  0  0  0  0  0  0  0
    4.1758   -4.5674   -4.7063 H   0  0  0  0  0  0  0  0  0  0  0  0
    6.9242   -5.2651   -3.5131 H   0  0  0  0  0  0  0  0  0  0  0  0
    5.3624   -5.9284   -3.0034 H   0  0  0  0  0  0  0  0  0  0  0  0
    6.4329   -5.1815   -1.8088 H   0  0  0  0  0  0  0  0  0  0  0  0
    7.1834    0.8662   -5.3222 H   0  0  0  0  0  0  0  0  0  0  0  0
    8.9870    1.9844   -6.2802 H   0  0  0  0  0  0  0  0  0  0  0  0
   11.2018    3.4816   -6.8431 H   0  0  0  0  0  0  0  0  0  0  0  0
   13.0741    7.7564   -6.0558 H   0  0  0  0  0  0  0  0  0  0  0  0
   15.2825    6.7068   -9.8459 H   0  0  0  0  0  0  0  0  0  0  0  0
   13.4290    7.7730  -11.0366 H   0  0  0  0  0  0  0  0  0  0  0  0
   12.7641    6.1783  -11.4514 H   0  0  0  0  0  0  0  0  0  0  0  0
   15.3728    7.3880  -12.5580 H   0  0  0  0  0  0  0  0  0  0  0  0
   13.8717    7.0815  -13.4141 H   0  0  0  0  0  0  0  0  0  0  0  0
   16.6835    5.4863  -11.8668 H   0  0  0  0  0  0  0  0  0  0  0  0
   16.1017    3.8870  -12.2956 H   0  0  0  0  0  0  0  0  0  0  0  0
   15.7572    4.3254   -9.8447 H   0  0  0  0  0  0  0  0  0  0  0  0
   14.2372    3.9970  -10.7099 H   0  0  0  0  0  0  0  0  0  0  0  0
   12.1947    4.5086   -8.7419 H   0  0  0  0  0  0  0  0  0  0  0  0
    7.1258    3.8994   -2.2418 H   0  0  0  0  0  0  0  0  0  0  0  0
    3.8676    2.8192   -3.7685 H   0  0  0  0  0  0  0  0  0  0  0  0
  1  2  1  0  0  0  0
  1 39  1  0  0  0  0
  1 40  1  0  0  0  0
  1 41  1  0  0  0  0
  2  3  1  0  0  0  0
  3  4  1  0  0  0  0
  3 38  2  0  0  0  0
  4  5  2  0  0  0  0
  4 42  1  0  0  0  0
  5  6  1  0  0  0  0
  5  8  1  0  0  0  0
  6  7  1  0  0  0  0
  7 43  1  0  0  0  0
  7 44  1  0  0  0  0
  7 45  1  0  0  0  0
  8  9  2  0  0  0  0
  8 46  1  0  0  0  0
  9 10  1  0  0  0  0
  9 38  1  0  0  0  0
 10 11  1  0  0  0  0
 10 17  1  0  0  0  0
 11 12  1  0  0  0  0
 11 47  1  0  0  0  0
 11 48  1  0  0  0  0
 12 13  1  0  0  0  0
 12 49  1  0  0  0  0
 12 50  1  0  0  0  0
 13 14  1  0  0  0  0
 13 51  1  0  0  0  0
 14 15  1  0  0  0  0
 14 16  1  0  0  0  0
 14 52  1  0  0  0  0
 15 53  1  0  0  0  0
 15 54  1  0  0  0  0
 15 55  1  0  0  0  0
 16 56  1  0  0  0  0
 16 57  1  0  0  0  0
 16 58  1  0  0  0  0
 17 18  1  0  0  0  0
 17 37  2  0  0  0  0
 18 19  2  0  0  0  0
 18 59  1  0  0  0  0
 19 20  1  0  0  0  0
 19 60  1  0  0  0  0
 20 21  1  0  0  0  0
 20 36  2  0  0  0  0
 21 22  2  0  0  0  0
 22 23  1  0  0  0  0
 22 61  1  0  0  0  0
 23 24  1  0  0  0  0
 23 35  2  0  0  0  0
 24 25  1  0  0  0  0
 24 34  2  0  0  0  0
 25 26  2  0  0  0  0
 25 62  1  0  0  0  0
 26 27  1  0  0  0  0
 27 28  1  0  0  0  0
 27 34  1  0  0  0  0
 28 29  1  0  0  0  0
 28 33  1  0  0  0  0
 28 63  1  0  0  0  0
 29 30  1  0  0  0  0
 29 64  1  0  0  0  0
 29 65  1  0  0  0  0
 30 31  1  0  0  0  0
 30 66  1  0  0  0  0
 30 67  1  0  0  0  0
 31 32  1  0  0  0  0
 32 33  1  0  0  0  0
 32 68  1  0  0  0  0
 32 69  1  0  0  0  0
 33 70  1  0  0  0  0
 33 71  1  0  0  0  0
 34 72  1  0  0  0  0
 35 36  1  0  0  0  0
 36 37  1  0  0  0  0
 37 73  1  0  0  0  0
 38 74  1  0  0  0  0
M  END
$$$$
