CHEMBL4465659
 OpenBabel04072215383D

 51 54  0  0  0  0  0  0  0  0999 V2000
    0.3523   -0.6735    1.1567 C   0  0  0  0  0  0  0  0  0  0  0  0
    1.6782   -0.8175    1.6661 O   0  0  0  0  0  0  0  0  0  0  0  0
    2.3860   -1.8932    1.2039 C   0  0  0  0  0  0  0  0  0  0  0  0
    1.9174   -2.8091    0.2703 C   0  0  0  0  0  0  0  0  0  0  0  0
    2.7180   -3.8780   -0.1262 C   0  0  0  0  0  0  0  0  0  0  0  0
    4.0086   -4.0637    0.3869 C   0  0  0  0  0  0  0  0  0  0  0  0
    4.8348   -5.1575    0.0195 N   0  0  0  0  0  0  0  0  0  0  0  0
    4.5251   -6.0840   -0.9531 C   0  0  0  0  0  0  0  0  0  0  0  0
    3.5397   -6.0304   -1.6855 O   0  0  0  0  0  0  0  0  0  0  0  0
    5.4278   -7.1447   -1.0065 N   0  0  0  0  0  0  0  0  0  0  0  0
    5.1686   -8.1727   -1.9502 C   0  0  0  0  0  0  0  0  0  0  0  0
    4.8751   -7.8499   -3.2818 C   0  0  0  0  0  0  0  0  0  0  0  0
    4.3616   -8.8105   -4.1485 C   0  0  0  0  0  0  0  0  0  0  0  0
    4.1361  -10.1006   -3.6827 C   0  0  0  0  0  0  0  0  0  0  0  0
    3.4829  -11.0784   -4.5720 C   0  0  0  0  0  0  0  0  0  0  0  0
    3.9039  -11.2315   -5.7127 O   0  0  0  0  0  0  0  0  0  0  0  0
    2.4246  -11.7660   -3.9908 N   0  0  0  0  0  0  0  0  0  0  0  0
    2.3406  -13.0945   -4.2800 N   0  0  0  0  0  0  0  0  0  0  0  0
    1.5853  -13.8130   -3.5010 C   0  0  0  0  0  0  0  0  0  0  0  0
    0.5039  -13.3876   -2.5055 C   0  0  0  0  0  0  0  0  0  0  0  0
   -0.1847  -12.3913   -2.5784 O   0  0  0  0  0  0  0  0  0  0  0  0
    0.5737  -14.3138   -1.4873 N   0  0  0  0  0  0  0  0  0  0  0  0
    1.6344  -15.1852   -1.7244 C   0  0  0  0  0  0  0  0  0  0  0  0
    2.4102  -15.8192   -0.7774 C   0  0  0  0  0  0  0  0  0  0  0  0
    3.6053  -16.4083   -1.2205 C   0  0  0  0  0  0  0  0  0  0  0  0
    3.9486  -16.4428   -2.5882 C   0  0  0  0  0  0  0  0  0  0  0  0
    3.1618  -15.7894   -3.5303 C   0  0  0  0  0  0  0  0  0  0  0  0
    2.0573  -15.1178   -3.0524 C   0  0  0  0  0  0  0  0  0  0  0  0
    4.5413  -10.4632   -2.3751 C   0  0  0  0  0  0  0  0  0  0  0  0
    5.0781   -9.4994   -1.5161 C   0  0  0  0  0  0  0  0  0  0  0  0
    4.4797   -3.1377    1.3217 C   0  0  0  0  0  0  0  0  0  0  0  0
    3.6674   -2.0631    1.7270 C   0  0  0  0  0  0  0  0  0  0  0  0
   -0.0834    0.2300    1.5939 H   0  0  0  0  0  0  0  0  0  0  0  0
   -0.2750   -1.5214    1.4502 H   0  0  0  0  0  0  0  0  0  0  0  0
    0.3559   -0.5442    0.0693 H   0  0  0  0  0  0  0  0  0  0  0  0
    0.9308   -2.7389   -0.1746 H   0  0  0  0  0  0  0  0  0  0  0  0
    2.2756   -4.5563   -0.8462 H   0  0  0  0  0  0  0  0  0  0  0  0
    5.7639   -5.1920    0.4065 H   0  0  0  0  0  0  0  0  0  0  0  0
    5.7634   -7.4343   -0.0991 H   0  0  0  0  0  0  0  0  0  0  0  0
    4.9810   -6.8271   -3.6370 H   0  0  0  0  0  0  0  0  0  0  0  0
    4.0959   -8.5433   -5.1697 H   0  0  0  0  0  0  0  0  0  0  0  0
    2.1121  -11.4693   -3.0685 H   0  0  0  0  0  0  0  0  0  0  0  0
    0.0110  -14.2638   -0.6506 H   0  0  0  0  0  0  0  0  0  0  0  0
    2.2086  -15.7192    0.2842 H   0  0  0  0  0  0  0  0  0  0  0  0
    4.3207  -16.7868   -0.4920 H   0  0  0  0  0  0  0  0  0  0  0  0
    4.8882  -16.8928   -2.9032 H   0  0  0  0  0  0  0  0  0  0  0  0
    3.4750  -15.6841   -4.5653 H   0  0  0  0  0  0  0  0  0  0  0  0
    4.4193  -11.4859   -2.0259 H   0  0  0  0  0  0  0  0  0  0  0  0
    5.3233   -9.7716   -0.4957 H   0  0  0  0  0  0  0  0  0  0  0  0
    5.4721   -3.2348    1.7556 H   0  0  0  0  0  0  0  0  0  0  0  0
    4.0500   -1.3456    2.4596 H   0  0  0  0  0  0  0  0  0  0  0  0
  1  2  1  0  0  0  0
  1 33  1  0  0  0  0
  1 34  1  0  0  0  0
  1 35  1  0  0  0  0
  2  3  1  0  0  0  0
  3  4  1  0  0  0  0
  3 32  2  0  0  0  0
  4  5  2  0  0  0  0
  4 36  1  0  0  0  0
  5  6  1  0  0  0  0
  5 37  1  0  0  0  0
  6  7  1  0  0  0  0
  6 31  2  0  0  0  0
  7  8  1  0  0  0  0
  7 38  1  0  0  0  0
  8  9  2  0  0  0  0
  8 10  1  0  0  0  0
 10 11  1  0  0  0  0
 10 39  1  0  0  0  0
 11 12  1  0  0  0  0
 11 30  2  0  0  0  0
 12 13  2  0  0  0  0
 12 40  1  0  0  0  0
 13 14  1  0  0  0  0
 13 41  1  0  0  0  0
 14 15  1  0  0  0  0
 14 29  2  0  0  0  0
 15 16  2  0  0  0  0
 15 17  1  0  0  0  0
 17 18  1  0  0  0  0
 17 42  1  0  0  0  0
 18 19  2  0  0  0  0
 19 20  1  0  0  0  0
 19 28  1  0  0  0  0
 20 21  2  0  0  0  0
 20 22  1  0  0  0  0
 22 23  1  0  0  0  0
 22 43  1  0  0  0  0
 23 24  1  0  0  0  0
 23 28  2  0  0  0  0
 24 25  2  0  0  0  0
 24 44  1  0  0  0  0
 25 26  1  0  0  0  0
 25 45  1  0  0  0  0
 26 27  2  0  0  0  0
 26 46  1  0  0  0  0
 27 28  1  0  0  0  0
 27 47  1  0  0  0  0
 29 30  1  0  0  0  0
 29 48  1  0  0  0  0
 30 49  1  0  0  0  0
 31 32  1  0  0  0  0
 31 50  1  0  0  0  0
 32 51  1  0  0  0  0
M  END
$$$$
