CHEMBL3706820
 OpenBabel04072215373D

 55 58  0  0  0  0  0  0  0  0999 V2000
    1.1550    0.9075   -0.5098 C   0  0  0  0  0  0  0  0  0  0  0  0
    2.4041    0.2642   -0.3469 O   0  0  0  0  0  0  0  0  0  0  0  0
    2.8927   -0.3398   -1.5491 C   0  0  0  0  0  0  0  0  0  0  0  0
    4.2012   -1.0095   -1.1556 C   0  0  0  0  0  0  0  0  0  0  0  0
    4.8694   -1.6334   -2.2301 O   0  0  0  0  0  0  0  0  0  0  0  0
    6.2249   -1.8267   -2.1167 C   0  0  0  0  0  0  0  0  0  0  0  0
    6.8082   -1.9615   -3.4006 C   0  0  0  0  0  0  0  0  0  0  0  0
    8.1760   -2.0942   -3.6240 C   0  0  0  0  0  0  0  0  0  0  0  0
    8.6532   -2.1323   -4.8741 N   0  0  0  0  0  0  0  0  0  0  0  0
    9.9817   -2.2258   -5.0154 C   0  0  0  0  0  0  0  0  0  0  0  0
   10.8740   -2.3213   -4.0256 N   0  0  0  0  0  0  0  0  0  0  0  0
   10.3821   -2.3089   -2.7729 C   0  0  0  0  0  0  0  0  0  0  0  0
   11.2791   -2.4676   -1.6802 N   0  0  0  0  0  0  0  0  0  0  0  0
   12.6526   -2.3982   -1.8113 C   0  0  0  0  0  0  0  0  0  0  0  0
   13.3330   -1.4307   -2.4349 C   0  0  0  0  0  0  0  0  0  0  0  0
   14.8037   -1.3801   -2.5257 C   0  0  0  0  0  0  0  0  0  0  0  0
   15.3126   -0.4233   -3.1084 O   0  0  0  0  0  0  0  0  0  0  0  0
   15.6061   -2.5067   -1.9009 C   0  0  0  0  0  0  0  0  0  0  0  0
   17.0081   -2.4822   -1.9906 N   0  0  0  0  0  0  0  0  0  0  0  0
   17.9232   -3.5250   -1.5267 C   0  0  0  0  0  0  0  0  0  0  0  0
   19.1447   -2.7468   -1.0631 C   0  0  0  0  0  0  0  0  0  0  0  0
   19.2429   -1.6378   -2.0915 C   0  0  0  0  0  0  0  0  0  0  0  0
   17.7867   -1.2991   -2.4046 C   0  0  0  0  0  0  0  0  0  0  0  0
   14.9051   -3.4662   -1.2754 C   0  0  0  0  0  0  0  0  0  0  0  0
   13.4382   -3.4725   -1.1374 C   0  0  0  0  0  0  0  0  0  0  0  0
   12.8679   -4.3411   -0.4839 O   0  0  0  0  0  0  0  0  0  0  0  0
    9.0075   -2.1567   -2.5099 C   0  0  0  0  0  0  0  0  0  0  0  0
    8.4463   -2.0291   -1.2200 C   0  0  0  0  0  0  0  0  0  0  0  0
    7.0683   -1.8596   -1.0011 C   0  0  0  0  0  0  0  0  0  0  0  0
    6.8342   -1.6025    0.3197 O   0  0  0  0  0  0  0  0  0  0  0  0
    5.7692   -2.2216    1.0185 C   0  0  0  0  0  0  0  0  0  0  0  0
    0.8812    1.3511    0.4519 H   0  0  0  0  0  0  0  0  0  0  0  0
    0.3865    0.1829   -0.7908 H   0  0  0  0  0  0  0  0  0  0  0  0
    1.2282    1.7036   -1.2546 H   0  0  0  0  0  0  0  0  0  0  0  0
    3.0508    0.4123   -2.3288 H   0  0  0  0  0  0  0  0  0  0  0  0
    2.1781   -1.0845   -1.9196 H   0  0  0  0  0  0  0  0  0  0  0  0
    3.9058   -1.7840   -0.4480 H   0  0  0  0  0  0  0  0  0  0  0  0
    4.8339   -0.2591   -0.6716 H   0  0  0  0  0  0  0  0  0  0  0  0
    6.1595   -1.9096   -4.2748 H   0  0  0  0  0  0  0  0  0  0  0  0
   10.3726   -2.2264   -6.0279 H   0  0  0  0  0  0  0  0  0  0  0  0
   11.0156   -3.2989   -1.1450 H   0  0  0  0  0  0  0  0  0  0  0  0
   12.8177   -0.6071   -2.9199 H   0  0  0  0  0  0  0  0  0  0  0  0
   18.1751   -4.1853   -2.3654 H   0  0  0  0  0  0  0  0  0  0  0  0
   17.5310   -4.1325   -0.7076 H   0  0  0  0  0  0  0  0  0  0  0  0
   20.0454   -3.3638   -1.0143 H   0  0  0  0  0  0  0  0  0  0  0  0
   18.9605   -2.3218   -0.0687 H   0  0  0  0  0  0  0  0  0  0  0  0
   19.7496   -1.9997   -2.9933 H   0  0  0  0  0  0  0  0  0  0  0  0
   19.7952   -0.7694   -1.7195 H   0  0  0  0  0  0  0  0  0  0  0  0
   17.6725   -1.0958   -3.4750 H   0  0  0  0  0  0  0  0  0  0  0  0
   17.4823   -0.4204   -1.8253 H   0  0  0  0  0  0  0  0  0  0  0  0
   15.3855   -4.3064   -0.7919 H   0  0  0  0  0  0  0  0  0  0  0  0
    9.1082   -2.0105   -0.3526 H   0  0  0  0  0  0  0  0  0  0  0  0
    6.1479   -2.6286    1.9604 H   0  0  0  0  0  0  0  0  0  0  0  0
    5.2856   -3.0332    0.4692 H   0  0  0  0  0  0  0  0  0  0  0  0
    5.0588   -1.4372    1.3014 H   0  0  0  0  0  0  0  0  0  0  0  0
  1  2  1  0  0  0  0
  1 32  1  0  0  0  0
  1 33  1  0  0  0  0
  1 34  1  0  0  0  0
  2  3  1  0  0  0  0
  3  4  1  0  0  0  0
  3 35  1  0  0  0  0
  3 36  1  0  0  0  0
  4  5  1  0  0  0  0
  4 37  1  0  0  0  0
  4 38  1  0  0  0  0
  5  6  1  0  0  0  0
  6  7  1  0  0  0  0
  6 29  2  0  0  0  0
  7  8  2  0  0  0  0
  7 39  1  0  0  0  0
  8  9  1  0  0  0  0
  8 27  1  0  0  0  0
  9 10  2  0  0  0  0
 10 11  1  0  0  0  0
 10 40  1  0  0  0  0
 11 12  2  0  0  0  0
 12 13  1  0  0  0  0
 12 27  1  0  0  0  0
 13 14  1  0  0  0  0
 13 41  1  0  0  0  0
 14 15  2  0  0  0  0
 14 25  1  0  0  0  0
 15 16  1  0  0  0  0
 15 42  1  0  0  0  0
 16 17  2  0  0  0  0
 16 18  1  0  0  0  0
 18 19  1  0  0  0  0
 18 24  2  0  0  0  0
 19 20  1  0  0  0  0
 19 23  1  0  0  0  0
 20 21  1  0  0  0  0
 20 43  1  0  0  0  0
 20 44  1  0  0  0  0
 21 22  1  0  0  0  0
 21 45  1  0  0  0  0
 21 46  1  0  0  0  0
 22 23  1  0  0  0  0
 22 47  1  0  0  0  0
 22 48  1  0  0  0  0
 23 49  1  0  0  0  0
 23 50  1  0  0  0  0
 24 25  1  0  0  0  0
 24 51  1  0  0  0  0
 25 26  2  0  0  0  0
 27 28  2  0  0  0  0
 28 29  1  0  0  0  0
 28 52  1  0  0  0  0
 29 30  1  0  0  0  0
 30 31  1  0  0  0  0
 31 53  1  0  0  0  0
 31 54  1  0  0  0  0
 31 55  1  0  0  0  0
M  END
$$$$
