CHEMBL370600
 OpenBabel04072215373D

 40 43  0  0  0  0  0  0  0  0999 V2000
    1.3807    0.6654   -0.7495 O   0  0  0  0  0  0  0  0  0  0  0  0
    2.2581    0.1034   -0.0937 C   0  0  0  0  0  0  0  0  0  0  0  0
    2.6134    0.5266    1.1829 N   0  0  0  0  0  0  0  0  0  0  0  0
    1.9428    1.5541    1.8909 C   0  0  0  0  0  0  0  0  0  0  0  0
    0.6113    1.9224    1.5907 C   0  0  0  0  0  0  0  0  0  0  0  0
   -0.0105    3.0027    2.2171 C   0  0  0  0  0  0  0  0  0  0  0  0
    0.7174    3.6900    3.1541 C   0  0  0  0  0  0  0  0  0  0  0  0
    1.9948    3.3109    3.4973 C   0  0  0  0  0  0  0  0  0  0  0  0
    2.6292    2.2338    2.9034 C   0  0  0  0  0  0  0  0  0  0  0  0
    2.5330    4.1340    4.4394 O   0  0  0  0  0  0  0  0  0  0  0  0
    1.4803    5.1150    4.5772 C   0  0  0  0  0  0  0  0  0  0  0  0
    0.2952    4.7916    3.8258 O   0  0  0  0  0  0  0  0  0  0  0  0
    2.9968   -1.0147   -0.6604 C   0  0  0  0  0  0  0  0  0  0  0  0
    4.2981   -1.7904    0.1439 S   0  0  0  0  0  0  0  0  0  0  0  0
    4.4850   -2.8452   -1.1927 C   0  0  0  0  0  0  0  0  0  0  0  0
    3.6518   -2.6635   -2.1911 N   0  0  0  0  0  0  0  0  0  0  0  0
    2.7827   -1.6201   -1.8973 C   0  0  0  0  0  0  0  0  0  0  0  0
    1.7560   -1.2207   -2.9258 C   0  0  0  0  0  0  0  0  0  0  0  0
    1.2299   -2.3729   -3.7810 C   0  0  0  0  0  0  0  0  0  0  0  0
    0.1539   -1.9029   -4.7338 C   0  0  0  0  0  0  0  0  0  0  0  0
    0.4851   -1.4193   -6.0018 C   0  0  0  0  0  0  0  0  0  0  0  0
   -0.5344   -0.9881   -6.8381 C   0  0  0  0  0  0  0  0  0  0  0  0
   -1.8414   -0.9985   -6.5004 N   0  0  0  0  0  0  0  0  0  0  0  0
   -2.1398   -1.4548   -5.2655 C   0  0  0  0  0  0  0  0  0  0  0  0
   -1.1927   -1.9069   -4.3578 C   0  0  0  0  0  0  0  0  0  0  0  0
    3.4982    0.1962    1.5481 H   0  0  0  0  0  0  0  0  0  0  0  0
    0.0237    1.3732    0.8593 H   0  0  0  0  0  0  0  0  0  0  0  0
   -1.0206    3.2944    1.9555 H   0  0  0  0  0  0  0  0  0  0  0  0
    3.6432    1.9801    3.1878 H   0  0  0  0  0  0  0  0  0  0  0  0
    1.8577    6.0850    4.2313 H   0  0  0  0  0  0  0  0  0  0  0  0
    1.2091    5.1991    5.6351 H   0  0  0  0  0  0  0  0  0  0  0  0
    5.2471   -3.6148   -1.2127 H   0  0  0  0  0  0  0  0  0  0  0  0
    2.1964   -0.4431   -3.5628 H   0  0  0  0  0  0  0  0  0  0  0  0
    0.8897   -0.7713   -2.4317 H   0  0  0  0  0  0  0  0  0  0  0  0
    0.8223   -3.1638   -3.1381 H   0  0  0  0  0  0  0  0  0  0  0  0
    2.0431   -2.8364   -4.3521 H   0  0  0  0  0  0  0  0  0  0  0  0
    1.5157   -1.3763   -6.3377 H   0  0  0  0  0  0  0  0  0  0  0  0
   -0.3181   -0.6106   -7.8334 H   0  0  0  0  0  0  0  0  0  0  0  0
   -3.1967   -1.4472   -5.0141 H   0  0  0  0  0  0  0  0  0  0  0  0
   -1.5063   -2.2518   -3.3781 H   0  0  0  0  0  0  0  0  0  0  0  0
  1  2  2  0  0  0  0
  2  3  1  0  0  0  0
  2 13  1  0  0  0  0
  3  4  1  0  0  0  0
  3 26  1  0  0  0  0
  4  5  1  0  0  0  0
  4  9  2  0  0  0  0
  5  6  2  0  0  0  0
  5 27  1  0  0  0  0
  6  7  1  0  0  0  0
  6 28  1  0  0  0  0
  7  8  2  0  0  0  0
  7 12  1  0  0  0  0
  8  9  1  0  0  0  0
  8 10  1  0  0  0  0
  9 29  1  0  0  0  0
 10 11  1  0  0  0  0
 11 12  1  0  0  0  0
 11 30  1  0  0  0  0
 11 31  1  0  0  0  0
 13 14  1  0  0  0  0
 13 17  2  0  0  0  0
 14 15  1  0  0  0  0
 15 16  2  0  0  0  0
 15 32  1  0  0  0  0
 16 17  1  0  0  0  0
 17 18  1  0  0  0  0
 18 19  1  0  0  0  0
 18 33  1  0  0  0  0
 18 34  1  0  0  0  0
 19 20  1  0  0  0  0
 19 35  1  0  0  0  0
 19 36  1  0  0  0  0
 20 21  1  0  0  0  0
 20 25  2  0  0  0  0
 21 22  2  0  0  0  0
 21 37  1  0  0  0  0
 22 23  1  0  0  0  0
 22 38  1  0  0  0  0
 23 24  2  0  0  0  0
 24 25  1  0  0  0  0
 24 39  1  0  0  0  0
 25 40  1  0  0  0  0
M  END
$$$$
