CHEMBL220549
 OpenBabel04072215363D

 54 57  0  0  0  0  0  0  0  0999 V2000
    6.8183   -1.6557    3.6891 C   0  0  0  0  0  0  0  0  0  0  0  0
    5.8894   -0.7421    3.1092 O   0  0  0  0  0  0  0  0  0  0  0  0
    4.7999   -1.3000    2.4797 C   0  0  0  0  0  0  0  0  0  0  0  0
    4.4853   -2.6666    2.5148 C   0  0  0  0  0  0  0  0  0  0  0  0
    3.3339   -3.1570    1.8885 C   0  0  0  0  0  0  0  0  0  0  0  0
    2.4894   -2.2862    1.1933 C   0  0  0  0  0  0  0  0  0  0  0  0
    1.2289   -2.7683    0.5191 C   0  0  0  0  0  0  0  0  0  0  0  0
    1.0532   -4.1158    0.5989 F   0  0  0  0  0  0  0  0  0  0  0  0
    0.1051   -2.2155    1.0551 F   0  0  0  0  0  0  0  0  0  0  0  0
    1.1984   -2.4688   -0.8099 F   0  0  0  0  0  0  0  0  0  0  0  0
    2.8149   -0.9256    1.1472 C   0  0  0  0  0  0  0  0  0  0  0  0
    3.9494   -0.4128    1.7911 C   0  0  0  0  0  0  0  0  0  0  0  0
    4.2688    0.9712    1.7773 N   0  0  0  0  0  0  0  0  0  0  0  0
    3.4263    1.9776    1.3380 C   0  0  0  0  0  0  0  0  0  0  0  0
    2.2867    1.8248    0.9059 O   0  0  0  0  0  0  0  0  0  0  0  0
    3.9047    3.3757    1.4635 C   0  0  0  0  0  0  0  0  0  0  0  0
    5.2170    3.7829    1.2362 C   0  0  0  0  0  0  0  0  0  0  0  0
    5.5371    5.1443    1.3396 C   0  0  0  0  0  0  0  0  0  0  0  0
    4.5465    6.1117    1.6131 C   0  0  0  0  0  0  0  0  0  0  0  0
    4.9476    7.5430    1.8230 C   0  0  0  0  0  0  0  0  0  0  0  0
    3.2092    5.7010    1.6947 C   0  0  0  0  0  0  0  0  0  0  0  0
    2.1886    6.6414    1.7551 O   0  0  0  0  0  0  0  0  0  0  0  0
    0.9962    6.2924    1.0958 C   0  0  0  0  0  0  0  0  0  0  0  0
    1.1229    5.6119   -0.0784 N   0  0  0  0  0  0  0  0  0  0  0  0
    0.0187    5.0291   -0.5858 C   0  0  0  0  0  0  0  0  0  0  0  0
   -1.2319    5.1538   -0.0204 C   0  0  0  0  0  0  0  0  0  0  0  0
   -1.3540    5.9427    1.1205 C   0  0  0  0  0  0  0  0  0  0  0  0
   -0.2306    6.5514    1.7199 C   0  0  0  0  0  0  0  0  0  0  0  0
   -0.4050    7.3708    2.9304 C   0  0  0  0  0  0  0  0  0  0  0  0
    0.3454    8.5014    3.1962 C   0  0  0  0  0  0  0  0  0  0  0  0
    0.0181    9.2070    4.3322 C   0  0  0  0  0  0  0  0  0  0  0  0
   -0.9755    8.8593    5.1663 N   0  0  0  0  0  0  0  0  0  0  0  0
   -1.6522    7.7565    4.8242 C   0  0  0  0  0  0  0  0  0  0  0  0
   -1.4204    6.9948    3.7458 N   0  0  0  0  0  0  0  0  0  0  0  0
    2.9204    4.3351    1.7157 C   0  0  0  0  0  0  0  0  0  0  0  0
    7.6286   -1.0768    4.1411 H   0  0  0  0  0  0  0  0  0  0  0  0
    7.2560   -2.3026    2.9210 H   0  0  0  0  0  0  0  0  0  0  0  0
    6.3561   -2.2482    4.4869 H   0  0  0  0  0  0  0  0  0  0  0  0
    5.1033   -3.3876    3.0407 H   0  0  0  0  0  0  0  0  0  0  0  0
    3.1134   -4.2214    1.9385 H   0  0  0  0  0  0  0  0  0  0  0  0
    2.1487   -0.2828    0.5790 H   0  0  0  0  0  0  0  0  0  0  0  0
    5.1267    1.2188    2.2565 H   0  0  0  0  0  0  0  0  0  0  0  0
    5.9869    3.0700    0.9568 H   0  0  0  0  0  0  0  0  0  0  0  0
    6.5700    5.4538    1.1849 H   0  0  0  0  0  0  0  0  0  0  0  0
    6.0385    7.6450    1.8704 H   0  0  0  0  0  0  0  0  0  0  0  0
    4.5603    7.8982    2.7847 H   0  0  0  0  0  0  0  0  0  0  0  0
    4.5793    8.1859    1.0198 H   0  0  0  0  0  0  0  0  0  0  0  0
    0.1784    4.4163   -1.4686 H   0  0  0  0  0  0  0  0  0  0  0  0
   -2.0913    4.6495   -0.4485 H   0  0  0  0  0  0  0  0  0  0  0  0
   -2.3413    6.0654    1.5646 H   0  0  0  0  0  0  0  0  0  0  0  0
    1.1350    8.8471    2.5422 H   0  0  0  0  0  0  0  0  0  0  0  0
    0.5582   10.1092    4.6021 H   0  0  0  0  0  0  0  0  0  0  0  0
   -2.4701    7.4575    5.4712 H   0  0  0  0  0  0  0  0  0  0  0  0
    1.8950    4.0001    1.8611 H   0  0  0  0  0  0  0  0  0  0  0  0
  1  2  1  0  0  0  0
  1 36  1  0  0  0  0
  1 37  1  0  0  0  0
  1 38  1  0  0  0  0
  2  3  1  0  0  0  0
  3  4  1  0  0  0  0
  3 12  2  0  0  0  0
  4  5  2  0  0  0  0
  4 39  1  0  0  0  0
  5  6  1  0  0  0  0
  5 40  1  0  0  0  0
  6  7  1  0  0  0  0
  6 11  2  0  0  0  0
  7  8  1  0  0  0  0
  7  9  1  0  0  0  0
  7 10  1  0  0  0  0
 11 12  1  0  0  0  0
 11 41  1  0  0  0  0
 12 13  1  0  0  0  0
 13 14  1  0  0  0  0
 13 42  1  0  0  0  0
 14 15  2  0  0  0  0
 14 16  1  0  0  0  0
 16 17  1  0  0  0  0
 16 35  2  0  0  0  0
 17 18  2  0  0  0  0
 17 43  1  0  0  0  0
 18 19  1  0  0  0  0
 18 44  1  0  0  0  0
 19 20  1  0  0  0  0
 19 21  2  0  0  0  0
 20 45  1  0  0  0  0
 20 46  1  0  0  0  0
 20 47  1  0  0  0  0
 21 22  1  0  0  0  0
 21 35  1  0  0  0  0
 22 23  1  0  0  0  0
 23 24  1  0  0  0  0
 23 28  2  0  0  0  0
 24 25  2  0  0  0  0
 25 26  1  0  0  0  0
 25 48  1  0  0  0  0
 26 27  2  0  0  0  0
 26 49  1  0  0  0  0
 27 28  1  0  0  0  0
 27 50  1  0  0  0  0
 28 29  1  0  0  0  0
 29 30  1  0  0  0  0
 29 34  2  0  0  0  0
 30 31  2  0  0  0  0
 30 51  1  0  0  0  0
 31 32  1  0  0  0  0
 31 52  1  0  0  0  0
 32 33  2  0  0  0  0
 33 34  1  0  0  0  0
 33 53  1  0  0  0  0
 35 54  1  0  0  0  0
M  END
$$$$
