CHEMBL3221541
 OpenBabel04072215363D

 68 70  0  0  0  0  0  0  0  0999 V2000
   13.8678    1.6780  -10.3041 C   0  0  0  0  0  0  0  0  0  0  0  0
   12.5839    2.5016  -10.2349 C   0  0  0  0  0  0  0  0  0  0  0  0
   12.1806    2.6962   -8.9184 O   0  0  0  0  0  0  0  0  0  0  0  0
   12.0577    3.9134   -8.3483 C   0  0  0  0  0  0  0  0  0  0  0  0
   12.2871    4.9348   -9.0100 O   0  0  0  0  0  0  0  0  0  0  0  0
   11.6929    4.0739   -7.0440 N   0  0  0  0  0  0  0  0  0  0  0  0
   11.3812    2.9456   -6.2146 C   0  0  0  0  0  0  0  0  0  0  0  0
   10.0562    2.4960   -6.1432 C   0  0  0  0  0  0  0  0  0  0  0  0
    9.7226    1.3682   -5.3704 C   0  0  0  0  0  0  0  0  0  0  0  0
   10.7125    0.6760   -4.6530 C   0  0  0  0  0  0  0  0  0  0  0  0
   10.3811   -0.5403   -3.9476 N   0  0  0  0  0  0  0  0  0  0  0  0
   11.3124   -1.2748   -3.1436 C   0  0  0  0  0  0  0  0  0  0  0  0
   12.3389   -0.6505   -2.5361 N   0  0  0  0  0  0  0  0  0  0  0  0
   13.2630   -1.2761   -1.7857 C   0  0  0  0  0  0  0  0  0  0  0  0
   13.1559   -2.6207   -1.5776 N   0  0  0  0  0  0  0  0  0  0  0  0
   12.1453   -3.3163   -2.1437 C   0  0  0  0  0  0  0  0  0  0  0  0
   12.0695   -4.6922   -1.9416 C   0  0  0  0  0  0  0  0  0  0  0  0
   11.0592   -5.5082   -2.5353 C   0  0  0  0  0  0  0  0  0  0  0  0
   11.0202   -6.8598   -2.2285 O   0  0  0  0  0  0  0  0  0  0  0  0
   11.6597   -7.2696   -1.0709 C   0  0  0  0  0  0  0  0  0  0  0  0
   11.2052   -8.5318   -0.3802 C   0  0  0  0  0  0  0  0  0  0  0  0
   11.9974   -8.6563    0.8897 N   0  0  0  0  0  0  0  0  0  0  0  0
   11.6636   -9.8594    1.6602 C   0  0  0  0  0  0  0  0  0  0  0  0
   10.2802   -9.6936    2.3018 C   0  0  0  0  0  0  0  0  0  0  0  0
   10.2612   -8.5801    3.1834 O   0  0  0  0  0  0  0  0  0  0  0  0
   10.5639   -7.3872    2.4829 C   0  0  0  0  0  0  0  0  0  0  0  0
   11.9383   -7.4928    1.8128 C   0  0  0  0  0  0  0  0  0  0  0  0
   10.0841   -4.8366   -3.3884 C   0  0  0  0  0  0  0  0  0  0  0  0
    9.0074   -5.3262   -4.0824 O   0  0  0  0  0  0  0  0  0  0  0  0
    8.3263   -6.4945   -4.3646 C   0  0  0  0  0  0  0  0  0  0  0  0
   10.2012   -3.4537   -3.5619 C   0  0  0  0  0  0  0  0  0  0  0  0
   11.1881   -2.6834   -2.9574 C   0  0  0  0  0  0  0  0  0  0  0  0
   12.0235    1.1664   -4.7077 C   0  0  0  0  0  0  0  0  0  0  0  0
   12.3729    2.2950   -5.4557 C   0  0  0  0  0  0  0  0  0  0  0  0
   13.8078    2.7644   -5.3923 C   0  0  0  0  0  0  0  0  0  0  0  0
    1.6334   -2.4890    0.9052 Cl  0  0  0  0  0  0  0  0  0  0  0  0
   14.1272    1.5006  -11.3710 H   0  0  0  0  0  0  0  0  0  0  0  0
   13.7527    0.6928   -9.8084 H   0  0  0  0  0  0  0  0  0  0  0  0
   14.7063    2.2237   -9.8212 H   0  0  0  0  0  0  0  0  0  0  0  0
   11.7786    1.9828  -10.7950 H   0  0  0  0  0  0  0  0  0  0  0  0
   12.7756    3.4697  -10.7397 H   0  0  0  0  0  0  0  0  0  0  0  0
   11.5992    5.0130   -6.6452 H   0  0  0  0  0  0  0  0  0  0  0  0
    9.2790    3.0085   -6.6977 H   0  0  0  0  0  0  0  0  0  0  0  0
    8.6939    1.0299   -5.3544 H   0  0  0  0  0  0  0  0  0  0  0  0
    9.4670   -0.9425   -4.1694 H   0  0  0  0  0  0  0  0  0  0  0  0
   14.0715   -0.7166   -1.3480 H   0  0  0  0  0  0  0  0  0  0  0  0
   12.8280   -5.1350   -1.2998 H   0  0  0  0  0  0  0  0  0  0  0  0
   11.3603   -6.4734   -0.3660 H   0  0  0  0  0  0  0  0  0  0  0  0
   12.7523   -7.4411   -1.2387 H   0  0  0  0  0  0  0  0  0  0  0  0
   11.4356   -9.3801   -1.0568 H   0  0  0  0  0  0  0  0  0  0  0  0
   10.1086   -8.5115   -0.2066 H   0  0  0  0  0  0  0  0  0  0  0  0
   12.4181   -9.9887    2.4719 H   0  0  0  0  0  0  0  0  0  0  0  0
   11.7193  -10.7623    1.0195 H   0  0  0  0  0  0  0  0  0  0  0  0
   10.0520  -10.6089    2.8801 H   0  0  0  0  0  0  0  0  0  0  0  0
    9.4900   -9.5988    1.5278 H   0  0  0  0  0  0  0  0  0  0  0  0
   10.6053   -6.5471    3.2097 H   0  0  0  0  0  0  0  0  0  0  0  0
    9.7608   -7.1382    1.7544 H   0  0  0  0  0  0  0  0  0  0  0  0
   12.7187   -7.6046    2.5871 H   0  0  0  0  0  0  0  0  0  0  0  0
   12.2317   -6.5306    1.3596 H   0  0  0  0  0  0  0  0  0  0  0  0
    7.4655   -6.2315   -5.0285 H   0  0  0  0  0  0  0  0  0  0  0  0
    7.8543   -6.9313   -3.4638 H   0  0  0  0  0  0  0  0  0  0  0  0
    8.9340   -7.1902   -4.9719 H   0  0  0  0  0  0  0  0  0  0  0  0
    9.4744   -2.9970   -4.2126 H   0  0  0  0  0  0  0  0  0  0  0  0
   12.8307    0.6805   -4.2097 H   0  0  0  0  0  0  0  0  0  0  0  0
   14.4156    2.1366   -4.7010 H   0  0  0  0  0  0  0  0  0  0  0  0
   13.8178    3.7967   -4.9899 H   0  0  0  0  0  0  0  0  0  0  0  0
   14.3059    2.7391   -6.3791 H   0  0  0  0  0  0  0  0  0  0  0  0
    1.4836   -2.2167   -0.4349 H   0  0  0  0  0  0  0  0  0  0  0  0
  1  2  1  0  0  0  0
  1 37  1  0  0  0  0
  1 38  1  0  0  0  0
  1 39  1  0  0  0  0
  2  3  1  0  0  0  0
  2 40  1  0  0  0  0
  2 41  1  0  0  0  0
  3  4  1  0  0  0  0
  4  5  2  0  0  0  0
  4  6  1  0  0  0  0
  6  7  1  0  0  0  0
  6 42  1  0  0  0  0
  7  8  1  0  0  0  0
  7 34  2  0  0  0  0
  8  9  2  0  0  0  0
  8 43  1  0  0  0  0
  9 10  1  0  0  0  0
  9 44  1  0  0  0  0
 10 11  1  0  0  0  0
 10 33  2  0  0  0  0
 11 12  1  0  0  0  0
 11 45  1  0  0  0  0
 12 13  1  0  0  0  0
 12 32  2  0  0  0  0
 13 14  2  0  0  0  0
 14 15  1  0  0  0  0
 14 46  1  0  0  0  0
 15 16  2  0  0  0  0
 16 17  1  0  0  0  0
 16 32  1  0  0  0  0
 17 18  2  0  0  0  0
 17 47  1  0  0  0  0
 18 19  1  0  0  0  0
 18 28  1  0  0  0  0
 19 20  1  0  0  0  0
 20 21  1  0  0  0  0
 20 48  1  0  0  0  0
 20 49  1  0  0  0  0
 21 22  1  0  0  0  0
 21 50  1  0  0  0  0
 21 51  1  0  0  0  0
 22 23  1  0  0  0  0
 22 27  1  0  0  0  0
 23 24  1  0  0  0  0
 23 52  1  0  0  0  0
 23 53  1  0  0  0  0
 24 25  1  0  0  0  0
 24 54  1  0  0  0  0
 24 55  1  0  0  0  0
 25 26  1  0  0  0  0
 26 27  1  0  0  0  0
 26 56  1  0  0  0  0
 26 57  1  0  0  0  0
 27 58  1  0  0  0  0
 27 59  1  0  0  0  0
 28 29  1  0  0  0  0
 28 31  2  0  0  0  0
 29 30  1  0  0  0  0
 30 60  1  0  0  0  0
 30 61  1  0  0  0  0
 30 62  1  0  0  0  0
 31 32  1  0  0  0  0
 31 63  1  0  0  0  0
 33 34  1  0  0  0  0
 33 64  1  0  0  0  0
 34 35  1  0  0  0  0
 35 65  1  0  0  0  0
 35 66  1  0  0  0  0
 35 67  1  0  0  0  0
 36 68  1  0  0  0  0
M  END
$$$$
