CHEMBL1076199
 OpenBabel04072215353D

 83 87  0  0  0  0  0  0  0  0999 V2000
   10.1315    1.1982   -2.5989 C   0  0  0  0  0  0  0  0  0  0  0  0
    9.2197    0.2244   -1.8617 C   0  0  0  0  0  0  0  0  0  0  0  0
    9.5431    0.0173   -0.4397 N   0  0  0  0  0  0  0  0  0  0  0  0
    9.5877    1.2570    0.3555 C   0  0  0  0  0  0  0  0  0  0  0  0
    8.2639    1.9944    0.5433 C   0  0  0  0  0  0  0  0  0  0  0  0
    8.6438   -0.9796    0.1725 C   0  0  0  0  0  0  0  0  0  0  0  0
    8.7877   -2.3902   -0.4167 C   0  0  0  0  0  0  0  0  0  0  0  0
   10.2033   -2.9741   -0.3023 C   0  0  0  0  0  0  0  0  0  0  0  0
   10.6756   -3.1437    1.1469 C   0  0  0  0  0  0  0  0  0  0  0  0
    9.7585   -4.0572    1.8193 N   0  0  0  0  0  0  0  0  0  0  0  0
   10.0155   -4.3194    3.1733 C   0  0  0  0  0  0  0  0  0  0  0  0
    9.4207   -5.4432    3.7024 C   0  0  0  0  0  0  0  0  0  0  0  0
    9.7171   -5.7937    5.0043 C   0  0  0  0  0  0  0  0  0  0  0  0
    9.3563   -7.1061    5.4419 N   0  0  0  0  0  0  0  0  0  0  0  0
    9.0279   -7.5126    6.7397 C   0  0  0  0  0  0  0  0  0  0  0  0
    9.0419   -6.6637    7.8015 N   0  0  0  0  0  0  0  0  0  0  0  0
    8.1465   -6.7140    8.9065 C   0  0  0  0  0  0  0  0  0  0  0  0
    6.8636   -7.3045    8.8013 C   0  0  0  0  0  0  0  0  0  0  0  0
    5.9587   -7.2422    9.8691 C   0  0  0  0  0  0  0  0  0  0  0  0
    4.5118   -7.5719    9.7572 C   0  0  0  0  0  0  0  0  0  0  0  0
    3.7485   -6.9131   10.4599 O   0  0  0  0  0  0  0  0  0  0  0  0
    4.1287   -8.6064    8.9158 N   0  0  0  0  0  0  0  0  0  0  0  0
    2.7823   -9.0009    8.7026 C   0  0  0  0  0  0  0  0  0  0  0  0
    1.6831   -8.1956    9.0185 C   0  0  0  0  0  0  0  0  0  0  0  0
    0.3759   -8.6464    8.8395 C   0  0  0  0  0  0  0  0  0  0  0  0
    0.1412   -9.9171    8.3306 C   0  0  0  0  0  0  0  0  0  0  0  0
    1.2170  -10.7413    7.9785 C   0  0  0  0  0  0  0  0  0  0  0  0
    0.9712  -12.1355    7.4564 C   0  0  0  0  0  0  0  0  0  0  0  0
   -0.3477  -12.4770    7.4034 F   0  0  0  0  0  0  0  0  0  0  0  0
    1.4522  -12.3127    6.1952 F   0  0  0  0  0  0  0  0  0  0  0  0
    1.5699  -13.0892    8.2226 F   0  0  0  0  0  0  0  0  0  0  0  0
    2.5366  -10.2657    8.1465 C   0  0  0  0  0  0  0  0  0  0  0  0
    6.3642   -6.6791   11.0845 C   0  0  0  0  0  0  0  0  0  0  0  0
    7.6375   -6.1445   11.2253 C   0  0  0  0  0  0  0  0  0  0  0  0
    8.5297   -6.1358   10.1420 C   0  0  0  0  0  0  0  0  0  0  0  0
    9.8727   -5.4873   10.3432 C   0  0  0  0  0  0  0  0  0  0  0  0
    8.6401   -8.7732    6.7517 N   0  0  0  0  0  0  0  0  0  0  0  0
    8.7420   -9.2233    5.4675 C   0  0  0  0  0  0  0  0  0  0  0  0
    8.4394  -10.4922    4.9469 C   0  0  0  0  0  0  0  0  0  0  0  0
    8.5902  -10.7253    3.5751 C   0  0  0  0  0  0  0  0  0  0  0  0
    9.1008   -9.7358    2.7429 C   0  0  0  0  0  0  0  0  0  0  0  0
    9.4679   -8.4911    3.2571 C   0  0  0  0  0  0  0  0  0  0  0  0
    9.2152   -8.2295    4.6203 C   0  0  0  0  0  0  0  0  0  0  0  0
   10.3782   -4.9574    5.8289 N   0  0  0  0  0  0  0  0  0  0  0  0
   10.8474   -3.8382    5.2389 C   0  0  0  0  0  0  0  0  0  0  0  0
   10.7371   -3.4988    3.9411 N   0  0  0  0  0  0  0  0  0  0  0  0
    9.9401    1.1308   -3.6757 H   0  0  0  0  0  0  0  0  0  0  0  0
   11.1868    0.9575   -2.4345 H   0  0  0  0  0  0  0  0  0  0  0  0
    9.9506    2.2337   -2.2979 H   0  0  0  0  0  0  0  0  0  0  0  0
    9.3328   -0.7264   -2.3926 H   0  0  0  0  0  0  0  0  0  0  0  0
    8.1762    0.5339   -1.9903 H   0  0  0  0  0  0  0  0  0  0  0  0
   10.3228    1.9456   -0.0758 H   0  0  0  0  0  0  0  0  0  0  0  0
    9.9921    1.0213    1.3493 H   0  0  0  0  0  0  0  0  0  0  0  0
    7.7181    2.1154   -0.3962 H   0  0  0  0  0  0  0  0  0  0  0  0
    8.4511    2.9961    0.9449 H   0  0  0  0  0  0  0  0  0  0  0  0
    7.6173    1.4709    1.2551 H   0  0  0  0  0  0  0  0  0  0  0  0
    7.5965   -0.6673    0.0740 H   0  0  0  0  0  0  0  0  0  0  0  0
    8.8414   -1.0393    1.2511 H   0  0  0  0  0  0  0  0  0  0  0  0
    8.4835   -2.4012   -1.4691 H   0  0  0  0  0  0  0  0  0  0  0  0
    8.0720   -3.0512    0.0869 H   0  0  0  0  0  0  0  0  0  0  0  0
   10.9196   -2.3498   -0.8480 H   0  0  0  0  0  0  0  0  0  0  0  0
   10.2071   -3.9529   -0.8011 H   0  0  0  0  0  0  0  0  0  0  0  0
   10.7291   -2.1754    1.6533 H   0  0  0  0  0  0  0  0  0  0  0  0
   11.6836   -3.5772    1.1369 H   0  0  0  0  0  0  0  0  0  0  0  0
    9.6871   -4.9270    1.2985 H   0  0  0  0  0  0  0  0  0  0  0  0
    8.7519   -6.0256    3.0843 H   0  0  0  0  0  0  0  0  0  0  0  0
    9.4453   -5.7362    7.6675 H   0  0  0  0  0  0  0  0  0  0  0  0
    6.5470   -7.7264    7.8525 H   0  0  0  0  0  0  0  0  0  0  0  0
    4.8597   -9.2121    8.5594 H   0  0  0  0  0  0  0  0  0  0  0  0
    1.8141   -7.1947    9.4142 H   0  0  0  0  0  0  0  0  0  0  0  0
   -0.4555   -7.9993    9.1129 H   0  0  0  0  0  0  0  0  0  0  0  0
   -0.8867  -10.2596    8.2097 H   0  0  0  0  0  0  0  0  0  0  0  0
    3.3664  -10.9186    7.8746 H   0  0  0  0  0  0  0  0  0  0  0  0
    5.6674   -6.6181   11.9198 H   0  0  0  0  0  0  0  0  0  0  0  0
    7.9131   -5.6993   12.1789 H   0  0  0  0  0  0  0  0  0  0  0  0
    9.9841   -5.1137   11.3684 H   0  0  0  0  0  0  0  0  0  0  0  0
    9.9830   -4.6293    9.6735 H   0  0  0  0  0  0  0  0  0  0  0  0
   10.6780   -6.2061   10.1681 H   0  0  0  0  0  0  0  0  0  0  0  0
    8.0792  -11.2745    5.6057 H   0  0  0  0  0  0  0  0  0  0  0  0
    8.3192  -11.6918    3.1582 H   0  0  0  0  0  0  0  0  0  0  0  0
    9.2254   -9.9326    1.6795 H   0  0  0  0  0  0  0  0  0  0  0  0
    9.9229   -7.7645    2.5921 H   0  0  0  0  0  0  0  0  0  0  0  0
   11.3932   -3.1404    5.8694 H   0  0  0  0  0  0  0  0  0  0  0  0
  1  2  1  0  0  0  0
  1 47  1  0  0  0  0
  1 48  1  0  0  0  0
  1 49  1  0  0  0  0
  2  3  1  0  0  0  0
  2 50  1  0  0  0  0
  2 51  1  0  0  0  0
  3  4  1  0  0  0  0
  3  6  1  0  0  0  0
  4  5  1  0  0  0  0
  4 52  1  0  0  0  0
  4 53  1  0  0  0  0
  5 54  1  0  0  0  0
  5 55  1  0  0  0  0
  5 56  1  0  0  0  0
  6  7  1  0  0  0  0
  6 57  1  0  0  0  0
  6 58  1  0  0  0  0
  7  8  1  0  0  0  0
  7 59  1  0  0  0  0
  7 60  1  0  0  0  0
  8  9  1  0  0  0  0
  8 61  1  0  0  0  0
  8 62  1  0  0  0  0
  9 10  1  0  0  0  0
  9 63  1  0  0  0  0
  9 64  1  0  0  0  0
 10 11  1  0  0  0  0
 10 65  1  0  0  0  0
 11 12  1  0  0  0  0
 11 46  2  0  0  0  0
 12 13  2  0  0  0  0
 12 66  1  0  0  0  0
 13 14  1  0  0  0  0
 13 44  1  0  0  0  0
 14 15  1  0  0  0  0
 14 43  1  0  0  0  0
 15 16  1  0  0  0  0
 15 37  2  0  0  0  0
 16 17  1  0  0  0  0
 16 67  1  0  0  0  0
 17 18  1  0  0  0  0
 17 35  2  0  0  0  0
 18 19  2  0  0  0  0
 18 68  1  0  0  0  0
 19 20  1  0  0  0  0
 19 33  1  0  0  0  0
 20 21  2  0  0  0  0
 20 22  1  0  0  0  0
 22 23  1  0  0  0  0
 22 69  1  0  0  0  0
 23 24  1  0  0  0  0
 23 32  2  0  0  0  0
 24 25  2  0  0  0  0
 24 70  1  0  0  0  0
 25 26  1  0  0  0  0
 25 71  1  0  0  0  0
 26 27  2  0  0  0  0
 26 72  1  0  0  0  0
 27 28  1  0  0  0  0
 27 32  1  0  0  0  0
 28 29  1  0  0  0  0
 28 30  1  0  0  0  0
 28 31  1  0  0  0  0
 32 73  1  0  0  0  0
 33 34  2  0  0  0  0
 33 74  1  0  0  0  0
 34 35  1  0  0  0  0
 34 75  1  0  0  0  0
 35 36  1  0  0  0  0
 36 76  1  0  0  0  0
 36 77  1  0  0  0  0
 36 78  1  0  0  0  0
 37 38  1  0  0  0  0
 38 39  1  0  0  0  0
 38 43  2  0  0  0  0
 39 40  2  0  0  0  0
 39 79  1  0  0  0  0
 40 41  1  0  0  0  0
 40 80  1  0  0  0  0
 41 42  2  0  0  0  0
 41 81  1  0  0  0  0
 42 43  1  0  0  0  0
 42 82  1  0  0  0  0
 44 45  2  0  0  0  0
 45 46  1  0  0  0  0
 45 83  1  0  0  0  0
M  END
$$$$
