CHEMBL2386804
 OpenBabel04072215363D

 65 69  0  0  0  0  0  0  0  0999 V2000
    2.0418    2.9560   -4.9623 C   0  0  0  0  0  0  0  0  0  0  0  0
    2.3784    2.1927   -3.7203 C   0  0  0  0  0  0  0  0  0  0  0  0
    1.8488    2.6601   -2.5833 N   0  0  0  0  0  0  0  0  0  0  0  0
    2.1240    2.0030   -1.4465 C   0  0  0  0  0  0  0  0  0  0  0  0
    1.6317    2.4935   -0.2196 N   0  0  0  0  0  0  0  0  0  0  0  0
    0.9642    3.6669   -0.1077 C   0  0  0  0  0  0  0  0  0  0  0  0
    0.1184    4.1489    0.8484 C   0  0  0  0  0  0  0  0  0  0  0  0
   -0.2814    5.4422    0.3952 C   0  0  0  0  0  0  0  0  0  0  0  0
   -1.2032    6.3612    1.0556 C   0  0  0  0  0  0  0  0  0  0  0  0
   -1.7369    6.0075    2.2889 C   0  0  0  0  0  0  0  0  0  0  0  0
   -2.6168    6.8552    2.9478 C   0  0  0  0  0  0  0  0  0  0  0  0
   -3.0053    8.0790    2.4038 C   0  0  0  0  0  0  0  0  0  0  0  0
   -3.9220    8.9453    3.0653 N   0  0  0  0  0  0  0  0  0  0  0  0
   -4.5613    8.6393    4.2507 C   0  0  0  0  0  0  0  0  0  0  0  0
   -4.4259    7.5786    4.8477 O   0  0  0  0  0  0  0  0  0  0  0  0
   -5.3971    9.6426    4.7072 N   0  0  0  0  0  0  0  0  0  0  0  0
   -6.0878    9.5487    5.9473 C   0  0  0  0  0  0  0  0  0  0  0  0
   -5.6561    8.7160    6.9911 C   0  0  0  0  0  0  0  0  0  0  0  0
   -6.4090    8.5564    8.1533 C   0  0  0  0  0  0  0  0  0  0  0  0
   -7.5889    9.2681    8.3094 C   0  0  0  0  0  0  0  0  0  0  0  0
   -8.0029   10.1465    7.3060 C   0  0  0  0  0  0  0  0  0  0  0  0
   -7.2540   10.2928    6.1316 C   0  0  0  0  0  0  0  0  0  0  0  0
   -2.4695    8.4511    1.1682 C   0  0  0  0  0  0  0  0  0  0  0  0
   -1.5758    7.5936    0.4979 C   0  0  0  0  0  0  0  0  0  0  0  0
    0.3109    5.7450   -0.7706 N   0  0  0  0  0  0  0  0  0  0  0  0
    1.0410    4.6560   -1.0499 N   0  0  0  0  0  0  0  0  0  0  0  0
    2.9750    0.9301   -1.4380 C   0  0  0  0  0  0  0  0  0  0  0  0
    3.5263    0.5375   -2.6443 C   0  0  0  0  0  0  0  0  0  0  0  0
    4.4411   -0.5163   -2.5990 N   0  0  0  0  0  0  0  0  0  0  0  0
    4.6202   -1.2971   -3.8305 C   0  0  0  0  0  0  0  0  0  0  0  0
    5.4142   -2.5794   -3.4601 C   0  0  0  0  0  0  0  0  0  0  0  0
    6.7204   -2.2940   -2.8102 N   0  0  0  0  0  0  0  0  0  0  0  0
    7.3534   -3.5328   -2.3616 C   0  0  0  0  0  0  0  0  0  0  0  0
    6.5297   -1.3805   -1.6596 C   0  0  0  0  0  0  0  0  0  0  0  0
    5.7432   -0.1083   -2.0348 C   0  0  0  0  0  0  0  0  0  0  0  0
    3.2096    1.1417   -3.8013 N   0  0  0  0  0  0  0  0  0  0  0  0
    1.3517    3.7761   -4.7313 H   0  0  0  0  0  0  0  0  0  0  0  0
    1.5611    2.3037   -5.6945 H   0  0  0  0  0  0  0  0  0  0  0  0
    2.9492    3.3901   -5.3900 H   0  0  0  0  0  0  0  0  0  0  0  0
    1.4181    1.7509    0.4408 H   0  0  0  0  0  0  0  0  0  0  0  0
   -0.1895    3.6285    1.7427 H   0  0  0  0  0  0  0  0  0  0  0  0
   -1.4904    5.0718    2.7793 H   0  0  0  0  0  0  0  0  0  0  0  0
   -2.9585    6.4915    3.9061 H   0  0  0  0  0  0  0  0  0  0  0  0
   -4.0996    9.8383    2.6275 H   0  0  0  0  0  0  0  0  0  0  0  0
   -5.7641   10.2858    4.0222 H   0  0  0  0  0  0  0  0  0  0  0  0
   -4.7277    8.1554    6.9280 H   0  0  0  0  0  0  0  0  0  0  0  0
   -6.0685    7.8672    8.9213 H   0  0  0  0  0  0  0  0  0  0  0  0
   -8.1851    9.1343    9.2069 H   0  0  0  0  0  0  0  0  0  0  0  0
   -8.9249   10.7069    7.4348 H   0  0  0  0  0  0  0  0  0  0  0  0
   -7.6177   10.9637    5.3590 H   0  0  0  0  0  0  0  0  0  0  0  0
   -2.7325    9.3947    0.6978 H   0  0  0  0  0  0  0  0  0  0  0  0
   -1.1712    7.8915   -0.4684 H   0  0  0  0  0  0  0  0  0  0  0  0
    1.5622    4.6057   -1.9202 H   0  0  0  0  0  0  0  0  0  0  0  0
    3.2261    0.4103   -0.5231 H   0  0  0  0  0  0  0  0  0  0  0  0
    5.1634   -0.7231   -4.5928 H   0  0  0  0  0  0  0  0  0  0  0  0
    3.6503   -1.5930   -4.2481 H   0  0  0  0  0  0  0  0  0  0  0  0
    5.5797   -3.1656   -4.3710 H   0  0  0  0  0  0  0  0  0  0  0  0
    4.7907   -3.1841   -2.7862 H   0  0  0  0  0  0  0  0  0  0  0  0
    7.5339   -4.1996   -3.2103 H   0  0  0  0  0  0  0  0  0  0  0  0
    6.7429   -4.0683   -1.6246 H   0  0  0  0  0  0  0  0  0  0  0  0
    8.3275   -3.3213   -1.9089 H   0  0  0  0  0  0  0  0  0  0  0  0
    7.5059   -1.0806   -1.2612 H   0  0  0  0  0  0  0  0  0  0  0  0
    5.9870   -1.8942   -0.8538 H   0  0  0  0  0  0  0  0  0  0  0  0
    6.3087    0.4865   -2.7658 H   0  0  0  0  0  0  0  0  0  0  0  0
    5.6267    0.5046   -1.1329 H   0  0  0  0  0  0  0  0  0  0  0  0
  1  2  1  0  0  0  0
  1 37  1  0  0  0  0
  1 38  1  0  0  0  0
  1 39  1  0  0  0  0
  2  3  1  0  0  0  0
  2 36  2  0  0  0  0
  3  4  2  0  0  0  0
  4  5  1  0  0  0  0
  4 27  1  0  0  0  0
  5  6  1  0  0  0  0
  5 40  1  0  0  0  0
  6  7  2  0  0  0  0
  6 26  1  0  0  0  0
  7  8  1  0  0  0  0
  7 41  1  0  0  0  0
  8  9  1  0  0  0  0
  8 25  2  0  0  0  0
  9 10  1  0  0  0  0
  9 24  2  0  0  0  0
 10 11  2  0  0  0  0
 10 42  1  0  0  0  0
 11 12  1  0  0  0  0
 11 43  1  0  0  0  0
 12 13  1  0  0  0  0
 12 23  2  0  0  0  0
 13 14  1  0  0  0  0
 13 44  1  0  0  0  0
 14 15  2  0  0  0  0
 14 16  1  0  0  0  0
 16 17  1  0  0  0  0
 16 45  1  0  0  0  0
 17 18  1  0  0  0  0
 17 22  2  0  0  0  0
 18 19  2  0  0  0  0
 18 46  1  0  0  0  0
 19 20  1  0  0  0  0
 19 47  1  0  0  0  0
 20 21  2  0  0  0  0
 20 48  1  0  0  0  0
 21 22  1  0  0  0  0
 21 49  1  0  0  0  0
 22 50  1  0  0  0  0
 23 24  1  0  0  0  0
 23 51  1  0  0  0  0
 24 52  1  0  0  0  0
 25 26  1  0  0  0  0
 26 53  1  0  0  0  0
 27 28  2  0  0  0  0
 27 54  1  0  0  0  0
 28 29  1  0  0  0  0
 28 36  1  0  0  0  0
 29 30  1  0  0  0  0
 29 35  1  0  0  0  0
 30 31  1  0  0  0  0
 30 55  1  0  0  0  0
 30 56  1  0  0  0  0
 31 32  1  0  0  0  0
 31 57  1  0  0  0  0
 31 58  1  0  0  0  0
 32 33  1  0  0  0  0
 32 34  1  0  0  0  0
 33 59  1  0  0  0  0
 33 60  1  0  0  0  0
 33 61  1  0  0  0  0
 34 35  1  0  0  0  0
 34 62  1  0  0  0  0
 34 63  1  0  0  0  0
 35 64  1  0  0  0  0
 35 65  1  0  0  0  0
M  END
$$$$
