CHEMBL4474232
 OpenBabel04072215383D

 51 55  0  0  0  0  0  0  0  0999 V2000
    9.9200   -1.1988   -1.2430 N   0  0  0  0  0  0  0  0  0  0  0  0
    9.2835   -2.4362   -1.1244 C   0  0  0  0  0  0  0  0  0  0  0  0
    9.7460   -3.3810   -1.9689 N   0  0  0  0  0  0  0  0  0  0  0  0
    9.1512   -4.5923   -1.9352 C   0  0  0  0  0  0  0  0  0  0  0  0
    8.1033   -4.9150   -1.0955 C   0  0  0  0  0  0  0  0  0  0  0  0
    7.5894   -3.9170   -0.2691 C   0  0  0  0  0  0  0  0  0  0  0  0
    6.5216   -4.1652    0.5719 O   0  0  0  0  0  0  0  0  0  0  0  0
    5.4317   -4.8685    0.0941 C   0  0  0  0  0  0  0  0  0  0  0  0
    4.7200   -5.6289    1.0265 C   0  0  0  0  0  0  0  0  0  0  0  0
    3.5528   -6.3242    0.6490 C   0  0  0  0  0  0  0  0  0  0  0  0
    3.0674   -6.2714   -0.6660 C   0  0  0  0  0  0  0  0  0  0  0  0
    1.8714   -6.9338   -1.0283 N   0  0  0  0  0  0  0  0  0  0  0  0
    1.5196   -7.4737   -2.2836 C   0  0  0  0  0  0  0  0  0  0  0  0
    2.5458   -7.6546   -3.1655 N   0  0  0  0  0  0  0  0  0  0  0  0
    2.2966   -8.0696   -4.4176 C   0  0  0  0  0  0  0  0  0  0  0  0
    1.0333   -8.3360   -4.8751 C   0  0  0  0  0  0  0  0  0  0  0  0
   -0.0258   -8.1420   -3.9931 C   0  0  0  0  0  0  0  0  0  0  0  0
   -1.3719   -8.3002   -4.5038 C   0  0  0  0  0  0  0  0  0  0  0  0
   -2.4092   -8.0535   -3.7116 C   0  0  0  0  0  0  0  0  0  0  0  0
   -2.3155   -7.7157   -2.3636 N   0  0  0  0  0  0  0  0  0  0  0  0
   -3.5541   -7.5321   -1.5968 C   0  0  0  0  0  0  0  0  0  0  0  0
   -3.6007   -6.8766   -0.3584 C   0  0  0  0  0  0  0  0  0  0  0  0
   -4.8191   -6.6715    0.3171 C   0  0  0  0  0  0  0  0  0  0  0  0
   -6.0143   -7.1062   -0.2432 C   0  0  0  0  0  0  0  0  0  0  0  0
   -7.1700   -6.8970    0.4022 F   0  0  0  0  0  0  0  0  0  0  0  0
   -6.0133   -7.7697   -1.4495 C   0  0  0  0  0  0  0  0  0  0  0  0
   -4.7982   -7.9868   -2.1096 C   0  0  0  0  0  0  0  0  0  0  0  0
   -1.0090   -7.5816   -1.7651 C   0  0  0  0  0  0  0  0  0  0  0  0
   -0.7821   -7.4113   -0.5649 O   0  0  0  0  0  0  0  0  0  0  0  0
    0.1898   -7.7275   -2.6709 C   0  0  0  0  0  0  0  0  0  0  0  0
    3.8130   -5.5281   -1.5926 C   0  0  0  0  0  0  0  0  0  0  0  0
    4.9554   -4.8200   -1.2149 C   0  0  0  0  0  0  0  0  0  0  0  0
    5.5694   -4.0819   -2.1518 F   0  0  0  0  0  0  0  0  0  0  0  0
    8.2101   -2.6619   -0.2495 C   0  0  0  0  0  0  0  0  0  0  0  0
    7.6929   -1.4262    0.8467 Cl  0  0  0  0  0  0  0  0  0  0  0  0
   10.7056   -1.3149   -1.8793 H   0  0  0  0  0  0  0  0  0  0  0  0
   10.1836   -0.8105   -0.3454 H   0  0  0  0  0  0  0  0  0  0  0  0
    9.5467   -5.3223   -2.6357 H   0  0  0  0  0  0  0  0  0  0  0  0
    7.6797   -5.9119   -1.1146 H   0  0  0  0  0  0  0  0  0  0  0  0
    5.0648   -5.6782    2.0570 H   0  0  0  0  0  0  0  0  0  0  0  0
    3.0286   -6.9089    1.4016 H   0  0  0  0  0  0  0  0  0  0  0  0
    1.3021   -7.3009   -0.2692 H   0  0  0  0  0  0  0  0  0  0  0  0
    3.1629   -8.1576   -5.0651 H   0  0  0  0  0  0  0  0  0  0  0  0
    0.8787   -8.6537   -5.8996 H   0  0  0  0  0  0  0  0  0  0  0  0
   -1.5216   -8.5640   -5.5455 H   0  0  0  0  0  0  0  0  0  0  0  0
   -3.3856   -8.0895   -4.1793 H   0  0  0  0  0  0  0  0  0  0  0  0
   -2.7078   -6.4758    0.1101 H   0  0  0  0  0  0  0  0  0  0  0  0
   -4.8369   -6.1557    1.2737 H   0  0  0  0  0  0  0  0  0  0  0  0
   -6.9485   -8.1152   -1.8782 H   0  0  0  0  0  0  0  0  0  0  0  0
   -4.8760   -8.5528   -3.0317 H   0  0  0  0  0  0  0  0  0  0  0  0
    3.5013   -5.4545   -2.6294 H   0  0  0  0  0  0  0  0  0  0  0  0
  1  2  1  0  0  0  0
  1 36  1  0  0  0  0
  1 37  1  0  0  0  0
  2  3  1  0  0  0  0
  2 34  2  0  0  0  0
  3  4  2  0  0  0  0
  4  5  1  0  0  0  0
  4 38  1  0  0  0  0
  5  6  2  0  0  0  0
  5 39  1  0  0  0  0
  6  7  1  0  0  0  0
  6 34  1  0  0  0  0
  7  8  1  0  0  0  0
  8  9  1  0  0  0  0
  8 32  2  0  0  0  0
  9 10  2  0  0  0  0
  9 40  1  0  0  0  0
 10 11  1  0  0  0  0
 10 41  1  0  0  0  0
 11 12  1  0  0  0  0
 11 31  2  0  0  0  0
 12 13  1  0  0  0  0
 12 42  1  0  0  0  0
 13 14  1  0  0  0  0
 13 30  2  0  0  0  0
 14 15  2  0  0  0  0
 15 16  1  0  0  0  0
 15 43  1  0  0  0  0
 16 17  2  0  0  0  0
 16 44  1  0  0  0  0
 17 18  1  0  0  0  0
 17 30  1  0  0  0  0
 18 19  2  0  0  0  0
 18 45  1  0  0  0  0
 19 20  1  0  0  0  0
 19 46  1  0  0  0  0
 20 21  1  0  0  0  0
 20 28  1  0  0  0  0
 21 22  1  0  0  0  0
 21 27  2  0  0  0  0
 22 23  2  0  0  0  0
 22 47  1  0  0  0  0
 23 24  1  0  0  0  0
 23 48  1  0  0  0  0
 24 25  1  0  0  0  0
 24 26  2  0  0  0  0
 26 27  1  0  0  0  0
 26 49  1  0  0  0  0
 27 50  1  0  0  0  0
 28 29  2  0  0  0  0
 28 30  1  0  0  0  0
 31 32  1  0  0  0  0
 31 51  1  0  0  0  0
 32 33  1  0  0  0  0
 34 35  1  0  0  0  0
M  END
$$$$
