CHEMBL3970841
 OpenBabel04072215373D

 56 59  0  0  0  0  0  0  0  0999 V2000
    2.6182    0.1906    0.1326 C   0  0  0  0  0  0  0  0  0  0  0  0
    1.1202    0.0549    0.1451 C   0  0  0  0  0  0  0  0  0  0  0  0
    0.3783    1.2559    0.1547 C   0  0  0  0  0  0  0  0  0  0  0  0
   -1.0082    1.2731   -0.0054 C   0  0  0  0  0  0  0  0  0  0  0  0
   -1.7684    2.4214   -0.0962 O   0  0  0  0  0  0  0  0  0  0  0  0
   -1.2349    3.5252   -0.7386 C   0  0  0  0  0  0  0  0  0  0  0  0
   -0.3603    3.4228   -1.8167 C   0  0  0  0  0  0  0  0  0  0  0  0
    0.1925    4.5844   -2.3014 C   0  0  0  0  0  0  0  0  0  0  0  0
   -0.1262    5.8041   -1.8369 N   0  0  0  0  0  0  0  0  0  0  0  0
   -1.0430    5.9094   -0.8617 C   0  0  0  0  0  0  0  0  0  0  0  0
   -1.4164    7.1900   -0.4091 N   0  0  0  0  0  0  0  0  0  0  0  0
   -0.8846    8.3680   -0.9003 C   0  0  0  0  0  0  0  0  0  0  0  0
   -0.0255    8.4889   -1.7624 O   0  0  0  0  0  0  0  0  0  0  0  0
   -1.3938    9.6375   -0.3004 C   0  0  0  0  0  0  0  0  0  0  0  0
   -1.1754    9.9012    1.1716 C   0  0  0  0  0  0  0  0  0  0  0  0
   -2.5702    9.8074    0.6218 C   0  0  0  0  0  0  0  0  0  0  0  0
   -1.6238    4.7863   -0.2806 C   0  0  0  0  0  0  0  0  0  0  0  0
   -1.6749    0.0664   -0.0617 C   0  0  0  0  0  0  0  0  0  0  0  0
   -0.9664   -1.1403   -0.0036 C   0  0  0  0  0  0  0  0  0  0  0  0
    0.4387   -1.1793    0.0970 C   0  0  0  0  0  0  0  0  0  0  0  0
    1.1495   -2.4184    0.1580 N   0  0  0  0  0  0  0  0  0  0  0  0
    0.5795   -3.6747    0.3585 C   0  0  0  0  0  0  0  0  0  0  0  0
   -0.6194   -3.8929    0.4832 O   0  0  0  0  0  0  0  0  0  0  0  0
    1.5315   -4.6845    0.4936 N   0  0  0  0  0  0  0  0  0  0  0  0
    1.1226   -6.0165    0.7819 C   0  0  0  0  0  0  0  0  0  0  0  0
    1.7452   -6.6976    1.8312 C   0  0  0  0  0  0  0  0  0  0  0  0
    1.2647   -7.9468    2.2333 C   0  0  0  0  0  0  0  0  0  0  0  0
    0.2120   -8.5493    1.5499 C   0  0  0  0  0  0  0  0  0  0  0  0
   -0.2849   -9.7000    2.0200 F   0  0  0  0  0  0  0  0  0  0  0  0
   -0.3424   -7.9429    0.4238 C   0  0  0  0  0  0  0  0  0  0  0  0
   -1.3528   -8.4560   -0.3381 O   0  0  0  0  0  0  0  0  0  0  0  0
   -1.3492   -9.8539   -0.6171 C   0  0  0  0  0  0  0  0  0  0  0  0
   -0.2645  -10.5175   -0.1683 F   0  0  0  0  0  0  0  0  0  0  0  0
   -2.4638  -10.4185   -0.1060 F   0  0  0  0  0  0  0  0  0  0  0  0
   -1.3842  -10.0130   -1.9619 F   0  0  0  0  0  0  0  0  0  0  0  0
    0.0870   -6.6517    0.0747 C   0  0  0  0  0  0  0  0  0  0  0  0
    2.9224    1.2328    0.3138 H   0  0  0  0  0  0  0  0  0  0  0  0
    3.0108   -0.0838   -0.8527 H   0  0  0  0  0  0  0  0  0  0  0  0
    3.0864   -0.4157    0.9094 H   0  0  0  0  0  0  0  0  0  0  0  0
    0.9071    2.2040    0.2520 H   0  0  0  0  0  0  0  0  0  0  0  0
   -0.0755    2.4716   -2.2495 H   0  0  0  0  0  0  0  0  0  0  0  0
    0.9406    4.5723   -3.0868 H   0  0  0  0  0  0  0  0  0  0  0  0
   -2.1071    7.2412    0.3234 H   0  0  0  0  0  0  0  0  0  0  0  0
   -1.2136   10.4813   -0.9656 H   0  0  0  0  0  0  0  0  0  0  0  0
   -0.7818   10.8759    1.4407 H   0  0  0  0  0  0  0  0  0  0  0  0
   -0.8131    9.0936    1.7967 H   0  0  0  0  0  0  0  0  0  0  0  0
   -3.1345   10.7323    0.5335 H   0  0  0  0  0  0  0  0  0  0  0  0
   -3.1829    8.9616    0.8982 H   0  0  0  0  0  0  0  0  0  0  0  0
   -2.3523    4.8682    0.5165 H   0  0  0  0  0  0  0  0  0  0  0  0
   -2.7636    0.0325   -0.1580 H   0  0  0  0  0  0  0  0  0  0  0  0
   -1.5730   -2.0389   -0.0780 H   0  0  0  0  0  0  0  0  0  0  0  0
    2.1555   -2.3682    0.1001 H   0  0  0  0  0  0  0  0  0  0  0  0
    2.3961   -4.3868    0.9212 H   0  0  0  0  0  0  0  0  0  0  0  0
    2.5431   -6.2333    2.4027 H   0  0  0  0  0  0  0  0  0  0  0  0
    1.6806   -8.4450    3.1037 H   0  0  0  0  0  0  0  0  0  0  0  0
   -0.3985   -6.1419   -0.7550 H   0  0  0  0  0  0  0  0  0  0  0  0
  1  2  1  0  0  0  0
  1 37  1  0  0  0  0
  1 38  1  0  0  0  0
  1 39  1  0  0  0  0
  2  3  1  0  0  0  0
  2 20  2  0  0  0  0
  3  4  2  0  0  0  0
  3 40  1  0  0  0  0
  4  5  1  0  0  0  0
  4 18  1  0  0  0  0
  5  6  1  0  0  0  0
  6  7  1  0  0  0  0
  6 17  2  0  0  0  0
  7  8  2  0  0  0  0
  7 41  1  0  0  0  0
  8  9  1  0  0  0  0
  8 42  1  0  0  0  0
  9 10  2  0  0  0  0
 10 11  1  0  0  0  0
 10 17  1  0  0  0  0
 11 12  1  0  0  0  0
 11 43  1  0  0  0  0
 12 13  2  0  0  0  0
 12 14  1  0  0  0  0
 14 15  1  0  0  0  0
 14 16  1  0  0  0  0
 14 44  1  0  0  0  0
 15 16  1  0  0  0  0
 15 45  1  0  0  0  0
 15 46  1  0  0  0  0
 16 47  1  0  0  0  0
 16 48  1  0  0  0  0
 17 49  1  0  0  0  0
 18 19  2  0  0  0  0
 18 50  1  0  0  0  0
 19 20  1  0  0  0  0
 19 51  1  0  0  0  0
 20 21  1  0  0  0  0
 21 22  1  0  0  0  0
 21 52  1  0  0  0  0
 22 23  2  0  0  0  0
 22 24  1  0  0  0  0
 24 25  1  0  0  0  0
 24 53  1  0  0  0  0
 25 26  1  0  0  0  0
 25 36  2  0  0  0  0
 26 27  2  0  0  0  0
 26 54  1  0  0  0  0
 27 28  1  0  0  0  0
 27 55  1  0  0  0  0
 28 29  1  0  0  0  0
 28 30  2  0  0  0  0
 30 31  1  0  0  0  0
 30 36  1  0  0  0  0
 31 32  1  0  0  0  0
 32 33  1  0  0  0  0
 32 34  1  0  0  0  0
 32 35  1  0  0  0  0
 36 56  1  0  0  0  0
M  END
$$$$
