CHEMBL4573769
 OpenBabel04072215383D

 45 49  0  0  0  0  0  0  0  0999 V2000
    2.0661    0.3408   -1.1286 O   0  0  0  0  0  0  0  0  0  0  0  0
    2.0235   -0.0502    0.0336 C   0  0  0  0  0  0  0  0  0  0  0  0
    1.2023   -1.0523    0.5000 N   0  0  0  0  0  0  0  0  0  0  0  0
    0.4362   -1.7777   -0.3680 C   0  0  0  0  0  0  0  0  0  0  0  0
    0.5333   -1.8313   -1.6661 N   0  0  0  0  0  0  0  0  0  0  0  0
   -0.4408   -2.6610   -2.1709 C   0  0  0  0  0  0  0  0  0  0  0  0
   -0.6305   -2.9608   -3.5336 C   0  0  0  0  0  0  0  0  0  0  0  0
   -1.6656   -3.8155   -3.9110 C   0  0  0  0  0  0  0  0  0  0  0  0
   -2.5084   -4.3496   -2.9454 C   0  0  0  0  0  0  0  0  0  0  0  0
   -3.5006   -5.1641   -3.3283 F   0  0  0  0  0  0  0  0  0  0  0  0
   -2.3494   -4.0723   -1.5872 C   0  0  0  0  0  0  0  0  0  0  0  0
   -1.2905   -3.2314   -1.2176 C   0  0  0  0  0  0  0  0  0  0  0  0
   -0.7766   -2.7283    0.3536 S   0  0  0  0  0  0  0  0  0  0  0  0
    2.8458    0.5829    1.0562 C   0  0  0  0  0  0  0  0  0  0  0  0
    2.6258    0.5625    2.4194 C   0  0  0  0  0  0  0  0  0  0  0  0
    3.5958    1.3367    3.0072 N   0  0  0  0  0  0  0  0  0  0  0  0
    3.7744    1.5741    4.3975 C   0  0  0  0  0  0  0  0  0  0  0  0
    2.9657    0.9292    5.3473 C   0  0  0  0  0  0  0  0  0  0  0  0
    3.1828    1.1339    6.7085 C   0  0  0  0  0  0  0  0  0  0  0  0
    4.1971    1.9894    7.1338 C   0  0  0  0  0  0  0  0  0  0  0  0
    4.9912    2.6482    6.1965 C   0  0  0  0  0  0  0  0  0  0  0  0
    4.7860    2.4427    4.8309 C   0  0  0  0  0  0  0  0  0  0  0  0
    4.4265    1.8694    2.0867 N   0  0  0  0  0  0  0  0  0  0  0  0
    4.0171    1.3910    0.8995 C   0  0  0  0  0  0  0  0  0  0  0  0
    4.7684    1.7212   -0.3211 C   0  0  0  0  0  0  0  0  0  0  0  0
    4.9206    0.7897   -1.3594 C   0  0  0  0  0  0  0  0  0  0  0  0
    5.6129    1.1204   -2.5282 C   0  0  0  0  0  0  0  0  0  0  0  0
    6.1933    2.3778   -2.6540 C   0  0  0  0  0  0  0  0  0  0  0  0
    7.0541    2.7805   -4.0878 Cl  0  0  0  0  0  0  0  0  0  0  0  0
    6.0855    3.3069   -1.6220 C   0  0  0  0  0  0  0  0  0  0  0  0
    5.3751    2.9795   -0.4608 C   0  0  0  0  0  0  0  0  0  0  0  0
    1.0972   -1.2466    1.4803 H   0  0  0  0  0  0  0  0  0  0  0  0
    0.0355   -2.5232   -4.2726 H   0  0  0  0  0  0  0  0  0  0  0  0
   -1.8165   -4.0630   -4.9577 H   0  0  0  0  0  0  0  0  0  0  0  0
   -3.0222   -4.5027   -0.8543 H   0  0  0  0  0  0  0  0  0  0  0  0
    1.8496    0.0981    3.0035 H   0  0  0  0  0  0  0  0  0  0  0  0
    2.1673    0.2495    5.0675 H   0  0  0  0  0  0  0  0  0  0  0  0
    2.5643    0.6181    7.4404 H   0  0  0  0  0  0  0  0  0  0  0  0
    4.3689    2.1396    8.1956 H   0  0  0  0  0  0  0  0  0  0  0  0
    5.7791    3.3200    6.5302 H   0  0  0  0  0  0  0  0  0  0  0  0
    5.4220    2.9640    4.1182 H   0  0  0  0  0  0  0  0  0  0  0  0
    4.4894   -0.2055   -1.2881 H   0  0  0  0  0  0  0  0  0  0  0  0
    5.6851    0.3916   -3.3310 H   0  0  0  0  0  0  0  0  0  0  0  0
    6.5459    4.2866   -1.7134 H   0  0  0  0  0  0  0  0  0  0  0  0
    5.2946    3.7161    0.3363 H   0  0  0  0  0  0  0  0  0  0  0  0
  1  2  2  0  0  0  0
  2  3  1  0  0  0  0
  2 14  1  0  0  0  0
  3  4  1  0  0  0  0
  3 32  1  0  0  0  0
  4  5  2  0  0  0  0
  4 13  1  0  0  0  0
  5  6  1  0  0  0  0
  6  7  1  0  0  0  0
  6 12  2  0  0  0  0
  7  8  2  0  0  0  0
  7 33  1  0  0  0  0
  8  9  1  0  0  0  0
  8 34  1  0  0  0  0
  9 10  1  0  0  0  0
  9 11  2  0  0  0  0
 11 12  1  0  0  0  0
 11 35  1  0  0  0  0
 12 13  1  0  0  0  0
 14 15  2  0  0  0  0
 14 24  1  0  0  0  0
 15 16  1  0  0  0  0
 15 36  1  0  0  0  0
 16 17  1  0  0  0  0
 16 23  1  0  0  0  0
 17 18  1  0  0  0  0
 17 22  2  0  0  0  0
 18 19  2  0  0  0  0
 18 37  1  0  0  0  0
 19 20  1  0  0  0  0
 19 38  1  0  0  0  0
 20 21  2  0  0  0  0
 20 39  1  0  0  0  0
 21 22  1  0  0  0  0
 21 40  1  0  0  0  0
 22 41  1  0  0  0  0
 23 24  2  0  0  0  0
 24 25  1  0  0  0  0
 25 26  1  0  0  0  0
 25 31  2  0  0  0  0
 26 27  2  0  0  0  0
 26 42  1  0  0  0  0
 27 28  1  0  0  0  0
 27 43  1  0  0  0  0
 28 29  1  0  0  0  0
 28 30  2  0  0  0  0
 30 31  1  0  0  0  0
 30 44  1  0  0  0  0
 31 45  1  0  0  0  0
M  END
$$$$
