CHEMBL3951316
 OpenBabel04072215373D

 64 68  0  0  0  0  0  0  0  0999 V2000
    1.0954    0.1696   -0.3511 C   0  0  0  0  0  0  0  0  0  0  0  0
    2.3232   -0.3417    0.2168 O   0  0  0  0  0  0  0  0  0  0  0  0
    3.1985   -0.9965   -0.6371 C   0  0  0  0  0  0  0  0  0  0  0  0
    2.9644   -1.0494   -2.0113 C   0  0  0  0  0  0  0  0  0  0  0  0
    3.8729   -1.6970   -2.8207 C   0  0  0  0  0  0  0  0  0  0  0  0
    3.7297   -1.8949   -4.1705 O   0  0  0  0  0  0  0  0  0  0  0  0
    2.4905   -1.5378   -4.7826 C   0  0  0  0  0  0  0  0  0  0  0  0
    5.0579   -2.2225   -2.2553 C   0  0  0  0  0  0  0  0  0  0  0  0
    5.3638   -2.2794   -0.8651 C   0  0  0  0  0  0  0  0  0  0  0  0
    6.5907   -3.0002   -0.4078 N   0  0  0  0  0  0  0  0  0  0  0  0
    7.1786   -2.6310    0.9256 C   0  0  0  0  0  0  0  0  0  0  0  0
    7.1221   -3.6923    2.0817 C   0  0  0  0  0  0  0  0  0  0  0  0
    7.6219   -3.0841    3.4197 C   0  0  0  0  0  0  0  0  0  0  0  0
    9.1436   -2.9653    3.5262 C   0  0  0  0  0  0  0  0  0  0  0  0
    9.8945   -4.1385    3.1647 N   0  0  0  0  0  0  0  0  0  0  0  0
    9.3713   -5.0376    2.1612 C   0  0  0  0  0  0  0  0  0  0  0  0
    7.8572   -5.0326    1.9093 C   0  0  0  0  0  0  0  0  0  0  0  0
    7.3584   -3.9307   -1.2266 C   0  0  0  0  0  0  0  0  0  0  0  0
    6.5945   -4.6956   -2.1160 C   0  0  0  0  0  0  0  0  0  0  0  0
    7.1462   -5.5498   -3.0457 C   0  0  0  0  0  0  0  0  0  0  0  0
    8.4685   -5.8486   -3.0690 C   0  0  0  0  0  0  0  0  0  0  0  0
    8.6878   -6.8311   -3.9529 N   0  0  0  0  0  0  0  0  0  0  0  0
    9.9365   -7.2113   -4.1441 C   0  0  0  0  0  0  0  0  0  0  0  0
   11.0007   -6.6110   -3.5199 C   0  0  0  0  0  0  0  0  0  0  0  0
   12.3134   -7.0087   -4.0620 C   0  0  0  0  0  0  0  0  0  0  0  0
   13.1570   -6.3199   -4.9667 C   0  0  0  0  0  0  0  0  0  0  0  0
   14.0716   -7.1120   -5.5525 N   0  0  0  0  0  0  0  0  0  0  0  0
   13.8183   -8.3260   -5.0365 N   0  0  0  0  0  0  0  0  0  0  0  0
   14.7362   -9.4239   -5.2437 C   0  0  0  0  0  0  0  0  0  0  0  0
   12.6854   -8.3411   -4.2685 C   0  0  0  0  0  0  0  0  0  0  0  0
   10.7705   -5.5953   -2.5569 N   0  0  0  0  0  0  0  0  0  0  0  0
    9.4174   -5.1978   -2.2675 C   0  0  0  0  0  0  0  0  0  0  0  0
    8.7813   -4.2033   -1.3144 C   0  0  0  0  0  0  0  0  0  0  0  0
    4.3780   -1.6275   -0.0627 C   0  0  0  0  0  0  0  0  0  0  0  0
    0.5450    0.7235    0.4186 H   0  0  0  0  0  0  0  0  0  0  0  0
    0.4474   -0.6493   -0.6878 H   0  0  0  0  0  0  0  0  0  0  0  0
    1.2667    0.8804   -1.1706 H   0  0  0  0  0  0  0  0  0  0  0  0
    2.0950   -0.5845   -2.4579 H   0  0  0  0  0  0  0  0  0  0  0  0
    2.4985   -1.9331   -5.8044 H   0  0  0  0  0  0  0  0  0  0  0  0
    2.3934   -0.4495   -4.8494 H   0  0  0  0  0  0  0  0  0  0  0  0
    1.6235   -1.9773   -4.2746 H   0  0  0  0  0  0  0  0  0  0  0  0
    5.7527   -2.6209   -2.9859 H   0  0  0  0  0  0  0  0  0  0  0  0
    6.6326   -1.7579    1.3147 H   0  0  0  0  0  0  0  0  0  0  0  0
    8.2014   -2.2720    0.7918 H   0  0  0  0  0  0  0  0  0  0  0  0
    6.0607   -3.9386    2.2275 H   0  0  0  0  0  0  0  0  0  0  0  0
    7.2680   -3.7055    4.2541 H   0  0  0  0  0  0  0  0  0  0  0  0
    7.1821   -2.0917    3.5757 H   0  0  0  0  0  0  0  0  0  0  0  0
    9.3994   -2.7048    4.5623 H   0  0  0  0  0  0  0  0  0  0  0  0
    9.4942   -2.1226    2.9190 H   0  0  0  0  0  0  0  0  0  0  0  0
   10.3835   -4.5977    3.9286 H   0  0  0  0  0  0  0  0  0  0  0  0
    9.6573   -6.0563    2.4396 H   0  0  0  0  0  0  0  0  0  0  0  0
    9.9074   -4.8453    1.2256 H   0  0  0  0  0  0  0  0  0  0  0  0
    7.4217   -5.7377    2.6335 H   0  0  0  0  0  0  0  0  0  0  0  0
    7.6452   -5.4782    0.9344 H   0  0  0  0  0  0  0  0  0  0  0  0
    5.5150   -4.6282   -2.1329 H   0  0  0  0  0  0  0  0  0  0  0  0
    6.4992   -5.9957   -3.7952 H   0  0  0  0  0  0  0  0  0  0  0  0
   10.0634   -8.0156   -4.8699 H   0  0  0  0  0  0  0  0  0  0  0  0
   13.0946   -5.2937   -5.2962 H   0  0  0  0  0  0  0  0  0  0  0  0
   15.6047   -9.0846   -5.8163 H   0  0  0  0  0  0  0  0  0  0  0  0
   14.2333  -10.2381   -5.7728 H   0  0  0  0  0  0  0  0  0  0  0  0
   15.0643   -9.7622   -4.2569 H   0  0  0  0  0  0  0  0  0  0  0  0
   12.2442   -9.2831   -3.9667 H   0  0  0  0  0  0  0  0  0  0  0  0
    9.4640   -3.6611   -0.6569 H   0  0  0  0  0  0  0  0  0  0  0  0
    4.4577   -1.5925    1.0187 H   0  0  0  0  0  0  0  0  0  0  0  0
  1  2  1  0  0  0  0
  1 35  1  0  0  0  0
  1 36  1  0  0  0  0
  1 37  1  0  0  0  0
  2  3  1  0  0  0  0
  3  4  1  0  0  0  0
  3 34  2  0  0  0  0
  4  5  2  0  0  0  0
  4 38  1  0  0  0  0
  5  6  1  0  0  0  0
  5  8  1  0  0  0  0
  6  7  1  0  0  0  0
  7 39  1  0  0  0  0
  7 40  1  0  0  0  0
  7 41  1  0  0  0  0
  8  9  2  0  0  0  0
  8 42  1  0  0  0  0
  9 10  1  0  0  0  0
  9 34  1  0  0  0  0
 10 11  1  0  0  0  0
 10 18  1  0  0  0  0
 11 12  1  0  0  0  0
 11 43  1  0  0  0  0
 11 44  1  0  0  0  0
 12 13  1  0  0  0  0
 12 17  1  0  0  0  0
 12 45  1  0  0  0  0
 13 14  1  0  0  0  0
 13 46  1  0  0  0  0
 13 47  1  0  0  0  0
 14 15  1  0  0  0  0
 14 48  1  0  0  0  0
 14 49  1  0  0  0  0
 15 16  1  0  0  0  0
 15 50  1  0  0  0  0
 16 17  1  0  0  0  0
 16 51  1  0  0  0  0
 16 52  1  0  0  0  0
 17 53  1  0  0  0  0
 17 54  1  0  0  0  0
 18 19  1  0  0  0  0
 18 33  2  0  0  0  0
 19 20  2  0  0  0  0
 19 55  1  0  0  0  0
 20 21  1  0  0  0  0
 20 56  1  0  0  0  0
 21 22  1  0  0  0  0
 21 32  2  0  0  0  0
 22 23  2  0  0  0  0
 23 24  1  0  0  0  0
 23 57  1  0  0  0  0
 24 25  1  0  0  0  0
 24 31  2  0  0  0  0
 25 26  1  0  0  0  0
 25 30  2  0  0  0  0
 26 27  2  0  0  0  0
 26 58  1  0  0  0  0
 27 28  1  0  0  0  0
 28 29  1  0  0  0  0
 28 30  1  0  0  0  0
 29 59  1  0  0  0  0
 29 60  1  0  0  0  0
 29 61  1  0  0  0  0
 30 62  1  0  0  0  0
 31 32  1  0  0  0  0
 32 33  1  0  0  0  0
 33 63  1  0  0  0  0
 34 64  1  0  0  0  0
M  END
$$$$
