CHEMBL2005482
 OpenBabel04072215363D

 72 78  0  0  0  0  0  0  0  0999 V2000
    9.6162    2.4888   -0.7421 O   0  0  0  0  0  0  0  0  0  0  0  0
    8.7497    3.3434   -0.5696 C   0  0  0  0  0  0  0  0  0  0  0  0
    9.1276    4.7589   -0.1605 C   0  0  0  0  0  0  0  0  0  0  0  0
    9.8220    4.8614    1.1806 C   0  0  0  0  0  0  0  0  0  0  0  0
   10.7841    5.8628    1.3841 C   0  0  0  0  0  0  0  0  0  0  0  0
   11.3893    6.0283    2.6318 C   0  0  0  0  0  0  0  0  0  0  0  0
   11.0383    5.1978    3.6933 C   0  0  0  0  0  0  0  0  0  0  0  0
   10.0869    4.1978    3.5058 C   0  0  0  0  0  0  0  0  0  0  0  0
    9.4763    4.0352    2.2601 C   0  0  0  0  0  0  0  0  0  0  0  0
    7.3840    3.1605   -0.7302 N   0  0  0  0  0  0  0  0  0  0  0  0
    6.7145    1.9344   -0.9774 C   0  0  0  0  0  0  0  0  0  0  0  0
    7.3530    0.6992   -0.8425 C   0  0  0  0  0  0  0  0  0  0  0  0
    6.6738   -0.5109   -1.0429 C   0  0  0  0  0  0  0  0  0  0  0  0
    7.3511   -1.7905   -0.8603 C   0  0  0  0  0  0  0  0  0  0  0  0
    7.1051   -2.8485   -1.7243 N   0  0  0  0  0  0  0  0  0  0  0  0
    7.8961   -3.7775   -1.2866 C   0  0  0  0  0  0  0  0  0  0  0  0
    8.2286   -5.4103   -1.7774 S   0  0  0  0  0  0  0  0  0  0  0  0
    9.3757   -5.5391   -0.4399 C   0  0  0  0  0  0  0  0  0  0  0  0
    9.4552   -4.4177    0.2924 C   0  0  0  0  0  0  0  0  0  0  0  0
    8.6279   -3.4220   -0.1937 N   0  0  0  0  0  0  0  0  0  0  0  0
    8.2982   -2.1254    0.1307 C   0  0  0  0  0  0  0  0  0  0  0  0
    8.8022   -1.4015    1.2971 C   0  0  0  0  0  0  0  0  0  0  0  0
   10.0732   -1.5189    1.8063 C   0  0  0  0  0  0  0  0  0  0  0  0
   10.3373   -0.7717    2.9304 C   0  0  0  0  0  0  0  0  0  0  0  0
    9.4524    0.0673    3.4970 N   0  0  0  0  0  0  0  0  0  0  0  0
    8.2469    0.1390    2.9215 C   0  0  0  0  0  0  0  0  0  0  0  0
    7.3469    1.0585    3.4535 N   0  0  0  0  0  0  0  0  0  0  0  0
    5.9444    1.0035    3.4372 C   0  0  0  0  0  0  0  0  0  0  0  0
    5.2479   -0.1880    3.2220 C   0  0  0  0  0  0  0  0  0  0  0  0
    3.8609   -0.2043    3.2019 C   0  0  0  0  0  0  0  0  0  0  0  0
    3.1521    0.9814    3.3897 C   0  0  0  0  0  0  0  0  0  0  0  0
    3.8009    2.2057    3.6026 C   0  0  0  0  0  0  0  0  0  0  0  0
    3.0848    3.3626    3.8203 N   0  0  0  0  0  0  0  0  0  0  0  0
    3.5987    4.4793    4.6234 C   0  0  0  0  0  0  0  0  0  0  0  0
    2.5044    4.9344    5.6072 C   0  0  0  0  0  0  0  0  0  0  0  0
    1.2730    5.2546    4.9374 O   0  0  0  0  0  0  0  0  0  0  0  0
    0.7878    4.1104    4.2138 C   0  0  0  0  0  0  0  0  0  0  0  0
    1.8016    3.6445    3.1598 C   0  0  0  0  0  0  0  0  0  0  0  0
    5.2065    2.1844    3.6186 C   0  0  0  0  0  0  0  0  0  0  0  0
    7.8920   -0.5950    1.8579 N   0  0  0  0  0  0  0  0  0  0  0  0
    5.3360   -0.4752   -1.4539 C   0  0  0  0  0  0  0  0  0  0  0  0
    4.6780    0.7490   -1.5988 C   0  0  0  0  0  0  0  0  0  0  0  0
    5.3581    1.9441   -1.3408 C   0  0  0  0  0  0  0  0  0  0  0  0
    4.4962    3.4356   -1.5268 Cl  0  0  0  0  0  0  0  0  0  0  0  0
    8.2463    5.4096   -0.1405 H   0  0  0  0  0  0  0  0  0  0  0  0
    9.7865    5.1356   -0.9534 H   0  0  0  0  0  0  0  0  0  0  0  0
   11.0707    6.5238    0.5689 H   0  0  0  0  0  0  0  0  0  0  0  0
   12.1337    6.8071    2.7749 H   0  0  0  0  0  0  0  0  0  0  0  0
   11.5070    5.3284    4.6649 H   0  0  0  0  0  0  0  0  0  0  0  0
    9.8205    3.5406    4.3291 H   0  0  0  0  0  0  0  0  0  0  0  0
    8.7360    3.2468    2.1419 H   0  0  0  0  0  0  0  0  0  0  0  0
    6.7847    3.9793   -0.7335 H   0  0  0  0  0  0  0  0  0  0  0  0
    8.3927    0.6564   -0.5413 H   0  0  0  0  0  0  0  0  0  0  0  0
    9.9360   -6.4478   -0.2576 H   0  0  0  0  0  0  0  0  0  0  0  0
   10.0790   -4.2695    1.1584 H   0  0  0  0  0  0  0  0  0  0  0  0
   10.8396   -2.1377    1.3656 H   0  0  0  0  0  0  0  0  0  0  0  0
   11.3035   -0.8247    3.4241 H   0  0  0  0  0  0  0  0  0  0  0  0
    7.7509    1.5092    4.2613 H   0  0  0  0  0  0  0  0  0  0  0  0
    5.7792   -1.1264    3.0901 H   0  0  0  0  0  0  0  0  0  0  0  0
    3.3339   -1.1423    3.0553 H   0  0  0  0  0  0  0  0  0  0  0  0
    2.0674    0.9221    3.4078 H   0  0  0  0  0  0  0  0  0  0  0  0
    3.8654    5.3035    3.9517 H   0  0  0  0  0  0  0  0  0  0  0  0
    4.4854    4.2088    5.2061 H   0  0  0  0  0  0  0  0  0  0  0  0
    2.8360    5.8294    6.1419 H   0  0  0  0  0  0  0  0  0  0  0  0
    2.3072    4.1539    6.3532 H   0  0  0  0  0  0  0  0  0  0  0  0
   -0.1503    4.3999    3.7264 H   0  0  0  0  0  0  0  0  0  0  0  0
    0.5613    3.3063    4.9242 H   0  0  0  0  0  0  0  0  0  0  0  0
    1.9650    4.4498    2.4327 H   0  0  0  0  0  0  0  0  0  0  0  0
    1.3959    2.7945    2.6040 H   0  0  0  0  0  0  0  0  0  0  0  0
    5.7551    3.1169    3.7270 H   0  0  0  0  0  0  0  0  0  0  0  0
    4.8008   -1.4008   -1.6549 H   0  0  0  0  0  0  0  0  0  0  0  0
    3.6366    0.7636   -1.9105 H   0  0  0  0  0  0  0  0  0  0  0  0
  1  2  2  0  0  0  0
  2  3  1  0  0  0  0
  2 10  1  0  0  0  0
  3  4  1  0  0  0  0
  3 45  1  0  0  0  0
  3 46  1  0  0  0  0
  4  5  1  0  0  0  0
  4  9  2  0  0  0  0
  5  6  2  0  0  0  0
  5 47  1  0  0  0  0
  6  7  1  0  0  0  0
  6 48  1  0  0  0  0
  7  8  2  0  0  0  0
  7 49  1  0  0  0  0
  8  9  1  0  0  0  0
  8 50  1  0  0  0  0
  9 51  1  0  0  0  0
 10 11  1  0  0  0  0
 10 52  1  0  0  0  0
 11 12  1  0  0  0  0
 11 43  2  0  0  0  0
 12 13  2  0  0  0  0
 12 53  1  0  0  0  0
 13 14  1  0  0  0  0
 13 41  1  0  0  0  0
 14 15  1  0  0  0  0
 14 21  2  0  0  0  0
 15 16  2  0  0  0  0
 16 17  1  0  0  0  0
 16 20  1  0  0  0  0
 17 18  1  0  0  0  0
 18 19  2  0  0  0  0
 18 54  1  0  0  0  0
 19 20  1  0  0  0  0
 19 55  1  0  0  0  0
 20 21  1  0  0  0  0
 21 22  1  0  0  0  0
 22 23  1  0  0  0  0
 22 40  2  0  0  0  0
 23 24  2  0  0  0  0
 23 56  1  0  0  0  0
 24 25  1  0  0  0  0
 24 57  1  0  0  0  0
 25 26  2  0  0  0  0
 26 27  1  0  0  0  0
 26 40  1  0  0  0  0
 27 28  1  0  0  0  0
 27 58  1  0  0  0  0
 28 29  1  0  0  0  0
 28 39  2  0  0  0  0
 29 30  2  0  0  0  0
 29 59  1  0  0  0  0
 30 31  1  0  0  0  0
 30 60  1  0  0  0  0
 31 32  2  0  0  0  0
 31 61  1  0  0  0  0
 32 33  1  0  0  0  0
 32 39  1  0  0  0  0
 33 34  1  0  0  0  0
 33 38  1  0  0  0  0
 34 35  1  0  0  0  0
 34 62  1  0  0  0  0
 34 63  1  0  0  0  0
 35 36  1  0  0  0  0
 35 64  1  0  0  0  0
 35 65  1  0  0  0  0
 36 37  1  0  0  0  0
 37 38  1  0  0  0  0
 37 66  1  0  0  0  0
 37 67  1  0  0  0  0
 38 68  1  0  0  0  0
 38 69  1  0  0  0  0
 39 70  1  0  0  0  0
 41 42  2  0  0  0  0
 41 71  1  0  0  0  0
 42 43  1  0  0  0  0
 42 72  1  0  0  0  0
 43 44  1  0  0  0  0
M  END
$$$$
