CHEMBL425831
 OpenBabel04072215383D

 63 67  0  0  0  0  0  0  0  0999 V2000
    3.1752   -2.8671   -2.1257 C   0  0  0  0  0  0  0  0  0  0  0  0
    4.1614   -2.7166   -1.0921 N   0  0  0  0  0  0  0  0  0  0  0  0
    4.3205   -1.5300   -0.4112 C   0  0  0  0  0  0  0  0  0  0  0  0
    3.6503   -0.5254   -0.6227 O   0  0  0  0  0  0  0  0  0  0  0  0
    5.4008   -1.5405    0.6254 C   0  0  0  0  0  0  0  0  0  0  0  0
    5.6059   -0.4069    1.3966 C   0  0  0  0  0  0  0  0  0  0  0  0
    6.6676   -0.4201    2.2928 C   0  0  0  0  0  0  0  0  0  0  0  0
    7.0002    0.6289    3.1167 O   0  0  0  0  0  0  0  0  0  0  0  0
    6.8236    1.9262    2.6850 C   0  0  0  0  0  0  0  0  0  0  0  0
    7.0556    2.3523    1.3679 C   0  0  0  0  0  0  0  0  0  0  0  0
    6.8757    3.6921    1.0015 C   0  0  0  0  0  0  0  0  0  0  0  0
    7.0863    4.2001   -0.6201 Cl  0  0  0  0  0  0  0  0  0  0  0  0
    6.5059    4.5679    2.0136 C   0  0  0  0  0  0  0  0  0  0  0  0
    6.2767    5.9141    1.9383 O   0  0  0  0  0  0  0  0  0  0  0  0
    5.9075    6.2604    3.2121 C   0  0  0  0  0  0  0  0  0  0  0  0
    5.5254    7.5425    3.3650 N   0  0  0  0  0  0  0  0  0  0  0  0
    4.6754    8.0193    4.3804 C   0  0  0  0  0  0  0  0  0  0  0  0
    3.9577    9.2036    4.1818 C   0  0  0  0  0  0  0  0  0  0  0  0
    3.0486    9.6637    5.1424 C   0  0  0  0  0  0  0  0  0  0  0  0
    2.8753    8.9748    6.3453 C   0  0  0  0  0  0  0  0  0  0  0  0
    1.7333    9.6074    7.4734 Cl  0  0  0  0  0  0  0  0  0  0  0  0
    3.6342    7.8326    6.6086 C   0  0  0  0  0  0  0  0  0  0  0  0
    3.6634    7.1209    7.9478 C   0  0  0  0  0  0  0  0  0  0  0  0
    5.0294    7.0608    8.4987 N   0  0  0  0  0  0  0  0  0  0  0  0
    5.6139    8.3988    8.7115 C   0  0  0  0  0  0  0  0  0  0  0  0
    7.0561    8.3074    9.2549 C   0  0  0  0  0  0  0  0  0  0  0  0
    7.1936    7.5285   10.4999 N   0  0  0  0  0  0  0  0  0  0  0  0
    6.6627    8.2613   11.6456 C   0  0  0  0  0  0  0  0  0  0  0  0
    6.5229    6.2224   10.3250 C   0  0  0  0  0  0  0  0  0  0  0  0
    5.0853    6.2847    9.7476 C   0  0  0  0  0  0  0  0  0  0  0  0
    4.5023    7.3597    5.6021 C   0  0  0  0  0  0  0  0  0  0  0  0
    5.9310    5.2597    4.0681 N   0  0  0  0  0  0  0  0  0  0  0  0
    6.2996    4.1785    3.3254 C   0  0  0  0  0  0  0  0  0  0  0  0
    6.4639    2.8394    3.6850 C   0  0  0  0  0  0  0  0  0  0  0  0
    7.4284   -1.5762    2.4440 C   0  0  0  0  0  0  0  0  0  0  0  0
    7.1319   -2.6688    1.6472 C   0  0  0  0  0  0  0  0  0  0  0  0
    6.1423   -2.6804    0.7287 N   0  0  0  0  0  0  0  0  0  0  0  0
    3.2223   -3.8854   -2.5163 H   0  0  0  0  0  0  0  0  0  0  0  0
    3.3775   -2.1476   -2.9242 H   0  0  0  0  0  0  0  0  0  0  0  0
    2.1842   -2.6692   -1.7077 H   0  0  0  0  0  0  0  0  0  0  0  0
    4.7824   -3.4807   -0.8391 H   0  0  0  0  0  0  0  0  0  0  0  0
    4.9565    0.4533    1.2800 H   0  0  0  0  0  0  0  0  0  0  0  0
    7.3727    1.6421    0.6081 H   0  0  0  0  0  0  0  0  0  0  0  0
    5.5557    8.1132    2.5312 H   0  0  0  0  0  0  0  0  0  0  0  0
    4.0792    9.7750    3.2650 H   0  0  0  0  0  0  0  0  0  0  0  0
    2.4837   10.5717    4.9466 H   0  0  0  0  0  0  0  0  0  0  0  0
    3.2895    6.1032    7.7723 H   0  0  0  0  0  0  0  0  0  0  0  0
    2.9836    7.5746    8.6738 H   0  0  0  0  0  0  0  0  0  0  0  0
    4.9866    8.9909    9.3894 H   0  0  0  0  0  0  0  0  0  0  0  0
    5.6726    8.9512    7.7670 H   0  0  0  0  0  0  0  0  0  0  0  0
    7.4604    9.3180    9.3907 H   0  0  0  0  0  0  0  0  0  0  0  0
    7.6894    7.8401    8.4879 H   0  0  0  0  0  0  0  0  0  0  0  0
    7.1851    9.2181   11.7593 H   0  0  0  0  0  0  0  0  0  0  0  0
    6.8376    7.6996   12.5692 H   0  0  0  0  0  0  0  0  0  0  0  0
    5.5907    8.4682   11.5714 H   0  0  0  0  0  0  0  0  0  0  0  0
    6.5133    5.6743   11.2753 H   0  0  0  0  0  0  0  0  0  0  0  0
    7.1409    5.6195    9.6452 H   0  0  0  0  0  0  0  0  0  0  0  0
    4.4067    6.7095   10.4982 H   0  0  0  0  0  0  0  0  0  0  0  0
    4.7527    5.2574    9.5559 H   0  0  0  0  0  0  0  0  0  0  0  0
    5.0925    6.4749    5.8347 H   0  0  0  0  0  0  0  0  0  0  0  0
    6.3074    2.5247    4.7117 H   0  0  0  0  0  0  0  0  0  0  0  0
    8.2350   -1.6213    3.1679 H   0  0  0  0  0  0  0  0  0  0  0  0
    7.7032   -3.5895    1.7308 H   0  0  0  0  0  0  0  0  0  0  0  0
  1  2  1  0  0  0  0
  1 38  1  0  0  0  0
  1 39  1  0  0  0  0
  1 40  1  0  0  0  0
  2  3  1  0  0  0  0
  2 41  1  0  0  0  0
  3  4  2  0  0  0  0
  3  5  1  0  0  0  0
  5  6  1  0  0  0  0
  5 37  2  0  0  0  0
  6  7  2  0  0  0  0
  6 42  1  0  0  0  0
  7  8  1  0  0  0  0
  7 35  1  0  0  0  0
  8  9  1  0  0  0  0
  9 10  1  0  0  0  0
  9 34  2  0  0  0  0
 10 11  2  0  0  0  0
 10 43  1  0  0  0  0
 11 12  1  0  0  0  0
 11 13  1  0  0  0  0
 13 14  1  0  0  0  0
 13 33  2  0  0  0  0
 14 15  1  0  0  0  0
 15 16  1  0  0  0  0
 15 32  2  0  0  0  0
 16 17  1  0  0  0  0
 16 44  1  0  0  0  0
 17 18  1  0  0  0  0
 17 31  2  0  0  0  0
 18 19  2  0  0  0  0
 18 45  1  0  0  0  0
 19 20  1  0  0  0  0
 19 46  1  0  0  0  0
 20 21  1  0  0  0  0
 20 22  2  0  0  0  0
 22 23  1  0  0  0  0
 22 31  1  0  0  0  0
 23 24  1  0  0  0  0
 23 47  1  0  0  0  0
 23 48  1  0  0  0  0
 24 25  1  0  0  0  0
 24 30  1  0  0  0  0
 25 26  1  0  0  0  0
 25 49  1  0  0  0  0
 25 50  1  0  0  0  0
 26 27  1  0  0  0  0
 26 51  1  0  0  0  0
 26 52  1  0  0  0  0
 27 28  1  0  0  0  0
 27 29  1  0  0  0  0
 28 53  1  0  0  0  0
 28 54  1  0  0  0  0
 28 55  1  0  0  0  0
 29 30  1  0  0  0  0
 29 56  1  0  0  0  0
 29 57  1  0  0  0  0
 30 58  1  0  0  0  0
 30 59  1  0  0  0  0
 31 60  1  0  0  0  0
 32 33  1  0  0  0  0
 33 34  1  0  0  0  0
 34 61  1  0  0  0  0
 35 36  2  0  0  0  0
 35 62  1  0  0  0  0
 36 37  1  0  0  0  0
 36 63  1  0  0  0  0
M  END
$$$$
