CHEMBL3909551
 OpenBabel04072215373D

 72 74  0  0  0  0  0  0  0  0999 V2000
   -1.5907   12.2290   -3.3022 C   0  0  0  0  0  0  0  0  0  0  0  0
   -0.8756   12.3765   -2.0555 N   0  0  0  0  0  0  0  0  0  0  0  0
   -1.4426   12.9925   -0.9847 C   0  0  0  0  0  0  0  0  0  0  0  0
   -2.5865   13.4275   -1.0539 O   0  0  0  0  0  0  0  0  0  0  0  0
   -0.6812   13.1533    0.2965 C   0  0  0  0  0  0  0  0  0  0  0  0
   -0.2484   11.8671    0.8178 N   0  0  0  0  0  0  0  0  0  0  0  0
    1.0256   11.5204    1.0270 C   0  0  0  0  0  0  0  0  0  0  0  0
    1.0437   10.2648    1.5826 C   0  0  0  0  0  0  0  0  0  0  0  0
    2.2733    9.5830    2.0121 C   0  0  0  0  0  0  0  0  0  0  0  0
    2.2975    8.3049    2.5899 C   0  0  0  0  0  0  0  0  0  0  0  0
    3.4867    7.7880    3.0200 N   0  0  0  0  0  0  0  0  0  0  0  0
    4.6469    8.5098    2.9184 C   0  0  0  0  0  0  0  0  0  0  0  0
    5.8566    8.0189    3.4157 C   0  0  0  0  0  0  0  0  0  0  0  0
    7.0178    8.8135    3.3584 C   0  0  0  0  0  0  0  0  0  0  0  0
    7.0198   10.1096    2.7660 C   0  0  0  0  0  0  0  0  0  0  0  0
    8.2031   10.9798    2.6896 N   0  0  0  0  0  0  0  0  0  0  0  0
    9.5946   10.4594    2.7079 C   0  0  0  0  0  0  0  0  0  0  0  0
    9.7419    9.2304    1.8284 C   0  0  0  0  0  0  0  0  0  0  0  0
   11.1051    8.7165    1.6478 N   0  0  0  0  0  0  0  0  0  0  0  0
   11.0230    7.4358    0.9018 C   0  0  0  0  0  0  0  0  0  0  0  0
   10.3988    7.6259   -0.4990 C   0  0  0  0  0  0  0  0  0  0  0  0
   12.3998    6.7942    0.7505 C   0  0  0  0  0  0  0  0  0  0  0  0
    8.0320   12.4117    2.8616 C   0  0  0  0  0  0  0  0  0  0  0  0
    6.9562   12.9026    3.6266 C   0  0  0  0  0  0  0  0  0  0  0  0
    6.7810   14.2742    3.8639 C   0  0  0  0  0  0  0  0  0  0  0  0
    5.7586   14.7503    4.6163 O   0  0  0  0  0  0  0  0  0  0  0  0
    4.8118   13.9742    5.2533 C   0  0  0  0  0  0  0  0  0  0  0  0
    7.7009   15.1810    3.3394 C   0  0  0  0  0  0  0  0  0  0  0  0
    8.7968   14.7316    2.5834 C   0  0  0  0  0  0  0  0  0  0  0  0
    9.7385   15.5774    2.0894 O   0  0  0  0  0  0  0  0  0  0  0  0
    9.7614   16.9431    2.2721 C   0  0  0  0  0  0  0  0  0  0  0  0
    8.9500   13.3623    2.3439 C   0  0  0  0  0  0  0  0  0  0  0  0
    5.7749   10.5558    2.2430 C   0  0  0  0  0  0  0  0  0  0  0  0
    4.6172    9.7812    2.3341 C   0  0  0  0  0  0  0  0  0  0  0  0
    3.4390   10.2717    1.8929 N   0  0  0  0  0  0  0  0  0  0  0  0
   -0.2800    9.8753    1.6704 C   0  0  0  0  0  0  0  0  0  0  0  0
   -1.0597   10.8744    1.1993 N   0  0  0  0  0  0  0  0  0  0  0  0
    1.4571   -2.2499    1.3462 Cl  0  0  0  0  0  0  0  0  0  0  0  0
   -0.9788   11.6598   -4.0326 H   0  0  0  0  0  0  0  0  0  0  0  0
   -1.8144   13.2327   -3.7238 H   0  0  0  0  0  0  0  0  0  0  0  0
   -2.5422   11.6833   -3.1270 H   0  0  0  0  0  0  0  0  0  0  0  0
    0.0826   11.9969   -1.9825 H   0  0  0  0  0  0  0  0  0  0  0  0
   -1.3078   13.6626    1.0578 H   0  0  0  0  0  0  0  0  0  0  0  0
    0.2072   13.7956    0.0991 H   0  0  0  0  0  0  0  0  0  0  0  0
    1.8795   12.1473    0.8104 H   0  0  0  0  0  0  0  0  0  0  0  0
    1.3850    7.7328    2.7189 H   0  0  0  0  0  0  0  0  0  0  0  0
    5.8916    7.0386    3.8693 H   0  0  0  0  0  0  0  0  0  0  0  0
    7.8946    8.3980    3.8229 H   0  0  0  0  0  0  0  0  0  0  0  0
    9.9499   10.3257    3.7505 H   0  0  0  0  0  0  0  0  0  0  0  0
   10.2995   11.1764    2.2483 H   0  0  0  0  0  0  0  0  0  0  0  0
    9.3480    9.5623    0.8531 H   0  0  0  0  0  0  0  0  0  0  0  0
    9.1561    8.4128    2.2384 H   0  0  0  0  0  0  0  0  0  0  0  0
   11.5118    8.5135    2.6008 H   0  0  0  0  0  0  0  0  0  0  0  0
   10.3946    6.7084    1.4677 H   0  0  0  0  0  0  0  0  0  0  0  0
   10.9717    8.3813   -1.0772 H   0  0  0  0  0  0  0  0  0  0  0  0
    9.3356    7.9377   -0.4473 H   0  0  0  0  0  0  0  0  0  0  0  0
   10.3813    6.6651   -1.0479 H   0  0  0  0  0  0  0  0  0  0  0  0
   13.0834    7.4655    0.1921 H   0  0  0  0  0  0  0  0  0  0  0  0
   12.2950    5.8369    0.1916 H   0  0  0  0  0  0  0  0  0  0  0  0
   12.8300    6.5606    1.7465 H   0  0  0  0  0  0  0  0  0  0  0  0
    6.2619   12.2082    4.0747 H   0  0  0  0  0  0  0  0  0  0  0  0
    4.1297   14.6315    5.8256 H   0  0  0  0  0  0  0  0  0  0  0  0
    5.3079   13.2762    5.9632 H   0  0  0  0  0  0  0  0  0  0  0  0
    4.2226   13.4010    4.5059 H   0  0  0  0  0  0  0  0  0  0  0  0
    7.5616   16.2351    3.5430 H   0  0  0  0  0  0  0  0  0  0  0  0
   10.6875   17.3547    1.8210 H   0  0  0  0  0  0  0  0  0  0  0  0
    9.7663   17.1787    3.3582 H   0  0  0  0  0  0  0  0  0  0  0  0
    8.8794   17.4056    1.7816 H   0  0  0  0  0  0  0  0  0  0  0  0
    9.7978   13.0848    1.7392 H   0  0  0  0  0  0  0  0  0  0  0  0
    5.6828   11.5270    1.7726 H   0  0  0  0  0  0  0  0  0  0  0  0
   -0.6623    8.9464    2.0757 H   0  0  0  0  0  0  0  0  0  0  0  0
    1.7626   -1.9199    0.0461 H   0  0  0  0  0  0  0  0  0  0  0  0
  1  2  1  0  0  0  0
  1 39  1  0  0  0  0
  1 40  1  0  0  0  0
  1 41  1  0  0  0  0
  2  3  1  0  0  0  0
  2 42  1  0  0  0  0
  3  4  2  0  0  0  0
  3  5  1  0  0  0  0
  5  6  1  0  0  0  0
  5 43  1  0  0  0  0
  5 44  1  0  0  0  0
  6  7  1  0  0  0  0
  6 37  1  0  0  0  0
  7  8  2  0  0  0  0
  7 45  1  0  0  0  0
  8  9  1  0  0  0  0
  8 36  1  0  0  0  0
  9 10  1  0  0  0  0
  9 35  2  0  0  0  0
 10 11  2  0  0  0  0
 10 46  1  0  0  0  0
 11 12  1  0  0  0  0
 12 13  1  0  0  0  0
 12 34  2  0  0  0  0
 13 14  2  0  0  0  0
 13 47  1  0  0  0  0
 14 15  1  0  0  0  0
 14 48  1  0  0  0  0
 15 16  1  0  0  0  0
 15 33  2  0  0  0  0
 16 17  1  0  0  0  0
 16 23  1  0  0  0  0
 17 18  1  0  0  0  0
 17 49  1  0  0  0  0
 17 50  1  0  0  0  0
 18 19  1  0  0  0  0
 18 51  1  0  0  0  0
 18 52  1  0  0  0  0
 19 20  1  0  0  0  0
 19 53  1  0  0  0  0
 20 21  1  0  0  0  0
 20 22  1  0  0  0  0
 20 54  1  0  0  0  0
 21 55  1  0  0  0  0
 21 56  1  0  0  0  0
 21 57  1  0  0  0  0
 22 58  1  0  0  0  0
 22 59  1  0  0  0  0
 22 60  1  0  0  0  0
 23 24  1  0  0  0  0
 23 32  2  0  0  0  0
 24 25  2  0  0  0  0
 24 61  1  0  0  0  0
 25 26  1  0  0  0  0
 25 28  1  0  0  0  0
 26 27  1  0  0  0  0
 27 62  1  0  0  0  0
 27 63  1  0  0  0  0
 27 64  1  0  0  0  0
 28 29  2  0  0  0  0
 28 65  1  0  0  0  0
 29 30  1  0  0  0  0
 29 32  1  0  0  0  0
 30 31  1  0  0  0  0
 31 66  1  0  0  0  0
 31 67  1  0  0  0  0
 31 68  1  0  0  0  0
 32 69  1  0  0  0  0
 33 34  1  0  0  0  0
 33 70  1  0  0  0  0
 34 35  1  0  0  0  0
 36 37  2  0  0  0  0
 36 71  1  0  0  0  0
 38 72  1  0  0  0  0
M  END
$$$$
