CHEMBL1242377
 OpenBabel04072215363D

 35 37  0  0  0  0  0  0  0  0999 V2000
    1.4879    0.9468    0.6664 C   0  0  0  0  0  0  0  0  0  0  0  0
    2.5796   -0.0099    0.1863 C   0  0  0  0  0  0  0  0  0  0  0  0
    3.7463    0.7506   -0.4434 C   0  0  0  0  0  0  0  0  0  0  0  0
    3.0215   -0.8927    1.2602 N   0  0  0  0  0  0  0  0  0  0  0  0
    3.6199   -0.3855    2.3590 N   0  0  0  0  0  0  0  0  0  0  0  0
    3.8473   -1.4554    3.1490 C   0  0  0  0  0  0  0  0  0  0  0  0
    4.5354   -1.2791    4.4338 C   0  0  0  0  0  0  0  0  0  0  0  0
    5.3852   -2.2759    4.9439 C   0  0  0  0  0  0  0  0  0  0  0  0
    6.0017   -2.1299    6.1899 C   0  0  0  0  0  0  0  0  0  0  0  0
    5.8164   -0.9564    6.9039 C   0  0  0  0  0  0  0  0  0  0  0  0
    6.4144   -0.7968    8.0931 F   0  0  0  0  0  0  0  0  0  0  0  0
    5.0249    0.0650    6.3897 C   0  0  0  0  0  0  0  0  0  0  0  0
    4.8740    1.2392    7.0718 O   0  0  0  0  0  0  0  0  0  0  0  0
    4.3766   -0.0908    5.1676 C   0  0  0  0  0  0  0  0  0  0  0  0
    3.3334   -2.6521    2.5487 C   0  0  0  0  0  0  0  0  0  0  0  0
    3.1951   -4.0170    2.8471 C   0  0  0  0  0  0  0  0  0  0  0  0
    3.5379   -4.6208    4.0514 N   0  0  0  0  0  0  0  0  0  0  0  0
    2.6647   -4.8369    1.9159 N   0  0  0  0  0  0  0  0  0  0  0  0
    2.2636   -4.3109    0.7445 C   0  0  0  0  0  0  0  0  0  0  0  0
    2.2994   -3.0260    0.3650 N   0  0  0  0  0  0  0  0  0  0  0  0
    2.8490   -2.2491    1.3140 C   0  0  0  0  0  0  0  0  0  0  0  0
    1.1158    1.5574   -0.1630 H   0  0  0  0  0  0  0  0  0  0  0  0
    1.8582    1.6244    1.4437 H   0  0  0  0  0  0  0  0  0  0  0  0
    0.6404    0.3927    1.0841 H   0  0  0  0  0  0  0  0  0  0  0  0
    2.1417   -0.6477   -0.5923 H   0  0  0  0  0  0  0  0  0  0  0  0
    4.2265    1.4230    0.2750 H   0  0  0  0  0  0  0  0  0  0  0  0
    3.4000    1.3549   -1.2894 H   0  0  0  0  0  0  0  0  0  0  0  0
    4.5084    0.0577   -0.8152 H   0  0  0  0  0  0  0  0  0  0  0  0
    5.5908   -3.1784    4.3723 H   0  0  0  0  0  0  0  0  0  0  0  0
    6.6299   -2.9181    6.5921 H   0  0  0  0  0  0  0  0  0  0  0  0
    5.4484    1.1855    7.8589 H   0  0  0  0  0  0  0  0  0  0  0  0
    3.7584    0.7183    4.7851 H   0  0  0  0  0  0  0  0  0  0  0  0
    3.3732   -4.0465    4.8690 H   0  0  0  0  0  0  0  0  0  0  0  0
    3.1374   -5.5526    4.0948 H   0  0  0  0  0  0  0  0  0  0  0  0
    1.8551   -5.0134    0.0237 H   0  0  0  0  0  0  0  0  0  0  0  0
  1  2  1  0  0  0  0
  1 22  1  0  0  0  0
  1 23  1  0  0  0  0
  1 24  1  0  0  0  0
  2  3  1  0  0  0  0
  2  4  1  0  0  0  0
  2 25  1  0  0  0  0
  3 26  1  0  0  0  0
  3 27  1  0  0  0  0
  3 28  1  0  0  0  0
  4  5  1  0  0  0  0
  4 21  1  0  0  0  0
  5  6  2  0  0  0  0
  6  7  1  0  0  0  0
  6 15  1  0  0  0  0
  7  8  1  0  0  0  0
  7 14  2  0  0  0  0
  8  9  2  0  0  0  0
  8 29  1  0  0  0  0
  9 10  1  0  0  0  0
  9 30  1  0  0  0  0
 10 11  1  0  0  0  0
 10 12  2  0  0  0  0
 12 13  1  0  0  0  0
 12 14  1  0  0  0  0
 13 31  1  0  0  0  0
 14 32  1  0  0  0  0
 15 16  1  0  0  0  0
 15 21  2  0  0  0  0
 16 17  1  0  0  0  0
 16 18  2  0  0  0  0
 17 33  1  0  0  0  0
 17 34  1  0  0  0  0
 18 19  1  0  0  0  0
 19 20  2  0  0  0  0
 19 35  1  0  0  0  0
 20 21  1  0  0  0  0
M  END
$$$$
