CHEMBL3764474
 OpenBabel04072215373D

 56 60  0  0  0  0  0  0  0  0999 V2000
   -0.6533    0.3530    1.7590 C   0  0  0  0  0  0  0  0  0  0  0  0
    0.2883   -0.1640    0.7945 N   0  0  0  0  0  0  0  0  0  0  0  0
    0.3966   -1.4901    0.4655 C   0  0  0  0  0  0  0  0  0  0  0  0
    1.3182   -1.5332   -0.5495 C   0  0  0  0  0  0  0  0  0  0  0  0
    1.7700   -0.2745   -0.8472 N   0  0  0  0  0  0  0  0  0  0  0  0
    1.1681    0.5440   -0.0006 C   0  0  0  0  0  0  0  0  0  0  0  0
    1.4153    1.9634    0.0156 C   0  0  0  0  0  0  0  0  0  0  0  0
    1.7820    2.7497   -1.0656 C   0  0  0  0  0  0  0  0  0  0  0  0
    1.9019    4.1460   -0.7373 C   0  0  0  0  0  0  0  0  0  0  0  0
    2.1878    5.3021   -1.5015 C   0  0  0  0  0  0  0  0  0  0  0  0
    2.4308    5.1662   -2.8563 O   0  0  0  0  0  0  0  0  0  0  0  0
    3.3081    6.0312   -3.4726 C   0  0  0  0  0  0  0  0  0  0  0  0
    3.0243    6.3731   -4.7963 C   0  0  0  0  0  0  0  0  0  0  0  0
    3.8449    7.2839   -5.4773 C   0  0  0  0  0  0  0  0  0  0  0  0
    4.9321    7.8913   -4.8318 C   0  0  0  0  0  0  0  0  0  0  0  0
    5.6573    8.8610   -5.5563 N   0  0  0  0  0  0  0  0  0  0  0  0
    6.4169    9.9294   -5.1317 C   0  0  0  0  0  0  0  0  0  0  0  0
    6.6077   10.5440   -3.5893 S   0  0  0  0  0  0  0  0  0  0  0  0
    7.0779   10.6113   -6.1429 N   0  0  0  0  0  0  0  0  0  0  0  0
    7.0712   10.3495   -7.5044 C   0  0  0  0  0  0  0  0  0  0  0  0
    6.3556    9.4906   -8.0203 O   0  0  0  0  0  0  0  0  0  0  0  0
    7.9992   11.2261   -8.3193 C   0  0  0  0  0  0  0  0  0  0  0  0
    7.3157   12.4219   -8.9350 C   0  0  0  0  0  0  0  0  0  0  0  0
    7.7899   13.7186   -8.6926 C   0  0  0  0  0  0  0  0  0  0  0  0
    7.2160   14.8144   -9.3410 C   0  0  0  0  0  0  0  0  0  0  0  0
    6.1623   14.6272  -10.2333 C   0  0  0  0  0  0  0  0  0  0  0  0
    5.6690   13.3461  -10.4665 C   0  0  0  0  0  0  0  0  0  0  0  0
    6.2414   12.2493   -9.8212 C   0  0  0  0  0  0  0  0  0  0  0  0
    5.2609    7.4759   -3.5460 C   0  0  0  0  0  0  0  0  0  0  0  0
    4.4702    6.5355   -2.8888 C   0  0  0  0  0  0  0  0  0  0  0  0
    4.8564    6.1378   -1.6675 F   0  0  0  0  0  0  0  0  0  0  0  0
    2.1367    6.5438   -0.8539 C   0  0  0  0  0  0  0  0  0  0  0  0
    1.9186    6.5804    0.5103 C   0  0  0  0  0  0  0  0  0  0  0  0
    1.6868    5.5097    1.2872 N   0  0  0  0  0  0  0  0  0  0  0  0
    1.6760    4.3375    0.6187 C   0  0  0  0  0  0  0  0  0  0  0  0
    1.3694    2.8944    1.4487 S   0  0  0  0  0  0  0  0  0  0  0  0
   -1.3181   -0.4502    2.0879 H   0  0  0  0  0  0  0  0  0  0  0  0
   -1.2483    1.1389    1.2867 H   0  0  0  0  0  0  0  0  0  0  0  0
   -0.1034    0.7282    2.6242 H   0  0  0  0  0  0  0  0  0  0  0  0
   -0.1793   -2.2628    0.9560 H   0  0  0  0  0  0  0  0  0  0  0  0
    1.6752   -2.4035   -1.0849 H   0  0  0  0  0  0  0  0  0  0  0  0
    1.9226    2.3466   -2.0626 H   0  0  0  0  0  0  0  0  0  0  0  0
    2.1597    5.9455   -5.2982 H   0  0  0  0  0  0  0  0  0  0  0  0
    3.5976    7.5421   -6.5056 H   0  0  0  0  0  0  0  0  0  0  0  0
    5.4983    8.8514   -6.5641 H   0  0  0  0  0  0  0  0  0  0  0  0
    7.6116   11.4055   -5.8123 H   0  0  0  0  0  0  0  0  0  0  0  0
    8.4254   10.6099   -9.1215 H   0  0  0  0  0  0  0  0  0  0  0  0
    8.8480   11.5373   -7.6980 H   0  0  0  0  0  0  0  0  0  0  0  0
    8.6249   13.8894   -8.0169 H   0  0  0  0  0  0  0  0  0  0  0  0
    7.6019   15.8150   -9.1629 H   0  0  0  0  0  0  0  0  0  0  0  0
    5.7304   15.4784  -10.7532 H   0  0  0  0  0  0  0  0  0  0  0  0
    4.8479   13.1973  -11.1633 H   0  0  0  0  0  0  0  0  0  0  0  0
    5.8527   11.2539  -10.0321 H   0  0  0  0  0  0  0  0  0  0  0  0
    6.1453    7.8275   -3.0295 H   0  0  0  0  0  0  0  0  0  0  0  0
    2.2972    7.4749   -1.3854 H   0  0  0  0  0  0  0  0  0  0  0  0
    1.9302    7.5286    1.0426 H   0  0  0  0  0  0  0  0  0  0  0  0
  1  2  1  0  0  0  0
  1 37  1  0  0  0  0
  1 38  1  0  0  0  0
  1 39  1  0  0  0  0
  2  3  1  0  0  0  0
  2  6  1  0  0  0  0
  3  4  2  0  0  0  0
  3 40  1  0  0  0  0
  4  5  1  0  0  0  0
  4 41  1  0  0  0  0
  5  6  2  0  0  0  0
  6  7  1  0  0  0  0
  7  8  2  0  0  0  0
  7 36  1  0  0  0  0
  8  9  1  0  0  0  0
  8 42  1  0  0  0  0
  9 10  1  0  0  0  0
  9 35  2  0  0  0  0
 10 11  1  0  0  0  0
 10 32  2  0  0  0  0
 11 12  1  0  0  0  0
 12 13  1  0  0  0  0
 12 30  2  0  0  0  0
 13 14  2  0  0  0  0
 13 43  1  0  0  0  0
 14 15  1  0  0  0  0
 14 44  1  0  0  0  0
 15 16  1  0  0  0  0
 15 29  2  0  0  0  0
 16 17  1  0  0  0  0
 16 45  1  0  0  0  0
 17 18  2  0  0  0  0
 17 19  1  0  0  0  0
 19 20  1  0  0  0  0
 19 46  1  0  0  0  0
 20 21  2  0  0  0  0
 20 22  1  0  0  0  0
 22 23  1  0  0  0  0
 22 47  1  0  0  0  0
 22 48  1  0  0  0  0
 23 24  1  0  0  0  0
 23 28  2  0  0  0  0
 24 25  2  0  0  0  0
 24 49  1  0  0  0  0
 25 26  1  0  0  0  0
 25 50  1  0  0  0  0
 26 27  2  0  0  0  0
 26 51  1  0  0  0  0
 27 28  1  0  0  0  0
 27 52  1  0  0  0  0
 28 53  1  0  0  0  0
 29 30  1  0  0  0  0
 29 54  1  0  0  0  0
 30 31  1  0  0  0  0
 32 33  1  0  0  0  0
 32 55  1  0  0  0  0
 33 34  2  0  0  0  0
 33 56  1  0  0  0  0
 34 35  1  0  0  0  0
 35 36  1  0  0  0  0
M  END
$$$$
