CHEMBL214109
 OpenBabel04072215363D

 73 78  0  0  0  0  0  0  0  0999 V2000
    3.1111   -0.9984   -5.7614 C   0  0  0  0  0  0  0  0  0  0  0  0
    2.1490    0.0576   -5.6845 O   0  0  0  0  0  0  0  0  0  0  0  0
    1.1098   -0.3131   -4.7643 N   0  0  0  0  0  0  0  0  0  0  0  0
    1.0353    0.6906   -3.6870 C   0  0  0  0  0  0  0  0  0  0  0  0
    0.0368    0.4628   -2.5694 C   0  0  0  0  0  0  0  0  0  0  0  0
    0.1788   -0.2440   -1.3909 C   0  0  0  0  0  0  0  0  0  0  0  0
   -0.9311   -0.0616   -0.4965 C   0  0  0  0  0  0  0  0  0  0  0  0
   -1.9238    0.7411   -1.0224 C   0  0  0  0  0  0  0  0  0  0  0  0
   -3.1676    1.1262   -0.3987 C   0  0  0  0  0  0  0  0  0  0  0  0
   -4.1236    1.9108   -1.0237 N   0  0  0  0  0  0  0  0  0  0  0  0
   -5.2471    2.1389   -0.2863 N   0  0  0  0  0  0  0  0  0  0  0  0
   -4.9741    1.4871    0.8311 C   0  0  0  0  0  0  0  0  0  0  0  0
   -3.7149    0.8596    0.8340 C   0  0  0  0  0  0  0  0  0  0  0  0
   -3.4297    0.1285    2.1052 C   0  0  0  0  0  0  0  0  0  0  0  0
   -4.7539    0.4290    2.8272 C   0  0  0  0  0  0  0  0  0  0  0  0
   -5.1359   -0.0085    4.0895 C   0  0  0  0  0  0  0  0  0  0  0  0
   -6.4147    0.3375    4.5741 C   0  0  0  0  0  0  0  0  0  0  0  0
   -6.8743   -0.1454    5.9414 C   0  0  0  0  0  0  0  0  0  0  0  0
   -5.9928    0.2707    7.0416 N   0  0  0  0  0  0  0  0  0  0  0  0
   -5.9213    1.7383    7.1803 C   0  0  0  0  0  0  0  0  0  0  0  0
   -4.9774    2.1447    8.3354 C   0  0  0  0  0  0  0  0  0  0  0  0
   -5.3288    1.5744    9.6515 N   0  0  0  0  0  0  0  0  0  0  0  0
   -6.5033    2.2290   10.2205 C   0  0  0  0  0  0  0  0  0  0  0  0
   -5.5271    0.1170    9.5070 C   0  0  0  0  0  0  0  0  0  0  0  0
   -6.4337   -0.3137    8.3250 C   0  0  0  0  0  0  0  0  0  0  0  0
   -7.2824    1.1248    3.7755 C   0  0  0  0  0  0  0  0  0  0  0  0
   -6.8982    1.5754    2.5068 C   0  0  0  0  0  0  0  0  0  0  0  0
   -5.6427    1.2211    2.0585 C   0  0  0  0  0  0  0  0  0  0  0  0
   -1.4812    1.2862   -2.5895 S   0  0  0  0  0  0  0  0  0  0  0  0
   -0.0620   -0.7176   -5.4153 C   0  0  0  0  0  0  0  0  0  0  0  0
   -1.1001   -0.9293   -4.7879 O   0  0  0  0  0  0  0  0  0  0  0  0
    0.0770   -0.9245   -6.7824 N   0  0  0  0  0  0  0  0  0  0  0  0
   -0.9498   -1.3409   -7.6636 C   0  0  0  0  0  0  0  0  0  0  0  0
   -2.2997   -1.3131   -7.3009 C   0  0  0  0  0  0  0  0  0  0  0  0
   -3.2796   -1.8403   -8.1351 C   0  0  0  0  0  0  0  0  0  0  0  0
   -2.9249   -2.4046   -9.3545 C   0  0  0  0  0  0  0  0  0  0  0  0
   -1.5869   -2.4104   -9.7635 C   0  0  0  0  0  0  0  0  0  0  0  0
   -1.2110   -3.0718  -11.0577 C   0  0  0  0  0  0  0  0  0  0  0  0
   -0.6062   -1.8364   -8.9312 C   0  0  0  0  0  0  0  0  0  0  0  0
    3.3440   -1.1588   -6.8189 H   0  0  0  0  0  0  0  0  0  0  0  0
    2.7377   -1.9404   -5.3468 H   0  0  0  0  0  0  0  0  0  0  0  0
    4.0249   -0.6966   -5.2451 H   0  0  0  0  0  0  0  0  0  0  0  0
    0.8546    1.6671   -4.1544 H   0  0  0  0  0  0  0  0  0  0  0  0
    2.0366    0.7373   -3.2392 H   0  0  0  0  0  0  0  0  0  0  0  0
    1.0550   -0.8293   -1.1408 H   0  0  0  0  0  0  0  0  0  0  0  0
   -0.9817   -0.5007    0.4902 H   0  0  0  0  0  0  0  0  0  0  0  0
   -4.0715    2.3043   -1.9564 H   0  0  0  0  0  0  0  0  0  0  0  0
   -2.5825    0.5564    2.6462 H   0  0  0  0  0  0  0  0  0  0  0  0
   -3.3162   -0.9458    1.9419 H   0  0  0  0  0  0  0  0  0  0  0  0
   -4.4645   -0.6073    4.6992 H   0  0  0  0  0  0  0  0  0  0  0  0
   -6.8994   -1.2424    5.8910 H   0  0  0  0  0  0  0  0  0  0  0  0
   -7.9063    0.1786    6.1297 H   0  0  0  0  0  0  0  0  0  0  0  0
   -6.9207    2.1622    7.3441 H   0  0  0  0  0  0  0  0  0  0  0  0
   -5.5254    2.1924    6.2655 H   0  0  0  0  0  0  0  0  0  0  0  0
   -4.9220    3.2382    8.3985 H   0  0  0  0  0  0  0  0  0  0  0  0
   -3.9602    1.8140    8.0844 H   0  0  0  0  0  0  0  0  0  0  0  0
   -6.3301    3.3066   10.3161 H   0  0  0  0  0  0  0  0  0  0  0  0
   -6.6921    1.8547   11.2329 H   0  0  0  0  0  0  0  0  0  0  0  0
   -7.4127    2.0830    9.6293 H   0  0  0  0  0  0  0  0  0  0  0  0
   -5.9141   -0.3055   10.4427 H   0  0  0  0  0  0  0  0  0  0  0  0
   -4.5391   -0.3412    9.3654 H   0  0  0  0  0  0  0  0  0  0  0  0
   -7.4722   -0.0299    8.5426 H   0  0  0  0  0  0  0  0  0  0  0  0
   -6.4073   -1.4085    8.2598 H   0  0  0  0  0  0  0  0  0  0  0  0
   -8.2717    1.3878    4.1464 H   0  0  0  0  0  0  0  0  0  0  0  0
   -7.5654    2.1690    1.8911 H   0  0  0  0  0  0  0  0  0  0  0  0
    1.0173   -0.8747   -7.1354 H   0  0  0  0  0  0  0  0  0  0  0  0
   -2.6272   -0.8847   -6.3592 H   0  0  0  0  0  0  0  0  0  0  0  0
   -4.3164   -1.8339   -7.8101 H   0  0  0  0  0  0  0  0  0  0  0  0
   -3.6999   -2.8486   -9.9733 H   0  0  0  0  0  0  0  0  0  0  0  0
   -2.0771   -3.5646  -11.5161 H   0  0  0  0  0  0  0  0  0  0  0  0
   -0.4596   -3.8471  -10.8761 H   0  0  0  0  0  0  0  0  0  0  0  0
   -0.8212   -2.3416  -11.7715 H   0  0  0  0  0  0  0  0  0  0  0  0
    0.4291   -1.8318   -9.2621 H   0  0  0  0  0  0  0  0  0  0  0  0
  1  2  1  0  0  0  0
  1 40  1  0  0  0  0
  1 41  1  0  0  0  0
  1 42  1  0  0  0  0
  2  3  1  0  0  0  0
  3  4  1  0  0  0  0
  3 30  1  0  0  0  0
  4  5  1  0  0  0  0
  4 43  1  0  0  0  0
  4 44  1  0  0  0  0
  5  6  2  0  0  0  0
  5 29  1  0  0  0  0
  6  7  1  0  0  0  0
  6 45  1  0  0  0  0
  7  8  2  0  0  0  0
  7 46  1  0  0  0  0
  8  9  1  0  0  0  0
  8 29  1  0  0  0  0
  9 10  1  0  0  0  0
  9 13  2  0  0  0  0
 10 11  1  0  0  0  0
 10 47  1  0  0  0  0
 11 12  2  0  0  0  0
 12 13  1  0  0  0  0
 12 28  1  0  0  0  0
 13 14  1  0  0  0  0
 14 15  1  0  0  0  0
 14 48  1  0  0  0  0
 14 49  1  0  0  0  0
 15 16  1  0  0  0  0
 15 28  2  0  0  0  0
 16 17  2  0  0  0  0
 16 50  1  0  0  0  0
 17 18  1  0  0  0  0
 17 26  1  0  0  0  0
 18 19  1  0  0  0  0
 18 51  1  0  0  0  0
 18 52  1  0  0  0  0
 19 20  1  0  0  0  0
 19 25  1  0  0  0  0
 20 21  1  0  0  0  0
 20 53  1  0  0  0  0
 20 54  1  0  0  0  0
 21 22  1  0  0  0  0
 21 55  1  0  0  0  0
 21 56  1  0  0  0  0
 22 23  1  0  0  0  0
 22 24  1  0  0  0  0
 23 57  1  0  0  0  0
 23 58  1  0  0  0  0
 23 59  1  0  0  0  0
 24 25  1  0  0  0  0
 24 60  1  0  0  0  0
 24 61  1  0  0  0  0
 25 62  1  0  0  0  0
 25 63  1  0  0  0  0
 26 27  2  0  0  0  0
 26 64  1  0  0  0  0
 27 28  1  0  0  0  0
 27 65  1  0  0  0  0
 30 31  2  0  0  0  0
 30 32  1  0  0  0  0
 32 33  1  0  0  0  0
 32 66  1  0  0  0  0
 33 34  1  0  0  0  0
 33 39  2  0  0  0  0
 34 35  2  0  0  0  0
 34 67  1  0  0  0  0
 35 36  1  0  0  0  0
 35 68  1  0  0  0  0
 36 37  2  0  0  0  0
 36 69  1  0  0  0  0
 37 38  1  0  0  0  0
 37 39  1  0  0  0  0
 38 70  1  0  0  0  0
 38 71  1  0  0  0  0
 38 72  1  0  0  0  0
 39 73  1  0  0  0  0
M  END
$$$$
