CHEMBL1254007
 OpenBabel04072215363D

 47 50  0  0  0  0  0  0  0  0999 V2000
    3.5668   -0.8284   -1.1313 C   0  0  0  0  0  0  0  0  0  0  0  0
    3.3339   -0.5067    0.2584 N   0  0  0  0  0  0  0  0  0  0  0  0
    3.9363    0.5338    0.9248 C   0  0  0  0  0  0  0  0  0  0  0  0
    3.4629    0.5380    2.2190 C   0  0  0  0  0  0  0  0  0  0  0  0
    2.5447   -0.5303    2.3345 C   0  0  0  0  0  0  0  0  0  0  0  0
    1.8356   -0.9197    3.4141 N   0  0  0  0  0  0  0  0  0  0  0  0
    1.0430   -1.9713    3.1789 C   0  0  0  0  0  0  0  0  0  0  0  0
    0.9007   -2.6539    2.0312 N   0  0  0  0  0  0  0  0  0  0  0  0
    1.6547   -2.2844    0.9712 C   0  0  0  0  0  0  0  0  0  0  0  0
    1.5827   -3.0146   -0.2130 O   0  0  0  0  0  0  0  0  0  0  0  0
    1.4203   -4.3810   -0.1008 C   0  0  0  0  0  0  0  0  0  0  0  0
    1.9887   -5.1304    0.9300 C   0  0  0  0  0  0  0  0  0  0  0  0
    1.7816   -6.5088    1.0086 C   0  0  0  0  0  0  0  0  0  0  0  0
    1.0315   -7.1775    0.0408 C   0  0  0  0  0  0  0  0  0  0  0  0
    0.7912   -8.5766    0.0806 N   0  0  0  0  0  0  0  0  0  0  0  0
    1.0695   -9.4034    1.1586 C   0  0  0  0  0  0  0  0  0  0  0  0
    1.4586   -9.0199    2.2596 O   0  0  0  0  0  0  0  0  0  0  0  0
    0.9217  -10.7462    0.8433 N   0  0  0  0  0  0  0  0  0  0  0  0
    1.1999  -11.7408    1.8115 C   0  0  0  0  0  0  0  0  0  0  0  0
    2.0065  -12.8211    1.4505 C   0  0  0  0  0  0  0  0  0  0  0  0
    2.3579  -13.7805    2.4022 C   0  0  0  0  0  0  0  0  0  0  0  0
    1.8581  -13.6962    3.7025 C   0  0  0  0  0  0  0  0  0  0  0  0
    1.0090  -12.6433    4.0712 C   0  0  0  0  0  0  0  0  0  0  0  0
    0.4223  -12.5640    5.4575 C   0  0  0  0  0  0  0  0  0  0  0  0
    0.7523  -13.6291    6.2457 F   0  0  0  0  0  0  0  0  0  0  0  0
    0.8165  -11.4593    6.1469 F   0  0  0  0  0  0  0  0  0  0  0  0
   -0.9409  -12.5328    5.4442 F   0  0  0  0  0  0  0  0  0  0  0  0
    0.7012  -11.6572    3.1180 C   0  0  0  0  0  0  0  0  0  0  0  0
    0.5218   -6.4262   -1.0250 C   0  0  0  0  0  0  0  0  0  0  0  0
   -0.1685   -7.0430   -1.9983 F   0  0  0  0  0  0  0  0  0  0  0  0
    0.7110   -5.0410   -1.1049 C   0  0  0  0  0  0  0  0  0  0  0  0
    2.4783   -1.1749    1.1032 C   0  0  0  0  0  0  0  0  0  0  0  0
    4.2802   -0.1168   -1.5551 H   0  0  0  0  0  0  0  0  0  0  0  0
    2.6166   -0.7576   -1.6660 H   0  0  0  0  0  0  0  0  0  0  0  0
    3.9766   -1.8399   -1.1890 H   0  0  0  0  0  0  0  0  0  0  0  0
    4.6478    1.1844    0.4325 H   0  0  0  0  0  0  0  0  0  0  0  0
    3.7430    1.2305    3.0009 H   0  0  0  0  0  0  0  0  0  0  0  0
    0.4512   -2.3225    4.0187 H   0  0  0  0  0  0  0  0  0  0  0  0
    2.5819   -4.6583    1.7091 H   0  0  0  0  0  0  0  0  0  0  0  0
    2.2293   -7.0198    1.8540 H   0  0  0  0  0  0  0  0  0  0  0  0
    0.2161   -8.9503   -0.6668 H   0  0  0  0  0  0  0  0  0  0  0  0
    1.1551  -10.9724   -0.1132 H   0  0  0  0  0  0  0  0  0  0  0  0
    2.4260  -12.8946    0.4508 H   0  0  0  0  0  0  0  0  0  0  0  0
    3.0331  -14.5896    2.1339 H   0  0  0  0  0  0  0  0  0  0  0  0
    2.1342  -14.4589    4.4296 H   0  0  0  0  0  0  0  0  0  0  0  0
    0.0610  -10.8231    3.4036 H   0  0  0  0  0  0  0  0  0  0  0  0
    0.2934   -4.4902   -1.9421 H   0  0  0  0  0  0  0  0  0  0  0  0
  1  2  1  0  0  0  0
  1 33  1  0  0  0  0
  1 34  1  0  0  0  0
  1 35  1  0  0  0  0
  2  3  1  0  0  0  0
  2 32  1  0  0  0  0
  3  4  2  0  0  0  0
  3 36  1  0  0  0  0
  4  5  1  0  0  0  0
  4 37  1  0  0  0  0
  5  6  1  0  0  0  0
  5 32  2  0  0  0  0
  6  7  2  0  0  0  0
  7  8  1  0  0  0  0
  7 38  1  0  0  0  0
  8  9  2  0  0  0  0
  9 10  1  0  0  0  0
  9 32  1  0  0  0  0
 10 11  1  0  0  0  0
 11 12  1  0  0  0  0
 11 31  2  0  0  0  0
 12 13  2  0  0  0  0
 12 39  1  0  0  0  0
 13 14  1  0  0  0  0
 13 40  1  0  0  0  0
 14 15  1  0  0  0  0
 14 29  2  0  0  0  0
 15 16  1  0  0  0  0
 15 41  1  0  0  0  0
 16 17  2  0  0  0  0
 16 18  1  0  0  0  0
 18 19  1  0  0  0  0
 18 42  1  0  0  0  0
 19 20  1  0  0  0  0
 19 28  2  0  0  0  0
 20 21  2  0  0  0  0
 20 43  1  0  0  0  0
 21 22  1  0  0  0  0
 21 44  1  0  0  0  0
 22 23  2  0  0  0  0
 22 45  1  0  0  0  0
 23 24  1  0  0  0  0
 23 28  1  0  0  0  0
 24 25  1  0  0  0  0
 24 26  1  0  0  0  0
 24 27  1  0  0  0  0
 28 46  1  0  0  0  0
 29 30  1  0  0  0  0
 29 31  1  0  0  0  0
 31 47  1  0  0  0  0
M  END
$$$$
