CHEMBL4064941
 OpenBabel04072215383D

 51 54  0  0  0  0  0  0  0  0999 V2000
   -1.1052    2.2055   -3.3639 C   0  0  0  0  0  0  0  0  0  0  0  0
   -1.3616    1.0408   -2.4814 C   0  0  0  0  0  0  0  0  0  0  0  0
   -1.7622   -0.0995   -3.0797 N   0  0  0  0  0  0  0  0  0  0  0  0
   -1.9381   -0.9481   -2.0561 N   0  0  0  0  0  0  0  0  0  0  0  0
   -1.6483   -0.4223   -0.8323 C   0  0  0  0  0  0  0  0  0  0  0  0
   -1.7429   -1.0987    0.3305 N   0  0  0  0  0  0  0  0  0  0  0  0
   -1.3891   -0.3584    1.3929 C   0  0  0  0  0  0  0  0  0  0  0  0
   -0.9683    0.9644    1.3424 C   0  0  0  0  0  0  0  0  0  0  0  0
   -0.8798    1.6425    0.1114 C   0  0  0  0  0  0  0  0  0  0  0  0
   -0.3986    3.0338    0.0477 C   0  0  0  0  0  0  0  0  0  0  0  0
    0.5244    3.4173   -0.9218 C   0  0  0  0  0  0  0  0  0  0  0  0
    0.9292    4.7438   -1.0654 C   0  0  0  0  0  0  0  0  0  0  0  0
    0.5048    5.7313   -0.1779 C   0  0  0  0  0  0  0  0  0  0  0  0
    0.9299    7.0807   -0.2825 N   0  0  0  0  0  0  0  0  0  0  0  0
    1.5595    7.6147   -1.3940 C   0  0  0  0  0  0  0  0  0  0  0  0
    1.6732    7.0417   -2.4727 O   0  0  0  0  0  0  0  0  0  0  0  0
    2.1053    8.8681   -1.1366 N   0  0  0  0  0  0  0  0  0  0  0  0
    2.8597    9.5123   -2.1521 C   0  0  0  0  0  0  0  0  0  0  0  0
    2.3951    9.5517   -3.4661 C   0  0  0  0  0  0  0  0  0  0  0  0
    3.2021   10.0665   -4.4671 C   0  0  0  0  0  0  0  0  0  0  0  0
    4.4732   10.5523   -4.1514 C   0  0  0  0  0  0  0  0  0  0  0  0
    4.9814   10.5513   -2.8376 C   0  0  0  0  0  0  0  0  0  0  0  0
    6.2478   11.0703   -2.5616 N   0  0  0  0  0  0  0  0  0  0  0  0
    7.3345   10.8750   -3.5282 C   0  0  0  0  0  0  0  0  0  0  0  0
    6.7168   11.2301   -1.1871 C   0  0  0  0  0  0  0  0  0  0  0  0
    4.1199   10.0484   -1.8407 C   0  0  0  0  0  0  0  0  0  0  0  0
   -0.3283    5.3503    0.8741 C   0  0  0  0  0  0  0  0  0  0  0  0
   -0.7863    4.0213    0.9737 C   0  0  0  0  0  0  0  0  0  0  0  0
   -1.2475    0.8966   -1.0453 C   0  0  0  0  0  0  0  0  0  0  0  0
   -1.4325    1.9970   -4.3912 H   0  0  0  0  0  0  0  0  0  0  0  0
   -0.0375    2.4246   -3.4345 H   0  0  0  0  0  0  0  0  0  0  0  0
   -1.6451    3.0900   -3.0190 H   0  0  0  0  0  0  0  0  0  0  0  0
   -2.2490   -1.8933   -2.2412 H   0  0  0  0  0  0  0  0  0  0  0  0
   -1.4475   -0.8674    2.3514 H   0  0  0  0  0  0  0  0  0  0  0  0
   -0.6806    1.4576    2.2722 H   0  0  0  0  0  0  0  0  0  0  0  0
    0.9555    2.6833   -1.5954 H   0  0  0  0  0  0  0  0  0  0  0  0
    1.5996    4.9538   -1.8921 H   0  0  0  0  0  0  0  0  0  0  0  0
    0.5907    7.7345    0.4063 H   0  0  0  0  0  0  0  0  0  0  0  0
    2.4283    8.9968   -0.1890 H   0  0  0  0  0  0  0  0  0  0  0  0
    1.4142    9.1608   -3.7249 H   0  0  0  0  0  0  0  0  0  0  0  0
    2.8516   10.0781   -5.4951 H   0  0  0  0  0  0  0  0  0  0  0  0
    5.0508   10.9631   -4.9732 H   0  0  0  0  0  0  0  0  0  0  0  0
    7.0190   10.7399   -4.5648 H   0  0  0  0  0  0  0  0  0  0  0  0
    7.9347    9.9992   -3.2550 H   0  0  0  0  0  0  0  0  0  0  0  0
    7.9914   11.7520   -3.5146 H   0  0  0  0  0  0  0  0  0  0  0  0
    5.9186   11.4693   -0.4791 H   0  0  0  0  0  0  0  0  0  0  0  0
    7.4197   12.0696   -1.1411 H   0  0  0  0  0  0  0  0  0  0  0  0
    7.2422   10.3302   -0.8473 H   0  0  0  0  0  0  0  0  0  0  0  0
    4.4541    9.9890   -0.8115 H   0  0  0  0  0  0  0  0  0  0  0  0
   -0.6474    6.0700    1.6232 H   0  0  0  0  0  0  0  0  0  0  0  0
   -1.4555    3.7690    1.7944 H   0  0  0  0  0  0  0  0  0  0  0  0
  1  2  1  0  0  0  0
  1 30  1  0  0  0  0
  1 31  1  0  0  0  0
  1 32  1  0  0  0  0
  2  3  2  0  0  0  0
  2 29  1  0  0  0  0
  3  4  1  0  0  0  0
  4  5  1  0  0  0  0
  4 33  1  0  0  0  0
  5  6  1  0  0  0  0
  5 29  2  0  0  0  0
  6  7  2  0  0  0  0
  7  8  1  0  0  0  0
  7 34  1  0  0  0  0
  8  9  2  0  0  0  0
  8 35  1  0  0  0  0
  9 10  1  0  0  0  0
  9 29  1  0  0  0  0
 10 11  1  0  0  0  0
 10 28  2  0  0  0  0
 11 12  2  0  0  0  0
 11 36  1  0  0  0  0
 12 13  1  0  0  0  0
 12 37  1  0  0  0  0
 13 14  1  0  0  0  0
 13 27  2  0  0  0  0
 14 15  1  0  0  0  0
 14 38  1  0  0  0  0
 15 16  2  0  0  0  0
 15 17  1  0  0  0  0
 17 18  1  0  0  0  0
 17 39  1  0  0  0  0
 18 19  1  0  0  0  0
 18 26  2  0  0  0  0
 19 20  2  0  0  0  0
 19 40  1  0  0  0  0
 20 21  1  0  0  0  0
 20 41  1  0  0  0  0
 21 22  2  0  0  0  0
 21 42  1  0  0  0  0
 22 23  1  0  0  0  0
 22 26  1  0  0  0  0
 23 24  1  0  0  0  0
 23 25  1  0  0  0  0
 24 43  1  0  0  0  0
 24 44  1  0  0  0  0
 24 45  1  0  0  0  0
 25 46  1  0  0  0  0
 25 47  1  0  0  0  0
 25 48  1  0  0  0  0
 26 49  1  0  0  0  0
 27 28  1  0  0  0  0
 27 50  1  0  0  0  0
 28 51  1  0  0  0  0
M  END
$$$$
