CHEMBL3975035
 OpenBabel04072215373D

 72 76  0  0  0  0  0  0  0  0999 V2000
   -1.8480   -2.2726   -0.2753 C   0  0  0  0  0  0  0  0  0  0  0  0
   -0.9569   -1.0792   -0.4872 C   0  0  0  0  0  0  0  0  0  0  0  0
   -1.5913    0.1462   -0.7765 C   0  0  0  0  0  0  0  0  0  0  0  0
   -0.8681    1.3270   -0.8974 C   0  0  0  0  0  0  0  0  0  0  0  0
   -1.4436    2.5470   -1.1880 O   0  0  0  0  0  0  0  0  0  0  0  0
   -2.6387    2.8655   -0.5483 C   0  0  0  0  0  0  0  0  0  0  0  0
   -3.4371    3.8093   -1.1598 C   0  0  0  0  0  0  0  0  0  0  0  0
   -4.6150    4.1055   -0.5069 C   0  0  0  0  0  0  0  0  0  0  0  0
   -5.4586    5.0865   -1.0563 N   0  0  0  0  0  0  0  0  0  0  0  0
   -6.6057    5.5425   -0.4384 C   0  0  0  0  0  0  0  0  0  0  0  0
   -7.0697    5.1860    0.6331 O   0  0  0  0  0  0  0  0  0  0  0  0
   -7.3346    6.5798   -1.2315 C   0  0  0  0  0  0  0  0  0  0  0  0
   -8.5088    7.3159   -0.6222 C   0  0  0  0  0  0  0  0  0  0  0  0
   -8.7450    6.2873   -1.6880 C   0  0  0  0  0  0  0  0  0  0  0  0
   -4.9698    3.4939    0.6281 N   0  0  0  0  0  0  0  0  0  0  0  0
   -4.1176    2.6090    1.1439 C   0  0  0  0  0  0  0  0  0  0  0  0
   -2.9423    2.2739    0.6187 N   0  0  0  0  0  0  0  0  0  0  0  0
    0.5118    1.3007   -0.7842 C   0  0  0  0  0  0  0  0  0  0  0  0
    1.1579    0.0877   -0.5337 C   0  0  0  0  0  0  0  0  0  0  0  0
    0.4503   -1.1169   -0.3953 C   0  0  0  0  0  0  0  0  0  0  0  0
    1.1236   -2.3515   -0.1842 N   0  0  0  0  0  0  0  0  0  0  0  0
    2.4867   -2.5711   -0.3460 C   0  0  0  0  0  0  0  0  0  0  0  0
    3.3153   -1.7234   -0.6600 O   0  0  0  0  0  0  0  0  0  0  0  0
    2.8221   -3.9109   -0.1796 N   0  0  0  0  0  0  0  0  0  0  0  0
    4.1650   -4.3407   -0.3290 C   0  0  0  0  0  0  0  0  0  0  0  0
    4.4260   -5.4434   -1.1441 C   0  0  0  0  0  0  0  0  0  0  0  0
    5.7442   -5.8612   -1.4073 C   0  0  0  0  0  0  0  0  0  0  0  0
    5.9562   -6.9750   -2.4219 C   0  0  0  0  0  0  0  0  0  0  0  0
    5.9302   -8.3676   -1.7793 C   0  0  0  0  0  0  0  0  0  0  0  0
    6.1630   -9.4900   -2.8056 C   0  0  0  0  0  0  0  0  0  0  0  0
    7.2795   -9.2409   -3.7305 N   0  0  0  0  0  0  0  0  0  0  0  0
    7.3482  -10.2897   -4.7512 C   0  0  0  0  0  0  0  0  0  0  0  0
    7.1947   -7.9200   -4.3608 C   0  0  0  0  0  0  0  0  0  0  0  0
    7.2180   -6.8392   -3.2823 C   0  0  0  0  0  0  0  0  0  0  0  0
    6.7970   -5.2091   -0.7463 C   0  0  0  0  0  0  0  0  0  0  0  0
    6.5488   -4.1259    0.1183 C   0  0  0  0  0  0  0  0  0  0  0  0
    7.6699   -3.4365    0.8607 C   0  0  0  0  0  0  0  0  0  0  0  0
    8.8970   -3.9837    0.6272 F   0  0  0  0  0  0  0  0  0  0  0  0
    7.7879   -2.1171    0.5467 F   0  0  0  0  0  0  0  0  0  0  0  0
    7.5005   -3.4843    2.2129 F   0  0  0  0  0  0  0  0  0  0  0  0
    5.2269   -3.6829    0.2968 C   0  0  0  0  0  0  0  0  0  0  0  0
   -2.8909   -2.0390   -0.5265 H   0  0  0  0  0  0  0  0  0  0  0  0
   -1.8304   -2.5738    0.7766 H   0  0  0  0  0  0  0  0  0  0  0  0
   -1.5488   -3.1090   -0.9117 H   0  0  0  0  0  0  0  0  0  0  0  0
   -2.6732    0.1731   -0.8871 H   0  0  0  0  0  0  0  0  0  0  0  0
   -3.1383    4.2764   -2.0842 H   0  0  0  0  0  0  0  0  0  0  0  0
   -5.1895    5.4985   -1.9378 H   0  0  0  0  0  0  0  0  0  0  0  0
   -6.7168    7.1688   -1.9027 H   0  0  0  0  0  0  0  0  0  0  0  0
   -8.6486    8.3590   -0.8755 H   0  0  0  0  0  0  0  0  0  0  0  0
   -8.8035    7.0682    0.3978 H   0  0  0  0  0  0  0  0  0  0  0  0
   -9.0485    6.6325   -2.6683 H   0  0  0  0  0  0  0  0  0  0  0  0
   -9.1997    5.3504   -1.3824 H   0  0  0  0  0  0  0  0  0  0  0  0
   -4.4160    2.1161    2.0622 H   0  0  0  0  0  0  0  0  0  0  0  0
    1.1003    2.2090   -0.8781 H   0  0  0  0  0  0  0  0  0  0  0  0
    2.2364    0.1328   -0.4243 H   0  0  0  0  0  0  0  0  0  0  0  0
    0.5557   -3.1485    0.0561 H   0  0  0  0  0  0  0  0  0  0  0  0
    2.1172   -4.5551   -0.5050 H   0  0  0  0  0  0  0  0  0  0  0  0
    3.6033   -5.9414   -1.6510 H   0  0  0  0  0  0  0  0  0  0  0  0
    5.1092   -6.9141   -3.1222 H   0  0  0  0  0  0  0  0  0  0  0  0
    4.9585   -8.5330   -1.2954 H   0  0  0  0  0  0  0  0  0  0  0  0
    6.6875   -8.4303   -0.9881 H   0  0  0  0  0  0  0  0  0  0  0  0
    5.2318   -9.6505   -3.3643 H   0  0  0  0  0  0  0  0  0  0  0  0
    6.3645  -10.4145   -2.2495 H   0  0  0  0  0  0  0  0  0  0  0  0
    7.6257  -11.2460   -4.2955 H   0  0  0  0  0  0  0  0  0  0  0  0
    8.1184  -10.0631   -5.4980 H   0  0  0  0  0  0  0  0  0  0  0  0
    6.3963  -10.4186   -5.2800 H   0  0  0  0  0  0  0  0  0  0  0  0
    6.2855   -7.8295   -4.9709 H   0  0  0  0  0  0  0  0  0  0  0  0
    8.0504   -7.7627   -5.0278 H   0  0  0  0  0  0  0  0  0  0  0  0
    7.2709   -5.8489   -3.7487 H   0  0  0  0  0  0  0  0  0  0  0  0
    8.1254   -6.9549   -2.6738 H   0  0  0  0  0  0  0  0  0  0  0  0
    7.8262   -5.5306   -0.9042 H   0  0  0  0  0  0  0  0  0  0  0  0
    5.0343   -2.8257    0.9416 H   0  0  0  0  0  0  0  0  0  0  0  0
  1  2  1  0  0  0  0
  1 42  1  0  0  0  0
  1 43  1  0  0  0  0
  1 44  1  0  0  0  0
  2  3  1  0  0  0  0
  2 20  2  0  0  0  0
  3  4  2  0  0  0  0
  3 45  1  0  0  0  0
  4  5  1  0  0  0  0
  4 18  1  0  0  0  0
  5  6  1  0  0  0  0
  6  7  1  0  0  0  0
  6 17  2  0  0  0  0
  7  8  2  0  0  0  0
  7 46  1  0  0  0  0
  8  9  1  0  0  0  0
  8 15  1  0  0  0  0
  9 10  1  0  0  0  0
  9 47  1  0  0  0  0
 10 11  2  0  0  0  0
 10 12  1  0  0  0  0
 12 13  1  0  0  0  0
 12 14  1  0  0  0  0
 12 48  1  0  0  0  0
 13 14  1  0  0  0  0
 13 49  1  0  0  0  0
 13 50  1  0  0  0  0
 14 51  1  0  0  0  0
 14 52  1  0  0  0  0
 15 16  2  0  0  0  0
 16 17  1  0  0  0  0
 16 53  1  0  0  0  0
 18 19  2  0  0  0  0
 18 54  1  0  0  0  0
 19 20  1  0  0  0  0
 19 55  1  0  0  0  0
 20 21  1  0  0  0  0
 21 22  1  0  0  0  0
 21 56  1  0  0  0  0
 22 23  2  0  0  0  0
 22 24  1  0  0  0  0
 24 25  1  0  0  0  0
 24 57  1  0  0  0  0
 25 26  1  0  0  0  0
 25 41  2  0  0  0  0
 26 27  2  0  0  0  0
 26 58  1  0  0  0  0
 27 28  1  0  0  0  0
 27 35  1  0  0  0  0
 28 29  1  0  0  0  0
 28 34  1  0  0  0  0
 28 59  1  0  0  0  0
 29 30  1  0  0  0  0
 29 60  1  0  0  0  0
 29 61  1  0  0  0  0
 30 31  1  0  0  0  0
 30 62  1  0  0  0  0
 30 63  1  0  0  0  0
 31 32  1  0  0  0  0
 31 33  1  0  0  0  0
 32 64  1  0  0  0  0
 32 65  1  0  0  0  0
 32 66  1  0  0  0  0
 33 34  1  0  0  0  0
 33 67  1  0  0  0  0
 33 68  1  0  0  0  0
 34 69  1  0  0  0  0
 34 70  1  0  0  0  0
 35 36  2  0  0  0  0
 35 71  1  0  0  0  0
 36 37  1  0  0  0  0
 36 41  1  0  0  0  0
 37 38  1  0  0  0  0
 37 39  1  0  0  0  0
 37 40  1  0  0  0  0
 41 72  1  0  0  0  0
M  END
$$$$
