CHEMBL3966429
 OpenBabel04072215373D

 60 64  0  0  1  0  0  0  0  0999 V2000
    1.1834    0.2676   -0.5671 C   0  0  0  0  0  0  0  0  0  0  0  0
    2.5846    0.1112   -0.4055 O   0  0  0  0  0  0  0  0  0  0  0  0
    3.1477   -1.0405   -0.8748 C   0  0  0  0  0  0  0  0  0  0  0  0
    4.1618   -1.5371   -0.0379 C   0  0  0  0  0  0  0  0  0  0  0  0
    4.9014   -2.7021   -0.3810 C   0  0  0  0  0  0  0  0  0  0  0  0
    5.9335   -3.2939    0.3603 C   0  0  0  0  0  0  0  0  0  0  0  0
    6.2945   -2.7469    1.6204 N   0  0  0  0  0  0  0  0  0  0  0  0
    7.4977   -3.0646    2.2854 C   0  0  0  0  0  0  0  0  0  0  0  0
    8.7191   -3.0294    1.5966 C   0  0  0  0  0  0  0  0  0  0  0  0
    9.9076   -3.4022    2.2223 C   0  0  0  0  0  0  0  0  0  0  0  0
    9.8897   -3.8110    3.5547 C   0  0  0  0  0  0  0  0  0  0  0  0
   11.3884   -4.2924    4.2643 Cl  0  0  0  0  0  0  0  0  0  0  0  0
    8.6809   -3.8265    4.2609 C   0  0  0  0  0  0  0  0  0  0  0  0
    8.5843   -4.3244    5.9136 Cl  0  0  0  0  0  0  0  0  0  0  0  0
    7.4912   -3.4451    3.6300 C   0  0  0  0  0  0  0  0  0  0  0  0
    6.6061   -4.3797   -0.0806 N   0  0  0  0  0  0  0  0  0  0  0  0
    6.2468   -4.8863   -1.2562 C   0  0  0  0  0  0  0  0  0  0  0  0
    5.2753   -4.4191   -2.0280 N   0  0  0  0  0  0  0  0  0  0  0  0
    4.6287   -3.3426   -1.5779 C   0  0  0  0  0  0  0  0  0  0  0  0
    3.6486   -2.8355   -2.3940 C   0  0  0  0  0  0  0  0  0  0  0  0
    2.8898   -1.6877   -2.0893 C   0  0  0  0  0  0  0  0  0  0  0  0
    1.9486   -1.1894   -2.9771 O   0  0  0  0  0  0  0  0  0  0  0  0
    1.8640   -1.9687   -4.1808 C   0  0  0  0  0  0  0  0  0  0  0  0
    0.8181   -1.5254   -5.1832 C   0  0  3  0  0  0  0  0  0  0  0  0
   -0.5927   -1.6178   -4.5953 C   0  0  0  0  0  0  0  0  0  0  0  0
   -1.5309   -1.2082   -5.6405 N   0  0  0  0  0  0  0  0  0  0  0  0
   -2.3160   -0.0621   -5.6895 C   0  0  0  0  0  0  0  0  0  0  0  0
   -3.0553    0.1781   -6.6435 O   0  0  0  0  0  0  0  0  0  0  0  0
   -2.3376    0.9102   -4.5681 C   0  0  0  0  0  0  0  0  0  0  0  0
   -1.2222    1.3225   -3.8364 C   0  0  0  0  0  0  0  0  0  0  0  0
   -1.3878    2.1882   -2.7548 C   0  0  0  0  0  0  0  0  0  0  0  0
   -2.6581    2.6634   -2.4853 C   0  0  0  0  0  0  0  0  0  0  0  0
   -2.9388    3.7089   -1.1579 Cl  0  0  0  0  0  0  0  0  0  0  0  0
   -3.7477    2.3581   -3.2141 N   0  0  0  0  0  0  0  0  0  0  0  0
   -3.5593    1.4963   -4.2465 C   0  0  0  0  0  0  0  0  0  0  0  0
   -1.4565   -2.0850   -6.8161 C   0  0  0  0  0  0  0  0  0  0  0  0
   -0.0152   -2.1602   -7.3411 C   0  0  0  0  0  0  0  0  0  0  0  0
    0.9286   -2.4470   -6.2984 O   0  0  0  0  0  0  0  0  0  0  0  0
    0.7545    0.5084    0.4124 H   0  0  0  0  0  0  0  0  0  0  0  0
    0.6609   -0.6140   -0.9466 H   0  0  0  0  0  0  0  0  0  0  0  0
    1.0136    1.1234   -1.2226 H   0  0  0  0  0  0  0  0  0  0  0  0
    4.3913   -0.9969    0.8786 H   0  0  0  0  0  0  0  0  0  0  0  0
    5.4839   -2.7527    2.2312 H   0  0  0  0  0  0  0  0  0  0  0  0
    8.7433   -2.7280    0.5507 H   0  0  0  0  0  0  0  0  0  0  0  0
   10.8345   -3.3836    1.6555 H   0  0  0  0  0  0  0  0  0  0  0  0
    6.5565   -3.4813    4.1831 H   0  0  0  0  0  0  0  0  0  0  0  0
    6.7917   -5.7525   -1.6151 H   0  0  0  0  0  0  0  0  0  0  0  0
    3.5214   -3.3910   -3.3177 H   0  0  0  0  0  0  0  0  0  0  0  0
    1.6168   -3.0086   -3.9267 H   0  0  0  0  0  0  0  0  0  0  0  0
    2.8316   -1.9377   -4.7012 H   0  0  0  0  0  0  0  0  0  0  0  0
    1.0391   -0.5109   -5.5375 H   0  0  0  0  0  0  0  0  0  0  0  0
   -0.7084   -1.0556   -3.6718 H   0  0  0  0  0  0  0  0  0  0  0  0
   -0.8317   -2.6606   -4.3502 H   0  0  0  0  0  0  0  0  0  0  0  0
   -0.2205    0.9899   -4.0846 H   0  0  0  0  0  0  0  0  0  0  0  0
   -0.5443    2.4855   -2.1434 H   0  0  0  0  0  0  0  0  0  0  0  0
   -4.4549    1.2811   -4.8260 H   0  0  0  0  0  0  0  0  0  0  0  0
   -2.1302   -1.7656   -7.6154 H   0  0  0  0  0  0  0  0  0  0  0  0
   -1.7773   -3.0792   -6.4815 H   0  0  0  0  0  0  0  0  0  0  0  0
    0.2830   -1.2251   -7.8254 H   0  0  0  0  0  0  0  0  0  0  0  0
    0.0673   -2.9643   -8.0807 H   0  0  0  0  0  0  0  0  0  0  0  0
  1  2  1  0  0  0  0
  1 39  1  0  0  0  0
  1 40  1  0  0  0  0
  1 41  1  0  0  0  0
  2  3  1  0  0  0  0
  3  4  1  0  0  0  0
  3 21  2  0  0  0  0
  4  5  2  0  0  0  0
  4 42  1  0  0  0  0
  5  6  1  0  0  0  0
  5 19  1  0  0  0  0
  6  7  1  0  0  0  0
  6 16  2  0  0  0  0
  7  8  1  0  0  0  0
  7 43  1  0  0  0  0
  8  9  1  0  0  0  0
  8 15  2  0  0  0  0
  9 10  2  0  0  0  0
  9 44  1  0  0  0  0
 10 11  1  0  0  0  0
 10 45  1  0  0  0  0
 11 12  1  0  0  0  0
 11 13  2  0  0  0  0
 13 14  1  0  0  0  0
 13 15  1  0  0  0  0
 15 46  1  0  0  0  0
 16 17  1  0  0  0  0
 17 18  2  0  0  0  0
 17 47  1  0  0  0  0
 18 19  1  0  0  0  0
 19 20  2  0  0  0  0
 20 21  1  0  0  0  0
 20 48  1  0  0  0  0
 21 22  1  0  0  0  0
 22 23  1  0  0  0  0
 23 24  1  0  0  0  0
 23 49  1  0  0  0  0
 23 50  1  0  0  0  0
 24 25  1  0  0  0  0
 24 38  1  0  0  0  0
 24 51  1  0  0  0  0
 25 26  1  0  0  0  0
 25 52  1  0  0  0  0
 25 53  1  0  0  0  0
 26 27  1  0  0  0  0
 26 36  1  0  0  0  0
 27 28  2  0  0  0  0
 27 29  1  0  0  0  0
 29 30  1  0  0  0  0
 29 35  2  0  0  0  0
 30 31  2  0  0  0  0
 30 54  1  0  0  0  0
 31 32  1  0  0  0  0
 31 55  1  0  0  0  0
 32 33  1  0  0  0  0
 32 34  2  0  0  0  0
 34 35  1  0  0  0  0
 35 56  1  0  0  0  0
 36 37  1  0  0  0  0
 36 57  1  0  0  0  0
 36 58  1  0  0  0  0
 37 38  1  0  0  0  0
 37 59  1  0  0  0  0
 37 60  1  0  0  0  0
M  END
$$$$
