CHEMBL2001257
 OpenBabel04072215363D

 64 67  0  0  0  0  0  0  0  0999 V2000
    1.1110    0.2846    0.0236 C   0  0  0  0  0  0  0  0  0  0  0  0
    2.6237    0.1014   -0.0744 C   0  0  0  0  0  0  0  0  0  0  0  0
    3.0493   -1.0612   -0.8747 N   0  0  0  0  0  0  0  0  0  0  0  0
    2.5004   -1.0799   -2.2389 C   0  0  0  0  0  0  0  0  0  0  0  0
    2.9835    0.0157   -3.1877 C   0  0  0  0  0  0  0  0  0  0  0  0
    4.5182   -1.1792   -0.8175 C   0  0  0  0  0  0  0  0  0  0  0  0
    5.0249   -2.4005   -1.5673 C   0  0  0  0  0  0  0  0  0  0  0  0
    5.4595   -3.4481   -2.2104 C   0  0  0  0  0  0  0  0  0  0  0  0
    5.8351   -4.6328   -2.9027 C   0  0  0  0  0  0  0  0  0  0  0  0
    5.3994   -5.8653   -2.4778 C   0  0  0  0  0  0  0  0  0  0  0  0
    5.7190   -7.0157   -3.0836 N   0  0  0  0  0  0  0  0  0  0  0  0
    6.5012   -7.0077   -4.1840 C   0  0  0  0  0  0  0  0  0  0  0  0
    6.7793   -8.2826   -4.6512 N   0  0  0  0  0  0  0  0  0  0  0  0
    6.9729   -5.7784   -4.7462 C   0  0  0  0  0  0  0  0  0  0  0  0
    7.7689   -5.4622   -5.9509 C   0  0  0  0  0  0  0  0  0  0  0  0
    8.2819   -6.3601   -6.9991 C   0  0  0  0  0  0  0  0  0  0  0  0
    7.5401   -7.4727   -7.3826 C   0  0  0  0  0  0  0  0  0  0  0  0
    8.0489   -8.4110   -8.2797 C   0  0  0  0  0  0  0  0  0  0  0  0
    9.2618   -8.2058   -8.9314 C   0  0  0  0  0  0  0  0  0  0  0  0
    9.7961   -9.1260   -9.8680 N   0  0  0  0  0  0  0  0  0  0  0  0
    9.1757  -10.2904  -10.2956 C   0  0  0  0  0  0  0  0  0  0  0  0
    8.0454  -10.6504   -9.9820 O   0  0  0  0  0  0  0  0  0  0  0  0
   10.0113  -11.0547  -11.0903 N   0  0  0  0  0  0  0  0  0  0  0  0
    9.5598  -12.2834  -11.6334 C   0  0  0  0  0  0  0  0  0  0  0  0
   10.4013  -13.3937  -11.5647 C   0  0  0  0  0  0  0  0  0  0  0  0
    9.9584  -14.6351  -12.0200 C   0  0  0  0  0  0  0  0  0  0  0  0
    8.6960  -14.7625  -12.6014 C   0  0  0  0  0  0  0  0  0  0  0  0
    7.8603  -13.6477  -12.7258 C   0  0  0  0  0  0  0  0  0  0  0  0
    6.5167  -13.7591  -13.3857 C   0  0  0  0  0  0  0  0  0  0  0  0
    8.2942  -12.4115  -12.2281 C   0  0  0  0  0  0  0  0  0  0  0  0
    9.9768   -7.0411   -8.6344 C   0  0  0  0  0  0  0  0  0  0  0  0
    9.5020   -6.1389   -7.6619 C   0  0  0  0  0  0  0  0  0  0  0  0
    7.9783   -4.1019   -6.0745 C   0  0  0  0  0  0  0  0  0  0  0  0
    7.2869   -3.1962   -4.8224 S   0  0  0  0  0  0  0  0  0  0  0  0
    6.6272   -4.5958   -4.0611 C   0  0  0  0  0  0  0  0  0  0  0  0
    0.8743    1.0258    0.7935 H   0  0  0  0  0  0  0  0  0  0  0  0
    0.6144   -0.6523    0.2938 H   0  0  0  0  0  0  0  0  0  0  0  0
    0.6869    0.6465   -0.9179 H   0  0  0  0  0  0  0  0  0  0  0  0
    2.9959   -0.0315    0.9486 H   0  0  0  0  0  0  0  0  0  0  0  0
    3.0751    1.0283   -0.4511 H   0  0  0  0  0  0  0  0  0  0  0  0
    1.4068   -1.0489   -2.1954 H   0  0  0  0  0  0  0  0  0  0  0  0
    2.7050   -2.0522   -2.7052 H   0  0  0  0  0  0  0  0  0  0  0  0
    2.8897    1.0127   -2.7489 H   0  0  0  0  0  0  0  0  0  0  0  0
    2.3795    0.0028   -4.1017 H   0  0  0  0  0  0  0  0  0  0  0  0
    4.0262   -0.1404   -3.4808 H   0  0  0  0  0  0  0  0  0  0  0  0
    4.8414   -1.2832    0.2256 H   0  0  0  0  0  0  0  0  0  0  0  0
    5.0083   -0.2873   -1.2266 H   0  0  0  0  0  0  0  0  0  0  0  0
    4.7609   -5.9672   -1.6043 H   0  0  0  0  0  0  0  0  0  0  0  0
    6.4620   -8.9666   -3.9725 H   0  0  0  0  0  0  0  0  0  0  0  0
    7.7208   -8.4113   -4.9952 H   0  0  0  0  0  0  0  0  0  0  0  0
    6.5499   -7.6598   -6.9756 H   0  0  0  0  0  0  0  0  0  0  0  0
    7.4437   -9.2966   -8.4363 H   0  0  0  0  0  0  0  0  0  0  0  0
   10.6503   -8.8623  -10.3385 H   0  0  0  0  0  0  0  0  0  0  0  0
   10.9896  -11.0106  -10.8433 H   0  0  0  0  0  0  0  0  0  0  0  0
   11.3773  -13.3220  -11.0930 H   0  0  0  0  0  0  0  0  0  0  0  0
   10.5918  -15.5109  -11.9076 H   0  0  0  0  0  0  0  0  0  0  0  0
    8.3681  -15.7375  -12.9538 H   0  0  0  0  0  0  0  0  0  0  0  0
    6.3095  -14.7863  -13.7033 H   0  0  0  0  0  0  0  0  0  0  0  0
    6.4871  -13.1231  -14.2766 H   0  0  0  0  0  0  0  0  0  0  0  0
    5.7216  -13.4530  -12.6984 H   0  0  0  0  0  0  0  0  0  0  0  0
    7.6394  -11.5444  -12.3070 H   0  0  0  0  0  0  0  0  0  0  0  0
   10.9151   -6.8188   -9.1359 H   0  0  0  0  0  0  0  0  0  0  0  0
   10.1067   -5.2632   -7.4362 H   0  0  0  0  0  0  0  0  0  0  0  0
    8.5044   -3.5756   -6.8582 H   0  0  0  0  0  0  0  0  0  0  0  0
  1  2  1  0  0  0  0
  1 36  1  0  0  0  0
  1 37  1  0  0  0  0
  1 38  1  0  0  0  0
  2  3  1  0  0  0  0
  2 39  1  0  0  0  0
  2 40  1  0  0  0  0
  3  4  1  0  0  0  0
  3  6  1  0  0  0  0
  4  5  1  0  0  0  0
  4 41  1  0  0  0  0
  4 42  1  0  0  0  0
  5 43  1  0  0  0  0
  5 44  1  0  0  0  0
  5 45  1  0  0  0  0
  6  7  1  0  0  0  0
  6 46  1  0  0  0  0
  6 47  1  0  0  0  0
  7  8  3  0  0  0  0
  8  9  1  0  0  0  0
  9 10  1  0  0  0  0
  9 35  2  0  0  0  0
 10 11  2  0  0  0  0
 10 48  1  0  0  0  0
 11 12  1  0  0  0  0
 12 13  1  0  0  0  0
 12 14  2  0  0  0  0
 13 49  1  0  0  0  0
 13 50  1  0  0  0  0
 14 15  1  0  0  0  0
 14 35  1  0  0  0  0
 15 16  1  0  0  0  0
 15 33  2  0  0  0  0
 16 17  1  0  0  0  0
 16 32  2  0  0  0  0
 17 18  2  0  0  0  0
 17 51  1  0  0  0  0
 18 19  1  0  0  0  0
 18 52  1  0  0  0  0
 19 20  1  0  0  0  0
 19 31  2  0  0  0  0
 20 21  1  0  0  0  0
 20 53  1  0  0  0  0
 21 22  2  0  0  0  0
 21 23  1  0  0  0  0
 23 24  1  0  0  0  0
 23 54  1  0  0  0  0
 24 25  1  0  0  0  0
 24 30  2  0  0  0  0
 25 26  2  0  0  0  0
 25 55  1  0  0  0  0
 26 27  1  0  0  0  0
 26 56  1  0  0  0  0
 27 28  2  0  0  0  0
 27 57  1  0  0  0  0
 28 29  1  0  0  0  0
 28 30  1  0  0  0  0
 29 58  1  0  0  0  0
 29 59  1  0  0  0  0
 29 60  1  0  0  0  0
 30 61  1  0  0  0  0
 31 32  1  0  0  0  0
 31 62  1  0  0  0  0
 32 63  1  0  0  0  0
 33 34  1  0  0  0  0
 33 64  1  0  0  0  0
 34 35  1  0  0  0  0
M  END
$$$$
