CHEMBL4087814
 OpenBabel04072215383D

 53 57  0  0  0  0  0  0  0  0999 V2000
    2.9252   -0.4655   -2.2589 C   0  0  0  0  0  0  0  0  0  0  0  0
    2.5514    0.1164   -0.9728 N   0  0  0  0  0  0  0  0  0  0  0  0
    3.3520   -0.4540    0.1218 C   0  0  0  0  0  0  0  0  0  0  0  0
    4.8331   -0.1459    0.0383 C   0  0  0  0  0  0  0  0  0  0  0  0
    5.2623    1.1646   -0.0530 C   0  0  0  0  0  0  0  0  0  0  0  0
    6.6242    1.3720   -0.0124 C   0  0  0  0  0  0  0  0  0  0  0  0
    7.2002    2.6243   -0.0270 O   0  0  0  0  0  0  0  0  0  0  0  0
    6.5868    3.6828    0.6096 C   0  0  0  0  0  0  0  0  0  0  0  0
    5.7781    3.5729    1.7414 C   0  0  0  0  0  0  0  0  0  0  0  0
    5.1361    4.6921    2.2871 C   0  0  0  0  0  0  0  0  0  0  0  0
    5.3839    5.9479    1.7078 C   0  0  0  0  0  0  0  0  0  0  0  0
    6.2510    6.0898    0.6178 C   0  0  0  0  0  0  0  0  0  0  0  0
    6.2914    7.4667    0.2817 C   0  0  0  0  0  0  0  0  0  0  0  0
    5.3917    8.1151    1.0920 C   0  0  0  0  0  0  0  0  0  0  0  0
    4.8338    7.2027    1.9682 N   0  0  0  0  0  0  0  0  0  0  0  0
    3.8026    7.5042    2.8760 C   0  0  0  0  0  0  0  0  0  0  0  0
    2.7992    8.0699    2.4770 O   0  0  0  0  0  0  0  0  0  0  0  0
    4.1949    7.2352    4.1673 N   0  0  0  0  0  0  0  0  0  0  0  0
    3.4169    7.6840    5.2189 C   0  0  0  0  0  0  0  0  0  0  0  0
    2.0171    7.5547    5.3974 C   0  0  0  0  0  0  0  0  0  0  0  0
    1.7517    8.2014    6.5862 C   0  0  0  0  0  0  0  0  0  0  0  0
    0.4008    8.3347    7.3278 C   0  0  0  0  0  0  0  0  0  0  0  0
    0.3503    9.2666    8.5274 C   0  0  0  0  0  0  0  0  0  0  0  0
    1.5258    9.8798    8.7903 F   0  0  0  0  0  0  0  0  0  0  0  0
   -0.5723   10.2433    8.3322 F   0  0  0  0  0  0  0  0  0  0  0  0
   -0.0132    8.5949    9.6487 F   0  0  0  0  0  0  0  0  0  0  0  0
   -0.4369    7.0434    7.3818 C   0  0  0  0  0  0  0  0  0  0  0  0
   -0.8912    8.1607    6.5158 C   0  0  0  0  0  0  0  0  0  0  0  0
    2.9264    8.7054    7.0627 O   0  0  0  0  0  0  0  0  0  0  0  0
    3.9729    8.3182    6.2500 N   0  0  0  0  0  0  0  0  0  0  0  0
    6.8634    4.9441    0.0703 C   0  0  0  0  0  0  0  0  0  0  0  0
    7.5130    0.3621   -0.0097 N   0  0  0  0  0  0  0  0  0  0  0  0
    6.9971   -0.8723    0.0166 C   0  0  0  0  0  0  0  0  0  0  0  0
    5.6944   -1.1848    0.0701 N   0  0  0  0  0  0  0  0  0  0  0  0
    2.2780   -0.0564   -3.0401 H   0  0  0  0  0  0  0  0  0  0  0  0
    2.8092   -1.5539   -2.2563 H   0  0  0  0  0  0  0  0  0  0  0  0
    3.9547   -0.2147   -2.5339 H   0  0  0  0  0  0  0  0  0  0  0  0
    1.5712   -0.1005   -0.7936 H   0  0  0  0  0  0  0  0  0  0  0  0
    3.1941   -1.5378    0.1837 H   0  0  0  0  0  0  0  0  0  0  0  0
    2.9849   -0.0361    1.0681 H   0  0  0  0  0  0  0  0  0  0  0  0
    4.5496    1.9750   -0.1315 H   0  0  0  0  0  0  0  0  0  0  0  0
    5.6041    2.6071    2.2095 H   0  0  0  0  0  0  0  0  0  0  0  0
    4.4472    4.5703    3.1178 H   0  0  0  0  0  0  0  0  0  0  0  0
    6.8826    7.9256   -0.5009 H   0  0  0  0  0  0  0  0  0  0  0  0
    5.1009    9.1568    1.1404 H   0  0  0  0  0  0  0  0  0  0  0  0
    5.1891    7.2518    4.3593 H   0  0  0  0  0  0  0  0  0  0  0  0
    1.3164    7.0373    4.7584 H   0  0  0  0  0  0  0  0  0  0  0  0
   -1.0000    6.8349    8.2875 H   0  0  0  0  0  0  0  0  0  0  0  0
   -0.0595    6.1438    6.9085 H   0  0  0  0  0  0  0  0  0  0  0  0
   -1.7791    8.7029    6.8318 H   0  0  0  0  0  0  0  0  0  0  0  0
   -0.8382    8.0386    5.4408 H   0  0  0  0  0  0  0  0  0  0  0  0
    7.5224    5.0356   -0.7896 H   0  0  0  0  0  0  0  0  0  0  0  0
    7.6991   -1.6988   -0.0025 H   0  0  0  0  0  0  0  0  0  0  0  0
  1  2  1  0  0  0  0
  1 35  1  0  0  0  0
  1 36  1  0  0  0  0
  1 37  1  0  0  0  0
  2  3  1  0  0  0  0
  2 38  1  0  0  0  0
  3  4  1  0  0  0  0
  3 39  1  0  0  0  0
  3 40  1  0  0  0  0
  4  5  1  0  0  0  0
  4 34  2  0  0  0  0
  5  6  2  0  0  0  0
  5 41  1  0  0  0  0
  6  7  1  0  0  0  0
  6 32  1  0  0  0  0
  7  8  1  0  0  0  0
  8  9  1  0  0  0  0
  8 31  2  0  0  0  0
  9 10  2  0  0  0  0
  9 42  1  0  0  0  0
 10 11  1  0  0  0  0
 10 43  1  0  0  0  0
 11 12  2  0  0  0  0
 11 15  1  0  0  0  0
 12 13  1  0  0  0  0
 12 31  1  0  0  0  0
 13 14  2  0  0  0  0
 13 44  1  0  0  0  0
 14 15  1  0  0  0  0
 14 45  1  0  0  0  0
 15 16  1  0  0  0  0
 16 17  2  0  0  0  0
 16 18  1  0  0  0  0
 18 19  1  0  0  0  0
 18 46  1  0  0  0  0
 19 20  1  0  0  0  0
 19 30  2  0  0  0  0
 20 21  2  0  0  0  0
 20 47  1  0  0  0  0
 21 22  1  0  0  0  0
 21 29  1  0  0  0  0
 22 23  1  0  0  0  0
 22 27  1  0  0  0  0
 22 28  1  0  0  0  0
 23 24  1  0  0  0  0
 23 25  1  0  0  0  0
 23 26  1  0  0  0  0
 27 28  1  0  0  0  0
 27 48  1  0  0  0  0
 27 49  1  0  0  0  0
 28 50  1  0  0  0  0
 28 51  1  0  0  0  0
 29 30  1  0  0  0  0
 31 52  1  0  0  0  0
 32 33  2  0  0  0  0
 33 34  1  0  0  0  0
 33 53  1  0  0  0  0
M  END
$$$$
