CHEMBL4079136
 OpenBabel04072215383D

 54 58  0  0  0  0  0  0  0  0999 V2000
    3.6581   -0.2601    3.6741 C   0  0  0  0  0  0  0  0  0  0  0  0
    4.1318   -0.3398    2.2090 C   0  0  0  0  0  0  0  0  0  0  0  0
    3.6536    0.9345    1.4820 C   0  0  0  0  0  0  0  0  0  0  0  0
    5.6814   -0.4044    2.1775 C   0  0  0  0  0  0  0  0  0  0  0  0
    6.2048   -0.4079    0.8515 O   0  0  0  0  0  0  0  0  0  0  0  0
    3.5691   -1.5936    1.5885 C   0  0  0  0  0  0  0  0  0  0  0  0
    3.7043   -2.9387    1.8573 C   0  0  0  0  0  0  0  0  0  0  0  0
    2.8887   -3.5875    0.8978 C   0  0  0  0  0  0  0  0  0  0  0  0
    2.7001   -4.9553    0.8254 N   0  0  0  0  0  0  0  0  0  0  0  0
    1.6760   -5.5039    0.0879 C   0  0  0  0  0  0  0  0  0  0  0  0
    0.7977   -4.9559   -0.5607 O   0  0  0  0  0  0  0  0  0  0  0  0
    1.5877   -6.8976    0.2731 N   0  0  0  0  0  0  0  0  0  0  0  0
    0.3666   -7.5582    0.3748 C   0  0  0  0  0  0  0  0  0  0  0  0
    0.5815   -8.9033    0.5097 C   0  0  0  0  0  0  0  0  0  0  0  0
    1.9810   -9.1183    0.4216 C   0  0  0  0  0  0  0  0  0  0  0  0
    2.7583  -10.2932    0.3743 C   0  0  0  0  0  0  0  0  0  0  0  0
    4.1371  -10.2065    0.1830 C   0  0  0  0  0  0  0  0  0  0  0  0
    4.7878  -11.4228    0.0456 O   0  0  0  0  0  0  0  0  0  0  0  0
    6.0347  -11.3997   -0.5517 C   0  0  0  0  0  0  0  0  0  0  0  0
    6.1783  -10.7542   -1.7273 N   0  0  0  0  0  0  0  0  0  0  0  0
    7.4418  -10.4521   -2.0738 C   0  0  0  0  0  0  0  0  0  0  0  0
    8.5495  -10.6815   -1.3476 N   0  0  0  0  0  0  0  0  0  0  0  0
    8.3235  -11.3818   -0.2298 C   0  0  0  0  0  0  0  0  0  0  0  0
    7.0944  -11.8363    0.1793 C   0  0  0  0  0  0  0  0  0  0  0  0
    7.2180  -12.5212    1.4850 C   0  0  0  0  0  0  0  0  0  0  0  0
    8.4025  -11.8684    2.1009 N   0  0  0  0  0  0  0  0  0  0  0  0
    9.2796  -11.5510    0.9267 C   0  0  0  0  0  0  0  0  0  0  0  0
    4.7515   -8.9491    0.1497 C   0  0  0  0  0  0  0  0  0  0  0  0
    4.0011   -7.7651    0.1907 C   0  0  0  0  0  0  0  0  0  0  0  0
    2.6036   -7.8638    0.3207 C   0  0  0  0  0  0  0  0  0  0  0  0
    2.3305   -2.6870    0.0862 N   0  0  0  0  0  0  0  0  0  0  0  0
    2.7483   -1.4500    0.5155 O   0  0  0  0  0  0  0  0  0  0  0  0
    4.0626    0.6268    4.1744 H   0  0  0  0  0  0  0  0  0  0  0  0
    3.9737   -1.1386    4.2481 H   0  0  0  0  0  0  0  0  0  0  0  0
    2.5639   -0.2073    3.7331 H   0  0  0  0  0  0  0  0  0  0  0  0
    4.0537    1.8340    1.9653 H   0  0  0  0  0  0  0  0  0  0  0  0
    2.5599    1.0177    1.4937 H   0  0  0  0  0  0  0  0  0  0  0  0
    3.9717    0.9540    0.4335 H   0  0  0  0  0  0  0  0  0  0  0  0
    6.0558   -1.2967    2.6909 H   0  0  0  0  0  0  0  0  0  0  0  0
    6.1056    0.4664    2.6867 H   0  0  0  0  0  0  0  0  0  0  0  0
    5.8106   -1.1548    0.3664 H   0  0  0  0  0  0  0  0  0  0  0  0
    4.2852   -3.3799    2.6525 H   0  0  0  0  0  0  0  0  0  0  0  0
    3.1903   -5.5247    1.5006 H   0  0  0  0  0  0  0  0  0  0  0  0
   -0.5488   -6.9821    0.3531 H   0  0  0  0  0  0  0  0  0  0  0  0
   -0.1849   -9.6594    0.6061 H   0  0  0  0  0  0  0  0  0  0  0  0
    2.2769  -11.2662    0.4250 H   0  0  0  0  0  0  0  0  0  0  0  0
    7.5701   -9.8998   -3.0034 H   0  0  0  0  0  0  0  0  0  0  0  0
    7.4453  -13.5832    1.3323 H   0  0  0  0  0  0  0  0  0  0  0  0
    6.3309  -12.4391    2.1153 H   0  0  0  0  0  0  0  0  0  0  0  0
    8.0671  -10.9689    2.4580 H   0  0  0  0  0  0  0  0  0  0  0  0
    9.9703  -12.3788    0.7469 H   0  0  0  0  0  0  0  0  0  0  0  0
    9.8348  -10.6270    1.1126 H   0  0  0  0  0  0  0  0  0  0  0  0
    5.8294   -8.8569    0.0341 H   0  0  0  0  0  0  0  0  0  0  0  0
    4.5055   -6.8130    0.0501 H   0  0  0  0  0  0  0  0  0  0  0  0
  1  2  1  0  0  0  0
  1 33  1  0  0  0  0
  1 34  1  0  0  0  0
  1 35  1  0  0  0  0
  2  3  1  0  0  0  0
  2  4  1  0  0  0  0
  2  6  1  0  0  0  0
  3 36  1  0  0  0  0
  3 37  1  0  0  0  0
  3 38  1  0  0  0  0
  4  5  1  0  0  0  0
  4 39  1  0  0  0  0
  4 40  1  0  0  0  0
  5 41  1  0  0  0  0
  6  7  2  0  0  0  0
  6 32  1  0  0  0  0
  7  8  1  0  0  0  0
  7 42  1  0  0  0  0
  8  9  1  0  0  0  0
  8 31  2  0  0  0  0
  9 10  1  0  0  0  0
  9 43  1  0  0  0  0
 10 11  2  0  0  0  0
 10 12  1  0  0  0  0
 12 13  1  0  0  0  0
 12 30  1  0  0  0  0
 13 14  2  0  0  0  0
 13 44  1  0  0  0  0
 14 15  1  0  0  0  0
 14 45  1  0  0  0  0
 15 16  1  0  0  0  0
 15 30  2  0  0  0  0
 16 17  2  0  0  0  0
 16 46  1  0  0  0  0
 17 18  1  0  0  0  0
 17 28  1  0  0  0  0
 18 19  1  0  0  0  0
 19 20  1  0  0  0  0
 19 24  2  0  0  0  0
 20 21  2  0  0  0  0
 21 22  1  0  0  0  0
 21 47  1  0  0  0  0
 22 23  2  0  0  0  0
 23 24  1  0  0  0  0
 23 27  1  0  0  0  0
 24 25  1  0  0  0  0
 25 26  1  0  0  0  0
 25 48  1  0  0  0  0
 25 49  1  0  0  0  0
 26 27  1  0  0  0  0
 26 50  1  0  0  0  0
 27 51  1  0  0  0  0
 27 52  1  0  0  0  0
 28 29  2  0  0  0  0
 28 53  1  0  0  0  0
 29 30  1  0  0  0  0
 29 54  1  0  0  0  0
 31 32  1  0  0  0  0
M  END
$$$$
