CHEMBL3696096
 OpenBabel04072215373D

 43 45  0  0  0  0  0  0  0  0999 V2000
    2.8220    0.7517   -2.1306 C   0  0  0  0  0  0  0  0  0  0  0  0
    1.3987    0.4871   -1.7246 C   0  0  0  0  0  0  0  0  0  0  0  0
    0.8939   -0.8142   -1.8042 C   0  0  0  0  0  0  0  0  0  0  0  0
   -0.4082   -1.0755   -1.4012 C   0  0  0  0  0  0  0  0  0  0  0  0
   -1.2191   -0.0435   -0.9338 C   0  0  0  0  0  0  0  0  0  0  0  0
   -2.4045   -0.4184   -0.4409 F   0  0  0  0  0  0  0  0  0  0  0  0
   -0.7725    1.2879   -0.8967 C   0  0  0  0  0  0  0  0  0  0  0  0
   -1.5724    2.4074   -0.5140 N   0  0  0  0  0  0  0  0  0  0  0  0
   -2.9586    2.4276   -0.4827 C   0  0  0  0  0  0  0  0  0  0  0  0
   -3.6885    1.4860   -0.7788 O   0  0  0  0  0  0  0  0  0  0  0  0
   -3.4846    3.6720   -0.1436 N   0  0  0  0  0  0  0  0  0  0  0  0
   -4.8992    3.8054   -0.0351 C   0  0  0  0  0  0  0  0  0  0  0  0
   -5.6430    2.9073    0.7318 C   0  0  0  0  0  0  0  0  0  0  0  0
   -7.0431    2.9521    0.7277 C   0  0  0  0  0  0  0  0  0  0  0  0
   -7.7479    3.9038   -0.0305 C   0  0  0  0  0  0  0  0  0  0  0  0
   -9.2317    3.9328   -0.0251 C   0  0  0  0  0  0  0  0  0  0  0  0
  -10.0518    3.6079    1.4605 S   0  0  0  0  0  0  0  0  0  0  0  0
  -11.5765    3.8179    0.8986 N   0  0  0  0  0  0  0  0  0  0  0  0
  -11.5288    4.1348   -0.3849 C   0  0  0  0  0  0  0  0  0  0  0  0
  -12.6878    4.3441   -1.0563 N   0  0  0  0  0  0  0  0  0  0  0  0
  -10.2099    4.2216   -0.9877 C   0  0  0  0  0  0  0  0  0  0  0  0
   -9.9265    4.5389   -2.3826 C   0  0  0  0  0  0  0  0  0  0  0  0
  -10.8479    5.3238   -3.0224 N   0  0  0  0  0  0  0  0  0  0  0  0
   -8.9303    4.1703   -2.9924 O   0  0  0  0  0  0  0  0  0  0  0  0
   -6.9824    4.8325   -0.7550 C   0  0  0  0  0  0  0  0  0  0  0  0
   -5.5724    4.7969   -0.7466 C   0  0  0  0  0  0  0  0  0  0  0  0
    0.5637    1.5301   -1.2718 C   0  0  0  0  0  0  0  0  0  0  0  0
    3.3263   -0.1731   -2.4390 H   0  0  0  0  0  0  0  0  0  0  0  0
    3.3858    1.1684   -1.2914 H   0  0  0  0  0  0  0  0  0  0  0  0
    2.8539    1.4432   -2.9763 H   0  0  0  0  0  0  0  0  0  0  0  0
    1.5116   -1.6350   -2.1610 H   0  0  0  0  0  0  0  0  0  0  0  0
   -0.8074   -2.0844   -1.4287 H   0  0  0  0  0  0  0  0  0  0  0  0
   -1.1022    3.2880   -0.3869 H   0  0  0  0  0  0  0  0  0  0  0  0
   -3.0029    4.4513   -0.5675 H   0  0  0  0  0  0  0  0  0  0  0  0
   -5.1434    2.1390    1.3186 H   0  0  0  0  0  0  0  0  0  0  0  0
   -7.5663    2.2000    1.3142 H   0  0  0  0  0  0  0  0  0  0  0  0
  -13.5139    4.0483   -0.5386 H   0  0  0  0  0  0  0  0  0  0  0  0
  -12.7460    4.0615   -2.0302 H   0  0  0  0  0  0  0  0  0  0  0  0
  -11.5765    5.8028   -2.5065 H   0  0  0  0  0  0  0  0  0  0  0  0
  -10.6095    5.6462   -3.9504 H   0  0  0  0  0  0  0  0  0  0  0  0
   -7.4680    5.5876   -1.3684 H   0  0  0  0  0  0  0  0  0  0  0  0
   -5.0281    5.5021   -1.3675 H   0  0  0  0  0  0  0  0  0  0  0  0
    0.9677    2.5407   -1.2332 H   0  0  0  0  0  0  0  0  0  0  0  0
  1  2  1  0  0  0  0
  1 28  1  0  0  0  0
  1 29  1  0  0  0  0
  1 30  1  0  0  0  0
  2  3  1  0  0  0  0
  2 27  2  0  0  0  0
  3  4  2  0  0  0  0
  3 31  1  0  0  0  0
  4  5  1  0  0  0  0
  4 32  1  0  0  0  0
  5  6  1  0  0  0  0
  5  7  2  0  0  0  0
  7  8  1  0  0  0  0
  7 27  1  0  0  0  0
  8  9  1  0  0  0  0
  8 33  1  0  0  0  0
  9 10  2  0  0  0  0
  9 11  1  0  0  0  0
 11 12  1  0  0  0  0
 11 34  1  0  0  0  0
 12 13  1  0  0  0  0
 12 26  2  0  0  0  0
 13 14  2  0  0  0  0
 13 35  1  0  0  0  0
 14 15  1  0  0  0  0
 14 36  1  0  0  0  0
 15 16  1  0  0  0  0
 15 25  2  0  0  0  0
 16 17  1  0  0  0  0
 16 21  2  0  0  0  0
 17 18  1  0  0  0  0
 18 19  2  0  0  0  0
 19 20  1  0  0  0  0
 19 21  1  0  0  0  0
 20 37  1  0  0  0  0
 20 38  1  0  0  0  0
 21 22  1  0  0  0  0
 22 23  1  0  0  0  0
 22 24  2  0  0  0  0
 23 39  1  0  0  0  0
 23 40  1  0  0  0  0
 25 26  1  0  0  0  0
 25 41  1  0  0  0  0
 26 42  1  0  0  0  0
 27 43  1  0  0  0  0
M  END
$$$$
