CHEMBL1998829
 OpenBabel04072215363D

 39 42  0  0  0  0  0  0  0  0999 V2000
    1.2883    0.8258   -0.6169 O   0  0  0  0  0  0  0  0  0  0  0  0
    2.3620    0.3328   -0.2846 C   0  0  0  0  0  0  0  0  0  0  0  0
    2.8468   -0.9025   -0.6775 N   0  0  0  0  0  0  0  0  0  0  0  0
    2.1646   -1.7887   -1.5482 C   0  0  0  0  0  0  0  0  0  0  0  0
    1.1121   -1.3997   -2.3810 C   0  0  0  0  0  0  0  0  0  0  0  0
    0.3899   -2.2099   -3.1917 N   0  0  0  0  0  0  0  0  0  0  0  0
    0.7664   -3.4946   -3.1106 C   0  0  0  0  0  0  0  0  0  0  0  0
    0.1372   -4.5025   -3.7787 N   0  0  0  0  0  0  0  0  0  0  0  0
    0.7232   -5.6985   -3.4670 C   0  0  0  0  0  0  0  0  0  0  0  0
    1.7586   -5.4604   -2.5747 C   0  0  0  0  0  0  0  0  0  0  0  0
    2.5395   -6.5417   -1.9816 C   0  0  0  0  0  0  0  0  0  0  0  0
    3.8997   -6.3790   -1.6955 C   0  0  0  0  0  0  0  0  0  0  0  0
    4.6255   -7.4086   -1.0865 C   0  0  0  0  0  0  0  0  0  0  0  0
    4.0028   -8.6147   -0.7702 C   0  0  0  0  0  0  0  0  0  0  0  0
    2.6557   -8.7976   -1.0671 C   0  0  0  0  0  0  0  0  0  0  0  0
    1.9291   -7.7668   -1.6663 C   0  0  0  0  0  0  0  0  0  0  0  0
    1.7972   -4.0404   -2.3533 C   0  0  0  0  0  0  0  0  0  0  0  0
    2.5451   -3.1390   -1.5617 C   0  0  0  0  0  0  0  0  0  0  0  0
    3.1840    1.0884    0.6888 C   0  0  0  0  0  0  0  0  0  0  0  0
    2.5128    1.8151    1.6836 C   0  0  0  0  0  0  0  0  0  0  0  0
    3.2314    2.5869    2.5966 C   0  0  0  0  0  0  0  0  0  0  0  0
    4.6205    2.6417    2.5048 C   0  0  0  0  0  0  0  0  0  0  0  0
    5.5085    3.6084    3.6167 Cl  0  0  0  0  0  0  0  0  0  0  0  0
    5.2952    1.9294    1.5104 C   0  0  0  0  0  0  0  0  0  0  0  0
    4.5780    1.1483    0.5973 C   0  0  0  0  0  0  0  0  0  0  0  0
    3.6441   -1.2781   -0.1775 H   0  0  0  0  0  0  0  0  0  0  0  0
    0.7936   -0.3631   -2.4463 H   0  0  0  0  0  0  0  0  0  0  0  0
   -0.6626   -4.3573   -4.3769 H   0  0  0  0  0  0  0  0  0  0  0  0
    0.3398   -6.6149   -3.8955 H   0  0  0  0  0  0  0  0  0  0  0  0
    4.4146   -5.4579   -1.9523 H   0  0  0  0  0  0  0  0  0  0  0  0
    5.6796   -7.2692   -0.8605 H   0  0  0  0  0  0  0  0  0  0  0  0
    4.5669   -9.4128   -0.2946 H   0  0  0  0  0  0  0  0  0  0  0  0
    2.1651   -9.7376   -0.8280 H   0  0  0  0  0  0  0  0  0  0  0  0
    0.8732   -7.9284   -1.8700 H   0  0  0  0  0  0  0  0  0  0  0  0
    3.3499   -3.5047   -0.9355 H   0  0  0  0  0  0  0  0  0  0  0  0
    1.4257    1.7874    1.7409 H   0  0  0  0  0  0  0  0  0  0  0  0
    2.7021    3.1489    3.3614 H   0  0  0  0  0  0  0  0  0  0  0  0
    6.3772    1.9959    1.4322 H   0  0  0  0  0  0  0  0  0  0  0  0
    5.1119    0.6345   -0.1978 H   0  0  0  0  0  0  0  0  0  0  0  0
  1  2  2  0  0  0  0
  2  3  1  0  0  0  0
  2 19  1  0  0  0  0
  3  4  1  0  0  0  0
  3 26  1  0  0  0  0
  4  5  1  0  0  0  0
  4 18  2  0  0  0  0
  5  6  2  0  0  0  0
  5 27  1  0  0  0  0
  6  7  1  0  0  0  0
  7  8  1  0  0  0  0
  7 17  2  0  0  0  0
  8  9  1  0  0  0  0
  8 28  1  0  0  0  0
  9 10  2  0  0  0  0
  9 29  1  0  0  0  0
 10 11  1  0  0  0  0
 10 17  1  0  0  0  0
 11 12  1  0  0  0  0
 11 16  2  0  0  0  0
 12 13  2  0  0  0  0
 12 30  1  0  0  0  0
 13 14  1  0  0  0  0
 13 31  1  0  0  0  0
 14 15  2  0  0  0  0
 14 32  1  0  0  0  0
 15 16  1  0  0  0  0
 15 33  1  0  0  0  0
 16 34  1  0  0  0  0
 17 18  1  0  0  0  0
 18 35  1  0  0  0  0
 19 20  1  0  0  0  0
 19 25  2  0  0  0  0
 20 21  2  0  0  0  0
 20 36  1  0  0  0  0
 21 22  1  0  0  0  0
 21 37  1  0  0  0  0
 22 23  1  0  0  0  0
 22 24  2  0  0  0  0
 24 25  1  0  0  0  0
 24 38  1  0  0  0  0
 25 39  1  0  0  0  0
M  END
$$$$
