CHEMBL494821
 OpenBabel04072215383D

 50 53  0  0  0  0  0  0  0  0999 V2000
    0.9781    0.0911   -0.1055 C   0  0  0  0  0  0  0  0  0  0  0  0
    2.4748    0.0376   -0.1267 C   0  0  0  0  0  0  0  0  0  0  0  0
    3.2542    1.2492   -0.1919 C   0  0  0  0  0  0  0  0  0  0  0  0
    4.5309    1.2159    0.2251 C   0  0  0  0  0  0  0  0  0  0  0  0
    5.2306    0.0103    0.2311 N   0  0  0  0  0  0  0  0  0  0  0  0
    6.6876    0.0213    0.1798 C   0  0  0  0  0  0  0  0  0  0  0  0
    7.3394    0.7581    1.3545 C   0  0  0  0  0  0  0  0  0  0  0  0
    8.8383    0.7848    1.3282 C   0  0  0  0  0  0  0  0  0  0  0  0
    9.4088    1.5291    2.5207 C   0  0  0  0  0  0  0  0  0  0  0  0
   10.7939    1.9567    2.0884 C   0  0  0  0  0  0  0  0  0  0  0  0
   10.8100    1.8760    0.5600 C   0  0  0  0  0  0  0  0  0  0  0  0
    9.3828    1.5655    0.1356 C   0  0  0  0  0  0  0  0  0  0  0  0
    4.5709   -1.1933    0.0332 C   0  0  0  0  0  0  0  0  0  0  0  0
    5.0435   -2.3146   -0.1318 O   0  0  0  0  0  0  0  0  0  0  0  0
    3.1218   -1.1143    0.0966 C   0  0  0  0  0  0  0  0  0  0  0  0
    2.4337   -2.3598    0.2786 C   0  0  0  0  0  0  0  0  0  0  0  0
    2.2565   -2.9898   -0.9285 C   0  0  0  0  0  0  0  0  0  0  0  0
    1.7387   -4.1784   -0.8738 C   0  0  0  0  0  0  0  0  0  0  0  0
    1.1329   -4.5228    0.2615 C   0  0  0  0  0  0  0  0  0  0  0  0
    0.2865   -5.4870    0.1628 N   0  0  0  0  0  0  0  0  0  0  0  0
   -0.5236   -6.4172    0.0173 C   0  0  0  0  0  0  0  0  0  0  0  0
   -0.3568   -6.3298   -1.3806 N   0  0  0  0  0  0  0  0  0  0  0  0
   -0.5431   -6.1915    1.3438 N   0  0  0  0  0  0  0  0  0  0  0  0
    0.3497   -5.0774    2.1940 C   0  0  0  0  0  0  0  0  0  0  0  0
    1.2130   -4.0906    1.5169 C   0  0  0  0  0  0  0  0  0  0  0  0
    2.1228   -2.9615    1.5337 C   0  0  0  0  0  0  0  0  0  0  0  0
    0.5940    1.1032   -0.2012 H   0  0  0  0  0  0  0  0  0  0  0  0
    0.6073   -0.3419    0.8335 H   0  0  0  0  0  0  0  0  0  0  0  0
    0.5611   -0.4934   -0.9335 H   0  0  0  0  0  0  0  0  0  0  0  0
    2.7598    2.1631   -0.4988 H   0  0  0  0  0  0  0  0  0  0  0  0
    5.0708    2.1199    0.4871 H   0  0  0  0  0  0  0  0  0  0  0  0
    7.0012    0.4757   -0.7651 H   0  0  0  0  0  0  0  0  0  0  0  0
    7.0183   -1.0262    0.1818 H   0  0  0  0  0  0  0  0  0  0  0  0
    7.0341    0.2778    2.2952 H   0  0  0  0  0  0  0  0  0  0  0  0
    6.9989    1.8023    1.3556 H   0  0  0  0  0  0  0  0  0  0  0  0
    9.1861   -0.2544    1.3021 H   0  0  0  0  0  0  0  0  0  0  0  0
    9.4220    0.8963    3.4134 H   0  0  0  0  0  0  0  0  0  0  0  0
    8.8073    2.4194    2.7472 H   0  0  0  0  0  0  0  0  0  0  0  0
   11.5388    1.2851    2.5240 H   0  0  0  0  0  0  0  0  0  0  0  0
   11.0070    2.9664    2.4530 H   0  0  0  0  0  0  0  0  0  0  0  0
   11.4690    1.0623    0.2404 H   0  0  0  0  0  0  0  0  0  0  0  0
   11.1790    2.7981    0.1022 H   0  0  0  0  0  0  0  0  0  0  0  0
    9.3352    0.9987   -0.8003 H   0  0  0  0  0  0  0  0  0  0  0  0
    8.8255    2.4997   -0.0241 H   0  0  0  0  0  0  0  0  0  0  0  0
    2.5160   -2.6736   -1.9184 H   0  0  0  0  0  0  0  0  0  0  0  0
    1.7640   -4.8743   -1.6801 H   0  0  0  0  0  0  0  0  0  0  0  0
    0.1192   -5.5084   -1.7368 H   0  0  0  0  0  0  0  0  0  0  0  0
   -0.5913   -6.9030   -2.1753 H   0  0  0  0  0  0  0  0  0  0  0  0
    0.2382   -5.0218    3.2848 H   0  0  0  0  0  0  0  0  0  0  0  0
    2.5989   -2.5777    2.4308 H   0  0  0  0  0  0  0  0  0  0  0  0
  1  2  1  0  0  0  0
  1 27  1  0  0  0  0
  1 28  1  0  0  0  0
  1 29  1  0  0  0  0
  2  3  1  0  0  0  0
  2 15  2  0  0  0  0
  3  4  2  0  0  0  0
  3 30  1  0  0  0  0
  4  5  1  0  0  0  0
  4 31  1  0  0  0  0
  5  6  1  0  0  0  0
  5 13  1  0  0  0  0
  6  7  1  0  0  0  0
  6 32  1  0  0  0  0
  6 33  1  0  0  0  0
  7  8  1  0  0  0  0
  7 34  1  0  0  0  0
  7 35  1  0  0  0  0
  8  9  1  0  0  0  0
  8 12  1  0  0  0  0
  8 36  1  0  0  0  0
  9 10  1  0  0  0  0
  9 37  1  0  0  0  0
  9 38  1  0  0  0  0
 10 11  1  0  0  0  0
 10 39  1  0  0  0  0
 10 40  1  0  0  0  0
 11 12  1  0  0  0  0
 11 41  1  0  0  0  0
 11 42  1  0  0  0  0
 12 43  1  0  0  0  0
 12 44  1  0  0  0  0
 13 14  2  0  0  0  0
 13 15  1  0  0  0  0
 15 16  1  0  0  0  0
 16 17  1  0  0  0  0
 16 26  2  0  0  0  0
 17 18  2  0  0  0  0
 17 45  1  0  0  0  0
 18 19  1  0  0  0  0
 18 46  1  0  0  0  0
 19 20  1  0  0  0  0
 19 25  2  0  0  0  0
 20 21  2  0  0  0  0
 21 22  1  0  0  0  0
 21 23  1  0  0  0  0
 22 47  1  0  0  0  0
 22 48  1  0  0  0  0
 23 24  2  0  0  0  0
 24 25  1  0  0  0  0
 24 49  1  0  0  0  0
 25 26  1  0  0  0  0
 26 50  1  0  0  0  0
M  END
$$$$
