CHEMBL195964
 OpenBabel04072215363D

 42 46  0  0  0  0  0  0  0  0999 V2000
    5.3387    1.5509   -1.4635 C   0  0  0  0  0  0  0  0  0  0  0  0
    4.3307    0.7282   -0.7167 C   0  0  0  0  0  0  0  0  0  0  0  0
    4.6612   -0.9453   -0.5808 S   0  0  0  0  0  0  0  0  0  0  0  0
    3.2912   -1.2202    0.3682 C   0  0  0  0  0  0  0  0  0  0  0  0
    3.0609   -2.4600    0.8293 N   0  0  0  0  0  0  0  0  0  0  0  0
    1.9570   -2.5351    1.5645 C   0  0  0  0  0  0  0  0  0  0  0  0
    1.1033   -1.5441    1.8391 N   0  0  0  0  0  0  0  0  0  0  0  0
    1.3513   -0.3151    1.3460 C   0  0  0  0  0  0  0  0  0  0  0  0
    0.3778    0.6239    1.6607 N   0  0  0  0  0  0  0  0  0  0  0  0
    2.5171   -0.0845    0.5738 C   0  0  0  0  0  0  0  0  0  0  0  0
    3.1386    1.0832   -0.0783 C   0  0  0  0  0  0  0  0  0  0  0  0
    2.6669    2.4832   -0.0494 C   0  0  0  0  0  0  0  0  0  0  0  0
    2.1104    3.0144    1.1149 C   0  0  0  0  0  0  0  0  0  0  0  0
    1.6056    4.3161    1.1458 C   0  0  0  0  0  0  0  0  0  0  0  0
    1.7374    5.1744    0.0508 C   0  0  0  0  0  0  0  0  0  0  0  0
    1.3359    6.5246    0.0940 N   0  0  0  0  0  0  0  0  0  0  0  0
    1.2238    7.2473    1.2247 C   0  0  0  0  0  0  0  0  0  0  0  0
    0.3933    8.2336    1.4872 N   0  0  0  0  0  0  0  0  0  0  0  0
    0.6639    8.5477    2.7992 C   0  0  0  0  0  0  0  0  0  0  0  0
    0.0846    9.4703    3.6731 C   0  0  0  0  0  0  0  0  0  0  0  0
    0.5701    9.5274    4.9896 C   0  0  0  0  0  0  0  0  0  0  0  0
    1.6142    8.6942    5.4220 C   0  0  0  0  0  0  0  0  0  0  0  0
    2.2114    7.7771    4.5543 C   0  0  0  0  0  0  0  0  0  0  0  0
    1.6967    7.7498    3.2658 C   0  0  0  0  0  0  0  0  0  0  0  0
    2.0758    6.9355    2.2529 O   0  0  0  0  0  0  0  0  0  0  0  0
    2.3300    4.6671   -1.1063 C   0  0  0  0  0  0  0  0  0  0  0  0
    2.7560    3.3311   -1.1647 C   0  0  0  0  0  0  0  0  0  0  0  0
    6.2678    1.0006   -1.6504 H   0  0  0  0  0  0  0  0  0  0  0  0
    5.6046    2.4504   -0.8996 H   0  0  0  0  0  0  0  0  0  0  0  0
    4.9494    1.8403   -2.4439 H   0  0  0  0  0  0  0  0  0  0  0  0
    1.7180   -3.5072    1.9828 H   0  0  0  0  0  0  0  0  0  0  0  0
   -0.4372    0.1597    2.0474 H   0  0  0  0  0  0  0  0  0  0  0  0
    0.1906    1.2985    0.9307 H   0  0  0  0  0  0  0  0  0  0  0  0
    2.0419    2.4282    2.0282 H   0  0  0  0  0  0  0  0  0  0  0  0
    1.1060    4.6469    2.0540 H   0  0  0  0  0  0  0  0  0  0  0  0
    0.7072    6.7802   -0.6556 H   0  0  0  0  0  0  0  0  0  0  0  0
   -0.7265   10.1101    3.3418 H   0  0  0  0  0  0  0  0  0  0  0  0
    0.1235   10.2301    5.6913 H   0  0  0  0  0  0  0  0  0  0  0  0
    1.9611    8.7592    6.4497 H   0  0  0  0  0  0  0  0  0  0  0  0
    3.0167    7.1166    4.8634 H   0  0  0  0  0  0  0  0  0  0  0  0
    2.4923    5.3131   -1.9657 H   0  0  0  0  0  0  0  0  0  0  0  0
    3.1713    2.9838   -2.1045 H   0  0  0  0  0  0  0  0  0  0  0  0
  1  2  1  0  0  0  0
  1 28  1  0  0  0  0
  1 29  1  0  0  0  0
  1 30  1  0  0  0  0
  2  3  1  0  0  0  0
  2 11  2  0  0  0  0
  3  4  1  0  0  0  0
  4  5  1  0  0  0  0
  4 10  2  0  0  0  0
  5  6  2  0  0  0  0
  6  7  1  0  0  0  0
  6 31  1  0  0  0  0
  7  8  2  0  0  0  0
  8  9  1  0  0  0  0
  8 10  1  0  0  0  0
  9 32  1  0  0  0  0
  9 33  1  0  0  0  0
 10 11  1  0  0  0  0
 11 12  1  0  0  0  0
 12 13  1  0  0  0  0
 12 27  2  0  0  0  0
 13 14  2  0  0  0  0
 13 34  1  0  0  0  0
 14 15  1  0  0  0  0
 14 35  1  0  0  0  0
 15 16  1  0  0  0  0
 15 26  2  0  0  0  0
 16 17  1  0  0  0  0
 16 36  1  0  0  0  0
 17 18  2  0  0  0  0
 17 25  1  0  0  0  0
 18 19  1  0  0  0  0
 19 20  1  0  0  0  0
 19 24  2  0  0  0  0
 20 21  2  0  0  0  0
 20 37  1  0  0  0  0
 21 22  1  0  0  0  0
 21 38  1  0  0  0  0
 22 23  2  0  0  0  0
 22 39  1  0  0  0  0
 23 24  1  0  0  0  0
 23 40  1  0  0  0  0
 24 25  1  0  0  0  0
 26 27  1  0  0  0  0
 26 41  1  0  0  0  0
 27 42  1  0  0  0  0
M  END
$$$$
