CHEMBL3891392
 OpenBabel04072215373D

 44 48  0  0  0  0  0  0  0  0999 V2000
    7.0455    3.0280   -1.9294 C   0  0  0  0  0  0  0  0  0  0  0  0
    6.3887    1.9359   -1.3020 O   0  0  0  0  0  0  0  0  0  0  0  0
    5.1802    2.1854   -0.7049 C   0  0  0  0  0  0  0  0  0  0  0  0
    4.5685    3.4426   -0.6322 C   0  0  0  0  0  0  0  0  0  0  0  0
    3.3121    3.6234   -0.0190 C   0  0  0  0  0  0  0  0  0  0  0  0
    2.6647    4.9572    0.0286 C   0  0  0  0  0  0  0  0  0  0  0  0
    1.8738    5.3301    1.1295 C   0  0  0  0  0  0  0  0  0  0  0  0
    1.2159    6.5642    1.1935 C   0  0  0  0  0  0  0  0  0  0  0  0
    1.3527    7.4693    0.1278 C   0  0  0  0  0  0  0  0  0  0  0  0
    0.8335    8.7453   -0.2138 C   0  0  0  0  0  0  0  0  0  0  0  0
   -0.0484    9.5903    0.6246 C   0  0  0  0  0  0  0  0  0  0  0  0
   -0.1572    9.5886    1.9972 C   0  0  0  0  0  0  0  0  0  0  0  0
   -1.1358   10.5491    2.3530 C   0  0  0  0  0  0  0  0  0  0  0  0
   -1.6543   10.9937    3.5842 C   0  0  0  0  0  0  0  0  0  0  0  0
   -2.6623   11.9591    3.5865 C   0  0  0  0  0  0  0  0  0  0  0  0
   -3.1588   12.4718    2.3914 C   0  0  0  0  0  0  0  0  0  0  0  0
   -2.6492   12.0550    1.1541 C   0  0  0  0  0  0  0  0  0  0  0  0
   -1.6240   11.1034    1.1692 C   0  0  0  0  0  0  0  0  0  0  0  0
   -0.9036   10.5418    0.1367 N   0  0  0  0  0  0  0  0  0  0  0  0
    1.1966    9.1275   -1.4450 N   0  0  0  0  0  0  0  0  0  0  0  0
    2.0452    8.1565   -1.8317 N   0  0  0  0  0  0  0  0  0  0  0  0
    2.1325    7.1036   -0.9592 C   0  0  0  0  0  0  0  0  0  0  0  0
    2.8049    5.8759   -1.0362 C   0  0  0  0  0  0  0  0  0  0  0  0
    2.6948    2.4891    0.5412 C   0  0  0  0  0  0  0  0  0  0  0  0
    3.3002    1.2321    0.4973 C   0  0  0  0  0  0  0  0  0  0  0  0
    4.5347    1.0869   -0.1302 C   0  0  0  0  0  0  0  0  0  0  0  0
    5.1243   -0.1467   -0.1886 O   0  0  0  0  0  0  0  0  0  0  0  0
    7.9794    2.6540   -2.3602 H   0  0  0  0  0  0  0  0  0  0  0  0
    7.3033    3.8042   -1.2014 H   0  0  0  0  0  0  0  0  0  0  0  0
    6.4424    3.4361   -2.7469 H   0  0  0  0  0  0  0  0  0  0  0  0
    5.0684    4.3111   -1.0466 H   0  0  0  0  0  0  0  0  0  0  0  0
    1.7446    4.6543    1.9727 H   0  0  0  0  0  0  0  0  0  0  0  0
    0.5790    6.7879    2.0427 H   0  0  0  0  0  0  0  0  0  0  0  0
    0.4211    8.9901    2.6864 H   0  0  0  0  0  0  0  0  0  0  0  0
   -1.2741   10.5900    4.5182 H   0  0  0  0  0  0  0  0  0  0  0  0
   -3.0652   12.3094    4.5351 H   0  0  0  0  0  0  0  0  0  0  0  0
   -3.9536   13.2137    2.4154 H   0  0  0  0  0  0  0  0  0  0  0  0
   -3.0364   12.4604    0.2258 H   0  0  0  0  0  0  0  0  0  0  0  0
   -1.0200   10.7432   -0.8466 H   0  0  0  0  0  0  0  0  0  0  0  0
    2.5166    8.2574   -2.7237 H   0  0  0  0  0  0  0  0  0  0  0  0
    3.3863    5.6308   -1.9196 H   0  0  0  0  0  0  0  0  0  0  0  0
    1.7182    2.5674    1.0149 H   0  0  0  0  0  0  0  0  0  0  0  0
    2.7936    0.3852    0.9496 H   0  0  0  0  0  0  0  0  0  0  0  0
    4.5431   -0.7971    0.2358 H   0  0  0  0  0  0  0  0  0  0  0  0
  1  2  1  0  0  0  0
  1 28  1  0  0  0  0
  1 29  1  0  0  0  0
  1 30  1  0  0  0  0
  2  3  1  0  0  0  0
  3  4  1  0  0  0  0
  3 26  2  0  0  0  0
  4  5  2  0  0  0  0
  4 31  1  0  0  0  0
  5  6  1  0  0  0  0
  5 24  1  0  0  0  0
  6  7  1  0  0  0  0
  6 23  2  0  0  0  0
  7  8  2  0  0  0  0
  7 32  1  0  0  0  0
  8  9  1  0  0  0  0
  8 33  1  0  0  0  0
  9 10  1  0  0  0  0
  9 22  2  0  0  0  0
 10 11  1  0  0  0  0
 10 20  2  0  0  0  0
 11 12  2  0  0  0  0
 11 19  1  0  0  0  0
 12 13  1  0  0  0  0
 12 34  1  0  0  0  0
 13 14  1  0  0  0  0
 13 18  2  0  0  0  0
 14 15  2  0  0  0  0
 14 35  1  0  0  0  0
 15 16  1  0  0  0  0
 15 36  1  0  0  0  0
 16 17  2  0  0  0  0
 16 37  1  0  0  0  0
 17 18  1  0  0  0  0
 17 38  1  0  0  0  0
 18 19  1  0  0  0  0
 19 39  1  0  0  0  0
 20 21  1  0  0  0  0
 21 22  1  0  0  0  0
 21 40  1  0  0  0  0
 22 23  1  0  0  0  0
 23 41  1  0  0  0  0
 24 25  2  0  0  0  0
 24 42  1  0  0  0  0
 25 26  1  0  0  0  0
 25 43  1  0  0  0  0
 26 27  1  0  0  0  0
 27 44  1  0  0  0  0
M  END
$$$$
