CHEMBL3694692
 OpenBabel04072215373D

 47 50  0  0  0  0  0  0  0  0999 V2000
    3.3639    1.0827    2.5068 N   0  0  0  0  0  0  0  0  0  0  0  0
    3.5541    0.5339    1.2378 C   0  0  0  0  0  0  0  0  0  0  0  0
    4.3143   -0.5704    1.1694 N   0  0  0  0  0  0  0  0  0  0  0  0
    4.4487   -1.1557   -0.0416 C   0  0  0  0  0  0  0  0  0  0  0  0
    5.1977   -2.4356   -0.1235 C   0  0  0  0  0  0  0  0  0  0  0  0
    5.6324   -3.0509   -1.4036 C   0  0  0  0  0  0  0  0  0  0  0  0
    6.5281   -4.0649   -1.3925 C   0  0  0  0  0  0  0  0  0  0  0  0
    6.8510   -4.6447   -0.1553 N   0  0  0  0  0  0  0  0  0  0  0  0
    7.4993   -5.8453    0.2042 C   0  0  0  0  0  0  0  0  0  0  0  0
    8.6767   -5.8902    1.1506 C   0  0  0  0  0  0  0  0  0  0  0  0
    9.4590   -4.7564    1.3955 C   0  0  0  0  0  0  0  0  0  0  0  0
   10.3266   -4.7304    2.4910 C   0  0  0  0  0  0  0  0  0  0  0  0
   11.2113   -3.2941    2.8450 Cl  0  0  0  0  0  0  0  0  0  0  0  0
   10.4525   -5.8279    3.3437 C   0  0  0  0  0  0  0  0  0  0  0  0
    9.7211   -6.9902    3.1081 C   0  0  0  0  0  0  0  0  0  0  0  0
    9.7850   -8.1336    3.9527 N   0  0  0  0  0  0  0  0  0  0  0  0
   10.5473   -8.2686    5.0943 C   0  0  0  0  0  0  0  0  0  0  0  0
   11.2623   -7.4127    5.6068 O   0  0  0  0  0  0  0  0  0  0  0  0
   10.4870   -9.5330    5.6353 N   0  0  0  0  0  0  0  0  0  0  0  0
   11.2914   -9.8227    6.8360 C   0  0  0  0  0  0  0  0  0  0  0  0
   10.6905   -9.3867    8.1813 C   0  0  0  0  0  0  0  0  0  0  0  0
    9.4077   -8.9769    8.0547 F   0  0  0  0  0  0  0  0  0  0  0  0
   10.6809  -10.4368    9.0421 F   0  0  0  0  0  0  0  0  0  0  0  0
   11.3953   -8.3978    8.7677 F   0  0  0  0  0  0  0  0  0  0  0  0
    8.8570   -7.0175    1.9964 C   0  0  0  0  0  0  0  0  0  0  0  0
    6.3080   -6.4923    0.5695 C   0  0  0  0  0  0  0  0  0  0  0  0
    5.5415   -5.5938    1.2962 N   0  0  0  0  0  0  0  0  0  0  0  0
    5.9988   -4.4110    0.9185 C   0  0  0  0  0  0  0  0  0  0  0  0
    5.4515   -3.1098    1.0249 C   0  0  0  0  0  0  0  0  0  0  0  0
    3.8932   -0.6965   -1.1827 N   0  0  0  0  0  0  0  0  0  0  0  0
    3.1259    0.4050   -1.0648 C   0  0  0  0  0  0  0  0  0  0  0  0
    2.9124    1.0495    0.1245 C   0  0  0  0  0  0  0  0  0  0  0  0
    2.1462    2.1439    0.1975 F   0  0  0  0  0  0  0  0  0  0  0  0
    3.9807    0.6209    3.1703 H   0  0  0  0  0  0  0  0  0  0  0  0
    3.4431    2.0940    2.5172 H   0  0  0  0  0  0  0  0  0  0  0  0
    5.1895   -2.6823   -2.3251 H   0  0  0  0  0  0  0  0  0  0  0  0
    6.8768   -4.5626   -2.2886 H   0  0  0  0  0  0  0  0  0  0  0  0
    9.3548   -3.8596    0.7921 H   0  0  0  0  0  0  0  0  0  0  0  0
   11.1110   -5.7339    4.2010 H   0  0  0  0  0  0  0  0  0  0  0  0
    9.2418   -8.9381    3.6737 H   0  0  0  0  0  0  0  0  0  0  0  0
    9.6169  -10.0372    5.5361 H   0  0  0  0  0  0  0  0  0  0  0  0
   12.2762   -9.3515    6.7199 H   0  0  0  0  0  0  0  0  0  0  0  0
   11.4567  -10.9050    6.8422 H   0  0  0  0  0  0  0  0  0  0  0  0
    8.2504   -7.9044    1.8263 H   0  0  0  0  0  0  0  0  0  0  0  0
    6.1231   -7.5543    0.6392 H   0  0  0  0  0  0  0  0  0  0  0  0
    5.1965   -2.7382    2.0115 H   0  0  0  0  0  0  0  0  0  0  0  0
    2.6605    0.7656   -1.9771 H   0  0  0  0  0  0  0  0  0  0  0  0
  1  2  1  0  0  0  0
  1 34  1  0  0  0  0
  1 35  1  0  0  0  0
  2  3  1  0  0  0  0
  2 32  2  0  0  0  0
  3  4  2  0  0  0  0
  4  5  1  0  0  0  0
  4 30  1  0  0  0  0
  5  6  1  0  0  0  0
  5 29  2  0  0  0  0
  6  7  2  0  0  0  0
  6 36  1  0  0  0  0
  7  8  1  0  0  0  0
  7 37  1  0  0  0  0
  8  9  1  0  0  0  0
  8 28  1  0  0  0  0
  9 10  1  0  0  0  0
  9 26  2  0  0  0  0
 10 11  1  0  0  0  0
 10 25  2  0  0  0  0
 11 12  2  0  0  0  0
 11 38  1  0  0  0  0
 12 13  1  0  0  0  0
 12 14  1  0  0  0  0
 14 15  2  0  0  0  0
 14 39  1  0  0  0  0
 15 16  1  0  0  0  0
 15 25  1  0  0  0  0
 16 17  1  0  0  0  0
 16 40  1  0  0  0  0
 17 18  2  0  0  0  0
 17 19  1  0  0  0  0
 19 20  1  0  0  0  0
 19 41  1  0  0  0  0
 20 21  1  0  0  0  0
 20 42  1  0  0  0  0
 20 43  1  0  0  0  0
 21 22  1  0  0  0  0
 21 23  1  0  0  0  0
 21 24  1  0  0  0  0
 25 44  1  0  0  0  0
 26 27  1  0  0  0  0
 26 45  1  0  0  0  0
 27 28  2  0  0  0  0
 28 29  1  0  0  0  0
 29 46  1  0  0  0  0
 30 31  2  0  0  0  0
 31 32  1  0  0  0  0
 31 47  1  0  0  0  0
 32 33  1  0  0  0  0
M  END
$$$$
