CHEMBL495983
 OpenBabel04072215383D

 39 42  0  0  0  0  0  0  0  0999 V2000
    1.1073   -0.0773    0.5520 C   0  0  0  0  0  0  0  0  0  0  0  0
    2.5218   -0.0776    0.1622 N   0  0  0  0  0  0  0  0  0  0  0  0
    3.0344    1.2030   -0.3300 C   0  0  0  0  0  0  0  0  0  0  0  0
    3.1642   -1.2827   -0.1914 C   0  0  0  0  0  0  0  0  0  0  0  0
    2.8496   -2.0912   -1.2352 C   0  0  0  0  0  0  0  0  0  0  0  0
    1.8129   -1.7744   -2.1537 C   0  0  0  0  0  0  0  0  0  0  0  0
    0.5206   -2.0475   -2.1445 N   0  0  0  0  0  0  0  0  0  0  0  0
    0.0515   -1.6541   -3.3780 C   0  0  0  0  0  0  0  0  0  0  0  0
   -1.2326   -1.7725   -3.9271 C   0  0  0  0  0  0  0  0  0  0  0  0
   -1.4489   -1.3186   -5.2354 C   0  0  0  0  0  0  0  0  0  0  0  0
   -0.4101   -0.7484   -5.9761 C   0  0  0  0  0  0  0  0  0  0  0  0
    0.8768   -0.6109   -5.4414 C   0  0  0  0  0  0  0  0  0  0  0  0
    1.0647   -1.0833   -4.1377 C   0  0  0  0  0  0  0  0  0  0  0  0
    2.1676   -1.1473   -3.3280 N   0  0  0  0  0  0  0  0  0  0  0  0
    3.6292   -3.3397   -1.5255 C   0  0  0  0  0  0  0  0  0  0  0  0
    3.3650   -4.0907   -2.4623 O   0  0  0  0  0  0  0  0  0  0  0  0
    4.7114   -3.6004   -0.7388 N   0  0  0  0  0  0  0  0  0  0  0  0
    5.0828   -2.8093    0.3446 C   0  0  0  0  0  0  0  0  0  0  0  0
    6.2034   -3.1852    1.0919 C   0  0  0  0  0  0  0  0  0  0  0  0
    6.5732   -2.4369    2.2055 C   0  0  0  0  0  0  0  0  0  0  0  0
    5.8135   -1.3308    2.5755 C   0  0  0  0  0  0  0  0  0  0  0  0
    4.6973   -0.9578    1.8176 C   0  0  0  0  0  0  0  0  0  0  0  0
    4.3237   -1.6764    0.6705 C   0  0  0  0  0  0  0  0  0  0  0  0
    0.8251    0.8822    0.9997 H   0  0  0  0  0  0  0  0  0  0  0  0
    0.9233   -0.8480    1.3081 H   0  0  0  0  0  0  0  0  0  0  0  0
    0.4477   -0.2477   -0.3011 H   0  0  0  0  0  0  0  0  0  0  0  0
    2.2861    2.0000   -0.2587 H   0  0  0  0  0  0  0  0  0  0  0  0
    3.3419    1.1296   -1.3782 H   0  0  0  0  0  0  0  0  0  0  0  0
    3.8998    1.5147    0.2640 H   0  0  0  0  0  0  0  0  0  0  0  0
   -2.0304   -2.2271   -3.3502 H   0  0  0  0  0  0  0  0  0  0  0  0
   -2.4356   -1.4222   -5.6804 H   0  0  0  0  0  0  0  0  0  0  0  0
   -0.6023   -0.4134   -6.9937 H   0  0  0  0  0  0  0  0  0  0  0  0
    1.6841   -0.1797   -6.0199 H   0  0  0  0  0  0  0  0  0  0  0  0
    3.0981   -0.8454   -3.5714 H   0  0  0  0  0  0  0  0  0  0  0  0
    5.2211   -4.4442   -0.9622 H   0  0  0  0  0  0  0  0  0  0  0  0
    6.7894   -4.0581    0.8178 H   0  0  0  0  0  0  0  0  0  0  0  0
    7.4435   -2.7232    2.7903 H   0  0  0  0  0  0  0  0  0  0  0  0
    6.0854   -0.7550    3.4567 H   0  0  0  0  0  0  0  0  0  0  0  0
    4.1157   -0.0978    2.1401 H   0  0  0  0  0  0  0  0  0  0  0  0
  1  2  1  0  0  0  0
  1 24  1  0  0  0  0
  1 25  1  0  0  0  0
  1 26  1  0  0  0  0
  2  3  1  0  0  0  0
  2  4  1  0  0  0  0
  3 27  1  0  0  0  0
  3 28  1  0  0  0  0
  3 29  1  0  0  0  0
  4  5  2  0  0  0  0
  4 23  1  0  0  0  0
  5  6  1  0  0  0  0
  5 15  1  0  0  0  0
  6  7  2  0  0  0  0
  6 14  1  0  0  0  0
  7  8  1  0  0  0  0
  8  9  1  0  0  0  0
  8 13  2  0  0  0  0
  9 10  2  0  0  0  0
  9 30  1  0  0  0  0
 10 11  1  0  0  0  0
 10 31  1  0  0  0  0
 11 12  2  0  0  0  0
 11 32  1  0  0  0  0
 12 13  1  0  0  0  0
 12 33  1  0  0  0  0
 13 14  1  0  0  0  0
 14 34  1  0  0  0  0
 15 16  2  0  0  0  0
 15 17  1  0  0  0  0
 17 18  1  0  0  0  0
 17 35  1  0  0  0  0
 18 19  1  0  0  0  0
 18 23  2  0  0  0  0
 19 20  2  0  0  0  0
 19 36  1  0  0  0  0
 20 21  1  0  0  0  0
 20 37  1  0  0  0  0
 21 22  2  0  0  0  0
 21 38  1  0  0  0  0
 22 23  1  0  0  0  0
 22 39  1  0  0  0  0
M  END
$$$$
