CHEMBL3893131
 OpenBabel04072215373D

 55 58  0  0  0  0  0  0  0  0999 V2000
    2.2652   -0.2046    2.3439 C   0  0  0  0  0  0  0  0  0  0  0  0
    3.1265   -0.3712    1.2139 O   0  0  0  0  0  0  0  0  0  0  0  0
    4.4271   -0.5874    1.5399 C   0  0  0  0  0  0  0  0  0  0  0  0
    4.8791   -0.6380    2.6724 O   0  0  0  0  0  0  0  0  0  0  0  0
    5.2509   -0.7488    0.3079 C   0  0  0  0  0  0  0  0  0  0  0  0
    4.7092   -0.5858   -0.9717 C   0  0  0  0  0  0  0  0  0  0  0  0
    5.5153   -0.7060   -2.1064 C   0  0  0  0  0  0  0  0  0  0  0  0
    6.8860   -0.9893   -1.9581 C   0  0  0  0  0  0  0  0  0  0  0  0
    7.9448   -1.1425   -2.8754 C   0  0  0  0  0  0  0  0  0  0  0  0
    9.1200   -1.4185   -2.1881 C   0  0  0  0  0  0  0  0  0  0  0  0
   10.4149   -1.7610   -2.8136 C   0  0  0  0  0  0  0  0  0  0  0  0
   10.7697   -1.1405   -4.0192 C   0  0  0  0  0  0  0  0  0  0  0  0
   11.9127   -1.5228   -4.7306 C   0  0  0  0  0  0  0  0  0  0  0  0
   12.7533   -2.5222   -4.2434 C   0  0  0  0  0  0  0  0  0  0  0  0
   13.8830   -2.9734   -4.9585 N   0  0  0  0  0  0  0  0  0  0  0  0
   14.5354   -2.2571   -5.9587 C   0  0  0  0  0  0  0  0  0  0  0  0
   14.3417   -1.0751   -6.2158 O   0  0  0  0  0  0  0  0  0  0  0  0
   15.4100   -3.0708   -6.6699 N   0  0  0  0  0  0  0  0  0  0  0  0
   16.2299   -2.5453   -7.6959 C   0  0  0  0  0  0  0  0  0  0  0  0
   16.3022   -3.2176   -8.9167 C   0  0  0  0  0  0  0  0  0  0  0  0
   17.0830   -2.7005   -9.9531 C   0  0  0  0  0  0  0  0  0  0  0  0
   17.8474   -1.5503   -9.7513 C   0  0  0  0  0  0  0  0  0  0  0  0
   17.8258   -0.8969   -8.5149 C   0  0  0  0  0  0  0  0  0  0  0  0
   18.6956    0.2989   -8.2598 C   0  0  0  0  0  0  0  0  0  0  0  0
   16.9867   -1.3838   -7.5009 C   0  0  0  0  0  0  0  0  0  0  0  0
   12.4183   -3.1432   -3.0377 C   0  0  0  0  0  0  0  0  0  0  0  0
   11.2603   -2.7687   -2.3308 C   0  0  0  0  0  0  0  0  0  0  0  0
    8.7922   -1.4308   -0.8224 N   0  0  0  0  0  0  0  0  0  0  0  0
    9.6485   -1.6303    0.2794 C   0  0  0  0  0  0  0  0  0  0  0  0
   10.7902   -0.8879    0.2113 N   0  0  0  0  0  0  0  0  0  0  0  0
    9.3165   -2.3296    1.2229 O   0  0  0  0  0  0  0  0  0  0  0  0
    7.4186   -1.1824   -0.6872 C   0  0  0  0  0  0  0  0  0  0  0  0
    6.6140   -1.0551    0.4650 C   0  0  0  0  0  0  0  0  0  0  0  0
    1.2376   -0.1219    1.9709 H   0  0  0  0  0  0  0  0  0  0  0  0
    2.5187    0.7123    2.8829 H   0  0  0  0  0  0  0  0  0  0  0  0
    2.3216   -1.0754    3.0049 H   0  0  0  0  0  0  0  0  0  0  0  0
    3.6550   -0.3523   -1.1058 H   0  0  0  0  0  0  0  0  0  0  0  0
    5.0853   -0.5680   -3.0946 H   0  0  0  0  0  0  0  0  0  0  0  0
    7.8498   -1.0918   -3.9533 H   0  0  0  0  0  0  0  0  0  0  0  0
   10.1418   -0.3626   -4.4482 H   0  0  0  0  0  0  0  0  0  0  0  0
   12.1006   -1.0370   -5.6837 H   0  0  0  0  0  0  0  0  0  0  0  0
   14.4065   -3.7469   -4.5737 H   0  0  0  0  0  0  0  0  0  0  0  0
   15.0661   -4.0096   -6.8122 H   0  0  0  0  0  0  0  0  0  0  0  0
   15.7127   -4.1109   -9.0984 H   0  0  0  0  0  0  0  0  0  0  0  0
   17.0953   -3.1925  -10.9222 H   0  0  0  0  0  0  0  0  0  0  0  0
   18.4630   -1.1706  -10.5638 H   0  0  0  0  0  0  0  0  0  0  0  0
   19.3434    0.5138   -9.1168 H   0  0  0  0  0  0  0  0  0  0  0  0
   19.3447    0.1088   -7.3981 H   0  0  0  0  0  0  0  0  0  0  0  0
   18.0852    1.1850   -8.0634 H   0  0  0  0  0  0  0  0  0  0  0  0
   16.9466   -0.8631   -6.5464 H   0  0  0  0  0  0  0  0  0  0  0  0
   13.0428   -3.9332   -2.6263 H   0  0  0  0  0  0  0  0  0  0  0  0
   11.0225   -3.3053   -1.4150 H   0  0  0  0  0  0  0  0  0  0  0  0
   10.8845   -0.1175   -0.4387 H   0  0  0  0  0  0  0  0  0  0  0  0
   11.3565   -0.8626    1.0499 H   0  0  0  0  0  0  0  0  0  0  0  0
    7.0377   -1.1800    1.4598 H   0  0  0  0  0  0  0  0  0  0  0  0
  1  2  1  0  0  0  0
  1 34  1  0  0  0  0
  1 35  1  0  0  0  0
  1 36  1  0  0  0  0
  2  3  1  0  0  0  0
  3  4  2  0  0  0  0
  3  5  1  0  0  0  0
  5  6  1  0  0  0  0
  5 33  2  0  0  0  0
  6  7  2  0  0  0  0
  6 37  1  0  0  0  0
  7  8  1  0  0  0  0
  7 38  1  0  0  0  0
  8  9  1  0  0  0  0
  8 32  2  0  0  0  0
  9 10  2  0  0  0  0
  9 39  1  0  0  0  0
 10 11  1  0  0  0  0
 10 28  1  0  0  0  0
 11 12  1  0  0  0  0
 11 27  2  0  0  0  0
 12 13  2  0  0  0  0
 12 40  1  0  0  0  0
 13 14  1  0  0  0  0
 13 41  1  0  0  0  0
 14 15  1  0  0  0  0
 14 26  2  0  0  0  0
 15 16  1  0  0  0  0
 15 42  1  0  0  0  0
 16 17  2  0  0  0  0
 16 18  1  0  0  0  0
 18 19  1  0  0  0  0
 18 43  1  0  0  0  0
 19 20  1  0  0  0  0
 19 25  2  0  0  0  0
 20 21  2  0  0  0  0
 20 44  1  0  0  0  0
 21 22  1  0  0  0  0
 21 45  1  0  0  0  0
 22 23  2  0  0  0  0
 22 46  1  0  0  0  0
 23 24  1  0  0  0  0
 23 25  1  0  0  0  0
 24 47  1  0  0  0  0
 24 48  1  0  0  0  0
 24 49  1  0  0  0  0
 25 50  1  0  0  0  0
 26 27  1  0  0  0  0
 26 51  1  0  0  0  0
 27 52  1  0  0  0  0
 28 29  1  0  0  0  0
 28 32  1  0  0  0  0
 29 30  1  0  0  0  0
 29 31  2  0  0  0  0
 30 53  1  0  0  0  0
 30 54  1  0  0  0  0
 32 33  1  0  0  0  0
 33 55  1  0  0  0  0
M  END
$$$$
