CHEMBL2018749
 OpenBabel04072215363D

 53 55  0  0  0  0  0  0  0  0999 V2000
    1.9256    0.2130   -1.9060 C   0  0  0  0  0  0  0  0  0  0  0  0
    2.7110    1.4935   -1.6855 C   0  0  0  0  0  0  0  0  0  0  0  0
    3.5797    1.4664   -0.4196 C   0  0  0  0  0  0  0  0  0  0  0  0
    4.3075    2.8040   -0.2904 C   0  0  0  0  0  0  0  0  0  0  0  0
    5.1169    2.9412    0.8865 O   0  0  0  0  0  0  0  0  0  0  0  0
    6.4477    2.8531    0.6116 C   0  0  0  0  0  0  0  0  0  0  0  0
    6.9023    2.0738   -0.2127 O   0  0  0  0  0  0  0  0  0  0  0  0
    7.1301    3.8038    1.3347 N   0  0  0  0  0  0  0  0  0  0  0  0
    8.4806    4.1719    1.1609 C   0  0  0  0  0  0  0  0  0  0  0  0
    9.2412    3.7398    0.0780 C   0  0  0  0  0  0  0  0  0  0  0  0
   10.6079    4.0362   -0.0136 C   0  0  0  0  0  0  0  0  0  0  0  0
   11.2575    4.8141    0.9405 C   0  0  0  0  0  0  0  0  0  0  0  0
   12.6548    5.0227    0.9815 N   0  0  0  0  0  0  0  0  0  0  0  0
   13.6959    4.5694    0.1273 C   0  0  0  0  0  0  0  0  0  0  0  0
   13.3907    3.8583   -0.9709 N   0  0  0  0  0  0  0  0  0  0  0  0
   14.3865    3.3665   -1.6965 C   0  0  0  0  0  0  0  0  0  0  0  0
   15.6922    3.5200   -1.4445 N   0  0  0  0  0  0  0  0  0  0  0  0
   16.0037    4.2044   -0.3448 C   0  0  0  0  0  0  0  0  0  0  0  0
   17.3495    4.2989   -0.0463 C   0  0  0  0  0  0  0  0  0  0  0  0
   17.8179    4.9217    1.1205 C   0  0  0  0  0  0  0  0  0  0  0  0
   19.1553    4.9566    1.4329 O   0  0  0  0  0  0  0  0  0  0  0  0
   20.0485    4.2210    0.6035 C   0  0  0  0  0  0  0  0  0  0  0  0
   16.8994    5.5202    1.9842 C   0  0  0  0  0  0  0  0  0  0  0  0
   17.1236    6.1881    3.1556 O   0  0  0  0  0  0  0  0  0  0  0  0
   18.4506    6.2490    3.6540 C   0  0  0  0  0  0  0  0  0  0  0  0
   15.5227    5.4475    1.6659 C   0  0  0  0  0  0  0  0  0  0  0  0
   15.0497    4.7662    0.5129 C   0  0  0  0  0  0  0  0  0  0  0  0
   10.4675    5.2964    2.0051 C   0  0  0  0  0  0  0  0  0  0  0  0
    9.0937    4.9976    2.1056 C   0  0  0  0  0  0  0  0  0  0  0  0
    1.3282    0.2959   -2.8220 H   0  0  0  0  0  0  0  0  0  0  0  0
    1.2406    0.0217   -1.0752 H   0  0  0  0  0  0  0  0  0  0  0  0
    2.5929   -0.6463   -2.0171 H   0  0  0  0  0  0  0  0  0  0  0  0
    2.0061    2.3321   -1.6277 H   0  0  0  0  0  0  0  0  0  0  0  0
    3.3453    1.6729   -2.5624 H   0  0  0  0  0  0  0  0  0  0  0  0
    4.2996    0.6407   -0.4675 H   0  0  0  0  0  0  0  0  0  0  0  0
    2.9608    1.2867    0.4673 H   0  0  0  0  0  0  0  0  0  0  0  0
    3.5691    3.6101   -0.2319 H   0  0  0  0  0  0  0  0  0  0  0  0
    4.8979    2.9973   -1.1957 H   0  0  0  0  0  0  0  0  0  0  0  0
    6.5860    4.2736    2.0440 H   0  0  0  0  0  0  0  0  0  0  0  0
    8.8089    3.1558   -0.7280 H   0  0  0  0  0  0  0  0  0  0  0  0
   11.1329    3.6311   -0.8701 H   0  0  0  0  0  0  0  0  0  0  0  0
   12.8830    5.9096    1.4135 H   0  0  0  0  0  0  0  0  0  0  0  0
   14.1264    2.7714   -2.5666 H   0  0  0  0  0  0  0  0  0  0  0  0
   18.0250    3.8445   -0.7540 H   0  0  0  0  0  0  0  0  0  0  0  0
   21.0514    4.2970    1.0318 H   0  0  0  0  0  0  0  0  0  0  0  0
   20.0854    4.6486   -0.4047 H   0  0  0  0  0  0  0  0  0  0  0  0
   19.7825    3.1572    0.5724 H   0  0  0  0  0  0  0  0  0  0  0  0
   18.4207    6.7658    4.6196 H   0  0  0  0  0  0  0  0  0  0  0  0
   19.0960    6.8385    2.9945 H   0  0  0  0  0  0  0  0  0  0  0  0
   18.8562    5.2487    3.8411 H   0  0  0  0  0  0  0  0  0  0  0  0
   14.8225    5.9099    2.3519 H   0  0  0  0  0  0  0  0  0  0  0  0
   10.9281    5.8830    2.7964 H   0  0  0  0  0  0  0  0  0  0  0  0
    8.5388    5.3827    2.9562 H   0  0  0  0  0  0  0  0  0  0  0  0
  1  2  1  0  0  0  0
  1 30  1  0  0  0  0
  1 31  1  0  0  0  0
  1 32  1  0  0  0  0
  2  3  1  0  0  0  0
  2 33  1  0  0  0  0
  2 34  1  0  0  0  0
  3  4  1  0  0  0  0
  3 35  1  0  0  0  0
  3 36  1  0  0  0  0
  4  5  1  0  0  0  0
  4 37  1  0  0  0  0
  4 38  1  0  0  0  0
  5  6  1  0  0  0  0
  6  7  2  0  0  0  0
  6  8  1  0  0  0  0
  8  9  1  0  0  0  0
  8 39  1  0  0  0  0
  9 10  1  0  0  0  0
  9 29  2  0  0  0  0
 10 11  2  0  0  0  0
 10 40  1  0  0  0  0
 11 12  1  0  0  0  0
 11 41  1  0  0  0  0
 12 13  1  0  0  0  0
 12 28  2  0  0  0  0
 13 14  1  0  0  0  0
 13 42  1  0  0  0  0
 14 15  1  0  0  0  0
 14 27  2  0  0  0  0
 15 16  2  0  0  0  0
 16 17  1  0  0  0  0
 16 43  1  0  0  0  0
 17 18  2  0  0  0  0
 18 19  1  0  0  0  0
 18 27  1  0  0  0  0
 19 20  2  0  0  0  0
 19 44  1  0  0  0  0
 20 21  1  0  0  0  0
 20 23  1  0  0  0  0
 21 22  1  0  0  0  0
 22 45  1  0  0  0  0
 22 46  1  0  0  0  0
 22 47  1  0  0  0  0
 23 24  1  0  0  0  0
 23 26  2  0  0  0  0
 24 25  1  0  0  0  0
 25 48  1  0  0  0  0
 25 49  1  0  0  0  0
 25 50  1  0  0  0  0
 26 27  1  0  0  0  0
 26 51  1  0  0  0  0
 28 29  1  0  0  0  0
 28 52  1  0  0  0  0
 29 53  1  0  0  0  0
M  END
$$$$
