CHEMBL3976548
 OpenBabel04072215373D

 38 41  0  0  0  0  0  0  0  0999 V2000
    0.8155    0.1573   -0.0341 N   0  0  0  0  0  0  0  0  0  0  0  0
    2.1740    0.1361    0.0570 C   0  0  0  0  0  0  0  0  0  0  0  0
    3.0423    1.2055    0.1869 C   0  0  0  0  0  0  0  0  0  0  0  0
    2.7319    2.6524    0.2718 C   0  0  0  0  0  0  0  0  0  0  0  0
    1.6750    3.0502    0.7319 O   0  0  0  0  0  0  0  0  0  0  0  0
    3.7714    3.4812   -0.2441 C   0  0  0  0  0  0  0  0  0  0  0  0
    4.7333    3.1727   -1.1937 C   0  0  0  0  0  0  0  0  0  0  0  0
    5.5836    4.2771   -1.3364 C   0  0  0  0  0  0  0  0  0  0  0  0
    6.6900    4.5014   -2.1582 C   0  0  0  0  0  0  0  0  0  0  0  0
    6.6611    5.7219   -2.8138 C   0  0  0  0  0  0  0  0  0  0  0  0
    6.0213    6.8059   -2.2202 C   0  0  0  0  0  0  0  0  0  0  0  0
    5.2713    6.6621   -1.0398 C   0  0  0  0  0  0  0  0  0  0  0  0
    4.9391    5.3457   -0.7272 C   0  0  0  0  0  0  0  0  0  0  0  0
    3.9673    4.8061    0.0882 N   0  0  0  0  0  0  0  0  0  0  0  0
    4.3179    0.6041    0.2711 C   0  0  0  0  0  0  0  0  0  0  0  0
    4.2869   -0.7086    0.1275 N   0  0  0  0  0  0  0  0  0  0  0  0
    2.9694   -1.0267    0.0701 N   0  0  0  0  0  0  0  0  0  0  0  0
    2.5875   -2.3926    0.0008 C   0  0  0  0  0  0  0  0  0  0  0  0
    1.4386   -2.7545   -0.7258 C   0  0  0  0  0  0  0  0  0  0  0  0
    1.0376   -4.0863   -0.7602 C   0  0  0  0  0  0  0  0  0  0  0  0
   -0.0681   -4.4842   -1.4529 O   0  0  0  0  0  0  0  0  0  0  0  0
    1.7489   -5.0741   -0.0917 C   0  0  0  0  0  0  0  0  0  0  0  0
    2.9045   -4.7287    0.6026 C   0  0  0  0  0  0  0  0  0  0  0  0
    3.3372   -3.3957    0.6544 C   0  0  0  0  0  0  0  0  0  0  0  0
    4.7326   -3.1243    1.6495 Cl  0  0  0  0  0  0  0  0  0  0  0  0
    0.3474    1.0481    0.1479 H   0  0  0  0  0  0  0  0  0  0  0  0
    0.2700   -0.6184    0.3414 H   0  0  0  0  0  0  0  0  0  0  0  0
    4.8067    2.2558   -1.7665 H   0  0  0  0  0  0  0  0  0  0  0  0
    7.6650    4.2342   -1.7226 H   0  0  0  0  0  0  0  0  0  0  0  0
    7.1815    5.8231   -3.7618 H   0  0  0  0  0  0  0  0  0  0  0  0
    6.0855    7.7782   -2.6920 H   0  0  0  0  0  0  0  0  0  0  0  0
    4.8026    7.5117   -0.5566 H   0  0  0  0  0  0  0  0  0  0  0  0
    3.3682    5.3341    0.7102 H   0  0  0  0  0  0  0  0  0  0  0  0
    5.2831    1.0760    0.4050 H   0  0  0  0  0  0  0  0  0  0  0  0
    0.8921   -2.0136   -1.3071 H   0  0  0  0  0  0  0  0  0  0  0  0
   -0.4427   -3.7219   -1.9258 H   0  0  0  0  0  0  0  0  0  0  0  0
    1.4220   -6.1094   -0.1403 H   0  0  0  0  0  0  0  0  0  0  0  0
    3.4693   -5.5031    1.1192 H   0  0  0  0  0  0  0  0  0  0  0  0
  1  2  1  0  0  0  0
  1 26  1  0  0  0  0
  1 27  1  0  0  0  0
  2  3  2  0  0  0  0
  2 17  1  0  0  0  0
  3  4  1  0  0  0  0
  3 15  1  0  0  0  0
  4  5  2  0  0  0  0
  4  6  1  0  0  0  0
  6  7  2  0  0  0  0
  6 14  1  0  0  0  0
  7  8  1  0  0  0  0
  7 28  1  0  0  0  0
  8  9  1  0  0  0  0
  8 13  2  0  0  0  0
  9 10  2  0  0  0  0
  9 29  1  0  0  0  0
 10 11  1  0  0  0  0
 10 30  1  0  0  0  0
 11 12  2  0  0  0  0
 11 31  1  0  0  0  0
 12 13  1  0  0  0  0
 12 32  1  0  0  0  0
 13 14  1  0  0  0  0
 14 33  1  0  0  0  0
 15 16  2  0  0  0  0
 15 34  1  0  0  0  0
 16 17  1  0  0  0  0
 17 18  1  0  0  0  0
 18 19  1  0  0  0  0
 18 24  2  0  0  0  0
 19 20  2  0  0  0  0
 19 35  1  0  0  0  0
 20 21  1  0  0  0  0
 20 22  1  0  0  0  0
 21 36  1  0  0  0  0
 22 23  2  0  0  0  0
 22 37  1  0  0  0  0
 23 24  1  0  0  0  0
 23 38  1  0  0  0  0
 24 25  1  0  0  0  0
M  END
$$$$
