CHEMBL596808
 OpenBabel04072215383D

 39 42  0  0  0  0  0  0  0  0999 V2000
    1.1535   -0.4389    0.6008 O   0  0  0  0  0  0  0  0  0  0  0  0
    2.2846   -0.1214    0.2289 C   0  0  0  0  0  0  0  0  0  0  0  0
    2.9629   -0.8269   -0.9212 C   0  0  0  0  0  0  0  0  0  0  0  0
    4.2099   -1.4876   -0.4583 C   0  0  0  0  0  0  0  0  0  0  0  0
    4.3462   -2.8550   -0.3837 C   0  0  0  0  0  0  0  0  0  0  0  0
    5.4418   -3.4714    0.0899 N   0  0  0  0  0  0  0  0  0  0  0  0
    6.4563   -2.6848    0.4668 C   0  0  0  0  0  0  0  0  0  0  0  0
    7.5817   -3.3286    0.9773 N   0  0  0  0  0  0  0  0  0  0  0  0
    8.8963   -2.8631    1.0533 C   0  0  0  0  0  0  0  0  0  0  0  0
    9.7366   -3.3070    2.0853 C   0  0  0  0  0  0  0  0  0  0  0  0
   11.0107   -2.7530    2.2567 C   0  0  0  0  0  0  0  0  0  0  0  0
   11.4549   -1.7537    1.3822 C   0  0  0  0  0  0  0  0  0  0  0  0
   12.7645   -1.1254    1.5822 N   0  3  0  0  0  0  0  0  0  0  0  0
   13.4417   -1.5028    2.5507 O   0  0  0  0  0  0  0  0  0  0  0  0
   13.1169   -0.2528    0.7772 O   0  5  0  0  0  0  0  0  0  0  0  0
   10.6467   -1.3265    0.3274 C   0  0  0  0  0  0  0  0  0  0  0  0
    9.3766   -1.8761    0.1773 C   0  0  0  0  0  0  0  0  0  0  0  0
    6.4175   -1.3404    0.4095 N   0  0  0  0  0  0  0  0  0  0  0  0
    5.2872   -0.7449   -0.0213 C   0  0  0  0  0  0  0  0  0  0  0  0
    5.2713    0.7351    0.0093 C   0  0  0  0  0  0  0  0  0  0  0  0
    6.4208    1.4469   -0.3897 C   0  0  0  0  0  0  0  0  0  0  0  0
    6.4651    2.8440   -0.3664 C   0  0  0  0  0  0  0  0  0  0  0  0
    5.3794    3.5648    0.1160 C   0  0  0  0  0  0  0  0  0  0  0  0
    4.2457    2.8900    0.5576 C   0  0  0  0  0  0  0  0  0  0  0  0
    4.1616    1.4927    0.4555 C   0  0  0  0  0  0  0  0  0  0  0  0
    2.9128    0.9459    0.8054 N   0  0  0  0  0  0  0  0  0  0  0  0
    3.1737   -0.1059   -1.7217 H   0  0  0  0  0  0  0  0  0  0  0  0
    2.2663   -1.5564   -1.3468 H   0  0  0  0  0  0  0  0  0  0  0  0
    3.5486   -3.5223   -0.7013 H   0  0  0  0  0  0  0  0  0  0  0  0
    7.4177   -4.3146    1.1094 H   0  0  0  0  0  0  0  0  0  0  0  0
    9.3835   -4.0531    2.7904 H   0  0  0  0  0  0  0  0  0  0  0  0
   11.6275   -3.0914    3.0888 H   0  0  0  0  0  0  0  0  0  0  0  0
   10.9727   -0.5597   -0.3722 H   0  0  0  0  0  0  0  0  0  0  0  0
    8.7522   -1.5282   -0.6417 H   0  0  0  0  0  0  0  0  0  0  0  0
    7.2988    0.9036   -0.7368 H   0  0  0  0  0  0  0  0  0  0  0  0
    7.3507    3.3659   -0.7194 H   0  0  0  0  0  0  0  0  0  0  0  0
    5.4087    4.6515    0.1363 H   0  0  0  0  0  0  0  0  0  0  0  0
    3.4005    3.4723    0.9191 H   0  0  0  0  0  0  0  0  0  0  0  0
    2.2996    1.4845    1.4056 H   0  0  0  0  0  0  0  0  0  0  0  0
  1  2  2  0  0  0  0
  2  3  1  0  0  0  0
  2 26  1  0  0  0  0
  3  4  1  0  0  0  0
  3 27  1  0  0  0  0
  3 28  1  0  0  0  0
  4  5  1  0  0  0  0
  4 19  2  0  0  0  0
  5  6  2  0  0  0  0
  5 29  1  0  0  0  0
  6  7  1  0  0  0  0
  7  8  1  0  0  0  0
  7 18  2  0  0  0  0
  8  9  1  0  0  0  0
  8 30  1  0  0  0  0
  9 10  1  0  0  0  0
  9 17  2  0  0  0  0
 10 11  2  0  0  0  0
 10 31  1  0  0  0  0
 11 12  1  0  0  0  0
 11 32  1  0  0  0  0
 12 13  1  0  0  0  0
 12 16  2  0  0  0  0
 13 14  2  0  0  0  0
 13 15  1  0  0  0  0
 16 17  1  0  0  0  0
 16 33  1  0  0  0  0
 17 34  1  0  0  0  0
 18 19  1  0  0  0  0
 19 20  1  0  0  0  0
 20 21  1  0  0  0  0
 20 25  2  0  0  0  0
 21 22  2  0  0  0  0
 21 35  1  0  0  0  0
 22 23  1  0  0  0  0
 22 36  1  0  0  0  0
 23 24  2  0  0  0  0
 23 37  1  0  0  0  0
 24 25  1  0  0  0  0
 24 38  1  0  0  0  0
 25 26  1  0  0  0  0
 26 39  1  0  0  0  0
M  CHG  2  13   1  15  -1
M  END
$$$$
