CHEMBL493986
 OpenBabel04072215383D

 53 57  0  0  0  0  0  0  0  0999 V2000
    0.8400    0.1717   -0.0157 C   0  0  0  0  0  0  0  0  0  0  0  0
    2.3403    0.0435   -0.0451 C   0  0  0  0  0  0  0  0  0  0  0  0
    3.1139    1.2609   -0.0457 C   0  0  0  0  0  0  0  0  0  0  0  0
    4.4482    1.2222    0.0228 C   0  0  0  0  0  0  0  0  0  0  0  0
    5.1439    0.0242    0.0245 N   0  0  0  0  0  0  0  0  0  0  0  0
    6.5554   -0.0146    0.2203 C   0  0  0  0  0  0  0  0  0  0  0  0
    7.3661   -0.8207   -0.6066 C   0  0  0  0  0  0  0  0  0  0  0  0
    8.7224   -0.9888   -0.3366 C   0  0  0  0  0  0  0  0  0  0  0  0
    9.2554   -0.3183    0.7503 C   0  0  0  0  0  0  0  0  0  0  0  0
    8.4742    0.5545    1.5120 C   0  0  0  0  0  0  0  0  0  0  0  0
    7.1193    0.6850    1.2938 C   0  0  0  0  0  0  0  0  0  0  0  0
    9.2055    1.1984    2.5558 N   0  0  0  0  0  0  0  0  0  0  0  0
   10.5852    1.0727    2.0114 C   0  0  0  0  0  0  0  0  0  0  0  0
   10.6691   -0.2839    1.2603 C   0  0  0  0  0  0  0  0  0  0  0  0
   10.9855   -1.4074    2.2608 C   0  0  0  0  0  0  0  0  0  0  0  0
   11.6778   -0.2893    0.1137 C   0  0  0  0  0  0  0  0  0  0  0  0
    4.4792   -1.2058   -0.0332 C   0  0  0  0  0  0  0  0  0  0  0  0
    5.0248   -2.3133   -0.0245 O   0  0  0  0  0  0  0  0  0  0  0  0
    2.9759   -1.1419   -0.0109 C   0  0  0  0  0  0  0  0  0  0  0  0
    2.2519   -2.3936    0.1725 C   0  0  0  0  0  0  0  0  0  0  0  0
    1.8570   -2.7547    1.4652 C   0  0  0  0  0  0  0  0  0  0  0  0
    1.3360   -4.0137    1.7146 C   0  0  0  0  0  0  0  0  0  0  0  0
    1.2912   -4.9583    0.7109 C   0  0  0  0  0  0  0  0  0  0  0  0
    1.0132   -6.2092    1.0608 N   0  0  0  0  0  0  0  0  0  0  0  0
    1.2225   -7.1412    0.1381 C   0  0  0  0  0  0  0  0  0  0  0  0
    1.4677   -8.4019    0.6845 N   0  0  0  0  0  0  0  0  0  0  0  0
    1.5014   -6.9260   -1.1452 N   0  0  0  0  0  0  0  0  0  0  0  0
    1.6756   -5.6390   -1.5074 C   0  0  0  0  0  0  0  0  0  0  0  0
    1.6666   -4.5996   -0.5886 C   0  0  0  0  0  0  0  0  0  0  0  0
    2.1016   -3.3004   -0.8757 C   0  0  0  0  0  0  0  0  0  0  0  0
    0.5083    1.2121   -0.0883 H   0  0  0  0  0  0  0  0  0  0  0  0
    0.4265   -0.2363    0.9136 H   0  0  0  0  0  0  0  0  0  0  0  0
    0.3972   -0.3681   -0.8621 H   0  0  0  0  0  0  0  0  0  0  0  0
    2.6003    2.2221   -0.0628 H   0  0  0  0  0  0  0  0  0  0  0  0
    5.0388    2.1355    0.0412 H   0  0  0  0  0  0  0  0  0  0  0  0
    6.9341   -1.3284   -1.4666 H   0  0  0  0  0  0  0  0  0  0  0  0
    9.3307   -1.6186   -0.9765 H   0  0  0  0  0  0  0  0  0  0  0  0
    6.5160    1.2907    1.9596 H   0  0  0  0  0  0  0  0  0  0  0  0
    9.0965    0.6151    3.3894 H   0  0  0  0  0  0  0  0  0  0  0  0
   11.3251    1.1642    2.8124 H   0  0  0  0  0  0  0  0  0  0  0  0
   10.7409    1.9142    1.3210 H   0  0  0  0  0  0  0  0  0  0  0  0
   10.5986   -1.1896    3.2647 H   0  0  0  0  0  0  0  0  0  0  0  0
   12.0708   -1.5302    2.3729 H   0  0  0  0  0  0  0  0  0  0  0  0
   10.5670   -2.3701    1.9527 H   0  0  0  0  0  0  0  0  0  0  0  0
   11.4224    0.4481   -0.6565 H   0  0  0  0  0  0  0  0  0  0  0  0
   11.7005   -1.2725   -0.3746 H   0  0  0  0  0  0  0  0  0  0  0  0
   12.6876   -0.0726    0.4727 H   0  0  0  0  0  0  0  0  0  0  0  0
    2.0192   -2.0756    2.3048 H   0  0  0  0  0  0  0  0  0  0  0  0
    1.0687   -4.2970    2.7296 H   0  0  0  0  0  0  0  0  0  0  0  0
    2.3919   -8.2543    1.0921 H   0  0  0  0  0  0  0  0  0  0  0  0
    0.8534   -8.4481    1.4926 H   0  0  0  0  0  0  0  0  0  0  0  0
    1.9246   -5.4766   -2.5470 H   0  0  0  0  0  0  0  0  0  0  0  0
    2.4447   -3.0381   -1.8766 H   0  0  0  0  0  0  0  0  0  0  0  0
  1  2  1  0  0  0  0
  1 31  1  0  0  0  0
  1 32  1  0  0  0  0
  1 33  1  0  0  0  0
  2  3  1  0  0  0  0
  2 19  2  0  0  0  0
  3  4  2  0  0  0  0
  3 34  1  0  0  0  0
  4  5  1  0  0  0  0
  4 35  1  0  0  0  0
  5  6  1  0  0  0  0
  5 17  1  0  0  0  0
  6  7  1  0  0  0  0
  6 11  2  0  0  0  0
  7  8  2  0  0  0  0
  7 36  1  0  0  0  0
  8  9  1  0  0  0  0
  8 37  1  0  0  0  0
  9 10  2  0  0  0  0
  9 14  1  0  0  0  0
 10 11  1  0  0  0  0
 10 12  1  0  0  0  0
 11 38  1  0  0  0  0
 12 13  1  0  0  0  0
 12 39  1  0  0  0  0
 13 14  1  0  0  0  0
 13 40  1  0  0  0  0
 13 41  1  0  0  0  0
 14 15  1  0  0  0  0
 14 16  1  0  0  0  0
 15 42  1  0  0  0  0
 15 43  1  0  0  0  0
 15 44  1  0  0  0  0
 16 45  1  0  0  0  0
 16 46  1  0  0  0  0
 16 47  1  0  0  0  0
 17 18  2  0  0  0  0
 17 19  1  0  0  0  0
 19 20  1  0  0  0  0
 20 21  1  0  0  0  0
 20 30  2  0  0  0  0
 21 22  2  0  0  0  0
 21 48  1  0  0  0  0
 22 23  1  0  0  0  0
 22 49  1  0  0  0  0
 23 24  1  0  0  0  0
 23 29  2  0  0  0  0
 24 25  2  0  0  0  0
 25 26  1  0  0  0  0
 25 27  1  0  0  0  0
 26 50  1  0  0  0  0
 26 51  1  0  0  0  0
 27 28  2  0  0  0  0
 28 29  1  0  0  0  0
 28 52  1  0  0  0  0
 29 30  1  0  0  0  0
 30 53  1  0  0  0  0
M  END
$$$$
