CHEMBL526507
 OpenBabel04072215383D

 67 72  0  0  0  0  0  0  0  0999 V2000
    1.9927   -1.9580   -0.6625 C   0  0  0  0  0  0  0  0  0  0  0  0
    0.8295   -1.0738   -0.6638 N   0  0  0  0  0  0  0  0  0  0  0  0
   -0.3877   -1.8255   -1.0573 C   0  0  0  0  0  0  0  0  0  0  0  0
   -1.6773   -0.9709   -0.9882 C   0  0  0  0  0  0  0  0  0  0  0  0
   -1.8065   -0.4304    0.3715 N   0  0  0  0  0  0  0  0  0  0  0  0
   -3.0437   -0.1552    0.9316 C   0  0  0  0  0  0  0  0  0  0  0  0
   -3.1715   -0.1435    2.3343 C   0  0  0  0  0  0  0  0  0  0  0  0
   -4.3849    0.0815    2.9955 C   0  0  0  0  0  0  0  0  0  0  0  0
   -5.4935    0.2821    2.1832 C   0  0  0  0  0  0  0  0  0  0  0  0
   -6.8059    0.5417    2.4656 N   0  0  0  0  0  0  0  0  0  0  0  0
   -7.5042    0.6181    1.2837 C   0  0  0  0  0  0  0  0  0  0  0  0
   -8.9093    0.8694    1.3064 C   0  0  0  0  0  0  0  0  0  0  0  0
   -9.6849    0.4264    0.2857 C   0  0  0  0  0  0  0  0  0  0  0  0
   -9.2242   -0.3749   -0.7611 N   0  0  0  0  0  0  0  0  0  0  0  0
  -11.1176    0.8280    0.2468 C   0  0  0  0  0  0  0  0  0  0  0  0
  -11.9911    0.4271   -0.7763 C   0  0  0  0  0  0  0  0  0  0  0  0
  -13.3079    0.9093   -0.8430 C   0  0  0  0  0  0  0  0  0  0  0  0
  -14.1475    0.4653   -1.9903 C   0  0  0  0  0  0  0  0  0  0  0  0
  -13.8982   -0.5987   -2.5456 O   0  0  0  0  0  0  0  0  0  0  0  0
  -15.1501    1.3158   -2.3988 N   0  0  0  0  0  0  0  0  0  0  0  0
  -15.9665    1.0158   -3.5575 C   0  0  0  0  0  0  0  0  0  0  0  0
  -15.7842    2.0455   -4.6440 C   0  0  0  0  0  0  0  0  0  0  0  0
  -14.5370    2.2154   -5.2646 C   0  0  0  0  0  0  0  0  0  0  0  0
  -14.3714    3.1593   -6.2800 C   0  0  0  0  0  0  0  0  0  0  0  0
  -15.4514    3.9379   -6.6916 C   0  0  0  0  0  0  0  0  0  0  0  0
  -16.6980    3.7704   -6.0918 C   0  0  0  0  0  0  0  0  0  0  0  0
  -16.8644    2.8294   -5.0736 C   0  0  0  0  0  0  0  0  0  0  0  0
  -13.7840    1.7618    0.1573 C   0  0  0  0  0  0  0  0  0  0  0  0
  -12.9439    2.1317    1.2102 C   0  0  0  0  0  0  0  0  0  0  0  0
  -11.6242    1.6712    1.2452 C   0  0  0  0  0  0  0  0  0  0  0  0
  -10.8057    2.0500    2.3100 N   0  0  0  0  0  0  0  0  0  0  0  0
   -9.5031    1.6609    2.4335 C   0  0  0  0  0  0  0  0  0  0  0  0
   -8.8581    1.9572    3.4396 O   0  0  0  0  0  0  0  0  0  0  0  0
   -6.6875    0.4302    0.2569 N   0  0  0  0  0  0  0  0  0  0  0  0
   -5.4383    0.2477    0.7996 C   0  0  0  0  0  0  0  0  0  0  0  0
   -4.2021    0.0412    0.1619 C   0  0  0  0  0  0  0  0  0  0  0  0
   -0.6462    0.3821    0.7785 C   0  0  0  0  0  0  0  0  0  0  0  0
    0.6326   -0.4814    0.6815 C   0  0  0  0  0  0  0  0  0  0  0  0
    2.1558   -2.3768   -1.6613 H   0  0  0  0  0  0  0  0  0  0  0  0
    1.8842   -2.7880    0.0454 H   0  0  0  0  0  0  0  0  0  0  0  0
    2.8975   -1.3989   -0.4008 H   0  0  0  0  0  0  0  0  0  0  0  0
   -0.5175   -2.6964   -0.3991 H   0  0  0  0  0  0  0  0  0  0  0  0
   -0.2738   -2.2010   -2.0807 H   0  0  0  0  0  0  0  0  0  0  0  0
   -2.5236   -1.6191   -1.2441 H   0  0  0  0  0  0  0  0  0  0  0  0
   -1.6358   -0.1559   -1.7221 H   0  0  0  0  0  0  0  0  0  0  0  0
   -2.2987   -0.3612    2.9472 H   0  0  0  0  0  0  0  0  0  0  0  0
   -4.4497    0.0728    4.0764 H   0  0  0  0  0  0  0  0  0  0  0  0
   -7.2017    0.7029    3.3861 H   0  0  0  0  0  0  0  0  0  0  0  0
   -8.1949   -0.3955   -0.7806 H   0  0  0  0  0  0  0  0  0  0  0  0
   -9.5692   -0.0921   -1.6727 H   0  0  0  0  0  0  0  0  0  0  0  0
  -11.6581   -0.2664   -1.5457 H   0  0  0  0  0  0  0  0  0  0  0  0
  -15.2257    2.2449   -2.0117 H   0  0  0  0  0  0  0  0  0  0  0  0
  -17.0045    1.0073   -3.2075 H   0  0  0  0  0  0  0  0  0  0  0  0
  -15.7481    0.0196   -3.9570 H   0  0  0  0  0  0  0  0  0  0  0  0
  -13.6893    1.6026   -4.9620 H   0  0  0  0  0  0  0  0  0  0  0  0
  -13.4012    3.2816   -6.7547 H   0  0  0  0  0  0  0  0  0  0  0  0
  -15.3231    4.6694   -7.4851 H   0  0  0  0  0  0  0  0  0  0  0  0
  -17.5433    4.3690   -6.4218 H   0  0  0  0  0  0  0  0  0  0  0  0
  -17.8475    2.7065   -4.6251 H   0  0  0  0  0  0  0  0  0  0  0  0
  -14.8080    2.1225    0.1509 H   0  0  0  0  0  0  0  0  0  0  0  0
  -13.3258    2.7827    1.9926 H   0  0  0  0  0  0  0  0  0  0  0  0
  -11.1730    2.6096    3.0680 H   0  0  0  0  0  0  0  0  0  0  0  0
   -4.1728    0.0508   -0.9206 H   0  0  0  0  0  0  0  0  0  0  0  0
   -0.7317    0.7631    1.8019 H   0  0  0  0  0  0  0  0  0  0  0  0
   -0.5601    1.2562    0.1192 H   0  0  0  0  0  0  0  0  0  0  0  0
    0.5703   -1.2758    1.4383 H   0  0  0  0  0  0  0  0  0  0  0  0
    1.4947    0.1470    0.9341 H   0  0  0  0  0  0  0  0  0  0  0  0
  1  2  1  0  0  0  0
  1 39  1  0  0  0  0
  1 40  1  0  0  0  0
  1 41  1  0  0  0  0
  2  3  1  0  0  0  0
  2 38  1  0  0  0  0
  3  4  1  0  0  0  0
  3 42  1  0  0  0  0
  3 43  1  0  0  0  0
  4  5  1  0  0  0  0
  4 44  1  0  0  0  0
  4 45  1  0  0  0  0
  5  6  1  0  0  0  0
  5 37  1  0  0  0  0
  6  7  1  0  0  0  0
  6 36  2  0  0  0  0
  7  8  2  0  0  0  0
  7 46  1  0  0  0  0
  8  9  1  0  0  0  0
  8 47  1  0  0  0  0
  9 10  1  0  0  0  0
  9 35  2  0  0  0  0
 10 11  1  0  0  0  0
 10 48  1  0  0  0  0
 11 12  1  0  0  0  0
 11 34  2  0  0  0  0
 12 13  2  0  0  0  0
 12 32  1  0  0  0  0
 13 14  1  0  0  0  0
 13 15  1  0  0  0  0
 14 49  1  0  0  0  0
 14 50  1  0  0  0  0
 15 16  1  0  0  0  0
 15 30  2  0  0  0  0
 16 17  2  0  0  0  0
 16 51  1  0  0  0  0
 17 18  1  0  0  0  0
 17 28  1  0  0  0  0
 18 19  2  0  0  0  0
 18 20  1  0  0  0  0
 20 21  1  0  0  0  0
 20 52  1  0  0  0  0
 21 22  1  0  0  0  0
 21 53  1  0  0  0  0
 21 54  1  0  0  0  0
 22 23  1  0  0  0  0
 22 27  2  0  0  0  0
 23 24  2  0  0  0  0
 23 55  1  0  0  0  0
 24 25  1  0  0  0  0
 24 56  1  0  0  0  0
 25 26  2  0  0  0  0
 25 57  1  0  0  0  0
 26 27  1  0  0  0  0
 26 58  1  0  0  0  0
 27 59  1  0  0  0  0
 28 29  2  0  0  0  0
 28 60  1  0  0  0  0
 29 30  1  0  0  0  0
 29 61  1  0  0  0  0
 30 31  1  0  0  0  0
 31 32  1  0  0  0  0
 31 62  1  0  0  0  0
 32 33  2  0  0  0  0
 34 35  1  0  0  0  0
 35 36  1  0  0  0  0
 36 63  1  0  0  0  0
 37 38  1  0  0  0  0
 37 64  1  0  0  0  0
 37 65  1  0  0  0  0
 38 66  1  0  0  0  0
 38 67  1  0  0  0  0
M  END
$$$$
