CHEMBL3702606
 OpenBabel04072215373D

 48 51  0  0  0  0  0  0  0  0999 V2000
   -5.3823   -4.8882    2.0521 C   0  0  0  0  0  0  0  0  0  0  0  0
   -5.0651   -3.6104    1.3338 C   0  0  0  0  0  0  0  0  0  0  0  0
   -5.2761   -2.3757    1.9492 C   0  0  0  0  0  0  0  0  0  0  0  0
   -4.9489   -1.1844    1.2909 C   0  0  0  0  0  0  0  0  0  0  0  0
   -4.4054   -1.1990    0.0049 C   0  0  0  0  0  0  0  0  0  0  0  0
   -4.0186   -0.0314   -0.7016 N   0  0  0  0  0  0  0  0  0  0  0  0
   -4.0755    1.2707   -0.2297 C   0  0  0  0  0  0  0  0  0  0  0  0
   -4.4648    1.6257    0.8786 O   0  0  0  0  0  0  0  0  0  0  0  0
   -3.6414    2.3443   -1.1701 C   0  0  0  0  0  0  0  0  0  0  0  0
   -2.6277    2.1861   -2.1163 C   0  0  0  0  0  0  0  0  0  0  0  0
   -2.2656    3.2721   -2.9239 C   0  0  0  0  0  0  0  0  0  0  0  0
   -2.9201    4.5040   -2.7965 C   0  0  0  0  0  0  0  0  0  0  0  0
   -3.9325    4.6883   -1.8518 C   0  0  0  0  0  0  0  0  0  0  0  0
   -4.6317    5.8783   -1.6893 N   0  0  0  0  0  0  0  0  0  0  0  0
   -4.8401    6.7887   -2.8179 C   0  0  0  0  0  0  0  0  0  0  0  0
   -6.1778    7.5069   -2.6067 C   0  0  0  0  0  0  0  0  0  0  0  0
   -6.3268    8.0379   -1.2025 C   0  0  0  0  0  0  0  0  0  0  0  0
   -7.3145    8.9387   -0.9918 N   0  0  0  0  0  0  0  0  0  0  0  0
   -7.4736    9.3856    0.2581 C   0  0  0  0  0  0  0  0  0  0  0  0
   -8.4998   10.2773    0.4950 N   0  0  0  0  0  0  0  0  0  0  0  0
   -6.7494    8.9943    1.3092 N   0  0  0  0  0  0  0  0  0  0  0  0
   -5.7818    8.0914    1.0657 C   0  0  0  0  0  0  0  0  0  0  0  0
   -5.5267    7.5592   -0.1788 C   0  0  0  0  0  0  0  0  0  0  0  0
   -4.4282    6.5657   -0.4045 C   0  0  0  0  0  0  0  0  0  0  0  0
   -4.2706    3.5931   -1.0439 C   0  0  0  0  0  0  0  0  0  0  0  0
   -4.2268   -2.4361   -0.6254 C   0  0  0  0  0  0  0  0  0  0  0  0
   -4.5524   -3.6312    0.0329 C   0  0  0  0  0  0  0  0  0  0  0  0
   -5.6929   -4.6998    3.0860 H   0  0  0  0  0  0  0  0  0  0  0  0
   -4.4965   -5.5308    2.0882 H   0  0  0  0  0  0  0  0  0  0  0  0
   -6.1949   -5.4196    1.5474 H   0  0  0  0  0  0  0  0  0  0  0  0
   -5.6904   -2.3211    2.9537 H   0  0  0  0  0  0  0  0  0  0  0  0
   -5.1378   -0.2584    1.8232 H   0  0  0  0  0  0  0  0  0  0  0  0
   -3.7000   -0.1762   -1.6491 H   0  0  0  0  0  0  0  0  0  0  0  0
   -2.0848    1.2510   -2.2147 H   0  0  0  0  0  0  0  0  0  0  0  0
   -1.4635    3.1624   -3.6496 H   0  0  0  0  0  0  0  0  0  0  0  0
   -2.5983    5.3278   -3.4263 H   0  0  0  0  0  0  0  0  0  0  0  0
   -4.8827    6.2522   -3.7734 H   0  0  0  0  0  0  0  0  0  0  0  0
   -4.0175    7.5135   -2.8768 H   0  0  0  0  0  0  0  0  0  0  0  0
   -6.9993    6.8010   -2.7835 H   0  0  0  0  0  0  0  0  0  0  0  0
   -6.2784    8.3238   -3.3297 H   0  0  0  0  0  0  0  0  0  0  0  0
   -9.2205   10.1442   -0.2001 H   0  0  0  0  0  0  0  0  0  0  0  0
   -8.7766   10.2062    1.4644 H   0  0  0  0  0  0  0  0  0  0  0  0
   -5.2050    7.7965    1.9384 H   0  0  0  0  0  0  0  0  0  0  0  0
   -4.4121    5.8590    0.4333 H   0  0  0  0  0  0  0  0  0  0  0  0
   -3.4666    7.0959   -0.4190 H   0  0  0  0  0  0  0  0  0  0  0  0
   -5.0722    3.7035   -0.3137 H   0  0  0  0  0  0  0  0  0  0  0  0
   -3.8218   -2.4963   -1.6316 H   0  0  0  0  0  0  0  0  0  0  0  0
   -4.3960   -4.5805   -0.4749 H   0  0  0  0  0  0  0  0  0  0  0  0
  1  2  1  0  0  0  0
  1 28  1  0  0  0  0
  1 29  1  0  0  0  0
  1 30  1  0  0  0  0
  2  3  1  0  0  0  0
  2 27  2  0  0  0  0
  3  4  2  0  0  0  0
  3 31  1  0  0  0  0
  4  5  1  0  0  0  0
  4 32  1  0  0  0  0
  5  6  1  0  0  0  0
  5 26  2  0  0  0  0
  6  7  1  0  0  0  0
  6 33  1  0  0  0  0
  7  8  2  0  0  0  0
  7  9  1  0  0  0  0
  9 10  1  0  0  0  0
  9 25  2  0  0  0  0
 10 11  2  0  0  0  0
 10 34  1  0  0  0  0
 11 12  1  0  0  0  0
 11 35  1  0  0  0  0
 12 13  2  0  0  0  0
 12 36  1  0  0  0  0
 13 14  1  0  0  0  0
 13 25  1  0  0  0  0
 14 15  1  0  0  0  0
 14 24  1  0  0  0  0
 15 16  1  0  0  0  0
 15 37  1  0  0  0  0
 15 38  1  0  0  0  0
 16 17  1  0  0  0  0
 16 39  1  0  0  0  0
 16 40  1  0  0  0  0
 17 18  1  0  0  0  0
 17 23  2  0  0  0  0
 18 19  2  0  0  0  0
 19 20  1  0  0  0  0
 19 21  1  0  0  0  0
 20 41  1  0  0  0  0
 20 42  1  0  0  0  0
 21 22  2  0  0  0  0
 22 23  1  0  0  0  0
 22 43  1  0  0  0  0
 23 24  1  0  0  0  0
 24 44  1  0  0  0  0
 24 45  1  0  0  0  0
 25 46  1  0  0  0  0
 26 27  1  0  0  0  0
 26 47  1  0  0  0  0
 27 48  1  0  0  0  0
M  END
$$$$
