CHEMBL458997
 OpenBabel04072215383D

 58 61  0  0  0  0  0  0  0  0999 V2000
    7.2633    0.4247    0.1310 C   0  0  0  0  0  0  0  0  0  0  0  0
    6.5456   -0.0270    1.2953 N   0  0  0  0  0  0  0  0  0  0  0  0
    7.2156   -0.6010    2.3566 C   0  0  0  0  0  0  0  0  0  0  0  0
    8.4254   -0.7973    2.3614 O   0  0  0  0  0  0  0  0  0  0  0  0
    6.3832   -0.9132    3.5539 C   0  0  0  0  0  0  0  0  0  0  0  0
    7.0445   -0.8682    4.7973 C   0  0  0  0  0  0  0  0  0  0  0  0
    6.3386   -1.0172    5.9895 C   0  0  0  0  0  0  0  0  0  0  0  0
    4.9652   -1.1628    5.9508 C   0  0  0  0  0  0  0  0  0  0  0  0
    4.3176   -1.2340    4.7223 C   0  0  0  0  0  0  0  0  0  0  0  0
    5.0064   -1.2205    3.4976 C   0  0  0  0  0  0  0  0  0  0  0  0
    4.3247   -1.4906    2.2719 N   0  0  0  0  0  0  0  0  0  0  0  0
    3.1403   -2.2782    2.1311 C   0  0  0  0  0  0  0  0  0  0  0  0
    2.2944   -2.3887    3.1842 N   0  0  0  0  0  0  0  0  0  0  0  0
    1.1570   -3.0719    3.0677 C   0  0  0  0  0  0  0  0  0  0  0  0
    0.3217   -3.1274    4.1852 N   0  0  0  0  0  0  0  0  0  0  0  0
   -1.0904   -3.0807    4.1586 C   0  0  0  0  0  0  0  0  0  0  0  0
   -1.7412   -2.5164    3.0460 C   0  0  0  0  0  0  0  0  0  0  0  0
   -3.1309   -2.5184    2.9093 C   0  0  0  0  0  0  0  0  0  0  0  0
   -3.9481   -3.0619    3.8922 C   0  0  0  0  0  0  0  0  0  0  0  0
   -5.3210   -3.1071    3.7652 N   0  0  0  0  0  0  0  0  0  0  0  0
   -5.9963   -3.2175    2.4628 C   0  0  0  0  0  0  0  0  0  0  0  0
   -6.8212   -1.9599    2.1567 C   0  0  0  0  0  0  0  0  0  0  0  0
   -7.7155   -1.6355    3.2336 O   0  0  0  0  0  0  0  0  0  0  0  0
   -6.9687   -1.3989    4.4385 C   0  0  0  0  0  0  0  0  0  0  0  0
   -6.1726   -2.6424    4.8703 C   0  0  0  0  0  0  0  0  0  0  0  0
   -3.3049   -3.5837    5.0251 C   0  0  0  0  0  0  0  0  0  0  0  0
   -1.9024   -3.5874    5.1850 C   0  0  0  0  0  0  0  0  0  0  0  0
   -1.5170   -4.2075    6.3459 O   0  0  0  0  0  0  0  0  0  0  0  0
   -0.2976   -3.8122    6.9494 C   0  0  0  0  0  0  0  0  0  0  0  0
    0.7959   -3.6736    1.9238 N   0  0  0  0  0  0  0  0  0  0  0  0
    1.6319   -3.5527    0.8800 C   0  0  0  0  0  0  0  0  0  0  0  0
    2.8233   -2.8764    0.9230 C   0  0  0  0  0  0  0  0  0  0  0  0
    3.8630   -2.8573   -0.4430 Cl  0  0  0  0  0  0  0  0  0  0  0  0
    6.5374    0.7526   -0.6161 H   0  0  0  0  0  0  0  0  0  0  0  0
    7.8624   -0.3998   -0.2639 H   0  0  0  0  0  0  0  0  0  0  0  0
    7.9216    1.2544    0.4042 H   0  0  0  0  0  0  0  0  0  0  0  0
    5.6156    0.3424    1.4645 H   0  0  0  0  0  0  0  0  0  0  0  0
    8.1199   -0.7061    4.8391 H   0  0  0  0  0  0  0  0  0  0  0  0
    6.8528   -0.9869    6.9451 H   0  0  0  0  0  0  0  0  0  0  0  0
    4.3797   -1.2384    6.8628 H   0  0  0  0  0  0  0  0  0  0  0  0
    3.2404   -1.3215    4.7651 H   0  0  0  0  0  0  0  0  0  0  0  0
    4.9813   -1.7012    1.5157 H   0  0  0  0  0  0  0  0  0  0  0  0
    0.7369   -2.5956    4.9271 H   0  0  0  0  0  0  0  0  0  0  0  0
   -1.1671   -2.0685    2.2393 H   0  0  0  0  0  0  0  0  0  0  0  0
   -3.5527   -2.0672    2.0173 H   0  0  0  0  0  0  0  0  0  0  0  0
   -6.6725   -4.0786    2.5181 H   0  0  0  0  0  0  0  0  0  0  0  0
   -5.3031   -3.4229    1.6392 H   0  0  0  0  0  0  0  0  0  0  0  0
   -7.4309   -2.1296    1.2630 H   0  0  0  0  0  0  0  0  0  0  0  0
   -6.1753   -1.0967    1.9587 H   0  0  0  0  0  0  0  0  0  0  0  0
   -7.6829   -1.1272    5.2219 H   0  0  0  0  0  0  0  0  0  0  0  0
   -6.3055   -0.5397    4.2798 H   0  0  0  0  0  0  0  0  0  0  0  0
   -6.8669   -3.4501    5.1271 H   0  0  0  0  0  0  0  0  0  0  0  0
   -5.5991   -2.3953    5.7709 H   0  0  0  0  0  0  0  0  0  0  0  0
   -3.9053   -4.0500    5.8042 H   0  0  0  0  0  0  0  0  0  0  0  0
   -0.3538   -4.0749    8.0111 H   0  0  0  0  0  0  0  0  0  0  0  0
   -0.1391   -2.7305    6.8960 H   0  0  0  0  0  0  0  0  0  0  0  0
    0.5412   -4.3675    6.5204 H   0  0  0  0  0  0  0  0  0  0  0  0
    1.2787   -4.0448   -0.0255 H   0  0  0  0  0  0  0  0  0  0  0  0
  1  2  1  0  0  0  0
  1 34  1  0  0  0  0
  1 35  1  0  0  0  0
  1 36  1  0  0  0  0
  2  3  1  0  0  0  0
  2 37  1  0  0  0  0
  3  4  2  0  0  0  0
  3  5  1  0  0  0  0
  5  6  1  0  0  0  0
  5 10  2  0  0  0  0
  6  7  2  0  0  0  0
  6 38  1  0  0  0  0
  7  8  1  0  0  0  0
  7 39  1  0  0  0  0
  8  9  2  0  0  0  0
  8 40  1  0  0  0  0
  9 10  1  0  0  0  0
  9 41  1  0  0  0  0
 10 11  1  0  0  0  0
 11 12  1  0  0  0  0
 11 42  1  0  0  0  0
 12 13  1  0  0  0  0
 12 32  2  0  0  0  0
 13 14  2  0  0  0  0
 14 15  1  0  0  0  0
 14 30  1  0  0  0  0
 15 16  1  0  0  0  0
 15 43  1  0  0  0  0
 16 17  1  0  0  0  0
 16 27  2  0  0  0  0
 17 18  2  0  0  0  0
 17 44  1  0  0  0  0
 18 19  1  0  0  0  0
 18 45  1  0  0  0  0
 19 20  1  0  0  0  0
 19 26  2  0  0  0  0
 20 21  1  0  0  0  0
 20 25  1  0  0  0  0
 21 22  1  0  0  0  0
 21 46  1  0  0  0  0
 21 47  1  0  0  0  0
 22 23  1  0  0  0  0
 22 48  1  0  0  0  0
 22 49  1  0  0  0  0
 23 24  1  0  0  0  0
 24 25  1  0  0  0  0
 24 50  1  0  0  0  0
 24 51  1  0  0  0  0
 25 52  1  0  0  0  0
 25 53  1  0  0  0  0
 26 27  1  0  0  0  0
 26 54  1  0  0  0  0
 27 28  1  0  0  0  0
 28 29  1  0  0  0  0
 29 55  1  0  0  0  0
 29 56  1  0  0  0  0
 29 57  1  0  0  0  0
 30 31  2  0  0  0  0
 31 32  1  0  0  0  0
 31 58  1  0  0  0  0
 32 33  1  0  0  0  0
M  END
$$$$
