CHEMBL1997275
 OpenBabel04072215363D

 36 39  0  0  0  0  0  0  0  0999 V2000
    1.2349    0.8061   -0.1113 C   0  0  0  0  0  0  0  0  0  0  0  0
    2.3716   -0.0453   -0.0387 O   0  0  0  0  0  0  0  0  0  0  0  0
    3.0419   -0.2777   -1.2117 C   0  0  0  0  0  0  0  0  0  0  0  0
    2.6738    0.2064   -2.4670 C   0  0  0  0  0  0  0  0  0  0  0  0
    3.4348   -0.0788   -3.6080 C   0  0  0  0  0  0  0  0  0  0  0  0
    4.5781   -0.8681   -3.4477 C   0  0  0  0  0  0  0  0  0  0  0  0
    5.4943   -1.3031   -4.3793 N   0  0  0  0  0  0  0  0  0  0  0  0
    6.4496   -2.0832   -3.7814 C   0  0  0  0  0  0  0  0  0  0  0  0
    6.1202   -2.1898   -2.4494 C   0  0  0  0  0  0  0  0  0  0  0  0
    6.8078   -3.0142   -1.5143 C   0  0  0  0  0  0  0  0  0  0  0  0
    6.5206   -4.3033   -1.2771 C   0  0  0  0  0  0  0  0  0  0  0  0
    5.4497   -5.1162   -1.9690 C   0  0  0  0  0  0  0  0  0  0  0  0
    4.6880   -4.7957   -2.8603 O   0  0  0  0  0  0  0  0  0  0  0  0
    5.5170   -6.3687   -1.3794 N   0  0  0  0  0  0  0  0  0  0  0  0
    6.5154   -6.4262   -0.4155 C   0  0  0  0  0  0  0  0  0  0  0  0
    6.8513   -7.5256    0.3480 C   0  0  0  0  0  0  0  0  0  0  0  0
    7.8937   -7.3736    1.2620 C   0  0  0  0  0  0  0  0  0  0  0  0
    8.5599   -6.1398    1.3912 C   0  0  0  0  0  0  0  0  0  0  0  0
    8.1986   -5.0362    0.6056 C   0  0  0  0  0  0  0  0  0  0  0  0
    7.1687   -5.1936   -0.3030 C   0  0  0  0  0  0  0  0  0  0  0  0
    4.9642   -1.3902   -2.2129 C   0  0  0  0  0  0  0  0  0  0  0  0
    4.1809   -1.0843   -1.0801 C   0  0  0  0  0  0  0  0  0  0  0  0
    0.8253    0.9070    0.8984 H   0  0  0  0  0  0  0  0  0  0  0  0
    0.4548    0.3695   -0.7438 H   0  0  0  0  0  0  0  0  0  0  0  0
    1.5125    1.8069   -0.4587 H   0  0  0  0  0  0  0  0  0  0  0  0
    1.7838    0.8125   -2.6020 H   0  0  0  0  0  0  0  0  0  0  0  0
    3.1338    0.2931   -4.5817 H   0  0  0  0  0  0  0  0  0  0  0  0
    5.4461   -1.0975   -5.3669 H   0  0  0  0  0  0  0  0  0  0  0  0
    7.2382   -2.5345   -4.3677 H   0  0  0  0  0  0  0  0  0  0  0  0
    7.6023   -2.5316   -0.9549 H   0  0  0  0  0  0  0  0  0  0  0  0
    4.9061   -7.1232   -1.6509 H   0  0  0  0  0  0  0  0  0  0  0  0
    6.3319   -8.4717    0.2444 H   0  0  0  0  0  0  0  0  0  0  0  0
    8.1945   -8.2160    1.8819 H   0  0  0  0  0  0  0  0  0  0  0  0
    9.3687   -6.0459    2.1133 H   0  0  0  0  0  0  0  0  0  0  0  0
    8.7207   -4.0914    0.7183 H   0  0  0  0  0  0  0  0  0  0  0  0
    4.4552   -1.4785   -0.1065 H   0  0  0  0  0  0  0  0  0  0  0  0
  1  2  1  0  0  0  0
  1 23  1  0  0  0  0
  1 24  1  0  0  0  0
  1 25  1  0  0  0  0
  2  3  1  0  0  0  0
  3  4  1  0  0  0  0
  3 22  2  0  0  0  0
  4  5  2  0  0  0  0
  4 26  1  0  0  0  0
  5  6  1  0  0  0  0
  5 27  1  0  0  0  0
  6  7  1  0  0  0  0
  6 21  2  0  0  0  0
  7  8  1  0  0  0  0
  7 28  1  0  0  0  0
  8  9  2  0  0  0  0
  8 29  1  0  0  0  0
  9 10  1  0  0  0  0
  9 21  1  0  0  0  0
 10 11  2  3  0  0  0
 10 30  1  0  0  0  0
 11 12  1  0  0  0  0
 11 20  1  0  0  0  0
 12 13  2  0  0  0  0
 12 14  1  0  0  0  0
 14 15  1  0  0  0  0
 14 31  1  0  0  0  0
 15 16  1  0  0  0  0
 15 20  2  0  0  0  0
 16 17  2  0  0  0  0
 16 32  1  0  0  0  0
 17 18  1  0  0  0  0
 17 33  1  0  0  0  0
 18 19  2  0  0  0  0
 18 34  1  0  0  0  0
 19 20  1  0  0  0  0
 19 35  1  0  0  0  0
 21 22  1  0  0  0  0
 22 36  1  0  0  0  0
M  END
$$$$
