CHEMBL4560522
 OpenBabel04072215383D

 57 59  0  0  0  0  0  0  0  0999 V2000
    0.6611   -2.3260   -0.4584 C   0  0  0  0  0  0  0  0  0  0  0  0
    2.0348   -2.3695    0.1916 C   0  0  0  0  0  0  0  0  0  0  0  0
    3.0604   -1.3971   -0.4311 C   0  0  0  0  0  0  0  0  0  0  0  0
    2.5831    0.0792   -0.4342 C   0  0  0  0  0  0  0  0  0  0  0  0
    2.3768    0.7158    0.9366 C   0  0  0  0  0  0  0  0  0  0  0  0
    4.4223   -1.5179    0.2842 C   0  0  0  0  0  0  0  0  0  0  0  0
    4.9573   -2.8914    0.2324 N   0  0  0  0  0  0  0  0  0  0  0  0
    6.3702   -3.1127    0.2475 C   0  0  0  0  0  0  0  0  0  0  0  0
    6.9020   -4.1881   -0.5061 C   0  0  0  0  0  0  0  0  0  0  0  0
    6.1361   -5.1400   -1.3635 C   0  0  0  0  0  0  0  0  0  0  0  0
    4.7948   -4.9400   -1.4962 N   0  0  0  0  0  0  0  0  0  0  0  0
    6.6795   -6.0723   -1.9399 O   0  0  0  0  0  0  0  0  0  0  0  0
    8.2771   -4.3933   -0.4765 C   0  0  0  0  0  0  0  0  0  0  0  0
    9.1507   -3.6445    0.2303 N   0  0  0  0  0  0  0  0  0  0  0  0
    8.6604   -2.6653    0.9930 C   0  0  0  0  0  0  0  0  0  0  0  0
    9.5678   -1.9062    1.7195 C   0  0  0  0  0  0  0  0  0  0  0  0
    9.1691   -0.8398    2.5330 C   0  0  0  0  0  0  0  0  0  0  0  0
    7.8182   -0.5464    2.6930 C   0  0  0  0  0  0  0  0  0  0  0  0
    7.3298    0.6311    3.4375 C   0  0  0  0  0  0  0  0  0  0  0  0
    7.9637    1.1464    4.5725 C   0  0  0  0  0  0  0  0  0  0  0  0
    7.4863    2.3099    5.1814 C   0  0  0  0  0  0  0  0  0  0  0  0
    6.3631    2.9453    4.6569 C   0  0  0  0  0  0  0  0  0  0  0  0
    5.8369    4.2195    5.2703 C   0  0  0  0  0  0  0  0  0  0  0  0
    6.8479    5.2294    5.2315 O   0  0  0  0  0  0  0  0  0  0  0  0
    6.3545    6.4704    5.7115 C   0  0  0  0  0  0  0  0  0  0  0  0
    5.6996    2.4576    3.5830 N   0  0  0  0  0  0  0  0  0  0  0  0
    6.2080    1.3470    3.0030 C   0  0  0  0  0  0  0  0  0  0  0  0
    6.9106   -1.3906    2.0318 C   0  0  0  0  0  0  0  0  0  0  0  0
    7.2789   -2.3834    1.0910 C   0  0  0  0  0  0  0  0  0  0  0  0
    0.0723   -3.1916   -0.1369 H   0  0  0  0  0  0  0  0  0  0  0  0
    0.7376   -2.3553   -1.5494 H   0  0  0  0  0  0  0  0  0  0  0  0
    0.1111   -1.4265   -0.1671 H   0  0  0  0  0  0  0  0  0  0  0  0
    2.4084   -3.3944    0.0909 H   0  0  0  0  0  0  0  0  0  0  0  0
    1.9319   -2.1861    1.2681 H   0  0  0  0  0  0  0  0  0  0  0  0
    3.2031   -1.6906   -1.4796 H   0  0  0  0  0  0  0  0  0  0  0  0
    1.6461    0.1595   -0.9996 H   0  0  0  0  0  0  0  0  0  0  0  0
    3.3127    0.6887   -0.9835 H   0  0  0  0  0  0  0  0  0  0  0  0
    1.7720    0.0909    1.5986 H   0  0  0  0  0  0  0  0  0  0  0  0
    1.8645    1.6785    0.8303 H   0  0  0  0  0  0  0  0  0  0  0  0
    3.3335    0.9150    1.4289 H   0  0  0  0  0  0  0  0  0  0  0  0
    4.2414   -1.2471    1.3257 H   0  0  0  0  0  0  0  0  0  0  0  0
    5.1269   -0.8068   -0.1633 H   0  0  0  0  0  0  0  0  0  0  0  0
    4.5565   -3.4558    0.9870 H   0  0  0  0  0  0  0  0  0  0  0  0
    4.3791   -4.0925   -1.1227 H   0  0  0  0  0  0  0  0  0  0  0  0
    4.2767   -5.5229   -2.1379 H   0  0  0  0  0  0  0  0  0  0  0  0
    8.7395   -5.1954   -1.0487 H   0  0  0  0  0  0  0  0  0  0  0  0
   10.6291   -2.1313    1.6261 H   0  0  0  0  0  0  0  0  0  0  0  0
    9.9356   -0.2415    3.0180 H   0  0  0  0  0  0  0  0  0  0  0  0
    8.8394    0.6571    4.9900 H   0  0  0  0  0  0  0  0  0  0  0  0
    7.9985    2.7276    6.0444 H   0  0  0  0  0  0  0  0  0  0  0  0
    5.5406    4.0284    6.3079 H   0  0  0  0  0  0  0  0  0  0  0  0
    4.9575    4.5583    4.7096 H   0  0  0  0  0  0  0  0  0  0  0  0
    7.1525    7.2138    5.6305 H   0  0  0  0  0  0  0  0  0  0  0  0
    6.0638    6.3812    6.7622 H   0  0  0  0  0  0  0  0  0  0  0  0
    5.5029    6.8082    5.1119 H   0  0  0  0  0  0  0  0  0  0  0  0
    5.6632    1.0491    2.1098 H   0  0  0  0  0  0  0  0  0  0  0  0
    5.8687   -1.2599    2.2798 H   0  0  0  0  0  0  0  0  0  0  0  0
  1  2  1  0  0  0  0
  1 30  1  0  0  0  0
  1 31  1  0  0  0  0
  1 32  1  0  0  0  0
  2  3  1  0  0  0  0
  2 33  1  0  0  0  0
  2 34  1  0  0  0  0
  3  4  1  0  0  0  0
  3  6  1  0  0  0  0
  3 35  1  0  0  0  0
  4  5  1  0  0  0  0
  4 36  1  0  0  0  0
  4 37  1  0  0  0  0
  5 38  1  0  0  0  0
  5 39  1  0  0  0  0
  5 40  1  0  0  0  0
  6  7  1  0  0  0  0
  6 41  1  0  0  0  0
  6 42  1  0  0  0  0
  7  8  1  0  0  0  0
  7 43  1  0  0  0  0
  8  9  1  0  0  0  0
  8 29  2  0  0  0  0
  9 10  1  0  0  0  0
  9 13  2  0  0  0  0
 10 11  1  0  0  0  0
 10 12  2  0  0  0  0
 11 44  1  0  0  0  0
 11 45  1  0  0  0  0
 13 14  1  0  0  0  0
 13 46  1  0  0  0  0
 14 15  2  0  0  0  0
 15 16  1  0  0  0  0
 15 29  1  0  0  0  0
 16 17  2  0  0  0  0
 16 47  1  0  0  0  0
 17 18  1  0  0  0  0
 17 48  1  0  0  0  0
 18 19  1  0  0  0  0
 18 28  2  0  0  0  0
 19 20  1  0  0  0  0
 19 27  2  0  0  0  0
 20 21  2  0  0  0  0
 20 49  1  0  0  0  0
 21 22  1  0  0  0  0
 21 50  1  0  0  0  0
 22 23  1  0  0  0  0
 22 26  2  0  0  0  0
 23 24  1  0  0  0  0
 23 51  1  0  0  0  0
 23 52  1  0  0  0  0
 24 25  1  0  0  0  0
 25 53  1  0  0  0  0
 25 54  1  0  0  0  0
 25 55  1  0  0  0  0
 26 27  1  0  0  0  0
 27 56  1  0  0  0  0
 28 29  1  0  0  0  0
 28 57  1  0  0  0  0
M  END
$$$$
