CHEMBL189125
 OpenBabel04072215363D

 45 47  0  0  0  0  0  0  0  0999 V2000
    2.3296    0.0082    0.0864 N   0  0  0  0  0  0  0  0  0  0  0  0
    0.9375   -0.0772    0.0580 C   0  0  0  0  0  0  0  0  0  0  0  0
    0.3300    1.1206   -0.0357 N   0  0  0  0  0  0  0  0  0  0  0  0
   -1.0218    1.1313   -0.0483 C   0  0  0  0  0  0  0  0  0  0  0  0
   -1.8317    0.0021    0.0390 C   0  0  0  0  0  0  0  0  0  0  0  0
   -3.2174    0.1499    0.0675 N   0  0  0  0  0  0  0  0  0  0  0  0
   -4.0431   -0.9126    0.6345 C   0  0  0  0  0  0  0  0  0  0  0  0
   -5.3015   -0.3061    1.2492 C   0  0  0  0  0  0  0  0  0  0  0  0
   -4.9759    0.6695    2.3756 C   0  0  0  0  0  0  0  0  0  0  0  0
   -6.1849    1.1430    2.9592 O   0  0  0  0  0  0  0  0  0  0  0  0
   -1.1621   -1.2192    0.0875 C   0  0  0  0  0  0  0  0  0  0  0  0
    0.2470   -1.2961    0.1268 C   0  0  0  0  0  0  0  0  0  0  0  0
    0.9055   -2.6092    0.2591 C   0  0  0  0  0  0  0  0  0  0  0  0
    2.0507   -2.8369    1.0193 C   0  0  0  0  0  0  0  0  0  0  0  0
    2.6325   -4.0554    1.1466 N   0  0  0  0  0  0  0  0  0  0  0  0
    2.0080   -5.0569    0.4849 C   0  0  0  0  0  0  0  0  0  0  0  0
    0.8553   -4.8753   -0.2775 C   0  0  0  0  0  0  0  0  0  0  0  0
    0.2725   -5.9845   -0.9287 N   0  0  0  0  0  0  0  0  0  0  0  0
   -0.5594   -5.9262   -2.0675 C   0  0  0  0  0  0  0  0  0  0  0  0
   -1.5353   -6.9121   -2.2767 C   0  0  0  0  0  0  0  0  0  0  0  0
   -2.3253   -6.9038   -3.4324 C   0  0  0  0  0  0  0  0  0  0  0  0
   -2.1285   -5.9246   -4.4048 C   0  0  0  0  0  0  0  0  0  0  0  0
   -1.1422   -4.9614   -4.2195 C   0  0  0  0  0  0  0  0  0  0  0  0
   -0.8714   -3.7672   -5.4293 Cl  0  0  0  0  0  0  0  0  0  0  0  0
   -0.3608   -4.9644   -3.0658 C   0  0  0  0  0  0  0  0  0  0  0  0
    0.3030   -3.6445   -0.3897 N   0  0  0  0  0  0  0  0  0  0  0  0
    2.5482    1.0008   -0.0013 H   0  0  0  0  0  0  0  0  0  0  0  0
    2.7461   -0.5203   -0.6728 H   0  0  0  0  0  0  0  0  0  0  0  0
   -1.4649    2.1228   -0.0987 H   0  0  0  0  0  0  0  0  0  0  0  0
   -3.5743    0.5119   -0.8166 H   0  0  0  0  0  0  0  0  0  0  0  0
   -3.5122   -1.4605    1.4224 H   0  0  0  0  0  0  0  0  0  0  0  0
   -4.3168   -1.6272   -0.1500 H   0  0  0  0  0  0  0  0  0  0  0  0
   -5.9363   -1.1092    1.6439 H   0  0  0  0  0  0  0  0  0  0  0  0
   -5.9000    0.2031    0.4840 H   0  0  0  0  0  0  0  0  0  0  0  0
   -4.4082    1.5347    2.0176 H   0  0  0  0  0  0  0  0  0  0  0  0
   -4.3916    0.1798    3.1610 H   0  0  0  0  0  0  0  0  0  0  0  0
   -6.6255    1.6986    2.2937 H   0  0  0  0  0  0  0  0  0  0  0  0
   -1.7309   -2.1474    0.1044 H   0  0  0  0  0  0  0  0  0  0  0  0
    2.5413   -2.0416    1.5715 H   0  0  0  0  0  0  0  0  0  0  0  0
    2.4825   -6.0294    0.5627 H   0  0  0  0  0  0  0  0  0  0  0  0
   -0.0157   -6.6792   -0.2487 H   0  0  0  0  0  0  0  0  0  0  0  0
   -1.6989   -7.6949   -1.5394 H   0  0  0  0  0  0  0  0  0  0  0  0
   -3.0882   -7.6647   -3.5760 H   0  0  0  0  0  0  0  0  0  0  0  0
   -2.7364   -5.9225   -5.3051 H   0  0  0  0  0  0  0  0  0  0  0  0
    0.4174   -4.2146   -2.9511 H   0  0  0  0  0  0  0  0  0  0  0  0
  1  2  1  0  0  0  0
  1 27  1  0  0  0  0
  1 28  1  0  0  0  0
  2  3  1  0  0  0  0
  2 12  2  0  0  0  0
  3  4  2  0  0  0  0
  4  5  1  0  0  0  0
  4 29  1  0  0  0  0
  5  6  1  0  0  0  0
  5 11  2  0  0  0  0
  6  7  1  0  0  0  0
  6 30  1  0  0  0  0
  7  8  1  0  0  0  0
  7 31  1  0  0  0  0
  7 32  1  0  0  0  0
  8  9  1  0  0  0  0
  8 33  1  0  0  0  0
  8 34  1  0  0  0  0
  9 10  1  0  0  0  0
  9 35  1  0  0  0  0
  9 36  1  0  0  0  0
 10 37  1  0  0  0  0
 11 12  1  0  0  0  0
 11 38  1  0  0  0  0
 12 13  1  0  0  0  0
 13 14  1  0  0  0  0
 13 26  2  0  0  0  0
 14 15  2  0  0  0  0
 14 39  1  0  0  0  0
 15 16  1  0  0  0  0
 16 17  2  0  0  0  0
 16 40  1  0  0  0  0
 17 18  1  0  0  0  0
 17 26  1  0  0  0  0
 18 19  1  0  0  0  0
 18 41  1  0  0  0  0
 19 20  1  0  0  0  0
 19 25  2  0  0  0  0
 20 21  2  0  0  0  0
 20 42  1  0  0  0  0
 21 22  1  0  0  0  0
 21 43  1  0  0  0  0
 22 23  2  0  0  0  0
 22 44  1  0  0  0  0
 23 24  1  0  0  0  0
 23 25  1  0  0  0  0
 25 45  1  0  0  0  0
M  END
$$$$
