CHEMBL3753532
 OpenBabel04072215373D

 42 44  0  0  0  0  0  0  0  0999 V2000
    1.0430   -0.2127   -0.1347 C   0  0  0  0  0  0  0  0  0  0  0  0
    2.4222    0.1102   -0.2719 O   0  0  0  0  0  0  0  0  0  0  0  0
    3.1026    0.4513    0.8717 C   0  0  0  0  0  0  0  0  0  0  0  0
    2.6368    0.0936    2.1398 C   0  0  0  0  0  0  0  0  0  0  0  0
    3.3607    0.3649    3.2960 C   0  0  0  0  0  0  0  0  0  0  0  0
    2.9007   -0.0070    4.5692 N   0  0  0  0  0  0  0  0  0  0  0  0
    1.8253   -0.8158    4.8753 C   0  0  0  0  0  0  0  0  0  0  0  0
    1.0038   -1.2815    4.0895 O   0  0  0  0  0  0  0  0  0  0  0  0
    1.7903   -1.2866    6.1590 N   0  0  0  0  0  0  0  0  0  0  0  0
    2.5341   -0.8244    7.2354 C   0  0  0  0  0  0  0  0  0  0  0  0
    2.9567   -1.7443    8.1799 C   0  0  0  0  0  0  0  0  0  0  0  0
    3.7607   -1.2932    9.2216 C   0  0  0  0  0  0  0  0  0  0  0  0
    4.0352    0.0643    9.3344 C   0  0  0  0  0  0  0  0  0  0  0  0
    3.5346    0.9157    8.3662 C   0  0  0  0  0  0  0  0  0  0  0  0
    2.8379    0.4902    7.2934 N   0  0  0  0  0  0  0  0  0  0  0  0
    4.6128    0.9834    3.1694 C   0  0  0  0  0  0  0  0  0  0  0  0
    5.1303    1.3343    1.9035 C   0  0  0  0  0  0  0  0  0  0  0  0
    6.4898    1.8616    1.8431 C   0  0  0  0  0  0  0  0  0  0  0  0
    6.9721    2.8267    0.9824 C   0  0  0  0  0  0  0  0  0  0  0  0
    8.3162    2.8976    1.2345 N   0  0  0  0  0  0  0  0  0  0  0  0
    8.5913    2.0278    2.2474 C   0  0  0  0  0  0  0  0  0  0  0  0
    7.5067    1.4157    2.6675 N   0  0  0  0  0  0  0  0  0  0  0  0
    4.3442    1.1050    0.7480 C   0  0  0  0  0  0  0  0  0  0  0  0
    4.8891    1.4648   -0.4654 O   0  0  0  0  0  0  0  0  0  0  0  0
    3.9764    1.9818   -1.4290 C   0  0  0  0  0  0  0  0  0  0  0  0
    0.6413   -0.3902   -1.1376 H   0  0  0  0  0  0  0  0  0  0  0  0
    0.4882    0.6225    0.3069 H   0  0  0  0  0  0  0  0  0  0  0  0
    0.8935   -1.1361    0.4345 H   0  0  0  0  0  0  0  0  0  0  0  0
    1.6948   -0.4252    2.2260 H   0  0  0  0  0  0  0  0  0  0  0  0
    3.4384    0.3130    5.3743 H   0  0  0  0  0  0  0  0  0  0  0  0
    1.2398   -2.1264    6.2611 H   0  0  0  0  0  0  0  0  0  0  0  0
    2.7418   -2.8015    8.0686 H   0  0  0  0  0  0  0  0  0  0  0  0
    4.1748   -1.9999    9.9345 H   0  0  0  0  0  0  0  0  0  0  0  0
    4.6290    0.4497   10.1542 H   0  0  0  0  0  0  0  0  0  0  0  0
    3.6869    1.9897    8.4245 H   0  0  0  0  0  0  0  0  0  0  0  0
    5.2255    1.1523    4.0544 H   0  0  0  0  0  0  0  0  0  0  0  0
    6.5046    3.4152    0.2082 H   0  0  0  0  0  0  0  0  0  0  0  0
    8.9890    3.4689    0.7406 H   0  0  0  0  0  0  0  0  0  0  0  0
    9.5926    1.8781    2.6277 H   0  0  0  0  0  0  0  0  0  0  0  0
    4.5347    2.6455   -2.0961 H   0  0  0  0  0  0  0  0  0  0  0  0
    3.1718    2.5726   -0.9753 H   0  0  0  0  0  0  0  0  0  0  0  0
    3.5778    1.1714   -2.0468 H   0  0  0  0  0  0  0  0  0  0  0  0
  1  2  1  0  0  0  0
  1 26  1  0  0  0  0
  1 27  1  0  0  0  0
  1 28  1  0  0  0  0
  2  3  1  0  0  0  0
  3  4  1  0  0  0  0
  3 23  2  0  0  0  0
  4  5  2  0  0  0  0
  4 29  1  0  0  0  0
  5  6  1  0  0  0  0
  5 16  1  0  0  0  0
  6  7  1  0  0  0  0
  6 30  1  0  0  0  0
  7  8  2  0  0  0  0
  7  9  1  0  0  0  0
  9 10  1  0  0  0  0
  9 31  1  0  0  0  0
 10 11  1  0  0  0  0
 10 15  2  0  0  0  0
 11 12  2  0  0  0  0
 11 32  1  0  0  0  0
 12 13  1  0  0  0  0
 12 33  1  0  0  0  0
 13 14  2  0  0  0  0
 13 34  1  0  0  0  0
 14 15  1  0  0  0  0
 14 35  1  0  0  0  0
 16 17  2  0  0  0  0
 16 36  1  0  0  0  0
 17 18  1  0  0  0  0
 17 23  1  0  0  0  0
 18 19  2  0  0  0  0
 18 22  1  0  0  0  0
 19 20  1  0  0  0  0
 19 37  1  0  0  0  0
 20 21  1  0  0  0  0
 20 38  1  0  0  0  0
 21 22  2  0  0  0  0
 21 39  1  0  0  0  0
 23 24  1  0  0  0  0
 24 25  1  0  0  0  0
 25 40  1  0  0  0  0
 25 41  1  0  0  0  0
 25 42  1  0  0  0  0
M  END
$$$$
