CHEMBL1973013
 OpenBabel04072215363D

 32 33  0  0  0  0  0  0  0  0999 V2000
    1.8655    0.1584    2.1859 C   0  0  0  0  0  0  0  0  0  0  0  0
    0.5827    0.0316    1.4485 C   0  0  0  0  0  0  0  0  0  0  0  0
   -0.0792   -1.1042    1.0379 C   0  0  0  0  0  0  0  0  0  0  0  0
   -1.3044   -0.8967    0.4381 N   0  0  0  0  0  0  0  0  0  0  0  0
   -1.6016    0.3854    0.4295 C   0  0  0  0  0  0  0  0  0  0  0  0
   -2.7962    0.9177    0.0729 N   0  0  0  0  0  0  0  0  0  0  0  0
   -4.0132    0.2132    0.1323 C   0  0  0  0  0  0  0  0  0  0  0  0
   -4.8708    0.4679   -0.8886 N   0  0  0  0  0  0  0  0  0  0  0  0
   -6.0646   -0.1508   -0.8930 C   0  0  0  0  0  0  0  0  0  0  0  0
   -6.9572    0.2113   -1.8855 N   0  0  0  0  0  0  0  0  0  0  0  0
   -7.8985   -0.8026   -2.3453 C   0  0  0  0  0  0  0  0  0  0  0  0
   -9.1994   -0.1161   -2.7615 C   0  0  0  0  0  0  0  0  0  0  0  0
   -7.3001   -1.5708   -3.5212 C   0  0  0  0  0  0  0  0  0  0  0  0
   -6.4412   -1.0355    0.0343 N   0  0  0  0  0  0  0  0  0  0  0  0
   -5.5984   -1.2380    1.0599 C   0  0  0  0  0  0  0  0  0  0  0  0
   -4.3836   -0.6129    1.1916 C   0  0  0  0  0  0  0  0  0  0  0  0
   -3.4696   -0.8272    2.8350 Br  0  0  0  0  0  0  0  0  0  0  0  0
   -0.3231    1.4103    0.9822 S   0  0  0  0  0  0  0  0  0  0  0  0
    2.3002   -0.8277    2.3833 H   0  0  0  0  0  0  0  0  0  0  0  0
    1.7099    0.6484    3.1533 H   0  0  0  0  0  0  0  0  0  0  0  0
    2.5947    0.7388    1.6129 H   0  0  0  0  0  0  0  0  0  0  0  0
    0.2714   -2.1197    1.1785 H   0  0  0  0  0  0  0  0  0  0  0  0
   -2.7919    1.4721   -0.7758 H   0  0  0  0  0  0  0  0  0  0  0  0
   -6.4604    0.7295   -2.5988 H   0  0  0  0  0  0  0  0  0  0  0  0
   -8.1604   -1.5173   -1.5549 H   0  0  0  0  0  0  0  0  0  0  0  0
   -9.0303    0.6345   -3.5403 H   0  0  0  0  0  0  0  0  0  0  0  0
   -9.6607    0.3886   -1.9055 H   0  0  0  0  0  0  0  0  0  0  0  0
   -9.9188   -0.8493   -3.1433 H   0  0  0  0  0  0  0  0  0  0  0  0
   -7.0489   -0.8979   -4.3486 H   0  0  0  0  0  0  0  0  0  0  0  0
   -8.0047   -2.3209   -3.8949 H   0  0  0  0  0  0  0  0  0  0  0  0
   -6.3821   -2.0884   -3.2233 H   0  0  0  0  0  0  0  0  0  0  0  0
   -5.9675   -1.9239    1.8167 H   0  0  0  0  0  0  0  0  0  0  0  0
  1  2  1  0  0  0  0
  1 19  1  0  0  0  0
  1 20  1  0  0  0  0
  1 21  1  0  0  0  0
  2  3  2  0  0  0  0
  2 18  1  0  0  0  0
  3  4  1  0  0  0  0
  3 22  1  0  0  0  0
  4  5  2  0  0  0  0
  5  6  1  0  0  0  0
  5 18  1  0  0  0  0
  6  7  1  0  0  0  0
  6 23  1  0  0  0  0
  7  8  1  0  0  0  0
  7 16  2  0  0  0  0
  8  9  2  0  0  0  0
  9 10  1  0  0  0  0
  9 14  1  0  0  0  0
 10 11  1  0  0  0  0
 10 24  1  0  0  0  0
 11 12  1  0  0  0  0
 11 13  1  0  0  0  0
 11 25  1  0  0  0  0
 12 26  1  0  0  0  0
 12 27  1  0  0  0  0
 12 28  1  0  0  0  0
 13 29  1  0  0  0  0
 13 30  1  0  0  0  0
 13 31  1  0  0  0  0
 14 15  2  0  0  0  0
 15 16  1  0  0  0  0
 15 32  1  0  0  0  0
 16 17  1  0  0  0  0
M  END
$$$$
