CHEMBL1242031
 OpenBabel04072215363D

 39 41  0  0  0  0  0  0  0  0999 V2000
    2.8592   -0.1804    1.4812 C   0  0  0  0  0  0  0  0  0  0  0  0
    2.6162   -0.0006   -0.0178 C   0  0  0  0  0  0  0  0  0  0  0  0
    1.1527   -0.2762   -0.3683 C   0  0  0  0  0  0  0  0  0  0  0  0
    3.0348    1.3202   -0.4788 N   0  0  0  0  0  0  0  0  0  0  0  0
    2.4200    2.4242   -0.0018 N   0  0  0  0  0  0  0  0  0  0  0  0
    2.9880    3.4438   -0.6732 C   0  0  0  0  0  0  0  0  0  0  0  0
    2.5152    4.8113   -0.4473 C   0  0  0  0  0  0  0  0  0  0  0  0
    2.4454    5.7393   -1.4985 C   0  0  0  0  0  0  0  0  0  0  0  0
    2.0303    7.0547   -1.2776 C   0  0  0  0  0  0  0  0  0  0  0  0
    1.5999    7.4415   -0.0142 C   0  0  0  0  0  0  0  0  0  0  0  0
    1.5797    6.4976    1.0146 C   0  0  0  0  0  0  0  0  0  0  0  0
    0.8171    6.9116    2.5506 S   0  0  0  0  0  0  0  0  0  0  0  0
   -0.7513    6.3955    2.2480 N   0  0  0  0  0  0  0  0  0  0  0  0
    1.3360    6.0578    3.5938 O   0  0  0  0  0  0  0  0  0  0  0  0
    0.7507    8.3470    2.6810 O   0  0  0  0  0  0  0  0  0  0  0  0
    2.0693    5.2023    0.8198 C   0  0  0  0  0  0  0  0  0  0  0  0
    4.0199    2.9748   -1.5460 C   0  0  0  0  0  0  0  0  0  0  0  0
    4.9634    3.4988   -2.4440 C   0  0  0  0  0  0  0  0  0  0  0  0
    5.1615    4.8477   -2.7091 N   0  0  0  0  0  0  0  0  0  0  0  0
    5.7669    2.6456   -3.1112 N   0  0  0  0  0  0  0  0  0  0  0  0
    5.6398    1.3264   -2.8796 C   0  0  0  0  0  0  0  0  0  0  0  0
    4.7938    0.7123   -2.0381 N   0  0  0  0  0  0  0  0  0  0  0  0
    4.0080    1.5986   -1.3985 C   0  0  0  0  0  0  0  0  0  0  0  0
    2.5613   -1.1843    1.8038 H   0  0  0  0  0  0  0  0  0  0  0  0
    2.2897    0.5440    2.0739 H   0  0  0  0  0  0  0  0  0  0  0  0
    3.9192   -0.0502    1.7236 H   0  0  0  0  0  0  0  0  0  0  0  0
    3.2329   -0.7358   -0.5490 H   0  0  0  0  0  0  0  0  0  0  0  0
    0.4796    0.4465    0.1066 H   0  0  0  0  0  0  0  0  0  0  0  0
    0.8557   -1.2772   -0.0377 H   0  0  0  0  0  0  0  0  0  0  0  0
    0.9936   -0.2175   -1.4505 H   0  0  0  0  0  0  0  0  0  0  0  0
    2.6980    5.4459   -2.5157 H   0  0  0  0  0  0  0  0  0  0  0  0
    2.0113    7.7633   -2.1024 H   0  0  0  0  0  0  0  0  0  0  0  0
    1.2366    8.4535    0.1489 H   0  0  0  0  0  0  0  0  0  0  0  0
   -1.0000    5.6135    2.8522 H   0  0  0  0  0  0  0  0  0  0  0  0
   -1.4017    7.1795    2.2586 H   0  0  0  0  0  0  0  0  0  0  0  0
    2.0617    4.4853    1.6401 H   0  0  0  0  0  0  0  0  0  0  0  0
    5.0347    5.4572   -1.9106 H   0  0  0  0  0  0  0  0  0  0  0  0
    6.0259    4.9821   -3.2223 H   0  0  0  0  0  0  0  0  0  0  0  0
    6.3097    0.6823   -3.4424 H   0  0  0  0  0  0  0  0  0  0  0  0
  1  2  1  0  0  0  0
  1 24  1  0  0  0  0
  1 25  1  0  0  0  0
  1 26  1  0  0  0  0
  2  3  1  0  0  0  0
  2  4  1  0  0  0  0
  2 27  1  0  0  0  0
  3 28  1  0  0  0  0
  3 29  1  0  0  0  0
  3 30  1  0  0  0  0
  4  5  1  0  0  0  0
  4 23  1  0  0  0  0
  5  6  2  0  0  0  0
  6  7  1  0  0  0  0
  6 17  1  0  0  0  0
  7  8  1  0  0  0  0
  7 16  2  0  0  0  0
  8  9  2  0  0  0  0
  8 31  1  0  0  0  0
  9 10  1  0  0  0  0
  9 32  1  0  0  0  0
 10 11  2  0  0  0  0
 10 33  1  0  0  0  0
 11 12  1  0  0  0  0
 11 16  1  0  0  0  0
 12 13  1  0  0  0  0
 12 14  2  0  0  0  0
 12 15  2  0  0  0  0
 13 34  1  0  0  0  0
 13 35  1  0  0  0  0
 16 36  1  0  0  0  0
 17 18  1  0  0  0  0
 17 23  2  0  0  0  0
 18 19  1  0  0  0  0
 18 20  2  0  0  0  0
 19 37  1  0  0  0  0
 19 38  1  0  0  0  0
 20 21  1  0  0  0  0
 21 22  2  0  0  0  0
 21 39  1  0  0  0  0
 22 23  1  0  0  0  0
M  END
$$$$
