CHEMBL88771
 OpenBabel04072215383D

 55 59  0  0  0  0  0  0  0  0999 V2000
    3.4304   -0.8664   -1.3487 O   0  0  0  0  0  0  0  0  0  0  0  0
    4.1352    0.0582   -1.7201 C   0  0  0  0  0  0  0  0  0  0  0  0
    4.4143    0.2707   -3.0292 O   0  0  0  0  0  0  0  0  0  0  0  0
    4.7889    1.0789   -0.8279 C   0  0  0  0  0  0  0  0  0  0  0  0
    4.4394    0.8771    0.6439 C   0  0  0  0  0  0  0  0  0  0  0  0
    5.0971    1.9064    1.5184 C   0  0  0  0  0  0  0  0  0  0  0  0
    4.8773    3.2809    1.4976 C   0  0  0  0  0  0  0  0  0  0  0  0
    4.0899    4.1459    0.6988 C   0  0  0  0  0  0  0  0  0  0  0  0
    2.8262    4.4757    0.9989 C   0  0  0  0  0  0  0  0  0  0  0  0
    2.0207    4.0119    2.1889 C   0  0  0  0  0  0  0  0  0  0  0  0
    2.3380    3.2584    3.0897 O   0  0  0  0  0  0  0  0  0  0  0  0
    0.8051    4.6589    2.0697 N   0  0  0  0  0  0  0  0  0  0  0  0
    0.7656    5.4712    0.9444 C   0  0  0  0  0  0  0  0  0  0  0  0
   -0.2946    6.2655    0.5565 C   0  0  0  0  0  0  0  0  0  0  0  0
   -0.1658    7.0579   -0.5973 C   0  0  0  0  0  0  0  0  0  0  0  0
   -1.2658    7.9611   -1.0254 C   0  0  0  0  0  0  0  0  0  0  0  0
   -2.1364    8.5519   -0.0870 C   0  0  0  0  0  0  0  0  0  0  0  0
   -3.1685    9.4103   -0.4786 C   0  0  0  0  0  0  0  0  0  0  0  0
   -3.3490    9.7111   -1.8230 C   0  0  0  0  0  0  0  0  0  0  0  0
   -2.5078    9.1427   -2.7737 C   0  0  0  0  0  0  0  0  0  0  0  0
   -1.4857    8.2719   -2.3793 C   0  0  0  0  0  0  0  0  0  0  0  0
    1.0570    6.9706   -1.3175 C   0  0  0  0  0  0  0  0  0  0  0  0
    2.1223    6.1460   -0.9129 C   0  0  0  0  0  0  0  0  0  0  0  0
    1.9669    5.3986    0.2389 C   0  0  0  0  0  0  0  0  0  0  0  0
    5.6515    3.8542    2.4791 N   0  0  0  0  0  0  0  0  0  0  0  0
    6.3761    2.8855    3.1092 C   0  0  0  0  0  0  0  0  0  0  0  0
    6.0802    1.6686    2.5310 C   0  0  0  0  0  0  0  0  0  0  0  0
    6.7622    0.4057    2.9541 C   0  0  0  0  0  0  0  0  0  0  0  0
    7.5241    0.5804    4.2852 C   0  0  0  0  0  0  0  0  0  0  0  0
    8.2677    1.9263    4.3712 C   0  0  0  0  0  0  0  0  0  0  0  0
    7.3042    3.1184    4.2480 C   0  0  0  0  0  0  0  0  0  0  0  0
    4.9938    1.0413   -3.1882 H   0  0  0  0  0  0  0  0  0  0  0  0
    4.4534    2.0662   -1.1626 H   0  0  0  0  0  0  0  0  0  0  0  0
    5.8742    1.0121   -0.9633 H   0  0  0  0  0  0  0  0  0  0  0  0
    4.7412   -0.1299    0.9592 H   0  0  0  0  0  0  0  0  0  0  0  0
    3.3522    0.9233    0.7901 H   0  0  0  0  0  0  0  0  0  0  0  0
    4.5650    4.5531   -0.1889 H   0  0  0  0  0  0  0  0  0  0  0  0
    0.0644    4.5417    2.7445 H   0  0  0  0  0  0  0  0  0  0  0  0
   -1.2047    6.2664    1.1475 H   0  0  0  0  0  0  0  0  0  0  0  0
   -2.0176    8.3645    0.9779 H   0  0  0  0  0  0  0  0  0  0  0  0
   -3.8239    9.8463    0.2712 H   0  0  0  0  0  0  0  0  0  0  0  0
   -4.1433   10.3863   -2.1291 H   0  0  0  0  0  0  0  0  0  0  0  0
   -2.6455    9.3727   -3.8271 H   0  0  0  0  0  0  0  0  0  0  0  0
   -0.8673    7.8311   -3.1573 H   0  0  0  0  0  0  0  0  0  0  0  0
    1.2005    7.5759   -2.2141 H   0  0  0  0  0  0  0  0  0  0  0  0
    3.0387    6.1184   -1.4941 H   0  0  0  0  0  0  0  0  0  0  0  0
    5.6763    4.8398    2.7019 H   0  0  0  0  0  0  0  0  0  0  0  0
    7.4784    0.1276    2.1710 H   0  0  0  0  0  0  0  0  0  0  0  0
    6.0446   -0.4160    3.0506 H   0  0  0  0  0  0  0  0  0  0  0  0
    8.2363   -0.2441    4.4074 H   0  0  0  0  0  0  0  0  0  0  0  0
    6.8162    0.5144    5.1216 H   0  0  0  0  0  0  0  0  0  0  0  0
    9.0136    1.9739    3.5670 H   0  0  0  0  0  0  0  0  0  0  0  0
    8.8142    1.9932    5.3188 H   0  0  0  0  0  0  0  0  0  0  0  0
    7.8699    4.0464    4.1143 H   0  0  0  0  0  0  0  0  0  0  0  0
    6.7215    3.2129    5.1726 H   0  0  0  0  0  0  0  0  0  0  0  0
  1  2  2  0  0  0  0
  2  3  1  0  0  0  0
  2  4  1  0  0  0  0
  3 32  1  0  0  0  0
  4  5  1  0  0  0  0
  4 33  1  0  0  0  0
  4 34  1  0  0  0  0
  5  6  1  0  0  0  0
  5 35  1  0  0  0  0
  5 36  1  0  0  0  0
  6  7  2  0  0  0  0
  6 27  1  0  0  0  0
  7  8  1  0  0  0  0
  7 25  1  0  0  0  0
  8  9  2  0  0  0  0
  8 37  1  0  0  0  0
  9 10  1  0  0  0  0
  9 24  1  0  0  0  0
 10 11  2  0  0  0  0
 10 12  1  0  0  0  0
 12 13  1  0  0  0  0
 12 38  1  0  0  0  0
 13 14  1  0  0  0  0
 13 24  2  0  0  0  0
 14 15  2  0  0  0  0
 14 39  1  0  0  0  0
 15 16  1  0  0  0  0
 15 22  1  0  0  0  0
 16 17  1  0  0  0  0
 16 21  2  0  0  0  0
 17 18  2  0  0  0  0
 17 40  1  0  0  0  0
 18 19  1  0  0  0  0
 18 41  1  0  0  0  0
 19 20  2  0  0  0  0
 19 42  1  0  0  0  0
 20 21  1  0  0  0  0
 20 43  1  0  0  0  0
 21 44  1  0  0  0  0
 22 23  2  0  0  0  0
 22 45  1  0  0  0  0
 23 24  1  0  0  0  0
 23 46  1  0  0  0  0
 25 26  1  0  0  0  0
 25 47  1  0  0  0  0
 26 27  2  0  0  0  0
 26 31  1  0  0  0  0
 27 28  1  0  0  0  0
 28 29  1  0  0  0  0
 28 48  1  0  0  0  0
 28 49  1  0  0  0  0
 29 30  1  0  0  0  0
 29 50  1  0  0  0  0
 29 51  1  0  0  0  0
 30 31  1  0  0  0  0
 30 52  1  0  0  0  0
 30 53  1  0  0  0  0
 31 54  1  0  0  0  0
 31 55  1  0  0  0  0
M  END
$$$$
