CHEMBL4793580
 OpenBabel04072215383D

 60 63  0  0  0  0  0  0  0  0999 V2000
    4.7491    3.7372   -2.6009 C   0  0  0  0  0  0  0  0  0  0  0  0
    5.8297    4.4721   -1.8221 C   0  0  0  0  0  0  0  0  0  0  0  0
    6.5442    3.5800   -0.9532 O   0  0  0  0  0  0  0  0  0  0  0  0
    5.9515    3.2960    0.2349 C   0  0  0  0  0  0  0  0  0  0  0  0
    4.8965    3.7512    0.6301 O   0  0  0  0  0  0  0  0  0  0  0  0
    6.7322    2.1720    0.9190 C   0  0  0  0  0  0  0  0  0  0  0  0
    7.3160    1.2241    0.2391 N   0  0  0  0  0  0  0  0  0  0  0  0
    7.8241    0.1849    0.9598 N   0  0  0  0  0  0  0  0  0  0  0  0
    8.3796   -0.9302    0.2998 C   0  0  0  0  0  0  0  0  0  0  0  0
    8.7650   -0.9109   -1.0471 C   0  0  0  0  0  0  0  0  0  0  0  0
    9.4286   -2.0047   -1.6227 C   0  0  0  0  0  0  0  0  0  0  0  0
    9.7174   -3.1267   -0.8489 C   0  0  0  0  0  0  0  0  0  0  0  0
   10.6482   -4.5884   -1.6047 Br  0  0  0  0  0  0  0  0  0  0  0  0
    9.3425   -3.1694    0.4892 C   0  0  0  0  0  0  0  0  0  0  0  0
    8.6852   -2.0732    1.0564 C   0  0  0  0  0  0  0  0  0  0  0  0
    6.4657    2.2619    2.6396 S   0  0  0  0  0  0  0  0  0  0  0  0
    7.0491    3.8771    2.9542 C   0  0  0  0  0  0  0  0  0  0  0  0
    6.1221    4.7312    3.4693 N   0  0  0  0  0  0  0  0  0  0  0  0
    8.2718    4.2985    2.8490 N   0  0  0  0  0  0  0  0  0  0  0  0
    9.2278    3.3598    2.5410 N   0  0  0  0  0  0  0  0  0  0  0  0
   10.4204    3.8628    2.4917 C   0  0  0  0  0  0  0  0  0  0  0  0
   10.8926    5.3217    2.6420 C   0  0  0  0  0  0  0  0  0  0  0  0
   10.2124    6.2899    2.9106 O   0  0  0  0  0  0  0  0  0  0  0  0
   12.2586    5.2853    2.3767 N   0  0  0  0  0  0  0  0  0  0  0  0
   13.0285    6.4828    2.1237 C   0  0  0  0  0  0  0  0  0  0  0  0
   12.9386    6.8899    0.6677 C   0  0  0  0  0  0  0  0  0  0  0  0
   11.8518    7.6503    0.2082 C   0  0  0  0  0  0  0  0  0  0  0  0
   11.7090    7.9351   -1.1510 C   0  0  0  0  0  0  0  0  0  0  0  0
   12.6464    7.4609   -2.0659 C   0  0  0  0  0  0  0  0  0  0  0  0
   13.7372    6.7181   -1.6215 C   0  0  0  0  0  0  0  0  0  0  0  0
   13.8855    6.4387   -0.2624 C   0  0  0  0  0  0  0  0  0  0  0  0
   12.6871    3.9675    2.1366 C   0  0  0  0  0  0  0  0  0  0  0  0
   13.9530    3.4914    1.8542 C   0  0  0  0  0  0  0  0  0  0  0  0
   14.1041    2.1115    1.6472 C   0  0  0  0  0  0  0  0  0  0  0  0
   13.0011    1.2387    1.7329 C   0  0  0  0  0  0  0  0  0  0  0  0
   13.2280   -0.4456    1.4668 Cl  0  0  0  0  0  0  0  0  0  0  0  0
   11.7302    1.7177    2.0272 C   0  0  0  0  0  0  0  0  0  0  0  0
   11.6139    3.0804    2.2172 C   0  0  0  0  0  0  0  0  0  0  0  0
    4.2793    4.4037   -3.3345 H   0  0  0  0  0  0  0  0  0  0  0  0
    3.9644    3.3611   -1.9363 H   0  0  0  0  0  0  0  0  0  0  0  0
    5.1704    2.8747   -3.1268 H   0  0  0  0  0  0  0  0  0  0  0  0
    5.4119    5.3156   -1.2632 H   0  0  0  0  0  0  0  0  0  0  0  0
    6.5606    4.8821   -2.5275 H   0  0  0  0  0  0  0  0  0  0  0  0
    7.3987   -0.0257    1.8625 H   0  0  0  0  0  0  0  0  0  0  0  0
    8.5624   -0.0344   -1.6589 H   0  0  0  0  0  0  0  0  0  0  0  0
    9.7225   -1.9641   -2.6683 H   0  0  0  0  0  0  0  0  0  0  0  0
    9.5695   -4.0354    1.1054 H   0  0  0  0  0  0  0  0  0  0  0  0
    8.4219   -2.1153    2.1098 H   0  0  0  0  0  0  0  0  0  0  0  0
    5.4246    4.2820    4.0484 H   0  0  0  0  0  0  0  0  0  0  0  0
    6.5756    5.5153    3.9307 H   0  0  0  0  0  0  0  0  0  0  0  0
   14.0702    6.3367    2.4311 H   0  0  0  0  0  0  0  0  0  0  0  0
   12.6333    7.2956    2.7476 H   0  0  0  0  0  0  0  0  0  0  0  0
   11.0943    8.0069    0.9053 H   0  0  0  0  0  0  0  0  0  0  0  0
   10.8557    8.5131   -1.4968 H   0  0  0  0  0  0  0  0  0  0  0  0
   12.5225    7.6642   -3.1263 H   0  0  0  0  0  0  0  0  0  0  0  0
   14.4663    6.3437   -2.3351 H   0  0  0  0  0  0  0  0  0  0  0  0
   14.7378    5.8477    0.0594 H   0  0  0  0  0  0  0  0  0  0  0  0
   14.8163    4.1440    1.7981 H   0  0  0  0  0  0  0  0  0  0  0  0
   15.0884    1.7116    1.4134 H   0  0  0  0  0  0  0  0  0  0  0  0
   10.8653    1.0661    2.0940 H   0  0  0  0  0  0  0  0  0  0  0  0
  1  2  1  0  0  0  0
  1 39  1  0  0  0  0
  1 40  1  0  0  0  0
  1 41  1  0  0  0  0
  2  3  1  0  0  0  0
  2 42  1  0  0  0  0
  2 43  1  0  0  0  0
  3  4  1  0  0  0  0
  4  5  2  0  0  0  0
  4  6  1  0  0  0  0
  6  7  2  0  0  0  0
  6 16  1  0  0  0  0
  7  8  1  0  0  0  0
  8  9  1  0  0  0  0
  8 44  1  0  0  0  0
  9 10  1  0  0  0  0
  9 15  2  0  0  0  0
 10 11  2  0  0  0  0
 10 45  1  0  0  0  0
 11 12  1  0  0  0  0
 11 46  1  0  0  0  0
 12 13  1  0  0  0  0
 12 14  2  0  0  0  0
 14 15  1  0  0  0  0
 14 47  1  0  0  0  0
 15 48  1  0  0  0  0
 16 17  1  0  0  0  0
 17 18  1  0  0  0  0
 17 19  2  0  0  0  0
 18 49  1  0  0  0  0
 18 50  1  0  0  0  0
 19 20  1  0  0  0  0
 20 21  2  0  0  0  0
 21 22  1  0  0  0  0
 21 38  1  0  0  0  0
 22 23  2  0  0  0  0
 22 24  1  0  0  0  0
 24 25  1  0  0  0  0
 24 32  1  0  0  0  0
 25 26  1  0  0  0  0
 25 51  1  0  0  0  0
 25 52  1  0  0  0  0
 26 27  1  0  0  0  0
 26 31  2  0  0  0  0
 27 28  2  0  0  0  0
 27 53  1  0  0  0  0
 28 29  1  0  0  0  0
 28 54  1  0  0  0  0
 29 30  2  0  0  0  0
 29 55  1  0  0  0  0
 30 31  1  0  0  0  0
 30 56  1  0  0  0  0
 31 57  1  0  0  0  0
 32 33  1  0  0  0  0
 32 38  2  0  0  0  0
 33 34  2  0  0  0  0
 33 58  1  0  0  0  0
 34 35  1  0  0  0  0
 34 59  1  0  0  0  0
 35 36  1  0  0  0  0
 35 37  2  0  0  0  0
 37 38  1  0  0  0  0
 37 60  1  0  0  0  0
M  END
$$$$
