CHEMBL469469
 OpenBabel04072215383D

 69 72  0  0  0  0  0  0  0  0999 V2000
    4.5320   -2.3503   -4.8102 C   0  0  0  0  0  0  0  0  0  0  0  0
    4.2298   -1.0141   -4.1396 C   0  0  0  0  0  0  0  0  0  0  0  0
    4.5980    0.1712   -4.9294 N   0  0  0  0  0  0  0  0  0  0  0  0
    4.0030    0.2003   -6.2792 C   0  0  0  0  0  0  0  0  0  0  0  0
    2.4812    0.3216   -6.3572 C   0  0  0  0  0  0  0  0  0  0  0  0
    4.3194    1.4303   -4.1971 C   0  0  0  0  0  0  0  0  0  0  0  0
    5.0309    1.5921   -2.8358 C   0  0  0  0  0  0  0  0  0  0  0  0
    6.4751    1.6315   -2.9282 N   0  0  0  0  0  0  0  0  0  0  0  0
    7.1598    2.8151   -3.0578 C   0  0  0  0  0  0  0  0  0  0  0  0
    6.5951    3.9025   -3.1392 O   0  0  0  0  0  0  0  0  0  0  0  0
    8.6058    2.7152   -3.0581 C   0  0  0  0  0  0  0  0  0  0  0  0
    9.5025    3.8019   -3.1218 C   0  0  0  0  0  0  0  0  0  0  0  0
   10.7830    3.4385   -3.0847 N   0  0  0  0  0  0  0  0  0  0  0  0
   10.7396    2.0788   -2.9781 N   0  0  0  0  0  0  0  0  0  0  0  0
   11.8581    1.2046   -2.9128 C   0  0  0  0  0  0  0  0  0  0  0  0
   13.1199    1.7988   -2.8778 N   0  0  0  0  0  0  0  0  0  0  0  0
   11.6247   -0.1263   -2.8990 C   0  0  0  0  0  0  0  0  0  0  0  0
   12.6812   -1.1423   -2.8437 C   0  0  0  0  0  0  0  0  0  0  0  0
   13.1568   -1.5796   -1.6050 C   0  0  0  0  0  0  0  0  0  0  0  0
   14.1486   -2.5586   -1.5388 C   0  0  0  0  0  0  0  0  0  0  0  0
   14.6846   -3.1304   -2.6971 C   0  0  0  0  0  0  0  0  0  0  0  0
   15.6522   -4.1609   -2.6573 N   0  0  0  0  0  0  0  0  0  0  0  0
   15.8166   -5.0288   -1.5879 C   0  0  0  0  0  0  0  0  0  0  0  0
   15.0741   -5.0718   -0.6087 O   0  0  0  0  0  0  0  0  0  0  0  0
   16.9296   -5.8423   -1.7439 N   0  0  0  0  0  0  0  0  0  0  0  0
   17.2303   -6.8364   -0.7812 C   0  0  0  0  0  0  0  0  0  0  0  0
   16.2405   -7.6959   -0.2925 C   0  0  0  0  0  0  0  0  0  0  0  0
   16.5475   -8.6439    0.6831 C   0  0  0  0  0  0  0  0  0  0  0  0
   17.8396   -8.7171    1.1997 C   0  0  0  0  0  0  0  0  0  0  0  0
   18.8375   -7.8533    0.7320 C   0  0  0  0  0  0  0  0  0  0  0  0
   20.2034   -7.8576    1.3526 C   0  0  0  0  0  0  0  0  0  0  0  0
   18.5353   -6.9404   -0.2918 C   0  0  0  0  0  0  0  0  0  0  0  0
   14.2465   -2.6547   -3.9375 C   0  0  0  0  0  0  0  0  0  0  0  0
   13.2433   -1.6755   -4.0106 C   0  0  0  0  0  0  0  0  0  0  0  0
   10.1808   -0.5286   -2.8819 C   0  0  0  0  0  0  0  0  0  0  0  0
    9.1455    0.2585   -2.9173 N   0  0  0  0  0  0  0  0  0  0  0  0
    9.4222    1.5991   -2.9836 C   0  0  0  0  0  0  0  0  0  0  0  0
    4.4692   -3.1544   -4.0687 H   0  0  0  0  0  0  0  0  0  0  0  0
    5.5429   -2.3663   -5.2307 H   0  0  0  0  0  0  0  0  0  0  0  0
    3.8141   -2.5776   -5.6038 H   0  0  0  0  0  0  0  0  0  0  0  0
    4.8152   -1.0184   -3.2151 H   0  0  0  0  0  0  0  0  0  0  0  0
    3.1738   -0.9855   -3.8460 H   0  0  0  0  0  0  0  0  0  0  0  0
    4.3144   -0.6914   -6.8354 H   0  0  0  0  0  0  0  0  0  0  0  0
    4.4423    1.0348   -6.8419 H   0  0  0  0  0  0  0  0  0  0  0  0
    1.9712   -0.3669   -5.6780 H   0  0  0  0  0  0  0  0  0  0  0  0
    2.1411    0.0880   -7.3722 H   0  0  0  0  0  0  0  0  0  0  0  0
    2.1528    1.3405   -6.1282 H   0  0  0  0  0  0  0  0  0  0  0  0
    3.2413    1.5259   -4.0171 H   0  0  0  0  0  0  0  0  0  0  0  0
    4.6165    2.2776   -4.8290 H   0  0  0  0  0  0  0  0  0  0  0  0
    4.7681    0.7890   -2.1413 H   0  0  0  0  0  0  0  0  0  0  0  0
    4.6823    2.5221   -2.3720 H   0  0  0  0  0  0  0  0  0  0  0  0
    7.0011    0.7631   -2.9843 H   0  0  0  0  0  0  0  0  0  0  0  0
    9.2549    4.8545   -3.1923 H   0  0  0  0  0  0  0  0  0  0  0  0
   13.0920    2.7656   -3.2129 H   0  0  0  0  0  0  0  0  0  0  0  0
   13.8692    1.2379   -3.2704 H   0  0  0  0  0  0  0  0  0  0  0  0
   12.7648   -1.1635   -0.6808 H   0  0  0  0  0  0  0  0  0  0  0  0
   14.4948   -2.8563   -0.5480 H   0  0  0  0  0  0  0  0  0  0  0  0
   16.0248   -4.4866   -3.5385 H   0  0  0  0  0  0  0  0  0  0  0  0
   17.7188   -5.3823   -2.1734 H   0  0  0  0  0  0  0  0  0  0  0  0
   15.2203   -7.6323   -0.6622 H   0  0  0  0  0  0  0  0  0  0  0  0
   15.7712   -9.3064    1.0564 H   0  0  0  0  0  0  0  0  0  0  0  0
   18.0552   -9.4396    1.9839 H   0  0  0  0  0  0  0  0  0  0  0  0
   20.2777   -8.5993    2.1550 H   0  0  0  0  0  0  0  0  0  0  0  0
   20.4153   -6.8760    1.7906 H   0  0  0  0  0  0  0  0  0  0  0  0
   20.9631   -8.0904    0.6013 H   0  0  0  0  0  0  0  0  0  0  0  0
   19.3077   -6.2612   -0.6418 H   0  0  0  0  0  0  0  0  0  0  0  0
   14.6508   -3.0580   -4.8617 H   0  0  0  0  0  0  0  0  0  0  0  0
   12.8991   -1.3400   -4.9868 H   0  0  0  0  0  0  0  0  0  0  0  0
   10.0004   -1.6166   -2.8257 H   0  0  0  0  0  0  0  0  0  0  0  0
  1  2  1  0  0  0  0
  1 38  1  0  0  0  0
  1 39  1  0  0  0  0
  1 40  1  0  0  0  0
  2  3  1  0  0  0  0
  2 41  1  0  0  0  0
  2 42  1  0  0  0  0
  3  4  1  0  0  0  0
  3  6  1  0  0  0  0
  4  5  1  0  0  0  0
  4 43  1  0  0  0  0
  4 44  1  0  0  0  0
  5 45  1  0  0  0  0
  5 46  1  0  0  0  0
  5 47  1  0  0  0  0
  6  7  1  0  0  0  0
  6 48  1  0  0  0  0
  6 49  1  0  0  0  0
  7  8  1  0  0  0  0
  7 50  1  0  0  0  0
  7 51  1  0  0  0  0
  8  9  1  0  0  0  0
  8 52  1  0  0  0  0
  9 10  2  0  0  0  0
  9 11  1  0  0  0  0
 11 12  1  0  0  0  0
 11 37  2  0  0  0  0
 12 13  2  0  0  0  0
 12 53  1  0  0  0  0
 13 14  1  0  0  0  0
 14 15  1  0  0  0  0
 14 37  1  0  0  0  0
 15 16  1  0  0  0  0
 15 17  2  0  0  0  0
 16 54  1  0  0  0  0
 16 55  1  0  0  0  0
 17 18  1  0  0  0  0
 17 35  1  0  0  0  0
 18 19  1  0  0  0  0
 18 34  2  0  0  0  0
 19 20  2  0  0  0  0
 19 56  1  0  0  0  0
 20 21  1  0  0  0  0
 20 57  1  0  0  0  0
 21 22  1  0  0  0  0
 21 33  2  0  0  0  0
 22 23  1  0  0  0  0
 22 58  1  0  0  0  0
 23 24  2  0  0  0  0
 23 25  1  0  0  0  0
 25 26  1  0  0  0  0
 25 59  1  0  0  0  0
 26 27  1  0  0  0  0
 26 32  2  0  0  0  0
 27 28  2  0  0  0  0
 27 60  1  0  0  0  0
 28 29  1  0  0  0  0
 28 61  1  0  0  0  0
 29 30  2  0  0  0  0
 29 62  1  0  0  0  0
 30 31  1  0  0  0  0
 30 32  1  0  0  0  0
 31 63  1  0  0  0  0
 31 64  1  0  0  0  0
 31 65  1  0  0  0  0
 32 66  1  0  0  0  0
 33 34  1  0  0  0  0
 33 67  1  0  0  0  0
 34 68  1  0  0  0  0
 35 36  2  0  0  0  0
 35 69  1  0  0  0  0
 36 37  1  0  0  0  0
M  END
$$$$
