CHEMBL3648104
 OpenBabel04072215373D

 46 47  0  0  1  0  0  0  0  0999 V2000
    0.8384    0.7864   -0.1887 C   0  0  0  0  0  0  0  0  0  0  0  0
    2.2972    0.3442   -0.0682 C   0  0  3  0  0  0  0  0  0  0  0  0
    3.3328    1.0994   -1.4033 S   0  0  0  0  0  0  0  0  0  0  0  0
    2.5509    0.5568   -2.9247 C   0  0  0  0  0  0  0  0  0  0  0  0
    2.4733   -0.7851   -3.1294 N   0  0  0  0  0  0  0  0  0  0  0  0
    2.1713   -1.1954   -4.3745 C   0  0  0  0  0  0  0  0  0  0  0  0
    2.1357   -2.5626   -4.6550 N   0  0  0  0  0  0  0  0  0  0  0  0
    2.3827   -3.1825   -5.8904 C   0  0  0  0  0  0  0  0  0  0  0  0
    3.2895   -2.6265   -6.8074 C   0  0  0  0  0  0  0  0  0  0  0  0
    3.4390   -3.1384   -8.0981 C   0  0  0  0  0  0  0  0  0  0  0  0
    2.6642   -4.2222   -8.4994 C   0  0  0  0  0  0  0  0  0  0  0  0
    2.7538   -4.7539  -10.2014 S   0  0  3  0  0  0  0  0  0  0  0  0
    3.3079   -6.4367  -10.1062 C   0  0  0  0  0  0  0  0  0  0  0  0
    1.3035   -4.7476  -10.7235 N   0  0  0  0  0  0  0  0  0  0  0  0
    3.8419   -4.0183  -10.8191 O   0  0  0  0  0  0  0  0  0  0  0  0
    1.7716   -4.8214   -7.5972 C   0  0  0  0  0  0  0  0  0  0  0  0
    1.6417   -4.3009   -6.2986 C   0  0  0  0  0  0  0  0  0  0  0  0
    1.8870   -0.3459   -5.3779 N   0  0  0  0  0  0  0  0  0  0  0  0
    1.8990    0.9695   -5.1192 C   0  0  0  0  0  0  0  0  0  0  0  0
    2.2321    1.4907   -3.8987 C   0  0  0  0  0  0  0  0  0  0  0  0
    2.2359    3.3675   -3.6777 Br  0  0  0  0  0  0  0  0  0  0  0  0
    2.9375    0.7057    1.3190 C   0  0  0  0  0  0  0  0  0  0  0  0
    2.9428    2.2079    1.6509 C   0  0  0  0  0  0  0  0  0  0  0  0
    2.2579   -0.0456    2.4719 C   0  0  0  0  0  0  0  0  0  0  0  0
    4.3069    0.2599    1.3353 O   0  0  0  0  0  0  0  0  0  0  0  0
    0.3993    0.4809   -1.1433 H   0  0  0  0  0  0  0  0  0  0  0  0
    0.7234    1.8716   -0.0986 H   0  0  0  0  0  0  0  0  0  0  0  0
    0.2261    0.3223    0.5916 H   0  0  0  0  0  0  0  0  0  0  0  0
    2.3619   -0.7410   -0.2099 H   0  0  0  0  0  0  0  0  0  0  0  0
    1.9245   -3.1321   -3.8522 H   0  0  0  0  0  0  0  0  0  0  0  0
    3.8860   -1.7607   -6.5263 H   0  0  0  0  0  0  0  0  0  0  0  0
    4.1323   -2.6548   -8.7820 H   0  0  0  0  0  0  0  0  0  0  0  0
    2.5815   -7.0377   -9.5591 H   0  0  0  0  0  0  0  0  0  0  0  0
    4.2809   -6.4596   -9.6142 H   0  0  0  0  0  0  0  0  0  0  0  0
    3.4102   -6.8123  -11.1278 H   0  0  0  0  0  0  0  0  0  0  0  0
    0.7055   -5.4529  -10.2950 H   0  0  0  0  0  0  0  0  0  0  0  0
    1.1437   -5.6524   -7.8988 H   0  0  0  0  0  0  0  0  0  0  0  0
    0.9045   -4.7397   -5.6281 H   0  0  0  0  0  0  0  0  0  0  0  0
    1.6421    1.5988   -5.9656 H   0  0  0  0  0  0  0  0  0  0  0  0
    1.9305    2.6151    1.7327 H   0  0  0  0  0  0  0  0  0  0  0  0
    3.4942    2.7917    0.9080 H   0  0  0  0  0  0  0  0  0  0  0  0
    3.4554    2.3890    2.6030 H   0  0  0  0  0  0  0  0  0  0  0  0
    1.2221    0.2732    2.6230 H   0  0  0  0  0  0  0  0  0  0  0  0
    2.7992    0.1168    3.4111 H   0  0  0  0  0  0  0  0  0  0  0  0
    2.2715   -1.1274    2.2936 H   0  0  0  0  0  0  0  0  0  0  0  0
    4.7334    0.6465    0.5453 H   0  0  0  0  0  0  0  0  0  0  0  0
  1  2  1  0  0  0  0
  1 26  1  0  0  0  0
  1 27  1  0  0  0  0
  1 28  1  0  0  0  0
  2  3  1  0  0  0  0
  2 22  1  0  0  0  0
  2 29  1  0  0  0  0
  3  4  1  0  0  0  0
  4  5  1  0  0  0  0
  4 20  2  0  0  0  0
  5  6  2  0  0  0  0
  6  7  1  0  0  0  0
  6 18  1  0  0  0  0
  7  8  1  0  0  0  0
  7 30  1  0  0  0  0
  8  9  1  0  0  0  0
  8 17  2  0  0  0  0
  9 10  2  0  0  0  0
  9 31  1  0  0  0  0
 10 11  1  0  0  0  0
 10 32  1  0  0  0  0
 11 12  1  0  0  0  0
 11 16  2  0  0  0  0
 12 13  1  0  0  0  0
 12 14  2  0  0  0  0
 12 15  2  0  0  0  0
 13 33  1  0  0  0  0
 13 34  1  0  0  0  0
 13 35  1  0  0  0  0
 14 36  1  0  0  0  0
 16 17  1  0  0  0  0
 16 37  1  0  0  0  0
 17 38  1  0  0  0  0
 18 19  2  0  0  0  0
 19 20  1  0  0  0  0
 19 39  1  0  0  0  0
 20 21  1  0  0  0  0
 22 23  1  0  0  0  0
 22 24  1  0  0  0  0
 22 25  1  0  0  0  0
 23 40  1  0  0  0  0
 23 41  1  0  0  0  0
 23 42  1  0  0  0  0
 24 43  1  0  0  0  0
 24 44  1  0  0  0  0
 24 45  1  0  0  0  0
 25 46  1  0  0  0  0
M  END
$$$$
