CHEMBL401881
 OpenBabel04072215373D

 65 71  0  0  0  0  0  0  0  0999 V2000
    2.3157    0.2005    0.3792 C   0  0  0  0  0  0  0  0  0  0  0  0
    0.8628   -0.0157    0.6799 C   0  0  0  0  0  0  0  0  0  0  0  0
    0.1226    0.9524    1.4434 C   0  0  0  0  0  0  0  0  0  0  0  0
   -1.1939    0.6012    1.6255 C   0  0  0  0  0  0  0  0  0  0  0  0
   -1.5599   -0.8835    0.8759 S   0  0  0  0  0  0  0  0  0  0  0  0
    0.0563   -1.0985    0.3062 C   0  0  0  0  0  0  0  0  0  0  0  0
    0.3366   -2.3449   -0.4366 C   0  0  0  0  0  0  0  0  0  0  0  0
   -0.4764   -2.9011   -1.1772 O   0  0  0  0  0  0  0  0  0  0  0  0
    1.6420   -3.0464   -0.2622 C   0  0  0  0  0  0  0  0  0  0  0  0
    2.2675   -2.8827    0.9721 C   0  0  0  0  0  0  0  0  0  0  0  0
    3.5451   -3.3422    1.1642 C   0  0  0  0  0  0  0  0  0  0  0  0
    4.1292   -4.1347    0.1903 C   0  0  0  0  0  0  0  0  0  0  0  0
    3.4989   -4.4613   -1.0335 C   0  0  0  0  0  0  0  0  0  0  0  0
    2.2276   -3.8738   -1.2717 C   0  0  0  0  0  0  0  0  0  0  0  0
    4.4727   -5.2817   -1.6491 C   0  0  0  0  0  0  0  0  0  0  0  0
    4.4910   -5.8592   -2.9521 C   0  0  0  0  0  0  0  0  0  0  0  0
    5.7706   -6.3884   -3.4727 C   0  0  0  0  0  0  0  0  0  0  0  0
    7.0031   -6.4475   -2.7817 C   0  0  0  0  0  0  0  0  0  0  0  0
    6.8122   -6.0396   -1.4656 C   0  0  0  0  0  0  0  0  0  0  0  0
    5.6140   -5.4528   -0.9414 C   0  0  0  0  0  0  0  0  0  0  0  0
    5.3993   -4.6856    0.1993 N   0  0  0  0  0  0  0  0  0  0  0  0
    6.4918   -4.1493    0.9748 C   0  0  0  0  0  0  0  0  0  0  0  0
    6.6089   -3.7342    2.4188 C   0  0  0  0  0  0  0  0  0  0  0  0
    6.0650   -4.8630    3.2843 C   0  0  0  0  0  0  0  0  0  0  0  0
    8.1311   -3.5513    2.6709 C   0  0  0  0  0  0  0  0  0  0  0  0
    8.0703   -5.8499   -0.7213 C   0  0  0  0  0  0  0  0  0  0  0  0
    9.2676   -5.0590   -1.1498 C   0  0  0  0  0  0  0  0  0  0  0  0
    9.2961   -5.2162   -2.6354 C   0  0  0  0  0  0  0  0  0  0  0  0
   10.5260   -5.2556   -3.1527 N   0  0  0  0  0  0  0  0  0  0  0  0
   10.7614   -6.5591   -2.8821 N   0  0  0  0  0  0  0  0  0  0  0  0
   11.8428   -6.7868   -1.9160 C   0  0  0  0  0  0  0  0  0  0  0  0
    9.5221   -7.2646   -3.0346 C   0  0  0  0  0  0  0  0  0  0  0  0
    8.4882   -6.2949   -3.2362 C   0  0  0  0  0  0  0  0  0  0  0  0
    5.4532   -6.9337   -4.8381 C   0  0  0  0  0  0  0  0  0  0  0  0
    6.1378   -7.6181   -5.5919 O   0  0  0  0  0  0  0  0  0  0  0  0
    4.1563   -6.6493   -5.0095 N   0  0  0  0  0  0  0  0  0  0  0  0
    3.4262   -5.8870   -3.9474 C   0  0  0  0  0  0  0  0  0  0  0  0
    2.5583    1.2688    0.3850 H   0  0  0  0  0  0  0  0  0  0  0  0
    2.5913   -0.1990   -0.5992 H   0  0  0  0  0  0  0  0  0  0  0  0
    2.9408   -0.2620    1.1508 H   0  0  0  0  0  0  0  0  0  0  0  0
    0.5409    1.8720    1.8380 H   0  0  0  0  0  0  0  0  0  0  0  0
   -1.9569    1.1546    2.1579 H   0  0  0  0  0  0  0  0  0  0  0  0
    1.8039   -2.3434    1.7914 H   0  0  0  0  0  0  0  0  0  0  0  0
    4.0608   -3.0870    2.0775 H   0  0  0  0  0  0  0  0  0  0  0  0
    1.6925   -4.0233   -2.2057 H   0  0  0  0  0  0  0  0  0  0  0  0
    6.9398   -3.3619    0.3421 H   0  0  0  0  0  0  0  0  0  0  0  0
    7.1165   -5.0355    1.0858 H   0  0  0  0  0  0  0  0  0  0  0  0
    6.1041   -2.7842    2.5929 H   0  0  0  0  0  0  0  0  0  0  0  0
    6.7012   -5.7543    3.2074 H   0  0  0  0  0  0  0  0  0  0  0  0
    5.0633   -5.1586    2.9605 H   0  0  0  0  0  0  0  0  0  0  0  0
    6.0238   -4.5599    4.3284 H   0  0  0  0  0  0  0  0  0  0  0  0
    8.6779   -4.4990    2.5474 H   0  0  0  0  0  0  0  0  0  0  0  0
    8.3238   -3.1821    3.6762 H   0  0  0  0  0  0  0  0  0  0  0  0
    8.5739   -2.8490    1.9501 H   0  0  0  0  0  0  0  0  0  0  0  0
    7.6871   -4.9300   -0.4172 H   0  0  0  0  0  0  0  0  0  0  0  0
    8.2873   -6.8481   -0.3416 H   0  0  0  0  0  0  0  0  0  0  0  0
   10.1166   -5.4661   -0.5719 H   0  0  0  0  0  0  0  0  0  0  0  0
    9.2435   -4.0090   -0.8185 H   0  0  0  0  0  0  0  0  0  0  0  0
   12.1269   -5.8179   -1.4626 H   0  0  0  0  0  0  0  0  0  0  0  0
   12.7198   -7.1757   -2.4226 H   0  0  0  0  0  0  0  0  0  0  0  0
   11.4961   -7.4299   -1.1026 H   0  0  0  0  0  0  0  0  0  0  0  0
    9.5073   -8.3155   -2.7863 H   0  0  0  0  0  0  0  0  0  0  0  0
    3.6677   -7.0616   -5.7840 H   0  0  0  0  0  0  0  0  0  0  0  0
    2.5502   -6.4534   -3.6362 H   0  0  0  0  0  0  0  0  0  0  0  0
    3.1555   -4.9085   -4.3844 H   0  0  0  0  0  0  0  0  0  0  0  0
  1  2  1  0  0  0  0
  1 38  1  0  0  0  0
  1 39  1  0  0  0  0
  1 40  1  0  0  0  0
  2  3  1  0  0  0  0
  2  6  2  0  0  0  0
  3  4  2  0  0  0  0
  3 41  1  0  0  0  0
  4  5  1  0  0  0  0
  4 42  1  0  0  0  0
  5  6  1  0  0  0  0
  6  7  1  0  0  0  0
  7  8  2  0  0  0  0
  7  9  1  0  0  0  0
  9 10  1  0  0  0  0
  9 14  2  0  0  0  0
 10 11  2  0  0  0  0
 10 43  1  0  0  0  0
 11 12  1  0  0  0  0
 11 44  1  0  0  0  0
 12 13  2  0  0  0  0
 12 21  1  0  0  0  0
 13 14  1  0  0  0  0
 13 15  1  0  0  0  0
 14 45  1  0  0  0  0
 15 16  1  0  0  0  0
 15 20  2  0  0  0  0
 16 17  2  0  0  0  0
 16 37  1  0  0  0  0
 17 18  1  0  0  0  0
 17 34  1  0  0  0  0
 18 19  2  0  0  0  0
 18 33  1  0  0  0  0
 19 20  1  0  0  0  0
 19 26  1  0  0  0  0
 20 21  1  0  0  0  0
 21 22  1  0  0  0  0
 22 23  1  0  0  0  0
 22 46  1  0  0  0  0
 22 47  1  0  0  0  0
 23 24  1  0  0  0  0
 23 25  1  0  0  0  0
 23 48  1  0  0  0  0
 24 49  1  0  0  0  0
 24 50  1  0  0  0  0
 24 51  1  0  0  0  0
 25 52  1  0  0  0  0
 25 53  1  0  0  0  0
 25 54  1  0  0  0  0
 26 27  1  0  0  0  0
 26 55  1  0  0  0  0
 26 56  1  0  0  0  0
 27 28  1  0  0  0  0
 27 57  1  0  0  0  0
 27 58  1  0  0  0  0
 28 29  2  0  0  0  0
 28 33  1  0  0  0  0
 29 30  1  0  0  0  0
 30 31  1  0  0  0  0
 30 32  1  0  0  0  0
 31 59  1  0  0  0  0
 31 60  1  0  0  0  0
 31 61  1  0  0  0  0
 32 33  2  0  0  0  0
 32 62  1  0  0  0  0
 34 35  2  0  0  0  0
 34 36  1  0  0  0  0
 36 37  1  0  0  0  0
 36 63  1  0  0  0  0
 37 64  1  0  0  0  0
 37 65  1  0  0  0  0
M  END
$$$$
