CHEMBL3913927
 OpenBabel04072215373D

 50 53  0  0  0  0  0  0  0  0999 V2000
    1.2050    0.8538    0.1606 O   0  0  0  0  0  0  0  0  0  0  0  0
    2.3173    0.3467    0.0357 C   0  0  0  0  0  0  0  0  0  0  0  0
    2.8309   -0.1937   -1.1099 N   0  0  0  0  0  0  0  0  0  0  0  0
    2.2241   -0.3085   -2.3695 C   0  0  0  0  0  0  0  0  0  0  0  0
    1.0759    0.3916   -2.7434 C   0  0  0  0  0  0  0  0  0  0  0  0
    0.4757    0.1554   -3.9867 C   0  0  0  0  0  0  0  0  0  0  0  0
    1.0147   -0.7880   -4.8630 C   0  0  0  0  0  0  0  0  0  0  0  0
    0.3346   -0.9795   -6.0430 O   0  0  0  0  0  0  0  0  0  0  0  0
    0.1875   -2.2482   -6.5653 C   0  0  0  0  0  0  0  0  0  0  0  0
    0.2606   -3.4280   -5.8329 C   0  0  0  0  0  0  0  0  0  0  0  0
    0.1393   -4.6174   -6.5201 C   0  0  0  0  0  0  0  0  0  0  0  0
   -0.1075   -4.6917   -7.8397 N   0  0  0  0  0  0  0  0  0  0  0  0
   -0.2487   -3.5514   -8.5346 C   0  0  0  0  0  0  0  0  0  0  0  0
   -0.5622   -3.6033   -9.9017 N   0  0  0  0  0  0  0  0  0  0  0  0
   -0.7127   -4.7771  -10.6136 C   0  0  0  0  0  0  0  0  0  0  0  0
   -0.5763   -5.9238  -10.2166 O   0  0  0  0  0  0  0  0  0  0  0  0
   -1.1189   -4.5618  -12.0401 C   0  0  0  0  0  0  0  0  0  0  0  0
   -2.4023   -5.1918  -12.5359 C   0  0  0  0  0  0  0  0  0  0  0  0
   -1.0830   -5.7217  -13.0145 C   0  0  0  0  0  0  0  0  0  0  0  0
   -0.1063   -2.3079   -7.9306 C   0  0  0  0  0  0  0  0  0  0  0  0
    2.2191   -1.4059   -4.5243 C   0  0  0  0  0  0  0  0  0  0  0  0
    2.8235   -2.2545   -5.3686 F   0  0  0  0  0  0  0  0  0  0  0  0
    2.8148   -1.1832   -3.2848 C   0  0  0  0  0  0  0  0  0  0  0  0
    3.1114    0.2658    1.1504 N   0  0  0  0  0  0  0  0  0  0  0  0
    4.4353   -0.1743    1.2615 C   0  0  0  0  0  0  0  0  0  0  0  0
    5.0224   -0.1487    2.5091 C   0  0  0  0  0  0  0  0  0  0  0  0
    6.3517   -0.5359    2.5839 C   0  0  0  0  0  0  0  0  0  0  0  0
    7.0735   -0.5178    3.9220 C   0  0  0  0  0  0  0  0  0  0  0  0
    6.2682   -0.1356    4.9574 F   0  0  0  0  0  0  0  0  0  0  0  0
    7.5687   -1.7363    4.2767 F   0  0  0  0  0  0  0  0  0  0  0  0
    8.1279    0.3448    3.9438 F   0  0  0  0  0  0  0  0  0  0  0  0
    7.0430   -0.9210    1.4805 N   0  0  0  0  0  0  0  0  0  0  0  0
    6.3777   -0.9216    0.3228 C   0  0  0  0  0  0  0  0  0  0  0  0
    5.0939   -0.5799    0.1613 N   0  0  0  0  0  0  0  0  0  0  0  0
    3.7217   -0.6644   -0.9760 H   0  0  0  0  0  0  0  0  0  0  0  0
    0.6302    1.1342   -2.0869 H   0  0  0  0  0  0  0  0  0  0  0  0
   -0.4221    0.7047   -4.2588 H   0  0  0  0  0  0  0  0  0  0  0  0
    0.4332   -3.4509   -4.7652 H   0  0  0  0  0  0  0  0  0  0  0  0
    0.2405   -5.5755   -6.0189 H   0  0  0  0  0  0  0  0  0  0  0  0
   -0.7059   -2.7270  -10.3793 H   0  0  0  0  0  0  0  0  0  0  0  0
   -0.8588   -3.5952  -12.4588 H   0  0  0  0  0  0  0  0  0  0  0  0
   -3.0111   -4.6384  -13.2396 H   0  0  0  0  0  0  0  0  0  0  0  0
   -2.9688   -5.8111  -11.8471 H   0  0  0  0  0  0  0  0  0  0  0  0
   -0.7916   -5.5238  -14.0384 H   0  0  0  0  0  0  0  0  0  0  0  0
   -0.7661   -6.6941  -12.6485 H   0  0  0  0  0  0  0  0  0  0  0  0
   -0.2167   -1.3893   -8.4951 H   0  0  0  0  0  0  0  0  0  0  0  0
    3.7207   -1.7297   -3.0416 H   0  0  0  0  0  0  0  0  0  0  0  0
    2.6461    0.6214    1.9741 H   0  0  0  0  0  0  0  0  0  0  0  0
    4.4771    0.1645    3.3919 H   0  0  0  0  0  0  0  0  0  0  0  0
    6.9264   -1.2195   -0.5646 H   0  0  0  0  0  0  0  0  0  0  0  0
  1  2  2  0  0  0  0
  2  3  1  0  0  0  0
  2 24  1  0  0  0  0
  3  4  1  0  0  0  0
  3 35  1  0  0  0  0
  4  5  1  0  0  0  0
  4 23  2  0  0  0  0
  5  6  2  0  0  0  0
  5 36  1  0  0  0  0
  6  7  1  0  0  0  0
  6 37  1  0  0  0  0
  7  8  1  0  0  0  0
  7 21  2  0  0  0  0
  8  9  1  0  0  0  0
  9 10  1  0  0  0  0
  9 20  2  0  0  0  0
 10 11  2  0  0  0  0
 10 38  1  0  0  0  0
 11 12  1  0  0  0  0
 11 39  1  0  0  0  0
 12 13  2  0  0  0  0
 13 14  1  0  0  0  0
 13 20  1  0  0  0  0
 14 15  1  0  0  0  0
 14 40  1  0  0  0  0
 15 16  2  0  0  0  0
 15 17  1  0  0  0  0
 17 18  1  0  0  0  0
 17 19  1  0  0  0  0
 17 41  1  0  0  0  0
 18 19  1  0  0  0  0
 18 42  1  0  0  0  0
 18 43  1  0  0  0  0
 19 44  1  0  0  0  0
 19 45  1  0  0  0  0
 20 46  1  0  0  0  0
 21 22  1  0  0  0  0
 21 23  1  0  0  0  0
 23 47  1  0  0  0  0
 24 25  1  0  0  0  0
 24 48  1  0  0  0  0
 25 26  1  0  0  0  0
 25 34  2  0  0  0  0
 26 27  2  0  0  0  0
 26 49  1  0  0  0  0
 27 28  1  0  0  0  0
 27 32  1  0  0  0  0
 28 29  1  0  0  0  0
 28 30  1  0  0  0  0
 28 31  1  0  0  0  0
 32 33  2  0  0  0  0
 33 34  1  0  0  0  0
 33 50  1  0  0  0  0
M  END
$$$$
