CHEMBL4166401
 OpenBabel04072215383D

 53 57  0  0  0  0  0  0  0  0999 V2000
    1.5935   -0.3669    1.6598 N   0  0  0  0  0  0  0  0  0  0  0  0
    2.8346   -0.3309    1.0625 C   0  0  0  0  0  0  0  0  0  0  0  0
    3.2857   -1.4647    0.5235 N   0  0  0  0  0  0  0  0  0  0  0  0
    4.4728   -1.3888   -0.1036 C   0  0  0  0  0  0  0  0  0  0  0  0
    5.2199   -0.2273   -0.1970 C   0  0  0  0  0  0  0  0  0  0  0  0
    6.4377   -0.1428   -0.8867 C   0  0  0  0  0  0  0  0  0  0  0  0
    7.1343    1.0634   -0.9058 C   0  0  0  0  0  0  0  0  0  0  0  0
    6.6420    2.1985   -0.2389 C   0  0  0  0  0  0  0  0  0  0  0  0
    7.4201    3.4579   -0.2128 C   0  0  0  0  0  0  0  0  0  0  0  0
    8.1979    3.8497   -1.3129 C   0  0  0  0  0  0  0  0  0  0  0  0
    9.0130    4.9849   -1.2709 C   0  0  0  0  0  0  0  0  0  0  0  0
    9.0667    5.7788   -0.1294 C   0  0  0  0  0  0  0  0  0  0  0  0
    9.9046    6.9048   -0.0141 N   0  0  0  0  0  0  0  0  0  0  0  0
   10.6793    7.4565   -1.0150 C   0  0  0  0  0  0  0  0  0  0  0  0
   10.7384    7.1347   -2.1921 O   0  0  0  0  0  0  0  0  0  0  0  0
   11.5674    8.5651   -0.5545 C   0  0  0  0  0  0  0  0  0  0  0  0
   12.9451    8.1388   -0.1414 C   0  0  0  0  0  0  0  0  0  0  0  0
   13.2448    8.2316    1.0389 O   0  0  0  0  0  0  0  0  0  0  0  0
   13.7478    7.6957   -1.1789 N   0  0  0  0  0  0  0  0  0  0  0  0
   15.0961    7.2918   -1.0582 C   0  0  0  0  0  0  0  0  0  0  0  0
   15.7025    7.0248    0.1770 C   0  0  0  0  0  0  0  0  0  0  0  0
   17.0703    6.7532    0.2642 C   0  0  0  0  0  0  0  0  0  0  0  0
   17.8366    6.7334   -0.8911 C   0  0  0  0  0  0  0  0  0  0  0  0
   19.1568    6.5242   -0.8019 F   0  0  0  0  0  0  0  0  0  0  0  0
   17.2356    6.9346   -2.1271 C   0  0  0  0  0  0  0  0  0  0  0  0
   17.9765    6.9042   -3.2439 F   0  0  0  0  0  0  0  0  0  0  0  0
   15.8672    7.1954   -2.2227 C   0  0  0  0  0  0  0  0  0  0  0  0
   10.9439    9.7580    0.1778 C   0  0  0  0  0  0  0  0  0  0  0  0
   11.4046    9.9248   -1.2347 C   0  0  0  0  0  0  0  0  0  0  0  0
    8.2768    5.4270    0.9673 C   0  0  0  0  0  0  0  0  0  0  0  0
    7.4616    4.2852    0.9225 C   0  0  0  0  0  0  0  0  0  0  0  0
    5.4022    2.0733    0.4197 C   0  0  0  0  0  0  0  0  0  0  0  0
    4.6778    0.8834    0.4494 C   0  0  0  0  0  0  0  0  0  0  0  0
    3.4971    0.8302    1.0829 N   0  0  0  0  0  0  0  0  0  0  0  0
    1.3644   -1.3125    1.9288 H   0  0  0  0  0  0  0  0  0  0  0  0
    1.5186    0.3581    2.3577 H   0  0  0  0  0  0  0  0  0  0  0  0
    4.8139   -2.3200   -0.5470 H   0  0  0  0  0  0  0  0  0  0  0  0
    6.8481   -1.0055   -1.4057 H   0  0  0  0  0  0  0  0  0  0  0  0
    8.0851    1.0979   -1.4344 H   0  0  0  0  0  0  0  0  0  0  0  0
    8.1962    3.2683   -2.2323 H   0  0  0  0  0  0  0  0  0  0  0  0
    9.6147    5.1969   -2.1479 H   0  0  0  0  0  0  0  0  0  0  0  0
    9.9633    7.3335    0.9028 H   0  0  0  0  0  0  0  0  0  0  0  0
   13.3529    7.7393   -2.1137 H   0  0  0  0  0  0  0  0  0  0  0  0
   15.1312    7.0166    1.1005 H   0  0  0  0  0  0  0  0  0  0  0  0
   17.5344    6.5730    1.2283 H   0  0  0  0  0  0  0  0  0  0  0  0
   15.4423    7.3628   -3.2074 H   0  0  0  0  0  0  0  0  0  0  0  0
   11.5246   10.2396    0.9593 H   0  0  0  0  0  0  0  0  0  0  0  0
    9.8766    9.7623    0.3661 H   0  0  0  0  0  0  0  0  0  0  0  0
   12.2875   10.5289   -1.4097 H   0  0  0  0  0  0  0  0  0  0  0  0
   10.6435   10.0276   -2.0018 H   0  0  0  0  0  0  0  0  0  0  0  0
    8.2818    6.0242    1.8761 H   0  0  0  0  0  0  0  0  0  0  0  0
    6.8794    4.0364    1.8078 H   0  0  0  0  0  0  0  0  0  0  0  0
    4.9674    2.9327    0.9269 H   0  0  0  0  0  0  0  0  0  0  0  0
  1  2  1  0  0  0  0
  1 35  1  0  0  0  0
  1 36  1  0  0  0  0
  2  3  1  0  0  0  0
  2 34  2  0  0  0  0
  3  4  2  0  0  0  0
  4  5  1  0  0  0  0
  4 37  1  0  0  0  0
  5  6  1  0  0  0  0
  5 33  2  0  0  0  0
  6  7  2  0  0  0  0
  6 38  1  0  0  0  0
  7  8  1  0  0  0  0
  7 39  1  0  0  0  0
  8  9  1  0  0  0  0
  8 32  2  0  0  0  0
  9 10  1  0  0  0  0
  9 31  2  0  0  0  0
 10 11  2  0  0  0  0
 10 40  1  0  0  0  0
 11 12  1  0  0  0  0
 11 41  1  0  0  0  0
 12 13  1  0  0  0  0
 12 30  2  0  0  0  0
 13 14  1  0  0  0  0
 13 42  1  0  0  0  0
 14 15  2  0  0  0  0
 14 16  1  0  0  0  0
 16 17  1  0  0  0  0
 16 28  1  0  0  0  0
 16 29  1  0  0  0  0
 17 18  2  0  0  0  0
 17 19  1  0  0  0  0
 19 20  1  0  0  0  0
 19 43  1  0  0  0  0
 20 21  1  0  0  0  0
 20 27  2  0  0  0  0
 21 22  2  0  0  0  0
 21 44  1  0  0  0  0
 22 23  1  0  0  0  0
 22 45  1  0  0  0  0
 23 24  1  0  0  0  0
 23 25  2  0  0  0  0
 25 26  1  0  0  0  0
 25 27  1  0  0  0  0
 27 46  1  0  0  0  0
 28 29  1  0  0  0  0
 28 47  1  0  0  0  0
 28 48  1  0  0  0  0
 29 49  1  0  0  0  0
 29 50  1  0  0  0  0
 30 31  1  0  0  0  0
 30 51  1  0  0  0  0
 31 52  1  0  0  0  0
 32 33  1  0  0  0  0
 32 53  1  0  0  0  0
 33 34  1  0  0  0  0
M  END
$$$$
