CHEMBL504547
 OpenBabel04072215383D

 43 46  0  0  0  0  0  0  0  0999 V2000
    1.6520   -0.0796    1.1515 O   0  0  0  0  0  0  0  0  0  0  0  0
    2.4315    0.0235    0.2080 C   0  0  0  0  0  0  0  0  0  0  0  0
    3.1000   -1.0697   -0.2700 N   0  0  0  0  0  0  0  0  0  0  0  0
    3.6812   -1.2023   -1.5028 C   0  0  0  0  0  0  0  0  0  0  0  0
    4.0641   -2.2952   -1.9099 O   0  0  0  0  0  0  0  0  0  0  0  0
    3.7834    0.0126   -2.3410 C   0  0  0  0  0  0  0  0  0  0  0  0
    4.3170   -0.1146   -3.6336 C   0  0  0  0  0  0  0  0  0  0  0  0
    4.4136    0.9995   -4.4632 C   0  0  0  0  0  0  0  0  0  0  0  0
    3.9694    2.2341   -3.9994 C   0  0  0  0  0  0  0  0  0  0  0  0
    4.1049    3.9021   -5.2346 I   0  0  0  0  0  0  0  0  0  0  0  0
    3.4296    2.3616   -2.7123 C   0  0  0  0  0  0  0  0  0  0  0  0
    3.3358    1.2515   -1.8561 C   0  0  0  0  0  0  0  0  0  0  0  0
    2.7341    1.3103   -0.5029 C   0  0  0  0  0  0  0  0  0  0  0  0
    2.5064    2.4568    0.1701 C   0  0  0  0  0  0  0  0  0  0  0  0
    1.9366    2.6218    1.4095 N   0  0  0  0  0  0  0  0  0  0  0  0
    1.8078    3.8443    2.1680 C   0  0  0  0  0  0  0  0  0  0  0  0
    0.6166    3.7412    3.0871 C   0  0  0  0  0  0  0  0  0  0  0  0
    0.7480    3.2536    4.3913 C   0  0  0  0  0  0  0  0  0  0  0  0
   -0.3766    3.1136    5.2145 C   0  0  0  0  0  0  0  0  0  0  0  0
   -1.6611    3.4579    4.7573 C   0  0  0  0  0  0  0  0  0  0  0  0
   -2.8161    3.2479    5.6253 C   0  0  0  0  0  0  0  0  0  0  0  0
   -4.1435    2.8278    5.3187 C   0  0  0  0  0  0  0  0  0  0  0  0
   -4.8333    2.7965    6.5080 C   0  0  0  0  0  0  0  0  0  0  0  0
   -4.0188    3.1446    7.5345 O   0  0  0  0  0  0  0  0  0  0  0  0
   -2.7988    3.4077    6.9978 C   0  0  0  0  0  0  0  0  0  0  0  0
   -1.7767    3.9607    3.4511 C   0  0  0  0  0  0  0  0  0  0  0  0
   -2.9566    4.3843    2.8993 O   0  0  0  0  0  0  0  0  0  0  0  0
   -0.6585    4.0821    2.6236 C   0  0  0  0  0  0  0  0  0  0  0  0
    2.9381   -1.9322    0.2298 H   0  0  0  0  0  0  0  0  0  0  0  0
    4.6500   -1.0856   -3.9982 H   0  0  0  0  0  0  0  0  0  0  0  0
    4.8225    0.8846   -5.4645 H   0  0  0  0  0  0  0  0  0  0  0  0
    3.0659    3.3390   -2.3994 H   0  0  0  0  0  0  0  0  0  0  0  0
    2.7866    3.4163   -0.2544 H   0  0  0  0  0  0  0  0  0  0  0  0
    1.5671    1.7684    1.8450 H   0  0  0  0  0  0  0  0  0  0  0  0
    1.6861    4.7086    1.5037 H   0  0  0  0  0  0  0  0  0  0  0  0
    2.7205    4.0194    2.7498 H   0  0  0  0  0  0  0  0  0  0  0  0
    1.7244    2.9596    4.7720 H   0  0  0  0  0  0  0  0  0  0  0  0
   -0.2327    2.7033    6.2123 H   0  0  0  0  0  0  0  0  0  0  0  0
   -4.5503    2.5699    4.3503 H   0  0  0  0  0  0  0  0  0  0  0  0
   -5.8506    2.5504    6.7797 H   0  0  0  0  0  0  0  0  0  0  0  0
   -2.0384    3.6918    7.7127 H   0  0  0  0  0  0  0  0  0  0  0  0
   -3.5849    4.5504    3.6192 H   0  0  0  0  0  0  0  0  0  0  0  0
   -0.7897    4.4504    1.6075 H   0  0  0  0  0  0  0  0  0  0  0  0
  1  2  2  0  0  0  0
  2  3  1  0  0  0  0
  2 13  1  0  0  0  0
  3  4  1  0  0  0  0
  3 29  1  0  0  0  0
  4  5  2  0  0  0  0
  4  6  1  0  0  0  0
  6  7  1  0  0  0  0
  6 12  2  0  0  0  0
  7  8  2  0  0  0  0
  7 30  1  0  0  0  0
  8  9  1  0  0  0  0
  8 31  1  0  0  0  0
  9 10  1  0  0  0  0
  9 11  2  0  0  0  0
 11 12  1  0  0  0  0
 11 32  1  0  0  0  0
 12 13  1  0  0  0  0
 13 14  2  0  0  0  0
 14 15  1  0  0  0  0
 14 33  1  0  0  0  0
 15 16  1  0  0  0  0
 15 34  1  0  0  0  0
 16 17  1  0  0  0  0
 16 35  1  0  0  0  0
 16 36  1  0  0  0  0
 17 18  1  0  0  0  0
 17 28  2  0  0  0  0
 18 19  2  0  0  0  0
 18 37  1  0  0  0  0
 19 20  1  0  0  0  0
 19 38  1  0  0  0  0
 20 21  1  0  0  0  0
 20 26  2  0  0  0  0
 21 22  1  0  0  0  0
 21 25  2  0  0  0  0
 22 23  2  0  0  0  0
 22 39  1  0  0  0  0
 23 24  1  0  0  0  0
 23 40  1  0  0  0  0
 24 25  1  0  0  0  0
 25 41  1  0  0  0  0
 26 27  1  0  0  0  0
 26 28  1  0  0  0  0
 27 42  1  0  0  0  0
 28 43  1  0  0  0  0
M  END
$$$$
