CHEMBL1085291
 OpenBabel04072215363D

 71 78  0  0  1  0  0  0  0  0999 V2000
    1.6965   -0.3712    1.0029 C   0  0  0  0  0  0  0  0  0  0  0  0
    2.5807   -1.4629    0.6524 N   0  0  0  0  0  0  0  0  0  0  0  0
    3.6242   -2.0509    1.3630 C   0  0  0  0  0  0  0  0  0  0  0  0
    4.2677   -2.9595    0.5018 C   0  0  0  0  0  0  0  0  0  0  0  0
    3.7701   -2.4141   -0.7537 C   0  0  0  0  0  0  0  0  0  0  0  0
    2.6260   -1.7520   -0.6507 N   0  0  0  0  0  0  0  0  0  0  0  0
    4.6496   -2.1377   -1.9368 C   0  0  0  0  0  0  0  0  0  0  0  0
    5.8534   -3.0367   -1.8325 C   0  0  0  0  0  0  0  0  0  0  0  0
    6.4246   -2.7712   -0.4401 C   0  0  0  0  0  0  0  0  0  0  0  0
    5.7007   -3.3982    0.5916 C   0  0  0  0  0  0  0  0  0  0  0  0
    6.3764   -4.6291    0.8613 C   0  0  0  0  0  0  0  0  0  0  0  0
    7.8286   -4.7793    0.6778 C   0  0  0  0  0  0  0  0  0  0  0  0
    8.5301   -3.5997    0.3441 C   0  0  0  0  0  0  0  0  0  0  0  0
    9.8862   -3.2865    0.2363 C   0  0  0  0  0  0  0  0  0  0  0  0
   11.1487   -3.9202    0.2674 C   0  0  0  0  0  0  0  0  0  0  0  0
   12.3321   -3.1528    0.1160 C   0  0  0  0  0  0  0  0  0  0  0  0
   13.6704   -3.8505   -0.1058 C   0  0  3  0  0  0  0  0  0  0  0  0
   14.9325   -2.9732   -0.2329 C   0  0  0  0  0  0  0  0  0  0  0  0
   15.0195   -2.2272   -1.5667 C   0  0  0  0  0  0  0  0  0  0  0  0
   14.7507   -3.1522   -2.7410 C   0  0  0  0  0  0  0  0  0  0  0  0
   13.5361   -4.0394   -2.5032 C   0  0  0  0  0  0  0  0  0  0  0  0
   13.6001   -4.7228   -1.2491 O   0  0  0  0  0  0  0  0  0  0  0  0
   12.2332   -1.7584    0.1032 C   0  0  0  0  0  0  0  0  0  0  0  0
   11.0109   -1.1076    0.0170 C   0  0  0  0  0  0  0  0  0  0  0  0
    9.8544   -1.8833    0.0241 C   0  0  0  0  0  0  0  0  0  0  0  0
    8.5386   -1.5075   -0.1295 N   0  0  0  0  0  0  0  0  0  0  0  0
    7.9071   -0.2053   -0.0389 C   0  0  0  0  0  0  0  0  0  0  0  0
    7.9066    0.5606   -1.3582 C   0  0  0  0  0  0  0  0  0  0  0  0
    7.0332    1.8040   -1.2164 C   0  0  0  0  0  0  0  0  0  0  0  0
    7.4525    2.6597   -0.0241 C   0  0  0  0  0  0  0  0  0  0  0  0
    7.4624    1.8591    1.2890 C   0  0  0  0  0  0  0  0  0  0  0  0
    8.3410    0.6190    1.1731 C   0  0  0  0  0  0  0  0  0  0  0  0
    7.7602   -2.6277   -0.1975 C   0  0  0  0  0  0  0  0  0  0  0  0
    8.2766   -6.1633    0.7067 C   0  0  0  0  0  0  0  0  0  0  0  0
    6.9847   -6.8068    0.8847 N   0  0  0  0  0  0  0  0  0  0  0  0
    5.8629   -5.9682    1.0062 C   0  0  0  0  0  0  0  0  0  0  0  0
    4.7257   -6.4188    1.0802 O   0  0  0  0  0  0  0  0  0  0  0  0
    2.2686    0.5597    1.0512 H   0  0  0  0  0  0  0  0  0  0  0  0
    1.1987   -0.5868    1.9492 H   0  0  0  0  0  0  0  0  0  0  0  0
    0.9343   -0.2680    0.2195 H   0  0  0  0  0  0  0  0  0  0  0  0
    3.8813   -1.6678    2.3442 H   0  0  0  0  0  0  0  0  0  0  0  0
    5.0011   -1.0959   -1.8457 H   0  0  0  0  0  0  0  0  0  0  0  0
    4.1224   -2.2352   -2.8795 H   0  0  0  0  0  0  0  0  0  0  0  0
    6.5907   -2.8775   -2.6178 H   0  0  0  0  0  0  0  0  0  0  0  0
    5.5324   -4.0910   -1.8925 H   0  0  0  0  0  0  0  0  0  0  0  0
   11.2176   -5.0037    0.3396 H   0  0  0  0  0  0  0  0  0  0  0  0
   13.8234   -4.5001    0.7643 H   0  0  0  0  0  0  0  0  0  0  0  0
   15.8074   -3.6350   -0.1810 H   0  0  0  0  0  0  0  0  0  0  0  0
   15.0237   -2.2744    0.6069 H   0  0  0  0  0  0  0  0  0  0  0  0
   16.0085   -1.7687   -1.6685 H   0  0  0  0  0  0  0  0  0  0  0  0
   14.3067   -1.4016   -1.6069 H   0  0  0  0  0  0  0  0  0  0  0  0
   15.6350   -3.7810   -2.8916 H   0  0  0  0  0  0  0  0  0  0  0  0
   14.6121   -2.5628   -3.6553 H   0  0  0  0  0  0  0  0  0  0  0  0
   13.4962   -4.8019   -3.2888 H   0  0  0  0  0  0  0  0  0  0  0  0
   12.6049   -3.4666   -2.5729 H   0  0  0  0  0  0  0  0  0  0  0  0
   13.1146   -1.1269    0.1040 H   0  0  0  0  0  0  0  0  0  0  0  0
   10.9778   -0.0299   -0.0961 H   0  0  0  0  0  0  0  0  0  0  0  0
    6.8482   -0.4193    0.1646 H   0  0  0  0  0  0  0  0  0  0  0  0
    7.5082   -0.0688   -2.1658 H   0  0  0  0  0  0  0  0  0  0  0  0
    8.9266    0.8368   -1.6453 H   0  0  0  0  0  0  0  0  0  0  0  0
    5.9835    1.4978   -1.0856 H   0  0  0  0  0  0  0  0  0  0  0  0
    7.0771    2.3965   -2.1336 H   0  0  0  0  0  0  0  0  0  0  0  0
    6.7928    3.5184    0.0819 H   0  0  0  0  0  0  0  0  0  0  0  0
    8.4691    3.0450   -0.1996 H   0  0  0  0  0  0  0  0  0  0  0  0
    6.4361    1.5555    1.5393 H   0  0  0  0  0  0  0  0  0  0  0  0
    7.8220    2.4837    2.1129 H   0  0  0  0  0  0  0  0  0  0  0  0
    8.2588    0.0198    2.0907 H   0  0  0  0  0  0  0  0  0  0  0  0
    9.3865    0.9244    1.0890 H   0  0  0  0  0  0  0  0  0  0  0  0
    8.9356   -6.4103    1.5403 H   0  0  0  0  0  0  0  0  0  0  0  0
    8.7129   -6.4536   -0.2546 H   0  0  0  0  0  0  0  0  0  0  0  0
    6.8357   -7.7848    0.6761 H   0  0  0  0  0  0  0  0  0  0  0  0
  1  2  1  0  0  0  0
  1 38  1  0  0  0  0
  1 39  1  0  0  0  0
  1 40  1  0  0  0  0
  2  3  1  0  0  0  0
  2  6  1  0  0  0  0
  3  4  2  0  0  0  0
  3 41  1  0  0  0  0
  4  5  1  0  0  0  0
  4 10  1  0  0  0  0
  5  6  2  0  0  0  0
  5  7  1  0  0  0  0
  7  8  1  0  0  0  0
  7 42  1  0  0  0  0
  7 43  1  0  0  0  0
  8  9  1  0  0  0  0
  8 44  1  0  0  0  0
  8 45  1  0  0  0  0
  9 10  1  0  0  0  0
  9 33  2  0  0  0  0
 10 11  2  0  0  0  0
 11 12  1  0  0  0  0
 11 36  1  0  0  0  0
 12 13  2  0  0  0  0
 12 34  1  0  0  0  0
 13 14  1  0  0  0  0
 13 33  1  0  0  0  0
 14 15  1  0  0  0  0
 14 25  2  0  0  0  0
 15 16  2  0  0  0  0
 15 46  1  0  0  0  0
 16 17  1  0  0  0  0
 16 23  1  0  0  0  0
 17 18  1  0  0  0  0
 17 22  1  0  0  0  0
 17 47  1  0  0  0  0
 18 19  1  0  0  0  0
 18 48  1  0  0  0  0
 18 49  1  0  0  0  0
 19 20  1  0  0  0  0
 19 50  1  0  0  0  0
 19 51  1  0  0  0  0
 20 21  1  0  0  0  0
 20 52  1  0  0  0  0
 20 53  1  0  0  0  0
 21 22  1  0  0  0  0
 21 54  1  0  0  0  0
 21 55  1  0  0  0  0
 23 24  2  0  0  0  0
 23 56  1  0  0  0  0
 24 25  1  0  0  0  0
 24 57  1  0  0  0  0
 25 26  1  0  0  0  0
 26 27  1  0  0  0  0
 26 33  1  0  0  0  0
 27 28  1  0  0  0  0
 27 32  1  0  0  0  0
 27 58  1  0  0  0  0
 28 29  1  0  0  0  0
 28 59  1  0  0  0  0
 28 60  1  0  0  0  0
 29 30  1  0  0  0  0
 29 61  1  0  0  0  0
 29 62  1  0  0  0  0
 30 31  1  0  0  0  0
 30 63  1  0  0  0  0
 30 64  1  0  0  0  0
 31 32  1  0  0  0  0
 31 65  1  0  0  0  0
 31 66  1  0  0  0  0
 32 67  1  0  0  0  0
 32 68  1  0  0  0  0
 34 35  1  0  0  0  0
 34 69  1  0  0  0  0
 34 70  1  0  0  0  0
 35 36  1  0  0  0  0
 35 71  1  0  0  0  0
 36 37  2  0  0  0  0
M  END
$$$$
