CHEMBL2087168
 OpenBabel04072215363D

 61 65  0  0  0  0  0  0  0  0999 V2000
    6.6687   -1.7608   -4.5764 C   0  0  0  0  0  0  0  0  0  0  0  0
    5.5425   -1.0804   -3.8052 C   0  0  0  0  0  0  0  0  0  0  0  0
    4.3756   -0.7173   -4.6371 N   0  0  0  0  0  0  0  0  0  0  0  0
    3.7526   -1.9206   -5.2153 C   0  0  0  0  0  0  0  0  0  0  0  0
    2.4653   -1.6040   -5.9726 C   0  0  0  0  0  0  0  0  0  0  0  0
    1.4449   -0.9192   -5.0619 C   0  0  0  0  0  0  0  0  0  0  0  0
    1.0283   -1.7847   -3.9368 N   0  0  0  0  0  0  0  0  0  0  0  0
    0.4355   -3.0304   -4.1917 C   0  0  0  0  0  0  0  0  0  0  0  0
   -0.3693   -3.2744   -5.3195 C   0  0  0  0  0  0  0  0  0  0  0  0
   -0.9456   -4.5228   -5.5414 C   0  0  0  0  0  0  0  0  0  0  0  0
   -0.7210   -5.5028   -4.5975 C   0  0  0  0  0  0  0  0  0  0  0  0
    0.0320   -5.2984   -3.4372 C   0  0  0  0  0  0  0  0  0  0  0  0
    0.5935   -4.0466   -3.2248 C   0  0  0  0  0  0  0  0  0  0  0  0
    0.0306   -6.5970   -2.7136 C   0  0  0  0  0  0  0  0  0  0  0  0
    0.5623   -6.9495   -1.5157 C   0  0  0  0  0  0  0  0  0  0  0  0
    1.3156   -5.9794   -0.6947 C   0  0  0  0  0  0  0  0  0  0  0  0
    0.6522   -5.1849    0.2497 C   0  0  0  0  0  0  0  0  0  0  0  0
    1.3779   -4.2861    1.0274 C   0  0  0  0  0  0  0  0  0  0  0  0
    0.7360   -3.5159    1.9153 F   0  0  0  0  0  0  0  0  0  0  0  0
    2.7550   -4.1699    0.8967 C   0  0  0  0  0  0  0  0  0  0  0  0
    3.4083   -4.9730   -0.0269 C   0  0  0  0  0  0  0  0  0  0  0  0
    4.7379   -4.8795   -0.1586 F   0  0  0  0  0  0  0  0  0  0  0  0
    2.7073   -5.8752   -0.8229 C   0  0  0  0  0  0  0  0  0  0  0  0
    0.3284   -8.2589   -0.9944 C   0  0  0  0  0  0  0  0  0  0  0  0
   -0.6421   -8.7120   -0.2249 N   0  0  0  0  0  0  0  0  0  0  0  0
   -0.3758  -10.0491   -0.0292 C   0  0  0  0  0  0  0  0  0  0  0  0
   -1.3134  -10.9120    0.7209 C   0  0  0  0  0  0  0  0  0  0  0  0
    0.8143  -10.3927   -0.6314 C   0  0  0  0  0  0  0  0  0  0  0  0
    1.2472   -9.2502   -1.2441 N   0  0  0  0  0  0  0  0  0  0  0  0
   -0.7361   -7.5644   -3.6056 C   0  0  0  0  0  0  0  0  0  0  0  0
   -0.8832   -8.7655   -3.4993 O   0  0  0  0  0  0  0  0  0  0  0  0
   -1.1759   -6.8079   -4.6737 N   0  0  0  0  0  0  0  0  0  0  0  0
    2.1020    0.3518   -4.5175 C   0  0  0  0  0  0  0  0  0  0  0  0
    3.4198    0.0403   -3.8045 C   0  0  0  0  0  0  0  0  0  0  0  0
    7.5291   -1.9140   -3.9165 H   0  0  0  0  0  0  0  0  0  0  0  0
    6.9953   -1.1481   -5.4223 H   0  0  0  0  0  0  0  0  0  0  0  0
    6.3735   -2.7458   -4.9507 H   0  0  0  0  0  0  0  0  0  0  0  0
    5.9585   -0.1684   -3.3594 H   0  0  0  0  0  0  0  0  0  0  0  0
    5.2376   -1.7313   -2.9747 H   0  0  0  0  0  0  0  0  0  0  0  0
    3.5530   -2.6696   -4.4386 H   0  0  0  0  0  0  0  0  0  0  0  0
    4.4365   -2.3797   -5.9372 H   0  0  0  0  0  0  0  0  0  0  0  0
    2.0676   -2.5252   -6.4107 H   0  0  0  0  0  0  0  0  0  0  0  0
    2.6957   -0.9426   -6.8191 H   0  0  0  0  0  0  0  0  0  0  0  0
    0.5624   -0.6199   -5.6397 H   0  0  0  0  0  0  0  0  0  0  0  0
    0.4531   -1.2754   -3.2652 H   0  0  0  0  0  0  0  0  0  0  0  0
   -0.5454   -2.4932   -6.0541 H   0  0  0  0  0  0  0  0  0  0  0  0
   -1.5377   -4.7081   -6.4299 H   0  0  0  0  0  0  0  0  0  0  0  0
    1.1942   -3.8337   -2.3475 H   0  0  0  0  0  0  0  0  0  0  0  0
   -0.4231   -5.2638    0.3902 H   0  0  0  0  0  0  0  0  0  0  0  0
    3.3097   -3.4685    1.5084 H   0  0  0  0  0  0  0  0  0  0  0  0
    3.2573   -6.4863   -1.5320 H   0  0  0  0  0  0  0  0  0  0  0  0
   -2.1741  -10.3386    1.0777 H   0  0  0  0  0  0  0  0  0  0  0  0
   -0.8169  -11.3605    1.5872 H   0  0  0  0  0  0  0  0  0  0  0  0
   -1.6852  -11.7172    0.0799 H   0  0  0  0  0  0  0  0  0  0  0  0
    1.3562  -11.3245   -0.6987 H   0  0  0  0  0  0  0  0  0  0  0  0
    2.0771   -9.1541   -1.8087 H   0  0  0  0  0  0  0  0  0  0  0  0
   -1.7021   -7.2088   -5.4361 H   0  0  0  0  0  0  0  0  0  0  0  0
    1.4239    0.8714   -3.8301 H   0  0  0  0  0  0  0  0  0  0  0  0
    2.2962    1.0422   -5.3497 H   0  0  0  0  0  0  0  0  0  0  0  0
    3.2023   -0.4982   -2.8731 H   0  0  0  0  0  0  0  0  0  0  0  0
    3.8778    0.9962   -3.5198 H   0  0  0  0  0  0  0  0  0  0  0  0
  1  2  1  0  0  0  0
  1 35  1  0  0  0  0
  1 36  1  0  0  0  0
  1 37  1  0  0  0  0
  2  3  1  0  0  0  0
  2 38  1  0  0  0  0
  2 39  1  0  0  0  0
  3  4  1  0  0  0  0
  3 34  1  0  0  0  0
  4  5  1  0  0  0  0
  4 40  1  0  0  0  0
  4 41  1  0  0  0  0
  5  6  1  0  0  0  0
  5 42  1  0  0  0  0
  5 43  1  0  0  0  0
  6  7  1  0  0  0  0
  6 33  1  0  0  0  0
  6 44  1  0  0  0  0
  7  8  1  0  0  0  0
  7 45  1  0  0  0  0
  8  9  1  0  0  0  0
  8 13  2  0  0  0  0
  9 10  2  0  0  0  0
  9 46  1  0  0  0  0
 10 11  1  0  0  0  0
 10 47  1  0  0  0  0
 11 12  2  0  0  0  0
 11 32  1  0  0  0  0
 12 13  1  0  0  0  0
 12 14  1  0  0  0  0
 13 48  1  0  0  0  0
 14 15  2  3  0  0  0
 14 30  1  0  0  0  0
 15 16  1  0  0  0  0
 15 24  1  0  0  0  0
 16 17  1  0  0  0  0
 16 23  2  0  0  0  0
 17 18  2  0  0  0  0
 17 49  1  0  0  0  0
 18 19  1  0  0  0  0
 18 20  1  0  0  0  0
 20 21  2  0  0  0  0
 20 50  1  0  0  0  0
 21 22  1  0  0  0  0
 21 23  1  0  0  0  0
 23 51  1  0  0  0  0
 24 25  2  0  0  0  0
 24 29  1  0  0  0  0
 25 26  1  0  0  0  0
 26 27  1  0  0  0  0
 26 28  2  0  0  0  0
 27 52  1  0  0  0  0
 27 53  1  0  0  0  0
 27 54  1  0  0  0  0
 28 29  1  0  0  0  0
 28 55  1  0  0  0  0
 29 56  1  0  0  0  0
 30 31  2  0  0  0  0
 30 32  1  0  0  0  0
 32 57  1  0  0  0  0
 33 34  1  0  0  0  0
 33 58  1  0  0  0  0
 33 59  1  0  0  0  0
 34 60  1  0  0  0  0
 34 61  1  0  0  0  0
M  END
$$$$
