CHEMBL3644558
 OpenBabel04072215373D

 66 69  0  0  0  0  0  0  0  0999 V2000
    3.2654  -11.3776   -1.5116 C   0  0  0  0  0  0  0  0  0  0  0  0
    4.4683  -10.5975   -1.4835 O   0  0  0  0  0  0  0  0  0  0  0  0
    4.8484  -10.2259   -0.2290 C   0  0  0  0  0  0  0  0  0  0  0  0
    4.2606  -10.4992    0.8115 O   0  0  0  0  0  0  0  0  0  0  0  0
    6.1168   -9.3917   -0.2985 C   0  0  0  0  0  0  0  0  0  0  0  0
    6.5497   -8.9940    1.0330 N   0  0  0  0  0  0  0  0  0  0  0  0
    7.6989   -8.2526    1.1833 C   0  0  0  0  0  0  0  0  0  0  0  0
    8.3774   -7.9216    0.2160 O   0  0  0  0  0  0  0  0  0  0  0  0
    8.0880   -7.8528    2.5641 C   0  0  0  0  0  0  0  0  0  0  0  0
    7.7729   -8.6696    3.6452 C   0  0  0  0  0  0  0  0  0  0  0  0
    8.1392   -8.4210    4.9261 N   0  0  0  0  0  0  0  0  0  0  0  0
    8.8909   -7.3192    5.1394 C   0  0  0  0  0  0  0  0  0  0  0  0
    9.2807   -6.4317    4.1378 C   0  0  0  0  0  0  0  0  0  0  0  0
    8.8399   -6.6891    2.8207 C   0  0  0  0  0  0  0  0  0  0  0  0
    9.2305   -5.7386    1.7098 C   0  0  0  0  0  0  0  0  0  0  0  0
    9.6545   -4.3702    2.2302 C   0  0  0  0  0  0  0  0  0  0  0  0
   10.6202   -4.5325    3.3088 N   0  0  0  0  0  0  0  0  0  0  0  0
   11.9679   -4.2852    3.1141 C   0  0  0  0  0  0  0  0  0  0  0  0
   12.7670   -3.8482    4.1845 C   0  0  0  0  0  0  0  0  0  0  0  0
   14.1170   -3.5457    4.0181 C   0  0  0  0  0  0  0  0  0  0  0  0
   14.6996   -3.6694    2.7648 C   0  0  0  0  0  0  0  0  0  0  0  0
   13.9370   -4.0960    1.6705 C   0  0  0  0  0  0  0  0  0  0  0  0
   14.6469   -4.2288    0.3698 C   0  0  0  0  0  0  0  0  0  0  0  0
   15.8417   -4.5172    0.4280 O   0  0  0  0  0  0  0  0  0  0  0  0
   13.9414   -3.9230   -0.7865 N   0  0  0  0  0  0  0  0  0  0  0  0
   14.5207   -3.8718   -2.0836 C   0  0  0  0  0  0  0  0  0  0  0  0
   15.7325   -4.4973   -2.3914 C   0  0  0  0  0  0  0  0  0  0  0  0
   16.3329   -4.3205   -3.6367 C   0  0  0  0  0  0  0  0  0  0  0  0
   15.7337   -3.5009   -4.5882 C   0  0  0  0  0  0  0  0  0  0  0  0
   14.5044   -2.8788   -4.3240 C   0  0  0  0  0  0  0  0  0  0  0  0
   13.9335   -1.9206   -5.3583 C   0  0  0  0  0  0  0  0  0  0  0  0
   12.5857   -2.3791   -5.9128 C   0  0  0  0  0  0  0  0  0  0  0  0
   13.8307   -0.4876   -4.8246 C   0  0  0  0  0  0  0  0  0  0  0  0
   13.8826   -3.1133   -3.0787 C   0  0  0  0  0  0  0  0  0  0  0  0
   12.5849   -4.4138    1.8518 C   0  0  0  0  0  0  0  0  0  0  0  0
   10.1262   -5.2279    4.5026 C   0  0  0  0  0  0  0  0  0  0  0  0
    3.0375  -11.6077   -2.5560 H   0  0  0  0  0  0  0  0  0  0  0  0
    2.4295  -10.8094   -1.0919 H   0  0  0  0  0  0  0  0  0  0  0  0
    3.4065  -12.3189   -0.9713 H   0  0  0  0  0  0  0  0  0  0  0  0
    5.9233   -8.4851   -0.8804 H   0  0  0  0  0  0  0  0  0  0  0  0
    6.9163   -9.9771   -0.7620 H   0  0  0  0  0  0  0  0  0  0  0  0
    5.9053   -9.1622    1.7992 H   0  0  0  0  0  0  0  0  0  0  0  0
    7.2201   -9.5966    3.5228 H   0  0  0  0  0  0  0  0  0  0  0  0
    9.1885   -7.1708    6.1745 H   0  0  0  0  0  0  0  0  0  0  0  0
    8.3864   -5.5783    1.0310 H   0  0  0  0  0  0  0  0  0  0  0  0
   10.0561   -6.1908    1.1486 H   0  0  0  0  0  0  0  0  0  0  0  0
    8.7821   -3.8322    2.6232 H   0  0  0  0  0  0  0  0  0  0  0  0
   10.0370   -3.7494    1.4119 H   0  0  0  0  0  0  0  0  0  0  0  0
   12.3300   -3.6982    5.1688 H   0  0  0  0  0  0  0  0  0  0  0  0
   14.7112   -3.2022    4.8607 H   0  0  0  0  0  0  0  0  0  0  0  0
   15.7534   -3.4342    2.6360 H   0  0  0  0  0  0  0  0  0  0  0  0
   13.0349   -3.4837   -0.6775 H   0  0  0  0  0  0  0  0  0  0  0  0
   16.2476   -5.1292   -1.6742 H   0  0  0  0  0  0  0  0  0  0  0  0
   17.2864   -4.7994   -3.8456 H   0  0  0  0  0  0  0  0  0  0  0  0
   16.2469   -3.3417   -5.5340 H   0  0  0  0  0  0  0  0  0  0  0  0
   14.6276   -1.8821   -6.2089 H   0  0  0  0  0  0  0  0  0  0  0  0
   11.8255   -2.4643   -5.1293 H   0  0  0  0  0  0  0  0  0  0  0  0
   12.6753   -3.3506   -6.4097 H   0  0  0  0  0  0  0  0  0  0  0  0
   12.2197   -1.6607   -6.6559 H   0  0  0  0  0  0  0  0  0  0  0  0
   13.1258   -0.4094   -3.9902 H   0  0  0  0  0  0  0  0  0  0  0  0
   13.4855    0.1891   -5.6148 H   0  0  0  0  0  0  0  0  0  0  0  0
   14.8044   -0.1225   -4.4801 H   0  0  0  0  0  0  0  0  0  0  0  0
   12.9240   -2.6467   -2.8698 H   0  0  0  0  0  0  0  0  0  0  0  0
   12.0251   -4.8178    1.0141 H   0  0  0  0  0  0  0  0  0  0  0  0
    9.5074   -4.5336    5.0846 H   0  0  0  0  0  0  0  0  0  0  0  0
   10.9468   -5.5681    5.1468 H   0  0  0  0  0  0  0  0  0  0  0  0
  1  2  1  0  0  0  0
  1 37  1  0  0  0  0
  1 38  1  0  0  0  0
  1 39  1  0  0  0  0
  2  3  1  0  0  0  0
  3  4  2  0  0  0  0
  3  5  1  0  0  0  0
  5  6  1  0  0  0  0
  5 40  1  0  0  0  0
  5 41  1  0  0  0  0
  6  7  1  0  0  0  0
  6 42  1  0  0  0  0
  7  8  2  0  0  0  0
  7  9  1  0  0  0  0
  9 10  1  0  0  0  0
  9 14  2  0  0  0  0
 10 11  2  0  0  0  0
 10 43  1  0  0  0  0
 11 12  1  0  0  0  0
 12 13  2  0  0  0  0
 12 44  1  0  0  0  0
 13 14  1  0  0  0  0
 13 36  1  0  0  0  0
 14 15  1  0  0  0  0
 15 16  1  0  0  0  0
 15 45  1  0  0  0  0
 15 46  1  0  0  0  0
 16 17  1  0  0  0  0
 16 47  1  0  0  0  0
 16 48  1  0  0  0  0
 17 18  1  0  0  0  0
 17 36  1  0  0  0  0
 18 19  1  0  0  0  0
 18 35  2  0  0  0  0
 19 20  2  0  0  0  0
 19 49  1  0  0  0  0
 20 21  1  0  0  0  0
 20 50  1  0  0  0  0
 21 22  2  0  0  0  0
 21 51  1  0  0  0  0
 22 23  1  0  0  0  0
 22 35  1  0  0  0  0
 23 24  2  0  0  0  0
 23 25  1  0  0  0  0
 25 26  1  0  0  0  0
 25 52  1  0  0  0  0
 26 27  1  0  0  0  0
 26 34  2  0  0  0  0
 27 28  2  0  0  0  0
 27 53  1  0  0  0  0
 28 29  1  0  0  0  0
 28 54  1  0  0  0  0
 29 30  2  0  0  0  0
 29 55  1  0  0  0  0
 30 31  1  0  0  0  0
 30 34  1  0  0  0  0
 31 32  1  0  0  0  0
 31 33  1  0  0  0  0
 31 56  1  0  0  0  0
 32 57  1  0  0  0  0
 32 58  1  0  0  0  0
 32 59  1  0  0  0  0
 33 60  1  0  0  0  0
 33 61  1  0  0  0  0
 33 62  1  0  0  0  0
 34 63  1  0  0  0  0
 35 64  1  0  0  0  0
 36 65  1  0  0  0  0
 36 66  1  0  0  0  0
M  END
$$$$
