CHEMBL3128227
 OpenBabel04072215363D

 47 50  0  0  1  0  0  0  0  0999 V2000
    1.2263   -1.8738   -2.2155 C   0  0  0  0  0  0  0  0  0  0  0  0
    1.8480   -0.8906   -1.2144 C   0  0  1  0  0  0  0  0  0  0  0  0
    2.9181   -1.5257   -0.4328 N   0  0  0  0  0  0  0  0  0  0  0  0
    2.5404   -2.5711    0.4101 C   0  0  0  0  0  0  0  0  0  0  0  0
    1.2781   -2.6664    0.8916 N   0  0  0  0  0  0  0  0  0  0  0  0
    0.9605   -3.7232    1.6631 C   0  0  0  0  0  0  0  0  0  0  0  0
    1.7480   -4.7445    2.0355 N   0  0  0  0  0  0  0  0  0  0  0  0
    2.9899   -4.6190    1.5396 C   0  0  0  0  0  0  0  0  0  0  0  0
    3.4525   -3.5722    0.7636 C   0  0  0  0  0  0  0  0  0  0  0  0
    4.8039   -3.8809    0.5189 C   0  0  0  0  0  0  0  0  0  0  0  0
    5.1801   -5.0392    1.0730 N   0  0  0  0  0  0  0  0  0  0  0  0
    4.0418   -5.4935    1.6600 N   0  0  0  0  0  0  0  0  0  0  0  0
    4.0749   -6.7781    2.3384 C   0  0  0  0  0  0  0  0  0  0  0  0
    2.7709   -7.5766    2.2900 C   0  0  0  0  0  0  0  0  0  0  0  0
    2.9006   -8.9275    2.9509 C   0  0  0  0  0  0  0  0  0  0  0  0
    2.6209   -9.0717    4.3181 C   0  0  0  0  0  0  0  0  0  0  0  0
    2.7284  -10.3187    4.9341 C   0  0  0  0  0  0  0  0  0  0  0  0
    3.1211  -11.4307    4.1922 C   0  0  0  0  0  0  0  0  0  0  0  0
    3.4079  -11.2960    2.8346 C   0  0  0  0  0  0  0  0  0  0  0  0
    3.3005  -10.0495    2.2156 C   0  0  0  0  0  0  0  0  0  0  0  0
    2.4736    0.2827   -1.9615 C   0  0  0  0  0  0  0  0  0  0  0  0
    1.9846    1.5860   -1.7883 C   0  0  0  0  0  0  0  0  0  0  0  0
    2.5786    2.6602   -2.4561 C   0  0  0  0  0  0  0  0  0  0  0  0
    3.6645    2.4464   -3.3038 C   0  0  0  0  0  0  0  0  0  0  0  0
    4.1567    1.1578   -3.4917 C   0  0  0  0  0  0  0  0  0  0  0  0
    3.5655    0.0844   -2.8258 C   0  0  0  0  0  0  0  0  0  0  0  0
    0.6585   -2.6598   -1.7070 H   0  0  0  0  0  0  0  0  0  0  0  0
    1.9891   -2.3741   -2.8234 H   0  0  0  0  0  0  0  0  0  0  0  0
    0.5367   -1.3614   -2.8953 H   0  0  0  0  0  0  0  0  0  0  0  0
    1.0651   -0.5070   -0.5469 H   0  0  0  0  0  0  0  0  0  0  0  0
    3.3760   -0.8208    0.1440 H   0  0  0  0  0  0  0  0  0  0  0  0
   -0.0635   -3.7581    2.0228 H   0  0  0  0  0  0  0  0  0  0  0  0
    5.5276   -3.3070   -0.0460 H   0  0  0  0  0  0  0  0  0  0  0  0
    4.3811   -6.5762    3.3711 H   0  0  0  0  0  0  0  0  0  0  0  0
    4.8748   -7.3625    1.8656 H   0  0  0  0  0  0  0  0  0  0  0  0
    2.4374   -7.7053    1.2523 H   0  0  0  0  0  0  0  0  0  0  0  0
    1.9643   -7.0389    2.7997 H   0  0  0  0  0  0  0  0  0  0  0  0
    2.3061   -8.2144    4.9095 H   0  0  0  0  0  0  0  0  0  0  0  0
    2.5011  -10.4231    5.9917 H   0  0  0  0  0  0  0  0  0  0  0  0
    3.2015  -12.4027    4.6715 H   0  0  0  0  0  0  0  0  0  0  0  0
    3.7117  -12.1646    2.2563 H   0  0  0  0  0  0  0  0  0  0  0  0
    3.5223   -9.9632    1.1541 H   0  0  0  0  0  0  0  0  0  0  0  0
    1.1396    1.7767   -1.1303 H   0  0  0  0  0  0  0  0  0  0  0  0
    2.1959    3.6676   -2.3131 H   0  0  0  0  0  0  0  0  0  0  0  0
    4.1294    3.2837   -3.8172 H   0  0  0  0  0  0  0  0  0  0  0  0
    5.0026    0.9856   -4.1511 H   0  0  0  0  0  0  0  0  0  0  0  0
    3.9672   -0.9169   -2.9722 H   0  0  0  0  0  0  0  0  0  0  0  0
  1  2  1  0  0  0  0
  1 27  1  0  0  0  0
  1 28  1  0  0  0  0
  1 29  1  0  0  0  0
  2  3  1  0  0  0  0
  2 21  1  0  0  0  0
  2 30  1  1  0  0  0
  3  4  1  0  0  0  0
  3 31  1  0  0  0  0
  4  5  1  0  0  0  0
  4  9  2  0  0  0  0
  5  6  2  0  0  0  0
  6  7  1  0  0  0  0
  6 32  1  0  0  0  0
  7  8  2  0  0  0  0
  8  9  1  0  0  0  0
  8 12  1  0  0  0  0
  9 10  1  0  0  0  0
 10 11  2  0  0  0  0
 10 33  1  0  0  0  0
 11 12  1  0  0  0  0
 12 13  1  0  0  0  0
 13 14  1  0  0  0  0
 13 34  1  0  0  0  0
 13 35  1  0  0  0  0
 14 15  1  0  0  0  0
 14 36  1  0  0  0  0
 14 37  1  0  0  0  0
 15 16  1  0  0  0  0
 15 20  2  0  0  0  0
 16 17  2  0  0  0  0
 16 38  1  0  0  0  0
 17 18  1  0  0  0  0
 17 39  1  0  0  0  0
 18 19  2  0  0  0  0
 18 40  1  0  0  0  0
 19 20  1  0  0  0  0
 19 41  1  0  0  0  0
 20 42  1  0  0  0  0
 21 22  1  0  0  0  0
 21 26  2  0  0  0  0
 22 23  2  0  0  0  0
 22 43  1  0  0  0  0
 23 24  1  0  0  0  0
 23 44  1  0  0  0  0
 24 25  2  0  0  0  0
 24 45  1  0  0  0  0
 25 26  1  0  0  0  0
 25 46  1  0  0  0  0
 26 47  1  0  0  0  0
M  END
$$$$
