CHEMBL1076202
 OpenBabel04072215353D

 64 68  0  0  0  0  0  0  0  0999 V2000
   -1.5504   -1.8783    1.3969 C   0  0  0  0  0  0  0  0  0  0  0  0
   -0.9192   -1.0029    0.3392 C   0  0  0  0  0  0  0  0  0  0  0  0
   -1.6442    0.0978   -0.1355 C   0  0  0  0  0  0  0  0  0  0  0  0
   -1.0827    0.9623   -1.0774 C   0  0  0  0  0  0  0  0  0  0  0  0
    0.2398    0.7912   -1.5113 C   0  0  0  0  0  0  0  0  0  0  0  0
    0.7993    1.7680   -2.5101 C   0  0  0  0  0  0  0  0  0  0  0  0
    0.0554    2.6693   -2.8885 O   0  0  0  0  0  0  0  0  0  0  0  0
    2.0982    1.5613   -2.9760 N   0  0  0  0  0  0  0  0  0  0  0  0
    2.7549    2.3198   -3.9813 C   0  0  0  0  0  0  0  0  0  0  0  0
    2.2908    3.5367   -4.4661 C   0  0  0  0  0  0  0  0  0  0  0  0
    2.9273    4.1659   -5.5413 C   0  0  0  0  0  0  0  0  0  0  0  0
    3.9988    3.5569   -6.1908 C   0  0  0  0  0  0  0  0  0  0  0  0
    4.4897    2.3389   -5.7273 C   0  0  0  0  0  0  0  0  0  0  0  0
    5.5543    1.6011   -6.5020 C   0  0  0  0  0  0  0  0  0  0  0  0
    5.9177    2.2201   -7.6597 F   0  0  0  0  0  0  0  0  0  0  0  0
    6.7101    1.4539   -5.8063 F   0  0  0  0  0  0  0  0  0  0  0  0
    5.1709    0.3448   -6.8618 F   0  0  0  0  0  0  0  0  0  0  0  0
    3.9141    1.7938   -4.5642 C   0  0  0  0  0  0  0  0  0  0  0  0
    0.9645   -0.2919   -1.0071 C   0  0  0  0  0  0  0  0  0  0  0  0
    0.3801   -1.2484   -0.1694 C   0  0  0  0  0  0  0  0  0  0  0  0
    1.0792   -2.4028    0.2386 N   0  0  0  0  0  0  0  0  0  0  0  0
    1.9952   -3.1618   -0.4381 C   0  0  0  0  0  0  0  0  0  0  0  0
    2.0230   -4.4579   -0.1687 N   0  0  0  0  0  0  0  0  0  0  0  0
    3.1685   -4.5754    0.5699 C   0  0  0  0  0  0  0  0  0  0  0  0
    3.5529   -5.5869    1.4591 C   0  0  0  0  0  0  0  0  0  0  0  0
    4.7267   -5.4035    2.1927 C   0  0  0  0  0  0  0  0  0  0  0  0
    5.5223   -4.2683    2.0194 C   0  0  0  0  0  0  0  0  0  0  0  0
    5.1809   -3.2731    1.0985 C   0  0  0  0  0  0  0  0  0  0  0  0
    3.9921   -3.4649    0.3869 C   0  0  0  0  0  0  0  0  0  0  0  0
    3.3304   -2.7957   -0.6402 N   0  0  0  0  0  0  0  0  0  0  0  0
    3.9160   -2.2577   -1.8291 C   0  0  0  0  0  0  0  0  0  0  0  0
    5.2916   -2.2503   -1.9670 C   0  0  0  0  0  0  0  0  0  0  0  0
    5.8322   -1.7433   -3.1303 C   0  0  0  0  0  0  0  0  0  0  0  0
    7.2133   -1.5910   -3.1667 N   0  0  0  0  0  0  0  0  0  0  0  0
    7.8492   -0.6697   -4.0962 C   0  0  0  0  0  0  0  0  0  0  0  0
    7.8134    0.7593   -3.5464 C   0  0  0  0  0  0  0  0  0  0  0  0
    8.4778    0.8506   -2.2447 C   0  0  0  0  0  0  0  0  0  0  0  0
    8.9985    0.9256   -1.2110 N   0  0  0  0  0  0  0  0  0  0  0  0
    5.0513   -1.3413   -4.1346 N   0  0  0  0  0  0  0  0  0  0  0  0
    3.7234   -1.4698   -3.9571 C   0  0  0  0  0  0  0  0  0  0  0  0
    3.1092   -1.8492   -2.8291 N   0  0  0  0  0  0  0  0  0  0  0  0
   -2.5745   -1.5660    1.6289 H   0  0  0  0  0  0  0  0  0  0  0  0
   -0.9728   -1.8188    2.3267 H   0  0  0  0  0  0  0  0  0  0  0  0
   -1.6024   -2.9209    1.0675 H   0  0  0  0  0  0  0  0  0  0  0  0
   -2.6569    0.2852    0.2184 H   0  0  0  0  0  0  0  0  0  0  0  0
   -1.6850    1.7868   -1.4555 H   0  0  0  0  0  0  0  0  0  0  0  0
    2.5627    0.7070   -2.7079 H   0  0  0  0  0  0  0  0  0  0  0  0
    1.4314    4.0300   -4.0251 H   0  0  0  0  0  0  0  0  0  0  0  0
    2.5526    5.1215   -5.8970 H   0  0  0  0  0  0  0  0  0  0  0  0
    4.4393    4.0324   -7.0652 H   0  0  0  0  0  0  0  0  0  0  0  0
    4.3806    0.9148   -4.1355 H   0  0  0  0  0  0  0  0  0  0  0  0
    2.0081   -0.4016   -1.2404 H   0  0  0  0  0  0  0  0  0  0  0  0
    0.4481   -3.0411    0.7160 H   0  0  0  0  0  0  0  0  0  0  0  0
    2.9117   -6.4433    1.6080 H   0  0  0  0  0  0  0  0  0  0  0  0
    5.0067   -6.1490    2.9334 H   0  0  0  0  0  0  0  0  0  0  0  0
    6.4245   -4.1509    2.6166 H   0  0  0  0  0  0  0  0  0  0  0  0
    5.8002   -2.3899    0.9783 H   0  0  0  0  0  0  0  0  0  0  0  0
    5.9735   -2.6021   -1.2101 H   0  0  0  0  0  0  0  0  0  0  0  0
    7.7296   -2.4431   -2.9691 H   0  0  0  0  0  0  0  0  0  0  0  0
    7.4010   -0.7267   -5.0944 H   0  0  0  0  0  0  0  0  0  0  0  0
    8.8968   -0.9752   -4.2156 H   0  0  0  0  0  0  0  0  0  0  0  0
    6.7774    1.1002   -3.4390 H   0  0  0  0  0  0  0  0  0  0  0  0
    8.3228    1.4339   -4.2426 H   0  0  0  0  0  0  0  0  0  0  0  0
    3.0861   -1.1612   -4.7820 H   0  0  0  0  0  0  0  0  0  0  0  0
  1  2  1  0  0  0  0
  1 42  1  0  0  0  0
  1 43  1  0  0  0  0
  1 44  1  0  0  0  0
  2  3  1  0  0  0  0
  2 20  2  0  0  0  0
  3  4  2  0  0  0  0
  3 45  1  0  0  0  0
  4  5  1  0  0  0  0
  4 46  1  0  0  0  0
  5  6  1  0  0  0  0
  5 19  2  0  0  0  0
  6  7  2  0  0  0  0
  6  8  1  0  0  0  0
  8  9  1  0  0  0  0
  8 47  1  0  0  0  0
  9 10  1  0  0  0  0
  9 18  2  0  0  0  0
 10 11  2  0  0  0  0
 10 48  1  0  0  0  0
 11 12  1  0  0  0  0
 11 49  1  0  0  0  0
 12 13  2  0  0  0  0
 12 50  1  0  0  0  0
 13 14  1  0  0  0  0
 13 18  1  0  0  0  0
 14 15  1  0  0  0  0
 14 16  1  0  0  0  0
 14 17  1  0  0  0  0
 18 51  1  0  0  0  0
 19 20  1  0  0  0  0
 19 52  1  0  0  0  0
 20 21  1  0  0  0  0
 21 22  1  0  0  0  0
 21 53  1  0  0  0  0
 22 23  2  0  0  0  0
 22 30  1  0  0  0  0
 23 24  1  0  0  0  0
 24 25  1  0  0  0  0
 24 29  2  0  0  0  0
 25 26  2  0  0  0  0
 25 54  1  0  0  0  0
 26 27  1  0  0  0  0
 26 55  1  0  0  0  0
 27 28  2  0  0  0  0
 27 56  1  0  0  0  0
 28 29  1  0  0  0  0
 28 57  1  0  0  0  0
 29 30  1  0  0  0  0
 30 31  1  0  0  0  0
 31 32  1  0  0  0  0
 31 41  2  0  0  0  0
 32 33  2  0  0  0  0
 32 58  1  0  0  0  0
 33 34  1  0  0  0  0
 33 39  1  0  0  0  0
 34 35  1  0  0  0  0
 34 59  1  0  0  0  0
 35 36  1  0  0  0  0
 35 60  1  0  0  0  0
 35 61  1  0  0  0  0
 36 37  1  0  0  0  0
 36 62  1  0  0  0  0
 36 63  1  0  0  0  0
 37 38  3  0  0  0  0
 39 40  2  0  0  0  0
 40 41  1  0  0  0  0
 40 64  1  0  0  0  0
M  END
$$$$
