CHEMBL103055
 OpenBabel04072215353D

 70 75  0  0  0  0  0  0  0  0999 V2000
    1.6946    1.0916   -0.9392 C   0  0  0  0  0  0  0  0  0  0  0  0
    1.7059   -0.4386   -0.9935 C   0  0  0  0  0  0  0  0  0  0  0  0
    2.3040   -1.0642   -2.1970 N   0  0  0  0  0  0  0  0  0  0  0  0
    1.5042   -0.7892   -3.4134 C   0  0  0  0  0  0  0  0  0  0  0  0
    1.4719   -1.9394   -4.4445 C   0  0  0  0  0  0  0  0  0  0  0  0
    2.3993   -1.7284   -5.5273 O   0  0  0  0  0  0  0  0  0  0  0  0
    2.8797   -2.9938   -5.9888 C   0  0  0  0  0  0  0  0  0  0  0  0
    3.9918   -2.9061   -7.0259 C   0  0  0  0  0  0  0  0  0  0  0  0
    4.9346   -4.0299   -7.0365 N   0  0  0  0  0  0  0  0  0  0  0  0
    6.1467   -3.9339   -7.6933 C   0  0  0  0  0  0  0  0  0  0  0  0
    6.8953   -5.0467   -7.3849 C   0  0  0  0  0  0  0  0  0  0  0  0
    6.1159   -5.8736   -6.5344 C   0  0  0  0  0  0  0  0  0  0  0  0
    6.3736   -7.0956   -5.8723 C   0  0  0  0  0  0  0  0  0  0  0  0
    5.4111   -7.6578   -5.0349 C   0  0  0  0  0  0  0  0  0  0  0  0
    4.1796   -7.0449   -4.8866 C   0  0  0  0  0  0  0  0  0  0  0  0
    3.8829   -5.8621   -5.5679 C   0  0  0  0  0  0  0  0  0  0  0  0
    4.8749   -5.2422   -6.3567 C   0  0  0  0  0  0  0  0  0  0  0  0
    8.2423   -5.2700   -7.7783 C   0  0  0  0  0  0  0  0  0  0  0  0
    9.3243   -4.5419   -7.4973 C   0  0  0  0  0  0  0  0  0  0  0  0
   10.4926   -5.2229   -8.0954 C   0  0  0  0  0  0  0  0  0  0  0  0
   11.6537   -4.8585   -8.0636 O   0  0  0  0  0  0  0  0  0  0  0  0
   10.0335   -6.3535   -8.6811 N   0  0  0  0  0  0  0  0  0  0  0  0
    8.6975   -6.4588   -8.5351 C   0  0  0  0  0  0  0  0  0  0  0  0
    8.0079   -7.3741   -8.9458 O   0  0  0  0  0  0  0  0  0  0  0  0
    9.4059   -3.3549   -6.7251 C   0  0  0  0  0  0  0  0  0  0  0  0
    9.0202   -3.2640   -5.4063 C   0  0  0  0  0  0  0  0  0  0  0  0
    9.0175   -1.9334   -5.0602 N   0  0  0  0  0  0  0  0  0  0  0  0
    9.5094   -1.1721   -6.1028 C   0  0  0  0  0  0  0  0  0  0  0  0
    9.7056    0.2152   -6.2258 C   0  0  0  0  0  0  0  0  0  0  0  0
   10.1664    0.7087   -7.4506 C   0  0  0  0  0  0  0  0  0  0  0  0
   10.4141   -0.1440   -8.5214 C   0  0  0  0  0  0  0  0  0  0  0  0
   10.2112   -1.5211   -8.3933 C   0  0  0  0  0  0  0  0  0  0  0  0
    9.7627   -2.0506   -7.1639 C   0  0  0  0  0  0  0  0  0  0  0  0
    8.3069   -1.4329   -3.8844 C   0  0  0  0  0  0  0  0  0  0  0  0
    6.8065   -1.4998   -4.1679 C   0  0  0  0  0  0  0  0  0  0  0  0
    6.0033   -1.0565   -3.0744 O   0  0  0  0  0  0  0  0  0  0  0  0
    4.6068   -1.2636   -3.3905 C   0  0  0  0  0  0  0  0  0  0  0  0
    3.7453   -0.7391   -2.2431 C   0  0  0  0  0  0  0  0  0  0  0  0
    1.1422    1.4235   -0.0533 H   0  0  0  0  0  0  0  0  0  0  0  0
    1.2122    1.5326   -1.8163 H   0  0  0  0  0  0  0  0  0  0  0  0
    2.7037    1.5074   -0.8531 H   0  0  0  0  0  0  0  0  0  0  0  0
    0.6776   -0.8012   -0.8741 H   0  0  0  0  0  0  0  0  0  0  0  0
    2.2378   -0.8071   -0.1068 H   0  0  0  0  0  0  0  0  0  0  0  0
    1.7797    0.1609   -3.8799 H   0  0  0  0  0  0  0  0  0  0  0  0
    0.4556   -0.7009   -3.0950 H   0  0  0  0  0  0  0  0  0  0  0  0
    0.4723   -2.0050   -4.8941 H   0  0  0  0  0  0  0  0  0  0  0  0
    1.6436   -2.8989   -3.9366 H   0  0  0  0  0  0  0  0  0  0  0  0
    2.0427   -3.5772   -6.3924 H   0  0  0  0  0  0  0  0  0  0  0  0
    3.2836   -3.4737   -5.0994 H   0  0  0  0  0  0  0  0  0  0  0  0
    4.5872   -2.0006   -6.8510 H   0  0  0  0  0  0  0  0  0  0  0  0
    3.5784   -2.8299   -8.0393 H   0  0  0  0  0  0  0  0  0  0  0  0
    6.3856   -3.0588   -8.2876 H   0  0  0  0  0  0  0  0  0  0  0  0
    7.3279   -7.5983   -6.0010 H   0  0  0  0  0  0  0  0  0  0  0  0
    5.6248   -8.5844   -4.5104 H   0  0  0  0  0  0  0  0  0  0  0  0
    3.4292   -7.4864   -4.2349 H   0  0  0  0  0  0  0  0  0  0  0  0
    2.8891   -5.4533   -5.4408 H   0  0  0  0  0  0  0  0  0  0  0  0
   10.6132   -7.0297   -9.1450 H   0  0  0  0  0  0  0  0  0  0  0  0
    8.6442   -4.0138   -4.7218 H   0  0  0  0  0  0  0  0  0  0  0  0
    9.5076    0.8956   -5.4036 H   0  0  0  0  0  0  0  0  0  0  0  0
   10.3291    1.7773   -7.5690 H   0  0  0  0  0  0  0  0  0  0  0  0
   10.7664    0.2595   -9.4673 H   0  0  0  0  0  0  0  0  0  0  0  0
   10.4017   -2.1765   -9.2374 H   0  0  0  0  0  0  0  0  0  0  0  0
    8.6405   -0.4145   -3.6612 H   0  0  0  0  0  0  0  0  0  0  0  0
    8.5900   -2.0566   -3.0279 H   0  0  0  0  0  0  0  0  0  0  0  0
    6.5303   -2.5350   -4.4006 H   0  0  0  0  0  0  0  0  0  0  0  0
    6.5759   -0.8798   -5.0421 H   0  0  0  0  0  0  0  0  0  0  0  0
    4.4414   -2.3356   -3.5290 H   0  0  0  0  0  0  0  0  0  0  0  0
    4.3759   -0.7181   -4.3108 H   0  0  0  0  0  0  0  0  0  0  0  0
    3.9064    0.3433   -2.2040 H   0  0  0  0  0  0  0  0  0  0  0  0
    4.1926   -1.1372   -1.3213 H   0  0  0  0  0  0  0  0  0  0  0  0
  1  2  1  0  0  0  0
  1 39  1  0  0  0  0
  1 40  1  0  0  0  0
  1 41  1  0  0  0  0
  2  3  1  0  0  0  0
  2 42  1  0  0  0  0
  2 43  1  0  0  0  0
  3  4  1  0  0  0  0
  3 38  1  0  0  0  0
  4  5  1  0  0  0  0
  4 44  1  0  0  0  0
  4 45  1  0  0  0  0
  5  6  1  0  0  0  0
  5 46  1  0  0  0  0
  5 47  1  0  0  0  0
  6  7  1  0  0  0  0
  7  8  1  0  0  0  0
  7 48  1  0  0  0  0
  7 49  1  0  0  0  0
  8  9  1  0  0  0  0
  8 50  1  0  0  0  0
  8 51  1  0  0  0  0
  9 10  1  0  0  0  0
  9 17  1  0  0  0  0
 10 11  2  0  0  0  0
 10 52  1  0  0  0  0
 11 12  1  0  0  0  0
 11 18  1  0  0  0  0
 12 13  1  0  0  0  0
 12 17  2  0  0  0  0
 13 14  2  0  0  0  0
 13 53  1  0  0  0  0
 14 15  1  0  0  0  0
 14 54  1  0  0  0  0
 15 16  2  0  0  0  0
 15 55  1  0  0  0  0
 16 17  1  0  0  0  0
 16 56  1  0  0  0  0
 18 19  2  0  0  0  0
 18 23  1  0  0  0  0
 19 20  1  0  0  0  0
 19 25  1  0  0  0  0
 20 21  2  0  0  0  0
 20 22  1  0  0  0  0
 22 23  1  0  0  0  0
 22 57  1  0  0  0  0
 23 24  2  0  0  0  0
 25 26  2  0  0  0  0
 25 33  1  0  0  0  0
 26 27  1  0  0  0  0
 26 58  1  0  0  0  0
 27 28  1  0  0  0  0
 27 34  1  0  0  0  0
 28 29  1  0  0  0  0
 28 33  2  0  0  0  0
 29 30  2  0  0  0  0
 29 59  1  0  0  0  0
 30 31  1  0  0  0  0
 30 60  1  0  0  0  0
 31 32  2  0  0  0  0
 31 61  1  0  0  0  0
 32 33  1  0  0  0  0
 32 62  1  0  0  0  0
 34 35  1  0  0  0  0
 34 63  1  0  0  0  0
 34 64  1  0  0  0  0
 35 36  1  0  0  0  0
 35 65  1  0  0  0  0
 35 66  1  0  0  0  0
 36 37  1  0  0  0  0
 37 38  1  0  0  0  0
 37 67  1  0  0  0  0
 37 68  1  0  0  0  0
 38 69  1  0  0  0  0
 38 70  1  0  0  0  0
M  END
$$$$
