CHEMBL2012881
 OpenBabel04072215363D

 33 36  0  0  0  0  0  0  0  0999 V2000
    1.0004   -0.3737    0.0687 O   0  0  0  0  0  0  0  0  0  0  0  0
    2.2181   -0.2962    0.1063 C   0  0  0  0  0  0  0  0  0  0  0  0
    2.9412    0.8990    0.1259 N   0  0  0  0  0  0  0  0  0  0  0  0
    4.2886    0.6549    0.1294 N   0  0  0  0  0  0  0  0  0  0  0  0
    4.3584   -0.6415    0.1226 C   0  0  0  0  0  0  0  0  0  0  0  0
    5.5951   -1.4324    0.1193 C   0  0  0  0  0  0  0  0  0  0  0  0
    5.5480   -2.7755    0.0782 C   0  0  0  0  0  0  0  0  0  0  0  0
    6.8269   -3.5703    0.0592 C   0  0  0  0  0  0  0  0  0  0  0  0
    6.9113   -4.4205    1.1942 O   0  0  0  0  0  0  0  0  0  0  0  0
    4.2208   -3.4551    0.0316 C   0  0  0  0  0  0  0  0  0  0  0  0
    4.1040   -4.8464   -0.0550 C   0  0  0  0  0  0  0  0  0  0  0  0
    2.8500   -5.4638   -0.0412 C   0  0  0  0  0  0  0  0  0  0  0  0
    1.6734   -4.7138    0.0552 C   0  0  0  0  0  0  0  0  0  0  0  0
    0.3850   -5.4106    0.1124 C   0  0  0  0  0  0  0  0  0  0  0  0
    0.0622   -6.6336    0.6822 C   0  0  0  0  0  0  0  0  0  0  0  0
   -1.2943   -6.9166    0.3997 C   0  0  0  0  0  0  0  0  0  0  0  0
   -1.7827   -5.8540   -0.3199 C   0  0  0  0  0  0  0  0  0  0  0  0
   -0.7733   -4.9384   -0.4691 N   0  0  0  0  0  0  0  0  0  0  0  0
    1.7751   -3.3170    0.1045 C   0  0  0  0  0  0  0  0  0  0  0  0
    3.0328   -2.6863    0.0852 C   0  0  0  0  0  0  0  0  0  0  0  0
    3.1694   -1.2883    0.1179 N   0  0  0  0  0  0  0  0  0  0  0  0
    2.5522    1.8325    0.1006 H   0  0  0  0  0  0  0  0  0  0  0  0
    6.5217   -0.8700    0.1433 H   0  0  0  0  0  0  0  0  0  0  0  0
    7.7094   -2.9205    0.0743 H   0  0  0  0  0  0  0  0  0  0  0  0
    6.8961   -4.1813   -0.8472 H   0  0  0  0  0  0  0  0  0  0  0  0
    6.8299   -3.8590    1.9837 H   0  0  0  0  0  0  0  0  0  0  0  0
    4.9796   -5.4877   -0.1197 H   0  0  0  0  0  0  0  0  0  0  0  0
    2.8041   -6.5491   -0.1060 H   0  0  0  0  0  0  0  0  0  0  0  0
    0.7427   -7.2681    1.2356 H   0  0  0  0  0  0  0  0  0  0  0  0
   -1.8471   -7.8027    0.6856 H   0  0  0  0  0  0  0  0  0  0  0  0
   -2.7626   -5.6722   -0.7451 H   0  0  0  0  0  0  0  0  0  0  0  0
   -0.8547   -4.0637   -0.9702 H   0  0  0  0  0  0  0  0  0  0  0  0
    0.8678   -2.7260    0.1904 H   0  0  0  0  0  0  0  0  0  0  0  0
  1  2  2  0  0  0  0
  2  3  1  0  0  0  0
  2 21  1  0  0  0  0
  3  4  1  0  0  0  0
  3 22  1  0  0  0  0
  4  5  2  0  0  0  0
  5  6  1  0  0  0  0
  5 21  1  0  0  0  0
  6  7  2  0  0  0  0
  6 23  1  0  0  0  0
  7  8  1  0  0  0  0
  7 10  1  0  0  0  0
  8  9  1  0  0  0  0
  8 24  1  0  0  0  0
  8 25  1  0  0  0  0
  9 26  1  0  0  0  0
 10 11  1  0  0  0  0
 10 20  2  0  0  0  0
 11 12  2  0  0  0  0
 11 27  1  0  0  0  0
 12 13  1  0  0  0  0
 12 28  1  0  0  0  0
 13 14  1  0  0  0  0
 13 19  2  0  0  0  0
 14 15  2  0  0  0  0
 14 18  1  0  0  0  0
 15 16  1  0  0  0  0
 15 29  1  0  0  0  0
 16 17  2  0  0  0  0
 16 30  1  0  0  0  0
 17 18  1  0  0  0  0
 17 31  1  0  0  0  0
 18 32  1  0  0  0  0
 19 20  1  0  0  0  0
 19 33  1  0  0  0  0
 20 21  1  0  0  0  0
M  END
$$$$
