CHEMBL3915626
 OpenBabel04072215373D

 66 70  0  0  0  0  0  0  0  0999 V2000
    2.4934   -1.0548    0.3750 C   0  0  0  0  0  0  0  0  0  0  0  0
    1.2079   -0.5276   -0.0303 N   0  0  0  0  0  0  0  0  0  0  0  0
    1.1311    0.7651   -0.3997 N   0  0  0  0  0  0  0  0  0  0  0  0
   -0.1582    0.9685   -0.6781 C   0  0  0  0  0  0  0  0  0  0  0  0
   -0.6650    2.3196   -1.1514 C   0  0  0  0  0  0  0  0  0  0  0  0
   -0.5889    2.3850   -2.6884 C   0  0  0  0  0  0  0  0  0  0  0  0
   -2.1309    2.5292   -0.7172 C   0  0  0  0  0  0  0  0  0  0  0  0
    0.1689    3.4724   -0.5579 C   0  0  0  0  0  0  0  0  0  0  0  0
   -0.8959   -0.2271   -0.5193 C   0  0  0  0  0  0  0  0  0  0  0  0
    0.0035   -1.1844   -0.0955 C   0  0  0  0  0  0  0  0  0  0  0  0
   -0.1876   -2.5805    0.2443 C   0  0  0  0  0  0  0  0  0  0  0  0
    0.7225   -3.2529    0.7166 O   0  0  0  0  0  0  0  0  0  0  0  0
   -1.4558   -3.0635   -0.0428 N   0  0  0  0  0  0  0  0  0  0  0  0
   -1.9239   -4.3729    0.1795 C   0  0  0  0  0  0  0  0  0  0  0  0
   -1.2387   -5.3000    0.9647 C   0  0  0  0  0  0  0  0  0  0  0  0
   -1.6791   -6.6169    1.0593 C   0  0  0  0  0  0  0  0  0  0  0  0
   -2.8305   -7.0159    0.3952 C   0  0  0  0  0  0  0  0  0  0  0  0
   -3.5985   -6.0707   -0.2881 C   0  0  0  0  0  0  0  0  0  0  0  0
   -4.8991   -6.4237   -0.9023 C   0  0  0  0  0  0  0  0  0  0  0  0
   -5.2543   -5.8106   -1.9033 O   0  0  0  0  0  0  0  0  0  0  0  0
   -5.7915   -7.4846   -0.3302 C   0  0  0  0  0  0  0  0  0  0  0  0
   -5.7176   -7.9272    1.0052 C   0  0  0  0  0  0  0  0  0  0  0  0
   -6.5339   -8.9740    1.4865 C   0  0  0  0  0  0  0  0  0  0  0  0
   -7.5688   -9.4311    0.6520 C   0  0  0  0  0  0  0  0  0  0  0  0
   -8.6688  -10.3542    0.6712 C   0  0  0  0  0  0  0  0  0  0  0  0
   -8.6813  -11.7410    0.2207 C   0  0  0  0  0  0  0  0  0  0  0  0
   -7.7219  -12.3118   -0.5350 C   0  0  0  0  0  0  0  0  0  0  0  0
   -8.0555  -13.2338   -1.6474 C   0  0  0  0  0  0  0  0  0  0  0  0
   -7.0439  -13.7560   -2.4485 C   0  0  0  0  0  0  0  0  0  0  0  0
   -7.3853  -14.4183   -3.6303 C   0  0  0  0  0  0  0  0  0  0  0  0
   -8.7219  -14.5366   -3.9878 C   0  0  0  0  0  0  0  0  0  0  0  0
   -9.6681  -13.9986   -3.1355 C   0  0  0  0  0  0  0  0  0  0  0  0
   -9.3647  -13.3595   -1.9814 N   0  0  0  0  0  0  0  0  0  0  0  0
   -9.7101   -9.6526    0.1705 N   0  0  0  0  0  0  0  0  0  0  0  0
   -9.1002   -8.9752   -0.8280 N   0  0  0  0  0  0  0  0  0  0  0  0
   -7.7738   -8.7487   -0.5442 C   0  0  0  0  0  0  0  0  0  0  0  0
   -6.8293   -7.9314   -1.1538 C   0  0  0  0  0  0  0  0  0  0  0  0
   -3.1315   -4.7543   -0.4190 C   0  0  0  0  0  0  0  0  0  0  0  0
    3.2642   -0.2932    0.2185 H   0  0  0  0  0  0  0  0  0  0  0  0
    2.7272   -1.9310   -0.2350 H   0  0  0  0  0  0  0  0  0  0  0  0
    2.4434   -1.3092    1.4370 H   0  0  0  0  0  0  0  0  0  0  0  0
   -1.1977    1.5993   -3.1513 H   0  0  0  0  0  0  0  0  0  0  0  0
    0.4399    2.2507   -3.0439 H   0  0  0  0  0  0  0  0  0  0  0  0
   -0.9491    3.3499   -3.0629 H   0  0  0  0  0  0  0  0  0  0  0  0
   -2.7978    1.7856   -1.1690 H   0  0  0  0  0  0  0  0  0  0  0  0
   -2.4981    3.5162   -1.0164 H   0  0  0  0  0  0  0  0  0  0  0  0
   -2.2350    2.4457    0.3713 H   0  0  0  0  0  0  0  0  0  0  0  0
    1.2185    3.4189   -0.8701 H   0  0  0  0  0  0  0  0  0  0  0  0
    0.1482    3.4524    0.5376 H   0  0  0  0  0  0  0  0  0  0  0  0
   -0.2175    4.4462   -0.8816 H   0  0  0  0  0  0  0  0  0  0  0  0
   -1.9559   -0.3512   -0.6809 H   0  0  0  0  0  0  0  0  0  0  0  0
   -2.0686   -2.4604   -0.5729 H   0  0  0  0  0  0  0  0  0  0  0  0
   -0.3444   -5.0296    1.5203 H   0  0  0  0  0  0  0  0  0  0  0  0
   -1.1123   -7.3317    1.6485 H   0  0  0  0  0  0  0  0  0  0  0  0
   -3.1182   -8.0633    0.4353 H   0  0  0  0  0  0  0  0  0  0  0  0
   -5.0477   -7.4436    1.7136 H   0  0  0  0  0  0  0  0  0  0  0  0
   -6.4519   -9.3035    2.5191 H   0  0  0  0  0  0  0  0  0  0  0  0
   -9.6920  -12.1485    0.1528 H   0  0  0  0  0  0  0  0  0  0  0  0
   -6.7149  -11.9104   -0.5545 H   0  0  0  0  0  0  0  0  0  0  0  0
   -5.9997  -13.6174   -2.1928 H   0  0  0  0  0  0  0  0  0  0  0  0
   -6.6100  -14.8138   -4.2809 H   0  0  0  0  0  0  0  0  0  0  0  0
   -9.0181  -15.0249   -4.9104 H   0  0  0  0  0  0  0  0  0  0  0  0
  -10.7275  -14.0501   -3.3736 H   0  0  0  0  0  0  0  0  0  0  0  0
   -9.6582   -8.5648   -1.5705 H   0  0  0  0  0  0  0  0  0  0  0  0
   -6.9742   -7.5421   -2.1563 H   0  0  0  0  0  0  0  0  0  0  0  0
   -3.7123   -4.0429   -1.0047 H   0  0  0  0  0  0  0  0  0  0  0  0
  1  2  1  0  0  0  0
  1 39  1  0  0  0  0
  1 40  1  0  0  0  0
  1 41  1  0  0  0  0
  2  3  1  0  0  0  0
  2 10  1  0  0  0  0
  3  4  2  0  0  0  0
  4  5  1  0  0  0  0
  4  9  1  0  0  0  0
  5  6  1  0  0  0  0
  5  7  1  0  0  0  0
  5  8  1  0  0  0  0
  6 42  1  0  0  0  0
  6 43  1  0  0  0  0
  6 44  1  0  0  0  0
  7 45  1  0  0  0  0
  7 46  1  0  0  0  0
  7 47  1  0  0  0  0
  8 48  1  0  0  0  0
  8 49  1  0  0  0  0
  8 50  1  0  0  0  0
  9 10  2  0  0  0  0
  9 51  1  0  0  0  0
 10 11  1  0  0  0  0
 11 12  2  0  0  0  0
 11 13  1  0  0  0  0
 13 14  1  0  0  0  0
 13 52  1  0  0  0  0
 14 15  1  0  0  0  0
 14 38  2  0  0  0  0
 15 16  2  0  0  0  0
 15 53  1  0  0  0  0
 16 17  1  0  0  0  0
 16 54  1  0  0  0  0
 17 18  2  0  0  0  0
 17 55  1  0  0  0  0
 18 19  1  0  0  0  0
 18 38  1  0  0  0  0
 19 20  2  0  0  0  0
 19 21  1  0  0  0  0
 21 22  1  0  0  0  0
 21 37  2  0  0  0  0
 22 23  2  0  0  0  0
 22 56  1  0  0  0  0
 23 24  1  0  0  0  0
 23 57  1  0  0  0  0
 24 25  1  0  0  0  0
 24 36  2  0  0  0  0
 25 26  1  0  0  0  0
 25 34  2  0  0  0  0
 26 27  2  0  0  0  0
 26 58  1  0  0  0  0
 27 28  1  0  0  0  0
 27 59  1  0  0  0  0
 28 29  1  0  0  0  0
 28 33  2  0  0  0  0
 29 30  2  0  0  0  0
 29 60  1  0  0  0  0
 30 31  1  0  0  0  0
 30 61  1  0  0  0  0
 31 32  2  0  0  0  0
 31 62  1  0  0  0  0
 32 33  1  0  0  0  0
 32 63  1  0  0  0  0
 34 35  1  0  0  0  0
 35 36  1  0  0  0  0
 35 64  1  0  0  0  0
 36 37  1  0  0  0  0
 37 65  1  0  0  0  0
 38 66  1  0  0  0  0
M  END
$$$$
