CHEMBL3582427
 OpenBabel04072215363D

 40 43  0  0  0  0  0  0  0  0999 V2000
   -3.0412   -0.5589   -0.5162 N   0  0  0  0  0  0  0  0  0  0  0  0
   -1.8886   -0.4349   -0.4061 C   0  0  0  0  0  0  0  0  0  0  0  0
   -0.4702   -0.2924   -0.2708 C   0  0  0  0  0  0  0  0  0  0  0  0
    0.3361   -0.1748   -1.4050 C   0  0  0  0  0  0  0  0  0  0  0  0
    1.7254   -0.0585   -1.2738 C   0  0  0  0  0  0  0  0  0  0  0  0
    2.3339   -0.0727   -0.0131 C   0  0  0  0  0  0  0  0  0  0  0  0
    3.7894    0.0077    0.1487 C   0  0  0  0  0  0  0  0  0  0  0  0
    4.5333    0.5452    1.1893 C   0  0  0  0  0  0  0  0  0  0  0  0
    5.8763    0.3725    1.0128 N   0  0  0  0  0  0  0  0  0  0  0  0
    5.9818   -0.2617   -0.1316 C   0  0  0  0  0  0  0  0  0  0  0  0
    7.1233   -0.7127   -0.8162 C   0  0  0  0  0  0  0  0  0  0  0  0
    6.9790   -1.3553   -1.9752 C   0  0  0  0  0  0  0  0  0  0  0  0
    5.6036   -1.5544   -2.5267 C   0  0  0  0  0  0  0  0  0  0  0  0
    5.4219   -2.1801   -3.7331 N   0  0  0  0  0  0  0  0  0  0  0  0
    6.2918   -3.1901   -4.2992 C   0  0  0  0  0  0  0  0  0  0  0  0
    7.4060   -2.5790   -5.1162 C   0  0  0  0  0  0  0  0  0  0  0  0
    8.6481   -3.2278   -5.1971 C   0  0  0  0  0  0  0  0  0  0  0  0
    9.6940   -2.6690   -5.9338 C   0  0  0  0  0  0  0  0  0  0  0  0
    9.5070   -1.4647   -6.6092 C   0  0  0  0  0  0  0  0  0  0  0  0
    8.2735   -0.8209   -6.5555 C   0  0  0  0  0  0  0  0  0  0  0  0
    7.2276   -1.3782   -5.8211 C   0  0  0  0  0  0  0  0  0  0  0  0
    4.5243   -1.1304   -1.9215 N   0  0  0  0  0  0  0  0  0  0  0  0
    4.7492   -0.4995   -0.7200 N   0  0  0  0  0  0  0  0  0  0  0  0
    1.5087   -0.1629    1.1212 C   0  0  0  0  0  0  0  0  0  0  0  0
    0.1189   -0.2730    0.9952 C   0  0  0  0  0  0  0  0  0  0  0  0
   -0.1028   -0.1762   -2.4011 H   0  0  0  0  0  0  0  0  0  0  0  0
    2.3247    0.0407   -2.1766 H   0  0  0  0  0  0  0  0  0  0  0  0
    4.1588    1.0500    2.0705 H   0  0  0  0  0  0  0  0  0  0  0  0
    8.0978   -0.5253   -0.3876 H   0  0  0  0  0  0  0  0  0  0  0  0
    7.8347   -1.6945   -2.5408 H   0  0  0  0  0  0  0  0  0  0  0  0
    4.4755   -2.1577   -4.0936 H   0  0  0  0  0  0  0  0  0  0  0  0
    5.7103   -3.8613   -4.9413 H   0  0  0  0  0  0  0  0  0  0  0  0
    6.7087   -3.8066   -3.4921 H   0  0  0  0  0  0  0  0  0  0  0  0
    8.8161   -4.1684   -4.6759 H   0  0  0  0  0  0  0  0  0  0  0  0
   10.6574   -3.1708   -5.9786 H   0  0  0  0  0  0  0  0  0  0  0  0
   10.3223   -1.0267   -7.1787 H   0  0  0  0  0  0  0  0  0  0  0  0
    8.1244    0.1194   -7.0797 H   0  0  0  0  0  0  0  0  0  0  0  0
    6.2747   -0.8541   -5.7838 H   0  0  0  0  0  0  0  0  0  0  0  0
    1.9388   -0.1675    2.1209 H   0  0  0  0  0  0  0  0  0  0  0  0
   -0.4925   -0.3549    1.8914 H   0  0  0  0  0  0  0  0  0  0  0  0
  1  2  3  0  0  0  0
  2  3  1  0  0  0  0
  3  4  1  0  0  0  0
  3 25  2  0  0  0  0
  4  5  2  0  0  0  0
  4 26  1  0  0  0  0
  5  6  1  0  0  0  0
  5 27  1  0  0  0  0
  6  7  1  0  0  0  0
  6 24  2  0  0  0  0
  7  8  2  0  0  0  0
  7 23  1  0  0  0  0
  8  9  1  0  0  0  0
  8 28  1  0  0  0  0
  9 10  2  0  0  0  0
 10 11  1  0  0  0  0
 10 23  1  0  0  0  0
 11 12  2  0  0  0  0
 11 29  1  0  0  0  0
 12 13  1  0  0  0  0
 12 30  1  0  0  0  0
 13 14  1  0  0  0  0
 13 22  2  0  0  0  0
 14 15  1  0  0  0  0
 14 31  1  0  0  0  0
 15 16  1  0  0  0  0
 15 32  1  0  0  0  0
 15 33  1  0  0  0  0
 16 17  1  0  0  0  0
 16 21  2  0  0  0  0
 17 18  2  0  0  0  0
 17 34  1  0  0  0  0
 18 19  1  0  0  0  0
 18 35  1  0  0  0  0
 19 20  2  0  0  0  0
 19 36  1  0  0  0  0
 20 21  1  0  0  0  0
 20 37  1  0  0  0  0
 21 38  1  0  0  0  0
 22 23  1  0  0  0  0
 24 25  1  0  0  0  0
 24 39  1  0  0  0  0
 25 40  1  0  0  0  0
M  END
$$$$
