CHEMBL4091628
 OpenBabel04072215383D

 73 77  0  0  0  0  0  0  0  0999 V2000
    2.7008   -0.1343    0.4368 C   0  0  0  0  0  0  0  0  0  0  0  0
    1.3320    0.0179   -0.0508 N   0  0  0  0  0  0  0  0  0  0  0  0
    0.5466   -1.1958    0.2227 C   0  0  0  0  0  0  0  0  0  0  0  0
   -0.9271   -1.0333   -0.2190 C   0  0  0  0  0  0  0  0  0  0  0  0
   -1.6432    0.0933    0.4272 N   0  0  0  0  0  0  0  0  0  0  0  0
   -1.8558   -0.0713    1.8783 C   0  0  0  0  0  0  0  0  0  0  0  0
   -2.6446   -1.3103    2.2777 C   0  0  0  0  0  0  0  0  0  0  0  0
   -1.8928   -2.4697    2.5302 C   0  0  0  0  0  0  0  0  0  0  0  0
   -2.4874   -3.6887    2.8292 C   0  0  0  0  0  0  0  0  0  0  0  0
   -3.8639   -3.7993    2.9538 C   0  0  0  0  0  0  0  0  0  0  0  0
   -4.4945   -5.0421    3.2277 N   0  0  0  0  0  0  0  0  0  0  0  0
   -3.8936   -6.2851    3.0315 C   0  0  0  0  0  0  0  0  0  0  0  0
   -2.7593   -6.4663    2.5946 O   0  0  0  0  0  0  0  0  0  0  0  0
   -4.6828   -7.5191    3.3200 C   0  0  0  0  0  0  0  0  0  0  0  0
   -6.0788   -7.5537    3.3305 C   0  0  0  0  0  0  0  0  0  0  0  0
   -6.7415   -8.7753    3.5056 C   0  0  0  0  0  0  0  0  0  0  0  0
   -6.0203   -9.9686    3.6463 C   0  0  0  0  0  0  0  0  0  0  0  0
   -6.9160  -11.4374    3.8162 Cl  0  0  0  0  0  0  0  0  0  0  0  0
   -4.6216   -9.9530    3.6189 C   0  0  0  0  0  0  0  0  0  0  0  0
   -3.8395  -11.1572    3.6519 C   0  0  0  0  0  0  0  0  0  0  0  0
   -3.2068  -12.1820    3.6059 C   0  0  0  0  0  0  0  0  0  0  0  0
   -2.4792  -13.4082    3.4802 C   0  0  0  0  0  0  0  0  0  0  0  0
   -3.1342  -14.6102    3.2725 C   0  0  0  0  0  0  0  0  0  0  0  0
   -2.4964  -15.7891    3.1048 N   0  0  0  0  0  0  0  0  0  0  0  0
   -1.1380  -15.7498    3.1431 C   0  0  0  0  0  0  0  0  0  0  0  0
   -0.3551  -14.6104    3.3505 C   0  0  0  0  0  0  0  0  0  0  0  0
    1.0224  -14.6334    3.3914 N   0  0  0  0  0  0  0  0  0  0  0  0
    1.8413  -15.5769    2.6151 C   0  0  0  0  0  0  0  0  0  0  0  0
    2.7872  -16.3496    3.5474 C   0  0  0  0  0  0  0  0  0  0  0  0
    3.5761  -15.4612    4.3578 O   0  0  0  0  0  0  0  0  0  0  0  0
    2.7223  -14.6297    5.1617 C   0  0  0  0  0  0  0  0  0  0  0  0
    1.7928  -13.7635    4.2927 C   0  0  0  0  0  0  0  0  0  0  0  0
   -1.0807  -13.4217    3.5167 C   0  0  0  0  0  0  0  0  0  0  0  0
   -3.9642   -8.7242    3.4751 C   0  0  0  0  0  0  0  0  0  0  0  0
   -4.6326   -2.6369    2.7927 C   0  0  0  0  0  0  0  0  0  0  0  0
   -4.0455   -1.3926    2.4064 C   0  0  0  0  0  0  0  0  0  0  0  0
   -4.9952   -0.2349    2.1529 C   0  0  0  0  0  0  0  0  0  0  0  0
   -4.4294    0.9394    1.7724 F   0  0  0  0  0  0  0  0  0  0  0  0
   -5.9164   -0.5291    1.1906 F   0  0  0  0  0  0  0  0  0  0  0  0
   -5.7263    0.0648    3.2677 F   0  0  0  0  0  0  0  0  0  0  0  0
   -0.8303    1.3119    0.1634 C   0  0  0  0  0  0  0  0  0  0  0  0
    0.6746    1.1975    0.5446 C   0  0  0  0  0  0  0  0  0  0  0  0
    3.1749   -1.0139   -0.0141 H   0  0  0  0  0  0  0  0  0  0  0  0
    2.7448   -0.2463    1.5265 H   0  0  0  0  0  0  0  0  0  0  0  0
    3.3071    0.7317    0.1524 H   0  0  0  0  0  0  0  0  0  0  0  0
    0.6039   -1.4360    1.2891 H   0  0  0  0  0  0  0  0  0  0  0  0
    0.9777   -2.0479   -0.3160 H   0  0  0  0  0  0  0  0  0  0  0  0
   -1.4708   -1.9746   -0.0909 H   0  0  0  0  0  0  0  0  0  0  0  0
   -0.9390   -0.8629   -1.3055 H   0  0  0  0  0  0  0  0  0  0  0  0
   -2.3563    0.8145    2.2825 H   0  0  0  0  0  0  0  0  0  0  0  0
   -0.9026   -0.0961    2.4210 H   0  0  0  0  0  0  0  0  0  0  0  0
   -0.8095   -2.4540    2.4675 H   0  0  0  0  0  0  0  0  0  0  0  0
   -1.8228   -4.5332    2.9743 H   0  0  0  0  0  0  0  0  0  0  0  0
   -5.4635   -4.9989    3.5077 H   0  0  0  0  0  0  0  0  0  0  0  0
   -6.6762   -6.6653    3.1557 H   0  0  0  0  0  0  0  0  0  0  0  0
   -7.8292   -8.7978    3.4958 H   0  0  0  0  0  0  0  0  0  0  0  0
   -4.2184  -14.6637    3.2268 H   0  0  0  0  0  0  0  0  0  0  0  0
   -0.6781  -16.7270    3.0287 H   0  0  0  0  0  0  0  0  0  0  0  0
    2.4412  -14.9905    1.9077 H   0  0  0  0  0  0  0  0  0  0  0  0
    1.2474  -16.2766    2.0192 H   0  0  0  0  0  0  0  0  0  0  0  0
    3.4798  -16.9553    2.9541 H   0  0  0  0  0  0  0  0  0  0  0  0
    2.2273  -17.0265    4.2032 H   0  0  0  0  0  0  0  0  0  0  0  0
    3.3628  -13.9891    5.7756 H   0  0  0  0  0  0  0  0  0  0  0  0
    2.1411  -15.2686    5.8380 H   0  0  0  0  0  0  0  0  0  0  0  0
    2.3912  -13.0746    3.6848 H   0  0  0  0  0  0  0  0  0  0  0  0
    1.1578  -13.1679    4.9573 H   0  0  0  0  0  0  0  0  0  0  0  0
   -0.5547  -12.4805    3.6445 H   0  0  0  0  0  0  0  0  0  0  0  0
   -2.8739   -8.7058    3.4422 H   0  0  0  0  0  0  0  0  0  0  0  0
   -5.7148   -2.6836    2.9135 H   0  0  0  0  0  0  0  0  0  0  0  0
   -1.2733    2.1782    0.6695 H   0  0  0  0  0  0  0  0  0  0  0  0
   -0.8954    1.5356   -0.9105 H   0  0  0  0  0  0  0  0  0  0  0  0
    0.7673    1.1766    1.6380 H   0  0  0  0  0  0  0  0  0  0  0  0
    1.1864    2.1037    0.1993 H   0  0  0  0  0  0  0  0  0  0  0  0
  1  2  1  0  0  0  0
  1 43  1  0  0  0  0
  1 44  1  0  0  0  0
  1 45  1  0  0  0  0
  2  3  1  0  0  0  0
  2 42  1  0  0  0  0
  3  4  1  0  0  0  0
  3 46  1  0  0  0  0
  3 47  1  0  0  0  0
  4  5  1  0  0  0  0
  4 48  1  0  0  0  0
  4 49  1  0  0  0  0
  5  6  1  0  0  0  0
  5 41  1  0  0  0  0
  6  7  1  0  0  0  0
  6 50  1  0  0  0  0
  6 51  1  0  0  0  0
  7  8  1  0  0  0  0
  7 36  2  0  0  0  0
  8  9  2  0  0  0  0
  8 52  1  0  0  0  0
  9 10  1  0  0  0  0
  9 53  1  0  0  0  0
 10 11  1  0  0  0  0
 10 35  2  0  0  0  0
 11 12  1  0  0  0  0
 11 54  1  0  0  0  0
 12 13  2  0  0  0  0
 12 14  1  0  0  0  0
 14 15  1  0  0  0  0
 14 34  2  0  0  0  0
 15 16  2  0  0  0  0
 15 55  1  0  0  0  0
 16 17  1  0  0  0  0
 16 56  1  0  0  0  0
 17 18  1  0  0  0  0
 17 19  2  0  0  0  0
 19 20  1  0  0  0  0
 19 34  1  0  0  0  0
 20 21  3  0  0  0  0
 21 22  1  0  0  0  0
 22 23  1  0  0  0  0
 22 33  2  0  0  0  0
 23 24  2  0  0  0  0
 23 57  1  0  0  0  0
 24 25  1  0  0  0  0
 25 26  2  0  0  0  0
 25 58  1  0  0  0  0
 26 27  1  0  0  0  0
 26 33  1  0  0  0  0
 27 28  1  0  0  0  0
 27 32  1  0  0  0  0
 28 29  1  0  0  0  0
 28 59  1  0  0  0  0
 28 60  1  0  0  0  0
 29 30  1  0  0  0  0
 29 61  1  0  0  0  0
 29 62  1  0  0  0  0
 30 31  1  0  0  0  0
 31 32  1  0  0  0  0
 31 63  1  0  0  0  0
 31 64  1  0  0  0  0
 32 65  1  0  0  0  0
 32 66  1  0  0  0  0
 33 67  1  0  0  0  0
 34 68  1  0  0  0  0
 35 36  1  0  0  0  0
 35 69  1  0  0  0  0
 36 37  1  0  0  0  0
 37 38  1  0  0  0  0
 37 39  1  0  0  0  0
 37 40  1  0  0  0  0
 41 42  1  0  0  0  0
 41 70  1  0  0  0  0
 41 71  1  0  0  0  0
 42 72  1  0  0  0  0
 42 73  1  0  0  0  0
M  END
$$$$
