CHEMBL3962340
 OpenBabel04072215373D

 55 59  0  0  1  0  0  0  0  0999 V2000
    1.2607    0.6975    0.5188 O   0  0  0  0  0  0  0  0  0  0  0  0
    2.3351    0.2532    0.1236 C   0  0  0  0  0  0  0  0  0  0  0  0
    2.9021    0.5265   -1.1006 N   0  0  0  0  0  0  0  0  0  0  0  0
    2.2909    1.3100   -2.1277 C   0  0  0  0  0  0  0  0  0  0  0  0
    1.2112    2.1811   -1.9253 C   0  0  0  0  0  0  0  0  0  0  0  0
    0.6038    2.8149   -2.9904 C   0  0  0  0  0  0  0  0  0  0  0  0
    1.0683    2.6374   -4.2911 C   0  0  0  0  0  0  0  0  0  0  0  0
    0.3145    3.2575   -5.4606 C   0  0  3  0  0  0  0  0  0  0  0  0
    1.1898    4.2405   -6.2642 C   0  0  0  0  0  0  0  0  0  0  0  0
    0.9438    4.2325   -7.7352 N   0  0  0  0  0  0  0  0  0  0  0  0
    0.8654    3.0451   -8.2377 C   0  0  0  0  0  0  0  0  0  0  0  0
    1.0715    2.7294   -9.6520 C   0  0  0  0  0  0  0  0  0  0  0  0
    0.3356    3.2052  -10.7199 C   0  0  0  0  0  0  0  0  0  0  0  0
    0.6974    2.7760  -11.9994 C   0  0  0  0  0  0  0  0  0  0  0  0
    1.8519    1.9977  -12.1915 C   0  0  0  0  0  0  0  0  0  0  0  0
    2.5340    1.4659  -11.0971 C   0  0  0  0  0  0  0  0  0  0  0  0
    2.0096    1.7188   -9.8403 C   0  0  0  0  0  0  0  0  0  0  0  0
    2.0468    0.7023   -8.8558 N   0  0  0  0  0  0  0  0  0  0  0  0
    1.0019    0.6800   -7.9285 C   0  0  0  0  0  0  0  0  0  0  0  0
    0.4392   -0.3608   -7.6049 O   0  0  0  0  0  0  0  0  0  0  0  0
    0.6696    1.9327   -7.4562 N   0  0  0  0  0  0  0  0  0  0  0  0
   -0.2443    2.1539   -6.3618 C   0  0  0  0  0  0  0  0  0  0  0  0
    2.2010    1.8210   -4.4921 C   0  0  0  0  0  0  0  0  0  0  0  0
    2.8020    1.1681   -3.4157 C   0  0  0  0  0  0  0  0  0  0  0  0
    3.1179   -0.6258    0.8541 N   0  0  0  0  0  0  0  0  0  0  0  0
    2.7359   -1.2318    2.0742 C   0  0  0  0  0  0  0  0  0  0  0  0
    1.4033   -1.3556    2.4810 C   0  0  0  0  0  0  0  0  0  0  0  0
    1.0708   -1.9627    3.7028 C   0  0  0  0  0  0  0  0  0  0  0  0
   -0.3754   -2.1083    4.1155 C   0  0  0  0  0  0  0  0  0  0  0  0
   -1.2618   -1.6126    3.2080 F   0  0  0  0  0  0  0  0  0  0  0  0
   -0.7256   -3.4115    4.3003 F   0  0  0  0  0  0  0  0  0  0  0  0
   -0.6492   -1.4775    5.2900 F   0  0  0  0  0  0  0  0  0  0  0  0
    2.1012   -2.4468    4.5245 C   0  0  0  0  0  0  0  0  0  0  0  0
    3.4335   -2.3443    4.1187 C   0  0  0  0  0  0  0  0  0  0  0  0
    3.7381   -1.7521    2.8965 C   0  0  0  0  0  0  0  0  0  0  0  0
    5.0222   -1.6640    2.5148 F   0  0  0  0  0  0  0  0  0  0  0  0
    3.6683   -0.0623   -1.3822 H   0  0  0  0  0  0  0  0  0  0  0  0
    0.8075    2.3346   -0.9236 H   0  0  0  0  0  0  0  0  0  0  0  0
   -0.2619    3.4434   -2.7794 H   0  0  0  0  0  0  0  0  0  0  0  0
   -0.5411    3.8193   -5.0579 H   0  0  0  0  0  0  0  0  0  0  0  0
    2.2607    4.0376   -6.1124 H   0  0  0  0  0  0  0  0  0  0  0  0
    1.0450    5.2583   -5.8836 H   0  0  0  0  0  0  0  0  0  0  0  0
   -0.5535    3.8047  -10.5552 H   0  0  0  0  0  0  0  0  0  0  0  0
    0.0729    3.0291  -12.8530 H   0  0  0  0  0  0  0  0  0  0  0  0
    2.1582    1.7240  -13.1985 H   0  0  0  0  0  0  0  0  0  0  0  0
    3.3428    0.7581  -11.2453 H   0  0  0  0  0  0  0  0  0  0  0  0
    2.9628    0.5367   -8.4591 H   0  0  0  0  0  0  0  0  0  0  0  0
   -0.4733    1.2229   -5.8330 H   0  0  0  0  0  0  0  0  0  0  0  0
   -1.1834    2.5116   -6.8077 H   0  0  0  0  0  0  0  0  0  0  0  0
    2.5887    1.6622   -5.4839 H   0  0  0  0  0  0  0  0  0  0  0  0
    3.6589    0.5235   -3.6227 H   0  0  0  0  0  0  0  0  0  0  0  0
    4.1035   -0.6594    0.6365 H   0  0  0  0  0  0  0  0  0  0  0  0
    0.5935   -1.0010    1.8461 H   0  0  0  0  0  0  0  0  0  0  0  0
    1.8637   -2.9146    5.4791 H   0  0  0  0  0  0  0  0  0  0  0  0
    4.2344   -2.7220    4.7468 H   0  0  0  0  0  0  0  0  0  0  0  0
  1  2  2  0  0  0  0
  2  3  1  0  0  0  0
  2 25  1  0  0  0  0
  3  4  1  0  0  0  0
  3 37  1  0  0  0  0
  4  5  1  0  0  0  0
  4 24  2  0  0  0  0
  5  6  2  0  0  0  0
  5 38  1  0  0  0  0
  6  7  1  0  0  0  0
  6 39  1  0  0  0  0
  7  8  1  0  0  0  0
  7 23  2  0  0  0  0
  8  9  1  0  0  0  0
  8 22  1  0  0  0  0
  8 40  1  0  0  0  0
  9 10  1  0  0  0  0
  9 41  1  0  0  0  0
  9 42  1  0  0  0  0
 10 11  2  0  0  0  0
 11 12  1  0  0  0  0
 11 21  1  0  0  0  0
 12 13  1  0  0  0  0
 12 17  2  0  0  0  0
 13 14  2  0  0  0  0
 13 43  1  0  0  0  0
 14 15  1  0  0  0  0
 14 44  1  0  0  0  0
 15 16  2  0  0  0  0
 15 45  1  0  0  0  0
 16 17  1  0  0  0  0
 16 46  1  0  0  0  0
 17 18  1  0  0  0  0
 18 19  1  0  0  0  0
 18 47  1  0  0  0  0
 19 20  2  0  0  0  0
 19 21  1  0  0  0  0
 21 22  1  0  0  0  0
 22 48  1  0  0  0  0
 22 49  1  0  0  0  0
 23 24  1  0  0  0  0
 23 50  1  0  0  0  0
 24 51  1  0  0  0  0
 25 26  1  0  0  0  0
 25 52  1  0  0  0  0
 26 27  1  0  0  0  0
 26 35  2  0  0  0  0
 27 28  2  0  0  0  0
 27 53  1  0  0  0  0
 28 29  1  0  0  0  0
 28 33  1  0  0  0  0
 29 30  1  0  0  0  0
 29 31  1  0  0  0  0
 29 32  1  0  0  0  0
 33 34  2  0  0  0  0
 33 54  1  0  0  0  0
 34 35  1  0  0  0  0
 34 55  1  0  0  0  0
 35 36  1  0  0  0  0
M  END
$$$$
