CHEMBL2018766
 OpenBabel04072215363D

 53 55  0  0  0  0  0  0  0  0999 V2000
    6.3282    4.1504   -0.9312 C   0  0  0  0  0  0  0  0  0  0  0  0
    5.9205    2.7650   -0.4426 C   0  0  0  0  0  0  0  0  0  0  0  0
    6.6905    2.2528    0.7053 N   0  0  0  0  0  0  0  0  0  0  0  0
    6.7426    3.1732    1.8527 C   0  0  0  0  0  0  0  0  0  0  0  0
    5.4328    3.3961    2.6009 C   0  0  0  0  0  0  0  0  0  0  0  0
    6.2070    0.8926    1.0325 C   0  0  0  0  0  0  0  0  0  0  0  0
    6.9975    0.1757    2.1283 C   0  0  0  0  0  0  0  0  0  0  0  0
    6.4517   -1.1350    2.3519 O   0  0  0  0  0  0  0  0  0  0  0  0
    7.0101   -1.8408    3.3915 C   0  0  0  0  0  0  0  0  0  0  0  0
    8.0843   -1.3437    4.1461 C   0  0  0  0  0  0  0  0  0  0  0  0
    8.6307   -2.0180    5.2191 C   0  0  0  0  0  0  0  0  0  0  0  0
    9.6425   -1.4291    5.8562 N   0  0  0  0  0  0  0  0  0  0  0  0
   10.1779   -2.1045    6.8716 C   0  0  0  0  0  0  0  0  0  0  0  0
    9.8059   -3.3169    7.2726 N   0  0  0  0  0  0  0  0  0  0  0  0
    8.7873   -3.9070    6.6132 C   0  0  0  0  0  0  0  0  0  0  0  0
    8.4569   -5.2416    6.9620 N   0  0  0  0  0  0  0  0  0  0  0  0
    9.3110   -6.0681    7.7302 C   0  0  0  0  0  0  0  0  0  0  0  0
   10.6843   -6.1400    7.4464 C   0  0  0  0  0  0  0  0  0  0  0  0
   11.5497   -6.8624    8.2679 C   0  0  0  0  0  0  0  0  0  0  0  0
   11.0397   -7.5395    9.3719 C   0  0  0  0  0  0  0  0  0  0  0  0
   12.2251   -8.4584   10.5231 Br  0  0  0  0  0  0  0  0  0  0  0  0
    9.6745   -7.5295    9.6433 C   0  0  0  0  0  0  0  0  0  0  0  0
    8.8221   -6.7996    8.8177 C   0  0  0  0  0  0  0  0  0  0  0  0
    7.5104   -6.7681    9.0987 F   0  0  0  0  0  0  0  0  0  0  0  0
    8.1111   -3.2667    5.5629 C   0  0  0  0  0  0  0  0  0  0  0  0
    7.0206   -3.7867    4.8260 C   0  0  0  0  0  0  0  0  0  0  0  0
    6.4781   -3.0900    3.7372 C   0  0  0  0  0  0  0  0  0  0  0  0
    5.4173   -3.7315    3.1626 O   0  0  0  0  0  0  0  0  0  0  0  0
    5.2601   -3.5816    1.7571 C   0  0  0  0  0  0  0  0  0  0  0  0
    5.8907    4.3368   -1.9178 H   0  0  0  0  0  0  0  0  0  0  0  0
    7.4152    4.2418   -1.0246 H   0  0  0  0  0  0  0  0  0  0  0  0
    5.9649    4.9345   -0.2594 H   0  0  0  0  0  0  0  0  0  0  0  0
    6.0697    2.0763   -1.2835 H   0  0  0  0  0  0  0  0  0  0  0  0
    4.8459    2.7682   -0.2241 H   0  0  0  0  0  0  0  0  0  0  0  0
    7.1359    4.1446    1.5309 H   0  0  0  0  0  0  0  0  0  0  0  0
    7.4988    2.8211    2.5664 H   0  0  0  0  0  0  0  0  0  0  0  0
    4.6118    3.6501    1.9246 H   0  0  0  0  0  0  0  0  0  0  0  0
    5.5458    4.2261    3.3065 H   0  0  0  0  0  0  0  0  0  0  0  0
    5.1469    2.5111    3.1774 H   0  0  0  0  0  0  0  0  0  0  0  0
    6.2715    0.2653    0.1337 H   0  0  0  0  0  0  0  0  0  0  0  0
    5.1428    0.9055    1.3060 H   0  0  0  0  0  0  0  0  0  0  0  0
    6.9212    0.7517    3.0569 H   0  0  0  0  0  0  0  0  0  0  0  0
    8.0445    0.0897    1.8110 H   0  0  0  0  0  0  0  0  0  0  0  0
    8.5542   -0.3927    3.9098 H   0  0  0  0  0  0  0  0  0  0  0  0
   10.9914   -1.6322    7.4078 H   0  0  0  0  0  0  0  0  0  0  0  0
    7.4852   -5.3143    7.2503 H   0  0  0  0  0  0  0  0  0  0  0  0
   11.0904   -5.5968    6.5951 H   0  0  0  0  0  0  0  0  0  0  0  0
   12.6130   -6.8648    8.0442 H   0  0  0  0  0  0  0  0  0  0  0  0
    9.2650   -8.0553   10.4985 H   0  0  0  0  0  0  0  0  0  0  0  0
    6.5935   -4.7525    5.0875 H   0  0  0  0  0  0  0  0  0  0  0  0
    4.7917   -4.4977    1.3807 H   0  0  0  0  0  0  0  0  0  0  0  0
    6.2133   -3.4662    1.2310 H   0  0  0  0  0  0  0  0  0  0  0  0
    4.5819   -2.7509    1.5421 H   0  0  0  0  0  0  0  0  0  0  0  0
  1  2  1  0  0  0  0
  1 30  1  0  0  0  0
  1 31  1  0  0  0  0
  1 32  1  0  0  0  0
  2  3  1  0  0  0  0
  2 33  1  0  0  0  0
  2 34  1  0  0  0  0
  3  4  1  0  0  0  0
  3  6  1  0  0  0  0
  4  5  1  0  0  0  0
  4 35  1  0  0  0  0
  4 36  1  0  0  0  0
  5 37  1  0  0  0  0
  5 38  1  0  0  0  0
  5 39  1  0  0  0  0
  6  7  1  0  0  0  0
  6 40  1  0  0  0  0
  6 41  1  0  0  0  0
  7  8  1  0  0  0  0
  7 42  1  0  0  0  0
  7 43  1  0  0  0  0
  8  9  1  0  0  0  0
  9 10  1  0  0  0  0
  9 27  2  0  0  0  0
 10 11  2  0  0  0  0
 10 44  1  0  0  0  0
 11 12  1  0  0  0  0
 11 25  1  0  0  0  0
 12 13  2  0  0  0  0
 13 14  1  0  0  0  0
 13 45  1  0  0  0  0
 14 15  2  0  0  0  0
 15 16  1  0  0  0  0
 15 25  1  0  0  0  0
 16 17  1  0  0  0  0
 16 46  1  0  0  0  0
 17 18  1  0  0  0  0
 17 23  2  0  0  0  0
 18 19  2  0  0  0  0
 18 47  1  0  0  0  0
 19 20  1  0  0  0  0
 19 48  1  0  0  0  0
 20 21  1  0  0  0  0
 20 22  2  0  0  0  0
 22 23  1  0  0  0  0
 22 49  1  0  0  0  0
 23 24  1  0  0  0  0
 25 26  2  0  0  0  0
 26 27  1  0  0  0  0
 26 50  1  0  0  0  0
 27 28  1  0  0  0  0
 28 29  1  0  0  0  0
 29 51  1  0  0  0  0
 29 52  1  0  0  0  0
 29 53  1  0  0  0  0
M  END
$$$$
