CHEMBL3939918
 OpenBabel04072215373D

 46 49  0  0  0  0  0  0  0  0999 V2000
    2.2858   -0.5348   -0.5958 N   0  0  0  0  0  0  0  0  0  0  0  0
    1.8649    0.6861   -0.1584 C   0  0  0  0  0  0  0  0  0  0  0  0
    0.7093    1.0809   -0.1671 O   0  0  0  0  0  0  0  0  0  0  0  0
    2.8981    1.4386    0.4398 N   0  0  0  0  0  0  0  0  0  0  0  0
    4.2056    1.6622   -0.0312 C   0  0  0  0  0  0  0  0  0  0  0  0
    4.7408    1.2321   -1.3372 C   0  0  0  0  0  0  0  0  0  0  0  0
    3.9372    1.1740   -2.4769 C   0  0  0  0  0  0  0  0  0  0  0  0
    4.4236    0.6274   -3.6702 C   0  0  0  0  0  0  0  0  0  0  0  0
    5.7483    0.1982   -3.7727 C   0  0  0  0  0  0  0  0  0  0  0  0
    6.2555   -0.4009   -4.9494 N   0  0  0  0  0  0  0  0  0  0  0  0
    5.6700   -0.2833   -6.1934 C   0  0  0  0  0  0  0  0  0  0  0  0
    4.7794    0.5168   -6.4657 O   0  0  0  0  0  0  0  0  0  0  0  0
    6.1727   -1.2131   -7.0997 N   0  0  0  0  0  0  0  0  0  0  0  0
    5.6042   -1.2652   -8.3970 C   0  0  0  0  0  0  0  0  0  0  0  0
    5.3906   -0.0926   -9.1309 C   0  0  0  0  0  0  0  0  0  0  0  0
    4.6551   -0.1235  -10.3135 C   0  0  0  0  0  0  0  0  0  0  0  0
    4.1399   -1.3322  -10.7718 C   0  0  0  0  0  0  0  0  0  0  0  0
    4.4034   -2.5138  -10.0760 C   0  0  0  0  0  0  0  0  0  0  0  0
    5.1587   -2.4883   -8.8998 C   0  0  0  0  0  0  0  0  0  0  0  0
    6.5804    0.3234   -2.6668 C   0  0  0  0  0  0  0  0  0  0  0  0
    6.0830    0.8394   -1.4619 C   0  0  0  0  0  0  0  0  0  0  0  0
    4.8677    2.3748    0.9587 C   0  0  0  0  0  0  0  0  0  0  0  0
    3.9948    2.5693    2.0557 C   0  0  0  0  0  0  0  0  0  0  0  0
    4.1454    3.1570    3.3267 C   0  0  0  0  0  0  0  0  0  0  0  0
    3.0691    3.1488    4.2207 C   0  0  0  0  0  0  0  0  0  0  0  0
    1.8508    2.5864    3.8579 C   0  0  0  0  0  0  0  0  0  0  0  0
    1.6757    2.0216    2.5943 C   0  0  0  0  0  0  0  0  0  0  0  0
    2.7668    2.0191    1.7030 C   0  0  0  0  0  0  0  0  0  0  0  0
    1.5851   -1.1733   -0.9462 H   0  0  0  0  0  0  0  0  0  0  0  0
    3.2099   -0.8938   -0.3950 H   0  0  0  0  0  0  0  0  0  0  0  0
    2.9071    1.5181   -2.4687 H   0  0  0  0  0  0  0  0  0  0  0  0
    3.7219    0.5392   -4.4941 H   0  0  0  0  0  0  0  0  0  0  0  0
    7.2102   -0.7237   -4.9363 H   0  0  0  0  0  0  0  0  0  0  0  0
    6.4072   -2.1020   -6.6811 H   0  0  0  0  0  0  0  0  0  0  0  0
    5.7544    0.8630   -8.7601 H   0  0  0  0  0  0  0  0  0  0  0  0
    4.4547    0.8012  -10.8461 H   0  0  0  0  0  0  0  0  0  0  0  0
    3.5204   -1.3495  -11.6645 H   0  0  0  0  0  0  0  0  0  0  0  0
    3.9840   -3.4510  -10.4310 H   0  0  0  0  0  0  0  0  0  0  0  0
    5.3101   -3.4112   -8.3495 H   0  0  0  0  0  0  0  0  0  0  0  0
    7.6267    0.0297   -2.7175 H   0  0  0  0  0  0  0  0  0  0  0  0
    6.7583    0.9173   -0.6125 H   0  0  0  0  0  0  0  0  0  0  0  0
    5.8939    2.7163    0.9041 H   0  0  0  0  0  0  0  0  0  0  0  0
    5.0950    3.5923    3.6233 H   0  0  0  0  0  0  0  0  0  0  0  0
    3.1901    3.5810    5.2108 H   0  0  0  0  0  0  0  0  0  0  0  0
    1.0251    2.5759    4.5659 H   0  0  0  0  0  0  0  0  0  0  0  0
    0.7222    1.5741    2.3222 H   0  0  0  0  0  0  0  0  0  0  0  0
  1  2  1  0  0  0  0
  1 29  1  0  0  0  0
  1 30  1  0  0  0  0
  2  3  2  0  0  0  0
  2  4  1  0  0  0  0
  4  5  1  0  0  0  0
  4 28  1  0  0  0  0
  5  6  1  0  0  0  0
  5 22  2  0  0  0  0
  6  7  1  0  0  0  0
  6 21  2  0  0  0  0
  7  8  2  0  0  0  0
  7 31  1  0  0  0  0
  8  9  1  0  0  0  0
  8 32  1  0  0  0  0
  9 10  1  0  0  0  0
  9 20  2  0  0  0  0
 10 11  1  0  0  0  0
 10 33  1  0  0  0  0
 11 12  2  0  0  0  0
 11 13  1  0  0  0  0
 13 14  1  0  0  0  0
 13 34  1  0  0  0  0
 14 15  1  0  0  0  0
 14 19  2  0  0  0  0
 15 16  2  0  0  0  0
 15 35  1  0  0  0  0
 16 17  1  0  0  0  0
 16 36  1  0  0  0  0
 17 18  2  0  0  0  0
 17 37  1  0  0  0  0
 18 19  1  0  0  0  0
 18 38  1  0  0  0  0
 19 39  1  0  0  0  0
 20 21  1  0  0  0  0
 20 40  1  0  0  0  0
 21 41  1  0  0  0  0
 22 23  1  0  0  0  0
 22 42  1  0  0  0  0
 23 24  1  0  0  0  0
 23 28  2  0  0  0  0
 24 25  2  0  0  0  0
 24 43  1  0  0  0  0
 25 26  1  0  0  0  0
 25 44  1  0  0  0  0
 26 27  2  0  0  0  0
 26 45  1  0  0  0  0
 27 28  1  0  0  0  0
 27 46  1  0  0  0  0
M  END
$$$$
