CHEMBL3956820
 OpenBabel04072215373D

 57 61  0  0  1  0  0  0  0  0999 V2000
    2.4416    0.0570    1.1651 C   0  0  0  0  0  0  0  0  0  0  0  0
    2.6045    0.2809   -0.2318 O   0  0  0  0  0  0  0  0  0  0  0  0
    3.2230   -0.6795   -0.9801 C   0  0  0  0  0  0  0  0  0  0  0  0
    4.2501   -1.4412   -0.4465 C   0  0  0  0  0  0  0  0  0  0  0  0
    4.8451   -2.4858   -1.1720 C   0  0  0  0  0  0  0  0  0  0  0  0
    5.8246   -3.3272   -0.6251 C   0  0  0  0  0  0  0  0  0  0  0  0
    6.1319   -3.2101    0.7477 N   0  0  0  0  0  0  0  0  0  0  0  0
    7.3725   -3.3610    1.3936 C   0  0  0  0  0  0  0  0  0  0  0  0
    8.5803   -3.1287    0.7258 C   0  0  0  0  0  0  0  0  0  0  0  0
    9.7863   -3.0830    1.4288 C   0  0  0  0  0  0  0  0  0  0  0  0
    9.7928   -3.2819    2.8060 C   0  0  0  0  0  0  0  0  0  0  0  0
   10.9585   -3.1784    3.4625 F   0  0  0  0  0  0  0  0  0  0  0  0
    8.6146   -3.5595    3.4884 C   0  0  0  0  0  0  0  0  0  0  0  0
    8.6345   -3.8288    5.1907 Cl  0  0  0  0  0  0  0  0  0  0  0  0
    7.4148   -3.5880    2.7813 C   0  0  0  0  0  0  0  0  0  0  0  0
    6.2564   -3.8169    3.4267 F   0  0  0  0  0  0  0  0  0  0  0  0
    6.4567   -4.2535   -1.3677 N   0  0  0  0  0  0  0  0  0  0  0  0
    6.0412   -4.3737   -2.6338 C   0  0  0  0  0  0  0  0  0  0  0  0
    5.0850   -3.6544   -3.2373 N   0  0  0  0  0  0  0  0  0  0  0  0
    4.4861   -2.7042   -2.5054 C   0  0  0  0  0  0  0  0  0  0  0  0
    3.5066   -1.8813   -3.0645 C   0  0  0  0  0  0  0  0  0  0  0  0
    2.8759   -0.8608   -2.3349 C   0  0  0  0  0  0  0  0  0  0  0  0
    1.9485   -0.1261   -3.0589 O   0  0  0  0  0  0  0  0  0  0  0  0
    1.8655    1.2415   -2.6478 C   0  0  0  0  0  0  0  0  0  0  0  0
    1.0237    2.1652   -3.5541 C   0  0  1  0  0  0  0  0  0  0  0  0
    1.0409    3.5779   -2.9090 C   0  0  0  0  0  0  0  0  0  0  0  0
    2.4106    4.1200   -2.9941 N   0  0  3  0  0  0  0  0  0  0  0  0
    2.6111    5.3420   -2.2082 C   0  0  0  0  0  0  0  0  0  0  0  0
    3.8718    6.1504   -2.5900 C   0  0  0  0  0  0  0  0  0  0  0  0
    4.0783    6.2535   -4.0040 O   0  0  0  0  0  0  0  0  0  0  0  0
    4.1087    4.9465   -4.5948 C   0  0  0  0  0  0  0  0  0  0  0  0
    2.7357    4.2880   -4.4314 C   0  0  1  0  0  0  0  0  0  0  0  0
    2.6965    2.9053   -5.1179 C   0  0  0  0  0  0  0  0  0  0  0  0
    1.4437    2.2299   -4.9310 O   0  0  0  0  0  0  0  0  0  0  0  0
    2.8044    0.9419    1.6951 H   0  0  0  0  0  0  0  0  0  0  0  0
    2.9510   -0.8217    1.5726 H   0  0  0  0  0  0  0  0  0  0  0  0
    1.3760   -0.0637    1.3778 H   0  0  0  0  0  0  0  0  0  0  0  0
    4.6311   -1.2256    0.5496 H   0  0  0  0  0  0  0  0  0  0  0  0
    5.3345   -3.4621    1.3266 H   0  0  0  0  0  0  0  0  0  0  0  0
    8.5894   -2.9411   -0.3463 H   0  0  0  0  0  0  0  0  0  0  0  0
   10.7156   -2.8619    0.9116 H   0  0  0  0  0  0  0  0  0  0  0  0
    6.5277   -5.1396   -3.2336 H   0  0  0  0  0  0  0  0  0  0  0  0
    3.2344   -2.0308   -4.1110 H   0  0  0  0  0  0  0  0  0  0  0  0
    2.8825    1.6379   -2.5500 H   0  0  0  0  0  0  0  0  0  0  0  0
    1.3440    1.2775   -1.6881 H   0  0  0  0  0  0  0  0  0  0  0  0
   -0.0052    1.7883   -3.5768 H   0  0  0  0  0  0  0  0  0  0  0  0
    0.7257    3.5090   -1.8608 H   0  0  0  0  0  0  0  0  0  0  0  0
    0.3314    4.2369   -3.4256 H   0  0  0  0  0  0  0  0  0  0  0  0
    2.7209    5.0475   -1.1543 H   0  0  0  0  0  0  0  0  0  0  0  0
    1.7393    5.9917   -2.2751 H   0  0  0  0  0  0  0  0  0  0  0  0
    4.7741    5.7220   -2.1383 H   0  0  0  0  0  0  0  0  0  0  0  0
    3.7675    7.1704   -2.2030 H   0  0  0  0  0  0  0  0  0  0  0  0
    4.9080    4.3525   -4.1378 H   0  0  0  0  0  0  0  0  0  0  0  0
    4.3499    5.0692   -5.6565 H   0  0  0  0  0  0  0  0  0  0  0  0
    1.9806    4.9383   -4.8839 H   0  0  0  0  0  0  0  0  0  0  0  0
    3.5013    2.2528   -4.7642 H   0  0  0  0  0  0  0  0  0  0  0  0
    2.8313    3.0295   -6.1980 H   0  0  0  0  0  0  0  0  0  0  0  0
  1  2  1  0  0  0  0
  1 35  1  0  0  0  0
  1 36  1  0  0  0  0
  1 37  1  0  0  0  0
  2  3  1  0  0  0  0
  3  4  1  0  0  0  0
  3 22  2  0  0  0  0
  4  5  2  0  0  0  0
  4 38  1  0  0  0  0
  5  6  1  0  0  0  0
  5 20  1  0  0  0  0
  6  7  1  0  0  0  0
  6 17  2  0  0  0  0
  7  8  1  0  0  0  0
  7 39  1  0  0  0  0
  8  9  1  0  0  0  0
  8 15  2  0  0  0  0
  9 10  2  0  0  0  0
  9 40  1  0  0  0  0
 10 11  1  0  0  0  0
 10 41  1  0  0  0  0
 11 12  1  0  0  0  0
 11 13  2  0  0  0  0
 13 14  1  0  0  0  0
 13 15  1  0  0  0  0
 15 16  1  0  0  0  0
 17 18  1  0  0  0  0
 18 19  2  0  0  0  0
 18 42  1  0  0  0  0
 19 20  1  0  0  0  0
 20 21  2  0  0  0  0
 21 22  1  0  0  0  0
 21 43  1  0  0  0  0
 22 23  1  0  0  0  0
 23 24  1  0  0  0  0
 24 25  1  0  0  0  0
 24 44  1  0  0  0  0
 24 45  1  0  0  0  0
 25 26  1  0  0  0  0
 25 34  1  0  0  0  0
 25 46  1  1  0  0  0
 26 27  1  0  0  0  0
 26 47  1  0  0  0  0
 26 48  1  0  0  0  0
 27 28  1  0  0  0  0
 27 32  1  0  0  0  0
 28 29  1  0  0  0  0
 28 49  1  0  0  0  0
 28 50  1  0  0  0  0
 29 30  1  0  0  0  0
 29 51  1  0  0  0  0
 29 52  1  0  0  0  0
 30 31  1  0  0  0  0
 31 32  1  0  0  0  0
 31 53  1  0  0  0  0
 31 54  1  0  0  0  0
 32 33  1  0  0  0  0
 32 55  1  6  0  0  0
 33 34  1  0  0  0  0
 33 56  1  0  0  0  0
 33 57  1  0  0  0  0
M  END
$$$$
