CHEMBL3702620
 OpenBabel04072215373D

 53 55  0  0  0  0  0  0  0  0999 V2000
    4.6290    1.1424   -1.0086 C   0  0  0  0  0  0  0  0  0  0  0  0
    4.0363    1.5803    0.3418 C   0  0  0  0  0  0  0  0  0  0  0  0
    4.3420    3.0673    0.5765 C   0  0  0  0  0  0  0  0  0  0  0  0
    2.5071    1.3961    0.2798 C   0  0  0  0  0  0  0  0  0  0  0  0
    4.5833    0.7121    1.5045 C   0  0  0  0  0  0  0  0  0  0  0  0
    6.1077    0.7215    1.6740 C   0  0  0  0  0  0  0  0  0  0  0  0
    6.5608   -0.1523    2.7403 N   0  0  0  0  0  0  0  0  0  0  0  0
    6.4529   -1.5237    2.6330 C   0  0  0  0  0  0  0  0  0  0  0  0
    5.8999   -2.0993    1.7016 O   0  0  0  0  0  0  0  0  0  0  0  0
    7.0543   -2.3268    3.7213 C   0  0  0  0  0  0  0  0  0  0  0  0
    6.4202   -3.5043    4.1174 C   0  0  0  0  0  0  0  0  0  0  0  0
    7.0172   -4.3133    5.0773 C   0  0  0  0  0  0  0  0  0  0  0  0
    8.2543   -3.9517    5.6226 C   0  0  0  0  0  0  0  0  0  0  0  0
    8.9275   -2.7841    5.2244 C   0  0  0  0  0  0  0  0  0  0  0  0
   10.1877   -2.4862    5.7145 N   0  0  0  0  0  0  0  0  0  0  0  0
   11.1552   -1.7091    4.9347 C   0  0  0  0  0  0  0  0  0  0  0  0
   11.2123   -0.2808    5.4602 C   0  0  0  0  0  0  0  0  0  0  0  0
   11.4218   -0.2758    6.9495 C   0  0  0  0  0  0  0  0  0  0  0  0
   11.9513    0.8497    7.4780 N   0  0  0  0  0  0  0  0  0  0  0  0
   12.1362    0.8694    8.7995 C   0  0  0  0  0  0  0  0  0  0  0  0
   12.6800    2.0138    9.3446 N   0  0  0  0  0  0  0  0  0  0  0  0
   11.7943   -0.1135    9.6335 N   0  0  0  0  0  0  0  0  0  0  0  0
   11.2602   -1.2162    9.0730 C   0  0  0  0  0  0  0  0  0  0  0  0
   11.0436   -1.3628    7.7200 C   0  0  0  0  0  0  0  0  0  0  0  0
   10.4859   -2.6332    7.1429 C   0  0  0  0  0  0  0  0  0  0  0  0
    8.2922   -1.9742    4.2720 C   0  0  0  0  0  0  0  0  0  0  0  0
    4.1861    1.7097   -1.8353 H   0  0  0  0  0  0  0  0  0  0  0  0
    4.4393    0.0795   -1.1965 H   0  0  0  0  0  0  0  0  0  0  0  0
    5.7104    1.3055   -1.0532 H   0  0  0  0  0  0  0  0  0  0  0  0
    3.9175    3.6867   -0.2218 H   0  0  0  0  0  0  0  0  0  0  0  0
    5.4187    3.2624    0.6001 H   0  0  0  0  0  0  0  0  0  0  0  0
    3.9162    3.4112    1.5257 H   0  0  0  0  0  0  0  0  0  0  0  0
    2.0698    1.9787   -0.5390 H   0  0  0  0  0  0  0  0  0  0  0  0
    2.0302    1.7199    1.2116 H   0  0  0  0  0  0  0  0  0  0  0  0
    2.2413    0.3452    0.1166 H   0  0  0  0  0  0  0  0  0  0  0  0
    4.2416   -0.3185    1.3489 H   0  0  0  0  0  0  0  0  0  0  0  0
    4.1245    1.0313    2.4501 H   0  0  0  0  0  0  0  0  0  0  0  0
    6.4660    1.7253    1.9211 H   0  0  0  0  0  0  0  0  0  0  0  0
    6.6104    0.3934    0.7594 H   0  0  0  0  0  0  0  0  0  0  0  0
    6.9917    0.2615    3.5538 H   0  0  0  0  0  0  0  0  0  0  0  0
    5.4761   -3.7975    3.6644 H   0  0  0  0  0  0  0  0  0  0  0  0
    6.5397   -5.2434    5.3753 H   0  0  0  0  0  0  0  0  0  0  0  0
    8.7203   -4.6382    6.3261 H   0  0  0  0  0  0  0  0  0  0  0  0
   10.9354   -1.7211    3.8605 H   0  0  0  0  0  0  0  0  0  0  0  0
   12.1406   -2.1829    5.0369 H   0  0  0  0  0  0  0  0  0  0  0  0
   10.2762    0.2480    5.2469 H   0  0  0  0  0  0  0  0  0  0  0  0
   12.0239    0.2619    4.9633 H   0  0  0  0  0  0  0  0  0  0  0  0
   12.4979    2.7978    8.7344 H   0  0  0  0  0  0  0  0  0  0  0  0
   12.3938    2.0978   10.3094 H   0  0  0  0  0  0  0  0  0  0  0  0
   11.0075   -2.0045    9.7771 H   0  0  0  0  0  0  0  0  0  0  0  0
    9.5945   -2.9103    7.7187 H   0  0  0  0  0  0  0  0  0  0  0  0
   11.2276   -3.4324    7.2629 H   0  0  0  0  0  0  0  0  0  0  0  0
    8.7743   -1.0676    3.9245 H   0  0  0  0  0  0  0  0  0  0  0  0
  1  2  1  0  0  0  0
  1 27  1  0  0  0  0
  1 28  1  0  0  0  0
  1 29  1  0  0  0  0
  2  3  1  0  0  0  0
  2  4  1  0  0  0  0
  2  5  1  0  0  0  0
  3 30  1  0  0  0  0
  3 31  1  0  0  0  0
  3 32  1  0  0  0  0
  4 33  1  0  0  0  0
  4 34  1  0  0  0  0
  4 35  1  0  0  0  0
  5  6  1  0  0  0  0
  5 36  1  0  0  0  0
  5 37  1  0  0  0  0
  6  7  1  0  0  0  0
  6 38  1  0  0  0  0
  6 39  1  0  0  0  0
  7  8  1  0  0  0  0
  7 40  1  0  0  0  0
  8  9  2  0  0  0  0
  8 10  1  0  0  0  0
 10 11  1  0  0  0  0
 10 26  2  0  0  0  0
 11 12  2  0  0  0  0
 11 41  1  0  0  0  0
 12 13  1  0  0  0  0
 12 42  1  0  0  0  0
 13 14  2  0  0  0  0
 13 43  1  0  0  0  0
 14 15  1  0  0  0  0
 14 26  1  0  0  0  0
 15 16  1  0  0  0  0
 15 25  1  0  0  0  0
 16 17  1  0  0  0  0
 16 44  1  0  0  0  0
 16 45  1  0  0  0  0
 17 18  1  0  0  0  0
 17 46  1  0  0  0  0
 17 47  1  0  0  0  0
 18 19  1  0  0  0  0
 18 24  2  0  0  0  0
 19 20  2  0  0  0  0
 20 21  1  0  0  0  0
 20 22  1  0  0  0  0
 21 48  1  0  0  0  0
 21 49  1  0  0  0  0
 22 23  2  0  0  0  0
 23 24  1  0  0  0  0
 23 50  1  0  0  0  0
 24 25  1  0  0  0  0
 25 51  1  0  0  0  0
 25 52  1  0  0  0  0
 26 53  1  0  0  0  0
M  END
$$$$
