CHEMBL3648124
 OpenBabel04072215373D

 50 51  0  0  1  0  0  0  0  0999 V2000
    1.2431    2.1357   -0.4232 C   0  0  0  0  0  0  0  0  0  0  0  0
    2.7396    2.0354   -0.1946 C   0  0  0  0  0  0  0  0  0  0  0  0
    3.3909    0.4440   -0.6912 S   0  0  3  0  0  0  0  0  0  0  0  0
    2.6683   -0.6264    0.1537 N   0  0  0  0  0  0  0  0  0  0  0  0
    3.4641    0.4219   -2.1337 O   0  0  0  0  0  0  0  0  0  0  0  0
    5.0799    0.5069   -0.1091 C   0  0  0  0  0  0  0  0  0  0  0  0
    5.5355   -0.4337    0.8139 C   0  0  0  0  0  0  0  0  0  0  0  0
    6.8570   -0.3778    1.2593 C   0  0  0  0  0  0  0  0  0  0  0  0
    7.7504    0.5930    0.7790 C   0  0  0  0  0  0  0  0  0  0  0  0
    9.0900    0.6697    1.2260 N   0  0  0  0  0  0  0  0  0  0  0  0
    9.8559   -0.4270    1.6571 C   0  0  0  0  0  0  0  0  0  0  0  0
    9.6040   -1.6290    1.1201 N   0  0  0  0  0  0  0  0  0  0  0  0
   10.2143   -2.6886    1.6653 C   0  0  0  0  0  0  0  0  0  0  0  0
   11.0810   -2.5909    2.7246 C   0  0  0  0  0  0  0  0  0  0  0  0
   11.8148   -4.1603    3.4733 Br  0  0  0  0  0  0  0  0  0  0  0  0
   11.3864   -1.3037    3.1573 C   0  0  0  0  0  0  0  0  0  0  0  0
   12.3693   -1.1404    4.1519 N   0  0  0  0  0  0  0  0  0  0  0  0
   13.0270    0.1716    4.3225 C   0  0  1  0  0  0  0  0  0  0  0  0
   13.2031    0.4290    5.8295 C   0  0  0  0  0  0  0  0  0  0  0  0
   14.4157    0.1432    3.5802 C   0  0  0  0  0  0  0  0  0  0  0  0
   14.2534   -0.0011    2.0614 C   0  0  0  0  0  0  0  0  0  0  0  0
   15.2646    1.3868    3.8665 C   0  0  0  0  0  0  0  0  0  0  0  0
   15.1769   -0.9912    4.0331 O   0  0  0  0  0  0  0  0  0  0  0  0
   10.7703   -0.2217    2.6266 N   0  0  0  0  0  0  0  0  0  0  0  0
    7.2663    1.5470   -0.1270 C   0  0  0  0  0  0  0  0  0  0  0  0
    5.9441    1.4963   -0.5875 C   0  0  0  0  0  0  0  0  0  0  0  0
    0.8829    3.1293   -0.1388 H   0  0  0  0  0  0  0  0  0  0  0  0
    0.6968    1.3986    0.1741 H   0  0  0  0  0  0  0  0  0  0  0  0
    0.9909    1.9670   -1.4751 H   0  0  0  0  0  0  0  0  0  0  0  0
    2.9731    2.1812    0.8643 H   0  0  0  0  0  0  0  0  0  0  0  0
    3.2548    2.7986   -0.7826 H   0  0  0  0  0  0  0  0  0  0  0  0
    1.7274   -0.8061   -0.2129 H   0  0  0  0  0  0  0  0  0  0  0  0
    4.8842   -1.2205    1.1866 H   0  0  0  0  0  0  0  0  0  0  0  0
    7.1831   -1.1210    1.9830 H   0  0  0  0  0  0  0  0  0  0  0  0
    9.2475    1.4284    1.8772 H   0  0  0  0  0  0  0  0  0  0  0  0
    9.9608   -3.6401    1.2084 H   0  0  0  0  0  0  0  0  0  0  0  0
   12.0642   -1.5828    5.0166 H   0  0  0  0  0  0  0  0  0  0  0  0
   12.4152    0.9904    3.9281 H   0  0  0  0  0  0  0  0  0  0  0  0
   13.9414   -0.2471    6.2751 H   0  0  0  0  0  0  0  0  0  0  0  0
   12.2612    0.2958    6.3718 H   0  0  0  0  0  0  0  0  0  0  0  0
   13.5346    1.4572    6.0109 H   0  0  0  0  0  0  0  0  0  0  0  0
   13.6520    0.8117    1.6439 H   0  0  0  0  0  0  0  0  0  0  0  0
   13.7950   -0.9578    1.7916 H   0  0  0  0  0  0  0  0  0  0  0  0
   15.2318    0.0007    1.5668 H   0  0  0  0  0  0  0  0  0  0  0  0
   14.7576    2.3016    3.5449 H   0  0  0  0  0  0  0  0  0  0  0  0
   16.2294    1.3237    3.3488 H   0  0  0  0  0  0  0  0  0  0  0  0
   15.5144    1.4741    4.9290 H   0  0  0  0  0  0  0  0  0  0  0  0
   14.5899   -1.7607    3.9018 H   0  0  0  0  0  0  0  0  0  0  0  0
    7.9361    2.3103   -0.5168 H   0  0  0  0  0  0  0  0  0  0  0  0
    5.6086    2.2152   -1.3321 H   0  0  0  0  0  0  0  0  0  0  0  0
  1  2  1  0  0  0  0
  1 27  1  0  0  0  0
  1 28  1  0  0  0  0
  1 29  1  0  0  0  0
  2  3  1  0  0  0  0
  2 30  1  0  0  0  0
  2 31  1  0  0  0  0
  3  4  2  0  0  0  0
  3  5  2  0  0  0  0
  3  6  1  0  0  0  0
  4 32  1  0  0  0  0
  6  7  1  0  0  0  0
  6 26  2  0  0  0  0
  7  8  2  0  0  0  0
  7 33  1  0  0  0  0
  8  9  1  0  0  0  0
  8 34  1  0  0  0  0
  9 10  1  0  0  0  0
  9 25  2  0  0  0  0
 10 11  1  0  0  0  0
 10 35  1  0  0  0  0
 11 12  1  0  0  0  0
 11 24  2  0  0  0  0
 12 13  2  0  0  0  0
 13 14  1  0  0  0  0
 13 36  1  0  0  0  0
 14 15  1  0  0  0  0
 14 16  2  0  0  0  0
 16 17  1  0  0  0  0
 16 24  1  0  0  0  0
 17 18  1  0  0  0  0
 17 37  1  0  0  0  0
 18 19  1  0  0  0  0
 18 20  1  0  0  0  0
 18 38  1  6  0  0  0
 19 39  1  0  0  0  0
 19 40  1  0  0  0  0
 19 41  1  0  0  0  0
 20 21  1  0  0  0  0
 20 22  1  0  0  0  0
 20 23  1  0  0  0  0
 21 42  1  0  0  0  0
 21 43  1  0  0  0  0
 21 44  1  0  0  0  0
 22 45  1  0  0  0  0
 22 46  1  0  0  0  0
 22 47  1  0  0  0  0
 23 48  1  0  0  0  0
 25 26  1  0  0  0  0
 25 49  1  0  0  0  0
 26 50  1  0  0  0  0
M  END
$$$$
