CHEMBL3964556
 OpenBabel04072215373D

 53 57  0  0  1  0  0  0  0  0999 V2000
   -3.8279   -1.2600    4.4180 C   0  0  0  0  0  0  0  0  0  0  0  0
   -2.6361   -1.0696    3.6584 O   0  0  0  0  0  0  0  0  0  0  0  0
   -1.4628   -1.4866    4.2357 C   0  0  0  0  0  0  0  0  0  0  0  0
   -1.4018   -2.1495    5.4620 C   0  0  0  0  0  0  0  0  0  0  0  0
   -0.1673   -2.5529    6.0132 C   0  0  0  0  0  0  0  0  0  0  0  0
   -0.0318   -3.2512    7.2211 C   0  0  0  0  0  0  0  0  0  0  0  0
   -1.2007   -3.6398    7.9354 N   0  0  0  0  0  0  0  0  0  0  0  0
   -1.1865   -4.0704    9.2787 C   0  0  0  0  0  0  0  0  0  0  0  0
   -0.4991   -3.3335   10.2478 C   0  0  0  0  0  0  0  0  0  0  0  0
   -0.3854   -3.7948   11.5590 C   0  0  0  0  0  0  0  0  0  0  0  0
   -0.9713   -5.0083   11.9167 C   0  0  0  0  0  0  0  0  0  0  0  0
   -0.7366   -5.5628   13.5344 Cl  0  0  0  0  0  0  0  0  0  0  0  0
   -1.7093   -5.7297   10.9698 C   0  0  0  0  0  0  0  0  0  0  0  0
   -2.4790   -7.2309   11.3497 Cl  0  0  0  0  0  0  0  0  0  0  0  0
   -1.8243   -5.2540    9.6596 C   0  0  0  0  0  0  0  0  0  0  0  0
    1.1733   -3.5776    7.7228 N   0  0  0  0  0  0  0  0  0  0  0  0
    2.2414   -3.2228    7.0069 C   0  0  0  0  0  0  0  0  0  0  0  0
    2.2223   -2.5730    5.8391 N   0  0  0  0  0  0  0  0  0  0  0  0
    1.0227   -2.2437    5.3522 C   0  0  0  0  0  0  0  0  0  0  0  0
    0.9524   -1.5755    4.1378 C   0  0  0  0  0  0  0  0  0  0  0  0
   -0.2677   -1.2140    3.5511 C   0  0  0  0  0  0  0  0  0  0  0  0
   -0.3729   -0.6667    2.2956 O   0  0  0  0  0  0  0  0  0  0  0  0
    0.7178    0.1391    1.8168 C   0  0  1  0  0  0  0  0  0  0  0  0
    1.7656   -0.6960    1.0817 C   0  0  0  0  0  0  0  0  0  0  0  0
    1.3234   -0.8430   -0.2752 O   0  0  0  0  0  0  0  0  0  0  0  0
    0.5805    0.3399   -0.6009 C   0  0  2  0  0  0  0  0  0  0  0  0
    1.4843    1.3489   -1.3067 C   0  0  1  0  0  0  0  0  0  0  0  0
    1.3423    1.3704   -2.7247 O   0  0  0  0  0  0  0  0  0  0  0  0
    1.7819    0.1558   -3.3277 C   0  0  0  0  0  0  0  0  0  0  0  0
    1.0314    2.6530   -0.6817 C   0  0  0  0  0  0  0  0  0  0  0  0
    0.7882    2.3317    0.6966 O   0  0  0  0  0  0  0  0  0  0  0  0
    0.1775    1.0259    0.7009 C   0  0  2  0  0  0  0  0  0  0  0  0
   -4.6609   -0.8078    3.8737 H   0  0  0  0  0  0  0  0  0  0  0  0
   -3.7652   -0.7635    5.3938 H   0  0  0  0  0  0  0  0  0  0  0  0
   -4.0458   -2.3276    4.5366 H   0  0  0  0  0  0  0  0  0  0  0  0
   -2.3050   -2.3606    6.0238 H   0  0  0  0  0  0  0  0  0  0  0  0
   -1.7781   -4.2233    7.3378 H   0  0  0  0  0  0  0  0  0  0  0  0
   -0.0209   -2.3922    9.9731 H   0  0  0  0  0  0  0  0  0  0  0  0
    0.1823   -3.2142   12.2785 H   0  0  0  0  0  0  0  0  0  0  0  0
   -2.3799   -5.8351    8.9294 H   0  0  0  0  0  0  0  0  0  0  0  0
    3.2122   -3.4958    7.4051 H   0  0  0  0  0  0  0  0  0  0  0  0
    1.8991   -1.3678    3.6507 H   0  0  0  0  0  0  0  0  0  0  0  0
    1.1481    0.7294    2.6345 H   0  0  0  0  0  0  0  0  0  0  0  0
    1.9158   -1.6982    1.4868 H   0  0  0  0  0  0  0  0  0  0  0  0
    2.7294   -0.1737    1.0628 H   0  0  0  0  0  0  0  0  0  0  0  0
   -0.2835    0.0466   -1.2053 H   0  0  0  0  0  0  0  0  0  0  0  0
    2.5401    1.1779   -1.0565 H   0  0  0  0  0  0  0  0  0  0  0  0
    1.7642    0.2858   -4.4129 H   0  0  0  0  0  0  0  0  0  0  0  0
    1.1071   -0.6667   -3.0736 H   0  0  0  0  0  0  0  0  0  0  0  0
    2.8044   -0.0866   -3.0213 H   0  0  0  0  0  0  0  0  0  0  0  0
    0.1095    3.0334   -1.1379 H   0  0  0  0  0  0  0  0  0  0  0  0
    1.7917    3.4366   -0.7496 H   0  0  0  0  0  0  0  0  0  0  0  0
   -0.9081    1.1660    0.7544 H   0  0  0  0  0  0  0  0  0  0  0  0
  1  2  1  0  0  0  0
  1 33  1  0  0  0  0
  1 34  1  0  0  0  0
  1 35  1  0  0  0  0
  2  3  1  0  0  0  0
  3  4  1  0  0  0  0
  3 21  2  0  0  0  0
  4  5  2  0  0  0  0
  4 36  1  0  0  0  0
  5  6  1  0  0  0  0
  5 19  1  0  0  0  0
  6  7  1  0  0  0  0
  6 16  2  0  0  0  0
  7  8  1  0  0  0  0
  7 37  1  0  0  0  0
  8  9  1  0  0  0  0
  8 15  2  0  0  0  0
  9 10  2  0  0  0  0
  9 38  1  0  0  0  0
 10 11  1  0  0  0  0
 10 39  1  0  0  0  0
 11 12  1  0  0  0  0
 11 13  2  0  0  0  0
 13 14  1  0  0  0  0
 13 15  1  0  0  0  0
 15 40  1  0  0  0  0
 16 17  1  0  0  0  0
 17 18  2  0  0  0  0
 17 41  1  0  0  0  0
 18 19  1  0  0  0  0
 19 20  2  0  0  0  0
 20 21  1  0  0  0  0
 20 42  1  0  0  0  0
 21 22  1  0  0  0  0
 23 24  1  0  0  0  0
 23 32  1  0  0  0  0
 23 22  1  0  0  0  0
 23 43  1  1  0  0  0
 24 25  1  0  0  0  0
 24 44  1  0  0  0  0
 24 45  1  0  0  0  0
 25 26  1  0  0  0  0
 26 27  1  0  0  0  0
 26 32  1  0  0  0  0
 26 46  1  6  0  0  0
 27 28  1  0  0  0  0
 27 30  1  0  0  0  0
 27 47  1  1  0  0  0
 28 29  1  0  0  0  0
 29 48  1  0  0  0  0
 29 49  1  0  0  0  0
 29 50  1  0  0  0  0
 30 31  1  0  0  0  0
 30 51  1  0  0  0  0
 30 52  1  0  0  0  0
 31 32  1  0  0  0  0
 32 53  1  1  0  0  0
M  END
$$$$
