CHEMBL2004513
 OpenBabel04072215363D

 42 45  0  0  0  0  0  0  0  0999 V2000
    1.7565    1.1791    1.1984 C   0  0  0  0  0  0  0  0  0  0  0  0
    3.0816    0.9292    0.7504 O   0  0  0  0  0  0  0  0  0  0  0  0
    3.1710    0.6127   -0.5671 C   0  0  0  0  0  0  0  0  0  0  0  0
    2.2417    0.5370   -1.3520 O   0  0  0  0  0  0  0  0  0  0  0  0
    4.5944    0.3666   -0.9201 C   0  0  0  0  0  0  0  0  0  0  0  0
    5.2891   -0.5141   -0.0644 C   0  0  0  0  0  0  0  0  0  0  0  0
    6.5590   -0.9707   -0.3938 C   0  0  0  0  0  0  0  0  0  0  0  0
    7.1466   -0.5470   -1.5755 C   0  0  0  0  0  0  0  0  0  0  0  0
    6.4844    0.3681   -2.4035 C   0  0  0  0  0  0  0  0  0  0  0  0
    5.1928    0.8650   -2.1095 C   0  0  0  0  0  0  0  0  0  0  0  0
    4.5364    1.8286   -3.0497 C   0  0  0  0  0  0  0  0  0  0  0  0
    3.6131    2.7957   -2.6130 C   0  0  0  0  0  0  0  0  0  0  0  0
    2.7903    3.4841   -3.5117 C   0  0  0  0  0  0  0  0  0  0  0  0
    2.9806    3.3226   -4.8755 C   0  0  0  0  0  0  0  0  0  0  0  0
    4.1323    2.6595   -5.3208 C   0  0  0  0  0  0  0  0  0  0  0  0
    4.8174    1.8268   -4.4292 C   0  0  0  0  0  0  0  0  0  0  0  0
    4.6774    2.8449   -6.6349 N   0  0  0  0  0  0  0  0  0  0  0  0
    4.2024    3.8929   -7.4828 C   0  0  0  0  0  0  0  0  0  0  0  0
    4.9172    5.0822   -7.6192 C   0  0  0  0  0  0  0  0  0  0  0  0
    4.3764    6.1428   -8.3563 C   0  0  0  0  0  0  0  0  0  0  0  0
    3.1458    6.0032   -9.0044 C   0  0  0  0  0  0  0  0  0  0  0  0
    2.3754    4.8665   -8.7871 C   0  0  0  0  0  0  0  0  0  0  0  0
    2.8728    3.8791   -7.9442 C   0  0  0  0  0  0  0  0  0  0  0  0
    1.9442    3.1806   -7.1109 N   0  0  0  0  0  0  0  0  0  0  0  0
    1.9275    3.7988   -5.8357 C   0  0  0  0  0  0  0  0  0  0  0  0
    1.1251    4.6695   -5.5162 O   0  0  0  0  0  0  0  0  0  0  0  0
    1.7451    1.1404    2.2964 H   0  0  0  0  0  0  0  0  0  0  0  0
    1.0466    0.4251    0.8339 H   0  0  0  0  0  0  0  0  0  0  0  0
    1.4383    2.1811    0.8890 H   0  0  0  0  0  0  0  0  0  0  0  0
    4.8224   -0.8743    0.8504 H   0  0  0  0  0  0  0  0  0  0  0  0
    7.0774   -1.6680    0.2584 H   0  0  0  0  0  0  0  0  0  0  0  0
    8.1255   -0.9245   -1.8622 H   0  0  0  0  0  0  0  0  0  0  0  0
    7.0121    0.6815   -3.3022 H   0  0  0  0  0  0  0  0  0  0  0  0
    3.4541    2.9787   -1.5534 H   0  0  0  0  0  0  0  0  0  0  0  0
    1.9955    4.1280   -3.1401 H   0  0  0  0  0  0  0  0  0  0  0  0
    5.6005    1.1929   -4.8359 H   0  0  0  0  0  0  0  0  0  0  0  0
    4.5932    1.9533   -7.1262 H   0  0  0  0  0  0  0  0  0  0  0  0
    5.8513    5.2216   -7.0815 H   0  0  0  0  0  0  0  0  0  0  0  0
    4.8943    7.0983   -8.3928 H   0  0  0  0  0  0  0  0  0  0  0  0
    2.7392    6.8239   -9.5884 H   0  0  0  0  0  0  0  0  0  0  0  0
    1.3570    4.8100   -9.1598 H   0  0  0  0  0  0  0  0  0  0  0  0
    2.3026    2.2407   -6.9802 H   0  0  0  0  0  0  0  0  0  0  0  0
  1  2  1  0  0  0  0
  1 27  1  0  0  0  0
  1 28  1  0  0  0  0
  1 29  1  0  0  0  0
  2  3  1  0  0  0  0
  3  4  2  0  0  0  0
  3  5  1  0  0  0  0
  5  6  1  0  0  0  0
  5 10  2  0  0  0  0
  6  7  2  0  0  0  0
  6 30  1  0  0  0  0
  7  8  1  0  0  0  0
  7 31  1  0  0  0  0
  8  9  2  0  0  0  0
  8 32  1  0  0  0  0
  9 10  1  0  0  0  0
  9 33  1  0  0  0  0
 10 11  1  0  0  0  0
 11 12  1  0  0  0  0
 11 16  2  0  0  0  0
 12 13  2  0  0  0  0
 12 34  1  0  0  0  0
 13 14  1  0  0  0  0
 13 35  1  0  0  0  0
 14 15  2  0  0  0  0
 14 25  1  0  0  0  0
 15 16  1  0  0  0  0
 15 17  1  0  0  0  0
 16 36  1  0  0  0  0
 17 18  1  0  0  0  0
 17 37  1  0  0  0  0
 18 19  1  0  0  0  0
 18 23  2  0  0  0  0
 19 20  2  0  0  0  0
 19 38  1  0  0  0  0
 20 21  1  0  0  0  0
 20 39  1  0  0  0  0
 21 22  2  0  0  0  0
 21 40  1  0  0  0  0
 22 23  1  0  0  0  0
 22 41  1  0  0  0  0
 23 24  1  0  0  0  0
 24 25  1  0  0  0  0
 24 42  1  0  0  0  0
 25 26  2  0  0  0  0
M  END
$$$$
