CHEMBL3775840
 OpenBabel04072215373D

 37 39  0  0  0  0  0  0  0  0999 V2000
    2.4125    1.7094    0.6897 C   0  0  0  0  0  0  0  0  0  0  0  0
    2.3667    0.3566    0.2343 O   0  0  0  0  0  0  0  0  0  0  0  0
    2.9951   -0.5516    1.0481 C   0  0  0  0  0  0  0  0  0  0  0  0
    4.1053   -0.2003    1.8288 C   0  0  0  0  0  0  0  0  0  0  0  0
    4.6730   -1.0706    2.7446 C   0  0  0  0  0  0  0  0  0  0  0  0
    5.6763   -0.6121    3.4953 N   0  0  0  0  0  0  0  0  0  0  0  0
    6.1633   -1.4471    4.4145 C   0  0  0  0  0  0  0  0  0  0  0  0
    5.7536   -2.6964    4.6305 N   0  0  0  0  0  0  0  0  0  0  0  0
    4.7580   -3.1616    3.8504 C   0  0  0  0  0  0  0  0  0  0  0  0
    4.3187   -4.4987    4.0496 N   0  0  0  0  0  0  0  0  0  0  0  0
    4.6573   -5.2728    5.1941 C   0  0  0  0  0  0  0  0  0  0  0  0
    4.4882   -4.7229    6.4765 C   0  0  0  0  0  0  0  0  0  0  0  0
    4.8574   -5.4287    7.6206 C   0  0  0  0  0  0  0  0  0  0  0  0
    5.3908   -6.7087    7.5050 C   0  0  0  0  0  0  0  0  0  0  0  0
    5.5318   -7.2877    6.2433 C   0  0  0  0  0  0  0  0  0  0  0  0
    6.0501   -8.5517    6.1405 O   0  0  0  0  0  0  0  0  0  0  0  0
    5.1589   -6.5829    5.0879 C   0  0  0  0  0  0  0  0  0  0  0  0
    5.3436   -7.3054    3.5218 Cl  0  0  0  0  0  0  0  0  0  0  0  0
    4.1514   -2.3630    2.8651 C   0  0  0  0  0  0  0  0  0  0  0  0
    3.0674   -2.7477    2.0377 C   0  0  0  0  0  0  0  0  0  0  0  0
    2.5068   -1.8600    1.1174 C   0  0  0  0  0  0  0  0  0  0  0  0
    1.4489   -2.3809    0.4185 O   0  0  0  0  0  0  0  0  0  0  0  0
    1.2894   -1.9223   -0.9200 C   0  0  0  0  0  0  0  0  0  0  0  0
    1.6196    2.2655    0.1823 H   0  0  0  0  0  0  0  0  0  0  0  0
    3.3692    2.1707    0.4233 H   0  0  0  0  0  0  0  0  0  0  0  0
    2.2315    1.7846    1.7689 H   0  0  0  0  0  0  0  0  0  0  0  0
    4.5451    0.7904    1.7556 H   0  0  0  0  0  0  0  0  0  0  0  0
    6.9606   -1.0747    5.0477 H   0  0  0  0  0  0  0  0  0  0  0  0
    4.4714   -5.0320    3.1948 H   0  0  0  0  0  0  0  0  0  0  0  0
    4.0767   -3.7211    6.5828 H   0  0  0  0  0  0  0  0  0  0  0  0
    4.7376   -4.9684    8.5979 H   0  0  0  0  0  0  0  0  0  0  0  0
    5.6917   -7.2365    8.4053 H   0  0  0  0  0  0  0  0  0  0  0  0
    6.2743   -8.8790    7.0264 H   0  0  0  0  0  0  0  0  0  0  0  0
    2.6354   -3.7425    2.1307 H   0  0  0  0  0  0  0  0  0  0  0  0
    0.8158   -2.7295   -1.4882 H   0  0  0  0  0  0  0  0  0  0  0  0
    2.2430   -1.6965   -1.4093 H   0  0  0  0  0  0  0  0  0  0  0  0
    0.6151   -1.0613   -0.9464 H   0  0  0  0  0  0  0  0  0  0  0  0
  1  2  1  0  0  0  0
  1 24  1  0  0  0  0
  1 25  1  0  0  0  0
  1 26  1  0  0  0  0
  2  3  1  0  0  0  0
  3  4  1  0  0  0  0
  3 21  2  0  0  0  0
  4  5  2  0  0  0  0
  4 27  1  0  0  0  0
  5  6  1  0  0  0  0
  5 19  1  0  0  0  0
  6  7  2  0  0  0  0
  7  8  1  0  0  0  0
  7 28  1  0  0  0  0
  8  9  2  0  0  0  0
  9 10  1  0  0  0  0
  9 19  1  0  0  0  0
 10 11  1  0  0  0  0
 10 29  1  0  0  0  0
 11 12  1  0  0  0  0
 11 17  2  0  0  0  0
 12 13  2  0  0  0  0
 12 30  1  0  0  0  0
 13 14  1  0  0  0  0
 13 31  1  0  0  0  0
 14 15  2  0  0  0  0
 14 32  1  0  0  0  0
 15 16  1  0  0  0  0
 15 17  1  0  0  0  0
 16 33  1  0  0  0  0
 17 18  1  0  0  0  0
 19 20  2  0  0  0  0
 20 21  1  0  0  0  0
 20 34  1  0  0  0  0
 21 22  1  0  0  0  0
 22 23  1  0  0  0  0
 23 35  1  0  0  0  0
 23 36  1  0  0  0  0
 23 37  1  0  0  0  0
M  END
$$$$
