CHEMBL3690571
 OpenBabel04072215373D

 55 58  0  0  0  0  0  0  0  0999 V2000
    2.0731    6.8516   -0.1630 C   0  0  0  0  0  0  0  0  0  0  0  0
    2.3920    5.7375   -1.0186 N   0  0  0  0  0  0  0  0  0  0  0  0
    1.5756    4.6281   -1.0793 C   0  0  0  0  0  0  0  0  0  0  0  0
    0.5742    4.4877   -0.3851 O   0  0  0  0  0  0  0  0  0  0  0  0
    1.9848    3.5720   -2.0588 C   0  0  0  0  0  0  0  0  0  0  0  0
    1.3445    2.3532   -2.0162 C   0  0  0  0  0  0  0  0  0  0  0  0
    1.7597    1.4271   -2.9410 C   0  0  0  0  0  0  0  0  0  0  0  0
    1.1659    0.0533   -2.9927 C   0  0  0  0  0  0  0  0  0  0  0  0
    2.7026    1.7130   -3.8591 N   0  0  0  0  0  0  0  0  0  0  0  0
    3.2489    2.9465   -3.8447 C   0  0  0  0  0  0  0  0  0  0  0  0
    4.1861    3.3011   -4.9502 C   0  0  0  0  0  0  0  0  0  0  0  0
    4.8020    4.6321   -5.0525 C   0  0  0  0  0  0  0  0  0  0  0  0
    5.5886    4.9372   -6.0958 C   0  0  0  0  0  0  0  0  0  0  0  0
    5.8609    3.9726   -7.0671 N   0  0  0  0  0  0  0  0  0  0  0  0
    6.6660    4.0152   -8.1995 C   0  0  0  0  0  0  0  0  0  0  0  0
    7.4991    5.1334   -8.6670 C   0  0  0  0  0  0  0  0  0  0  0  0
    7.6510    5.3369  -10.0455 C   0  0  0  0  0  0  0  0  0  0  0  0
    8.4420    6.3744  -10.5297 C   0  0  0  0  0  0  0  0  0  0  0  0
    9.0619    7.2515   -9.6435 C   0  0  0  0  0  0  0  0  0  0  0  0
    8.9163    7.0969   -8.2651 C   0  0  0  0  0  0  0  0  0  0  0  0
    9.4776    7.9892   -7.3208 N   0  0  0  0  0  0  0  0  0  0  0  0
   10.1632    9.1529   -7.6090 C   0  0  0  0  0  0  0  0  0  0  0  0
   10.4128    9.6115   -8.7143 O   0  0  0  0  0  0  0  0  0  0  0  0
   10.6240    9.7840   -6.4728 N   0  0  0  0  0  0  0  0  0  0  0  0
   11.3793   11.0338   -6.6410 C   0  0  0  0  0  0  0  0  0  0  0  0
   10.5517   12.2934   -6.9409 C   0  0  0  0  0  0  0  0  0  0  0  0
    9.2245   12.0775   -6.7886 F   0  0  0  0  0  0  0  0  0  0  0  0
   10.8874   13.2796   -6.0705 F   0  0  0  0  0  0  0  0  0  0  0  0
   10.7642   12.7691   -8.1844 F   0  0  0  0  0  0  0  0  0  0  0  0
    8.1773    6.0003   -7.7881 C   0  0  0  0  0  0  0  0  0  0  0  0
    6.4469    2.7815   -8.8039 C   0  0  0  0  0  0  0  0  0  0  0  0
    5.6147    1.9834   -8.0720 N   0  0  0  0  0  0  0  0  0  0  0  0
    5.2857    2.7051   -7.0253 C   0  0  0  0  0  0  0  0  0  0  0  0
    4.4364    2.3926   -5.9246 C   0  0  0  0  0  0  0  0  0  0  0  0
    2.9505    3.9000   -2.9479 N   0  0  0  0  0  0  0  0  0  0  0  0
    2.8657    7.5989   -0.2378 H   0  0  0  0  0  0  0  0  0  0  0  0
    1.9816    6.5037    0.8700 H   0  0  0  0  0  0  0  0  0  0  0  0
    1.1200    7.2852   -0.4797 H   0  0  0  0  0  0  0  0  0  0  0  0
    3.2106    5.7581   -1.6170 H   0  0  0  0  0  0  0  0  0  0  0  0
    0.5653    2.1446   -1.2943 H   0  0  0  0  0  0  0  0  0  0  0  0
    0.4435   -0.1067   -2.1859 H   0  0  0  0  0  0  0  0  0  0  0  0
    1.9577   -0.6958   -2.8943 H   0  0  0  0  0  0  0  0  0  0  0  0
    0.6541   -0.0947   -3.9484 H   0  0  0  0  0  0  0  0  0  0  0  0
    4.5863    5.3667   -4.2822 H   0  0  0  0  0  0  0  0  0  0  0  0
    6.0102    5.9234   -6.2140 H   0  0  0  0  0  0  0  0  0  0  0  0
    7.1538    4.6913  -10.7661 H   0  0  0  0  0  0  0  0  0  0  0  0
    8.5693    6.5133  -11.6003 H   0  0  0  0  0  0  0  0  0  0  0  0
    9.6611    8.0474  -10.0731 H   0  0  0  0  0  0  0  0  0  0  0  0
    9.3421    7.7732   -6.3471 H   0  0  0  0  0  0  0  0  0  0  0  0
   10.0556    9.7012   -5.6425 H   0  0  0  0  0  0  0  0  0  0  0  0
   12.1102   10.8891   -7.4453 H   0  0  0  0  0  0  0  0  0  0  0  0
   11.9450   11.1750   -5.7146 H   0  0  0  0  0  0  0  0  0  0  0  0
    8.1360    5.8219   -6.7192 H   0  0  0  0  0  0  0  0  0  0  0  0
    6.8666    2.4249   -9.7372 H   0  0  0  0  0  0  0  0  0  0  0  0
    3.9919    1.4010   -5.9231 H   0  0  0  0  0  0  0  0  0  0  0  0
  1  2  1  0  0  0  0
  1 36  1  0  0  0  0
  1 37  1  0  0  0  0
  1 38  1  0  0  0  0
  2  3  1  0  0  0  0
  2 39  1  0  0  0  0
  3  4  2  0  0  0  0
  3  5  1  0  0  0  0
  5  6  1  0  0  0  0
  5 35  2  0  0  0  0
  6  7  2  0  0  0  0
  6 40  1  0  0  0  0
  7  8  1  0  0  0  0
  7  9  1  0  0  0  0
  8 41  1  0  0  0  0
  8 42  1  0  0  0  0
  8 43  1  0  0  0  0
  9 10  2  0  0  0  0
 10 11  1  0  0  0  0
 10 35  1  0  0  0  0
 11 12  1  0  0  0  0
 11 34  2  0  0  0  0
 12 13  2  0  0  0  0
 12 44  1  0  0  0  0
 13 14  1  0  0  0  0
 13 45  1  0  0  0  0
 14 15  1  0  0  0  0
 14 33  1  0  0  0  0
 15 16  1  0  0  0  0
 15 31  2  0  0  0  0
 16 17  1  0  0  0  0
 16 30  2  0  0  0  0
 17 18  2  0  0  0  0
 17 46  1  0  0  0  0
 18 19  1  0  0  0  0
 18 47  1  0  0  0  0
 19 20  2  0  0  0  0
 19 48  1  0  0  0  0
 20 21  1  0  0  0  0
 20 30  1  0  0  0  0
 21 22  1  0  0  0  0
 21 49  1  0  0  0  0
 22 23  2  0  0  0  0
 22 24  1  0  0  0  0
 24 25  1  0  0  0  0
 24 50  1  0  0  0  0
 25 26  1  0  0  0  0
 25 51  1  0  0  0  0
 25 52  1  0  0  0  0
 26 27  1  0  0  0  0
 26 28  1  0  0  0  0
 26 29  1  0  0  0  0
 30 53  1  0  0  0  0
 31 32  1  0  0  0  0
 31 54  1  0  0  0  0
 32 33  2  0  0  0  0
 33 34  1  0  0  0  0
 34 55  1  0  0  0  0
M  END
$$$$
