CHEMBL3740385
 OpenBabel04072215373D

 66 71  0  0  0  0  0  0  0  0999 V2000
    2.1561    0.3302    0.1417 C   0  0  0  0  0  0  0  0  0  0  0  0
    0.7093   -0.0178    0.0802 C   0  0  0  0  0  0  0  0  0  0  0  0
   -0.1527    1.0461    0.1027 N   0  0  0  0  0  0  0  0  0  0  0  0
   -1.4630    0.6715   -0.0049 C   0  0  0  0  0  0  0  0  0  0  0  0
   -2.5086    1.7164   -0.0221 C   0  0  0  0  0  0  0  0  0  0  0  0
   -2.2731    2.9557   -0.6465 C   0  0  0  0  0  0  0  0  0  0  0  0
   -3.2694    3.9344   -0.7094 C   0  0  0  0  0  0  0  0  0  0  0  0
   -4.5277    3.6792   -0.1741 C   0  0  0  0  0  0  0  0  0  0  0  0
   -4.7747    2.4656    0.4608 C   0  0  0  0  0  0  0  0  0  0  0  0
   -3.7617    1.5084    0.5659 C   0  0  0  0  0  0  0  0  0  0  0  0
   -1.4638   -0.7283   -0.0759 C   0  0  0  0  0  0  0  0  0  0  0  0
   -2.7111   -1.5064   -0.2669 C   0  0  0  0  0  0  0  0  0  0  0  0
   -3.6981   -1.0872   -1.1772 C   0  0  0  0  0  0  0  0  0  0  0  0
   -4.9127   -1.7734   -1.3067 C   0  0  0  0  0  0  0  0  0  0  0  0
   -5.1209   -2.9583   -0.6097 C   0  0  0  0  0  0  0  0  0  0  0  0
   -4.1408   -3.4173    0.2606 C   0  0  0  0  0  0  0  0  0  0  0  0
   -2.9809   -2.6631    0.4732 C   0  0  0  0  0  0  0  0  0  0  0  0
   -0.0551   -1.1932    0.0323 C   0  0  0  0  0  0  0  0  0  0  0  0
    0.3822   -2.6271    0.0516 C   0  0  0  0  0  0  0  0  0  0  0  0
   -0.4262   -3.5355    0.1722 O   0  0  0  0  0  0  0  0  0  0  0  0
    1.7902   -3.0061   -0.0063 C   0  0  0  0  0  0  0  0  0  0  0  0
    2.8197   -2.5334    0.7774 C   0  0  0  0  0  0  0  0  0  0  0  0
    3.9802   -3.0924    0.3125 N   0  0  0  0  0  0  0  0  0  0  0  0
    5.3062   -2.6553    0.5911 C   0  0  0  0  0  0  0  0  0  0  0  0
    5.5373   -1.5178    1.3849 C   0  0  0  0  0  0  0  0  0  0  0  0
    6.8445   -1.1111    1.6716 C   0  0  0  0  0  0  0  0  0  0  0  0
    7.9200   -1.8312    1.1567 C   0  0  0  0  0  0  0  0  0  0  0  0
    9.5251   -1.3466    1.5415 Cl  0  0  0  0  0  0  0  0  0  0  0  0
    7.7021   -2.9374    0.3400 C   0  0  0  0  0  0  0  0  0  0  0  0
    6.3971   -3.3484    0.0500 C   0  0  0  0  0  0  0  0  0  0  0  0
    3.7228   -4.1671   -0.4737 N   0  0  0  0  0  0  0  0  0  0  0  0
    2.3794   -4.1531   -0.6406 C   0  0  0  0  0  0  0  0  0  0  0  0
    1.6874   -5.2577   -1.3547 C   0  0  0  0  0  0  0  0  0  0  0  0
    0.4922   -5.2109   -1.6122 O   0  0  0  0  0  0  0  0  0  0  0  0
    2.5227   -6.3242   -1.6560 N   0  0  0  0  0  0  0  0  0  0  0  0
    2.1420   -7.5666   -2.2114 C   0  0  0  0  0  0  0  0  0  0  0  0
    0.8481   -7.8535   -2.6558 C   0  0  0  0  0  0  0  0  0  0  0  0
    0.5203   -9.1173   -3.1442 C   0  0  0  0  0  0  0  0  0  0  0  0
    1.4729  -10.1249   -3.1969 C   0  0  0  0  0  0  0  0  0  0  0  0
    2.7685   -9.8556   -2.7633 C   0  0  0  0  0  0  0  0  0  0  0  0
    3.1046   -8.5851   -2.2865 C   0  0  0  0  0  0  0  0  0  0  0  0
    2.3257    1.3820   -0.1201 H   0  0  0  0  0  0  0  0  0  0  0  0
    2.7525   -0.2578   -0.5577 H   0  0  0  0  0  0  0  0  0  0  0  0
    2.5279    0.2186    1.1642 H   0  0  0  0  0  0  0  0  0  0  0  0
    0.1437    2.0092    0.1796 H   0  0  0  0  0  0  0  0  0  0  0  0
   -1.3180    3.1737   -1.1176 H   0  0  0  0  0  0  0  0  0  0  0  0
   -3.0674    4.8859   -1.1944 H   0  0  0  0  0  0  0  0  0  0  0  0
   -5.3165    4.4222   -0.2545 H   0  0  0  0  0  0  0  0  0  0  0  0
   -5.7591    2.2518    0.8681 H   0  0  0  0  0  0  0  0  0  0  0  0
   -3.9797    0.5781    1.0856 H   0  0  0  0  0  0  0  0  0  0  0  0
   -3.5566   -0.1871   -1.7707 H   0  0  0  0  0  0  0  0  0  0  0  0
   -5.6898   -1.3820   -1.9572 H   0  0  0  0  0  0  0  0  0  0  0  0
   -6.0401   -3.5213   -0.7417 H   0  0  0  0  0  0  0  0  0  0  0  0
   -4.2689   -4.3612    0.7841 H   0  0  0  0  0  0  0  0  0  0  0  0
   -2.2837   -3.0234    1.2229 H   0  0  0  0  0  0  0  0  0  0  0  0
    2.8114   -1.8234    1.5870 H   0  0  0  0  0  0  0  0  0  0  0  0
    4.7307   -0.9208    1.7982 H   0  0  0  0  0  0  0  0  0  0  0  0
    7.0120   -0.2398    2.2984 H   0  0  0  0  0  0  0  0  0  0  0  0
    8.5432   -3.4875   -0.0726 H   0  0  0  0  0  0  0  0  0  0  0  0
    6.2498   -4.2116   -0.5965 H   0  0  0  0  0  0  0  0  0  0  0  0
    3.4889   -6.1951   -1.3709 H   0  0  0  0  0  0  0  0  0  0  0  0
    0.0578   -7.1091   -2.6395 H   0  0  0  0  0  0  0  0  0  0  0  0
   -0.4938   -9.3112   -3.4830 H   0  0  0  0  0  0  0  0  0  0  0  0
    1.2073  -11.1102   -3.5672 H   0  0  0  0  0  0  0  0  0  0  0  0
    3.5264  -10.6383   -2.8068 H   0  0  0  0  0  0  0  0  0  0  0  0
    4.1219   -8.4050   -1.9501 H   0  0  0  0  0  0  0  0  0  0  0  0
  1  2  1  0  0  0  0
  1 42  1  0  0  0  0
  1 43  1  0  0  0  0
  1 44  1  0  0  0  0
  2  3  1  0  0  0  0
  2 18  2  0  0  0  0
  3  4  1  0  0  0  0
  3 45  1  0  0  0  0
  4  5  1  0  0  0  0
  4 11  2  0  0  0  0
  5  6  1  0  0  0  0
  5 10  2  0  0  0  0
  6  7  2  0  0  0  0
  6 46  1  0  0  0  0
  7  8  1  0  0  0  0
  7 47  1  0  0  0  0
  8  9  2  0  0  0  0
  8 48  1  0  0  0  0
  9 10  1  0  0  0  0
  9 49  1  0  0  0  0
 10 50  1  0  0  0  0
 11 12  1  0  0  0  0
 11 18  1  0  0  0  0
 12 13  1  0  0  0  0
 12 17  2  0  0  0  0
 13 14  2  0  0  0  0
 13 51  1  0  0  0  0
 14 15  1  0  0  0  0
 14 52  1  0  0  0  0
 15 16  2  0  0  0  0
 15 53  1  0  0  0  0
 16 17  1  0  0  0  0
 16 54  1  0  0  0  0
 17 55  1  0  0  0  0
 18 19  1  0  0  0  0
 19 20  2  0  0  0  0
 19 21  1  0  0  0  0
 21 22  2  0  0  0  0
 21 32  1  0  0  0  0
 22 23  1  0  0  0  0
 22 56  1  0  0  0  0
 23 24  1  0  0  0  0
 23 31  1  0  0  0  0
 24 25  1  0  0  0  0
 24 30  2  0  0  0  0
 25 26  2  0  0  0  0
 25 57  1  0  0  0  0
 26 27  1  0  0  0  0
 26 58  1  0  0  0  0
 27 28  1  0  0  0  0
 27 29  2  0  0  0  0
 29 30  1  0  0  0  0
 29 59  1  0  0  0  0
 30 60  1  0  0  0  0
 31 32  2  0  0  0  0
 32 33  1  0  0  0  0
 33 34  2  0  0  0  0
 33 35  1  0  0  0  0
 35 36  1  0  0  0  0
 35 61  1  0  0  0  0
 36 37  1  0  0  0  0
 36 41  2  0  0  0  0
 37 38  2  0  0  0  0
 37 62  1  0  0  0  0
 38 39  1  0  0  0  0
 38 63  1  0  0  0  0
 39 40  2  0  0  0  0
 39 64  1  0  0  0  0
 40 41  1  0  0  0  0
 40 65  1  0  0  0  0
 41 66  1  0  0  0  0
M  END
$$$$
