CHEMBL3912498
 OpenBabel04072215373D

 52 56  0  0  1  0  0  0  0  0999 V2000
    2.5672    1.0549   -0.9705 O   0  0  0  0  0  0  0  0  0  0  0  0
    2.1853    0.6507    0.1152 C   0  0  0  0  0  0  0  0  0  0  0  0
    0.8409    0.5509    0.4723 N   0  0  0  0  0  0  0  0  0  0  0  0
   -0.2677    0.9430   -0.3312 C   0  0  0  0  0  0  0  0  0  0  0  0
   -0.1613    1.2427   -1.6903 C   0  0  0  0  0  0  0  0  0  0  0  0
   -1.2664    1.7074   -2.4007 C   0  0  0  0  0  0  0  0  0  0  0  0
   -2.4913    1.8626   -1.7608 C   0  0  0  0  0  0  0  0  0  0  0  0
   -2.6144    1.5274   -0.4146 C   0  0  0  0  0  0  0  0  0  0  0  0
   -1.5068    1.0608    0.2963 C   0  0  0  0  0  0  0  0  0  0  0  0
    3.0076    0.2749    1.1650 N   0  0  0  0  0  0  0  0  0  0  0  0
    4.4194    0.4057    1.2057 C   0  0  0  0  0  0  0  0  0  0  0  0
    5.1707    1.0173    0.2103 C   0  0  0  0  0  0  0  0  0  0  0  0
    6.5690    1.1258    0.3181 C   0  0  0  0  0  0  0  0  0  0  0  0
    7.2355    0.5886    1.4116 C   0  0  0  0  0  0  0  0  0  0  0  0
    8.7649    0.6155    1.4330 C   0  0  3  0  0  0  0  0  0  0  0  0
    9.3415    1.4188    2.6178 C   0  0  0  0  0  0  0  0  0  0  0  0
   10.5809    0.8512    3.2228 N   0  0  0  0  0  0  0  0  0  0  0  0
   10.5224   -0.4252    3.4091 C   0  0  0  0  0  0  0  0  0  0  0  0
   11.3307   -1.1501    4.3895 C   0  0  0  0  0  0  0  0  0  0  0  0
   12.7075   -1.0516    4.5178 C   0  0  0  0  0  0  0  0  0  0  0  0
   13.3263   -1.8001    5.5206 C   0  0  0  0  0  0  0  0  0  0  0  0
   12.5561   -2.5344    6.4370 C   0  0  0  0  0  0  0  0  0  0  0  0
   11.1712   -2.6417    6.2799 C   0  0  0  0  0  0  0  0  0  0  0  0
   10.5875   -2.0289    5.1809 C   0  0  0  0  0  0  0  0  0  0  0  0
    9.3193   -2.4231    4.7094 N   0  0  0  0  0  0  0  0  0  0  0  0
    9.1118   -2.3688    3.3332 C   0  0  0  0  0  0  0  0  0  0  0  0
    8.4935   -3.2465    2.7408 O   0  0  0  0  0  0  0  0  0  0  0  0
    9.6223   -1.2262    2.7495 N   0  0  0  0  0  0  0  0  0  0  0  0
    9.3116   -0.8102    1.4063 C   0  0  0  0  0  0  0  0  0  0  0  0
    6.4821   -0.0148    2.4314 C   0  0  0  0  0  0  0  0  0  0  0  0
    5.0823   -0.1081    2.3180 C   0  0  0  0  0  0  0  0  0  0  0  0
    0.6436    0.3756    1.4435 H   0  0  0  0  0  0  0  0  0  0  0  0
    0.7723    1.1329   -2.2330 H   0  0  0  0  0  0  0  0  0  0  0  0
   -1.1576    1.9638   -3.4515 H   0  0  0  0  0  0  0  0  0  0  0  0
   -3.3447    2.2476   -2.3114 H   0  0  0  0  0  0  0  0  0  0  0  0
   -3.5699    1.6527    0.0870 H   0  0  0  0  0  0  0  0  0  0  0  0
   -1.6286    0.8191    1.3506 H   0  0  0  0  0  0  0  0  0  0  0  0
    2.5785   -0.2229    1.9238 H   0  0  0  0  0  0  0  0  0  0  0  0
    4.7142    1.4582   -0.6740 H   0  0  0  0  0  0  0  0  0  0  0  0
    7.1102    1.5971   -0.4968 H   0  0  0  0  0  0  0  0  0  0  0  0
    9.1040    1.1080    0.5114 H   0  0  0  0  0  0  0  0  0  0  0  0
    8.6017    1.5218    3.4260 H   0  0  0  0  0  0  0  0  0  0  0  0
    9.5495    2.4472    2.2984 H   0  0  0  0  0  0  0  0  0  0  0  0
   13.2890   -0.4634    3.8145 H   0  0  0  0  0  0  0  0  0  0  0  0
   14.4118   -1.8204    5.5907 H   0  0  0  0  0  0  0  0  0  0  0  0
   13.0497   -3.0732    7.2431 H   0  0  0  0  0  0  0  0  0  0  0  0
   10.5956   -3.2687    6.9532 H   0  0  0  0  0  0  0  0  0  0  0  0
    8.7756   -3.1041    5.2185 H   0  0  0  0  0  0  0  0  0  0  0  0
    8.6503   -1.5210    0.9020 H   0  0  0  0  0  0  0  0  0  0  0  0
   10.2650   -0.8043    0.8583 H   0  0  0  0  0  0  0  0  0  0  0  0
    6.9602   -0.4336    3.3030 H   0  0  0  0  0  0  0  0  0  0  0  0
    4.5427   -0.6085    3.1249 H   0  0  0  0  0  0  0  0  0  0  0  0
  1  2  2  0  0  0  0
  2  3  1  0  0  0  0
  2 10  1  0  0  0  0
  3  4  1  0  0  0  0
  3 32  1  0  0  0  0
  4  5  1  0  0  0  0
  4  9  2  0  0  0  0
  5  6  2  0  0  0  0
  5 33  1  0  0  0  0
  6  7  1  0  0  0  0
  6 34  1  0  0  0  0
  7  8  2  0  0  0  0
  7 35  1  0  0  0  0
  8  9  1  0  0  0  0
  8 36  1  0  0  0  0
  9 37  1  0  0  0  0
 10 11  1  0  0  0  0
 10 38  1  0  0  0  0
 11 12  1  0  0  0  0
 11 31  2  0  0  0  0
 12 13  2  0  0  0  0
 12 39  1  0  0  0  0
 13 14  1  0  0  0  0
 13 40  1  0  0  0  0
 14 15  1  0  0  0  0
 14 30  2  0  0  0  0
 15 16  1  0  0  0  0
 15 29  1  0  0  0  0
 15 41  1  0  0  0  0
 16 17  1  0  0  0  0
 16 42  1  0  0  0  0
 16 43  1  0  0  0  0
 17 18  2  0  0  0  0
 18 19  1  0  0  0  0
 18 28  1  0  0  0  0
 19 20  1  0  0  0  0
 19 24  2  0  0  0  0
 20 21  2  0  0  0  0
 20 44  1  0  0  0  0
 21 22  1  0  0  0  0
 21 45  1  0  0  0  0
 22 23  2  0  0  0  0
 22 46  1  0  0  0  0
 23 24  1  0  0  0  0
 23 47  1  0  0  0  0
 24 25  1  0  0  0  0
 25 26  1  0  0  0  0
 25 48  1  0  0  0  0
 26 27  2  0  0  0  0
 26 28  1  0  0  0  0
 28 29  1  0  0  0  0
 29 49  1  0  0  0  0
 29 50  1  0  0  0  0
 30 31  1  0  0  0  0
 30 51  1  0  0  0  0
 31 52  1  0  0  0  0
M  END
$$$$
