CHEMBL3678957
 OpenBabel04072215373D

 66 70  0  0  0  0  0  0  0  0999 V2000
    2.1904    1.5487    0.6629 C   0  0  0  0  0  0  0  0  0  0  0  0
    2.5432    0.1461    0.1515 C   0  0  0  0  0  0  0  0  0  0  0  0
    3.5527    0.2448   -0.9942 C   0  0  0  0  0  0  0  0  0  0  0  0
    2.9666   -0.8018    1.1791 N   0  0  0  0  0  0  0  0  0  0  0  0
    2.8219   -2.1812    1.1371 C   0  0  0  0  0  0  0  0  0  0  0  0
    2.3465   -2.8405    0.0553 N   0  0  0  0  0  0  0  0  0  0  0  0
    2.6725   -4.1833   -0.2328 C   0  0  0  0  0  0  0  0  0  0  0  0
    1.7528   -4.9970   -0.9046 C   0  0  0  0  0  0  0  0  0  0  0  0
    2.0196   -6.3572   -1.1138 C   0  0  0  0  0  0  0  0  0  0  0  0
    3.2168   -6.9305   -0.6583 C   0  0  0  0  0  0  0  0  0  0  0  0
    3.5253   -8.3916   -0.8480 C   0  0  0  0  0  0  0  0  0  0  0  0
    2.5327   -9.0838   -1.4740 F   0  0  0  0  0  0  0  0  0  0  0  0
    4.6479   -8.5933   -1.5936 F   0  0  0  0  0  0  0  0  0  0  0  0
    3.7426   -9.0373    0.3322 F   0  0  0  0  0  0  0  0  0  0  0  0
    4.1421   -6.1168    0.0022 C   0  0  0  0  0  0  0  0  0  0  0  0
    3.8660   -4.7679    0.2161 C   0  0  0  0  0  0  0  0  0  0  0  0
    3.2244   -2.7321    2.2682 N   0  0  0  0  0  0  0  0  0  0  0  0
    3.7127   -1.7174    3.0267 C   0  0  0  0  0  0  0  0  0  0  0  0
    4.2855   -1.6801    4.2900 C   0  0  0  0  0  0  0  0  0  0  0  0
    4.7156   -0.4966    4.7923 N   0  0  0  0  0  0  0  0  0  0  0  0
    4.6043    0.6117    4.0291 C   0  0  0  0  0  0  0  0  0  0  0  0
    5.0817    1.7868    4.5991 N   0  0  0  0  0  0  0  0  0  0  0  0
    5.5371    2.9340    3.9434 C   0  0  0  0  0  0  0  0  0  0  0  0
    5.4069    4.1742    4.5620 C   0  0  0  0  0  0  0  0  0  0  0  0
    5.7636    5.3429    3.8838 C   0  0  0  0  0  0  0  0  0  0  0  0
    6.2815    5.3179    2.5790 C   0  0  0  0  0  0  0  0  0  0  0  0
    6.6606    6.5000    1.9708 N   0  0  0  0  0  0  0  0  0  0  0  0
    7.6439    6.5188    0.8793 C   0  0  0  0  0  0  0  0  0  0  0  0
    8.3485    7.8967    0.8770 C   0  0  0  0  0  0  0  0  0  0  0  0
    7.3999    9.0313    0.7573 N   0  0  0  0  0  0  0  0  0  0  0  0
    8.1151   10.3022    0.8520 C   0  0  0  0  0  0  0  0  0  0  0  0
    6.3781    8.9362    1.8286 C   0  0  0  0  0  0  0  0  0  0  0  0
    5.6544    7.5707    1.8487 C   0  0  0  0  0  0  0  0  0  0  0  0
    6.4414    4.0666    1.9817 C   0  0  0  0  0  0  0  0  0  0  0  0
    6.0647    2.8973    2.6477 C   0  0  0  0  0  0  0  0  0  0  0  0
    4.0470    0.6660    2.8033 N   0  0  0  0  0  0  0  0  0  0  0  0
    3.6112   -0.5156    2.3594 C   0  0  0  0  0  0  0  0  0  0  0  0
    1.7518    2.1499   -0.1414 H   0  0  0  0  0  0  0  0  0  0  0  0
    3.0714    2.0934    1.0169 H   0  0  0  0  0  0  0  0  0  0  0  0
    1.4625    1.4997    1.4794 H   0  0  0  0  0  0  0  0  0  0  0  0
    1.6096   -0.2636   -0.2540 H   0  0  0  0  0  0  0  0  0  0  0  0
    4.5023    0.6746   -0.6582 H   0  0  0  0  0  0  0  0  0  0  0  0
    3.1594    0.8803   -1.7964 H   0  0  0  0  0  0  0  0  0  0  0  0
    3.7647   -0.7374   -1.4293 H   0  0  0  0  0  0  0  0  0  0  0  0
    1.8401   -2.3771   -0.6887 H   0  0  0  0  0  0  0  0  0  0  0  0
    0.7979   -4.5913   -1.2311 H   0  0  0  0  0  0  0  0  0  0  0  0
    1.2752   -6.9729   -1.6151 H   0  0  0  0  0  0  0  0  0  0  0  0
    5.0789   -6.5295    0.3739 H   0  0  0  0  0  0  0  0  0  0  0  0
    4.6034   -4.1703    0.7465 H   0  0  0  0  0  0  0  0  0  0  0  0
    4.4130   -2.5607    4.9051 H   0  0  0  0  0  0  0  0  0  0  0  0
    5.3978    1.6383    5.5455 H   0  0  0  0  0  0  0  0  0  0  0  0
    4.9950    4.2485    5.5648 H   0  0  0  0  0  0  0  0  0  0  0  0
    5.6583    6.2915    4.4033 H   0  0  0  0  0  0  0  0  0  0  0  0
    7.1518    6.3396   -0.0858 H   0  0  0  0  0  0  0  0  0  0  0  0
    8.4111    5.7482    1.0201 H   0  0  0  0  0  0  0  0  0  0  0  0
    9.0608    7.9220    0.0446 H   0  0  0  0  0  0  0  0  0  0  0  0
    8.9255    7.9884    1.8082 H   0  0  0  0  0  0  0  0  0  0  0  0
    8.8520   10.3861    0.0466 H   0  0  0  0  0  0  0  0  0  0  0  0
    8.6363   10.4158    1.8099 H   0  0  0  0  0  0  0  0  0  0  0  0
    7.4201   11.1404    0.7361 H   0  0  0  0  0  0  0  0  0  0  0  0
    5.6287    9.7243    1.6912 H   0  0  0  0  0  0  0  0  0  0  0  0
    6.8459    9.0921    2.8108 H   0  0  0  0  0  0  0  0  0  0  0  0
    5.0811    7.4355    0.9215 H   0  0  0  0  0  0  0  0  0  0  0  0
    4.9330    7.5708    2.6731 H   0  0  0  0  0  0  0  0  0  0  0  0
    6.8384    3.9742    0.9752 H   0  0  0  0  0  0  0  0  0  0  0  0
    6.2016    1.9471    2.1372 H   0  0  0  0  0  0  0  0  0  0  0  0
  1  2  1  0  0  0  0
  1 38  1  0  0  0  0
  1 39  1  0  0  0  0
  1 40  1  0  0  0  0
  2  3  1  0  0  0  0
  2  4  1  0  0  0  0
  2 41  1  0  0  0  0
  3 42  1  0  0  0  0
  3 43  1  0  0  0  0
  3 44  1  0  0  0  0
  4  5  1  0  0  0  0
  4 37  1  0  0  0  0
  5  6  1  0  0  0  0
  5 17  2  0  0  0  0
  6  7  1  0  0  0  0
  6 45  1  0  0  0  0
  7  8  1  0  0  0  0
  7 16  2  0  0  0  0
  8  9  2  0  0  0  0
  8 46  1  0  0  0  0
  9 10  1  0  0  0  0
  9 47  1  0  0  0  0
 10 11  1  0  0  0  0
 10 15  2  0  0  0  0
 11 12  1  0  0  0  0
 11 13  1  0  0  0  0
 11 14  1  0  0  0  0
 15 16  1  0  0  0  0
 15 48  1  0  0  0  0
 16 49  1  0  0  0  0
 17 18  1  0  0  0  0
 18 19  1  0  0  0  0
 18 37  2  0  0  0  0
 19 20  2  0  0  0  0
 19 50  1  0  0  0  0
 20 21  1  0  0  0  0
 21 22  1  0  0  0  0
 21 36  2  0  0  0  0
 22 23  1  0  0  0  0
 22 51  1  0  0  0  0
 23 24  1  0  0  0  0
 23 35  2  0  0  0  0
 24 25  2  0  0  0  0
 24 52  1  0  0  0  0
 25 26  1  0  0  0  0
 25 53  1  0  0  0  0
 26 27  1  0  0  0  0
 26 34  2  0  0  0  0
 27 28  1  0  0  0  0
 27 33  1  0  0  0  0
 28 29  1  0  0  0  0
 28 54  1  0  0  0  0
 28 55  1  0  0  0  0
 29 30  1  0  0  0  0
 29 56  1  0  0  0  0
 29 57  1  0  0  0  0
 30 31  1  0  0  0  0
 30 32  1  0  0  0  0
 31 58  1  0  0  0  0
 31 59  1  0  0  0  0
 31 60  1  0  0  0  0
 32 33  1  0  0  0  0
 32 61  1  0  0  0  0
 32 62  1  0  0  0  0
 33 63  1  0  0  0  0
 33 64  1  0  0  0  0
 34 35  1  0  0  0  0
 34 65  1  0  0  0  0
 35 66  1  0  0  0  0
 36 37  1  0  0  0  0
M  END
$$$$
