CHEMBL3690444
 OpenBabel04072215373D

 60 63  0  0  0  0  0  0  0  0999 V2000
    0.8716   -1.5218   -0.2772 C   0  0  0  0  0  0  0  0  0  0  0  0
    2.3249   -1.9247   -0.6268 C   0  0  0  0  0  0  0  0  0  0  0  0
    2.9357   -2.5926    0.6201 C   0  0  0  0  0  0  0  0  0  0  0  0
    2.2688   -2.8993   -1.8349 C   0  0  0  0  0  0  0  0  0  0  0  0
    1.4937   -4.0680   -1.5427 O   0  0  0  0  0  0  0  0  0  0  0  0
    3.0378   -0.6535   -0.9087 N   0  0  0  0  0  0  0  0  0  0  0  0
    4.3962   -0.6787   -1.2554 C   0  0  0  0  0  0  0  0  0  0  0  0
    5.1473    0.4723   -1.0693 C   0  0  0  0  0  0  0  0  0  0  0  0
    6.4984    0.4878   -1.4116 C   0  0  0  0  0  0  0  0  0  0  0  0
    7.0667   -0.6372   -1.9888 C   0  0  0  0  0  0  0  0  0  0  0  0
    8.5128   -0.7392   -2.3012 C   0  0  0  0  0  0  0  0  0  0  0  0
    9.2381   -2.0105   -2.1797 C   0  0  0  0  0  0  0  0  0  0  0  0
   10.5671   -2.0510   -2.3690 C   0  0  0  0  0  0  0  0  0  0  0  0
   11.2563   -0.8931   -2.7410 N   0  0  0  0  0  0  0  0  0  0  0  0
   12.6002   -0.6665   -3.0473 C   0  0  0  0  0  0  0  0  0  0  0  0
   13.6620   -1.6774   -3.1879 C   0  0  0  0  0  0  0  0  0  0  0  0
   13.3621   -2.9484   -3.6910 C   0  0  0  0  0  0  0  0  0  0  0  0
   14.3459   -3.9185   -3.8227 C   0  0  0  0  0  0  0  0  0  0  0  0
   15.6680   -3.6084   -3.5301 C   0  0  0  0  0  0  0  0  0  0  0  0
   16.0310   -2.3272   -3.1127 C   0  0  0  0  0  0  0  0  0  0  0  0
   17.3840   -1.9530   -2.9044 N   0  0  0  0  0  0  0  0  0  0  0  0
   18.4894   -2.7363   -3.1715 C   0  0  0  0  0  0  0  0  0  0  0  0
   18.4997   -3.8726   -3.6272 O   0  0  0  0  0  0  0  0  0  0  0  0
   19.6742   -2.1248   -2.8237 N   0  0  0  0  0  0  0  0  0  0  0  0
   20.9261   -2.8591   -3.0703 C   0  0  0  0  0  0  0  0  0  0  0  0
   21.4352   -2.8709   -4.5210 C   0  0  0  0  0  0  0  0  0  0  0  0
   20.7379   -2.0224   -5.3112 F   0  0  0  0  0  0  0  0  0  0  0  0
   22.7290   -2.4613   -4.5563 F   0  0  0  0  0  0  0  0  0  0  0  0
   21.3905   -4.0994   -5.0757 F   0  0  0  0  0  0  0  0  0  0  0  0
   15.0141   -1.3743   -2.9091 C   0  0  0  0  0  0  0  0  0  0  0  0
   12.6658    0.7063   -3.2436 C   0  0  0  0  0  0  0  0  0  0  0  0
   11.4419    1.3068   -3.1346 N   0  0  0  0  0  0  0  0  0  0  0  0
   10.6063    0.3303   -2.8757 C   0  0  0  0  0  0  0  0  0  0  0  0
    9.1961    0.3679   -2.6744 C   0  0  0  0  0  0  0  0  0  0  0  0
    6.3163   -1.7370   -2.1905 N   0  0  0  0  0  0  0  0  0  0  0  0
    4.9814   -1.7469   -1.8234 N   0  0  0  0  0  0  0  0  0  0  0  0
    0.2572   -2.3916   -0.0214 H   0  0  0  0  0  0  0  0  0  0  0  0
    0.3958   -1.0077   -1.1210 H   0  0  0  0  0  0  0  0  0  0  0  0
    0.8423   -0.8348    0.5770 H   0  0  0  0  0  0  0  0  0  0  0  0
    2.3658   -3.4756    0.9269 H   0  0  0  0  0  0  0  0  0  0  0  0
    2.9496   -1.8981    1.4692 H   0  0  0  0  0  0  0  0  0  0  0  0
    3.9692   -2.9097    0.4462 H   0  0  0  0  0  0  0  0  0  0  0  0
    3.2508   -3.2542   -2.1519 H   0  0  0  0  0  0  0  0  0  0  0  0
    1.8095   -2.4068   -2.6990 H   0  0  0  0  0  0  0  0  0  0  0  0
    2.0880   -4.6893   -1.0862 H   0  0  0  0  0  0  0  0  0  0  0  0
    2.9050   -0.0049   -0.1366 H   0  0  0  0  0  0  0  0  0  0  0  0
    4.7052    1.3558   -0.6210 H   0  0  0  0  0  0  0  0  0  0  0  0
    7.0879    1.3705   -1.1903 H   0  0  0  0  0  0  0  0  0  0  0  0
    8.6809   -2.9083   -1.9235 H   0  0  0  0  0  0  0  0  0  0  0  0
   11.1248   -2.9674   -2.2398 H   0  0  0  0  0  0  0  0  0  0  0  0
   12.3595   -3.2085   -4.0152 H   0  0  0  0  0  0  0  0  0  0  0  0
   14.0909   -4.9138   -4.1762 H   0  0  0  0  0  0  0  0  0  0  0  0
   16.3936   -4.4029   -3.6600 H   0  0  0  0  0  0  0  0  0  0  0  0
   17.5529   -1.0205   -2.5592 H   0  0  0  0  0  0  0  0  0  0  0  0
   19.7097   -1.1194   -2.9088 H   0  0  0  0  0  0  0  0  0  0  0  0
   20.7930   -3.8950   -2.7342 H   0  0  0  0  0  0  0  0  0  0  0  0
   21.6797   -2.4068   -2.4188 H   0  0  0  0  0  0  0  0  0  0  0  0
   15.2731   -0.3808   -2.5506 H   0  0  0  0  0  0  0  0  0  0  0  0
   13.5421    1.2901   -3.4949 H   0  0  0  0  0  0  0  0  0  0  0  0
    8.7222    1.3327   -2.8151 H   0  0  0  0  0  0  0  0  0  0  0  0
  1  2  1  0  0  0  0
  1 37  1  0  0  0  0
  1 38  1  0  0  0  0
  1 39  1  0  0  0  0
  2  3  1  0  0  0  0
  2  4  1  0  0  0  0
  2  6  1  0  0  0  0
  3 40  1  0  0  0  0
  3 41  1  0  0  0  0
  3 42  1  0  0  0  0
  4  5  1  0  0  0  0
  4 43  1  0  0  0  0
  4 44  1  0  0  0  0
  5 45  1  0  0  0  0
  6  7  1  0  0  0  0
  6 46  1  0  0  0  0
  7  8  1  0  0  0  0
  7 36  2  0  0  0  0
  8  9  2  0  0  0  0
  8 47  1  0  0  0  0
  9 10  1  0  0  0  0
  9 48  1  0  0  0  0
 10 11  1  0  0  0  0
 10 35  2  0  0  0  0
 11 12  1  0  0  0  0
 11 34  2  0  0  0  0
 12 13  2  0  0  0  0
 12 49  1  0  0  0  0
 13 14  1  0  0  0  0
 13 50  1  0  0  0  0
 14 15  1  0  0  0  0
 14 33  1  0  0  0  0
 15 16  1  0  0  0  0
 15 31  2  0  0  0  0
 16 17  1  0  0  0  0
 16 30  2  0  0  0  0
 17 18  2  0  0  0  0
 17 51  1  0  0  0  0
 18 19  1  0  0  0  0
 18 52  1  0  0  0  0
 19 20  2  0  0  0  0
 19 53  1  0  0  0  0
 20 21  1  0  0  0  0
 20 30  1  0  0  0  0
 21 22  1  0  0  0  0
 21 54  1  0  0  0  0
 22 23  2  0  0  0  0
 22 24  1  0  0  0  0
 24 25  1  0  0  0  0
 24 55  1  0  0  0  0
 25 26  1  0  0  0  0
 25 56  1  0  0  0  0
 25 57  1  0  0  0  0
 26 27  1  0  0  0  0
 26 28  1  0  0  0  0
 26 29  1  0  0  0  0
 30 58  1  0  0  0  0
 31 32  1  0  0  0  0
 31 59  1  0  0  0  0
 32 33  2  0  0  0  0
 33 34  1  0  0  0  0
 34 60  1  0  0  0  0
 35 36  1  0  0  0  0
M  END
$$$$
