CHEMBL2349008
 OpenBabel04072215363D

 56 60  0  0  0  0  0  0  0  0999 V2000
    2.2485    7.1262    0.7421 O   0  0  0  0  0  0  0  0  0  0  0  0
    3.1865    6.3394    0.6616 C   0  0  0  0  0  0  0  0  0  0  0  0
    3.3948    5.2180    1.4555 N   0  0  0  0  0  0  0  0  0  0  0  0
    2.5132    4.7725    2.4756 C   0  0  0  0  0  0  0  0  0  0  0  0
    1.1861    5.2129    2.5584 C   0  0  0  0  0  0  0  0  0  0  0  0
    0.3485    4.8008    3.5947 C   0  0  0  0  0  0  0  0  0  0  0  0
    0.8236    3.9297    4.5634 C   0  0  0  0  0  0  0  0  0  0  0  0
    2.1443    3.4807    4.4941 C   0  0  0  0  0  0  0  0  0  0  0  0
    2.6393    2.5489    5.4362 O   0  0  0  0  0  0  0  0  0  0  0  0
    2.2757    2.6954    6.7731 C   0  0  0  0  0  0  0  0  0  0  0  0
    2.3349    1.3620    7.4197 C   0  0  0  0  0  0  0  0  0  0  0  0
    1.9025    1.2971    8.6865 C   0  0  0  0  0  0  0  0  0  0  0  0
    1.4675    2.4781    9.3277 C   0  0  0  0  0  0  0  0  0  0  0  0
    0.9849    2.6831   10.5302 N   0  0  0  0  0  0  0  0  0  0  0  0
    0.7502    4.0266   10.6155 C   0  0  0  0  0  0  0  0  0  0  0  0
    0.2351    4.6452   11.7362 N   0  0  0  0  0  0  0  0  0  0  0  0
   -0.0845    3.9536   12.8897 C   0  0  0  0  0  0  0  0  0  0  0  0
    0.0736    2.7508   13.0814 O   0  0  0  0  0  0  0  0  0  0  0  0
   -0.6757    4.7352   14.0187 C   0  0  0  0  0  0  0  0  0  0  0  0
   -1.3545    5.9484   13.8601 C   0  0  0  0  0  0  0  0  0  0  0  0
   -1.9571    6.5606   14.9662 C   0  0  0  0  0  0  0  0  0  0  0  0
   -1.9066    5.9585   16.2269 C   0  0  0  0  0  0  0  0  0  0  0  0
   -1.2443    4.7377   16.4028 C   0  0  0  0  0  0  0  0  0  0  0  0
   -1.2289    4.0211   17.7306 C   0  0  0  0  0  0  0  0  0  0  0  0
   -1.9598    4.6487   18.6942 F   0  0  0  0  0  0  0  0  0  0  0  0
   -1.7356    2.7599   17.6453 F   0  0  0  0  0  0  0  0  0  0  0  0
    0.0260    3.8886   18.2407 F   0  0  0  0  0  0  0  0  0  0  0  0
   -0.6150    4.1499   15.2954 C   0  0  0  0  0  0  0  0  0  0  0  0
    1.0886    4.6552    9.4394 C   0  0  0  0  0  0  0  0  0  0  0  0
    1.5365    3.6588    8.6106 N   0  0  0  0  0  0  0  0  0  0  0  0
    1.9273    3.8170    7.3156 N   0  0  0  0  0  0  0  0  0  0  0  0
    2.9822    3.8650    3.4385 C   0  0  0  0  0  0  0  0  0  0  0  0
    4.2330    6.6565   -0.3408 C   0  0  0  0  0  0  0  0  0  0  0  0
    4.4951    8.0135   -0.6013 C   0  0  0  0  0  0  0  0  0  0  0  0
    5.4201    8.3818   -1.5769 C   0  0  0  0  0  0  0  0  0  0  0  0
    6.0796    7.3946   -2.3032 C   0  0  0  0  0  0  0  0  0  0  0  0
    5.8038    6.0524   -2.0491 C   0  0  0  0  0  0  0  0  0  0  0  0
    6.4257    5.1107   -2.7702 F   0  0  0  0  0  0  0  0  0  0  0  0
    4.8869    5.6677   -1.0746 C   0  0  0  0  0  0  0  0  0  0  0  0
    4.3038    4.7750    1.4179 H   0  0  0  0  0  0  0  0  0  0  0  0
    0.7590    5.8762    1.8130 H   0  0  0  0  0  0  0  0  0  0  0  0
   -0.6731    5.1686    3.6407 H   0  0  0  0  0  0  0  0  0  0  0  0
    0.1584    3.6159    5.3613 H   0  0  0  0  0  0  0  0  0  0  0  0
    2.6814    0.5008    6.8663 H   0  0  0  0  0  0  0  0  0  0  0  0
    1.8764    0.3661    9.2419 H   0  0  0  0  0  0  0  0  0  0  0  0
    0.1377    5.6475   11.6903 H   0  0  0  0  0  0  0  0  0  0  0  0
   -1.4712    6.4158   12.8878 H   0  0  0  0  0  0  0  0  0  0  0  0
   -2.4991    7.4966   14.8418 H   0  0  0  0  0  0  0  0  0  0  0  0
   -2.4094    6.4349   17.0682 H   0  0  0  0  0  0  0  0  0  0  0  0
   -0.0968    3.1973   15.4236 H   0  0  0  0  0  0  0  0  0  0  0  0
    1.0493    5.6804    9.1062 H   0  0  0  0  0  0  0  0  0  0  0  0
    3.9950    3.4766    3.3983 H   0  0  0  0  0  0  0  0  0  0  0  0
    3.9606    8.7862   -0.0503 H   0  0  0  0  0  0  0  0  0  0  0  0
    5.6118    9.4337   -1.7751 H   0  0  0  0  0  0  0  0  0  0  0  0
    6.7948    7.6617   -3.0755 H   0  0  0  0  0  0  0  0  0  0  0  0
    4.6695    4.6138   -0.9425 H   0  0  0  0  0  0  0  0  0  0  0  0
  1  2  2  0  0  0  0
  2  3  1  0  0  0  0
  2 33  1  0  0  0  0
  3  4  1  0  0  0  0
  3 40  1  0  0  0  0
  4  5  1  0  0  0  0
  4 32  2  0  0  0  0
  5  6  2  0  0  0  0
  5 41  1  0  0  0  0
  6  7  1  0  0  0  0
  6 42  1  0  0  0  0
  7  8  2  0  0  0  0
  7 43  1  0  0  0  0
  8  9  1  0  0  0  0
  8 32  1  0  0  0  0
  9 10  1  0  0  0  0
 10 11  1  0  0  0  0
 10 31  2  0  0  0  0
 11 12  2  0  0  0  0
 11 44  1  0  0  0  0
 12 13  1  0  0  0  0
 12 45  1  0  0  0  0
 13 14  2  0  0  0  0
 13 30  1  0  0  0  0
 14 15  1  0  0  0  0
 15 16  1  0  0  0  0
 15 29  2  0  0  0  0
 16 17  1  0  0  0  0
 16 46  1  0  0  0  0
 17 18  2  0  0  0  0
 17 19  1  0  0  0  0
 19 20  1  0  0  0  0
 19 28  2  0  0  0  0
 20 21  2  0  0  0  0
 20 47  1  0  0  0  0
 21 22  1  0  0  0  0
 21 48  1  0  0  0  0
 22 23  2  0  0  0  0
 22 49  1  0  0  0  0
 23 24  1  0  0  0  0
 23 28  1  0  0  0  0
 24 25  1  0  0  0  0
 24 26  1  0  0  0  0
 24 27  1  0  0  0  0
 28 50  1  0  0  0  0
 29 30  1  0  0  0  0
 29 51  1  0  0  0  0
 30 31  1  0  0  0  0
 32 52  1  0  0  0  0
 33 34  1  0  0  0  0
 33 39  2  0  0  0  0
 34 35  2  0  0  0  0
 34 53  1  0  0  0  0
 35 36  1  0  0  0  0
 35 54  1  0  0  0  0
 36 37  2  0  0  0  0
 36 55  1  0  0  0  0
 37 38  1  0  0  0  0
 37 39  1  0  0  0  0
 39 56  1  0  0  0  0
M  END
$$$$
