CHEMBL4241638
 OpenBabel04072215383D

 38 40  0  0  0  0  0  0  0  0999 V2000
    2.4278   -1.1062   -0.9709 C   0  0  0  0  0  0  0  0  0  0  0  0
    2.4696   -0.0139    0.0934 C   0  0  0  0  0  0  0  0  0  0  0  0
    2.8924   -0.5590    1.3983 N   0  0  0  0  0  0  0  0  0  0  0  0
    1.8865   -0.7354    2.3711 C   0  0  0  0  0  0  0  0  0  0  0  0
    0.6378   -1.2861    2.0441 C   0  0  0  0  0  0  0  0  0  0  0  0
   -0.2785   -1.6629    3.0327 C   0  0  0  0  0  0  0  0  0  0  0  0
    0.0244   -1.4719    4.3769 C   0  0  0  0  0  0  0  0  0  0  0  0
   -0.7308   -1.8933    5.4351 O   0  0  0  0  0  0  0  0  0  0  0  0
   -1.8939   -2.6515    5.1234 C   0  0  0  0  0  0  0  0  0  0  0  0
    1.2076   -0.8179    4.7150 C   0  0  0  0  0  0  0  0  0  0  0  0
    2.1223   -0.4433    3.7229 C   0  0  0  0  0  0  0  0  0  0  0  0
    4.2889   -0.6812    1.5853 C   0  0  0  0  0  0  0  0  0  0  0  0
    5.1119    0.1357    0.8540 N   0  0  0  0  0  0  0  0  0  0  0  0
    6.4359    0.1194    1.0538 C   0  0  0  0  0  0  0  0  0  0  0  0
    7.1176   -0.6311    1.9118 N   0  0  0  0  0  0  0  0  0  0  0  0
    6.3130   -1.4700    2.5725 C   0  0  0  0  0  0  0  0  0  0  0  0
    6.8083   -2.3456    3.4846 O   0  0  0  0  0  0  0  0  0  0  0  0
    5.7741   -3.0850    3.9331 C   0  0  0  0  0  0  0  0  0  0  0  0
    4.5958   -2.7231    3.3125 C   0  0  0  0  0  0  0  0  0  0  0  0
    3.3097   -3.4304    3.5298 C   0  0  0  0  0  0  0  0  0  0  0  0
    4.9299   -1.6002    2.4617 C   0  0  0  0  0  0  0  0  0  0  0  0
    1.9937   -0.7141   -1.8965 H   0  0  0  0  0  0  0  0  0  0  0  0
    1.8258   -1.9631   -0.6544 H   0  0  0  0  0  0  0  0  0  0  0  0
    3.4324   -1.4762   -1.1980 H   0  0  0  0  0  0  0  0  0  0  0  0
    1.4800    0.4569    0.1630 H   0  0  0  0  0  0  0  0  0  0  0  0
    3.1236    0.7986   -0.2479 H   0  0  0  0  0  0  0  0  0  0  0  0
    0.3778   -1.5023    1.0126 H   0  0  0  0  0  0  0  0  0  0  0  0
   -1.1998   -2.1369    2.7122 H   0  0  0  0  0  0  0  0  0  0  0  0
   -2.3626   -2.9507    6.0653 H   0  0  0  0  0  0  0  0  0  0  0  0
   -1.6436   -3.5656    4.5724 H   0  0  0  0  0  0  0  0  0  0  0  0
   -2.6149   -2.0423    4.5692 H   0  0  0  0  0  0  0  0  0  0  0  0
    1.4551   -0.6515    5.7605 H   0  0  0  0  0  0  0  0  0  0  0  0
    3.0519    0.0316    4.0292 H   0  0  0  0  0  0  0  0  0  0  0  0
    7.0179    0.8071    0.4474 H   0  0  0  0  0  0  0  0  0  0  0  0
    6.0249   -3.8429    4.6628 H   0  0  0  0  0  0  0  0  0  0  0  0
    3.4859   -4.4814    3.7854 H   0  0  0  0  0  0  0  0  0  0  0  0
    2.6819   -3.4206    2.6367 H   0  0  0  0  0  0  0  0  0  0  0  0
    2.7707   -3.0012    4.3758 H   0  0  0  0  0  0  0  0  0  0  0  0
  1  2  1  0  0  0  0
  1 22  1  0  0  0  0
  1 23  1  0  0  0  0
  1 24  1  0  0  0  0
  2  3  1  0  0  0  0
  2 25  1  0  0  0  0
  2 26  1  0  0  0  0
  3  4  1  0  0  0  0
  3 12  1  0  0  0  0
  4  5  1  0  0  0  0
  4 11  2  0  0  0  0
  5  6  2  0  0  0  0
  5 27  1  0  0  0  0
  6  7  1  0  0  0  0
  6 28  1  0  0  0  0
  7  8  1  0  0  0  0
  7 10  2  0  0  0  0
  8  9  1  0  0  0  0
  9 29  1  0  0  0  0
  9 30  1  0  0  0  0
  9 31  1  0  0  0  0
 10 11  1  0  0  0  0
 10 32  1  0  0  0  0
 11 33  1  0  0  0  0
 12 13  1  0  0  0  0
 12 21  2  0  0  0  0
 13 14  2  0  0  0  0
 14 15  1  0  0  0  0
 14 34  1  0  0  0  0
 15 16  2  0  0  0  0
 16 17  1  0  0  0  0
 16 21  1  0  0  0  0
 17 18  1  0  0  0  0
 18 19  2  0  0  0  0
 18 35  1  0  0  0  0
 19 20  1  0  0  0  0
 19 21  1  0  0  0  0
 20 36  1  0  0  0  0
 20 37  1  0  0  0  0
 20 38  1  0  0  0  0
M  END
$$$$
