CHEMBL3221267
 OpenBabel04072215363D

 69 70  0  0  0  0  0  0  0  0999 V2000
    8.1588    2.4932    8.2053 C   0  0  0  0  0  0  0  0  0  0  0  0
    9.6554    2.3830    8.4814 C   0  0  0  0  0  0  0  0  0  0  0  0
   10.3735    2.9755    7.4661 O   0  0  0  0  0  0  0  0  0  0  0  0
   11.2687    3.9964    7.6454 C   0  0  0  0  0  0  0  0  0  0  0  0
   11.5001    4.4323    8.7485 O   0  0  0  0  0  0  0  0  0  0  0  0
   11.9576    4.5007    6.5441 N   0  0  0  0  0  0  0  0  0  0  0  0
   11.5900    4.2611    5.1870 C   0  0  0  0  0  0  0  0  0  0  0  0
   10.2501    3.9258    4.8427 C   0  0  0  0  0  0  0  0  0  0  0  0
    9.8639    3.7584    3.5149 C   0  0  0  0  0  0  0  0  0  0  0  0
   10.7980    3.9263    2.4885 C   0  0  0  0  0  0  0  0  0  0  0  0
   10.4470    3.8274    1.1219 N   0  0  0  0  0  0  0  0  0  0  0  0
   11.3368    3.3528    0.0959 C   0  0  0  0  0  0  0  0  0  0  0  0
   12.3442    2.5000    0.4299 N   0  0  0  0  0  0  0  0  0  0  0  0
   13.1768    1.9723   -0.5203 C   0  0  0  0  0  0  0  0  0  0  0  0
   13.0215    2.2930   -1.8312 N   0  0  0  0  0  0  0  0  0  0  0  0
   12.0334    3.1403   -2.2202 C   0  0  0  0  0  0  0  0  0  0  0  0
   11.8931    3.4795   -3.5785 C   0  0  0  0  0  0  0  0  0  0  0  0
   10.8678    4.3819   -4.0371 C   0  0  0  0  0  0  0  0  0  0  0  0
   10.8336    4.6957   -5.3966 O   0  0  0  0  0  0  0  0  0  0  0  0
   11.7380    4.1186   -6.2994 C   0  0  0  0  0  0  0  0  0  0  0  0
   11.6949    4.4298   -7.8266 C   0  0  0  0  0  0  0  0  0  0  0  0
   10.4417    4.0135   -8.4983 N   0  0  0  0  0  0  0  0  0  0  0  0
    9.2198    4.6216   -7.9359 C   0  0  0  0  0  0  0  0  0  0  0  0
    9.0596    6.1383   -8.1072 C   0  0  0  0  0  0  0  0  0  0  0  0
   10.5917    4.2017   -9.9630 C   0  0  0  0  0  0  0  0  0  0  0  0
    9.3524    3.7917  -10.7838 C   0  0  0  0  0  0  0  0  0  0  0  0
    9.9792    4.8890   -2.9980 C   0  0  0  0  0  0  0  0  0  0  0  0
    8.9028    5.7146   -3.0326 O   0  0  0  0  0  0  0  0  0  0  0  0
    8.1601    6.3008   -3.9933 C   0  0  0  0  0  0  0  0  0  0  0  0
   10.1905    4.5440   -1.6776 C   0  0  0  0  0  0  0  0  0  0  0  0
   11.1721    3.6823   -1.2616 C   0  0  0  0  0  0  0  0  0  0  0  0
   12.1102    4.2400    2.8137 C   0  0  0  0  0  0  0  0  0  0  0  0
   12.5254    4.4200    4.1474 C   0  0  0  0  0  0  0  0  0  0  0  0
   13.9933    4.7019    4.3883 C   0  0  0  0  0  0  0  0  0  0  0  0
    1.8358    0.2894    3.0470 Cl  0  0  0  0  0  0  0  0  0  0  0  0
    7.6077    2.1127    9.0890 H   0  0  0  0  0  0  0  0  0  0  0  0
    7.8795    1.8934    7.3159 H   0  0  0  0  0  0  0  0  0  0  0  0
    7.8744    3.5526    8.0371 H   0  0  0  0  0  0  0  0  0  0  0  0
    9.9349    1.3073    8.5833 H   0  0  0  0  0  0  0  0  0  0  0  0
    9.8693    2.8759    9.4502 H   0  0  0  0  0  0  0  0  0  0  0  0
   12.7444    5.1264    6.7629 H   0  0  0  0  0  0  0  0  0  0  0  0
    9.4853    3.8127    5.5905 H   0  0  0  0  0  0  0  0  0  0  0  0
    8.8387    3.4813    3.2979 H   0  0  0  0  0  0  0  0  0  0  0  0
    9.4849    4.1237    0.8817 H   0  0  0  0  0  0  0  0  0  0  0  0
   13.9583    1.2941   -0.2212 H   0  0  0  0  0  0  0  0  0  0  0  0
   12.5829    3.0320   -4.2648 H   0  0  0  0  0  0  0  0  0  0  0  0
   11.6031    3.0116   -6.2718 H   0  0  0  0  0  0  0  0  0  0  0  0
   12.7646    4.4540   -5.9998 H   0  0  0  0  0  0  0  0  0  0  0  0
   12.5666    3.8197   -8.2399 H   0  0  0  0  0  0  0  0  0  0  0  0
   11.9704    5.4801   -8.0378 H   0  0  0  0  0  0  0  0  0  0  0  0
    9.1696    4.4685   -6.8667 H   0  0  0  0  0  0  0  0  0  0  0  0
    8.3196    4.0933   -8.3359 H   0  0  0  0  0  0  0  0  0  0  0  0
    9.9449    6.6469   -7.6760 H   0  0  0  0  0  0  0  0  0  0  0  0
    8.1821    6.4543   -7.5144 H   0  0  0  0  0  0  0  0  0  0  0  0
    8.8560    6.4318   -9.1551 H   0  0  0  0  0  0  0  0  0  0  0  0
   11.4407    3.5863  -10.3392 H   0  0  0  0  0  0  0  0  0  0  0  0
   10.8174    5.2694  -10.1666 H   0  0  0  0  0  0  0  0  0  0  0  0
    9.1090    2.7176  -10.6259 H   0  0  0  0  0  0  0  0  0  0  0  0
    9.5681    3.9665  -11.8490 H   0  0  0  0  0  0  0  0  0  0  0  0
    8.4645    4.4100  -10.5456 H   0  0  0  0  0  0  0  0  0  0  0  0
    7.3853    6.9196   -3.4806 H   0  0  0  0  0  0  0  0  0  0  0  0
    7.6409    5.5377   -4.6071 H   0  0  0  0  0  0  0  0  0  0  0  0
    8.8296    6.9837   -4.5355 H   0  0  0  0  0  0  0  0  0  0  0  0
    9.5382    5.0089   -0.9564 H   0  0  0  0  0  0  0  0  0  0  0  0
   12.8345    4.4110    2.0361 H   0  0  0  0  0  0  0  0  0  0  0  0
   14.5723    4.6348    3.4399 H   0  0  0  0  0  0  0  0  0  0  0  0
   14.3822    3.9067    5.0534 H   0  0  0  0  0  0  0  0  0  0  0  0
   14.1950    5.7019    4.8226 H   0  0  0  0  0  0  0  0  0  0  0  0
    1.5929   -0.8051    2.2499 H   0  0  0  0  0  0  0  0  0  0  0  0
  1  2  1  0  0  0  0
  1 36  1  0  0  0  0
  1 37  1  0  0  0  0
  1 38  1  0  0  0  0
  2  3  1  0  0  0  0
  2 39  1  0  0  0  0
  2 40  1  0  0  0  0
  3  4  1  0  0  0  0
  4  5  2  0  0  0  0
  4  6  1  0  0  0  0
  6  7  1  0  0  0  0
  6 41  1  0  0  0  0
  7  8  1  0  0  0  0
  7 33  2  0  0  0  0
  8  9  2  0  0  0  0
  8 42  1  0  0  0  0
  9 10  1  0  0  0  0
  9 43  1  0  0  0  0
 10 11  1  0  0  0  0
 10 32  2  0  0  0  0
 11 12  1  0  0  0  0
 11 44  1  0  0  0  0
 12 13  1  0  0  0  0
 12 31  2  0  0  0  0
 13 14  2  0  0  0  0
 14 15  1  0  0  0  0
 14 45  1  0  0  0  0
 15 16  2  0  0  0  0
 16 17  1  0  0  0  0
 16 31  1  0  0  0  0
 17 18  2  0  0  0  0
 17 46  1  0  0  0  0
 18 19  1  0  0  0  0
 18 27  1  0  0  0  0
 19 20  1  0  0  0  0
 20 21  1  0  0  0  0
 20 47  1  0  0  0  0
 20 48  1  0  0  0  0
 21 22  1  0  0  0  0
 21 49  1  0  0  0  0
 21 50  1  0  0  0  0
 22 23  1  0  0  0  0
 22 25  1  0  0  0  0
 23 24  1  0  0  0  0
 23 51  1  0  0  0  0
 23 52  1  0  0  0  0
 24 53  1  0  0  0  0
 24 54  1  0  0  0  0
 24 55  1  0  0  0  0
 25 26  1  0  0  0  0
 25 56  1  0  0  0  0
 25 57  1  0  0  0  0
 26 58  1  0  0  0  0
 26 59  1  0  0  0  0
 26 60  1  0  0  0  0
 27 28  1  0  0  0  0
 27 30  2  0  0  0  0
 28 29  1  0  0  0  0
 29 61  1  0  0  0  0
 29 62  1  0  0  0  0
 29 63  1  0  0  0  0
 30 31  1  0  0  0  0
 30 64  1  0  0  0  0
 32 33  1  0  0  0  0
 32 65  1  0  0  0  0
 33 34  1  0  0  0  0
 34 66  1  0  0  0  0
 34 67  1  0  0  0  0
 34 68  1  0  0  0  0
 35 69  1  0  0  0  0
M  END
$$$$
