CHEMBL3983962
 OpenBabel04072215373D

 52 55  0  0  0  0  0  0  0  0999 V2000
    7.6725   -1.4581    2.3760 C   0  0  0  0  0  0  0  0  0  0  0  0
    7.9916   -0.6422    1.2607 O   0  0  0  0  0  0  0  0  0  0  0  0
    7.3092   -1.0561    0.0773 C   0  0  0  0  0  0  0  0  0  0  0  0
    7.7293   -0.1170   -1.0386 C   0  0  0  0  0  0  0  0  0  0  0  0
    7.1937   -0.5053   -2.3037 O   0  0  0  0  0  0  0  0  0  0  0  0
    6.2990    0.3885   -2.8118 C   0  0  0  0  0  0  0  0  0  0  0  0
    5.4130    0.9145   -2.1525 O   0  0  0  0  0  0  0  0  0  0  0  0
    6.6755    0.6894   -4.1793 C   0  0  0  0  0  0  0  0  0  0  0  0
    7.6897    0.1295   -4.9301 C   0  0  0  0  0  0  0  0  0  0  0  0
    7.8580    0.7633   -6.1885 C   0  0  0  0  0  0  0  0  0  0  0  0
    8.8090    0.4208   -7.0962 N   0  0  0  0  0  0  0  0  0  0  0  0
    8.7998    1.1218   -8.2408 C   0  0  0  0  0  0  0  0  0  0  0  0
    7.9277    2.1524   -8.5315 C   0  0  0  0  0  0  0  0  0  0  0  0
    7.0104    2.5657   -7.5595 C   0  0  0  0  0  0  0  0  0  0  0  0
    6.1608    3.6454   -7.7268 O   0  0  0  0  0  0  0  0  0  0  0  0
    6.6448    4.7750   -8.3583 C   0  0  0  0  0  0  0  0  0  0  0  0
    7.9877    5.1619   -8.3080 C   0  0  0  0  0  0  0  0  0  0  0  0
    8.4307    6.2219   -9.0842 C   0  0  0  0  0  0  0  0  0  0  0  0
    7.5208    6.9400   -9.8552 C   0  0  0  0  0  0  0  0  0  0  0  0
    6.1542    6.6292   -9.8473 C   0  0  0  0  0  0  0  0  0  0  0  0
    5.2098    7.3774  -10.5932 N   0  0  0  0  0  0  0  0  0  0  0  0
    5.5199    8.2322  -11.6396 C   0  0  0  0  0  0  0  0  0  0  0  0
    6.6444    8.3238  -12.1359 O   0  0  0  0  0  0  0  0  0  0  0  0
    4.4217    9.0228  -12.1616 C   0  0  0  0  0  0  0  0  0  0  0  0
    3.1525    8.8791  -11.6620 O   0  0  0  0  0  0  0  0  0  0  0  0
    2.3631    9.7590  -12.3372 C   0  0  0  0  0  0  0  0  0  0  0  0
    3.0970   10.4661  -13.2587 C   0  0  0  0  0  0  0  0  0  0  0  0
    4.4327    9.9954  -13.1537 C   0  0  0  0  0  0  0  0  0  0  0  0
    5.6186   10.4461  -13.9278 C   0  0  0  0  0  0  0  0  0  0  0  0
    5.7159    5.5500   -9.0706 C   0  0  0  0  0  0  0  0  0  0  0  0
    6.9516    1.8057   -6.3802 C   0  0  0  0  0  0  0  0  0  0  0  0
    5.8985    1.9529   -5.0264 S   0  0  0  0  0  0  0  0  0  0  0  0
    8.2245   -1.0808    3.2412 H   0  0  0  0  0  0  0  0  0  0  0  0
    7.9756   -2.4926    2.1915 H   0  0  0  0  0  0  0  0  0  0  0  0
    6.6020   -1.4064    2.5929 H   0  0  0  0  0  0  0  0  0  0  0  0
    6.2244   -1.0136    0.2250 H   0  0  0  0  0  0  0  0  0  0  0  0
    7.5799   -2.0885   -0.1745 H   0  0  0  0  0  0  0  0  0  0  0  0
    8.8204   -0.1432   -1.1420 H   0  0  0  0  0  0  0  0  0  0  0  0
    7.4854    0.9223   -0.7824 H   0  0  0  0  0  0  0  0  0  0  0  0
    8.3235   -0.6777   -4.5842 H   0  0  0  0  0  0  0  0  0  0  0  0
    9.5623    0.8280   -8.9587 H   0  0  0  0  0  0  0  0  0  0  0  0
    7.9983    2.6512   -9.4925 H   0  0  0  0  0  0  0  0  0  0  0  0
    8.7107    4.6282   -7.6984 H   0  0  0  0  0  0  0  0  0  0  0  0
    9.4834    6.4909   -9.1001 H   0  0  0  0  0  0  0  0  0  0  0  0
    7.9182    7.7688  -10.4321 H   0  0  0  0  0  0  0  0  0  0  0  0
    4.2230    7.2483  -10.3960 H   0  0  0  0  0  0  0  0  0  0  0  0
    1.3196    9.7680  -12.0540 H   0  0  0  0  0  0  0  0  0  0  0  0
    2.7212   11.2307  -13.9245 H   0  0  0  0  0  0  0  0  0  0  0  0
    5.3487   11.1947  -14.6778 H   0  0  0  0  0  0  0  0  0  0  0  0
    6.0813    9.6003  -14.4485 H   0  0  0  0  0  0  0  0  0  0  0  0
    6.3646   10.8893  -13.2593 H   0  0  0  0  0  0  0  0  0  0  0  0
    4.6674    5.2695   -9.0470 H   0  0  0  0  0  0  0  0  0  0  0  0
  1  2  1  0  0  0  0
  1 33  1  0  0  0  0
  1 34  1  0  0  0  0
  1 35  1  0  0  0  0
  2  3  1  0  0  0  0
  3  4  1  0  0  0  0
  3 36  1  0  0  0  0
  3 37  1  0  0  0  0
  4  5  1  0  0  0  0
  4 38  1  0  0  0  0
  4 39  1  0  0  0  0
  5  6  1  0  0  0  0
  6  7  2  0  0  0  0
  6  8  1  0  0  0  0
  8  9  2  0  0  0  0
  8 32  1  0  0  0  0
  9 10  1  0  0  0  0
  9 40  1  0  0  0  0
 10 11  1  0  0  0  0
 10 31  2  0  0  0  0
 11 12  2  0  0  0  0
 12 13  1  0  0  0  0
 12 41  1  0  0  0  0
 13 14  2  0  0  0  0
 13 42  1  0  0  0  0
 14 15  1  0  0  0  0
 14 31  1  0  0  0  0
 15 16  1  0  0  0  0
 16 17  1  0  0  0  0
 16 30  2  0  0  0  0
 17 18  2  0  0  0  0
 17 43  1  0  0  0  0
 18 19  1  0  0  0  0
 18 44  1  0  0  0  0
 19 20  2  0  0  0  0
 19 45  1  0  0  0  0
 20 21  1  0  0  0  0
 20 30  1  0  0  0  0
 21 22  1  0  0  0  0
 21 46  1  0  0  0  0
 22 23  2  0  0  0  0
 22 24  1  0  0  0  0
 24 25  1  0  0  0  0
 24 28  2  0  0  0  0
 25 26  1  0  0  0  0
 26 27  2  0  0  0  0
 26 47  1  0  0  0  0
 27 28  1  0  0  0  0
 27 48  1  0  0  0  0
 28 29  1  0  0  0  0
 29 49  1  0  0  0  0
 29 50  1  0  0  0  0
 29 51  1  0  0  0  0
 30 52  1  0  0  0  0
 31 32  1  0  0  0  0
M  END
$$$$
