CHEMBL238737
 OpenBabel04072215363D

 46 48  0  0  0  0  0  0  0  0999 V2000
   -0.9919   -1.7466    2.3382 C   0  0  0  0  0  0  0  0  0  0  0  0
   -0.2025   -0.5264    1.9455 C   0  0  0  0  0  0  0  0  0  0  0  0
   -0.8966    0.6837    1.7726 C   0  0  0  0  0  0  0  0  0  0  0  0
   -0.2461    1.8302    1.3129 C   0  0  0  0  0  0  0  0  0  0  0  0
   -1.0085    2.9929    1.1468 N   0  0  0  0  0  0  0  0  0  0  0  0
   -0.8879    3.8458    0.0610 C   0  0  0  0  0  0  0  0  0  0  0  0
   -0.1246    3.5969   -0.8704 O   0  0  0  0  0  0  0  0  0  0  0  0
   -1.7357    5.0305    0.0587 C   0  0  0  0  0  0  0  0  0  0  0  0
   -1.5898    6.1217   -0.7910 C   0  0  0  0  0  0  0  0  0  0  0  0
   -0.5968    6.3120   -1.6679 N   0  0  0  0  0  0  0  0  0  0  0  0
   -0.7655    7.0879   -2.8783 C   0  0  0  0  0  0  0  0  0  0  0  0
    0.0856    6.5522   -4.0096 C   0  0  0  0  0  0  0  0  0  0  0  0
    0.3286    5.1841   -4.1840 C   0  0  0  0  0  0  0  0  0  0  0  0
    1.0928    4.7640   -5.2723 C   0  0  0  0  0  0  0  0  0  0  0  0
    1.6013    5.6036   -6.2005 N   0  0  0  0  0  0  0  0  0  0  0  0
    1.3398    6.9149   -6.0313 C   0  0  0  0  0  0  0  0  0  0  0  0
    0.5888    7.4236   -4.9788 C   0  0  0  0  0  0  0  0  0  0  0  0
   -2.5640    7.0557   -0.6186 N   0  0  0  0  0  0  0  0  0  0  0  0
   -3.2899    6.5972    0.3702 C   0  0  0  0  0  0  0  0  0  0  0  0
   -2.8587    5.3763    0.7958 N   0  0  0  0  0  0  0  0  0  0  0  0
   -3.5529    4.6189    1.8105 C   0  0  0  0  0  0  0  0  0  0  0  0
    1.1268    1.7962    1.0728 C   0  0  0  0  0  0  0  0  0  0  0  0
    1.8390    0.6191    1.3006 C   0  0  0  0  0  0  0  0  0  0  0  0
    1.1889   -0.5603    1.7236 C   0  0  0  0  0  0  0  0  0  0  0  0
    2.0509   -1.7933    1.9049 C   0  0  0  0  0  0  0  0  0  0  0  0
    1.3815   -2.9199    2.2719 F   0  0  0  0  0  0  0  0  0  0  0  0
    2.7235   -2.1235    0.7658 F   0  0  0  0  0  0  0  0  0  0  0  0
    3.0082   -1.6123    2.8588 F   0  0  0  0  0  0  0  0  0  0  0  0
   -2.0611   -1.5241    2.4235 H   0  0  0  0  0  0  0  0  0  0  0  0
   -0.6559   -2.1218    3.3096 H   0  0  0  0  0  0  0  0  0  0  0  0
   -0.8879   -2.5252    1.5756 H   0  0  0  0  0  0  0  0  0  0  0  0
   -1.9698    0.7089    1.9296 H   0  0  0  0  0  0  0  0  0  0  0  0
   -1.8300    3.0457    1.7104 H   0  0  0  0  0  0  0  0  0  0  0  0
    0.2552    5.7571   -1.6087 H   0  0  0  0  0  0  0  0  0  0  0  0
   -0.4759    8.1243   -2.6615 H   0  0  0  0  0  0  0  0  0  0  0  0
   -1.8121    7.0908   -3.2151 H   0  0  0  0  0  0  0  0  0  0  0  0
   -0.0589    4.4472   -3.4906 H   0  0  0  0  0  0  0  0  0  0  0  0
    1.3080    3.7109   -5.4253 H   0  0  0  0  0  0  0  0  0  0  0  0
    1.7467    7.5675   -6.7973 H   0  0  0  0  0  0  0  0  0  0  0  0
    0.4237    8.4946   -4.9107 H   0  0  0  0  0  0  0  0  0  0  0  0
   -4.1409    7.1072    0.8063 H   0  0  0  0  0  0  0  0  0  0  0  0
   -4.4336    5.1726    2.1472 H   0  0  0  0  0  0  0  0  0  0  0  0
   -2.8883    4.4733    2.6663 H   0  0  0  0  0  0  0  0  0  0  0  0
   -3.8745    3.6660    1.3814 H   0  0  0  0  0  0  0  0  0  0  0  0
    1.6565    2.6878    0.7455 H   0  0  0  0  0  0  0  0  0  0  0  0
    2.9154    0.6213    1.1412 H   0  0  0  0  0  0  0  0  0  0  0  0
  1  2  1  0  0  0  0
  1 29  1  0  0  0  0
  1 30  1  0  0  0  0
  1 31  1  0  0  0  0
  2  3  1  0  0  0  0
  2 24  2  0  0  0  0
  3  4  2  0  0  0  0
  3 32  1  0  0  0  0
  4  5  1  0  0  0  0
  4 22  1  0  0  0  0
  5  6  1  0  0  0  0
  5 33  1  0  0  0  0
  6  7  2  0  0  0  0
  6  8  1  0  0  0  0
  8  9  2  0  0  0  0
  8 20  1  0  0  0  0
  9 10  1  0  0  0  0
  9 18  1  0  0  0  0
 10 11  1  0  0  0  0
 10 34  1  0  0  0  0
 11 12  1  0  0  0  0
 11 35  1  0  0  0  0
 11 36  1  0  0  0  0
 12 13  1  0  0  0  0
 12 17  2  0  0  0  0
 13 14  2  0  0  0  0
 13 37  1  0  0  0  0
 14 15  1  0  0  0  0
 14 38  1  0  0  0  0
 15 16  2  0  0  0  0
 16 17  1  0  0  0  0
 16 39  1  0  0  0  0
 17 40  1  0  0  0  0
 18 19  2  0  0  0  0
 19 20  1  0  0  0  0
 19 41  1  0  0  0  0
 20 21  1  0  0  0  0
 21 42  1  0  0  0  0
 21 43  1  0  0  0  0
 21 44  1  0  0  0  0
 22 23  2  0  0  0  0
 22 45  1  0  0  0  0
 23 24  1  0  0  0  0
 23 46  1  0  0  0  0
 24 25  1  0  0  0  0
 25 26  1  0  0  0  0
 25 27  1  0  0  0  0
 25 28  1  0  0  0  0
M  END
$$$$
