CHEMBL2088259
 OpenBabel04072215363D

 57 60  0  0  0  0  0  0  0  0999 V2000
    0.9021   -4.1528    1.6606 C   0  0  0  0  0  0  0  0  0  0  0  0
    1.9387   -3.1798    1.7218 O   0  0  0  0  0  0  0  0  0  0  0  0
    2.6106   -2.9204    0.5588 C   0  0  0  0  0  0  0  0  0  0  0  0
    2.3942   -3.5480   -0.6660 C   0  0  0  0  0  0  0  0  0  0  0  0
    3.1504   -3.1878   -1.7909 C   0  0  0  0  0  0  0  0  0  0  0  0
    2.8844   -3.8296   -3.1270 C   0  0  0  0  0  0  0  0  0  0  0  0
    1.8397   -3.0417   -3.9286 C   0  0  0  0  0  0  0  0  0  0  0  0
    1.5795   -3.6159   -5.2777 C   0  0  0  0  0  0  0  0  0  0  0  0
    1.2482   -3.0177   -6.4770 C   0  0  0  0  0  0  0  0  0  0  0  0
    1.2499   -4.0616   -7.4321 C   0  0  0  0  0  0  0  0  0  0  0  0
    1.0730   -3.8389   -8.7485 N   0  0  0  0  0  0  0  0  0  0  0  0
    1.4920   -4.6000   -9.8474 C   0  0  0  0  0  0  0  0  0  0  0  0
    2.2821   -5.7224   -9.7180 C   0  0  0  0  0  0  0  0  0  0  0  0
    2.6759   -6.3342  -10.8769 C   0  0  0  0  0  0  0  0  0  0  0  0
    2.3071   -5.9106  -12.0948 N   0  0  0  0  0  0  0  0  0  0  0  0
    1.5283   -4.8253  -12.1373 C   0  0  0  0  0  0  0  0  0  0  0  0
    1.1647   -4.4087  -13.4103 N   0  0  0  0  0  0  0  0  0  0  0  0
   -0.1949   -3.8952  -13.4803 C   0  0  0  0  0  0  0  0  0  0  0  0
   -0.5368   -3.4839  -14.9019 C   0  0  0  0  0  0  0  0  0  0  0  0
    0.2242   -2.5102  -15.5499 C   0  0  0  0  0  0  0  0  0  0  0  0
   -0.1246   -2.1291  -16.8423 C   0  0  0  0  0  0  0  0  0  0  0  0
   -1.2204   -2.7241  -17.4539 C   0  0  0  0  0  0  0  0  0  0  0  0
   -1.9229   -3.6838  -16.7451 C   0  0  0  0  0  0  0  0  0  0  0  0
   -1.6079   -4.0765  -15.4906 N   0  0  0  0  0  0  0  0  0  0  0  0
    1.1164   -4.1450  -11.0568 N   0  0  0  0  0  0  0  0  0  0  0  0
    1.4752   -5.2398   -6.8449 N   0  0  0  0  0  0  0  0  0  0  0  0
    1.6417   -4.9513   -5.5539 N   0  0  0  0  0  0  0  0  0  0  0  0
    4.1261   -2.1875   -1.6807 C   0  0  0  0  0  0  0  0  0  0  0  0
    4.3423   -1.5455   -0.4633 C   0  0  0  0  0  0  0  0  0  0  0  0
    5.2413   -0.5373   -0.2460 O   0  0  0  0  0  0  0  0  0  0  0  0
    5.9971   -0.1009   -1.3706 C   0  0  0  0  0  0  0  0  0  0  0  0
    3.5873   -1.9235    0.6501 C   0  0  0  0  0  0  0  0  0  0  0  0
    0.4330   -4.2068    2.6476 H   0  0  0  0  0  0  0  0  0  0  0  0
    1.3070   -5.1432    1.4281 H   0  0  0  0  0  0  0  0  0  0  0  0
    0.1277   -3.8642    0.9419 H   0  0  0  0  0  0  0  0  0  0  0  0
    1.6382   -4.3193   -0.7743 H   0  0  0  0  0  0  0  0  0  0  0  0
    2.5542   -4.8633   -2.9628 H   0  0  0  0  0  0  0  0  0  0  0  0
    3.8239   -3.9051   -3.6906 H   0  0  0  0  0  0  0  0  0  0  0  0
    2.1825   -2.0063   -4.0497 H   0  0  0  0  0  0  0  0  0  0  0  0
    0.8930   -2.9946   -3.3740 H   0  0  0  0  0  0  0  0  0  0  0  0
    1.1047   -1.9617   -6.6517 H   0  0  0  0  0  0  0  0  0  0  0  0
    0.6355   -2.9914   -9.0812 H   0  0  0  0  0  0  0  0  0  0  0  0
    2.6178   -6.0997   -8.7634 H   0  0  0  0  0  0  0  0  0  0  0  0
    3.3286   -7.2009  -10.8531 H   0  0  0  0  0  0  0  0  0  0  0  0
    1.3272   -5.2094  -14.0132 H   0  0  0  0  0  0  0  0  0  0  0  0
   -0.3247   -3.0110  -12.8437 H   0  0  0  0  0  0  0  0  0  0  0  0
   -0.9100   -4.6598  -13.1502 H   0  0  0  0  0  0  0  0  0  0  0  0
    1.0792   -2.0611  -15.0530 H   0  0  0  0  0  0  0  0  0  0  0  0
    0.4547   -1.3736  -17.3650 H   0  0  0  0  0  0  0  0  0  0  0  0
   -1.5206   -2.4470  -18.4579 H   0  0  0  0  0  0  0  0  0  0  0  0
   -2.7879   -4.1767  -17.1798 H   0  0  0  0  0  0  0  0  0  0  0  0
    1.8406   -5.7212   -4.9234 H   0  0  0  0  0  0  0  0  0  0  0  0
    4.6954   -1.9239   -2.5662 H   0  0  0  0  0  0  0  0  0  0  0  0
    6.5669    0.7835   -1.0719 H   0  0  0  0  0  0  0  0  0  0  0  0
    5.3507    0.1948   -2.2041 H   0  0  0  0  0  0  0  0  0  0  0  0
    6.7086   -0.8740   -1.6795 H   0  0  0  0  0  0  0  0  0  0  0  0
    3.7579   -1.4287    1.6029 H   0  0  0  0  0  0  0  0  0  0  0  0
  1  2  1  0  0  0  0
  1 33  1  0  0  0  0
  1 34  1  0  0  0  0
  1 35  1  0  0  0  0
  2  3  1  0  0  0  0
  3  4  1  0  0  0  0
  3 32  2  0  0  0  0
  4  5  2  0  0  0  0
  4 36  1  0  0  0  0
  5  6  1  0  0  0  0
  5 28  1  0  0  0  0
  6  7  1  0  0  0  0
  6 37  1  0  0  0  0
  6 38  1  0  0  0  0
  7  8  1  0  0  0  0
  7 39  1  0  0  0  0
  7 40  1  0  0  0  0
  8  9  2  0  0  0  0
  8 27  1  0  0  0  0
  9 10  1  0  0  0  0
  9 41  1  0  0  0  0
 10 11  1  0  0  0  0
 10 26  2  0  0  0  0
 11 12  1  0  0  0  0
 11 42  1  0  0  0  0
 12 13  1  0  0  0  0
 12 25  2  0  0  0  0
 13 14  2  0  0  0  0
 13 43  1  0  0  0  0
 14 15  1  0  0  0  0
 14 44  1  0  0  0  0
 15 16  2  0  0  0  0
 16 17  1  0  0  0  0
 16 25  1  0  0  0  0
 17 18  1  0  0  0  0
 17 45  1  0  0  0  0
 18 19  1  0  0  0  0
 18 46  1  0  0  0  0
 18 47  1  0  0  0  0
 19 20  1  0  0  0  0
 19 24  2  0  0  0  0
 20 21  2  0  0  0  0
 20 48  1  0  0  0  0
 21 22  1  0  0  0  0
 21 49  1  0  0  0  0
 22 23  2  0  0  0  0
 22 50  1  0  0  0  0
 23 24  1  0  0  0  0
 23 51  1  0  0  0  0
 26 27  1  0  0  0  0
 27 52  1  0  0  0  0
 28 29  2  0  0  0  0
 28 53  1  0  0  0  0
 29 30  1  0  0  0  0
 29 32  1  0  0  0  0
 30 31  1  0  0  0  0
 31 54  1  0  0  0  0
 31 55  1  0  0  0  0
 31 56  1  0  0  0  0
 32 57  1  0  0  0  0
M  END
$$$$
