CHEMBL1807786
 OpenBabel04072215363D

 68 72  0  0  0  0  0  0  0  0999 V2000
   -2.3958   -0.1319    0.4502 C   0  0  0  0  0  0  0  0  0  0  0  0
   -0.9136   -0.0889    0.2566 C   0  0  0  0  0  0  0  0  0  0  0  0
   -0.3481    1.1303    0.2680 N   0  0  0  0  0  0  0  0  0  0  0  0
    0.9760    1.2073    0.0509 C   0  0  0  0  0  0  0  0  0  0  0  0
    1.6101    2.4643   -0.0260 N   0  0  0  0  0  0  0  0  0  0  0  0
    0.9746    3.6552    0.0390 C   0  0  0  0  0  0  0  0  0  0  0  0
    1.4111    4.9456   -0.1090 C   0  0  0  0  0  0  0  0  0  0  0  0
    0.2523    5.7559    0.0556 C   0  0  0  0  0  0  0  0  0  0  0  0
    0.1535    7.2041   -0.0408 C   0  0  0  0  0  0  0  0  0  0  0  0
   -0.7839    7.8984    0.7375 C   0  0  0  0  0  0  0  0  0  0  0  0
   -0.8777    9.2861    0.6585 C   0  0  0  0  0  0  0  0  0  0  0  0
   -0.0341    9.9874   -0.2016 C   0  0  0  0  0  0  0  0  0  0  0  0
    0.8806    9.2963   -0.9966 C   0  0  0  0  0  0  0  0  0  0  0  0
    1.7309   10.0160   -1.8751 N   0  0  0  0  0  0  0  0  0  0  0  0
    3.1642   10.6726   -1.2761 S   0  0  0  0  0  0  0  0  0  0  0  0
    3.8172   11.2992   -2.4072 O   0  0  0  0  0  0  0  0  0  0  0  0
    2.8866   11.4143   -0.0657 O   0  0  0  0  0  0  0  0  0  0  0  0
    4.1447    9.2470   -0.8377 C   0  0  0  0  0  0  0  0  0  0  0  0
    4.9922    8.6790   -1.7945 C   0  0  0  0  0  0  0  0  0  0  0  0
    5.8466    7.6329   -1.4265 C   0  0  0  0  0  0  0  0  0  0  0  0
    5.8540    7.1685   -0.1116 C   0  0  0  0  0  0  0  0  0  0  0  0
    5.0077    7.7404    0.8407 C   0  0  0  0  0  0  0  0  0  0  0  0
    4.1534    8.7855    0.4824 C   0  0  0  0  0  0  0  0  0  0  0  0
    0.9807    7.9114   -0.9197 C   0  0  0  0  0  0  0  0  0  0  0  0
   -0.8299    5.0082    0.3215 N   0  0  0  0  0  0  0  0  0  0  0  0
   -0.3719    3.7560    0.2887 N   0  0  0  0  0  0  0  0  0  0  0  0
    1.7160    0.0791   -0.1881 C   0  0  0  0  0  0  0  0  0  0  0  0
    1.0590   -1.1406   -0.2095 C   0  0  0  0  0  0  0  0  0  0  0  0
    1.8307   -2.2615   -0.5040 N   0  0  0  0  0  0  0  0  0  0  0  0
    1.3661   -3.5699   -0.0331 C   0  0  0  0  0  0  0  0  0  0  0  0
    2.5619   -4.5644   -0.1461 C   0  0  0  0  0  0  0  0  0  0  0  0
    3.2210   -4.6465   -1.4884 N   0  0  0  0  0  0  0  0  0  0  0  0
    2.3676   -5.4037   -2.4300 C   0  0  0  0  0  0  0  0  0  0  0  0
    2.9984   -5.5972   -3.8206 C   0  0  0  0  0  0  0  0  0  0  0  0
    4.2925   -6.1812   -3.7150 O   0  0  0  0  0  0  0  0  0  0  0  0
    3.5140   -3.2665   -1.9509 C   0  0  0  0  0  0  0  0  0  0  0  0
    2.3150   -2.2986   -1.8925 C   0  0  0  0  0  0  0  0  0  0  0  0
   -0.2549   -1.2401    0.0362 N   0  0  0  0  0  0  0  0  0  0  0  0
   -2.7956    0.8799    0.5897 H   0  0  0  0  0  0  0  0  0  0  0  0
   -2.6485   -0.7238    1.3331 H   0  0  0  0  0  0  0  0  0  0  0  0
   -2.8765   -0.5646   -0.4316 H   0  0  0  0  0  0  0  0  0  0  0  0
    2.6191    2.4311   -0.0785 H   0  0  0  0  0  0  0  0  0  0  0  0
    2.4189    5.2694   -0.3184 H   0  0  0  0  0  0  0  0  0  0  0  0
   -1.4442    7.3523    1.4101 H   0  0  0  0  0  0  0  0  0  0  0  0
   -1.6093    9.8146    1.2644 H   0  0  0  0  0  0  0  0  0  0  0  0
   -0.1086   11.0695   -0.2625 H   0  0  0  0  0  0  0  0  0  0  0  0
    1.8188    9.6777   -2.8310 H   0  0  0  0  0  0  0  0  0  0  0  0
    5.0236    9.0576   -2.8123 H   0  0  0  0  0  0  0  0  0  0  0  0
    6.5248    7.2013   -2.1591 H   0  0  0  0  0  0  0  0  0  0  0  0
    6.5385    6.3741    0.1791 H   0  0  0  0  0  0  0  0  0  0  0  0
    5.0325    7.3882    1.8695 H   0  0  0  0  0  0  0  0  0  0  0  0
    3.5176    9.2451    1.2366 H   0  0  0  0  0  0  0  0  0  0  0  0
    1.6906    7.3823   -1.5484 H   0  0  0  0  0  0  0  0  0  0  0  0
   -1.0008    2.9747    0.4433 H   0  0  0  0  0  0  0  0  0  0  0  0
    2.7829    0.1275   -0.3593 H   0  0  0  0  0  0  0  0  0  0  0  0
    0.5121   -3.9241   -0.6236 H   0  0  0  0  0  0  0  0  0  0  0  0
    1.0539   -3.5171    1.0172 H   0  0  0  0  0  0  0  0  0  0  0  0
    2.2526   -5.5615    0.1885 H   0  0  0  0  0  0  0  0  0  0  0  0
    3.3324   -4.2397    0.5677 H   0  0  0  0  0  0  0  0  0  0  0  0
    1.3785   -4.9494   -2.5473 H   0  0  0  0  0  0  0  0  0  0  0  0
    2.2208   -6.4041   -2.0036 H   0  0  0  0  0  0  0  0  0  0  0  0
    3.0918   -4.6502   -4.3604 H   0  0  0  0  0  0  0  0  0  0  0  0
    2.3721   -6.2579   -4.4271 H   0  0  0  0  0  0  0  0  0  0  0  0
    4.7175   -5.7422   -2.9524 H   0  0  0  0  0  0  0  0  0  0  0  0
    3.9456   -3.2626   -2.9559 H   0  0  0  0  0  0  0  0  0  0  0  0
    4.3056   -2.8641   -1.3034 H   0  0  0  0  0  0  0  0  0  0  0  0
    1.5128   -2.6234   -2.5683 H   0  0  0  0  0  0  0  0  0  0  0  0
    2.6500   -1.3159   -2.2443 H   0  0  0  0  0  0  0  0  0  0  0  0
  1  2  1  0  0  0  0
  1 39  1  0  0  0  0
  1 40  1  0  0  0  0
  1 41  1  0  0  0  0
  2  3  1  0  0  0  0
  2 38  2  0  0  0  0
  3  4  2  0  0  0  0
  4  5  1  0  0  0  0
  4 27  1  0  0  0  0
  5  6  1  0  0  0  0
  5 42  1  0  0  0  0
  6  7  2  0  0  0  0
  6 26  1  0  0  0  0
  7  8  1  0  0  0  0
  7 43  1  0  0  0  0
  8  9  1  0  0  0  0
  8 25  2  0  0  0  0
  9 10  1  0  0  0  0
  9 24  2  0  0  0  0
 10 11  2  0  0  0  0
 10 44  1  0  0  0  0
 11 12  1  0  0  0  0
 11 45  1  0  0  0  0
 12 13  2  0  0  0  0
 12 46  1  0  0  0  0
 13 14  1  0  0  0  0
 13 24  1  0  0  0  0
 14 15  1  0  0  0  0
 14 47  1  0  0  0  0
 15 16  2  0  0  0  0
 15 17  2  0  0  0  0
 15 18  1  0  0  0  0
 18 19  1  0  0  0  0
 18 23  2  0  0  0  0
 19 20  2  0  0  0  0
 19 48  1  0  0  0  0
 20 21  1  0  0  0  0
 20 49  1  0  0  0  0
 21 22  2  0  0  0  0
 21 50  1  0  0  0  0
 22 23  1  0  0  0  0
 22 51  1  0  0  0  0
 23 52  1  0  0  0  0
 24 53  1  0  0  0  0
 25 26  1  0  0  0  0
 26 54  1  0  0  0  0
 27 28  2  0  0  0  0
 27 55  1  0  0  0  0
 28 29  1  0  0  0  0
 28 38  1  0  0  0  0
 29 30  1  0  0  0  0
 29 37  1  0  0  0  0
 30 31  1  0  0  0  0
 30 56  1  0  0  0  0
 30 57  1  0  0  0  0
 31 32  1  0  0  0  0
 31 58  1  0  0  0  0
 31 59  1  0  0  0  0
 32 33  1  0  0  0  0
 32 36  1  0  0  0  0
 33 34  1  0  0  0  0
 33 60  1  0  0  0  0
 33 61  1  0  0  0  0
 34 35  1  0  0  0  0
 34 62  1  0  0  0  0
 34 63  1  0  0  0  0
 35 64  1  0  0  0  0
 36 37  1  0  0  0  0
 36 65  1  0  0  0  0
 36 66  1  0  0  0  0
 37 67  1  0  0  0  0
 37 68  1  0  0  0  0
M  END
$$$$
