CHEMBL1241582
 OpenBabel04072215363D

 38 40  0  0  0  0  0  0  0  0999 V2000
    3.3203    0.3324    1.2859 C   0  0  0  0  0  0  0  0  0  0  0  0
    2.6440   -0.0028   -0.0435 C   0  0  0  0  0  0  0  0  0  0  0  0
    1.1244   -0.0656    0.1137 C   0  0  0  0  0  0  0  0  0  0  0  0
    3.0264    0.9336   -1.0953 N   0  0  0  0  0  0  0  0  0  0  0  0
    2.7483    2.2467   -0.9626 N   0  0  0  0  0  0  0  0  0  0  0  0
    3.1376    2.7961   -2.1304 C   0  0  0  0  0  0  0  0  0  0  0  0
    2.8994    4.2256   -2.3665 C   0  0  0  0  0  0  0  0  0  0  0  0
    2.5718    4.7086   -3.6378 C   0  0  0  0  0  0  0  0  0  0  0  0
    2.3375    6.0683   -3.8473 C   0  0  0  0  0  0  0  0  0  0  0  0
    2.3692    6.9568   -2.7742 C   0  0  0  0  0  0  0  0  0  0  0  0
    2.6552    6.5005   -1.4814 C   0  0  0  0  0  0  0  0  0  0  0  0
    2.5565    7.4125   -0.2845 C   0  0  0  0  0  0  0  0  0  0  0  0
    2.8919    8.7568   -0.6055 O   0  0  0  0  0  0  0  0  0  0  0  0
    2.9272    5.1337   -1.2934 C   0  0  0  0  0  0  0  0  0  0  0  0
    3.7419    1.8157   -2.9842 C   0  0  0  0  0  0  0  0  0  0  0  0
    4.3544    1.7326   -4.2439 C   0  0  0  0  0  0  0  0  0  0  0  0
    4.5953    2.8033   -5.0951 N   0  0  0  0  0  0  0  0  0  0  0  0
    4.7700    0.5279   -4.6901 N   0  0  0  0  0  0  0  0  0  0  0  0
    4.5880   -0.5494   -3.9049 C   0  0  0  0  0  0  0  0  0  0  0  0
    4.0373   -0.5932   -2.6840 N   0  0  0  0  0  0  0  0  0  0  0  0
    3.6356    0.6249   -2.2811 C   0  0  0  0  0  0  0  0  0  0  0  0
    3.0433   -0.3961    2.0556 H   0  0  0  0  0  0  0  0  0  0  0  0
    3.0342    1.3264    1.6471 H   0  0  0  0  0  0  0  0  0  0  0  0
    4.4107    0.3167    1.1832 H   0  0  0  0  0  0  0  0  0  0  0  0
    2.9914   -0.9950   -0.3558 H   0  0  0  0  0  0  0  0  0  0  0  0
    0.7131    0.8946    0.4444 H   0  0  0  0  0  0  0  0  0  0  0  0
    0.8427   -0.8237    0.8519 H   0  0  0  0  0  0  0  0  0  0  0  0
    0.6433   -0.3239   -0.8361 H   0  0  0  0  0  0  0  0  0  0  0  0
    2.4595    4.0319   -4.4813 H   0  0  0  0  0  0  0  0  0  0  0  0
    2.0945    6.4271   -4.8444 H   0  0  0  0  0  0  0  0  0  0  0  0
    2.1321    8.0050   -2.9478 H   0  0  0  0  0  0  0  0  0  0  0  0
    3.2372    7.0868    0.5085 H   0  0  0  0  0  0  0  0  0  0  0  0
    1.5333    7.3941    0.1050 H   0  0  0  0  0  0  0  0  0  0  0  0
    3.7413    8.7267   -1.0768 H   0  0  0  0  0  0  0  0  0  0  0  0
    3.1301    4.7619   -0.2890 H   0  0  0  0  0  0  0  0  0  0  0  0
    4.8243    3.6722   -4.6284 H   0  0  0  0  0  0  0  0  0  0  0  0
    5.2284    2.5259   -5.8365 H   0  0  0  0  0  0  0  0  0  0  0  0
    4.9336   -1.4961   -4.3116 H   0  0  0  0  0  0  0  0  0  0  0  0
  1  2  1  0  0  0  0
  1 22  1  0  0  0  0
  1 23  1  0  0  0  0
  1 24  1  0  0  0  0
  2  3  1  0  0  0  0
  2  4  1  0  0  0  0
  2 25  1  0  0  0  0
  3 26  1  0  0  0  0
  3 27  1  0  0  0  0
  3 28  1  0  0  0  0
  4  5  1  0  0  0  0
  4 21  1  0  0  0  0
  5  6  2  0  0  0  0
  6  7  1  0  0  0  0
  6 15  1  0  0  0  0
  7  8  1  0  0  0  0
  7 14  2  0  0  0  0
  8  9  2  0  0  0  0
  8 29  1  0  0  0  0
  9 10  1  0  0  0  0
  9 30  1  0  0  0  0
 10 11  2  0  0  0  0
 10 31  1  0  0  0  0
 11 12  1  0  0  0  0
 11 14  1  0  0  0  0
 12 13  1  0  0  0  0
 12 32  1  0  0  0  0
 12 33  1  0  0  0  0
 13 34  1  0  0  0  0
 14 35  1  0  0  0  0
 15 16  1  0  0  0  0
 15 21  2  0  0  0  0
 16 17  1  0  0  0  0
 16 18  2  0  0  0  0
 17 36  1  0  0  0  0
 17 37  1  0  0  0  0
 18 19  1  0  0  0  0
 19 20  2  0  0  0  0
 19 38  1  0  0  0  0
 20 21  1  0  0  0  0
M  END
$$$$
