CHEMBL2031903
 OpenBabel04072215363D

 62 66  0  0  0  0  0  0  0  0999 V2000
    4.1163   -0.8206   -2.0924 C   0  0  0  0  0  0  0  0  0  0  0  0
    5.4481   -1.0767   -1.6560 O   0  0  0  0  0  0  0  0  0  0  0  0
    5.5770   -1.7528   -0.4711 C   0  0  0  0  0  0  0  0  0  0  0  0
    4.5254   -2.1357    0.3470 C   0  0  0  0  0  0  0  0  0  0  0  0
    4.7896   -2.8246    1.5267 C   0  0  0  0  0  0  0  0  0  0  0  0
    6.0983   -3.2362    1.8653 C   0  0  0  0  0  0  0  0  0  0  0  0
    6.4179   -4.0994    2.9442 C   0  0  0  0  0  0  0  0  0  0  0  0
    5.4969   -4.7027    3.7854 O   0  0  0  0  0  0  0  0  0  0  0  0
    4.4156   -5.3838    3.2620 C   0  0  0  0  0  0  0  0  0  0  0  0
    4.3201   -5.8339    1.9454 C   0  0  0  0  0  0  0  0  0  0  0  0
    3.1067   -6.3261    1.4521 C   0  0  0  0  0  0  0  0  0  0  0  0
    2.0020   -6.4860    2.2878 C   0  0  0  0  0  0  0  0  0  0  0  0
    0.7602   -6.9863    1.8356 N   0  0  0  0  0  0  0  0  0  0  0  0
    0.3666   -7.2073    0.5278 C   0  0  0  0  0  0  0  0  0  0  0  0
    1.0201   -6.9026   -0.4642 O   0  0  0  0  0  0  0  0  0  0  0  0
   -0.9875   -7.7987    0.3689 C   0  0  0  0  0  0  0  0  0  0  0  0
   -1.6767   -8.7288    1.0729 C   0  0  0  0  0  0  0  0  0  0  0  0
   -1.2464   -9.5862    2.2419 C   0  0  0  0  0  0  0  0  0  0  0  0
    0.0831   -9.3702    2.7821 N   0  0  0  0  0  0  0  0  0  0  0  0
   -2.9816   -8.8934    0.5705 N   0  0  0  0  0  0  0  0  0  0  0  0
   -3.8190  -10.0803    0.7314 C   0  0  0  0  0  0  0  0  0  0  0  0
   -3.0118   -8.2659   -0.6824 N   0  0  0  0  0  0  0  0  0  0  0  0
   -4.2193   -7.9819   -1.3617 C   0  0  0  0  0  0  0  0  0  0  0  0
   -4.2676   -8.1456   -2.7518 C   0  0  0  0  0  0  0  0  0  0  0  0
   -5.4614   -7.9365   -3.4469 C   0  0  0  0  0  0  0  0  0  0  0  0
   -6.6023   -7.5216   -2.7622 C   0  0  0  0  0  0  0  0  0  0  0  0
   -6.5549   -7.3308   -1.3812 C   0  0  0  0  0  0  0  0  0  0  0  0
   -5.3711   -7.5759   -0.6796 C   0  0  0  0  0  0  0  0  0  0  0  0
   -1.8623   -7.4727   -0.8107 C   0  0  0  0  0  0  0  0  0  0  0  0
   -1.6226   -6.6371   -1.6684 O   0  0  0  0  0  0  0  0  0  0  0  0
    2.1362   -6.1600    3.6424 C   0  0  0  0  0  0  0  0  0  0  0  0
    3.3269   -5.5939    4.1114 C   0  0  0  0  0  0  0  0  0  0  0  0
    3.3962   -5.2191    5.3987 F   0  0  0  0  0  0  0  0  0  0  0  0
    7.7486   -4.3664    3.2503 C   0  0  0  0  0  0  0  0  0  0  0  0
    8.7201   -3.8229    2.4365 C   0  0  0  0  0  0  0  0  0  0  0  0
    8.4534   -3.0703    1.3485 N   0  0  0  0  0  0  0  0  0  0  0  0
    7.1690   -2.7927    1.0612 C   0  0  0  0  0  0  0  0  0  0  0  0
    6.8852   -2.0592   -0.0880 C   0  0  0  0  0  0  0  0  0  0  0  0
    4.1673   -0.2560   -3.0272 H   0  0  0  0  0  0  0  0  0  0  0  0
    3.5744   -0.2060   -1.3651 H   0  0  0  0  0  0  0  0  0  0  0  0
    3.5816   -1.7560   -2.2926 H   0  0  0  0  0  0  0  0  0  0  0  0
    3.4889   -1.9359    0.1002 H   0  0  0  0  0  0  0  0  0  0  0  0
    3.9426   -3.0807    2.1571 H   0  0  0  0  0  0  0  0  0  0  0  0
    5.1510   -5.7447    1.2514 H   0  0  0  0  0  0  0  0  0  0  0  0
    3.0647   -6.5812    0.3978 H   0  0  0  0  0  0  0  0  0  0  0  0
    0.1368   -7.3334    2.5615 H   0  0  0  0  0  0  0  0  0  0  0  0
   -1.3011  -10.6394    1.9425 H   0  0  0  0  0  0  0  0  0  0  0  0
   -1.9629   -9.4376    3.0571 H   0  0  0  0  0  0  0  0  0  0  0  0
    0.7782   -9.6992    2.1038 H   0  0  0  0  0  0  0  0  0  0  0  0
    0.2168   -9.9773    3.5927 H   0  0  0  0  0  0  0  0  0  0  0  0
   -3.4571  -10.7483    1.5173 H   0  0  0  0  0  0  0  0  0  0  0  0
   -3.8815  -10.6612   -0.1950 H   0  0  0  0  0  0  0  0  0  0  0  0
   -4.8291   -9.7796    1.0278 H   0  0  0  0  0  0  0  0  0  0  0  0
   -3.3851   -8.4744   -3.2955 H   0  0  0  0  0  0  0  0  0  0  0  0
   -5.4988   -8.0959   -4.5218 H   0  0  0  0  0  0  0  0  0  0  0  0
   -7.5257   -7.3385   -3.3064 H   0  0  0  0  0  0  0  0  0  0  0  0
   -7.4389   -6.9833   -0.8527 H   0  0  0  0  0  0  0  0  0  0  0  0
   -5.3428   -7.4061    0.3930 H   0  0  0  0  0  0  0  0  0  0  0  0
    1.3148   -6.2871    4.3412 H   0  0  0  0  0  0  0  0  0  0  0  0
    8.0195   -4.9892    4.0946 H   0  0  0  0  0  0  0  0  0  0  0  0
    9.7755   -3.9914    2.6319 H   0  0  0  0  0  0  0  0  0  0  0  0
    7.7126   -1.7326   -0.7167 H   0  0  0  0  0  0  0  0  0  0  0  0
  1  2  1  0  0  0  0
  1 39  1  0  0  0  0
  1 40  1  0  0  0  0
  1 41  1  0  0  0  0
  2  3  1  0  0  0  0
  3  4  1  0  0  0  0
  3 38  2  0  0  0  0
  4  5  2  0  0  0  0
  4 42  1  0  0  0  0
  5  6  1  0  0  0  0
  5 43  1  0  0  0  0
  6  7  1  0  0  0  0
  6 37  2  0  0  0  0
  7  8  1  0  0  0  0
  7 34  2  0  0  0  0
  8  9  1  0  0  0  0
  9 10  1  0  0  0  0
  9 32  2  0  0  0  0
 10 11  2  0  0  0  0
 10 44  1  0  0  0  0
 11 12  1  0  0  0  0
 11 45  1  0  0  0  0
 12 13  1  0  0  0  0
 12 31  2  0  0  0  0
 13 14  1  0  0  0  0
 13 46  1  0  0  0  0
 14 15  2  0  0  0  0
 14 16  1  0  0  0  0
 16 17  2  0  0  0  0
 16 29  1  0  0  0  0
 17 18  1  0  0  0  0
 17 20  1  0  0  0  0
 18 19  1  0  0  0  0
 18 47  1  0  0  0  0
 18 48  1  0  0  0  0
 19 49  1  0  0  0  0
 19 50  1  0  0  0  0
 20 21  1  0  0  0  0
 20 22  1  0  0  0  0
 21 51  1  0  0  0  0
 21 52  1  0  0  0  0
 21 53  1  0  0  0  0
 22 23  1  0  0  0  0
 22 29  1  0  0  0  0
 23 24  1  0  0  0  0
 23 28  2  0  0  0  0
 24 25  2  0  0  0  0
 24 54  1  0  0  0  0
 25 26  1  0  0  0  0
 25 55  1  0  0  0  0
 26 27  2  0  0  0  0
 26 56  1  0  0  0  0
 27 28  1  0  0  0  0
 27 57  1  0  0  0  0
 28 58  1  0  0  0  0
 29 30  2  0  0  0  0
 31 32  1  0  0  0  0
 31 59  1  0  0  0  0
 32 33  1  0  0  0  0
 34 35  1  0  0  0  0
 34 60  1  0  0  0  0
 35 36  2  0  0  0  0
 35 61  1  0  0  0  0
 36 37  1  0  0  0  0
 37 38  1  0  0  0  0
 38 62  1  0  0  0  0
M  END
$$$$
