CHEMBL4083278
 OpenBabel04072215383D

 60 64  0  0  0  0  0  0  0  0999 V2000
   10.0073    3.1584    3.7999 C   0  0  0  0  0  0  0  0  0  0  0  0
   10.0464    2.1099    4.7755 O   0  0  0  0  0  0  0  0  0  0  0  0
    8.9731    1.2561    4.7773 C   0  0  0  0  0  0  0  0  0  0  0  0
    8.2553    0.9978    3.5968 C   0  0  0  0  0  0  0  0  0  0  0  0
    7.0790    0.2665    3.5824 C   0  0  0  0  0  0  0  0  0  0  0  0
    6.4086    0.1758    2.4293 N   0  0  0  0  0  0  0  0  0  0  0  0
    5.2314   -0.4556    2.4639 C   0  0  0  0  0  0  0  0  0  0  0  0
    4.6757   -1.0097    3.5400 N   0  0  0  0  0  0  0  0  0  0  0  0
    5.4057   -0.9697    4.6747 C   0  0  0  0  0  0  0  0  0  0  0  0
    4.8900   -1.5877    5.8236 O   0  0  0  0  0  0  0  0  0  0  0  0
    3.9119   -2.5529    5.6308 C   0  0  0  0  0  0  0  0  0  0  0  0
    4.0947   -3.5305    4.6594 C   0  0  0  0  0  0  0  0  0  0  0  0
    3.0678   -4.4056    4.3463 C   0  0  0  0  0  0  0  0  0  0  0  0
    1.8486   -4.3698    5.0210 C   0  0  0  0  0  0  0  0  0  0  0  0
    0.7566   -5.1705    4.5530 N   0  0  0  0  0  0  0  0  0  0  0  0
    0.6829   -5.7876    3.3049 C   0  0  0  0  0  0  0  0  0  0  0  0
    1.5594   -5.7841    2.4469 O   0  0  0  0  0  0  0  0  0  0  0  0
   -0.5553   -6.3819    3.0819 N   0  0  0  0  0  0  0  0  0  0  0  0
   -0.8311   -7.0343    1.8532 C   0  0  0  0  0  0  0  0  0  0  0  0
   -2.0235   -6.7434    1.1978 C   0  0  0  0  0  0  0  0  0  0  0  0
   -2.2936   -7.3227   -0.0441 C   0  0  0  0  0  0  0  0  0  0  0  0
   -1.4055   -8.2413   -0.6199 C   0  0  0  0  0  0  0  0  0  0  0  0
   -1.8705   -8.8921   -2.1493 Cl  0  0  0  0  0  0  0  0  0  0  0  0
   -0.2208   -8.5836    0.0389 C   0  0  0  0  0  0  0  0  0  0  0  0
    0.7827   -9.5823   -0.4791 C   0  0  0  0  0  0  0  0  0  0  0  0
    0.4520  -10.2357   -1.6264 F   0  0  0  0  0  0  0  0  0  0  0  0
    2.0006   -9.0221   -0.7218 F   0  0  0  0  0  0  0  0  0  0  0  0
    1.0165  -10.5764    0.4314 F   0  0  0  0  0  0  0  0  0  0  0  0
    0.0595   -7.9527    1.2756 C   0  0  0  0  0  0  0  0  0  0  0  0
    1.7169   -3.4935    6.1593 C   0  0  0  0  0  0  0  0  0  0  0  0
    0.5756   -3.4795    7.0144 C   0  0  0  0  0  0  0  0  0  0  0  0
    0.4858   -2.6218    8.1160 C   0  0  0  0  0  0  0  0  0  0  0  0
    1.5119   -1.7276    8.3814 C   0  0  0  0  0  0  0  0  0  0  0  0
    2.6307   -1.6961    7.5504 C   0  0  0  0  0  0  0  0  0  0  0  0
    2.7633   -2.5707    6.4505 C   0  0  0  0  0  0  0  0  0  0  0  0
    6.6355   -0.3118    4.7720 C   0  0  0  0  0  0  0  0  0  0  0  0
    7.4223   -0.1819    5.9375 C   0  0  0  0  0  0  0  0  0  0  0  0
    8.5761    0.6175    5.9585 C   0  0  0  0  0  0  0  0  0  0  0  0
    9.1263    0.6621    7.2072 O   0  0  0  0  0  0  0  0  0  0  0  0
   10.1990    1.5417    7.4952 C   0  0  0  0  0  0  0  0  0  0  0  0
   10.4747    4.0481    4.2316 H   0  0  0  0  0  0  0  0  0  0  0  0
    8.9901    3.4498    3.5078 H   0  0  0  0  0  0  0  0  0  0  0  0
   10.5824    2.8608    2.9168 H   0  0  0  0  0  0  0  0  0  0  0  0
    8.5899    1.4027    2.6448 H   0  0  0  0  0  0  0  0  0  0  0  0
    4.6809   -0.5253    1.5322 H   0  0  0  0  0  0  0  0  0  0  0  0
    5.0121   -3.5819    4.0808 H   0  0  0  0  0  0  0  0  0  0  0  0
    3.2658   -5.1009    3.5406 H   0  0  0  0  0  0  0  0  0  0  0  0
   -0.0768   -5.1947    5.1161 H   0  0  0  0  0  0  0  0  0  0  0  0
   -1.3321   -5.8993    3.5082 H   0  0  0  0  0  0  0  0  0  0  0  0
   -2.7213   -6.0157    1.6011 H   0  0  0  0  0  0  0  0  0  0  0  0
   -3.2030   -7.0410   -0.5716 H   0  0  0  0  0  0  0  0  0  0  0  0
    0.9913   -8.1911    1.7907 H   0  0  0  0  0  0  0  0  0  0  0  0
   -0.2526   -4.1664    6.8600 H   0  0  0  0  0  0  0  0  0  0  0  0
   -0.3839   -2.6544    8.7679 H   0  0  0  0  0  0  0  0  0  0  0  0
    1.4496   -1.0593    9.2370 H   0  0  0  0  0  0  0  0  0  0  0  0
    3.4254   -0.9926    7.7871 H   0  0  0  0  0  0  0  0  0  0  0  0
    7.1116   -0.6753    6.8571 H   0  0  0  0  0  0  0  0  0  0  0  0
   10.2314    1.6522    8.5852 H   0  0  0  0  0  0  0  0  0  0  0  0
   10.0539    2.5452    7.0896 H   0  0  0  0  0  0  0  0  0  0  0  0
   11.1502    1.1035    7.1799 H   0  0  0  0  0  0  0  0  0  0  0  0
  1  2  1  0  0  0  0
  1 41  1  0  0  0  0
  1 42  1  0  0  0  0
  1 43  1  0  0  0  0
  2  3  1  0  0  0  0
  3  4  1  0  0  0  0
  3 38  2  0  0  0  0
  4  5  2  0  0  0  0
  4 44  1  0  0  0  0
  5  6  1  0  0  0  0
  5 36  1  0  0  0  0
  6  7  2  0  0  0  0
  7  8  1  0  0  0  0
  7 45  1  0  0  0  0
  8  9  2  0  0  0  0
  9 10  1  0  0  0  0
  9 36  1  0  0  0  0
 10 11  1  0  0  0  0
 11 12  1  0  0  0  0
 11 35  2  0  0  0  0
 12 13  2  0  0  0  0
 12 46  1  0  0  0  0
 13 14  1  0  0  0  0
 13 47  1  0  0  0  0
 14 15  1  0  0  0  0
 14 30  2  0  0  0  0
 15 16  1  0  0  0  0
 15 48  1  0  0  0  0
 16 17  2  0  0  0  0
 16 18  1  0  0  0  0
 18 19  1  0  0  0  0
 18 49  1  0  0  0  0
 19 20  1  0  0  0  0
 19 29  2  0  0  0  0
 20 21  2  0  0  0  0
 20 50  1  0  0  0  0
 21 22  1  0  0  0  0
 21 51  1  0  0  0  0
 22 23  1  0  0  0  0
 22 24  2  0  0  0  0
 24 25  1  0  0  0  0
 24 29  1  0  0  0  0
 25 26  1  0  0  0  0
 25 27  1  0  0  0  0
 25 28  1  0  0  0  0
 29 52  1  0  0  0  0
 30 31  1  0  0  0  0
 30 35  1  0  0  0  0
 31 32  2  0  0  0  0
 31 53  1  0  0  0  0
 32 33  1  0  0  0  0
 32 54  1  0  0  0  0
 33 34  2  0  0  0  0
 33 55  1  0  0  0  0
 34 35  1  0  0  0  0
 34 56  1  0  0  0  0
 36 37  2  0  0  0  0
 37 38  1  0  0  0  0
 37 57  1  0  0  0  0
 38 39  1  0  0  0  0
 39 40  1  0  0  0  0
 40 58  1  0  0  0  0
 40 59  1  0  0  0  0
 40 60  1  0  0  0  0
M  END
$$$$
