CHEMBL433321
 OpenBabel04072215383D

 39 42  0  0  0  0  0  0  0  0999 V2000
   -2.0443   -0.4540    0.9860 Cl  0  0  0  0  0  0  0  0  0  0  0  0
   -0.3574   -0.2711    0.7047 C   0  0  0  0  0  0  0  0  0  0  0  0
    0.1612    0.9844    0.4126 C   0  0  0  0  0  0  0  0  0  0  0  0
    1.5284    1.1257    0.1641 C   0  0  0  0  0  0  0  0  0  0  0  0
    2.3961    0.0234    0.2145 C   0  0  0  0  0  0  0  0  0  0  0  0
    3.7558    0.1397   -0.1397 N   0  0  0  0  0  0  0  0  0  0  0  0
    4.5543    1.3039   -0.0377 C   0  0  0  0  0  0  0  0  0  0  0  0
    4.2977    2.2039    0.9342 N   0  0  0  0  0  0  0  0  0  0  0  0
    5.0198    3.3584    1.0361 N   0  0  0  0  0  0  0  0  0  0  0  0
    5.9982    3.6369    0.1460 C   0  0  0  0  0  0  0  0  0  0  0  0
    6.6657    4.9780    0.3425 C   0  0  0  0  0  0  0  0  0  0  0  0
    6.0285    6.1089   -0.4337 C   0  0  0  0  0  0  0  0  0  0  0  0
    4.7086    6.4966   -0.1792 C   0  0  0  0  0  0  0  0  0  0  0  0
    4.1706    7.5532   -0.8968 C   0  0  0  0  0  0  0  0  0  0  0  0
    4.8503    8.2461   -1.8348 N   0  0  0  0  0  0  0  0  0  0  0  0
    6.1233    7.8650   -2.0625 C   0  0  0  0  0  0  0  0  0  0  0  0
    6.7495    6.8190   -1.3984 C   0  0  0  0  0  0  0  0  0  0  0  0
    6.3217    2.7407   -0.8885 C   0  0  0  0  0  0  0  0  0  0  0  0
    7.3166    2.9709   -1.8633 C   0  0  0  0  0  0  0  0  0  0  0  0
    7.5534    2.0162   -2.8392 C   0  0  0  0  0  0  0  0  0  0  0  0
    6.8794    0.8577   -2.9233 N   0  0  0  0  0  0  0  0  0  0  0  0
    5.9131    0.6522   -1.9988 C   0  0  0  0  0  0  0  0  0  0  0  0
    5.5890    1.5367   -0.9599 C   0  0  0  0  0  0  0  0  0  0  0  0
    1.8495   -1.2361    0.4962 C   0  0  0  0  0  0  0  0  0  0  0  0
    0.4808   -1.3820    0.7505 C   0  0  0  0  0  0  0  0  0  0  0  0
   -0.4849    1.8562    0.3617 H   0  0  0  0  0  0  0  0  0  0  0  0
    1.9052    2.1141   -0.0891 H   0  0  0  0  0  0  0  0  0  0  0  0
    4.3029   -0.6967    0.0288 H   0  0  0  0  0  0  0  0  0  0  0  0
    7.7359    4.9032    0.1162 H   0  0  0  0  0  0  0  0  0  0  0  0
    6.6293    5.2411    1.4087 H   0  0  0  0  0  0  0  0  0  0  0  0
    4.1023    5.9907    0.5675 H   0  0  0  0  0  0  0  0  0  0  0  0
    3.1487    7.8827   -0.7268 H   0  0  0  0  0  0  0  0  0  0  0  0
    6.6500    8.4442   -2.8156 H   0  0  0  0  0  0  0  0  0  0  0  0
    7.7811    6.5821   -1.6293 H   0  0  0  0  0  0  0  0  0  0  0  0
    7.9024    3.8823   -1.8842 H   0  0  0  0  0  0  0  0  0  0  0  0
    8.3109    2.1697   -3.6023 H   0  0  0  0  0  0  0  0  0  0  0  0
    5.3772   -0.2844   -2.1338 H   0  0  0  0  0  0  0  0  0  0  0  0
    2.4809   -2.1205    0.5224 H   0  0  0  0  0  0  0  0  0  0  0  0
    0.0748   -2.3657    0.9728 H   0  0  0  0  0  0  0  0  0  0  0  0
  1  2  1  0  0  0  0
  2  3  1  0  0  0  0
  2 25  2  0  0  0  0
  3  4  2  0  0  0  0
  3 26  1  0  0  0  0
  4  5  1  0  0  0  0
  4 27  1  0  0  0  0
  5  6  1  0  0  0  0
  5 24  2  0  0  0  0
  6  7  1  0  0  0  0
  6 28  1  0  0  0  0
  7  8  1  0  0  0  0
  7 23  2  0  0  0  0
  8  9  2  0  0  0  0
  9 10  1  0  0  0  0
 10 11  1  0  0  0  0
 10 18  2  0  0  0  0
 11 12  1  0  0  0  0
 11 29  1  0  0  0  0
 11 30  1  0  0  0  0
 12 13  1  0  0  0  0
 12 17  2  0  0  0  0
 13 14  2  0  0  0  0
 13 31  1  0  0  0  0
 14 15  1  0  0  0  0
 14 32  1  0  0  0  0
 15 16  2  0  0  0  0
 16 17  1  0  0  0  0
 16 33  1  0  0  0  0
 17 34  1  0  0  0  0
 18 19  1  0  0  0  0
 18 23  1  0  0  0  0
 19 20  2  0  0  0  0
 19 35  1  0  0  0  0
 20 21  1  0  0  0  0
 20 36  1  0  0  0  0
 21 22  2  0  0  0  0
 22 23  1  0  0  0  0
 22 37  1  0  0  0  0
 24 25  1  0  0  0  0
 24 38  1  0  0  0  0
 25 39  1  0  0  0  0
M  END
$$$$
