CHEMBL1945497
 OpenBabel04072215363D

 58 61  0  0  0  0  0  0  0  0999 V2000
    2.7412   -1.5406    4.7202 C   0  0  0  0  0  0  0  0  0  0  0  0
    4.1918   -1.7100    4.6528 N   0  0  0  0  0  0  0  0  0  0  0  0
    4.6182   -2.7551    5.5922 C   0  0  0  0  0  0  0  0  0  0  0  0
    4.6497   -2.0501    3.2922 C   0  0  0  0  0  0  0  0  0  0  0  0
    4.4133   -0.9412    2.2555 C   0  0  0  0  0  0  0  0  0  0  0  0
    5.0388    0.4134    2.6207 C   0  0  0  0  0  0  0  0  0  0  0  0
    6.5433    0.3583    2.7071 C   0  0  0  0  0  0  0  0  0  0  0  0
    7.2102    0.5498    3.9148 C   0  0  0  0  0  0  0  0  0  0  0  0
    8.6024    0.4566    3.9673 C   0  0  0  0  0  0  0  0  0  0  0  0
    9.3500    0.1819    2.8071 C   0  0  0  0  0  0  0  0  0  0  0  0
   10.7169    0.1239    2.7942 O   0  0  0  0  0  0  0  0  0  0  0  0
   11.4193    1.0202    3.6546 C   0  0  0  0  0  0  0  0  0  0  0  0
   10.6627    2.0180    4.1615 F   0  0  0  0  0  0  0  0  0  0  0  0
   11.9686    0.3297    4.6785 F   0  0  0  0  0  0  0  0  0  0  0  0
   12.4220    1.5926    2.9510 F   0  0  0  0  0  0  0  0  0  0  0  0
    8.6841   -0.1283    1.6045 C   0  0  0  0  0  0  0  0  0  0  0  0
    9.3651   -0.6037    0.4423 N   0  0  0  0  0  0  0  0  0  0  0  0
    8.8986   -1.6409   -0.4038 C   0  0  0  0  0  0  0  0  0  0  0  0
    7.6620   -2.1255   -0.1894 N   0  0  0  0  0  0  0  0  0  0  0  0
    7.3974   -3.3758   -0.5602 C   0  0  0  0  0  0  0  0  0  0  0  0
    8.3231   -4.1369   -1.2103 C   0  0  0  0  0  0  0  0  0  0  0  0
    9.4255   -3.4639   -1.7005 C   0  0  0  0  0  0  0  0  0  0  0  0
    9.7648   -2.2333   -1.2554 N   0  0  0  0  0  0  0  0  0  0  0  0
   10.3799   -4.2266   -2.5330 C   0  0  0  0  0  0  0  0  0  0  0  0
   10.4090   -4.0828   -3.9343 C   0  0  0  0  0  0  0  0  0  0  0  0
   11.2357   -4.9013   -4.7146 C   0  0  0  0  0  0  0  0  0  0  0  0
   12.1088   -5.7977   -4.1003 C   0  0  0  0  0  0  0  0  0  0  0  0
   13.1253   -6.8028   -5.0590 Cl  0  0  0  0  0  0  0  0  0  0  0  0
   12.0983   -5.9566   -2.7177 C   0  0  0  0  0  0  0  0  0  0  0  0
   11.1491   -5.2636   -1.9660 C   0  0  0  0  0  0  0  0  0  0  0  0
   10.8587   -5.7703   -0.6818 N   0  0  0  0  0  0  0  0  0  0  0  0
    9.5807   -5.9886   -0.2054 C   0  0  0  0  0  0  0  0  0  0  0  0
    9.3834   -6.6720    1.3101 S   0  0  0  0  0  0  0  0  0  0  0  0
    8.3638   -5.6284   -1.0862 C   0  0  0  0  0  0  0  0  0  0  0  0
    7.2926    0.0517    1.5675 C   0  0  0  0  0  0  0  0  0  0  0  0
    2.4318   -1.3084    5.7450 H   0  0  0  0  0  0  0  0  0  0  0  0
    2.2022   -2.4344    4.3892 H   0  0  0  0  0  0  0  0  0  0  0  0
    2.4156   -0.6912    4.1125 H   0  0  0  0  0  0  0  0  0  0  0  0
    4.2940   -2.5146    6.6099 H   0  0  0  0  0  0  0  0  0  0  0  0
    5.7118   -2.8227    5.6203 H   0  0  0  0  0  0  0  0  0  0  0  0
    4.2167   -3.7396    5.3251 H   0  0  0  0  0  0  0  0  0  0  0  0
    4.1590   -2.9679    2.9421 H   0  0  0  0  0  0  0  0  0  0  0  0
    5.7253   -2.2692    3.3196 H   0  0  0  0  0  0  0  0  0  0  0  0
    3.3358   -0.7993    2.0986 H   0  0  0  0  0  0  0  0  0  0  0  0
    4.8006   -1.2884    1.2896 H   0  0  0  0  0  0  0  0  0  0  0  0
    4.6128    0.7960    3.5566 H   0  0  0  0  0  0  0  0  0  0  0  0
    4.7698    1.1491    1.8510 H   0  0  0  0  0  0  0  0  0  0  0  0
    6.6496    0.7645    4.8238 H   0  0  0  0  0  0  0  0  0  0  0  0
    9.0765    0.5963    4.9341 H   0  0  0  0  0  0  0  0  0  0  0  0
   10.3628   -0.7371    0.5781 H   0  0  0  0  0  0  0  0  0  0  0  0
    6.4513   -3.7750   -0.2076 H   0  0  0  0  0  0  0  0  0  0  0  0
    9.7310   -3.3900   -4.4296 H   0  0  0  0  0  0  0  0  0  0  0  0
   11.1836   -4.8490   -5.8010 H   0  0  0  0  0  0  0  0  0  0  0  0
   12.7306   -6.7095   -2.2560 H   0  0  0  0  0  0  0  0  0  0  0  0
   11.6015   -6.2296   -0.1624 H   0  0  0  0  0  0  0  0  0  0  0  0
    7.4352   -6.0080   -0.6476 H   0  0  0  0  0  0  0  0  0  0  0  0
    8.4624   -6.1013   -2.0703 H   0  0  0  0  0  0  0  0  0  0  0  0
    6.7617   -0.0936    0.6306 H   0  0  0  0  0  0  0  0  0  0  0  0
  1  2  1  0  0  0  0
  1 36  1  0  0  0  0
  1 37  1  0  0  0  0
  1 38  1  0  0  0  0
  2  3  1  0  0  0  0
  2  4  1  0  0  0  0
  3 39  1  0  0  0  0
  3 40  1  0  0  0  0
  3 41  1  0  0  0  0
  4  5  1  0  0  0  0
  4 42  1  0  0  0  0
  4 43  1  0  0  0  0
  5  6  1  0  0  0  0
  5 44  1  0  0  0  0
  5 45  1  0  0  0  0
  6  7  1  0  0  0  0
  6 46  1  0  0  0  0
  6 47  1  0  0  0  0
  7  8  1  0  0  0  0
  7 35  2  0  0  0  0
  8  9  2  0  0  0  0
  8 48  1  0  0  0  0
  9 10  1  0  0  0  0
  9 49  1  0  0  0  0
 10 11  1  0  0  0  0
 10 16  2  0  0  0  0
 11 12  1  0  0  0  0
 12 13  1  0  0  0  0
 12 14  1  0  0  0  0
 12 15  1  0  0  0  0
 16 17  1  0  0  0  0
 16 35  1  0  0  0  0
 17 18  1  0  0  0  0
 17 50  1  0  0  0  0
 18 19  1  0  0  0  0
 18 23  2  0  0  0  0
 19 20  2  0  0  0  0
 20 21  1  0  0  0  0
 20 51  1  0  0  0  0
 21 22  2  0  0  0  0
 21 34  1  0  0  0  0
 22 23  1  0  0  0  0
 22 24  1  0  0  0  0
 24 25  1  0  0  0  0
 24 30  2  0  0  0  0
 25 26  2  0  0  0  0
 25 52  1  0  0  0  0
 26 27  1  0  0  0  0
 26 53  1  0  0  0  0
 27 28  1  0  0  0  0
 27 29  2  0  0  0  0
 29 30  1  0  0  0  0
 29 54  1  0  0  0  0
 30 31  1  0  0  0  0
 31 32  1  0  0  0  0
 31 55  1  0  0  0  0
 32 33  2  0  0  0  0
 32 34  1  0  0  0  0
 34 56  1  0  0  0  0
 34 57  1  0  0  0  0
 35 58  1  0  0  0  0
M  END
$$$$
