CHEMBL3932218
 OpenBabel04072215373D

 62 65  0  0  1  0  0  0  0  0999 V2000
    1.7318   -1.4823    0.1972 C   0  0  0  0  0  0  0  0  0  0  0  0
    2.4155   -0.2396    0.0890 O   0  0  0  0  0  0  0  0  0  0  0  0
    3.0589    0.2769    1.1755 C   0  0  0  0  0  0  0  0  0  0  0  0
    4.1939    1.0321    0.8507 C   0  0  0  0  0  0  0  0  0  0  0  0
    4.9445    1.7133    1.8440 C   0  0  0  0  0  0  0  0  0  0  0  0
    6.0787    2.5102    1.6399 C   0  0  0  0  0  0  0  0  0  0  0  0
    6.5482    2.7503    0.3180 N   0  0  0  0  0  0  0  0  0  0  0  0
    7.8572    3.1936    0.0480 C   0  0  0  0  0  0  0  0  0  0  0  0
    8.9489    2.5554    0.6663 C   0  0  0  0  0  0  0  0  0  0  0  0
   10.2418    3.0384    0.5161 C   0  0  0  0  0  0  0  0  0  0  0  0
   10.4759    4.1672   -0.2679 C   0  0  0  0  0  0  0  0  0  0  0  0
   12.0928    4.7640   -0.3499 Cl  0  0  0  0  0  0  0  0  0  0  0  0
    9.4065    4.7862   -0.9334 C   0  0  0  0  0  0  0  0  0  0  0  0
    9.6265    6.1781   -1.9282 Cl  0  0  0  0  0  0  0  0  0  0  0  0
    8.1039    4.2882   -0.7834 C   0  0  0  0  0  0  0  0  0  0  0  0
    6.7570    3.0744    2.6661 N   0  0  0  0  0  0  0  0  0  0  0  0
    6.3012    2.8550    3.8969 C   0  0  0  0  0  0  0  0  0  0  0  0
    5.2206    2.1408    4.2028 N   0  0  0  0  0  0  0  0  0  0  0  0
    4.5716    1.5862    3.1816 C   0  0  0  0  0  0  0  0  0  0  0  0
    3.4569    0.8502    3.4872 C   0  0  0  0  0  0  0  0  0  0  0  0
    2.6513    0.2374    2.5122 C   0  0  0  0  0  0  0  0  0  0  0  0
    1.4599   -0.3502    2.8531 O   0  0  0  0  0  0  0  0  0  0  0  0
    0.9342    0.0948    4.1057 C   0  0  0  0  0  0  0  0  0  0  0  0
   -0.5117   -0.3156    4.2863 C   0  0  3  0  0  0  0  0  0  0  0  0
   -1.3916    0.2039    3.1270 C   0  0  0  0  0  0  0  0  0  0  0  0
   -2.8324   -0.1025    3.3257 N   0  0  0  0  0  0  0  0  0  0  0  0
   -3.0338   -1.5534    3.2013 C   0  0  0  0  0  0  0  0  0  0  0  0
   -4.4580   -1.9923    3.3474 C   0  0  0  0  0  0  0  0  0  0  0  0
   -4.8675   -3.1441    3.9166 C   0  0  0  0  0  0  0  0  0  0  0  0
   -3.9526   -4.2018    4.4793 C   0  0  0  0  0  0  0  0  0  0  0  0
   -6.3288   -3.4849    4.0061 C   0  0  0  0  0  0  0  0  0  0  0  0
   -3.2098    0.4255    4.6580 C   0  0  0  0  0  0  0  0  0  0  0  0
   -2.3123   -0.0610    5.8063 C   0  0  0  0  0  0  0  0  0  0  0  0
   -0.9362    0.2300    5.5487 O   0  0  0  0  0  0  0  0  0  0  0  0
    0.7983   -1.3957   -0.3687 H   0  0  0  0  0  0  0  0  0  0  0  0
    1.4876   -1.8156    1.2043 H   0  0  0  0  0  0  0  0  0  0  0  0
    2.3363   -2.2637   -0.2746 H   0  0  0  0  0  0  0  0  0  0  0  0
    4.5057    1.0831   -0.1922 H   0  0  0  0  0  0  0  0  0  0  0  0
    5.8294    3.2303   -0.2179 H   0  0  0  0  0  0  0  0  0  0  0  0
    8.7739    1.6898    1.3032 H   0  0  0  0  0  0  0  0  0  0  0  0
   11.0568    2.5432    1.0371 H   0  0  0  0  0  0  0  0  0  0  0  0
    7.2798    4.7940   -1.2818 H   0  0  0  0  0  0  0  0  0  0  0  0
    6.8530    3.2877    4.7225 H   0  0  0  0  0  0  0  0  0  0  0  0
    3.2094    0.7959    4.5437 H   0  0  0  0  0  0  0  0  0  0  0  0
    0.9888    1.1884    4.1869 H   0  0  0  0  0  0  0  0  0  0  0  0
    1.5064   -0.3548    4.9280 H   0  0  0  0  0  0  0  0  0  0  0  0
   -0.5373   -1.4098    4.3424 H   0  0  0  0  0  0  0  0  0  0  0  0
   -1.0532   -0.1980    2.1639 H   0  0  0  0  0  0  0  0  0  0  0  0
   -1.2874    1.2947    3.0531 H   0  0  0  0  0  0  0  0  0  0  0  0
   -2.4171   -2.0829    3.9264 H   0  0  0  0  0  0  0  0  0  0  0  0
   -2.6996   -1.8722    2.2066 H   0  0  0  0  0  0  0  0  0  0  0  0
   -5.1977   -1.3027    2.9420 H   0  0  0  0  0  0  0  0  0  0  0  0
   -2.8896   -3.9852    4.3508 H   0  0  0  0  0  0  0  0  0  0  0  0
   -4.1338   -5.1590    3.9803 H   0  0  0  0  0  0  0  0  0  0  0  0
   -4.1328   -4.3247    5.5516 H   0  0  0  0  0  0  0  0  0  0  0  0
   -6.9627   -2.7266    3.5350 H   0  0  0  0  0  0  0  0  0  0  0  0
   -6.6318   -3.5738    5.0545 H   0  0  0  0  0  0  0  0  0  0  0  0
   -6.5245   -4.4388    3.5048 H   0  0  0  0  0  0  0  0  0  0  0  0
   -4.2599    0.2113    4.8846 H   0  0  0  0  0  0  0  0  0  0  0  0
   -3.1348    1.5199    4.6040 H   0  0  0  0  0  0  0  0  0  0  0  0
   -2.4202   -1.1347    5.9890 H   0  0  0  0  0  0  0  0  0  0  0  0
   -2.5837    0.4570    6.7315 H   0  0  0  0  0  0  0  0  0  0  0  0
  1  2  1  0  0  0  0
  1 35  1  0  0  0  0
  1 36  1  0  0  0  0
  1 37  1  0  0  0  0
  2  3  1  0  0  0  0
  3  4  1  0  0  0  0
  3 21  2  0  0  0  0
  4  5  2  0  0  0  0
  4 38  1  0  0  0  0
  5  6  1  0  0  0  0
  5 19  1  0  0  0  0
  6  7  1  0  0  0  0
  6 16  2  0  0  0  0
  7  8  1  0  0  0  0
  7 39  1  0  0  0  0
  8  9  1  0  0  0  0
  8 15  2  0  0  0  0
  9 10  2  0  0  0  0
  9 40  1  0  0  0  0
 10 11  1  0  0  0  0
 10 41  1  0  0  0  0
 11 12  1  0  0  0  0
 11 13  2  0  0  0  0
 13 14  1  0  0  0  0
 13 15  1  0  0  0  0
 15 42  1  0  0  0  0
 16 17  1  0  0  0  0
 17 18  2  0  0  0  0
 17 43  1  0  0  0  0
 18 19  1  0  0  0  0
 19 20  2  0  0  0  0
 20 21  1  0  0  0  0
 20 44  1  0  0  0  0
 21 22  1  0  0  0  0
 22 23  1  0  0  0  0
 23 24  1  0  0  0  0
 23 45  1  0  0  0  0
 23 46  1  0  0  0  0
 24 25  1  0  0  0  0
 24 34  1  0  0  0  0
 24 47  1  0  0  0  0
 25 26  1  0  0  0  0
 25 48  1  0  0  0  0
 25 49  1  0  0  0  0
 26 27  1  0  0  0  0
 26 32  1  0  0  0  0
 27 28  1  0  0  0  0
 27 50  1  0  0  0  0
 27 51  1  0  0  0  0
 28 29  2  0  0  0  0
 28 52  1  0  0  0  0
 29 30  1  0  0  0  0
 29 31  1  0  0  0  0
 30 53  1  0  0  0  0
 30 54  1  0  0  0  0
 30 55  1  0  0  0  0
 31 56  1  0  0  0  0
 31 57  1  0  0  0  0
 31 58  1  0  0  0  0
 32 33  1  0  0  0  0
 32 59  1  0  0  0  0
 32 60  1  0  0  0  0
 33 34  1  0  0  0  0
 33 61  1  0  0  0  0
 33 62  1  0  0  0  0
M  END
$$$$
