CHEMBL3780515
 OpenBabel04072215373D

 50 54  0  0  0  0  0  0  0  0999 V2000
    0.4889   -2.8943   -1.0349 C   0  0  0  0  0  0  0  0  0  0  0  0
   -0.6574   -3.5981   -0.6502 C   0  0  0  0  0  0  0  0  0  0  0  0
   -1.8673   -2.9315   -0.5114 C   0  0  0  0  0  0  0  0  0  0  0  0
   -1.9783   -1.5498   -0.7523 C   0  0  0  0  0  0  0  0  0  0  0  0
   -3.2592   -0.8522   -0.6541 C   0  0  0  0  0  0  0  0  0  0  0  0
   -4.2842   -1.2360    0.2029 C   0  0  0  0  0  0  0  0  0  0  0  0
   -5.4763   -0.6005    0.2683 N   0  0  0  0  0  0  0  0  0  0  0  0
   -5.6628    0.4260   -0.6162 C   0  0  0  0  0  0  0  0  0  0  0  0
   -6.8436    1.1697   -0.6951 C   0  0  0  0  0  0  0  0  0  0  0  0
   -7.8165    1.0004    0.3192 N   0  0  0  0  0  0  0  0  0  0  0  0
   -9.2047    1.1113    0.2276 C   0  0  0  0  0  0  0  0  0  0  0  0
   -9.8576    1.3974   -0.9730 C   0  0  0  0  0  0  0  0  0  0  0  0
  -11.2475    1.5130   -1.0341 C   0  0  0  0  0  0  0  0  0  0  0  0
  -12.0298    1.3987    0.1103 C   0  0  0  0  0  0  0  0  0  0  0  0
  -13.3989    1.5645    0.0930 N   0  0  0  0  0  0  0  0  0  0  0  0
  -14.2248    1.2289   -1.0696 C   0  0  0  0  0  0  0  0  0  0  0  0
  -14.9630    2.4663   -1.5940 C   0  0  0  0  0  0  0  0  0  0  0  0
  -15.6932    3.1331   -0.5489 O   0  0  0  0  0  0  0  0  0  0  0  0
  -14.7929    3.5570    0.4890 C   0  0  0  0  0  0  0  0  0  0  0  0
  -14.0648    2.3652    1.1307 C   0  0  0  0  0  0  0  0  0  0  0  0
  -11.3711    1.1291    1.3187 C   0  0  0  0  0  0  0  0  0  0  0  0
   -9.9843    0.9810    1.3761 C   0  0  0  0  0  0  0  0  0  0  0  0
   -7.0784    2.0793   -1.6740 N   0  0  0  0  0  0  0  0  0  0  0  0
   -6.0897    2.3665   -2.5232 C   0  0  0  0  0  0  0  0  0  0  0  0
   -4.8457    1.7966   -2.4345 C   0  0  0  0  0  0  0  0  0  0  0  0
   -4.6323    0.7958   -1.5045 C   0  0  0  0  0  0  0  0  0  0  0  0
   -3.4361    0.1978   -1.4967 N   0  0  0  0  0  0  0  0  0  0  0  0
   -0.8063   -0.8620   -1.1364 C   0  0  0  0  0  0  0  0  0  0  0  0
    0.4064   -1.5247   -1.2729 C   0  0  0  0  0  0  0  0  0  0  0  0
    1.4294   -3.4149   -1.1553 H   0  0  0  0  0  0  0  0  0  0  0  0
   -0.5983   -4.6692   -0.4765 H   0  0  0  0  0  0  0  0  0  0  0  0
   -2.7494   -3.5141   -0.2405 H   0  0  0  0  0  0  0  0  0  0  0  0
   -4.1783   -2.0840    0.8696 H   0  0  0  0  0  0  0  0  0  0  0  0
   -7.4700    0.4370    1.0884 H   0  0  0  0  0  0  0  0  0  0  0  0
   -9.2962    1.5158   -1.8907 H   0  0  0  0  0  0  0  0  0  0  0  0
  -11.6966    1.7374   -1.9976 H   0  0  0  0  0  0  0  0  0  0  0  0
  -14.9644    0.4886   -0.7389 H   0  0  0  0  0  0  0  0  0  0  0  0
  -13.6535    0.7572   -1.8753 H   0  0  0  0  0  0  0  0  0  0  0  0
  -15.6867    2.1643   -2.3575 H   0  0  0  0  0  0  0  0  0  0  0  0
  -14.2692    3.1790   -2.0537 H   0  0  0  0  0  0  0  0  0  0  0  0
  -15.3848    4.0798    1.2468 H   0  0  0  0  0  0  0  0  0  0  0  0
  -14.0803    4.2769    0.0679 H   0  0  0  0  0  0  0  0  0  0  0  0
  -14.7919    1.7228    1.6412 H   0  0  0  0  0  0  0  0  0  0  0  0
  -13.3676    2.7436    1.8846 H   0  0  0  0  0  0  0  0  0  0  0  0
  -11.9471    1.0064    2.2301 H   0  0  0  0  0  0  0  0  0  0  0  0
   -9.5197    0.7545    2.3335 H   0  0  0  0  0  0  0  0  0  0  0  0
   -6.3268    3.1081   -3.2832 H   0  0  0  0  0  0  0  0  0  0  0  0
   -4.0507    2.1043   -3.1015 H   0  0  0  0  0  0  0  0  0  0  0  0
   -0.8559    0.2092   -1.3405 H   0  0  0  0  0  0  0  0  0  0  0  0
    1.2967   -0.9737   -1.5781 H   0  0  0  0  0  0  0  0  0  0  0  0
  1  2  1  0  0  0  0
  1 29  2  0  0  0  0
  1 30  1  0  0  0  0
  2  3  2  0  0  0  0
  2 31  1  0  0  0  0
  3  4  1  0  0  0  0
  3 32  1  0  0  0  0
  4  5  1  0  0  0  0
  4 28  2  0  0  0  0
  5  6  1  0  0  0  0
  5 27  2  0  0  0  0
  6  7  2  0  0  0  0
  6 33  1  0  0  0  0
  7  8  1  0  0  0  0
  8  9  1  0  0  0  0
  8 26  2  0  0  0  0
  9 10  1  0  0  0  0
  9 23  2  0  0  0  0
 10 11  1  0  0  0  0
 10 34  1  0  0  0  0
 11 12  1  0  0  0  0
 11 22  2  0  0  0  0
 12 13  2  0  0  0  0
 12 35  1  0  0  0  0
 13 14  1  0  0  0  0
 13 36  1  0  0  0  0
 14 15  1  0  0  0  0
 14 21  2  0  0  0  0
 15 16  1  0  0  0  0
 15 20  1  0  0  0  0
 16 17  1  0  0  0  0
 16 37  1  0  0  0  0
 16 38  1  0  0  0  0
 17 18  1  0  0  0  0
 17 39  1  0  0  0  0
 17 40  1  0  0  0  0
 18 19  1  0  0  0  0
 19 20  1  0  0  0  0
 19 41  1  0  0  0  0
 19 42  1  0  0  0  0
 20 43  1  0  0  0  0
 20 44  1  0  0  0  0
 21 22  1  0  0  0  0
 21 45  1  0  0  0  0
 22 46  1  0  0  0  0
 23 24  1  0  0  0  0
 24 25  2  0  0  0  0
 24 47  1  0  0  0  0
 25 26  1  0  0  0  0
 25 48  1  0  0  0  0
 26 27  1  0  0  0  0
 28 29  1  0  0  0  0
 28 49  1  0  0  0  0
 29 50  1  0  0  0  0
M  END
$$$$
