CHEMBL179522
 OpenBabel04072215363D

 52 55  0  0  0  0  0  0  0  0999 V2000
    5.7710    1.7499   -0.1145 C   0  0  0  0  0  0  0  0  0  0  0  0
    4.5682    1.1021   -0.5343 O   0  0  0  0  0  0  0  0  0  0  0  0
    4.7207   -0.1424   -1.0874 C   0  0  0  0  0  0  0  0  0  0  0  0
    5.8130   -0.9685   -0.7750 C   0  0  0  0  0  0  0  0  0  0  0  0
    6.0309   -2.1972   -1.3877 C   0  0  0  0  0  0  0  0  0  0  0  0
    7.1619   -2.8501   -1.0788 N   0  0  0  0  0  0  0  0  0  0  0  0
    7.4242   -4.0083   -1.7127 C   0  0  0  0  0  0  0  0  0  0  0  0
    6.5997   -4.5575   -2.6724 C   0  0  0  0  0  0  0  0  0  0  0  0
    5.4242   -3.8924   -2.9937 C   0  0  0  0  0  0  0  0  0  0  0  0
    4.6875   -4.5358   -3.9758 O   0  0  0  0  0  0  0  0  0  0  0  0
    3.9569   -3.8303   -4.9028 C   0  0  0  0  0  0  0  0  0  0  0  0
    4.3219   -2.5869   -5.4062 C   0  0  0  0  0  0  0  0  0  0  0  0
    3.3894   -1.8339   -6.1247 C   0  0  0  0  0  0  0  0  0  0  0  0
    2.1235   -2.3438   -6.4350 C   0  0  0  0  0  0  0  0  0  0  0  0
    1.0967   -1.5735   -7.0464 N   0  0  0  0  0  0  0  0  0  0  0  0
    1.1992   -0.2492   -7.4110 C   0  0  0  0  0  0  0  0  0  0  0  0
    2.2283    0.4158   -7.3811 O   0  0  0  0  0  0  0  0  0  0  0  0
   -0.0214    0.2948   -7.7893 N   0  0  0  0  0  0  0  0  0  0  0  0
   -0.0803    1.6553   -8.1979 C   0  0  0  0  0  0  0  0  0  0  0  0
    0.8666    2.1995   -9.0726 C   0  0  0  0  0  0  0  0  0  0  0  0
    0.8410    3.5605   -9.3578 C   0  0  0  0  0  0  0  0  0  0  0  0
    1.7606    4.0792  -10.1820 F   0  0  0  0  0  0  0  0  0  0  0  0
   -0.1154    4.3956   -8.7889 C   0  0  0  0  0  0  0  0  0  0  0  0
   -1.0834    3.8545   -7.9420 C   0  0  0  0  0  0  0  0  0  0  0  0
   -1.0724    2.4865   -7.6698 C   0  0  0  0  0  0  0  0  0  0  0  0
   -1.9865    1.9796   -6.8287 F   0  0  0  0  0  0  0  0  0  0  0  0
    1.8365   -3.6659   -6.0744 C   0  0  0  0  0  0  0  0  0  0  0  0
    2.7499   -4.4037   -5.3087 C   0  0  0  0  0  0  0  0  0  0  0  0
    5.0852   -2.6879   -2.3061 C   0  0  0  0  0  0  0  0  0  0  0  0
    3.9015   -1.9261   -2.4719 C   0  0  0  0  0  0  0  0  0  0  0  0
    3.7440   -0.6353   -1.9495 C   0  0  0  0  0  0  0  0  0  0  0  0
    2.6064   -0.0434   -2.4181 O   0  0  0  0  0  0  0  0  0  0  0  0
    2.4233    1.3584   -2.3134 C   0  0  0  0  0  0  0  0  0  0  0  0
    5.5670    2.8202   -0.0283 H   0  0  0  0  0  0  0  0  0  0  0  0
    6.5804    1.6286   -0.8457 H   0  0  0  0  0  0  0  0  0  0  0  0
    6.0747    1.3828    0.8700 H   0  0  0  0  0  0  0  0  0  0  0  0
    6.5539   -0.6552   -0.0445 H   0  0  0  0  0  0  0  0  0  0  0  0
    8.3513   -4.4965   -1.4214 H   0  0  0  0  0  0  0  0  0  0  0  0
    6.8756   -5.4840   -3.1660 H   0  0  0  0  0  0  0  0  0  0  0  0
    5.2756   -2.1308   -5.1558 H   0  0  0  0  0  0  0  0  0  0  0  0
    3.6824   -0.8214   -6.3779 H   0  0  0  0  0  0  0  0  0  0  0  0
    0.2268   -2.0360   -7.2356 H   0  0  0  0  0  0  0  0  0  0  0  0
   -0.8136   -0.0225   -7.2439 H   0  0  0  0  0  0  0  0  0  0  0  0
    1.6431    1.5853   -9.5192 H   0  0  0  0  0  0  0  0  0  0  0  0
   -0.0923    5.4591   -9.0053 H   0  0  0  0  0  0  0  0  0  0  0  0
   -1.8279    4.4921   -7.4761 H   0  0  0  0  0  0  0  0  0  0  0  0
    0.8871   -4.1252   -6.3351 H   0  0  0  0  0  0  0  0  0  0  0  0
    2.4950   -5.4082   -4.9816 H   0  0  0  0  0  0  0  0  0  0  0  0
    3.0866   -2.3072   -3.0800 H   0  0  0  0  0  0  0  0  0  0  0  0
    1.8493    1.6796   -3.1908 H   0  0  0  0  0  0  0  0  0  0  0  0
    3.3461    1.9418   -2.3233 H   0  0  0  0  0  0  0  0  0  0  0  0
    1.8208    1.5732   -1.4271 H   0  0  0  0  0  0  0  0  0  0  0  0
  1  2  1  0  0  0  0
  1 34  1  0  0  0  0
  1 35  1  0  0  0  0
  1 36  1  0  0  0  0
  2  3  1  0  0  0  0
  3  4  1  0  0  0  0
  3 31  2  0  0  0  0
  4  5  2  0  0  0  0
  4 37  1  0  0  0  0
  5  6  1  0  0  0  0
  5 29  1  0  0  0  0
  6  7  2  0  0  0  0
  7  8  1  0  0  0  0
  7 38  1  0  0  0  0
  8  9  2  0  0  0  0
  8 39  1  0  0  0  0
  9 10  1  0  0  0  0
  9 29  1  0  0  0  0
 10 11  1  0  0  0  0
 11 12  1  0  0  0  0
 11 28  2  0  0  0  0
 12 13  2  0  0  0  0
 12 40  1  0  0  0  0
 13 14  1  0  0  0  0
 13 41  1  0  0  0  0
 14 15  1  0  0  0  0
 14 27  2  0  0  0  0
 15 16  1  0  0  0  0
 15 42  1  0  0  0  0
 16 17  2  0  0  0  0
 16 18  1  0  0  0  0
 18 19  1  0  0  0  0
 18 43  1  0  0  0  0
 19 20  1  0  0  0  0
 19 25  2  0  0  0  0
 20 21  2  0  0  0  0
 20 44  1  0  0  0  0
 21 22  1  0  0  0  0
 21 23  1  0  0  0  0
 23 24  2  0  0  0  0
 23 45  1  0  0  0  0
 24 25  1  0  0  0  0
 24 46  1  0  0  0  0
 25 26  1  0  0  0  0
 27 28  1  0  0  0  0
 27 47  1  0  0  0  0
 28 48  1  0  0  0  0
 29 30  2  0  0  0  0
 30 31  1  0  0  0  0
 30 49  1  0  0  0  0
 31 32  1  0  0  0  0
 32 33  1  0  0  0  0
 33 50  1  0  0  0  0
 33 51  1  0  0  0  0
 33 52  1  0  0  0  0
M  END
$$$$
