CHEMBL3690437
 OpenBabel04072215373D

 67 70  0  0  1  0  0  0  0  0999 V2000
   -0.1351    9.2138    1.4436 C   0  0  0  0  0  0  0  0  0  0  0  0
    1.6057    9.5301    1.6919 S   0  0  0  0  0  0  0  0  0  0  0  0
    1.8422   10.9329    1.4250 O   0  0  0  0  0  0  0  0  0  0  0  0
    1.9872    8.9338    2.9543 O   0  0  0  0  0  0  0  0  0  0  0  0
    2.3343    8.6237    0.4410 N   0  0  0  0  0  0  0  0  0  0  0  0
    2.1980    7.1495    0.5699 C   0  0  0  0  0  0  0  0  0  0  0  0
    3.0896    6.4351   -0.4392 C   0  0  0  0  0  0  0  0  0  0  0  0
    2.7949    6.8908   -1.8659 C   0  0  0  0  0  0  0  0  0  0  0  0
    1.4063    6.5677   -2.2268 N   0  0  0  0  0  0  0  0  0  0  0  0
    1.2039    5.4126   -2.7581 C   0  0  0  0  0  0  0  0  0  0  0  0
   -0.1894    4.9781   -3.1666 C   0  0  3  0  0  0  0  0  0  0  0  0
   -1.2809    5.6147   -2.3278 C   0  0  0  0  0  0  0  0  0  0  0  0
   -2.4136    5.0414   -2.0716 N   0  0  0  0  0  0  0  0  0  0  0  0
   -0.4176    5.2365   -4.6432 C   0  0  0  0  0  0  0  0  0  0  0  0
   -0.2874    6.5999   -5.1596 C   0  0  0  0  0  0  0  0  0  0  0  0
   -0.4891    6.8397   -6.4645 C   0  0  0  0  0  0  0  0  0  0  0  0
   -0.8252    5.7965   -7.3301 N   0  0  0  0  0  0  0  0  0  0  0  0
   -1.0728    5.7798   -8.6993 C   0  0  0  0  0  0  0  0  0  0  0  0
   -1.0620    6.9150   -9.6325 C   0  0  0  0  0  0  0  0  0  0  0  0
   -0.6986    6.6783  -10.9669 C   0  0  0  0  0  0  0  0  0  0  0  0
   -0.6748    7.7096  -11.8899 C   0  0  0  0  0  0  0  0  0  0  0  0
   -1.0436    8.9953  -11.5041 C   0  0  0  0  0  0  0  0  0  0  0  0
   -1.4718    9.2681  -10.2045 C   0  0  0  0  0  0  0  0  0  0  0  0
   -1.9542   10.5428   -9.8088 N   0  0  0  0  0  0  0  0  0  0  0  0
   -2.0988   11.6336  -10.6351 C   0  0  0  0  0  0  0  0  0  0  0  0
   -1.8238   11.6826  -11.8334 O   0  0  0  0  0  0  0  0  0  0  0  0
   -2.5476   12.7665  -10.0048 N   0  0  0  0  0  0  0  0  0  0  0  0
   -2.7302   13.9750  -10.8289 C   0  0  0  0  0  0  0  0  0  0  0  0
   -4.0694   14.1126  -11.5697 C   0  0  0  0  0  0  0  0  0  0  0  0
   -4.9247   13.1055  -11.2841 F   0  0  0  0  0  0  0  0  0  0  0  0
   -4.6822   15.2655  -11.1959 F   0  0  0  0  0  0  0  0  0  0  0  0
   -3.9114   14.1640  -12.9094 F   0  0  0  0  0  0  0  0  0  0  0  0
   -1.4538    8.2230   -9.2713 C   0  0  0  0  0  0  0  0  0  0  0  0
   -1.2747    4.4331   -8.9785 C   0  0  0  0  0  0  0  0  0  0  0  0
   -1.2001    3.6482   -7.8610 N   0  0  0  0  0  0  0  0  0  0  0  0
   -0.9318    4.4793   -6.8823 C   0  0  0  0  0  0  0  0  0  0  0  0
   -0.7241    4.2313   -5.4961 C   0  0  0  0  0  0  0  0  0  0  0  0
    2.9640    8.4063   -1.9547 C   0  0  0  0  0  0  0  0  0  0  0  0
    2.0917    9.1339   -0.9347 C   0  0  0  0  0  0  0  0  0  0  0  0
   -0.6825    9.7212    2.2408 H   0  0  0  0  0  0  0  0  0  0  0  0
   -0.3267    8.1421    1.5046 H   0  0  0  0  0  0  0  0  0  0  0  0
   -0.4436    9.6165    0.4780 H   0  0  0  0  0  0  0  0  0  0  0  0
    1.1548    6.8526    0.4219 H   0  0  0  0  0  0  0  0  0  0  0  0
    2.5004    6.8333    1.5739 H   0  0  0  0  0  0  0  0  0  0  0  0
    2.9529    5.3520   -0.3427 H   0  0  0  0  0  0  0  0  0  0  0  0
    4.1410    6.6485   -0.2070 H   0  0  0  0  0  0  0  0  0  0  0  0
    3.4960    6.4147   -2.5639 H   0  0  0  0  0  0  0  0  0  0  0  0
    2.0222    4.6966   -2.9569 H   0  0  0  0  0  0  0  0  0  0  0  0
   -0.2383    3.8982   -2.9758 H   0  0  0  0  0  0  0  0  0  0  0  0
   -1.1093    6.6274   -1.9305 H   0  0  0  0  0  0  0  0  0  0  0  0
   -2.4732    4.1145   -2.5035 H   0  0  0  0  0  0  0  0  0  0  0  0
   -0.0105    7.4129   -4.4947 H   0  0  0  0  0  0  0  0  0  0  0  0
   -0.3766    7.8327   -6.8700 H   0  0  0  0  0  0  0  0  0  0  0  0
   -0.4224    5.6817  -11.3109 H   0  0  0  0  0  0  0  0  0  0  0  0
   -0.3847    7.5252  -12.9218 H   0  0  0  0  0  0  0  0  0  0  0  0
   -0.9998    9.7539  -12.2737 H   0  0  0  0  0  0  0  0  0  0  0  0
   -2.2785   10.6408   -8.8532 H   0  0  0  0  0  0  0  0  0  0  0  0
   -3.0870   12.6799   -9.1554 H   0  0  0  0  0  0  0  0  0  0  0  0
   -1.9261   14.0087  -11.5745 H   0  0  0  0  0  0  0  0  0  0  0  0
   -2.5776   14.8311  -10.1676 H   0  0  0  0  0  0  0  0  0  0  0  0
   -1.7892    8.4264   -8.2600 H   0  0  0  0  0  0  0  0  0  0  0  0
   -1.4737    3.9859   -9.9462 H   0  0  0  0  0  0  0  0  0  0  0  0
   -0.8226    3.2012   -5.1666 H   0  0  0  0  0  0  0  0  0  0  0  0
    2.7094    8.7575   -2.9619 H   0  0  0  0  0  0  0  0  0  0  0  0
    4.0172    8.6601   -1.7810 H   0  0  0  0  0  0  0  0  0  0  0  0
    1.0347    9.0185   -1.1954 H   0  0  0  0  0  0  0  0  0  0  0  0
    2.3377   10.2002   -0.9817 H   0  0  0  0  0  0  0  0  0  0  0  0
  1  2  1  0  0  0  0
  1 40  1  0  0  0  0
  1 41  1  0  0  0  0
  1 42  1  0  0  0  0
  2  3  2  0  0  0  0
  2  4  2  0  0  0  0
  2  5  1  0  0  0  0
  5  6  1  0  0  0  0
  5 39  1  0  0  0  0
  6  7  1  0  0  0  0
  6 43  1  0  0  0  0
  6 44  1  0  0  0  0
  7  8  1  0  0  0  0
  7 45  1  0  0  0  0
  7 46  1  0  0  0  0
  8  9  1  0  0  0  0
  8 38  1  0  0  0  0
  8 47  1  0  0  0  0
  9 10  2  0  0  0  0
 10 11  1  0  0  0  0
 10 48  1  0  0  0  0
 11 12  1  0  0  0  0
 11 14  1  0  0  0  0
 11 49  1  0  0  0  0
 12 13  2  0  0  0  0
 12 50  1  0  0  0  0
 13 51  1  0  0  0  0
 14 15  1  0  0  0  0
 14 37  2  0  0  0  0
 15 16  2  0  0  0  0
 15 52  1  0  0  0  0
 16 17  1  0  0  0  0
 16 53  1  0  0  0  0
 17 18  1  0  0  0  0
 17 36  1  0  0  0  0
 18 19  1  0  0  0  0
 18 34  2  0  0  0  0
 19 20  1  0  0  0  0
 19 33  2  0  0  0  0
 20 21  2  0  0  0  0
 20 54  1  0  0  0  0
 21 22  1  0  0  0  0
 21 55  1  0  0  0  0
 22 23  2  0  0  0  0
 22 56  1  0  0  0  0
 23 24  1  0  0  0  0
 23 33  1  0  0  0  0
 24 25  1  0  0  0  0
 24 57  1  0  0  0  0
 25 26  2  0  0  0  0
 25 27  1  0  0  0  0
 27 28  1  0  0  0  0
 27 58  1  0  0  0  0
 28 29  1  0  0  0  0
 28 59  1  0  0  0  0
 28 60  1  0  0  0  0
 29 30  1  0  0  0  0
 29 31  1  0  0  0  0
 29 32  1  0  0  0  0
 33 61  1  0  0  0  0
 34 35  1  0  0  0  0
 34 62  1  0  0  0  0
 35 36  2  0  0  0  0
 36 37  1  0  0  0  0
 37 63  1  0  0  0  0
 38 39  1  0  0  0  0
 38 64  1  0  0  0  0
 38 65  1  0  0  0  0
 39 66  1  0  0  0  0
 39 67  1  0  0  0  0
M  END
$$$$
