CHEMBL3633276
 OpenBabel04072215373D

 61 63  0  0  0  0  0  0  0  0999 V2000
    1.0598    0.8919   -0.0852 C   0  0  0  0  0  0  0  0  0  0  0  0
    2.2296    0.0696   -0.0529 O   0  0  0  0  0  0  0  0  0  0  0  0
    2.9921    0.0731   -1.1963 C   0  0  0  0  0  0  0  0  0  0  0  0
    2.7454    0.9267   -2.2916 C   0  0  0  0  0  0  0  0  0  0  0  0
    3.5458    0.8846   -3.4351 C   0  0  0  0  0  0  0  0  0  0  0  0
    4.6088   -0.0049   -3.5021 C   0  0  0  0  0  0  0  0  0  0  0  0
    5.3646   -0.1379   -4.7724 C   0  0  0  0  0  0  0  0  0  0  0  0
    5.0294    0.3811   -5.8231 O   0  0  0  0  0  0  0  0  0  0  0  0
    6.3548   -1.0441   -4.6053 O   0  0  0  0  0  0  0  0  0  0  0  0
    6.4500   -2.0367   -5.6375 C   0  0  0  0  0  0  0  0  0  0  0  0
    5.4902   -3.1871   -5.2676 C   0  0  0  0  0  0  0  0  0  0  0  0
    5.4539   -4.3130   -6.2106 N   0  0  0  0  0  0  0  0  0  0  0  0
    6.7517   -4.9890   -6.2934 C   0  0  0  0  0  0  0  0  0  0  0  0
    4.4250   -5.2736   -5.7975 C   0  0  0  0  0  0  0  0  0  0  0  0
    4.8532   -0.8536   -2.4165 C   0  0  0  0  0  0  0  0  0  0  0  0
    4.0805   -0.8214   -1.2568 C   0  0  0  0  0  0  0  0  0  0  0  0
    4.3478   -1.7309   -0.1856 N   0  0  0  0  0  0  0  0  0  0  0  0
    5.5535   -2.3973   -0.0142 C   0  0  0  0  0  0  0  0  0  0  0  0
    6.5812   -2.1505   -0.6403 O   0  0  0  0  0  0  0  0  0  0  0  0
    5.4859   -3.4270    0.9145 N   0  0  0  0  0  0  0  0  0  0  0  0
    6.6437   -4.2030    1.2203 C   0  0  0  0  0  0  0  0  0  0  0  0
    7.8491   -3.5029    1.4789 C   0  0  0  0  0  0  0  0  0  0  0  0
    9.0926   -4.1355    1.6772 C   0  0  0  0  0  0  0  0  0  0  0  0
   10.3286   -3.3598    1.9142 C   0  0  0  0  0  0  0  0  0  0  0  0
   11.3952   -3.8251    2.6718 C   0  0  0  0  0  0  0  0  0  0  0  0
   12.5308   -3.1356    2.9298 N   0  0  0  0  0  0  0  0  0  0  0  0
   12.5948   -1.9081    2.3993 C   0  0  0  0  0  0  0  0  0  0  0  0
   11.6515   -1.3345    1.6431 N   0  0  0  0  0  0  0  0  0  0  0  0
   10.5457   -2.0821    1.4152 C   0  0  0  0  0  0  0  0  0  0  0  0
    9.0941   -5.5323    1.6240 C   0  0  0  0  0  0  0  0  0  0  0  0
    7.9074   -6.2464    1.4156 C   0  0  0  0  0  0  0  0  0  0  0  0
    6.6698   -5.6016    1.2359 C   0  0  0  0  0  0  0  0  0  0  0  0
    5.6895   -6.4913    0.9218 O   0  0  0  0  0  0  0  0  0  0  0  0
    4.3445   -6.2921    1.2919 C   0  0  0  0  0  0  0  0  0  0  0  0
    4.1379   -5.1925    2.0445 F   0  0  0  0  0  0  0  0  0  0  0  0
    3.5966   -6.1828    0.1729 F   0  0  0  0  0  0  0  0  0  0  0  0
    3.9147   -7.3657    1.9877 F   0  0  0  0  0  0  0  0  0  0  0  0
    0.5414    0.7953    0.8728 H   0  0  0  0  0  0  0  0  0  0  0  0
    0.3722    0.5595   -0.8720 H   0  0  0  0  0  0  0  0  0  0  0  0
    1.3139    1.9511   -0.2114 H   0  0  0  0  0  0  0  0  0  0  0  0
    1.9211    1.6344   -2.2999 H   0  0  0  0  0  0  0  0  0  0  0  0
    3.3112    1.5275   -4.2838 H   0  0  0  0  0  0  0  0  0  0  0  0
    7.4895   -2.3761   -5.6396 H   0  0  0  0  0  0  0  0  0  0  0  0
    6.2228   -1.6194   -6.6246 H   0  0  0  0  0  0  0  0  0  0  0  0
    4.4805   -2.7599   -5.1948 H   0  0  0  0  0  0  0  0  0  0  0  0
    5.7276   -3.5365   -4.2521 H   0  0  0  0  0  0  0  0  0  0  0  0
    7.5149   -4.3222   -6.7070 H   0  0  0  0  0  0  0  0  0  0  0  0
    6.6966   -5.8440   -6.9765 H   0  0  0  0  0  0  0  0  0  0  0  0
    7.0938   -5.3492   -5.3168 H   0  0  0  0  0  0  0  0  0  0  0  0
    3.4395   -4.7956   -5.7631 H   0  0  0  0  0  0  0  0  0  0  0  0
    4.6321   -5.7046   -4.8106 H   0  0  0  0  0  0  0  0  0  0  0  0
    4.3497   -6.0920   -6.5222 H   0  0  0  0  0  0  0  0  0  0  0  0
    5.6502   -1.5849   -2.5164 H   0  0  0  0  0  0  0  0  0  0  0  0
    3.7115   -1.6797    0.6013 H   0  0  0  0  0  0  0  0  0  0  0  0
    4.5787   -3.8595    1.0005 H   0  0  0  0  0  0  0  0  0  0  0  0
    7.8038   -2.4144    1.5179 H   0  0  0  0  0  0  0  0  0  0  0  0
   11.3755   -4.8084    3.1343 H   0  0  0  0  0  0  0  0  0  0  0  0
   13.4883   -1.3275    2.6002 H   0  0  0  0  0  0  0  0  0  0  0  0
    9.8137   -1.5890    0.7790 H   0  0  0  0  0  0  0  0  0  0  0  0
   10.0198   -6.0976    1.7169 H   0  0  0  0  0  0  0  0  0  0  0  0
    7.9626   -7.3326    1.3571 H   0  0  0  0  0  0  0  0  0  0  0  0
  1  2  1  0  0  0  0
  1 38  1  0  0  0  0
  1 39  1  0  0  0  0
  1 40  1  0  0  0  0
  2  3  1  0  0  0  0
  3  4  1  0  0  0  0
  3 16  2  0  0  0  0
  4  5  2  0  0  0  0
  4 41  1  0  0  0  0
  5  6  1  0  0  0  0
  5 42  1  0  0  0  0
  6  7  1  0  0  0  0
  6 15  2  0  0  0  0
  7  8  2  0  0  0  0
  7  9  1  0  0  0  0
  9 10  1  0  0  0  0
 10 11  1  0  0  0  0
 10 43  1  0  0  0  0
 10 44  1  0  0  0  0
 11 12  1  0  0  0  0
 11 45  1  0  0  0  0
 11 46  1  0  0  0  0
 12 13  1  0  0  0  0
 12 14  1  0  0  0  0
 13 47  1  0  0  0  0
 13 48  1  0  0  0  0
 13 49  1  0  0  0  0
 14 50  1  0  0  0  0
 14 51  1  0  0  0  0
 14 52  1  0  0  0  0
 15 16  1  0  0  0  0
 15 53  1  0  0  0  0
 16 17  1  0  0  0  0
 17 18  1  0  0  0  0
 17 54  1  0  0  0  0
 18 19  2  0  0  0  0
 18 20  1  0  0  0  0
 20 21  1  0  0  0  0
 20 55  1  0  0  0  0
 21 22  1  0  0  0  0
 21 32  2  0  0  0  0
 22 23  2  0  0  0  0
 22 56  1  0  0  0  0
 23 24  1  0  0  0  0
 23 30  1  0  0  0  0
 24 25  1  0  0  0  0
 24 29  2  0  0  0  0
 25 26  2  0  0  0  0
 25 57  1  0  0  0  0
 26 27  1  0  0  0  0
 27 28  2  0  0  0  0
 27 58  1  0  0  0  0
 28 29  1  0  0  0  0
 29 59  1  0  0  0  0
 30 31  2  0  0  0  0
 30 60  1  0  0  0  0
 31 32  1  0  0  0  0
 31 61  1  0  0  0  0
 32 33  1  0  0  0  0
 33 34  1  0  0  0  0
 34 35  1  0  0  0  0
 34 36  1  0  0  0  0
 34 37  1  0  0  0  0
M  END
$$$$
