CHEMBL270550
 OpenBabel04072215363D

 57 61  0  0  0  0  0  0  0  0999 V2000
   10.6662    1.0276    1.3289 C   0  0  0  0  0  0  0  0  0  0  0  0
    9.9017    2.1319    1.8255 O   0  0  0  0  0  0  0  0  0  0  0  0
    9.0332    1.8316    2.8439 C   0  0  0  0  0  0  0  0  0  0  0  0
    9.3316    0.8192    3.7705 C   0  0  0  0  0  0  0  0  0  0  0  0
    8.4335    0.3987    4.7383 C   0  0  0  0  0  0  0  0  0  0  0  0
    8.7960   -0.6296    5.5210 N   0  0  0  0  0  0  0  0  0  0  0  0
    7.9194   -1.0652    6.4478 C   0  0  0  0  0  0  0  0  0  0  0  0
    6.6694   -0.5233    6.6279 C   0  0  0  0  0  0  0  0  0  0  0  0
    6.2718    0.5042    5.7783 C   0  0  0  0  0  0  0  0  0  0  0  0
    4.9988    1.0402    5.8491 O   0  0  0  0  0  0  0  0  0  0  0  0
    3.9241    0.1873    6.0463 C   0  0  0  0  0  0  0  0  0  0  0  0
    2.8578    0.6950    6.7842 C   0  0  0  0  0  0  0  0  0  0  0  0
    1.7163   -0.0886    7.0191 C   0  0  0  0  0  0  0  0  0  0  0  0
    1.6059   -1.3909    6.5100 C   0  0  0  0  0  0  0  0  0  0  0  0
    2.6995   -1.8895    5.7741 C   0  0  0  0  0  0  0  0  0  0  0  0
    3.8348   -1.1034    5.5277 C   0  0  0  0  0  0  0  0  0  0  0  0
    2.7570   -3.1588    5.2460 O   0  0  0  0  0  0  0  0  0  0  0  0
    1.4646   -3.7457    5.0943 C   0  0  0  0  0  0  0  0  0  0  0  0
    0.6547   -3.6362    6.3764 C   0  0  0  0  0  0  0  0  0  0  0  0
    0.4468   -2.2243    6.7271 N   0  0  0  0  0  0  0  0  0  0  0  0
   -0.8030   -1.6969    7.0776 C   0  0  0  0  0  0  0  0  0  0  0  0
   -1.0611   -0.4945    7.0811 O   0  0  0  0  0  0  0  0  0  0  0  0
   -1.7580   -2.6422    7.4244 N   0  0  0  0  0  0  0  0  0  0  0  0
   -3.1143   -2.2952    7.6787 C   0  0  0  0  0  0  0  0  0  0  0  0
   -3.7863   -1.3591    6.8815 C   0  0  0  0  0  0  0  0  0  0  0  0
   -5.1136   -1.0142    7.1529 C   0  0  0  0  0  0  0  0  0  0  0  0
   -5.7830   -1.6004    8.2249 C   0  0  0  0  0  0  0  0  0  0  0  0
   -5.1303   -2.5440    9.0187 C   0  0  0  0  0  0  0  0  0  0  0  0
   -3.8077   -2.9013    8.7373 C   0  0  0  0  0  0  0  0  0  0  0  0
   -3.0271   -4.0499    9.7683 Cl  0  0  0  0  0  0  0  0  0  0  0  0
    7.1869    1.0373    4.8338 C   0  0  0  0  0  0  0  0  0  0  0  0
    6.9322    2.1428    3.9902 C   0  0  0  0  0  0  0  0  0  0  0  0
    7.8395    2.5454    2.9937 C   0  0  0  0  0  0  0  0  0  0  0  0
    7.3784    3.6188    2.2836 O   0  0  0  0  0  0  0  0  0  0  0  0
    8.0337    4.0091    1.0879 C   0  0  0  0  0  0  0  0  0  0  0  0
   10.7990    1.1602    0.2517 H   0  0  0  0  0  0  0  0  0  0  0  0
   10.1763    0.0552    1.4687 H   0  0  0  0  0  0  0  0  0  0  0  0
   11.6538    1.0236    1.8010 H   0  0  0  0  0  0  0  0  0  0  0  0
   10.2914    0.3090    3.7416 H   0  0  0  0  0  0  0  0  0  0  0  0
    8.2640   -1.9072    7.0452 H   0  0  0  0  0  0  0  0  0  0  0  0
    6.0109   -0.9305    7.3900 H   0  0  0  0  0  0  0  0  0  0  0  0
    2.9040    1.7035    7.1884 H   0  0  0  0  0  0  0  0  0  0  0  0
    0.9344    0.3506    7.6324 H   0  0  0  0  0  0  0  0  0  0  0  0
    4.6331   -1.5171    4.9182 H   0  0  0  0  0  0  0  0  0  0  0  0
    1.6137   -4.7997    4.8371 H   0  0  0  0  0  0  0  0  0  0  0  0
    0.9520   -3.2682    4.2500 H   0  0  0  0  0  0  0  0  0  0  0  0
    1.1893   -4.0983    7.2156 H   0  0  0  0  0  0  0  0  0  0  0  0
   -0.2947   -4.1618    6.2419 H   0  0  0  0  0  0  0  0  0  0  0  0
   -1.4090   -3.4144    7.9782 H   0  0  0  0  0  0  0  0  0  0  0  0
   -3.2868   -0.8864    6.0385 H   0  0  0  0  0  0  0  0  0  0  0  0
   -5.6180   -0.2779    6.5308 H   0  0  0  0  0  0  0  0  0  0  0  0
   -6.8097   -1.3168    8.4449 H   0  0  0  0  0  0  0  0  0  0  0  0
   -5.6530   -2.9848    9.8635 H   0  0  0  0  0  0  0  0  0  0  0  0
    6.0035    2.7000    4.1007 H   0  0  0  0  0  0  0  0  0  0  0  0
    7.3424    4.6623    0.5437 H   0  0  0  0  0  0  0  0  0  0  0  0
    8.2438    3.1624    0.4291 H   0  0  0  0  0  0  0  0  0  0  0  0
    8.9334    4.5925    1.3064 H   0  0  0  0  0  0  0  0  0  0  0  0
  1  2  1  0  0  0  0
  1 36  1  0  0  0  0
  1 37  1  0  0  0  0
  1 38  1  0  0  0  0
  2  3  1  0  0  0  0
  3  4  1  0  0  0  0
  3 33  2  0  0  0  0
  4  5  2  0  0  0  0
  4 39  1  0  0  0  0
  5  6  1  0  0  0  0
  5 31  1  0  0  0  0
  6  7  2  0  0  0  0
  7  8  1  0  0  0  0
  7 40  1  0  0  0  0
  8  9  2  0  0  0  0
  8 41  1  0  0  0  0
  9 10  1  0  0  0  0
  9 31  1  0  0  0  0
 10 11  1  0  0  0  0
 11 12  1  0  0  0  0
 11 16  2  0  0  0  0
 12 13  2  0  0  0  0
 12 42  1  0  0  0  0
 13 14  1  0  0  0  0
 13 43  1  0  0  0  0
 14 15  2  0  0  0  0
 14 20  1  0  0  0  0
 15 16  1  0  0  0  0
 15 17  1  0  0  0  0
 16 44  1  0  0  0  0
 17 18  1  0  0  0  0
 18 19  1  0  0  0  0
 18 45  1  0  0  0  0
 18 46  1  0  0  0  0
 19 20  1  0  0  0  0
 19 47  1  0  0  0  0
 19 48  1  0  0  0  0
 20 21  1  0  0  0  0
 21 22  2  0  0  0  0
 21 23  1  0  0  0  0
 23 24  1  0  0  0  0
 23 49  1  0  0  0  0
 24 25  1  0  0  0  0
 24 29  2  0  0  0  0
 25 26  2  0  0  0  0
 25 50  1  0  0  0  0
 26 27  1  0  0  0  0
 26 51  1  0  0  0  0
 27 28  2  0  0  0  0
 27 52  1  0  0  0  0
 28 29  1  0  0  0  0
 28 53  1  0  0  0  0
 29 30  1  0  0  0  0
 31 32  2  0  0  0  0
 32 33  1  0  0  0  0
 32 54  1  0  0  0  0
 33 34  1  0  0  0  0
 34 35  1  0  0  0  0
 35 55  1  0  0  0  0
 35 56  1  0  0  0  0
 35 57  1  0  0  0  0
M  END
$$$$
