CHEMBL213505
 OpenBabel04072215363D

 43 46  0  0  0  0  0  0  0  0999 V2000
    1.1895    0.0705   -1.7171 N   0  0  0  0  0  0  0  0  0  0  0  0
    2.5299   -0.0650   -1.3854 C   0  0  0  0  0  0  0  0  0  0  0  0
    3.3240    0.9791   -1.7140 N   0  0  0  0  0  0  0  0  0  0  0  0
    4.6266    0.9319   -1.3835 C   0  0  0  0  0  0  0  0  0  0  0  0
    5.2731   -0.0472   -0.7449 N   0  0  0  0  0  0  0  0  0  0  0  0
    4.4506   -1.0671   -0.4588 C   0  0  0  0  0  0  0  0  0  0  0  0
    4.8502   -2.1890    0.1945 O   0  0  0  0  0  0  0  0  0  0  0  0
    3.7810   -3.0488    0.3464 N   0  0  0  0  0  0  0  0  0  0  0  0
    2.7248   -2.4451   -0.2288 C   0  0  0  0  0  0  0  0  0  0  0  0
    1.4072   -3.0838   -0.2036 C   0  0  0  0  0  0  0  0  0  0  0  0
    1.0173   -3.8316    0.9131 C   0  0  0  0  0  0  0  0  0  0  0  0
   -0.2774   -4.3506    1.0092 C   0  0  0  0  0  0  0  0  0  0  0  0
   -1.2141   -4.1229   -0.0008 C   0  0  0  0  0  0  0  0  0  0  0  0
   -2.5473   -4.5756    0.0828 N   0  0  0  0  0  0  0  0  0  0  0  0
   -3.2061   -4.8794    1.2611 C   0  0  0  0  0  0  0  0  0  0  0  0
   -2.7937   -4.6217    2.3857 O   0  0  0  0  0  0  0  0  0  0  0  0
   -4.3937   -5.5496    1.0070 N   0  0  0  0  0  0  0  0  0  0  0  0
   -5.2503   -5.9554    2.0505 C   0  0  0  0  0  0  0  0  0  0  0  0
   -5.7650   -7.2518    2.0213 C   0  0  0  0  0  0  0  0  0  0  0  0
   -6.5818   -7.6999    3.0611 C   0  0  0  0  0  0  0  0  0  0  0  0
   -6.9371   -6.8351    4.0970 C   0  0  0  0  0  0  0  0  0  0  0  0
   -6.4684   -5.5132    4.1133 C   0  0  0  0  0  0  0  0  0  0  0  0
   -6.8920   -4.5472    5.1907 C   0  0  0  0  0  0  0  0  0  0  0  0
   -7.7922   -5.0766    6.0683 F   0  0  0  0  0  0  0  0  0  0  0  0
   -5.8539   -4.1008    5.9478 F   0  0  0  0  0  0  0  0  0  0  0  0
   -7.4915   -3.4339    4.6807 F   0  0  0  0  0  0  0  0  0  0  0  0
   -5.6014   -5.0897    3.0909 C   0  0  0  0  0  0  0  0  0  0  0  0
   -0.8074   -3.4489   -1.1543 C   0  0  0  0  0  0  0  0  0  0  0  0
    0.4979   -2.9476   -1.2600 C   0  0  0  0  0  0  0  0  0  0  0  0
    3.1017   -1.1659   -0.7437 C   0  0  0  0  0  0  0  0  0  0  0  0
    0.9937    1.0304   -1.9824 H   0  0  0  0  0  0  0  0  0  0  0  0
    0.5495   -0.3153   -1.0317 H   0  0  0  0  0  0  0  0  0  0  0  0
    5.2181    1.7980   -1.6647 H   0  0  0  0  0  0  0  0  0  0  0  0
    1.7101   -4.0076    1.7351 H   0  0  0  0  0  0  0  0  0  0  0  0
   -0.5289   -4.9301    1.8936 H   0  0  0  0  0  0  0  0  0  0  0  0
   -3.1472   -4.3999   -0.7105 H   0  0  0  0  0  0  0  0  0  0  0  0
   -4.3407   -6.1623    0.2033 H   0  0  0  0  0  0  0  0  0  0  0  0
   -5.4910   -7.9439    1.2319 H   0  0  0  0  0  0  0  0  0  0  0  0
   -6.9379   -8.7275    3.0663 H   0  0  0  0  0  0  0  0  0  0  0  0
   -7.5872   -7.1967    4.8925 H   0  0  0  0  0  0  0  0  0  0  0  0
   -5.2191   -4.0707    3.1073 H   0  0  0  0  0  0  0  0  0  0  0  0
   -1.4986   -3.2764   -1.9757 H   0  0  0  0  0  0  0  0  0  0  0  0
    0.7839   -2.4381   -2.1780 H   0  0  0  0  0  0  0  0  0  0  0  0
  1  2  1  0  0  0  0
  1 31  1  0  0  0  0
  1 32  1  0  0  0  0
  2  3  1  0  0  0  0
  2 30  2  0  0  0  0
  3  4  2  0  0  0  0
  4  5  1  0  0  0  0
  4 33  1  0  0  0  0
  5  6  2  0  0  0  0
  6  7  1  0  0  0  0
  6 30  1  0  0  0  0
  7  8  1  0  0  0  0
  8  9  2  0  0  0  0
  9 10  1  0  0  0  0
  9 30  1  0  0  0  0
 10 11  1  0  0  0  0
 10 29  2  0  0  0  0
 11 12  2  0  0  0  0
 11 34  1  0  0  0  0
 12 13  1  0  0  0  0
 12 35  1  0  0  0  0
 13 14  1  0  0  0  0
 13 28  2  0  0  0  0
 14 15  1  0  0  0  0
 14 36  1  0  0  0  0
 15 16  2  0  0  0  0
 15 17  1  0  0  0  0
 17 18  1  0  0  0  0
 17 37  1  0  0  0  0
 18 19  1  0  0  0  0
 18 27  2  0  0  0  0
 19 20  2  0  0  0  0
 19 38  1  0  0  0  0
 20 21  1  0  0  0  0
 20 39  1  0  0  0  0
 21 22  2  0  0  0  0
 21 40  1  0  0  0  0
 22 23  1  0  0  0  0
 22 27  1  0  0  0  0
 23 24  1  0  0  0  0
 23 25  1  0  0  0  0
 23 26  1  0  0  0  0
 27 41  1  0  0  0  0
 28 29  1  0  0  0  0
 28 42  1  0  0  0  0
 29 43  1  0  0  0  0
M  END
$$$$
