CHEMBL508776
 OpenBabel04072215383D

 65 70  0  0  0  0  0  0  0  0999 V2000
    2.8251    1.3563    1.8297 C   0  0  0  0  0  0  0  0  0  0  0  0
    4.1318    0.7837    2.1037 N   0  0  0  0  0  0  0  0  0  0  0  0
    4.2823   -0.5844    1.6313 C   0  0  0  0  0  0  0  0  0  0  0  0
    5.1867   -0.8176    0.4633 C   0  0  0  0  0  0  0  0  0  0  0  0
    6.0361    0.0881   -0.0524 C   0  0  0  0  0  0  0  0  0  0  0  0
    6.8571   -0.3192   -1.1624 C   0  0  0  0  0  0  0  0  0  0  0  0
    7.3992   -1.5569   -1.4749 C   0  0  0  0  0  0  0  0  0  0  0  0
    8.1513   -1.5645   -2.6845 C   0  0  0  0  0  0  0  0  0  0  0  0
    8.7747   -2.6533   -3.2125 N   0  0  0  0  0  0  0  0  0  0  0  0
    9.3930   -2.4556   -4.3909 C   0  0  0  0  0  0  0  0  0  0  0  0
    9.4443   -1.2546   -5.0715 C   0  0  0  0  0  0  0  0  0  0  0  0
    8.8703   -0.1238   -4.4867 C   0  0  0  0  0  0  0  0  0  0  0  0
    8.9156    1.1354   -5.0513 O   0  0  0  0  0  0  0  0  0  0  0  0
   10.0999    1.5568   -5.6086 C   0  0  0  0  0  0  0  0  0  0  0  0
   11.3462    1.0945   -5.1906 C   0  0  0  0  0  0  0  0  0  0  0  0
   12.4835    1.4232   -5.9174 C   0  0  0  0  0  0  0  0  0  0  0  0
   12.3965    2.2725   -7.0264 C   0  0  0  0  0  0  0  0  0  0  0  0
   13.5144    2.5444   -7.8285 N   0  0  0  0  0  0  0  0  0  0  0  0
   14.6200    1.7299   -7.9679 C   0  0  0  0  0  0  0  0  0  0  0  0
   14.7568    0.6205   -7.4536 O   0  0  0  0  0  0  0  0  0  0  0  0
   15.6047    2.2509   -8.7811 N   0  0  0  0  0  0  0  0  0  0  0  0
   16.7783    1.4746   -9.1039 C   0  0  0  0  0  0  0  0  0  0  0  0
   17.5188    2.3563  -10.0856 C   0  0  0  0  0  0  0  0  0  0  0  0
   17.1086    3.6861   -9.7003 N   0  0  0  0  0  0  0  0  0  0  0  0
   17.7639    4.8671  -10.1040 C   0  0  0  0  0  0  0  0  0  0  0  0
   17.4813    6.0903   -9.4832 C   0  0  0  0  0  0  0  0  0  0  0  0
   18.1163    7.2656   -9.8886 C   0  0  0  0  0  0  0  0  0  0  0  0
   19.0429    7.2331  -10.9247 C   0  0  0  0  0  0  0  0  0  0  0  0
   19.3518    6.0218  -11.5378 C   0  0  0  0  0  0  0  0  0  0  0  0
   18.7265    4.8430  -11.1211 C   0  0  0  0  0  0  0  0  0  0  0  0
   15.8669    3.6176   -9.0310 C   0  0  0  0  0  0  0  0  0  0  0  0
   15.0920    4.5294   -8.7705 O   0  0  0  0  0  0  0  0  0  0  0  0
   11.1747    2.8668   -7.3453 C   0  0  0  0  0  0  0  0  0  0  0  0
   10.0304    2.4880   -6.6464 C   0  0  0  0  0  0  0  0  0  0  0  0
    8.8479    3.0070   -7.0109 F   0  0  0  0  0  0  0  0  0  0  0  0
    8.1818   -0.3090   -3.2810 C   0  0  0  0  0  0  0  0  0  0  0  0
    7.3254    0.8395   -2.3456 S   0  0  0  0  0  0  0  0  0  0  0  0
    6.0832    1.4684    0.5645 C   0  0  0  0  0  0  0  0  0  0  0  0
    5.2453    1.6874    1.8323 C   0  0  0  0  0  0  0  0  0  0  0  0
    2.0332    0.6992    2.2096 H   0  0  0  0  0  0  0  0  0  0  0  0
    2.6570    1.5291    0.7630 H   0  0  0  0  0  0  0  0  0  0  0  0
    2.7021    2.3046    2.3659 H   0  0  0  0  0  0  0  0  0  0  0  0
    3.3040   -1.0167    1.3821 H   0  0  0  0  0  0  0  0  0  0  0  0
    4.6635   -1.1895    2.4622 H   0  0  0  0  0  0  0  0  0  0  0  0
    5.1115   -1.8164    0.0378 H   0  0  0  0  0  0  0  0  0  0  0  0
    7.2680   -2.4404   -0.8642 H   0  0  0  0  0  0  0  0  0  0  0  0
    9.8833   -3.3361   -4.8008 H   0  0  0  0  0  0  0  0  0  0  0  0
    9.9601   -1.2003   -6.0244 H   0  0  0  0  0  0  0  0  0  0  0  0
   11.4586    0.4497   -4.3219 H   0  0  0  0  0  0  0  0  0  0  0  0
   13.4330    0.9960   -5.6061 H   0  0  0  0  0  0  0  0  0  0  0  0
   13.4653    3.3359   -8.4649 H   0  0  0  0  0  0  0  0  0  0  0  0
   16.5160    0.4908   -9.5047 H   0  0  0  0  0  0  0  0  0  0  0  0
   17.3549    1.3360   -8.1807 H   0  0  0  0  0  0  0  0  0  0  0  0
   17.1634    2.1746  -11.1072 H   0  0  0  0  0  0  0  0  0  0  0  0
   18.6010    2.2113  -10.0291 H   0  0  0  0  0  0  0  0  0  0  0  0
   16.7811    6.1542   -8.6542 H   0  0  0  0  0  0  0  0  0  0  0  0
   17.8803    8.2025   -9.3907 H   0  0  0  0  0  0  0  0  0  0  0  0
   19.5237    8.1508  -11.2515 H   0  0  0  0  0  0  0  0  0  0  0  0
   20.0747    5.9943  -12.3489 H   0  0  0  0  0  0  0  0  0  0  0  0
   18.9848    3.9222  -11.6347 H   0  0  0  0  0  0  0  0  0  0  0  0
   11.0784    3.5689   -8.1671 H   0  0  0  0  0  0  0  0  0  0  0  0
    5.7680    2.1981   -0.1912 H   0  0  0  0  0  0  0  0  0  0  0  0
    7.1295    1.6978    0.8117 H   0  0  0  0  0  0  0  0  0  0  0  0
    4.9023    2.7320    1.8232 H   0  0  0  0  0  0  0  0  0  0  0  0
    5.9203    1.6346    2.6952 H   0  0  0  0  0  0  0  0  0  0  0  0
  1  2  1  0  0  0  0
  1 40  1  0  0  0  0
  1 41  1  0  0  0  0
  1 42  1  0  0  0  0
  2  3  1  0  0  0  0
  2 39  1  0  0  0  0
  3  4  1  0  0  0  0
  3 43  1  0  0  0  0
  3 44  1  0  0  0  0
  4  5  2  0  0  0  0
  4 45  1  0  0  0  0
  5  6  1  0  0  0  0
  5 38  1  0  0  0  0
  6  7  2  0  0  0  0
  6 37  1  0  0  0  0
  7  8  1  0  0  0  0
  7 46  1  0  0  0  0
  8  9  1  0  0  0  0
  8 36  2  0  0  0  0
  9 10  2  0  0  0  0
 10 11  1  0  0  0  0
 10 47  1  0  0  0  0
 11 12  2  0  0  0  0
 11 48  1  0  0  0  0
 12 13  1  0  0  0  0
 12 36  1  0  0  0  0
 13 14  1  0  0  0  0
 14 15  1  0  0  0  0
 14 34  2  0  0  0  0
 15 16  2  0  0  0  0
 15 49  1  0  0  0  0
 16 17  1  0  0  0  0
 16 50  1  0  0  0  0
 17 18  1  0  0  0  0
 17 33  2  0  0  0  0
 18 19  1  0  0  0  0
 18 51  1  0  0  0  0
 19 20  2  0  0  0  0
 19 21  1  0  0  0  0
 21 22  1  0  0  0  0
 21 31  1  0  0  0  0
 22 23  1  0  0  0  0
 22 52  1  0  0  0  0
 22 53  1  0  0  0  0
 23 24  1  0  0  0  0
 23 54  1  0  0  0  0
 23 55  1  0  0  0  0
 24 25  1  0  0  0  0
 24 31  1  0  0  0  0
 25 26  1  0  0  0  0
 25 30  2  0  0  0  0
 26 27  2  0  0  0  0
 26 56  1  0  0  0  0
 27 28  1  0  0  0  0
 27 57  1  0  0  0  0
 28 29  2  0  0  0  0
 28 58  1  0  0  0  0
 29 30  1  0  0  0  0
 29 59  1  0  0  0  0
 30 60  1  0  0  0  0
 31 32  2  0  0  0  0
 33 34  1  0  0  0  0
 33 61  1  0  0  0  0
 34 35  1  0  0  0  0
 36 37  1  0  0  0  0
 38 39  1  0  0  0  0
 38 62  1  0  0  0  0
 38 63  1  0  0  0  0
 39 64  1  0  0  0  0
 39 65  1  0  0  0  0
M  END
$$$$
