CHEMBL2086741
 OpenBabel04072215363D

 46 50  0  0  0  0  0  0  0  0999 V2000
    2.3115   -0.1992    0.1200 C   0  0  0  0  0  0  0  0  0  0  0  0
    0.8159   -0.1330    0.0062 C   0  0  0  0  0  0  0  0  0  0  0  0
    0.1877   -0.0800   -1.2428 C   0  0  0  0  0  0  0  0  0  0  0  0
   -1.2089   -0.0345   -1.3357 C   0  0  0  0  0  0  0  0  0  0  0  0
   -2.0024   -0.0431   -0.1816 C   0  0  0  0  0  0  0  0  0  0  0  0
   -3.4736    0.1026   -0.3002 C   0  0  0  0  0  0  0  0  0  0  0  0
   -4.3099   -0.9635   -0.4239 C   0  0  0  0  0  0  0  0  0  0  0  0
   -3.9539   -2.4145   -0.1674 C   0  0  0  0  0  0  0  0  0  0  0  0
   -2.8564   -2.9254   -0.0815 O   0  0  0  0  0  0  0  0  0  0  0  0
   -5.1781   -3.0559    0.0510 N   0  0  0  0  0  0  0  0  0  0  0  0
   -6.2495   -2.1874   -0.1376 C   0  0  0  0  0  0  0  0  0  0  0  0
   -7.5993   -2.4477   -0.0056 C   0  0  0  0  0  0  0  0  0  0  0  0
   -8.4949   -1.3957   -0.2599 C   0  0  0  0  0  0  0  0  0  0  0  0
   -8.0347   -0.1363   -0.6812 C   0  0  0  0  0  0  0  0  0  0  0  0
   -8.9206    0.8925   -1.0157 N   0  0  0  0  0  0  0  0  0  0  0  0
   -6.6780    0.0248   -0.9468 C   0  0  0  0  0  0  0  0  0  0  0  0
   -5.7833   -0.9401   -0.5294 C   0  0  0  0  0  0  0  0  0  0  0  0
   -4.0785    1.3911   -0.1224 C   0  0  0  0  0  0  0  0  0  0  0  0
   -4.4596    2.3254   -0.9747 N   0  0  0  0  0  0  0  0  0  0  0  0
   -5.3148    3.1464   -0.2658 C   0  0  0  0  0  0  0  0  0  0  0  0
   -6.1343    4.1985   -0.7052 C   0  0  0  0  0  0  0  0  0  0  0  0
   -6.9944    4.8143    0.2172 C   0  0  0  0  0  0  0  0  0  0  0  0
   -7.0357    4.3959    1.5497 C   0  0  0  0  0  0  0  0  0  0  0  0
   -6.2250    3.3519    2.0065 C   0  0  0  0  0  0  0  0  0  0  0  0
   -5.3840    2.7550    1.0655 C   0  0  0  0  0  0  0  0  0  0  0  0
   -4.5147    1.6993    1.1489 N   0  0  0  0  0  0  0  0  0  0  0  0
   -1.3722   -0.0923    1.0691 C   0  0  0  0  0  0  0  0  0  0  0  0
    0.0244   -0.1349    1.1609 C   0  0  0  0  0  0  0  0  0  0  0  0
    2.7929   -0.1759   -0.8634 H   0  0  0  0  0  0  0  0  0  0  0  0
    2.6097   -1.1290    0.6157 H   0  0  0  0  0  0  0  0  0  0  0  0
    2.6892    0.6514    0.6970 H   0  0  0  0  0  0  0  0  0  0  0  0
    0.7788   -0.0673   -2.1560 H   0  0  0  0  0  0  0  0  0  0  0  0
   -1.6713    0.0269   -2.3183 H   0  0  0  0  0  0  0  0  0  0  0  0
   -5.2445   -4.0335    0.2854 H   0  0  0  0  0  0  0  0  0  0  0  0
   -7.9694   -3.4253    0.2905 H   0  0  0  0  0  0  0  0  0  0  0  0
   -9.5625   -1.5633   -0.1473 H   0  0  0  0  0  0  0  0  0  0  0  0
   -9.7358    0.9265   -0.4138 H   0  0  0  0  0  0  0  0  0  0  0  0
   -8.4536    1.8004   -1.0465 H   0  0  0  0  0  0  0  0  0  0  0  0
   -6.3362    0.9239   -1.4396 H   0  0  0  0  0  0  0  0  0  0  0  0
   -6.1228    4.5027   -1.7461 H   0  0  0  0  0  0  0  0  0  0  0  0
   -7.6425    5.6242   -0.1111 H   0  0  0  0  0  0  0  0  0  0  0  0
   -7.7142    4.8866    2.2455 H   0  0  0  0  0  0  0  0  0  0  0  0
   -6.2687    3.0128    3.0356 H   0  0  0  0  0  0  0  0  0  0  0  0
   -4.3579    1.1334    1.9688 H   0  0  0  0  0  0  0  0  0  0  0  0
   -1.9551   -0.0938    1.9850 H   0  0  0  0  0  0  0  0  0  0  0  0
    0.4939   -0.1691    2.1416 H   0  0  0  0  0  0  0  0  0  0  0  0
  1  2  1  0  0  0  0
  1 29  1  0  0  0  0
  1 30  1  0  0  0  0
  1 31  1  0  0  0  0
  2  3  1  0  0  0  0
  2 28  2  0  0  0  0
  3  4  2  0  0  0  0
  3 32  1  0  0  0  0
  4  5  1  0  0  0  0
  4 33  1  0  0  0  0
  5  6  1  0  0  0  0
  5 27  2  0  0  0  0
  6  7  2  3  0  0  0
  6 18  1  0  0  0  0
  7  8  1  0  0  0  0
  7 17  1  0  0  0  0
  8  9  2  0  0  0  0
  8 10  1  0  0  0  0
 10 11  1  0  0  0  0
 10 34  1  0  0  0  0
 11 12  1  0  0  0  0
 11 17  2  0  0  0  0
 12 13  2  0  0  0  0
 12 35  1  0  0  0  0
 13 14  1  0  0  0  0
 13 36  1  0  0  0  0
 14 15  1  0  0  0  0
 14 16  2  0  0  0  0
 15 37  1  0  0  0  0
 15 38  1  0  0  0  0
 16 17  1  0  0  0  0
 16 39  1  0  0  0  0
 18 19  2  0  0  0  0
 18 26  1  0  0  0  0
 19 20  1  0  0  0  0
 20 21  1  0  0  0  0
 20 25  2  0  0  0  0
 21 22  2  0  0  0  0
 21 40  1  0  0  0  0
 22 23  1  0  0  0  0
 22 41  1  0  0  0  0
 23 24  2  0  0  0  0
 23 42  1  0  0  0  0
 24 25  1  0  0  0  0
 24 43  1  0  0  0  0
 25 26  1  0  0  0  0
 26 44  1  0  0  0  0
 27 28  1  0  0  0  0
 27 45  1  0  0  0  0
 28 46  1  0  0  0  0
M  END
$$$$
