CHEMBL255283
 OpenBabel04072215363D

 57 62  0  0  0  0  0  0  0  0999 V2000
    3.2874   -1.2114   -0.3277 C   0  0  0  0  0  0  0  0  0  0  0  0
    2.1428   -0.8348    0.6118 C   0  0  0  0  0  0  0  0  0  0  0  0
    2.3789   -1.2780    1.9809 N   0  0  0  0  0  0  0  0  0  0  0  0
    3.0583   -0.5159    2.9597 C   0  0  0  0  0  0  0  0  0  0  0  0
    3.5644    0.7979    2.9625 C   0  0  0  0  0  0  0  0  0  0  0  0
    4.2904    1.2474    4.0946 C   0  0  0  0  0  0  0  0  0  0  0  0
    4.4990    0.4370    5.2136 C   0  0  0  0  0  0  0  0  0  0  0  0
    5.2813    0.8238    6.4469 C   0  0  0  0  0  0  0  0  0  0  0  0
    5.8508    2.2246    6.5837 C   0  0  0  0  0  0  0  0  0  0  0  0
    5.4557   -0.0656    7.3863 N   0  0  0  0  0  0  0  0  0  0  0  0
    6.2046    0.4509    8.4596 O   0  0  0  0  0  0  0  0  0  0  0  0
    6.3404   -0.5497    9.4621 C   0  0  0  0  0  0  0  0  0  0  0  0
    3.9944   -0.8647    5.1811 C   0  0  0  0  0  0  0  0  0  0  0  0
    3.3071   -1.3501    4.0574 C   0  0  0  0  0  0  0  0  0  0  0  0
    2.8650   -2.5736    3.6134 C   0  0  0  0  0  0  0  0  0  0  0  0
    3.4011   -3.7727    4.0926 C   0  0  0  0  0  0  0  0  0  0  0  0
    3.3932   -4.8447    3.1796 C   0  0  0  0  0  0  0  0  0  0  0  0
    2.7232   -4.8302    1.9408 C   0  0  0  0  0  0  0  0  0  0  0  0
    1.7243   -3.7998    1.8753 C   0  0  0  0  0  0  0  0  0  0  0  0
    2.1586   -2.5785    2.4379 C   0  0  0  0  0  0  0  0  0  0  0  0
    0.2727   -4.3838    2.1699 C   0  0  0  0  0  0  0  0  0  0  0  0
    0.2561   -5.8781    2.6923 C   0  0  0  0  0  0  0  0  0  0  0  0
    1.1037   -6.6609    1.7558 C   0  0  0  0  0  0  0  0  0  0  0  0
    0.7577   -7.6995    1.0010 N   0  0  0  0  0  0  0  0  0  0  0  0
    1.7646   -7.7499    0.0909 N   0  0  0  0  0  0  0  0  0  0  0  0
    1.7047   -8.7051   -0.9881 C   0  0  0  0  0  0  0  0  0  0  0  0
    2.6636   -6.7165    0.2073 C   0  0  0  0  0  0  0  0  0  0  0  0
    2.3401   -6.1054    1.3855 C   0  0  0  0  0  0  0  0  0  0  0  0
    4.0360   -5.9607    3.8375 C   0  0  0  0  0  0  0  0  0  0  0  0
    4.3104   -7.0992    3.4898 O   0  0  0  0  0  0  0  0  0  0  0  0
    4.3059   -5.4995    5.1202 N   0  0  0  0  0  0  0  0  0  0  0  0
    4.0385   -4.1040    5.3634 C   0  0  0  0  0  0  0  0  0  0  0  0
    3.0600   -0.8969   -1.3513 H   0  0  0  0  0  0  0  0  0  0  0  0
    3.4589   -2.2928   -0.3381 H   0  0  0  0  0  0  0  0  0  0  0  0
    4.2249   -0.7300   -0.0291 H   0  0  0  0  0  0  0  0  0  0  0  0
    1.2048   -1.2754    0.2711 H   0  0  0  0  0  0  0  0  0  0  0  0
    2.0148    0.2523    0.6202 H   0  0  0  0  0  0  0  0  0  0  0  0
    3.4378    1.4554    2.1082 H   0  0  0  0  0  0  0  0  0  0  0  0
    4.6978    2.2538    4.0435 H   0  0  0  0  0  0  0  0  0  0  0  0
    5.6322    2.8718    5.7365 H   0  0  0  0  0  0  0  0  0  0  0  0
    6.9339    2.1567    6.6915 H   0  0  0  0  0  0  0  0  0  0  0  0
    5.4254    2.6867    7.4774 H   0  0  0  0  0  0  0  0  0  0  0  0
    6.9650   -0.1478   10.2643 H   0  0  0  0  0  0  0  0  0  0  0  0
    6.8269   -1.4414    9.0543 H   0  0  0  0  0  0  0  0  0  0  0  0
    5.3618   -0.8085    9.8777 H   0  0  0  0  0  0  0  0  0  0  0  0
    4.1465   -1.5176    6.0323 H   0  0  0  0  0  0  0  0  0  0  0  0
   -0.2940   -4.3396    1.2331 H   0  0  0  0  0  0  0  0  0  0  0  0
   -0.2286   -3.7540    2.9132 H   0  0  0  0  0  0  0  0  0  0  0  0
   -0.7558   -6.2811    2.7706 H   0  0  0  0  0  0  0  0  0  0  0  0
    0.7031   -5.9228    3.6985 H   0  0  0  0  0  0  0  0  0  0  0  0
    0.9834   -9.4879   -0.7406 H   0  0  0  0  0  0  0  0  0  0  0  0
    2.6969   -9.1422   -1.1223 H   0  0  0  0  0  0  0  0  0  0  0  0
    1.3919   -8.1765   -1.8921 H   0  0  0  0  0  0  0  0  0  0  0  0
    3.3964   -6.5060   -0.5630 H   0  0  0  0  0  0  0  0  0  0  0  0
    4.7058   -6.1317    5.7958 H   0  0  0  0  0  0  0  0  0  0  0  0
    4.9875   -3.5918    5.5100 H   0  0  0  0  0  0  0  0  0  0  0  0
    3.3595   -3.9950    6.2110 H   0  0  0  0  0  0  0  0  0  0  0  0
  1  2  1  0  0  0  0
  1 33  1  0  0  0  0
  1 34  1  0  0  0  0
  1 35  1  0  0  0  0
  2  3  1  0  0  0  0
  2 36  1  0  0  0  0
  2 37  1  0  0  0  0
  3  4  1  0  0  0  0
  3 20  1  0  0  0  0
  4  5  1  0  0  0  0
  4 14  2  0  0  0  0
  5  6  2  0  0  0  0
  5 38  1  0  0  0  0
  6  7  1  0  0  0  0
  6 39  1  0  0  0  0
  7  8  1  0  0  0  0
  7 13  2  0  0  0  0
  8  9  1  0  0  0  0
  8 10  2  0  0  0  0
  9 40  1  0  0  0  0
  9 41  1  0  0  0  0
  9 42  1  0  0  0  0
 10 11  1  0  0  0  0
 11 12  1  0  0  0  0
 12 43  1  0  0  0  0
 12 44  1  0  0  0  0
 12 45  1  0  0  0  0
 13 14  1  0  0  0  0
 13 46  1  0  0  0  0
 14 15  1  0  0  0  0
 15 16  1  0  0  0  0
 15 20  2  0  0  0  0
 16 17  2  0  0  0  0
 16 32  1  0  0  0  0
 17 18  1  0  0  0  0
 17 29  1  0  0  0  0
 18 19  2  0  0  0  0
 18 28  1  0  0  0  0
 19 20  1  0  0  0  0
 19 21  1  0  0  0  0
 21 22  1  0  0  0  0
 21 47  1  0  0  0  0
 21 48  1  0  0  0  0
 22 23  1  0  0  0  0
 22 49  1  0  0  0  0
 22 50  1  0  0  0  0
 23 24  2  0  0  0  0
 23 28  1  0  0  0  0
 24 25  1  0  0  0  0
 25 26  1  0  0  0  0
 25 27  1  0  0  0  0
 26 51  1  0  0  0  0
 26 52  1  0  0  0  0
 26 53  1  0  0  0  0
 27 28  2  0  0  0  0
 27 54  1  0  0  0  0
 29 30  2  0  0  0  0
 29 31  1  0  0  0  0
 31 32  1  0  0  0  0
 31 55  1  0  0  0  0
 32 56  1  0  0  0  0
 32 57  1  0  0  0  0
M  END
$$$$
