CHEMBL191251
 OpenBabel04072215363D

 33 35  0  0  0  0  0  0  0  0999 V2000
    0.0564   -1.2255    2.4070 N   0  0  0  0  0  0  0  0  0  0  0  0
   -0.0928   -0.5365    1.1975 C   0  0  0  0  0  0  0  0  0  0  0  0
    0.2211   -1.1206   -0.0254 C   0  0  0  0  0  0  0  0  0  0  0  0
   -0.0137   -0.5539   -1.2317 N   0  0  0  0  0  0  0  0  0  0  0  0
   -0.6346    0.6485   -1.2187 C   0  0  0  0  0  0  0  0  0  0  0  0
   -1.0436    1.3262   -0.0707 C   0  0  0  0  0  0  0  0  0  0  0  0
   -1.7094    2.6396   -0.1182 C   0  0  0  0  0  0  0  0  0  0  0  0
   -1.4954    3.5860   -1.1184 C   0  0  0  0  0  0  0  0  0  0  0  0
   -2.0816    4.8070   -1.1258 N   0  0  0  0  0  0  0  0  0  0  0  0
   -2.9043    5.0507   -0.0781 C   0  0  0  0  0  0  0  0  0  0  0  0
   -3.1805    4.1180    0.9221 C   0  0  0  0  0  0  0  0  0  0  0  0
   -4.0499    4.4511    1.9896 N   0  0  0  0  0  0  0  0  0  0  0  0
   -4.8394    3.5068    2.6970 C   0  0  0  0  0  0  0  0  0  0  0  0
   -5.3204    2.3345    2.0930 C   0  0  0  0  0  0  0  0  0  0  0  0
   -6.1824    1.4727    2.7721 C   0  0  0  0  0  0  0  0  0  0  0  0
   -6.5889    1.7818    4.0668 C   0  0  0  0  0  0  0  0  0  0  0  0
   -6.1353    2.9534    4.6696 C   0  0  0  0  0  0  0  0  0  0  0  0
   -6.6499    3.3415    6.2666 Cl  0  0  0  0  0  0  0  0  0  0  0  0
   -5.2772    3.8200    3.9901 C   0  0  0  0  0  0  0  0  0  0  0  0
   -2.5557    2.9167    0.9079 N   0  0  0  0  0  0  0  0  0  0  0  0
   -0.7825    0.6773    1.1495 C   0  0  0  0  0  0  0  0  0  0  0  0
    0.8150   -1.9002    2.4138 H   0  0  0  0  0  0  0  0  0  0  0  0
    0.0678   -0.6228    3.2250 H   0  0  0  0  0  0  0  0  0  0  0  0
    0.6845   -2.1022   -0.0708 H   0  0  0  0  0  0  0  0  0  0  0  0
   -0.8190    1.0454   -2.2141 H   0  0  0  0  0  0  0  0  0  0  0  0
   -0.8206    3.4067   -1.9482 H   0  0  0  0  0  0  0  0  0  0  0  0
   -3.3636    6.0330   -0.0785 H   0  0  0  0  0  0  0  0  0  0  0  0
   -4.6609    5.2165    1.7164 H   0  0  0  0  0  0  0  0  0  0  0  0
   -5.0289    2.0768    1.0767 H   0  0  0  0  0  0  0  0  0  0  0  0
   -6.5343    0.5665    2.2883 H   0  0  0  0  0  0  0  0  0  0  0  0
   -7.2608    1.1113    4.5954 H   0  0  0  0  0  0  0  0  0  0  0  0
   -4.9347    4.7313    4.4709 H   0  0  0  0  0  0  0  0  0  0  0  0
   -1.1180    1.1365    2.0771 H   0  0  0  0  0  0  0  0  0  0  0  0
  1  2  1  0  0  0  0
  1 22  1  0  0  0  0
  1 23  1  0  0  0  0
  2  3  1  0  0  0  0
  2 21  2  0  0  0  0
  3  4  2  0  0  0  0
  3 24  1  0  0  0  0
  4  5  1  0  0  0  0
  5  6  2  0  0  0  0
  5 25  1  0  0  0  0
  6  7  1  0  0  0  0
  6 21  1  0  0  0  0
  7  8  1  0  0  0  0
  7 20  2  0  0  0  0
  8  9  2  0  0  0  0
  8 26  1  0  0  0  0
  9 10  1  0  0  0  0
 10 11  2  0  0  0  0
 10 27  1  0  0  0  0
 11 12  1  0  0  0  0
 11 20  1  0  0  0  0
 12 13  1  0  0  0  0
 12 28  1  0  0  0  0
 13 14  1  0  0  0  0
 13 19  2  0  0  0  0
 14 15  2  0  0  0  0
 14 29  1  0  0  0  0
 15 16  1  0  0  0  0
 15 30  1  0  0  0  0
 16 17  2  0  0  0  0
 16 31  1  0  0  0  0
 17 18  1  0  0  0  0
 17 19  1  0  0  0  0
 19 32  1  0  0  0  0
 21 33  1  0  0  0  0
M  END
$$$$
