CHEMBL394826
 OpenBabel04072215373D

 47 50  0  0  0  0  0  0  0  0999 V2000
    1.9402    2.6488   -3.7445 C   0  0  0  0  0  0  0  0  0  0  0  0
    3.3011    2.3283   -3.4122 N   0  0  0  0  0  0  0  0  0  0  0  0
    3.6176    1.2009   -2.6856 C   0  0  0  0  0  0  0  0  0  0  0  0
    2.7867    0.3856   -2.3027 O   0  0  0  0  0  0  0  0  0  0  0  0
    5.0774    1.0185   -2.4019 C   0  0  0  0  0  0  0  0  0  0  0  0
    5.4899   -0.1080   -1.7081 C   0  0  0  0  0  0  0  0  0  0  0  0
    6.8558   -0.3261   -1.5738 C   0  0  0  0  0  0  0  0  0  0  0  0
    7.4093   -1.4425   -0.9804 O   0  0  0  0  0  0  0  0  0  0  0  0
    6.7822   -2.6689   -1.1127 C   0  0  0  0  0  0  0  0  0  0  0  0
    6.0206   -3.0319   -2.2313 C   0  0  0  0  0  0  0  0  0  0  0  0
    5.3315   -4.2463   -2.2695 C   0  0  0  0  0  0  0  0  0  0  0  0
    5.4937   -5.1345   -1.2034 C   0  0  0  0  0  0  0  0  0  0  0  0
    4.9260   -6.3592   -1.0083 N   0  0  0  0  0  0  0  0  0  0  0  0
    5.3914   -6.8049    0.1346 C   0  0  0  0  0  0  0  0  0  0  0  0
    5.1008   -7.9479    0.7936 N   0  0  0  0  0  0  0  0  0  0  0  0
    3.9709   -8.7646    0.5731 C   0  0  0  0  0  0  0  0  0  0  0  0
    3.8786   -9.9975    1.2242 C   0  0  0  0  0  0  0  0  0  0  0  0
    2.7759  -10.8340    1.0208 C   0  0  0  0  0  0  0  0  0  0  0  0
    1.7397  -10.4607    0.1564 C   0  0  0  0  0  0  0  0  0  0  0  0
    0.4437  -11.5832   -0.0247 Cl  0  0  0  0  0  0  0  0  0  0  0  0
    1.7914   -9.2345   -0.5042 C   0  0  0  0  0  0  0  0  0  0  0  0
    0.7376   -8.7042   -1.4393 C   0  0  0  0  0  0  0  0  0  0  0  0
   -0.3136   -9.5271   -1.6946 F   0  0  0  0  0  0  0  0  0  0  0  0
    0.1825   -7.5464   -0.9719 F   0  0  0  0  0  0  0  0  0  0  0  0
    1.2508   -8.3897   -2.6648 F   0  0  0  0  0  0  0  0  0  0  0  0
    2.9132   -8.4062   -0.2763 C   0  0  0  0  0  0  0  0  0  0  0  0
    6.2905   -5.9076    0.6648 N   0  0  0  0  0  0  0  0  0  0  0  0
    6.3312   -4.8030   -0.1463 C   0  0  0  0  0  0  0  0  0  0  0  0
    6.9913   -3.5705   -0.0580 C   0  0  0  0  0  0  0  0  0  0  0  0
    7.7519    0.6387   -2.0230 C   0  0  0  0  0  0  0  0  0  0  0  0
    7.2437    1.7577   -2.6637 C   0  0  0  0  0  0  0  0  0  0  0  0
    5.9273    1.9663   -2.8877 N   0  0  0  0  0  0  0  0  0  0  0  0
    1.9223    3.5824   -4.3100 H   0  0  0  0  0  0  0  0  0  0  0  0
    1.3630    2.7577   -2.8219 H   0  0  0  0  0  0  0  0  0  0  0  0
    1.5117    1.8386   -4.3410 H   0  0  0  0  0  0  0  0  0  0  0  0
    4.0721    2.9216   -3.7057 H   0  0  0  0  0  0  0  0  0  0  0  0
    4.7522   -0.8093   -1.3303 H   0  0  0  0  0  0  0  0  0  0  0  0
    5.9173   -2.3658   -3.0841 H   0  0  0  0  0  0  0  0  0  0  0  0
    4.6822   -4.4999   -3.0992 H   0  0  0  0  0  0  0  0  0  0  0  0
    5.7246   -8.2959    1.5106 H   0  0  0  0  0  0  0  0  0  0  0  0
    4.6630  -10.3270    1.9009 H   0  0  0  0  0  0  0  0  0  0  0  0
    2.7325  -11.7868    1.5450 H   0  0  0  0  0  0  0  0  0  0  0  0
    2.9298   -7.4438   -0.7870 H   0  0  0  0  0  0  0  0  0  0  0  0
    6.7786   -6.0206    1.5390 H   0  0  0  0  0  0  0  0  0  0  0  0
    7.6178   -3.3162    0.7896 H   0  0  0  0  0  0  0  0  0  0  0  0
    8.8204    0.5141   -1.8877 H   0  0  0  0  0  0  0  0  0  0  0  0
    7.9079    2.5342   -3.0323 H   0  0  0  0  0  0  0  0  0  0  0  0
  1  2  1  0  0  0  0
  1 33  1  0  0  0  0
  1 34  1  0  0  0  0
  1 35  1  0  0  0  0
  2  3  1  0  0  0  0
  2 36  1  0  0  0  0
  3  4  2  0  0  0  0
  3  5  1  0  0  0  0
  5  6  1  0  0  0  0
  5 32  2  0  0  0  0
  6  7  2  0  0  0  0
  6 37  1  0  0  0  0
  7  8  1  0  0  0  0
  7 30  1  0  0  0  0
  8  9  1  0  0  0  0
  9 10  1  0  0  0  0
  9 29  2  0  0  0  0
 10 11  2  0  0  0  0
 10 38  1  0  0  0  0
 11 12  1  0  0  0  0
 11 39  1  0  0  0  0
 12 13  1  0  0  0  0
 12 28  2  0  0  0  0
 13 14  2  0  0  0  0
 14 15  1  0  0  0  0
 14 27  1  0  0  0  0
 15 16  1  0  0  0  0
 15 40  1  0  0  0  0
 16 17  1  0  0  0  0
 16 26  2  0  0  0  0
 17 18  2  0  0  0  0
 17 41  1  0  0  0  0
 18 19  1  0  0  0  0
 18 42  1  0  0  0  0
 19 20  1  0  0  0  0
 19 21  2  0  0  0  0
 21 22  1  0  0  0  0
 21 26  1  0  0  0  0
 22 23  1  0  0  0  0
 22 24  1  0  0  0  0
 22 25  1  0  0  0  0
 26 43  1  0  0  0  0
 27 28  1  0  0  0  0
 27 44  1  0  0  0  0
 28 29  1  0  0  0  0
 29 45  1  0  0  0  0
 30 31  2  0  0  0  0
 30 46  1  0  0  0  0
 31 32  1  0  0  0  0
 31 47  1  0  0  0  0
M  END
$$$$
