CHEMBL596292
 OpenBabel04072215383D

 71 76  0  0  0  0  0  0  0  0999 V2000
    2.5584    0.5801    1.1240 C   0  0  0  0  0  0  0  0  0  0  0  0
    2.4840    0.1656   -0.2397 O   0  0  0  0  0  0  0  0  0  0  0  0
    3.2455   -0.9011   -0.6280 C   0  0  0  0  0  0  0  0  0  0  0  0
    4.3452   -1.3282    0.1178 C   0  0  0  0  0  0  0  0  0  0  0  0
    4.9996   -2.5442   -0.1589 C   0  0  0  0  0  0  0  0  0  0  0  0
    5.9995   -3.0937    0.6687 C   0  0  0  0  0  0  0  0  0  0  0  0
    6.3440   -2.4368    1.8920 N   0  0  0  0  0  0  0  0  0  0  0  0
    7.0509   -2.9920    2.9836 C   0  0  0  0  0  0  0  0  0  0  0  0
    7.9271   -2.2153    3.7565 C   0  0  0  0  0  0  0  0  0  0  0  0
    8.6892   -2.7834    4.8054 C   0  0  0  0  0  0  0  0  0  0  0  0
    8.5666   -4.1399    5.1415 C   0  0  0  0  0  0  0  0  0  0  0  0
    9.4357   -4.7849    6.1735 C   0  0  0  0  0  0  0  0  0  0  0  0
   10.3407   -4.2000    6.9490 N   0  0  0  0  0  0  0  0  0  0  0  0
   11.0481   -5.1562    7.7018 C   0  0  0  0  0  0  0  0  0  0  0  0
   12.1030   -4.9379    8.6200 C   0  0  0  0  0  0  0  0  0  0  0  0
   12.7348   -6.0373    9.2288 C   0  0  0  0  0  0  0  0  0  0  0  0
   14.0314   -5.7859   10.3371 Cl  0  0  0  0  0  0  0  0  0  0  0  0
   12.3377   -7.3390    8.9505 C   0  0  0  0  0  0  0  0  0  0  0  0
   11.2781   -7.5766    8.0841 C   0  0  0  0  0  0  0  0  0  0  0  0
   10.6547   -6.4762    7.4770 C   0  0  0  0  0  0  0  0  0  0  0  0
    9.3401   -6.4988    6.3940 S   0  0  0  0  0  0  0  0  0  0  0  0
    7.6055   -4.8743    4.4191 C   0  0  0  0  0  0  0  0  0  0  0  0
    6.8638   -4.3152    3.3705 C   0  0  0  0  0  0  0  0  0  0  0  0
    6.6021   -4.2486    0.3457 N   0  0  0  0  0  0  0  0  0  0  0  0
    6.2098   -4.8430   -0.7888 C   0  0  0  0  0  0  0  0  0  0  0  0
    5.2342   -4.4228   -1.6110 N   0  0  0  0  0  0  0  0  0  0  0  0
    4.6313   -3.2798   -1.2846 C   0  0  0  0  0  0  0  0  0  0  0  0
    3.6031   -2.7924   -2.0961 C   0  0  0  0  0  0  0  0  0  0  0  0
    2.9310   -1.5982   -1.8028 C   0  0  0  0  0  0  0  0  0  0  0  0
    2.0070   -1.2243   -2.7570 O   0  0  0  0  0  0  0  0  0  0  0  0
    1.8235    0.1880   -2.8527 C   0  0  0  0  0  0  0  0  0  0  0  0
    1.4578    0.6310   -4.2637 C   0  0  0  0  0  0  0  0  0  0  0  0
    1.3357    2.1637   -4.2439 C   0  0  0  0  0  0  0  0  0  0  0  0
    1.0378    2.7648   -5.5404 N   0  0  0  0  0  0  0  0  0  0  0  0
   -0.2551    2.3273   -6.0924 C   0  0  0  0  0  0  0  0  0  0  0  0
   -0.4809    2.9451   -7.4876 C   0  0  0  0  0  0  0  0  0  0  0  0
   -0.4578    4.4216   -7.5179 N   0  0  0  0  0  0  0  0  0  0  0  0
   -1.6767    4.9829   -6.9425 C   0  0  0  0  0  0  0  0  0  0  0  0
    0.7517    4.9048   -6.8200 C   0  0  0  0  0  0  0  0  0  0  0  0
    1.0342    4.2433   -5.4477 C   0  0  0  0  0  0  0  0  0  0  0  0
    3.1739    1.4823    1.1893 H   0  0  0  0  0  0  0  0  0  0  0  0
    2.9366   -0.1811    1.8139 H   0  0  0  0  0  0  0  0  0  0  0  0
    1.5472    0.8183    1.4642 H   0  0  0  0  0  0  0  0  0  0  0  0
    4.6906   -0.7322    0.9507 H   0  0  0  0  0  0  0  0  0  0  0  0
    6.6231   -1.4821    1.6982 H   0  0  0  0  0  0  0  0  0  0  0  0
    8.0574   -1.1589    3.5320 H   0  0  0  0  0  0  0  0  0  0  0  0
    9.3987   -2.1515    5.3378 H   0  0  0  0  0  0  0  0  0  0  0  0
   12.4297   -3.9260    8.8477 H   0  0  0  0  0  0  0  0  0  0  0  0
   12.8470   -8.1871    9.4109 H   0  0  0  0  0  0  0  0  0  0  0  0
   10.9487   -8.5891    7.8671 H   0  0  0  0  0  0  0  0  0  0  0  0
    7.4142   -5.9231    4.6295 H   0  0  0  0  0  0  0  0  0  0  0  0
    6.1458   -4.9439    2.8487 H   0  0  0  0  0  0  0  0  0  0  0  0
    6.7287   -5.7499   -1.0708 H   0  0  0  0  0  0  0  0  0  0  0  0
    3.3238   -3.3541   -2.9843 H   0  0  0  0  0  0  0  0  0  0  0  0
    2.7454    0.7200   -2.5904 H   0  0  0  0  0  0  0  0  0  0  0  0
    1.0093    0.4739   -2.1771 H   0  0  0  0  0  0  0  0  0  0  0  0
    0.5263    0.1409   -4.5659 H   0  0  0  0  0  0  0  0  0  0  0  0
    2.2269    0.3083   -4.9773 H   0  0  0  0  0  0  0  0  0  0  0  0
    2.3008    2.5630   -3.9022 H   0  0  0  0  0  0  0  0  0  0  0  0
    0.5889    2.4627   -3.4970 H   0  0  0  0  0  0  0  0  0  0  0  0
   -1.0771    2.5921   -5.4146 H   0  0  0  0  0  0  0  0  0  0  0  0
   -0.2767    1.2408   -6.2167 H   0  0  0  0  0  0  0  0  0  0  0  0
   -1.4212    2.5693   -7.9068 H   0  0  0  0  0  0  0  0  0  0  0  0
    0.3082    2.5793   -8.1583 H   0  0  0  0  0  0  0  0  0  0  0  0
   -2.5578    4.5956   -7.4665 H   0  0  0  0  0  0  0  0  0  0  0  0
   -1.6904    6.0702   -7.0742 H   0  0  0  0  0  0  0  0  0  0  0  0
   -1.7945    4.7667   -5.8760 H   0  0  0  0  0  0  0  0  0  0  0  0
    0.7119    5.9953   -6.7010 H   0  0  0  0  0  0  0  0  0  0  0  0
    1.6136    4.7121   -7.4723 H   0  0  0  0  0  0  0  0  0  0  0  0
    0.2866    4.5816   -4.7156 H   0  0  0  0  0  0  0  0  0  0  0  0
    2.0103    4.5957   -5.0933 H   0  0  0  0  0  0  0  0  0  0  0  0
  1  2  1  0  0  0  0
  1 41  1  0  0  0  0
  1 42  1  0  0  0  0
  1 43  1  0  0  0  0
  2  3  1  0  0  0  0
  3  4  1  0  0  0  0
  3 29  2  0  0  0  0
  4  5  2  0  0  0  0
  4 44  1  0  0  0  0
  5  6  1  0  0  0  0
  5 27  1  0  0  0  0
  6  7  1  0  0  0  0
  6 24  2  0  0  0  0
  7  8  1  0  0  0  0
  7 45  1  0  0  0  0
  8  9  1  0  0  0  0
  8 23  2  0  0  0  0
  9 10  2  0  0  0  0
  9 46  1  0  0  0  0
 10 11  1  0  0  0  0
 10 47  1  0  0  0  0
 11 12  1  0  0  0  0
 11 22  2  0  0  0  0
 12 13  2  0  0  0  0
 12 21  1  0  0  0  0
 13 14  1  0  0  0  0
 14 15  1  0  0  0  0
 14 20  2  0  0  0  0
 15 16  2  0  0  0  0
 15 48  1  0  0  0  0
 16 17  1  0  0  0  0
 16 18  1  0  0  0  0
 18 19  2  0  0  0  0
 18 49  1  0  0  0  0
 19 20  1  0  0  0  0
 19 50  1  0  0  0  0
 20 21  1  0  0  0  0
 22 23  1  0  0  0  0
 22 51  1  0  0  0  0
 23 52  1  0  0  0  0
 24 25  1  0  0  0  0
 25 26  2  0  0  0  0
 25 53  1  0  0  0  0
 26 27  1  0  0  0  0
 27 28  2  0  0  0  0
 28 29  1  0  0  0  0
 28 54  1  0  0  0  0
 29 30  1  0  0  0  0
 30 31  1  0  0  0  0
 31 32  1  0  0  0  0
 31 55  1  0  0  0  0
 31 56  1  0  0  0  0
 32 33  1  0  0  0  0
 32 57  1  0  0  0  0
 32 58  1  0  0  0  0
 33 34  1  0  0  0  0
 33 59  1  0  0  0  0
 33 60  1  0  0  0  0
 34 35  1  0  0  0  0
 34 40  1  0  0  0  0
 35 36  1  0  0  0  0
 35 61  1  0  0  0  0
 35 62  1  0  0  0  0
 36 37  1  0  0  0  0
 36 63  1  0  0  0  0
 36 64  1  0  0  0  0
 37 38  1  0  0  0  0
 37 39  1  0  0  0  0
 38 65  1  0  0  0  0
 38 66  1  0  0  0  0
 38 67  1  0  0  0  0
 39 40  1  0  0  0  0
 39 68  1  0  0  0  0
 39 69  1  0  0  0  0
 40 70  1  0  0  0  0
 40 71  1  0  0  0  0
M  END
$$$$
