CHEMBL461991
 OpenBabel04072215383D

 47 51  0  0  0  0  0  0  0  0999 V2000
    4.5107    2.4262   -5.6487 C   0  0  0  0  0  0  0  0  0  0  0  0
    3.6139    3.3642   -4.9431 C   0  0  0  0  0  0  0  0  0  0  0  0
    3.5451    3.7500   -3.6238 C   0  0  0  0  0  0  0  0  0  0  0  0
    2.4372    4.6243   -3.5323 C   0  0  0  0  0  0  0  0  0  0  0  0
    1.9305    5.1808   -2.4123 N   0  0  0  0  0  0  0  0  0  0  0  0
    2.1923    4.9089   -1.0562 C   0  0  0  0  0  0  0  0  0  0  0  0
    1.2682    5.3324   -0.0924 C   0  0  0  0  0  0  0  0  0  0  0  0
    1.4358    4.9787    1.2529 C   0  0  0  0  0  0  0  0  0  0  0  0
    0.4985    5.4301    2.2195 N   0  0  0  0  0  0  0  0  0  0  0  0
    0.1545    4.8046    3.4416 C   0  0  0  0  0  0  0  0  0  0  0  0
   -0.2099    5.5607    4.5633 C   0  0  0  0  0  0  0  0  0  0  0  0
   -0.5775    4.9414    5.7772 C   0  0  0  0  0  0  0  0  0  0  0  0
   -0.6196    3.5427    5.8954 C   0  0  0  0  0  0  0  0  0  0  0  0
   -1.0218    2.8916    7.1738 C   0  0  0  0  0  0  0  0  0  0  0  0
   -1.3998    3.5143    8.2777 N   0  0  0  0  0  0  0  0  0  0  0  0
   -1.7272    2.5916    9.2739 C   0  0  0  0  0  0  0  0  0  0  0  0
   -2.1834    2.8753   10.5817 C   0  0  0  0  0  0  0  0  0  0  0  0
   -2.4757    1.8254   11.4671 C   0  0  0  0  0  0  0  0  0  0  0  0
   -2.3265    0.5011   11.0691 C   0  0  0  0  0  0  0  0  0  0  0  0
   -1.8799    0.1940    9.7841 C   0  0  0  0  0  0  0  0  0  0  0  0
   -1.5871    1.2535    8.9106 C   0  0  0  0  0  0  0  0  0  0  0  0
   -1.0218    1.1687    7.3011 S   0  0  0  0  0  0  0  0  0  0  0  0
   -0.2835    2.7997    4.7525 C   0  0  0  0  0  0  0  0  0  0  0  0
    0.0870    3.4152    3.5489 C   0  0  0  0  0  0  0  0  0  0  0  0
    2.5627    4.2416    1.6015 C   0  0  0  0  0  0  0  0  0  0  0  0
    3.4414    3.8739    0.6029 C   0  0  0  0  0  0  0  0  0  0  0  0
    3.2740    4.1863   -0.6974 N   0  0  0  0  0  0  0  0  0  0  0  0
    1.8941    4.8295   -4.7384 N   0  0  0  0  0  0  0  0  0  0  0  0
    2.6000    4.0365   -5.5615 N   0  0  0  0  0  0  0  0  0  0  0  0
    5.2976    2.0620   -4.9797 H   0  0  0  0  0  0  0  0  0  0  0  0
    4.9914    2.9107   -6.5036 H   0  0  0  0  0  0  0  0  0  0  0  0
    3.9496    1.5582   -6.0100 H   0  0  0  0  0  0  0  0  0  0  0  0
    4.1944    3.4174   -2.8282 H   0  0  0  0  0  0  0  0  0  0  0  0
    1.1778    5.8354   -2.5659 H   0  0  0  0  0  0  0  0  0  0  0  0
    0.3918    5.8981   -0.3910 H   0  0  0  0  0  0  0  0  0  0  0  0
    0.5377    6.4419    2.2988 H   0  0  0  0  0  0  0  0  0  0  0  0
   -0.2022    6.6489    4.5158 H   0  0  0  0  0  0  0  0  0  0  0  0
   -0.8382    5.5668    6.6288 H   0  0  0  0  0  0  0  0  0  0  0  0
   -2.3037    3.9068   10.9003 H   0  0  0  0  0  0  0  0  0  0  0  0
   -2.8236    2.0465   12.4730 H   0  0  0  0  0  0  0  0  0  0  0  0
   -2.5585   -0.3066   11.7603 H   0  0  0  0  0  0  0  0  0  0  0  0
   -1.7623   -0.8376    9.4666 H   0  0  0  0  0  0  0  0  0  0  0  0
   -0.3100    1.7132    4.7516 H   0  0  0  0  0  0  0  0  0  0  0  0
    0.3011    2.7855    2.6893 H   0  0  0  0  0  0  0  0  0  0  0  0
    2.7685    3.9622    2.6278 H   0  0  0  0  0  0  0  0  0  0  0  0
    4.3336    3.2963    0.8257 H   0  0  0  0  0  0  0  0  0  0  0  0
    2.3254    3.9945   -6.5371 H   0  0  0  0  0  0  0  0  0  0  0  0
  1  2  1  0  0  0  0
  1 30  1  0  0  0  0
  1 31  1  0  0  0  0
  1 32  1  0  0  0  0
  2  3  2  0  0  0  0
  2 29  1  0  0  0  0
  3  4  1  0  0  0  0
  3 33  1  0  0  0  0
  4  5  1  0  0  0  0
  4 28  2  0  0  0  0
  5  6  1  0  0  0  0
  5 34  1  0  0  0  0
  6  7  1  0  0  0  0
  6 27  2  0  0  0  0
  7  8  2  0  0  0  0
  7 35  1  0  0  0  0
  8  9  1  0  0  0  0
  8 25  1  0  0  0  0
  9 10  1  0  0  0  0
  9 36  1  0  0  0  0
 10 11  1  0  0  0  0
 10 24  2  0  0  0  0
 11 12  2  0  0  0  0
 11 37  1  0  0  0  0
 12 13  1  0  0  0  0
 12 38  1  0  0  0  0
 13 14  1  0  0  0  0
 13 23  2  0  0  0  0
 14 15  2  0  0  0  0
 14 22  1  0  0  0  0
 15 16  1  0  0  0  0
 16 17  1  0  0  0  0
 16 21  2  0  0  0  0
 17 18  2  0  0  0  0
 17 39  1  0  0  0  0
 18 19  1  0  0  0  0
 18 40  1  0  0  0  0
 19 20  2  0  0  0  0
 19 41  1  0  0  0  0
 20 21  1  0  0  0  0
 20 42  1  0  0  0  0
 21 22  1  0  0  0  0
 23 24  1  0  0  0  0
 23 43  1  0  0  0  0
 24 44  1  0  0  0  0
 25 26  2  0  0  0  0
 25 45  1  0  0  0  0
 26 27  1  0  0  0  0
 26 46  1  0  0  0  0
 28 29  1  0  0  0  0
 29 47  1  0  0  0  0
M  END
$$$$
