CHEMBL1983268
 OpenBabel04072215363D

 75 80  0  0  0  0  0  0  0  0999 V2000
    2.3423    0.7890    0.0306 C   0  0  0  0  0  0  0  0  0  0  0  0
    0.9821    0.4292   -0.3470 N   0  0  0  0  0  0  0  0  0  0  0  0
    0.5031   -0.7208    0.4474 C   0  0  0  0  0  0  0  0  0  0  0  0
   -0.9120   -1.1509    0.0170 C   0  0  0  0  0  0  0  0  0  0  0  0
   -1.8339   -0.0136    0.0956 N   0  0  0  0  0  0  0  0  0  0  0  0
   -2.9841   -0.0533    0.8620 C   0  0  0  0  0  0  0  0  0  0  0  0
   -3.0527   -0.7793    2.0310 C   0  0  0  0  0  0  0  0  0  0  0  0
   -4.2368   -0.8551    2.7538 C   0  0  0  0  0  0  0  0  0  0  0  0
   -5.4086   -0.1690    2.3112 C   0  0  0  0  0  0  0  0  0  0  0  0
   -6.6553   -0.3281    3.0958 C   0  0  0  0  0  0  0  0  0  0  0  0
   -7.6220    0.4368    2.9002 O   0  0  0  0  0  0  0  0  0  0  0  0
   -6.7174   -1.3333    4.0871 N   0  0  0  0  0  0  0  0  0  0  0  0
   -7.7420   -1.1990    4.9705 C   0  0  0  0  0  0  0  0  0  0  0  0
   -7.5433   -0.4879    6.0818 N   0  0  0  0  0  0  0  0  0  0  0  0
   -8.7524   -0.5370    6.6485 N   0  0  0  0  0  0  0  0  0  0  0  0
   -9.4355   -1.6627    6.2795 C   0  0  0  0  0  0  0  0  0  0  0  0
  -10.3663   -2.4701    6.9192 C   0  0  0  0  0  0  0  0  0  0  0  0
  -10.9364   -3.4796    6.1382 C   0  0  0  0  0  0  0  0  0  0  0  0
  -10.7391   -3.5368    4.7465 C   0  0  0  0  0  0  0  0  0  0  0  0
  -11.5700   -4.4949    3.9183 C   0  0  0  0  0  0  0  0  0  0  0  0
  -10.8978   -5.8175    3.6464 C   0  0  0  0  0  0  0  0  0  0  0  0
  -11.0359   -6.8880    4.5424 C   0  0  0  0  0  0  0  0  0  0  0  0
  -10.3524   -8.0811    4.3170 C   0  0  0  0  0  0  0  0  0  0  0  0
  -10.4716   -9.0820    5.1993 F   0  0  0  0  0  0  0  0  0  0  0  0
   -9.5430   -8.2462    3.2030 C   0  0  0  0  0  0  0  0  0  0  0  0
   -9.4299   -7.1978    2.3020 C   0  0  0  0  0  0  0  0  0  0  0  0
   -8.6623   -7.3441    1.2143 F   0  0  0  0  0  0  0  0  0  0  0  0
  -10.0926   -5.9902    2.5118 C   0  0  0  0  0  0  0  0  0  0  0  0
   -9.7492   -2.7284    4.1478 C   0  0  0  0  0  0  0  0  0  0  0  0
   -8.9963   -1.8802    4.9803 C   0  0  0  0  0  0  0  0  0  0  0  0
   -5.3425    0.6278    1.1423 C   0  0  0  0  0  0  0  0  0  0  0  0
   -6.4152    1.3805    0.6594 N   0  0  0  0  0  0  0  0  0  0  0  0
   -6.3528    2.6407   -0.0945 C   0  0  0  0  0  0  0  0  0  0  0  0
   -6.1731    2.4344   -1.6017 C   0  0  0  0  0  0  0  0  0  0  0  0
   -5.5791    3.6332   -2.3238 C   0  0  0  0  0  0  0  0  0  0  0  0
   -4.5028    4.2242   -1.6042 O   0  0  0  0  0  0  0  0  0  0  0  0
   -4.9197    4.7415   -0.3388 C   0  0  0  0  0  0  0  0  0  0  0  0
   -5.4028    3.6402    0.5784 C   0  0  0  0  0  0  0  0  0  0  0  0
   -4.1254    0.6434    0.4484 C   0  0  0  0  0  0  0  0  0  0  0  0
   -1.3968    1.2213   -0.5743 C   0  0  0  0  0  0  0  0  0  0  0  0
    0.0582    1.5669   -0.1568 C   0  0  0  0  0  0  0  0  0  0  0  0
    3.0154   -0.0558   -0.1476 H   0  0  0  0  0  0  0  0  0  0  0  0
    2.4211    1.0798    1.0836 H   0  0  0  0  0  0  0  0  0  0  0  0
    2.7023    1.6158   -0.5900 H   0  0  0  0  0  0  0  0  0  0  0  0
    0.4940   -0.4720    1.5187 H   0  0  0  0  0  0  0  0  0  0  0  0
    1.1763   -1.5768    0.3137 H   0  0  0  0  0  0  0  0  0  0  0  0
   -1.2298   -2.0040    0.6237 H   0  0  0  0  0  0  0  0  0  0  0  0
   -0.8892   -1.5152   -1.0180 H   0  0  0  0  0  0  0  0  0  0  0  0
   -2.1689   -1.2785    2.4288 H   0  0  0  0  0  0  0  0  0  0  0  0
   -4.1960   -1.4532    3.6566 H   0  0  0  0  0  0  0  0  0  0  0  0
   -5.8558   -1.3996    4.5937 H   0  0  0  0  0  0  0  0  0  0  0  0
   -9.0747    0.2546    7.1985 H   0  0  0  0  0  0  0  0  0  0  0  0
  -10.5664   -2.3830    7.9824 H   0  0  0  0  0  0  0  0  0  0  0  0
  -11.5645   -4.2201    6.6284 H   0  0  0  0  0  0  0  0  0  0  0  0
  -11.8523   -4.0138    2.9719 H   0  0  0  0  0  0  0  0  0  0  0  0
  -12.5271   -4.6747    4.4272 H   0  0  0  0  0  0  0  0  0  0  0  0
  -11.6643   -6.8036    5.4247 H   0  0  0  0  0  0  0  0  0  0  0  0
   -9.0068   -9.1732    3.0420 H   0  0  0  0  0  0  0  0  0  0  0  0
   -9.9658   -5.1896    1.7880 H   0  0  0  0  0  0  0  0  0  0  0  0
   -9.5321   -2.7863    3.0858 H   0  0  0  0  0  0  0  0  0  0  0  0
   -7.2387    0.8028    0.4916 H   0  0  0  0  0  0  0  0  0  0  0  0
   -7.3466    3.0940    0.0113 H   0  0  0  0  0  0  0  0  0  0  0  0
   -7.1410    2.1937   -2.0510 H   0  0  0  0  0  0  0  0  0  0  0  0
   -5.5533    1.5564   -1.8156 H   0  0  0  0  0  0  0  0  0  0  0  0
   -6.3410    4.3903   -2.5437 H   0  0  0  0  0  0  0  0  0  0  0  0
   -5.1740    3.3063   -3.2881 H   0  0  0  0  0  0  0  0  0  0  0  0
   -5.6703    5.5372   -0.4849 H   0  0  0  0  0  0  0  0  0  0  0  0
   -4.0320    5.2285    0.1043 H   0  0  0  0  0  0  0  0  0  0  0  0
   -5.8874    4.0946    1.4545 H   0  0  0  0  0  0  0  0  0  0  0  0
   -4.5019    3.1482    0.9712 H   0  0  0  0  0  0  0  0  0  0  0  0
   -4.0641    1.1944   -0.4801 H   0  0  0  0  0  0  0  0  0  0  0  0
   -2.0272    2.0795   -0.3143 H   0  0  0  0  0  0  0  0  0  0  0  0
   -1.4575    1.0844   -1.6615 H   0  0  0  0  0  0  0  0  0  0  0  0
    0.0482    1.8786    0.8983 H   0  0  0  0  0  0  0  0  0  0  0  0
    0.3824    2.4269   -0.7503 H   0  0  0  0  0  0  0  0  0  0  0  0
  1  2  1  0  0  0  0
  1 42  1  0  0  0  0
  1 43  1  0  0  0  0
  1 44  1  0  0  0  0
  2  3  1  0  0  0  0
  2 41  1  0  0  0  0
  3  4  1  0  0  0  0
  3 45  1  0  0  0  0
  3 46  1  0  0  0  0
  4  5  1  0  0  0  0
  4 47  1  0  0  0  0
  4 48  1  0  0  0  0
  5  6  1  0  0  0  0
  5 40  1  0  0  0  0
  6  7  1  0  0  0  0
  6 39  2  0  0  0  0
  7  8  2  0  0  0  0
  7 49  1  0  0  0  0
  8  9  1  0  0  0  0
  8 50  1  0  0  0  0
  9 10  1  0  0  0  0
  9 31  2  0  0  0  0
 10 11  2  0  0  0  0
 10 12  1  0  0  0  0
 12 13  1  0  0  0  0
 12 51  1  0  0  0  0
 13 14  2  0  0  0  0
 13 30  1  0  0  0  0
 14 15  1  0  0  0  0
 15 16  1  0  0  0  0
 15 52  1  0  0  0  0
 16 17  1  0  0  0  0
 16 30  2  0  0  0  0
 17 18  2  0  0  0  0
 17 53  1  0  0  0  0
 18 19  1  0  0  0  0
 18 54  1  0  0  0  0
 19 20  1  0  0  0  0
 19 29  2  0  0  0  0
 20 21  1  0  0  0  0
 20 55  1  0  0  0  0
 20 56  1  0  0  0  0
 21 22  1  0  0  0  0
 21 28  2  0  0  0  0
 22 23  2  0  0  0  0
 22 57  1  0  0  0  0
 23 24  1  0  0  0  0
 23 25  1  0  0  0  0
 25 26  2  0  0  0  0
 25 58  1  0  0  0  0
 26 27  1  0  0  0  0
 26 28  1  0  0  0  0
 28 59  1  0  0  0  0
 29 30  1  0  0  0  0
 29 60  1  0  0  0  0
 31 32  1  0  0  0  0
 31 39  1  0  0  0  0
 32 33  1  0  0  0  0
 32 61  1  0  0  0  0
 33 34  1  0  0  0  0
 33 38  1  0  0  0  0
 33 62  1  0  0  0  0
 34 35  1  0  0  0  0
 34 63  1  0  0  0  0
 34 64  1  0  0  0  0
 35 36  1  0  0  0  0
 35 65  1  0  0  0  0
 35 66  1  0  0  0  0
 36 37  1  0  0  0  0
 37 38  1  0  0  0  0
 37 67  1  0  0  0  0
 37 68  1  0  0  0  0
 38 69  1  0  0  0  0
 38 70  1  0  0  0  0
 39 71  1  0  0  0  0
 40 41  1  0  0  0  0
 40 72  1  0  0  0  0
 40 73  1  0  0  0  0
 41 74  1  0  0  0  0
 41 75  1  0  0  0  0
M  END
$$$$
