CHEMBL3706815
 OpenBabel04072215373D

 63 66  0  0  1  0  0  0  0  0999 V2000
    7.8814   -0.2393   -7.7492 C   0  0  0  0  0  0  0  0  0  0  0  0
    9.1203    0.1378   -7.5981 C   0  0  0  0  0  0  0  0  0  0  0  0
   10.5647    0.5775   -7.4219 C   0  0  3  0  0  0  0  0  0  0  0  0
   10.8810    1.5791   -8.5293 C   0  0  0  0  0  0  0  0  0  0  0  0
   10.7501    1.1715   -6.1313 O   0  0  0  0  0  0  0  0  0  0  0  0
   10.4885    0.3523   -5.0402 C   0  0  0  0  0  0  0  0  0  0  0  0
   10.5409   -0.9890   -5.0561 C   0  0  0  0  0  0  0  0  0  0  0  0
   10.1384   -1.8156   -3.9136 C   0  0  0  0  0  0  0  0  0  0  0  0
   10.0015   -3.0309   -4.0285 O   0  0  0  0  0  0  0  0  0  0  0  0
    9.9490   -1.1470   -2.6006 C   0  0  0  0  0  0  0  0  0  0  0  0
    9.8502   -2.0067   -1.5124 N   0  0  0  0  0  0  0  0  0  0  0  0
   10.7476   -1.9076   -0.4282 C   0  0  0  0  0  0  0  0  0  0  0  0
   11.7076   -0.9675   -0.4491 N   0  0  0  0  0  0  0  0  0  0  0  0
   12.5077   -0.8857    0.6139 C   0  0  0  0  0  0  0  0  0  0  0  0
   12.4466   -1.6548    1.6999 N   0  0  0  0  0  0  0  0  0  0  0  0
   11.4628   -2.5774    1.7141 C   0  0  0  0  0  0  0  0  0  0  0  0
   11.3022   -3.3371    2.8613 C   0  0  0  0  0  0  0  0  0  0  0  0
   10.2129   -4.2264    3.0728 C   0  0  0  0  0  0  0  0  0  0  0  0
    9.9839   -4.7244    4.3573 O   0  0  0  0  0  0  0  0  0  0  0  0
   10.6631   -3.9233    5.3596 C   0  0  0  0  0  0  0  0  0  0  0  0
   10.2181   -4.0646    6.8085 C   0  0  0  0  0  0  0  0  0  0  0  0
   10.8864   -2.9162    7.6198 C   0  0  0  0  0  0  0  0  0  0  0  0
   10.5227   -2.8606    9.0445 N   0  0  0  0  0  0  0  0  0  0  0  0
    9.0840   -2.6329    9.2505 C   0  0  0  0  0  0  0  0  0  0  0  0
    8.9191   -1.1279    9.2281 C   0  0  0  0  0  0  0  0  0  0  0  0
   10.1155   -0.6775   10.0360 C   0  0  0  0  0  0  0  0  0  0  0  0
   11.1918   -1.7173    9.7211 C   0  0  0  0  0  0  0  0  0  0  0  0
    9.3814   -4.5009    1.9897 C   0  0  0  0  0  0  0  0  0  0  0  0
    8.3340   -5.3374    1.7745 O   0  0  0  0  0  0  0  0  0  0  0  0
    7.7647   -6.2010    2.7298 C   0  0  0  0  0  0  0  0  0  0  0  0
    9.5820   -3.7665    0.8082 C   0  0  0  0  0  0  0  0  0  0  0  0
   10.5869   -2.7640    0.6822 C   0  0  0  0  0  0  0  0  0  0  0  0
    9.8910    0.1903   -2.5671 C   0  0  0  0  0  0  0  0  0  0  0  0
   10.0648    1.0339   -3.7700 C   0  0  0  0  0  0  0  0  0  0  0  0
    9.8774    2.2414   -3.7024 O   0  0  0  0  0  0  0  0  0  0  0  0
    6.8667   -0.5427   -7.8701 H   0  0  0  0  0  0  0  0  0  0  0  0
   11.2420   -0.2742   -7.5539 H   0  0  0  0  0  0  0  0  0  0  0  0
   10.3617    2.5301   -8.3726 H   0  0  0  0  0  0  0  0  0  0  0  0
   10.5810    1.1839   -9.5090 H   0  0  0  0  0  0  0  0  0  0  0  0
   11.9534    1.7914   -8.5664 H   0  0  0  0  0  0  0  0  0  0  0  0
   10.8337   -1.5692   -5.9221 H   0  0  0  0  0  0  0  0  0  0  0  0
    9.8378   -2.9776   -1.8470 H   0  0  0  0  0  0  0  0  0  0  0  0
   13.2745   -0.1167    0.6001 H   0  0  0  0  0  0  0  0  0  0  0  0
   12.0491   -3.1431    3.6120 H   0  0  0  0  0  0  0  0  0  0  0  0
   10.4929   -2.8648    5.1159 H   0  0  0  0  0  0  0  0  0  0  0  0
   11.7352   -4.1600    5.3355 H   0  0  0  0  0  0  0  0  0  0  0  0
   10.5132   -5.0393    7.2119 H   0  0  0  0  0  0  0  0  0  0  0  0
    9.1279   -4.0145    6.8391 H   0  0  0  0  0  0  0  0  0  0  0  0
   10.6711   -1.9532    7.1354 H   0  0  0  0  0  0  0  0  0  0  0  0
   11.9765   -3.0496    7.5503 H   0  0  0  0  0  0  0  0  0  0  0  0
    8.8174   -3.0254   10.2390 H   0  0  0  0  0  0  0  0  0  0  0  0
    8.4285   -3.1293    8.5342 H   0  0  0  0  0  0  0  0  0  0  0  0
    7.9690   -0.8041    9.6598 H   0  0  0  0  0  0  0  0  0  0  0  0
    8.9816   -0.7383    8.2042 H   0  0  0  0  0  0  0  0  0  0  0  0
    9.8670   -0.7092   11.1040 H   0  0  0  0  0  0  0  0  0  0  0  0
   10.4203    0.3436    9.7882 H   0  0  0  0  0  0  0  0  0  0  0  0
   11.6525   -2.0619   10.6541 H   0  0  0  0  0  0  0  0  0  0  0  0
   11.9940   -1.2691    9.1206 H   0  0  0  0  0  0  0  0  0  0  0  0
    6.9735   -6.7457    2.1913 H   0  0  0  0  0  0  0  0  0  0  0  0
    7.2743   -5.6454    3.5310 H   0  0  0  0  0  0  0  0  0  0  0  0
    8.4711   -6.9489    3.0954 H   0  0  0  0  0  0  0  0  0  0  0  0
    8.9050   -3.9476   -0.0260 H   0  0  0  0  0  0  0  0  0  0  0  0
    9.7267    0.7257   -1.6384 H   0  0  0  0  0  0  0  0  0  0  0  0
  1  2  3  0  0  0  0
  1 36  1  0  0  0  0
  2  3  1  0  0  0  0
  3  4  1  0  0  0  0
  3  5  1  0  0  0  0
  3 37  1  0  0  0  0
  4 38  1  0  0  0  0
  4 39  1  0  0  0  0
  4 40  1  0  0  0  0
  5  6  1  0  0  0  0
  6  7  2  0  0  0  0
  6 34  1  0  0  0  0
  7  8  1  0  0  0  0
  7 41  1  0  0  0  0
  8  9  2  0  0  0  0
  8 10  1  0  0  0  0
 10 11  1  0  0  0  0
 10 33  2  0  0  0  0
 11 12  1  0  0  0  0
 11 42  1  0  0  0  0
 12 13  1  0  0  0  0
 12 32  2  0  0  0  0
 13 14  2  0  0  0  0
 14 15  1  0  0  0  0
 14 43  1  0  0  0  0
 15 16  2  0  0  0  0
 16 17  1  0  0  0  0
 16 32  1  0  0  0  0
 17 18  2  0  0  0  0
 17 44  1  0  0  0  0
 18 19  1  0  0  0  0
 18 28  1  0  0  0  0
 19 20  1  0  0  0  0
 20 21  1  0  0  0  0
 20 45  1  0  0  0  0
 20 46  1  0  0  0  0
 21 22  1  0  0  0  0
 21 47  1  0  0  0  0
 21 48  1  0  0  0  0
 22 23  1  0  0  0  0
 22 49  1  0  0  0  0
 22 50  1  0  0  0  0
 23 24  1  0  0  0  0
 23 27  1  0  0  0  0
 24 25  1  0  0  0  0
 24 51  1  0  0  0  0
 24 52  1  0  0  0  0
 25 26  1  0  0  0  0
 25 53  1  0  0  0  0
 25 54  1  0  0  0  0
 26 27  1  0  0  0  0
 26 55  1  0  0  0  0
 26 56  1  0  0  0  0
 27 57  1  0  0  0  0
 27 58  1  0  0  0  0
 28 29  1  0  0  0  0
 28 31  2  0  0  0  0
 29 30  1  0  0  0  0
 30 59  1  0  0  0  0
 30 60  1  0  0  0  0
 30 61  1  0  0  0  0
 31 32  1  0  0  0  0
 31 62  1  0  0  0  0
 33 34  1  0  0  0  0
 33 63  1  0  0  0  0
 34 35  2  0  0  0  0
M  END
$$$$
