CHEMBL3690389
 OpenBabel04072215373D

 41 44  0  0  0  0  0  0  0  0999 V2000
    2.7356    2.0102    2.4250 O   0  0  0  0  0  0  0  0  0  0  0  0
    2.3430    1.4209    1.4304 C   0  0  0  0  0  0  0  0  0  0  0  0
    1.0027    1.2136    1.1845 N   0  0  0  0  0  0  0  0  0  0  0  0
    0.0308    1.5861    2.2203 C   0  0  0  0  0  0  0  0  0  0  0  0
   -0.1686    0.5455    3.3313 C   0  0  0  0  0  0  0  0  0  0  0  0
    0.5833   -0.5616    3.1269 F   0  0  0  0  0  0  0  0  0  0  0  0
    0.1254    1.0352    4.5520 F   0  0  0  0  0  0  0  0  0  0  0  0
   -1.4621    0.1377    3.3554 F   0  0  0  0  0  0  0  0  0  0  0  0
    3.1212    0.8940    0.4238 N   0  0  0  0  0  0  0  0  0  0  0  0
    4.5306    0.8940    0.3647 C   0  0  0  0  0  0  0  0  0  0  0  0
    5.3604    1.4992    1.3038 C   0  0  0  0  0  0  0  0  0  0  0  0
    6.7111    1.5022    1.2268 N   0  0  0  0  0  0  0  0  0  0  0  0
    7.2583    0.8644    0.1698 C   0  0  0  0  0  0  0  0  0  0  0  0
    6.5402    0.1839   -0.8133 C   0  0  0  0  0  0  0  0  0  0  0  0
    7.2063   -0.4759   -1.9441 C   0  0  0  0  0  0  0  0  0  0  0  0
    6.7844   -0.6486   -3.2543 C   0  0  0  0  0  0  0  0  0  0  0  0
    7.7978   -1.0852   -4.0665 N   0  0  0  0  0  0  0  0  0  0  0  0
    8.8368   -1.2267   -3.2741 C   0  0  0  0  0  0  0  0  0  0  0  0
   10.1972   -1.5463   -3.5588 C   0  0  0  0  0  0  0  0  0  0  0  0
   11.0974   -1.7304   -2.5582 C   0  0  0  0  0  0  0  0  0  0  0  0
   12.4648   -1.9654   -2.9413 C   0  0  0  0  0  0  0  0  0  0  0  0
   12.8947   -2.4818   -4.0807 N   0  0  0  0  0  0  0  0  0  0  0  0
   14.2681   -2.5693   -4.1643 N   0  0  0  0  0  0  0  0  0  0  0  0
   14.8533   -2.0930   -3.0898 C   0  0  0  0  0  0  0  0  0  0  0  0
   13.7807   -1.5040   -1.8979 S   0  0  0  0  0  0  0  0  0  0  0  0
   10.6183   -1.6823   -1.1658 C   0  0  0  0  0  0  0  0  0  0  0  0
    9.3553   -1.3214   -0.8962 C   0  0  0  0  0  0  0  0  0  0  0  0
    8.4873   -1.0174   -1.9443 N   0  0  0  0  0  0  0  0  0  0  0  0
    5.1446    0.2355   -0.7109 C   0  0  0  0  0  0  0  0  0  0  0  0
    0.7781    0.3867    0.6514 H   0  0  0  0  0  0  0  0  0  0  0  0
   -0.9177    1.7516    1.6991 H   0  0  0  0  0  0  0  0  0  0  0  0
    0.3310    2.5427    2.6633 H   0  0  0  0  0  0  0  0  0  0  0  0
    2.6318    0.4917   -0.3600 H   0  0  0  0  0  0  0  0  0  0  0  0
    4.9784    2.0346    2.1672 H   0  0  0  0  0  0  0  0  0  0  0  0
    8.3398    0.9497    0.1392 H   0  0  0  0  0  0  0  0  0  0  0  0
    5.8160   -0.4078   -3.6747 H   0  0  0  0  0  0  0  0  0  0  0  0
   10.4825   -1.5857   -4.6063 H   0  0  0  0  0  0  0  0  0  0  0  0
   15.9266   -2.0747   -2.9716 H   0  0  0  0  0  0  0  0  0  0  0  0
   11.2964   -1.9475   -0.3605 H   0  0  0  0  0  0  0  0  0  0  0  0
    8.9727   -1.2803    0.1161 H   0  0  0  0  0  0  0  0  0  0  0  0
    4.5320   -0.2444   -1.4693 H   0  0  0  0  0  0  0  0  0  0  0  0
  1  2  2  0  0  0  0
  2  3  1  0  0  0  0
  2  9  1  0  0  0  0
  3  4  1  0  0  0  0
  3 30  1  0  0  0  0
  4  5  1  0  0  0  0
  4 31  1  0  0  0  0
  4 32  1  0  0  0  0
  5  6  1  0  0  0  0
  5  7  1  0  0  0  0
  5  8  1  0  0  0  0
  9 10  1  0  0  0  0
  9 33  1  0  0  0  0
 10 11  1  0  0  0  0
 10 29  2  0  0  0  0
 11 12  2  0  0  0  0
 11 34  1  0  0  0  0
 12 13  1  0  0  0  0
 13 14  2  0  0  0  0
 13 35  1  0  0  0  0
 14 15  1  0  0  0  0
 14 29  1  0  0  0  0
 15 16  2  0  0  0  0
 15 28  1  0  0  0  0
 16 17  1  0  0  0  0
 16 36  1  0  0  0  0
 17 18  2  0  0  0  0
 18 19  1  0  0  0  0
 18 28  1  0  0  0  0
 19 20  2  0  0  0  0
 19 37  1  0  0  0  0
 20 21  1  0  0  0  0
 20 26  1  0  0  0  0
 21 22  2  0  0  0  0
 21 25  1  0  0  0  0
 22 23  1  0  0  0  0
 23 24  2  0  0  0  0
 24 25  1  0  0  0  0
 24 38  1  0  0  0  0
 26 27  2  0  0  0  0
 26 39  1  0  0  0  0
 27 28  1  0  0  0  0
 27 40  1  0  0  0  0
 29 41  1  0  0  0  0
M  END
$$$$
