CHEMBL3236668
 OpenBabel04072215363D

 34 38  0  0  0  0  0  0  0  0999 V2000
    0.8819    0.2688    0.8529 O   0  0  0  0  0  0  0  0  0  0  0  0
    2.0652    0.1004    0.6196 C   0  0  0  0  0  0  0  0  0  0  0  0
    2.7618   -1.1435    0.5980 C   0  0  0  0  0  0  0  0  0  0  0  0
    2.1726   -2.1981    1.1725 O   0  0  0  0  0  0  0  0  0  0  0  0
    2.9299   -3.2447    0.8704 C   0  0  0  0  0  0  0  0  0  0  0  0
    2.5964   -4.5343    1.2746 C   0  0  0  0  0  0  0  0  0  0  0  0
    2.7884   -5.3190    0.1640 C   0  0  0  0  0  0  0  0  0  0  0  0
    1.6458   -5.7681   -0.4712 O   0  0  0  0  0  0  0  0  0  0  0  0
    3.9400   -5.1860   -0.6095 C   0  0  0  0  0  0  0  0  0  0  0  0
    4.2450   -6.1572   -1.5160 O   0  0  0  0  0  0  0  0  0  0  0  0
    4.6733   -3.9813   -0.5928 C   0  0  0  0  0  0  0  0  0  0  0  0
    3.9973   -2.9018    0.0314 C   0  0  0  0  0  0  0  0  0  0  0  0
    4.0023   -1.4673    0.0393 C   0  0  0  0  0  0  0  0  0  0  0  0
    4.8674   -0.3974   -0.5058 C   0  0  0  0  0  0  0  0  0  0  0  0
    5.9450   -0.6047   -1.0280 O   0  0  0  0  0  0  0  0  0  0  0  0
    4.2282    0.9191   -0.2940 C   0  0  0  0  0  0  0  0  0  0  0  0
    4.8001    2.1190   -0.6299 O   0  0  0  0  0  0  0  0  0  0  0  0
    3.8626    3.0929   -0.3641 C   0  0  0  0  0  0  0  0  0  0  0  0
    3.9390    4.4472   -0.6865 C   0  0  0  0  0  0  0  0  0  0  0  0
    2.7714    5.1820   -0.4515 C   0  0  0  0  0  0  0  0  0  0  0  0
    2.6360    6.4139   -1.0273 O   0  0  0  0  0  0  0  0  0  0  0  0
    1.6736    4.6598    0.2347 C   0  0  0  0  0  0  0  0  0  0  0  0
    0.5931    5.4389    0.5240 O   0  0  0  0  0  0  0  0  0  0  0  0
    1.6377    3.3282    0.5961 C   0  0  0  0  0  0  0  0  0  0  0  0
    2.7307    2.5324    0.2212 C   0  0  0  0  0  0  0  0  0  0  0  0
    2.9677    1.1506    0.2265 C   0  0  0  0  0  0  0  0  0  0  0  0
    3.2150   -4.8666    2.1295 H   0  0  0  0  0  0  0  0  0  0  0  0
    0.9522   -5.1074   -0.2786 H   0  0  0  0  0  0  0  0  0  0  0  0
    3.5572   -6.8453   -1.3999 H   0  0  0  0  0  0  0  0  0  0  0  0
    5.5243   -3.8443   -1.2540 H   0  0  0  0  0  0  0  0  0  0  0  0
    4.7956    4.8706   -1.1942 H   0  0  0  0  0  0  0  0  0  0  0  0
    1.7848    6.3641   -1.5082 H   0  0  0  0  0  0  0  0  0  0  0  0
    0.9224    6.3541    0.5859 H   0  0  0  0  0  0  0  0  0  0  0  0
    0.7584    2.9056    1.0761 H   0  0  0  0  0  0  0  0  0  0  0  0
  1  2  2  0  0  0  0
  2  3  1  0  0  0  0
  2 26  1  0  0  0  0
  3  4  1  0  0  0  0
  3 13  2  0  0  0  0
  4  5  1  0  0  0  0
  5  6  1  0  0  0  0
  5 12  2  0  0  0  0
  6  7  2  0  0  0  0
  6 27  1  0  0  0  0
  7  8  1  0  0  0  0
  7  9  1  0  0  0  0
  8 28  1  0  0  0  0
  9 10  1  0  0  0  0
  9 11  2  0  0  0  0
 10 29  1  0  0  0  0
 11 12  1  0  0  0  0
 11 30  1  0  0  0  0
 12 13  1  0  0  0  0
 13 14  1  0  0  0  0
 14 15  2  0  0  0  0
 14 16  1  0  0  0  0
 16 17  1  0  0  0  0
 16 26  2  0  0  0  0
 17 18  1  0  0  0  0
 18 19  1  0  0  0  0
 18 25  2  0  0  0  0
 19 20  2  0  0  0  0
 19 31  1  0  0  0  0
 20 21  1  0  0  0  0
 20 22  1  0  0  0  0
 21 32  1  0  0  0  0
 22 23  1  0  0  0  0
 22 24  2  0  0  0  0
 23 33  1  0  0  0  0
 24 25  1  0  0  0  0
 24 34  1  0  0  0  0
 25 26  1  0  0  0  0
M  END
$$$$
