CHEMBL4448596
 OpenBabel04072215383D

 65 71  0  0  1  0  0  0  0  0999 V2000
    7.5255   -7.0883   -1.0252 C   0  0  0  0  0  0  0  0  0  0  0  0
    7.6794   -8.0132    0.0437 O   0  0  0  0  0  0  0  0  0  0  0  0
    6.9611   -7.7718    1.1843 C   0  0  0  0  0  0  0  0  0  0  0  0
    7.1553   -8.7361    2.1938 C   0  0  0  0  0  0  0  0  0  0  0  0
    6.4953   -8.6425    3.4171 C   0  0  0  0  0  0  0  0  0  0  0  0
    5.6142   -7.5947    3.5671 C   0  0  0  0  0  0  0  0  0  0  0  0
    5.3557   -6.6389    2.5691 C   0  0  0  0  0  0  0  0  0  0  0  0
    6.0828   -6.6967    1.3878 C   0  0  0  0  0  0  0  0  0  0  0  0
    4.3088   -5.6981    3.1007 C   0  0  1  0  0  0  0  0  0  0  0  0
    4.2058   -4.2671    2.6638 C   0  0  0  0  0  0  0  0  0  0  0  0
    3.0585   -5.2157    2.3803 C   0  0  1  0  0  0  0  0  0  0  0  0
    2.6709   -5.5439    0.9568 C   0  0  0  0  0  0  0  0  0  0  0  0
    2.1412   -4.5453    0.1199 C   0  0  0  0  0  0  0  0  0  0  0  0
    1.6898   -4.8133   -1.1836 C   0  0  0  0  0  0  0  0  0  0  0  0
    1.7838   -6.1244   -1.6864 C   0  0  0  0  0  0  0  0  0  0  0  0
    1.4930   -6.7976   -2.9212 C   0  0  0  0  0  0  0  0  0  0  0  0
    1.0297   -6.2253   -4.1852 C   0  0  0  0  0  0  0  0  0  0  0  0
    1.3796   -4.9239   -4.5465 C   0  0  0  0  0  0  0  0  0  0  0  0
    0.9592   -4.3880   -5.7638 C   0  0  0  0  0  0  0  0  0  0  0  0
    0.1937   -5.1262   -6.6764 C   0  0  0  0  0  0  0  0  0  0  0  0
   -0.1382   -4.5725   -7.8923 N   0  0  0  0  0  0  0  0  0  0  0  0
   -0.3900   -5.3807   -9.0912 C   0  0  0  0  0  0  0  0  0  0  0  0
    0.1553   -4.6256  -10.3299 C   0  0  0  0  0  0  0  0  0  0  0  0
   -0.3963   -3.2545  -10.4579 N   0  0  0  0  0  0  0  0  0  0  0  0
    0.1809   -2.5712  -11.6108 C   0  0  0  0  0  0  0  0  0  0  0  0
   -0.1144   -2.4993   -9.2150 C   0  0  0  0  0  0  0  0  0  0  0  0
   -0.6781   -3.2056   -7.9640 C   0  0  0  0  0  0  0  0  0  0  0  0
   -0.1375   -6.4366   -6.3139 C   0  0  0  0  0  0  0  0  0  0  0  0
    0.2707   -6.9798   -5.0860 C   0  0  0  0  0  0  0  0  0  0  0  0
    1.7343   -8.1161   -2.8116 N   0  0  0  0  0  0  0  0  0  0  0  0
    2.2002   -8.2691   -1.5647 N   0  0  0  0  0  0  0  0  0  0  0  0
    2.2704   -7.1109   -0.8425 C   0  0  0  0  0  0  0  0  0  0  0  0
    2.7032   -6.8621    0.4673 C   0  0  0  0  0  0  0  0  0  0  0  0
    4.1238   -6.1427    4.5354 C   0  0  0  0  0  0  0  0  0  0  0  0
    3.4131   -5.5875    5.3610 O   0  0  0  0  0  0  0  0  0  0  0  0
    4.8751   -7.2878    4.7108 N   0  0  0  0  0  0  0  0  0  0  0  0
    8.0015   -7.5198   -1.9109 H   0  0  0  0  0  0  0  0  0  0  0  0
    8.0353   -6.1496   -0.7876 H   0  0  0  0  0  0  0  0  0  0  0  0
    6.4731   -6.9169   -1.2740 H   0  0  0  0  0  0  0  0  0  0  0  0
    7.8412   -9.5630    2.0166 H   0  0  0  0  0  0  0  0  0  0  0  0
    6.6706   -9.3666    4.2038 H   0  0  0  0  0  0  0  0  0  0  0  0
    5.9478   -5.9149    0.6500 H   0  0  0  0  0  0  0  0  0  0  0  0
    4.8133   -3.9286    1.8334 H   0  0  0  0  0  0  0  0  0  0  0  0
    4.0575   -3.5145    3.4306 H   0  0  0  0  0  0  0  0  0  0  0  0
    2.1872   -5.0851    3.0251 H   0  0  0  0  0  0  0  0  0  0  0  0
    2.0448   -3.5270    0.4967 H   0  0  0  0  0  0  0  0  0  0  0  0
    1.2608   -4.0109   -1.7772 H   0  0  0  0  0  0  0  0  0  0  0  0
    2.0186   -4.3134   -3.9175 H   0  0  0  0  0  0  0  0  0  0  0  0
    1.2958   -3.3867   -6.0213 H   0  0  0  0  0  0  0  0  0  0  0  0
   -1.4653   -5.5680   -9.2007 H   0  0  0  0  0  0  0  0  0  0  0  0
    0.1208   -6.3495   -9.0403 H   0  0  0  0  0  0  0  0  0  0  0  0
   -0.0868   -5.2080  -11.2256 H   0  0  0  0  0  0  0  0  0  0  0  0
    1.2515   -4.5814  -10.2533 H   0  0  0  0  0  0  0  0  0  0  0  0
   -0.0590   -3.1108  -12.5332 H   0  0  0  0  0  0  0  0  0  0  0  0
    1.2701   -2.4763  -11.5377 H   0  0  0  0  0  0  0  0  0  0  0  0
   -0.2468   -1.5677  -11.7108 H   0  0  0  0  0  0  0  0  0  0  0  0
   -0.5598   -1.5000   -9.2786 H   0  0  0  0  0  0  0  0  0  0  0  0
    0.9696   -2.3699   -9.0862 H   0  0  0  0  0  0  0  0  0  0  0  0
   -1.7735   -3.2498   -8.0184 H   0  0  0  0  0  0  0  0  0  0  0  0
   -0.4357   -2.6006   -7.0843 H   0  0  0  0  0  0  0  0  0  0  0  0
   -0.7312   -7.0593   -6.9766 H   0  0  0  0  0  0  0  0  0  0  0  0
   -0.0018   -8.0056   -4.8448 H   0  0  0  0  0  0  0  0  0  0  0  0
    2.4640   -9.1984   -1.2631 H   0  0  0  0  0  0  0  0  0  0  0  0
    3.0454   -7.6752    1.0985 H   0  0  0  0  0  0  0  0  0  0  0  0
    4.9119   -7.7862    5.5833 H   0  0  0  0  0  0  0  0  0  0  0  0
  1  2  1  0  0  0  0
  1 37  1  0  0  0  0
  1 38  1  0  0  0  0
  1 39  1  0  0  0  0
  2  3  1  0  0  0  0
  3  4  1  0  0  0  0
  3  8  2  0  0  0  0
  4  5  2  0  0  0  0
  4 40  1  0  0  0  0
  5  6  1  0  0  0  0
  5 41  1  0  0  0  0
  6  7  2  0  0  0  0
  6 36  1  0  0  0  0
  7  8  1  0  0  0  0
  8 42  1  0  0  0  0
  9  7  1  6  0  0  0
  9 10  1  0  0  0  0
  9 11  1  0  0  0  0
  9 34  1  0  0  0  0
 10 11  1  0  0  0  0
 10 43  1  0  0  0  0
 10 44  1  0  0  0  0
 11 12  1  0  0  0  0
 11 45  1  1  0  0  0
 12 13  1  0  0  0  0
 12 33  2  0  0  0  0
 13 14  2  0  0  0  0
 13 46  1  0  0  0  0
 14 15  1  0  0  0  0
 14 47  1  0  0  0  0
 15 16  1  0  0  0  0
 15 32  2  0  0  0  0
 16 17  1  0  0  0  0
 16 30  2  0  0  0  0
 17 18  1  0  0  0  0
 17 29  2  0  0  0  0
 18 19  2  0  0  0  0
 18 48  1  0  0  0  0
 19 20  1  0  0  0  0
 19 49  1  0  0  0  0
 20 21  1  0  0  0  0
 20 28  2  0  0  0  0
 21 22  1  0  0  0  0
 21 27  1  0  0  0  0
 22 23  1  0  0  0  0
 22 50  1  0  0  0  0
 22 51  1  0  0  0  0
 23 24  1  0  0  0  0
 23 52  1  0  0  0  0
 23 53  1  0  0  0  0
 24 25  1  0  0  0  0
 24 26  1  0  0  0  0
 25 54  1  0  0  0  0
 25 55  1  0  0  0  0
 25 56  1  0  0  0  0
 26 27  1  0  0  0  0
 26 57  1  0  0  0  0
 26 58  1  0  0  0  0
 27 59  1  0  0  0  0
 27 60  1  0  0  0  0
 28 29  1  0  0  0  0
 28 61  1  0  0  0  0
 29 62  1  0  0  0  0
 30 31  1  0  0  0  0
 31 32  1  0  0  0  0
 31 63  1  0  0  0  0
 32 33  1  0  0  0  0
 33 64  1  0  0  0  0
 34 35  2  0  0  0  0
 34 36  1  0  0  0  0
 36 65  1  0  0  0  0
M  END
$$$$
