CHEMBL4089043
 OpenBabel04072215383D

 48 51  0  0  0  0  0  0  0  0999 V2000
    3.5491   -1.3233   -4.1291 N   0  0  0  0  0  0  0  0  0  0  0  0
    3.9499   -0.8625   -2.8968 C   0  0  0  0  0  0  0  0  0  0  0  0
    3.4954   -1.5238   -1.8307 N   0  0  0  0  0  0  0  0  0  0  0  0
    3.9404   -1.0972   -0.6404 C   0  0  0  0  0  0  0  0  0  0  0  0
    4.8136   -0.0358   -0.4871 C   0  0  0  0  0  0  0  0  0  0  0  0
    5.3164    0.3534    0.7527 C   0  0  0  0  0  0  0  0  0  0  0  0
    6.1949    1.4290    0.8212 C   0  0  0  0  0  0  0  0  0  0  0  0
    6.5422    2.1695   -0.3228 C   0  0  0  0  0  0  0  0  0  0  0  0
    7.3836    3.3800   -0.1766 C   0  0  0  0  0  0  0  0  0  0  0  0
    8.2986    3.8265   -1.1465 C   0  0  0  0  0  0  0  0  0  0  0  0
    9.0814    4.9783   -0.9306 C   0  0  0  0  0  0  0  0  0  0  0  0
    8.9621    5.7220    0.2500 C   0  0  0  0  0  0  0  0  0  0  0  0
    9.7197    6.9096    0.3743 N   0  0  0  0  0  0  0  0  0  0  0  0
    9.5937    7.9894    1.2533 C   0  0  0  0  0  0  0  0  0  0  0  0
    8.4538    8.2302    2.4667 S   0  0  0  0  0  0  0  0  0  0  0  0
   10.5180    8.9811    0.8887 N   0  0  0  0  0  0  0  0  0  0  0  0
   10.9766   10.0026    1.7566 C   0  0  0  0  0  0  0  0  0  0  0  0
   11.3697    9.6268    3.0554 C   0  0  0  0  0  0  0  0  0  0  0  0
   11.6266   10.5821    4.0334 C   0  0  0  0  0  0  0  0  0  0  0  0
   11.5394   11.9262    3.7024 C   0  0  0  0  0  0  0  0  0  0  0  0
   11.7509   13.2313    5.0534 Br  0  0  0  0  0  0  0  0  0  0  0  0
   11.2546   12.3158    2.3900 C   0  0  0  0  0  0  0  0  0  0  0  0
   10.9979   11.3587    1.3942 C   0  0  0  0  0  0  0  0  0  0  0  0
   10.5418   11.8923    0.2240 O   0  0  0  0  0  0  0  0  0  0  0  0
   11.0548   11.4358   -1.0156 C   0  0  0  0  0  0  0  0  0  0  0  0
   11.6534   10.2281   -0.9502 F   0  0  0  0  0  0  0  0  0  0  0  0
   10.0219   11.3274   -1.8824 F   0  0  0  0  0  0  0  0  0  0  0  0
   11.9350   12.3284   -1.5124 F   0  0  0  0  0  0  0  0  0  0  0  0
    8.0943    5.2547    1.2235 C   0  0  0  0  0  0  0  0  0  0  0  0
    7.2992    4.1348    0.9983 C   0  0  0  0  0  0  0  0  0  0  0  0
    6.0262    1.7322   -1.5566 C   0  0  0  0  0  0  0  0  0  0  0  0
    5.1805    0.6270   -1.6655 C   0  0  0  0  0  0  0  0  0  0  0  0
    4.7399    0.2177   -2.8623 N   0  0  0  0  0  0  0  0  0  0  0  0
    2.6936   -1.8512   -4.0356 H   0  0  0  0  0  0  0  0  0  0  0  0
    3.5657   -0.5710   -4.8038 H   0  0  0  0  0  0  0  0  0  0  0  0
    3.5689   -1.6554    0.2146 H   0  0  0  0  0  0  0  0  0  0  0  0
    5.0446   -0.1729    1.6633 H   0  0  0  0  0  0  0  0  0  0  0  0
    6.6006    1.6841    1.7984 H   0  0  0  0  0  0  0  0  0  0  0  0
    8.4198    3.2876   -2.0838 H   0  0  0  0  0  0  0  0  0  0  0  0
    9.7626    5.2929   -1.7161 H   0  0  0  0  0  0  0  0  0  0  0  0
   10.4612    7.0131   -0.3067 H   0  0  0  0  0  0  0  0  0  0  0  0
   10.4604    9.2137   -0.0932 H   0  0  0  0  0  0  0  0  0  0  0  0
   11.4182    8.5747    3.3316 H   0  0  0  0  0  0  0  0  0  0  0  0
   11.8434   10.2615    5.0487 H   0  0  0  0  0  0  0  0  0  0  0  0
   11.1757   13.3736    2.1513 H   0  0  0  0  0  0  0  0  0  0  0  0
    8.0023    5.7055    2.2009 H   0  0  0  0  0  0  0  0  0  0  0  0
    6.5972    3.8718    1.7866 H   0  0  0  0  0  0  0  0  0  0  0  0
    6.2661    2.2711   -2.4739 H   0  0  0  0  0  0  0  0  0  0  0  0
  1  2  1  0  0  0  0
  1 34  1  0  0  0  0
  1 35  1  0  0  0  0
  2  3  1  0  0  0  0
  2 33  2  0  0  0  0
  3  4  2  0  0  0  0
  4  5  1  0  0  0  0
  4 36  1  0  0  0  0
  5  6  1  0  0  0  0
  5 32  2  0  0  0  0
  6  7  2  0  0  0  0
  6 37  1  0  0  0  0
  7  8  1  0  0  0  0
  7 38  1  0  0  0  0
  8  9  1  0  0  0  0
  8 31  2  0  0  0  0
  9 10  1  0  0  0  0
  9 30  2  0  0  0  0
 10 11  2  0  0  0  0
 10 39  1  0  0  0  0
 11 12  1  0  0  0  0
 11 40  1  0  0  0  0
 12 13  1  0  0  0  0
 12 29  2  0  0  0  0
 13 14  1  0  0  0  0
 13 41  1  0  0  0  0
 14 15  2  0  0  0  0
 14 16  1  0  0  0  0
 16 17  1  0  0  0  0
 16 42  1  0  0  0  0
 17 18  1  0  0  0  0
 17 23  2  0  0  0  0
 18 19  2  0  0  0  0
 18 43  1  0  0  0  0
 19 20  1  0  0  0  0
 19 44  1  0  0  0  0
 20 21  1  0  0  0  0
 20 22  2  0  0  0  0
 22 23  1  0  0  0  0
 22 45  1  0  0  0  0
 23 24  1  0  0  0  0
 24 25  1  0  0  0  0
 25 26  1  0  0  0  0
 25 27  1  0  0  0  0
 25 28  1  0  0  0  0
 29 30  1  0  0  0  0
 29 46  1  0  0  0  0
 30 47  1  0  0  0  0
 31 32  1  0  0  0  0
 31 48  1  0  0  0  0
 32 33  1  0  0  0  0
M  END
$$$$
