CHEMBL387929
 OpenBabel04072215373D

 63 68  0  0  0  0  0  0  0  0999 V2000
   -3.3286    4.4150    2.8147 C   0  0  0  0  0  0  0  0  0  0  0  0
   -2.3857    3.3343    3.0805 N   0  0  0  0  0  0  0  0  0  0  0  0
   -3.0753    2.1357    3.5840 C   0  0  0  0  0  0  0  0  0  0  0  0
   -2.0691    0.9948    3.8588 C   0  0  0  0  0  0  0  0  0  0  0  0
   -1.2898    0.5728    2.6737 N   0  0  0  0  0  0  0  0  0  0  0  0
   -2.0981   -0.0916    1.6366 C   0  0  0  0  0  0  0  0  0  0  0  0
   -2.7737   -1.3810    2.0699 C   0  0  0  0  0  0  0  0  0  0  0  0
   -2.1088   -2.6240    1.9158 C   0  0  0  0  0  0  0  0  0  0  0  0
   -2.7265   -3.8342    2.2543 C   0  0  0  0  0  0  0  0  0  0  0  0
   -3.9935   -3.7686    2.7822 C   0  0  0  0  0  0  0  0  0  0  0  0
   -4.6716   -2.5386    2.9835 C   0  0  0  0  0  0  0  0  0  0  0  0
   -4.0741   -1.3484    2.6087 C   0  0  0  0  0  0  0  0  0  0  0  0
   -6.0518   -2.7006    3.6452 C   0  0  0  0  0  0  0  0  0  0  0  0
   -6.0423   -4.1857    3.7387 C   0  0  0  0  0  0  0  0  0  0  0  0
   -6.8281   -5.2630    4.1564 C   0  0  0  0  0  0  0  0  0  0  0  0
   -8.1538   -5.1656    4.7733 C   0  0  0  0  0  0  0  0  0  0  0  0
   -9.1153   -6.1525    4.7270 C   0  0  0  0  0  0  0  0  0  0  0  0
  -10.5529   -5.6907    5.5323 S   0  0  0  0  0  0  0  0  0  0  0  0
   -9.8895   -4.1805    5.9757 C   0  0  0  0  0  0  0  0  0  0  0  0
  -10.6003   -3.2051    6.7322 C   0  0  0  0  0  0  0  0  0  0  0  0
  -11.2916   -2.3449    7.4268 C   0  0  0  0  0  0  0  0  0  0  0  0
  -12.0974   -1.3422    8.2364 C   0  0  0  0  0  0  0  0  0  0  0  0
  -11.9891   -0.0498    7.6410 O   0  0  0  0  0  0  0  0  0  0  0  0
  -12.6938    0.9410    8.2726 C   0  0  0  0  0  0  0  0  0  0  0  0
  -12.9742    0.9789    9.6412 C   0  0  0  0  0  0  0  0  0  0  0  0
  -13.7092    2.0406   10.1791 C   0  0  0  0  0  0  0  0  0  0  0  0
  -14.1543    3.0693    9.3506 C   0  0  0  0  0  0  0  0  0  0  0  0
  -15.0777    4.3583   10.0148 Cl  0  0  0  0  0  0  0  0  0  0  0  0
  -13.8496    3.0563    7.9929 C   0  0  0  0  0  0  0  0  0  0  0  0
  -13.1136    1.9953    7.4570 C   0  0  0  0  0  0  0  0  0  0  0  0
   -8.5993   -4.0307    5.5178 C   0  0  0  0  0  0  0  0  0  0  0  0
   -6.2207   -6.4397    3.8989 N   0  0  0  0  0  0  0  0  0  0  0  0
   -5.0252   -6.0903    3.3495 N   0  0  0  0  0  0  0  0  0  0  0  0
   -4.8998   -4.7565    3.2504 C   0  0  0  0  0  0  0  0  0  0  0  0
   -0.6417    1.7894    2.1190 C   0  0  0  0  0  0  0  0  0  0  0  0
   -1.5910    2.9978    1.8847 C   0  0  0  0  0  0  0  0  0  0  0  0
   -3.8971    4.6588    3.7195 H   0  0  0  0  0  0  0  0  0  0  0  0
   -4.0402    4.1629    2.0206 H   0  0  0  0  0  0  0  0  0  0  0  0
   -2.7937    5.3260    2.5259 H   0  0  0  0  0  0  0  0  0  0  0  0
   -3.8412    1.8062    2.8714 H   0  0  0  0  0  0  0  0  0  0  0  0
   -3.5932    2.3711    4.5212 H   0  0  0  0  0  0  0  0  0  0  0  0
   -2.5774    0.1444    4.3238 H   0  0  0  0  0  0  0  0  0  0  0  0
   -1.3598    1.3384    4.6253 H   0  0  0  0  0  0  0  0  0  0  0  0
   -1.4377   -0.3472    0.7962 H   0  0  0  0  0  0  0  0  0  0  0  0
   -2.8595    0.5713    1.2092 H   0  0  0  0  0  0  0  0  0  0  0  0
   -1.0956   -2.6421    1.5169 H   0  0  0  0  0  0  0  0  0  0  0  0
   -2.2133   -4.7781    2.1128 H   0  0  0  0  0  0  0  0  0  0  0  0
   -4.6011   -0.4100    2.7437 H   0  0  0  0  0  0  0  0  0  0  0  0
   -6.8486   -2.3280    2.9970 H   0  0  0  0  0  0  0  0  0  0  0  0
   -6.0604   -2.2236    4.6287 H   0  0  0  0  0  0  0  0  0  0  0  0
   -9.0436   -7.1183    4.2447 H   0  0  0  0  0  0  0  0  0  0  0  0
  -11.6691   -1.3455    9.2446 H   0  0  0  0  0  0  0  0  0  0  0  0
  -13.1447   -1.6643    8.2689 H   0  0  0  0  0  0  0  0  0  0  0  0
  -12.6219    0.2132   10.3225 H   0  0  0  0  0  0  0  0  0  0  0  0
  -13.9266    2.0586   11.2435 H   0  0  0  0  0  0  0  0  0  0  0  0
  -14.1832    3.8630    7.3458 H   0  0  0  0  0  0  0  0  0  0  0  0
  -12.8786    1.9849    6.3953 H   0  0  0  0  0  0  0  0  0  0  0  0
   -8.0101   -3.1468    5.7216 H   0  0  0  0  0  0  0  0  0  0  0  0
   -4.3850   -6.8247    3.0680 H   0  0  0  0  0  0  0  0  0  0  0  0
   -0.1191    1.5478    1.1850 H   0  0  0  0  0  0  0  0  0  0  0  0
    0.1445    2.1005    2.8205 H   0  0  0  0  0  0  0  0  0  0  0  0
   -2.2502    2.7803    1.0344 H   0  0  0  0  0  0  0  0  0  0  0  0
   -0.9794    3.8633    1.6026 H   0  0  0  0  0  0  0  0  0  0  0  0
  1  2  1  0  0  0  0
  1 37  1  0  0  0  0
  1 38  1  0  0  0  0
  1 39  1  0  0  0  0
  2  3  1  0  0  0  0
  2 36  1  0  0  0  0
  3  4  1  0  0  0  0
  3 40  1  0  0  0  0
  3 41  1  0  0  0  0
  4  5  1  0  0  0  0
  4 42  1  0  0  0  0
  4 43  1  0  0  0  0
  5  6  1  0  0  0  0
  5 35  1  0  0  0  0
  6  7  1  0  0  0  0
  6 44  1  0  0  0  0
  6 45  1  0  0  0  0
  7  8  1  0  0  0  0
  7 12  2  0  0  0  0
  8  9  2  0  0  0  0
  8 46  1  0  0  0  0
  9 10  1  0  0  0  0
  9 47  1  0  0  0  0
 10 11  2  0  0  0  0
 10 34  1  0  0  0  0
 11 12  1  0  0  0  0
 11 13  1  0  0  0  0
 12 48  1  0  0  0  0
 13 14  1  0  0  0  0
 13 49  1  0  0  0  0
 13 50  1  0  0  0  0
 14 15  1  0  0  0  0
 14 34  2  0  0  0  0
 15 16  1  0  0  0  0
 15 32  2  0  0  0  0
 16 17  2  0  0  0  0
 16 31  1  0  0  0  0
 17 18  1  0  0  0  0
 17 51  1  0  0  0  0
 18 19  1  0  0  0  0
 19 20  1  0  0  0  0
 19 31  2  0  0  0  0
 20 21  3  0  0  0  0
 21 22  1  0  0  0  0
 22 23  1  0  0  0  0
 22 52  1  0  0  0  0
 22 53  1  0  0  0  0
 23 24  1  0  0  0  0
 24 25  1  0  0  0  0
 24 30  2  0  0  0  0
 25 26  2  0  0  0  0
 25 54  1  0  0  0  0
 26 27  1  0  0  0  0
 26 55  1  0  0  0  0
 27 28  1  0  0  0  0
 27 29  2  0  0  0  0
 29 30  1  0  0  0  0
 29 56  1  0  0  0  0
 30 57  1  0  0  0  0
 31 58  1  0  0  0  0
 32 33  1  0  0  0  0
 33 34  1  0  0  0  0
 33 59  1  0  0  0  0
 35 36  1  0  0  0  0
 35 60  1  0  0  0  0
 35 61  1  0  0  0  0
 36 62  1  0  0  0  0
 36 63  1  0  0  0  0
M  END
$$$$
