CHEMBL218631
 OpenBabel04072215363D

 41 43  0  0  0  0  0  0  0  0999 V2000
    1.2254    0.0587   -0.2691 N   0  0  0  0  0  0  0  0  0  0  0  0
    2.5942    0.0849   -0.1341 C   0  0  0  0  0  0  0  0  0  0  0  0
    3.2368   -1.0866   -0.0795 N   0  0  0  0  0  0  0  0  0  0  0  0
    4.5876   -1.0364   -0.0214 C   0  0  0  0  0  0  0  0  0  0  0  0
    5.3162    0.1320    0.0015 C   0  0  0  0  0  0  0  0  0  0  0  0
    6.7449    0.1529    0.0287 C   0  0  0  0  0  0  0  0  0  0  0  0
    7.9489    0.1739    0.0236 C   0  0  0  0  0  0  0  0  0  0  0  0
    9.3844    0.2274   -0.0390 C   0  0  0  0  0  0  0  0  0  0  0  0
   10.0332    1.4669   -0.0786 C   0  0  0  0  0  0  0  0  0  0  0  0
   11.4245    1.5327   -0.1891 C   0  0  0  0  0  0  0  0  0  0  0  0
   12.1736    0.3622   -0.2662 C   0  0  0  0  0  0  0  0  0  0  0  0
   13.5055    0.4733   -0.3883 F   0  0  0  0  0  0  0  0  0  0  0  0
   11.5564   -0.8871   -0.2209 C   0  0  0  0  0  0  0  0  0  0  0  0
   12.3206   -2.1629   -0.3344 C   0  0  0  0  0  0  0  0  0  0  0  0
   11.6646   -3.2054   -0.3624 O   0  0  0  0  0  0  0  0  0  0  0  0
   13.7076   -2.0834   -0.3678 N   0  0  0  0  0  0  0  0  0  0  0  0
   14.5965   -3.1819   -0.4459 C   0  0  0  0  0  0  0  0  0  0  0  0
   14.1893   -4.4491   -0.8626 C   0  0  0  0  0  0  0  0  0  0  0  0
   15.0645   -5.5332   -0.8151 C   0  0  0  0  0  0  0  0  0  0  0  0
   16.3579   -5.3625   -0.3338 C   0  0  0  0  0  0  0  0  0  0  0  0
   16.8030   -4.0938    0.0624 C   0  0  0  0  0  0  0  0  0  0  0  0
   18.1754   -3.9283    0.6695 C   0  0  0  0  0  0  0  0  0  0  0  0
   18.8449   -5.1059    0.8290 F   0  0  0  0  0  0  0  0  0  0  0  0
   18.9930   -3.1317   -0.0706 F   0  0  0  0  0  0  0  0  0  0  0  0
   18.1255   -3.3650    1.9096 F   0  0  0  0  0  0  0  0  0  0  0  0
   15.9270   -2.9944   -0.0470 C   0  0  0  0  0  0  0  0  0  0  0  0
   10.1514   -0.9448   -0.0905 C   0  0  0  0  0  0  0  0  0  0  0  0
    4.5478    1.2772   -0.0244 C   0  0  0  0  0  0  0  0  0  0  0  0
    3.1952    1.2786   -0.0847 N   0  0  0  0  0  0  0  0  0  0  0  0
    0.8269   -0.8189    0.0307 H   0  0  0  0  0  0  0  0  0  0  0  0
    0.7910    0.9189    0.0293 H   0  0  0  0  0  0  0  0  0  0  0  0
    5.0774   -2.0068   -0.0085 H   0  0  0  0  0  0  0  0  0  0  0  0
    9.4570    2.3895   -0.0379 H   0  0  0  0  0  0  0  0  0  0  0  0
   11.9301    2.4933   -0.2294 H   0  0  0  0  0  0  0  0  0  0  0  0
   14.1276   -1.1773   -0.1892 H   0  0  0  0  0  0  0  0  0  0  0  0
   13.1842   -4.6279   -1.2331 H   0  0  0  0  0  0  0  0  0  0  0  0
   14.7174   -6.5166   -1.1232 H   0  0  0  0  0  0  0  0  0  0  0  0
   17.0100   -6.2306   -0.2504 H   0  0  0  0  0  0  0  0  0  0  0  0
   16.2798   -2.0083    0.2519 H   0  0  0  0  0  0  0  0  0  0  0  0
    9.6531   -1.9130   -0.0465 H   0  0  0  0  0  0  0  0  0  0  0  0
    5.0018    2.2627   -0.0178 H   0  0  0  0  0  0  0  0  0  0  0  0
  1  2  1  0  0  0  0
  1 30  1  0  0  0  0
  1 31  1  0  0  0  0
  2  3  1  0  0  0  0
  2 29  2  0  0  0  0
  3  4  2  0  0  0  0
  4  5  1  0  0  0  0
  4 32  1  0  0  0  0
  5  6  1  0  0  0  0
  5 28  2  0  0  0  0
  6  7  3  0  0  0  0
  7  8  1  0  0  0  0
  8  9  1  0  0  0  0
  8 27  2  0  0  0  0
  9 10  2  0  0  0  0
  9 33  1  0  0  0  0
 10 11  1  0  0  0  0
 10 34  1  0  0  0  0
 11 12  1  0  0  0  0
 11 13  2  0  0  0  0
 13 14  1  0  0  0  0
 13 27  1  0  0  0  0
 14 15  2  0  0  0  0
 14 16  1  0  0  0  0
 16 17  1  0  0  0  0
 16 35  1  0  0  0  0
 17 18  1  0  0  0  0
 17 26  2  0  0  0  0
 18 19  2  0  0  0  0
 18 36  1  0  0  0  0
 19 20  1  0  0  0  0
 19 37  1  0  0  0  0
 20 21  2  0  0  0  0
 20 38  1  0  0  0  0
 21 22  1  0  0  0  0
 21 26  1  0  0  0  0
 22 23  1  0  0  0  0
 22 24  1  0  0  0  0
 22 25  1  0  0  0  0
 26 39  1  0  0  0  0
 27 40  1  0  0  0  0
 28 29  1  0  0  0  0
 28 41  1  0  0  0  0
M  END
$$$$
