CHEMBL374997
 OpenBabel04072215373D

 67 71  0  0  0  0  0  0  0  0999 V2000
   -0.1735   -5.6286    8.5455 C   0  0  0  0  0  0  0  0  0  0  0  0
    0.9202   -5.0295    9.2644 N   0  0  0  0  0  0  0  0  0  0  0  0
    1.7738   -4.1853    8.5878 C   0  0  0  0  0  0  0  0  0  0  0  0
    2.8581   -3.7738    9.2458 N   0  0  0  0  0  0  0  0  0  0  0  0
    3.5979   -2.8193    8.6468 C   0  0  0  0  0  0  0  0  0  0  0  0
    3.3080   -2.2836    7.4152 C   0  0  0  0  0  0  0  0  0  0  0  0
    2.1928   -2.7768    6.7823 C   0  0  0  0  0  0  0  0  0  0  0  0
    1.6058   -2.1951    5.5602 C   0  0  0  0  0  0  0  0  0  0  0  0
    0.2003   -2.2692    5.4098 C   0  0  0  0  0  0  0  0  0  0  0  0
   -0.4627   -1.7041    4.3318 C   0  0  0  0  0  0  0  0  0  0  0  0
    0.3039   -1.0206    3.4092 C   0  0  0  0  0  0  0  0  0  0  0  0
    1.6388   -0.8849    3.5137 N   0  0  0  0  0  0  0  0  0  0  0  0
    2.2829   -1.5186    4.5380 C   0  0  0  0  0  0  0  0  0  0  0  0
    3.6905   -1.5081    4.4797 O   0  0  0  0  0  0  0  0  0  0  0  0
    4.2587   -1.4116    3.2142 C   0  0  0  0  0  0  0  0  0  0  0  0
    3.6966   -2.1094    2.1327 C   0  0  0  0  0  0  0  0  0  0  0  0
    4.1371   -1.9158    0.8152 C   0  0  0  0  0  0  0  0  0  0  0  0
    3.3231   -2.5373   -0.2742 C   0  0  0  0  0  0  0  0  0  0  0  0
    2.1143   -2.6115   -0.1228 O   0  0  0  0  0  0  0  0  0  0  0  0
    4.0038   -3.0443   -1.3575 N   0  0  0  0  0  0  0  0  0  0  0  0
    3.2953   -3.6389   -2.4414 C   0  0  0  0  0  0  0  0  0  0  0  0
    3.1400   -5.0312   -2.4309 C   0  0  0  0  0  0  0  0  0  0  0  0
    2.4007   -5.6758   -3.4301 C   0  0  0  0  0  0  0  0  0  0  0  0
    2.2094   -7.1720   -3.4059 C   0  0  0  0  0  0  0  0  0  0  0  0
    2.8199   -7.7795   -2.3480 F   0  0  0  0  0  0  0  0  0  0  0  0
    0.9006   -7.5399   -3.3396 F   0  0  0  0  0  0  0  0  0  0  0  0
    2.7120   -7.7806   -4.5168 F   0  0  0  0  0  0  0  0  0  0  0  0
    1.8251   -4.9008   -4.4445 C   0  0  0  0  0  0  0  0  0  0  0  0
    1.9961   -3.5047   -4.4589 C   0  0  0  0  0  0  0  0  0  0  0  0
    2.7559   -2.8394   -3.4832 C   0  0  0  0  0  0  0  0  0  0  0  0
    3.0237   -1.4773   -3.5957 N   0  0  0  0  0  0  0  0  0  0  0  0
    2.0878   -0.5195   -4.1871 C   0  0  0  0  0  0  0  0  0  0  0  0
    2.6889    0.0941   -5.4533 C   0  0  0  0  0  0  0  0  0  0  0  0
    4.0874    0.6595   -5.1982 C   0  0  0  0  0  0  0  0  0  0  0  0
    4.9901   -0.3905   -4.5727 C   0  0  0  0  0  0  0  0  0  0  0  0
    4.3656   -0.9765   -3.3144 C   0  0  0  0  0  0  0  0  0  0  0  0
    5.2112   -1.0532    0.5706 C   0  0  0  0  0  0  0  0  0  0  0  0
    5.8569   -0.4320    1.6538 C   0  0  0  0  0  0  0  0  0  0  0  0
    5.3922   -0.6286    2.9753 C   0  0  0  0  0  0  0  0  0  0  0  0
    6.2659    0.1245    4.2566 Cl  0  0  0  0  0  0  0  0  0  0  0  0
    1.4443   -3.7505    7.3668 N   0  0  0  0  0  0  0  0  0  0  0  0
   -0.7249   -6.3024    9.2094 H   0  0  0  0  0  0  0  0  0  0  0  0
    0.1662   -6.2094    7.6815 H   0  0  0  0  0  0  0  0  0  0  0  0
   -0.8795   -4.8624    8.2067 H   0  0  0  0  0  0  0  0  0  0  0  0
    1.3842   -5.5342   10.0035 H   0  0  0  0  0  0  0  0  0  0  0  0
    4.4329   -2.4503    9.2326 H   0  0  0  0  0  0  0  0  0  0  0  0
    3.8998   -1.4666    7.0178 H   0  0  0  0  0  0  0  0  0  0  0  0
   -0.4029   -2.7820    6.1617 H   0  0  0  0  0  0  0  0  0  0  0  0
   -1.5310   -1.7877    4.2187 H   0  0  0  0  0  0  0  0  0  0  0  0
   -0.1472   -0.5676    2.5329 H   0  0  0  0  0  0  0  0  0  0  0  0
    2.8342   -2.7517    2.2905 H   0  0  0  0  0  0  0  0  0  0  0  0
    4.9825   -3.2832   -1.2633 H   0  0  0  0  0  0  0  0  0  0  0  0
    3.5615   -5.6133   -1.6138 H   0  0  0  0  0  0  0  0  0  0  0  0
    1.2519   -5.3728   -5.2414 H   0  0  0  0  0  0  0  0  0  0  0  0
    1.5507   -2.9548   -5.2853 H   0  0  0  0  0  0  0  0  0  0  0  0
    1.9004    0.2785   -3.4560 H   0  0  0  0  0  0  0  0  0  0  0  0
    1.1059   -0.9544   -4.4078 H   0  0  0  0  0  0  0  0  0  0  0  0
    2.0379    0.8927   -5.8249 H   0  0  0  0  0  0  0  0  0  0  0  0
    2.7476   -0.6690   -6.2387 H   0  0  0  0  0  0  0  0  0  0  0  0
    4.0191    1.5254   -4.5288 H   0  0  0  0  0  0  0  0  0  0  0  0
    4.5289    1.0078   -6.1377 H   0  0  0  0  0  0  0  0  0  0  0  0
    5.9631    0.0452   -4.3214 H   0  0  0  0  0  0  0  0  0  0  0  0
    5.1738   -1.1967   -5.2941 H   0  0  0  0  0  0  0  0  0  0  0  0
    4.3077   -0.2207   -2.5226 H   0  0  0  0  0  0  0  0  0  0  0  0
    5.0615   -1.7506   -2.9825 H   0  0  0  0  0  0  0  0  0  0  0  0
    5.5211   -0.8142   -0.4382 H   0  0  0  0  0  0  0  0  0  0  0  0
    6.6945    0.2301    1.4646 H   0  0  0  0  0  0  0  0  0  0  0  0
  1  2  1  0  0  0  0
  1 42  1  0  0  0  0
  1 43  1  0  0  0  0
  1 44  1  0  0  0  0
  2  3  1  0  0  0  0
  2 45  1  0  0  0  0
  3  4  1  0  0  0  0
  3 41  2  0  0  0  0
  4  5  2  0  0  0  0
  5  6  1  0  0  0  0
  5 46  1  0  0  0  0
  6  7  2  0  0  0  0
  6 47  1  0  0  0  0
  7  8  1  0  0  0  0
  7 41  1  0  0  0  0
  8  9  1  0  0  0  0
  8 13  2  0  0  0  0
  9 10  2  0  0  0  0
  9 48  1  0  0  0  0
 10 11  1  0  0  0  0
 10 49  1  0  0  0  0
 11 12  2  0  0  0  0
 11 50  1  0  0  0  0
 12 13  1  0  0  0  0
 13 14  1  0  0  0  0
 14 15  1  0  0  0  0
 15 16  1  0  0  0  0
 15 39  2  0  0  0  0
 16 17  2  0  0  0  0
 16 51  1  0  0  0  0
 17 18  1  0  0  0  0
 17 37  1  0  0  0  0
 18 19  2  0  0  0  0
 18 20  1  0  0  0  0
 20 21  1  0  0  0  0
 20 52  1  0  0  0  0
 21 22  1  0  0  0  0
 21 30  2  0  0  0  0
 22 23  2  0  0  0  0
 22 53  1  0  0  0  0
 23 24  1  0  0  0  0
 23 28  1  0  0  0  0
 24 25  1  0  0  0  0
 24 26  1  0  0  0  0
 24 27  1  0  0  0  0
 28 29  2  0  0  0  0
 28 54  1  0  0  0  0
 29 30  1  0  0  0  0
 29 55  1  0  0  0  0
 30 31  1  0  0  0  0
 31 32  1  0  0  0  0
 31 36  1  0  0  0  0
 32 33  1  0  0  0  0
 32 56  1  0  0  0  0
 32 57  1  0  0  0  0
 33 34  1  0  0  0  0
 33 58  1  0  0  0  0
 33 59  1  0  0  0  0
 34 35  1  0  0  0  0
 34 60  1  0  0  0  0
 34 61  1  0  0  0  0
 35 36  1  0  0  0  0
 35 62  1  0  0  0  0
 35 63  1  0  0  0  0
 36 64  1  0  0  0  0
 36 65  1  0  0  0  0
 37 38  2  0  0  0  0
 37 66  1  0  0  0  0
 38 39  1  0  0  0  0
 38 67  1  0  0  0  0
 39 40  1  0  0  0  0
M  END
$$$$
