CHEMBL3676369
 OpenBabel04072215373D

 51 53  0  0  0  0  0  0  0  0999 V2000
    3.4726    3.8501    1.0663 C   0  0  0  0  0  0  0  0  0  0  0  0
    3.4632    2.6404    1.6370 C   0  0  0  0  0  0  0  0  0  0  0  0
    3.6082    1.4337    0.7774 C   0  0  0  0  0  0  0  0  0  0  0  0
    3.1809    1.3933   -0.3719 O   0  0  0  0  0  0  0  0  0  0  0  0
    4.2863    0.3603    1.3065 N   0  0  0  0  0  0  0  0  0  0  0  0
    5.1232    0.4630    2.4329 C   0  0  0  0  0  0  0  0  0  0  0  0
    6.2717    1.2488    2.3308 C   0  0  0  0  0  0  0  0  0  0  0  0
    6.9945    1.6047    3.4918 C   0  0  0  0  0  0  0  0  0  0  0  0
    8.0767    2.4984    3.5188 C   0  0  0  0  0  0  0  0  0  0  0  0
    8.4624    3.1921    2.3395 N   0  0  0  0  0  0  0  0  0  0  0  0
    9.2745    4.3538    2.3574 C   0  0  0  0  0  0  0  0  0  0  0  0
    9.0255    5.3831    3.2752 C   0  0  0  0  0  0  0  0  0  0  0  0
    9.9057    6.4556    3.4007 C   0  0  0  0  0  0  0  0  0  0  0  0
   11.0362    6.5315    2.5851 C   0  0  0  0  0  0  0  0  0  0  0  0
   12.2306    7.9746    2.8978 Br  0  0  0  0  0  0  0  0  0  0  0  0
   11.2603    5.5553    1.6068 C   0  0  0  0  0  0  0  0  0  0  0  0
   12.6201    5.6124    0.5412 Cl  0  0  0  0  0  0  0  0  0  0  0  0
   10.3712    4.4807    1.4971 C   0  0  0  0  0  0  0  0  0  0  0  0
   10.5796    3.5172    0.5822 F   0  0  0  0  0  0  0  0  0  0  0  0
    8.7179    2.7974    4.6632 N   0  0  0  0  0  0  0  0  0  0  0  0
    8.2710    2.2229    5.7825 C   0  0  0  0  0  0  0  0  0  0  0  0
    7.2255    1.4014    5.8732 N   0  0  0  0  0  0  0  0  0  0  0  0
    6.5899    1.1067    4.7378 C   0  0  0  0  0  0  0  0  0  0  0  0
    5.4715    0.2842    4.8055 C   0  0  0  0  0  0  0  0  0  0  0  0
    4.7384   -0.0687    3.6697 C   0  0  0  0  0  0  0  0  0  0  0  0
    3.6510   -0.8696    3.9181 O   0  0  0  0  0  0  0  0  0  0  0  0
    3.3408   -1.8020    2.8839 C   0  0  0  0  0  0  0  0  0  0  0  0
    2.7757   -3.0986    3.4748 C   0  0  0  0  0  0  0  0  0  0  0  0
    2.5386   -4.0957    2.4406 N   0  0  0  0  0  0  0  0  0  0  0  0
    3.5824   -4.8088    1.8909 C   0  0  0  0  0  0  0  0  0  0  0  0
    4.7405   -4.7449    2.2990 O   0  0  0  0  0  0  0  0  0  0  0  0
    3.2127   -5.6568    0.6727 C   0  0  0  0  0  0  0  0  0  0  0  0
    4.2820   -6.4913    0.2546 O   0  0  0  0  0  0  0  0  0  0  0  0
    3.4368    4.7503    1.6698 H   0  0  0  0  0  0  0  0  0  0  0  0
    3.5386    3.9671   -0.0128 H   0  0  0  0  0  0  0  0  0  0  0  0
    3.4195    2.5218    2.7117 H   0  0  0  0  0  0  0  0  0  0  0  0
    4.6197   -0.2274    0.5489 H   0  0  0  0  0  0  0  0  0  0  0  0
    6.5567    1.6514    1.3617 H   0  0  0  0  0  0  0  0  0  0  0  0
    8.7420    2.5416    1.6079 H   0  0  0  0  0  0  0  0  0  0  0  0
    8.1604    5.3273    3.9332 H   0  0  0  0  0  0  0  0  0  0  0  0
    9.7105    7.2084    4.1628 H   0  0  0  0  0  0  0  0  0  0  0  0
    8.7938    2.4650    6.7014 H   0  0  0  0  0  0  0  0  0  0  0  0
    5.1493   -0.0757    5.7795 H   0  0  0  0  0  0  0  0  0  0  0  0
    4.2267   -2.0572    2.2903 H   0  0  0  0  0  0  0  0  0  0  0  0
    2.5815   -1.3612    2.2261 H   0  0  0  0  0  0  0  0  0  0  0  0
    1.8264   -2.9089    3.9867 H   0  0  0  0  0  0  0  0  0  0  0  0
    3.4712   -3.5067    4.2170 H   0  0  0  0  0  0  0  0  0  0  0  0
    1.6301   -4.1214    1.9931 H   0  0  0  0  0  0  0  0  0  0  0  0
    2.9626   -4.9833   -0.1528 H   0  0  0  0  0  0  0  0  0  0  0  0
    2.3493   -6.2861    0.9036 H   0  0  0  0  0  0  0  0  0  0  0  0
    5.0910   -6.1207    0.6629 H   0  0  0  0  0  0  0  0  0  0  0  0
  1  2  2  0  0  0  0
  1 34  1  0  0  0  0
  1 35  1  0  0  0  0
  2  3  1  0  0  0  0
  2 36  1  0  0  0  0
  3  4  2  0  0  0  0
  3  5  1  0  0  0  0
  5  6  1  0  0  0  0
  5 37  1  0  0  0  0
  6  7  1  0  0  0  0
  6 25  2  0  0  0  0
  7  8  2  0  0  0  0
  7 38  1  0  0  0  0
  8  9  1  0  0  0  0
  8 23  1  0  0  0  0
  9 10  1  0  0  0  0
  9 20  2  0  0  0  0
 10 11  1  0  0  0  0
 10 39  1  0  0  0  0
 11 12  1  0  0  0  0
 11 18  2  0  0  0  0
 12 13  2  0  0  0  0
 12 40  1  0  0  0  0
 13 14  1  0  0  0  0
 13 41  1  0  0  0  0
 14 15  1  0  0  0  0
 14 16  2  0  0  0  0
 16 17  1  0  0  0  0
 16 18  1  0  0  0  0
 18 19  1  0  0  0  0
 20 21  1  0  0  0  0
 21 22  2  0  0  0  0
 21 42  1  0  0  0  0
 22 23  1  0  0  0  0
 23 24  2  0  0  0  0
 24 25  1  0  0  0  0
 24 43  1  0  0  0  0
 25 26  1  0  0  0  0
 26 27  1  0  0  0  0
 27 28  1  0  0  0  0
 27 44  1  0  0  0  0
 27 45  1  0  0  0  0
 28 29  1  0  0  0  0
 28 46  1  0  0  0  0
 28 47  1  0  0  0  0
 29 30  1  0  0  0  0
 29 48  1  0  0  0  0
 30 31  2  0  0  0  0
 30 32  1  0  0  0  0
 32 33  1  0  0  0  0
 32 49  1  0  0  0  0
 32 50  1  0  0  0  0
 33 51  1  0  0  0  0
M  END
$$$$
