CHEMBL1084338
 OpenBabel04072215363D

 70 76  0  0  1  0  0  0  0  0999 V2000
    5.1470   -1.7752    0.4176 C   0  0  0  0  0  0  0  0  0  0  0  0
    5.6122   -0.3899   -0.0257 C   0  0  0  0  0  0  0  0  0  0  0  0
    4.7259    0.1223   -1.1651 C   0  0  0  0  0  0  0  0  0  0  0  0
    5.7509    0.6067    1.1519 C   0  0  0  0  0  0  0  0  0  0  0  0
    4.5152    0.8188    2.0430 C   0  0  0  0  0  0  0  0  0  0  0  0
    4.7146    1.8755    3.0435 N   0  0  0  0  0  0  0  0  0  0  0  0
    4.5102    3.2472    2.7614 C   0  0  0  0  0  0  0  0  0  0  0  0
    4.0882    3.9137    1.5966 C   0  0  0  0  0  0  0  0  0  0  0  0
    3.9973    5.3224    1.6161 C   0  0  0  0  0  0  0  0  0  0  0  0
    4.2907    6.0764    2.7588 C   0  0  0  0  0  0  0  0  0  0  0  0
    4.0290    7.5728    2.9068 C   0  0  3  0  0  0  0  0  0  0  0  0
    3.4909    8.3381    1.6938 C   0  0  0  0  0  0  0  0  0  0  0  0
    4.5956    8.7200    0.7185 C   0  0  0  0  0  0  0  0  0  0  0  0
    5.6881    9.4731    1.4605 C   0  0  0  0  0  0  0  0  0  0  0  0
    6.1779    8.6675    2.6551 C   0  0  0  0  0  0  0  0  0  0  0  0
    5.1182    8.2802    3.5253 O   0  0  0  0  0  0  0  0  0  0  0  0
    4.7569    5.3902    3.8880 C   0  0  0  0  0  0  0  0  0  0  0  0
    4.8948    3.9901    3.8844 C   0  0  0  0  0  0  0  0  0  0  0  0
    5.4499    3.0285    4.6988 C   0  0  0  0  0  0  0  0  0  0  0  0
    6.4025    3.3591    5.6783 C   0  0  0  0  0  0  0  0  0  0  0  0
    7.3341    2.3367    5.9835 C   0  0  0  0  0  0  0  0  0  0  0  0
    7.2372    1.0334    5.4663 C   0  0  0  0  0  0  0  0  0  0  0  0
    5.9106    0.6879    5.0425 C   0  0  0  0  0  0  0  0  0  0  0  0
    5.2846    1.7249    4.3137 C   0  0  0  0  0  0  0  0  0  0  0  0
    5.1677   -0.2009    6.1314 C   0  0  0  0  0  0  0  0  0  0  0  0
    5.9631   -0.3861    7.4945 C   0  0  0  0  0  0  0  0  0  0  0  0
    7.3567   -0.7584    7.1300 C   0  0  0  0  0  0  0  0  0  0  0  0
    7.9924   -1.8988    7.3985 N   0  0  0  0  0  0  0  0  0  0  0  0
    8.9810   -1.9090    6.4682 N   0  0  0  0  0  0  0  0  0  0  0  0
    9.8005   -3.0856    6.3069 C   0  0  0  0  0  0  0  0  0  0  0  0
    8.9268   -0.8507    5.5947 C   0  0  0  0  0  0  0  0  0  0  0  0
    7.9773   -0.0132    6.1140 C   0  0  0  0  0  0  0  0  0  0  0  0
    8.2543    2.8796    6.9482 C   0  0  0  0  0  0  0  0  0  0  0  0
    9.2156    2.4080    7.5432 O   0  0  0  0  0  0  0  0  0  0  0  0
    7.7907    4.1689    7.1957 N   0  0  0  0  0  0  0  0  0  0  0  0
    6.6766    4.6067    6.3853 C   0  0  0  0  0  0  0  0  0  0  0  0
    5.2132   -2.4868   -0.4135 H   0  0  0  0  0  0  0  0  0  0  0  0
    4.1070   -1.7619    0.7581 H   0  0  0  0  0  0  0  0  0  0  0  0
    5.7743   -2.1558    1.2292 H   0  0  0  0  0  0  0  0  0  0  0  0
    6.6200   -0.5093   -0.4479 H   0  0  0  0  0  0  0  0  0  0  0  0
    3.6836    0.2333   -0.8535 H   0  0  0  0  0  0  0  0  0  0  0  0
    4.7457   -0.5781   -2.0091 H   0  0  0  0  0  0  0  0  0  0  0  0
    5.0825    1.0880   -1.5347 H   0  0  0  0  0  0  0  0  0  0  0  0
    6.0788    1.5711    0.7433 H   0  0  0  0  0  0  0  0  0  0  0  0
    6.5746    0.2614    1.7901 H   0  0  0  0  0  0  0  0  0  0  0  0
    4.2387   -0.0933    2.5810 H   0  0  0  0  0  0  0  0  0  0  0  0
    3.6506    1.1136    1.4372 H   0  0  0  0  0  0  0  0  0  0  0  0
    3.8496    3.3714    0.6866 H   0  0  0  0  0  0  0  0  0  0  0  0
    3.6704    5.8103    0.7015 H   0  0  0  0  0  0  0  0  0  0  0  0
    3.2248    7.6163    3.6554 H   0  0  0  0  0  0  0  0  0  0  0  0
    3.0391    9.2695    2.0611 H   0  0  0  0  0  0  0  0  0  0  0  0
    2.6918    7.7848    1.1905 H   0  0  0  0  0  0  0  0  0  0  0  0
    4.1884    9.3420   -0.0869 H   0  0  0  0  0  0  0  0  0  0  0  0
    5.0180    7.8226    0.2524 H   0  0  0  0  0  0  0  0  0  0  0  0
    5.2802   10.4320    1.8081 H   0  0  0  0  0  0  0  0  0  0  0  0
    6.5243    9.6964    0.7893 H   0  0  0  0  0  0  0  0  0  0  0  0
    6.8661    9.2905    3.2387 H   0  0  0  0  0  0  0  0  0  0  0  0
    6.7386    7.7826    2.3365 H   0  0  0  0  0  0  0  0  0  0  0  0
    4.9918    5.9612    4.7811 H   0  0  0  0  0  0  0  0  0  0  0  0
    5.0017   -1.1919    5.6955 H   0  0  0  0  0  0  0  0  0  0  0  0
    4.1966    0.2487    6.3676 H   0  0  0  0  0  0  0  0  0  0  0  0
    5.4961   -1.1207    8.1554 H   0  0  0  0  0  0  0  0  0  0  0  0
    5.9886    0.5706    8.0400 H   0  0  0  0  0  0  0  0  0  0  0  0
    9.6344   -3.7634    7.1475 H   0  0  0  0  0  0  0  0  0  0  0  0
   10.8474   -2.7766    6.2727 H   0  0  0  0  0  0  0  0  0  0  0  0
    9.5134   -3.5725    5.3709 H   0  0  0  0  0  0  0  0  0  0  0  0
    9.4988   -0.8323    4.6776 H   0  0  0  0  0  0  0  0  0  0  0  0
    8.2315    4.7293    7.9033 H   0  0  0  0  0  0  0  0  0  0  0  0
    7.0233    5.4044    5.7265 H   0  0  0  0  0  0  0  0  0  0  0  0
    5.8461    4.9212    7.0247 H   0  0  0  0  0  0  0  0  0  0  0  0
  1  2  1  0  0  0  0
  1 37  1  0  0  0  0
  1 38  1  0  0  0  0
  1 39  1  0  0  0  0
  2  3  1  0  0  0  0
  2  4  1  0  0  0  0
  2 40  1  0  0  0  0
  3 41  1  0  0  0  0
  3 42  1  0  0  0  0
  3 43  1  0  0  0  0
  4  5  1  0  0  0  0
  4 44  1  0  0  0  0
  4 45  1  0  0  0  0
  5  6  1  0  0  0  0
  5 46  1  0  0  0  0
  5 47  1  0  0  0  0
  6  7  1  0  0  0  0
  6 24  1  0  0  0  0
  7  8  1  0  0  0  0
  7 18  2  0  0  0  0
  8  9  2  0  0  0  0
  8 48  1  0  0  0  0
  9 10  1  0  0  0  0
  9 49  1  0  0  0  0
 10 11  1  0  0  0  0
 10 17  2  0  0  0  0
 11 12  1  0  0  0  0
 11 16  1  0  0  0  0
 11 50  1  0  0  0  0
 12 13  1  0  0  0  0
 12 51  1  0  0  0  0
 12 52  1  0  0  0  0
 13 14  1  0  0  0  0
 13 53  1  0  0  0  0
 13 54  1  0  0  0  0
 14 15  1  0  0  0  0
 14 55  1  0  0  0  0
 14 56  1  0  0  0  0
 15 16  1  0  0  0  0
 15 57  1  0  0  0  0
 15 58  1  0  0  0  0
 17 18  1  0  0  0  0
 17 59  1  0  0  0  0
 18 19  1  0  0  0  0
 19 20  1  0  0  0  0
 19 24  2  0  0  0  0
 20 21  2  0  0  0  0
 20 36  1  0  0  0  0
 21 22  1  0  0  0  0
 21 33  1  0  0  0  0
 22 23  2  0  0  0  0
 22 32  1  0  0  0  0
 23 24  1  0  0  0  0
 23 25  1  0  0  0  0
 25 26  1  0  0  0  0
 25 60  1  0  0  0  0
 25 61  1  0  0  0  0
 26 27  1  0  0  0  0
 26 62  1  0  0  0  0
 26 63  1  0  0  0  0
 27 28  2  0  0  0  0
 27 32  1  0  0  0  0
 28 29  1  0  0  0  0
 29 30  1  0  0  0  0
 29 31  1  0  0  0  0
 30 64  1  0  0  0  0
 30 65  1  0  0  0  0
 30 66  1  0  0  0  0
 31 32  2  0  0  0  0
 31 67  1  0  0  0  0
 33 34  2  0  0  0  0
 33 35  1  0  0  0  0
 35 36  1  0  0  0  0
 35 68  1  0  0  0  0
 36 69  1  0  0  0  0
 36 70  1  0  0  0  0
M  END
$$$$
