CHEMBL459478
 OpenBabel04072215383D

 66 71  0  0  1  0  0  0  0  0999 V2000
   -1.4023    5.5656   -7.9299 C   0  0  0  0  0  0  0  0  0  0  0  0
   -0.2760    6.1335   -7.0696 C   0  0  0  0  0  0  0  0  0  0  0  0
   -0.8695    7.0096   -5.9660 C   0  0  0  0  0  0  0  0  0  0  0  0
    0.5380    5.0545   -6.5474 N   0  0  0  0  0  0  0  0  0  0  0  0
    0.1055    4.0319   -5.7439 C   0  0  0  0  0  0  0  0  0  0  0  0
    1.0890    3.2696   -5.3343 N   0  0  0  0  0  0  0  0  0  0  0  0
    2.1657    3.8399   -5.9049 C   0  0  0  0  0  0  0  0  0  0  0  0
    3.5204    3.4549   -5.6666 C   0  0  0  0  0  0  0  0  0  0  0  0
    3.7418    2.4346   -4.7998 C   0  0  0  0  0  0  0  0  0  0  0  0
    5.0210    2.4877   -4.6729 C   0  0  0  0  0  0  0  0  0  0  0  0
    5.7309    1.6805   -4.0373 N   0  0  0  0  0  0  0  0  0  0  0  0
    6.3809    0.8750   -3.4112 C   0  0  0  0  0  0  0  0  0  0  0  0
    7.3624    1.7611   -4.0147 C   0  0  0  0  0  0  0  0  0  0  0  0
    7.2573    3.1892   -5.0674 C   0  0  0  0  0  0  0  0  0  0  0  0
    7.6969    4.4313   -5.5742 O   0  0  0  0  0  0  0  0  0  0  0  0
    8.6721    5.4460   -5.5094 C   0  0  0  0  0  0  0  0  0  0  0  0
    9.8359    5.4854   -4.6366 C   0  0  0  0  0  0  0  0  0  0  0  0
   11.0545    6.2044   -5.0233 C   0  0  0  0  0  0  0  0  0  0  0  0
   10.9980    7.1919   -6.0115 C   0  0  0  0  0  0  0  0  0  0  0  0
   12.1282    7.9936   -6.4663 N   0  0  0  0  0  0  0  0  0  0  0  0
   13.4385    7.8614   -5.9517 C   0  0  0  0  0  0  0  0  0  0  0  0
   13.7657    7.0644   -5.0713 O   0  0  0  0  0  0  0  0  0  0  0  0
   14.5327    8.7925   -6.4595 C   0  0  3  0  0  0  0  0  0  0  0  0
   15.9083    8.0946   -6.4111 C   0  0  0  0  0  0  0  0  0  0  0  0
   16.7093    8.7140   -7.5488 C   0  0  0  0  0  0  0  0  0  0  0  0
   15.7094    9.0951   -8.5047 N   0  0  0  0  0  0  0  0  0  0  0  0
   15.9926    9.4540   -9.8420 C   0  0  0  0  0  0  0  0  0  0  0  0
   14.9566    9.8177  -10.7077 C   0  0  0  0  0  0  0  0  0  0  0  0
   15.2335   10.1700  -12.0329 C   0  0  0  0  0  0  0  0  0  0  0  0
   16.4880    9.9017  -12.5669 C   0  0  0  0  0  0  0  0  0  0  0  0
   17.4811    9.3901  -11.7392 C   0  0  0  0  0  0  0  0  0  0  0  0
   17.2885    9.3690  -10.3531 C   0  0  0  0  0  0  0  0  0  0  0  0
   14.4163    9.0764   -7.9566 C   0  0  0  0  0  0  0  0  0  0  0  0
   13.3675    9.2753   -8.5525 O   0  0  0  0  0  0  0  0  0  0  0  0
    9.7190    7.3751   -6.5409 C   0  0  0  0  0  0  0  0  0  0  0  0
    8.6084    6.5231   -6.3258 C   0  0  0  0  0  0  0  0  0  0  0  0
    7.4745    6.8164   -6.9622 F   0  0  0  0  0  0  0  0  0  0  0  0
    5.8551    3.3361   -5.2287 C   0  0  0  0  0  0  0  0  0  0  0  0
    4.9093    4.2528   -6.2550 S   0  0  0  0  0  0  0  0  0  0  0  0
    1.8798    4.9410   -6.6654 C   0  0  0  0  0  0  0  0  0  0  0  0
   -1.9977    6.3708   -8.3660 H   0  0  0  0  0  0  0  0  0  0  0  0
   -2.0612    4.9268   -7.3301 H   0  0  0  0  0  0  0  0  0  0  0  0
   -1.0094    4.9558   -8.7487 H   0  0  0  0  0  0  0  0  0  0  0  0
    0.4021    6.7401   -7.6868 H   0  0  0  0  0  0  0  0  0  0  0  0
   -1.5322    6.4228   -5.3153 H   0  0  0  0  0  0  0  0  0  0  0  0
   -1.4541    7.8320   -6.3829 H   0  0  0  0  0  0  0  0  0  0  0  0
   -0.0797    7.4377   -5.3361 H   0  0  0  0  0  0  0  0  0  0  0  0
   -0.9232    3.8953   -5.4580 H   0  0  0  0  0  0  0  0  0  0  0  0
    3.0931    1.7179   -4.2882 H   0  0  0  0  0  0  0  0  0  0  0  0
    5.4216    0.4189   -3.0791 H   0  0  0  0  0  0  0  0  0  0  0  0
    8.2404    1.2536   -3.6855 H   0  0  0  0  0  0  0  0  0  0  0  0
    9.8703    5.1099   -3.5926 H   0  0  0  0  0  0  0  0  0  0  0  0
   12.0166    5.9202   -4.5762 H   0  0  0  0  0  0  0  0  0  0  0  0
   11.9679    8.6606   -7.2173 H   0  0  0  0  0  0  0  0  0  0  0  0
   14.5384    9.7481   -5.9306 H   0  0  0  0  0  0  0  0  0  0  0  0
   15.8169    7.0149   -6.5960 H   0  0  0  0  0  0  0  0  0  0  0  0
   16.3990    8.2078   -5.4401 H   0  0  0  0  0  0  0  0  0  0  0  0
   17.4373    8.0149   -7.9716 H   0  0  0  0  0  0  0  0  0  0  0  0
   17.2316    9.6162   -7.2092 H   0  0  0  0  0  0  0  0  0  0  0  0
   13.9353    9.8766  -10.3458 H   0  0  0  0  0  0  0  0  0  0  0  0
   14.4608   10.6059  -12.6595 H   0  0  0  0  0  0  0  0  0  0  0  0
   16.6900   10.0868  -13.6192 H   0  0  0  0  0  0  0  0  0  0  0  0
   18.3972    8.9958  -12.1733 H   0  0  0  0  0  0  0  0  0  0  0  0
   18.1444    9.2038   -9.7087 H   0  0  0  0  0  0  0  0  0  0  0  0
    9.5150    8.1588   -7.2474 H   0  0  0  0  0  0  0  0  0  0  0  0
    2.5313    5.6123   -7.2153 H   0  0  0  0  0  0  0  0  0  0  0  0
  1  2  1  0  0  0  0
  1 41  1  0  0  0  0
  1 42  1  0  0  0  0
  1 43  1  0  0  0  0
  2  3  1  0  0  0  0
  2  4  1  0  0  0  0
  2 44  1  0  0  0  0
  3 45  1  0  0  0  0
  3 46  1  0  0  0  0
  3 47  1  0  0  0  0
  4  5  1  0  0  0  0
  4 40  1  0  0  0  0
  5  6  2  0  0  0  0
  5 48  1  0  0  0  0
  6  7  1  0  0  0  0
  7  8  1  0  0  0  0
  7 40  2  0  0  0  0
  8  9  2  0  0  0  0
  8 39  1  0  0  0  0
  9 10  1  0  0  0  0
  9 49  1  0  0  0  0
 10 11  1  0  0  0  0
 10 38  2  0  0  0  0
 11 12  2  0  0  0  0
 12 13  1  0  0  0  0
 12 50  1  0  0  0  0
 13 14  2  0  0  0  0
 13 51  1  0  0  0  0
 14 15  1  0  0  0  0
 14 38  1  0  0  0  0
 15 16  1  0  0  0  0
 16 17  1  0  0  0  0
 16 36  2  0  0  0  0
 17 18  2  0  0  0  0
 17 52  1  0  0  0  0
 18 19  1  0  0  0  0
 18 53  1  0  0  0  0
 19 20  1  0  0  0  0
 19 35  2  0  0  0  0
 20 21  1  0  0  0  0
 20 54  1  0  0  0  0
 21 22  2  0  0  0  0
 21 23  1  0  0  0  0
 23 24  1  0  0  0  0
 23 33  1  0  0  0  0
 23 55  1  0  0  0  0
 24 25  1  0  0  0  0
 24 56  1  0  0  0  0
 24 57  1  0  0  0  0
 25 26  1  0  0  0  0
 25 58  1  0  0  0  0
 25 59  1  0  0  0  0
 26 27  1  0  0  0  0
 26 33  1  0  0  0  0
 27 28  1  0  0  0  0
 27 32  2  0  0  0  0
 28 29  2  0  0  0  0
 28 60  1  0  0  0  0
 29 30  1  0  0  0  0
 29 61  1  0  0  0  0
 30 31  2  0  0  0  0
 30 62  1  0  0  0  0
 31 32  1  0  0  0  0
 31 63  1  0  0  0  0
 32 64  1  0  0  0  0
 33 34  2  0  0  0  0
 35 36  1  0  0  0  0
 35 65  1  0  0  0  0
 36 37  1  0  0  0  0
 38 39  1  0  0  0  0
 40 66  1  0  0  0  0
M  END
$$$$
