CHEMBL1940841
 OpenBabel04072215363D

 36 38  0  0  0  0  0  0  0  0999 V2000
    4.5775    0.2583   -0.0159 C   0  0  0  0  0  0  0  0  0  0  0  0
    3.1072   -0.0386   -0.0081 C   0  0  0  0  0  0  0  0  0  0  0  0
    2.6336   -1.3501   -0.0076 C   0  0  0  0  0  0  0  0  0  0  0  0
    1.2575   -1.6041   -0.0002 C   0  0  0  0  0  0  0  0  0  0  0  0
    0.3232   -0.5762    0.0056 C   0  0  0  0  0  0  0  0  0  0  0  0
   -0.9852   -0.8658    0.0074 N   0  0  0  0  0  0  0  0  0  0  0  0
   -1.8679    0.1648    0.0028 C   0  0  0  0  0  0  0  0  0  0  0  0
   -3.4990   -0.3974    0.0003 Cl  0  0  0  0  0  0  0  0  0  0  0  0
   -1.5279    1.5204    0.0146 C   0  0  0  0  0  0  0  0  0  0  0  0
   -2.5263    2.6174   -0.0299 C   0  0  0  0  0  0  0  0  0  0  0  0
   -2.3596    3.8239    0.5144 C   0  0  0  0  0  0  0  0  0  0  0  0
   -3.4146    4.8969    0.4458 C   0  0  0  0  0  0  0  0  0  0  0  0
   -4.2685    4.8541   -0.4366 O   0  0  0  0  0  0  0  0  0  0  0  0
   -3.3202    5.9619    1.4476 C   0  0  0  0  0  0  0  0  0  0  0  0
   -2.6998    5.5585    3.0052 S   0  0  0  0  0  0  0  0  0  0  0  0
   -2.8714    7.1456    3.5723 C   0  0  0  0  0  0  0  0  0  0  0  0
   -3.4279    7.9689    2.6265 C   0  0  0  0  0  0  0  0  0  0  0  0
   -3.7191    7.2959    1.3894 C   0  0  0  0  0  0  0  0  0  0  0  0
   -4.3682    7.9843    0.2303 C   0  0  0  0  0  0  0  0  0  0  0  0
   -0.1518    1.7889    0.0053 C   0  0  0  0  0  0  0  0  0  0  0  0
    0.7956    0.7486    0.0043 C   0  0  0  0  0  0  0  0  0  0  0  0
    2.1791    1.0084   -0.0008 C   0  0  0  0  0  0  0  0  0  0  0  0
    5.1727   -0.6608   -0.0313 H   0  0  0  0  0  0  0  0  0  0  0  0
    4.8536    0.8226    0.8805 H   0  0  0  0  0  0  0  0  0  0  0  0
    4.8399    0.8424   -0.9039 H   0  0  0  0  0  0  0  0  0  0  0  0
    3.3258   -2.1896   -0.0135 H   0  0  0  0  0  0  0  0  0  0  0  0
    0.9047   -2.6330   -0.0015 H   0  0  0  0  0  0  0  0  0  0  0  0
   -3.4677    2.3942   -0.5383 H   0  0  0  0  0  0  0  0  0  0  0  0
   -1.4622    4.0903    1.0650 H   0  0  0  0  0  0  0  0  0  0  0  0
   -2.5759    7.3909    4.5799 H   0  0  0  0  0  0  0  0  0  0  0  0
   -3.6364    9.0141    2.8190 H   0  0  0  0  0  0  0  0  0  0  0  0
   -4.6538    9.0092    0.4935 H   0  0  0  0  0  0  0  0  0  0  0  0
   -5.2762    7.4526   -0.0661 H   0  0  0  0  0  0  0  0  0  0  0  0
   -3.6903    8.0443   -0.6284 H   0  0  0  0  0  0  0  0  0  0  0  0
    0.2144    2.8118   -0.0109 H   0  0  0  0  0  0  0  0  0  0  0  0
    2.5393    2.0358   -0.0001 H   0  0  0  0  0  0  0  0  0  0  0  0
  1  2  1  0  0  0  0
  1 23  1  0  0  0  0
  1 24  1  0  0  0  0
  1 25  1  0  0  0  0
  2  3  1  0  0  0  0
  2 22  2  0  0  0  0
  3  4  2  0  0  0  0
  3 26  1  0  0  0  0
  4  5  1  0  0  0  0
  4 27  1  0  0  0  0
  5  6  1  0  0  0  0
  5 21  2  0  0  0  0
  6  7  2  0  0  0  0
  7  8  1  0  0  0  0
  7  9  1  0  0  0  0
  9 10  1  0  0  0  0
  9 20  2  0  0  0  0
 10 11  2  0  0  0  0
 10 28  1  0  0  0  0
 11 12  1  0  0  0  0
 11 29  1  0  0  0  0
 12 13  2  0  0  0  0
 12 14  1  0  0  0  0
 14 15  1  0  0  0  0
 14 18  2  0  0  0  0
 15 16  1  0  0  0  0
 16 17  2  0  0  0  0
 16 30  1  0  0  0  0
 17 18  1  0  0  0  0
 17 31  1  0  0  0  0
 18 19  1  0  0  0  0
 19 32  1  0  0  0  0
 19 33  1  0  0  0  0
 19 34  1  0  0  0  0
 20 21  1  0  0  0  0
 20 35  1  0  0  0  0
 21 22  1  0  0  0  0
 22 36  1  0  0  0  0
M  END
$$$$
