CHEMBL1807471
 OpenBabel04072215363D

 69 73  0  0  0  0  0  0  0  0999 V2000
   -1.4351    4.7870   -6.7759 C   0  0  0  0  0  0  0  0  0  0  0  0
   -0.2016    4.4347   -6.1636 O   0  0  0  0  0  0  0  0  0  0  0  0
    0.4582    3.3469   -6.6631 C   0  0  0  0  0  0  0  0  0  0  0  0
    0.0324    2.5319   -7.7156 C   0  0  0  0  0  0  0  0  0  0  0  0
    0.8135    1.4410   -8.1257 C   0  0  0  0  0  0  0  0  0  0  0  0
    2.0259    1.1768   -7.4793 C   0  0  0  0  0  0  0  0  0  0  0  0
    2.9991   -0.2422   -7.9283 S   0  0  0  0  0  0  0  0  0  0  0  0
    3.8399   -0.6035   -6.8089 O   0  0  0  0  0  0  0  0  0  0  0  0
    2.1026   -1.2054   -8.5327 O   0  0  0  0  0  0  0  0  0  0  0  0
    3.9569    0.3288   -9.1768 N   0  0  0  0  0  0  0  0  0  0  0  0
    4.9488    1.3062   -8.9472 C   0  0  0  0  0  0  0  0  0  0  0  0
    6.1829    0.9987   -8.3851 C   0  0  0  0  0  0  0  0  0  0  0  0
    7.1536    1.9981   -8.2638 C   0  0  0  0  0  0  0  0  0  0  0  0
    6.8989    3.2912   -8.7357 C   0  0  0  0  0  0  0  0  0  0  0  0
    5.6753    3.5913   -9.3419 C   0  0  0  0  0  0  0  0  0  0  0  0
    5.4433    4.8837   -9.9846 C   0  0  0  0  0  0  0  0  0  0  0  0
    4.5477    5.1262  -11.0578 C   0  0  0  0  0  0  0  0  0  0  0  0
    4.6993    6.4437  -11.4033 C   0  0  0  0  0  0  0  0  0  0  0  0
    4.0593    7.1496  -12.4169 N   0  0  0  0  0  0  0  0  0  0  0  0
    3.0856    6.5396  -13.2893 C   0  0  0  0  0  0  0  0  0  0  0  0
    2.7652    5.3674  -13.1737 O   0  0  0  0  0  0  0  0  0  0  0  0
    2.4428    7.3973  -14.3047 C   0  0  0  0  0  0  0  0  0  0  0  0
    3.0712    8.5190  -14.8393 C   0  0  0  0  0  0  0  0  0  0  0  0
    2.3975    9.2826  -15.7951 C   0  0  0  0  0  0  0  0  0  0  0  0
    1.1067    8.9525  -16.2454 C   0  0  0  0  0  0  0  0  0  0  0  0
    0.5195    9.7290  -17.2268 N   0  0  0  0  0  0  0  0  0  0  0  0
   -0.5315    9.1938  -18.1095 C   0  0  0  0  0  0  0  0  0  0  0  0
   -0.5307   10.0026  -19.4309 C   0  0  0  0  0  0  0  0  0  0  0  0
   -0.7063   11.4587  -19.2145 N   0  0  0  0  0  0  0  0  0  0  0  0
   -0.6111   12.1782  -20.4835 C   0  0  0  0  0  0  0  0  0  0  0  0
    0.3221   11.9505  -18.2692 C   0  0  0  0  0  0  0  0  0  0  0  0
    0.3314   11.1654  -16.9392 C   0  0  0  0  0  0  0  0  0  0  0  0
    0.5111    7.8047  -15.7164 C   0  0  0  0  0  0  0  0  0  0  0  0
    1.1683    7.0323  -14.7555 C   0  0  0  0  0  0  0  0  0  0  0  0
    5.6366    6.9270  -10.5284 N   0  0  0  0  0  0  0  0  0  0  0  0
    6.1129    6.0038   -9.6731 N   0  0  0  0  0  0  0  0  0  0  0  0
    4.6956    2.5917   -9.4199 C   0  0  0  0  0  0  0  0  0  0  0  0
    2.4491    1.9767   -6.4204 C   0  0  0  0  0  0  0  0  0  0  0  0
    1.6666    3.0613   -6.0199 C   0  0  0  0  0  0  0  0  0  0  0  0
   -1.8042    5.6925   -6.2840 H   0  0  0  0  0  0  0  0  0  0  0  0
   -2.1842    4.0011   -6.6358 H   0  0  0  0  0  0  0  0  0  0  0  0
   -1.2969    5.0195   -7.8367 H   0  0  0  0  0  0  0  0  0  0  0  0
   -0.9093    2.7087   -8.2264 H   0  0  0  0  0  0  0  0  0  0  0  0
    0.4622    0.8030   -8.9332 H   0  0  0  0  0  0  0  0  0  0  0  0
    4.0366   -0.2970   -9.9788 H   0  0  0  0  0  0  0  0  0  0  0  0
    6.4042   -0.0099   -8.0446 H   0  0  0  0  0  0  0  0  0  0  0  0
    8.1212    1.7668   -7.8251 H   0  0  0  0  0  0  0  0  0  0  0  0
    7.6749    4.0513   -8.6592 H   0  0  0  0  0  0  0  0  0  0  0  0
    3.9080    4.3901  -11.5196 H   0  0  0  0  0  0  0  0  0  0  0  0
    4.2623    8.1347  -12.5109 H   0  0  0  0  0  0  0  0  0  0  0  0
    4.0866    8.7996  -14.5809 H   0  0  0  0  0  0  0  0  0  0  0  0
    2.9127   10.1311  -16.2447 H   0  0  0  0  0  0  0  0  0  0  0  0
   -1.5131    9.2623  -17.6226 H   0  0  0  0  0  0  0  0  0  0  0  0
   -0.3441    8.1417  -18.3552 H   0  0  0  0  0  0  0  0  0  0  0  0
   -1.3368    9.6251  -20.0706 H   0  0  0  0  0  0  0  0  0  0  0  0
    0.4192    9.8128  -19.9501 H   0  0  0  0  0  0  0  0  0  0  0  0
   -1.3896   11.8398  -21.1753 H   0  0  0  0  0  0  0  0  0  0  0  0
    0.3635   12.0416  -20.9665 H   0  0  0  0  0  0  0  0  0  0  0  0
   -0.7693   13.2508  -20.3267 H   0  0  0  0  0  0  0  0  0  0  0  0
    0.1400   13.0079  -18.0449 H   0  0  0  0  0  0  0  0  0  0  0  0
    1.3203   11.8751  -18.7223 H   0  0  0  0  0  0  0  0  0  0  0  0
   -0.6179   11.3131  -16.4068 H   0  0  0  0  0  0  0  0  0  0  0  0
    1.1235   11.5723  -16.3011 H   0  0  0  0  0  0  0  0  0  0  0  0
   -0.4818    7.4965  -16.0336 H   0  0  0  0  0  0  0  0  0  0  0  0
    0.6743    6.1429  -14.3663 H   0  0  0  0  0  0  0  0  0  0  0  0
    6.0182    7.8630  -10.4654 H   0  0  0  0  0  0  0  0  0  0  0  0
    3.7260    2.7940   -9.8662 H   0  0  0  0  0  0  0  0  0  0  0  0
    3.3791    1.7643   -5.8958 H   0  0  0  0  0  0  0  0  0  0  0  0
    1.9938    3.6821   -5.1887 H   0  0  0  0  0  0  0  0  0  0  0  0
  1  2  1  0  0  0  0
  1 40  1  0  0  0  0
  1 41  1  0  0  0  0
  1 42  1  0  0  0  0
  2  3  1  0  0  0  0
  3  4  1  0  0  0  0
  3 39  2  0  0  0  0
  4  5  2  0  0  0  0
  4 43  1  0  0  0  0
  5  6  1  0  0  0  0
  5 44  1  0  0  0  0
  6  7  1  0  0  0  0
  6 38  2  0  0  0  0
  7  8  2  0  0  0  0
  7  9  2  0  0  0  0
  7 10  1  0  0  0  0
 10 11  1  0  0  0  0
 10 45  1  0  0  0  0
 11 12  1  0  0  0  0
 11 37  2  0  0  0  0
 12 13  2  0  0  0  0
 12 46  1  0  0  0  0
 13 14  1  0  0  0  0
 13 47  1  0  0  0  0
 14 15  2  0  0  0  0
 14 48  1  0  0  0  0
 15 16  1  0  0  0  0
 15 37  1  0  0  0  0
 16 17  1  0  0  0  0
 16 36  2  0  0  0  0
 17 18  2  0  0  0  0
 17 49  1  0  0  0  0
 18 19  1  0  0  0  0
 18 35  1  0  0  0  0
 19 20  1  0  0  0  0
 19 50  1  0  0  0  0
 20 21  2  0  0  0  0
 20 22  1  0  0  0  0
 22 23  1  0  0  0  0
 22 34  2  0  0  0  0
 23 24  2  0  0  0  0
 23 51  1  0  0  0  0
 24 25  1  0  0  0  0
 24 52  1  0  0  0  0
 25 26  1  0  0  0  0
 25 33  2  0  0  0  0
 26 27  1  0  0  0  0
 26 32  1  0  0  0  0
 27 28  1  0  0  0  0
 27 53  1  0  0  0  0
 27 54  1  0  0  0  0
 28 29  1  0  0  0  0
 28 55  1  0  0  0  0
 28 56  1  0  0  0  0
 29 30  1  0  0  0  0
 29 31  1  0  0  0  0
 30 57  1  0  0  0  0
 30 58  1  0  0  0  0
 30 59  1  0  0  0  0
 31 32  1  0  0  0  0
 31 60  1  0  0  0  0
 31 61  1  0  0  0  0
 32 62  1  0  0  0  0
 32 63  1  0  0  0  0
 33 34  1  0  0  0  0
 33 64  1  0  0  0  0
 34 65  1  0  0  0  0
 35 36  1  0  0  0  0
 35 66  1  0  0  0  0
 37 67  1  0  0  0  0
 38 39  1  0  0  0  0
 38 68  1  0  0  0  0
 39 69  1  0  0  0  0
M  END
$$$$
