CHEMBL4075561
 OpenBabel04072215383D

 76 81  0  0  0  0  0  0  0  0999 V2000
    9.8980   -2.7551    4.4130 C   0  0  0  0  0  0  0  0  0  0  0  0
    9.9499   -4.0064    3.7187 O   0  0  0  0  0  0  0  0  0  0  0  0
    8.8566   -4.2686    2.9311 C   0  0  0  0  0  0  0  0  0  0  0  0
    8.1857   -3.2290    2.2681 C   0  0  0  0  0  0  0  0  0  0  0  0
    7.0208   -3.4317    1.5495 C   0  0  0  0  0  0  0  0  0  0  0  0
    6.4110   -2.3564    1.0433 N   0  0  0  0  0  0  0  0  0  0  0  0
    5.2382   -2.5586    0.4389 C   0  0  0  0  0  0  0  0  0  0  0  0
    4.6348   -3.7357    0.2853 N   0  0  0  0  0  0  0  0  0  0  0  0
    5.3073   -4.8170    0.7343 C   0  0  0  0  0  0  0  0  0  0  0  0
    4.7358   -6.0854    0.5432 O   0  0  0  0  0  0  0  0  0  0  0  0
    3.7340   -6.1931   -0.4149 C   0  0  0  0  0  0  0  0  0  0  0  0
    3.9162   -5.6175   -1.6685 C   0  0  0  0  0  0  0  0  0  0  0  0
    2.8788   -5.5879   -2.5898 C   0  0  0  0  0  0  0  0  0  0  0  0
    1.6454   -6.1887   -2.3286 C   0  0  0  0  0  0  0  0  0  0  0  0
    0.5540   -6.0217   -3.2458 N   0  0  0  0  0  0  0  0  0  0  0  0
    0.5671   -5.3377   -4.4662 C   0  0  0  0  0  0  0  0  0  0  0  0
    1.5564   -4.8981   -5.0386 O   0  0  0  0  0  0  0  0  0  0  0  0
   -0.7244   -5.1491   -4.9526 N   0  0  0  0  0  0  0  0  0  0  0  0
   -1.0277   -4.4174   -6.1333 C   0  0  0  0  0  0  0  0  0  0  0  0
   -2.1276   -3.5675   -6.0937 C   0  0  0  0  0  0  0  0  0  0  0  0
   -2.5044   -2.8337   -7.2234 C   0  0  0  0  0  0  0  0  0  0  0  0
   -1.8374   -2.9577   -8.4607 C   0  0  0  0  0  0  0  0  0  0  0  0
   -2.3858   -2.1321   -9.6200 C   0  0  0  0  0  0  0  0  0  0  0  0
   -3.4974   -2.6530  -10.4202 N   0  0  0  0  0  0  0  0  0  0  0  0
   -4.7222   -3.0571   -9.7242 C   0  0  0  0  0  0  0  0  0  0  0  0
   -4.7463   -4.5366   -9.3039 C   0  0  0  0  0  0  0  0  0  0  0  0
   -4.4646   -5.4092  -10.4052 O   0  0  0  0  0  0  0  0  0  0  0  0
   -3.2180   -5.0783  -11.0321 C   0  0  0  0  0  0  0  0  0  0  0  0
   -3.1820   -3.6117  -11.4825 C   0  0  0  0  0  0  0  0  0  0  0  0
   -0.6887   -3.7847   -8.5036 C   0  0  0  0  0  0  0  0  0  0  0  0
    0.2061   -3.9523   -9.7193 C   0  0  0  0  0  0  0  0  0  0  0  0
   -0.1448   -3.2231  -10.8125 F   0  0  0  0  0  0  0  0  0  0  0  0
    1.4999   -3.6083   -9.4640 F   0  0  0  0  0  0  0  0  0  0  0  0
    0.2450   -5.2437  -10.1563 F   0  0  0  0  0  0  0  0  0  0  0  0
   -0.3037   -4.5051   -7.3283 C   0  0  0  0  0  0  0  0  0  0  0  0
    1.4959   -6.9383   -1.1109 C   0  0  0  0  0  0  0  0  0  0  0  0
    0.3508   -7.7169   -0.7890 C   0  0  0  0  0  0  0  0  0  0  0  0
    0.2537   -8.4535    0.3956 C   0  0  0  0  0  0  0  0  0  0  0  0
    1.2877   -8.4316    1.3218 C   0  0  0  0  0  0  0  0  0  0  0  0
    2.4194   -7.6627    1.0605 C   0  0  0  0  0  0  0  0  0  0  0  0
    2.5567   -6.9281   -0.1419 C   0  0  0  0  0  0  0  0  0  0  0  0
    6.5275   -4.7313    1.4159 C   0  0  0  0  0  0  0  0  0  0  0  0
    7.2614   -5.8056    1.9717 C   0  0  0  0  0  0  0  0  0  0  0  0
    8.4088   -5.5827    2.7504 C   0  0  0  0  0  0  0  0  0  0  0  0
    8.9263   -6.7459    3.2488 O   0  0  0  0  0  0  0  0  0  0  0  0
    9.8798   -6.6892    4.2984 C   0  0  0  0  0  0  0  0  0  0  0  0
   10.6290   -2.7806    5.2259 H   0  0  0  0  0  0  0  0  0  0  0  0
    8.9112   -2.5781    4.8593 H   0  0  0  0  0  0  0  0  0  0  0  0
   10.1745   -1.9294    3.7481 H   0  0  0  0  0  0  0  0  0  0  0  0
    8.5543   -2.2080    2.3190 H   0  0  0  0  0  0  0  0  0  0  0  0
    4.7337   -1.6873    0.0367 H   0  0  0  0  0  0  0  0  0  0  0  0
    4.8494   -5.1210   -1.9250 H   0  0  0  0  0  0  0  0  0  0  0  0
    3.0751   -5.0470   -3.5051 H   0  0  0  0  0  0  0  0  0  0  0  0
   -0.3189   -6.4441   -2.9831 H   0  0  0  0  0  0  0  0  0  0  0  0
   -1.4386   -5.1352   -4.2404 H   0  0  0  0  0  0  0  0  0  0  0  0
   -2.6783   -3.4172   -5.1690 H   0  0  0  0  0  0  0  0  0  0  0  0
   -3.3395   -2.1411   -7.1264 H   0  0  0  0  0  0  0  0  0  0  0  0
   -1.5809   -1.7881  -10.2750 H   0  0  0  0  0  0  0  0  0  0  0  0
   -2.7373   -1.1832   -9.1889 H   0  0  0  0  0  0  0  0  0  0  0  0
   -5.5489   -2.9098  -10.4339 H   0  0  0  0  0  0  0  0  0  0  0  0
   -4.9474   -2.3984   -8.8793 H   0  0  0  0  0  0  0  0  0  0  0  0
   -5.7489   -4.7901   -8.9435 H   0  0  0  0  0  0  0  0  0  0  0  0
   -4.0489   -4.7507   -8.4902 H   0  0  0  0  0  0  0  0  0  0  0  0
   -3.1214   -5.7266  -11.9096 H   0  0  0  0  0  0  0  0  0  0  0  0
   -2.3936   -5.3169  -10.3552 H   0  0  0  0  0  0  0  0  0  0  0  0
   -3.9595   -3.4909  -12.2512 H   0  0  0  0  0  0  0  0  0  0  0  0
   -2.2411   -3.3713  -11.9848 H   0  0  0  0  0  0  0  0  0  0  0  0
    0.5721   -5.1562   -7.3769 H   0  0  0  0  0  0  0  0  0  0  0  0
   -0.4796   -7.8019   -1.4869 H   0  0  0  0  0  0  0  0  0  0  0  0
   -0.6197   -9.0775    0.5840 H   0  0  0  0  0  0  0  0  0  0  0  0
    1.2227   -9.0179    2.2353 H   0  0  0  0  0  0  0  0  0  0  0  0
    3.2219   -7.6660    1.7984 H   0  0  0  0  0  0  0  0  0  0  0  0
    6.9139   -6.8279    1.8324 H   0  0  0  0  0  0  0  0  0  0  0  0
    9.9174   -7.6855    4.7524 H   0  0  0  0  0  0  0  0  0  0  0  0
    9.5892   -5.9943    5.0918 H   0  0  0  0  0  0  0  0  0  0  0  0
   10.8763   -6.4693    3.9045 H   0  0  0  0  0  0  0  0  0  0  0  0
  1  2  1  0  0  0  0
  1 47  1  0  0  0  0
  1 48  1  0  0  0  0
  1 49  1  0  0  0  0
  2  3  1  0  0  0  0
  3  4  1  0  0  0  0
  3 44  2  0  0  0  0
  4  5  2  0  0  0  0
  4 50  1  0  0  0  0
  5  6  1  0  0  0  0
  5 42  1  0  0  0  0
  6  7  2  0  0  0  0
  7  8  1  0  0  0  0
  7 51  1  0  0  0  0
  8  9  2  0  0  0  0
  9 10  1  0  0  0  0
  9 42  1  0  0  0  0
 10 11  1  0  0  0  0
 11 12  1  0  0  0  0
 11 41  2  0  0  0  0
 12 13  2  0  0  0  0
 12 52  1  0  0  0  0
 13 14  1  0  0  0  0
 13 53  1  0  0  0  0
 14 15  1  0  0  0  0
 14 36  2  0  0  0  0
 15 16  1  0  0  0  0
 15 54  1  0  0  0  0
 16 17  2  0  0  0  0
 16 18  1  0  0  0  0
 18 19  1  0  0  0  0
 18 55  1  0  0  0  0
 19 20  1  0  0  0  0
 19 35  2  0  0  0  0
 20 21  2  0  0  0  0
 20 56  1  0  0  0  0
 21 22  1  0  0  0  0
 21 57  1  0  0  0  0
 22 23  1  0  0  0  0
 22 30  2  0  0  0  0
 23 24  1  0  0  0  0
 23 58  1  0  0  0  0
 23 59  1  0  0  0  0
 24 25  1  0  0  0  0
 24 29  1  0  0  0  0
 25 26  1  0  0  0  0
 25 60  1  0  0  0  0
 25 61  1  0  0  0  0
 26 27  1  0  0  0  0
 26 62  1  0  0  0  0
 26 63  1  0  0  0  0
 27 28  1  0  0  0  0
 28 29  1  0  0  0  0
 28 64  1  0  0  0  0
 28 65  1  0  0  0  0
 29 66  1  0  0  0  0
 29 67  1  0  0  0  0
 30 31  1  0  0  0  0
 30 35  1  0  0  0  0
 31 32  1  0  0  0  0
 31 33  1  0  0  0  0
 31 34  1  0  0  0  0
 35 68  1  0  0  0  0
 36 37  1  0  0  0  0
 36 41  1  0  0  0  0
 37 38  2  0  0  0  0
 37 69  1  0  0  0  0
 38 39  1  0  0  0  0
 38 70  1  0  0  0  0
 39 40  2  0  0  0  0
 39 71  1  0  0  0  0
 40 41  1  0  0  0  0
 40 72  1  0  0  0  0
 42 43  2  0  0  0  0
 43 44  1  0  0  0  0
 43 73  1  0  0  0  0
 44 45  1  0  0  0  0
 45 46  1  0  0  0  0
 46 74  1  0  0  0  0
 46 75  1  0  0  0  0
 46 76  1  0  0  0  0
M  END
$$$$
