CHEMBL3947664
 OpenBabel04072215373D

 65 68  0  0  0  0  0  0  0  0999 V2000
    0.5962   -0.9634    3.9505 C   0  0  0  0  0  0  0  0  0  0  0  0
    1.9390   -0.5861    4.2720 O   0  0  0  0  0  0  0  0  0  0  0  0
    2.8536   -0.5766    3.2436 C   0  0  0  0  0  0  0  0  0  0  0  0
    2.5542   -0.9562    1.9348 C   0  0  0  0  0  0  0  0  0  0  0  0
    3.5255   -0.8542    0.9448 C   0  0  0  0  0  0  0  0  0  0  0  0
    3.3507   -1.1592   -0.3789 O   0  0  0  0  0  0  0  0  0  0  0  0
    2.1002   -1.7262   -0.7516 C   0  0  0  0  0  0  0  0  0  0  0  0
    4.8011   -0.3729    1.2674 C   0  0  0  0  0  0  0  0  0  0  0  0
    5.1569    0.0129    2.5701 C   0  0  0  0  0  0  0  0  0  0  0  0
    6.3913    0.6616    2.8463 N   0  0  0  0  0  0  0  0  0  0  0  0
    6.9304    1.5744    1.7369 C   0  0  0  0  0  0  0  0  0  0  0  0
    6.0175    2.7489    1.3063 C   0  0  0  0  0  0  0  0  0  0  0  0
    6.6623    3.5915    0.1962 C   0  0  0  0  0  0  0  0  0  0  0  0
    7.7821    3.3669   -0.2512 O   0  0  0  0  0  0  0  0  0  0  0  0
    5.8599    4.6318   -0.2766 N   0  0  0  0  0  0  0  0  0  0  0  0
    6.2597    5.5401   -1.3659 C   0  0  0  0  0  0  0  0  0  0  0  0
    5.0312    6.0389   -2.1364 C   0  0  0  0  0  0  0  0  0  0  0  0
    7.0416    6.7516   -0.8505 C   0  0  0  0  0  0  0  0  0  0  0  0
    7.4886    0.2460    3.7029 C   0  0  0  0  0  0  0  0  0  0  0  0
    8.1372    1.3004    4.3355 C   0  0  0  0  0  0  0  0  0  0  0  0
    9.4656    1.1781    4.7177 C   0  0  0  0  0  0  0  0  0  0  0  0
   10.1299   -0.0094    4.6422 C   0  0  0  0  0  0  0  0  0  0  0  0
   11.4398    0.1005    4.8706 N   0  0  0  0  0  0  0  0  0  0  0  0
   12.1331   -1.0299    5.0017 C   0  0  0  0  0  0  0  0  0  0  0  0
   11.5213   -2.2699    5.0006 C   0  0  0  0  0  0  0  0  0  0  0  0
   12.3330   -3.3574    5.5427 C   0  0  0  0  0  0  0  0  0  0  0  0
   12.3532   -3.9031    6.8580 C   0  0  0  0  0  0  0  0  0  0  0  0
   13.4129   -4.6915    7.0876 N   0  0  0  0  0  0  0  0  0  0  0  0
   14.0913   -4.6464    5.9293 N   0  0  0  0  0  0  0  0  0  0  0  0
   15.1600   -5.5833    5.6659 C   0  0  0  0  0  0  0  0  0  0  0  0
   13.5787   -3.7294    5.0507 C   0  0  0  0  0  0  0  0  0  0  0  0
   10.1877   -2.4002    4.6419 N   0  0  0  0  0  0  0  0  0  0  0  0
    9.4524   -1.2239    4.3710 C   0  0  0  0  0  0  0  0  0  0  0  0
    8.0996   -1.0425    3.8266 C   0  0  0  0  0  0  0  0  0  0  0  0
    4.1557   -0.1171    3.5579 C   0  0  0  0  0  0  0  0  0  0  0  0
   -0.0233   -0.8448    4.8458 H   0  0  0  0  0  0  0  0  0  0  0  0
    0.5429   -2.0168    3.6514 H   0  0  0  0  0  0  0  0  0  0  0  0
    0.1660   -0.3179    3.1746 H   0  0  0  0  0  0  0  0  0  0  0  0
    1.5657   -1.3165    1.6829 H   0  0  0  0  0  0  0  0  0  0  0  0
    2.1460   -1.9644   -1.8181 H   0  0  0  0  0  0  0  0  0  0  0  0
    1.2839   -1.0109   -0.6045 H   0  0  0  0  0  0  0  0  0  0  0  0
    1.9111   -2.6585   -0.2094 H   0  0  0  0  0  0  0  0  0  0  0  0
    5.5182   -0.2902    0.4568 H   0  0  0  0  0  0  0  0  0  0  0  0
    7.2204    0.9637    0.8752 H   0  0  0  0  0  0  0  0  0  0  0  0
    7.8676    2.0484    2.0556 H   0  0  0  0  0  0  0  0  0  0  0  0
    5.8261    3.4106    2.1630 H   0  0  0  0  0  0  0  0  0  0  0  0
    5.0546    2.3917    0.9323 H   0  0  0  0  0  0  0  0  0  0  0  0
    5.0031    4.8309    0.2173 H   0  0  0  0  0  0  0  0  0  0  0  0
    6.9024    4.9859   -2.0580 H   0  0  0  0  0  0  0  0  0  0  0  0
    4.3709    6.6317   -1.4936 H   0  0  0  0  0  0  0  0  0  0  0  0
    4.4475    5.2034   -2.5344 H   0  0  0  0  0  0  0  0  0  0  0  0
    5.3276    6.6739   -2.9810 H   0  0  0  0  0  0  0  0  0  0  0  0
    6.4306    7.3621   -0.1767 H   0  0  0  0  0  0  0  0  0  0  0  0
    7.3536    7.3941   -1.6845 H   0  0  0  0  0  0  0  0  0  0  0  0
    7.9411    6.4470   -0.3087 H   0  0  0  0  0  0  0  0  0  0  0  0
    7.6699    2.2775    4.3997 H   0  0  0  0  0  0  0  0  0  0  0  0
    9.9958    2.0560    5.0372 H   0  0  0  0  0  0  0  0  0  0  0  0
   13.1959   -0.9045    5.1811 H   0  0  0  0  0  0  0  0  0  0  0  0
   11.6673   -3.7249    7.6765 H   0  0  0  0  0  0  0  0  0  0  0  0
   15.2890   -6.2553    6.5193 H   0  0  0  0  0  0  0  0  0  0  0  0
   16.0875   -5.0401    5.4691 H   0  0  0  0  0  0  0  0  0  0  0  0
   14.8680   -6.1661    4.7877 H   0  0  0  0  0  0  0  0  0  0  0  0
   14.1279   -3.4472    4.1630 H   0  0  0  0  0  0  0  0  0  0  0  0
    7.5840   -1.9193    3.4568 H   0  0  0  0  0  0  0  0  0  0  0  0
    4.3562    0.2099    4.5762 H   0  0  0  0  0  0  0  0  0  0  0  0
  1  2  1  0  0  0  0
  1 36  1  0  0  0  0
  1 37  1  0  0  0  0
  1 38  1  0  0  0  0
  2  3  1  0  0  0  0
  3  4  1  0  0  0  0
  3 35  2  0  0  0  0
  4  5  2  0  0  0  0
  4 39  1  0  0  0  0
  5  6  1  0  0  0  0
  5  8  1  0  0  0  0
  6  7  1  0  0  0  0
  7 40  1  0  0  0  0
  7 41  1  0  0  0  0
  7 42  1  0  0  0  0
  8  9  2  0  0  0  0
  8 43  1  0  0  0  0
  9 10  1  0  0  0  0
  9 35  1  0  0  0  0
 10 11  1  0  0  0  0
 10 19  1  0  0  0  0
 11 12  1  0  0  0  0
 11 44  1  0  0  0  0
 11 45  1  0  0  0  0
 12 13  1  0  0  0  0
 12 46  1  0  0  0  0
 12 47  1  0  0  0  0
 13 14  2  0  0  0  0
 13 15  1  0  0  0  0
 15 16  1  0  0  0  0
 15 48  1  0  0  0  0
 16 17  1  0  0  0  0
 16 18  1  0  0  0  0
 16 49  1  0  0  0  0
 17 50  1  0  0  0  0
 17 51  1  0  0  0  0
 17 52  1  0  0  0  0
 18 53  1  0  0  0  0
 18 54  1  0  0  0  0
 18 55  1  0  0  0  0
 19 20  1  0  0  0  0
 19 34  2  0  0  0  0
 20 21  2  0  0  0  0
 20 56  1  0  0  0  0
 21 22  1  0  0  0  0
 21 57  1  0  0  0  0
 22 23  1  0  0  0  0
 22 33  2  0  0  0  0
 23 24  2  0  0  0  0
 24 25  1  0  0  0  0
 24 58  1  0  0  0  0
 25 26  1  0  0  0  0
 25 32  2  0  0  0  0
 26 27  1  0  0  0  0
 26 31  2  0  0  0  0
 27 28  2  0  0  0  0
 27 59  1  0  0  0  0
 28 29  1  0  0  0  0
 29 30  1  0  0  0  0
 29 31  1  0  0  0  0
 30 60  1  0  0  0  0
 30 61  1  0  0  0  0
 30 62  1  0  0  0  0
 31 63  1  0  0  0  0
 32 33  1  0  0  0  0
 33 34  1  0  0  0  0
 34 64  1  0  0  0  0
 35 65  1  0  0  0  0
M  END
$$$$
