CHEMBL249502
 OpenBabel04072215363D

 55 60  0  0  0  0  0  0  0  0999 V2000
   10.9350   -3.5074   -3.9884 C   0  0  0  0  0  0  0  0  0  0  0  0
    9.8776   -4.5871   -4.1634 C   0  0  0  0  0  0  0  0  0  0  0  0
   10.4280   -5.9687   -3.8158 C   0  0  0  0  0  0  0  0  0  0  0  0
    8.7191   -4.2876   -3.3397 N   0  0  0  0  0  0  0  0  0  0  0  0
    7.4300   -4.5297   -3.7619 C   0  0  0  0  0  0  0  0  0  0  0  0
    7.1483   -4.9406   -4.8832 O   0  0  0  0  0  0  0  0  0  0  0  0
    6.3536   -4.2370   -2.7924 C   0  0  0  0  0  0  0  0  0  0  0  0
    5.0559   -3.9722   -3.2716 C   0  0  0  0  0  0  0  0  0  0  0  0
    4.0094   -3.6818   -2.3936 C   0  0  0  0  0  0  0  0  0  0  0  0
    4.2075   -3.6722   -1.0094 C   0  0  0  0  0  0  0  0  0  0  0  0
    5.4972   -3.9604   -0.5545 C   0  0  0  0  0  0  0  0  0  0  0  0
    6.0229   -4.0703    0.7055 N   0  0  0  0  0  0  0  0  0  0  0  0
    7.3581   -4.3596    0.5901 C   0  0  0  0  0  0  0  0  0  0  0  0
    8.2477   -4.5428    1.7741 C   0  0  0  0  0  0  0  0  0  0  0  0
    7.7563   -4.4943    3.0266 N   0  0  0  0  0  0  0  0  0  0  0  0
    8.8581   -4.6547    3.7915 N   0  0  0  0  0  0  0  0  0  0  0  0
   10.0166   -4.7388    3.0769 C   0  0  0  0  0  0  0  0  0  0  0  0
   11.2573   -4.7997    3.5848 N   0  0  0  0  0  0  0  0  0  0  0  0
   12.2083   -4.8599    2.6150 C   0  0  0  0  0  0  0  0  0  0  0  0
   12.0119   -4.9551    1.2295 C   0  0  0  0  0  0  0  0  0  0  0  0
   13.1453   -5.0666    0.2680 C   0  0  0  0  0  0  0  0  0  0  0  0
   13.0938   -4.3274   -0.9206 C   0  0  0  0  0  0  0  0  0  0  0  0
   14.0332   -4.3110   -1.8925 N   0  0  0  0  0  0  0  0  0  0  0  0
   15.1414   -5.0367   -1.6565 C   0  0  0  0  0  0  0  0  0  0  0  0
   15.3615   -5.7865   -0.5033 C   0  0  0  0  0  0  0  0  0  0  0  0
   16.5788   -6.4589   -0.3121 C   0  0  0  0  0  0  0  0  0  0  0  0
   16.8100   -7.1997    0.8438 C   0  0  0  0  0  0  0  0  0  0  0  0
   15.8042   -7.3195    1.7892 C   0  0  0  0  0  0  0  0  0  0  0  0
   14.5778   -6.6807    1.5898 C   0  0  0  0  0  0  0  0  0  0  0  0
   14.3311   -5.8429    0.4725 C   0  0  0  0  0  0  0  0  0  0  0  0
   10.6748   -4.8782    0.7900 C   0  0  0  0  0  0  0  0  0  0  0  0
    9.6516   -4.7373    1.7444 C   0  0  0  0  0  0  0  0  0  0  0  0
    7.7279   -4.4297   -0.6721 N   0  0  0  0  0  0  0  0  0  0  0  0
    6.5736   -4.2224   -1.4030 C   0  0  0  0  0  0  0  0  0  0  0  0
   11.8270   -3.7212   -4.5856 H   0  0  0  0  0  0  0  0  0  0  0  0
   11.2319   -3.4188   -2.9432 H   0  0  0  0  0  0  0  0  0  0  0  0
   10.5461   -2.5295   -4.2905 H   0  0  0  0  0  0  0  0  0  0  0  0
    9.5701   -4.5962   -5.2154 H   0  0  0  0  0  0  0  0  0  0  0  0
   10.7233   -6.0278   -2.7625 H   0  0  0  0  0  0  0  0  0  0  0  0
   11.3019   -6.2090   -4.4304 H   0  0  0  0  0  0  0  0  0  0  0  0
    9.6712   -6.7425   -3.9883 H   0  0  0  0  0  0  0  0  0  0  0  0
    8.8566   -4.0895   -2.3508 H   0  0  0  0  0  0  0  0  0  0  0  0
    4.8701   -3.9840   -4.3448 H   0  0  0  0  0  0  0  0  0  0  0  0
    3.0220   -3.4656   -2.7972 H   0  0  0  0  0  0  0  0  0  0  0  0
    3.3903   -3.4578   -0.3282 H   0  0  0  0  0  0  0  0  0  0  0  0
    5.5400   -3.9607    1.5868 H   0  0  0  0  0  0  0  0  0  0  0  0
    8.7686   -4.6759    4.8003 H   0  0  0  0  0  0  0  0  0  0  0  0
   13.2182   -4.8160    3.0244 H   0  0  0  0  0  0  0  0  0  0  0  0
   12.2535   -3.6734   -1.1256 H   0  0  0  0  0  0  0  0  0  0  0  0
   15.8843   -4.9899   -2.4486 H   0  0  0  0  0  0  0  0  0  0  0  0
   17.3671   -6.3984   -1.0589 H   0  0  0  0  0  0  0  0  0  0  0  0
   17.7678   -7.6907    0.9984 H   0  0  0  0  0  0  0  0  0  0  0  0
   15.9669   -7.9075    2.6890 H   0  0  0  0  0  0  0  0  0  0  0  0
   13.8122   -6.8582    2.3391 H   0  0  0  0  0  0  0  0  0  0  0  0
   10.4139   -4.9052   -0.2633 H   0  0  0  0  0  0  0  0  0  0  0  0
  1  2  1  0  0  0  0
  1 35  1  0  0  0  0
  1 36  1  0  0  0  0
  1 37  1  0  0  0  0
  2  3  1  0  0  0  0
  2  4  1  0  0  0  0
  2 38  1  0  0  0  0
  3 39  1  0  0  0  0
  3 40  1  0  0  0  0
  3 41  1  0  0  0  0
  4  5  1  0  0  0  0
  4 42  1  0  0  0  0
  5  6  2  0  0  0  0
  5  7  1  0  0  0  0
  7  8  1  0  0  0  0
  7 34  2  0  0  0  0
  8  9  2  0  0  0  0
  8 43  1  0  0  0  0
  9 10  1  0  0  0  0
  9 44  1  0  0  0  0
 10 11  2  0  0  0  0
 10 45  1  0  0  0  0
 11 12  1  0  0  0  0
 11 34  1  0  0  0  0
 12 13  1  0  0  0  0
 12 46  1  0  0  0  0
 13 14  1  0  0  0  0
 13 33  2  0  0  0  0
 14 15  2  0  0  0  0
 14 32  1  0  0  0  0
 15 16  1  0  0  0  0
 16 17  1  0  0  0  0
 16 47  1  0  0  0  0
 17 18  1  0  0  0  0
 17 32  2  0  0  0  0
 18 19  2  0  0  0  0
 19 20  1  0  0  0  0
 19 48  1  0  0  0  0
 20 21  1  0  0  0  0
 20 31  2  0  0  0  0
 21 22  1  0  0  0  0
 21 30  2  0  0  0  0
 22 23  2  0  0  0  0
 22 49  1  0  0  0  0
 23 24  1  0  0  0  0
 24 25  2  0  0  0  0
 24 50  1  0  0  0  0
 25 26  1  0  0  0  0
 25 30  1  0  0  0  0
 26 27  2  0  0  0  0
 26 51  1  0  0  0  0
 27 28  1  0  0  0  0
 27 52  1  0  0  0  0
 28 29  2  0  0  0  0
 28 53  1  0  0  0  0
 29 30  1  0  0  0  0
 29 54  1  0  0  0  0
 31 32  1  0  0  0  0
 31 55  1  0  0  0  0
 33 34  1  0  0  0  0
M  END
$$$$
