CHEMBL423221
 OpenBabel04072215383D

 50 55  0  0  0  0  0  0  0  0999 V2000
    2.3111    0.6607    1.4817 O   0  0  0  0  0  0  0  0  0  0  0  0
    2.0036    0.2933    0.3545 C   0  0  0  0  0  0  0  0  0  0  0  0
    2.7795   -0.7287   -0.3715 C   0  0  0  0  0  0  0  0  0  0  0  0
    2.4213   -1.0375   -1.6853 C   0  0  0  0  0  0  0  0  0  0  0  0
    3.2083   -1.8861   -2.4442 C   0  0  0  0  0  0  0  0  0  0  0  0
    4.3701   -2.4271   -1.8673 C   0  0  0  0  0  0  0  0  0  0  0  0
    4.6755   -2.1765   -0.5014 C   0  0  0  0  0  0  0  0  0  0  0  0
    3.8730   -1.3296    0.2611 C   0  0  0  0  0  0  0  0  0  0  0  0
    5.7702   -2.9911   -0.3086 C   0  0  0  0  0  0  0  0  0  0  0  0
    6.2043   -3.6115    0.8919 C   0  0  0  0  0  0  0  0  0  0  0  0
    6.9367   -4.8652    0.7046 C   0  0  0  0  0  0  0  0  0  0  0  0
    7.2143   -5.2898   -0.6032 C   0  0  0  0  0  0  0  0  0  0  0  0
    7.4864   -4.1467   -1.3547 C   0  0  0  0  0  0  0  0  0  0  0  0
    6.3938   -3.3444   -1.4639 C   0  0  0  0  0  0  0  0  0  0  0  0
    5.3226   -3.3230   -2.3703 N   0  0  0  0  0  0  0  0  0  0  0  0
    5.0173   -4.4669   -3.2495 C   0  0  0  0  0  0  0  0  0  0  0  0
    4.1490   -4.2739   -4.4932 C   0  0  0  0  0  0  0  0  0  0  0  0
    3.9236   -5.5687   -5.2764 C   0  0  0  0  0  0  0  0  0  0  0  0
    3.1561   -5.2870   -6.4436 O   0  0  0  0  0  0  0  0  0  0  0  0
    8.7299   -4.3387   -2.1138 C   0  0  0  0  0  0  0  0  0  0  0  0
    8.4380   -5.7435   -2.5534 C   0  0  0  0  0  0  0  0  0  0  0  0
    8.4571   -6.0253   -3.9221 C   0  0  0  0  0  0  0  0  0  0  0  0
    7.5198   -6.9176   -4.4005 C   0  0  0  0  0  0  0  0  0  0  0  0
    6.6553   -7.5617   -3.4975 C   0  0  0  0  0  0  0  0  0  0  0  0
    6.6893   -7.3047   -2.0911 C   0  0  0  0  0  0  0  0  0  0  0  0
    7.5807   -6.3530   -1.5646 C   0  0  0  0  0  0  0  0  0  0  0  0
    7.7034   -5.0455    1.9193 C   0  0  0  0  0  0  0  0  0  0  0  0
    8.6144   -5.8058    2.2249 O   0  0  0  0  0  0  0  0  0  0  0  0
    7.3512   -3.9548    2.7390 N   0  0  0  0  0  0  0  0  0  0  0  0
    6.3786   -3.0153    2.2061 C   0  0  0  0  0  0  0  0  0  0  0  0
    1.1464    0.7255   -0.1846 H   0  0  0  0  0  0  0  0  0  0  0  0
    1.5337   -0.6067   -2.1418 H   0  0  0  0  0  0  0  0  0  0  0  0
    2.9243   -2.0967   -3.4812 H   0  0  0  0  0  0  0  0  0  0  0  0
    4.1334   -1.0884    1.2869 H   0  0  0  0  0  0  0  0  0  0  0  0
    4.5571   -5.2260   -2.6011 H   0  0  0  0  0  0  0  0  0  0  0  0
    5.9762   -4.8403   -3.5951 H   0  0  0  0  0  0  0  0  0  0  0  0
    4.5975   -3.5192   -5.1473 H   0  0  0  0  0  0  0  0  0  0  0  0
    3.1550   -3.9183   -4.2241 H   0  0  0  0  0  0  0  0  0  0  0  0
    3.3774   -6.3114   -4.6839 H   0  0  0  0  0  0  0  0  0  0  0  0
    4.8636   -6.0173   -5.6057 H   0  0  0  0  0  0  0  0  0  0  0  0
    2.2601   -5.0331   -6.1619 H   0  0  0  0  0  0  0  0  0  0  0  0
    9.5853   -4.3847   -1.4165 H   0  0  0  0  0  0  0  0  0  0  0  0
    8.9216   -3.5932   -2.8789 H   0  0  0  0  0  0  0  0  0  0  0  0
    9.0022   -5.3722   -4.6019 H   0  0  0  0  0  0  0  0  0  0  0  0
    7.3755   -7.0009   -5.4780 H   0  0  0  0  0  0  0  0  0  0  0  0
    5.8604   -8.1765   -3.9219 H   0  0  0  0  0  0  0  0  0  0  0  0
    5.8617   -7.6905   -1.4981 H   0  0  0  0  0  0  0  0  0  0  0  0
    8.0199   -3.6685    3.4419 H   0  0  0  0  0  0  0  0  0  0  0  0
    6.8265   -2.0210    2.1216 H   0  0  0  0  0  0  0  0  0  0  0  0
    5.4823   -3.0064    2.8269 H   0  0  0  0  0  0  0  0  0  0  0  0
  1  2  2  0  0  0  0
  2  3  1  0  0  0  0
  2 31  1  0  0  0  0
  3  4  1  0  0  0  0
  3  8  2  0  0  0  0
  4  5  2  0  0  0  0
  4 32  1  0  0  0  0
  5  6  1  0  0  0  0
  5 33  1  0  0  0  0
  6  7  2  0  0  0  0
  6 15  1  0  0  0  0
  7  8  1  0  0  0  0
  7  9  1  0  0  0  0
  8 34  1  0  0  0  0
  9 10  1  0  0  0  0
  9 14  2  0  0  0  0
 10 11  2  0  0  0  0
 10 30  1  0  0  0  0
 11 12  1  0  0  0  0
 11 27  1  0  0  0  0
 12 13  2  0  0  0  0
 12 26  1  0  0  0  0
 13 14  1  0  0  0  0
 13 20  1  0  0  0  0
 14 15  1  0  0  0  0
 15 16  1  0  0  0  0
 16 17  1  0  0  0  0
 16 35  1  0  0  0  0
 16 36  1  0  0  0  0
 17 18  1  0  0  0  0
 17 37  1  0  0  0  0
 17 38  1  0  0  0  0
 18 19  1  0  0  0  0
 18 39  1  0  0  0  0
 18 40  1  0  0  0  0
 19 41  1  0  0  0  0
 20 21  1  0  0  0  0
 20 42  1  0  0  0  0
 20 43  1  0  0  0  0
 21 22  1  0  0  0  0
 21 26  2  0  0  0  0
 22 23  2  0  0  0  0
 22 44  1  0  0  0  0
 23 24  1  0  0  0  0
 23 45  1  0  0  0  0
 24 25  2  0  0  0  0
 24 46  1  0  0  0  0
 25 26  1  0  0  0  0
 25 47  1  0  0  0  0
 27 28  2  0  0  0  0
 27 29  1  0  0  0  0
 29 30  1  0  0  0  0
 29 48  1  0  0  0  0
 30 49  1  0  0  0  0
 30 50  1  0  0  0  0
M  END
$$$$
