CHEMBL595406
 OpenBabel04072215383D

 74 79  0  0  0  0  0  0  0  0999 V2000
    2.6920   -0.9521   -0.9407 C   0  0  0  0  0  0  0  0  0  0  0  0
    2.4176    0.1646   -0.0799 O   0  0  0  0  0  0  0  0  0  0  0  0
    3.1126    1.3048   -0.4099 C   0  0  0  0  0  0  0  0  0  0  0  0
    4.2970    1.1927   -1.1436 C   0  0  0  0  0  0  0  0  0  0  0  0
    4.8495    2.2950   -1.7983 C   0  0  0  0  0  0  0  0  0  0  0  0
    5.8887    2.1722   -2.7441 C   0  0  0  0  0  0  0  0  0  0  0  0
    6.2728    0.8920   -3.2139 N   0  0  0  0  0  0  0  0  0  0  0  0
    7.5340    0.4662   -3.7018 C   0  0  0  0  0  0  0  0  0  0  0  0
    8.7036    1.0209   -3.1597 C   0  0  0  0  0  0  0  0  0  0  0  0
    9.9618    0.4584   -3.4001 C   0  0  0  0  0  0  0  0  0  0  0  0
   10.0983   -0.6564   -4.2294 C   0  0  0  0  0  0  0  0  0  0  0  0
   11.4204   -1.2877   -4.3966 C   0  0  0  0  0  0  0  0  0  0  0  0
   12.3514   -1.3356   -3.4704 N   0  0  0  0  0  0  0  0  0  0  0  0
   13.4684   -2.0090   -3.9400 C   0  0  0  0  0  0  0  0  0  0  0  0
   14.6554   -2.2704   -3.2198 C   0  0  0  0  0  0  0  0  0  0  0  0
   15.7160   -2.9386   -3.8471 C   0  0  0  0  0  0  0  0  0  0  0  0
   15.6047   -3.3511   -5.1635 C   0  0  0  0  0  0  0  0  0  0  0  0
   14.4353   -3.1182   -5.8960 C   0  0  0  0  0  0  0  0  0  0  0  0
   13.3840   -2.4493   -5.2583 C   0  0  0  0  0  0  0  0  0  0  0  0
   11.8446   -2.0222   -5.8946 S   0  0  0  0  0  0  0  0  0  0  0  0
    8.9446   -1.1625   -4.8447 C   0  0  0  0  0  0  0  0  0  0  0  0
    7.6656   -0.6189   -4.5980 C   0  0  0  0  0  0  0  0  0  0  0  0
    6.4976   -1.2272   -5.3292 C   0  0  0  0  0  0  0  0  0  0  0  0
    6.4587    3.2628   -3.2830 N   0  0  0  0  0  0  0  0  0  0  0  0
    5.9411    4.4446   -2.9101 C   0  0  0  0  0  0  0  0  0  0  0  0
    4.9074    4.6533   -2.0812 N   0  0  0  0  0  0  0  0  0  0  0  0
    4.3517    3.5689   -1.5273 C   0  0  0  0  0  0  0  0  0  0  0  0
    3.2595    3.6939   -0.6587 C   0  0  0  0  0  0  0  0  0  0  0  0
    2.6252    2.5794   -0.0812 C   0  0  0  0  0  0  0  0  0  0  0  0
    1.5692    2.8936    0.7576 O   0  0  0  0  0  0  0  0  0  0  0  0
    1.3016    1.9152    1.7726 C   0  0  0  0  0  0  0  0  0  0  0  0
    0.6549    2.4954    3.0415 C   0  0  0  0  0  0  0  0  0  0  0  0
    0.4569    1.3825    4.1033 C   0  0  0  0  0  0  0  0  0  0  0  0
    1.6869    0.6684    4.4738 N   0  0  0  0  0  0  0  0  0  0  0  0
    2.7130    1.5174    5.0991 C   0  0  0  0  0  0  0  0  0  0  0  0
    4.0187    0.7080    5.2654 C   0  0  0  0  0  0  0  0  0  0  0  0
    3.8875   -0.4693    6.1462 N   0  0  0  0  0  0  0  0  0  0  0  0
    3.7484   -0.0680    7.5440 C   0  0  0  0  0  0  0  0  0  0  0  0
    2.7416   -1.2839    5.6852 C   0  0  0  0  0  0  0  0  0  0  0  0
    1.4384   -0.4998    5.3464 C   0  0  0  0  0  0  0  0  0  0  0  0
    1.8320   -1.6240   -0.9467 H   0  0  0  0  0  0  0  0  0  0  0  0
    3.5615   -1.5028   -0.5632 H   0  0  0  0  0  0  0  0  0  0  0  0
    2.8616   -0.6505   -1.9836 H   0  0  0  0  0  0  0  0  0  0  0  0
    4.7987    0.2365   -1.2377 H   0  0  0  0  0  0  0  0  0  0  0  0
    5.4860    0.4210   -3.6508 H   0  0  0  0  0  0  0  0  0  0  0  0
    8.6383    1.8709   -2.4859 H   0  0  0  0  0  0  0  0  0  0  0  0
   10.8316    0.8838   -2.9042 H   0  0  0  0  0  0  0  0  0  0  0  0
   14.7415   -1.9471   -2.1877 H   0  0  0  0  0  0  0  0  0  0  0  0
   16.6320   -3.1311   -3.2950 H   0  0  0  0  0  0  0  0  0  0  0  0
   16.4383   -3.8629   -5.6501 H   0  0  0  0  0  0  0  0  0  0  0  0
   14.3513   -3.4507   -6.9306 H   0  0  0  0  0  0  0  0  0  0  0  0
    9.0221   -2.0265   -5.5037 H   0  0  0  0  0  0  0  0  0  0  0  0
    6.8071   -2.0791   -5.9468 H   0  0  0  0  0  0  0  0  0  0  0  0
    6.0492   -0.4898   -6.0033 H   0  0  0  0  0  0  0  0  0  0  0  0
    5.7460   -1.5933   -4.6259 H   0  0  0  0  0  0  0  0  0  0  0  0
    6.4099    5.3301   -3.3398 H   0  0  0  0  0  0  0  0  0  0  0  0
    2.8830    4.6880   -0.4392 H   0  0  0  0  0  0  0  0  0  0  0  0
    2.2432    1.4513    2.0760 H   0  0  0  0  0  0  0  0  0  0  0  0
    0.6168    1.1710    1.3531 H   0  0  0  0  0  0  0  0  0  0  0  0
   -0.3201    2.9416    2.8016 H   0  0  0  0  0  0  0  0  0  0  0  0
    1.2525    3.3239    3.4416 H   0  0  0  0  0  0  0  0  0  0  0  0
   -0.2361    0.6525    3.6630 H   0  0  0  0  0  0  0  0  0  0  0  0
   -0.0403    1.7921    4.9905 H   0  0  0  0  0  0  0  0  0  0  0  0
    2.3619    1.8932    6.0731 H   0  0  0  0  0  0  0  0  0  0  0  0
    2.9409    2.3923    4.4886 H   0  0  0  0  0  0  0  0  0  0  0  0
    4.8252    1.3605    5.6204 H   0  0  0  0  0  0  0  0  0  0  0  0
    4.3415    0.3591    4.2737 H   0  0  0  0  0  0  0  0  0  0  0  0
    4.5918    0.5669    7.8422 H   0  0  0  0  0  0  0  0  0  0  0  0
    3.7738   -0.9448    8.1986 H   0  0  0  0  0  0  0  0  0  0  0  0
    2.8241    0.4807    7.7487 H   0  0  0  0  0  0  0  0  0  0  0  0
    2.5207   -2.0725    6.4163 H   0  0  0  0  0  0  0  0  0  0  0  0
    3.0638   -1.8124    4.7775 H   0  0  0  0  0  0  0  0  0  0  0  0
    0.9592   -0.1822    6.2814 H   0  0  0  0  0  0  0  0  0  0  0  0
    0.7513   -1.1939    4.8477 H   0  0  0  0  0  0  0  0  0  0  0  0
  1  2  1  0  0  0  0
  1 41  1  0  0  0  0
  1 42  1  0  0  0  0
  1 43  1  0  0  0  0
  2  3  1  0  0  0  0
  3  4  1  0  0  0  0
  3 29  2  0  0  0  0
  4  5  2  0  0  0  0
  4 44  1  0  0  0  0
  5  6  1  0  0  0  0
  5 27  1  0  0  0  0
  6  7  1  0  0  0  0
  6 24  2  0  0  0  0
  7  8  1  0  0  0  0
  7 45  1  0  0  0  0
  8  9  1  0  0  0  0
  8 22  2  0  0  0  0
  9 10  2  0  0  0  0
  9 46  1  0  0  0  0
 10 11  1  0  0  0  0
 10 47  1  0  0  0  0
 11 12  1  0  0  0  0
 11 21  2  0  0  0  0
 12 13  2  0  0  0  0
 12 20  1  0  0  0  0
 13 14  1  0  0  0  0
 14 15  1  0  0  0  0
 14 19  2  0  0  0  0
 15 16  2  0  0  0  0
 15 48  1  0  0  0  0
 16 17  1  0  0  0  0
 16 49  1  0  0  0  0
 17 18  2  0  0  0  0
 17 50  1  0  0  0  0
 18 19  1  0  0  0  0
 18 51  1  0  0  0  0
 19 20  1  0  0  0  0
 21 22  1  0  0  0  0
 21 52  1  0  0  0  0
 22 23  1  0  0  0  0
 23 53  1  0  0  0  0
 23 54  1  0  0  0  0
 23 55  1  0  0  0  0
 24 25  1  0  0  0  0
 25 26  2  0  0  0  0
 25 56  1  0  0  0  0
 26 27  1  0  0  0  0
 27 28  2  0  0  0  0
 28 29  1  0  0  0  0
 28 57  1  0  0  0  0
 29 30  1  0  0  0  0
 30 31  1  0  0  0  0
 31 32  1  0  0  0  0
 31 58  1  0  0  0  0
 31 59  1  0  0  0  0
 32 33  1  0  0  0  0
 32 60  1  0  0  0  0
 32 61  1  0  0  0  0
 33 34  1  0  0  0  0
 33 62  1  0  0  0  0
 33 63  1  0  0  0  0
 34 35  1  0  0  0  0
 34 40  1  0  0  0  0
 35 36  1  0  0  0  0
 35 64  1  0  0  0  0
 35 65  1  0  0  0  0
 36 37  1  0  0  0  0
 36 66  1  0  0  0  0
 36 67  1  0  0  0  0
 37 38  1  0  0  0  0
 37 39  1  0  0  0  0
 38 68  1  0  0  0  0
 38 69  1  0  0  0  0
 38 70  1  0  0  0  0
 39 40  1  0  0  0  0
 39 71  1  0  0  0  0
 39 72  1  0  0  0  0
 40 73  1  0  0  0  0
 40 74  1  0  0  0  0
M  END
$$$$
