CHEMBL3916041
 OpenBabel04072215373D

 54 57  0  0  0  0  0  0  0  0999 V2000
   -3.7052   -1.8673   -2.0361 C   0  0  0  0  0  0  0  0  0  0  0  0
   -2.6976   -2.2888   -3.0937 C   0  0  0  0  0  0  0  0  0  0  0  0
   -3.2274   -1.9665   -4.3119 F   0  0  0  0  0  0  0  0  0  0  0  0
   -1.5960   -1.4935   -2.9613 F   0  0  0  0  0  0  0  0  0  0  0  0
   -2.3522   -3.7621   -3.0007 C   0  0  0  0  0  0  0  0  0  0  0  0
   -3.1459   -4.6957   -3.6803 C   0  0  0  0  0  0  0  0  0  0  0  0
   -2.8093   -6.0429   -3.6563 C   0  0  0  0  0  0  0  0  0  0  0  0
   -1.6933   -6.4753   -2.9424 C   0  0  0  0  0  0  0  0  0  0  0  0
   -1.3720   -7.7645   -3.0924 F   0  0  0  0  0  0  0  0  0  0  0  0
   -0.9089   -5.5845   -2.1932 C   0  0  0  0  0  0  0  0  0  0  0  0
    0.1967   -5.9589   -1.3775 N   0  0  0  0  0  0  0  0  0  0  0  0
    0.4915   -7.2379   -0.9398 C   0  0  0  0  0  0  0  0  0  0  0  0
   -0.1617   -8.2505   -1.1709 O   0  0  0  0  0  0  0  0  0  0  0  0
    1.6079   -7.2754   -0.1079 N   0  0  0  0  0  0  0  0  0  0  0  0
    2.1111   -8.5271    0.3380 C   0  0  0  0  0  0  0  0  0  0  0  0
    2.2641   -9.6157   -0.5256 C   0  0  0  0  0  0  0  0  0  0  0  0
    2.7192  -10.8362   -0.1476 N   0  0  0  0  0  0  0  0  0  0  0  0
    2.9709  -11.0115    1.1712 C   0  0  0  0  0  0  0  0  0  0  0  0
    3.3728  -12.2677    1.6223 O   0  0  0  0  0  0  0  0  0  0  0  0
    2.8941  -13.3756    0.9447 C   0  0  0  0  0  0  0  0  0  0  0  0
    1.5977  -13.4450    0.4431 C   0  0  0  0  0  0  0  0  0  0  0  0
    1.2201  -14.5924   -0.2131 C   0  0  0  0  0  0  0  0  0  0  0  0
    2.0239  -15.6628   -0.3494 N   0  0  0  0  0  0  0  0  0  0  0  0
    3.2617  -15.6184    0.1673 C   0  0  0  0  0  0  0  0  0  0  0  0
    4.0945  -16.7467    0.0379 N   0  0  0  0  0  0  0  0  0  0  0  0
    3.7064  -17.9106   -0.6028 C   0  0  0  0  0  0  0  0  0  0  0  0
    2.6340  -18.1427   -1.1417 O   0  0  0  0  0  0  0  0  0  0  0  0
    4.7451  -18.9925   -0.6125 C   0  0  0  0  0  0  0  0  0  0  0  0
    4.8255  -19.9304   -1.8033 C   0  0  0  0  0  0  0  0  0  0  0  0
    4.2985  -20.4383   -0.4937 C   0  0  0  0  0  0  0  0  0  0  0  0
    3.7375  -14.4889    0.8299 C   0  0  0  0  0  0  0  0  0  0  0  0
    2.8652   -9.9792    2.0980 C   0  0  0  0  0  0  0  0  0  0  0  0
    3.1159  -10.1842    3.3991 F   0  0  0  0  0  0  0  0  0  0  0  0
    2.4533   -8.7132    1.6747 C   0  0  0  0  0  0  0  0  0  0  0  0
   -1.2389   -4.2169   -2.2570 C   0  0  0  0  0  0  0  0  0  0  0  0
   -3.9241   -0.7986   -2.1381 H   0  0  0  0  0  0  0  0  0  0  0  0
   -3.3177   -2.0310   -1.0260 H   0  0  0  0  0  0  0  0  0  0  0  0
   -4.6523   -2.4064   -2.1447 H   0  0  0  0  0  0  0  0  0  0  0  0
   -4.0086   -4.3732   -4.2612 H   0  0  0  0  0  0  0  0  0  0  0  0
   -3.3906   -6.7723   -4.2131 H   0  0  0  0  0  0  0  0  0  0  0  0
    0.7779   -5.2121   -1.0269 H   0  0  0  0  0  0  0  0  0  0  0  0
    1.6866   -6.4988    0.5329 H   0  0  0  0  0  0  0  0  0  0  0  0
    2.0259   -9.5378   -1.5842 H   0  0  0  0  0  0  0  0  0  0  0  0
    0.8949  -12.6241    0.5285 H   0  0  0  0  0  0  0  0  0  0  0  0
    0.2384  -14.6935   -0.6638 H   0  0  0  0  0  0  0  0  0  0  0  0
    5.0173  -16.6962    0.4353 H   0  0  0  0  0  0  0  0  0  0  0  0
    5.6893  -18.7485   -0.1406 H   0  0  0  0  0  0  0  0  0  0  0  0
    5.7983  -20.2787   -2.1268 H   0  0  0  0  0  0  0  0  0  0  0  0
    4.1132  -19.7959   -2.6124 H   0  0  0  0  0  0  0  0  0  0  0  0
    4.9151  -21.1280    0.0686 H   0  0  0  0  0  0  0  0  0  0  0  0
    3.2336  -20.6435   -0.4283 H   0  0  0  0  0  0  0  0  0  0  0  0
    4.7366  -14.4534    1.2463 H   0  0  0  0  0  0  0  0  0  0  0  0
    2.3390   -7.9234    2.4086 H   0  0  0  0  0  0  0  0  0  0  0  0
   -0.6372   -3.4821   -1.7228 H   0  0  0  0  0  0  0  0  0  0  0  0
  1  2  1  0  0  0  0
  1 36  1  0  0  0  0
  1 37  1  0  0  0  0
  1 38  1  0  0  0  0
  2  3  1  0  0  0  0
  2  4  1  0  0  0  0
  2  5  1  0  0  0  0
  5  6  1  0  0  0  0
  5 35  2  0  0  0  0
  6  7  2  0  0  0  0
  6 39  1  0  0  0  0
  7  8  1  0  0  0  0
  7 40  1  0  0  0  0
  8  9  1  0  0  0  0
  8 10  2  0  0  0  0
 10 11  1  0  0  0  0
 10 35  1  0  0  0  0
 11 12  1  0  0  0  0
 11 41  1  0  0  0  0
 12 13  2  0  0  0  0
 12 14  1  0  0  0  0
 14 15  1  0  0  0  0
 14 42  1  0  0  0  0
 15 16  1  0  0  0  0
 15 34  2  0  0  0  0
 16 17  2  0  0  0  0
 16 43  1  0  0  0  0
 17 18  1  0  0  0  0
 18 19  1  0  0  0  0
 18 32  2  0  0  0  0
 19 20  1  0  0  0  0
 20 21  1  0  0  0  0
 20 31  2  0  0  0  0
 21 22  2  0  0  0  0
 21 44  1  0  0  0  0
 22 23  1  0  0  0  0
 22 45  1  0  0  0  0
 23 24  2  0  0  0  0
 24 25  1  0  0  0  0
 24 31  1  0  0  0  0
 25 26  1  0  0  0  0
 25 46  1  0  0  0  0
 26 27  2  0  0  0  0
 26 28  1  0  0  0  0
 28 29  1  0  0  0  0
 28 30  1  0  0  0  0
 28 47  1  0  0  0  0
 29 30  1  0  0  0  0
 29 48  1  0  0  0  0
 29 49  1  0  0  0  0
 30 50  1  0  0  0  0
 30 51  1  0  0  0  0
 31 52  1  0  0  0  0
 32 33  1  0  0  0  0
 32 34  1  0  0  0  0
 34 53  1  0  0  0  0
 35 54  1  0  0  0  0
M  END
$$$$
