CHEMBL249821
 OpenBabel04072215363D

 64 68  0  0  0  0  0  0  0  0999 V2000
    0.9543    0.1271   -0.5967 C   0  0  0  0  0  0  0  0  0  0  0  0
    2.3196    0.2004   -1.2257 C   0  0  0  0  0  0  0  0  0  0  0  0
    2.8796   -0.9604   -1.8003 C   0  0  0  0  0  0  0  0  0  0  0  0
    4.1200   -0.9526   -2.4605 C   0  0  0  0  0  0  0  0  0  0  0  0
    4.6988   -2.1839   -3.0537 C   0  0  0  0  0  0  0  0  0  0  0  0
    3.8244   -3.1061   -3.6743 C   0  0  0  0  0  0  0  0  0  0  0  0
    4.2837   -4.3231   -4.1749 C   0  0  0  0  0  0  0  0  0  0  0  0
    3.4294   -5.2330   -4.7212 O   0  0  0  0  0  0  0  0  0  0  0  0
    5.6265   -4.6516   -4.1220 C   0  0  0  0  0  0  0  0  0  0  0  0
    6.5236   -3.7511   -3.5592 C   0  0  0  0  0  0  0  0  0  0  0  0
    6.0708   -2.5390   -3.0150 C   0  0  0  0  0  0  0  0  0  0  0  0
    7.2963   -1.5815   -2.2471 Cl  0  0  0  0  0  0  0  0  0  0  0  0
    4.7588    0.2911   -2.5375 C   0  0  0  0  0  0  0  0  0  0  0  0
    4.2556    1.4213   -1.9126 C   0  0  0  0  0  0  0  0  0  0  0  0
    4.9715    2.5369   -1.9590 N   0  0  0  0  0  0  0  0  0  0  0  0
    4.4936    3.6368   -1.3456 N   0  0  0  0  0  0  0  0  0  0  0  0
    3.2974    3.6251   -0.7225 C   0  0  0  0  0  0  0  0  0  0  0  0
    2.8267    4.7925   -0.1159 N   0  0  0  0  0  0  0  0  0  0  0  0
    3.4371    6.0547   -0.1212 C   0  0  0  0  0  0  0  0  0  0  0  0
    4.2340    6.4773   -1.1997 C   0  0  0  0  0  0  0  0  0  0  0  0
    4.9809    7.6494   -1.1467 C   0  0  0  0  0  0  0  0  0  0  0  0
    4.9157    8.4394   -0.0055 C   0  0  0  0  0  0  0  0  0  0  0  0
    5.8719    9.9362    0.0503 S   0  0  0  0  0  0  0  0  0  0  0  0
    6.1647   10.2321    1.4341 O   0  0  0  0  0  0  0  0  0  0  0  0
    6.9090    9.8397   -0.9534 O   0  0  0  0  0  0  0  0  0  0  0  0
    4.7510   11.0676   -0.5269 N   0  0  0  0  0  0  0  0  0  0  0  0
    3.6208   11.3689    0.3713 C   0  0  0  0  0  0  0  0  0  0  0  0
    2.7641   12.5181   -0.1848 C   0  0  0  0  0  0  0  0  0  0  0  0
    1.5569   12.7649    0.6275 N   0  0  0  0  0  0  0  0  0  0  0  0
    0.7136   13.8103    0.0240 C   0  0  0  0  0  0  0  0  0  0  0  0
    1.1406   15.0961    0.7019 C   0  0  0  0  0  0  0  0  0  0  0  0
    1.3420   14.6468    2.1319 C   0  0  0  0  0  0  0  0  0  0  0  0
    1.8694   13.2250    1.9974 C   0  0  0  0  0  0  0  0  0  0  0  0
    4.1220    8.0555    1.0806 C   0  0  0  0  0  0  0  0  0  0  0  0
    3.3745    6.8727    1.0132 C   0  0  0  0  0  0  0  0  0  0  0  0
    2.5420    2.5188   -0.6414 N   0  0  0  0  0  0  0  0  0  0  0  0
    3.0242    1.4074   -1.2411 C   0  0  0  0  0  0  0  0  0  0  0  0
    0.5178   -0.8722   -0.7016 H   0  0  0  0  0  0  0  0  0  0  0  0
    0.2743    0.8304   -1.0896 H   0  0  0  0  0  0  0  0  0  0  0  0
    1.0098    0.3587    0.4708 H   0  0  0  0  0  0  0  0  0  0  0  0
    2.3229   -1.8926   -1.7184 H   0  0  0  0  0  0  0  0  0  0  0  0
    2.7659   -2.8724   -3.7579 H   0  0  0  0  0  0  0  0  0  0  0  0
    2.5263   -4.8760   -4.7010 H   0  0  0  0  0  0  0  0  0  0  0  0
    5.9742   -5.6049   -4.5088 H   0  0  0  0  0  0  0  0  0  0  0  0
    7.5800   -4.0085   -3.5235 H   0  0  0  0  0  0  0  0  0  0  0  0
    5.6932    0.4070   -3.0799 H   0  0  0  0  0  0  0  0  0  0  0  0
    2.0748    4.6065    0.5280 H   0  0  0  0  0  0  0  0  0  0  0  0
    4.3015    5.8819   -2.1083 H   0  0  0  0  0  0  0  0  0  0  0  0
    5.6176    7.9144   -1.9876 H   0  0  0  0  0  0  0  0  0  0  0  0
    4.5070   10.8711   -1.4982 H   0  0  0  0  0  0  0  0  0  0  0  0
    4.0251   11.6425    1.3495 H   0  0  0  0  0  0  0  0  0  0  0  0
    2.9880   10.4848    0.4806 H   0  0  0  0  0  0  0  0  0  0  0  0
    2.4468   12.2296   -1.1965 H   0  0  0  0  0  0  0  0  0  0  0  0
    3.3732   13.4243   -0.2935 H   0  0  0  0  0  0  0  0  0  0  0  0
   -0.3333   13.5925    0.2708 H   0  0  0  0  0  0  0  0  0  0  0  0
    0.7823   13.8634   -1.0675 H   0  0  0  0  0  0  0  0  0  0  0  0
    0.3932   15.8891    0.6169 H   0  0  0  0  0  0  0  0  0  0  0  0
    2.0850   15.4621    0.2814 H   0  0  0  0  0  0  0  0  0  0  0  0
    0.3829   14.6419    2.6631 H   0  0  0  0  0  0  0  0  0  0  0  0
    2.0328   15.2974    2.6763 H   0  0  0  0  0  0  0  0  0  0  0  0
    1.3831   12.5665    2.7258 H   0  0  0  0  0  0  0  0  0  0  0  0
    2.9402   13.2208    2.2239 H   0  0  0  0  0  0  0  0  0  0  0  0
    4.0838    8.6655    1.9807 H   0  0  0  0  0  0  0  0  0  0  0  0
    2.7734    6.5802    1.8710 H   0  0  0  0  0  0  0  0  0  0  0  0
  1  2  1  0  0  0  0
  1 38  1  0  0  0  0
  1 39  1  0  0  0  0
  1 40  1  0  0  0  0
  2  3  1  0  0  0  0
  2 37  2  0  0  0  0
  3  4  2  0  0  0  0
  3 41  1  0  0  0  0
  4  5  1  0  0  0  0
  4 13  1  0  0  0  0
  5  6  1  0  0  0  0
  5 11  2  0  0  0  0
  6  7  2  0  0  0  0
  6 42  1  0  0  0  0
  7  8  1  0  0  0  0
  7  9  1  0  0  0  0
  8 43  1  0  0  0  0
  9 10  2  0  0  0  0
  9 44  1  0  0  0  0
 10 11  1  0  0  0  0
 10 45  1  0  0  0  0
 11 12  1  0  0  0  0
 13 14  2  0  0  0  0
 13 46  1  0  0  0  0
 14 15  1  0  0  0  0
 14 37  1  0  0  0  0
 15 16  2  0  0  0  0
 16 17  1  0  0  0  0
 17 18  1  0  0  0  0
 17 36  2  0  0  0  0
 18 19  1  0  0  0  0
 18 47  1  0  0  0  0
 19 20  1  0  0  0  0
 19 35  2  0  0  0  0
 20 21  2  0  0  0  0
 20 48  1  0  0  0  0
 21 22  1  0  0  0  0
 21 49  1  0  0  0  0
 22 23  1  0  0  0  0
 22 34  2  0  0  0  0
 23 24  2  0  0  0  0
 23 25  2  0  0  0  0
 23 26  1  0  0  0  0
 26 27  1  0  0  0  0
 26 50  1  0  0  0  0
 27 28  1  0  0  0  0
 27 51  1  0  0  0  0
 27 52  1  0  0  0  0
 28 29  1  0  0  0  0
 28 53  1  0  0  0  0
 28 54  1  0  0  0  0
 29 30  1  0  0  0  0
 29 33  1  0  0  0  0
 30 31  1  0  0  0  0
 30 55  1  0  0  0  0
 30 56  1  0  0  0  0
 31 32  1  0  0  0  0
 31 57  1  0  0  0  0
 31 58  1  0  0  0  0
 32 33  1  0  0  0  0
 32 59  1  0  0  0  0
 32 60  1  0  0  0  0
 33 61  1  0  0  0  0
 33 62  1  0  0  0  0
 34 35  1  0  0  0  0
 34 63  1  0  0  0  0
 35 64  1  0  0  0  0
 36 37  1  0  0  0  0
M  END
$$$$
