CHEMBL4238294
 OpenBabel04072215383D

 71 75  0  0  0  0  0  0  0  0999 V2000
    4.7361   -2.3599    0.3297 C   0  0  0  0  0  0  0  0  0  0  0  0
    4.3736   -1.0633    0.3587 C   0  0  0  0  0  0  0  0  0  0  0  0
    3.0428   -0.6274    0.9068 C   0  0  0  0  0  0  0  0  0  0  0  0
    3.1122   -0.0230    2.2492 N   0  0  0  0  0  0  0  0  0  0  0  0
    3.4991   -1.0040    3.2995 C   0  0  0  0  0  0  0  0  0  0  0  0
    2.4237   -2.0694    3.5865 C   0  0  0  0  0  0  0  0  0  0  0  0
    1.1656   -1.4720    3.9277 O   0  0  0  0  0  0  0  0  0  0  0  0
    0.7314   -0.5513    2.9200 C   0  0  0  0  0  0  0  0  0  0  0  0
    1.7960    0.5283    2.6533 C   0  0  0  0  0  0  0  0  0  0  0  0
    5.3508   -0.1170   -0.2724 C   0  0  0  0  0  0  0  0  0  0  0  0
    6.5336   -0.4542   -0.3330 O   0  0  0  0  0  0  0  0  0  0  0  0
    4.8489    1.0816   -0.7475 N   0  0  0  0  0  0  0  0  0  0  0  0
    5.5715    1.9956   -1.5590 C   0  0  0  0  0  0  0  0  0  0  0  0
    6.7037    1.5789   -2.2613 C   0  0  0  0  0  0  0  0  0  0  0  0
    7.4501    2.4673   -3.0287 C   0  0  0  0  0  0  0  0  0  0  0  0
    7.0649    3.7974   -3.1576 C   0  0  0  0  0  0  0  0  0  0  0  0
    7.8120    4.7190   -3.9266 N   0  0  0  0  0  0  0  0  0  0  0  0
    8.6941    4.3472   -4.9259 C   0  0  0  0  0  0  0  0  0  0  0  0
    8.7935    3.2109   -5.3777 O   0  0  0  0  0  0  0  0  0  0  0  0
    9.4863    5.4092   -5.3453 N   0  0  0  0  0  0  0  0  0  0  0  0
   10.4507    5.2050   -6.3604 C   0  0  0  0  0  0  0  0  0  0  0  0
   10.1625    4.4276   -7.4815 C   0  0  0  0  0  0  0  0  0  0  0  0
   11.1759    4.0626   -8.3697 C   0  0  0  0  0  0  0  0  0  0  0  0
   12.5007    4.4899   -8.1847 C   0  0  0  0  0  0  0  0  0  0  0  0
   13.5620    4.0046   -9.0755 C   0  0  0  0  0  0  0  0  0  0  0  0
   13.3790    3.8204  -10.4684 C   0  0  0  0  0  0  0  0  0  0  0  0
   14.3881    3.3191  -11.3324 C   0  0  0  0  0  0  0  0  0  0  0  0
   14.0749    3.1169  -12.7907 C   0  0  0  0  0  0  0  0  0  0  0  0
   15.6514    2.9769  -10.9629 N   0  0  0  0  0  0  0  0  0  0  0  0
   15.8771    3.1275   -9.6324 C   0  0  0  0  0  0  0  0  0  0  0  0
   17.0183    2.8502   -8.9989 N   0  0  0  0  0  0  0  0  0  0  0  0
   16.7659    3.1063   -7.6646 O   0  0  0  0  0  0  0  0  0  0  0  0
   15.4754    3.5169   -7.4943 C   0  0  0  0  0  0  0  0  0  0  0  0
   15.1029    3.7082   -6.2127 N   0  0  0  0  0  0  0  0  0  0  0  0
   14.8670    3.6058   -8.7266 C   0  0  0  0  0  0  0  0  0  0  0  0
   12.7361    5.3864   -7.1277 C   0  0  0  0  0  0  0  0  0  0  0  0
   11.7294    5.7314   -6.2120 C   0  0  0  0  0  0  0  0  0  0  0  0
    5.9184    4.2280   -2.4830 C   0  0  0  0  0  0  0  0  0  0  0  0
    5.1543    3.3365   -1.6899 C   0  0  0  0  0  0  0  0  0  0  0  0
    3.9155    3.8605   -1.0159 C   0  0  0  0  0  0  0  0  0  0  0  0
    4.1098   -3.1363    0.7548 H   0  0  0  0  0  0  0  0  0  0  0  0
    5.6930   -2.6821   -0.0825 H   0  0  0  0  0  0  0  0  0  0  0  0
    2.3590   -1.4841    0.8898 H   0  0  0  0  0  0  0  0  0  0  0  0
    2.5858    0.0871    0.2125 H   0  0  0  0  0  0  0  0  0  0  0  0
    3.6733   -0.4400    4.2265 H   0  0  0  0  0  0  0  0  0  0  0  0
    4.4553   -1.4831    3.0672 H   0  0  0  0  0  0  0  0  0  0  0  0
    2.7321   -2.6865    4.4370 H   0  0  0  0  0  0  0  0  0  0  0  0
    2.2789   -2.7445    2.7371 H   0  0  0  0  0  0  0  0  0  0  0  0
   -0.1887   -0.0797    3.2794 H   0  0  0  0  0  0  0  0  0  0  0  0
    0.4754   -1.1046    2.0101 H   0  0  0  0  0  0  0  0  0  0  0  0
    1.9457    1.1034    3.5768 H   0  0  0  0  0  0  0  0  0  0  0  0
    1.4376    1.2439    1.9043 H   0  0  0  0  0  0  0  0  0  0  0  0
    3.9447    1.3842   -0.4244 H   0  0  0  0  0  0  0  0  0  0  0  0
    7.0403    0.5466   -2.2511 H   0  0  0  0  0  0  0  0  0  0  0  0
    8.3435    2.0734   -3.5037 H   0  0  0  0  0  0  0  0  0  0  0  0
    7.5094    5.6815   -3.9330 H   0  0  0  0  0  0  0  0  0  0  0  0
    9.7300    6.0571   -4.6098 H   0  0  0  0  0  0  0  0  0  0  0  0
    9.1564    4.0512   -7.6534 H   0  0  0  0  0  0  0  0  0  0  0  0
   10.9084    3.3981   -9.1889 H   0  0  0  0  0  0  0  0  0  0  0  0
   12.4137    4.0715  -10.9084 H   0  0  0  0  0  0  0  0  0  0  0  0
   13.0416    3.3861  -13.0302 H   0  0  0  0  0  0  0  0  0  0  0  0
   14.2205    2.0650  -13.0563 H   0  0  0  0  0  0  0  0  0  0  0  0
   14.7412    3.7334  -13.4016 H   0  0  0  0  0  0  0  0  0  0  0  0
   15.7411    3.3742   -5.4949 H   0  0  0  0  0  0  0  0  0  0  0  0
   14.1286    3.5541   -5.9638 H   0  0  0  0  0  0  0  0  0  0  0  0
   13.7326    5.7953   -6.9691 H   0  0  0  0  0  0  0  0  0  0  0  0
   11.9882    6.3442   -5.3533 H   0  0  0  0  0  0  0  0  0  0  0  0
    5.5977    5.2619   -2.5758 H   0  0  0  0  0  0  0  0  0  0  0  0
    3.8707    4.9544   -1.0533 H   0  0  0  0  0  0  0  0  0  0  0  0
    3.9002    3.5782    0.0415 H   0  0  0  0  0  0  0  0  0  0  0  0
    3.0220    3.4691   -1.5126 H   0  0  0  0  0  0  0  0  0  0  0  0
  1  2  2  0  0  0  0
  1 41  1  0  0  0  0
  1 42  1  0  0  0  0
  2  3  1  0  0  0  0
  2 10  1  0  0  0  0
  3  4  1  0  0  0  0
  3 43  1  0  0  0  0
  3 44  1  0  0  0  0
  4  5  1  0  0  0  0
  4  9  1  0  0  0  0
  5  6  1  0  0  0  0
  5 45  1  0  0  0  0
  5 46  1  0  0  0  0
  6  7  1  0  0  0  0
  6 47  1  0  0  0  0
  6 48  1  0  0  0  0
  7  8  1  0  0  0  0
  8  9  1  0  0  0  0
  8 49  1  0  0  0  0
  8 50  1  0  0  0  0
  9 51  1  0  0  0  0
  9 52  1  0  0  0  0
 10 11  2  0  0  0  0
 10 12  1  0  0  0  0
 12 13  1  0  0  0  0
 12 53  1  0  0  0  0
 13 14  1  0  0  0  0
 13 39  2  0  0  0  0
 14 15  2  0  0  0  0
 14 54  1  0  0  0  0
 15 16  1  0  0  0  0
 15 55  1  0  0  0  0
 16 17  1  0  0  0  0
 16 38  2  0  0  0  0
 17 18  1  0  0  0  0
 17 56  1  0  0  0  0
 18 19  2  0  0  0  0
 18 20  1  0  0  0  0
 20 21  1  0  0  0  0
 20 57  1  0  0  0  0
 21 22  1  0  0  0  0
 21 37  2  0  0  0  0
 22 23  2  0  0  0  0
 22 58  1  0  0  0  0
 23 24  1  0  0  0  0
 23 59  1  0  0  0  0
 24 25  1  0  0  0  0
 24 36  2  0  0  0  0
 25 26  2  0  0  0  0
 25 35  1  0  0  0  0
 26 27  1  0  0  0  0
 26 60  1  0  0  0  0
 27 28  1  0  0  0  0
 27 29  2  0  0  0  0
 28 61  1  0  0  0  0
 28 62  1  0  0  0  0
 28 63  1  0  0  0  0
 29 30  1  0  0  0  0
 30 31  2  0  0  0  0
 30 35  1  0  0  0  0
 31 32  1  0  0  0  0
 32 33  1  0  0  0  0
 33 34  1  0  0  0  0
 33 35  2  0  0  0  0
 34 64  1  0  0  0  0
 34 65  1  0  0  0  0
 36 37  1  0  0  0  0
 36 66  1  0  0  0  0
 37 67  1  0  0  0  0
 38 39  1  0  0  0  0
 38 68  1  0  0  0  0
 39 40  1  0  0  0  0
 40 69  1  0  0  0  0
 40 70  1  0  0  0  0
 40 71  1  0  0  0  0
M  END
$$$$
