CHEMBL3323605
 OpenBabel04072215363D

 42 46  0  0  0  0  0  0  0  0999 V2000
   -1.6245   -0.2356   -0.1287 Br  0  0  0  0  0  0  0  0  0  0  0  0
    0.2630   -0.1581   -0.0810 C   0  0  0  0  0  0  0  0  0  0  0  0
    0.9871   -0.2234   -1.2695 C   0  0  0  0  0  0  0  0  0  0  0  0
    2.3839   -0.1716   -1.2354 C   0  0  0  0  0  0  0  0  0  0  0  0
    3.0631   -0.0545   -0.0130 C   0  0  0  0  0  0  0  0  0  0  0  0
    4.5229   -0.0139    0.0580 C   0  0  0  0  0  0  0  0  0  0  0  0
    5.2467    0.5720    0.9956 N   0  0  0  0  0  0  0  0  0  0  0  0
    6.5585    0.3361    0.6679 C   0  0  0  0  0  0  0  0  0  0  0  0
    7.7366    0.7365    1.3118 C   0  0  0  0  0  0  0  0  0  0  0  0
    8.9663    0.3416    0.7629 C   0  0  0  0  0  0  0  0  0  0  0  0
    9.0346   -0.4216   -0.4124 C   0  0  0  0  0  0  0  0  0  0  0  0
   10.3090   -0.8090   -0.8926 N   0  0  0  0  0  0  0  0  0  0  0  0
   10.7027   -1.0405   -2.2384 C   0  0  0  0  0  0  0  0  0  0  0  0
   10.1284   -0.2734   -3.2588 C   0  0  0  0  0  0  0  0  0  0  0  0
   10.5594   -0.4497   -4.5557 C   0  0  0  0  0  0  0  0  0  0  0  0
   11.5334   -1.3071   -4.9068 N   0  0  0  0  0  0  0  0  0  0  0  0
   12.1198   -2.0268   -3.9386 C   0  0  0  0  0  0  0  0  0  0  0  0
   13.1521   -2.8761   -4.3115 C   0  0  0  0  0  0  0  0  0  0  0  0
   13.8257   -3.6741   -3.3866 C   0  0  0  0  0  0  0  0  0  0  0  0
   13.4537   -3.6360   -2.0524 C   0  0  0  0  0  0  0  0  0  0  0  0
   12.4241   -2.7850   -1.6485 C   0  0  0  0  0  0  0  0  0  0  0  0
   11.7439   -1.9515   -2.5751 C   0  0  0  0  0  0  0  0  0  0  0  0
    7.8540   -0.8427   -1.0458 C   0  0  0  0  0  0  0  0  0  0  0  0
    6.6460   -0.4297   -0.4832 C   0  0  0  0  0  0  0  0  0  0  0  0
    5.3442   -0.6425   -0.8492 N   0  0  0  0  0  0  0  0  0  0  0  0
    2.3159    0.0250    1.1705 C   0  0  0  0  0  0  0  0  0  0  0  0
    0.9203   -0.0325    1.1400 C   0  0  0  0  0  0  0  0  0  0  0  0
    0.4765   -0.3081   -2.2252 H   0  0  0  0  0  0  0  0  0  0  0  0
    2.9250   -0.2015   -2.1775 H   0  0  0  0  0  0  0  0  0  0  0  0
    7.6900    1.3403    2.2112 H   0  0  0  0  0  0  0  0  0  0  0  0
    9.8838    0.6607    1.2534 H   0  0  0  0  0  0  0  0  0  0  0  0
   10.7477   -1.4302   -0.2228 H   0  0  0  0  0  0  0  0  0  0  0  0
    9.3700    0.4724   -3.0476 H   0  0  0  0  0  0  0  0  0  0  0  0
   10.1285    0.1243   -5.3707 H   0  0  0  0  0  0  0  0  0  0  0  0
   13.4459   -2.9122   -5.3584 H   0  0  0  0  0  0  0  0  0  0  0  0
   14.6346   -4.3210   -3.7151 H   0  0  0  0  0  0  0  0  0  0  0  0
   13.9632   -4.2621   -1.3244 H   0  0  0  0  0  0  0  0  0  0  0  0
   12.1622   -2.7895   -0.5954 H   0  0  0  0  0  0  0  0  0  0  0  0
    7.8759   -1.4707   -1.9293 H   0  0  0  0  0  0  0  0  0  0  0  0
    5.0361   -1.1896   -1.6376 H   0  0  0  0  0  0  0  0  0  0  0  0
    2.8272    0.1256    2.1272 H   0  0  0  0  0  0  0  0  0  0  0  0
    0.3631    0.0232    2.0711 H   0  0  0  0  0  0  0  0  0  0  0  0
  1  2  1  0  0  0  0
  2  3  1  0  0  0  0
  2 27  2  0  0  0  0
  3  4  2  0  0  0  0
  3 28  1  0  0  0  0
  4  5  1  0  0  0  0
  4 29  1  0  0  0  0
  5  6  1  0  0  0  0
  5 26  2  0  0  0  0
  6  7  2  0  0  0  0
  6 25  1  0  0  0  0
  7  8  1  0  0  0  0
  8  9  1  0  0  0  0
  8 24  2  0  0  0  0
  9 10  2  0  0  0  0
  9 30  1  0  0  0  0
 10 11  1  0  0  0  0
 10 31  1  0  0  0  0
 11 12  1  0  0  0  0
 11 23  2  0  0  0  0
 12 13  1  0  0  0  0
 12 32  1  0  0  0  0
 13 14  1  0  0  0  0
 13 22  2  0  0  0  0
 14 15  2  0  0  0  0
 14 33  1  0  0  0  0
 15 16  1  0  0  0  0
 15 34  1  0  0  0  0
 16 17  2  0  0  0  0
 17 18  1  0  0  0  0
 17 22  1  0  0  0  0
 18 19  2  0  0  0  0
 18 35  1  0  0  0  0
 19 20  1  0  0  0  0
 19 36  1  0  0  0  0
 20 21  2  0  0  0  0
 20 37  1  0  0  0  0
 21 22  1  0  0  0  0
 21 38  1  0  0  0  0
 23 24  1  0  0  0  0
 23 39  1  0  0  0  0
 24 25  1  0  0  0  0
 25 40  1  0  0  0  0
 26 27  1  0  0  0  0
 26 41  1  0  0  0  0
 27 42  1  0  0  0  0
M  END
$$$$
