CHEMBL3648100
 OpenBabel04072215373D

 42 43  0  0  1  0  0  0  0  0999 V2000
    1.2796    0.0079   -3.1508 C   0  0  0  0  0  0  0  0  0  0  0  0
    2.3961   -0.6792   -2.3760 C   0  0  0  0  0  0  0  0  0  0  0  0
    3.5906    0.2455   -2.0796 C   0  0  3  0  0  0  0  0  0  0  0  0
    3.1993    1.4312   -1.1966 C   0  0  0  0  0  0  0  0  0  0  0  0
    4.9154   -0.6667   -1.1889 S   0  0  0  0  0  0  0  0  0  0  0  0
    5.2981   -1.9239   -2.4028 C   0  0  0  0  0  0  0  0  0  0  0  0
    5.7332   -1.4531   -3.5994 N   0  0  0  0  0  0  0  0  0  0  0  0
    6.0606   -2.3581   -4.5310 C   0  0  0  0  0  0  0  0  0  0  0  0
    6.5735   -1.8853   -5.7381 N   0  0  0  0  0  0  0  0  0  0  0  0
    7.4005   -2.5620   -6.6479 C   0  0  0  0  0  0  0  0  0  0  0  0
    7.3839   -2.2170   -8.0041 C   0  0  0  0  0  0  0  0  0  0  0  0
    8.0962   -2.9747   -8.9437 C   0  0  0  0  0  0  0  0  0  0  0  0
    8.8393   -4.0844   -8.5264 C   0  0  0  0  0  0  0  0  0  0  0  0
    9.6635   -5.0859   -9.7497 S   0  0  3  0  0  0  0  0  0  0  0  0
   11.1426   -5.6783   -8.9646 C   0  0  0  0  0  0  0  0  0  0  0  0
    8.7383   -6.2993   -9.9699 N   0  0  0  0  0  0  0  0  0  0  0  0
   10.0996   -4.1709  -10.7866 O   0  0  0  0  0  0  0  0  0  0  0  0
    8.9004   -4.4198   -7.1781 C   0  0  0  0  0  0  0  0  0  0  0  0
    8.1822   -3.6603   -6.2553 C   0  0  0  0  0  0  0  0  0  0  0  0
    5.9070   -3.6799   -4.3525 N   0  0  0  0  0  0  0  0  0  0  0  0
    5.4579   -4.1104   -3.1625 C   0  0  0  0  0  0  0  0  0  0  0  0
    5.1567   -3.2713   -2.1228 C   0  0  0  0  0  0  0  0  0  0  0  0
    4.5709   -4.0064   -0.4873 Br  0  0  0  0  0  0  0  0  0  0  0  0
    0.5101   -0.7226   -3.4210 H   0  0  0  0  0  0  0  0  0  0  0  0
    1.6611    0.4543   -4.0744 H   0  0  0  0  0  0  0  0  0  0  0  0
    0.7975    0.7890   -2.5568 H   0  0  0  0  0  0  0  0  0  0  0  0
    2.7192   -1.5345   -2.9804 H   0  0  0  0  0  0  0  0  0  0  0  0
    1.9831   -1.0858   -1.4444 H   0  0  0  0  0  0  0  0  0  0  0  0
    4.0086    0.6297   -3.0166 H   0  0  0  0  0  0  0  0  0  0  0  0
    2.7464    1.1025   -0.2536 H   0  0  0  0  0  0  0  0  0  0  0  0
    2.4749    2.0757   -1.7039 H   0  0  0  0  0  0  0  0  0  0  0  0
    4.0661    2.0594   -0.9609 H   0  0  0  0  0  0  0  0  0  0  0  0
    6.5560   -0.8777   -5.7928 H   0  0  0  0  0  0  0  0  0  0  0  0
    6.7738   -1.3862   -8.3521 H   0  0  0  0  0  0  0  0  0  0  0  0
    8.0410   -2.7158   -9.9997 H   0  0  0  0  0  0  0  0  0  0  0  0
   10.8917   -6.3228   -8.1205 H   0  0  0  0  0  0  0  0  0  0  0  0
   11.7402   -4.8255   -8.6376 H   0  0  0  0  0  0  0  0  0  0  0  0
   11.7043   -6.2585   -9.7008 H   0  0  0  0  0  0  0  0  0  0  0  0
    8.5000   -6.7868   -9.1062 H   0  0  0  0  0  0  0  0  0  0  0  0
    9.4595   -5.2730   -6.8121 H   0  0  0  0  0  0  0  0  0  0  0  0
    8.2353   -3.9452   -5.2071 H   0  0  0  0  0  0  0  0  0  0  0  0
    5.3544   -5.1885   -3.0834 H   0  0  0  0  0  0  0  0  0  0  0  0
  1  2  1  0  0  0  0
  1 24  1  0  0  0  0
  1 25  1  0  0  0  0
  1 26  1  0  0  0  0
  2  3  1  0  0  0  0
  2 27  1  0  0  0  0
  2 28  1  0  0  0  0
  3  4  1  0  0  0  0
  3  5  1  0  0  0  0
  3 29  1  0  0  0  0
  4 30  1  0  0  0  0
  4 31  1  0  0  0  0
  4 32  1  0  0  0  0
  5  6  1  0  0  0  0
  6  7  1  0  0  0  0
  6 22  2  0  0  0  0
  7  8  2  0  0  0  0
  8  9  1  0  0  0  0
  8 20  1  0  0  0  0
  9 10  1  0  0  0  0
  9 33  1  0  0  0  0
 10 11  1  0  0  0  0
 10 19  2  0  0  0  0
 11 12  2  0  0  0  0
 11 34  1  0  0  0  0
 12 13  1  0  0  0  0
 12 35  1  0  0  0  0
 13 14  1  0  0  0  0
 13 18  2  0  0  0  0
 14 15  1  0  0  0  0
 14 16  2  0  0  0  0
 14 17  2  0  0  0  0
 15 36  1  0  0  0  0
 15 37  1  0  0  0  0
 15 38  1  0  0  0  0
 16 39  1  0  0  0  0
 18 19  1  0  0  0  0
 18 40  1  0  0  0  0
 19 41  1  0  0  0  0
 20 21  2  0  0  0  0
 21 22  1  0  0  0  0
 21 42  1  0  0  0  0
 22 23  1  0  0  0  0
M  END
$$$$
