CHEMBL3287221
 OpenBabel04072215363D

 47 49  0  0  0  0  0  0  0  0999 V2000
    1.1987   -0.6489   -0.0517 C   0  0  0  0  0  0  0  0  0  0  0  0
    2.6779   -0.4374   -0.0494 C   0  0  0  0  0  0  0  0  0  0  0  0
    3.4667   -1.5424   -0.0052 N   0  0  0  0  0  0  0  0  0  0  0  0
    4.8254   -1.5076    0.0068 C   0  0  0  0  0  0  0  0  0  0  0  0
    5.5184   -2.7677    0.0631 N   0  0  0  0  0  0  0  0  0  0  0  0
    6.7754   -2.9834   -0.6384 C   0  0  0  0  0  0  0  0  0  0  0  0
    4.8786   -3.8629    0.7572 C   0  0  0  0  0  0  0  0  0  0  0  0
    5.0919   -5.2124    0.3940 C   0  0  0  0  0  0  0  0  0  0  0  0
    4.4368   -6.2451    1.0761 C   0  0  0  0  0  0  0  0  0  0  0  0
    3.5790   -5.9585    2.1387 C   0  0  0  0  0  0  0  0  0  0  0  0
    3.3698   -4.6372    2.5274 C   0  0  0  0  0  0  0  0  0  0  0  0
    4.0080   -3.6027    1.8446 C   0  0  0  0  0  0  0  0  0  0  0  0
    5.4138   -0.2267   -0.0286 C   0  0  0  0  0  0  0  0  0  0  0  0
    6.7104    0.1411    0.0065 N   0  0  0  0  0  0  0  0  0  0  0  0
    6.7297    1.4921   -0.0266 C   0  0  0  0  0  0  0  0  0  0  0  0
    5.4390    2.0036   -0.0651 C   0  0  0  0  0  0  0  0  0  0  0  0
    5.1183    3.4797   -0.1015 C   0  0  0  0  0  0  0  0  0  0  0  0
    4.3694    3.9830    1.1093 C   0  0  0  0  0  0  0  0  0  0  0  0
    4.8857    3.7968    2.4054 C   0  0  0  0  0  0  0  0  0  0  0  0
    4.2031    4.3048    3.5176 C   0  0  0  0  0  0  0  0  0  0  0  0
    3.0094    5.0108    3.3453 C   0  0  0  0  0  0  0  0  0  0  0  0
    2.4942    5.2075    2.0621 C   0  0  0  0  0  0  0  0  0  0  0  0
    3.1674    4.6945    0.9487 C   0  0  0  0  0  0  0  0  0  0  0  0
    4.6060    0.8907   -0.0656 C   0  0  0  0  0  0  0  0  0  0  0  0
    3.2469    0.8106   -0.0821 N   0  0  0  0  0  0  0  0  0  0  0  0
    0.0784    2.4896   -0.6519 Cl  0  0  0  0  0  0  0  0  0  0  0  0
    0.9730   -1.7383   -0.0194 H   0  0  0  0  0  0  0  0  0  0  0  0
    0.7532   -0.2410   -0.9796 H   0  0  0  0  0  0  0  0  0  0  0  0
    0.7426   -0.1856    0.8458 H   0  0  0  0  0  0  0  0  0  0  0  0
    7.1041   -2.0987   -1.2101 H   0  0  0  0  0  0  0  0  0  0  0  0
    6.6642   -3.7776   -1.4031 H   0  0  0  0  0  0  0  0  0  0  0  0
    7.5620   -3.2813    0.0892 H   0  0  0  0  0  0  0  0  0  0  0  0
    5.7361   -5.4858   -0.4266 H   0  0  0  0  0  0  0  0  0  0  0  0
    4.5929   -7.2737    0.7790 H   0  0  0  0  0  0  0  0  0  0  0  0
    3.0762   -6.7576    2.6664 H   0  0  0  0  0  0  0  0  0  0  0  0
    2.7122   -4.4087    3.3549 H   0  0  0  0  0  0  0  0  0  0  0  0
    3.8260   -2.5941    2.1903 H   0  0  0  0  0  0  0  0  0  0  0  0
    7.5586   -0.4591    0.0654 H   0  0  0  0  0  0  0  0  0  0  0  0
    7.6381    2.0805   -0.0107 H   0  0  0  0  0  0  0  0  0  0  0  0
    4.5680    3.7116   -1.0377 H   0  0  0  0  0  0  0  0  0  0  0  0
    6.0786    4.0420   -0.1361 H   0  0  0  0  0  0  0  0  0  0  0  0
    5.8164    3.2634    2.5550 H   0  0  0  0  0  0  0  0  0  0  0  0
    4.6024    4.1586    4.5132 H   0  0  0  0  0  0  0  0  0  0  0  0
    2.4865    5.4107    4.2052 H   0  0  0  0  0  0  0  0  0  0  0  0
    1.5754    5.7644    1.9288 H   0  0  0  0  0  0  0  0  0  0  0  0
    2.7596    4.8700   -0.0385 H   0  0  0  0  0  0  0  0  0  0  0  0
    0.7557    2.1251    0.4892 H   0  0  0  0  0  0  0  0  0  0  0  0
  1  2  1  0  0  0  0
  1 27  1  0  0  0  0
  1 28  1  0  0  0  0
  1 29  1  0  0  0  0
  2  3  1  0  0  0  0
  2 25  2  0  0  0  0
  3  4  2  0  0  0  0
  4  5  1  0  0  0  0
  4 13  1  0  0  0  0
  5  6  1  0  0  0  0
  5  7  1  0  0  0  0
  6 30  1  0  0  0  0
  6 31  1  0  0  0  0
  6 32  1  0  0  0  0
  7  8  1  0  0  0  0
  7 12  2  0  0  0  0
  8  9  2  0  0  0  0
  8 33  1  0  0  0  0
  9 10  1  0  0  0  0
  9 34  1  0  0  0  0
 10 11  2  0  0  0  0
 10 35  1  0  0  0  0
 11 12  1  0  0  0  0
 11 36  1  0  0  0  0
 12 37  1  0  0  0  0
 13 14  1  0  0  0  0
 13 24  2  0  0  0  0
 14 15  1  0  0  0  0
 14 38  1  0  0  0  0
 15 16  2  0  0  0  0
 15 39  1  0  0  0  0
 16 17  1  0  0  0  0
 16 24  1  0  0  0  0
 17 18  1  0  0  0  0
 17 40  1  0  0  0  0
 17 41  1  0  0  0  0
 18 19  1  0  0  0  0
 18 23  2  0  0  0  0
 19 20  2  0  0  0  0
 19 42  1  0  0  0  0
 20 21  1  0  0  0  0
 20 43  1  0  0  0  0
 21 22  2  0  0  0  0
 21 44  1  0  0  0  0
 22 23  1  0  0  0  0
 22 45  1  0  0  0  0
 23 46  1  0  0  0  0
 24 25  1  0  0  0  0
 26 47  1  0  0  0  0
M  END
$$$$
