CHEMBL256116
 OpenBabel04072215363D

 45 48  0  0  1  0  0  0  0  0999 V2000
    2.2674   -0.6343    2.3388 C   0  0  0  0  0  0  0  0  0  0  0  0
    3.5836   -0.5801    1.6592 C   0  0  0  0  0  0  0  0  0  0  0  0
    4.4736   -1.5866    1.3318 C   0  0  0  0  0  0  0  0  0  0  0  0
    5.4855   -1.0165    0.5157 C   0  0  0  0  0  0  0  0  0  0  0  0
    6.5632   -1.4966   -0.2352 C   0  0  0  0  0  0  0  0  0  0  0  0
    6.8461   -2.8070   -0.2727 F   0  0  0  0  0  0  0  0  0  0  0  0
    7.2675   -0.5979   -1.0274 C   0  0  0  0  0  0  0  0  0  0  0  0
    8.1395   -1.1421   -1.9844 O   0  0  0  0  0  0  0  0  0  0  0  0
    9.2776   -0.4740   -2.3805 C   0  0  0  0  0  0  0  0  0  0  0  0
    9.9235    0.3808   -1.6641 N   0  0  0  0  0  0  0  0  0  0  0  0
   11.0505    0.9245   -2.2344 C   0  0  0  0  0  0  0  0  0  0  0  0
   11.5039    0.7075   -3.4310 N   0  0  0  0  0  0  0  0  0  0  0  0
   10.7809   -0.1681   -4.1485 N   0  0  0  0  0  0  0  0  0  0  0  0
   11.0356   -0.5556   -5.4331 C   0  0  0  0  0  0  0  0  0  0  0  0
   10.1075   -1.5148   -5.7768 C   0  0  0  0  0  0  0  0  0  0  0  0
   10.0413   -2.1955   -6.9472 O   0  0  0  0  0  0  0  0  0  0  0  0
   11.2685   -2.1757   -7.6948 C   0  0  0  0  0  0  0  0  0  0  0  0
   11.2818   -3.3092   -8.7271 C   0  0  1  0  0  0  0  0  0  0  0  0
   11.0268   -4.6710   -8.0974 C   0  0  0  0  0  0  0  0  0  0  0  0
   10.3000   -3.0785   -9.7351 O   0  0  0  0  0  0  0  0  0  0  0  0
    9.2019   -1.6640   -4.6856 C   0  0  0  0  0  0  0  0  0  0  0  0
    8.0061   -2.5465   -4.6101 C   0  0  0  0  0  0  0  0  0  0  0  0
    9.6784   -0.8197   -3.6936 C   0  0  0  0  0  0  0  0  0  0  0  0
    6.9163    0.7455   -0.9972 C   0  0  0  0  0  0  0  0  0  0  0  0
    5.9131    1.2750   -0.2529 N   0  0  0  0  0  0  0  0  0  0  0  0
    5.2302    0.3472    0.4448 C   0  0  0  0  0  0  0  0  0  0  0  0
    4.1063    0.6009    1.1828 N   0  0  0  0  0  0  0  0  0  0  0  0
    2.0050   -1.6650    2.5981 H   0  0  0  0  0  0  0  0  0  0  0  0
    1.4859   -0.2496    1.6743 H   0  0  0  0  0  0  0  0  0  0  0  0
    2.2719   -0.0371    3.2545 H   0  0  0  0  0  0  0  0  0  0  0  0
    4.3602   -2.6368    1.5700 H   0  0  0  0  0  0  0  0  0  0  0  0
   11.6217    1.6182   -1.5949 H   0  0  0  0  0  0  0  0  0  0  0  0
   11.8660   -0.1197   -5.9683 H   0  0  0  0  0  0  0  0  0  0  0  0
   12.1295   -2.3198   -7.0295 H   0  0  0  0  0  0  0  0  0  0  0  0
   11.3469   -1.2093   -8.2076 H   0  0  0  0  0  0  0  0  0  0  0  0
   12.2572   -3.3170   -9.2259 H   0  0  0  0  0  0  0  0  0  0  0  0
   10.0246   -4.7269   -7.6592 H   0  0  0  0  0  0  0  0  0  0  0  0
   11.7641   -4.8896   -7.3188 H   0  0  0  0  0  0  0  0  0  0  0  0
   11.0786   -5.4565   -8.8586 H   0  0  0  0  0  0  0  0  0  0  0  0
    9.4499   -2.9557   -9.2763 H   0  0  0  0  0  0  0  0  0  0  0  0
    7.8332   -3.0843   -5.5465 H   0  0  0  0  0  0  0  0  0  0  0  0
    7.1088   -1.9551   -4.3950 H   0  0  0  0  0  0  0  0  0  0  0  0
    8.1276   -3.2860   -3.8113 H   0  0  0  0  0  0  0  0  0  0  0  0
    7.4170    1.4705   -1.6335 H   0  0  0  0  0  0  0  0  0  0  0  0
    3.6925    1.5180    1.2677 H   0  0  0  0  0  0  0  0  0  0  0  0
  1  2  1  0  0  0  0
  1 28  1  0  0  0  0
  1 29  1  0  0  0  0
  1 30  1  0  0  0  0
  2  3  2  0  0  0  0
  2 27  1  0  0  0  0
  3  4  1  0  0  0  0
  3 31  1  0  0  0  0
  4  5  1  0  0  0  0
  4 26  2  0  0  0  0
  5  6  1  0  0  0  0
  5  7  2  0  0  0  0
  7  8  1  0  0  0  0
  7 24  1  0  0  0  0
  8  9  1  0  0  0  0
  9 10  2  0  0  0  0
  9 23  1  0  0  0  0
 10 11  1  0  0  0  0
 11 12  2  0  0  0  0
 11 32  1  0  0  0  0
 12 13  1  0  0  0  0
 13 14  1  0  0  0  0
 13 23  1  0  0  0  0
 14 15  2  0  0  0  0
 14 33  1  0  0  0  0
 15 16  1  0  0  0  0
 15 21  1  0  0  0  0
 16 17  1  0  0  0  0
 17 18  1  0  0  0  0
 17 34  1  0  0  0  0
 17 35  1  0  0  0  0
 18 19  1  0  0  0  0
 18 20  1  0  0  0  0
 18 36  1  6  0  0  0
 19 37  1  0  0  0  0
 19 38  1  0  0  0  0
 19 39  1  0  0  0  0
 20 40  1  0  0  0  0
 21 22  1  0  0  0  0
 21 23  2  0  0  0  0
 22 41  1  0  0  0  0
 22 42  1  0  0  0  0
 22 43  1  0  0  0  0
 24 25  2  0  0  0  0
 24 44  1  0  0  0  0
 25 26  1  0  0  0  0
 26 27  1  0  0  0  0
 27 45  1  0  0  0  0
M  END
$$$$
