CHEMBL102301
 OpenBabel04072215353D

 58 62  0  0  0  0  0  0  0  0999 V2000
    6.8836   -4.9426   -5.8753 C   0  0  0  0  0  0  0  0  0  0  0  0
    7.3027   -3.8135   -6.6375 O   0  0  0  0  0  0  0  0  0  0  0  0
    6.8644   -2.5909   -6.2055 C   0  0  0  0  0  0  0  0  0  0  0  0
    6.4865   -2.3475   -4.8711 C   0  0  0  0  0  0  0  0  0  0  0  0
    5.9836   -1.1219   -4.4370 C   0  0  0  0  0  0  0  0  0  0  0  0
    5.6148   -0.9964   -3.1597 N   0  0  0  0  0  0  0  0  0  0  0  0
    5.1259    0.1928   -2.7953 C   0  0  0  0  0  0  0  0  0  0  0  0
    4.9437    1.2528   -3.5938 N   0  0  0  0  0  0  0  0  0  0  0  0
    5.2917    1.1251   -4.8904 C   0  0  0  0  0  0  0  0  0  0  0  0
    5.0229    2.2088   -5.7104 N   0  0  0  0  0  0  0  0  0  0  0  0
    5.0052    3.5669   -5.1386 C   0  0  0  0  0  0  0  0  0  0  0  0
    3.6808    4.2952   -5.4497 C   0  0  0  0  0  0  0  0  0  0  0  0
    3.4231    4.2456   -6.8955 N   0  0  0  0  0  0  0  0  0  0  0  0
    2.9800    5.3177   -7.6243 C   0  0  0  0  0  0  0  0  0  0  0  0
    3.9630    5.6844   -9.0458 S   0  0  0  0  0  0  0  0  0  0  0  0
    1.9854    6.1020   -7.4560 N   0  0  0  0  0  0  0  0  0  0  0  0
    1.0595    5.8278   -6.3680 C   0  0  0  0  0  0  0  0  0  0  0  0
   -0.0873    6.8126   -6.2900 C   0  0  0  0  0  0  0  0  0  0  0  0
   -0.2227    7.8973   -7.1866 C   0  0  0  0  0  0  0  0  0  0  0  0
   -1.2712    8.8156   -7.0587 C   0  0  0  0  0  0  0  0  0  0  0  0
   -2.1638    8.6287   -6.0268 C   0  0  0  0  0  0  0  0  0  0  0  0
   -2.0476    7.5736   -5.1546 C   0  0  0  0  0  0  0  0  0  0  0  0
   -1.0307    6.6505   -5.2607 C   0  0  0  0  0  0  0  0  0  0  0  0
   -3.0200    7.5704   -4.2049 O   0  0  0  0  0  0  0  0  0  0  0  0
   -3.7276    8.7797   -4.5458 C   0  0  0  0  0  0  0  0  0  0  0  0
   -3.2260    9.4258   -5.7341 O   0  0  0  0  0  0  0  0  0  0  0  0
    3.2826    2.8748   -7.3892 C   0  0  0  0  0  0  0  0  0  0  0  0
    4.5707    2.0829   -7.1083 C   0  0  0  0  0  0  0  0  0  0  0  0
    5.8831   -0.0717   -5.3537 C   0  0  0  0  0  0  0  0  0  0  0  0
    6.4005   -0.2851   -6.6514 C   0  0  0  0  0  0  0  0  0  0  0  0
    6.8320   -1.5301   -7.1069 C   0  0  0  0  0  0  0  0  0  0  0  0
    7.1317   -1.4824   -8.4372 O   0  0  0  0  0  0  0  0  0  0  0  0
    7.5216   -2.6613   -9.1145 C   0  0  0  0  0  0  0  0  0  0  0  0
    7.0566   -5.8384   -6.4788 H   0  0  0  0  0  0  0  0  0  0  0  0
    5.8132   -4.9020   -5.6430 H   0  0  0  0  0  0  0  0  0  0  0  0
    7.4809   -5.0334   -4.9626 H   0  0  0  0  0  0  0  0  0  0  0  0
    6.5750   -3.1274   -4.1192 H   0  0  0  0  0  0  0  0  0  0  0  0
    4.8369    0.3076   -1.7532 H   0  0  0  0  0  0  0  0  0  0  0  0
    5.8302    4.1273   -5.5965 H   0  0  0  0  0  0  0  0  0  0  0  0
    5.1839    3.5881   -4.0576 H   0  0  0  0  0  0  0  0  0  0  0  0
    3.7570    5.3297   -5.0995 H   0  0  0  0  0  0  0  0  0  0  0  0
    2.8552    3.8114   -4.9125 H   0  0  0  0  0  0  0  0  0  0  0  0
    4.9046    4.7662   -8.8116 H   0  0  0  0  0  0  0  0  0  0  0  0
    1.5781    5.8882   -5.4063 H   0  0  0  0  0  0  0  0  0  0  0  0
    0.6350    4.8226   -6.4864 H   0  0  0  0  0  0  0  0  0  0  0  0
    0.5033    8.0348   -7.9871 H   0  0  0  0  0  0  0  0  0  0  0  0
   -1.3695    9.6514   -7.7417 H   0  0  0  0  0  0  0  0  0  0  0  0
   -0.9609    5.8313   -4.5536 H   0  0  0  0  0  0  0  0  0  0  0  0
   -3.6429    9.4790   -3.7057 H   0  0  0  0  0  0  0  0  0  0  0  0
   -4.7853    8.5368   -4.6962 H   0  0  0  0  0  0  0  0  0  0  0  0
    3.0738    2.8502   -8.4648 H   0  0  0  0  0  0  0  0  0  0  0  0
    2.4351    2.3925   -6.8872 H   0  0  0  0  0  0  0  0  0  0  0  0
    5.3693    2.4660   -7.7571 H   0  0  0  0  0  0  0  0  0  0  0  0
    4.3587    1.0482   -7.3937 H   0  0  0  0  0  0  0  0  0  0  0  0
    6.4703    0.5380   -7.3545 H   0  0  0  0  0  0  0  0  0  0  0  0
    7.5798   -2.4115  -10.1796 H   0  0  0  0  0  0  0  0  0  0  0  0
    6.7805   -3.4590   -9.0140 H   0  0  0  0  0  0  0  0  0  0  0  0
    8.5176   -2.9746   -8.7927 H   0  0  0  0  0  0  0  0  0  0  0  0
  1  2  1  0  0  0  0
  1 34  1  0  0  0  0
  1 35  1  0  0  0  0
  1 36  1  0  0  0  0
  2  3  1  0  0  0  0
  3  4  1  0  0  0  0
  3 31  2  0  0  0  0
  4  5  2  0  0  0  0
  4 37  1  0  0  0  0
  5  6  1  0  0  0  0
  5 29  1  0  0  0  0
  6  7  2  0  0  0  0
  7  8  1  0  0  0  0
  7 38  1  0  0  0  0
  8  9  2  0  0  0  0
  9 10  1  0  0  0  0
  9 29  1  0  0  0  0
 10 11  1  0  0  0  0
 10 28  1  0  0  0  0
 11 12  1  0  0  0  0
 11 39  1  0  0  0  0
 11 40  1  0  0  0  0
 12 13  1  0  0  0  0
 12 41  1  0  0  0  0
 12 42  1  0  0  0  0
 13 14  1  0  0  0  0
 13 27  1  0  0  0  0
 14 15  1  0  0  0  0
 14 16  2  0  0  0  0
 15 43  1  0  0  0  0
 16 17  1  0  0  0  0
 17 18  1  0  0  0  0
 17 44  1  0  0  0  0
 17 45  1  0  0  0  0
 18 19  1  0  0  0  0
 18 23  2  0  0  0  0
 19 20  2  0  0  0  0
 19 46  1  0  0  0  0
 20 21  1  0  0  0  0
 20 47  1  0  0  0  0
 21 22  2  0  0  0  0
 21 26  1  0  0  0  0
 22 23  1  0  0  0  0
 22 24  1  0  0  0  0
 23 48  1  0  0  0  0
 24 25  1  0  0  0  0
 25 26  1  0  0  0  0
 25 49  1  0  0  0  0
 25 50  1  0  0  0  0
 27 28  1  0  0  0  0
 27 51  1  0  0  0  0
 27 52  1  0  0  0  0
 28 53  1  0  0  0  0
 28 54  1  0  0  0  0
 29 30  2  0  0  0  0
 30 31  1  0  0  0  0
 30 55  1  0  0  0  0
 31 32  1  0  0  0  0
 32 33  1  0  0  0  0
 33 56  1  0  0  0  0
 33 57  1  0  0  0  0
 33 58  1  0  0  0  0
M  END
$$$$
