CHEMBL3690471
 OpenBabel04072215373D

 48 51  0  0  0  0  0  0  0  0999 V2000
    2.2632    0.1190    0.9864 N   0  0  0  0  0  0  0  0  0  0  0  0
    0.9262    0.0707    0.5710 C   0  0  0  0  0  0  0  0  0  0  0  0
    0.3516    1.1588   -0.0745 C   0  0  0  0  0  0  0  0  0  0  0  0
   -0.9258    1.0239   -0.5884 C   0  0  0  0  0  0  0  0  0  0  0  0
   -1.6462   -0.1154   -0.5238 N   0  0  0  0  0  0  0  0  0  0  0  0
   -1.0665   -1.1910    0.0641 C   0  0  0  0  0  0  0  0  0  0  0  0
   -1.8864   -2.4357    0.0718 C   0  0  0  0  0  0  0  0  0  0  0  0
   -2.8822   -2.6972   -0.9767 C   0  0  0  0  0  0  0  0  0  0  0  0
   -3.6302   -3.8121   -0.9446 C   0  0  0  0  0  0  0  0  0  0  0  0
   -3.4399   -4.7525    0.0720 N   0  0  0  0  0  0  0  0  0  0  0  0
   -3.9993   -6.0155    0.2874 C   0  0  0  0  0  0  0  0  0  0  0  0
   -4.8956   -6.7538   -0.6209 C   0  0  0  0  0  0  0  0  0  0  0  0
   -4.7606   -6.6179   -2.0076 C   0  0  0  0  0  0  0  0  0  0  0  0
   -5.6198   -7.2733   -2.8809 C   0  0  0  0  0  0  0  0  0  0  0  0
   -6.5786   -8.1460   -2.3842 C   0  0  0  0  0  0  0  0  0  0  0  0
   -6.6875   -8.3920   -1.0146 C   0  0  0  0  0  0  0  0  0  0  0  0
   -7.5916   -9.3547   -0.4902 N   0  0  0  0  0  0  0  0  0  0  0  0
   -8.3813  -10.2123   -1.2312 C   0  0  0  0  0  0  0  0  0  0  0  0
   -8.4371  -10.3018   -2.4515 O   0  0  0  0  0  0  0  0  0  0  0  0
   -9.2023  -10.9947   -0.4524 N   0  0  0  0  0  0  0  0  0  0  0  0
  -10.0873  -11.9523   -1.1368 C   0  0  0  0  0  0  0  0  0  0  0  0
   -9.4272  -13.2398   -1.6595 C   0  0  0  0  0  0  0  0  0  0  0  0
   -8.1556  -13.3757   -1.2194 F   0  0  0  0  0  0  0  0  0  0  0  0
  -10.1131  -14.3214   -1.2076 F   0  0  0  0  0  0  0  0  0  0  0  0
   -9.4192  -13.3095   -3.0067 F   0  0  0  0  0  0  0  0  0  0  0  0
   -5.8618   -7.6645   -0.1341 C   0  0  0  0  0  0  0  0  0  0  0  0
   -3.4616   -6.4092    1.5039 C   0  0  0  0  0  0  0  0  0  0  0  0
   -2.5767   -5.4913    2.0032 N   0  0  0  0  0  0  0  0  0  0  0  0
   -2.5491   -4.5221    1.1205 C   0  0  0  0  0  0  0  0  0  0  0  0
   -1.7767   -3.3234    1.0909 C   0  0  0  0  0  0  0  0  0  0  0  0
    0.2277   -1.1367    0.5824 C   0  0  0  0  0  0  0  0  0  0  0  0
    2.5880    1.0485    1.2365 H   0  0  0  0  0  0  0  0  0  0  0  0
    2.5048   -0.5704    1.6925 H   0  0  0  0  0  0  0  0  0  0  0  0
    0.8831    2.0969   -0.1839 H   0  0  0  0  0  0  0  0  0  0  0  0
   -1.4149    1.8533   -1.0915 H   0  0  0  0  0  0  0  0  0  0  0  0
   -3.0042   -1.9615   -1.7668 H   0  0  0  0  0  0  0  0  0  0  0  0
   -4.3866   -4.0020   -1.6910 H   0  0  0  0  0  0  0  0  0  0  0  0
   -3.9731   -6.0113   -2.4446 H   0  0  0  0  0  0  0  0  0  0  0  0
   -5.5325   -7.1210   -3.9530 H   0  0  0  0  0  0  0  0  0  0  0  0
   -7.2185   -8.6303   -3.1134 H   0  0  0  0  0  0  0  0  0  0  0  0
   -7.6335   -9.4426    0.5119 H   0  0  0  0  0  0  0  0  0  0  0  0
   -8.8525  -11.2597    0.4570 H   0  0  0  0  0  0  0  0  0  0  0  0
  -10.5695  -11.4369   -1.9782 H   0  0  0  0  0  0  0  0  0  0  0  0
  -10.8763  -12.2058   -0.4241 H   0  0  0  0  0  0  0  0  0  0  0  0
   -5.9586   -7.8145    0.9378 H   0  0  0  0  0  0  0  0  0  0  0  0
   -3.6434   -7.3381    2.0298 H   0  0  0  0  0  0  0  0  0  0  0  0
   -1.1044   -3.1675    1.9288 H   0  0  0  0  0  0  0  0  0  0  0  0
    0.7002   -2.0253    0.9862 H   0  0  0  0  0  0  0  0  0  0  0  0
  1  2  1  0  0  0  0
  1 32  1  0  0  0  0
  1 33  1  0  0  0  0
  2  3  1  0  0  0  0
  2 31  2  0  0  0  0
  3  4  2  0  0  0  0
  3 34  1  0  0  0  0
  4  5  1  0  0  0  0
  4 35  1  0  0  0  0
  5  6  2  0  0  0  0
  6  7  1  0  0  0  0
  6 31  1  0  0  0  0
  7  8  1  0  0  0  0
  7 30  2  0  0  0  0
  8  9  2  0  0  0  0
  8 36  1  0  0  0  0
  9 10  1  0  0  0  0
  9 37  1  0  0  0  0
 10 11  1  0  0  0  0
 10 29  1  0  0  0  0
 11 12  1  0  0  0  0
 11 27  2  0  0  0  0
 12 13  1  0  0  0  0
 12 26  2  0  0  0  0
 13 14  2  0  0  0  0
 13 38  1  0  0  0  0
 14 15  1  0  0  0  0
 14 39  1  0  0  0  0
 15 16  2  0  0  0  0
 15 40  1  0  0  0  0
 16 17  1  0  0  0  0
 16 26  1  0  0  0  0
 17 18  1  0  0  0  0
 17 41  1  0  0  0  0
 18 19  2  0  0  0  0
 18 20  1  0  0  0  0
 20 21  1  0  0  0  0
 20 42  1  0  0  0  0
 21 22  1  0  0  0  0
 21 43  1  0  0  0  0
 21 44  1  0  0  0  0
 22 23  1  0  0  0  0
 22 24  1  0  0  0  0
 22 25  1  0  0  0  0
 26 45  1  0  0  0  0
 27 28  1  0  0  0  0
 27 46  1  0  0  0  0
 28 29  2  0  0  0  0
 29 30  1  0  0  0  0
 30 47  1  0  0  0  0
 31 48  1  0  0  0  0
M  END
$$$$
