CHEMBL1784637
 OpenBabel04072215363D

 75 78  0  0  0  0  0  0  0  0999 V2000
    1.2262   -0.1895   -0.0791 C   0  0  0  0  0  0  0  0  0  0  0  0
    2.6547   -0.0539   -0.0057 N   0  0  0  0  0  0  0  0  0  0  0  0
    3.2363    1.0888    0.4954 C   0  0  0  0  0  0  0  0  0  0  0  0
    2.5662    2.0263    0.9224 O   0  0  0  0  0  0  0  0  0  0  0  0
    4.6905    1.0781    0.4696 C   0  0  0  0  0  0  0  0  0  0  0  0
    5.4183    0.0798   -0.0157 N   0  0  0  0  0  0  0  0  0  0  0  0
    6.7290    0.4604    0.1506 C   0  0  0  0  0  0  0  0  0  0  0  0
    6.8139    1.7007    0.7414 C   0  0  0  0  0  0  0  0  0  0  0  0
    7.9776    2.4439    1.0868 C   0  0  0  0  0  0  0  0  0  0  0  0
    8.9314    3.1023    1.3880 C   0  0  0  0  0  0  0  0  0  0  0  0
   10.0534    3.9216    1.7520 C   0  0  0  0  0  0  0  0  0  0  0  0
    9.8931    5.3190    1.6990 C   0  0  0  0  0  0  0  0  0  0  0  0
   10.9614    6.1512    2.0286 C   0  0  0  0  0  0  0  0  0  0  0  0
   10.9226    7.6315    1.9023 C   0  0  0  0  0  0  0  0  0  0  0  0
   12.0054    8.1657    1.6694 O   0  0  0  0  0  0  0  0  0  0  0  0
    9.7147    8.3137    2.1070 N   0  0  0  0  0  0  0  0  0  0  0  0
    9.6080    9.7346    1.9653 C   0  0  0  0  0  0  0  0  0  0  0  0
   10.5313   10.4387    1.2105 C   0  0  0  0  0  0  0  0  0  0  0  0
   10.5585   11.8291    1.1876 C   0  0  0  0  0  0  0  0  0  0  0  0
    9.6172   12.6005    1.8806 C   0  0  0  0  0  0  0  0  0  0  0  0
    9.8518   14.1098    1.8389 C   0  0  0  0  0  0  0  0  0  0  0  0
    9.1888   14.8221    0.7306 N   0  0  0  0  0  0  0  0  0  0  0  0
    9.7204   14.5128   -0.6123 C   0  0  0  0  0  0  0  0  0  0  0  0
   11.1522   15.0328   -0.9083 C   0  0  0  0  0  0  0  0  0  0  0  0
   11.4177   16.4578   -0.6137 N   0  0  0  0  0  0  0  0  0  0  0  0
   11.2858   17.3032   -1.8176 C   0  0  0  0  0  0  0  0  0  0  0  0
   11.7268   18.7709   -1.6267 C   0  0  0  0  0  0  0  0  0  0  0  0
   13.0367   18.8425   -1.0690 O   0  0  0  0  0  0  0  0  0  0  0  0
   10.6800   16.9272    0.5727 C   0  0  0  0  0  0  0  0  0  0  0  0
    9.3021   16.2875    0.8934 C   0  0  0  0  0  0  0  0  0  0  0  0
    8.5920   11.9123    2.5781 C   0  0  0  0  0  0  0  0  0  0  0  0
    7.5014   12.6114    3.3737 C   0  0  0  0  0  0  0  0  0  0  0  0
    7.5891   13.9656    3.4454 F   0  0  0  0  0  0  0  0  0  0  0  0
    6.2528   12.3478    2.8938 F   0  0  0  0  0  0  0  0  0  0  0  0
    7.4810   12.1893    4.6741 F   0  0  0  0  0  0  0  0  0  0  0  0
    8.5957   10.4714    2.6003 C   0  0  0  0  0  0  0  0  0  0  0  0
   12.1930    5.5762    2.3886 C   0  0  0  0  0  0  0  0  0  0  0  0
   12.3529    4.1930    2.4473 C   0  0  0  0  0  0  0  0  0  0  0  0
   11.2828    3.3475    2.1341 C   0  0  0  0  0  0  0  0  0  0  0  0
   11.4927    1.8579    2.1929 C   0  0  0  0  0  0  0  0  0  0  0  0
    5.5124    2.0845    0.9376 N   0  0  0  0  0  0  0  0  0  0  0  0
    5.0524    3.3153    1.5363 C   0  0  0  0  0  0  0  0  0  0  0  0
    0.9778   -1.2018   -0.4037 H   0  0  0  0  0  0  0  0  0  0  0  0
    0.8347    0.5425   -0.7911 H   0  0  0  0  0  0  0  0  0  0  0  0
    0.7930    0.0060    0.9061 H   0  0  0  0  0  0  0  0  0  0  0  0
    3.2801   -0.7616   -0.3809 H   0  0  0  0  0  0  0  0  0  0  0  0
    7.5447   -0.1817   -0.1619 H   0  0  0  0  0  0  0  0  0  0  0  0
    8.9539    5.7384    1.3504 H   0  0  0  0  0  0  0  0  0  0  0  0
    8.9568    7.8214    2.5588 H   0  0  0  0  0  0  0  0  0  0  0  0
   11.2902    9.9333    0.6244 H   0  0  0  0  0  0  0  0  0  0  0  0
   11.3615   12.3022    0.6302 H   0  0  0  0  0  0  0  0  0  0  0  0
   10.9358   14.2875    1.8245 H   0  0  0  0  0  0  0  0  0  0  0  0
    9.5425   14.5270    2.8026 H   0  0  0  0  0  0  0  0  0  0  0  0
    9.0394   14.9641   -1.3473 H   0  0  0  0  0  0  0  0  0  0  0  0
    9.6652   13.4387   -0.8164 H   0  0  0  0  0  0  0  0  0  0  0  0
   11.3890   14.8034   -1.9564 H   0  0  0  0  0  0  0  0  0  0  0  0
   11.8690   14.4440   -0.3250 H   0  0  0  0  0  0  0  0  0  0  0  0
   10.2688   17.2706   -2.2215 H   0  0  0  0  0  0  0  0  0  0  0  0
   11.9605   16.8904   -2.5816 H   0  0  0  0  0  0  0  0  0  0  0  0
   11.0460   19.3245   -0.9750 H   0  0  0  0  0  0  0  0  0  0  0  0
   11.7426   19.2903   -2.5902 H   0  0  0  0  0  0  0  0  0  0  0  0
   13.0808   18.1240   -0.4090 H   0  0  0  0  0  0  0  0  0  0  0  0
   10.5270   18.0100    0.5424 H   0  0  0  0  0  0  0  0  0  0  0  0
   11.3429   16.7667    1.4313 H   0  0  0  0  0  0  0  0  0  0  0  0
    8.5602   16.7467    0.2273 H   0  0  0  0  0  0  0  0  0  0  0  0
    9.0024   16.5828    1.9066 H   0  0  0  0  0  0  0  0  0  0  0  0
    7.8215    9.9559    3.1698 H   0  0  0  0  0  0  0  0  0  0  0  0
   13.0516    6.2125    2.6046 H   0  0  0  0  0  0  0  0  0  0  0  0
   13.3244    3.7872    2.7237 H   0  0  0  0  0  0  0  0  0  0  0  0
   12.5036    1.6082    2.5360 H   0  0  0  0  0  0  0  0  0  0  0  0
   11.3656    1.4143    1.2004 H   0  0  0  0  0  0  0  0  0  0  0  0
   10.7896    1.4004    2.8958 H   0  0  0  0  0  0  0  0  0  0  0  0
    5.9005    3.9257    1.8535 H   0  0  0  0  0  0  0  0  0  0  0  0
    4.4438    3.0698    2.4100 H   0  0  0  0  0  0  0  0  0  0  0  0
    4.4710    3.8660    0.7926 H   0  0  0  0  0  0  0  0  0  0  0  0
  1  2  1  0  0  0  0
  1 43  1  0  0  0  0
  1 44  1  0  0  0  0
  1 45  1  0  0  0  0
  2  3  1  0  0  0  0
  2 46  1  0  0  0  0
  3  4  2  0  0  0  0
  3  5  1  0  0  0  0
  5  6  2  0  0  0  0
  5 41  1  0  0  0  0
  6  7  1  0  0  0  0
  7  8  2  0  0  0  0
  7 47  1  0  0  0  0
  8  9  1  0  0  0  0
  8 41  1  0  0  0  0
  9 10  3  0  0  0  0
 10 11  1  0  0  0  0
 11 12  1  0  0  0  0
 11 39  2  0  0  0  0
 12 13  2  0  0  0  0
 12 48  1  0  0  0  0
 13 14  1  0  0  0  0
 13 37  1  0  0  0  0
 14 15  2  0  0  0  0
 14 16  1  0  0  0  0
 16 17  1  0  0  0  0
 16 49  1  0  0  0  0
 17 18  1  0  0  0  0
 17 36  2  0  0  0  0
 18 19  2  0  0  0  0
 18 50  1  0  0  0  0
 19 20  1  0  0  0  0
 19 51  1  0  0  0  0
 20 21  1  0  0  0  0
 20 31  2  0  0  0  0
 21 22  1  0  0  0  0
 21 52  1  0  0  0  0
 21 53  1  0  0  0  0
 22 23  1  0  0  0  0
 22 30  1  0  0  0  0
 23 24  1  0  0  0  0
 23 54  1  0  0  0  0
 23 55  1  0  0  0  0
 24 25  1  0  0  0  0
 24 56  1  0  0  0  0
 24 57  1  0  0  0  0
 25 26  1  0  0  0  0
 25 29  1  0  0  0  0
 26 27  1  0  0  0  0
 26 58  1  0  0  0  0
 26 59  1  0  0  0  0
 27 28  1  0  0  0  0
 27 60  1  0  0  0  0
 27 61  1  0  0  0  0
 28 62  1  0  0  0  0
 29 30  1  0  0  0  0
 29 63  1  0  0  0  0
 29 64  1  0  0  0  0
 30 65  1  0  0  0  0
 30 66  1  0  0  0  0
 31 32  1  0  0  0  0
 31 36  1  0  0  0  0
 32 33  1  0  0  0  0
 32 34  1  0  0  0  0
 32 35  1  0  0  0  0
 36 67  1  0  0  0  0
 37 38  2  0  0  0  0
 37 68  1  0  0  0  0
 38 39  1  0  0  0  0
 38 69  1  0  0  0  0
 39 40  1  0  0  0  0
 40 70  1  0  0  0  0
 40 71  1  0  0  0  0
 40 72  1  0  0  0  0
 41 42  1  0  0  0  0
 42 73  1  0  0  0  0
 42 74  1  0  0  0  0
 42 75  1  0  0  0  0
M  END
$$$$
