CHEMBL1762535
 OpenBabel04072215363D

 66 70  0  0  0  0  0  0  0  0999 V2000
    5.6336   -6.2086    4.3389 C   0  0  0  0  0  0  0  0  0  0  0  0
    5.3628   -7.5449    3.9269 O   0  0  0  0  0  0  0  0  0  0  0  0
    4.7820   -7.7024    2.7019 C   0  0  0  0  0  0  0  0  0  0  0  0
    4.5230   -9.0053    2.2982 C   0  0  0  0  0  0  0  0  0  0  0  0
    3.9440   -9.3322    1.1220 N   0  0  0  0  0  0  0  0  0  0  0  0
    3.6282   -8.3015    0.2968 C   0  0  0  0  0  0  0  0  0  0  0  0
    3.8730   -6.9479    0.5599 C   0  0  0  0  0  0  0  0  0  0  0  0
    3.6268   -5.9484   -0.4059 N   0  0  0  0  0  0  0  0  0  0  0  0
    4.3884   -4.6987   -0.3286 C   0  0  0  0  0  0  0  0  0  0  0  0
    2.5002   -5.8865   -1.2751 C   0  0  0  0  0  0  0  0  0  0  0  0
    2.6164   -5.2615   -2.5066 C   0  0  0  0  0  0  0  0  0  0  0  0
    1.4921   -5.1811   -3.2806 C   0  0  0  0  0  0  0  0  0  0  0  0
    0.3208   -5.6919   -2.9050 N   0  0  0  0  0  0  0  0  0  0  0  0
    0.2618   -6.3013   -1.7113 C   0  0  0  0  0  0  0  0  0  0  0  0
   -0.9737   -6.7828   -1.2731 N   0  0  0  0  0  0  0  0  0  0  0  0
   -2.0520   -7.2373   -2.0525 C   0  0  0  0  0  0  0  0  0  0  0  0
   -1.8630   -7.7752   -3.3332 C   0  0  0  0  0  0  0  0  0  0  0  0
   -2.9272   -8.1890   -4.1374 C   0  0  0  0  0  0  0  0  0  0  0  0
   -2.7340   -8.7929   -5.3641 N   0  0  0  0  0  0  0  0  0  0  0  0
   -1.5931   -9.6807   -5.6231 C   0  0  0  0  0  0  0  0  0  0  0  0
   -0.6714   -9.0770   -6.6880 C   0  0  0  0  0  0  0  0  0  0  0  0
   -1.3981   -8.7636   -7.8888 O   0  0  0  0  0  0  0  0  0  0  0  0
   -2.4319   -7.8039   -7.6039 C   0  0  0  0  0  0  0  0  0  0  0  0
   -3.4420   -8.3275   -6.5646 C   0  0  0  0  0  0  0  0  0  0  0  0
   -4.2185   -8.0044   -3.6238 C   0  0  0  0  0  0  0  0  0  0  0  0
   -4.4757   -7.4930   -2.3369 C   0  0  0  0  0  0  0  0  0  0  0  0
   -5.7747   -7.3745   -1.8776 N   0  0  0  0  0  0  0  0  0  0  0  0
   -6.2010   -6.3811   -0.8833 C   0  0  0  0  0  0  0  0  0  0  0  0
   -6.7149   -7.0806    0.3828 C   0  0  0  0  0  0  0  0  0  0  0  0
   -7.7613   -8.0188    0.0767 O   0  0  0  0  0  0  0  0  0  0  0  0
   -7.2712   -9.0283   -0.8210 C   0  0  0  0  0  0  0  0  0  0  0  0
   -6.7708   -8.4270   -2.1463 C   0  0  0  0  0  0  0  0  0  0  0  0
   -3.3628   -7.1162   -1.5694 C   0  0  0  0  0  0  0  0  0  0  0  0
    1.3187   -6.4170   -0.8836 N   0  0  0  0  0  0  0  0  0  0  0  0
    4.4345   -6.6778    1.8183 C   0  0  0  0  0  0  0  0  0  0  0  0
    6.1017   -6.2464    5.3270 H   0  0  0  0  0  0  0  0  0  0  0  0
    4.7072   -5.6326    4.4313 H   0  0  0  0  0  0  0  0  0  0  0  0
    6.3369   -5.7189    3.6571 H   0  0  0  0  0  0  0  0  0  0  0  0
    4.7838   -9.8448    2.9374 H   0  0  0  0  0  0  0  0  0  0  0  0
    3.1910   -8.6120   -0.6493 H   0  0  0  0  0  0  0  0  0  0  0  0
    5.2267   -4.7269    0.3779 H   0  0  0  0  0  0  0  0  0  0  0  0
    3.7381   -3.8633   -0.0435 H   0  0  0  0  0  0  0  0  0  0  0  0
    4.8659   -4.4657   -1.2866 H   0  0  0  0  0  0  0  0  0  0  0  0
    3.5446   -4.8550   -2.8800 H   0  0  0  0  0  0  0  0  0  0  0  0
    1.4995   -4.6871   -4.2468 H   0  0  0  0  0  0  0  0  0  0  0  0
   -0.9304   -7.1070   -0.3187 H   0  0  0  0  0  0  0  0  0  0  0  0
   -0.8507   -7.8671   -3.7145 H   0  0  0  0  0  0  0  0  0  0  0  0
   -1.9977  -10.6285   -5.9982 H   0  0  0  0  0  0  0  0  0  0  0  0
   -1.0272   -9.9219   -4.7160 H   0  0  0  0  0  0  0  0  0  0  0  0
    0.1081   -9.7988   -6.9518 H   0  0  0  0  0  0  0  0  0  0  0  0
   -0.1781   -8.1694   -6.3216 H   0  0  0  0  0  0  0  0  0  0  0  0
   -2.9477   -7.5898   -8.5454 H   0  0  0  0  0  0  0  0  0  0  0  0
   -1.9625   -6.8738   -7.2621 H   0  0  0  0  0  0  0  0  0  0  0  0
   -3.9854   -9.1803   -6.9882 H   0  0  0  0  0  0  0  0  0  0  0  0
   -4.1716   -7.5395   -6.3488 H   0  0  0  0  0  0  0  0  0  0  0  0
   -5.0586   -8.2890   -4.2520 H   0  0  0  0  0  0  0  0  0  0  0  0
   -7.0237   -5.8066   -1.3271 H   0  0  0  0  0  0  0  0  0  0  0  0
   -5.4189   -5.6580   -0.6315 H   0  0  0  0  0  0  0  0  0  0  0  0
   -7.1309   -6.3390    1.0725 H   0  0  0  0  0  0  0  0  0  0  0  0
   -5.9057   -7.6060    0.9024 H   0  0  0  0  0  0  0  0  0  0  0  0
   -8.0938   -9.7233   -1.0186 H   0  0  0  0  0  0  0  0  0  0  0  0
   -6.4737   -9.5904   -0.3204 H   0  0  0  0  0  0  0  0  0  0  0  0
   -7.6111   -7.9717   -2.6832 H   0  0  0  0  0  0  0  0  0  0  0  0
   -6.3817   -9.2429   -2.7643 H   0  0  0  0  0  0  0  0  0  0  0  0
   -3.5027   -6.7156   -0.5700 H   0  0  0  0  0  0  0  0  0  0  0  0
    4.5849   -5.6493    2.1163 H   0  0  0  0  0  0  0  0  0  0  0  0
  1  2  1  0  0  0  0
  1 36  1  0  0  0  0
  1 37  1  0  0  0  0
  1 38  1  0  0  0  0
  2  3  1  0  0  0  0
  3  4  1  0  0  0  0
  3 35  2  0  0  0  0
  4  5  2  0  0  0  0
  4 39  1  0  0  0  0
  5  6  1  0  0  0  0
  6  7  2  0  0  0  0
  6 40  1  0  0  0  0
  7  8  1  0  0  0  0
  7 35  1  0  0  0  0
  8  9  1  0  0  0  0
  8 10  1  0  0  0  0
  9 41  1  0  0  0  0
  9 42  1  0  0  0  0
  9 43  1  0  0  0  0
 10 11  1  0  0  0  0
 10 34  2  0  0  0  0
 11 12  2  0  0  0  0
 11 44  1  0  0  0  0
 12 13  1  0  0  0  0
 12 45  1  0  0  0  0
 13 14  2  0  0  0  0
 14 15  1  0  0  0  0
 14 34  1  0  0  0  0
 15 16  1  0  0  0  0
 15 46  1  0  0  0  0
 16 17  1  0  0  0  0
 16 33  2  0  0  0  0
 17 18  2  0  0  0  0
 17 47  1  0  0  0  0
 18 19  1  0  0  0  0
 18 25  1  0  0  0  0
 19 20  1  0  0  0  0
 19 24  1  0  0  0  0
 20 21  1  0  0  0  0
 20 48  1  0  0  0  0
 20 49  1  0  0  0  0
 21 22  1  0  0  0  0
 21 50  1  0  0  0  0
 21 51  1  0  0  0  0
 22 23  1  0  0  0  0
 23 24  1  0  0  0  0
 23 52  1  0  0  0  0
 23 53  1  0  0  0  0
 24 54  1  0  0  0  0
 24 55  1  0  0  0  0
 25 26  2  0  0  0  0
 25 56  1  0  0  0  0
 26 27  1  0  0  0  0
 26 33  1  0  0  0  0
 27 28  1  0  0  0  0
 27 32  1  0  0  0  0
 28 29  1  0  0  0  0
 28 57  1  0  0  0  0
 28 58  1  0  0  0  0
 29 30  1  0  0  0  0
 29 59  1  0  0  0  0
 29 60  1  0  0  0  0
 30 31  1  0  0  0  0
 31 32  1  0  0  0  0
 31 61  1  0  0  0  0
 31 62  1  0  0  0  0
 32 63  1  0  0  0  0
 32 64  1  0  0  0  0
 33 65  1  0  0  0  0
 35 66  1  0  0  0  0
M  END
$$$$
