CHEMBL269924
 OpenBabel04072215363D

 62 68  0  0  0  0  0  0  0  0999 V2000
    3.4529    1.6902   -1.1830 C   0  0  0  0  0  0  0  0  0  0  0  0
    3.0833    0.5622   -0.2200 C   0  0  0  0  0  0  0  0  0  0  0  0
    3.3755   -0.7878   -0.8763 C   0  0  0  0  0  0  0  0  0  0  0  0
    3.6889    0.6861    1.2057 C   0  0  0  0  0  0  0  0  0  0  0  0
    5.1333    0.7828    1.3438 N   0  0  0  0  0  0  0  0  0  0  0  0
    5.8422    2.0035    1.2620 C   0  0  0  0  0  0  0  0  0  0  0  0
    5.4156    3.3406    1.0763 C   0  0  0  0  0  0  0  0  0  0  0  0
    6.3859    4.3434    0.8518 C   0  0  0  0  0  0  0  0  0  0  0  0
    7.7501    4.0549    0.9085 C   0  0  0  0  0  0  0  0  0  0  0  0
    8.8565    5.0048    0.5736 C   0  0  0  0  0  0  0  0  0  0  0  0
    9.8424    4.4887    0.0406 O   0  0  0  0  0  0  0  0  0  0  0  0
    8.8043    6.4281    0.8578 C   0  0  0  0  0  0  0  0  0  0  0  0
    7.8543    7.0682    2.1319 S   0  0  0  0  0  0  0  0  0  0  0  0
    8.3970    8.6564    1.8414 C   0  0  0  0  0  0  0  0  0  0  0  0
    9.3210    8.7063    0.8233 C   0  0  0  0  0  0  0  0  0  0  0  0
    9.5671    7.4230    0.2659 C   0  0  0  0  0  0  0  0  0  0  0  0
   10.7097    7.2333   -1.0003 Cl  0  0  0  0  0  0  0  0  0  0  0  0
    8.1577    2.7454    1.1604 C   0  0  0  0  0  0  0  0  0  0  0  0
    7.2094    1.7143    1.2791 C   0  0  0  0  0  0  0  0  0  0  0  0
    7.2269    0.3422    1.2876 C   0  0  0  0  0  0  0  0  0  0  0  0
    8.3331   -0.3876    0.8170 C   0  0  0  0  0  0  0  0  0  0  0  0
    8.0442   -1.6765    0.3528 C   0  0  0  0  0  0  0  0  0  0  0  0
    6.7812   -2.2936    0.4736 C   0  0  0  0  0  0  0  0  0  0  0  0
    5.9671   -1.6985    1.4925 C   0  0  0  0  0  0  0  0  0  0  0  0
    6.0273   -0.2868    1.4868 C   0  0  0  0  0  0  0  0  0  0  0  0
    6.0227   -2.5623    2.8354 C   0  0  0  0  0  0  0  0  0  0  0  0
    7.0670   -3.7593    2.8183 C   0  0  0  0  0  0  0  0  0  0  0  0
    6.8522   -4.4943    1.5430 C   0  0  0  0  0  0  0  0  0  0  0  0
    6.4651   -5.7594    1.3827 N   0  0  0  0  0  0  0  0  0  0  0  0
    6.0007   -5.7628    0.1070 N   0  0  0  0  0  0  0  0  0  0  0  0
    5.3433   -6.9381   -0.4114 C   0  0  0  0  0  0  0  0  0  0  0  0
    6.0076   -4.5231   -0.4869 C   0  0  0  0  0  0  0  0  0  0  0  0
    6.7133   -3.7289    0.3773 C   0  0  0  0  0  0  0  0  0  0  0  0
    9.2812   -2.2547   -0.1200 C   0  0  0  0  0  0  0  0  0  0  0  0
    9.5854   -3.3389   -0.5882 O   0  0  0  0  0  0  0  0  0  0  0  0
   10.2326   -1.2671    0.1269 N   0  0  0  0  0  0  0  0  0  0  0  0
    9.7358   -0.0177    0.6421 C   0  0  0  0  0  0  0  0  0  0  0  0
    2.8795    1.5976   -2.1194 H   0  0  0  0  0  0  0  0  0  0  0  0
    4.5118    1.6716   -1.4542 H   0  0  0  0  0  0  0  0  0  0  0  0
    3.2073    2.6712   -0.7675 H   0  0  0  0  0  0  0  0  0  0  0  0
    1.9936    0.6151   -0.0895 H   0  0  0  0  0  0  0  0  0  0  0  0
    4.4240   -0.8795   -1.1589 H   0  0  0  0  0  0  0  0  0  0  0  0
    2.7733   -0.9016   -1.7869 H   0  0  0  0  0  0  0  0  0  0  0  0
    3.1115   -1.6113   -0.2057 H   0  0  0  0  0  0  0  0  0  0  0  0
    3.3572   -0.1590    1.8226 H   0  0  0  0  0  0  0  0  0  0  0  0
    3.2661    1.5831    1.6804 H   0  0  0  0  0  0  0  0  0  0  0  0
    4.3616    3.5976    1.0170 H   0  0  0  0  0  0  0  0  0  0  0  0
    6.0396    5.3411    0.5926 H   0  0  0  0  0  0  0  0  0  0  0  0
    8.0353    9.4791    2.4400 H   0  0  0  0  0  0  0  0  0  0  0  0
    9.8071    9.6231    0.5042 H   0  0  0  0  0  0  0  0  0  0  0  0
    9.2151    2.5122    1.1994 H   0  0  0  0  0  0  0  0  0  0  0  0
    5.0249   -2.9838    2.9971 H   0  0  0  0  0  0  0  0  0  0  0  0
    6.2717   -1.9075    3.6775 H   0  0  0  0  0  0  0  0  0  0  0  0
    6.9732   -4.4082    3.6924 H   0  0  0  0  0  0  0  0  0  0  0  0
    8.0931   -3.3565    2.8229 H   0  0  0  0  0  0  0  0  0  0  0  0
    5.5894   -7.7990    0.2148 H   0  0  0  0  0  0  0  0  0  0  0  0
    5.6882   -7.1075   -1.4339 H   0  0  0  0  0  0  0  0  0  0  0  0
    4.2654   -6.7562   -0.3953 H   0  0  0  0  0  0  0  0  0  0  0  0
    5.4757   -4.3240   -1.4056 H   0  0  0  0  0  0  0  0  0  0  0  0
   11.2034   -1.4513   -0.0715 H   0  0  0  0  0  0  0  0  0  0  0  0
    9.8770    0.7552   -0.1127 H   0  0  0  0  0  0  0  0  0  0  0  0
   10.2257    0.2218    1.5893 H   0  0  0  0  0  0  0  0  0  0  0  0
  1  2  1  0  0  0  0
  1 38  1  0  0  0  0
  1 39  1  0  0  0  0
  1 40  1  0  0  0  0
  2  3  1  0  0  0  0
  2  4  1  0  0  0  0
  2 41  1  0  0  0  0
  3 42  1  0  0  0  0
  3 43  1  0  0  0  0
  3 44  1  0  0  0  0
  4  5  1  0  0  0  0
  4 45  1  0  0  0  0
  4 46  1  0  0  0  0
  5  6  1  0  0  0  0
  5 25  1  0  0  0  0
  6  7  1  0  0  0  0
  6 19  2  0  0  0  0
  7  8  2  0  0  0  0
  7 47  1  0  0  0  0
  8  9  1  0  0  0  0
  8 48  1  0  0  0  0
  9 10  1  0  0  0  0
  9 18  2  0  0  0  0
 10 11  2  0  0  0  0
 10 12  1  0  0  0  0
 12 13  1  0  0  0  0
 12 16  2  0  0  0  0
 13 14  1  0  0  0  0
 14 15  2  0  0  0  0
 14 49  1  0  0  0  0
 15 16  1  0  0  0  0
 15 50  1  0  0  0  0
 16 17  1  0  0  0  0
 18 19  1  0  0  0  0
 18 51  1  0  0  0  0
 19 20  1  0  0  0  0
 20 21  1  0  0  0  0
 20 25  2  0  0  0  0
 21 22  2  0  0  0  0
 21 37  1  0  0  0  0
 22 23  1  0  0  0  0
 22 34  1  0  0  0  0
 23 24  2  0  0  0  0
 23 33  1  0  0  0  0
 24 25  1  0  0  0  0
 24 26  1  0  0  0  0
 26 27  1  0  0  0  0
 26 52  1  0  0  0  0
 26 53  1  0  0  0  0
 27 28  1  0  0  0  0
 27 54  1  0  0  0  0
 27 55  1  0  0  0  0
 28 29  2  0  0  0  0
 28 33  1  0  0  0  0
 29 30  1  0  0  0  0
 30 31  1  0  0  0  0
 30 32  1  0  0  0  0
 31 56  1  0  0  0  0
 31 57  1  0  0  0  0
 31 58  1  0  0  0  0
 32 33  2  0  0  0  0
 32 59  1  0  0  0  0
 34 35  2  0  0  0  0
 34 36  1  0  0  0  0
 36 37  1  0  0  0  0
 36 60  1  0  0  0  0
 37 61  1  0  0  0  0
 37 62  1  0  0  0  0
M  END
$$$$
