CHEMBL2407897
 OpenBabel04072215363D

 56 60  0  0  0  0  0  0  0  0999 V2000
    2.1486   -0.9661    3.4699 C   0  0  0  0  0  0  0  0  0  0  0  0
    2.7713    0.1330    4.2140 N   0  0  0  0  0  0  0  0  0  0  0  0
    1.7970    0.7141    5.1391 C   0  0  0  0  0  0  0  0  0  0  0  0
    3.9612   -0.3197    4.9562 C   0  0  0  0  0  0  0  0  0  0  0  0
    5.0831   -0.7987    4.0581 C   0  0  0  0  0  0  0  0  0  0  0  0
    5.6513    0.0495    3.0893 C   0  0  0  0  0  0  0  0  0  0  0  0
    6.6560   -0.4007    2.2370 C   0  0  0  0  0  0  0  0  0  0  0  0
    7.1070   -1.7230    2.3453 C   0  0  0  0  0  0  0  0  0  0  0  0
    8.1583   -2.2983    1.5078 C   0  0  0  0  0  0  0  0  0  0  0  0
    9.4333   -2.2315    1.9290 C   0  0  0  0  0  0  0  0  0  0  0  0
   10.3754   -3.2970    1.7090 C   0  0  0  0  0  0  0  0  0  0  0  0
   10.0501   -4.4572    1.1097 N   0  0  0  0  0  0  0  0  0  0  0  0
   10.9229   -5.3335    1.6273 N   0  0  0  0  0  0  0  0  0  0  0  0
   11.7695   -4.7805    2.5487 C   0  0  0  0  0  0  0  0  0  0  0  0
   12.6384   -5.3498    3.4758 C   0  0  0  0  0  0  0  0  0  0  0  0
   13.4080   -4.4871    4.2890 C   0  0  0  0  0  0  0  0  0  0  0  0
   14.2926   -5.1441    5.2536 C   0  0  0  0  0  0  0  0  0  0  0  0
   15.0680   -4.7848    6.2897 C   0  0  0  0  0  0  0  0  0  0  0  0
   15.9676   -5.9267    6.7325 C   0  0  0  0  0  0  0  0  0  0  0  0
   15.9837   -7.0719    6.3266 O   0  0  0  0  0  0  0  0  0  0  0  0
   16.8248   -5.3843    7.6493 N   0  0  0  0  0  0  0  0  0  0  0  0
   16.4362   -4.1024    7.9934 C   0  0  0  0  0  0  0  0  0  0  0  0
   16.9164   -3.4187    9.0923 C   0  0  0  0  0  0  0  0  0  0  0  0
   16.3528   -2.1792    9.3539 C   0  0  0  0  0  0  0  0  0  0  0  0
   15.3958   -1.6349    8.4794 C   0  0  0  0  0  0  0  0  0  0  0  0
   14.9288   -2.3592    7.3640 C   0  0  0  0  0  0  0  0  0  0  0  0
   15.4197   -3.6334    7.1446 C   0  0  0  0  0  0  0  0  0  0  0  0
   13.3851   -3.1161    4.0480 C   0  0  0  0  0  0  0  0  0  0  0  0
   12.4548   -2.5597    3.1545 C   0  0  0  0  0  0  0  0  0  0  0  0
   11.5902   -3.4132    2.4456 C   0  0  0  0  0  0  0  0  0  0  0  0
    6.5542   -2.5631    3.3219 C   0  0  0  0  0  0  0  0  0  0  0  0
    5.5596   -2.1075    4.1764 C   0  0  0  0  0  0  0  0  0  0  0  0
    1.2838   -0.5997    2.9054 H   0  0  0  0  0  0  0  0  0  0  0  0
    1.8118   -1.7737    4.1300 H   0  0  0  0  0  0  0  0  0  0  0  0
    2.8329   -1.3910    2.7280 H   0  0  0  0  0  0  0  0  0  0  0  0
    0.9392    1.1162    4.5887 H   0  0  0  0  0  0  0  0  0  0  0  0
    2.2364    1.5528    5.6902 H   0  0  0  0  0  0  0  0  0  0  0  0
    1.4272   -0.0193    5.8653 H   0  0  0  0  0  0  0  0  0  0  0  0
    3.6874   -1.1076    5.6717 H   0  0  0  0  0  0  0  0  0  0  0  0
    4.3681    0.5083    5.5518 H   0  0  0  0  0  0  0  0  0  0  0  0
    5.2838    1.0688    2.9892 H   0  0  0  0  0  0  0  0  0  0  0  0
    7.0828    0.2634    1.4898 H   0  0  0  0  0  0  0  0  0  0  0  0
    7.8356   -3.0636    0.8029 H   0  0  0  0  0  0  0  0  0  0  0  0
    9.6926   -1.5285    2.7169 H   0  0  0  0  0  0  0  0  0  0  0  0
   10.8471   -6.3079    1.3617 H   0  0  0  0  0  0  0  0  0  0  0  0
   12.6854   -6.4302    3.5841 H   0  0  0  0  0  0  0  0  0  0  0  0
   14.3031   -6.2183    5.0422 H   0  0  0  0  0  0  0  0  0  0  0  0
   17.5979   -5.9013    8.0302 H   0  0  0  0  0  0  0  0  0  0  0  0
   17.6407   -3.8648    9.7639 H   0  0  0  0  0  0  0  0  0  0  0  0
   16.6336   -1.6419   10.2590 H   0  0  0  0  0  0  0  0  0  0  0  0
   14.9902   -0.6491    8.6946 H   0  0  0  0  0  0  0  0  0  0  0  0
   14.1517   -1.9239    6.7403 H   0  0  0  0  0  0  0  0  0  0  0  0
   14.0817   -2.4540    4.5498 H   0  0  0  0  0  0  0  0  0  0  0  0
   12.4049   -1.4838    3.0167 H   0  0  0  0  0  0  0  0  0  0  0  0
    6.9142   -3.5877    3.4180 H   0  0  0  0  0  0  0  0  0  0  0  0
    5.1534   -2.7857    4.9230 H   0  0  0  0  0  0  0  0  0  0  0  0
  1  2  1  0  0  0  0
  1 33  1  0  0  0  0
  1 34  1  0  0  0  0
  1 35  1  0  0  0  0
  2  3  1  0  0  0  0
  2  4  1  0  0  0  0
  3 36  1  0  0  0  0
  3 37  1  0  0  0  0
  3 38  1  0  0  0  0
  4  5  1  0  0  0  0
  4 39  1  0  0  0  0
  4 40  1  0  0  0  0
  5  6  1  0  0  0  0
  5 32  2  0  0  0  0
  6  7  2  0  0  0  0
  6 41  1  0  0  0  0
  7  8  1  0  0  0  0
  7 42  1  0  0  0  0
  8  9  1  0  0  0  0
  8 31  2  0  0  0  0
  9 10  2  0  0  0  0
  9 43  1  0  0  0  0
 10 11  1  0  0  0  0
 10 44  1  0  0  0  0
 11 12  2  0  0  0  0
 11 30  1  0  0  0  0
 12 13  1  0  0  0  0
 13 14  1  0  0  0  0
 13 45  1  0  0  0  0
 14 15  1  0  0  0  0
 14 30  2  0  0  0  0
 15 16  2  0  0  0  0
 15 46  1  0  0  0  0
 16 17  1  0  0  0  0
 16 28  1  0  0  0  0
 17 18  2  0  0  0  0
 17 47  1  0  0  0  0
 18 19  1  0  0  0  0
 18 27  1  0  0  0  0
 19 20  2  0  0  0  0
 19 21  1  0  0  0  0
 21 22  1  0  0  0  0
 21 48  1  0  0  0  0
 22 23  1  0  0  0  0
 22 27  2  0  0  0  0
 23 24  2  0  0  0  0
 23 49  1  0  0  0  0
 24 25  1  0  0  0  0
 24 50  1  0  0  0  0
 25 26  2  0  0  0  0
 25 51  1  0  0  0  0
 26 27  1  0  0  0  0
 26 52  1  0  0  0  0
 28 29  2  0  0  0  0
 28 53  1  0  0  0  0
 29 30  1  0  0  0  0
 29 54  1  0  0  0  0
 31 32  1  0  0  0  0
 31 55  1  0  0  0  0
 32 56  1  0  0  0  0
M  END
$$$$
