CHEMBL4448243
 OpenBabel04072215383D

 37 40  0  0  0  0  0  0  0  0999 V2000
    6.9698   -3.3252   -0.5879 C   0  0  0  0  0  0  0  0  0  0  0  0
    7.3814   -2.1179    0.0394 O   0  0  0  0  0  0  0  0  0  0  0  0
    6.4303   -1.1475    0.1994 C   0  0  0  0  0  0  0  0  0  0  0  0
    5.0978   -1.2363   -0.2019 C   0  0  0  0  0  0  0  0  0  0  0  0
    4.2277   -0.1698    0.0296 C   0  0  0  0  0  0  0  0  0  0  0  0
    4.6883    0.9926    0.6527 C   0  0  0  0  0  0  0  0  0  0  0  0
    6.0174    1.0953    1.0793 C   0  0  0  0  0  0  0  0  0  0  0  0
    6.4529    2.2775    1.7018 N   0  0  0  0  0  0  0  0  0  0  0  0
    7.3957    2.4063    2.7229 C   0  0  0  0  0  0  0  0  0  0  0  0
    7.5976    1.3819    3.5564 N   0  0  0  0  0  0  0  0  0  0  0  0
    8.4068    1.5925    4.6004 C   0  0  0  0  0  0  0  0  0  0  0  0
    9.0423    2.7891    4.8646 C   0  0  0  0  0  0  0  0  0  0  0  0
    8.8144    3.7884    3.9442 C   0  0  0  0  0  0  0  0  0  0  0  0
    7.9930    3.6001    2.8739 N   0  0  0  0  0  0  0  0  0  0  0  0
    9.4157    5.1324    4.0707 C   0  0  0  0  0  0  0  0  0  0  0  0
    9.1919    6.1308    3.0999 C   0  0  0  0  0  0  0  0  0  0  0  0
    9.7393    7.4056    3.2313 C   0  0  0  0  0  0  0  0  0  0  0  0
   10.5145    7.6609    4.3368 C   0  0  0  0  0  0  0  0  0  0  0  0
   10.7651    6.7448    5.2881 N   0  0  0  0  0  0  0  0  0  0  0  0
   10.2159    5.5037    5.1502 C   0  0  0  0  0  0  0  0  0  0  0  0
   10.6281    4.4574    6.5190 S   0  0  0  0  0  0  0  0  0  0  0  0
    9.8729    2.8890    6.0920 C   0  0  0  0  0  0  0  0  0  0  0  0
    6.8780    0.0172    0.8335 C   0  0  0  0  0  0  0  0  0  0  0  0
    7.7932   -4.0425   -0.5096 H   0  0  0  0  0  0  0  0  0  0  0  0
    6.7669   -3.1570   -1.6509 H   0  0  0  0  0  0  0  0  0  0  0  0
    6.1042   -3.7698   -0.0858 H   0  0  0  0  0  0  0  0  0  0  0  0
    4.7039   -2.1207   -0.6902 H   0  0  0  0  0  0  0  0  0  0  0  0
    3.1851   -0.2509   -0.2682 H   0  0  0  0  0  0  0  0  0  0  0  0
    3.9901    1.8042    0.8414 H   0  0  0  0  0  0  0  0  0  0  0  0
    6.4593    3.0967    1.1124 H   0  0  0  0  0  0  0  0  0  0  0  0
    8.5149    0.7336    5.2595 H   0  0  0  0  0  0  0  0  0  0  0  0
    8.5749    5.9186    2.2285 H   0  0  0  0  0  0  0  0  0  0  0  0
    9.5552    8.1740    2.4885 H   0  0  0  0  0  0  0  0  0  0  0  0
   10.9708    8.6359    4.4991 H   0  0  0  0  0  0  0  0  0  0  0  0
    9.2478    2.6125    6.9493 H   0  0  0  0  0  0  0  0  0  0  0  0
   10.6806    2.1504    6.0334 H   0  0  0  0  0  0  0  0  0  0  0  0
    7.9211    0.0766    1.1363 H   0  0  0  0  0  0  0  0  0  0  0  0
  1  2  1  0  0  0  0
  1 24  1  0  0  0  0
  1 25  1  0  0  0  0
  1 26  1  0  0  0  0
  2  3  1  0  0  0  0
  3  4  1  0  0  0  0
  3 23  2  0  0  0  0
  4  5  2  0  0  0  0
  4 27  1  0  0  0  0
  5  6  1  0  0  0  0
  5 28  1  0  0  0  0
  6  7  2  0  0  0  0
  6 29  1  0  0  0  0
  7  8  1  0  0  0  0
  7 23  1  0  0  0  0
  8  9  1  0  0  0  0
  8 30  1  0  0  0  0
  9 10  1  0  0  0  0
  9 14  2  0  0  0  0
 10 11  2  0  0  0  0
 11 12  1  0  0  0  0
 11 31  1  0  0  0  0
 12 13  2  0  0  0  0
 12 22  1  0  0  0  0
 13 14  1  0  0  0  0
 13 15  1  0  0  0  0
 15 16  1  0  0  0  0
 15 20  2  0  0  0  0
 16 17  2  0  0  0  0
 16 32  1  0  0  0  0
 17 18  1  0  0  0  0
 17 33  1  0  0  0  0
 18 19  2  0  0  0  0
 18 34  1  0  0  0  0
 19 20  1  0  0  0  0
 20 21  1  0  0  0  0
 21 22  1  0  0  0  0
 22 35  1  0  0  0  0
 22 36  1  0  0  0  0
 23 37  1  0  0  0  0
M  END
$$$$
