CHEMBL3891892
 OpenBabel04072215373D

 62 65  0  0  0  0  0  0  0  0999 V2000
    0.5327   -3.5125   -2.1937 C   0  0  0  0  0  0  0  0  0  0  0  0
    1.8333   -3.9888   -1.8421 O   0  0  0  0  0  0  0  0  0  0  0  0
    2.7889   -3.0457   -1.5447 C   0  0  0  0  0  0  0  0  0  0  0  0
    2.5927   -1.6718   -1.6498 C   0  0  0  0  0  0  0  0  0  0  0  0
    3.6056   -0.7937   -1.2645 C   0  0  0  0  0  0  0  0  0  0  0  0
    3.5190    0.5730   -1.2758 O   0  0  0  0  0  0  0  0  0  0  0  0
    2.3446    1.1458   -1.8427 C   0  0  0  0  0  0  0  0  0  0  0  0
    4.8199   -1.3015   -0.7827 C   0  0  0  0  0  0  0  0  0  0  0  0
    5.0604   -2.6772   -0.6610 C   0  0  0  0  0  0  0  0  0  0  0  0
    6.1968   -3.1972    0.0126 N   0  0  0  0  0  0  0  0  0  0  0  0
    6.7231   -2.3849    1.1770 C   0  0  0  0  0  0  0  0  0  0  0  0
    5.7529   -1.9392    2.2953 C   0  0  0  0  0  0  0  0  0  0  0  0
    5.2838   -2.9995    3.2991 C   0  0  0  0  0  0  0  0  0  0  0  0
    4.5452   -2.3795    4.4086 N   0  0  0  0  0  0  0  0  0  0  0  0
    5.1474   -1.9550    5.5961 C   0  0  0  0  0  0  0  0  0  0  0  0
    6.3488   -2.1326    5.8076 O   0  0  0  0  0  0  0  0  0  0  0  0
    4.2029   -1.2488    6.6111 C   0  0  0  0  0  0  0  0  0  0  0  0
    2.9273   -1.1410    6.1324 F   0  0  0  0  0  0  0  0  0  0  0  0
    4.1082   -1.9114    7.7971 F   0  0  0  0  0  0  0  0  0  0  0  0
    4.6034    0.0197    6.9056 F   0  0  0  0  0  0  0  0  0  0  0  0
    7.3158   -3.9378   -0.5406 C   0  0  0  0  0  0  0  0  0  0  0  0
    7.8606   -4.8719    0.3424 C   0  0  0  0  0  0  0  0  0  0  0  0
    9.1805   -5.2513    0.2257 C   0  0  0  0  0  0  0  0  0  0  0  0
    9.9603   -4.8754   -0.8339 C   0  0  0  0  0  0  0  0  0  0  0  0
   11.2536   -5.1989   -0.6853 N   0  0  0  0  0  0  0  0  0  0  0  0
   12.0379   -5.0122   -1.7479 C   0  0  0  0  0  0  0  0  0  0  0  0
   11.5490   -4.5989   -2.9707 C   0  0  0  0  0  0  0  0  0  0  0  0
   12.4540   -4.8093   -4.1043 C   0  0  0  0  0  0  0  0  0  0  0  0
   12.5408   -5.9147   -4.9962 C   0  0  0  0  0  0  0  0  0  0  0  0
   13.6598   -5.9118   -5.7340 N   0  0  0  0  0  0  0  0  0  0  0  0
   14.3093   -4.8149   -5.3111 N   0  0  0  0  0  0  0  0  0  0  0  0
   15.4551   -4.3152   -6.0369 C   0  0  0  0  0  0  0  0  0  0  0  0
   13.7088   -4.2268   -4.2290 C   0  0  0  0  0  0  0  0  0  0  0  0
   10.2430   -4.1536   -3.0951 N   0  0  0  0  0  0  0  0  0  0  0  0
    9.4001   -4.2232   -1.9684 C   0  0  0  0  0  0  0  0  0  0  0  0
    8.0462   -3.7029   -1.7471 C   0  0  0  0  0  0  0  0  0  0  0  0
    4.0251   -3.5413   -1.0787 C   0  0  0  0  0  0  0  0  0  0  0  0
   -0.1228   -4.3766   -2.3471 H   0  0  0  0  0  0  0  0  0  0  0  0
    0.5579   -2.9490   -3.1332 H   0  0  0  0  0  0  0  0  0  0  0  0
    0.0937   -2.9099   -1.3894 H   0  0  0  0  0  0  0  0  0  0  0  0
    1.6471   -1.2785   -1.9950 H   0  0  0  0  0  0  0  0  0  0  0  0
    2.4719    2.2325   -1.8495 H   0  0  0  0  0  0  0  0  0  0  0  0
    1.4611    0.9185   -1.2354 H   0  0  0  0  0  0  0  0  0  0  0  0
    2.2051    0.8209   -2.8789 H   0  0  0  0  0  0  0  0  0  0  0  0
    5.5703   -0.5828   -0.4686 H   0  0  0  0  0  0  0  0  0  0  0  0
    7.2109   -1.4903    0.7679 H   0  0  0  0  0  0  0  0  0  0  0  0
    7.5245   -2.9194    1.7046 H   0  0  0  0  0  0  0  0  0  0  0  0
    4.8845   -1.4073    1.9002 H   0  0  0  0  0  0  0  0  0  0  0  0
    6.3098   -1.1930    2.8813 H   0  0  0  0  0  0  0  0  0  0  0  0
    6.1317   -3.5522    3.7184 H   0  0  0  0  0  0  0  0  0  0  0  0
    4.6025   -3.7138    2.8279 H   0  0  0  0  0  0  0  0  0  0  0  0
    3.5648   -2.1489    4.2698 H   0  0  0  0  0  0  0  0  0  0  0  0
    7.3027   -5.1802    1.2220 H   0  0  0  0  0  0  0  0  0  0  0  0
    9.6330   -5.8374    1.0302 H   0  0  0  0  0  0  0  0  0  0  0  0
   13.0793   -5.2741   -1.5950 H   0  0  0  0  0  0  0  0  0  0  0  0
   11.8611   -6.7499   -5.1103 H   0  0  0  0  0  0  0  0  0  0  0  0
   15.6541   -4.9485   -6.9064 H   0  0  0  0  0  0  0  0  0  0  0  0
   16.3271   -4.2939   -5.3787 H   0  0  0  0  0  0  0  0  0  0  0  0
   15.2089   -3.3044   -6.3743 H   0  0  0  0  0  0  0  0  0  0  0  0
   14.2139   -3.4520   -3.6696 H   0  0  0  0  0  0  0  0  0  0  0  0
    7.6196   -3.0665   -2.5240 H   0  0  0  0  0  0  0  0  0  0  0  0
    4.1457   -4.6166   -0.9717 H   0  0  0  0  0  0  0  0  0  0  0  0
  1  2  1  0  0  0  0
  1 38  1  0  0  0  0
  1 39  1  0  0  0  0
  1 40  1  0  0  0  0
  2  3  1  0  0  0  0
  3  4  1  0  0  0  0
  3 37  2  0  0  0  0
  4  5  2  0  0  0  0
  4 41  1  0  0  0  0
  5  6  1  0  0  0  0
  5  8  1  0  0  0  0
  6  7  1  0  0  0  0
  7 42  1  0  0  0  0
  7 43  1  0  0  0  0
  7 44  1  0  0  0  0
  8  9  2  0  0  0  0
  8 45  1  0  0  0  0
  9 10  1  0  0  0  0
  9 37  1  0  0  0  0
 10 11  1  0  0  0  0
 10 21  1  0  0  0  0
 11 12  1  0  0  0  0
 11 46  1  0  0  0  0
 11 47  1  0  0  0  0
 12 13  1  0  0  0  0
 12 48  1  0  0  0  0
 12 49  1  0  0  0  0
 13 14  1  0  0  0  0
 13 50  1  0  0  0  0
 13 51  1  0  0  0  0
 14 15  1  0  0  0  0
 14 52  1  0  0  0  0
 15 16  2  0  0  0  0
 15 17  1  0  0  0  0
 17 18  1  0  0  0  0
 17 19  1  0  0  0  0
 17 20  1  0  0  0  0
 21 22  1  0  0  0  0
 21 36  2  0  0  0  0
 22 23  2  0  0  0  0
 22 53  1  0  0  0  0
 23 24  1  0  0  0  0
 23 54  1  0  0  0  0
 24 25  1  0  0  0  0
 24 35  2  0  0  0  0
 25 26  2  0  0  0  0
 26 27  1  0  0  0  0
 26 55  1  0  0  0  0
 27 28  1  0  0  0  0
 27 34  2  0  0  0  0
 28 29  1  0  0  0  0
 28 33  2  0  0  0  0
 29 30  2  0  0  0  0
 29 56  1  0  0  0  0
 30 31  1  0  0  0  0
 31 32  1  0  0  0  0
 31 33  1  0  0  0  0
 32 57  1  0  0  0  0
 32 58  1  0  0  0  0
 32 59  1  0  0  0  0
 33 60  1  0  0  0  0
 34 35  1  0  0  0  0
 35 36  1  0  0  0  0
 36 61  1  0  0  0  0
 37 62  1  0  0  0  0
M  END
$$$$
