CHEMBL510788
 OpenBabel04072215383D

 45 48  0  0  0  0  0  0  0  0999 V2000
    5.0572   -1.9208   -1.1285 N   0  0  0  0  0  0  0  0  0  0  0  0
    4.1670   -0.9616   -0.6438 C   0  0  0  0  0  0  0  0  0  0  0  0
    2.9141   -1.2158   -0.2041 C   0  0  0  0  0  0  0  0  0  0  0  0
    2.3182   -2.5557   -0.1511 C   0  0  0  0  0  0  0  0  0  0  0  0
    2.5064   -3.3425    0.9858 C   0  0  0  0  0  0  0  0  0  0  0  0
    1.9168   -4.6068    1.0709 C   0  0  0  0  0  0  0  0  0  0  0  0
    1.1203   -5.1031    0.0332 C   0  0  0  0  0  0  0  0  0  0  0  0
    0.4651   -6.3572    0.1206 N   0  0  0  0  0  0  0  0  0  0  0  0
    0.1116   -6.9545    1.3182 C   0  0  0  0  0  0  0  0  0  0  0  0
    0.2093   -6.4165    2.4190 O   0  0  0  0  0  0  0  0  0  0  0  0
   -0.3584   -8.2478    1.1413 N   0  0  0  0  0  0  0  0  0  0  0  0
   -0.8364   -9.0004    2.2423 C   0  0  0  0  0  0  0  0  0  0  0  0
   -1.6804   -8.4279    3.2011 C   0  0  0  0  0  0  0  0  0  0  0  0
   -2.1161   -9.1712    4.2981 C   0  0  0  0  0  0  0  0  0  0  0  0
   -1.6860  -10.4853    4.4611 C   0  0  0  0  0  0  0  0  0  0  0  0
   -0.8275  -11.0721    3.5190 C   0  0  0  0  0  0  0  0  0  0  0  0
   -0.2748  -12.4579    3.7380 C   0  0  0  0  0  0  0  0  0  0  0  0
   -0.7518  -13.0681    4.8586 F   0  0  0  0  0  0  0  0  0  0  0  0
   -0.5538  -13.3000    2.7053 F   0  0  0  0  0  0  0  0  0  0  0  0
    1.0820  -12.4594    3.8635 F   0  0  0  0  0  0  0  0  0  0  0  0
   -0.4381  -10.3299    2.3863 C   0  0  0  0  0  0  0  0  0  0  0  0
    0.9765   -4.3369   -1.1277 C   0  0  0  0  0  0  0  0  0  0  0  0
    1.5623   -3.0635   -1.2143 C   0  0  0  0  0  0  0  0  0  0  0  0
    2.1550   -0.0319    0.3158 C   0  0  0  0  0  0  0  0  0  0  0  0
    2.5630    1.2007    0.3584 N   0  0  0  0  0  0  0  0  0  0  0  0
    3.8217    1.4197   -0.1219 C   0  0  0  0  0  0  0  0  0  0  0  0
    4.5683    2.5694   -0.2333 C   0  0  0  0  0  0  0  0  0  0  0  0
    5.7776    2.1670   -0.8171 C   0  0  0  0  0  0  0  0  0  0  0  0
    5.8226    0.8575   -1.0720 N   0  0  0  0  0  0  0  0  0  0  0  0
    4.6222    0.3845   -0.6168 N   0  0  0  0  0  0  0  0  0  0  0  0
    4.6184   -2.7382   -1.5402 H   0  0  0  0  0  0  0  0  0  0  0  0
    5.7916   -1.4980   -1.7014 H   0  0  0  0  0  0  0  0  0  0  0  0
    3.1091   -2.9864    1.8171 H   0  0  0  0  0  0  0  0  0  0  0  0
    2.1024   -5.1884    1.9695 H   0  0  0  0  0  0  0  0  0  0  0  0
   -0.0564   -6.6648   -0.6879 H   0  0  0  0  0  0  0  0  0  0  0  0
    0.1056   -8.7602    0.4049 H   0  0  0  0  0  0  0  0  0  0  0  0
   -2.0057   -7.3943    3.1078 H   0  0  0  0  0  0  0  0  0  0  0  0
   -2.7707   -8.7129    5.0357 H   0  0  0  0  0  0  0  0  0  0  0  0
   -2.0091  -11.0441    5.3387 H   0  0  0  0  0  0  0  0  0  0  0  0
    0.2401  -10.7818    1.6646 H   0  0  0  0  0  0  0  0  0  0  0  0
    0.3817   -4.6965   -1.9628 H   0  0  0  0  0  0  0  0  0  0  0  0
    1.4107   -2.4691   -2.1134 H   0  0  0  0  0  0  0  0  0  0  0  0
    1.1458   -0.2550    0.7034 H   0  0  0  0  0  0  0  0  0  0  0  0
    4.2661    3.5612    0.0686 H   0  0  0  0  0  0  0  0  0  0  0  0
    6.6331    2.7784   -1.0749 H   0  0  0  0  0  0  0  0  0  0  0  0
  1  2  1  0  0  0  0
  1 31  1  0  0  0  0
  1 32  1  0  0  0  0
  2  3  2  0  0  0  0
  2 30  1  0  0  0  0
  3  4  1  0  0  0  0
  3 24  1  0  0  0  0
  4  5  1  0  0  0  0
  4 23  2  0  0  0  0
  5  6  2  0  0  0  0
  5 33  1  0  0  0  0
  6  7  1  0  0  0  0
  6 34  1  0  0  0  0
  7  8  1  0  0  0  0
  7 22  2  0  0  0  0
  8  9  1  0  0  0  0
  8 35  1  0  0  0  0
  9 10  2  0  0  0  0
  9 11  1  0  0  0  0
 11 12  1  0  0  0  0
 11 36  1  0  0  0  0
 12 13  1  0  0  0  0
 12 21  2  0  0  0  0
 13 14  2  0  0  0  0
 13 37  1  0  0  0  0
 14 15  1  0  0  0  0
 14 38  1  0  0  0  0
 15 16  2  0  0  0  0
 15 39  1  0  0  0  0
 16 17  1  0  0  0  0
 16 21  1  0  0  0  0
 17 18  1  0  0  0  0
 17 19  1  0  0  0  0
 17 20  1  0  0  0  0
 21 40  1  0  0  0  0
 22 23  1  0  0  0  0
 22 41  1  0  0  0  0
 23 42  1  0  0  0  0
 24 25  2  0  0  0  0
 24 43  1  0  0  0  0
 25 26  1  0  0  0  0
 26 27  2  0  0  0  0
 26 30  1  0  0  0  0
 27 28  1  0  0  0  0
 27 44  1  0  0  0  0
 28 29  2  0  0  0  0
 28 45  1  0  0  0  0
 29 30  1  0  0  0  0
M  END
$$$$
