CHEMBL67268
 OpenBabel04072215383D

 51 55  0  0  0  0  0  0  0  0999 V2000
    1.1898    0.3021    0.1521 N   0  0  0  0  0  0  0  0  0  0  0  0
    2.5645    0.1156    0.1070 C   0  0  0  0  0  0  0  0  0  0  0  0
    3.2991    1.2420    0.0941 N   0  0  0  0  0  0  0  0  0  0  0  0
    4.6357    1.1298    0.0741 C   0  0  0  0  0  0  0  0  0  0  0  0
    5.3764    0.0136    0.0760 N   0  0  0  0  0  0  0  0  0  0  0  0
    4.6093   -1.0920    0.0761 C   0  0  0  0  0  0  0  0  0  0  0  0
    3.2210   -1.1365    0.0834 C   0  0  0  0  0  0  0  0  0  0  0  0
    2.8499   -2.5268    0.0490 C   0  0  0  0  0  0  0  0  0  0  0  0
    1.5494   -3.1783   -0.0286 C   0  0  0  0  0  0  0  0  0  0  0  0
    0.4942   -2.5399   -0.6813 C   0  0  0  0  0  0  0  0  0  0  0  0
   -0.7788   -3.0958   -0.6994 C   0  0  0  0  0  0  0  0  0  0  0  0
   -0.9739   -4.3986   -0.2439 C   0  0  0  0  0  0  0  0  0  0  0  0
   -2.1518   -5.0947   -0.4083 O   0  0  0  0  0  0  0  0  0  0  0  0
   -2.9392   -4.8128   -1.5089 C   0  0  0  0  0  0  0  0  0  0  0  0
   -2.4139   -4.4439   -2.7559 C   0  0  0  0  0  0  0  0  0  0  0  0
   -3.2597   -4.0398   -3.7870 C   0  0  0  0  0  0  0  0  0  0  0  0
   -4.6380   -4.0922   -3.6093 C   0  0  0  0  0  0  0  0  0  0  0  0
   -5.1749   -4.5585   -2.4063 C   0  0  0  0  0  0  0  0  0  0  0  0
   -4.3231   -4.9165   -1.3596 C   0  0  0  0  0  0  0  0  0  0  0  0
   -4.8410   -5.3616   -0.1751 O   0  0  0  0  0  0  0  0  0  0  0  0
    0.0678   -5.0632    0.3995 C   0  0  0  0  0  0  0  0  0  0  0  0
    1.3183   -4.4471    0.5267 C   0  0  0  0  0  0  0  0  0  0  0  0
    4.0305   -3.2540    0.0471 C   0  0  0  0  0  0  0  0  0  0  0  0
    5.0879   -2.3812    0.0670 N   0  0  0  0  0  0  0  0  0  0  0  0
    6.4876   -2.7649    0.0665 C   0  0  0  0  0  0  0  0  0  0  0  0
    6.8954   -3.6463   -1.1173 C   0  0  0  0  0  0  0  0  0  0  0  0
    8.1554   -4.3758   -0.6570 C   0  0  0  0  0  0  0  0  0  0  0  0
    8.2180   -4.2301    0.8621 C   0  0  0  0  0  0  0  0  0  0  0  0
    6.8966   -3.5999    1.2806 C   0  0  0  0  0  0  0  0  0  0  0  0
    0.9648    1.2671    0.3634 H   0  0  0  0  0  0  0  0  0  0  0  0
    0.6922   -0.3942    0.6939 H   0  0  0  0  0  0  0  0  0  0  0  0
    5.1871    2.0679    0.0583 H   0  0  0  0  0  0  0  0  0  0  0  0
    0.6428   -1.6029   -1.2091 H   0  0  0  0  0  0  0  0  0  0  0  0
   -1.5880   -2.5212   -1.1415 H   0  0  0  0  0  0  0  0  0  0  0  0
   -1.3400   -4.4177   -2.9236 H   0  0  0  0  0  0  0  0  0  0  0  0
   -2.8370   -3.6765   -4.7199 H   0  0  0  0  0  0  0  0  0  0  0  0
   -5.2981   -3.7728   -4.4124 H   0  0  0  0  0  0  0  0  0  0  0  0
   -6.2525   -4.6186   -2.2975 H   0  0  0  0  0  0  0  0  0  0  0  0
   -5.7997   -5.4723   -0.2740 H   0  0  0  0  0  0  0  0  0  0  0  0
   -0.0865   -6.0654    0.7903 H   0  0  0  0  0  0  0  0  0  0  0  0
    2.1092   -4.9823    1.0450 H   0  0  0  0  0  0  0  0  0  0  0  0
    4.1998   -4.3231    0.0110 H   0  0  0  0  0  0  0  0  0  0  0  0
    7.0945   -1.8511    0.0468 H   0  0  0  0  0  0  0  0  0  0  0  0
    7.0727   -3.0565   -2.0224 H   0  0  0  0  0  0  0  0  0  0  0  0
    6.1244   -4.3851   -1.3643 H   0  0  0  0  0  0  0  0  0  0  0  0
    9.0491   -3.9400   -1.1166 H   0  0  0  0  0  0  0  0  0  0  0  0
    8.1194   -5.4301   -0.9540 H   0  0  0  0  0  0  0  0  0  0  0  0
    9.0525   -3.5744    1.1357 H   0  0  0  0  0  0  0  0  0  0  0  0
    8.3808   -5.1924    1.3580 H   0  0  0  0  0  0  0  0  0  0  0  0
    7.0004   -2.9916    2.1851 H   0  0  0  0  0  0  0  0  0  0  0  0
    6.1664   -4.3886    1.4975 H   0  0  0  0  0  0  0  0  0  0  0  0
  1  2  1  0  0  0  0
  1 30  1  0  0  0  0
  1 31  1  0  0  0  0
  2  3  1  0  0  0  0
  2  7  2  0  0  0  0
  3  4  2  0  0  0  0
  4  5  1  0  0  0  0
  4 32  1  0  0  0  0
  5  6  2  0  0  0  0
  6  7  1  0  0  0  0
  6 24  1  0  0  0  0
  7  8  1  0  0  0  0
  8  9  1  0  0  0  0
  8 23  2  0  0  0  0
  9 10  1  0  0  0  0
  9 22  2  0  0  0  0
 10 11  2  0  0  0  0
 10 33  1  0  0  0  0
 11 12  1  0  0  0  0
 11 34  1  0  0  0  0
 12 13  1  0  0  0  0
 12 21  2  0  0  0  0
 13 14  1  0  0  0  0
 14 15  1  0  0  0  0
 14 19  2  0  0  0  0
 15 16  2  0  0  0  0
 15 35  1  0  0  0  0
 16 17  1  0  0  0  0
 16 36  1  0  0  0  0
 17 18  2  0  0  0  0
 17 37  1  0  0  0  0
 18 19  1  0  0  0  0
 18 38  1  0  0  0  0
 19 20  1  0  0  0  0
 20 39  1  0  0  0  0
 21 22  1  0  0  0  0
 21 40  1  0  0  0  0
 22 41  1  0  0  0  0
 23 24  1  0  0  0  0
 23 42  1  0  0  0  0
 24 25  1  0  0  0  0
 25 26  1  0  0  0  0
 25 29  1  0  0  0  0
 25 43  1  0  0  0  0
 26 27  1  0  0  0  0
 26 44  1  0  0  0  0
 26 45  1  0  0  0  0
 27 28  1  0  0  0  0
 27 46  1  0  0  0  0
 27 47  1  0  0  0  0
 28 29  1  0  0  0  0
 28 48  1  0  0  0  0
 28 49  1  0  0  0  0
 29 50  1  0  0  0  0
 29 51  1  0  0  0  0
M  END
$$$$
