CHEMBL3752248
 OpenBabel04072215373D

 36 38  0  0  0  0  0  0  0  0999 V2000
    1.0607   -0.1402    0.0233 O   0  0  0  0  0  0  0  0  0  0  0  0
    2.2506    0.1213   -0.0746 C   0  0  0  0  0  0  0  0  0  0  0  0
    2.8615    1.3198    0.1887 N   0  0  0  0  0  0  0  0  0  0  0  0
    2.1356    2.4331    0.5179 C   0  0  0  0  0  0  0  0  0  0  0  0
    0.8945    2.5369    0.9082 N   0  0  0  0  0  0  0  0  0  0  0  0
    0.5641    3.8694    1.0484 C   0  0  0  0  0  0  0  0  0  0  0  0
    1.5782    4.7631    0.7739 C   0  0  0  0  0  0  0  0  0  0  0  0
    3.0025    3.9006    0.3544 S   0  0  0  0  0  0  0  0  0  0  0  0
    3.0686   -0.8477   -0.6215 N   0  0  0  0  0  0  0  0  0  0  0  0
    4.4668   -0.8722   -0.6937 C   0  0  0  0  0  0  0  0  0  0  0  0
    5.2057   -0.6933    0.4897 C   0  0  0  0  0  0  0  0  0  0  0  0
    6.5992   -0.8896    0.5379 C   0  0  0  0  0  0  0  0  0  0  0  0
    7.3409   -0.7917    1.8101 C   0  0  0  0  0  0  0  0  0  0  0  0
    6.8142   -1.1926    3.0315 C   0  0  0  0  0  0  0  0  0  0  0  0
    7.4469   -1.0926    4.2218 N   0  0  0  0  0  0  0  0  0  0  0  0
    8.6803   -0.5745    4.1802 C   0  0  0  0  0  0  0  0  0  0  0  0
    9.3212   -0.1720    3.0749 N   0  0  0  0  0  0  0  0  0  0  0  0
    8.6309   -0.2939    1.9180 C   0  0  0  0  0  0  0  0  0  0  0  0
    7.2399   -1.2205   -0.6663 C   0  0  0  0  0  0  0  0  0  0  0  0
    6.5120   -1.3708   -1.8541 C   0  0  0  0  0  0  0  0  0  0  0  0
    5.1262   -1.2008   -1.8813 C   0  0  0  0  0  0  0  0  0  0  0  0
    4.5628   -1.4140   -3.1028 O   0  0  0  0  0  0  0  0  0  0  0  0
    3.5140   -0.5640   -3.5526 C   0  0  0  0  0  0  0  0  0  0  0  0
    3.3253    0.5288   -2.7848 F   0  0  0  0  0  0  0  0  0  0  0  0
    3.8136   -0.1349   -4.7989 F   0  0  0  0  0  0  0  0  0  0  0  0
    2.3709   -1.2779   -3.6111 F   0  0  0  0  0  0  0  0  0  0  0  0
    3.7803    1.4896   -0.1750 H   0  0  0  0  0  0  0  0  0  0  0  0
   -0.4409    4.1331    1.3507 H   0  0  0  0  0  0  0  0  0  0  0  0
    1.5483    5.8422    0.8024 H   0  0  0  0  0  0  0  0  0  0  0  0
    2.5345   -1.5378   -1.1390 H   0  0  0  0  0  0  0  0  0  0  0  0
    4.6658   -0.4711    1.4109 H   0  0  0  0  0  0  0  0  0  0  0  0
    5.8240   -1.6367    3.1040 H   0  0  0  0  0  0  0  0  0  0  0  0
    9.2039   -0.4700    5.1243 H   0  0  0  0  0  0  0  0  0  0  0  0
    9.1790    0.0531    1.0461 H   0  0  0  0  0  0  0  0  0  0  0  0
    8.3135   -1.4012   -0.6991 H   0  0  0  0  0  0  0  0  0  0  0  0
    7.0421   -1.6346   -2.7692 H   0  0  0  0  0  0  0  0  0  0  0  0
  1  2  2  0  0  0  0
  2  3  1  0  0  0  0
  2  9  1  0  0  0  0
  3  4  1  0  0  0  0
  3 27  1  0  0  0  0
  4  5  2  0  0  0  0
  4  8  1  0  0  0  0
  5  6  1  0  0  0  0
  6  7  2  0  0  0  0
  6 28  1  0  0  0  0
  7  8  1  0  0  0  0
  7 29  1  0  0  0  0
  9 10  1  0  0  0  0
  9 30  1  0  0  0  0
 10 11  1  0  0  0  0
 10 21  2  0  0  0  0
 11 12  2  0  0  0  0
 11 31  1  0  0  0  0
 12 13  1  0  0  0  0
 12 19  1  0  0  0  0
 13 14  1  0  0  0  0
 13 18  2  0  0  0  0
 14 15  2  0  0  0  0
 14 32  1  0  0  0  0
 15 16  1  0  0  0  0
 16 17  2  0  0  0  0
 16 33  1  0  0  0  0
 17 18  1  0  0  0  0
 18 34  1  0  0  0  0
 19 20  2  0  0  0  0
 19 35  1  0  0  0  0
 20 21  1  0  0  0  0
 20 36  1  0  0  0  0
 21 22  1  0  0  0  0
 22 23  1  0  0  0  0
 23 24  1  0  0  0  0
 23 25  1  0  0  0  0
 23 26  1  0  0  0  0
M  END
$$$$
