CHEMBL493047
 OpenBabel04072215383D

 64 68  0  0  0  0  0  0  0  0999 V2000
   12.2111   -3.5680   -4.1862 C   0  0  0  0  0  0  0  0  0  0  0  0
   11.2128   -3.7317   -3.1764 O   0  0  0  0  0  0  0  0  0  0  0  0
    9.9276   -3.8555   -3.6448 C   0  0  0  0  0  0  0  0  0  0  0  0
    9.6454   -4.4621   -4.8732 C   0  0  0  0  0  0  0  0  0  0  0  0
    8.3560   -4.6053   -5.3593 C   0  0  0  0  0  0  0  0  0  0  0  0
    8.2314   -5.2091   -6.5491 N   0  0  0  0  0  0  0  0  0  0  0  0
    6.9979   -5.3512   -7.0596 C   0  0  0  0  0  0  0  0  0  0  0  0
    5.8594   -4.8867   -6.4371 C   0  0  0  0  0  0  0  0  0  0  0  0
    5.9696   -4.2358   -5.1942 C   0  0  0  0  0  0  0  0  0  0  0  0
    4.6861   -3.6969   -4.5767 C   0  0  0  0  0  0  0  0  0  0  0  0
    3.9568   -2.8251   -5.5056 N   0  0  0  0  0  0  0  0  0  0  0  0
    4.5181   -1.4935   -5.7053 C   0  0  0  0  0  0  0  0  0  0  0  0
    3.9201   -0.3813   -4.8308 C   0  0  0  0  0  0  0  0  0  0  0  0
    2.4083   -0.3743   -4.8251 C   0  0  0  0  0  0  0  0  0  0  0  0
    1.7557   -1.5916   -5.1094 C   0  0  0  0  0  0  0  0  0  0  0  0
    0.3517   -1.6419   -5.0913 C   0  0  0  0  0  0  0  0  0  0  0  0
   -0.4019   -0.5145   -4.7797 C   0  0  0  0  0  0  0  0  0  0  0  0
    0.2362    0.6851   -4.4685 C   0  0  0  0  0  0  0  0  0  0  0  0
    1.6396    0.7757   -4.4862 C   0  0  0  0  0  0  0  0  0  0  0  0
    2.2858    2.0577   -4.0309 C   0  0  0  0  0  0  0  0  0  0  0  0
    3.3514    1.9802   -3.4229 O   0  0  0  0  0  0  0  0  0  0  0  0
    1.6063    3.2430   -4.3160 N   0  0  0  0  0  0  0  0  0  0  0  0
    2.0091    4.5617   -3.9712 C   0  0  0  0  0  0  0  0  0  0  0  0
    3.1856    4.8508   -3.2778 C   0  0  0  0  0  0  0  0  0  0  0  0
    3.5615    6.1714   -3.0111 C   0  0  0  0  0  0  0  0  0  0  0  0
    2.7555    7.2292   -3.4311 C   0  0  0  0  0  0  0  0  0  0  0  0
    1.5574    6.9728   -4.1041 C   0  0  0  0  0  0  0  0  0  0  0  0
    0.6739    8.1111   -4.5577 C   0  0  0  0  0  0  0  0  0  0  0  0
    1.1933    9.3463   -4.2980 F   0  0  0  0  0  0  0  0  0  0  0  0
    0.4337    8.0830   -5.8960 F   0  0  0  0  0  0  0  0  0  0  0  0
   -0.5500    8.0927   -3.9577 F   0  0  0  0  0  0  0  0  0  0  0  0
    1.1879    5.6335   -4.3648 C   0  0  0  0  0  0  0  0  0  0  0  0
    2.5016   -2.8796   -5.4037 C   0  0  0  0  0  0  0  0  0  0  0  0
    7.2625   -4.1253   -4.6043 C   0  0  0  0  0  0  0  0  0  0  0  0
    7.5440   -3.5820   -3.3264 C   0  0  0  0  0  0  0  0  0  0  0  0
    8.8583   -3.4380   -2.8494 C   0  0  0  0  0  0  0  0  0  0  0  0
    8.9284   -2.9538   -1.5715 O   0  0  0  0  0  0  0  0  0  0  0  0
    9.9481   -2.0058   -1.2807 C   0  0  0  0  0  0  0  0  0  0  0  0
   13.1375   -3.2450   -3.7029 H   0  0  0  0  0  0  0  0  0  0  0  0
   11.9273   -2.7952   -4.9121 H   0  0  0  0  0  0  0  0  0  0  0  0
   12.4208   -4.5170   -4.6911 H   0  0  0  0  0  0  0  0  0  0  0  0
   10.4412   -4.8656   -5.4918 H   0  0  0  0  0  0  0  0  0  0  0  0
    6.9491   -5.8557   -8.0199 H   0  0  0  0  0  0  0  0  0  0  0  0
    4.8943   -5.0105   -6.9173 H   0  0  0  0  0  0  0  0  0  0  0  0
    4.8444   -3.1887   -3.6220 H   0  0  0  0  0  0  0  0  0  0  0  0
    4.0911   -4.5920   -4.3461 H   0  0  0  0  0  0  0  0  0  0  0  0
    4.3590   -1.2307   -6.7591 H   0  0  0  0  0  0  0  0  0  0  0  0
    5.6078   -1.4957   -5.5742 H   0  0  0  0  0  0  0  0  0  0  0  0
    4.2935    0.5688   -5.2321 H   0  0  0  0  0  0  0  0  0  0  0  0
    4.2726   -0.4903   -3.8000 H   0  0  0  0  0  0  0  0  0  0  0  0
   -0.1623   -2.5790   -5.3007 H   0  0  0  0  0  0  0  0  0  0  0  0
   -1.4868   -0.5819   -4.7447 H   0  0  0  0  0  0  0  0  0  0  0  0
   -0.3831    1.5228   -4.1606 H   0  0  0  0  0  0  0  0  0  0  0  0
    0.7645    3.1752   -4.8723 H   0  0  0  0  0  0  0  0  0  0  0  0
    3.8523    4.0715   -2.9302 H   0  0  0  0  0  0  0  0  0  0  0  0
    4.4913    6.3710   -2.4882 H   0  0  0  0  0  0  0  0  0  0  0  0
    3.0724    8.2504   -3.2256 H   0  0  0  0  0  0  0  0  0  0  0  0
    0.2525    5.4435   -4.8838 H   0  0  0  0  0  0  0  0  0  0  0  0
    2.1362   -3.2540   -6.3688 H   0  0  0  0  0  0  0  0  0  0  0  0
    2.1887   -3.6131   -4.6495 H   0  0  0  0  0  0  0  0  0  0  0  0
    6.7393   -3.2640   -2.6691 H   0  0  0  0  0  0  0  0  0  0  0  0
    9.4603   -1.1036   -0.8968 H   0  0  0  0  0  0  0  0  0  0  0  0
   10.5602   -1.7019   -2.1330 H   0  0  0  0  0  0  0  0  0  0  0  0
   10.5834   -2.4056   -0.4842 H   0  0  0  0  0  0  0  0  0  0  0  0
  1  2  1  0  0  0  0
  1 39  1  0  0  0  0
  1 40  1  0  0  0  0
  1 41  1  0  0  0  0
  2  3  1  0  0  0  0
  3  4  1  0  0  0  0
  3 36  2  0  0  0  0
  4  5  2  0  0  0  0
  4 42  1  0  0  0  0
  5  6  1  0  0  0  0
  5 34  1  0  0  0  0
  6  7  2  0  0  0  0
  7  8  1  0  0  0  0
  7 43  1  0  0  0  0
  8  9  2  0  0  0  0
  8 44  1  0  0  0  0
  9 10  1  0  0  0  0
  9 34  1  0  0  0  0
 10 11  1  0  0  0  0
 10 45  1  0  0  0  0
 10 46  1  0  0  0  0
 11 12  1  0  0  0  0
 11 33  1  0  0  0  0
 12 13  1  0  0  0  0
 12 47  1  0  0  0  0
 12 48  1  0  0  0  0
 13 14  1  0  0  0  0
 13 49  1  0  0  0  0
 13 50  1  0  0  0  0
 14 15  1  0  0  0  0
 14 19  2  0  0  0  0
 15 16  2  0  0  0  0
 15 33  1  0  0  0  0
 16 17  1  0  0  0  0
 16 51  1  0  0  0  0
 17 18  2  0  0  0  0
 17 52  1  0  0  0  0
 18 19  1  0  0  0  0
 18 53  1  0  0  0  0
 19 20  1  0  0  0  0
 20 21  2  0  0  0  0
 20 22  1  0  0  0  0
 22 23  1  0  0  0  0
 22 54  1  0  0  0  0
 23 24  1  0  0  0  0
 23 32  2  0  0  0  0
 24 25  2  0  0  0  0
 24 55  1  0  0  0  0
 25 26  1  0  0  0  0
 25 56  1  0  0  0  0
 26 27  2  0  0  0  0
 26 57  1  0  0  0  0
 27 28  1  0  0  0  0
 27 32  1  0  0  0  0
 28 29  1  0  0  0  0
 28 30  1  0  0  0  0
 28 31  1  0  0  0  0
 32 58  1  0  0  0  0
 33 59  1  0  0  0  0
 33 60  1  0  0  0  0
 34 35  2  0  0  0  0
 35 36  1  0  0  0  0
 35 61  1  0  0  0  0
 36 37  1  0  0  0  0
 37 38  1  0  0  0  0
 38 62  1  0  0  0  0
 38 63  1  0  0  0  0
 38 64  1  0  0  0  0
M  END
$$$$
