CHEMBL212267
 OpenBabel04072215363D

 41 43  0  0  0  0  0  0  0  0999 V2000
    1.3389   -1.8425    1.0390 C   0  0  0  0  0  0  0  0  0  0  0  0
    2.7689   -1.6834    1.0651 N   0  0  0  0  0  0  0  0  0  0  0  0
    3.3644   -0.4895    0.7246 C   0  0  0  0  0  0  0  0  0  0  0  0
    2.7399    0.4875    0.3259 O   0  0  0  0  0  0  0  0  0  0  0  0
    4.8433   -0.4260    0.8339 C   0  0  0  0  0  0  0  0  0  0  0  0
    5.5371    0.4969    0.0340 C   0  0  0  0  0  0  0  0  0  0  0  0
    6.9379    0.5956    0.0790 C   0  0  0  0  0  0  0  0  0  0  0  0
    7.5551    1.4403   -0.8452 N   0  0  0  0  0  0  0  0  0  0  0  0
    8.9920    1.6695   -0.7963 C   0  0  0  0  0  0  0  0  0  0  0  0
    9.4555    2.5829   -1.8766 C   0  0  0  0  0  0  0  0  0  0  0  0
    9.7791    2.2549   -3.1705 C   0  0  0  0  0  0  0  0  0  0  0  0
   10.2026    3.3012   -3.9477 N   0  0  0  0  0  0  0  0  0  0  0  0
   10.2351    4.4219   -3.2632 C   0  0  0  0  0  0  0  0  0  0  0  0
   10.7042    5.6110   -3.7117 N   0  0  0  0  0  0  0  0  0  0  0  0
   11.6682    5.7507   -4.7161 C   0  0  0  0  0  0  0  0  0  0  0  0
   11.8327    4.8332   -5.7529 C   0  0  0  0  0  0  0  0  0  0  0  0
   12.8959    4.9640   -6.6394 C   0  0  0  0  0  0  0  0  0  0  0  0
   13.7509    6.0428   -6.5046 C   0  0  0  0  0  0  0  0  0  0  0  0
   13.4880    6.9516   -5.4950 C   0  0  0  0  0  0  0  0  0  0  0  0
   12.4741    6.8300   -4.6053 N   0  0  0  0  0  0  0  0  0  0  0  0
    9.6448    4.2689   -1.6443 S   0  0  0  0  0  0  0  0  0  0  0  0
    7.6187   -0.2771    0.9483 C   0  0  0  0  0  0  0  0  0  0  0  0
    8.9570   -0.2626    1.0352 F   0  0  0  0  0  0  0  0  0  0  0  0
    6.9443   -1.1868    1.7570 C   0  0  0  0  0  0  0  0  0  0  0  0
    5.5626   -1.2571    1.6929 C   0  0  0  0  0  0  0  0  0  0  0  0
    4.9383   -2.1559    2.4692 F   0  0  0  0  0  0  0  0  0  0  0  0
    1.0998   -2.8805    1.2815 H   0  0  0  0  0  0  0  0  0  0  0  0
    0.9604   -1.5929    0.0443 H   0  0  0  0  0  0  0  0  0  0  0  0
    0.8927   -1.1729    1.7787 H   0  0  0  0  0  0  0  0  0  0  0  0
    3.3306   -2.4326    1.4527 H   0  0  0  0  0  0  0  0  0  0  0  0
    4.9743    1.1266   -0.6550 H   0  0  0  0  0  0  0  0  0  0  0  0
    7.0181    2.2775   -1.0597 H   0  0  0  0  0  0  0  0  0  0  0  0
    9.5172    0.7159   -0.9425 H   0  0  0  0  0  0  0  0  0  0  0  0
    9.2865    2.0634    0.1831 H   0  0  0  0  0  0  0  0  0  0  0  0
    9.7354    1.2612   -3.5995 H   0  0  0  0  0  0  0  0  0  0  0  0
   10.8132    6.3677   -3.0475 H   0  0  0  0  0  0  0  0  0  0  0  0
   11.1579    3.9946   -5.8788 H   0  0  0  0  0  0  0  0  0  0  0  0
   13.0475    4.2178   -7.4131 H   0  0  0  0  0  0  0  0  0  0  0  0
   14.5948    6.1717   -7.1708 H   0  0  0  0  0  0  0  0  0  0  0  0
   14.1152    7.8282   -5.3617 H   0  0  0  0  0  0  0  0  0  0  0  0
    7.4971   -1.8369    2.4210 H   0  0  0  0  0  0  0  0  0  0  0  0
  1  2  1  0  0  0  0
  1 27  1  0  0  0  0
  1 28  1  0  0  0  0
  1 29  1  0  0  0  0
  2  3  1  0  0  0  0
  2 30  1  0  0  0  0
  3  4  2  0  0  0  0
  3  5  1  0  0  0  0
  5  6  1  0  0  0  0
  5 25  2  0  0  0  0
  6  7  2  0  0  0  0
  6 31  1  0  0  0  0
  7  8  1  0  0  0  0
  7 22  1  0  0  0  0
  8  9  1  0  0  0  0
  8 32  1  0  0  0  0
  9 10  1  0  0  0  0
  9 33  1  0  0  0  0
  9 34  1  0  0  0  0
 10 11  2  0  0  0  0
 10 21  1  0  0  0  0
 11 12  1  0  0  0  0
 11 35  1  0  0  0  0
 12 13  2  0  0  0  0
 13 14  1  0  0  0  0
 13 21  1  0  0  0  0
 14 15  1  0  0  0  0
 14 36  1  0  0  0  0
 15 16  1  0  0  0  0
 15 20  2  0  0  0  0
 16 17  2  0  0  0  0
 16 37  1  0  0  0  0
 17 18  1  0  0  0  0
 17 38  1  0  0  0  0
 18 19  2  0  0  0  0
 18 39  1  0  0  0  0
 19 20  1  0  0  0  0
 19 40  1  0  0  0  0
 22 23  1  0  0  0  0
 22 24  2  0  0  0  0
 24 25  1  0  0  0  0
 24 41  1  0  0  0  0
 25 26  1  0  0  0  0
M  END
$$$$
