CHEMBL101311
 OpenBabel04072215353D

 53 55  0  0  1  0  0  0  0  0999 V2000
    4.7317    3.1477   -1.0834 C   0  0  0  0  0  0  0  0  0  0  0  0
    4.4248    1.7615   -0.7154 N   0  0  0  0  0  0  0  0  0  0  0  0
    5.0204    0.8535   -1.7010 C   0  0  0  0  0  0  0  0  0  0  0  0
    4.9237    1.4983    0.6547 C   0  0  0  0  0  0  0  0  0  0  0  0
    4.6316    0.0916    1.2369 C   0  0  3  0  0  0  0  0  0  0  0  0
    5.3415   -0.9337    0.5222 O   0  0  0  0  0  0  0  0  0  0  0  0
    5.0869    0.0030    2.7014 C   0  0  0  0  0  0  0  0  0  0  0  0
    6.4847    0.3318    2.7405 O   0  0  0  0  0  0  0  0  0  0  0  0
    7.1053    0.2337    3.9512 C   0  0  0  0  0  0  0  0  0  0  0  0
    6.6841   -0.5739    5.0000 C   0  0  0  0  0  0  0  0  0  0  0  0
    7.4328   -0.6335    6.1739 C   0  0  0  0  0  0  0  0  0  0  0  0
    8.6256    0.0894    6.3178 C   0  0  0  0  0  0  0  0  0  0  0  0
    9.3996    0.0167    7.4927 N   0  0  0  0  0  0  0  0  0  0  0  0
    9.4573   -1.1024    8.3320 C   0  0  0  0  0  0  0  0  0  0  0  0
    9.6131   -0.8926    9.6414 N   0  0  0  0  0  0  0  0  0  0  0  0
    9.6098   -1.9946   10.4170 C   0  0  0  0  0  0  0  0  0  0  0  0
    9.4562   -3.2745    9.9353 C   0  0  0  0  0  0  0  0  0  0  0  0
    9.3274   -3.4028    8.5707 C   0  0  0  0  0  0  0  0  0  0  0  0
    9.2321   -4.6880    8.0015 N   0  0  0  0  0  0  0  0  0  0  0  0
    9.3878   -5.0693    6.6409 C   0  0  0  0  0  0  0  0  0  0  0  0
   10.1099   -4.2893    5.7224 C   0  0  0  0  0  0  0  0  0  0  0  0
   10.3384   -4.7341    4.4185 C   0  0  0  0  0  0  0  0  0  0  0  0
   11.2148   -3.7414    3.3183 Cl  0  0  0  0  0  0  0  0  0  0  0  0
    9.8808   -5.9811    4.0055 C   0  0  0  0  0  0  0  0  0  0  0  0
    9.1796   -6.7855    4.9019 C   0  0  0  0  0  0  0  0  0  0  0  0
    8.9387   -6.3339    6.2048 C   0  0  0  0  0  0  0  0  0  0  0  0
    8.0638   -7.3744    7.2777 Cl  0  0  0  0  0  0  0  0  0  0  0  0
    9.3339   -2.3212    7.7868 N   0  0  0  0  0  0  0  0  0  0  0  0
    9.0210    0.9285    5.2735 C   0  0  0  0  0  0  0  0  0  0  0  0
    8.2773    0.9809    4.0892 C   0  0  0  0  0  0  0  0  0  0  0  0
    4.3575    3.3736   -2.0880 H   0  0  0  0  0  0  0  0  0  0  0  0
    5.8091    3.3506   -1.0642 H   0  0  0  0  0  0  0  0  0  0  0  0
    4.2352    3.8455   -0.4006 H   0  0  0  0  0  0  0  0  0  0  0  0
    4.7758    1.1688   -2.7214 H   0  0  0  0  0  0  0  0  0  0  0  0
    4.6083   -0.1546   -1.6046 H   0  0  0  0  0  0  0  0  0  0  0  0
    6.1124    0.8084   -1.6147 H   0  0  0  0  0  0  0  0  0  0  0  0
    4.4503    2.2269    1.3264 H   0  0  0  0  0  0  0  0  0  0  0  0
    6.0050    1.6865    0.6798 H   0  0  0  0  0  0  0  0  0  0  0  0
    3.5613   -0.1333    1.1714 H   0  0  0  0  0  0  0  0  0  0  0  0
    6.2892   -0.7669    0.6826 H   0  0  0  0  0  0  0  0  0  0  0  0
    4.9269   -1.0270    3.0384 H   0  0  0  0  0  0  0  0  0  0  0  0
    4.5247    0.7033    3.3294 H   0  0  0  0  0  0  0  0  0  0  0  0
    5.8013   -1.1989    4.9358 H   0  0  0  0  0  0  0  0  0  0  0  0
    7.0830   -1.2845    6.9719 H   0  0  0  0  0  0  0  0  0  0  0  0
    9.3363    0.8428    8.0730 H   0  0  0  0  0  0  0  0  0  0  0  0
    9.7482   -1.8118   11.4797 H   0  0  0  0  0  0  0  0  0  0  0  0
    9.4659   -4.1305   10.5952 H   0  0  0  0  0  0  0  0  0  0  0  0
    8.5254   -5.2527    8.4667 H   0  0  0  0  0  0  0  0  0  0  0  0
   10.5142   -3.3234    6.0112 H   0  0  0  0  0  0  0  0  0  0  0  0
   10.0756   -6.3319    2.9956 H   0  0  0  0  0  0  0  0  0  0  0  0
    8.8318   -7.7648    4.5834 H   0  0  0  0  0  0  0  0  0  0  0  0
    9.9378    1.5062    5.3538 H   0  0  0  0  0  0  0  0  0  0  0  0
    8.6216    1.6033    3.2672 H   0  0  0  0  0  0  0  0  0  0  0  0
  1  2  1  0  0  0  0
  1 31  1  0  0  0  0
  1 32  1  0  0  0  0
  1 33  1  0  0  0  0
  2  3  1  0  0  0  0
  2  4  1  0  0  0  0
  3 34  1  0  0  0  0
  3 35  1  0  0  0  0
  3 36  1  0  0  0  0
  4  5  1  0  0  0  0
  4 37  1  0  0  0  0
  4 38  1  0  0  0  0
  5  6  1  0  0  0  0
  5  7  1  0  0  0  0
  5 39  1  0  0  0  0
  6 40  1  0  0  0  0
  7  8  1  0  0  0  0
  7 41  1  0  0  0  0
  7 42  1  0  0  0  0
  8  9  1  0  0  0  0
  9 10  1  0  0  0  0
  9 30  2  0  0  0  0
 10 11  2  0  0  0  0
 10 43  1  0  0  0  0
 11 12  1  0  0  0  0
 11 44  1  0  0  0  0
 12 13  1  0  0  0  0
 12 29  2  0  0  0  0
 13 14  1  0  0  0  0
 13 45  1  0  0  0  0
 14 15  1  0  0  0  0
 14 28  2  0  0  0  0
 15 16  2  0  0  0  0
 16 17  1  0  0  0  0
 16 46  1  0  0  0  0
 17 18  2  0  0  0  0
 17 47  1  0  0  0  0
 18 19  1  0  0  0  0
 18 28  1  0  0  0  0
 19 20  1  0  0  0  0
 19 48  1  0  0  0  0
 20 21  1  0  0  0  0
 20 26  2  0  0  0  0
 21 22  2  0  0  0  0
 21 49  1  0  0  0  0
 22 23  1  0  0  0  0
 22 24  1  0  0  0  0
 24 25  2  0  0  0  0
 24 50  1  0  0  0  0
 25 26  1  0  0  0  0
 25 51  1  0  0  0  0
 26 27  1  0  0  0  0
 29 30  1  0  0  0  0
 29 52  1  0  0  0  0
 30 53  1  0  0  0  0
M  END
$$$$
