CHEMBL3904745
 OpenBabel04072215373D

 76 80  0  0  0  0  0  0  0  0999 V2000
    8.6078    1.5581   -7.9310 C   0  0  0  0  0  0  0  0  0  0  0  0
    7.1461    1.9292   -8.1138 C   0  0  0  0  0  0  0  0  0  0  0  0
    6.3791    1.1371   -7.1959 O   0  0  0  0  0  0  0  0  0  0  0  0
    6.0012   -0.0936   -7.6487 C   0  0  0  0  0  0  0  0  0  0  0  0
    5.9897   -0.4357   -8.8221 O   0  0  0  0  0  0  0  0  0  0  0  0
    5.7862   -1.0244   -6.4628 C   0  0  0  0  0  0  0  0  0  0  0  0
    5.4371   -2.4479   -6.8966 C   0  0  0  0  0  0  0  0  0  0  0  0
    3.9773   -2.5892   -7.3442 C   0  0  0  0  0  0  0  0  0  0  0  0
    3.0264   -2.1047   -6.3224 N   0  0  0  0  0  0  0  0  0  0  0  0
    1.6183   -2.3370   -6.7881 C   0  0  0  0  0  0  0  0  0  0  0  0
    0.5173   -1.9457   -5.7705 C   0  0  0  0  0  0  0  0  0  0  0  0
   -0.8918   -2.1511   -6.2296 N   0  0  0  0  0  0  0  0  0  0  0  0
   -1.7792   -1.0758   -5.7559 C   0  0  0  0  0  0  0  0  0  0  0  0
   -2.8793   -0.5885   -6.5195 C   0  0  0  0  0  0  0  0  0  0  0  0
   -3.7801    0.3756   -6.0362 C   0  0  0  0  0  0  0  0  0  0  0  0
   -4.8676    0.8894   -6.6914 O   0  0  0  0  0  0  0  0  0  0  0  0
   -5.1789    0.3715   -7.9764 C   0  0  0  0  0  0  0  0  0  0  0  0
   -3.5984    0.8928   -4.7616 C   0  0  0  0  0  0  0  0  0  0  0  0
   -2.5375    0.4502   -3.9757 C   0  0  0  0  0  0  0  0  0  0  0  0
   -2.3072    0.8845   -2.6985 O   0  0  0  0  0  0  0  0  0  0  0  0
   -3.4916    1.1790   -1.9549 C   0  0  0  0  0  0  0  0  0  0  0  0
   -1.6256   -0.4937   -4.4844 C   0  0  0  0  0  0  0  0  0  0  0  0
   -1.4206   -3.4421   -6.5673 C   0  0  0  0  0  0  0  0  0  0  0  0
   -2.4170   -3.4095   -7.5233 C   0  0  0  0  0  0  0  0  0  0  0  0
   -3.4429   -4.3276   -7.5097 C   0  0  0  0  0  0  0  0  0  0  0  0
   -3.3446   -5.4736   -6.7590 C   0  0  0  0  0  0  0  0  0  0  0  0
   -4.4800   -6.1486   -6.7791 N   0  0  0  0  0  0  0  0  0  0  0  0
   -4.4163   -7.4254   -6.4135 C   0  0  0  0  0  0  0  0  0  0  0  0
   -3.2221   -8.0207   -6.0904 C   0  0  0  0  0  0  0  0  0  0  0  0
   -3.2700   -9.4927   -6.0783 C   0  0  0  0  0  0  0  0  0  0  0  0
   -2.8982  -10.4505   -7.0665 C   0  0  0  0  0  0  0  0  0  0  0  0
   -3.3367  -11.6896   -6.7917 N   0  0  0  0  0  0  0  0  0  0  0  0
   -4.0162  -11.5294   -5.6447 N   0  0  0  0  0  0  0  0  0  0  0  0
   -4.3646  -12.6628   -4.8189 C   0  0  0  0  0  0  0  0  0  0  0  0
   -4.1687  -10.2145   -5.3017 C   0  0  0  0  0  0  0  0  0  0  0  0
   -2.0667   -7.2702   -5.8972 N   0  0  0  0  0  0  0  0  0  0  0  0
   -2.1280   -5.8700   -6.1890 C   0  0  0  0  0  0  0  0  0  0  0  0
   -1.1791   -4.7354   -6.0042 C   0  0  0  0  0  0  0  0  0  0  0  0
    3.3099   -0.6973   -5.9922 C   0  0  0  0  0  0  0  0  0  0  0  0
    4.7431   -0.5061   -5.4790 C   0  0  0  0  0  0  0  0  0  0  0  0
    9.2572    2.1563   -8.5733 H   0  0  0  0  0  0  0  0  0  0  0  0
    8.7685    0.4975   -8.1542 H   0  0  0  0  0  0  0  0  0  0  0  0
    8.9069    1.7041   -6.8866 H   0  0  0  0  0  0  0  0  0  0  0  0
    6.8216    1.7945   -9.1515 H   0  0  0  0  0  0  0  0  0  0  0  0
    6.9927    2.9820   -7.8545 H   0  0  0  0  0  0  0  0  0  0  0  0
    6.7645   -1.0624   -5.9615 H   0  0  0  0  0  0  0  0  0  0  0  0
    5.6186   -3.1234   -6.0504 H   0  0  0  0  0  0  0  0  0  0  0  0
    6.1014   -2.7798   -7.7043 H   0  0  0  0  0  0  0  0  0  0  0  0
    3.7959   -3.6538   -7.5334 H   0  0  0  0  0  0  0  0  0  0  0  0
    3.8292   -2.0612   -8.2947 H   0  0  0  0  0  0  0  0  0  0  0  0
    1.5099   -3.4060   -7.0036 H   0  0  0  0  0  0  0  0  0  0  0  0
    1.4529   -1.8028   -7.7337 H   0  0  0  0  0  0  0  0  0  0  0  0
    0.6533   -0.8656   -5.6268 H   0  0  0  0  0  0  0  0  0  0  0  0
    0.6816   -2.4314   -4.8015 H   0  0  0  0  0  0  0  0  0  0  0  0
   -3.0361   -0.9297   -7.5273 H   0  0  0  0  0  0  0  0  0  0  0  0
   -6.0985    0.8571   -8.3181 H   0  0  0  0  0  0  0  0  0  0  0  0
   -5.3688   -0.7059   -7.9372 H   0  0  0  0  0  0  0  0  0  0  0  0
   -4.3900    0.6121   -8.6958 H   0  0  0  0  0  0  0  0  0  0  0  0
   -4.2944    1.6501   -4.4002 H   0  0  0  0  0  0  0  0  0  0  0  0
   -3.2343    1.1543   -0.8924 H   0  0  0  0  0  0  0  0  0  0  0  0
   -4.2754    0.4303   -2.1220 H   0  0  0  0  0  0  0  0  0  0  0  0
   -3.8601    2.1832   -2.1895 H   0  0  0  0  0  0  0  0  0  0  0  0
   -0.8104   -0.7929   -3.8277 H   0  0  0  0  0  0  0  0  0  0  0  0
   -2.4993   -2.5989   -8.2285 H   0  0  0  0  0  0  0  0  0  0  0  0
   -4.3256   -4.1593   -8.0941 H   0  0  0  0  0  0  0  0  0  0  0  0
   -5.3556   -7.9645   -6.4786 H   0  0  0  0  0  0  0  0  0  0  0  0
   -2.3603  -10.3048   -7.9955 H   0  0  0  0  0  0  0  0  0  0  0  0
   -4.0615  -13.5934   -5.3054 H   0  0  0  0  0  0  0  0  0  0  0  0
   -5.4405  -12.6636   -4.6284 H   0  0  0  0  0  0  0  0  0  0  0  0
   -3.8164  -12.5487   -3.8787 H   0  0  0  0  0  0  0  0  0  0  0  0
   -4.8605   -9.9214   -4.5245 H   0  0  0  0  0  0  0  0  0  0  0  0
   -0.3004   -4.9057   -5.4026 H   0  0  0  0  0  0  0  0  0  0  0  0
    2.6545   -0.3578   -5.1841 H   0  0  0  0  0  0  0  0  0  0  0  0
    3.1355   -0.0450   -6.8569 H   0  0  0  0  0  0  0  0  0  0  0  0
    4.8596   -1.0490   -4.5309 H   0  0  0  0  0  0  0  0  0  0  0  0
    4.9086    0.5524   -5.2449 H   0  0  0  0  0  0  0  0  0  0  0  0
  1  2  1  0  0  0  0
  1 41  1  0  0  0  0
  1 42  1  0  0  0  0
  1 43  1  0  0  0  0
  2  3  1  0  0  0  0
  2 44  1  0  0  0  0
  2 45  1  0  0  0  0
  3  4  1  0  0  0  0
  4  5  2  0  0  0  0
  4  6  1  0  0  0  0
  6  7  1  0  0  0  0
  6 40  1  0  0  0  0
  6 46  1  0  0  0  0
  7  8  1  0  0  0  0
  7 47  1  0  0  0  0
  7 48  1  0  0  0  0
  8  9  1  0  0  0  0
  8 49  1  0  0  0  0
  8 50  1  0  0  0  0
  9 10  1  0  0  0  0
  9 39  1  0  0  0  0
 10 11  1  0  0  0  0
 10 51  1  0  0  0  0
 10 52  1  0  0  0  0
 11 12  1  0  0  0  0
 11 53  1  0  0  0  0
 11 54  1  0  0  0  0
 12 13  1  0  0  0  0
 12 23  1  0  0  0  0
 13 14  1  0  0  0  0
 13 22  2  0  0  0  0
 14 15  2  0  0  0  0
 14 55  1  0  0  0  0
 15 16  1  0  0  0  0
 15 18  1  0  0  0  0
 16 17  1  0  0  0  0
 17 56  1  0  0  0  0
 17 57  1  0  0  0  0
 17 58  1  0  0  0  0
 18 19  2  0  0  0  0
 18 59  1  0  0  0  0
 19 20  1  0  0  0  0
 19 22  1  0  0  0  0
 20 21  1  0  0  0  0
 21 60  1  0  0  0  0
 21 61  1  0  0  0  0
 21 62  1  0  0  0  0
 22 63  1  0  0  0  0
 23 24  1  0  0  0  0
 23 38  2  0  0  0  0
 24 25  2  0  0  0  0
 24 64  1  0  0  0  0
 25 26  1  0  0  0  0
 25 65  1  0  0  0  0
 26 27  1  0  0  0  0
 26 37  2  0  0  0  0
 27 28  2  0  0  0  0
 28 29  1  0  0  0  0
 28 66  1  0  0  0  0
 29 30  1  0  0  0  0
 29 36  2  0  0  0  0
 30 31  1  0  0  0  0
 30 35  2  0  0  0  0
 31 32  2  0  0  0  0
 31 67  1  0  0  0  0
 32 33  1  0  0  0  0
 33 34  1  0  0  0  0
 33 35  1  0  0  0  0
 34 68  1  0  0  0  0
 34 69  1  0  0  0  0
 34 70  1  0  0  0  0
 35 71  1  0  0  0  0
 36 37  1  0  0  0  0
 37 38  1  0  0  0  0
 38 72  1  0  0  0  0
 39 40  1  0  0  0  0
 39 73  1  0  0  0  0
 39 74  1  0  0  0  0
 40 75  1  0  0  0  0
 40 76  1  0  0  0  0
M  END
$$$$
