CHEMBL363590
 OpenBabel04072215373D

 48 51  0  0  0  0  0  0  0  0999 V2000
    4.9011    2.8235   -5.3922 O   0  0  0  0  0  0  0  0  0  0  0  0
    4.5309    1.7589   -4.5292 C   0  0  0  0  0  0  0  0  0  0  0  0
    5.7714    1.1694   -3.8764 C   0  0  0  0  0  0  0  0  0  0  0  0
    6.7250    0.5726   -4.9165 C   0  0  0  0  0  0  0  0  0  0  0  0
    7.9115   -0.0224   -4.2951 N   0  0  0  0  0  0  0  0  0  0  0  0
    7.7699   -1.0892   -3.4066 C   0  0  0  0  0  0  0  0  0  0  0  0
    6.7686   -2.0566   -3.4876 C   0  0  0  0  0  0  0  0  0  0  0  0
    6.6182   -3.0925   -2.6317 N   0  0  0  0  0  0  0  0  0  0  0  0
    7.5495   -3.2006   -1.6562 C   0  0  0  0  0  0  0  0  0  0  0  0
    8.6367   -2.3436   -1.4885 C   0  0  0  0  0  0  0  0  0  0  0  0
    9.6033   -2.5404   -0.4031 C   0  0  0  0  0  0  0  0  0  0  0  0
    9.3936   -3.5662    0.4215 N   0  0  0  0  0  0  0  0  0  0  0  0
   10.2602   -3.6557    1.4178 C   0  0  0  0  0  0  0  0  0  0  0  0
   11.2518   -2.8133    1.6500 N   0  0  0  0  0  0  0  0  0  0  0  0
   11.3900   -1.8224    0.7717 C   0  0  0  0  0  0  0  0  0  0  0  0
   12.4222   -0.9020    0.9530 N   0  0  0  0  0  0  0  0  0  0  0  0
   13.0403   -0.5350    2.1565 C   0  0  0  0  0  0  0  0  0  0  0  0
   12.3629   -0.6212    3.3842 C   0  0  0  0  0  0  0  0  0  0  0  0
   13.0110   -0.3742    4.5928 C   0  0  0  0  0  0  0  0  0  0  0  0
   14.3595   -0.0492    4.5897 C   0  0  0  0  0  0  0  0  0  0  0  0
   15.0547    0.0380    3.3790 C   0  0  0  0  0  0  0  0  0  0  0  0
   14.3929   -0.1756    2.1669 C   0  0  0  0  0  0  0  0  0  0  0  0
   16.3988    0.3095    3.3096 O   0  0  0  0  0  0  0  0  0  0  0  0
   17.0323    0.0892    4.5758 C   0  0  0  0  0  0  0  0  0  0  0  0
   16.2352    0.7400    5.6941 C   0  0  0  0  0  0  0  0  0  0  0  0
   14.9420    0.1416    5.8153 O   0  0  0  0  0  0  0  0  0  0  0  0
   10.6071   -1.6607   -0.2876 N   0  0  0  0  0  0  0  0  0  0  0  0
    8.7273   -1.2807   -2.4042 C   0  0  0  0  0  0  0  0  0  0  0  0
    4.0797    3.1936   -5.7574 H   0  0  0  0  0  0  0  0  0  0  0  0
    3.9982    1.0005   -5.1125 H   0  0  0  0  0  0  0  0  0  0  0  0
    3.8537    2.1505   -3.7636 H   0  0  0  0  0  0  0  0  0  0  0  0
    5.4512    0.4096   -3.1555 H   0  0  0  0  0  0  0  0  0  0  0  0
    6.2999    1.9467   -3.3106 H   0  0  0  0  0  0  0  0  0  0  0  0
    7.0741    1.3646   -5.5893 H   0  0  0  0  0  0  0  0  0  0  0  0
    6.2132   -0.1615   -5.5485 H   0  0  0  0  0  0  0  0  0  0  0  0
    8.5807    0.6775   -3.9841 H   0  0  0  0  0  0  0  0  0  0  0  0
    6.0184   -2.0268   -4.2708 H   0  0  0  0  0  0  0  0  0  0  0  0
    7.3856   -4.0408   -0.9843 H   0  0  0  0  0  0  0  0  0  0  0  0
   10.1443   -4.4838    2.1076 H   0  0  0  0  0  0  0  0  0  0  0  0
   12.5786   -0.3158    0.1482 H   0  0  0  0  0  0  0  0  0  0  0  0
   11.3074   -0.8819    3.4108 H   0  0  0  0  0  0  0  0  0  0  0  0
   12.4652   -0.4498    5.5282 H   0  0  0  0  0  0  0  0  0  0  0  0
   14.9566   -0.1271    1.2394 H   0  0  0  0  0  0  0  0  0  0  0  0
   18.0348    0.5249    4.5250 H   0  0  0  0  0  0  0  0  0  0  0  0
   17.1372   -0.9921    4.7315 H   0  0  0  0  0  0  0  0  0  0  0  0
   16.1026    1.8143    5.5208 H   0  0  0  0  0  0  0  0  0  0  0  0
   16.7492    0.6073    6.6515 H   0  0  0  0  0  0  0  0  0  0  0  0
    9.5509   -0.5746   -2.3181 H   0  0  0  0  0  0  0  0  0  0  0  0
  1  2  1  0  0  0  0
  1 29  1  0  0  0  0
  2  3  1  0  0  0  0
  2 30  1  0  0  0  0
  2 31  1  0  0  0  0
  3  4  1  0  0  0  0
  3 32  1  0  0  0  0
  3 33  1  0  0  0  0
  4  5  1  0  0  0  0
  4 34  1  0  0  0  0
  4 35  1  0  0  0  0
  5  6  1  0  0  0  0
  5 36  1  0  0  0  0
  6  7  1  0  0  0  0
  6 28  2  0  0  0  0
  7  8  2  0  0  0  0
  7 37  1  0  0  0  0
  8  9  1  0  0  0  0
  9 10  2  0  0  0  0
  9 38  1  0  0  0  0
 10 11  1  0  0  0  0
 10 28  1  0  0  0  0
 11 12  1  0  0  0  0
 11 27  2  0  0  0  0
 12 13  2  0  0  0  0
 13 14  1  0  0  0  0
 13 39  1  0  0  0  0
 14 15  2  0  0  0  0
 15 16  1  0  0  0  0
 15 27  1  0  0  0  0
 16 17  1  0  0  0  0
 16 40  1  0  0  0  0
 17 18  1  0  0  0  0
 17 22  2  0  0  0  0
 18 19  2  0  0  0  0
 18 41  1  0  0  0  0
 19 20  1  0  0  0  0
 19 42  1  0  0  0  0
 20 21  2  0  0  0  0
 20 26  1  0  0  0  0
 21 22  1  0  0  0  0
 21 23  1  0  0  0  0
 22 43  1  0  0  0  0
 23 24  1  0  0  0  0
 24 25  1  0  0  0  0
 24 44  1  0  0  0  0
 24 45  1  0  0  0  0
 25 26  1  0  0  0  0
 25 46  1  0  0  0  0
 25 47  1  0  0  0  0
 28 48  1  0  0  0  0
M  END
$$$$
