CHEMBL3323598
 OpenBabel04072215363D

 48 52  0  0  0  0  0  0  0  0999 V2000
    1.5664   -0.3021    1.7098 C   0  0  0  0  0  0  0  0  0  0  0  0
    1.6821   -0.5622    0.2114 C   0  0  0  0  0  0  0  0  0  0  0  0
    2.5271   -1.7816   -0.1569 C   0  0  0  0  0  0  0  0  0  0  0  0
    1.9677   -2.8386   -0.8586 C   0  0  0  0  0  0  0  0  0  0  0  0
    2.7302   -4.0031   -1.2020 C   0  0  0  0  0  0  0  0  0  0  0  0
    4.0536   -4.2210   -0.9043 C   0  0  0  0  0  0  0  0  0  0  0  0
    4.8268   -5.5562   -1.2256 C   0  0  0  0  0  0  0  0  0  0  0  0
    4.3942   -6.7154   -1.8245 N   0  0  0  0  0  0  0  0  0  0  0  0
    5.4695   -7.6743   -1.7098 C   0  0  0  0  0  0  0  0  0  0  0  0
    5.6726   -9.0494   -2.0776 C   0  0  0  0  0  0  0  0  0  0  0  0
    6.7790   -9.8470   -1.5930 C   0  0  0  0  0  0  0  0  0  0  0  0
    7.7558   -9.3430   -0.7703 C   0  0  0  0  0  0  0  0  0  0  0  0
    8.7903  -10.2284   -0.2370 N   0  0  0  0  0  0  0  0  0  0  0  0
    9.4436  -11.5912   -0.0054 C   0  0  0  0  0  0  0  0  0  0  0  0
    9.2178  -13.1726   -0.5260 C   0  0  0  0  0  0  0  0  0  0  0  0
    9.7895  -14.3322    0.0106 C   0  0  0  0  0  0  0  0  0  0  0  0
   10.7170  -13.4188    0.3149 N   0  0  0  0  0  0  0  0  0  0  0  0
   11.1798  -12.5956    1.2903 C   0  0  0  0  0  0  0  0  0  0  0  0
   12.1904  -12.9154    2.0727 C   0  0  0  0  0  0  0  0  0  0  0  0
   12.6774  -11.9042    2.8329 C   0  0  0  0  0  0  0  0  0  0  0  0
   12.2299  -10.5898    2.5916 C   0  0  0  0  0  0  0  0  0  0  0  0
   11.2408  -10.3218    1.6235 C   0  0  0  0  0  0  0  0  0  0  0  0
   10.6354  -11.3832    0.8996 C   0  0  0  0  0  0  0  0  0  0  0  0
    7.6892   -7.8789   -0.5780 C   0  0  0  0  0  0  0  0  0  0  0  0
    6.5336   -7.0971   -1.0371 C   0  0  0  0  0  0  0  0  0  0  0  0
    6.1609   -5.7483   -0.9932 N   0  0  0  0  0  0  0  0  0  0  0  0
    4.6772   -3.0650   -0.2770 C   0  0  0  0  0  0  0  0  0  0  0  0
    3.9011   -1.9021    0.1159 C   0  0  0  0  0  0  0  0  0  0  0  0
    0.9319    0.5799    1.9195 H   0  0  0  0  0  0  0  0  0  0  0  0
    2.5464   -0.0999    2.1423 H   0  0  0  0  0  0  0  0  0  0  0  0
    1.1210   -1.1558    2.2227 H   0  0  0  0  0  0  0  0  0  0  0  0
    2.0840    0.3321   -0.2697 H   0  0  0  0  0  0  0  0  0  0  0  0
    0.6564   -0.6829   -0.1868 H   0  0  0  0  0  0  0  0  0  0  0  0
    0.9141   -2.7962   -1.1462 H   0  0  0  0  0  0  0  0  0  0  0  0
    2.1919   -4.7468   -1.7863 H   0  0  0  0  0  0  0  0  0  0  0  0
    4.9710   -9.5790   -2.7147 H   0  0  0  0  0  0  0  0  0  0  0  0
    6.8585  -10.9046   -1.8154 H   0  0  0  0  0  0  0  0  0  0  0  0
    9.0862   -9.7056    0.6129 H   0  0  0  0  0  0  0  0  0  0  0  0
    8.5646  -13.4936   -1.3344 H   0  0  0  0  0  0  0  0  0  0  0  0
   10.4734  -15.1337    0.3323 H   0  0  0  0  0  0  0  0  0  0  0  0
   12.3729  -13.9814    2.2320 H   0  0  0  0  0  0  0  0  0  0  0  0
   13.3588  -12.1513    3.6326 H   0  0  0  0  0  0  0  0  0  0  0  0
   12.6182   -9.7900    3.2077 H   0  0  0  0  0  0  0  0  0  0  0  0
   10.9114   -9.2897    1.4961 H   0  0  0  0  0  0  0  0  0  0  0  0
    8.4480   -7.3031   -0.0458 H   0  0  0  0  0  0  0  0  0  0  0  0
    6.7546   -4.9751   -0.7608 H   0  0  0  0  0  0  0  0  0  0  0  0
    5.7491   -2.9754   -0.1295 H   0  0  0  0  0  0  0  0  0  0  0  0
    4.4033   -1.0940    0.6421 H   0  0  0  0  0  0  0  0  0  0  0  0
  1  2  1  0  0  0  0
  1 29  1  0  0  0  0
  1 30  1  0  0  0  0
  1 31  1  0  0  0  0
  2  3  1  0  0  0  0
  2 32  1  0  0  0  0
  2 33  1  0  0  0  0
  3  4  1  0  0  0  0
  3 28  2  0  0  0  0
  4  5  2  0  0  0  0
  4 34  1  0  0  0  0
  5  6  1  0  0  0  0
  5 35  1  0  0  0  0
  6  7  1  0  0  0  0
  6 27  2  0  0  0  0
  7  8  2  0  0  0  0
  7 26  1  0  0  0  0
  8  9  1  0  0  0  0
  9 10  1  0  0  0  0
  9 25  2  0  0  0  0
 10 11  2  0  0  0  0
 10 36  1  0  0  0  0
 11 12  1  0  0  0  0
 11 37  1  0  0  0  0
 12 13  1  0  0  0  0
 12 24  2  0  0  0  0
 13 14  1  0  0  0  0
 13 38  1  0  0  0  0
 14 15  1  0  0  0  0
 14 23  2  0  0  0  0
 15 16  2  0  0  0  0
 15 39  1  0  0  0  0
 16 17  1  0  0  0  0
 16 40  1  0  0  0  0
 17 18  2  0  0  0  0
 18 19  1  0  0  0  0
 18 23  1  0  0  0  0
 19 20  2  0  0  0  0
 19 41  1  0  0  0  0
 20 21  1  0  0  0  0
 20 42  1  0  0  0  0
 21 22  2  0  0  0  0
 21 43  1  0  0  0  0
 22 23  1  0  0  0  0
 22 44  1  0  0  0  0
 24 25  1  0  0  0  0
 24 45  1  0  0  0  0
 25 26  1  0  0  0  0
 26 46  1  0  0  0  0
 27 28  1  0  0  0  0
 27 47  1  0  0  0  0
 28 48  1  0  0  0  0
M  END
$$$$
