CHEMBL185716
 OpenBabel04072215363D

 61 64  0  0  0  0  0  0  0  0999 V2000
    1.1809   -0.1650   -0.0143 C   0  0  0  0  0  0  0  0  0  0  0  0
    2.6382   -0.1205   -0.1688 N   0  0  0  0  0  0  0  0  0  0  0  0
    3.2541    1.1449   -0.1955 C   0  0  0  0  0  0  0  0  0  0  0  0
    2.7782    2.2241    0.5499 C   0  0  0  0  0  0  0  0  0  0  0  0
    3.4147    3.4684    0.5082 C   0  0  0  0  0  0  0  0  0  0  0  0
    4.5545    3.6742   -0.2714 C   0  0  0  0  0  0  0  0  0  0  0  0
    5.2119    4.9206   -0.3727 N   0  0  0  0  0  0  0  0  0  0  0  0
    4.8944    6.0615    0.3380 C   0  0  0  0  0  0  0  0  0  0  0  0
    4.0756    6.1260    1.2492 O   0  0  0  0  0  0  0  0  0  0  0  0
    5.5860    7.1714   -0.1263 N   0  0  0  0  0  0  0  0  0  0  0  0
    5.3649    8.4358    0.4764 C   0  0  0  0  0  0  0  0  0  0  0  0
    5.3395    8.5905    1.8683 C   0  0  0  0  0  0  0  0  0  0  0  0
    5.0393    9.8340    2.4467 C   0  0  0  0  0  0  0  0  0  0  0  0
    5.0268   10.0097    3.9470 C   0  0  0  0  0  0  0  0  0  0  0  0
    5.3505    8.8814    4.6372 F   0  0  0  0  0  0  0  0  0  0  0  0
    5.9132   10.9602    4.3571 F   0  0  0  0  0  0  0  0  0  0  0  0
    3.8128   10.4050    4.4190 F   0  0  0  0  0  0  0  0  0  0  0  0
    4.7470   10.9203    1.6042 C   0  0  0  0  0  0  0  0  0  0  0  0
    4.7919   10.7741    0.2151 C   0  0  0  0  0  0  0  0  0  0  0  0
    5.1240    9.5416   -0.3377 C   0  0  0  0  0  0  0  0  0  0  0  0
    5.1428    9.4020   -1.6722 F   0  0  0  0  0  0  0  0  0  0  0  0
    5.0514    2.6014   -1.0119 C   0  0  0  0  0  0  0  0  0  0  0  0
    4.4033    1.3581   -0.9769 C   0  0  0  0  0  0  0  0  0  0  0  0
    3.2633   -1.3547    0.1609 C   0  0  0  0  0  0  0  0  0  0  0  0
    4.5380   -1.3588    0.7058 C   0  0  0  0  0  0  0  0  0  0  0  0
    5.0679   -2.5692    1.0509 C   0  0  0  0  0  0  0  0  0  0  0  0
    4.4071   -3.7163    0.8978 N   0  0  0  0  0  0  0  0  0  0  0  0
    3.1787   -3.6554    0.3603 C   0  0  0  0  0  0  0  0  0  0  0  0
    2.4782   -4.8438    0.1769 N   0  0  0  0  0  0  0  0  0  0  0  0
    2.6134   -6.0295    0.9101 C   0  0  0  0  0  0  0  0  0  0  0  0
    3.0036   -6.0109    2.2600 C   0  0  0  0  0  0  0  0  0  0  0  0
    3.2352   -7.1901    2.9646 C   0  0  0  0  0  0  0  0  0  0  0  0
    3.0869   -8.4106    2.3119 C   0  0  0  0  0  0  0  0  0  0  0  0
    3.4097   -9.9061    3.1954 S   0  0  0  0  0  0  0  0  0  0  0  0
    1.8823  -10.2590    3.7939 N   0  0  0  0  0  0  0  0  0  0  0  0
    3.7283  -10.9562    2.2661 O   0  0  0  0  0  0  0  0  0  0  0  0
    4.2293   -9.6142    4.3499 O   0  0  0  0  0  0  0  0  0  0  0  0
    2.7134   -8.4586    0.9653 C   0  0  0  0  0  0  0  0  0  0  0  0
    2.4630   -7.2675    0.2743 C   0  0  0  0  0  0  0  0  0  0  0  0
    2.5927   -2.5140   -0.0283 N   0  0  0  0  0  0  0  0  0  0  0  0
    0.7016    0.7838   -0.2856 H   0  0  0  0  0  0  0  0  0  0  0  0
    0.9017   -0.3935    1.0221 H   0  0  0  0  0  0  0  0  0  0  0  0
    0.7334   -0.9155   -0.6759 H   0  0  0  0  0  0  0  0  0  0  0  0
    1.9152    2.1193    1.2021 H   0  0  0  0  0  0  0  0  0  0  0  0
    2.9763    4.2564    1.1108 H   0  0  0  0  0  0  0  0  0  0  0  0
    6.0417    4.9615   -0.9469 H   0  0  0  0  0  0  0  0  0  0  0  0
    5.7073    7.1948   -1.1319 H   0  0  0  0  0  0  0  0  0  0  0  0
    5.5434    7.7347    2.5120 H   0  0  0  0  0  0  0  0  0  0  0  0
    4.4808   11.8856    2.0337 H   0  0  0  0  0  0  0  0  0  0  0  0
    4.5531   11.6084   -0.4372 H   0  0  0  0  0  0  0  0  0  0  0  0
    5.9367    2.7073   -1.6328 H   0  0  0  0  0  0  0  0  0  0  0  0
    4.7977    0.5442   -1.5827 H   0  0  0  0  0  0  0  0  0  0  0  0
    5.0996   -0.4565    0.8976 H   0  0  0  0  0  0  0  0  0  0  0  0
    6.0592   -2.6543    1.4828 H   0  0  0  0  0  0  0  0  0  0  0  0
    1.6861   -4.7442   -0.4373 H   0  0  0  0  0  0  0  0  0  0  0  0
    3.1256   -5.0625    2.7807 H   0  0  0  0  0  0  0  0  0  0  0  0
    3.5366   -7.1409    4.0078 H   0  0  0  0  0  0  0  0  0  0  0  0
    1.5547  -11.1458    3.4138 H   0  0  0  0  0  0  0  0  0  0  0  0
    1.8844  -10.2076    4.8118 H   0  0  0  0  0  0  0  0  0  0  0  0
    2.6298   -9.4105    0.4462 H   0  0  0  0  0  0  0  0  0  0  0  0
    2.1996   -7.3106   -0.7800 H   0  0  0  0  0  0  0  0  0  0  0  0
  1  2  1  0  0  0  0
  1 41  1  0  0  0  0
  1 42  1  0  0  0  0
  1 43  1  0  0  0  0
  2  3  1  0  0  0  0
  2 24  1  0  0  0  0
  3  4  1  0  0  0  0
  3 23  2  0  0  0  0
  4  5  2  0  0  0  0
  4 44  1  0  0  0  0
  5  6  1  0  0  0  0
  5 45  1  0  0  0  0
  6  7  1  0  0  0  0
  6 22  2  0  0  0  0
  7  8  1  0  0  0  0
  7 46  1  0  0  0  0
  8  9  2  0  0  0  0
  8 10  1  0  0  0  0
 10 11  1  0  0  0  0
 10 47  1  0  0  0  0
 11 12  1  0  0  0  0
 11 20  2  0  0  0  0
 12 13  2  0  0  0  0
 12 48  1  0  0  0  0
 13 14  1  0  0  0  0
 13 18  1  0  0  0  0
 14 15  1  0  0  0  0
 14 16  1  0  0  0  0
 14 17  1  0  0  0  0
 18 19  2  0  0  0  0
 18 49  1  0  0  0  0
 19 20  1  0  0  0  0
 19 50  1  0  0  0  0
 20 21  1  0  0  0  0
 22 23  1  0  0  0  0
 22 51  1  0  0  0  0
 23 52  1  0  0  0  0
 24 25  1  0  0  0  0
 24 40  2  0  0  0  0
 25 26  2  0  0  0  0
 25 53  1  0  0  0  0
 26 27  1  0  0  0  0
 26 54  1  0  0  0  0
 27 28  2  0  0  0  0
 28 29  1  0  0  0  0
 28 40  1  0  0  0  0
 29 30  1  0  0  0  0
 29 55  1  0  0  0  0
 30 31  1  0  0  0  0
 30 39  2  0  0  0  0
 31 32  2  0  0  0  0
 31 56  1  0  0  0  0
 32 33  1  0  0  0  0
 32 57  1  0  0  0  0
 33 34  1  0  0  0  0
 33 38  2  0  0  0  0
 34 35  1  0  0  0  0
 34 36  2  0  0  0  0
 34 37  2  0  0  0  0
 35 58  1  0  0  0  0
 35 59  1  0  0  0  0
 38 39  1  0  0  0  0
 38 60  1  0  0  0  0
 39 61  1  0  0  0  0
M  END
$$$$
