CHEMBL3633696
 OpenBabel04072215373D

 52 55  0  0  0  0  0  0  0  0999 V2000
    9.8430    5.1999   -0.2687 C   0  0  0  0  0  0  0  0  0  0  0  0
    9.1390    4.0700    0.4596 C   0  0  0  0  0  0  0  0  0  0  0  0
    8.0004    3.2368   -0.6230 S   0  0  0  0  0  0  0  0  0  0  0  0
    7.0144    4.2069   -1.0669 O   0  0  0  0  0  0  0  0  0  0  0  0
    8.7509    2.4541   -1.5841 O   0  0  0  0  0  0  0  0  0  0  0  0
    7.1450    2.0770    0.4189 C   0  0  0  0  0  0  0  0  0  0  0  0
    5.7694    2.1965    0.6170 C   0  0  0  0  0  0  0  0  0  0  0  0
    5.0864    1.2159    1.3434 C   0  0  0  0  0  0  0  0  0  0  0  0
    5.7691    0.1040    1.8483 C   0  0  0  0  0  0  0  0  0  0  0  0
    5.1694   -0.9159    2.5488 O   0  0  0  0  0  0  0  0  0  0  0  0
    3.8273   -0.6985    2.9763 C   0  0  0  0  0  0  0  0  0  0  0  0
    7.1605   -0.0253    1.6244 C   0  0  0  0  0  0  0  0  0  0  0  0
    7.8513   -1.1864    2.0529 N   0  0  0  0  0  0  0  0  0  0  0  0
    9.1243   -1.2744    2.4773 C   0  0  0  0  0  0  0  0  0  0  0  0
    9.9550   -2.3553    2.3425 C   0  0  0  0  0  0  0  0  0  0  0  0
   11.1034   -1.9935    3.0111 N   0  0  0  0  0  0  0  0  0  0  0  0
   12.2814   -2.7506    3.2455 C   0  0  0  0  0  0  0  0  0  0  0  0
   13.2641   -2.2300    4.0983 C   0  0  0  0  0  0  0  0  0  0  0  0
   14.4124   -2.9661    4.3710 C   0  0  0  0  0  0  0  0  0  0  0  0
   14.5814   -4.2271    3.8027 C   0  0  0  0  0  0  0  0  0  0  0  0
   13.6096   -4.7910    2.9539 C   0  0  0  0  0  0  0  0  0  0  0  0
   13.7732   -6.1555    2.4082 C   0  0  0  0  0  0  0  0  0  0  0  0
   14.3999   -7.1743    3.1317 C   0  0  0  0  0  0  0  0  0  0  0  0
   14.5251   -8.4418    2.5701 C   0  0  0  0  0  0  0  0  0  0  0  0
   14.0266   -8.6695    1.2942 C   0  0  0  0  0  0  0  0  0  0  0  0
   13.4085   -7.6162    0.6435 C   0  0  0  0  0  0  0  0  0  0  0  0
   13.2639   -6.3764    1.1687 N   0  0  0  0  0  0  0  0  0  0  0  0
   12.4644   -4.0188    2.6667 C   0  0  0  0  0  0  0  0  0  0  0  0
   10.9648   -0.7318    3.4976 N   0  0  0  0  0  0  0  0  0  0  0  0
    9.7639   -0.2825    3.1601 N   0  0  0  0  0  0  0  0  0  0  0  0
    7.8445    0.9865    0.9335 C   0  0  0  0  0  0  0  0  0  0  0  0
   10.5716    5.6859    0.3859 H   0  0  0  0  0  0  0  0  0  0  0  0
    9.1258    5.9583   -0.6013 H   0  0  0  0  0  0  0  0  0  0  0  0
   10.3681    4.8313   -1.1561 H   0  0  0  0  0  0  0  0  0  0  0  0
    8.5707    4.4615    1.3076 H   0  0  0  0  0  0  0  0  0  0  0  0
    9.8651    3.3340    0.8155 H   0  0  0  0  0  0  0  0  0  0  0  0
    5.2123    3.0261    0.1866 H   0  0  0  0  0  0  0  0  0  0  0  0
    4.0151    1.3379    1.4668 H   0  0  0  0  0  0  0  0  0  0  0  0
    3.5350   -1.5364    3.6166 H   0  0  0  0  0  0  0  0  0  0  0  0
    3.1453   -0.6831    2.1198 H   0  0  0  0  0  0  0  0  0  0  0  0
    3.7349    0.2184    3.5697 H   0  0  0  0  0  0  0  0  0  0  0  0
    7.3610   -2.0183    1.7370 H   0  0  0  0  0  0  0  0  0  0  0  0
    9.8275   -3.3104    1.8620 H   0  0  0  0  0  0  0  0  0  0  0  0
   13.1457   -1.2581    4.5744 H   0  0  0  0  0  0  0  0  0  0  0  0
   15.1725   -2.5627    5.0363 H   0  0  0  0  0  0  0  0  0  0  0  0
   15.5004   -4.7672    4.0244 H   0  0  0  0  0  0  0  0  0  0  0  0
   14.7711   -7.0030    4.1376 H   0  0  0  0  0  0  0  0  0  0  0  0
   15.0101   -9.2404    3.1246 H   0  0  0  0  0  0  0  0  0  0  0  0
   14.1127   -9.6411    0.8246 H   0  0  0  0  0  0  0  0  0  0  0  0
   13.0010   -7.7457   -0.3561 H   0  0  0  0  0  0  0  0  0  0  0  0
   11.7268   -4.4407    1.9877 H   0  0  0  0  0  0  0  0  0  0  0  0
    8.9088    0.8802    0.7362 H   0  0  0  0  0  0  0  0  0  0  0  0
  1  2  1  0  0  0  0
  1 32  1  0  0  0  0
  1 33  1  0  0  0  0
  1 34  1  0  0  0  0
  2  3  1  0  0  0  0
  2 35  1  0  0  0  0
  2 36  1  0  0  0  0
  3  4  2  0  0  0  0
  3  5  2  0  0  0  0
  3  6  1  0  0  0  0
  6  7  1  0  0  0  0
  6 31  2  0  0  0  0
  7  8  2  0  0  0  0
  7 37  1  0  0  0  0
  8  9  1  0  0  0  0
  8 38  1  0  0  0  0
  9 10  1  0  0  0  0
  9 12  2  0  0  0  0
 10 11  1  0  0  0  0
 11 39  1  0  0  0  0
 11 40  1  0  0  0  0
 11 41  1  0  0  0  0
 12 13  1  0  0  0  0
 12 31  1  0  0  0  0
 13 14  1  0  0  0  0
 13 42  1  0  0  0  0
 14 15  2  0  0  0  0
 14 30  1  0  0  0  0
 15 16  1  0  0  0  0
 15 43  1  0  0  0  0
 16 17  1  0  0  0  0
 16 29  1  0  0  0  0
 17 18  1  0  0  0  0
 17 28  2  0  0  0  0
 18 19  2  0  0  0  0
 18 44  1  0  0  0  0
 19 20  1  0  0  0  0
 19 45  1  0  0  0  0
 20 21  2  0  0  0  0
 20 46  1  0  0  0  0
 21 22  1  0  0  0  0
 21 28  1  0  0  0  0
 22 23  1  0  0  0  0
 22 27  2  0  0  0  0
 23 24  2  0  0  0  0
 23 47  1  0  0  0  0
 24 25  1  0  0  0  0
 24 48  1  0  0  0  0
 25 26  2  0  0  0  0
 25 49  1  0  0  0  0
 26 27  1  0  0  0  0
 26 50  1  0  0  0  0
 28 51  1  0  0  0  0
 29 30  2  0  0  0  0
 31 52  1  0  0  0  0
M  END
$$$$
