CHEMBL3928923
 OpenBabel04072215373D

 64 67  0  0  1  0  0  0  0  0999 V2000
    7.2295    3.0112   -0.6221 C   0  0  0  0  0  0  0  0  0  0  0  0
    6.5762    1.8513   -1.1438 O   0  0  0  0  0  0  0  0  0  0  0  0
    5.2101    1.8510   -1.0894 C   0  0  0  0  0  0  0  0  0  0  0  0
    4.6064    3.1001   -1.1687 C   0  0  0  0  0  0  0  0  0  0  0  0
    3.2467    3.2585   -1.2447 C   0  0  0  0  0  0  0  0  0  0  0  0
    2.6730    4.5802   -1.1961 N   0  0  0  0  0  0  0  0  0  0  0  0
    3.4710    5.7394   -1.7334 C   0  0  0  0  0  0  0  0  0  0  0  0
    3.8555    5.6576   -3.1994 C   0  0  0  0  0  0  0  0  0  0  0  0
    4.6438    6.7436   -3.8415 C   0  0  0  0  0  0  0  0  0  0  0  0
    3.8919    7.9982   -3.7439 N   0  0  0  0  0  0  0  0  0  0  0  0
    1.7042    5.0043   -0.1677 C   0  0  0  0  0  0  0  0  0  0  0  0
    0.8148    5.9513   -0.5737 C   0  0  0  0  0  0  0  0  0  0  0  0
   -0.0483    6.4380    0.3526 C   0  0  0  0  0  0  0  0  0  0  0  0
   -0.0141    6.1611    1.6742 C   0  0  0  0  0  0  0  0  0  0  0  0
   -0.1034    7.3159    2.1879 N   0  0  0  0  0  0  0  0  0  0  0  0
   -1.3298    7.5995    2.3925 C   0  0  0  0  0  0  0  0  0  0  0  0
   -1.7773    7.0659    3.4893 C   0  0  0  0  0  0  0  0  0  0  0  0
   -2.9767    8.3599    3.8700 C   0  0  0  0  0  0  0  0  0  0  0  0
   -3.8681    9.3841    3.1252 C   0  0  0  0  0  0  0  0  0  0  0  0
   -5.0387    9.7913    3.7157 N   0  0  0  0  0  0  0  0  0  0  0  0
   -5.1813    9.0367    4.8134 N   0  0  0  0  0  0  0  0  0  0  0  0
   -6.4133    9.1513    5.6713 C   0  0  0  0  0  0  0  0  0  0  0  0
   -4.0375    8.1613    4.8951 C   0  0  0  0  0  0  0  0  0  0  0  0
   -0.8197    5.7555    3.6843 N   0  0  0  0  0  0  0  0  0  0  0  0
    0.3559    5.1980    2.4892 C   0  0  0  0  0  0  0  0  0  0  0  0
    1.5518    4.6209    1.3067 C   0  0  0  0  0  0  0  0  0  0  0  0
    2.5892    2.0192   -1.2783 C   0  0  0  0  0  0  0  0  0  0  0  0
    3.1026    0.7428   -1.3277 C   0  0  0  0  0  0  0  0  0  0  0  0
    2.2814   -0.3483   -1.5121 O   0  0  0  0  0  0  0  0  0  0  0  0
    1.0615   -0.1845   -2.2766 C   0  0  0  0  0  0  0  0  0  0  0  0
    4.4588    0.6443   -1.1141 C   0  0  0  0  0  0  0  0  0  0  0  0
    5.0169   -0.7116   -0.7623 C   0  0  3  0  0  0  0  0  0  0  0  0
    6.3667   -0.8130   -1.2474 O   0  0  0  0  0  0  0  0  0  0  0  0
    4.9544   -0.9995    0.7319 C   0  0  0  0  0  0  0  0  0  0  0  0
    4.4045    0.0540    1.3870 F   0  0  0  0  0  0  0  0  0  0  0  0
    4.2661   -2.1369    0.9905 F   0  0  0  0  0  0  0  0  0  0  0  0
    6.1787   -1.1725    1.2674 F   0  0  0  0  0  0  0  0  0  0  0  0
    8.3040    2.8138   -0.6499 H   0  0  0  0  0  0  0  0  0  0  0  0
    6.9381    3.1976    0.4169 H   0  0  0  0  0  0  0  0  0  0  0  0
    7.0524    3.8959   -1.2358 H   0  0  0  0  0  0  0  0  0  0  0  0
    5.2421    3.9686   -1.1502 H   0  0  0  0  0  0  0  0  0  0  0  0
    4.4068    5.9030   -1.1823 H   0  0  0  0  0  0  0  0  0  0  0  0
    2.8252    6.6083   -1.6337 H   0  0  0  0  0  0  0  0  0  0  0  0
    2.9025    5.6820   -3.7535 H   0  0  0  0  0  0  0  0  0  0  0  0
    4.4920    4.7614   -3.3222 H   0  0  0  0  0  0  0  0  0  0  0  0
    4.8057    6.4770   -4.8823 H   0  0  0  0  0  0  0  0  0  0  0  0
    5.5731    6.8324   -3.2838 H   0  0  0  0  0  0  0  0  0  0  0  0
    3.0124    7.9478   -4.2598 H   0  0  0  0  0  0  0  0  0  0  0  0
    4.4316    8.7395   -4.1843 H   0  0  0  0  0  0  0  0  0  0  0  0
    0.8360    6.5037   -1.5043 H   0  0  0  0  0  0  0  0  0  0  0  0
   -0.6308    7.3087    0.0738 H   0  0  0  0  0  0  0  0  0  0  0  0
   -1.7543    8.3528    1.7926 H   0  0  0  0  0  0  0  0  0  0  0  0
   -3.7782    9.8902    2.1646 H   0  0  0  0  0  0  0  0  0  0  0  0
   -7.0753   10.0075    5.4118 H   0  0  0  0  0  0  0  0  0  0  0  0
   -6.1500    9.2935    6.7301 H   0  0  0  0  0  0  0  0  0  0  0  0
   -7.0512    8.2560    5.5960 H   0  0  0  0  0  0  0  0  0  0  0  0
   -4.1536    7.4381    5.6830 H   0  0  0  0  0  0  0  0  0  0  0  0
    2.3948    3.9206    1.5475 H   0  0  0  0  0  0  0  0  0  0  0  0
    1.5558    1.8828   -1.1631 H   0  0  0  0  0  0  0  0  0  0  0  0
    0.5961   -1.1609   -2.4326 H   0  0  0  0  0  0  0  0  0  0  0  0
    1.2304    0.2492   -3.2758 H   0  0  0  0  0  0  0  0  0  0  0  0
    0.3333    0.4204   -1.7195 H   0  0  0  0  0  0  0  0  0  0  0  0
    4.4130   -1.4713   -1.2841 H   0  0  0  0  0  0  0  0  0  0  0  0
    6.8463   -0.0788   -0.8255 H   0  0  0  0  0  0  0  0  0  0  0  0
  1  2  1  0  0  0  0
  1 38  1  0  0  0  0
  1 39  1  0  0  0  0
  1 40  1  0  0  0  0
  2  3  1  0  0  0  0
  3  4  1  0  0  0  0
  3 31  2  0  0  0  0
  4  5  2  0  0  0  0
  4 41  1  0  0  0  0
  5  6  1  0  0  0  0
  5 27  1  0  0  0  0
  6  7  1  0  0  0  0
  6 11  1  0  0  0  0
  7  8  1  0  0  0  0
  7 42  1  0  0  0  0
  7 43  1  0  0  0  0
  8  9  1  0  0  0  0
  8 44  1  0  0  0  0
  8 45  1  0  0  0  0
  9 10  1  0  0  0  0
  9 46  1  0  0  0  0
  9 47  1  0  0  0  0
 10 48  1  0  0  0  0
 10 49  1  0  0  0  0
 11 12  1  0  0  0  0
 11 26  2  0  0  0  0
 12 13  2  0  0  0  0
 12 50  1  0  0  0  0
 13 14  1  0  0  0  0
 13 51  1  0  0  0  0
 14 15  1  0  0  0  0
 14 25  2  0  0  0  0
 15 16  2  0  0  0  0
 16 17  1  0  0  0  0
 16 52  1  0  0  0  0
 17 18  1  0  0  0  0
 17 24  2  0  0  0  0
 18 19  1  0  0  0  0
 18 23  2  0  0  0  0
 19 20  2  0  0  0  0
 19 53  1  0  0  0  0
 20 21  1  0  0  0  0
 21 22  1  0  0  0  0
 21 23  1  0  0  0  0
 22 54  1  0  0  0  0
 22 55  1  0  0  0  0
 22 56  1  0  0  0  0
 23 57  1  0  0  0  0
 24 25  1  0  0  0  0
 25 26  1  0  0  0  0
 26 58  1  0  0  0  0
 27 28  2  0  0  0  0
 27 59  1  0  0  0  0
 28 29  1  0  0  0  0
 28 31  1  0  0  0  0
 29 30  1  0  0  0  0
 30 60  1  0  0  0  0
 30 61  1  0  0  0  0
 30 62  1  0  0  0  0
 31 32  1  0  0  0  0
 32 33  1  0  0  0  0
 32 34  1  0  0  0  0
 32 63  1  0  0  0  0
 33 64  1  0  0  0  0
 34 35  1  0  0  0  0
 34 36  1  0  0  0  0
 34 37  1  0  0  0  0
M  END
$$$$
