CHEMBL3936421
 OpenBabel04072215373D

 62 66  0  0  0  0  0  0  0  0999 V2000
   -0.2944   -4.2437   -0.5279 C   0  0  0  0  0  0  0  0  0  0  0  0
   -0.1132   -2.7739   -0.8766 C   0  0  0  0  0  0  0  0  0  0  0  0
    1.2292   -2.5816   -1.3842 N   0  0  0  0  0  0  0  0  0  0  0  0
    1.5663   -2.7284   -2.7078 C   0  0  0  0  0  0  0  0  0  0  0  0
    2.9010   -3.0392   -2.6873 C   0  0  0  0  0  0  0  0  0  0  0  0
    3.4070   -2.8920   -1.4171 N   0  0  0  0  0  0  0  0  0  0  0  0
    2.3855   -2.5919   -0.6209 C   0  0  0  0  0  0  0  0  0  0  0  0
    2.4528   -2.5636    0.9237 C   0  0  0  0  0  0  0  0  0  0  0  0
    1.7437   -1.5548    1.7914 N   0  0  0  0  0  0  0  0  0  0  0  0
    2.0916   -0.1541    1.5676 C   0  0  0  0  0  0  0  0  0  0  0  0
    2.1717    0.4498    0.2984 C   0  0  0  0  0  0  0  0  0  0  0  0
    2.5202    1.8065    0.1518 C   0  0  0  0  0  0  0  0  0  0  0  0
    2.6988    2.4977   -1.0184 O   0  0  0  0  0  0  0  0  0  0  0  0
    2.6518    1.7818   -2.2390 C   0  0  0  0  0  0  0  0  0  0  0  0
    2.7030    2.6293    1.2640 C   0  0  0  0  0  0  0  0  0  0  0  0
    2.5128    2.1133    2.5327 C   0  0  0  0  0  0  0  0  0  0  0  0
    2.5403    2.8432    3.6865 O   0  0  0  0  0  0  0  0  0  0  0  0
    2.3467    4.2507    3.5397 C   0  0  0  0  0  0  0  0  0  0  0  0
    2.2854    0.7355    2.6643 C   0  0  0  0  0  0  0  0  0  0  0  0
    1.3126   -1.9988    3.1083 C   0  0  0  0  0  0  0  0  0  0  0  0
    0.3360   -1.2049    3.7011 C   0  0  0  0  0  0  0  0  0  0  0  0
    0.1865   -1.1800    5.0825 C   0  0  0  0  0  0  0  0  0  0  0  0
    0.8121   -2.0803    5.9024 C   0  0  0  0  0  0  0  0  0  0  0  0
    0.6575   -1.8411    7.2118 N   0  0  0  0  0  0  0  0  0  0  0  0
    0.9866   -2.8376    8.0400 C   0  0  0  0  0  0  0  0  0  0  0  0
    1.3790   -4.0734    7.5659 C   0  0  0  0  0  0  0  0  0  0  0  0
    1.0271   -5.1966    8.4372 C   0  0  0  0  0  0  0  0  0  0  0  0
    1.7721   -6.0932    9.2343 C   0  0  0  0  0  0  0  0  0  0  0  0
    1.0002   -6.8577   10.0248 N   0  0  0  0  0  0  0  0  0  0  0  0
   -0.2502   -6.4535    9.7400 N   0  0  0  0  0  0  0  0  0  0  0  0
   -1.3992   -7.1311   10.2987 C   0  0  0  0  0  0  0  0  0  0  0  0
   -0.2759   -5.3916    8.8835 C   0  0  0  0  0  0  0  0  0  0  0  0
    1.7189   -4.2485    6.2344 N   0  0  0  0  0  0  0  0  0  0  0  0
    1.4779   -3.1906    5.3506 C   0  0  0  0  0  0  0  0  0  0  0  0
    1.8048   -3.0652    3.9323 C   0  0  0  0  0  0  0  0  0  0  0  0
   -0.8829   -4.3506    0.3846 H   0  0  0  0  0  0  0  0  0  0  0  0
    0.6612   -4.7617   -0.3766 H   0  0  0  0  0  0  0  0  0  0  0  0
   -0.8064   -4.7665   -1.3416 H   0  0  0  0  0  0  0  0  0  0  0  0
   -0.2393   -2.1185   -0.0132 H   0  0  0  0  0  0  0  0  0  0  0  0
   -0.8279   -2.4572   -1.6473 H   0  0  0  0  0  0  0  0  0  0  0  0
    0.8321   -2.7526   -3.5037 H   0  0  0  0  0  0  0  0  0  0  0  0
    3.5079   -3.3966   -3.5131 H   0  0  0  0  0  0  0  0  0  0  0  0
    3.5173   -2.5538    1.1920 H   0  0  0  0  0  0  0  0  0  0  0  0
    2.0777   -3.5580    1.1982 H   0  0  0  0  0  0  0  0  0  0  0  0
    1.9233   -0.1072   -0.5919 H   0  0  0  0  0  0  0  0  0  0  0  0
    3.1083    2.4174   -3.0056 H   0  0  0  0  0  0  0  0  0  0  0  0
    1.6110    1.6045   -2.5203 H   0  0  0  0  0  0  0  0  0  0  0  0
    3.2254    0.8533   -2.1973 H   0  0  0  0  0  0  0  0  0  0  0  0
    2.9925    3.6625    1.1136 H   0  0  0  0  0  0  0  0  0  0  0  0
    2.0549    4.6599    4.5121 H   0  0  0  0  0  0  0  0  0  0  0  0
    1.5417    4.4919    2.8344 H   0  0  0  0  0  0  0  0  0  0  0  0
    3.2825    4.7323    3.2383 H   0  0  0  0  0  0  0  0  0  0  0  0
    2.2336    0.3761    3.6901 H   0  0  0  0  0  0  0  0  0  0  0  0
   -0.1966   -0.4570    3.1267 H   0  0  0  0  0  0  0  0  0  0  0  0
   -0.4339   -0.4000    5.5349 H   0  0  0  0  0  0  0  0  0  0  0  0
    0.7793   -2.6550    9.0906 H   0  0  0  0  0  0  0  0  0  0  0  0
    2.8448   -6.2074    9.3112 H   0  0  0  0  0  0  0  0  0  0  0  0
   -1.0966   -8.1023   10.6988 H   0  0  0  0  0  0  0  0  0  0  0  0
   -2.1309   -7.2814    9.4989 H   0  0  0  0  0  0  0  0  0  0  0  0
   -1.8317   -6.5129   11.0900 H   0  0  0  0  0  0  0  0  0  0  0  0
   -1.2016   -4.8762    8.6614 H   0  0  0  0  0  0  0  0  0  0  0  0
    2.5004   -3.7973    3.5214 H   0  0  0  0  0  0  0  0  0  0  0  0
  1  2  1  0  0  0  0
  1 36  1  0  0  0  0
  1 37  1  0  0  0  0
  1 38  1  0  0  0  0
  2  3  1  0  0  0  0
  2 39  1  0  0  0  0
  2 40  1  0  0  0  0
  3  4  1  0  0  0  0
  3  7  1  0  0  0  0
  4  5  2  0  0  0  0
  4 41  1  0  0  0  0
  5  6  1  0  0  0  0
  5 42  1  0  0  0  0
  6  7  2  0  0  0  0
  7  8  1  0  0  0  0
  8  9  1  0  0  0  0
  8 43  1  0  0  0  0
  8 44  1  0  0  0  0
  9 10  1  0  0  0  0
  9 20  1  0  0  0  0
 10 11  1  0  0  0  0
 10 19  2  0  0  0  0
 11 12  2  0  0  0  0
 11 45  1  0  0  0  0
 12 13  1  0  0  0  0
 12 15  1  0  0  0  0
 13 14  1  0  0  0  0
 14 46  1  0  0  0  0
 14 47  1  0  0  0  0
 14 48  1  0  0  0  0
 15 16  2  0  0  0  0
 15 49  1  0  0  0  0
 16 17  1  0  0  0  0
 16 19  1  0  0  0  0
 17 18  1  0  0  0  0
 18 50  1  0  0  0  0
 18 51  1  0  0  0  0
 18 52  1  0  0  0  0
 19 53  1  0  0  0  0
 20 21  1  0  0  0  0
 20 35  2  0  0  0  0
 21 22  2  0  0  0  0
 21 54  1  0  0  0  0
 22 23  1  0  0  0  0
 22 55  1  0  0  0  0
 23 24  1  0  0  0  0
 23 34  2  0  0  0  0
 24 25  2  0  0  0  0
 25 26  1  0  0  0  0
 25 56  1  0  0  0  0
 26 27  1  0  0  0  0
 26 33  2  0  0  0  0
 27 28  1  0  0  0  0
 27 32  2  0  0  0  0
 28 29  2  0  0  0  0
 28 57  1  0  0  0  0
 29 30  1  0  0  0  0
 30 31  1  0  0  0  0
 30 32  1  0  0  0  0
 31 58  1  0  0  0  0
 31 59  1  0  0  0  0
 31 60  1  0  0  0  0
 32 61  1  0  0  0  0
 33 34  1  0  0  0  0
 34 35  1  0  0  0  0
 35 62  1  0  0  0  0
M  END
$$$$
