CHEMBL3690447
 OpenBabel04072215373D

 47 50  0  0  0  0  0  0  0  0999 V2000
   -2.0906   -0.3278    1.1289 N   0  0  0  0  0  0  0  0  0  0  0  0
   -0.8063   -0.1826    0.5988 C   0  0  0  0  0  0  0  0  0  0  0  0
   -0.3110    1.0710    0.6093 N   0  0  0  0  0  0  0  0  0  0  0  0
    0.9041    1.2324    0.0338 C   0  0  0  0  0  0  0  0  0  0  0  0
    1.6086    0.1858   -0.5363 C   0  0  0  0  0  0  0  0  0  0  0  0
    1.1350   -1.0786   -0.5552 N   0  0  0  0  0  0  0  0  0  0  0  0
   -0.0863   -1.2465    0.0170 C   0  0  0  0  0  0  0  0  0  0  0  0
   -0.6399   -2.6105   -0.0384 C   0  0  0  0  0  0  0  0  0  0  0  0
   -1.5607   -3.0204   -1.0968 C   0  0  0  0  0  0  0  0  0  0  0  0
   -2.1148   -4.2416   -1.0607 C   0  0  0  0  0  0  0  0  0  0  0  0
   -1.7769   -5.1281   -0.0354 N   0  0  0  0  0  0  0  0  0  0  0  0
   -2.1742   -6.4389    0.2086 C   0  0  0  0  0  0  0  0  0  0  0  0
   -3.0701   -7.2704   -0.6105 C   0  0  0  0  0  0  0  0  0  0  0  0
   -3.9240   -8.1780    0.0317 C   0  0  0  0  0  0  0  0  0  0  0  0
   -4.7728   -9.0001   -0.7030 C   0  0  0  0  0  0  0  0  0  0  0  0
   -4.8109   -8.9020   -2.0915 C   0  0  0  0  0  0  0  0  0  0  0  0
   -3.9930   -7.9974   -2.7661 C   0  0  0  0  0  0  0  0  0  0  0  0
   -4.0348   -7.8214   -4.1712 N   0  0  0  0  0  0  0  0  0  0  0  0
   -4.8875   -8.4475   -5.0512 C   0  0  0  0  0  0  0  0  0  0  0  0
   -5.7538   -9.2652   -4.7819 O   0  0  0  0  0  0  0  0  0  0  0  0
   -4.6432   -8.0983   -6.3622 N   0  0  0  0  0  0  0  0  0  0  0  0
   -5.4829   -8.7144   -7.4007 C   0  0  0  0  0  0  0  0  0  0  0  0
   -6.8954   -8.1322   -7.5681 C   0  0  0  0  0  0  0  0  0  0  0  0
   -7.0595   -6.9870   -6.8667 F   0  0  0  0  0  0  0  0  0  0  0  0
   -7.1118   -7.8238   -8.8725 F   0  0  0  0  0  0  0  0  0  0  0  0
   -7.8607   -8.9982   -7.1980 F   0  0  0  0  0  0  0  0  0  0  0  0
   -3.0905   -7.2206   -2.0184 C   0  0  0  0  0  0  0  0  0  0  0  0
   -1.5727   -6.7424    1.4241 C   0  0  0  0  0  0  0  0  0  0  0  0
   -0.8025   -5.7175    1.8989 N   0  0  0  0  0  0  0  0  0  0  0  0
   -0.9146   -4.7658    1.0017 C   0  0  0  0  0  0  0  0  0  0  0  0
   -0.3386   -3.4630    0.9668 C   0  0  0  0  0  0  0  0  0  0  0  0
   -2.3529    0.5594    1.5495 H   0  0  0  0  0  0  0  0  0  0  0  0
   -2.1547   -1.1032    1.7797 H   0  0  0  0  0  0  0  0  0  0  0  0
    1.2982    2.2420    0.0392 H   0  0  0  0  0  0  0  0  0  0  0  0
    2.5761    0.3406   -1.0009 H   0  0  0  0  0  0  0  0  0  0  0  0
   -1.7917   -2.3132   -1.8872 H   0  0  0  0  0  0  0  0  0  0  0  0
   -2.8310   -4.5579   -1.8037 H   0  0  0  0  0  0  0  0  0  0  0  0
   -3.9410   -8.2601    1.1161 H   0  0  0  0  0  0  0  0  0  0  0  0
   -5.4165   -9.7155   -0.1979 H   0  0  0  0  0  0  0  0  0  0  0  0
   -5.4948   -9.5612   -2.6154 H   0  0  0  0  0  0  0  0  0  0  0  0
   -3.3812   -7.1607   -4.5668 H   0  0  0  0  0  0  0  0  0  0  0  0
   -4.3310   -7.1533   -6.5285 H   0  0  0  0  0  0  0  0  0  0  0  0
   -5.5652   -9.7867   -7.1863 H   0  0  0  0  0  0  0  0  0  0  0  0
   -4.9289   -8.6168   -8.3392 H   0  0  0  0  0  0  0  0  0  0  0  0
   -2.3919   -6.5760   -2.5432 H   0  0  0  0  0  0  0  0  0  0  0  0
   -1.6534   -7.6676    1.9818 H   0  0  0  0  0  0  0  0  0  0  0  0
    0.3250   -3.1868    1.7803 H   0  0  0  0  0  0  0  0  0  0  0  0
  1  2  1  0  0  0  0
  1 32  1  0  0  0  0
  1 33  1  0  0  0  0
  2  3  1  0  0  0  0
  2  7  2  0  0  0  0
  3  4  2  0  0  0  0
  4  5  1  0  0  0  0
  4 34  1  0  0  0  0
  5  6  2  0  0  0  0
  5 35  1  0  0  0  0
  6  7  1  0  0  0  0
  7  8  1  0  0  0  0
  8  9  1  0  0  0  0
  8 31  2  0  0  0  0
  9 10  2  0  0  0  0
  9 36  1  0  0  0  0
 10 11  1  0  0  0  0
 10 37  1  0  0  0  0
 11 12  1  0  0  0  0
 11 30  1  0  0  0  0
 12 13  1  0  0  0  0
 12 28  2  0  0  0  0
 13 14  1  0  0  0  0
 13 27  2  0  0  0  0
 14 15  2  0  0  0  0
 14 38  1  0  0  0  0
 15 16  1  0  0  0  0
 15 39  1  0  0  0  0
 16 17  2  0  0  0  0
 16 40  1  0  0  0  0
 17 18  1  0  0  0  0
 17 27  1  0  0  0  0
 18 19  1  0  0  0  0
 18 41  1  0  0  0  0
 19 20  2  0  0  0  0
 19 21  1  0  0  0  0
 21 22  1  0  0  0  0
 21 42  1  0  0  0  0
 22 23  1  0  0  0  0
 22 43  1  0  0  0  0
 22 44  1  0  0  0  0
 23 24  1  0  0  0  0
 23 25  1  0  0  0  0
 23 26  1  0  0  0  0
 27 45  1  0  0  0  0
 28 29  1  0  0  0  0
 28 46  1  0  0  0  0
 29 30  2  0  0  0  0
 30 31  1  0  0  0  0
 31 47  1  0  0  0  0
M  END
$$$$
