CHEMBL3109274
 OpenBabel04072215363D

 61 65  0  0  0  0  0  0  0  0999 V2000
    6.5512    9.2913    0.2054 C   0  0  0  0  0  0  0  0  0  0  0  0
    6.3288    7.7985    0.0730 C   0  0  0  0  0  0  0  0  0  0  0  0
    5.6371    7.1120    1.5666 S   0  0  0  0  0  0  0  0  0  0  0  0
    6.5721    7.3121    2.6567 O   0  0  0  0  0  0  0  0  0  0  0  0
    4.2587    7.5615    1.6817 O   0  0  0  0  0  0  0  0  0  0  0  0
    5.5948    5.3700    1.2208 C   0  0  0  0  0  0  0  0  0  0  0  0
    4.4450    4.7821    0.7075 C   0  0  0  0  0  0  0  0  0  0  0  0
    4.4217    3.4032    0.4632 C   0  0  0  0  0  0  0  0  0  0  0  0
    5.5509    2.6122    0.7321 C   0  0  0  0  0  0  0  0  0  0  0  0
    5.5755    1.2462    0.5817 O   0  0  0  0  0  0  0  0  0  0  0  0
    4.6481    0.6774   -0.3413 C   0  0  0  0  0  0  0  0  0  0  0  0
    6.7331    3.2212    1.2164 C   0  0  0  0  0  0  0  0  0  0  0  0
    7.9072    2.4705    1.4691 N   0  0  0  0  0  0  0  0  0  0  0  0
    9.1426    2.9595    1.2223 C   0  0  0  0  0  0  0  0  0  0  0  0
    9.5239    3.8877    0.3670 N   0  0  0  0  0  0  0  0  0  0  0  0
   10.8837    3.9621    0.5342 C   0  0  0  0  0  0  0  0  0  0  0  0
   11.2880    3.0963    1.5197 C   0  0  0  0  0  0  0  0  0  0  0  0
   12.5553    2.7496    2.1393 C   0  0  0  0  0  0  0  0  0  0  0  0
   12.5642    2.2776    3.4527 C   0  0  0  0  0  0  0  0  0  0  0  0
   13.7441    1.8707    4.0924 C   0  0  0  0  0  0  0  0  0  0  0  0
   13.6997    1.2261    5.4170 C   0  0  0  0  0  0  0  0  0  0  0  0
   12.6171    0.4276    5.7893 C   0  0  0  0  0  0  0  0  0  0  0  0
   12.6205   -0.1961    7.0296 C   0  0  0  0  0  0  0  0  0  0  0  0
   13.7097   -0.0147    7.8696 C   0  0  0  0  0  0  0  0  0  0  0  0
   14.7540    0.7829    7.4232 C   0  0  0  0  0  0  0  0  0  0  0  0
   14.7758    1.3942    6.2222 N   0  0  0  0  0  0  0  0  0  0  0  0
   14.9434    2.0025    3.3854 C   0  0  0  0  0  0  0  0  0  0  0  0
   14.9809    2.4274    2.0435 C   0  0  0  0  0  0  0  0  0  0  0  0
   16.2299    2.3295    1.2592 C   0  0  0  0  0  0  0  0  0  0  0  0
   17.1614    1.3134    1.5027 C   0  0  0  0  0  0  0  0  0  0  0  0
   18.2883    1.2020    0.6957 C   0  0  0  0  0  0  0  0  0  0  0  0
   18.4648    2.1071   -0.3364 C   0  0  0  0  0  0  0  0  0  0  0  0
   17.5041    3.0871   -0.5184 C   0  0  0  0  0  0  0  0  0  0  0  0
   16.3924    3.2129    0.2454 N   0  0  0  0  0  0  0  0  0  0  0  0
   13.7702    2.8334    1.4470 C   0  0  0  0  0  0  0  0  0  0  0  0
   10.1647    2.4391    1.9669 O   0  0  0  0  0  0  0  0  0  0  0  0
    6.7216    4.6016    1.4964 C   0  0  0  0  0  0  0  0  0  0  0  0
    6.9438    9.7050   -0.7283 H   0  0  0  0  0  0  0  0  0  0  0  0
    7.2680    9.5096    1.0031 H   0  0  0  0  0  0  0  0  0  0  0  0
    5.6173    9.8096    0.4454 H   0  0  0  0  0  0  0  0  0  0  0  0
    7.2770    7.2900   -0.1240 H   0  0  0  0  0  0  0  0  0  0  0  0
    5.6310    7.5852   -0.7423 H   0  0  0  0  0  0  0  0  0  0  0  0
    3.5552    5.3790    0.5095 H   0  0  0  0  0  0  0  0  0  0  0  0
    3.5027    2.9751    0.0763 H   0  0  0  0  0  0  0  0  0  0  0  0
    4.8723   -0.3917   -0.4221 H   0  0  0  0  0  0  0  0  0  0  0  0
    4.7623    1.1167   -1.3382 H   0  0  0  0  0  0  0  0  0  0  0  0
    3.6131    0.7619    0.0079 H   0  0  0  0  0  0  0  0  0  0  0  0
    7.8051    1.8653    2.2736 H   0  0  0  0  0  0  0  0  0  0  0  0
   11.4916    4.6402   -0.0488 H   0  0  0  0  0  0  0  0  0  0  0  0
   11.6199    2.2202    3.9907 H   0  0  0  0  0  0  0  0  0  0  0  0
   11.7827    0.2649    5.1167 H   0  0  0  0  0  0  0  0  0  0  0  0
   11.7845   -0.8170    7.3251 H   0  0  0  0  0  0  0  0  0  0  0  0
   13.7460   -0.4872    8.8420 H   0  0  0  0  0  0  0  0  0  0  0  0
   15.6320    0.9439    8.0459 H   0  0  0  0  0  0  0  0  0  0  0  0
   15.8670    1.7124    3.8882 H   0  0  0  0  0  0  0  0  0  0  0  0
   17.0043    0.5860    2.2943 H   0  0  0  0  0  0  0  0  0  0  0  0
   19.0045    0.4061    0.8740 H   0  0  0  0  0  0  0  0  0  0  0  0
   19.3283    2.0452   -0.9871 H   0  0  0  0  0  0  0  0  0  0  0  0
   17.6027    3.8187   -1.3162 H   0  0  0  0  0  0  0  0  0  0  0  0
   13.7843    3.1662    0.4098 H   0  0  0  0  0  0  0  0  0  0  0  0
    7.6040    5.0677    1.9294 H   0  0  0  0  0  0  0  0  0  0  0  0
  1  2  1  0  0  0  0
  1 38  1  0  0  0  0
  1 39  1  0  0  0  0
  1 40  1  0  0  0  0
  2  3  1  0  0  0  0
  2 41  1  0  0  0  0
  2 42  1  0  0  0  0
  3  4  2  0  0  0  0
  3  5  2  0  0  0  0
  3  6  1  0  0  0  0
  6  7  1  0  0  0  0
  6 37  2  0  0  0  0
  7  8  2  0  0  0  0
  7 43  1  0  0  0  0
  8  9  1  0  0  0  0
  8 44  1  0  0  0  0
  9 10  1  0  0  0  0
  9 12  2  0  0  0  0
 10 11  1  0  0  0  0
 11 45  1  0  0  0  0
 11 46  1  0  0  0  0
 11 47  1  0  0  0  0
 12 13  1  0  0  0  0
 12 37  1  0  0  0  0
 13 14  1  0  0  0  0
 13 48  1  0  0  0  0
 14 15  2  0  0  0  0
 14 36  1  0  0  0  0
 15 16  1  0  0  0  0
 16 17  2  0  0  0  0
 16 49  1  0  0  0  0
 17 18  1  0  0  0  0
 17 36  1  0  0  0  0
 18 19  1  0  0  0  0
 18 35  2  0  0  0  0
 19 20  2  0  0  0  0
 19 50  1  0  0  0  0
 20 21  1  0  0  0  0
 20 27  1  0  0  0  0
 21 22  1  0  0  0  0
 21 26  2  0  0  0  0
 22 23  2  0  0  0  0
 22 51  1  0  0  0  0
 23 24  1  0  0  0  0
 23 52  1  0  0  0  0
 24 25  2  0  0  0  0
 24 53  1  0  0  0  0
 25 26  1  0  0  0  0
 25 54  1  0  0  0  0
 27 28  2  0  0  0  0
 27 55  1  0  0  0  0
 28 29  1  0  0  0  0
 28 35  1  0  0  0  0
 29 30  1  0  0  0  0
 29 34  2  0  0  0  0
 30 31  2  0  0  0  0
 30 56  1  0  0  0  0
 31 32  1  0  0  0  0
 31 57  1  0  0  0  0
 32 33  2  0  0  0  0
 32 58  1  0  0  0  0
 33 34  1  0  0  0  0
 33 59  1  0  0  0  0
 35 60  1  0  0  0  0
 37 61  1  0  0  0  0
M  END
$$$$
