CHEMBL3221548
 OpenBabel04072215363D

 75 76  0  0  0  0  0  0  0  0999 V2000
    4.4397    0.2204   -2.2060 C   0  0  0  0  0  0  0  0  0  0  0  0
    3.8692    0.2031   -0.7914 C   0  0  0  0  0  0  0  0  0  0  0  0
    4.9462    0.5647    0.2326 C   0  0  0  0  0  0  0  0  0  0  0  0
    4.3628    0.5877    1.6420 C   0  0  0  0  0  0  0  0  0  0  0  0
    5.2229    0.9137    2.6825 O   0  0  0  0  0  0  0  0  0  0  0  0
    6.5752    1.0023    2.8362 C   0  0  0  0  0  0  0  0  0  0  0  0
    7.0499    0.3834    4.0146 C   0  0  0  0  0  0  0  0  0  0  0  0
    8.4201    0.3467    4.3403 C   0  0  0  0  0  0  0  0  0  0  0  0
    8.9513   -0.2720    5.4996 C   0  0  0  0  0  0  0  0  0  0  0  0
    8.1372   -0.9618    6.4504 N   0  0  0  0  0  0  0  0  0  0  0  0
    8.5663   -1.3111    7.7733 C   0  0  0  0  0  0  0  0  0  0  0  0
    9.6526   -0.6795    8.4006 C   0  0  0  0  0  0  0  0  0  0  0  0
   10.0639   -1.0518    9.6667 C   0  0  0  0  0  0  0  0  0  0  0  0
    9.4115   -2.0764   10.3806 C   0  0  0  0  0  0  0  0  0  0  0  0
    9.8389   -2.4996   11.6889 N   0  0  0  0  0  0  0  0  0  0  0  0
   11.0423   -2.2192   12.2731 C   0  0  0  0  0  0  0  0  0  0  0  0
   11.2571   -2.6096   13.4123 O   0  0  0  0  0  0  0  0  0  0  0  0
   12.0162   -1.5540   11.6004 O   0  0  0  0  0  0  0  0  0  0  0  0
   13.1004   -0.9164   12.1663 C   0  0  0  0  0  0  0  0  0  0  0  0
   12.6274    0.2867   12.9766 C   0  0  0  0  0  0  0  0  0  0  0  0
    8.2752   -2.6749    9.7780 C   0  0  0  0  0  0  0  0  0  0  0  0
    7.3426   -3.9303   10.5854 Cl  0  0  0  0  0  0  0  0  0  0  0  0
    7.8671   -2.2919    8.4910 C   0  0  0  0  0  0  0  0  0  0  0  0
   10.3035   -0.2306    5.6896 N   0  0  0  0  0  0  0  0  0  0  0  0
   11.1488    0.3829    4.8346 C   0  0  0  0  0  0  0  0  0  0  0  0
   10.6566    0.9788    3.7333 N   0  0  0  0  0  0  0  0  0  0  0  0
    9.3264    0.9636    3.4749 C   0  0  0  0  0  0  0  0  0  0  0  0
    8.8876    1.5880    2.3338 C   0  0  0  0  0  0  0  0  0  0  0  0
    7.5152    1.6404    1.9619 C   0  0  0  0  0  0  0  0  0  0  0  0
    7.1755    2.3005    0.8015 O   0  0  0  0  0  0  0  0  0  0  0  0
    8.1794    2.7081   -0.0737 C   0  0  0  0  0  0  0  0  0  0  0  0
    7.8200    3.3558   -1.4128 C   0  0  0  0  0  0  0  0  0  0  0  0
    9.0795    3.7759   -2.1133 N   0  0  0  0  0  0  0  0  0  0  0  0
   10.1028    2.7018   -2.2996 C   0  0  0  0  0  0  0  0  0  0  0  0
    9.6678    1.5922   -3.2603 C   0  0  0  0  0  0  0  0  0  0  0  0
    8.7876    4.5449   -3.3453 C   0  0  0  0  0  0  0  0  0  0  0  0
   10.0495    5.1071   -4.0223 C   0  0  0  0  0  0  0  0  0  0  0  0
    1.2005   -2.5204   -1.6794 Cl  0  0  0  0  0  0  0  0  0  0  0  0
    3.6252    0.0394   -2.9374 H   0  0  0  0  0  0  0  0  0  0  0  0
    5.2097   -0.5717   -2.3172 H   0  0  0  0  0  0  0  0  0  0  0  0
    4.8990    1.2086   -2.4265 H   0  0  0  0  0  0  0  0  0  0  0  0
    3.4467   -0.8004   -0.5739 H   0  0  0  0  0  0  0  0  0  0  0  0
    3.0528    0.9572   -0.7307 H   0  0  0  0  0  0  0  0  0  0  0  0
    5.2549    1.5833   -0.0376 H   0  0  0  0  0  0  0  0  0  0  0  0
    5.7940   -0.1545    0.1804 H   0  0  0  0  0  0  0  0  0  0  0  0
    3.9617   -0.4263    1.8715 H   0  0  0  0  0  0  0  0  0  0  0  0
    3.5019    1.2866    1.6695 H   0  0  0  0  0  0  0  0  0  0  0  0
    6.3167   -0.0748    4.6623 H   0  0  0  0  0  0  0  0  0  0  0  0
    7.2146   -1.3023    6.1538 H   0  0  0  0  0  0  0  0  0  0  0  0
   10.2001    0.1285    7.9486 H   0  0  0  0  0  0  0  0  0  0  0  0
   10.8909   -0.4869   10.0488 H   0  0  0  0  0  0  0  0  0  0  0  0
    9.1932   -3.0797   12.2430 H   0  0  0  0  0  0  0  0  0  0  0  0
   13.7555   -0.5463   11.3476 H   0  0  0  0  0  0  0  0  0  0  0  0
   13.6861   -1.6208   12.7939 H   0  0  0  0  0  0  0  0  0  0  0  0
   12.0616    0.9811   12.3176 H   0  0  0  0  0  0  0  0  0  0  0  0
   13.4978    0.8235   13.4055 H   0  0  0  0  0  0  0  0  0  0  0  0
   11.9630   -0.0418   13.8025 H   0  0  0  0  0  0  0  0  0  0  0  0
    7.0088   -2.7753    8.0406 H   0  0  0  0  0  0  0  0  0  0  0  0
   12.2113    0.4051    5.0313 H   0  0  0  0  0  0  0  0  0  0  0  0
    9.6684    2.0352    1.7436 H   0  0  0  0  0  0  0  0  0  0  0  0
    8.7186    1.7743   -0.3152 H   0  0  0  0  0  0  0  0  0  0  0  0
    8.8163    3.4611    0.4411 H   0  0  0  0  0  0  0  0  0  0  0  0
    7.2026    4.2576   -1.2022 H   0  0  0  0  0  0  0  0  0  0  0  0
    7.2178    2.6627   -2.0379 H   0  0  0  0  0  0  0  0  0  0  0  0
   10.4038    2.2617   -1.3323 H   0  0  0  0  0  0  0  0  0  0  0  0
   11.0661    3.1295   -2.6368 H   0  0  0  0  0  0  0  0  0  0  0  0
    8.7111    1.1335   -2.9376 H   0  0  0  0  0  0  0  0  0  0  0  0
   10.4438    0.7995   -3.2768 H   0  0  0  0  0  0  0  0  0  0  0  0
    9.5592    1.9911   -4.2891 H   0  0  0  0  0  0  0  0  0  0  0  0
    8.1549    5.4191   -3.0769 H   0  0  0  0  0  0  0  0  0  0  0  0
    8.2254    3.9220   -4.0729 H   0  0  0  0  0  0  0  0  0  0  0  0
   10.6272    5.7363   -3.3115 H   0  0  0  0  0  0  0  0  0  0  0  0
    9.7609    5.7253   -4.8963 H   0  0  0  0  0  0  0  0  0  0  0  0
   10.7045    4.3008   -4.4130 H   0  0  0  0  0  0  0  0  0  0  0  0
    1.4857   -1.2191   -2.0208 H   0  0  0  0  0  0  0  0  0  0  0  0
  1  2  1  0  0  0  0
  1 39  1  0  0  0  0
  1 40  1  0  0  0  0
  1 41  1  0  0  0  0
  2  3  1  0  0  0  0
  2 42  1  0  0  0  0
  2 43  1  0  0  0  0
  3  4  1  0  0  0  0
  3 44  1  0  0  0  0
  3 45  1  0  0  0  0
  4  5  1  0  0  0  0
  4 46  1  0  0  0  0
  4 47  1  0  0  0  0
  5  6  1  0  0  0  0
  6  7  1  0  0  0  0
  6 29  2  0  0  0  0
  7  8  2  0  0  0  0
  7 48  1  0  0  0  0
  8  9  1  0  0  0  0
  8 27  1  0  0  0  0
  9 10  1  0  0  0  0
  9 24  2  0  0  0  0
 10 11  1  0  0  0  0
 10 49  1  0  0  0  0
 11 12  1  0  0  0  0
 11 23  2  0  0  0  0
 12 13  2  0  0  0  0
 12 50  1  0  0  0  0
 13 14  1  0  0  0  0
 13 51  1  0  0  0  0
 14 15  1  0  0  0  0
 14 21  2  0  0  0  0
 15 16  1  0  0  0  0
 15 52  1  0  0  0  0
 16 17  2  0  0  0  0
 16 18  1  0  0  0  0
 18 19  1  0  0  0  0
 19 20  1  0  0  0  0
 19 53  1  0  0  0  0
 19 54  1  0  0  0  0
 20 55  1  0  0  0  0
 20 56  1  0  0  0  0
 20 57  1  0  0  0  0
 21 22  1  0  0  0  0
 21 23  1  0  0  0  0
 23 58  1  0  0  0  0
 24 25  1  0  0  0  0
 25 26  2  0  0  0  0
 25 59  1  0  0  0  0
 26 27  1  0  0  0  0
 27 28  2  0  0  0  0
 28 29  1  0  0  0  0
 28 60  1  0  0  0  0
 29 30  1  0  0  0  0
 30 31  1  0  0  0  0
 31 32  1  0  0  0  0
 31 61  1  0  0  0  0
 31 62  1  0  0  0  0
 32 33  1  0  0  0  0
 32 63  1  0  0  0  0
 32 64  1  0  0  0  0
 33 34  1  0  0  0  0
 33 36  1  0  0  0  0
 34 35  1  0  0  0  0
 34 65  1  0  0  0  0
 34 66  1  0  0  0  0
 35 67  1  0  0  0  0
 35 68  1  0  0  0  0
 35 69  1  0  0  0  0
 36 37  1  0  0  0  0
 36 70  1  0  0  0  0
 36 71  1  0  0  0  0
 37 72  1  0  0  0  0
 37 73  1  0  0  0  0
 37 74  1  0  0  0  0
 38 75  1  0  0  0  0
M  END
$$$$
