CHEMBL2088102
 OpenBabel04072215363D

 43 45  0  0  0  0  0  0  0  0999 V2000
    8.2872    1.9944   -0.3921 C   0  0  0  0  0  0  0  0  0  0  0  0
    6.9351    1.6639    0.0837 C   0  0  0  0  0  0  0  0  0  0  0  0
    5.7947    2.4329    0.1335 C   0  0  0  0  0  0  0  0  0  0  0  0
    4.7832    1.5954    0.6279 C   0  0  0  0  0  0  0  0  0  0  0  0
    3.4999    1.9776    0.8308 N   0  0  0  0  0  0  0  0  0  0  0  0
    2.8299    3.1412    0.3711 C   0  0  0  0  0  0  0  0  0  0  0  0
    3.3397    3.8543   -0.6643 N   0  0  0  0  0  0  0  0  0  0  0  0
    2.7984    5.0459   -0.9655 C   0  0  0  0  0  0  0  0  0  0  0  0
    3.3147    5.7411   -2.0291 N   0  0  0  0  0  0  0  0  0  0  0  0
    3.2160    7.1835   -2.0969 C   0  0  0  0  0  0  0  0  0  0  0  0
    4.4176    7.8602   -1.4271 C   0  0  0  0  0  0  0  0  0  0  0  0
    4.3058    9.3872   -1.4912 C   0  0  0  0  0  0  0  0  0  0  0  0
    5.4564   10.0801   -0.8376 C   0  0  0  0  0  0  0  0  0  0  0  0
    6.6429   10.4788   -1.4175 C   0  0  0  0  0  0  0  0  0  0  0  0
    7.3636   11.0953   -0.4393 N   0  0  0  0  0  0  0  0  0  0  0  0
    6.7445   11.1129    0.7491 N   0  0  0  0  0  0  0  0  0  0  0  0
    5.5795   10.4946    0.5199 C   0  0  0  0  0  0  0  0  0  0  0  0
    4.6013   10.3164    1.6211 C   0  0  0  0  0  0  0  0  0  0  0  0
    1.7565    5.5638   -0.3072 N   0  0  0  0  0  0  0  0  0  0  0  0
    1.2208    4.8134    0.6672 C   0  0  0  0  0  0  0  0  0  0  0  0
    1.7176    3.5975    1.0602 C   0  0  0  0  0  0  0  0  0  0  0  0
    0.9163    2.6760    2.5020 Br  0  0  0  0  0  0  0  0  0  0  0  0
    5.2605    0.3842    0.9344 N   0  0  0  0  0  0  0  0  0  0  0  0
    6.5581    0.4540    0.5940 N   0  0  0  0  0  0  0  0  0  0  0  0
    8.3052    3.0052   -0.8177 H   0  0  0  0  0  0  0  0  0  0  0  0
    8.6034    1.2998   -1.1760 H   0  0  0  0  0  0  0  0  0  0  0  0
    9.0109    1.9630    0.4277 H   0  0  0  0  0  0  0  0  0  0  0  0
    5.7171    3.4673   -0.1698 H   0  0  0  0  0  0  0  0  0  0  0  0
    2.8754    1.2760    1.2186 H   0  0  0  0  0  0  0  0  0  0  0  0
    3.8949    5.2159   -2.6659 H   0  0  0  0  0  0  0  0  0  0  0  0
    2.2856    7.5455   -1.6447 H   0  0  0  0  0  0  0  0  0  0  0  0
    3.1742    7.4747   -3.1521 H   0  0  0  0  0  0  0  0  0  0  0  0
    5.3460    7.5360   -1.9147 H   0  0  0  0  0  0  0  0  0  0  0  0
    4.4911    7.5415   -0.3796 H   0  0  0  0  0  0  0  0  0  0  0  0
    3.3725    9.7122   -1.0139 H   0  0  0  0  0  0  0  0  0  0  0  0
    4.2434    9.7108   -2.5384 H   0  0  0  0  0  0  0  0  0  0  0  0
    7.0267   10.3879   -2.4233 H   0  0  0  0  0  0  0  0  0  0  0  0
    8.2784   11.5284   -0.5095 H   0  0  0  0  0  0  0  0  0  0  0  0
    4.9597   10.7592    2.5566 H   0  0  0  0  0  0  0  0  0  0  0  0
    4.4200    9.2517    1.7988 H   0  0  0  0  0  0  0  0  0  0  0  0
    3.6490   10.7923    1.3665 H   0  0  0  0  0  0  0  0  0  0  0  0
    0.3447    5.2565    1.1377 H   0  0  0  0  0  0  0  0  0  0  0  0
    7.1404   -0.3693    0.7379 H   0  0  0  0  0  0  0  0  0  0  0  0
  1  2  1  0  0  0  0
  1 25  1  0  0  0  0
  1 26  1  0  0  0  0
  1 27  1  0  0  0  0
  2  3  2  0  0  0  0
  2 24  1  0  0  0  0
  3  4  1  0  0  0  0
  3 28  1  0  0  0  0
  4  5  1  0  0  0  0
  4 23  2  0  0  0  0
  5  6  1  0  0  0  0
  5 29  1  0  0  0  0
  6  7  1  0  0  0  0
  6 21  2  0  0  0  0
  7  8  2  0  0  0  0
  8  9  1  0  0  0  0
  8 19  1  0  0  0  0
  9 10  1  0  0  0  0
  9 30  1  0  0  0  0
 10 11  1  0  0  0  0
 10 31  1  0  0  0  0
 10 32  1  0  0  0  0
 11 12  1  0  0  0  0
 11 33  1  0  0  0  0
 11 34  1  0  0  0  0
 12 13  1  0  0  0  0
 12 35  1  0  0  0  0
 12 36  1  0  0  0  0
 13 14  2  0  0  0  0
 13 17  1  0  0  0  0
 14 15  1  0  0  0  0
 14 37  1  0  0  0  0
 15 16  1  0  0  0  0
 15 38  1  0  0  0  0
 16 17  2  0  0  0  0
 17 18  1  0  0  0  0
 18 39  1  0  0  0  0
 18 40  1  0  0  0  0
 18 41  1  0  0  0  0
 19 20  2  0  0  0  0
 20 21  1  0  0  0  0
 20 42  1  0  0  0  0
 21 22  1  0  0  0  0
 23 24  1  0  0  0  0
 24 43  1  0  0  0  0
M  END
$$$$
