CHEMBL2113186
 OpenBabel04072215363D

 61 65  0  0  0  0  0  0  0  0999 V2000
   11.3034    8.4481  -10.4444 C   0  0  0  0  0  0  0  0  0  0  0  0
   11.6819    7.4498   -9.5191 O   0  0  0  0  0  0  0  0  0  0  0  0
   10.9850    7.5322   -8.2731 C   0  0  0  0  0  0  0  0  0  0  0  0
   11.5632    6.4136   -7.4155 C   0  0  0  0  0  0  0  0  0  0  0  0
   10.9699    6.2975   -6.1424 O   0  0  0  0  0  0  0  0  0  0  0  0
   11.0386    5.0819   -5.5059 C   0  0  0  0  0  0  0  0  0  0  0  0
   10.0044    4.9731   -4.5462 C   0  0  0  0  0  0  0  0  0  0  0  0
    9.7599    3.8334   -3.7877 C   0  0  0  0  0  0  0  0  0  0  0  0
    8.7140    3.7987   -2.9512 N   0  0  0  0  0  0  0  0  0  0  0  0
    8.5188    2.6615   -2.2725 C   0  0  0  0  0  0  0  0  0  0  0  0
    9.2909    1.5749   -2.3294 N   0  0  0  0  0  0  0  0  0  0  0  0
   10.3479    1.6262   -3.1559 C   0  0  0  0  0  0  0  0  0  0  0  0
   11.2150    0.4961   -3.2247 N   0  0  0  0  0  0  0  0  0  0  0  0
   10.8785   -0.7042   -2.6186 C   0  0  0  0  0  0  0  0  0  0  0  0
    9.7208   -1.3561   -2.7629 C   0  0  0  0  0  0  0  0  0  0  0  0
    9.3917   -2.5959   -2.0438 C   0  0  0  0  0  0  0  0  0  0  0  0
    8.3089   -3.1411   -2.2296 O   0  0  0  0  0  0  0  0  0  0  0  0
   10.4089   -3.1487   -1.1140 C   0  0  0  0  0  0  0  0  0  0  0  0
   10.0395   -4.3041   -0.4289 O   0  0  0  0  0  0  0  0  0  0  0  0
   11.0089   -5.2131   -0.0911 C   0  0  0  0  0  0  0  0  0  0  0  0
   10.9523   -5.7782    1.1810 C   0  0  0  0  0  0  0  0  0  0  0  0
   11.9670   -6.6424    1.6072 C   0  0  0  0  0  0  0  0  0  0  0  0
   13.0435   -6.9396    0.7545 C   0  0  0  0  0  0  0  0  0  0  0  0
   14.1308   -7.7394    1.2105 N   0  0  0  0  0  0  0  0  0  0  0  0
   14.2568   -8.3800    2.4292 C   0  0  0  0  0  0  0  0  0  0  0  0
   15.4832   -8.9982    2.4020 C   0  0  0  0  0  0  0  0  0  0  0  0
   16.1264   -8.7669    1.2286 N   0  0  0  0  0  0  0  0  0  0  0  0
   15.3033   -8.0145    0.5348 C   0  0  0  0  0  0  0  0  0  0  0  0
   13.0473   -6.4265   -0.5489 C   0  0  0  0  0  0  0  0  0  0  0  0
   12.0198   -5.5904   -0.9782 C   0  0  0  0  0  0  0  0  0  0  0  0
   11.5780   -2.5062   -0.9586 C   0  0  0  0  0  0  0  0  0  0  0  0
   11.9264   -1.3075   -1.7316 C   0  0  0  0  0  0  0  0  0  0  0  0
   13.0470   -0.8087   -1.6528 O   0  0  0  0  0  0  0  0  0  0  0  0
   10.6227    2.7505   -3.9523 C   0  0  0  0  0  0  0  0  0  0  0  0
   11.6622    2.8375   -4.9038 C   0  0  0  0  0  0  0  0  0  0  0  0
   11.8883    3.9835   -5.6883 C   0  0  0  0  0  0  0  0  0  0  0  0
   12.8573    3.7238   -6.6124 O   0  0  0  0  0  0  0  0  0  0  0  0
   13.8663    4.6633   -6.9315 C   0  0  0  0  0  0  0  0  0  0  0  0
   11.8764    8.2864  -11.3625 H   0  0  0  0  0  0  0  0  0  0  0  0
   11.5428    9.4412  -10.0553 H   0  0  0  0  0  0  0  0  0  0  0  0
   10.2384    8.3707  -10.6786 H   0  0  0  0  0  0  0  0  0  0  0  0
    9.9065    7.4045   -8.4174 H   0  0  0  0  0  0  0  0  0  0  0  0
   11.1613    8.5057   -7.7998 H   0  0  0  0  0  0  0  0  0  0  0  0
   12.6076    6.6941   -7.2762 H   0  0  0  0  0  0  0  0  0  0  0  0
   11.4795    5.4782   -7.9838 H   0  0  0  0  0  0  0  0  0  0  0  0
    9.3205    5.8154   -4.4198 H   0  0  0  0  0  0  0  0  0  0  0  0
    7.6592    2.6185   -1.6141 H   0  0  0  0  0  0  0  0  0  0  0  0
   12.1620    0.7804   -2.9635 H   0  0  0  0  0  0  0  0  0  0  0  0
    8.9405   -0.9716   -3.4095 H   0  0  0  0  0  0  0  0  0  0  0  0
   10.1320   -5.5280    1.8486 H   0  0  0  0  0  0  0  0  0  0  0  0
   11.8952   -7.0363    2.6152 H   0  0  0  0  0  0  0  0  0  0  0  0
   13.4977   -8.3581    3.1902 H   0  0  0  0  0  0  0  0  0  0  0  0
   15.9327   -9.6015    3.1803 H   0  0  0  0  0  0  0  0  0  0  0  0
   15.5253   -7.6319   -0.4494 H   0  0  0  0  0  0  0  0  0  0  0  0
   13.8309   -6.6486   -1.2634 H   0  0  0  0  0  0  0  0  0  0  0  0
   12.0315   -5.2151   -1.9977 H   0  0  0  0  0  0  0  0  0  0  0  0
   12.3454   -2.8499   -0.2722 H   0  0  0  0  0  0  0  0  0  0  0  0
   12.2978    1.9676   -5.0773 H   0  0  0  0  0  0  0  0  0  0  0  0
   14.8344    4.1544   -6.9454 H   0  0  0  0  0  0  0  0  0  0  0  0
   13.9353    5.4999   -6.2322 H   0  0  0  0  0  0  0  0  0  0  0  0
   13.6977    4.9973   -7.9610 H   0  0  0  0  0  0  0  0  0  0  0  0
  1  2  1  0  0  0  0
  1 39  1  0  0  0  0
  1 40  1  0  0  0  0
  1 41  1  0  0  0  0
  2  3  1  0  0  0  0
  3  4  1  0  0  0  0
  3 42  1  0  0  0  0
  3 43  1  0  0  0  0
  4  5  1  0  0  0  0
  4 44  1  0  0  0  0
  4 45  1  0  0  0  0
  5  6  1  0  0  0  0
  6  7  1  0  0  0  0
  6 36  2  0  0  0  0
  7  8  2  0  0  0  0
  7 46  1  0  0  0  0
  8  9  1  0  0  0  0
  8 34  1  0  0  0  0
  9 10  2  0  0  0  0
 10 11  1  0  0  0  0
 10 47  1  0  0  0  0
 11 12  2  0  0  0  0
 12 13  1  0  0  0  0
 12 34  1  0  0  0  0
 13 14  1  0  0  0  0
 13 48  1  0  0  0  0
 14 15  2  0  0  0  0
 14 32  1  0  0  0  0
 15 16  1  0  0  0  0
 15 49  1  0  0  0  0
 16 17  2  0  0  0  0
 16 18  1  0  0  0  0
 18 19  1  0  0  0  0
 18 31  2  0  0  0  0
 19 20  1  0  0  0  0
 20 21  1  0  0  0  0
 20 30  2  0  0  0  0
 21 22  2  0  0  0  0
 21 50  1  0  0  0  0
 22 23  1  0  0  0  0
 22 51  1  0  0  0  0
 23 24  1  0  0  0  0
 23 29  2  0  0  0  0
 24 25  1  0  0  0  0
 24 28  1  0  0  0  0
 25 26  2  0  0  0  0
 25 52  1  0  0  0  0
 26 27  1  0  0  0  0
 26 53  1  0  0  0  0
 27 28  2  0  0  0  0
 28 54  1  0  0  0  0
 29 30  1  0  0  0  0
 29 55  1  0  0  0  0
 30 56  1  0  0  0  0
 31 32  1  0  0  0  0
 31 57  1  0  0  0  0
 32 33  2  0  0  0  0
 34 35  2  0  0  0  0
 35 36  1  0  0  0  0
 35 58  1  0  0  0  0
 36 37  1  0  0  0  0
 37 38  1  0  0  0  0
 38 59  1  0  0  0  0
 38 60  1  0  0  0  0
 38 61  1  0  0  0  0
M  END
$$$$
