CHEMBL1380839
 OpenBabel04072215363D

 30 31  0  0  0  0  0  0  0  0999 V2000
    6.4643   -2.3929   -0.4506 C   0  0  0  0  0  0  0  0  0  0  0  0
    5.1840   -1.6828   -0.8588 C   0  0  0  0  0  0  0  0  0  0  0  0
    5.5381   -0.3930   -1.4304 N   0  0  0  0  0  0  0  0  0  0  0  0
    4.6473    0.4581   -1.8145 C   0  0  0  0  0  0  0  0  0  0  0  0
    2.9085    0.2333   -1.7576 S   0  0  0  0  0  0  0  0  0  0  0  0
    4.9993    1.6793   -2.3373 N   0  0  0  0  0  0  0  0  0  0  0  0
    6.3051    2.1228   -2.3795 N   0  0  0  0  0  0  0  0  0  0  0  0
    6.7255    2.9840   -3.4330 C   0  0  0  0  0  0  0  0  0  0  0  0
    5.7923    3.4728   -4.2892 N   0  0  0  0  0  0  0  0  0  0  0  0
    6.1441    4.3088   -5.3075 N   0  0  0  0  0  0  0  0  0  0  0  0
    7.4347    4.6639   -5.4480 C   0  0  0  0  0  0  0  0  0  0  0  0
    8.4395    4.2312   -4.5938 C   0  0  0  0  0  0  0  0  0  0  0  0
    9.7755    4.6413   -4.7642 C   0  0  0  0  0  0  0  0  0  0  0  0
   10.7693    4.2072   -3.8891 C   0  0  0  0  0  0  0  0  0  0  0  0
   10.4403    3.3649   -2.8354 C   0  0  0  0  0  0  0  0  0  0  0  0
    9.1161    2.9512   -2.6574 C   0  0  0  0  0  0  0  0  0  0  0  0
    8.0859    3.3671   -3.5386 C   0  0  0  0  0  0  0  0  0  0  0  0
    6.2351   -3.3633    0.0003 H   0  0  0  0  0  0  0  0  0  0  0  0
    7.0262   -1.7992    0.2781 H   0  0  0  0  0  0  0  0  0  0  0  0
    7.1124   -2.5602   -1.3172 H   0  0  0  0  0  0  0  0  0  0  0  0
    4.5587   -1.5612    0.0325 H   0  0  0  0  0  0  0  0  0  0  0  0
    4.6573   -2.3040   -1.5915 H   0  0  0  0  0  0  0  0  0  0  0  0
    2.8817   -1.0074   -1.2648 H   0  0  0  0  0  0  0  0  0  0  0  0
    4.2590    2.3575   -2.5137 H   0  0  0  0  0  0  0  0  0  0  0  0
    6.9512    1.3308   -2.3164 H   0  0  0  0  0  0  0  0  0  0  0  0
    7.6333    5.3265   -6.2832 H   0  0  0  0  0  0  0  0  0  0  0  0
   10.0498    5.3086   -5.5800 H   0  0  0  0  0  0  0  0  0  0  0  0
   11.7985    4.5328   -4.0278 H   0  0  0  0  0  0  0  0  0  0  0  0
   11.2121    3.0296   -2.1451 H   0  0  0  0  0  0  0  0  0  0  0  0
    8.8949    2.3031   -1.8110 H   0  0  0  0  0  0  0  0  0  0  0  0
  1  2  1  0  0  0  0
  1 18  1  0  0  0  0
  1 19  1  0  0  0  0
  1 20  1  0  0  0  0
  2  3  1  0  0  0  0
  2 21  1  0  0  0  0
  2 22  1  0  0  0  0
  3  4  2  3  0  0  0
  4  5  1  0  0  0  0
  4  6  1  0  0  0  0
  5 23  1  0  0  0  0
  6  7  1  0  0  0  0
  6 24  1  0  0  0  0
  7  8  1  0  0  0  0
  7 25  1  0  0  0  0
  8  9  1  0  0  0  0
  8 17  2  0  0  0  0
  9 10  2  0  0  0  0
 10 11  1  0  0  0  0
 11 12  2  0  0  0  0
 11 26  1  0  0  0  0
 12 13  1  0  0  0  0
 12 17  1  0  0  0  0
 13 14  2  0  0  0  0
 13 27  1  0  0  0  0
 14 15  1  0  0  0  0
 14 28  1  0  0  0  0
 15 16  2  0  0  0  0
 15 29  1  0  0  0  0
 16 17  1  0  0  0  0
 16 30  1  0  0  0  0
M  END
$$$$
