CHEMBL515880
 OpenBabel04072215383D

 39 41  0  0  0  0  0  0  0  0999 V2000
    1.1629   -0.6850   -0.5591 O   0  0  0  0  0  0  0  0  0  0  0  0
    2.1362   -0.1358   -0.0399 C   0  0  0  0  0  0  0  0  0  0  0  0
    2.6153    1.1191   -0.3954 N   0  0  0  0  0  0  0  0  0  0  0  0
    2.0201    1.9656   -1.3583 C   0  0  0  0  0  0  0  0  0  0  0  0
    0.6976    1.7945   -1.7853 C   0  0  0  0  0  0  0  0  0  0  0  0
    0.1601    2.5780   -2.8005 C   0  0  0  0  0  0  0  0  0  0  0  0
    0.9340    3.5668   -3.3931 C   0  0  0  0  0  0  0  0  0  0  0  0
    2.2454    3.7977   -2.9523 C   0  0  0  0  0  0  0  0  0  0  0  0
    3.0775    4.8791   -3.5943 C   0  0  0  0  0  0  0  0  0  0  0  0
    2.4287    5.5453   -4.5912 F   0  0  0  0  0  0  0  0  0  0  0  0
    3.4691    5.8321   -2.7048 F   0  0  0  0  0  0  0  0  0  0  0  0
    4.2201    4.3954   -4.1545 F   0  0  0  0  0  0  0  0  0  0  0  0
    2.7789    2.9978   -1.9193 C   0  0  0  0  0  0  0  0  0  0  0  0
    2.8977   -0.8304    1.0131 C   0  0  0  0  0  0  0  0  0  0  0  0
    3.9003   -0.2221    1.6651 N   0  0  0  0  0  0  0  0  0  0  0  0
    4.4729   -1.2505    2.8366 S   0  0  0  0  0  0  0  0  0  0  0  0
    3.4054   -2.5436    2.4992 C   0  0  0  0  0  0  0  0  0  0  0  0
    2.6077   -2.1892    1.4377 C   0  0  0  0  0  0  0  0  0  0  0  0
    1.6939   -2.9885    0.8169 N   0  0  0  0  0  0  0  0  0  0  0  0
    0.8746   -3.9762    1.4878 C   0  0  0  0  0  0  0  0  0  0  0  0
    1.0369   -5.3043    0.7975 C   0  0  0  0  0  0  0  0  0  0  0  0
    2.0101   -6.2099    1.2292 C   0  0  0  0  0  0  0  0  0  0  0  0
    2.1378   -7.4180    0.5635 C   0  0  0  0  0  0  0  0  0  0  0  0
    1.3796   -7.7777   -0.4932 N   0  0  0  0  0  0  0  0  0  0  0  0
    0.4630   -6.8799   -0.9128 C   0  0  0  0  0  0  0  0  0  0  0  0
    0.2573   -5.6470   -0.3122 C   0  0  0  0  0  0  0  0  0  0  0  0
    3.5170    1.3654   -0.0036 H   0  0  0  0  0  0  0  0  0  0  0  0
    0.0443    1.0547   -1.3337 H   0  0  0  0  0  0  0  0  0  0  0  0
   -0.8616    2.4037   -3.1280 H   0  0  0  0  0  0  0  0  0  0  0  0
    0.5061    4.1559   -4.2027 H   0  0  0  0  0  0  0  0  0  0  0  0
    3.8035    3.1691   -1.5922 H   0  0  0  0  0  0  0  0  0  0  0  0
    3.4423   -3.4695    3.0522 H   0  0  0  0  0  0  0  0  0  0  0  0
    1.2079   -2.5848    0.0074 H   0  0  0  0  0  0  0  0  0  0  0  0
   -0.1759   -3.6631    1.4373 H   0  0  0  0  0  0  0  0  0  0  0  0
    1.1071   -4.0718    2.5543 H   0  0  0  0  0  0  0  0  0  0  0  0
    2.6626   -5.9777    2.0634 H   0  0  0  0  0  0  0  0  0  0  0  0
    2.8787   -8.1494    0.8723 H   0  0  0  0  0  0  0  0  0  0  0  0
   -0.1211   -7.1866   -1.7760 H   0  0  0  0  0  0  0  0  0  0  0  0
   -0.4913   -4.9700   -0.7099 H   0  0  0  0  0  0  0  0  0  0  0  0
  1  2  2  0  0  0  0
  2  3  1  0  0  0  0
  2 14  1  0  0  0  0
  3  4  1  0  0  0  0
  3 27  1  0  0  0  0
  4  5  1  0  0  0  0
  4 13  2  0  0  0  0
  5  6  2  0  0  0  0
  5 28  1  0  0  0  0
  6  7  1  0  0  0  0
  6 29  1  0  0  0  0
  7  8  2  0  0  0  0
  7 30  1  0  0  0  0
  8  9  1  0  0  0  0
  8 13  1  0  0  0  0
  9 10  1  0  0  0  0
  9 11  1  0  0  0  0
  9 12  1  0  0  0  0
 13 31  1  0  0  0  0
 14 15  2  0  0  0  0
 14 18  1  0  0  0  0
 15 16  1  0  0  0  0
 16 17  1  0  0  0  0
 17 18  2  0  0  0  0
 17 32  1  0  0  0  0
 18 19  1  0  0  0  0
 19 20  1  0  0  0  0
 19 33  1  0  0  0  0
 20 21  1  0  0  0  0
 20 34  1  0  0  0  0
 20 35  1  0  0  0  0
 21 22  1  0  0  0  0
 21 26  2  0  0  0  0
 22 23  2  0  0  0  0
 22 36  1  0  0  0  0
 23 24  1  0  0  0  0
 23 37  1  0  0  0  0
 24 25  2  0  0  0  0
 25 26  1  0  0  0  0
 25 38  1  0  0  0  0
 26 39  1  0  0  0  0
M  END
$$$$
