CHEMBL2430265
 OpenBabel04072215363D

 60 63  0  0  0  0  0  0  0  0999 V2000
    4.8558    1.8224   -1.7591 C   0  0  0  0  0  0  0  0  0  0  0  0
    4.4461    0.3685   -1.5460 C   0  0  0  0  0  0  0  0  0  0  0  0
    4.8272   -0.1981   -0.2390 N   0  0  0  0  0  0  0  0  0  0  0  0
    4.3510    0.5898    0.9137 C   0  0  0  0  0  0  0  0  0  0  0  0
    2.8383    0.6493    1.1214 C   0  0  0  0  0  0  0  0  0  0  0  0
    4.4051   -1.6138   -0.1174 C   0  0  0  0  0  0  0  0  0  0  0  0
    4.9939   -2.5602   -1.1735 C   0  0  0  0  0  0  0  0  0  0  0  0
    6.4395   -2.5868   -1.1697 N   0  0  0  0  0  0  0  0  0  0  0  0
    7.0925   -3.4043   -2.0611 C   0  0  0  0  0  0  0  0  0  0  0  0
    6.4742   -4.1382   -2.8341 O   0  0  0  0  0  0  0  0  0  0  0  0
    8.5533   -3.3020   -2.0975 C   0  0  0  0  0  0  0  0  0  0  0  0
    9.4558   -3.0659   -1.0631 C   0  0  0  0  0  0  0  0  0  0  0  0
    9.2474   -2.8456    0.3975 C   0  0  0  0  0  0  0  0  0  0  0  0
   10.7336   -3.1242   -1.5895 N   0  0  0  0  0  0  0  0  0  0  0  0
   10.6898   -3.4169   -2.9306 C   0  0  0  0  0  0  0  0  0  0  0  0
    9.3493   -3.5215   -3.2611 C   0  0  0  0  0  0  0  0  0  0  0  0
    8.8348   -3.8292   -4.6181 C   0  0  0  0  0  0  0  0  0  0  0  0
    9.8950   -3.9944   -5.6897 C   0  0  0  0  0  0  0  0  0  0  0  0
   11.3694   -3.9037   -5.2868 C   0  0  0  0  0  0  0  0  0  0  0  0
   11.7785   -3.5976   -3.8416 C   0  0  0  0  0  0  0  0  0  0  0  0
   13.1140   -3.5421   -3.5639 C   0  0  0  0  0  0  0  0  0  0  0  0
   13.7977   -3.2792   -2.2333 C   0  0  0  0  0  0  0  0  0  0  0  0
   13.2949   -3.0578   -1.1467 O   0  0  0  0  0  0  0  0  0  0  0  0
   15.1595   -3.3393   -2.4812 N   0  0  0  0  0  0  0  0  0  0  0  0
   15.4295   -3.6037   -3.8152 C   0  0  0  0  0  0  0  0  0  0  0  0
   16.6874   -3.7224   -4.3879 C   0  0  0  0  0  0  0  0  0  0  0  0
   16.7630   -3.9901   -5.7567 C   0  0  0  0  0  0  0  0  0  0  0  0
   15.5913   -4.1309   -6.5035 C   0  0  0  0  0  0  0  0  0  0  0  0
   15.6859   -4.4902   -8.3597 Br  0  0  0  0  0  0  0  0  0  0  0  0
   14.3356   -4.0077   -5.9006 C   0  0  0  0  0  0  0  0  0  0  0  0
   14.2423   -3.7405   -4.5373 C   0  0  0  0  0  0  0  0  0  0  0  0
    4.7540    2.0816   -2.8187 H   0  0  0  0  0  0  0  0  0  0  0  0
    5.9006    1.9875   -1.4764 H   0  0  0  0  0  0  0  0  0  0  0  0
    4.2216    2.5094   -1.1911 H   0  0  0  0  0  0  0  0  0  0  0  0
    4.9537   -0.1935   -2.3370 H   0  0  0  0  0  0  0  0  0  0  0  0
    3.3694    0.2658   -1.7257 H   0  0  0  0  0  0  0  0  0  0  0  0
    4.7422    1.6112    0.8490 H   0  0  0  0  0  0  0  0  0  0  0  0
    4.8066    0.1840    1.8266 H   0  0  0  0  0  0  0  0  0  0  0  0
    2.3008    0.8935    0.2009 H   0  0  0  0  0  0  0  0  0  0  0  0
    2.5943    1.4220    1.8580 H   0  0  0  0  0  0  0  0  0  0  0  0
    2.4532   -0.3011    1.5052 H   0  0  0  0  0  0  0  0  0  0  0  0
    3.3126   -1.6976   -0.1638 H   0  0  0  0  0  0  0  0  0  0  0  0
    4.7194   -1.9874    0.8660 H   0  0  0  0  0  0  0  0  0  0  0  0
    4.6524   -2.3001   -2.1819 H   0  0  0  0  0  0  0  0  0  0  0  0
    4.6410   -3.5813   -0.9851 H   0  0  0  0  0  0  0  0  0  0  0  0
    6.9361   -1.7809   -0.8088 H   0  0  0  0  0  0  0  0  0  0  0  0
    8.1962   -2.9397    0.6844 H   0  0  0  0  0  0  0  0  0  0  0  0
    9.5871   -1.8485    0.6904 H   0  0  0  0  0  0  0  0  0  0  0  0
    9.8010   -3.5905    0.9784 H   0  0  0  0  0  0  0  0  0  0  0  0
   11.5879   -3.0115   -1.0468 H   0  0  0  0  0  0  0  0  0  0  0  0
    8.1483   -3.0304   -4.9263 H   0  0  0  0  0  0  0  0  0  0  0  0
    8.2431   -4.7520   -4.5772 H   0  0  0  0  0  0  0  0  0  0  0  0
    9.7118   -3.2575   -6.4836 H   0  0  0  0  0  0  0  0  0  0  0  0
    9.7381   -4.9606   -6.1894 H   0  0  0  0  0  0  0  0  0  0  0  0
   11.7933   -3.1155   -5.9204 H   0  0  0  0  0  0  0  0  0  0  0  0
   11.8046   -4.8749   -5.5525 H   0  0  0  0  0  0  0  0  0  0  0  0
   15.8499   -3.2032   -1.7580 H   0  0  0  0  0  0  0  0  0  0  0  0
   17.5939   -3.6151   -3.8043 H   0  0  0  0  0  0  0  0  0  0  0  0
   17.7313   -4.0886   -6.2418 H   0  0  0  0  0  0  0  0  0  0  0  0
   13.4735   -4.1302   -6.5401 H   0  0  0  0  0  0  0  0  0  0  0  0
  1  2  1  0  0  0  0
  1 32  1  0  0  0  0
  1 33  1  0  0  0  0
  1 34  1  0  0  0  0
  2  3  1  0  0  0  0
  2 35  1  0  0  0  0
  2 36  1  0  0  0  0
  3  4  1  0  0  0  0
  3  6  1  0  0  0  0
  4  5  1  0  0  0  0
  4 37  1  0  0  0  0
  4 38  1  0  0  0  0
  5 39  1  0  0  0  0
  5 40  1  0  0  0  0
  5 41  1  0  0  0  0
  6  7  1  0  0  0  0
  6 42  1  0  0  0  0
  6 43  1  0  0  0  0
  7  8  1  0  0  0  0
  7 44  1  0  0  0  0
  7 45  1  0  0  0  0
  8  9  1  0  0  0  0
  8 46  1  0  0  0  0
  9 10  2  0  0  0  0
  9 11  1  0  0  0  0
 11 12  2  0  0  0  0
 11 16  1  0  0  0  0
 12 13  1  0  0  0  0
 12 14  1  0  0  0  0
 13 47  1  0  0  0  0
 13 48  1  0  0  0  0
 13 49  1  0  0  0  0
 14 15  1  0  0  0  0
 14 50  1  0  0  0  0
 15 16  2  0  0  0  0
 15 20  1  0  0  0  0
 16 17  1  0  0  0  0
 17 18  1  0  0  0  0
 17 51  1  0  0  0  0
 17 52  1  0  0  0  0
 18 19  1  0  0  0  0
 18 53  1  0  0  0  0
 18 54  1  0  0  0  0
 19 20  1  0  0  0  0
 19 55  1  0  0  0  0
 19 56  1  0  0  0  0
 20 21  2  0  0  0  0
 21 22  1  0  0  0  0
 21 31  1  0  0  0  0
 22 23  2  0  0  0  0
 22 24  1  0  0  0  0
 24 25  1  0  0  0  0
 24 57  1  0  0  0  0
 25 26  1  0  0  0  0
 25 31  2  0  0  0  0
 26 27  2  0  0  0  0
 26 58  1  0  0  0  0
 27 28  1  0  0  0  0
 27 59  1  0  0  0  0
 28 29  1  0  0  0  0
 28 30  2  0  0  0  0
 30 31  1  0  0  0  0
 30 60  1  0  0  0  0
M  END
$$$$
