CHEMBL2071277
 OpenBabel04072215363D

 55 59  0  0  1  0  0  0  0  0999 V2000
   -0.2976    4.0912   18.1298 N   0  0  0  0  0  0  0  0  0  0  0  0
    0.2005    5.3192   18.4638 C   0  0  0  0  0  0  0  0  0  0  0  0
    0.4160    5.6038   19.6372 O   0  0  0  0  0  0  0  0  0  0  0  0
    0.3701    6.2817   17.3026 C   0  0  1  0  0  0  0  0  0  0  0  0
    0.9435    7.6483   17.7570 C   0  0  2  0  0  0  0  0  0  0  0  0
    0.7854    8.6148   16.6003 C   0  0  0  0  0  0  0  0  0  0  0  0
    1.6640    8.2489   15.6535 C   0  0  0  0  0  0  0  0  0  0  0  0
    2.3964    7.0242   16.1718 C   0  0  1  0  0  0  0  0  0  0  0  0
    2.4531    7.4137   17.6525 C   0  0  0  0  0  0  0  0  0  0  0  0
    1.3682    5.8576   16.1682 C   0  0  1  0  0  0  0  0  0  0  0  0
    1.9595    4.5383   16.3890 N   0  0  0  0  0  0  0  0  0  0  0  0
    2.3950    3.8221   15.2613 C   0  0  0  0  0  0  0  0  0  0  0  0
    2.6494    4.4914   14.1172 N   0  0  0  0  0  0  0  0  0  0  0  0
    3.0691    3.7882   13.0496 C   0  0  0  0  0  0  0  0  0  0  0  0
    3.5126    4.5374   11.9519 N   0  0  0  0  0  0  0  0  0  0  0  0
    4.3277    4.1289   10.9578 C   0  0  0  0  0  0  0  0  0  0  0  0
    4.5652    2.8321   10.4544 C   0  0  0  0  0  0  0  0  0  0  0  0
    5.5238    2.8149    9.5227 N   0  0  0  0  0  0  0  0  0  0  0  0
    5.9069    4.1048    9.4459 N   0  0  0  0  0  0  0  0  0  0  0  0
    7.0292    4.4520    8.5925 C   0  0  0  0  0  0  0  0  0  0  0  0
    8.1903    5.1350    9.3414 C   0  0  1  0  0  0  0  0  0  0  0  0
    8.8093    4.3014   10.4597 C   0  0  0  0  0  0  0  0  0  0  0  0
    9.7902    3.4012    9.7364 C   0  0  0  0  0  0  0  0  0  0  0  0
   10.2304    4.2166    8.5304 C   0  0  0  0  0  0  0  0  0  0  0  0
    9.3527    5.3911    8.4689 N   0  0  0  0  0  0  0  0  0  0  0  0
    5.1665    4.9419   10.2318 C   0  0  0  0  0  0  0  0  0  0  0  0
    3.1636    2.4501   13.0380 N   0  0  0  0  0  0  0  0  0  0  0  0
    2.8907    1.8017   14.1830 C   0  0  0  0  0  0  0  0  0  0  0  0
    2.5364    2.4409   15.3435 C   0  0  0  0  0  0  0  0  0  0  0  0
    2.2248    1.5368   16.7718 Cl  0  0  0  0  0  0  0  0  0  0  0  0
   -0.3352    3.4159   18.8827 H   0  0  0  0  0  0  0  0  0  0  0  0
   -0.0541    3.7208   17.2166 H   0  0  0  0  0  0  0  0  0  0  0  0
   -0.6321    6.4227   16.8745 H   0  0  0  0  0  0  0  0  0  0  0  0
    0.6086    8.0363   18.7203 H   0  0  0  0  0  0  0  0  0  0  0  0
    0.0518    9.4051   16.5367 H   0  0  0  0  0  0  0  0  0  0  0  0
    1.7746    8.6847   14.6722 H   0  0  0  0  0  0  0  0  0  0  0  0
    3.3667    6.8423   15.7080 H   0  0  0  0  0  0  0  0  0  0  0  0
    3.0427    8.3226   17.8390 H   0  0  0  0  0  0  0  0  0  0  0  0
    2.8247    6.6159   18.3045 H   0  0  0  0  0  0  0  0  0  0  0  0
    0.8043    5.8463   15.2255 H   0  0  0  0  0  0  0  0  0  0  0  0
    2.6390    4.4750   17.1467 H   0  0  0  0  0  0  0  0  0  0  0  0
    3.4674    5.5147   12.2154 H   0  0  0  0  0  0  0  0  0  0  0  0
    4.0934    1.8987   10.7310 H   0  0  0  0  0  0  0  0  0  0  0  0
    6.6332    5.1159    7.8129 H   0  0  0  0  0  0  0  0  0  0  0  0
    7.3660    3.5338    8.0962 H   0  0  0  0  0  0  0  0  0  0  0  0
    7.8365    6.0881    9.7502 H   0  0  0  0  0  0  0  0  0  0  0  0
    8.0881    3.7347   11.0543 H   0  0  0  0  0  0  0  0  0  0  0  0
    9.3605    4.9567   11.1479 H   0  0  0  0  0  0  0  0  0  0  0  0
    9.2846    2.4855    9.4081 H   0  0  0  0  0  0  0  0  0  0  0  0
   10.6297    3.1138   10.3770 H   0  0  0  0  0  0  0  0  0  0  0  0
   10.1576    3.6190    7.6154 H   0  0  0  0  0  0  0  0  0  0  0  0
   11.2692    4.5454    8.6366 H   0  0  0  0  0  0  0  0  0  0  0  0
    9.0779    5.5837    7.5070 H   0  0  0  0  0  0  0  0  0  0  0  0
    5.3466    6.0060   10.2554 H   0  0  0  0  0  0  0  0  0  0  0  0
    2.9765    0.7205   14.1280 H   0  0  0  0  0  0  0  0  0  0  0  0
  1  2  1  0  0  0  0
  1 31  1  0  0  0  0
  1 32  1  0  0  0  0
  2  3  2  0  0  0  0
  2  4  1  0  0  0  0
  4  5  1  0  0  0  0
  4 10  1  0  0  0  0
  4 33  1  6  0  0  0
  5  6  1  0  0  0  0
  5  9  1  0  0  0  0
  5 34  1  1  0  0  0
  6  7  2  0  0  0  0
  6 35  1  0  0  0  0
  7  8  1  0  0  0  0
  7 36  1  0  0  0  0
  8  9  1  0  0  0  0
  8 10  1  0  0  0  0
  8 37  1  6  0  0  0
  9 38  1  0  0  0  0
  9 39  1  0  0  0  0
 10 11  1  0  0  0  0
 10 40  1  6  0  0  0
 11 12  1  0  0  0  0
 11 41  1  0  0  0  0
 12 13  1  0  0  0  0
 12 29  2  0  0  0  0
 13 14  2  0  0  0  0
 14 15  1  0  0  0  0
 14 27  1  0  0  0  0
 15 16  1  0  0  0  0
 15 42  1  0  0  0  0
 16 17  1  0  0  0  0
 16 26  2  0  0  0  0
 17 18  2  0  0  0  0
 17 43  1  0  0  0  0
 18 19  1  0  0  0  0
 19 20  1  0  0  0  0
 19 26  1  0  0  0  0
 20 44  1  0  0  0  0
 20 45  1  0  0  0  0
 21 22  1  0  0  0  0
 21 25  1  0  0  0  0
 21 20  1  0  0  0  0
 21 46  1  1  0  0  0
 22 23  1  0  0  0  0
 22 47  1  0  0  0  0
 22 48  1  0  0  0  0
 23 24  1  0  0  0  0
 23 49  1  0  0  0  0
 23 50  1  0  0  0  0
 24 25  1  0  0  0  0
 24 51  1  0  0  0  0
 24 52  1  0  0  0  0
 25 53  1  0  0  0  0
 26 54  1  0  0  0  0
 27 28  2  0  0  0  0
 28 29  1  0  0  0  0
 28 55  1  0  0  0  0
 29 30  1  0  0  0  0
M  END
$$$$
