CHEMBL3927233
 OpenBabel04072215373D

 60 63  0  0  0  0  0  0  0  0999 V2000
    3.3111    6.1042    1.5925 C   0  0  0  0  0  0  0  0  0  0  0  0
    1.9090    6.5042    1.2291 C   0  0  0  0  0  0  0  0  0  0  0  0
    1.5589    7.8575    1.2237 C   0  0  0  0  0  0  0  0  0  0  0  0
    0.2771    8.2421    0.8540 C   0  0  0  0  0  0  0  0  0  0  0  0
   -0.6701    7.2811    0.5047 C   0  0  0  0  0  0  0  0  0  0  0  0
   -1.8308    7.7483    0.0392 F   0  0  0  0  0  0  0  0  0  0  0  0
   -0.3761    5.9099    0.5632 C   0  0  0  0  0  0  0  0  0  0  0  0
   -1.3199    4.8716    0.3076 N   0  0  0  0  0  0  0  0  0  0  0  0
   -2.6959    5.0107    0.3178 C   0  0  0  0  0  0  0  0  0  0  0  0
   -3.3176    6.0336    0.5724 O   0  0  0  0  0  0  0  0  0  0  0  0
   -3.3443    3.8026    0.0777 N   0  0  0  0  0  0  0  0  0  0  0  0
   -4.7663    3.7690    0.0227 C   0  0  0  0  0  0  0  0  0  0  0  0
   -5.5007    4.6637   -0.7623 C   0  0  0  0  0  0  0  0  0  0  0  0
   -6.9014    4.6543   -0.7166 C   0  0  0  0  0  0  0  0  0  0  0  0
   -7.5739    3.7619    0.1237 C   0  0  0  0  0  0  0  0  0  0  0  0
   -8.9492    3.8745    0.1581 O   0  0  0  0  0  0  0  0  0  0  0  0
   -9.6294    3.5698    1.3222 C   0  0  0  0  0  0  0  0  0  0  0  0
   -9.1162    3.8123    2.5983 C   0  0  0  0  0  0  0  0  0  0  0  0
   -9.8342    3.3967    3.7017 C   0  0  0  0  0  0  0  0  0  0  0  0
  -11.0499    2.8278    3.6635 N   0  0  0  0  0  0  0  0  0  0  0  0
  -11.6022    2.6970    2.4284 C   0  0  0  0  0  0  0  0  0  0  0  0
  -12.9074    2.1888    2.1775 C   0  0  0  0  0  0  0  0  0  0  0  0
  -13.2379    2.1880    0.8378 C   0  0  0  0  0  0  0  0  0  0  0  0
  -14.5115    1.7704    0.2631 C   0  0  0  0  0  0  0  0  0  0  0  0
  -15.4611    1.4025    0.9481 O   0  0  0  0  0  0  0  0  0  0  0  0
  -14.5923    1.8241   -1.1130 N   0  0  0  0  0  0  0  0  0  0  0  0
  -15.7850    1.4639   -1.8459 C   0  0  0  0  0  0  0  0  0  0  0  0
  -16.7399    2.6474   -2.0202 C   0  0  0  0  0  0  0  0  0  0  0  0
  -16.1244    3.8384   -2.7508 C   0  0  0  0  0  0  0  0  0  0  0  0
  -15.6704    3.4650   -4.1372 C   0  0  0  0  0  0  0  0  0  0  0  0
  -14.5556    3.0325   -4.3884 O   0  0  0  0  0  0  0  0  0  0  0  0
  -16.6305    3.5972   -5.0764 O   0  0  0  0  0  0  0  0  0  0  0  0
  -11.9349    2.7581   -0.1165 S   0  0  0  0  0  0  0  0  0  0  0  0
  -10.9370    3.0528    1.2550 C   0  0  0  0  0  0  0  0  0  0  0  0
   -6.8432    2.8107    0.8406 C   0  0  0  0  0  0  0  0  0  0  0  0
   -5.4518    2.8331    0.7960 C   0  0  0  0  0  0  0  0  0  0  0  0
   -4.7618    1.9907    1.5817 F   0  0  0  0  0  0  0  0  0  0  0  0
    0.9381    5.5358    0.8983 C   0  0  0  0  0  0  0  0  0  0  0  0
    3.9306    6.9836    1.8067 H   0  0  0  0  0  0  0  0  0  0  0  0
    3.7806    5.5670    0.7634 H   0  0  0  0  0  0  0  0  0  0  0  0
    3.3108    5.4748    2.4867 H   0  0  0  0  0  0  0  0  0  0  0  0
    2.2846    8.6238    1.4856 H   0  0  0  0  0  0  0  0  0  0  0  0
   -0.0026    9.2897    0.8163 H   0  0  0  0  0  0  0  0  0  0  0  0
   -0.9557    3.9386    0.2322 H   0  0  0  0  0  0  0  0  0  0  0  0
   -2.9323    3.0113    0.5564 H   0  0  0  0  0  0  0  0  0  0  0  0
   -4.9937    5.3860   -1.3992 H   0  0  0  0  0  0  0  0  0  0  0  0
   -7.4625    5.3648   -1.3201 H   0  0  0  0  0  0  0  0  0  0  0  0
   -8.1542    4.2922    2.7430 H   0  0  0  0  0  0  0  0  0  0  0  0
   -9.4171    3.5132    4.6995 H   0  0  0  0  0  0  0  0  0  0  0  0
  -13.5820    1.8533    2.9567 H   0  0  0  0  0  0  0  0  0  0  0  0
  -13.7898    2.1631   -1.6320 H   0  0  0  0  0  0  0  0  0  0  0  0
  -16.3013    0.6566   -1.3152 H   0  0  0  0  0  0  0  0  0  0  0  0
  -15.4654    1.0647   -2.8132 H   0  0  0  0  0  0  0  0  0  0  0  0
  -17.0834    2.9866   -1.0351 H   0  0  0  0  0  0  0  0  0  0  0  0
  -17.6259    2.3020   -2.5663 H   0  0  0  0  0  0  0  0  0  0  0  0
  -15.2614    4.2404   -2.2078 H   0  0  0  0  0  0  0  0  0  0  0  0
  -16.8437    4.6626   -2.8153 H   0  0  0  0  0  0  0  0  0  0  0  0
  -17.4774    3.9474   -4.7405 H   0  0  0  0  0  0  0  0  0  0  0  0
   -7.3284    2.0750    1.4722 H   0  0  0  0  0  0  0  0  0  0  0  0
    1.2175    4.4851    0.9271 H   0  0  0  0  0  0  0  0  0  0  0  0
  1  2  1  0  0  0  0
  1 39  1  0  0  0  0
  1 40  1  0  0  0  0
  1 41  1  0  0  0  0
  2  3  1  0  0  0  0
  2 38  2  0  0  0  0
  3  4  2  0  0  0  0
  3 42  1  0  0  0  0
  4  5  1  0  0  0  0
  4 43  1  0  0  0  0
  5  6  1  0  0  0  0
  5  7  2  0  0  0  0
  7  8  1  0  0  0  0
  7 38  1  0  0  0  0
  8  9  1  0  0  0  0
  8 44  1  0  0  0  0
  9 10  2  0  0  0  0
  9 11  1  0  0  0  0
 11 12  1  0  0  0  0
 11 45  1  0  0  0  0
 12 13  1  0  0  0  0
 12 36  2  0  0  0  0
 13 14  2  0  0  0  0
 13 46  1  0  0  0  0
 14 15  1  0  0  0  0
 14 47  1  0  0  0  0
 15 16  1  0  0  0  0
 15 35  2  0  0  0  0
 16 17  1  0  0  0  0
 17 18  1  0  0  0  0
 17 34  2  0  0  0  0
 18 19  2  0  0  0  0
 18 48  1  0  0  0  0
 19 20  1  0  0  0  0
 19 49  1  0  0  0  0
 20 21  2  0  0  0  0
 21 22  1  0  0  0  0
 21 34  1  0  0  0  0
 22 23  2  0  0  0  0
 22 50  1  0  0  0  0
 23 24  1  0  0  0  0
 23 33  1  0  0  0  0
 24 25  2  0  0  0  0
 24 26  1  0  0  0  0
 26 27  1  0  0  0  0
 26 51  1  0  0  0  0
 27 28  1  0  0  0  0
 27 52  1  0  0  0  0
 27 53  1  0  0  0  0
 28 29  1  0  0  0  0
 28 54  1  0  0  0  0
 28 55  1  0  0  0  0
 29 30  1  0  0  0  0
 29 56  1  0  0  0  0
 29 57  1  0  0  0  0
 30 31  2  0  0  0  0
 30 32  1  0  0  0  0
 32 58  1  0  0  0  0
 33 34  1  0  0  0  0
 35 36  1  0  0  0  0
 35 59  1  0  0  0  0
 36 37  1  0  0  0  0
 38 60  1  0  0  0  0
M  END
$$$$
