CHEMBL606466
 OpenBabel04072215383D

 72 77  0  0  0  0  0  0  0  0999 V2000
    2.7314    1.0936    0.5471 C   0  0  0  0  0  0  0  0  0  0  0  0
    2.5778   -0.0308   -0.3112 O   0  0  0  0  0  0  0  0  0  0  0  0
    3.2393   -1.1899   -0.0287 C   0  0  0  0  0  0  0  0  0  0  0  0
    4.3702   -1.2011    0.7773 C   0  0  0  0  0  0  0  0  0  0  0  0
    5.0058   -2.4040    1.1239 C   0  0  0  0  0  0  0  0  0  0  0  0
    6.0923   -2.4616    2.0006 C   0  0  0  0  0  0  0  0  0  0  0  0
    6.4919   -1.2701    2.6708 N   0  0  0  0  0  0  0  0  0  0  0  0
    7.7617   -1.0873    3.2471 C   0  0  0  0  0  0  0  0  0  0  0  0
    8.9025   -1.4412    2.5249 C   0  0  0  0  0  0  0  0  0  0  0  0
   10.1646   -1.3694    3.1029 C   0  0  0  0  0  0  0  0  0  0  0  0
   10.3232   -0.9422    4.4279 C   0  0  0  0  0  0  0  0  0  0  0  0
   11.6397   -0.9860    5.0811 C   0  0  0  0  0  0  0  0  0  0  0  0
   11.9790   -0.2345    6.1101 N   0  0  0  0  0  0  0  0  0  0  0  0
   13.2816   -0.5328    6.4978 C   0  0  0  0  0  0  0  0  0  0  0  0
   14.0044    0.1018    7.5325 C   0  0  0  0  0  0  0  0  0  0  0  0
   15.3066   -0.3168    7.8251 C   0  0  0  0  0  0  0  0  0  0  0  0
   15.8941   -1.3552    7.1070 C   0  0  0  0  0  0  0  0  0  0  0  0
   15.2038   -1.9886    6.0770 C   0  0  0  0  0  0  0  0  0  0  0  0
   13.9008   -1.5600    5.7886 C   0  0  0  0  0  0  0  0  0  0  0  0
   12.8239   -2.1396    4.5923 S   0  0  0  0  0  0  0  0  0  0  0  0
    9.1798   -0.4989    5.1157 C   0  0  0  0  0  0  0  0  0  0  0  0
    9.2293   -0.0109    6.3980 O   0  0  0  0  0  0  0  0  0  0  0  0
    7.9102   -0.5643    4.5335 C   0  0  0  0  0  0  0  0  0  0  0  0
    6.7364   -3.6113    2.2526 N   0  0  0  0  0  0  0  0  0  0  0  0
    6.2652   -4.7101    1.6539 C   0  0  0  0  0  0  0  0  0  0  0  0
    5.2019   -4.7718    0.8423 N   0  0  0  0  0  0  0  0  0  0  0  0
    4.5813   -3.6188    0.5773 C   0  0  0  0  0  0  0  0  0  0  0  0
    3.4824   -3.5959   -0.2711 C   0  0  0  0  0  0  0  0  0  0  0  0
    2.8018   -2.4077   -0.5849 C   0  0  0  0  0  0  0  0  0  0  0  0
    1.7436   -2.6120   -1.4426 O   0  0  0  0  0  0  0  0  0  0  0  0
    1.0688   -1.4383   -1.8726 C   0  0  0  0  0  0  0  0  0  0  0  0
   -0.0353   -1.7615   -2.8600 C   0  0  0  0  0  0  0  0  0  0  0  0
   -0.7357   -0.4456   -3.2214 C   0  0  0  0  0  0  0  0  0  0  0  0
   -1.7892   -0.6092   -4.2188 N   0  0  0  0  0  0  0  0  0  0  0  0
   -2.8972   -1.4534   -3.7407 C   0  0  0  0  0  0  0  0  0  0  0  0
   -3.9605   -1.6298   -4.8429 C   0  0  0  0  0  0  0  0  0  0  0  0
   -4.5368   -0.3677   -5.3450 N   0  0  0  0  0  0  0  0  0  0  0  0
   -5.4454    0.2269   -4.3688 C   0  0  0  0  0  0  0  0  0  0  0  0
   -3.4390    0.5553   -5.7043 C   0  0  0  0  0  0  0  0  0  0  0  0
   -2.3241    0.7026   -4.6400 C   0  0  0  0  0  0  0  0  0  0  0  0
    3.3860    1.8230    0.0619 H   0  0  0  0  0  0  0  0  0  0  0  0
    3.0996    0.8556    1.5490 H   0  0  0  0  0  0  0  0  0  0  0  0
    1.7447    1.5481    0.6772 H   0  0  0  0  0  0  0  0  0  0  0  0
    4.8008   -0.2674    1.1238 H   0  0  0  0  0  0  0  0  0  0  0  0
    5.7350   -0.9436    3.2611 H   0  0  0  0  0  0  0  0  0  0  0  0
    8.8075   -1.8087    1.5056 H   0  0  0  0  0  0  0  0  0  0  0  0
   11.0109   -1.6799    2.4970 H   0  0  0  0  0  0  0  0  0  0  0  0
   13.5451    0.9100    8.0872 H   0  0  0  0  0  0  0  0  0  0  0  0
   15.8580    0.1692    8.6219 H   0  0  0  0  0  0  0  0  0  0  0  0
   16.9070   -1.6740    7.3495 H   0  0  0  0  0  0  0  0  0  0  0  0
   15.6633   -2.7982    5.5105 H   0  0  0  0  0  0  0  0  0  0  0  0
   10.1738    0.0557    6.6560 H   0  0  0  0  0  0  0  0  0  0  0  0
    7.0476   -0.2473    5.1122 H   0  0  0  0  0  0  0  0  0  0  0  0
    6.7896   -5.6365    1.8517 H   0  0  0  0  0  0  0  0  0  0  0  0
    3.1419   -4.5342   -0.7037 H   0  0  0  0  0  0  0  0  0  0  0  0
    1.7759   -0.7673   -2.3745 H   0  0  0  0  0  0  0  0  0  0  0  0
    0.5957   -0.9611   -1.0063 H   0  0  0  0  0  0  0  0  0  0  0  0
   -0.7177   -2.4823   -2.3976 H   0  0  0  0  0  0  0  0  0  0  0  0
    0.3808   -2.2474   -3.7507 H   0  0  0  0  0  0  0  0  0  0  0  0
    0.0256    0.2352   -3.6266 H   0  0  0  0  0  0  0  0  0  0  0  0
   -1.1300    0.0299   -2.3130 H   0  0  0  0  0  0  0  0  0  0  0  0
   -3.3483   -1.0278   -2.8344 H   0  0  0  0  0  0  0  0  0  0  0  0
   -2.5393   -2.4542   -3.4812 H   0  0  0  0  0  0  0  0  0  0  0  0
   -4.7532   -2.2971   -4.4844 H   0  0  0  0  0  0  0  0  0  0  0  0
   -3.4953   -2.1542   -5.6889 H   0  0  0  0  0  0  0  0  0  0  0  0
   -6.2293   -0.4876   -4.0928 H   0  0  0  0  0  0  0  0  0  0  0  0
   -5.9532    1.0926   -4.8065 H   0  0  0  0  0  0  0  0  0  0  0  0
   -4.9470    0.5527   -3.4503 H   0  0  0  0  0  0  0  0  0  0  0  0
   -3.8420    1.5444   -5.9546 H   0  0  0  0  0  0  0  0  0  0  0  0
   -2.9782    0.1823   -6.6288 H   0  0  0  0  0  0  0  0  0  0  0  0
   -2.7110    1.2584   -3.7752 H   0  0  0  0  0  0  0  0  0  0  0  0
   -1.5178    1.3075   -5.0734 H   0  0  0  0  0  0  0  0  0  0  0  0
  1  2  1  0  0  0  0
  1 41  1  0  0  0  0
  1 42  1  0  0  0  0
  1 43  1  0  0  0  0
  2  3  1  0  0  0  0
  3  4  1  0  0  0  0
  3 29  2  0  0  0  0
  4  5  2  0  0  0  0
  4 44  1  0  0  0  0
  5  6  1  0  0  0  0
  5 27  1  0  0  0  0
  6  7  1  0  0  0  0
  6 24  2  0  0  0  0
  7  8  1  0  0  0  0
  7 45  1  0  0  0  0
  8  9  1  0  0  0  0
  8 23  2  0  0  0  0
  9 10  2  0  0  0  0
  9 46  1  0  0  0  0
 10 11  1  0  0  0  0
 10 47  1  0  0  0  0
 11 12  1  0  0  0  0
 11 21  2  0  0  0  0
 12 13  2  0  0  0  0
 12 20  1  0  0  0  0
 13 14  1  0  0  0  0
 14 15  1  0  0  0  0
 14 19  2  0  0  0  0
 15 16  2  0  0  0  0
 15 48  1  0  0  0  0
 16 17  1  0  0  0  0
 16 49  1  0  0  0  0
 17 18  2  0  0  0  0
 17 50  1  0  0  0  0
 18 19  1  0  0  0  0
 18 51  1  0  0  0  0
 19 20  1  0  0  0  0
 21 22  1  0  0  0  0
 21 23  1  0  0  0  0
 22 52  1  0  0  0  0
 23 53  1  0  0  0  0
 24 25  1  0  0  0  0
 25 26  2  0  0  0  0
 25 54  1  0  0  0  0
 26 27  1  0  0  0  0
 27 28  2  0  0  0  0
 28 29  1  0  0  0  0
 28 55  1  0  0  0  0
 29 30  1  0  0  0  0
 30 31  1  0  0  0  0
 31 32  1  0  0  0  0
 31 56  1  0  0  0  0
 31 57  1  0  0  0  0
 32 33  1  0  0  0  0
 32 58  1  0  0  0  0
 32 59  1  0  0  0  0
 33 34  1  0  0  0  0
 33 60  1  0  0  0  0
 33 61  1  0  0  0  0
 34 35  1  0  0  0  0
 34 40  1  0  0  0  0
 35 36  1  0  0  0  0
 35 62  1  0  0  0  0
 35 63  1  0  0  0  0
 36 37  1  0  0  0  0
 36 64  1  0  0  0  0
 36 65  1  0  0  0  0
 37 38  1  0  0  0  0
 37 39  1  0  0  0  0
 38 66  1  0  0  0  0
 38 67  1  0  0  0  0
 38 68  1  0  0  0  0
 39 40  1  0  0  0  0
 39 69  1  0  0  0  0
 39 70  1  0  0  0  0
 40 71  1  0  0  0  0
 40 72  1  0  0  0  0
M  END
$$$$
