CHEMBL597597
 OpenBabel04072215383D

 37 40  0  0  0  0  0  0  0  0999 V2000
    1.1019   -0.5176    0.5999 O   0  0  0  0  0  0  0  0  0  0  0  0
    2.2309   -0.2011    0.2280 C   0  0  0  0  0  0  0  0  0  0  0  0
    2.9209   -0.9078   -0.9141 C   0  0  0  0  0  0  0  0  0  0  0  0
    4.1667   -1.5658   -0.4436 C   0  0  0  0  0  0  0  0  0  0  0  0
    4.3057   -2.9337   -0.3752 C   0  0  0  0  0  0  0  0  0  0  0  0
    5.3993   -3.5483    0.1038 N   0  0  0  0  0  0  0  0  0  0  0  0
    6.4144   -2.7638    0.4875 C   0  0  0  0  0  0  0  0  0  0  0  0
    7.5316   -3.4037    1.0071 N   0  0  0  0  0  0  0  0  0  0  0  0
    8.8507   -2.9440    1.0798 C   0  0  0  0  0  0  0  0  0  0  0  0
    9.6896   -3.3943    2.1071 C   0  0  0  0  0  0  0  0  0  0  0  0
   10.9726   -2.8609    2.2662 C   0  0  0  0  0  0  0  0  0  0  0  0
   11.4258   -1.8851    1.3834 C   0  0  0  0  0  0  0  0  0  0  0  0
   12.6534   -1.3109    1.5186 O   0  0  0  0  0  0  0  0  0  0  0  0
   10.6264   -1.4512    0.3391 C   0  0  0  0  0  0  0  0  0  0  0  0
    9.3417   -1.9727    0.1969 C   0  0  0  0  0  0  0  0  0  0  0  0
    6.3709   -1.4189    0.4288 N   0  0  0  0  0  0  0  0  0  0  0  0
    5.2432   -0.8216   -0.0047 C   0  0  0  0  0  0  0  0  0  0  0  0
    5.2234    0.6482    0.0427 C   0  0  0  0  0  0  0  0  0  0  0  0
    6.3645    1.3764   -0.3004 C   0  0  0  0  0  0  0  0  0  0  0  0
    6.4640    2.7301   -0.2826 N   0  0  0  0  0  0  0  0  0  0  0  0
    5.3944    3.4115    0.1638 C   0  0  0  0  0  0  0  0  0  0  0  0
    4.2262    2.8037    0.5795 C   0  0  0  0  0  0  0  0  0  0  0  0
    4.1190    1.4142    0.4682 C   0  0  0  0  0  0  0  0  0  0  0  0
    2.8576    0.8784    0.7976 N   0  0  0  0  0  0  0  0  0  0  0  0
    3.1335   -0.1861   -1.7162 H   0  0  0  0  0  0  0  0  0  0  0  0
    2.2251   -1.6366   -1.3443 H   0  0  0  0  0  0  0  0  0  0  0  0
    3.5117   -3.6006   -0.6999 H   0  0  0  0  0  0  0  0  0  0  0  0
    7.3794   -4.3955    1.1066 H   0  0  0  0  0  0  0  0  0  0  0  0
    9.3304   -4.1328    2.8202 H   0  0  0  0  0  0  0  0  0  0  0  0
   11.5941   -3.2046    3.0882 H   0  0  0  0  0  0  0  0  0  0  0  0
   13.0245   -1.5803    2.3739 H   0  0  0  0  0  0  0  0  0  0  0  0
   10.9838   -0.6958   -0.3541 H   0  0  0  0  0  0  0  0  0  0  0  0
    8.7246   -1.6159   -0.6228 H   0  0  0  0  0  0  0  0  0  0  0  0
    7.2719    0.8706   -0.6261 H   0  0  0  0  0  0  0  0  0  0  0  0
    5.4948    4.4933    0.1642 H   0  0  0  0  0  0  0  0  0  0  0  0
    3.3975    3.4154    0.9205 H   0  0  0  0  0  0  0  0  0  0  0  0
    2.2426    1.4166    1.3989 H   0  0  0  0  0  0  0  0  0  0  0  0
  1  2  2  0  0  0  0
  2  3  1  0  0  0  0
  2 24  1  0  0  0  0
  3  4  1  0  0  0  0
  3 25  1  0  0  0  0
  3 26  1  0  0  0  0
  4  5  1  0  0  0  0
  4 17  2  0  0  0  0
  5  6  2  0  0  0  0
  5 27  1  0  0  0  0
  6  7  1  0  0  0  0
  7  8  1  0  0  0  0
  7 16  2  0  0  0  0
  8  9  1  0  0  0  0
  8 28  1  0  0  0  0
  9 10  1  0  0  0  0
  9 15  2  0  0  0  0
 10 11  2  0  0  0  0
 10 29  1  0  0  0  0
 11 12  1  0  0  0  0
 11 30  1  0  0  0  0
 12 13  1  0  0  0  0
 12 14  2  0  0  0  0
 13 31  1  0  0  0  0
 14 15  1  0  0  0  0
 14 32  1  0  0  0  0
 15 33  1  0  0  0  0
 16 17  1  0  0  0  0
 17 18  1  0  0  0  0
 18 19  1  0  0  0  0
 18 23  2  0  0  0  0
 19 20  2  0  0  0  0
 19 34  1  0  0  0  0
 20 21  1  0  0  0  0
 21 22  2  0  0  0  0
 21 35  1  0  0  0  0
 22 23  1  0  0  0  0
 22 36  1  0  0  0  0
 23 24  1  0  0  0  0
 24 37  1  0  0  0  0
M  END
$$$$
