CHEMBL3397937
 OpenBabel04072215363D

 57 60  0  0  0  0  0  0  0  0999 V2000
    1.1571    0.8595    0.4850 O   0  0  0  0  0  0  0  0  0  0  0  0
    2.2614    0.4478    0.1439 C   0  0  0  0  0  0  0  0  0  0  0  0
    2.8212    0.5282   -1.1203 N   0  0  0  0  0  0  0  0  0  0  0  0
    2.2201    1.1255   -2.2451 C   0  0  0  0  0  0  0  0  0  0  0  0
    1.1272    1.9901   -2.1558 C   0  0  0  0  0  0  0  0  0  0  0  0
    0.5071    2.4799   -3.3056 C   0  0  0  0  0  0  0  0  0  0  0  0
    0.9658    2.1054   -4.5674 C   0  0  0  0  0  0  0  0  0  0  0  0
    0.2266    2.5799   -5.6164 O   0  0  0  0  0  0  0  0  0  0  0  0
    0.2481    1.7479   -6.7820 C   0  0  0  0  0  0  0  0  0  0  0  0
   -1.0682    1.9269   -7.5599 C   0  0  0  0  0  0  0  0  0  0  0  0
   -1.1553    1.1163   -8.7930 N   0  0  0  0  0  0  0  0  0  0  0  0
   -2.4480    1.3357   -9.4849 C   0  0  0  0  0  0  0  0  0  0  0  0
   -3.6543    0.6640   -8.7982 C   0  0  0  0  0  0  0  0  0  0  0  0
   -3.4339   -0.7342   -8.5676 O   0  0  0  0  0  0  0  0  0  0  0  0
   -2.2267   -0.9488   -7.8252 C   0  0  0  0  0  0  0  0  0  0  0  0
   -1.0257   -0.3398   -8.5617 C   0  0  0  0  0  0  0  0  0  0  0  0
    2.1052    1.2984   -4.6507 C   0  0  0  0  0  0  0  0  0  0  0  0
    2.6141    0.9420   -5.8395 F   0  0  0  0  0  0  0  0  0  0  0  0
    2.7351    0.8142   -3.5056 C   0  0  0  0  0  0  0  0  0  0  0  0
    3.0628   -0.2918    1.1487 C   0  0  0  0  0  0  0  0  0  0  0  0
    2.3914   -1.0689    2.0924 C   0  0  0  0  0  0  0  0  0  0  0  0
    3.1167   -1.7899    3.0336 C   0  0  0  0  0  0  0  0  0  0  0  0
    4.5135   -1.7459    3.0169 C   0  0  0  0  0  0  0  0  0  0  0  0
    5.2193   -0.9948    2.0560 C   0  0  0  0  0  0  0  0  0  0  0  0
    6.6924   -1.0734    1.9274 C   0  0  0  0  0  0  0  0  0  0  0  0
    7.3716   -2.2758    2.2043 C   0  0  0  0  0  0  0  0  0  0  0  0
    8.7415   -2.4164    1.9647 C   0  0  0  0  0  0  0  0  0  0  0  0
    9.4648   -1.3601    1.4221 C   0  0  0  0  0  0  0  0  0  0  0  0
    8.8145   -0.1627    1.1529 C   0  0  0  0  0  0  0  0  0  0  0  0
    9.4716    0.8865    0.5816 O   0  0  0  0  0  0  0  0  0  0  0  0
    7.4572   -0.0054    1.4254 C   0  0  0  0  0  0  0  0  0  0  0  0
    4.4622   -0.2377    1.1452 C   0  0  0  0  0  0  0  0  0  0  0  0
    3.6491   -0.0286   -1.2980 H   0  0  0  0  0  0  0  0  0  0  0  0
    0.7255    2.2999   -1.1953 H   0  0  0  0  0  0  0  0  0  0  0  0
   -0.3604    3.1302   -3.2103 H   0  0  0  0  0  0  0  0  0  0  0  0
    0.3357    0.6984   -6.4841 H   0  0  0  0  0  0  0  0  0  0  0  0
    1.0983    2.0360   -7.4100 H   0  0  0  0  0  0  0  0  0  0  0  0
   -1.1543    2.9885   -7.8246 H   0  0  0  0  0  0  0  0  0  0  0  0
   -1.9037    1.7315   -6.8776 H   0  0  0  0  0  0  0  0  0  0  0  0
   -2.3500    0.9135  -10.4944 H   0  0  0  0  0  0  0  0  0  0  0  0
   -2.6375    2.4067   -9.6235 H   0  0  0  0  0  0  0  0  0  0  0  0
   -4.5352    0.7505   -9.4423 H   0  0  0  0  0  0  0  0  0  0  0  0
   -3.8971    1.1481   -7.8460 H   0  0  0  0  0  0  0  0  0  0  0  0
   -2.0879   -2.0297   -7.7235 H   0  0  0  0  0  0  0  0  0  0  0  0
   -2.3403   -0.5378   -6.8159 H   0  0  0  0  0  0  0  0  0  0  0  0
   -0.9463   -0.8208   -9.5471 H   0  0  0  0  0  0  0  0  0  0  0  0
   -0.0903   -0.5877   -8.0505 H   0  0  0  0  0  0  0  0  0  0  0  0
    3.5965    0.1657   -3.6263 H   0  0  0  0  0  0  0  0  0  0  0  0
    1.3044   -1.1198    2.0889 H   0  0  0  0  0  0  0  0  0  0  0  0
    2.5979   -2.4001    3.7692 H   0  0  0  0  0  0  0  0  0  0  0  0
    5.0488   -2.3249    3.7669 H   0  0  0  0  0  0  0  0  0  0  0  0
    6.8305   -3.1435    2.5763 H   0  0  0  0  0  0  0  0  0  0  0  0
    9.2298   -3.3631    2.1792 H   0  0  0  0  0  0  0  0  0  0  0  0
   10.5217   -1.4897    1.2144 H   0  0  0  0  0  0  0  0  0  0  0  0
   10.3566    0.5876    0.3144 H   0  0  0  0  0  0  0  0  0  0  0  0
    7.0032    0.9595    1.2107 H   0  0  0  0  0  0  0  0  0  0  0  0
    4.9671    0.3872    0.4132 H   0  0  0  0  0  0  0  0  0  0  0  0
  1  2  2  0  0  0  0
  2  3  1  0  0  0  0
  2 20  1  0  0  0  0
  3  4  1  0  0  0  0
  3 33  1  0  0  0  0
  4  5  1  0  0  0  0
  4 19  2  0  0  0  0
  5  6  2  0  0  0  0
  5 34  1  0  0  0  0
  6  7  1  0  0  0  0
  6 35  1  0  0  0  0
  7  8  1  0  0  0  0
  7 17  2  0  0  0  0
  8  9  1  0  0  0  0
  9 10  1  0  0  0  0
  9 36  1  0  0  0  0
  9 37  1  0  0  0  0
 10 11  1  0  0  0  0
 10 38  1  0  0  0  0
 10 39  1  0  0  0  0
 11 12  1  0  0  0  0
 11 16  1  0  0  0  0
 12 13  1  0  0  0  0
 12 40  1  0  0  0  0
 12 41  1  0  0  0  0
 13 14  1  0  0  0  0
 13 42  1  0  0  0  0
 13 43  1  0  0  0  0
 14 15  1  0  0  0  0
 15 16  1  0  0  0  0
 15 44  1  0  0  0  0
 15 45  1  0  0  0  0
 16 46  1  0  0  0  0
 16 47  1  0  0  0  0
 17 18  1  0  0  0  0
 17 19  1  0  0  0  0
 19 48  1  0  0  0  0
 20 21  1  0  0  0  0
 20 32  2  0  0  0  0
 21 22  2  0  0  0  0
 21 49  1  0  0  0  0
 22 23  1  0  0  0  0
 22 50  1  0  0  0  0
 23 24  2  0  0  0  0
 23 51  1  0  0  0  0
 24 25  1  0  0  0  0
 24 32  1  0  0  0  0
 25 26  1  0  0  0  0
 25 31  2  0  0  0  0
 26 27  2  0  0  0  0
 26 52  1  0  0  0  0
 27 28  1  0  0  0  0
 27 53  1  0  0  0  0
 28 29  2  0  0  0  0
 28 54  1  0  0  0  0
 29 30  1  0  0  0  0
 29 31  1  0  0  0  0
 30 55  1  0  0  0  0
 31 56  1  0  0  0  0
 32 57  1  0  0  0  0
M  END
$$$$
