CHEMBL3914330
 OpenBabel04072215373D

 57 60  0  0  0  0  0  0  0  0999 V2000
    3.1797   -0.2594   -0.1013 C   0  0  0  0  0  0  0  0  0  0  0  0
    1.6854   -0.0925   -0.1592 C   0  0  0  0  0  0  0  0  0  0  0  0
    0.9251   -1.2823   -0.2345 C   0  0  0  0  0  0  0  0  0  0  0  0
   -0.4700   -1.2766   -0.1717 C   0  0  0  0  0  0  0  0  0  0  0  0
   -1.2404   -2.4139   -0.2488 O   0  0  0  0  0  0  0  0  0  0  0  0
   -0.8096   -3.5343    0.4624 C   0  0  0  0  0  0  0  0  0  0  0  0
   -1.2647   -4.7634    0.0247 C   0  0  0  0  0  0  0  0  0  0  0  0
   -0.8161   -5.8570    0.7389 C   0  0  0  0  0  0  0  0  0  0  0  0
   -1.2671   -7.1403    0.3760 N   0  0  0  0  0  0  0  0  0  0  0  0
   -0.9288   -8.2914    1.0632 C   0  0  0  0  0  0  0  0  0  0  0  0
   -0.1622   -8.3865    2.0111 O   0  0  0  0  0  0  0  0  0  0  0  0
   -1.5671   -9.5600    0.6005 C   0  0  0  0  0  0  0  0  0  0  0  0
   -1.2174  -10.1108   -0.7614 C   0  0  0  0  0  0  0  0  0  0  0  0
   -2.6331   -9.7176   -0.4507 C   0  0  0  0  0  0  0  0  0  0  0  0
    0.0223   -5.7240    1.7717 N   0  0  0  0  0  0  0  0  0  0  0  0
    0.3865   -4.4921    2.1251 C   0  0  0  0  0  0  0  0  0  0  0  0
   -0.0046   -3.3708    1.5265 N   0  0  0  0  0  0  0  0  0  0  0  0
   -1.1134   -0.0504   -0.1037 C   0  0  0  0  0  0  0  0  0  0  0  0
   -2.4531    0.0092   -0.0693 F   0  0  0  0  0  0  0  0  0  0  0  0
   -0.3854    1.1400   -0.0713 C   0  0  0  0  0  0  0  0  0  0  0  0
    1.0202    1.1536   -0.0900 C   0  0  0  0  0  0  0  0  0  0  0  0
    1.7576    2.3783   -0.0730 N   0  0  0  0  0  0  0  0  0  0  0  0
    1.2163    3.6496    0.0912 C   0  0  0  0  0  0  0  0  0  0  0  0
    0.0473    3.8860    0.3944 O   0  0  0  0  0  0  0  0  0  0  0  0
    2.1320    4.6642   -0.1762 N   0  0  0  0  0  0  0  0  0  0  0  0
    1.7309    6.0282   -0.1068 C   0  0  0  0  0  0  0  0  0  0  0  0
    2.0855    6.8888   -1.1457 C   0  0  0  0  0  0  0  0  0  0  0  0
    1.6114    8.2046   -1.1528 C   0  0  0  0  0  0  0  0  0  0  0  0
    0.8251    8.6917   -0.1004 C   0  0  0  0  0  0  0  0  0  0  0  0
    0.2650   10.3205   -0.2314 Cl  0  0  0  0  0  0  0  0  0  0  0  0
    0.5077    7.8657    0.9861 C   0  0  0  0  0  0  0  0  0  0  0  0
   -0.3064    8.3397    2.1727 C   0  0  0  0  0  0  0  0  0  0  0  0
   -1.8058    8.2225    1.9376 C   0  0  0  0  0  0  0  0  0  0  0  0
   -0.0241    7.6160    3.3017 F   0  0  0  0  0  0  0  0  0  0  0  0
   -0.0365    9.6294    2.5315 F   0  0  0  0  0  0  0  0  0  0  0  0
    0.9602    6.5266    0.9556 C   0  0  0  0  0  0  0  0  0  0  0  0
    3.4651   -1.3046   -0.2810 H   0  0  0  0  0  0  0  0  0  0  0  0
    3.5484    0.0040    0.8944 H   0  0  0  0  0  0  0  0  0  0  0  0
    3.6790    0.3405   -0.8646 H   0  0  0  0  0  0  0  0  0  0  0  0
    1.4420   -2.2394   -0.3128 H   0  0  0  0  0  0  0  0  0  0  0  0
   -1.9272   -4.8402   -0.8235 H   0  0  0  0  0  0  0  0  0  0  0  0
   -1.8956   -7.2136   -0.4060 H   0  0  0  0  0  0  0  0  0  0  0  0
   -1.6173  -10.2885    1.4099 H   0  0  0  0  0  0  0  0  0  0  0  0
   -0.9679  -11.1653   -0.8156 H   0  0  0  0  0  0  0  0  0  0  0  0
   -0.6470   -9.4890   -1.4414 H   0  0  0  0  0  0  0  0  0  0  0  0
   -3.3530  -10.5195   -0.3061 H   0  0  0  0  0  0  0  0  0  0  0  0
   -3.0540   -8.8587   -0.9522 H   0  0  0  0  0  0  0  0  0  0  0  0
    1.0635   -4.4025    2.9664 H   0  0  0  0  0  0  0  0  0  0  0  0
   -0.9791    2.0470   -0.0325 H   0  0  0  0  0  0  0  0  0  0  0  0
    2.7639    2.3112   -0.0669 H   0  0  0  0  0  0  0  0  0  0  0  0
    2.8176    4.4372   -0.8837 H   0  0  0  0  0  0  0  0  0  0  0  0
    2.6666    6.5378   -1.9935 H   0  0  0  0  0  0  0  0  0  0  0  0
    1.8415    8.8484   -1.9997 H   0  0  0  0  0  0  0  0  0  0  0  0
   -2.1080    7.1762    1.8253 H   0  0  0  0  0  0  0  0  0  0  0  0
   -2.1295    8.7790    1.0529 H   0  0  0  0  0  0  0  0  0  0  0  0
   -2.3492    8.6307    2.7971 H   0  0  0  0  0  0  0  0  0  0  0  0
    0.7050    5.8651    1.7849 H   0  0  0  0  0  0  0  0  0  0  0  0
  1  2  1  0  0  0  0
  1 37  1  0  0  0  0
  1 38  1  0  0  0  0
  1 39  1  0  0  0  0
  2  3  1  0  0  0  0
  2 21  2  0  0  0  0
  3  4  2  0  0  0  0
  3 40  1  0  0  0  0
  4  5  1  0  0  0  0
  4 18  1  0  0  0  0
  5  6  1  0  0  0  0
  6  7  1  0  0  0  0
  6 17  2  0  0  0  0
  7  8  2  0  0  0  0
  7 41  1  0  0  0  0
  8  9  1  0  0  0  0
  8 15  1  0  0  0  0
  9 10  1  0  0  0  0
  9 42  1  0  0  0  0
 10 11  2  0  0  0  0
 10 12  1  0  0  0  0
 12 13  1  0  0  0  0
 12 14  1  0  0  0  0
 12 43  1  0  0  0  0
 13 14  1  0  0  0  0
 13 44  1  0  0  0  0
 13 45  1  0  0  0  0
 14 46  1  0  0  0  0
 14 47  1  0  0  0  0
 15 16  2  0  0  0  0
 16 17  1  0  0  0  0
 16 48  1  0  0  0  0
 18 19  1  0  0  0  0
 18 20  2  0  0  0  0
 20 21  1  0  0  0  0
 20 49  1  0  0  0  0
 21 22  1  0  0  0  0
 22 23  1  0  0  0  0
 22 50  1  0  0  0  0
 23 24  2  0  0  0  0
 23 25  1  0  0  0  0
 25 26  1  0  0  0  0
 25 51  1  0  0  0  0
 26 27  1  0  0  0  0
 26 36  2  0  0  0  0
 27 28  2  0  0  0  0
 27 52  1  0  0  0  0
 28 29  1  0  0  0  0
 28 53  1  0  0  0  0
 29 30  1  0  0  0  0
 29 31  2  0  0  0  0
 31 32  1  0  0  0  0
 31 36  1  0  0  0  0
 32 33  1  0  0  0  0
 32 34  1  0  0  0  0
 32 35  1  0  0  0  0
 33 54  1  0  0  0  0
 33 55  1  0  0  0  0
 33 56  1  0  0  0  0
 36 57  1  0  0  0  0
M  END
$$$$
