CHEMBL403402
 OpenBabel04072215373D

 45 48  0  0  0  0  0  0  0  0999 V2000
    1.2831   -0.2567   -1.7681 N   0  0  0  0  0  0  0  0  0  0  0  0
    2.5875   -0.3074   -1.4640 C   0  0  0  0  0  0  0  0  0  0  0  0
    3.4081    0.6732   -1.8341 N   0  0  0  0  0  0  0  0  0  0  0  0
    4.5874    0.3040   -1.3158 N   0  0  0  0  0  0  0  0  0  0  0  0
    4.5548   -0.8754   -0.6367 C   0  0  0  0  0  0  0  0  0  0  0  0
    5.6055   -1.4232   -0.0010 N   0  0  0  0  0  0  0  0  0  0  0  0
    5.3009   -2.5914    0.5911 C   0  0  0  0  0  0  0  0  0  0  0  0
    4.0560   -3.2009    0.5586 C   0  0  0  0  0  0  0  0  0  0  0  0
    2.9671   -2.5917   -0.1084 C   0  0  0  0  0  0  0  0  0  0  0  0
    1.6253   -3.2039   -0.0802 C   0  0  0  0  0  0  0  0  0  0  0  0
    1.1793   -3.8298    1.0919 C   0  0  0  0  0  0  0  0  0  0  0  0
   -0.0850   -4.4135    1.1761 C   0  0  0  0  0  0  0  0  0  0  0  0
   -0.9855   -4.3535    0.1124 C   0  0  0  0  0  0  0  0  0  0  0  0
   -2.3012   -4.8757    0.1797 N   0  0  0  0  0  0  0  0  0  0  0  0
   -2.8797   -5.3903    1.3230 C   0  0  0  0  0  0  0  0  0  0  0  0
   -2.3561   -5.4017    2.4299 O   0  0  0  0  0  0  0  0  0  0  0  0
   -4.1324   -5.9491    1.0963 N   0  0  0  0  0  0  0  0  0  0  0  0
   -4.7772   -6.5668    2.2041 C   0  0  0  0  0  0  0  0  0  0  0  0
   -4.8570   -5.9177    3.4442 C   0  0  0  0  0  0  0  0  0  0  0  0
   -5.2707   -6.6076    4.5922 C   0  0  0  0  0  0  0  0  0  0  0  0
   -5.2754   -5.9251    5.9394 C   0  0  0  0  0  0  0  0  0  0  0  0
   -4.9291   -4.6084    5.8921 F   0  0  0  0  0  0  0  0  0  0  0  0
   -6.5024   -5.9631    6.5290 F   0  0  0  0  0  0  0  0  0  0  0  0
   -4.4190   -6.5066    6.8238 F   0  0  0  0  0  0  0  0  0  0  0  0
   -5.6353   -7.9584    4.4714 C   0  0  0  0  0  0  0  0  0  0  0  0
   -5.6214   -8.5900    3.2231 C   0  0  0  0  0  0  0  0  0  0  0  0
   -5.2115   -7.8855    2.0949 C   0  0  0  0  0  0  0  0  0  0  0  0
   -5.1404   -8.5165    0.9131 F   0  0  0  0  0  0  0  0  0  0  0  0
   -0.5538   -3.7572   -1.0722 C   0  0  0  0  0  0  0  0  0  0  0  0
    0.7465   -3.2251   -1.1727 C   0  0  0  0  0  0  0  0  0  0  0  0
    3.2492   -1.3491   -0.7329 C   0  0  0  0  0  0  0  0  0  0  0  0
    0.9689    0.6341   -2.1398 H   0  0  0  0  0  0  0  0  0  0  0  0
    0.6144   -0.6634   -1.1229 H   0  0  0  0  0  0  0  0  0  0  0  0
    5.3899    0.9036   -1.4395 H   0  0  0  0  0  0  0  0  0  0  0  0
    6.1226   -3.0593    1.1283 H   0  0  0  0  0  0  0  0  0  0  0  0
    3.9358   -4.1551    1.0654 H   0  0  0  0  0  0  0  0  0  0  0  0
    1.8059   -3.8731    1.9805 H   0  0  0  0  0  0  0  0  0  0  0  0
   -0.3194   -4.8983    2.1170 H   0  0  0  0  0  0  0  0  0  0  0  0
   -2.9027   -4.7320   -0.6162 H   0  0  0  0  0  0  0  0  0  0  0  0
   -4.2052   -6.4595    0.2242 H   0  0  0  0  0  0  0  0  0  0  0  0
   -4.5318   -4.8806    3.5323 H   0  0  0  0  0  0  0  0  0  0  0  0
   -5.9161   -8.5268    5.3573 H   0  0  0  0  0  0  0  0  0  0  0  0
   -5.8867   -9.6385    3.1323 H   0  0  0  0  0  0  0  0  0  0  0  0
   -1.2091   -3.6959   -1.9380 H   0  0  0  0  0  0  0  0  0  0  0  0
    1.0578   -2.8118   -2.1315 H   0  0  0  0  0  0  0  0  0  0  0  0
  1  2  1  0  0  0  0
  1 32  1  0  0  0  0
  1 33  1  0  0  0  0
  2  3  2  0  0  0  0
  2 31  1  0  0  0  0
  3  4  1  0  0  0  0
  4  5  1  0  0  0  0
  4 34  1  0  0  0  0
  5  6  1  0  0  0  0
  5 31  2  0  0  0  0
  6  7  2  0  0  0  0
  7  8  1  0  0  0  0
  7 35  1  0  0  0  0
  8  9  2  0  0  0  0
  8 36  1  0  0  0  0
  9 10  1  0  0  0  0
  9 31  1  0  0  0  0
 10 11  1  0  0  0  0
 10 30  2  0  0  0  0
 11 12  2  0  0  0  0
 11 37  1  0  0  0  0
 12 13  1  0  0  0  0
 12 38  1  0  0  0  0
 13 14  1  0  0  0  0
 13 29  2  0  0  0  0
 14 15  1  0  0  0  0
 14 39  1  0  0  0  0
 15 16  2  0  0  0  0
 15 17  1  0  0  0  0
 17 18  1  0  0  0  0
 17 40  1  0  0  0  0
 18 19  1  0  0  0  0
 18 27  2  0  0  0  0
 19 20  2  0  0  0  0
 19 41  1  0  0  0  0
 20 21  1  0  0  0  0
 20 25  1  0  0  0  0
 21 22  1  0  0  0  0
 21 23  1  0  0  0  0
 21 24  1  0  0  0  0
 25 26  2  0  0  0  0
 25 42  1  0  0  0  0
 26 27  1  0  0  0  0
 26 43  1  0  0  0  0
 27 28  1  0  0  0  0
 29 30  1  0  0  0  0
 29 44  1  0  0  0  0
 30 45  1  0  0  0  0
M  END
$$$$
