CHEMBL424719
 OpenBabel04072215383D

 53 56  0  0  0  0  0  0  0  0999 V2000
    1.1397    0.3545    0.1124 C   0  0  0  0  0  0  0  0  0  0  0  0
    2.3431   -0.2540   -0.4046 N   0  0  0  0  0  0  0  0  0  0  0  0
    3.0259    0.5053   -1.3434 C   0  0  0  0  0  0  0  0  0  0  0  0
    3.7126   -0.1881   -2.2581 N   0  0  0  0  0  0  0  0  0  0  0  0
    4.4306    0.5297   -3.1443 C   0  0  0  0  0  0  0  0  0  0  0  0
    4.4832    1.9143   -3.1597 C   0  0  0  0  0  0  0  0  0  0  0  0
    5.2707    2.6783   -4.0570 C   0  0  0  0  0  0  0  0  0  0  0  0
    5.2555    4.0871   -4.0468 C   0  0  0  0  0  0  0  0  0  0  0  0
    6.1274    4.8827   -4.9703 C   0  0  0  0  0  0  0  0  0  0  0  0
    6.3774    4.3777   -6.2752 C   0  0  0  0  0  0  0  0  0  0  0  0
    7.2263    5.0057   -7.1952 C   0  0  0  0  0  0  0  0  0  0  0  0
    7.5004    4.4649   -8.4762 N   0  0  0  0  0  0  0  0  0  0  0  0
    6.6851    3.5691   -9.1483 C   0  0  0  0  0  0  0  0  0  0  0  0
    5.5464    3.2657   -8.7997 O   0  0  0  0  0  0  0  0  0  0  0  0
    7.3184    3.0225  -10.2510 N   0  0  0  0  0  0  0  0  0  0  0  0
    6.6481    2.1017  -11.0920 C   0  0  0  0  0  0  0  0  0  0  0  0
    7.3053    0.9306  -11.4719 C   0  0  0  0  0  0  0  0  0  0  0  0
    6.6426   -0.0225  -12.2485 C   0  0  0  0  0  0  0  0  0  0  0  0
    5.3438    0.2177  -12.6993 C   0  0  0  0  0  0  0  0  0  0  0  0
    4.6863    1.4115  -12.3690 C   0  0  0  0  0  0  0  0  0  0  0  0
    3.3034    1.7101  -12.8938 C   0  0  0  0  0  0  0  0  0  0  0  0
    2.8215    0.7438  -13.7271 F   0  0  0  0  0  0  0  0  0  0  0  0
    2.3750    1.8457  -11.9085 F   0  0  0  0  0  0  0  0  0  0  0  0
    3.2606    2.8669  -13.6134 F   0  0  0  0  0  0  0  0  0  0  0  0
    5.3445    2.3404  -11.5450 C   0  0  0  0  0  0  0  0  0  0  0  0
    7.8544    6.1876   -6.8261 C   0  0  0  0  0  0  0  0  0  0  0  0
    7.6091    6.7395   -5.5689 C   0  0  0  0  0  0  0  0  0  0  0  0
    6.7713    6.1011   -4.6278 C   0  0  0  0  0  0  0  0  0  0  0  0
    6.6297    6.7771   -3.2866 C   0  0  0  0  0  0  0  0  0  0  0  0
    4.3732    4.6751   -3.1318 C   0  0  0  0  0  0  0  0  0  0  0  0
    3.6404    3.9126   -2.2076 C   0  0  0  0  0  0  0  0  0  0  0  0
    3.6886    2.5305   -2.2002 C   0  0  0  0  0  0  0  0  0  0  0  0
    2.9760    1.8433   -1.2981 N   0  0  0  0  0  0  0  0  0  0  0  0
    0.6512   -0.3435    0.7999 H   0  0  0  0  0  0  0  0  0  0  0  0
    0.4285    0.5860   -0.6884 H   0  0  0  0  0  0  0  0  0  0  0  0
    1.3575    1.2661    0.6795 H   0  0  0  0  0  0  0  0  0  0  0  0
    2.2387   -1.1781   -0.8073 H   0  0  0  0  0  0  0  0  0  0  0  0
    4.9795   -0.0652   -3.8688 H   0  0  0  0  0  0  0  0  0  0  0  0
    5.9068    2.1418   -4.7597 H   0  0  0  0  0  0  0  0  0  0  0  0
    5.8975    3.4462   -6.5616 H   0  0  0  0  0  0  0  0  0  0  0  0
    8.1779    4.9485   -9.0476 H   0  0  0  0  0  0  0  0  0  0  0  0
    8.3102    2.8733  -10.1238 H   0  0  0  0  0  0  0  0  0  0  0  0
    8.3097    0.7143  -11.1194 H   0  0  0  0  0  0  0  0  0  0  0  0
    7.1353   -0.9598  -12.4962 H   0  0  0  0  0  0  0  0  0  0  0  0
    4.8450   -0.5320  -13.3125 H   0  0  0  0  0  0  0  0  0  0  0  0
    4.8323    3.2619  -11.2685 H   0  0  0  0  0  0  0  0  0  0  0  0
    8.5199    6.7114   -7.5087 H   0  0  0  0  0  0  0  0  0  0  0  0
    8.0925    7.6832   -5.3127 H   0  0  0  0  0  0  0  0  0  0  0  0
    7.3707    7.5748   -3.1571 H   0  0  0  0  0  0  0  0  0  0  0  0
    6.7906    6.0657   -2.4721 H   0  0  0  0  0  0  0  0  0  0  0  0
    5.6504    7.2529   -3.1953 H   0  0  0  0  0  0  0  0  0  0  0  0
    4.2225    5.7489   -3.1085 H   0  0  0  0  0  0  0  0  0  0  0  0
    3.0108    4.4192   -1.4800 H   0  0  0  0  0  0  0  0  0  0  0  0
  1  2  1  0  0  0  0
  1 34  1  0  0  0  0
  1 35  1  0  0  0  0
  1 36  1  0  0  0  0
  2  3  1  0  0  0  0
  2 37  1  0  0  0  0
  3  4  1  0  0  0  0
  3 33  2  0  0  0  0
  4  5  2  0  0  0  0
  5  6  1  0  0  0  0
  5 38  1  0  0  0  0
  6  7  1  0  0  0  0
  6 32  2  0  0  0  0
  7  8  2  0  0  0  0
  7 39  1  0  0  0  0
  8  9  1  0  0  0  0
  8 30  1  0  0  0  0
  9 10  1  0  0  0  0
  9 28  2  0  0  0  0
 10 11  2  0  0  0  0
 10 40  1  0  0  0  0
 11 12  1  0  0  0  0
 11 26  1  0  0  0  0
 12 13  1  0  0  0  0
 12 41  1  0  0  0  0
 13 14  2  0  0  0  0
 13 15  1  0  0  0  0
 15 16  1  0  0  0  0
 15 42  1  0  0  0  0
 16 17  1  0  0  0  0
 16 25  2  0  0  0  0
 17 18  2  0  0  0  0
 17 43  1  0  0  0  0
 18 19  1  0  0  0  0
 18 44  1  0  0  0  0
 19 20  2  0  0  0  0
 19 45  1  0  0  0  0
 20 21  1  0  0  0  0
 20 25  1  0  0  0  0
 21 22  1  0  0  0  0
 21 23  1  0  0  0  0
 21 24  1  0  0  0  0
 25 46  1  0  0  0  0
 26 27  2  0  0  0  0
 26 47  1  0  0  0  0
 27 28  1  0  0  0  0
 27 48  1  0  0  0  0
 28 29  1  0  0  0  0
 29 49  1  0  0  0  0
 29 50  1  0  0  0  0
 29 51  1  0  0  0  0
 30 31  2  0  0  0  0
 30 52  1  0  0  0  0
 31 32  1  0  0  0  0
 31 53  1  0  0  0  0
 32 33  1  0  0  0  0
M  END
$$$$
