CHEMBL2047246
 OpenBabel04072215363D

 35 38  0  0  0  0  0  0  0  0999 V2000
    1.2754    0.1417   -0.2257 N   0  0  0  0  0  0  0  0  0  0  0  0
    2.6517    0.1209   -0.1589 C   0  0  0  0  0  0  0  0  0  0  0  0
    3.2883    1.2909   -0.0845 N   0  0  0  0  0  0  0  0  0  0  0  0
    4.6220    1.1872   -0.0339 C   0  0  0  0  0  0  0  0  0  0  0  0
    5.3427   -0.0065   -0.0331 C   0  0  0  0  0  0  0  0  0  0  0  0
    4.5927   -1.1518   -0.0940 C   0  0  0  0  0  0  0  0  0  0  0  0
    5.2066   -2.4235   -0.0968 N   0  0  0  0  0  0  0  0  0  0  0  0
    4.6737   -3.5767   -0.7129 C   0  0  0  0  0  0  0  0  0  0  0  0
    4.9919   -4.8530   -0.2264 C   0  0  0  0  0  0  0  0  0  0  0  0
    4.5200   -6.0032   -0.8715 C   0  0  0  0  0  0  0  0  0  0  0  0
    3.7485   -5.8888   -2.0260 C   0  0  0  0  0  0  0  0  0  0  0  0
    3.4587   -4.6287   -2.5278 C   0  0  0  0  0  0  0  0  0  0  0  0
    2.7363   -4.5135   -3.6500 F   0  0  0  0  0  0  0  0  0  0  0  0
    3.9185   -3.4841   -1.8908 C   0  0  0  0  0  0  0  0  0  0  0  0
    3.2418   -1.0830   -0.1428 N   0  0  0  0  0  0  0  0  0  0  0  0
    6.7617    0.2948   -0.0275 C   0  0  0  0  0  0  0  0  0  0  0  0
    7.8780   -0.5255   -0.0686 C   0  0  0  0  0  0  0  0  0  0  0  0
    9.1458    0.0696   -0.0631 C   0  0  0  0  0  0  0  0  0  0  0  0
    9.2899    1.4665   -0.0303 C   0  0  0  0  0  0  0  0  0  0  0  0
    8.1691    2.2971   -0.0101 C   0  0  0  0  0  0  0  0  0  0  0  0
    6.9201    1.6999   -0.0111 C   0  0  0  0  0  0  0  0  0  0  0  0
    5.5665    2.3792   -0.0165 C   0  0  0  0  0  0  0  0  0  0  0  0
    0.9170    0.9971    0.1714 H   0  0  0  0  0  0  0  0  0  0  0  0
    0.9023   -0.7325    0.1192 H   0  0  0  0  0  0  0  0  0  0  0  0
    5.6291   -2.5982    0.8071 H   0  0  0  0  0  0  0  0  0  0  0  0
    5.6017   -4.9674    0.6660 H   0  0  0  0  0  0  0  0  0  0  0  0
    4.7596   -6.9869   -0.4763 H   0  0  0  0  0  0  0  0  0  0  0  0
    3.3795   -6.7681   -2.5432 H   0  0  0  0  0  0  0  0  0  0  0  0
    3.6829   -2.5190   -2.3289 H   0  0  0  0  0  0  0  0  0  0  0  0
    7.7918   -1.6051   -0.1190 H   0  0  0  0  0  0  0  0  0  0  0  0
   10.0340   -0.5578   -0.0928 H   0  0  0  0  0  0  0  0  0  0  0  0
   10.2857    1.9036   -0.0300 H   0  0  0  0  0  0  0  0  0  0  0  0
    8.2793    3.3767   -0.0002 H   0  0  0  0  0  0  0  0  0  0  0  0
    5.4335    2.9817   -0.9200 H   0  0  0  0  0  0  0  0  0  0  0  0
    5.4189    2.9720    0.8904 H   0  0  0  0  0  0  0  0  0  0  0  0
  1  2  1  0  0  0  0
  1 23  1  0  0  0  0
  1 24  1  0  0  0  0
  2  3  1  0  0  0  0
  2 15  2  0  0  0  0
  3  4  2  0  0  0  0
  4  5  1  0  0  0  0
  4 22  1  0  0  0  0
  5  6  2  0  0  0  0
  5 16  1  0  0  0  0
  6  7  1  0  0  0  0
  6 15  1  0  0  0  0
  7  8  1  0  0  0  0
  7 25  1  0  0  0  0
  8  9  1  0  0  0  0
  8 14  2  0  0  0  0
  9 10  2  0  0  0  0
  9 26  1  0  0  0  0
 10 11  1  0  0  0  0
 10 27  1  0  0  0  0
 11 12  2  0  0  0  0
 11 28  1  0  0  0  0
 12 13  1  0  0  0  0
 12 14  1  0  0  0  0
 14 29  1  0  0  0  0
 16 17  1  0  0  0  0
 16 21  2  0  0  0  0
 17 18  2  0  0  0  0
 17 30  1  0  0  0  0
 18 19  1  0  0  0  0
 18 31  1  0  0  0  0
 19 20  2  0  0  0  0
 19 32  1  0  0  0  0
 20 21  1  0  0  0  0
 20 33  1  0  0  0  0
 21 22  1  0  0  0  0
 22 34  1  0  0  0  0
 22 35  1  0  0  0  0
M  END
$$$$
