CHEMBL377734
 OpenBabel04072215373D

 45 48  0  0  0  0  0  0  0  0999 V2000
    1.5482   -0.5944    0.9623 O   0  0  0  0  0  0  0  0  0  0  0  0
    2.4164   -0.1820    0.2027 C   0  0  0  0  0  0  0  0  0  0  0  0
    2.7490   -0.8178   -0.9810 N   0  0  0  0  0  0  0  0  0  0  0  0
    2.0479   -1.9861   -1.4163 C   0  0  0  0  0  0  0  0  0  0  0  0
    2.5385   -3.3544   -1.0392 C   0  0  0  0  0  0  0  0  0  0  0  0
    2.6106   -2.9062   -2.4679 C   0  0  0  0  0  0  0  0  0  0  0  0
    3.1381    1.0800    0.5466 C   0  0  0  0  0  0  0  0  0  0  0  0
    2.8270    1.7242    1.7655 C   0  0  0  0  0  0  0  0  0  0  0  0
    3.4434    2.9297    2.1522 C   0  0  0  0  0  0  0  0  0  0  0  0
    3.1465    3.4411    3.4211 N   0  0  0  0  0  0  0  0  0  0  0  0
    3.7157    4.7150    3.8580 C   0  0  0  0  0  0  0  0  0  0  0  0
    3.3105    5.1183    5.2387 C   0  0  0  0  0  0  0  0  0  0  0  0
    3.9158    4.7756    6.4251 C   0  0  0  0  0  0  0  0  0  0  0  0
    3.3657    5.3392    7.5471 N   0  0  0  0  0  0  0  0  0  0  0  0
    2.3132    6.0700    7.2579 C   0  0  0  0  0  0  0  0  0  0  0  0
    1.5170    6.7012    8.1506 N   0  0  0  0  0  0  0  0  0  0  0  0
    1.3706    6.3295    9.4959 C   0  0  0  0  0  0  0  0  0  0  0  0
    2.3498    5.6423   10.2111 C   0  0  0  0  0  0  0  0  0  0  0  0
    2.0908    5.1937   11.5003 C   0  0  0  0  0  0  0  0  0  0  0  0
    0.8660    5.4803   12.0782 C   0  0  0  0  0  0  0  0  0  0  0  0
   -0.0353    6.2191   11.3339 C   0  0  0  0  0  0  0  0  0  0  0  0
    0.1891    6.6495   10.0681 N   0  0  0  0  0  0  0  0  0  0  0  0
    1.9865    6.1634    5.5564 S   0  0  0  0  0  0  0  0  0  0  0  0
    4.4179    3.4489    1.2809 C   0  0  0  0  0  0  0  0  0  0  0  0
    5.0673    4.5864    1.5767 F   0  0  0  0  0  0  0  0  0  0  0  0
    4.7382    2.8326    0.0757 C   0  0  0  0  0  0  0  0  0  0  0  0
    4.1008    1.6520   -0.2815 C   0  0  0  0  0  0  0  0  0  0  0  0
    4.4406    1.0812   -1.4467 F   0  0  0  0  0  0  0  0  0  0  0  0
    3.4477   -0.4131   -1.5950 H   0  0  0  0  0  0  0  0  0  0  0  0
    0.9688   -1.8417   -1.4377 H   0  0  0  0  0  0  0  0  0  0  0  0
    1.7917   -4.0882   -0.7606 H   0  0  0  0  0  0  0  0  0  0  0  0
    3.4669   -3.4361   -0.4845 H   0  0  0  0  0  0  0  0  0  0  0  0
    1.9172   -3.3570   -3.1700 H   0  0  0  0  0  0  0  0  0  0  0  0
    3.5907   -2.7045   -2.8819 H   0  0  0  0  0  0  0  0  0  0  0  0
    2.0948    1.2658    2.4306 H   0  0  0  0  0  0  0  0  0  0  0  0
    2.1758    3.3101    3.6980 H   0  0  0  0  0  0  0  0  0  0  0  0
    3.4511    5.5124    3.1538 H   0  0  0  0  0  0  0  0  0  0  0  0
    4.8071    4.6270    3.8681 H   0  0  0  0  0  0  0  0  0  0  0  0
    4.7744    4.1257    6.5315 H   0  0  0  0  0  0  0  0  0  0  0  0
    0.6661    7.1434    7.8329 H   0  0  0  0  0  0  0  0  0  0  0  0
    3.3190    5.4214    9.7826 H   0  0  0  0  0  0  0  0  0  0  0  0
    2.8440    4.6175   12.0345 H   0  0  0  0  0  0  0  0  0  0  0  0
    0.6259    5.1361   13.0759 H   0  0  0  0  0  0  0  0  0  0  0  0
   -1.0049    6.4844   11.7458 H   0  0  0  0  0  0  0  0  0  0  0  0
    5.4858    3.2716   -0.5752 H   0  0  0  0  0  0  0  0  0  0  0  0
  1  2  2  0  0  0  0
  2  3  1  0  0  0  0
  2  7  1  0  0  0  0
  3  4  1  0  0  0  0
  3 29  1  0  0  0  0
  4  5  1  0  0  0  0
  4  6  1  0  0  0  0
  4 30  1  0  0  0  0
  5  6  1  0  0  0  0
  5 31  1  0  0  0  0
  5 32  1  0  0  0  0
  6 33  1  0  0  0  0
  6 34  1  0  0  0  0
  7  8  1  0  0  0  0
  7 27  2  0  0  0  0
  8  9  2  0  0  0  0
  8 35  1  0  0  0  0
  9 10  1  0  0  0  0
  9 24  1  0  0  0  0
 10 11  1  0  0  0  0
 10 36  1  0  0  0  0
 11 12  1  0  0  0  0
 11 37  1  0  0  0  0
 11 38  1  0  0  0  0
 12 13  2  0  0  0  0
 12 23  1  0  0  0  0
 13 14  1  0  0  0  0
 13 39  1  0  0  0  0
 14 15  2  0  0  0  0
 15 16  1  0  0  0  0
 15 23  1  0  0  0  0
 16 17  1  0  0  0  0
 16 40  1  0  0  0  0
 17 18  1  0  0  0  0
 17 22  2  0  0  0  0
 18 19  2  0  0  0  0
 18 41  1  0  0  0  0
 19 20  1  0  0  0  0
 19 42  1  0  0  0  0
 20 21  2  0  0  0  0
 20 43  1  0  0  0  0
 21 22  1  0  0  0  0
 21 44  1  0  0  0  0
 24 25  1  0  0  0  0
 24 26  2  0  0  0  0
 26 27  1  0  0  0  0
 26 45  1  0  0  0  0
 27 28  1  0  0  0  0
M  END
$$$$
