CHEMBL4446129
 OpenBabel04072215383D

 45 49  0  0  0  0  0  0  0  0999 V2000
    1.9958    0.9317    0.5146 O   0  0  0  0  0  0  0  0  0  0  0  0
    2.1085   -0.0900   -0.1457 C   0  0  0  0  0  0  0  0  0  0  0  0
    1.4447   -0.3482   -1.3281 N   0  0  0  0  0  0  0  0  0  0  0  0
    0.6187    0.5490   -1.9572 C   0  0  0  0  0  0  0  0  0  0  0  0
   -0.2857    0.1675   -2.8254 N   0  0  0  0  0  0  0  0  0  0  0  0
   -1.0262    1.2710   -3.2242 C   0  0  0  0  0  0  0  0  0  0  0  0
   -2.1649    1.2565   -4.0547 C   0  0  0  0  0  0  0  0  0  0  0  0
   -2.8180    2.4593   -4.3554 C   0  0  0  0  0  0  0  0  0  0  0  0
   -2.3382    3.6652   -3.8558 C   0  0  0  0  0  0  0  0  0  0  0  0
   -3.1507    5.1330   -4.2425 Cl  0  0  0  0  0  0  0  0  0  0  0  0
   -1.2092    3.7124   -3.0381 C   0  0  0  0  0  0  0  0  0  0  0  0
   -0.5806    2.4983   -2.7288 C   0  0  0  0  0  0  0  0  0  0  0  0
    0.7846    2.2283   -1.7315 S   0  0  0  0  0  0  0  0  0  0  0  0
    2.9576   -1.1749    0.3211 C   0  0  0  0  0  0  0  0  0  0  0  0
    2.8269   -2.5175    0.0365 C   0  0  0  0  0  0  0  0  0  0  0  0
    3.7808   -3.1899    0.7590 N   0  0  0  0  0  0  0  0  0  0  0  0
    4.0129   -4.5921    0.7749 C   0  0  0  0  0  0  0  0  0  0  0  0
    3.2755   -5.4490   -0.0563 C   0  0  0  0  0  0  0  0  0  0  0  0
    3.5381   -6.8189   -0.0603 C   0  0  0  0  0  0  0  0  0  0  0  0
    4.5248   -7.3423    0.7716 C   0  0  0  0  0  0  0  0  0  0  0  0
    5.2495   -6.4990    1.6132 C   0  0  0  0  0  0  0  0  0  0  0  0
    4.9995   -5.1252    1.6155 C   0  0  0  0  0  0  0  0  0  0  0  0
    4.5342   -2.3416    1.4928 N   0  0  0  0  0  0  0  0  0  0  0  0
    4.0707   -1.1109    1.2203 C   0  0  0  0  0  0  0  0  0  0  0  0
    4.7071    0.0684    1.8236 C   0  0  0  0  0  0  0  0  0  0  0  0
    4.8281    1.2723    1.1124 C   0  0  0  0  0  0  0  0  0  0  0  0
    5.3867    2.4059    1.7084 C   0  0  0  0  0  0  0  0  0  0  0  0
    5.8656    2.3342    3.0124 C   0  0  0  0  0  0  0  0  0  0  0  0
    6.5561    3.7295    3.7436 Cl  0  0  0  0  0  0  0  0  0  0  0  0
    5.7911    1.1387    3.7238 C   0  0  0  0  0  0  0  0  0  0  0  0
    5.2134    0.0103    3.1310 C   0  0  0  0  0  0  0  0  0  0  0  0
    1.3908   -1.2838   -1.6913 H   0  0  0  0  0  0  0  0  0  0  0  0
   -2.5376    0.3128   -4.4410 H   0  0  0  0  0  0  0  0  0  0  0  0
   -3.7065    2.4414   -4.9820 H   0  0  0  0  0  0  0  0  0  0  0  0
   -0.8346    4.6494   -2.6386 H   0  0  0  0  0  0  0  0  0  0  0  0
    2.1087   -3.0406   -0.5739 H   0  0  0  0  0  0  0  0  0  0  0  0
    2.5003   -5.0898   -0.7242 H   0  0  0  0  0  0  0  0  0  0  0  0
    2.9755   -7.4750   -0.7194 H   0  0  0  0  0  0  0  0  0  0  0  0
    4.7304   -8.4092    0.7622 H   0  0  0  0  0  0  0  0  0  0  0  0
    6.0161   -6.9105    2.2650 H   0  0  0  0  0  0  0  0  0  0  0  0
    5.5819   -4.4848    2.2762 H   0  0  0  0  0  0  0  0  0  0  0  0
    4.4713    1.3571    0.0895 H   0  0  0  0  0  0  0  0  0  0  0  0
    5.4335    3.3364    1.1492 H   0  0  0  0  0  0  0  0  0  0  0  0
    6.1719    1.0782    4.7395 H   0  0  0  0  0  0  0  0  0  0  0  0
    5.1521   -0.9159    3.6997 H   0  0  0  0  0  0  0  0  0  0  0  0
  1  2  2  0  0  0  0
  2  3  1  0  0  0  0
  2 14  1  0  0  0  0
  3  4  1  0  0  0  0
  3 32  1  0  0  0  0
  4  5  2  0  0  0  0
  4 13  1  0  0  0  0
  5  6  1  0  0  0  0
  6  7  1  0  0  0  0
  6 12  2  0  0  0  0
  7  8  2  0  0  0  0
  7 33  1  0  0  0  0
  8  9  1  0  0  0  0
  8 34  1  0  0  0  0
  9 10  1  0  0  0  0
  9 11  2  0  0  0  0
 11 12  1  0  0  0  0
 11 35  1  0  0  0  0
 12 13  1  0  0  0  0
 14 15  2  0  0  0  0
 14 24  1  0  0  0  0
 15 16  1  0  0  0  0
 15 36  1  0  0  0  0
 16 17  1  0  0  0  0
 16 23  1  0  0  0  0
 17 18  1  0  0  0  0
 17 22  2  0  0  0  0
 18 19  2  0  0  0  0
 18 37  1  0  0  0  0
 19 20  1  0  0  0  0
 19 38  1  0  0  0  0
 20 21  2  0  0  0  0
 20 39  1  0  0  0  0
 21 22  1  0  0  0  0
 21 40  1  0  0  0  0
 22 41  1  0  0  0  0
 23 24  2  0  0  0  0
 24 25  1  0  0  0  0
 25 26  1  0  0  0  0
 25 31  2  0  0  0  0
 26 27  2  0  0  0  0
 26 42  1  0  0  0  0
 27 28  1  0  0  0  0
 27 43  1  0  0  0  0
 28 29  1  0  0  0  0
 28 30  2  0  0  0  0
 30 31  1  0  0  0  0
 30 44  1  0  0  0  0
 31 45  1  0  0  0  0
M  END
$$$$
