CHEMBL1085541
 OpenBabel04072215363D

 75 81  0  0  1  0  0  0  0  0999 V2000
    1.0930   -2.9325   -2.7870 C   0  0  0  0  0  0  0  0  0  0  0  0
    2.6143   -3.1396   -2.6867 C   0  0  0  0  0  0  0  0  0  0  0  0
    3.1908   -3.0667   -1.3245 N   0  0  0  0  0  0  0  0  0  0  0  0
    2.4947   -3.9256   -0.3532 C   0  0  0  0  0  0  0  0  0  0  0  0
    2.6310   -5.4292   -0.5650 C   0  0  0  0  0  0  0  0  0  0  0  0
    4.6757   -3.2658   -1.3958 C   0  0  0  0  0  0  0  0  0  0  0  0
    5.4395   -3.1041   -0.0611 C   0  0  0  0  0  0  0  0  0  0  0  0
    6.8984   -3.2786   -0.0104 N   0  0  0  0  0  0  0  0  0  0  0  0
    7.5976   -3.1027    1.2234 C   0  0  0  0  0  0  0  0  0  0  0  0
    7.1445   -2.8729    2.5375 C   0  0  0  0  0  0  0  0  0  0  0  0
    8.0980   -2.6807    3.5649 C   0  0  0  0  0  0  0  0  0  0  0  0
    9.4766   -2.7157    3.3251 C   0  0  0  0  0  0  0  0  0  0  0  0
   10.5705   -2.6003    4.3839 C   0  0  3  0  0  0  0  0  0  0  0  0
   10.1642   -2.2936    5.8311 C   0  0  0  0  0  0  0  0  0  0  0  0
    9.8092   -0.8278    6.0225 C   0  0  0  0  0  0  0  0  0  0  0  0
   10.9237    0.0660    5.5034 C   0  0  0  0  0  0  0  0  0  0  0  0
   11.3395   -0.3266    4.0922 C   0  0  0  0  0  0  0  0  0  0  0  0
   11.6354   -1.7182    3.9774 O   0  0  0  0  0  0  0  0  0  0  0  0
    9.8975   -2.9407    2.0101 C   0  0  0  0  0  0  0  0  0  0  0  0
    8.9727   -3.0976    0.9625 C   0  0  0  0  0  0  0  0  0  0  0  0
    9.0104   -3.1499   -0.4108 C   0  0  0  0  0  0  0  0  0  0  0  0
   10.1414   -2.7291   -1.1282 C   0  0  0  0  0  0  0  0  0  0  0  0
    9.8885   -2.3208   -2.4513 C   0  0  0  0  0  0  0  0  0  0  0  0
    8.6486   -2.4805   -3.0883 C   0  0  0  0  0  0  0  0  0  0  0  0
    7.8075   -3.4653   -2.4593 C   0  0  0  0  0  0  0  0  0  0  0  0
    7.8222   -3.3852   -1.0529 C   0  0  0  0  0  0  0  0  0  0  0  0
    7.8694   -4.8541   -3.2418 C   0  0  0  0  0  0  0  0  0  0  0  0
    8.9391   -4.9124   -4.4121 C   0  0  0  0  0  0  0  0  0  0  0  0
    8.7480   -3.6787   -5.2205 C   0  0  0  0  0  0  0  0  0  0  0  0
    8.3624   -3.5910   -6.4933 N   0  0  0  0  0  0  0  0  0  0  0  0
    7.9083   -2.3134   -6.5724 N   0  0  0  0  0  0  0  0  0  0  0  0
    7.2552   -1.8587   -7.7747 C   0  0  0  0  0  0  0  0  0  0  0  0
    7.9180   -1.6485   -5.3717 C   0  0  0  0  0  0  0  0  0  0  0  0
    8.6146   -2.4697   -4.5225 C   0  0  0  0  0  0  0  0  0  0  0  0
   11.1439   -1.8798   -3.0082 C   0  0  0  0  0  0  0  0  0  0  0  0
   11.4730   -1.4440   -4.1033 O   0  0  0  0  0  0  0  0  0  0  0  0
   12.0692   -2.0911   -1.9908 N   0  0  0  0  0  0  0  0  0  0  0  0
   11.5368   -2.5596   -0.7335 C   0  0  0  0  0  0  0  0  0  0  0  0
    0.8050   -2.8303   -3.8394 H   0  0  0  0  0  0  0  0  0  0  0  0
    0.7693   -2.0259   -2.2660 H   0  0  0  0  0  0  0  0  0  0  0  0
    0.5345   -3.7851   -2.3879 H   0  0  0  0  0  0  0  0  0  0  0  0
    3.0714   -2.3553   -3.2944 H   0  0  0  0  0  0  0  0  0  0  0  0
    2.8546   -4.0966   -3.1598 H   0  0  0  0  0  0  0  0  0  0  0  0
    1.4269   -3.6711   -0.3342 H   0  0  0  0  0  0  0  0  0  0  0  0
    2.8273   -3.6767    0.6609 H   0  0  0  0  0  0  0  0  0  0  0  0
    2.4047   -5.7264   -1.5933 H   0  0  0  0  0  0  0  0  0  0  0  0
    1.9303   -5.9606    0.0878 H   0  0  0  0  0  0  0  0  0  0  0  0
    3.6399   -5.7715   -0.3174 H   0  0  0  0  0  0  0  0  0  0  0  0
    5.0663   -2.5073   -2.0865 H   0  0  0  0  0  0  0  0  0  0  0  0
    4.8986   -4.2456   -1.8305 H   0  0  0  0  0  0  0  0  0  0  0  0
    5.0481   -3.8195    0.6705 H   0  0  0  0  0  0  0  0  0  0  0  0
    5.2524   -2.0923    0.3242 H   0  0  0  0  0  0  0  0  0  0  0  0
    6.0842   -2.8116    2.7677 H   0  0  0  0  0  0  0  0  0  0  0  0
    7.7194   -2.4986    4.5681 H   0  0  0  0  0  0  0  0  0  0  0  0
   11.0314   -3.5980    4.4059 H   0  0  0  0  0  0  0  0  0  0  0  0
   11.0362   -2.5077    6.4741 H   0  0  0  0  0  0  0  0  0  0  0  0
    9.3596   -2.9423    6.1663 H   0  0  0  0  0  0  0  0  0  0  0  0
    9.6352   -0.6301    7.0858 H   0  0  0  0  0  0  0  0  0  0  0  0
    8.8764   -0.5938    5.4981 H   0  0  0  0  0  0  0  0  0  0  0  0
   11.7875   -0.0269    6.1731 H   0  0  0  0  0  0  0  0  0  0  0  0
   10.6075    1.1155    5.5260 H   0  0  0  0  0  0  0  0  0  0  0  0
   12.2501    0.2215    3.8245 H   0  0  0  0  0  0  0  0  0  0  0  0
   10.5727   -0.0515    3.3611 H   0  0  0  0  0  0  0  0  0  0  0  0
   10.9637   -2.9827    1.8102 H   0  0  0  0  0  0  0  0  0  0  0  0
    6.8788   -5.0356   -3.6707 H   0  0  0  0  0  0  0  0  0  0  0  0
    8.1012   -5.6582   -2.5333 H   0  0  0  0  0  0  0  0  0  0  0  0
    8.8532   -5.8214   -5.0126 H   0  0  0  0  0  0  0  0  0  0  0  0
    9.9551   -4.9005   -3.9864 H   0  0  0  0  0  0  0  0  0  0  0  0
    7.5112   -2.5234   -8.6026 H   0  0  0  0  0  0  0  0  0  0  0  0
    7.5988   -0.8448   -7.9922 H   0  0  0  0  0  0  0  0  0  0  0  0
    6.1762   -1.8686   -7.5984 H   0  0  0  0  0  0  0  0  0  0  0  0
    7.3871   -0.7184   -5.2243 H   0  0  0  0  0  0  0  0  0  0  0  0
   13.0492   -1.9265   -2.1640 H   0  0  0  0  0  0  0  0  0  0  0  0
   11.6840   -1.7822    0.0176 H   0  0  0  0  0  0  0  0  0  0  0  0
   12.0117   -3.5036   -0.4578 H   0  0  0  0  0  0  0  0  0  0  0  0
  1  2  1  0  0  0  0
  1 39  1  0  0  0  0
  1 40  1  0  0  0  0
  1 41  1  0  0  0  0
  2  3  1  0  0  0  0
  2 42  1  0  0  0  0
  2 43  1  0  0  0  0
  3  4  1  0  0  0  0
  3  6  1  0  0  0  0
  4  5  1  0  0  0  0
  4 44  1  0  0  0  0
  4 45  1  0  0  0  0
  5 46  1  0  0  0  0
  5 47  1  0  0  0  0
  5 48  1  0  0  0  0
  6  7  1  0  0  0  0
  6 49  1  0  0  0  0
  6 50  1  0  0  0  0
  7  8  1  0  0  0  0
  7 51  1  0  0  0  0
  7 52  1  0  0  0  0
  8  9  1  0  0  0  0
  8 26  1  0  0  0  0
  9 10  1  0  0  0  0
  9 20  2  0  0  0  0
 10 11  2  0  0  0  0
 10 53  1  0  0  0  0
 11 12  1  0  0  0  0
 11 54  1  0  0  0  0
 12 13  1  0  0  0  0
 12 19  2  0  0  0  0
 13 14  1  0  0  0  0
 13 18  1  0  0  0  0
 13 55  1  0  0  0  0
 14 15  1  0  0  0  0
 14 56  1  0  0  0  0
 14 57  1  0  0  0  0
 15 16  1  0  0  0  0
 15 58  1  0  0  0  0
 15 59  1  0  0  0  0
 16 17  1  0  0  0  0
 16 60  1  0  0  0  0
 16 61  1  0  0  0  0
 17 18  1  0  0  0  0
 17 62  1  0  0  0  0
 17 63  1  0  0  0  0
 19 20  1  0  0  0  0
 19 64  1  0  0  0  0
 20 21  1  0  0  0  0
 21 22  1  0  0  0  0
 21 26  2  0  0  0  0
 22 23  2  0  0  0  0
 22 38  1  0  0  0  0
 23 24  1  0  0  0  0
 23 35  1  0  0  0  0
 24 25  2  0  0  0  0
 24 34  1  0  0  0  0
 25 26  1  0  0  0  0
 25 27  1  0  0  0  0
 27 28  1  0  0  0  0
 27 65  1  0  0  0  0
 27 66  1  0  0  0  0
 28 29  1  0  0  0  0
 28 67  1  0  0  0  0
 28 68  1  0  0  0  0
 29 30  2  0  0  0  0
 29 34  1  0  0  0  0
 30 31  1  0  0  0  0
 31 32  1  0  0  0  0
 31 33  1  0  0  0  0
 32 69  1  0  0  0  0
 32 70  1  0  0  0  0
 32 71  1  0  0  0  0
 33 34  2  0  0  0  0
 33 72  1  0  0  0  0
 35 36  2  0  0  0  0
 35 37  1  0  0  0  0
 37 38  1  0  0  0  0
 37 73  1  0  0  0  0
 38 74  1  0  0  0  0
 38 75  1  0  0  0  0
M  END
$$$$
