CHEMBL3740673
 OpenBabel04072215373D

 62 66  0  0  0  0  0  0  0  0999 V2000
   20.5921    1.2050    4.9441 C   0  0  0  0  0  0  0  0  0  0  0  0
   19.1856    1.5240    3.9114 S   0  0  0  0  0  0  0  0  0  0  0  0
   19.5329    2.6467    3.0598 O   0  0  0  0  0  0  0  0  0  0  0  0
   18.7855    0.2470    3.3486 O   0  0  0  0  0  0  0  0  0  0  0  0
   17.9671    2.0574    5.1092 C   0  0  0  0  0  0  0  0  0  0  0  0
   16.6641    2.3308    4.4132 C   0  0  0  0  0  0  0  0  0  0  0  0
   15.7761    1.2811    4.1845 C   0  0  0  0  0  0  0  0  0  0  0  0
   14.5620    1.5133    3.5423 C   0  0  0  0  0  0  0  0  0  0  0  0
   14.1899    2.7849    3.0914 C   0  0  0  0  0  0  0  0  0  0  0  0
   12.9400    3.0404    2.5001 N   0  0  0  0  0  0  0  0  0  0  0  0
   11.8484    2.1836    2.3423 C   0  0  0  0  0  0  0  0  0  0  0  0
   10.9707    2.4569    1.3716 N   0  0  0  0  0  0  0  0  0  0  0  0
    9.9415    1.5925    1.2263 C   0  0  0  0  0  0  0  0  0  0  0  0
    9.7124    0.4983    2.0350 C   0  0  0  0  0  0  0  0  0  0  0  0
   10.6164    0.3509    3.0566 C   0  0  0  0  0  0  0  0  0  0  0  0
   10.4135   -0.6726    3.9869 O   0  0  0  0  0  0  0  0  0  0  0  0
   11.0606   -0.5825    5.2075 C   0  0  0  0  0  0  0  0  0  0  0  0
   11.3959    0.6354    5.7998 C   0  0  0  0  0  0  0  0  0  0  0  0
   12.2565    0.6720    6.8937 C   0  0  0  0  0  0  0  0  0  0  0  0
   12.6311   -0.5123    7.5325 C   0  0  0  0  0  0  0  0  0  0  0  0
   13.3378   -0.4863    8.7288 C   0  0  0  0  0  0  0  0  0  0  0  0
   14.5221   -1.4475    8.9821 C   0  0  0  0  0  0  0  0  0  0  0  0
   15.0581   -1.3737   10.0883 O   0  0  0  0  0  0  0  0  0  0  0  0
   14.8776   -2.3725    7.9963 N   0  0  0  0  0  0  0  0  0  0  0  0
   15.6655   -3.5535    8.1822 C   0  0  0  0  0  0  0  0  0  0  0  0
   16.0818   -4.0292    9.4309 C   0  0  0  0  0  0  0  0  0  0  0  0
   16.8070   -5.2271    9.5522 C   0  0  0  0  0  0  0  0  0  0  0  0
   17.1324   -5.9682    8.4209 C   0  0  0  0  0  0  0  0  0  0  0  0
   16.7216   -5.5154    7.1656 C   0  0  0  0  0  0  0  0  0  0  0  0
   15.9883   -4.3271    7.0553 C   0  0  0  0  0  0  0  0  0  0  0  0
   12.4754   -0.6960    9.7926 C   0  0  0  0  0  0  0  0  0  0  0  0
   11.5854   -1.7570    9.6438 C   0  0  0  0  0  0  0  0  0  0  0  0
   11.4022   -2.3446    8.3728 C   0  0  0  0  0  0  0  0  0  0  0  0
   11.8339   -1.6214    7.2446 C   0  0  0  0  0  0  0  0  0  0  0  0
   11.2518   -1.7449    5.9633 C   0  0  0  0  0  0  0  0  0  0  0  0
   11.6979    1.1401    3.1649 N   0  0  0  0  0  0  0  0  0  0  0  0
   15.0823    3.8378    3.3338 C   0  0  0  0  0  0  0  0  0  0  0  0
   16.3109    3.6137    3.9775 C   0  0  0  0  0  0  0  0  0  0  0  0
   21.4192    0.8886    4.3056 H   0  0  0  0  0  0  0  0  0  0  0  0
   20.3394    0.4109    5.6495 H   0  0  0  0  0  0  0  0  0  0  0  0
   20.8560    2.1226    5.4727 H   0  0  0  0  0  0  0  0  0  0  0  0
   18.3463    2.9517    5.6120 H   0  0  0  0  0  0  0  0  0  0  0  0
   17.8501    1.2585    5.8495 H   0  0  0  0  0  0  0  0  0  0  0  0
   16.0186    0.2641    4.4848 H   0  0  0  0  0  0  0  0  0  0  0  0
   13.9231    0.6507    3.3801 H   0  0  0  0  0  0  0  0  0  0  0  0
   12.9094    3.7846    1.8196 H   0  0  0  0  0  0  0  0  0  0  0  0
    9.2726    1.8210    0.4007 H   0  0  0  0  0  0  0  0  0  0  0  0
    8.8791   -0.1590    1.9008 H   0  0  0  0  0  0  0  0  0  0  0  0
   11.0232    1.5753    5.4011 H   0  0  0  0  0  0  0  0  0  0  0  0
   12.5412    1.6423    7.2950 H   0  0  0  0  0  0  0  0  0  0  0  0
   14.4963   -2.2386    7.0681 H   0  0  0  0  0  0  0  0  0  0  0  0
   15.8417   -3.4982   10.3481 H   0  0  0  0  0  0  0  0  0  0  0  0
   17.1225   -5.5693   10.5362 H   0  0  0  0  0  0  0  0  0  0  0  0
   17.7004   -6.8926    8.5127 H   0  0  0  0  0  0  0  0  0  0  0  0
   16.9417   -6.1088    6.2853 H   0  0  0  0  0  0  0  0  0  0  0  0
   15.6667   -4.0220    6.0646 H   0  0  0  0  0  0  0  0  0  0  0  0
   12.6564   -0.1997   10.7394 H   0  0  0  0  0  0  0  0  0  0  0  0
   11.0454   -2.1149   10.5128 H   0  0  0  0  0  0  0  0  0  0  0  0
   10.7391   -3.1938    8.2786 H   0  0  0  0  0  0  0  0  0  0  0  0
   10.8082   -2.6826    5.6421 H   0  0  0  0  0  0  0  0  0  0  0  0
   14.8313    4.8509    3.0280 H   0  0  0  0  0  0  0  0  0  0  0  0
   16.9876    4.4527    4.1295 H   0  0  0  0  0  0  0  0  0  0  0  0
  1  2  1  0  0  0  0
  1 39  1  0  0  0  0
  1 40  1  0  0  0  0
  1 41  1  0  0  0  0
  2  3  2  0  0  0  0
  2  4  2  0  0  0  0
  2  5  1  0  0  0  0
  5  6  1  0  0  0  0
  5 42  1  0  0  0  0
  5 43  1  0  0  0  0
  6  7  1  0  0  0  0
  6 38  2  0  0  0  0
  7  8  2  0  0  0  0
  7 44  1  0  0  0  0
  8  9  1  0  0  0  0
  8 45  1  0  0  0  0
  9 10  1  0  0  0  0
  9 37  2  0  0  0  0
 10 11  1  0  0  0  0
 10 46  1  0  0  0  0
 11 12  1  0  0  0  0
 11 36  2  0  0  0  0
 12 13  2  0  0  0  0
 13 14  1  0  0  0  0
 13 47  1  0  0  0  0
 14 15  2  0  0  0  0
 14 48  1  0  0  0  0
 15 16  1  0  0  0  0
 15 36  1  0  0  0  0
 16 17  1  0  0  0  0
 17 18  1  0  0  0  0
 17 35  2  0  0  0  0
 18 19  2  0  0  0  0
 18 49  1  0  0  0  0
 19 20  1  0  0  0  0
 19 50  1  0  0  0  0
 20 21  1  0  0  0  0
 20 34  2  0  0  0  0
 21 22  1  0  0  0  0
 21 31  2  0  0  0  0
 22 23  2  0  0  0  0
 22 24  1  0  0  0  0
 24 25  1  0  0  0  0
 24 51  1  0  0  0  0
 25 26  1  0  0  0  0
 25 30  2  0  0  0  0
 26 27  2  0  0  0  0
 26 52  1  0  0  0  0
 27 28  1  0  0  0  0
 27 53  1  0  0  0  0
 28 29  2  0  0  0  0
 28 54  1  0  0  0  0
 29 30  1  0  0  0  0
 29 55  1  0  0  0  0
 30 56  1  0  0  0  0
 31 32  1  0  0  0  0
 31 57  1  0  0  0  0
 32 33  2  0  0  0  0
 32 58  1  0  0  0  0
 33 34  1  0  0  0  0
 33 59  1  0  0  0  0
 34 35  1  0  0  0  0
 35 60  1  0  0  0  0
 37 38  1  0  0  0  0
 37 61  1  0  0  0  0
 38 62  1  0  0  0  0
M  END
$$$$
