CHEMBL1996817
 OpenBabel04072215363D

 37 39  0  0  0  0  0  0  0  0999 V2000
    1.0378    0.7376    0.4038 C   0  0  0  0  0  0  0  0  0  0  0  0
    2.5573    0.6746    0.3981 C   0  0  0  0  0  0  0  0  0  0  0  0
    3.0818   -0.2898    1.4578 C   0  0  0  0  0  0  0  0  0  0  0  0
    4.6080   -0.3619    1.4622 C   0  0  0  0  0  0  0  0  0  0  0  0
    4.9932   -1.2857    2.4742 O   0  0  0  0  0  0  0  0  0  0  0  0
    6.3574   -1.4392    2.5881 C   0  0  0  0  0  0  0  0  0  0  0  0
    7.1588   -0.3947    2.2661 N   0  0  0  0  0  0  0  0  0  0  0  0
    8.4792   -0.5582    2.4384 C   0  0  0  0  0  0  0  0  0  0  0  0
    9.1365   -1.6481    2.8646 N   0  0  0  0  0  0  0  0  0  0  0  0
    8.2904   -2.6415    3.1783 C   0  0  0  0  0  0  0  0  0  0  0  0
    8.6798   -3.8704    3.6335 N   0  0  0  0  0  0  0  0  0  0  0  0
    7.5701   -4.6320    3.8881 C   0  0  0  0  0  0  0  0  0  0  0  0
    6.4488   -3.8852    3.5847 C   0  0  0  0  0  0  0  0  0  0  0  0
    5.0960   -4.3952    3.7317 C   0  0  0  0  0  0  0  0  0  0  0  0
    4.0354   -3.5373    4.0465 C   0  0  0  0  0  0  0  0  0  0  0  0
    2.7327   -4.0164    4.1391 C   0  0  0  0  0  0  0  0  0  0  0  0
    2.4773   -5.3703    3.9305 C   0  0  0  0  0  0  0  0  0  0  0  0
    3.5221   -6.2402    3.6392 C   0  0  0  0  0  0  0  0  0  0  0  0
    4.8288   -5.7612    3.5514 C   0  0  0  0  0  0  0  0  0  0  0  0
    6.9095   -2.6148    3.1002 C   0  0  0  0  0  0  0  0  0  0  0  0
    0.6853    1.4364   -0.3614 H   0  0  0  0  0  0  0  0  0  0  0  0
    0.6618    1.0790    1.3737 H   0  0  0  0  0  0  0  0  0  0  0  0
    0.6019   -0.2444    0.1929 H   0  0  0  0  0  0  0  0  0  0  0  0
    2.9577    1.6793    0.5774 H   0  0  0  0  0  0  0  0  0  0  0  0
    2.8993    0.3604   -0.5947 H   0  0  0  0  0  0  0  0  0  0  0  0
    2.6704   -1.2940    1.2926 H   0  0  0  0  0  0  0  0  0  0  0  0
    2.7324    0.0154    2.4528 H   0  0  0  0  0  0  0  0  0  0  0  0
    5.0187    0.6305    1.6725 H   0  0  0  0  0  0  0  0  0  0  0  0
    4.9683   -0.7181    0.4917 H   0  0  0  0  0  0  0  0  0  0  0  0
    9.0909    0.3094    2.2073 H   0  0  0  0  0  0  0  0  0  0  0  0
    9.6389   -4.1529    3.7514 H   0  0  0  0  0  0  0  0  0  0  0  0
    7.6754   -5.6457    4.2623 H   0  0  0  0  0  0  0  0  0  0  0  0
    4.2121   -2.4820    4.2142 H   0  0  0  0  0  0  0  0  0  0  0  0
    1.9239   -3.3327    4.3723 H   0  0  0  0  0  0  0  0  0  0  0  0
    1.4600   -5.7433    3.9997 H   0  0  0  0  0  0  0  0  0  0  0  0
    3.3242   -7.2968    3.4760 H   0  0  0  0  0  0  0  0  0  0  0  0
    5.6313   -6.4561    3.3300 H   0  0  0  0  0  0  0  0  0  0  0  0
  1  2  1  0  0  0  0
  1 21  1  0  0  0  0
  1 22  1  0  0  0  0
  1 23  1  0  0  0  0
  2  3  1  0  0  0  0
  2 24  1  0  0  0  0
  2 25  1  0  0  0  0
  3  4  1  0  0  0  0
  3 26  1  0  0  0  0
  3 27  1  0  0  0  0
  4  5  1  0  0  0  0
  4 28  1  0  0  0  0
  4 29  1  0  0  0  0
  5  6  1  0  0  0  0
  6  7  1  0  0  0  0
  6 20  2  0  0  0  0
  7  8  2  0  0  0  0
  8  9  1  0  0  0  0
  8 30  1  0  0  0  0
  9 10  2  0  0  0  0
 10 11  1  0  0  0  0
 10 20  1  0  0  0  0
 11 12  1  0  0  0  0
 11 31  1  0  0  0  0
 12 13  2  0  0  0  0
 12 32  1  0  0  0  0
 13 14  1  0  0  0  0
 13 20  1  0  0  0  0
 14 15  1  0  0  0  0
 14 19  2  0  0  0  0
 15 16  2  0  0  0  0
 15 33  1  0  0  0  0
 16 17  1  0  0  0  0
 16 34  1  0  0  0  0
 17 18  2  0  0  0  0
 17 35  1  0  0  0  0
 18 19  1  0  0  0  0
 18 36  1  0  0  0  0
 19 37  1  0  0  0  0
M  END
$$$$
