CHEMBL313821
 OpenBabel04072215363D

 59 63  0  0  0  0  0  0  0  0999 V2000
    5.7462   -1.4740   -1.8640 C   0  0  0  0  0  0  0  0  0  0  0  0
    5.3362   -0.6206   -0.8042 O   0  0  0  0  0  0  0  0  0  0  0  0
    4.5837   -1.1615    0.2078 C   0  0  0  0  0  0  0  0  0  0  0  0
    4.0635   -2.4653    0.1657 C   0  0  0  0  0  0  0  0  0  0  0  0
    3.3035   -2.9733    1.2213 C   0  0  0  0  0  0  0  0  0  0  0  0
    3.0847   -2.1992    2.3491 C   0  0  0  0  0  0  0  0  0  0  0  0
    3.5931   -0.9053    2.3988 C   0  0  0  0  0  0  0  0  0  0  0  0
    4.3084   -0.3319    1.3191 C   0  0  0  0  0  0  0  0  0  0  0  0
    4.6555    1.1147    1.3922 C   0  0  0  0  0  0  0  0  0  0  0  0
    3.7218    2.0011    1.9982 C   0  0  0  0  0  0  0  0  0  0  0  0
    3.9655    3.3636    2.1391 C   0  0  0  0  0  0  0  0  0  0  0  0
    5.1520    3.8615    1.6462 C   0  0  0  0  0  0  0  0  0  0  0  0
    6.0813    3.0199    1.0424 C   0  0  0  0  0  0  0  0  0  0  0  0
    5.8590    1.6606    0.8980 C   0  0  0  0  0  0  0  0  0  0  0  0
    7.2107    3.7516    0.6632 N   0  0  0  0  0  0  0  0  0  0  0  0
    7.0789    5.0995    1.0044 C   0  0  0  0  0  0  0  0  0  0  0  0
    7.9108    5.9756    0.8630 O   0  0  0  0  0  0  0  0  0  0  0  0
    5.7059    5.2213    1.6110 C   0  0  0  0  0  0  0  0  0  0  0  0
    4.9661    6.2564    2.0260 C   0  0  0  0  0  0  0  0  0  0  0  0
    5.2172    7.6499    2.0074 C   0  0  0  0  0  0  0  0  0  0  0  0
    6.4434    8.1618    1.6560 N   0  0  0  0  0  0  0  0  0  0  0  0
    6.3986    9.5246    1.7327 C   0  0  0  0  0  0  0  0  0  0  0  0
    5.1507    9.9107    2.1751 C   0  0  0  0  0  0  0  0  0  0  0  0
    4.3716    8.7208    2.3165 C   0  0  0  0  0  0  0  0  0  0  0  0
    2.9222    8.6340    2.7354 C   0  0  0  0  0  0  0  0  0  0  0  0
    1.9794    9.2671    1.7149 C   0  0  0  0  0  0  0  0  0  0  0  0
    0.5330    9.1320    2.1087 C   0  0  0  0  0  0  0  0  0  0  0  0
    0.1142    8.5749    3.1077 O   0  0  0  0  0  0  0  0  0  0  0  0
   -0.2917    9.7177    1.2014 O   0  0  0  0  0  0  0  0  0  0  0  0
    4.8167   11.3444    2.4498 C   0  0  0  0  0  0  0  0  0  0  0  0
    5.8917   12.3071    1.9058 C   0  0  0  0  0  0  0  0  0  0  0  0
    7.3215   11.7760    2.1070 C   0  0  0  0  0  0  0  0  0  0  0  0
    7.5250   10.4319    1.3887 C   0  0  0  0  0  0  0  0  0  0  0  0
    6.4735   -0.9258   -2.4703 H   0  0  0  0  0  0  0  0  0  0  0  0
    4.8922   -1.7201   -2.5024 H   0  0  0  0  0  0  0  0  0  0  0  0
    6.2435   -2.3780   -1.4965 H   0  0  0  0  0  0  0  0  0  0  0  0
    4.2171   -3.1121   -0.6921 H   0  0  0  0  0  0  0  0  0  0  0  0
    2.8873   -3.9752    1.1623 H   0  0  0  0  0  0  0  0  0  0  0  0
    2.5075   -2.5898    3.1847 H   0  0  0  0  0  0  0  0  0  0  0  0
    3.4023   -0.3259    3.3021 H   0  0  0  0  0  0  0  0  0  0  0  0
    2.7715    1.6292    2.3729 H   0  0  0  0  0  0  0  0  0  0  0  0
    3.2278    3.9886    2.6288 H   0  0  0  0  0  0  0  0  0  0  0  0
    6.6033    1.0362    0.4174 H   0  0  0  0  0  0  0  0  0  0  0  0
    8.0401    3.3682    0.2397 H   0  0  0  0  0  0  0  0  0  0  0  0
    3.9823    6.0149    2.4180 H   0  0  0  0  0  0  0  0  0  0  0  0
    7.2547    7.6139    1.3793 H   0  0  0  0  0  0  0  0  0  0  0  0
    2.7986    9.1012    3.7202 H   0  0  0  0  0  0  0  0  0  0  0  0
    2.6266    7.5872    2.8713 H   0  0  0  0  0  0  0  0  0  0  0  0
    2.1123    8.7905    0.7369 H   0  0  0  0  0  0  0  0  0  0  0  0
    2.1883   10.3354    1.6161 H   0  0  0  0  0  0  0  0  0  0  0  0
    0.1785   10.1236    0.4540 H   0  0  0  0  0  0  0  0  0  0  0  0
    4.7278   11.4797    3.5345 H   0  0  0  0  0  0  0  0  0  0  0  0
    3.8549   11.6168    2.0078 H   0  0  0  0  0  0  0  0  0  0  0  0
    5.7832   13.2835    2.3919 H   0  0  0  0  0  0  0  0  0  0  0  0
    5.7231   12.4687    0.8330 H   0  0  0  0  0  0  0  0  0  0  0  0
    7.5083   11.6524    3.1817 H   0  0  0  0  0  0  0  0  0  0  0  0
    8.0481   12.5064    1.7343 H   0  0  0  0  0  0  0  0  0  0  0  0
    8.4911    9.9970    1.6633 H   0  0  0  0  0  0  0  0  0  0  0  0
    7.5254   10.5951    0.3042 H   0  0  0  0  0  0  0  0  0  0  0  0
  1  2  1  0  0  0  0
  1 34  1  0  0  0  0
  1 35  1  0  0  0  0
  1 36  1  0  0  0  0
  2  3  1  0  0  0  0
  3  4  1  0  0  0  0
  3  8  2  0  0  0  0
  4  5  2  0  0  0  0
  4 37  1  0  0  0  0
  5  6  1  0  0  0  0
  5 38  1  0  0  0  0
  6  7  2  0  0  0  0
  6 39  1  0  0  0  0
  7  8  1  0  0  0  0
  7 40  1  0  0  0  0
  8  9  1  0  0  0  0
  9 10  1  0  0  0  0
  9 14  2  0  0  0  0
 10 11  2  0  0  0  0
 10 41  1  0  0  0  0
 11 12  1  0  0  0  0
 11 42  1  0  0  0  0
 12 13  2  0  0  0  0
 12 18  1  0  0  0  0
 13 14  1  0  0  0  0
 13 15  1  0  0  0  0
 14 43  1  0  0  0  0
 15 16  1  0  0  0  0
 15 44  1  0  0  0  0
 16 17  2  0  0  0  0
 16 18  1  0  0  0  0
 18 19  2  0  0  0  0
 19 20  1  0  0  0  0
 19 45  1  0  0  0  0
 20 21  1  0  0  0  0
 20 24  2  0  0  0  0
 21 22  1  0  0  0  0
 21 46  1  0  0  0  0
 22 23  2  0  0  0  0
 22 33  1  0  0  0  0
 23 24  1  0  0  0  0
 23 30  1  0  0  0  0
 24 25  1  0  0  0  0
 25 26  1  0  0  0  0
 25 47  1  0  0  0  0
 25 48  1  0  0  0  0
 26 27  1  0  0  0  0
 26 49  1  0  0  0  0
 26 50  1  0  0  0  0
 27 28  2  0  0  0  0
 27 29  1  0  0  0  0
 29 51  1  0  0  0  0
 30 31  1  0  0  0  0
 30 52  1  0  0  0  0
 30 53  1  0  0  0  0
 31 32  1  0  0  0  0
 31 54  1  0  0  0  0
 31 55  1  0  0  0  0
 32 33  1  0  0  0  0
 32 56  1  0  0  0  0
 32 57  1  0  0  0  0
 33 58  1  0  0  0  0
 33 59  1  0  0  0  0
M  END
$$$$
