CHEMBL2063320
 OpenBabel04072215363D

 67 71  0  0  0  0  0  0  0  0999 V2000
    2.4397    1.1188   -1.2639 O   0  0  0  0  0  0  0  0  0  0  0  0
    3.2020    0.2951   -0.7823 C   0  0  0  0  0  0  0  0  0  0  0  0
    3.2488   -1.0480   -1.0882 N   0  0  0  0  0  0  0  0  0  0  0  0
    2.5258   -1.6675   -2.1251 C   0  0  0  0  0  0  0  0  0  0  0  0
    1.9696   -0.9313   -3.1709 C   0  0  0  0  0  0  0  0  0  0  0  0
    1.1810   -1.5511   -4.1333 C   0  0  0  0  0  0  0  0  0  0  0  0
    0.9395   -2.9285   -4.0836 C   0  0  0  0  0  0  0  0  0  0  0  0
    0.0668   -3.5207   -5.0931 C   0  0  0  0  0  0  0  0  0  0  0  0
   -0.0791   -3.0536   -6.4217 C   0  0  0  0  0  0  0  0  0  0  0  0
   -1.0745   -3.8005   -6.9932 C   0  0  0  0  0  0  0  0  0  0  0  0
   -1.6021   -3.6930   -8.2792 N   0  0  0  0  0  0  0  0  0  0  0  0
   -1.1177   -2.7221   -9.2296 C   0  0  0  0  0  0  0  0  0  0  0  0
   -0.2087   -1.9533   -8.9516 O   0  0  0  0  0  0  0  0  0  0  0  0
   -1.7266   -2.6905  -10.5734 C   0  0  0  0  0  0  0  0  0  0  0  0
   -3.0378   -3.1061  -10.8180 C   0  0  0  0  0  0  0  0  0  0  0  0
   -3.5678   -2.9879  -12.1079 C   0  0  0  0  0  0  0  0  0  0  0  0
   -2.8057   -2.4328  -13.1399 C   0  0  0  0  0  0  0  0  0  0  0  0
   -3.2512   -2.2191  -14.4153 O   0  0  0  0  0  0  0  0  0  0  0  0
   -4.6641   -1.9960  -14.5363 C   0  0  0  0  0  0  0  0  0  0  0  0
   -4.9220   -1.0924  -15.7513 C   0  0  0  0  0  0  0  0  0  0  0  0
   -6.3499   -0.8058  -15.9923 N   0  0  0  0  0  0  0  0  0  0  0  0
   -6.5161    0.0301  -17.1972 C   0  0  0  0  0  0  0  0  0  0  0  0
   -6.3039    1.4536  -16.7122 C   0  0  0  0  0  0  0  0  0  0  0  0
   -6.9115    1.4502  -15.3218 C   0  0  0  0  0  0  0  0  0  0  0  0
   -6.9913   -0.0195  -14.9244 C   0  0  0  0  0  0  0  0  0  0  0  0
   -1.4888   -2.0502  -12.8986 C   0  0  0  0  0  0  0  0  0  0  0  0
   -0.9514   -2.1670  -11.6187 C   0  0  0  0  0  0  0  0  0  0  0  0
   -1.4495   -4.6831   -6.0124 N   0  0  0  0  0  0  0  0  0  0  0  0
   -0.7538   -4.5550   -4.8653 N   0  0  0  0  0  0  0  0  0  0  0  0
    1.5456   -3.6834   -3.0747 C   0  0  0  0  0  0  0  0  0  0  0  0
    2.3528   -3.0565   -2.1103 C   0  0  0  0  0  0  0  0  0  0  0  0
    4.1440    0.5816    0.2074 O   0  0  0  0  0  0  0  0  0  0  0  0
    4.4844    1.9132    0.5505 C   0  0  0  0  0  0  0  0  0  0  0  0
    4.3268    3.0032   -0.3076 C   0  0  0  0  0  0  0  0  0  0  0  0
    4.7827    4.2641    0.0808 C   0  0  0  0  0  0  0  0  0  0  0  0
    5.4112    4.4305    1.3127 C   0  0  0  0  0  0  0  0  0  0  0  0
    5.5691    3.3395    2.1687 C   0  0  0  0  0  0  0  0  0  0  0  0
    5.1044    2.0787    1.7898 C   0  0  0  0  0  0  0  0  0  0  0  0
    3.7723   -1.6246   -0.4435 H   0  0  0  0  0  0  0  0  0  0  0  0
    2.1307    0.1374   -3.2713 H   0  0  0  0  0  0  0  0  0  0  0  0
    0.7401   -0.9229   -4.9036 H   0  0  0  0  0  0  0  0  0  0  0  0
    0.4805   -2.2377   -6.8590 H   0  0  0  0  0  0  0  0  0  0  0  0
   -2.3196   -4.3493   -8.5564 H   0  0  0  0  0  0  0  0  0  0  0  0
   -3.6853   -3.4765  -10.0295 H   0  0  0  0  0  0  0  0  0  0  0  0
   -4.5884   -3.3178  -12.2851 H   0  0  0  0  0  0  0  0  0  0  0  0
   -5.0428   -1.5020  -13.6372 H   0  0  0  0  0  0  0  0  0  0  0  0
   -5.1636   -2.9622  -14.6636 H   0  0  0  0  0  0  0  0  0  0  0  0
   -4.5122   -1.6088  -16.6305 H   0  0  0  0  0  0  0  0  0  0  0  0
   -4.3288   -0.1757  -15.6443 H   0  0  0  0  0  0  0  0  0  0  0  0
   -7.5419   -0.0871  -17.5676 H   0  0  0  0  0  0  0  0  0  0  0  0
   -5.8433   -0.2427  -18.0168 H   0  0  0  0  0  0  0  0  0  0  0  0
   -6.7720    2.1964  -17.3664 H   0  0  0  0  0  0  0  0  0  0  0  0
   -5.2348    1.6890  -16.6518 H   0  0  0  0  0  0  0  0  0  0  0  0
   -7.9150    1.8908  -15.3379 H   0  0  0  0  0  0  0  0  0  0  0  0
   -6.2976    2.0287  -14.6241 H   0  0  0  0  0  0  0  0  0  0  0  0
   -8.0454   -0.3193  -14.8694 H   0  0  0  0  0  0  0  0  0  0  0  0
   -6.5857   -0.1815  -13.9230 H   0  0  0  0  0  0  0  0  0  0  0  0
   -0.8879   -1.6285  -13.7029 H   0  0  0  0  0  0  0  0  0  0  0  0
    0.0695   -1.8297  -11.4427 H   0  0  0  0  0  0  0  0  0  0  0  0
   -2.1723   -5.3930   -6.0442 H   0  0  0  0  0  0  0  0  0  0  0  0
    1.3861   -4.7582   -3.0276 H   0  0  0  0  0  0  0  0  0  0  0  0
    2.8021   -3.6660   -1.3306 H   0  0  0  0  0  0  0  0  0  0  0  0
    3.8671    2.9066   -1.2857 H   0  0  0  0  0  0  0  0  0  0  0  0
    4.6569    5.1129   -0.5882 H   0  0  0  0  0  0  0  0  0  0  0  0
    5.7841    5.4101    1.6019 H   0  0  0  0  0  0  0  0  0  0  0  0
    6.0660    3.4718    3.1272 H   0  0  0  0  0  0  0  0  0  0  0  0
    5.2396    1.2304    2.4538 H   0  0  0  0  0  0  0  0  0  0  0  0
  1  2  2  0  0  0  0
  2  3  1  0  0  0  0
  2 32  1  0  0  0  0
  3  4  1  0  0  0  0
  3 39  1  0  0  0  0
  4  5  1  0  0  0  0
  4 31  2  0  0  0  0
  5  6  2  0  0  0  0
  5 40  1  0  0  0  0
  6  7  1  0  0  0  0
  6 41  1  0  0  0  0
  7  8  1  0  0  0  0
  7 30  2  0  0  0  0
  8  9  1  0  0  0  0
  8 29  2  0  0  0  0
  9 10  2  0  0  0  0
  9 42  1  0  0  0  0
 10 11  1  0  0  0  0
 10 28  1  0  0  0  0
 11 12  1  0  0  0  0
 11 43  1  0  0  0  0
 12 13  2  0  0  0  0
 12 14  1  0  0  0  0
 14 15  1  0  0  0  0
 14 27  2  0  0  0  0
 15 16  2  0  0  0  0
 15 44  1  0  0  0  0
 16 17  1  0  0  0  0
 16 45  1  0  0  0  0
 17 18  1  0  0  0  0
 17 26  2  0  0  0  0
 18 19  1  0  0  0  0
 19 20  1  0  0  0  0
 19 46  1  0  0  0  0
 19 47  1  0  0  0  0
 20 21  1  0  0  0  0
 20 48  1  0  0  0  0
 20 49  1  0  0  0  0
 21 22  1  0  0  0  0
 21 25  1  0  0  0  0
 22 23  1  0  0  0  0
 22 50  1  0  0  0  0
 22 51  1  0  0  0  0
 23 24  1  0  0  0  0
 23 52  1  0  0  0  0
 23 53  1  0  0  0  0
 24 25  1  0  0  0  0
 24 54  1  0  0  0  0
 24 55  1  0  0  0  0
 25 56  1  0  0  0  0
 25 57  1  0  0  0  0
 26 27  1  0  0  0  0
 26 58  1  0  0  0  0
 27 59  1  0  0  0  0
 28 29  1  0  0  0  0
 28 60  1  0  0  0  0
 30 31  1  0  0  0  0
 30 61  1  0  0  0  0
 31 62  1  0  0  0  0
 32 33  1  0  0  0  0
 33 34  1  0  0  0  0
 33 38  2  0  0  0  0
 34 35  2  0  0  0  0
 34 63  1  0  0  0  0
 35 36  1  0  0  0  0
 35 64  1  0  0  0  0
 36 37  2  0  0  0  0
 36 65  1  0  0  0  0
 37 38  1  0  0  0  0
 37 66  1  0  0  0  0
 38 67  1  0  0  0  0
M  END
$$$$
