CHEMBL206146
 OpenBabel04072215363D

 57 61  0  0  0  0  0  0  0  0999 V2000
    2.4089   -0.7453    2.4855 C   0  0  0  0  0  0  0  0  0  0  0  0
    3.7316   -0.6564    1.8226 C   0  0  0  0  0  0  0  0  0  0  0  0
    4.6219   -1.6414    1.4467 C   0  0  0  0  0  0  0  0  0  0  0  0
    5.6120   -1.0378    0.6224 C   0  0  0  0  0  0  0  0  0  0  0  0
    6.6616   -1.5314   -0.1716 C   0  0  0  0  0  0  0  0  0  0  0  0
    6.9082   -2.8508   -0.2272 F   0  0  0  0  0  0  0  0  0  0  0  0
    7.3791   -0.6438   -0.9779 C   0  0  0  0  0  0  0  0  0  0  0  0
    8.2368   -1.2244   -1.9402 O   0  0  0  0  0  0  0  0  0  0  0  0
    9.3907   -0.5809   -2.3368 C   0  0  0  0  0  0  0  0  0  0  0  0
   10.0724    0.2421   -1.6143 N   0  0  0  0  0  0  0  0  0  0  0  0
   11.1877    0.7899   -2.1964 C   0  0  0  0  0  0  0  0  0  0  0  0
   11.6096    0.6015   -3.4107 N   0  0  0  0  0  0  0  0  0  0  0  0
   10.8599   -0.2484   -4.1277 N   0  0  0  0  0  0  0  0  0  0  0  0
   11.0862   -0.5978   -5.4198 C   0  0  0  0  0  0  0  0  0  0  0  0
   10.1591   -1.5605   -5.7645 C   0  0  0  0  0  0  0  0  0  0  0  0
   10.1137   -2.2353   -6.9390 O   0  0  0  0  0  0  0  0  0  0  0  0
   11.3639   -2.2059   -7.6375 C   0  0  0  0  0  0  0  0  0  0  0  0
   11.4165   -3.3204   -8.6698 C   0  0  0  0  0  0  0  0  0  0  0  0
   12.8025   -3.3383   -9.3307 C   0  0  0  0  0  0  0  0  0  0  0  0
   12.9496   -4.4104  -10.3249 N   0  0  0  0  0  0  0  0  0  0  0  0
   14.3209   -4.4532  -10.8650 C   0  0  0  0  0  0  0  0  0  0  0  0
   14.2999   -3.5102  -12.0514 C   0  0  0  0  0  0  0  0  0  0  0  0
   12.9387   -3.7747  -12.6595 C   0  0  0  0  0  0  0  0  0  0  0  0
   12.0695   -4.2240  -11.4918 C   0  0  0  0  0  0  0  0  0  0  0  0
    9.2643   -1.7219   -4.6657 C   0  0  0  0  0  0  0  0  0  0  0  0
    8.0677   -2.6014   -4.5759 C   0  0  0  0  0  0  0  0  0  0  0  0
    9.7645   -0.9003   -3.6658 C   0  0  0  0  0  0  0  0  0  0  0  0
    7.1060    0.7202   -0.9758 C   0  0  0  0  0  0  0  0  0  0  0  0
    6.1016    1.2407   -0.1512 C   0  0  0  0  0  0  0  0  0  0  0  0
    5.3542    0.3344    0.6106 C   0  0  0  0  0  0  0  0  0  0  0  0
    4.2582    0.5458    1.4163 N   0  0  0  0  0  0  0  0  0  0  0  0
    2.1434   -1.7872    2.6907 H   0  0  0  0  0  0  0  0  0  0  0  0
    1.6360   -0.3310    1.8278 H   0  0  0  0  0  0  0  0  0  0  0  0
    2.3973   -0.1903    3.4272 H   0  0  0  0  0  0  0  0  0  0  0  0
    4.5146   -2.7015    1.6398 H   0  0  0  0  0  0  0  0  0  0  0  0
   11.7771    1.4655   -1.5534 H   0  0  0  0  0  0  0  0  0  0  0  0
   11.9124   -0.1602   -5.9595 H   0  0  0  0  0  0  0  0  0  0  0  0
   12.1980   -2.3558   -6.9406 H   0  0  0  0  0  0  0  0  0  0  0  0
   11.4756   -1.2335   -8.1381 H   0  0  0  0  0  0  0  0  0  0  0  0
   10.6105   -3.1585   -9.3920 H   0  0  0  0  0  0  0  0  0  0  0  0
   11.2077   -4.2820   -8.1869 H   0  0  0  0  0  0  0  0  0  0  0  0
   13.5440   -3.5008   -8.5372 H   0  0  0  0  0  0  0  0  0  0  0  0
   13.0202   -2.3551   -9.7675 H   0  0  0  0  0  0  0  0  0  0  0  0
   14.5299   -5.4745  -11.2075 H   0  0  0  0  0  0  0  0  0  0  0  0
   15.0958   -4.1951  -10.1350 H   0  0  0  0  0  0  0  0  0  0  0  0
   15.1118   -3.6996  -12.7590 H   0  0  0  0  0  0  0  0  0  0  0  0
   14.3723   -2.4671  -11.7211 H   0  0  0  0  0  0  0  0  0  0  0  0
   13.0054   -4.5776  -13.4020 H   0  0  0  0  0  0  0  0  0  0  0  0
   12.5369   -2.8839  -13.1518 H   0  0  0  0  0  0  0  0  0  0  0  0
   11.5839   -5.1778  -11.7261 H   0  0  0  0  0  0  0  0  0  0  0  0
   11.2687   -3.4964  -11.3324 H   0  0  0  0  0  0  0  0  0  0  0  0
    7.8762   -3.1402   -5.5075 H   0  0  0  0  0  0  0  0  0  0  0  0
    7.1776   -2.0044   -4.3455 H   0  0  0  0  0  0  0  0  0  0  0  0
    8.1979   -3.3383   -3.7759 H   0  0  0  0  0  0  0  0  0  0  0  0
    7.6358    1.3984   -1.6380 H   0  0  0  0  0  0  0  0  0  0  0  0
    5.8722    2.3018   -0.1596 H   0  0  0  0  0  0  0  0  0  0  0  0
    3.8377    1.4501    1.5807 H   0  0  0  0  0  0  0  0  0  0  0  0
  1  2  1  0  0  0  0
  1 32  1  0  0  0  0
  1 33  1  0  0  0  0
  1 34  1  0  0  0  0
  2  3  2  0  0  0  0
  2 31  1  0  0  0  0
  3  4  1  0  0  0  0
  3 35  1  0  0  0  0
  4  5  1  0  0  0  0
  4 30  2  0  0  0  0
  5  6  1  0  0  0  0
  5  7  2  0  0  0  0
  7  8  1  0  0  0  0
  7 28  1  0  0  0  0
  8  9  1  0  0  0  0
  9 10  2  0  0  0  0
  9 27  1  0  0  0  0
 10 11  1  0  0  0  0
 11 12  2  0  0  0  0
 11 36  1  0  0  0  0
 12 13  1  0  0  0  0
 13 14  1  0  0  0  0
 13 27  1  0  0  0  0
 14 15  2  0  0  0  0
 14 37  1  0  0  0  0
 15 16  1  0  0  0  0
 15 25  1  0  0  0  0
 16 17  1  0  0  0  0
 17 18  1  0  0  0  0
 17 38  1  0  0  0  0
 17 39  1  0  0  0  0
 18 19  1  0  0  0  0
 18 40  1  0  0  0  0
 18 41  1  0  0  0  0
 19 20  1  0  0  0  0
 19 42  1  0  0  0  0
 19 43  1  0  0  0  0
 20 21  1  0  0  0  0
 20 24  1  0  0  0  0
 21 22  1  0  0  0  0
 21 44  1  0  0  0  0
 21 45  1  0  0  0  0
 22 23  1  0  0  0  0
 22 46  1  0  0  0  0
 22 47  1  0  0  0  0
 23 24  1  0  0  0  0
 23 48  1  0  0  0  0
 23 49  1  0  0  0  0
 24 50  1  0  0  0  0
 24 51  1  0  0  0  0
 25 26  1  0  0  0  0
 25 27  2  0  0  0  0
 26 52  1  0  0  0  0
 26 53  1  0  0  0  0
 26 54  1  0  0  0  0
 28 29  2  0  0  0  0
 28 55  1  0  0  0  0
 29 30  1  0  0  0  0
 29 56  1  0  0  0  0
 30 31  1  0  0  0  0
 31 57  1  0  0  0  0
M  END
$$$$
