CHEMBL1088153
 OpenBabel04072215363D

 66 70  0  0  0  0  0  0  0  0999 V2000
    2.5064    0.1502   -0.4936 C   0  0  0  0  0  0  0  0  0  0  0  0
    1.0405    0.1217   -0.1621 C   0  0  0  0  0  0  0  0  0  0  0  0
    0.3601    1.3493   -0.1503 C   0  0  0  0  0  0  0  0  0  0  0  0
   -1.0241    1.4024   -0.0249 C   0  0  0  0  0  0  0  0  0  0  0  0
   -1.7644    0.2299    0.0284 C   0  0  0  0  0  0  0  0  0  0  0  0
   -3.1786    0.2032   -0.0289 N   0  0  0  0  0  0  0  0  0  0  0  0
   -4.0077    1.2642   -0.3641 C   0  0  0  0  0  0  0  0  0  0  0  0
   -3.6128    2.3953   -0.6268 O   0  0  0  0  0  0  0  0  0  0  0  0
   -5.4185    0.9365   -0.4319 C   0  0  0  0  0  0  0  0  0  0  0  0
   -6.1185   -0.1913   -0.0414 C   0  0  0  0  0  0  0  0  0  0  0  0
   -7.4750    0.0497   -0.3655 C   0  0  0  0  0  0  0  0  0  0  0  0
   -8.6536   -0.8885   -0.1704 C   0  0  0  0  0  0  0  0  0  0  0  0
   -8.8229   -1.2126    1.3270 C   0  0  0  0  0  0  0  0  0  0  0  0
   -9.9780   -0.2848   -0.6838 C   0  0  0  0  0  0  0  0  0  0  0  0
   -8.3977   -2.1987   -0.9432 C   0  0  0  0  0  0  0  0  0  0  0  0
   -7.6256    1.2599   -0.9090 N   0  0  0  0  0  0  0  0  0  0  0  0
   -6.3822    1.7775   -0.9384 N   0  0  0  0  0  0  0  0  0  0  0  0
   -6.1990    3.0979   -1.5047 C   0  0  0  0  0  0  0  0  0  0  0  0
   -1.0793   -0.9905    0.1231 C   0  0  0  0  0  0  0  0  0  0  0  0
    0.3293   -1.0710    0.0996 C   0  0  0  0  0  0  0  0  0  0  0  0
    1.0277   -2.2931    0.2976 N   0  0  0  0  0  0  0  0  0  0  0  0
    0.5327   -3.4373    0.8586 C   0  0  0  0  0  0  0  0  0  0  0  0
   -0.7305   -3.7716    1.0195 N   0  0  0  0  0  0  0  0  0  0  0  0
   -0.7442   -5.0255    1.5466 C   0  0  0  0  0  0  0  0  0  0  0  0
   -1.8551   -5.8137    1.8858 C   0  0  0  0  0  0  0  0  0  0  0  0
   -1.6490   -7.0844    2.4266 C   0  0  0  0  0  0  0  0  0  0  0  0
   -0.3579   -7.5440    2.6671 C   0  0  0  0  0  0  0  0  0  0  0  0
    0.7605   -6.7577    2.3607 C   0  0  0  0  0  0  0  0  0  0  0  0
    0.5452   -5.5069    1.7483 C   0  0  0  0  0  0  0  0  0  0  0  0
    1.3728   -4.4836    1.2785 N   0  0  0  0  0  0  0  0  0  0  0  0
    2.8013   -4.4834    1.2109 C   0  0  0  0  0  0  0  0  0  0  0  0
    3.4801   -5.6754    1.0518 C   0  0  0  0  0  0  0  0  0  0  0  0
    4.8524   -5.6048    0.9719 C   0  0  0  0  0  0  0  0  0  0  0  0
    5.5989   -6.7663    0.7821 N   0  0  0  0  0  0  0  0  0  0  0  0
    5.5263   -4.4603    1.1008 N   0  0  0  0  0  0  0  0  0  0  0  0
    4.7868   -3.3537    1.2493 C   0  0  0  0  0  0  0  0  0  0  0  0
    3.4455   -3.2929    1.2627 N   0  0  0  0  0  0  0  0  0  0  0  0
    2.8321    1.1612   -0.7636 H   0  0  0  0  0  0  0  0  0  0  0  0
    2.7038   -0.4833   -1.3653 H   0  0  0  0  0  0  0  0  0  0  0  0
    3.1131   -0.1799    0.3545 H   0  0  0  0  0  0  0  0  0  0  0  0
    0.9008    2.2863   -0.2624 H   0  0  0  0  0  0  0  0  0  0  0  0
   -1.4904    2.3808    0.0009 H   0  0  0  0  0  0  0  0  0  0  0  0
   -3.6004   -0.7057    0.0506 H   0  0  0  0  0  0  0  0  0  0  0  0
   -5.7227   -1.0856    0.4161 H   0  0  0  0  0  0  0  0  0  0  0  0
   -9.0374   -0.3065    1.9062 H   0  0  0  0  0  0  0  0  0  0  0  0
   -7.9165   -1.6624    1.7487 H   0  0  0  0  0  0  0  0  0  0  0  0
   -9.6461   -1.9175    1.4901 H   0  0  0  0  0  0  0  0  0  0  0  0
  -10.2323    0.6381   -0.1490 H   0  0  0  0  0  0  0  0  0  0  0  0
  -10.8119   -0.9836   -0.5476 H   0  0  0  0  0  0  0  0  0  0  0  0
   -9.9215   -0.0442   -1.7520 H   0  0  0  0  0  0  0  0  0  0  0  0
   -7.4820   -2.6960   -0.6027 H   0  0  0  0  0  0  0  0  0  0  0  0
   -8.2846   -2.0062   -2.0167 H   0  0  0  0  0  0  0  0  0  0  0  0
   -9.2241   -2.9058   -0.8130 H   0  0  0  0  0  0  0  0  0  0  0  0
   -7.1396    3.4377   -1.9490 H   0  0  0  0  0  0  0  0  0  0  0  0
   -5.4306    3.0470   -2.2791 H   0  0  0  0  0  0  0  0  0  0  0  0
   -5.9141    3.7812   -0.7017 H   0  0  0  0  0  0  0  0  0  0  0  0
   -1.6641   -1.9018    0.1897 H   0  0  0  0  0  0  0  0  0  0  0  0
    2.0379   -2.1699    0.3617 H   0  0  0  0  0  0  0  0  0  0  0  0
   -2.8569   -5.4316    1.7227 H   0  0  0  0  0  0  0  0  0  0  0  0
   -2.5042   -7.7082    2.6748 H   0  0  0  0  0  0  0  0  0  0  0  0
   -0.2151   -8.5282    3.1100 H   0  0  0  0  0  0  0  0  0  0  0  0
    1.7486   -7.1282    2.6122 H   0  0  0  0  0  0  0  0  0  0  0  0
    2.9903   -6.6288    0.9238 H   0  0  0  0  0  0  0  0  0  0  0  0
    5.2794   -7.3025   -0.0174 H   0  0  0  0  0  0  0  0  0  0  0  0
    6.5760   -6.4986    0.6870 H   0  0  0  0  0  0  0  0  0  0  0  0
    5.3263   -2.4197    1.3684 H   0  0  0  0  0  0  0  0  0  0  0  0
  1  2  1  0  0  0  0
  1 38  1  0  0  0  0
  1 39  1  0  0  0  0
  1 40  1  0  0  0  0
  2  3  1  0  0  0  0
  2 20  2  0  0  0  0
  3  4  2  0  0  0  0
  3 41  1  0  0  0  0
  4  5  1  0  0  0  0
  4 42  1  0  0  0  0
  5  6  1  0  0  0  0
  5 19  2  0  0  0  0
  6  7  1  0  0  0  0
  6 43  1  0  0  0  0
  7  8  2  0  0  0  0
  7  9  1  0  0  0  0
  9 10  2  0  0  0  0
  9 17  1  0  0  0  0
 10 11  1  0  0  0  0
 10 44  1  0  0  0  0
 11 12  1  0  0  0  0
 11 16  2  0  0  0  0
 12 13  1  0  0  0  0
 12 14  1  0  0  0  0
 12 15  1  0  0  0  0
 13 45  1  0  0  0  0
 13 46  1  0  0  0  0
 13 47  1  0  0  0  0
 14 48  1  0  0  0  0
 14 49  1  0  0  0  0
 14 50  1  0  0  0  0
 15 51  1  0  0  0  0
 15 52  1  0  0  0  0
 15 53  1  0  0  0  0
 16 17  1  0  0  0  0
 17 18  1  0  0  0  0
 18 54  1  0  0  0  0
 18 55  1  0  0  0  0
 18 56  1  0  0  0  0
 19 20  1  0  0  0  0
 19 57  1  0  0  0  0
 20 21  1  0  0  0  0
 21 22  1  0  0  0  0
 21 58  1  0  0  0  0
 22 23  2  0  0  0  0
 22 30  1  0  0  0  0
 23 24  1  0  0  0  0
 24 25  1  0  0  0  0
 24 29  2  0  0  0  0
 25 26  2  0  0  0  0
 25 59  1  0  0  0  0
 26 27  1  0  0  0  0
 26 60  1  0  0  0  0
 27 28  2  0  0  0  0
 27 61  1  0  0  0  0
 28 29  1  0  0  0  0
 28 62  1  0  0  0  0
 29 30  1  0  0  0  0
 30 31  1  0  0  0  0
 31 32  1  0  0  0  0
 31 37  2  0  0  0  0
 32 33  2  0  0  0  0
 32 63  1  0  0  0  0
 33 34  1  0  0  0  0
 33 35  1  0  0  0  0
 34 64  1  0  0  0  0
 34 65  1  0  0  0  0
 35 36  2  0  0  0  0
 36 37  1  0  0  0  0
 36 66  1  0  0  0  0
M  END
$$$$
