CHEMBL247388
 OpenBabel04072215363D

 37 40  0  0  0  0  0  0  0  0999 V2000
    1.1495   -0.2592    0.0633 C   0  0  0  0  0  0  0  0  0  0  0  0
    2.5612   -0.3782    0.1935 O   0  0  0  0  0  0  0  0  0  0  0  0
    3.1853   -1.0804   -0.7749 C   0  0  0  0  0  0  0  0  0  0  0  0
    2.6919   -1.6205   -1.7503 O   0  0  0  0  0  0  0  0  0  0  0  0
    4.7021   -1.1091   -0.5006 C   0  0  0  0  0  0  0  0  0  0  0  0
    5.1349   -0.5796    0.5156 O   0  0  0  0  0  0  0  0  0  0  0  0
    5.4363   -1.7241   -1.5091 N   0  0  0  0  0  0  0  0  0  0  0  0
    6.8400   -1.8609   -1.5227 C   0  0  0  0  0  0  0  0  0  0  0  0
    7.6233   -1.6905   -0.3652 C   0  0  0  0  0  0  0  0  0  0  0  0
    9.0292   -1.7725   -0.3846 C   0  0  0  0  0  0  0  0  0  0  0  0
    9.7064   -2.0380   -1.5668 C   0  0  0  0  0  0  0  0  0  0  0  0
    8.9377   -2.2317   -2.6916 C   0  0  0  0  0  0  0  0  0  0  0  0
    7.5126   -2.1634   -2.7014 C   0  0  0  0  0  0  0  0  0  0  0  0
    6.9255   -2.3963   -4.1054 C   0  0  0  0  0  0  0  0  0  0  0  0
    8.2066   -2.5861   -4.8446 C   0  0  0  0  0  0  0  0  0  0  0  0
    9.3382   -2.4953   -4.0269 C   0  0  0  0  0  0  0  0  0  0  0  0
   10.4881   -2.6648   -4.6613 N   0  0  0  0  0  0  0  0  0  0  0  0
   10.0704   -2.8821   -5.9349 N   0  0  0  0  0  0  0  0  0  0  0  0
    8.6979   -2.8446   -6.0957 C   0  0  0  0  0  0  0  0  0  0  0  0
    7.9540   -3.0536   -7.3645 C   0  0  0  0  0  0  0  0  0  0  0  0
    6.5414   -2.9476   -7.5184 C   0  0  0  0  0  0  0  0  0  0  0  0
    6.1326   -3.2085   -8.8065 C   0  0  0  0  0  0  0  0  0  0  0  0
    7.4477   -3.5837   -9.8330 S   0  0  0  0  0  0  0  0  0  0  0  0
    8.5698   -3.3861   -8.5528 C   0  0  0  0  0  0  0  0  0  0  0  0
    0.7926    0.3933    0.8675 H   0  0  0  0  0  0  0  0  0  0  0  0
    0.6747   -1.2391    0.1757 H   0  0  0  0  0  0  0  0  0  0  0  0
    0.8836    0.1977   -0.8955 H   0  0  0  0  0  0  0  0  0  0  0  0
    4.9067   -2.0047   -2.3293 H   0  0  0  0  0  0  0  0  0  0  0  0
    7.1655   -1.4979    0.6021 H   0  0  0  0  0  0  0  0  0  0  0  0
    9.5831   -1.6187    0.5377 H   0  0  0  0  0  0  0  0  0  0  0  0
   10.7893   -2.0858   -1.6065 H   0  0  0  0  0  0  0  0  0  0  0  0
    6.3813   -1.5141   -4.4521 H   0  0  0  0  0  0  0  0  0  0  0  0
    6.3082   -3.2979   -4.1270 H   0  0  0  0  0  0  0  0  0  0  0  0
   10.7750   -3.0452   -6.6436 H   0  0  0  0  0  0  0  0  0  0  0  0
    5.8421   -2.6885   -6.7327 H   0  0  0  0  0  0  0  0  0  0  0  0
    5.1245   -3.1985   -9.1969 H   0  0  0  0  0  0  0  0  0  0  0  0
    9.6202   -3.5401   -8.7551 H   0  0  0  0  0  0  0  0  0  0  0  0
  1  2  1  0  0  0  0
  1 25  1  0  0  0  0
  1 26  1  0  0  0  0
  1 27  1  0  0  0  0
  2  3  1  0  0  0  0
  3  4  2  0  0  0  0
  3  5  1  0  0  0  0
  5  6  2  0  0  0  0
  5  7  1  0  0  0  0
  7  8  1  0  0  0  0
  7 28  1  0  0  0  0
  8  9  1  0  0  0  0
  8 13  2  0  0  0  0
  9 10  2  0  0  0  0
  9 29  1  0  0  0  0
 10 11  1  0  0  0  0
 10 30  1  0  0  0  0
 11 12  2  0  0  0  0
 11 31  1  0  0  0  0
 12 13  1  0  0  0  0
 12 16  1  0  0  0  0
 13 14  1  0  0  0  0
 14 15  1  0  0  0  0
 14 32  1  0  0  0  0
 14 33  1  0  0  0  0
 15 16  1  0  0  0  0
 15 19  2  0  0  0  0
 16 17  2  0  0  0  0
 17 18  1  0  0  0  0
 18 19  1  0  0  0  0
 18 34  1  0  0  0  0
 19 20  1  0  0  0  0
 20 21  1  0  0  0  0
 20 24  2  0  0  0  0
 21 22  2  0  0  0  0
 21 35  1  0  0  0  0
 22 23  1  0  0  0  0
 22 36  1  0  0  0  0
 23 24  1  0  0  0  0
 24 37  1  0  0  0  0
M  END
$$$$
