CHEMBL3941700
 OpenBabel04072215373D

 60 63  0  0  0  0  0  0  0  0999 V2000
    6.9818   -3.3352    6.1292 C   0  0  0  0  0  0  0  0  0  0  0  0
    7.2832   -3.1005    4.7504 O   0  0  0  0  0  0  0  0  0  0  0  0
    6.6167   -3.8669    3.8219 C   0  0  0  0  0  0  0  0  0  0  0  0
    5.7185   -4.8815    4.1491 C   0  0  0  0  0  0  0  0  0  0  0  0
    5.0555   -5.5741    3.1395 C   0  0  0  0  0  0  0  0  0  0  0  0
    4.1286   -6.5647    3.3323 O   0  0  0  0  0  0  0  0  0  0  0  0
    3.9310   -7.0111    4.6697 C   0  0  0  0  0  0  0  0  0  0  0  0
    5.2906   -5.2467    1.7966 C   0  0  0  0  0  0  0  0  0  0  0  0
    6.1848   -4.2345    1.4168 C   0  0  0  0  0  0  0  0  0  0  0  0
    6.2893   -3.7737    0.0769 N   0  0  0  0  0  0  0  0  0  0  0  0
    5.0022   -3.7968   -0.7305 C   0  0  0  0  0  0  0  0  0  0  0  0
    3.7386   -3.0967   -0.1544 C   0  0  0  0  0  0  0  0  0  0  0  0
    3.7380   -1.6269   -0.1420 N   0  0  0  0  0  0  0  0  0  0  0  0
    7.3755   -3.9581   -0.8747 C   0  0  0  0  0  0  0  0  0  0  0  0
    7.5174   -2.9121   -1.7885 C   0  0  0  0  0  0  0  0  0  0  0  0
    8.0809   -3.1373   -3.0328 C   0  0  0  0  0  0  0  0  0  0  0  0
    8.6508   -4.3354   -3.3651 C   0  0  0  0  0  0  0  0  0  0  0  0
    8.9601   -4.4620   -4.6554 N   0  0  0  0  0  0  0  0  0  0  0  0
    9.7143   -5.5088   -4.9998 C   0  0  0  0  0  0  0  0  0  0  0  0
   10.2538   -6.3633   -4.0609 C   0  0  0  0  0  0  0  0  0  0  0  0
   11.5089   -7.0093   -4.4738 C   0  0  0  0  0  0  0  0  0  0  0  0
   11.8891   -8.3366   -4.7784 C   0  0  0  0  0  0  0  0  0  0  0  0
   13.1319   -8.4315   -5.2833 N   0  0  0  0  0  0  0  0  0  0  0  0
   13.5702   -7.1565   -5.3150 N   0  0  0  0  0  0  0  0  0  0  0  0
   14.9911   -6.8319   -5.4771 C   0  0  0  0  0  0  0  0  0  0  0  0
   15.7508   -7.1942   -4.1991 C   0  0  0  0  0  0  0  0  0  0  0  0
   15.6856   -7.4498   -6.6963 C   0  0  0  0  0  0  0  0  0  0  0  0
   12.5860   -6.2705   -4.9568 C   0  0  0  0  0  0  0  0  0  0  0  0
    9.7993   -6.3394   -2.7515 N   0  0  0  0  0  0  0  0  0  0  0  0
    8.9044   -5.3221   -2.3712 C   0  0  0  0  0  0  0  0  0  0  0  0
    8.1560   -5.1262   -1.1290 C   0  0  0  0  0  0  0  0  0  0  0  0
    6.8545   -3.5597    2.4625 C   0  0  0  0  0  0  0  0  0  0  0  0
    7.5694   -2.6389    6.7372 H   0  0  0  0  0  0  0  0  0  0  0  0
    7.2635   -4.3508    6.4313 H   0  0  0  0  0  0  0  0  0  0  0  0
    5.9236   -3.1447    6.3469 H   0  0  0  0  0  0  0  0  0  0  0  0
    5.5214   -5.1230    5.1849 H   0  0  0  0  0  0  0  0  0  0  0  0
    3.2162   -7.8391    4.6438 H   0  0  0  0  0  0  0  0  0  0  0  0
    3.4992   -6.2192    5.2912 H   0  0  0  0  0  0  0  0  0  0  0  0
    4.8632   -7.3889    5.1026 H   0  0  0  0  0  0  0  0  0  0  0  0
    4.7267   -5.7901    1.0450 H   0  0  0  0  0  0  0  0  0  0  0  0
    4.7527   -4.8396   -0.9620 H   0  0  0  0  0  0  0  0  0  0  0  0
    5.1449   -3.3209   -1.7103 H   0  0  0  0  0  0  0  0  0  0  0  0
    3.4695   -3.4635    0.8379 H   0  0  0  0  0  0  0  0  0  0  0  0
    2.9129   -3.3823   -0.8205 H   0  0  0  0  0  0  0  0  0  0  0  0
    4.3171   -1.3069    0.6339 H   0  0  0  0  0  0  0  0  0  0  0  0
    2.7940   -1.2929    0.0675 H   0  0  0  0  0  0  0  0  0  0  0  0
    7.0326   -1.9567   -1.5895 H   0  0  0  0  0  0  0  0  0  0  0  0
    8.0109   -2.3537   -3.7842 H   0  0  0  0  0  0  0  0  0  0  0  0
    9.9685   -5.5731   -6.0525 H   0  0  0  0  0  0  0  0  0  0  0  0
   11.3121   -9.2475   -4.6855 H   0  0  0  0  0  0  0  0  0  0  0  0
   15.0405   -5.7414   -5.6029 H   0  0  0  0  0  0  0  0  0  0  0  0
   15.6586   -8.2625   -3.9738 H   0  0  0  0  0  0  0  0  0  0  0  0
   15.3559   -6.6361   -3.3428 H   0  0  0  0  0  0  0  0  0  0  0  0
   16.8164   -6.9591   -4.2921 H   0  0  0  0  0  0  0  0  0  0  0  0
   15.6124   -8.5412   -6.7067 H   0  0  0  0  0  0  0  0  0  0  0  0
   16.7543   -7.1934   -6.6963 H   0  0  0  0  0  0  0  0  0  0  0  0
   15.2714   -7.0669   -7.6342 H   0  0  0  0  0  0  0  0  0  0  0  0
   12.7467   -5.2036   -5.0353 H   0  0  0  0  0  0  0  0  0  0  0  0
    8.1642   -5.9404   -0.4057 H   0  0  0  0  0  0  0  0  0  0  0  0
    7.5202   -2.7316    2.2261 H   0  0  0  0  0  0  0  0  0  0  0  0
  1  2  1  0  0  0  0
  1 33  1  0  0  0  0
  1 34  1  0  0  0  0
  1 35  1  0  0  0  0
  2  3  1  0  0  0  0
  3  4  1  0  0  0  0
  3 32  2  0  0  0  0
  4  5  2  0  0  0  0
  4 36  1  0  0  0  0
  5  6  1  0  0  0  0
  5  8  1  0  0  0  0
  6  7  1  0  0  0  0
  7 37  1  0  0  0  0
  7 38  1  0  0  0  0
  7 39  1  0  0  0  0
  8  9  2  0  0  0  0
  8 40  1  0  0  0  0
  9 10  1  0  0  0  0
  9 32  1  0  0  0  0
 10 11  1  0  0  0  0
 10 14  1  0  0  0  0
 11 12  1  0  0  0  0
 11 41  1  0  0  0  0
 11 42  1  0  0  0  0
 12 13  1  0  0  0  0
 12 43  1  0  0  0  0
 12 44  1  0  0  0  0
 13 45  1  0  0  0  0
 13 46  1  0  0  0  0
 14 15  1  0  0  0  0
 14 31  2  0  0  0  0
 15 16  2  0  0  0  0
 15 47  1  0  0  0  0
 16 17  1  0  0  0  0
 16 48  1  0  0  0  0
 17 18  1  0  0  0  0
 17 30  2  0  0  0  0
 18 19  2  0  0  0  0
 19 20  1  0  0  0  0
 19 49  1  0  0  0  0
 20 21  1  0  0  0  0
 20 29  2  0  0  0  0
 21 22  1  0  0  0  0
 21 28  2  0  0  0  0
 22 23  2  0  0  0  0
 22 50  1  0  0  0  0
 23 24  1  0  0  0  0
 24 25  1  0  0  0  0
 24 28  1  0  0  0  0
 25 26  1  0  0  0  0
 25 27  1  0  0  0  0
 25 51  1  0  0  0  0
 26 52  1  0  0  0  0
 26 53  1  0  0  0  0
 26 54  1  0  0  0  0
 27 55  1  0  0  0  0
 27 56  1  0  0  0  0
 27 57  1  0  0  0  0
 28 58  1  0  0  0  0
 29 30  1  0  0  0  0
 30 31  1  0  0  0  0
 31 59  1  0  0  0  0
 32 60  1  0  0  0  0
M  END
$$$$
