CHEMBL1999321
 OpenBabel04072215363D

 48 51  0  0  0  0  0  0  0  0999 V2000
    1.8134   -0.7620    2.7394 O   0  0  0  0  0  0  0  0  0  0  0  0
    0.9322   -1.3304    2.1346 C   0  0  0  0  0  0  0  0  0  0  0  0
    0.7345   -2.0656    0.8555 C   0  0  0  0  0  0  0  0  0  0  0  0
    1.5635   -2.4084   -0.1054 N   0  0  0  0  0  0  0  0  0  0  0  0
    2.9782   -2.0774   -0.1063 C   0  0  0  0  0  0  0  0  0  0  0  0
    3.8656   -3.3304   -0.1383 C   0  0  0  0  0  0  0  0  0  0  0  0
    5.3438   -2.9986   -0.1297 C   0  0  0  0  0  0  0  0  0  0  0  0
    5.8222   -1.8507    0.5148 C   0  0  0  0  0  0  0  0  0  0  0  0
    7.1736   -1.5330    0.5043 C   0  0  0  0  0  0  0  0  0  0  0  0
    8.0985   -2.4108   -0.0554 C   0  0  0  0  0  0  0  0  0  0  0  0
    9.4600   -2.1963   -0.0323 O   0  0  0  0  0  0  0  0  0  0  0  0
   10.0179   -1.5319    1.0433 C   0  0  0  0  0  0  0  0  0  0  0  0
    9.4995   -1.5809    2.3431 C   0  0  0  0  0  0  0  0  0  0  0  0
   10.0770   -0.8315    3.3635 C   0  0  0  0  0  0  0  0  0  0  0  0
   11.2280   -0.0895    3.1134 C   0  0  0  0  0  0  0  0  0  0  0  0
   11.7907   -0.0901    1.8307 C   0  0  0  0  0  0  0  0  0  0  0  0
   11.1823   -0.8040    0.7967 C   0  0  0  0  0  0  0  0  0  0  0  0
    7.6436   -3.5584   -0.7048 C   0  0  0  0  0  0  0  0  0  0  0  0
    6.2734   -3.8511   -0.7442 C   0  0  0  0  0  0  0  0  0  0  0  0
   -0.6023   -2.2359    1.1122 C   0  0  0  0  0  0  0  0  0  0  0  0
   -1.6274   -2.7909    0.5019 N   0  0  0  0  0  0  0  0  0  0  0  0
   -2.0561   -2.4061   -0.7942 C   0  0  0  0  0  0  0  0  0  0  0  0
   -2.7144   -3.3199   -1.6133 C   0  0  0  0  0  0  0  0  0  0  0  0
   -3.0095   -2.9445   -2.9159 C   0  0  0  0  0  0  0  0  0  0  0  0
   -2.7150   -1.7351   -3.4416 N   0  0  0  0  0  0  0  0  0  0  0  0
   -2.0965   -0.8579   -2.6285 C   0  0  0  0  0  0  0  0  0  0  0  0
   -1.7492   -1.1457   -1.3216 C   0  0  0  0  0  0  0  0  0  0  0  0
   -0.5189   -1.5138    2.4023 C   0  0  0  0  0  0  0  0  0  0  0  0
   -1.2534   -1.0847    3.2498 O   0  0  0  0  0  0  0  0  0  0  0  0
    1.2219   -2.8272   -0.9724 H   0  0  0  0  0  0  0  0  0  0  0  0
    3.2030   -1.4887    0.7844 H   0  0  0  0  0  0  0  0  0  0  0  0
    3.1942   -1.4394   -0.9712 H   0  0  0  0  0  0  0  0  0  0  0  0
    3.6267   -3.9144   -1.0368 H   0  0  0  0  0  0  0  0  0  0  0  0
    3.6462   -3.9719    0.7254 H   0  0  0  0  0  0  0  0  0  0  0  0
    5.1675   -1.1643    1.0432 H   0  0  0  0  0  0  0  0  0  0  0  0
    7.4827   -0.6094    0.9851 H   0  0  0  0  0  0  0  0  0  0  0  0
    8.6193   -2.1737    2.5731 H   0  0  0  0  0  0  0  0  0  0  0  0
    9.6247   -0.8318    4.3526 H   0  0  0  0  0  0  0  0  0  0  0  0
   11.6904    0.4776    3.9116 H   0  0  0  0  0  0  0  0  0  0  0  0
   12.6996    0.4722    1.6464 H   0  0  0  0  0  0  0  0  0  0  0  0
   11.6151   -0.7859   -0.1998 H   0  0  0  0  0  0  0  0  0  0  0  0
    8.3558   -4.2319   -1.1750 H   0  0  0  0  0  0  0  0  0  0  0  0
    5.9421   -4.7514   -1.2582 H   0  0  0  0  0  0  0  0  0  0  0  0
   -2.3648   -3.2672    1.0184 H   0  0  0  0  0  0  0  0  0  0  0  0
   -2.9549   -4.3195   -1.2712 H   0  0  0  0  0  0  0  0  0  0  0  0
   -3.4898   -3.6354   -3.6022 H   0  0  0  0  0  0  0  0  0  0  0  0
   -1.8675    0.1096   -3.0638 H   0  0  0  0  0  0  0  0  0  0  0  0
   -1.2577   -0.3836   -0.7278 H   0  0  0  0  0  0  0  0  0  0  0  0
  1  2  2  0  0  0  0
  2  3  1  0  0  0  0
  2 28  1  0  0  0  0
  3  4  1  0  0  0  0
  3 20  2  0  0  0  0
  4  5  1  0  0  0  0
  4 30  1  0  0  0  0
  5  6  1  0  0  0  0
  5 31  1  0  0  0  0
  5 32  1  0  0  0  0
  6  7  1  0  0  0  0
  6 33  1  0  0  0  0
  6 34  1  0  0  0  0
  7  8  1  0  0  0  0
  7 19  2  0  0  0  0
  8  9  2  0  0  0  0
  8 35  1  0  0  0  0
  9 10  1  0  0  0  0
  9 36  1  0  0  0  0
 10 11  1  0  0  0  0
 10 18  2  0  0  0  0
 11 12  1  0  0  0  0
 12 13  1  0  0  0  0
 12 17  2  0  0  0  0
 13 14  2  0  0  0  0
 13 37  1  0  0  0  0
 14 15  1  0  0  0  0
 14 38  1  0  0  0  0
 15 16  2  0  0  0  0
 15 39  1  0  0  0  0
 16 17  1  0  0  0  0
 16 40  1  0  0  0  0
 17 41  1  0  0  0  0
 18 19  1  0  0  0  0
 18 42  1  0  0  0  0
 19 43  1  0  0  0  0
 20 21  1  0  0  0  0
 20 28  1  0  0  0  0
 21 22  1  0  0  0  0
 21 44  1  0  0  0  0
 22 23  1  0  0  0  0
 22 27  2  0  0  0  0
 23 24  2  0  0  0  0
 23 45  1  0  0  0  0
 24 25  1  0  0  0  0
 24 46  1  0  0  0  0
 25 26  2  0  0  0  0
 26 27  1  0  0  0  0
 26 47  1  0  0  0  0
 27 48  1  0  0  0  0
 28 29  2  0  0  0  0
M  END
$$$$
