CHEMBL4552156
 OpenBabel04072215383D

 68 71  0  0  0  0  0  0  0  0999 V2000
    7.3774    0.4449    2.3215 C   0  0  0  0  0  0  0  0  0  0  0  0
    8.2715   -0.1541    1.2394 C   0  0  0  0  0  0  0  0  0  0  0  0
    7.6597   -0.1244   -0.1029 N   0  0  0  0  0  0  0  0  0  0  0  0
    7.3388    1.2553   -0.5506 C   0  0  0  0  0  0  0  0  0  0  0  0
    8.5003    2.2449   -0.6881 C   0  0  0  0  0  0  0  0  0  0  0  0
    8.5416   -0.7693   -1.1105 C   0  0  0  0  0  0  0  0  0  0  0  0
    8.8811   -2.2498   -0.8295 C   0  0  0  0  0  0  0  0  0  0  0  0
    9.9722   -2.6663   -1.2115 O   0  0  0  0  0  0  0  0  0  0  0  0
    7.8867   -3.0029   -0.2284 N   0  0  0  0  0  0  0  0  0  0  0  0
    8.0328   -4.3554    0.2012 C   0  0  0  0  0  0  0  0  0  0  0  0
    9.2799   -4.9865    0.2967 C   0  0  0  0  0  0  0  0  0  0  0  0
    9.4007   -6.3314    0.6702 C   0  0  0  0  0  0  0  0  0  0  0  0
    8.2984   -7.0945    0.9801 C   0  0  0  0  0  0  0  0  0  0  0  0
    8.3656   -8.4984    1.1546 N   0  0  0  0  0  0  0  0  0  0  0  0
    9.4589   -9.3882    1.5725 C   0  0  0  0  0  0  0  0  0  0  0  0
   10.3988   -8.9080    2.4653 N   0  0  0  0  0  0  0  0  0  0  0  0
   10.4235   -9.4925    3.6898 C   0  0  0  0  0  0  0  0  0  0  0  0
   11.0449   -8.9768    4.8123 C   0  0  0  0  0  0  0  0  0  0  0  0
   10.2217   -8.3890    5.7634 C   0  0  0  0  0  0  0  0  0  0  0  0
    8.8539   -8.4858    5.5623 C   0  0  0  0  0  0  0  0  0  0  0  0
    7.9353   -7.6095    6.0567 O   0  0  0  0  0  0  0  0  0  0  0  0
    8.4035   -6.2569    6.1728 C   0  0  0  0  0  0  0  0  0  0  0  0
    8.3994   -9.5456    4.7717 C   0  0  0  0  0  0  0  0  0  0  0  0
    9.3259  -10.2379    3.9608 C   0  0  0  0  0  0  0  0  0  0  0  0
    8.9620  -11.1527    2.9612 C   0  0  0  0  0  0  0  0  0  0  0  0
    9.0407  -10.7269    1.6484 C   0  0  0  0  0  0  0  0  0  0  0  0
    8.6082  -11.5378    0.4735 C   0  0  0  0  0  0  0  0  0  0  0  0
    8.2406  -12.8791    0.6156 C   0  0  0  0  0  0  0  0  0  0  0  0
    7.8101  -13.6444   -0.4871 C   0  0  0  0  0  0  0  0  0  0  0  0
    7.7419  -13.0773   -1.7539 C   0  0  0  0  0  0  0  0  0  0  0  0
    7.3287  -13.6841   -2.8981 O   0  0  0  0  0  0  0  0  0  0  0  0
    6.8166  -15.0200   -2.7805 C   0  0  0  0  0  0  0  0  0  0  0  0
    8.1467  -11.7532   -1.9098 C   0  0  0  0  0  0  0  0  0  0  0  0
    8.5822  -10.9932   -0.8151 C   0  0  0  0  0  0  0  0  0  0  0  0
    7.0322   -6.4547    0.9116 C   0  0  0  0  0  0  0  0  0  0  0  0
    6.9047   -5.0929    0.5500 C   0  0  0  0  0  0  0  0  0  0  0  0
    7.7518    0.1649    3.3112 H   0  0  0  0  0  0  0  0  0  0  0  0
    6.3494    0.0762    2.2378 H   0  0  0  0  0  0  0  0  0  0  0  0
    7.3627    1.5384    2.2726 H   0  0  0  0  0  0  0  0  0  0  0  0
    8.4494   -1.1931    1.5376 H   0  0  0  0  0  0  0  0  0  0  0  0
    9.2512    0.3365    1.2567 H   0  0  0  0  0  0  0  0  0  0  0  0
    6.5927    1.6860    0.1275 H   0  0  0  0  0  0  0  0  0  0  0  0
    6.8235    1.2018   -1.5185 H   0  0  0  0  0  0  0  0  0  0  0  0
    9.1990    2.2040    0.1514 H   0  0  0  0  0  0  0  0  0  0  0  0
    8.1126    3.2696   -0.7283 H   0  0  0  0  0  0  0  0  0  0  0  0
    9.0631    2.0714   -1.6110 H   0  0  0  0  0  0  0  0  0  0  0  0
    9.4939   -0.2394   -1.1752 H   0  0  0  0  0  0  0  0  0  0  0  0
    8.0675   -0.7450   -2.0973 H   0  0  0  0  0  0  0  0  0  0  0  0
    6.9885   -2.5559   -0.1242 H   0  0  0  0  0  0  0  0  0  0  0  0
   10.1979   -4.4581    0.0874 H   0  0  0  0  0  0  0  0  0  0  0  0
   10.3987   -6.7801    0.6914 H   0  0  0  0  0  0  0  0  0  0  0  0
    7.5635   -8.7829    1.7149 H   0  0  0  0  0  0  0  0  0  0  0  0
   12.1212   -8.9600    4.9045 H   0  0  0  0  0  0  0  0  0  0  0  0
   10.6384   -7.8104    6.5779 H   0  0  0  0  0  0  0  0  0  0  0  0
    7.6130   -5.5787    5.8294 H   0  0  0  0  0  0  0  0  0  0  0  0
    9.2958   -6.0236    5.5763 H   0  0  0  0  0  0  0  0  0  0  0  0
    8.6008   -6.0443    7.2275 H   0  0  0  0  0  0  0  0  0  0  0  0
    7.3326   -9.6827    4.6038 H   0  0  0  0  0  0  0  0  0  0  0  0
    8.5497  -12.1038    3.2596 H   0  0  0  0  0  0  0  0  0  0  0  0
    8.2957  -13.3891    1.5674 H   0  0  0  0  0  0  0  0  0  0  0  0
    7.5388  -14.6798   -0.3108 H   0  0  0  0  0  0  0  0  0  0  0  0
    6.4780  -15.3343   -3.7727 H   0  0  0  0  0  0  0  0  0  0  0  0
    5.9581  -15.0588   -2.1056 H   0  0  0  0  0  0  0  0  0  0  0  0
    7.6033  -15.7104   -2.4625 H   0  0  0  0  0  0  0  0  0  0  0  0
    8.1226  -11.2991   -2.8983 H   0  0  0  0  0  0  0  0  0  0  0  0
    8.8967   -9.9700   -1.0107 H   0  0  0  0  0  0  0  0  0  0  0  0
    6.1266   -7.0220    1.1162 H   0  0  0  0  0  0  0  0  0  0  0  0
    5.9044   -4.6580    0.4993 H   0  0  0  0  0  0  0  0  0  0  0  0
  1  2  1  0  0  0  0
  1 37  1  0  0  0  0
  1 38  1  0  0  0  0
  1 39  1  0  0  0  0
  2  3  1  0  0  0  0
  2 40  1  0  0  0  0
  2 41  1  0  0  0  0
  3  4  1  0  0  0  0
  3  6  1  0  0  0  0
  4  5  1  0  0  0  0
  4 42  1  0  0  0  0
  4 43  1  0  0  0  0
  5 44  1  0  0  0  0
  5 45  1  0  0  0  0
  5 46  1  0  0  0  0
  6  7  1  0  0  0  0
  6 47  1  0  0  0  0
  6 48  1  0  0  0  0
  7  8  2  0  0  0  0
  7  9  1  0  0  0  0
  9 10  1  0  0  0  0
  9 49  1  0  0  0  0
 10 11  1  0  0  0  0
 10 36  2  0  0  0  0
 11 12  2  0  0  0  0
 11 50  1  0  0  0  0
 12 13  1  0  0  0  0
 12 51  1  0  0  0  0
 13 14  1  0  0  0  0
 13 35  2  0  0  0  0
 14 15  1  0  0  0  0
 14 52  1  0  0  0  0
 15 16  1  0  0  0  0
 15 26  2  0  0  0  0
 16 17  2  0  0  0  0
 17 18  1  0  0  0  0
 17 24  1  0  0  0  0
 18 19  2  0  0  0  0
 18 53  1  0  0  0  0
 19 20  1  0  0  0  0
 19 54  1  0  0  0  0
 20 21  1  0  0  0  0
 20 23  2  0  0  0  0
 21 22  1  0  0  0  0
 22 55  1  0  0  0  0
 22 56  1  0  0  0  0
 22 57  1  0  0  0  0
 23 24  1  0  0  0  0
 23 58  1  0  0  0  0
 24 25  2  0  0  0  0
 25 26  1  0  0  0  0
 25 59  1  0  0  0  0
 26 27  1  0  0  0  0
 27 28  1  0  0  0  0
 27 34  2  0  0  0  0
 28 29  2  0  0  0  0
 28 60  1  0  0  0  0
 29 30  1  0  0  0  0
 29 61  1  0  0  0  0
 30 31  1  0  0  0  0
 30 33  2  0  0  0  0
 31 32  1  0  0  0  0
 32 62  1  0  0  0  0
 32 63  1  0  0  0  0
 32 64  1  0  0  0  0
 33 34  1  0  0  0  0
 33 65  1  0  0  0  0
 34 66  1  0  0  0  0
 35 36  1  0  0  0  0
 35 67  1  0  0  0  0
 36 68  1  0  0  0  0
M  END
$$$$
