CHEMBL411725
 OpenBabel04072215383D

 42 45  0  0  0  0  0  0  0  0999 V2000
    1.2497    2.0636    3.2097 N   0  0  0  0  0  0  0  0  0  0  0  0
    1.5075    0.9615    2.4809 C   0  0  0  0  0  0  0  0  0  0  0  0
    1.8990   -0.1749    3.0624 N   0  0  0  0  0  0  0  0  0  0  0  0
    2.0848   -1.0796    2.0386 O   0  0  0  0  0  0  0  0  0  0  0  0
    1.7880   -0.4908    0.8562 C   0  0  0  0  0  0  0  0  0  0  0  0
    1.8665   -1.1306   -0.3795 C   0  0  0  0  0  0  0  0  0  0  0  0
    1.5018   -0.3772   -1.4916 C   0  0  0  0  0  0  0  0  0  0  0  0
    1.0954    0.9520   -1.3491 C   0  0  0  0  0  0  0  0  0  0  0  0
    1.0266    1.6023   -0.0894 C   0  0  0  0  0  0  0  0  0  0  0  0
    0.5691    3.0021    0.0086 C   0  0  0  0  0  0  0  0  0  0  0  0
   -0.3336    3.3974    0.9982 C   0  0  0  0  0  0  0  0  0  0  0  0
   -0.7001    4.7336    1.1652 C   0  0  0  0  0  0  0  0  0  0  0  0
   -0.2471    5.7205    0.2915 C   0  0  0  0  0  0  0  0  0  0  0  0
   -0.6260    7.0787    0.4146 N   0  0  0  0  0  0  0  0  0  0  0  0
   -1.2193    7.6361    1.5372 C   0  0  0  0  0  0  0  0  0  0  0  0
   -1.3154    7.0776    2.6224 O   0  0  0  0  0  0  0  0  0  0  0  0
   -1.7464    8.8944    1.2688 N   0  0  0  0  0  0  0  0  0  0  0  0
   -2.4727    9.5909    2.2653 C   0  0  0  0  0  0  0  0  0  0  0  0
   -2.0369    9.6369    3.5943 C   0  0  0  0  0  0  0  0  0  0  0  0
   -2.8249   10.2351    4.5779 C   0  0  0  0  0  0  0  0  0  0  0  0
   -4.0551   10.7902    4.2364 C   0  0  0  0  0  0  0  0  0  0  0  0
   -4.4805   10.7761    2.9079 C   0  0  0  0  0  0  0  0  0  0  0  0
   -3.6801   10.1995    1.9169 C   0  0  0  0  0  0  0  0  0  0  0  0
    0.5692    5.3336   -0.7717 C   0  0  0  0  0  0  0  0  0  0  0  0
    0.9846    3.9953   -0.8995 C   0  0  0  0  0  0  0  0  0  0  0  0
    1.4025    0.8292    1.0564 C   0  0  0  0  0  0  0  0  0  0  0  0
    1.4662    2.0333    4.2014 H   0  0  0  0  0  0  0  0  0  0  0  0
    1.3050    2.9938    2.8112 H   0  0  0  0  0  0  0  0  0  0  0  0
    2.1800   -2.1657   -0.4625 H   0  0  0  0  0  0  0  0  0  0  0  0
    1.5244   -0.8318   -2.4779 H   0  0  0  0  0  0  0  0  0  0  0  0
    0.7874    1.4870   -2.2471 H   0  0  0  0  0  0  0  0  0  0  0  0
   -0.7574    2.6675    1.6865 H   0  0  0  0  0  0  0  0  0  0  0  0
   -1.3599    4.9579    1.9983 H   0  0  0  0  0  0  0  0  0  0  0  0
   -0.2738    7.7269   -0.2738 H   0  0  0  0  0  0  0  0  0  0  0  0
   -2.0627    9.0183    0.3186 H   0  0  0  0  0  0  0  0  0  0  0  0
   -1.0886    9.1892    3.8832 H   0  0  0  0  0  0  0  0  0  0  0  0
   -2.4858   10.2424    5.6104 H   0  0  0  0  0  0  0  0  0  0  0  0
   -4.6858   11.2240    5.0081 H   0  0  0  0  0  0  0  0  0  0  0  0
   -5.4505   11.1919    2.6482 H   0  0  0  0  0  0  0  0  0  0  0  0
   -4.0484   10.1682    0.8963 H   0  0  0  0  0  0  0  0  0  0  0  0
    0.9127    6.0592   -1.5045 H   0  0  0  0  0  0  0  0  0  0  0  0
    1.6497    3.7408   -1.7226 H   0  0  0  0  0  0  0  0  0  0  0  0
  1  2  1  0  0  0  0
  1 27  1  0  0  0  0
  1 28  1  0  0  0  0
  2  3  2  0  0  0  0
  2 26  1  0  0  0  0
  3  4  1  0  0  0  0
  4  5  1  0  0  0  0
  5  6  1  0  0  0  0
  5 26  2  0  0  0  0
  6  7  2  0  0  0  0
  6 29  1  0  0  0  0
  7  8  1  0  0  0  0
  7 30  1  0  0  0  0
  8  9  2  0  0  0  0
  8 31  1  0  0  0  0
  9 10  1  0  0  0  0
  9 26  1  0  0  0  0
 10 11  1  0  0  0  0
 10 25  2  0  0  0  0
 11 12  2  0  0  0  0
 11 32  1  0  0  0  0
 12 13  1  0  0  0  0
 12 33  1  0  0  0  0
 13 14  1  0  0  0  0
 13 24  2  0  0  0  0
 14 15  1  0  0  0  0
 14 34  1  0  0  0  0
 15 16  2  0  0  0  0
 15 17  1  0  0  0  0
 17 18  1  0  0  0  0
 17 35  1  0  0  0  0
 18 19  1  0  0  0  0
 18 23  2  0  0  0  0
 19 20  2  0  0  0  0
 19 36  1  0  0  0  0
 20 21  1  0  0  0  0
 20 37  1  0  0  0  0
 21 22  2  0  0  0  0
 21 38  1  0  0  0  0
 22 23  1  0  0  0  0
 22 39  1  0  0  0  0
 23 40  1  0  0  0  0
 24 25  1  0  0  0  0
 24 41  1  0  0  0  0
 25 42  1  0  0  0  0
M  END
$$$$
