CHEMBL3288513
 OpenBabel04072215363D

 47 51  0  0  0  0  0  0  0  0999 V2000
   -3.5053    3.0139    1.4975 N   0  0  0  0  0  0  0  0  0  0  0  0
   -3.2680    1.7012    1.3445 C   0  0  0  0  0  0  0  0  0  0  0  0
   -4.1649    0.8195    1.7748 N   0  0  0  0  0  0  0  0  0  0  0  0
   -3.6418   -0.3575    1.4282 N   0  0  0  0  0  0  0  0  0  0  0  0
   -2.4387   -0.2767    0.7878 C   0  0  0  0  0  0  0  0  0  0  0  0
   -1.6364   -1.2960    0.2696 C   0  0  0  0  0  0  0  0  0  0  0  0
   -0.4374   -0.9226   -0.3211 C   0  0  0  0  0  0  0  0  0  0  0  0
   -0.0598    0.4169   -0.3678 C   0  0  0  0  0  0  0  0  0  0  0  0
   -0.8662    1.4648    0.1518 C   0  0  0  0  0  0  0  0  0  0  0  0
   -0.3880    2.8685    0.0834 C   0  0  0  0  0  0  0  0  0  0  0  0
    0.3955    3.3296   -0.9852 C   0  0  0  0  0  0  0  0  0  0  0  0
    0.8590    4.6514   -1.0457 C   0  0  0  0  0  0  0  0  0  0  0  0
    0.4625    5.6187   -0.0953 C   0  0  0  0  0  0  0  0  0  0  0  0
    0.7919    7.0066   -0.1250 C   0  0  0  0  0  0  0  0  0  0  0  0
    1.6717    7.6540   -1.1366 C   0  0  0  0  0  0  0  0  0  0  0  0
    2.4749    8.4857   -0.7278 O   0  0  0  0  0  0  0  0  0  0  0  0
    1.4520    7.3222   -2.4637 N   0  0  0  0  0  0  0  0  0  0  0  0
    2.1410    7.8525   -3.5795 C   0  0  0  0  0  0  0  0  0  0  0  0
    3.2637    8.6830   -3.4721 C   0  0  0  0  0  0  0  0  0  0  0  0
    3.8373    9.2607   -4.6079 C   0  0  0  0  0  0  0  0  0  0  0  0
    3.2976    8.9917   -5.8561 C   0  0  0  0  0  0  0  0  0  0  0  0
    3.8191    9.5759   -6.9423 F   0  0  0  0  0  0  0  0  0  0  0  0
    2.2190    8.1260   -5.9922 C   0  0  0  0  0  0  0  0  0  0  0  0
    1.6460    7.5481   -4.8551 C   0  0  0  0  0  0  0  0  0  0  0  0
    0.3224    7.8722    0.8827 C   0  0  0  0  0  0  0  0  0  0  0  0
   -0.4613    7.3946    1.9249 C   0  0  0  0  0  0  0  0  0  0  0  0
   -0.7643    6.0405    1.9839 C   0  0  0  0  0  0  0  0  0  0  0  0
   -0.3120    5.1565    0.9942 C   0  0  0  0  0  0  0  0  0  0  0  0
   -0.6463    3.7957    1.0983 C   0  0  0  0  0  0  0  0  0  0  0  0
   -2.1185    1.0848    0.7387 C   0  0  0  0  0  0  0  0  0  0  0  0
   -4.4359    3.2465    1.8278 H   0  0  0  0  0  0  0  0  0  0  0  0
   -3.1570    3.6668    0.8058 H   0  0  0  0  0  0  0  0  0  0  0  0
   -4.1648   -1.1963    1.6556 H   0  0  0  0  0  0  0  0  0  0  0  0
   -1.9293   -2.3397    0.3265 H   0  0  0  0  0  0  0  0  0  0  0  0
    0.2205   -1.6825   -0.7368 H   0  0  0  0  0  0  0  0  0  0  0  0
    0.9094    0.6436   -0.8099 H   0  0  0  0  0  0  0  0  0  0  0  0
    0.6771    2.6608   -1.7965 H   0  0  0  0  0  0  0  0  0  0  0  0
    1.5332    4.9005   -1.8611 H   0  0  0  0  0  0  0  0  0  0  0  0
    0.6491    6.7398   -2.6673 H   0  0  0  0  0  0  0  0  0  0  0  0
    3.7172    8.9121   -2.5130 H   0  0  0  0  0  0  0  0  0  0  0  0
    4.6856    9.9297   -4.5142 H   0  0  0  0  0  0  0  0  0  0  0  0
    1.8206    7.9221   -6.9810 H   0  0  0  0  0  0  0  0  0  0  0  0
    0.7960    6.8831   -4.9815 H   0  0  0  0  0  0  0  0  0  0  0  0
    0.5796    8.9304    0.8576 H   0  0  0  0  0  0  0  0  0  0  0  0
   -0.8215    8.0718    2.6952 H   0  0  0  0  0  0  0  0  0  0  0  0
   -1.3756    5.6786    2.8099 H   0  0  0  0  0  0  0  0  0  0  0  0
   -1.1404    3.4546    2.0066 H   0  0  0  0  0  0  0  0  0  0  0  0
  1  2  1  0  0  0  0
  1 31  1  0  0  0  0
  1 32  1  0  0  0  0
  2  3  2  0  0  0  0
  2 30  1  0  0  0  0
  3  4  1  0  0  0  0
  4  5  1  0  0  0  0
  4 33  1  0  0  0  0
  5  6  1  0  0  0  0
  5 30  2  0  0  0  0
  6  7  2  0  0  0  0
  6 34  1  0  0  0  0
  7  8  1  0  0  0  0
  7 35  1  0  0  0  0
  8  9  2  0  0  0  0
  8 36  1  0  0  0  0
  9 10  1  0  0  0  0
  9 30  1  0  0  0  0
 10 11  1  0  0  0  0
 10 29  2  0  0  0  0
 11 12  2  0  0  0  0
 11 37  1  0  0  0  0
 12 13  1  0  0  0  0
 12 38  1  0  0  0  0
 13 14  1  0  0  0  0
 13 28  2  0  0  0  0
 14 15  1  0  0  0  0
 14 25  2  0  0  0  0
 15 16  2  0  0  0  0
 15 17  1  0  0  0  0
 17 18  1  0  0  0  0
 17 39  1  0  0  0  0
 18 19  1  0  0  0  0
 18 24  2  0  0  0  0
 19 20  2  0  0  0  0
 19 40  1  0  0  0  0
 20 21  1  0  0  0  0
 20 41  1  0  0  0  0
 21 22  1  0  0  0  0
 21 23  2  0  0  0  0
 23 24  1  0  0  0  0
 23 42  1  0  0  0  0
 24 43  1  0  0  0  0
 25 26  1  0  0  0  0
 25 44  1  0  0  0  0
 26 27  2  0  0  0  0
 26 45  1  0  0  0  0
 27 28  1  0  0  0  0
 27 46  1  0  0  0  0
 28 29  1  0  0  0  0
 29 47  1  0  0  0  0
M  END
$$$$
