CHEMBL462315
 OpenBabel04072215383D

 42 45  0  0  0  0  0  0  0  0999 V2000
    1.0341    0.0254    0.0085 O   0  0  0  0  0  0  0  0  0  0  0  0
    2.2643    0.0288    0.0233 C   0  0  0  0  0  0  0  0  0  0  0  0
    3.0104   -0.2196   -1.1061 N   0  0  0  0  0  0  0  0  0  0  0  0
    2.4008   -0.5097   -2.3794 C   0  0  0  0  0  0  0  0  0  0  0  0
    2.1986   -1.9893   -2.5935 C   0  0  0  0  0  0  0  0  0  0  0  0
    1.0232   -2.6221   -2.1219 C   0  0  0  0  0  0  0  0  0  0  0  0
    0.8046   -3.9890   -2.3246 C   0  0  0  0  0  0  0  0  0  0  0  0
    1.7799   -4.7015   -2.9866 C   0  0  0  0  0  0  0  0  0  0  0  0
    2.9311   -4.1006   -3.4374 C   0  0  0  0  0  0  0  0  0  0  0  0
    3.1725   -2.7530   -3.2584 C   0  0  0  0  0  0  0  0  0  0  0  0
    3.7637   -4.9786   -4.0602 O   0  0  0  0  0  0  0  0  0  0  0  0
    3.0315   -6.2100   -3.8899 C   0  0  0  0  0  0  0  0  0  0  0  0
    1.7420   -6.0304   -3.2692 O   0  0  0  0  0  0  0  0  0  0  0  0
    3.0354    0.3012    1.2501 C   0  0  0  0  0  0  0  0  0  0  0  0
    4.3754    0.3642    1.1963 N   0  0  0  0  0  0  0  0  0  0  0  0
    4.9616    0.7163    2.7056 S   0  0  0  0  0  0  0  0  0  0  0  0
    3.4463    0.7663    3.4891 C   0  0  0  0  0  0  0  0  0  0  0  0
    2.4567    0.5031    2.5673 C   0  0  0  0  0  0  0  0  0  0  0  0
    1.1216    0.4783    2.8437 N   0  0  0  0  0  0  0  0  0  0  0  0
    0.5700    0.0215    4.1094 C   0  0  0  0  0  0  0  0  0  0  0  0
   -0.2834   -1.2121    3.9220 C   0  0  0  0  0  0  0  0  0  0  0  0
    0.2662   -2.4076    3.4457 C   0  0  0  0  0  0  0  0  0  0  0  0
   -0.5516   -3.5234    3.3402 C   0  0  0  0  0  0  0  0  0  0  0  0
   -1.8593   -3.5319    3.6742 N   0  0  0  0  0  0  0  0  0  0  0  0
   -2.3738   -2.3704    4.1278 C   0  0  0  0  0  0  0  0  0  0  0  0
   -1.6382   -1.2029    4.2693 C   0  0  0  0  0  0  0  0  0  0  0  0
    4.0222   -0.2405   -1.0013 H   0  0  0  0  0  0  0  0  0  0  0  0
    3.0440   -0.0963   -3.1642 H   0  0  0  0  0  0  0  0  0  0  0  0
    1.4381    0.0095   -2.4552 H   0  0  0  0  0  0  0  0  0  0  0  0
    0.2675   -2.0397   -1.5944 H   0  0  0  0  0  0  0  0  0  0  0  0
   -0.0993   -4.4717   -1.9719 H   0  0  0  0  0  0  0  0  0  0  0  0
    4.0879   -2.3078   -3.6310 H   0  0  0  0  0  0  0  0  0  0  0  0
    3.6273   -6.8858   -3.2648 H   0  0  0  0  0  0  0  0  0  0  0  0
    2.8895   -6.6758   -4.8722 H   0  0  0  0  0  0  0  0  0  0  0  0
    3.3630    1.0005    4.5388 H   0  0  0  0  0  0  0  0  0  0  0  0
    0.4690    0.3771    2.0568 H   0  0  0  0  0  0  0  0  0  0  0  0
   -0.0342    0.8335    4.5300 H   0  0  0  0  0  0  0  0  0  0  0  0
    1.3419   -0.2091    4.8538 H   0  0  0  0  0  0  0  0  0  0  0  0
    1.3122   -2.4750    3.1650 H   0  0  0  0  0  0  0  0  0  0  0  0
   -0.1621   -4.4710    2.9782 H   0  0  0  0  0  0  0  0  0  0  0  0
   -3.4275   -2.4031    4.3892 H   0  0  0  0  0  0  0  0  0  0  0  0
   -2.1203   -0.3091    4.6519 H   0  0  0  0  0  0  0  0  0  0  0  0
  1  2  2  0  0  0  0
  2  3  1  0  0  0  0
  2 14  1  0  0  0  0
  3  4  1  0  0  0  0
  3 27  1  0  0  0  0
  4  5  1  0  0  0  0
  4 28  1  0  0  0  0
  4 29  1  0  0  0  0
  5  6  1  0  0  0  0
  5 10  2  0  0  0  0
  6  7  2  0  0  0  0
  6 30  1  0  0  0  0
  7  8  1  0  0  0  0
  7 31  1  0  0  0  0
  8  9  2  0  0  0  0
  8 13  1  0  0  0  0
  9 10  1  0  0  0  0
  9 11  1  0  0  0  0
 10 32  1  0  0  0  0
 11 12  1  0  0  0  0
 12 13  1  0  0  0  0
 12 33  1  0  0  0  0
 12 34  1  0  0  0  0
 14 15  2  0  0  0  0
 14 18  1  0  0  0  0
 15 16  1  0  0  0  0
 16 17  1  0  0  0  0
 17 18  2  0  0  0  0
 17 35  1  0  0  0  0
 18 19  1  0  0  0  0
 19 20  1  0  0  0  0
 19 36  1  0  0  0  0
 20 21  1  0  0  0  0
 20 37  1  0  0  0  0
 20 38  1  0  0  0  0
 21 22  1  0  0  0  0
 21 26  2  0  0  0  0
 22 23  2  0  0  0  0
 22 39  1  0  0  0  0
 23 24  1  0  0  0  0
 23 40  1  0  0  0  0
 24 25  2  0  0  0  0
 25 26  1  0  0  0  0
 25 41  1  0  0  0  0
 26 42  1  0  0  0  0
M  END
$$$$
