CHEMBL3930298
 OpenBabel04072215373D

 60 64  0  0  0  0  0  0  0  0999 V2000
    1.9518    4.5474   -2.7523 C   0  0  0  0  0  0  0  0  0  0  0  0
    2.8425    3.6537   -3.4002 O   0  0  0  0  0  0  0  0  0  0  0  0
    3.3871    2.7080   -2.5870 C   0  0  0  0  0  0  0  0  0  0  0  0
    3.2153    2.4915   -1.2810 C   0  0  0  0  0  0  0  0  0  0  0  0
    3.9105    1.4885   -0.5812 C   0  0  0  0  0  0  0  0  0  0  0  0
    3.6007    1.1513    0.7028 O   0  0  0  0  0  0  0  0  0  0  0  0
    2.5233    1.9054    1.2452 C   0  0  0  0  0  0  0  0  0  0  0  0
    4.9002    0.7185   -1.1784 C   0  0  0  0  0  0  0  0  0  0  0  0
    5.0079    0.7352   -2.5528 C   0  0  0  0  0  0  0  0  0  0  0  0
    6.1516    0.0117   -3.1652 N   0  0  0  0  0  0  0  0  0  0  0  0
    6.7138   -1.1952   -2.4748 C   0  0  0  0  0  0  0  0  0  0  0  0
    5.6738   -2.2791   -2.3130 C   0  0  0  0  0  0  0  0  0  0  0  0
    5.2076   -2.6554   -3.7956 C   0  0  0  0  0  0  0  0  0  0  0  0
    4.7669   -1.9792   -0.9481 C   0  0  0  0  0  0  0  0  0  0  0  0
    4.7657   -3.4071   -0.7063 O   0  0  0  0  0  0  0  0  0  0  0  0
    5.9438   -3.5686   -1.5499 C   0  0  0  0  0  0  0  0  0  0  0  0
    7.0428    0.6166   -4.1258 C   0  0  0  0  0  0  0  0  0  0  0  0
    7.5258   -0.3282   -4.9803 C   0  0  0  0  0  0  0  0  0  0  0  0
    8.3931    0.0337   -5.9270 C   0  0  0  0  0  0  0  0  0  0  0  0
    8.9270    1.2738   -6.0323 C   0  0  0  0  0  0  0  0  0  0  0  0
   10.1132    0.9365   -6.3021 N   0  0  0  0  0  0  0  0  0  0  0  0
   10.2975    0.8395   -7.5431 C   0  0  0  0  0  0  0  0  0  0  0  0
   10.7887    1.9402   -7.9185 C   0  0  0  0  0  0  0  0  0  0  0  0
   12.0102    1.1144   -9.0568 C   0  0  0  0  0  0  0  0  0  0  0  0
   12.3610   -0.1547  -10.0139 C   0  0  0  0  0  0  0  0  0  0  0  0
   13.3480   -0.0657  -10.9857 N   0  0  0  0  0  0  0  0  0  0  0  0
   13.7640    1.2081  -10.9751 N   0  0  0  0  0  0  0  0  0  0  0  0
   14.7942    1.7080  -11.9837 C   0  0  0  0  0  0  0  0  0  0  0  0
   12.9935    1.9024   -9.9136 C   0  0  0  0  0  0  0  0  0  0  0  0
   10.0053    2.9521   -6.8152 N   0  0  0  0  0  0  0  0  0  0  0  0
    8.8087    2.4883   -5.5987 C   0  0  0  0  0  0  0  0  0  0  0  0
    7.5972    1.9973   -4.3785 C   0  0  0  0  0  0  0  0  0  0  0  0
    4.1783    1.7584   -3.1580 C   0  0  0  0  0  0  0  0  0  0  0  0
    1.4425    5.1409   -3.5158 H   0  0  0  0  0  0  0  0  0  0  0  0
    2.5085    5.2191   -2.0926 H   0  0  0  0  0  0  0  0  0  0  0  0
    1.1874    4.0094   -2.1911 H   0  0  0  0  0  0  0  0  0  0  0  0
    2.4504    3.0718   -0.8235 H   0  0  0  0  0  0  0  0  0  0  0  0
    2.3416    1.5382    2.2509 H   0  0  0  0  0  0  0  0  0  0  0  0
    1.5976    1.7846    0.6631 H   0  0  0  0  0  0  0  0  0  0  0  0
    2.7978    2.9652    1.3085 H   0  0  0  0  0  0  0  0  0  0  0  0
    5.5725    0.1104   -0.5793 H   0  0  0  0  0  0  0  0  0  0  0  0
    7.1881   -0.9450   -1.5137 H   0  0  0  0  0  0  0  0  0  0  0  0
    7.4707   -1.6438   -3.1225 H   0  0  0  0  0  0  0  0  0  0  0  0
    5.1007   -1.7626   -4.4074 H   0  0  0  0  0  0  0  0  0  0  0  0
    4.2007   -3.0866   -3.8536 H   0  0  0  0  0  0  0  0  0  0  0  0
    5.9500   -3.0220   -4.4909 H   0  0  0  0  0  0  0  0  0  0  0  0
    3.7432   -1.5548   -0.9730 H   0  0  0  0  0  0  0  0  0  0  0  0
    5.1749   -1.3658   -0.1297 H   0  0  0  0  0  0  0  0  0  0  0  0
    5.9105   -4.4418   -2.2047 H   0  0  0  0  0  0  0  0  0  0  0  0
    6.8680   -3.6161   -0.9734 H   0  0  0  0  0  0  0  0  0  0  0  0
    7.3317   -1.3927   -4.9231 H   0  0  0  0  0  0  0  0  0  0  0  0
    8.8578   -0.7270   -6.5257 H   0  0  0  0  0  0  0  0  0  0  0  0
   10.4668   -0.1587   -7.8347 H   0  0  0  0  0  0  0  0  0  0  0  0
   11.9549   -1.1602  -10.0669 H   0  0  0  0  0  0  0  0  0  0  0  0
   15.2607    0.9064  -12.6066 H   0  0  0  0  0  0  0  0  0  0  0  0
   15.6346    2.2261  -11.4909 H   0  0  0  0  0  0  0  0  0  0  0  0
   14.3378    2.4100  -12.7014 H   0  0  0  0  0  0  0  0  0  0  0  0
   13.2680    2.9405   -9.9283 H   0  0  0  0  0  0  0  0  0  0  0  0
    7.3204    2.6167   -3.4230 H   0  0  0  0  0  0  0  0  0  0  0  0
    4.3103    2.2159   -4.1083 H   0  0  0  0  0  0  0  0  0  0  0  0
  1  2  1  0  0  0  0
  1 34  1  0  0  0  0
  1 35  1  0  0  0  0
  1 36  1  0  0  0  0
  2  3  1  0  0  0  0
  3  4  1  0  0  0  0
  3 33  2  0  0  0  0
  4  5  2  0  0  0  0
  4 37  1  0  0  0  0
  5  6  1  0  0  0  0
  5  8  1  0  0  0  0
  6  7  1  0  0  0  0
  7 38  1  0  0  0  0
  7 39  1  0  0  0  0
  7 40  1  0  0  0  0
  8  9  2  0  0  0  0
  8 41  1  0  0  0  0
  9 10  1  0  0  0  0
  9 33  1  0  0  0  0
 10 11  1  0  0  0  0
 10 17  1  0  0  0  0
 11 12  1  0  0  0  0
 11 42  1  0  0  0  0
 11 43  1  0  0  0  0
 12 13  1  0  0  0  0
 12 14  1  0  0  0  0
 12 16  1  0  0  0  0
 13 44  1  0  0  0  0
 13 45  1  0  0  0  0
 13 46  1  0  0  0  0
 14 15  1  0  0  0  0
 14 47  1  0  0  0  0
 14 48  1  0  0  0  0
 15 16  1  0  0  0  0
 16 49  1  0  0  0  0
 16 50  1  0  0  0  0
 17 18  1  0  0  0  0
 17 32  2  0  0  0  0
 18 19  2  0  0  0  0
 18 51  1  0  0  0  0
 19 20  1  0  0  0  0
 19 52  1  0  0  0  0
 20 21  1  0  0  0  0
 20 31  2  0  0  0  0
 21 22  2  0  0  0  0
 22 23  1  0  0  0  0
 22 53  1  0  0  0  0
 23 24  1  0  0  0  0
 23 30  2  0  0  0  0
 24 25  1  0  0  0  0
 24 29  2  0  0  0  0
 25 26  2  0  0  0  0
 25 54  1  0  0  0  0
 26 27  1  0  0  0  0
 27 28  1  0  0  0  0
 27 29  1  0  0  0  0
 28 55  1  0  0  0  0
 28 56  1  0  0  0  0
 28 57  1  0  0  0  0
 29 58  1  0  0  0  0
 30 31  1  0  0  0  0
 31 32  1  0  0  0  0
 32 59  1  0  0  0  0
 33 60  1  0  0  0  0
M  END
$$$$
