CHEMBL4229181
 OpenBabel04072215383D

 48 50  0  0  0  0  0  0  0  0999 V2000
    1.4841   -0.6846    1.9273 C   0  0  0  0  0  0  0  0  0  0  0  0
    2.7486   -0.1269    1.5179 N   0  0  0  0  0  0  0  0  0  0  0  0
    3.9342   -0.7433    1.8628 C   0  0  0  0  0  0  0  0  0  0  0  0
    3.9938   -1.7660    2.5341 O   0  0  0  0  0  0  0  0  0  0  0  0
    5.1753   -0.1259    1.3465 C   0  0  0  0  0  0  0  0  0  0  0  0
    5.3098    1.2387    1.0846 C   0  0  0  0  0  0  0  0  0  0  0  0
    6.5354    1.7236    0.6124 C   0  0  0  0  0  0  0  0  0  0  0  0
    7.5903    0.8334    0.4034 C   0  0  0  0  0  0  0  0  0  0  0  0
    9.1737    1.4418   -0.1622 S   0  0  0  0  0  0  0  0  0  0  0  0
    9.8261    0.0401   -1.0547 C   0  0  0  0  0  0  0  0  0  0  0  0
    9.5456   -0.1041   -2.4107 C   0  0  0  0  0  0  0  0  0  0  0  0
   10.0342   -1.2014   -3.1300 C   0  0  0  0  0  0  0  0  0  0  0  0
   10.8219   -2.1832   -2.5190 C   0  0  0  0  0  0  0  0  0  0  0  0
   11.2859   -3.3482   -3.1959 N   0  0  0  0  0  0  0  0  0  0  0  0
   11.0691   -3.6337   -4.5400 C   0  0  0  0  0  0  0  0  0  0  0  0
   10.5216   -2.8910   -5.3477 O   0  0  0  0  0  0  0  0  0  0  0  0
   11.5001   -4.9091   -4.8906 N   0  0  0  0  0  0  0  0  0  0  0  0
   11.3205   -5.3688   -6.2218 C   0  0  0  0  0  0  0  0  0  0  0  0
   10.6996   -6.6002   -6.4342 C   0  0  0  0  0  0  0  0  0  0  0  0
   10.4683   -7.0464   -7.7373 C   0  0  0  0  0  0  0  0  0  0  0  0
   10.8877   -6.2819   -8.8247 C   0  0  0  0  0  0  0  0  0  0  0  0
   10.6639   -6.7586  -10.0558 F   0  0  0  0  0  0  0  0  0  0  0  0
   11.5187   -5.0553   -8.6445 C   0  0  0  0  0  0  0  0  0  0  0  0
   11.9530   -4.2274   -9.8177 C   0  0  0  0  0  0  0  0  0  0  0  0
   11.7095   -4.7841  -11.0380 F   0  0  0  0  0  0  0  0  0  0  0  0
   11.3456   -3.0075   -9.8485 F   0  0  0  0  0  0  0  0  0  0  0  0
   13.2923   -3.9707   -9.7988 F   0  0  0  0  0  0  0  0  0  0  0  0
   11.7275   -4.6016   -7.3263 C   0  0  0  0  0  0  0  0  0  0  0  0
   11.1429   -2.0123   -1.1653 C   0  0  0  0  0  0  0  0  0  0  0  0
   10.6530   -0.9069   -0.4417 C   0  0  0  0  0  0  0  0  0  0  0  0
    7.4767   -0.4870    0.6668 N   0  0  0  0  0  0  0  0  0  0  0  0
    6.2846   -0.9328    1.1327 C   0  0  0  0  0  0  0  0  0  0  0  0
    0.6808   -0.1122    1.4569 H   0  0  0  0  0  0  0  0  0  0  0  0
    1.4009   -0.6183    3.0154 H   0  0  0  0  0  0  0  0  0  0  0  0
    1.4244   -1.7326    1.6208 H   0  0  0  0  0  0  0  0  0  0  0  0
    2.7436    0.6101    0.8234 H   0  0  0  0  0  0  0  0  0  0  0  0
    4.4963    1.9330    1.2796 H   0  0  0  0  0  0  0  0  0  0  0  0
    6.6596    2.7870    0.4226 H   0  0  0  0  0  0  0  0  0  0  0  0
    8.9366    0.6279   -2.9350 H   0  0  0  0  0  0  0  0  0  0  0  0
    9.7633   -1.2495   -4.1764 H   0  0  0  0  0  0  0  0  0  0  0  0
   11.8667   -3.9802   -2.6772 H   0  0  0  0  0  0  0  0  0  0  0  0
   11.3844   -5.5995   -4.1621 H   0  0  0  0  0  0  0  0  0  0  0  0
   10.3274   -7.1903   -5.6016 H   0  0  0  0  0  0  0  0  0  0  0  0
    9.9460   -7.9815   -7.9178 H   0  0  0  0  0  0  0  0  0  0  0  0
   12.2120   -3.6376   -7.1675 H   0  0  0  0  0  0  0  0  0  0  0  0
   11.7696   -2.7320   -0.6433 H   0  0  0  0  0  0  0  0  0  0  0  0
   10.9069   -0.8019    0.6117 H   0  0  0  0  0  0  0  0  0  0  0  0
    6.2486   -2.0025    1.3335 H   0  0  0  0  0  0  0  0  0  0  0  0
  1  2  1  0  0  0  0
  1 33  1  0  0  0  0
  1 34  1  0  0  0  0
  1 35  1  0  0  0  0
  2  3  1  0  0  0  0
  2 36  1  0  0  0  0
  3  4  2  0  0  0  0
  3  5  1  0  0  0  0
  5  6  1  0  0  0  0
  5 32  2  0  0  0  0
  6  7  2  0  0  0  0
  6 37  1  0  0  0  0
  7  8  1  0  0  0  0
  7 38  1  0  0  0  0
  8  9  1  0  0  0  0
  8 31  2  0  0  0  0
  9 10  1  0  0  0  0
 10 11  1  0  0  0  0
 10 30  2  0  0  0  0
 11 12  2  0  0  0  0
 11 39  1  0  0  0  0
 12 13  1  0  0  0  0
 12 40  1  0  0  0  0
 13 14  1  0  0  0  0
 13 29  2  0  0  0  0
 14 15  1  0  0  0  0
 14 41  1  0  0  0  0
 15 16  2  0  0  0  0
 15 17  1  0  0  0  0
 17 18  1  0  0  0  0
 17 42  1  0  0  0  0
 18 19  1  0  0  0  0
 18 28  2  0  0  0  0
 19 20  2  0  0  0  0
 19 43  1  0  0  0  0
 20 21  1  0  0  0  0
 20 44  1  0  0  0  0
 21 22  1  0  0  0  0
 21 23  2  0  0  0  0
 23 24  1  0  0  0  0
 23 28  1  0  0  0  0
 24 25  1  0  0  0  0
 24 26  1  0  0  0  0
 24 27  1  0  0  0  0
 28 45  1  0  0  0  0
 29 30  1  0  0  0  0
 29 46  1  0  0  0  0
 30 47  1  0  0  0  0
 31 32  1  0  0  0  0
 32 48  1  0  0  0  0
M  END
$$$$
