CHEMBL3932363
 OpenBabel04072215373D

 73 76  0  0  0  0  0  0  0  0999 V2000
    4.2289   -1.4079    1.1862 C   0  0  0  0  0  0  0  0  0  0  0  0
    4.3681    0.0487    1.0065 N   0  0  0  0  0  0  0  0  0  0  0  0
    5.1854    0.4412   -0.1653 C   0  0  0  0  0  0  0  0  0  0  0  0
    4.4269    0.2628   -1.5205 C   0  0  0  0  0  0  0  0  0  0  0  0
    5.2109    0.5959   -2.7735 N   0  0  0  0  0  0  0  0  0  0  0  0
    4.3646    0.7985   -3.9283 C   0  0  0  0  0  0  0  0  0  0  0  0
    4.7133    1.6829   -4.9565 C   0  0  0  0  0  0  0  0  0  0  0  0
    3.8310    1.8980   -6.0478 C   0  0  0  0  0  0  0  0  0  0  0  0
    4.1190    2.7372   -7.0707 O   0  0  0  0  0  0  0  0  0  0  0  0
    5.2342    3.5363   -7.1596 C   0  0  0  0  0  0  0  0  0  0  0  0
    2.6108    1.2179   -6.1017 C   0  0  0  0  0  0  0  0  0  0  0  0
    2.2401    0.3294   -5.1046 C   0  0  0  0  0  0  0  0  0  0  0  0
    1.0504   -0.3199   -5.2280 O   0  0  0  0  0  0  0  0  0  0  0  0
    0.5826   -1.3314   -4.4106 C   0  0  0  0  0  0  0  0  0  0  0  0
    3.1071    0.1301   -4.0213 C   0  0  0  0  0  0  0  0  0  0  0  0
    6.5668    0.0173   -2.8958 C   0  0  0  0  0  0  0  0  0  0  0  0
    6.6501   -1.1964   -2.2257 C   0  0  0  0  0  0  0  0  0  0  0  0
    7.7965   -1.7609   -1.8903 C   0  0  0  0  0  0  0  0  0  0  0  0
    8.9547   -1.2318   -2.2544 C   0  0  0  0  0  0  0  0  0  0  0  0
    9.9855   -1.7942   -1.6589 N   0  0  0  0  0  0  0  0  0  0  0  0
   11.2242   -1.5164   -1.9548 C   0  0  0  0  0  0  0  0  0  0  0  0
   11.5283   -0.7598   -3.0702 C   0  0  0  0  0  0  0  0  0  0  0  0
   12.9889   -1.0803   -3.5023 C   0  0  0  0  0  0  0  0  0  0  0  0
   13.9140   -0.5666   -4.4139 C   0  0  0  0  0  0  0  0  0  0  0  0
   15.0502   -1.3366   -4.4003 N   0  0  0  0  0  0  0  0  0  0  0  0
   14.8823   -2.3444   -3.5492 N   0  0  0  0  0  0  0  0  0  0  0  0
   15.8486   -3.4255   -3.2362 C   0  0  0  0  0  0  0  0  0  0  0  0
   15.5630   -4.7643   -3.9943 C   0  0  0  0  0  0  0  0  0  0  0  0
   14.2599   -5.4630   -3.5424 C   0  0  0  0  0  0  0  0  0  0  0  0
   14.1232   -6.8375   -4.2291 C   0  0  0  0  0  0  0  0  0  0  0  0
   15.2304   -7.6661   -3.9236 O   0  0  0  0  0  0  0  0  0  0  0  0
   16.4022   -7.1071   -4.4864 C   0  0  0  0  0  0  0  0  0  0  0  0
   16.7330   -5.7641   -3.8097 C   0  0  0  0  0  0  0  0  0  0  0  0
   13.6832   -2.2154   -2.9886 C   0  0  0  0  0  0  0  0  0  0  0  0
   10.4509    0.0090   -3.6431 N   0  0  0  0  0  0  0  0  0  0  0  0
    9.1097   -0.1839   -3.1825 C   0  0  0  0  0  0  0  0  0  0  0  0
    7.8308    0.5179   -3.5088 C   0  0  0  0  0  0  0  0  0  0  0  0
    0.4244    2.0169   -1.0607 Cl  0  0  0  0  0  0  0  0  0  0  0  0
    3.7129   -1.6124    2.1537 H   0  0  0  0  0  0  0  0  0  0  0  0
    5.2180   -1.9168    1.2326 H   0  0  0  0  0  0  0  0  0  0  0  0
    3.6040   -1.8592    0.3902 H   0  0  0  0  0  0  0  0  0  0  0  0
    4.8739    0.3874    1.8597 H   0  0  0  0  0  0  0  0  0  0  0  0
    6.1480   -0.1018   -0.1053 H   0  0  0  0  0  0  0  0  0  0  0  0
    5.4300    1.5177   -0.0742 H   0  0  0  0  0  0  0  0  0  0  0  0
    3.5170    0.8962   -1.4557 H   0  0  0  0  0  0  0  0  0  0  0  0
    4.0418   -0.7742   -1.5713 H   0  0  0  0  0  0  0  0  0  0  0  0
    5.6468    2.2178   -4.8897 H   0  0  0  0  0  0  0  0  0  0  0  0
    5.2475    4.0223   -8.1556 H   0  0  0  0  0  0  0  0  0  0  0  0
    6.1515    2.9203   -7.0577 H   0  0  0  0  0  0  0  0  0  0  0  0
    5.2024    4.3195   -6.3720 H   0  0  0  0  0  0  0  0  0  0  0  0
    1.9386    1.3810   -6.9389 H   0  0  0  0  0  0  0  0  0  0  0  0
   -0.4096   -1.6585   -4.7740 H   0  0  0  0  0  0  0  0  0  0  0  0
    0.4682   -0.9753   -3.3660 H   0  0  0  0  0  0  0  0  0  0  0  0
    1.2737   -2.2032   -4.4466 H   0  0  0  0  0  0  0  0  0  0  0  0
    2.7838   -0.5641   -3.2644 H   0  0  0  0  0  0  0  0  0  0  0  0
    5.8166   -1.7197   -1.8174 H   0  0  0  0  0  0  0  0  0  0  0  0
    7.7791   -2.6253   -1.2506 H   0  0  0  0  0  0  0  0  0  0  0  0
   11.9180   -2.0158   -1.3302 H   0  0  0  0  0  0  0  0  0  0  0  0
   13.8052    0.2909   -5.0591 H   0  0  0  0  0  0  0  0  0  0  0  0
   15.8671   -3.6215   -2.1336 H   0  0  0  0  0  0  0  0  0  0  0  0
   16.8667   -3.0820   -3.5020 H   0  0  0  0  0  0  0  0  0  0  0  0
   15.4918   -4.5421   -5.0807 H   0  0  0  0  0  0  0  0  0  0  0  0
   13.3760   -4.8424   -3.7935 H   0  0  0  0  0  0  0  0  0  0  0  0
   14.2836   -5.6335   -2.4437 H   0  0  0  0  0  0  0  0  0  0  0  0
   14.0000   -6.7408   -5.3320 H   0  0  0  0  0  0  0  0  0  0  0  0
   13.2042   -7.3377   -3.8548 H   0  0  0  0  0  0  0  0  0  0  0  0
   16.2990   -7.0047   -5.5915 H   0  0  0  0  0  0  0  0  0  0  0  0
   17.2429   -7.8158   -4.3198 H   0  0  0  0  0  0  0  0  0  0  0  0
   17.6647   -5.3511   -4.2542 H   0  0  0  0  0  0  0  0  0  0  0  0
   16.9115   -5.9602   -2.7299 H   0  0  0  0  0  0  0  0  0  0  0  0
   13.3678   -2.9533   -2.2699 H   0  0  0  0  0  0  0  0  0  0  0  0
    7.8493    1.4220   -4.1203 H   0  0  0  0  0  0  0  0  0  0  0  0
    1.4479    2.0458   -0.1421 H   0  0  0  0  0  0  0  0  0  0  0  0
  1  2  1  0  0  0  0
  1 39  1  0  0  0  0
  1 40  1  0  0  0  0
  1 41  1  0  0  0  0
  2  3  1  0  0  0  0
  2 42  1  0  0  0  0
  3  4  1  0  0  0  0
  3 43  1  0  0  0  0
  3 44  1  0  0  0  0
  4  5  1  0  0  0  0
  4 45  1  0  0  0  0
  4 46  1  0  0  0  0
  5  6  1  0  0  0  0
  5 16  1  0  0  0  0
  6  7  1  0  0  0  0
  6 15  2  0  0  0  0
  7  8  2  0  0  0  0
  7 47  1  0  0  0  0
  8  9  1  0  0  0  0
  8 11  1  0  0  0  0
  9 10  1  0  0  0  0
 10 48  1  0  0  0  0
 10 49  1  0  0  0  0
 10 50  1  0  0  0  0
 11 12  2  0  0  0  0
 11 51  1  0  0  0  0
 12 13  1  0  0  0  0
 12 15  1  0  0  0  0
 13 14  1  0  0  0  0
 14 52  1  0  0  0  0
 14 53  1  0  0  0  0
 14 54  1  0  0  0  0
 15 55  1  0  0  0  0
 16 17  1  0  0  0  0
 16 37  2  0  0  0  0
 17 18  2  0  0  0  0
 17 56  1  0  0  0  0
 18 19  1  0  0  0  0
 18 57  1  0  0  0  0
 19 20  1  0  0  0  0
 19 36  2  0  0  0  0
 20 21  2  0  0  0  0
 21 22  1  0  0  0  0
 21 58  1  0  0  0  0
 22 23  1  0  0  0  0
 22 35  2  0  0  0  0
 23 24  1  0  0  0  0
 23 34  2  0  0  0  0
 24 25  2  0  0  0  0
 24 59  1  0  0  0  0
 25 26  1  0  0  0  0
 26 27  1  0  0  0  0
 26 34  1  0  0  0  0
 27 28  1  0  0  0  0
 27 60  1  0  0  0  0
 27 61  1  0  0  0  0
 28 29  1  0  0  0  0
 28 33  1  0  0  0  0
 28 62  1  0  0  0  0
 29 30  1  0  0  0  0
 29 63  1  0  0  0  0
 29 64  1  0  0  0  0
 30 31  1  0  0  0  0
 30 65  1  0  0  0  0
 30 66  1  0  0  0  0
 31 32  1  0  0  0  0
 32 33  1  0  0  0  0
 32 67  1  0  0  0  0
 32 68  1  0  0  0  0
 33 69  1  0  0  0  0
 33 70  1  0  0  0  0
 34 71  1  0  0  0  0
 35 36  1  0  0  0  0
 36 37  1  0  0  0  0
 37 72  1  0  0  0  0
 38 73  1  0  0  0  0
M  END
$$$$
