CHEMBL3759830
 OpenBabel04072215373D

 77 81  0  0  0  0  0  0  0  0999 V2000
    3.6180   -0.3637    1.2384 C   0  0  0  0  0  0  0  0  0  0  0  0
    3.1750    0.9058    0.7719 O   0  0  0  0  0  0  0  0  0  0  0  0
    3.6293    1.2994   -0.4569 C   0  0  0  0  0  0  0  0  0  0  0  0
    4.4731    0.5631   -1.2866 C   0  0  0  0  0  0  0  0  0  0  0  0
    4.8615    1.0843   -2.5218 C   0  0  0  0  0  0  0  0  0  0  0  0
    4.4156    2.3487   -2.9364 C   0  0  0  0  0  0  0  0  0  0  0  0
    4.8367    2.8249   -4.2796 C   0  0  0  0  0  0  0  0  0  0  0  0
    5.0955    1.9657   -5.1182 O   0  0  0  0  0  0  0  0  0  0  0  0
    4.9603    4.1972   -4.4372 N   0  0  0  0  0  0  0  0  0  0  0  0
    5.3363    4.8376   -5.6385 C   0  0  0  0  0  0  0  0  0  0  0  0
    5.3089    4.1896   -6.8676 C   0  0  0  0  0  0  0  0  0  0  0  0
    5.7861    4.8137   -8.0175 C   0  0  0  0  0  0  0  0  0  0  0  0
    6.2671    6.1230   -7.9967 C   0  0  0  0  0  0  0  0  0  0  0  0
    6.9084    6.7410   -9.0907 N   0  0  0  0  0  0  0  0  0  0  0  0
    7.2132    6.2460  -10.3841 C   0  0  0  0  0  0  0  0  0  0  0  0
    6.7396    5.0429  -10.7597 N   0  0  0  0  0  0  0  0  0  0  0  0
    7.1275    4.5519  -11.9352 C   0  0  0  0  0  0  0  0  0  0  0  0
    7.9376    5.1589  -12.7953 N   0  0  0  0  0  0  0  0  0  0  0  0
    8.4262    6.3360  -12.4117 C   0  0  0  0  0  0  0  0  0  0  0  0
    9.3373    6.9289  -13.2592 C   0  0  0  0  0  0  0  0  0  0  0  0
   10.0266    8.1090  -12.9384 C   0  0  0  0  0  0  0  0  0  0  0  0
   11.0337    8.5995  -13.7334 O   0  0  0  0  0  0  0  0  0  0  0  0
   11.4255    7.7595  -14.8213 C   0  0  0  0  0  0  0  0  0  0  0  0
   12.6683    8.3188  -15.4969 C   0  0  0  0  0  0  0  0  0  0  0  0
   13.0136    7.5049  -16.7513 C   0  0  0  0  0  0  0  0  0  0  0  0
   11.9063    7.4268  -17.7156 N   0  0  0  0  0  0  0  0  0  0  0  0
   11.4980    8.7499  -18.2237 C   0  0  0  0  0  0  0  0  0  0  0  0
   10.3661    8.6542  -19.2701 C   0  0  0  0  0  0  0  0  0  0  0  0
   10.6674    7.7812  -20.4188 N   0  0  0  0  0  0  0  0  0  0  0  0
   11.6606    8.3879  -21.3021 C   0  0  0  0  0  0  0  0  0  0  0  0
   11.1167    6.4687  -19.9115 C   0  0  0  0  0  0  0  0  0  0  0  0
   12.2322    6.5238  -18.8364 C   0  0  0  0  0  0  0  0  0  0  0  0
    9.6925    8.7780  -11.7571 C   0  0  0  0  0  0  0  0  0  0  0  0
   10.1921    9.9547  -11.2663 O   0  0  0  0  0  0  0  0  0  0  0  0
   11.2396   10.5995  -11.9773 C   0  0  0  0  0  0  0  0  0  0  0  0
    8.7330    8.2048  -10.9072 C   0  0  0  0  0  0  0  0  0  0  0  0
    8.1119    6.9610  -11.2036 C   0  0  0  0  0  0  0  0  0  0  0  0
    6.2431    6.7905   -6.7608 C   0  0  0  0  0  0  0  0  0  0  0  0
    5.7690    6.1644   -5.5949 C   0  0  0  0  0  0  0  0  0  0  0  0
    3.5562    3.0800   -2.1144 C   0  0  0  0  0  0  0  0  0  0  0  0
    3.1708    2.5525   -0.8780 C   0  0  0  0  0  0  0  0  0  0  0  0
    3.1853   -0.5268    2.2297 H   0  0  0  0  0  0  0  0  0  0  0  0
    4.7082   -0.3882    1.3426 H   0  0  0  0  0  0  0  0  0  0  0  0
    3.2663   -1.1685    0.5840 H   0  0  0  0  0  0  0  0  0  0  0  0
    4.8398   -0.4209   -1.0146 H   0  0  0  0  0  0  0  0  0  0  0  0
    5.5103    0.4957   -3.1695 H   0  0  0  0  0  0  0  0  0  0  0  0
    4.9445    4.7694   -3.6031 H   0  0  0  0  0  0  0  0  0  0  0  0
    4.9315    3.1786   -6.9756 H   0  0  0  0  0  0  0  0  0  0  0  0
    5.7678    4.2254   -8.9259 H   0  0  0  0  0  0  0  0  0  0  0  0
    6.7986    7.7461   -9.0823 H   0  0  0  0  0  0  0  0  0  0  0  0
    6.7669    3.5664  -12.2067 H   0  0  0  0  0  0  0  0  0  0  0  0
    9.5217    6.3955  -14.1875 H   0  0  0  0  0  0  0  0  0  0  0  0
   10.5958    7.7196  -15.5355 H   0  0  0  0  0  0  0  0  0  0  0  0
   11.6655    6.7509  -14.4604 H   0  0  0  0  0  0  0  0  0  0  0  0
   13.5085    8.2844  -14.7924 H   0  0  0  0  0  0  0  0  0  0  0  0
   12.5313    9.3807  -15.7295 H   0  0  0  0  0  0  0  0  0  0  0  0
   13.2663    6.4869  -16.4246 H   0  0  0  0  0  0  0  0  0  0  0  0
   13.9135    7.9214  -17.2190 H   0  0  0  0  0  0  0  0  0  0  0  0
   12.3599    9.2783  -18.6490 H   0  0  0  0  0  0  0  0  0  0  0  0
   11.1135    9.3669  -17.4046 H   0  0  0  0  0  0  0  0  0  0  0  0
   10.1025    9.6611  -19.6167 H   0  0  0  0  0  0  0  0  0  0  0  0
    9.4632    8.2701  -18.7754 H   0  0  0  0  0  0  0  0  0  0  0  0
   11.3095    9.3635  -21.6571 H   0  0  0  0  0  0  0  0  0  0  0  0
   11.8060    7.7658  -22.1913 H   0  0  0  0  0  0  0  0  0  0  0  0
   12.6360    8.5338  -20.8273 H   0  0  0  0  0  0  0  0  0  0  0  0
   11.4419    5.8348  -20.7456 H   0  0  0  0  0  0  0  0  0  0  0  0
   10.2438    5.9602  -19.4797 H   0  0  0  0  0  0  0  0  0  0  0  0
   13.1752    6.8264  -19.3078 H   0  0  0  0  0  0  0  0  0  0  0  0
   12.3760    5.5069  -18.4501 H   0  0  0  0  0  0  0  0  0  0  0  0
   11.5081   11.5047  -11.4235 H   0  0  0  0  0  0  0  0  0  0  0  0
   10.9115   10.9172  -12.9722 H   0  0  0  0  0  0  0  0  0  0  0  0
   12.1349    9.9709  -12.0188 H   0  0  0  0  0  0  0  0  0  0  0  0
    8.5027    8.7252   -9.9806 H   0  0  0  0  0  0  0  0  0  0  0  0
    6.6336    7.8024   -6.6837 H   0  0  0  0  0  0  0  0  0  0  0  0
    5.7984    6.7145   -4.6585 H   0  0  0  0  0  0  0  0  0  0  0  0
    3.1453    4.0322   -2.4335 H   0  0  0  0  0  0  0  0  0  0  0  0
    2.4939    3.1163   -0.2398 H   0  0  0  0  0  0  0  0  0  0  0  0
  1  2  1  0  0  0  0
  1 42  1  0  0  0  0
  1 43  1  0  0  0  0
  1 44  1  0  0  0  0
  2  3  1  0  0  0  0
  3  4  1  0  0  0  0
  3 41  2  0  0  0  0
  4  5  2  0  0  0  0
  4 45  1  0  0  0  0
  5  6  1  0  0  0  0
  5 46  1  0  0  0  0
  6  7  1  0  0  0  0
  6 40  2  0  0  0  0
  7  8  2  0  0  0  0
  7  9  1  0  0  0  0
  9 10  1  0  0  0  0
  9 47  1  0  0  0  0
 10 11  1  0  0  0  0
 10 39  2  0  0  0  0
 11 12  2  0  0  0  0
 11 48  1  0  0  0  0
 12 13  1  0  0  0  0
 12 49  1  0  0  0  0
 13 14  1  0  0  0  0
 13 38  2  0  0  0  0
 14 15  1  0  0  0  0
 14 50  1  0  0  0  0
 15 16  1  0  0  0  0
 15 37  2  0  0  0  0
 16 17  2  0  0  0  0
 17 18  1  0  0  0  0
 17 51  1  0  0  0  0
 18 19  2  0  0  0  0
 19 20  1  0  0  0  0
 19 37  1  0  0  0  0
 20 21  2  0  0  0  0
 20 52  1  0  0  0  0
 21 22  1  0  0  0  0
 21 33  1  0  0  0  0
 22 23  1  0  0  0  0
 23 24  1  0  0  0  0
 23 53  1  0  0  0  0
 23 54  1  0  0  0  0
 24 25  1  0  0  0  0
 24 55  1  0  0  0  0
 24 56  1  0  0  0  0
 25 26  1  0  0  0  0
 25 57  1  0  0  0  0
 25 58  1  0  0  0  0
 26 27  1  0  0  0  0
 26 32  1  0  0  0  0
 27 28  1  0  0  0  0
 27 59  1  0  0  0  0
 27 60  1  0  0  0  0
 28 29  1  0  0  0  0
 28 61  1  0  0  0  0
 28 62  1  0  0  0  0
 29 30  1  0  0  0  0
 29 31  1  0  0  0  0
 30 63  1  0  0  0  0
 30 64  1  0  0  0  0
 30 65  1  0  0  0  0
 31 32  1  0  0  0  0
 31 66  1  0  0  0  0
 31 67  1  0  0  0  0
 32 68  1  0  0  0  0
 32 69  1  0  0  0  0
 33 34  1  0  0  0  0
 33 36  2  0  0  0  0
 34 35  1  0  0  0  0
 35 70  1  0  0  0  0
 35 71  1  0  0  0  0
 35 72  1  0  0  0  0
 36 37  1  0  0  0  0
 36 73  1  0  0  0  0
 38 39  1  0  0  0  0
 38 74  1  0  0  0  0
 39 75  1  0  0  0  0
 40 41  1  0  0  0  0
 40 76  1  0  0  0  0
 41 77  1  0  0  0  0
M  END
$$$$
