CHEMBL541643
 OpenBabel04072215383D

 39 41  0  0  0  0  0  0  0  0999 V2000
    2.1996    0.7313    2.2550 Cl  0  0  0  0  0  0  0  0  0  0  0  0
   -1.3193   -2.0590    1.7180 O   0  0  0  0  0  0  0  0  0  0  0  0
   -0.9864   -1.1094    0.8206 C   0  0  0  0  0  0  0  0  0  0  0  0
   -0.0524   -1.3780   -0.1894 C   0  0  0  0  0  0  0  0  0  0  0  0
    0.2759   -0.3906   -1.1184 C   0  0  0  0  0  0  0  0  0  0  0  0
   -0.3285    0.8665   -1.0497 C   0  0  0  0  0  0  0  0  0  0  0  0
   -1.2689    1.1561   -0.0412 C   0  0  0  0  0  0  0  0  0  0  0  0
   -1.9276    2.4859    0.0080 C   0  0  0  0  0  0  0  0  0  0  0  0
   -2.8065    2.7956    1.0138 N   0  0  0  0  0  0  0  0  0  0  0  0
   -3.4863    3.9823    1.0528 C   0  0  0  0  0  0  0  0  0  0  0  0
   -4.4011    4.2456    2.1267 N   0  0  0  0  0  0  0  0  0  0  0  0
   -4.2159    3.6608    3.4436 C   0  0  0  0  0  0  0  0  0  0  0  0
   -5.4811    2.8841    3.8239 C   0  0  0  0  0  0  0  0  0  0  0  0
   -6.6229    3.7229    3.7395 O   0  0  0  0  0  0  0  0  0  0  0  0
   -6.7979    4.1574    2.4006 C   0  0  0  0  0  0  0  0  0  0  0  0
   -5.6157    5.0296    1.9599 C   0  0  0  0  0  0  0  0  0  0  0  0
   -3.2270    4.9026    0.0218 C   0  0  0  0  0  0  0  0  0  0  0  0
   -3.7912    6.4671   -0.2573 S   0  0  0  0  0  0  0  0  0  0  0  0
   -2.8976    6.7260   -1.6652 C   0  0  0  0  0  0  0  0  0  0  0  0
   -2.1326    5.5934   -1.9256 C   0  0  0  0  0  0  0  0  0  0  0  0
   -2.3222    4.5890   -0.9728 C   0  0  0  0  0  0  0  0  0  0  0  0
   -1.6884    3.3942   -0.9819 N   0  0  0  0  0  0  0  0  0  0  0  0
   -1.5871    0.1545    0.8965 C   0  0  0  0  0  0  0  0  0  0  0  0
    3.0629    0.7536    1.1842 H   0  0  0  0  0  0  0  0  0  0  0  0
   -0.9397   -2.9491    1.6881 H   0  0  0  0  0  0  0  0  0  0  0  0
    0.4172   -2.3514   -0.2577 H   0  0  0  0  0  0  0  0  0  0  0  0
    0.9965   -0.6009   -1.8982 H   0  0  0  0  0  0  0  0  0  0  0  0
   -0.0588    1.6097   -1.7893 H   0  0  0  0  0  0  0  0  0  0  0  0
   -4.0797    4.4857    4.1782 H   0  0  0  0  0  0  0  0  0  0  0  0
   -3.3189    3.0076    3.4975 H   0  0  0  0  0  0  0  0  0  0  0  0
   -5.3781    2.5286    4.8712 H   0  0  0  0  0  0  0  0  0  0  0  0
   -5.6065    1.9840    3.1818 H   0  0  0  0  0  0  0  0  0  0  0  0
   -7.7329    4.7516    2.3308 H   0  0  0  0  0  0  0  0  0  0  0  0
   -6.9197    3.2831    1.7192 H   0  0  0  0  0  0  0  0  0  0  0  0
   -5.5658    5.9370    2.5992 H   0  0  0  0  0  0  0  0  0  0  0  0
   -5.7968    5.3205    0.9097 H   0  0  0  0  0  0  0  0  0  0  0  0
   -2.9122    7.6272   -2.2620 H   0  0  0  0  0  0  0  0  0  0  0  0
   -1.4615    5.5057   -2.7695 H   0  0  0  0  0  0  0  0  0  0  0  0
   -2.3109    0.3433    1.6796 H   0  0  0  0  0  0  0  0  0  0  0  0
  1 24  1  0  0  0  0
  2  3  1  0  0  0  0
  2 25  1  0  0  0  0
  3  4  1  0  0  0  0
  3 23  2  0  0  0  0
  4  5  2  0  0  0  0
  4 26  1  0  0  0  0
  5  6  1  0  0  0  0
  5 27  1  0  0  0  0
  6  7  2  0  0  0  0
  6 28  1  0  0  0  0
  7  8  1  0  0  0  0
  7 23  1  0  0  0  0
  8  9  1  0  0  0  0
  8 22  2  0  0  0  0
  9 10  2  0  0  0  0
 10 11  1  0  0  0  0
 10 17  1  0  0  0  0
 11 12  1  0  0  0  0
 11 16  1  0  0  0  0
 12 13  1  0  0  0  0
 12 29  1  0  0  0  0
 12 30  1  0  0  0  0
 13 14  1  0  0  0  0
 13 31  1  0  0  0  0
 13 32  1  0  0  0  0
 14 15  1  0  0  0  0
 15 16  1  0  0  0  0
 15 33  1  0  0  0  0
 15 34  1  0  0  0  0
 16 35  1  0  0  0  0
 16 36  1  0  0  0  0
 17 18  1  0  0  0  0
 17 21  2  0  0  0  0
 18 19  1  0  0  0  0
 19 20  2  0  0  0  0
 19 37  1  0  0  0  0
 20 21  1  0  0  0  0
 20 38  1  0  0  0  0
 21 22  1  0  0  0  0
 23 39  1  0  0  0  0
M  END
$$$$
