CHEMBL4212117
 OpenBabel04072215383D

 73 76  0  0  0  0  0  0  0  0999 V2000
    4.3120    0.8943   -2.5722 C   0  0  0  0  0  0  0  0  0  0  0  0
    5.6121    0.1903   -2.5595 C   0  0  0  0  0  0  0  0  0  0  0  0
    6.0265   -1.0131   -2.0368 C   0  0  0  0  0  0  0  0  0  0  0  0
    5.2276   -1.9141   -1.3452 C   0  0  0  0  0  0  0  0  0  0  0  0
    5.9804   -3.0317   -0.9196 C   0  0  0  0  0  0  0  0  0  0  0  0
    7.3932   -3.2514   -1.1523 C   0  0  0  0  0  0  0  0  0  0  0  0
    7.9903   -4.4157   -0.5758 N   0  0  0  0  0  0  0  0  0  0  0  0
    9.4282   -4.4089   -0.3083 C   0  0  0  0  0  0  0  0  0  0  0  0
    7.3490   -5.6712   -0.4486 C   0  0  0  0  0  0  0  0  0  0  0  0
    7.6314   -6.5609    0.5634 C   0  0  0  0  0  0  0  0  0  0  0  0
    6.8612   -7.7052    0.6200 C   0  0  0  0  0  0  0  0  0  0  0  0
    5.9100   -8.0249   -0.2764 N   0  0  0  0  0  0  0  0  0  0  0  0
    5.7404   -7.1555   -1.2730 C   0  0  0  0  0  0  0  0  0  0  0  0
    4.8247   -7.4709   -2.2814 N   0  0  0  0  0  0  0  0  0  0  0  0
    4.5814   -6.7334   -3.4497 C   0  0  0  0  0  0  0  0  0  0  0  0
    5.6056   -5.9817   -4.0478 C   0  0  0  0  0  0  0  0  0  0  0  0
    5.3389   -5.0130   -5.0076 C   0  0  0  0  0  0  0  0  0  0  0  0
    4.0285   -4.7965   -5.4195 C   0  0  0  0  0  0  0  0  0  0  0  0
    3.7907   -3.6548   -6.3386 C   0  0  0  0  0  0  0  0  0  0  0  0
    4.6679   -3.2900   -7.1135 O   0  0  0  0  0  0  0  0  0  0  0  0
    2.5759   -3.0146   -6.2132 N   0  0  0  0  0  0  0  0  0  0  0  0
    2.2790   -1.8314   -6.9898 C   0  0  0  0  0  0  0  0  0  0  0  0
    1.7176   -2.2025   -8.3578 C   0  0  0  0  0  0  0  0  0  0  0  0
    1.4218   -0.9568   -9.1885 C   0  0  0  0  0  0  0  0  0  0  0  0
    0.8470   -1.3243  -10.5568 C   0  0  0  0  0  0  0  0  0  0  0  0
    0.5549   -0.0689  -11.3779 C   0  0  0  0  0  0  0  0  0  0  0  0
   -0.0265   -0.4092  -12.7481 C   0  0  0  0  0  0  0  0  0  0  0  0
   -0.3263    0.8383  -13.5505 C   0  0  0  0  0  0  0  0  0  0  0  0
   -0.1148    1.9849  -13.1662 O   0  0  0  0  0  0  0  0  0  0  0  0
   -0.8794    0.5835  -14.7806 N   0  0  0  0  0  0  0  0  0  0  0  0
   -1.1411    1.7077  -15.5937 O   0  0  0  0  0  0  0  0  0  0  0  0
    3.0050   -5.6201   -4.9309 C   0  0  0  0  0  0  0  0  0  0  0  0
    3.2826   -6.5823   -3.9460 C   0  0  0  0  0  0  0  0  0  0  0  0
    6.3999   -5.9879   -1.3390 N   0  0  0  0  0  0  0  0  0  0  0  0
    8.1414   -2.2991   -1.8982 C   0  0  0  0  0  0  0  0  0  0  0  0
    7.4268   -1.1588   -2.3271 C   0  0  0  0  0  0  0  0  0  0  0  0
    7.8485   -0.0794   -3.0071 N   0  0  0  0  0  0  0  0  0  0  0  0
    6.7535    0.7024   -3.1380 N   0  0  0  0  0  0  0  0  0  0  0  0
    6.8715    1.9637   -3.8302 C   0  0  0  0  0  0  0  0  0  0  0  0
    3.5370    0.3231   -2.0527 H   0  0  0  0  0  0  0  0  0  0  0  0
    3.9726    1.0585   -3.5989 H   0  0  0  0  0  0  0  0  0  0  0  0
    4.3965    1.8652   -2.0736 H   0  0  0  0  0  0  0  0  0  0  0  0
    4.1765   -1.8022   -1.1325 H   0  0  0  0  0  0  0  0  0  0  0  0
    5.4337   -3.7836   -0.3489 H   0  0  0  0  0  0  0  0  0  0  0  0
    9.8976   -3.4279   -0.4286 H   0  0  0  0  0  0  0  0  0  0  0  0
    9.9540   -5.1130   -0.9640 H   0  0  0  0  0  0  0  0  0  0  0  0
    9.6294   -4.6813    0.7334 H   0  0  0  0  0  0  0  0  0  0  0  0
    8.3753   -6.3709    1.3216 H   0  0  0  0  0  0  0  0  0  0  0  0
    6.9937   -8.4214    1.4256 H   0  0  0  0  0  0  0  0  0  0  0  0
    4.2065   -8.2201   -2.0186 H   0  0  0  0  0  0  0  0  0  0  0  0
    6.6371   -6.0992   -3.7226 H   0  0  0  0  0  0  0  0  0  0  0  0
    6.1529   -4.3948   -5.3791 H   0  0  0  0  0  0  0  0  0  0  0  0
    1.9296   -3.2930   -5.4889 H   0  0  0  0  0  0  0  0  0  0  0  0
    3.1915   -1.2330   -7.0976 H   0  0  0  0  0  0  0  0  0  0  0  0
    1.5550   -1.2403   -6.4191 H   0  0  0  0  0  0  0  0  0  0  0  0
    0.8019   -2.7923   -8.2276 H   0  0  0  0  0  0  0  0  0  0  0  0
    2.4299   -2.8426   -8.8930 H   0  0  0  0  0  0  0  0  0  0  0  0
    2.3436   -0.3768   -9.3209 H   0  0  0  0  0  0  0  0  0  0  0  0
    0.7120   -0.3166   -8.6507 H   0  0  0  0  0  0  0  0  0  0  0  0
   -0.0748   -1.9040  -10.4255 H   0  0  0  0  0  0  0  0  0  0  0  0
    1.5572   -1.9624  -11.0967 H   0  0  0  0  0  0  0  0  0  0  0  0
    1.4781    0.5101  -11.5036 H   0  0  0  0  0  0  0  0  0  0  0  0
   -0.1469    0.5720  -10.8298 H   0  0  0  0  0  0  0  0  0  0  0  0
   -0.9571   -0.9765  -12.6308 H   0  0  0  0  0  0  0  0  0  0  0  0
    0.6825   -1.0230  -13.3151 H   0  0  0  0  0  0  0  0  0  0  0  0
   -0.9832   -0.3335  -15.1996 H   0  0  0  0  0  0  0  0  0  0  0  0
   -0.8486    2.4510  -15.0195 H   0  0  0  0  0  0  0  0  0  0  0  0
    1.9859   -5.5112   -5.2886 H   0  0  0  0  0  0  0  0  0  0  0  0
    2.4652   -7.1676   -3.5335 H   0  0  0  0  0  0  0  0  0  0  0  0
    9.1839   -2.4046   -2.1533 H   0  0  0  0  0  0  0  0  0  0  0  0
    7.8974    2.1003   -4.1806 H   0  0  0  0  0  0  0  0  0  0  0  0
    6.6082    2.7662   -3.1347 H   0  0  0  0  0  0  0  0  0  0  0  0
    6.1869    1.9543   -4.6833 H   0  0  0  0  0  0  0  0  0  0  0  0
  1  2  1  0  0  0  0
  1 40  1  0  0  0  0
  1 41  1  0  0  0  0
  1 42  1  0  0  0  0
  2  3  2  0  0  0  0
  2 38  1  0  0  0  0
  3  4  1  0  0  0  0
  3 36  1  0  0  0  0
  4  5  2  0  0  0  0
  4 43  1  0  0  0  0
  5  6  1  0  0  0  0
  5 44  1  0  0  0  0
  6  7  1  0  0  0  0
  6 35  2  0  0  0  0
  7  8  1  0  0  0  0
  7  9  1  0  0  0  0
  8 45  1  0  0  0  0
  8 46  1  0  0  0  0
  8 47  1  0  0  0  0
  9 10  1  0  0  0  0
  9 34  2  0  0  0  0
 10 11  2  0  0  0  0
 10 48  1  0  0  0  0
 11 12  1  0  0  0  0
 11 49  1  0  0  0  0
 12 13  2  0  0  0  0
 13 14  1  0  0  0  0
 13 34  1  0  0  0  0
 14 15  1  0  0  0  0
 14 50  1  0  0  0  0
 15 16  1  0  0  0  0
 15 33  2  0  0  0  0
 16 17  2  0  0  0  0
 16 51  1  0  0  0  0
 17 18  1  0  0  0  0
 17 52  1  0  0  0  0
 18 19  1  0  0  0  0
 18 32  2  0  0  0  0
 19 20  2  0  0  0  0
 19 21  1  0  0  0  0
 21 22  1  0  0  0  0
 21 53  1  0  0  0  0
 22 23  1  0  0  0  0
 22 54  1  0  0  0  0
 22 55  1  0  0  0  0
 23 24  1  0  0  0  0
 23 56  1  0  0  0  0
 23 57  1  0  0  0  0
 24 25  1  0  0  0  0
 24 58  1  0  0  0  0
 24 59  1  0  0  0  0
 25 26  1  0  0  0  0
 25 60  1  0  0  0  0
 25 61  1  0  0  0  0
 26 27  1  0  0  0  0
 26 62  1  0  0  0  0
 26 63  1  0  0  0  0
 27 28  1  0  0  0  0
 27 64  1  0  0  0  0
 27 65  1  0  0  0  0
 28 29  2  0  0  0  0
 28 30  1  0  0  0  0
 30 31  1  0  0  0  0
 30 66  1  0  0  0  0
 31 67  1  0  0  0  0
 32 33  1  0  0  0  0
 32 68  1  0  0  0  0
 33 69  1  0  0  0  0
 35 36  1  0  0  0  0
 35 70  1  0  0  0  0
 36 37  2  0  0  0  0
 37 38  1  0  0  0  0
 38 39  1  0  0  0  0
 39 71  1  0  0  0  0
 39 72  1  0  0  0  0
 39 73  1  0  0  0  0
M  END
$$$$
