CHEMBL3633291
 OpenBabel04072215373D

 43 46  0  0  0  0  0  0  0  0999 V2000
   -0.5715    2.3044    3.3659 N   0  0  0  0  0  0  0  0  0  0  0  0
   -0.8370    1.1183    2.7924 C   0  0  0  0  0  0  0  0  0  0  0  0
   -1.0097    0.0403    3.5510 N   0  0  0  0  0  0  0  0  0  0  0  0
   -1.2215   -0.9388    2.6689 N   0  0  0  0  0  0  0  0  0  0  0  0
   -1.2103   -0.5355    1.3623 C   0  0  0  0  0  0  0  0  0  0  0  0
   -1.3902   -1.2830    0.1949 C   0  0  0  0  0  0  0  0  0  0  0  0
   -1.3371   -0.5999   -1.0120 C   0  0  0  0  0  0  0  0  0  0  0  0
   -1.1007    0.7715   -1.0339 C   0  0  0  0  0  0  0  0  0  0  0  0
   -0.8832    1.5359    0.1452 C   0  0  0  0  0  0  0  0  0  0  0  0
   -0.5203    2.9643    0.0305 C   0  0  0  0  0  0  0  0  0  0  0  0
    0.3864    3.3604   -0.9745 C   0  0  0  0  0  0  0  0  0  0  0  0
    0.7876    4.6811   -1.1137 C   0  0  0  0  0  0  0  0  0  0  0  0
    0.3055    5.6364   -0.2308 C   0  0  0  0  0  0  0  0  0  0  0  0
   -0.6444    5.3100    0.7437 C   0  0  0  0  0  0  0  0  0  0  0  0
   -1.2129    6.2847    1.6093 N   0  0  0  0  0  0  0  0  0  0  0  0
   -1.2138    7.6392    1.3220 C   0  0  0  0  0  0  0  0  0  0  0  0
   -0.7279    8.1162    0.3022 O   0  0  0  0  0  0  0  0  0  0  0  0
   -1.8263    8.4137    2.2940 N   0  0  0  0  0  0  0  0  0  0  0  0
   -2.0346    9.8102    2.1307 C   0  0  0  0  0  0  0  0  0  0  0  0
   -2.0936   10.4153    0.8618 C   0  0  0  0  0  0  0  0  0  0  0  0
   -2.1825   11.7989    0.7151 C   0  0  0  0  0  0  0  0  0  0  0  0
   -2.2593   12.6026    1.8461 C   0  0  0  0  0  0  0  0  0  0  0  0
   -2.2722   12.0024    3.1035 C   0  0  0  0  0  0  0  0  0  0  0  0
   -2.3606   12.7821    4.1884 F   0  0  0  0  0  0  0  0  0  0  0  0
   -2.1649   10.6219    3.2574 C   0  0  0  0  0  0  0  0  0  0  0  0
   -1.0557    3.9733    0.8575 C   0  0  0  0  0  0  0  0  0  0  0  0
   -0.9605    0.8417    1.3891 C   0  0  0  0  0  0  0  0  0  0  0  0
   -0.3543    2.2445    4.3555 H   0  0  0  0  0  0  0  0  0  0  0  0
    0.0387    2.9495    2.8777 H   0  0  0  0  0  0  0  0  0  0  0  0
   -1.3672   -1.8777    3.0201 H   0  0  0  0  0  0  0  0  0  0  0  0
   -1.5684   -2.3532    0.2219 H   0  0  0  0  0  0  0  0  0  0  0  0
   -1.4734   -1.1378   -1.9473 H   0  0  0  0  0  0  0  0  0  0  0  0
   -1.0727    1.2616   -2.0070 H   0  0  0  0  0  0  0  0  0  0  0  0
    0.8034    2.6326   -1.6679 H   0  0  0  0  0  0  0  0  0  0  0  0
    1.4782    4.9712   -1.9006 H   0  0  0  0  0  0  0  0  0  0  0  0
    0.6983    6.6418   -0.3425 H   0  0  0  0  0  0  0  0  0  0  0  0
   -1.8629    5.9581    2.3089 H   0  0  0  0  0  0  0  0  0  0  0  0
   -1.8108    8.0534    3.2362 H   0  0  0  0  0  0  0  0  0  0  0  0
   -2.0601    9.8232   -0.0503 H   0  0  0  0  0  0  0  0  0  0  0  0
   -2.1767   12.2332   -0.2823 H   0  0  0  0  0  0  0  0  0  0  0  0
   -2.3127   13.6807    1.7491 H   0  0  0  0  0  0  0  0  0  0  0  0
   -2.1501   10.2075    4.2624 H   0  0  0  0  0  0  0  0  0  0  0  0
   -1.8174    3.7082    1.5877 H   0  0  0  0  0  0  0  0  0  0  0  0
  1  2  1  0  0  0  0
  1 28  1  0  0  0  0
  1 29  1  0  0  0  0
  2  3  2  0  0  0  0
  2 27  1  0  0  0  0
  3  4  1  0  0  0  0
  4  5  1  0  0  0  0
  4 30  1  0  0  0  0
  5  6  1  0  0  0  0
  5 27  2  0  0  0  0
  6  7  2  0  0  0  0
  6 31  1  0  0  0  0
  7  8  1  0  0  0  0
  7 32  1  0  0  0  0
  8  9  2  0  0  0  0
  8 33  1  0  0  0  0
  9 10  1  0  0  0  0
  9 27  1  0  0  0  0
 10 11  1  0  0  0  0
 10 26  2  0  0  0  0
 11 12  2  0  0  0  0
 11 34  1  0  0  0  0
 12 13  1  0  0  0  0
 12 35  1  0  0  0  0
 13 14  2  0  0  0  0
 13 36  1  0  0  0  0
 14 15  1  0  0  0  0
 14 26  1  0  0  0  0
 15 16  1  0  0  0  0
 15 37  1  0  0  0  0
 16 17  2  0  0  0  0
 16 18  1  0  0  0  0
 18 19  1  0  0  0  0
 18 38  1  0  0  0  0
 19 20  1  0  0  0  0
 19 25  2  0  0  0  0
 20 21  2  0  0  0  0
 20 39  1  0  0  0  0
 21 22  1  0  0  0  0
 21 40  1  0  0  0  0
 22 23  2  0  0  0  0
 22 41  1  0  0  0  0
 23 24  1  0  0  0  0
 23 25  1  0  0  0  0
 25 42  1  0  0  0  0
 26 43  1  0  0  0  0
M  END
$$$$
