CHEMBL3589741
 OpenBabel04072215363D

 43 46  0  0  0  0  0  0  0  0999 V2000
    1.2857    0.0493    0.5713 O   0  0  0  0  0  0  0  0  0  0  0  0
    2.4971   -0.1454    0.5342 C   0  0  0  0  0  0  0  0  0  0  0  0
    3.1077   -1.0842   -0.2967 N   0  0  0  0  0  0  0  0  0  0  0  0
    2.3774   -1.7826   -1.2918 C   0  0  0  0  0  0  0  0  0  0  0  0
    1.1655   -1.2730   -1.7168 C   0  0  0  0  0  0  0  0  0  0  0  0
    0.3401   -2.0184   -2.5167 C   0  0  0  0  0  0  0  0  0  0  0  0
    0.7721   -3.1649   -3.1757 C   0  0  0  0  0  0  0  0  0  0  0  0
   -0.0828   -3.7515   -4.1461 N   0  0  0  0  0  0  0  0  0  0  0  0
   -0.6678   -2.8815   -4.9344 C   0  0  0  0  0  0  0  0  0  0  0  0
    0.0405   -1.6842   -5.6367 C   0  0  0  0  0  0  0  0  0  0  0  0
    1.1450   -1.7021   -6.1348 O   0  0  0  0  0  0  0  0  0  0  0  0
   -0.8024   -0.6040   -5.4829 N   0  0  0  0  0  0  0  0  0  0  0  0
   -1.9246   -0.9727   -4.7404 C   0  0  0  0  0  0  0  0  0  0  0  0
   -2.6567   -0.1199   -3.9238 C   0  0  0  0  0  0  0  0  0  0  0  0
   -3.5072   -0.7065   -2.9733 C   0  0  0  0  0  0  0  0  0  0  0  0
   -3.6760   -2.1046   -2.9122 C   0  0  0  0  0  0  0  0  0  0  0  0
   -2.9261   -2.9495   -3.7341 C   0  0  0  0  0  0  0  0  0  0  0  0
   -2.0200   -2.3645   -4.6065 C   0  0  0  0  0  0  0  0  0  0  0  0
    2.0147   -3.6746   -2.8040 C   0  0  0  0  0  0  0  0  0  0  0  0
    2.8111   -2.9953   -1.8444 C   0  0  0  0  0  0  0  0  0  0  0  0
    3.3871    0.5779    1.2997 N   0  0  0  0  0  0  0  0  0  0  0  0
    3.0078    1.6134    2.2070 C   0  0  0  0  0  0  0  0  0  0  0  0
    1.6850    1.8604    2.5950 C   0  0  0  0  0  0  0  0  0  0  0  0
    1.3637    2.9180    3.4394 C   0  0  0  0  0  0  0  0  0  0  0  0
    2.3687    3.7313    3.9397 C   0  0  0  0  0  0  0  0  0  0  0  0
    3.6921    3.4766    3.5810 C   0  0  0  0  0  0  0  0  0  0  0  0
    4.9461    4.4798    4.2022 Cl  0  0  0  0  0  0  0  0  0  0  0  0
    4.0128    2.4257    2.7165 C   0  0  0  0  0  0  0  0  0  0  0  0
    3.9853   -1.4807    0.0017 H   0  0  0  0  0  0  0  0  0  0  0  0
    0.7807   -0.3030   -1.4260 H   0  0  0  0  0  0  0  0  0  0  0  0
   -0.6602   -1.6341   -2.6178 H   0  0  0  0  0  0  0  0  0  0  0  0
   -0.5146    0.3406   -5.6872 H   0  0  0  0  0  0  0  0  0  0  0  0
   -2.4476    0.9458   -3.8735 H   0  0  0  0  0  0  0  0  0  0  0  0
   -3.9858   -0.0831   -2.2175 H   0  0  0  0  0  0  0  0  0  0  0  0
   -4.3174   -2.5342   -2.1444 H   0  0  0  0  0  0  0  0  0  0  0  0
   -2.9318   -4.0271   -3.5810 H   0  0  0  0  0  0  0  0  0  0  0  0
    2.3617   -4.6077   -3.2398 H   0  0  0  0  0  0  0  0  0  0  0  0
    3.7544   -3.4395   -1.5414 H   0  0  0  0  0  0  0  0  0  0  0  0
    4.3635    0.5054    1.0511 H   0  0  0  0  0  0  0  0  0  0  0  0
    0.8501    1.2568    2.2561 H   0  0  0  0  0  0  0  0  0  0  0  0
    0.3201    3.0994    3.7028 H   0  0  0  0  0  0  0  0  0  0  0  0
    2.1180    4.5549    4.6029 H   0  0  0  0  0  0  0  0  0  0  0  0
    5.0498    2.2619    2.4472 H   0  0  0  0  0  0  0  0  0  0  0  0
  1  2  2  0  0  0  0
  2  3  1  0  0  0  0
  2 21  1  0  0  0  0
  3  4  1  0  0  0  0
  3 29  1  0  0  0  0
  4  5  1  0  0  0  0
  4 20  2  0  0  0  0
  5  6  2  0  0  0  0
  5 30  1  0  0  0  0
  6  7  1  0  0  0  0
  6 31  1  0  0  0  0
  7  8  1  0  0  0  0
  7 19  2  0  0  0  0
  8  9  2  0  0  0  0
  9 10  1  0  0  0  0
  9 18  1  0  0  0  0
 10 11  2  0  0  0  0
 10 12  1  0  0  0  0
 12 13  1  0  0  0  0
 12 32  1  0  0  0  0
 13 14  1  0  0  0  0
 13 18  2  0  0  0  0
 14 15  2  0  0  0  0
 14 33  1  0  0  0  0
 15 16  1  0  0  0  0
 15 34  1  0  0  0  0
 16 17  2  0  0  0  0
 16 35  1  0  0  0  0
 17 18  1  0  0  0  0
 17 36  1  0  0  0  0
 19 20  1  0  0  0  0
 19 37  1  0  0  0  0
 20 38  1  0  0  0  0
 21 22  1  0  0  0  0
 21 39  1  0  0  0  0
 22 23  1  0  0  0  0
 22 28  2  0  0  0  0
 23 24  2  0  0  0  0
 23 40  1  0  0  0  0
 24 25  1  0  0  0  0
 24 41  1  0  0  0  0
 25 26  2  0  0  0  0
 25 42  1  0  0  0  0
 26 27  1  0  0  0  0
 26 28  1  0  0  0  0
 28 43  1  0  0  0  0
M  END
$$$$
