CHEMBL3896514
 OpenBabel04072215373D

 57 60  0  0  0  0  0  0  0  0999 V2000
    2.2529    4.2201    0.9708 C   0  0  0  0  0  0  0  0  0  0  0  0
    3.5149    3.6440    0.6313 O   0  0  0  0  0  0  0  0  0  0  0  0
    3.5468    2.8131   -0.4626 C   0  0  0  0  0  0  0  0  0  0  0  0
    2.4399    2.4595   -1.2283 C   0  0  0  0  0  0  0  0  0  0  0  0
    2.6061    1.6671   -2.3664 C   0  0  0  0  0  0  0  0  0  0  0  0
    1.6024    1.2801   -3.2150 O   0  0  0  0  0  0  0  0  0  0  0  0
    0.2926    1.7434   -2.9150 C   0  0  0  0  0  0  0  0  0  0  0  0
    3.8833    1.2239   -2.7407 C   0  0  0  0  0  0  0  0  0  0  0  0
    4.9987    1.5156   -1.9619 C   0  0  0  0  0  0  0  0  0  0  0  0
    6.3535    1.2306   -2.3943 N   0  0  0  0  0  0  0  0  0  0  0  0
    6.8254   -0.1229   -2.7562 C   0  0  0  0  0  0  0  0  0  0  0  0
    8.1635   -0.3161   -2.4365 C   0  0  0  0  0  0  0  0  0  0  0  0
    8.9183   -1.2901   -3.0753 C   0  0  0  0  0  0  0  0  0  0  0  0
    8.3609   -2.1971   -3.9281 C   0  0  0  0  0  0  0  0  0  0  0  0
    9.2365   -2.9914   -4.5578 N   0  0  0  0  0  0  0  0  0  0  0  0
    8.7275   -4.0162   -5.2520 C   0  0  0  0  0  0  0  0  0  0  0  0
    7.3790   -4.2951   -5.2624 C   0  0  0  0  0  0  0  0  0  0  0  0
    6.9997   -5.6273   -5.7105 C   0  0  0  0  0  0  0  0  0  0  0  0
    6.6676   -6.7783   -4.9554 C   0  0  0  0  0  0  0  0  0  0  0  0
    6.5891   -7.8863   -5.7003 N   0  0  0  0  0  0  0  0  0  0  0  0
    6.8656   -7.4484   -6.9402 N   0  0  0  0  0  0  0  0  0  0  0  0
    6.5902   -8.2767   -8.0911 C   0  0  0  0  0  0  0  0  0  0  0  0
    7.2810   -6.1453   -6.9649 C   0  0  0  0  0  0  0  0  0  0  0  0
    6.4606   -3.4088   -4.7208 N   0  0  0  0  0  0  0  0  0  0  0  0
    6.9543   -2.2759   -4.0790 C   0  0  0  0  0  0  0  0  0  0  0  0
    6.2123   -1.1544   -3.5299 C   0  0  0  0  0  0  0  0  0  0  0  0
    7.0508    2.4817   -3.3977 S   0  0  0  0  0  0  0  0  0  0  0  0
    8.4195    2.1650   -3.7390 O   0  0  0  0  0  0  0  0  0  0  0  0
    6.1006    2.8037   -4.4622 O   0  0  0  0  0  0  0  0  0  0  0  0
    7.1599    3.8613   -2.3745 N   0  0  0  0  0  0  0  0  0  0  0  0
    8.0942    3.7396   -1.2315 C   0  0  0  0  0  0  0  0  0  0  0  0
    7.4905    5.0970   -3.1412 C   0  0  0  0  0  0  0  0  0  0  0  0
    4.8108    2.3253   -0.8225 C   0  0  0  0  0  0  0  0  0  0  0  0
    2.4047    4.9186    1.8026 H   0  0  0  0  0  0  0  0  0  0  0  0
    1.5543    3.4481    1.3104 H   0  0  0  0  0  0  0  0  0  0  0  0
    1.8305    4.7936    0.1390 H   0  0  0  0  0  0  0  0  0  0  0  0
    1.4560    2.8173   -0.9560 H   0  0  0  0  0  0  0  0  0  0  0  0
   -0.3800    1.3748   -3.6954 H   0  0  0  0  0  0  0  0  0  0  0  0
    0.2478    2.8385   -2.9270 H   0  0  0  0  0  0  0  0  0  0  0  0
   -0.0557    1.3421   -1.9567 H   0  0  0  0  0  0  0  0  0  0  0  0
    3.9849    0.6998   -3.6816 H   0  0  0  0  0  0  0  0  0  0  0  0
    8.6803    0.3860   -1.7851 H   0  0  0  0  0  0  0  0  0  0  0  0
    9.9941   -1.3165   -2.9132 H   0  0  0  0  0  0  0  0  0  0  0  0
    9.4584   -4.6542   -5.7370 H   0  0  0  0  0  0  0  0  0  0  0  0
    6.5216   -6.8661   -3.8870 H   0  0  0  0  0  0  0  0  0  0  0  0
    6.1549   -9.2277   -7.7716 H   0  0  0  0  0  0  0  0  0  0  0  0
    7.5143   -8.4482   -8.6478 H   0  0  0  0  0  0  0  0  0  0  0  0
    5.8677   -7.7367   -8.7098 H   0  0  0  0  0  0  0  0  0  0  0  0
    7.6973   -5.7093   -7.8629 H   0  0  0  0  0  0  0  0  0  0  0  0
    5.1499   -1.1253   -3.7512 H   0  0  0  0  0  0  0  0  0  0  0  0
    7.8636    2.8736   -0.6049 H   0  0  0  0  0  0  0  0  0  0  0  0
    8.0000    4.6279   -0.5878 H   0  0  0  0  0  0  0  0  0  0  0  0
    9.1354    3.6817   -1.5605 H   0  0  0  0  0  0  0  0  0  0  0  0
    6.7657    5.2740   -3.9402 H   0  0  0  0  0  0  0  0  0  0  0  0
    8.4975    5.0319   -3.5694 H   0  0  0  0  0  0  0  0  0  0  0  0
    7.4616    5.9709   -2.4812 H   0  0  0  0  0  0  0  0  0  0  0  0
    5.6603    2.6208   -0.2168 H   0  0  0  0  0  0  0  0  0  0  0  0
  1  2  1  0  0  0  0
  1 34  1  0  0  0  0
  1 35  1  0  0  0  0
  1 36  1  0  0  0  0
  2  3  1  0  0  0  0
  3  4  1  0  0  0  0
  3 33  2  0  0  0  0
  4  5  2  0  0  0  0
  4 37  1  0  0  0  0
  5  6  1  0  0  0  0
  5  8  1  0  0  0  0
  6  7  1  0  0  0  0
  7 38  1  0  0  0  0
  7 39  1  0  0  0  0
  7 40  1  0  0  0  0
  8  9  2  0  0  0  0
  8 41  1  0  0  0  0
  9 10  1  0  0  0  0
  9 33  1  0  0  0  0
 10 11  1  0  0  0  0
 10 27  1  0  0  0  0
 11 12  1  0  0  0  0
 11 26  2  0  0  0  0
 12 13  2  0  0  0  0
 12 42  1  0  0  0  0
 13 14  1  0  0  0  0
 13 43  1  0  0  0  0
 14 15  1  0  0  0  0
 14 25  2  0  0  0  0
 15 16  2  0  0  0  0
 16 17  1  0  0  0  0
 16 44  1  0  0  0  0
 17 18  1  0  0  0  0
 17 24  2  0  0  0  0
 18 19  1  0  0  0  0
 18 23  2  0  0  0  0
 19 20  2  0  0  0  0
 19 45  1  0  0  0  0
 20 21  1  0  0  0  0
 21 22  1  0  0  0  0
 21 23  1  0  0  0  0
 22 46  1  0  0  0  0
 22 47  1  0  0  0  0
 22 48  1  0  0  0  0
 23 49  1  0  0  0  0
 24 25  1  0  0  0  0
 25 26  1  0  0  0  0
 26 50  1  0  0  0  0
 27 28  2  0  0  0  0
 27 29  2  0  0  0  0
 27 30  1  0  0  0  0
 30 31  1  0  0  0  0
 30 32  1  0  0  0  0
 31 51  1  0  0  0  0
 31 52  1  0  0  0  0
 31 53  1  0  0  0  0
 32 54  1  0  0  0  0
 32 55  1  0  0  0  0
 32 56  1  0  0  0  0
 33 57  1  0  0  0  0
M  END
$$$$
