CHEMBL3694679
 OpenBabel04072215373D

 56 59  0  0  0  0  0  0  0  0999 V2000
    1.3754    1.1101    0.3589 C   0  0  0  0  0  0  0  0  0  0  0  0
    2.6324    0.3602   -0.0448 C   0  0  0  0  0  0  0  0  0  0  0  0
    3.6001    0.5360    1.0012 O   0  0  0  0  0  0  0  0  0  0  0  0
    4.3645    1.6499    0.8756 C   0  0  0  0  0  0  0  0  0  0  0  0
    4.4382    2.3705   -0.1070 O   0  0  0  0  0  0  0  0  0  0  0  0
    4.9337    2.0266    2.1701 C   0  0  0  0  0  0  0  0  0  0  0  0
    5.0410    3.3734    2.4407 C   0  0  0  0  0  0  0  0  0  0  0  0
    5.5546    3.8687    3.5822 N   0  0  0  0  0  0  0  0  0  0  0  0
    5.9912    2.9651    4.4777 C   0  0  0  0  0  0  0  0  0  0  0  0
    6.7551    3.4952    5.6417 C   0  0  0  0  0  0  0  0  0  0  0  0
    7.0663    4.9286    5.7751 C   0  0  0  0  0  0  0  0  0  0  0  0
    7.8419    5.3671    6.7804 C   0  0  0  0  0  0  0  0  0  0  0  0
    8.3217    4.4676    7.7369 N   0  0  0  0  0  0  0  0  0  0  0  0
    9.0757    4.6615    8.8995 C   0  0  0  0  0  0  0  0  0  0  0  0
    9.4610    5.9445    9.5182 C   0  0  0  0  0  0  0  0  0  0  0  0
    8.6115    7.0534    9.4273 C   0  0  0  0  0  0  0  0  0  0  0  0
    8.9448    8.2650   10.0195 C   0  0  0  0  0  0  0  0  0  0  0  0
   10.1006    8.3725   10.7811 C   0  0  0  0  0  0  0  0  0  0  0  0
   10.9415    7.2744   10.9725 C   0  0  0  0  0  0  0  0  0  0  0  0
   12.0748    7.3319   11.8288 N   0  0  0  0  0  0  0  0  0  0  0  0
   12.4272    8.3947   12.6378 C   0  0  0  0  0  0  0  0  0  0  0  0
   11.8339    9.4576   12.7647 O   0  0  0  0  0  0  0  0  0  0  0  0
   13.6072    8.1815   13.3192 N   0  0  0  0  0  0  0  0  0  0  0  0
   14.0867    9.2462   14.2158 C   0  0  0  0  0  0  0  0  0  0  0  0
   13.3975    9.3490   15.5859 C   0  0  0  0  0  0  0  0  0  0  0  0
   12.5793    8.2991   15.8258 F   0  0  0  0  0  0  0  0  0  0  0  0
   14.3331    9.3460   16.5703 F   0  0  0  0  0  0  0  0  0  0  0  0
   12.6817   10.4843   15.7225 F   0  0  0  0  0  0  0  0  0  0  0  0
   10.6297    6.0693   10.3058 C   0  0  0  0  0  0  0  0  0  0  0  0
    9.2942    3.3751    9.3621 C   0  0  0  0  0  0  0  0  0  0  0  0
    8.6705    2.4249    8.5945 N   0  0  0  0  0  0  0  0  0  0  0  0
    8.0622    3.1008    7.6419 C   0  0  0  0  0  0  0  0  0  0  0  0
    7.2492    2.6390    6.5667 C   0  0  0  0  0  0  0  0  0  0  0  0
    5.8859    1.6287    4.3203 N   0  0  0  0  0  0  0  0  0  0  0  0
    5.3539    1.1711    3.1703 C   0  0  0  0  0  0  0  0  0  0  0  0
    5.3632   -0.2161    3.0384 N   0  0  0  0  0  0  0  0  0  0  0  0
    0.5864    0.9972   -0.3874 H   0  0  0  0  0  0  0  0  0  0  0  0
    1.5849    2.1773    0.4926 H   0  0  0  0  0  0  0  0  0  0  0  0
    1.0111    0.7420    1.3243 H   0  0  0  0  0  0  0  0  0  0  0  0
    3.0076    0.6999   -1.0173 H   0  0  0  0  0  0  0  0  0  0  0  0
    2.4248   -0.7106   -0.1314 H   0  0  0  0  0  0  0  0  0  0  0  0
    4.7093    4.1223    1.7244 H   0  0  0  0  0  0  0  0  0  0  0  0
    6.6724    5.6198    5.0323 H   0  0  0  0  0  0  0  0  0  0  0  0
    8.1148    6.4091    6.8670 H   0  0  0  0  0  0  0  0  0  0  0  0
    7.6539    6.9949    8.9198 H   0  0  0  0  0  0  0  0  0  0  0  0
    8.2888    9.1248    9.9163 H   0  0  0  0  0  0  0  0  0  0  0  0
   10.3040    9.3391   11.2276 H   0  0  0  0  0  0  0  0  0  0  0  0
   12.6506    6.5059   11.8786 H   0  0  0  0  0  0  0  0  0  0  0  0
   13.8133    7.2299   13.5869 H   0  0  0  0  0  0  0  0  0  0  0  0
   13.9845   10.2075   13.6971 H   0  0  0  0  0  0  0  0  0  0  0  0
   15.1578    9.0713   14.3539 H   0  0  0  0  0  0  0  0  0  0  0  0
   11.2917    5.2125   10.4151 H   0  0  0  0  0  0  0  0  0  0  0  0
    9.8425    3.0770   10.2467 H   0  0  0  0  0  0  0  0  0  0  0  0
    7.0707    1.5693    6.5136 H   0  0  0  0  0  0  0  0  0  0  0  0
    5.6351   -0.6304    3.9267 H   0  0  0  0  0  0  0  0  0  0  0  0
    4.4856   -0.5832    2.6797 H   0  0  0  0  0  0  0  0  0  0  0  0
  1  2  1  0  0  0  0
  1 37  1  0  0  0  0
  1 38  1  0  0  0  0
  1 39  1  0  0  0  0
  2  3  1  0  0  0  0
  2 40  1  0  0  0  0
  2 41  1  0  0  0  0
  3  4  1  0  0  0  0
  4  5  2  0  0  0  0
  4  6  1  0  0  0  0
  6  7  1  0  0  0  0
  6 35  2  0  0  0  0
  7  8  2  0  0  0  0
  7 42  1  0  0  0  0
  8  9  1  0  0  0  0
  9 10  1  0  0  0  0
  9 34  2  0  0  0  0
 10 11  1  0  0  0  0
 10 33  2  0  0  0  0
 11 12  2  0  0  0  0
 11 43  1  0  0  0  0
 12 13  1  0  0  0  0
 12 44  1  0  0  0  0
 13 14  1  0  0  0  0
 13 32  1  0  0  0  0
 14 15  1  0  0  0  0
 14 30  2  0  0  0  0
 15 16  1  0  0  0  0
 15 29  2  0  0  0  0
 16 17  2  0  0  0  0
 16 45  1  0  0  0  0
 17 18  1  0  0  0  0
 17 46  1  0  0  0  0
 18 19  2  0  0  0  0
 18 47  1  0  0  0  0
 19 20  1  0  0  0  0
 19 29  1  0  0  0  0
 20 21  1  0  0  0  0
 20 48  1  0  0  0  0
 21 22  2  0  0  0  0
 21 23  1  0  0  0  0
 23 24  1  0  0  0  0
 23 49  1  0  0  0  0
 24 25  1  0  0  0  0
 24 50  1  0  0  0  0
 24 51  1  0  0  0  0
 25 26  1  0  0  0  0
 25 27  1  0  0  0  0
 25 28  1  0  0  0  0
 29 52  1  0  0  0  0
 30 31  1  0  0  0  0
 30 53  1  0  0  0  0
 31 32  2  0  0  0  0
 32 33  1  0  0  0  0
 33 54  1  0  0  0  0
 34 35  1  0  0  0  0
 35 36  1  0  0  0  0
 36 55  1  0  0  0  0
 36 56  1  0  0  0  0
M  END
$$$$
