CHEMBL3932553
 OpenBabel04072215373D

 40 43  0  0  0  0  0  0  0  0999 V2000
    1.3433    0.9517   -0.2281 O   0  0  0  0  0  0  0  0  0  0  0  0
    2.4491    0.4232   -0.1850 C   0  0  0  0  0  0  0  0  0  0  0  0
    2.9801   -0.4477   -1.1267 N   0  0  0  0  0  0  0  0  0  0  0  0
    2.3026   -0.8260   -2.3188 C   0  0  0  0  0  0  0  0  0  0  0  0
    1.2575   -0.0605   -2.8469 C   0  0  0  0  0  0  0  0  0  0  0  0
    0.5246   -0.5023   -3.9468 C   0  0  0  0  0  0  0  0  0  0  0  0
    0.8280   -1.7268   -4.5331 C   0  0  0  0  0  0  0  0  0  0  0  0
    1.8885   -2.4957   -4.0421 C   0  0  0  0  0  0  0  0  0  0  0  0
    2.1178   -3.7989   -4.6044 C   0  0  0  0  0  0  0  0  0  0  0  0
    2.2279   -4.8968   -5.0913 C   0  0  0  0  0  0  0  0  0  0  0  0
    2.3354   -6.1834   -5.7431 C   0  0  0  0  0  0  0  0  0  0  0  0
    2.8368   -6.2968   -7.1320 C   0  0  0  0  0  0  0  0  0  0  0  0
    2.9073   -7.5272   -7.6604 C   0  0  0  0  0  0  0  0  0  0  0  0
    2.4984   -8.6331   -6.8817 C   0  0  0  0  0  0  0  0  0  0  0  0
    2.4697   -9.9178   -7.1587 N   0  0  0  0  0  0  0  0  0  0  0  0
    1.9760  -10.5163   -6.0288 C   0  0  0  0  0  0  0  0  0  0  0  0
    1.7027   -9.5812   -5.0547 C   0  0  0  0  0  0  0  0  0  0  0  0
    2.0410   -8.3708   -5.5992 N   0  0  0  0  0  0  0  0  0  0  0  0
    1.9403   -7.1531   -4.9777 N   0  0  0  0  0  0  0  0  0  0  0  0
    2.6555   -2.0222   -2.9633 C   0  0  0  0  0  0  0  0  0  0  0  0
    3.2495    0.7097    1.0275 C   0  0  0  0  0  0  0  0  0  0  0  0
    2.5480    0.8991    2.2330 C   0  0  0  0  0  0  0  0  0  0  0  0
    3.2137    1.3169    3.3826 C   0  0  0  0  0  0  0  0  0  0  0  0
    4.5802    1.5616    3.3231 C   0  0  0  0  0  0  0  0  0  0  0  0
    5.1996    2.0019    4.4276 F   0  0  0  0  0  0  0  0  0  0  0  0
    5.2856    1.3757    2.1310 C   0  0  0  0  0  0  0  0  0  0  0  0
    6.9694    1.7300    2.0570 Cl  0  0  0  0  0  0  0  0  0  0  0  0
    4.6272    0.9404    0.9755 C   0  0  0  0  0  0  0  0  0  0  0  0
    3.7806   -1.0057   -0.8581 H   0  0  0  0  0  0  0  0  0  0  0  0
    0.9760    0.8953   -2.4141 H   0  0  0  0  0  0  0  0  0  0  0  0
   -0.3018    0.1005   -4.3135 H   0  0  0  0  0  0  0  0  0  0  0  0
    0.2159   -2.0802   -5.3596 H   0  0  0  0  0  0  0  0  0  0  0  0
    3.1297   -5.3992   -7.6701 H   0  0  0  0  0  0  0  0  0  0  0  0
    3.2653   -7.7012   -8.6666 H   0  0  0  0  0  0  0  0  0  0  0  0
    1.8424  -11.5902   -5.9761 H   0  0  0  0  0  0  0  0  0  0  0  0
    1.3105   -9.6663   -4.0525 H   0  0  0  0  0  0  0  0  0  0  0  0
    3.4820   -2.6247   -2.5983 H   0  0  0  0  0  0  0  0  0  0  0  0
    1.4689    0.7519    2.2619 H   0  0  0  0  0  0  0  0  0  0  0  0
    2.6701    1.4819    4.3075 H   0  0  0  0  0  0  0  0  0  0  0  0
    5.1743    0.8495    0.0419 H   0  0  0  0  0  0  0  0  0  0  0  0
  1  2  2  0  0  0  0
  2  3  1  0  0  0  0
  2 21  1  0  0  0  0
  3  4  1  0  0  0  0
  3 29  1  0  0  0  0
  4  5  1  0  0  0  0
  4 20  2  0  0  0  0
  5  6  2  0  0  0  0
  5 30  1  0  0  0  0
  6  7  1  0  0  0  0
  6 31  1  0  0  0  0
  7  8  2  0  0  0  0
  7 32  1  0  0  0  0
  8  9  1  0  0  0  0
  8 20  1  0  0  0  0
  9 10  3  0  0  0  0
 10 11  1  0  0  0  0
 11 12  1  0  0  0  0
 11 19  2  0  0  0  0
 12 13  2  0  0  0  0
 12 33  1  0  0  0  0
 13 14  1  0  0  0  0
 13 34  1  0  0  0  0
 14 15  2  0  0  0  0
 14 18  1  0  0  0  0
 15 16  1  0  0  0  0
 16 17  2  0  0  0  0
 16 35  1  0  0  0  0
 17 18  1  0  0  0  0
 17 36  1  0  0  0  0
 18 19  1  0  0  0  0
 20 37  1  0  0  0  0
 21 22  1  0  0  0  0
 21 28  2  0  0  0  0
 22 23  2  0  0  0  0
 22 38  1  0  0  0  0
 23 24  1  0  0  0  0
 23 39  1  0  0  0  0
 24 25  1  0  0  0  0
 24 26  2  0  0  0  0
 26 27  1  0  0  0  0
 26 28  1  0  0  0  0
 28 40  1  0  0  0  0
M  END
$$$$
