CHEMBL2409777
 OpenBabel04072215363D

 56 60  0  0  0  0  0  0  0  0999 V2000
    2.4942   -0.2330   -0.0223 C   0  0  0  0  0  0  0  0  0  0  0  0
    1.0002   -0.0992   -0.0039 C   0  0  0  0  0  0  0  0  0  0  0  0
    0.4089    1.1703    0.0437 C   0  0  0  0  0  0  0  0  0  0  0  0
   -0.9788    1.3343    0.0926 C   0  0  0  0  0  0  0  0  0  0  0  0
   -1.6151    2.6006    0.1163 N   0  0  0  0  0  0  0  0  0  0  0  0
   -0.9872    3.8367    0.0739 C   0  0  0  0  0  0  0  0  0  0  0  0
    0.2271    3.9833    0.0094 O   0  0  0  0  0  0  0  0  0  0  0  0
   -1.8638    4.9915    0.1139 C   0  0  0  0  0  0  0  0  0  0  0  0
   -3.2429    5.1259    0.1054 C   0  0  0  0  0  0  0  0  0  0  0  0
   -3.4963    6.5147    0.1893 C   0  0  0  0  0  0  0  0  0  0  0  0
   -4.7973    7.2207    0.2474 C   0  0  0  0  0  0  0  0  0  0  0  0
   -2.3634    7.2169    0.2246 N   0  0  0  0  0  0  0  0  0  0  0  0
   -1.3928    6.2873    0.1719 N   0  0  0  0  0  0  0  0  0  0  0  0
   -0.0130    6.7239    0.2025 C   0  0  0  0  0  0  0  0  0  0  0  0
   -1.7861    0.1909    0.1074 C   0  0  0  0  0  0  0  0  0  0  0  0
   -1.2102   -1.0811   -0.0105 C   0  0  0  0  0  0  0  0  0  0  0  0
   -1.9229   -2.2563   -0.0436 O   0  0  0  0  0  0  0  0  0  0  0  0
   -3.1585   -2.3575   -0.6639 C   0  0  0  0  0  0  0  0  0  0  0  0
   -3.5151   -1.5254   -1.8139 C   0  0  0  0  0  0  0  0  0  0  0  0
   -4.7286   -1.6105   -2.3963 C   0  0  0  0  0  0  0  0  0  0  0  0
   -5.6685   -2.5701   -1.9272 C   0  0  0  0  0  0  0  0  0  0  0  0
   -6.8925   -2.8781   -2.2994 N   0  0  0  0  0  0  0  0  0  0  0  0
   -7.2384   -3.8746   -1.4249 C   0  0  0  0  0  0  0  0  0  0  0  0
   -8.4981   -4.4054   -1.5046 N   0  0  0  0  0  0  0  0  0  0  0  0
   -9.0075   -5.2944   -0.5952 C   0  0  0  0  0  0  0  0  0  0  0  0
   -8.4621   -5.7032    0.4195 O   0  0  0  0  0  0  0  0  0  0  0  0
  -10.3869   -5.8017   -0.8624 C   0  0  0  0  0  0  0  0  0  0  0  0
  -10.6152   -6.7124   -2.0472 C   0  0  0  0  0  0  0  0  0  0  0  0
  -11.3122   -5.3850   -1.9750 C   0  0  0  0  0  0  0  0  0  0  0  0
   -6.2799   -4.2295   -0.5739 N   0  0  0  0  0  0  0  0  0  0  0  0
   -5.2727   -3.3941   -0.8733 N   0  0  0  0  0  0  0  0  0  0  0  0
   -4.0309   -3.2940   -0.2603 C   0  0  0  0  0  0  0  0  0  0  0  0
    0.1785   -1.2251   -0.0347 C   0  0  0  0  0  0  0  0  0  0  0  0
    2.9834    0.7476   -0.0091 H   0  0  0  0  0  0  0  0  0  0  0  0
    2.8174   -0.7525   -0.9291 H   0  0  0  0  0  0  0  0  0  0  0  0
    2.8357   -0.7848    0.8588 H   0  0  0  0  0  0  0  0  0  0  0  0
    1.0807    2.0212    0.0483 H   0  0  0  0  0  0  0  0  0  0  0  0
   -2.6234    2.5965    0.1522 H   0  0  0  0  0  0  0  0  0  0  0  0
   -3.9852    4.3431    0.0543 H   0  0  0  0  0  0  0  0  0  0  0  0
   -5.6332    6.5156    0.2094 H   0  0  0  0  0  0  0  0  0  0  0  0
   -4.8964    7.9142   -0.5942 H   0  0  0  0  0  0  0  0  0  0  0  0
   -4.8770    7.7936    1.1771 H   0  0  0  0  0  0  0  0  0  0  0  0
    0.0241    7.8146    0.2591 H   0  0  0  0  0  0  0  0  0  0  0  0
    0.4779    6.3931   -0.7163 H   0  0  0  0  0  0  0  0  0  0  0  0
    0.4666    6.2981    1.0877 H   0  0  0  0  0  0  0  0  0  0  0  0
   -2.8634    0.2863    0.1974 H   0  0  0  0  0  0  0  0  0  0  0  0
   -2.7815   -0.8302   -2.2103 H   0  0  0  0  0  0  0  0  0  0  0  0
   -5.0012   -0.9758   -3.2319 H   0  0  0  0  0  0  0  0  0  0  0  0
   -9.0449   -4.0605   -2.2754 H   0  0  0  0  0  0  0  0  0  0  0  0
  -10.8851   -6.0890    0.0617 H   0  0  0  0  0  0  0  0  0  0  0  0
  -11.1873   -7.6160   -1.8699 H   0  0  0  0  0  0  0  0  0  0  0  0
   -9.8166   -6.8323   -2.7708 H   0  0  0  0  0  0  0  0  0  0  0  0
  -12.3774   -5.3929   -1.7603 H   0  0  0  0  0  0  0  0  0  0  0  0
  -11.0288   -4.6196   -2.6829 H   0  0  0  0  0  0  0  0  0  0  0  0
   -3.8390   -3.9879    0.5470 H   0  0  0  0  0  0  0  0  0  0  0  0
    0.6173   -2.2196   -0.0780 H   0  0  0  0  0  0  0  0  0  0  0  0
  1  2  1  0  0  0  0
  1 34  1  0  0  0  0
  1 35  1  0  0  0  0
  1 36  1  0  0  0  0
  2  3  1  0  0  0  0
  2 33  2  0  0  0  0
  3  4  2  0  0  0  0
  3 37  1  0  0  0  0
  4  5  1  0  0  0  0
  4 15  1  0  0  0  0
  5  6  1  0  0  0  0
  5 38  1  0  0  0  0
  6  7  2  0  0  0  0
  6  8  1  0  0  0  0
  8  9  2  0  0  0  0
  8 13  1  0  0  0  0
  9 10  1  0  0  0  0
  9 39  1  0  0  0  0
 10 11  1  0  0  0  0
 10 12  2  0  0  0  0
 11 40  1  0  0  0  0
 11 41  1  0  0  0  0
 11 42  1  0  0  0  0
 12 13  1  0  0  0  0
 13 14  1  0  0  0  0
 14 43  1  0  0  0  0
 14 44  1  0  0  0  0
 14 45  1  0  0  0  0
 15 16  2  0  0  0  0
 15 46  1  0  0  0  0
 16 17  1  0  0  0  0
 16 33  1  0  0  0  0
 17 18  1  0  0  0  0
 18 19  1  0  0  0  0
 18 32  2  0  0  0  0
 19 20  2  0  0  0  0
 19 47  1  0  0  0  0
 20 21  1  0  0  0  0
 20 48  1  0  0  0  0
 21 22  2  0  0  0  0
 21 31  1  0  0  0  0
 22 23  1  0  0  0  0
 23 24  1  0  0  0  0
 23 30  2  0  0  0  0
 24 25  1  0  0  0  0
 24 49  1  0  0  0  0
 25 26  2  0  0  0  0
 25 27  1  0  0  0  0
 27 28  1  0  0  0  0
 27 29  1  0  0  0  0
 27 50  1  0  0  0  0
 28 29  1  0  0  0  0
 28 51  1  0  0  0  0
 28 52  1  0  0  0  0
 29 53  1  0  0  0  0
 29 54  1  0  0  0  0
 30 31  1  0  0  0  0
 31 32  1  0  0  0  0
 32 55  1  0  0  0  0
 33 56  1  0  0  0  0
M  END
$$$$
