CHEMBL3949155
 OpenBabel04072215373D

 52 55  0  0  1  0  0  0  0  0999 V2000
    3.2298    0.1875   -1.2697 C   0  0  0  0  0  0  0  0  0  0  0  0
    2.4826   -0.5347   -0.2861 O   0  0  0  0  0  0  0  0  0  0  0  0
    3.1962   -0.9374    0.8137 C   0  0  0  0  0  0  0  0  0  0  0  0
    4.2907   -0.2134    1.3034 C   0  0  0  0  0  0  0  0  0  0  0  0
    5.0735   -0.7072    2.3724 C   0  0  0  0  0  0  0  0  0  0  0  0
    6.1754   -0.0640    2.9540 C   0  0  0  0  0  0  0  0  0  0  0  0
    6.5598    1.2304    2.5152 N   0  0  0  0  0  0  0  0  0  0  0  0
    7.3874    2.0843    3.2878 C   0  0  0  0  0  0  0  0  0  0  0  0
    7.1723    2.2281    4.6663 C   0  0  0  0  0  0  0  0  0  0  0  0
    8.0476    2.9833    5.4414 C   0  0  0  0  0  0  0  0  0  0  0  0
    7.8058    3.0778    7.1418 Cl  0  0  0  0  0  0  0  0  0  0  0  0
    9.1248    3.6429    4.8503 C   0  0  0  0  0  0  0  0  0  0  0  0
    9.3120    3.5647    3.4690 C   0  0  0  0  0  0  0  0  0  0  0  0
    8.4418    2.7928    2.7008 C   0  0  0  0  0  0  0  0  0  0  0  0
    8.6463    2.6975    1.3788 F   0  0  0  0  0  0  0  0  0  0  0  0
    6.8824   -0.6230    3.9577 N   0  0  0  0  0  0  0  0  0  0  0  0
    6.4814   -1.8124    4.4017 C   0  0  0  0  0  0  0  0  0  0  0  0
    5.4325   -2.4940    3.9457 N   0  0  0  0  0  0  0  0  0  0  0  0
    4.7471   -1.9357    2.9516 C   0  0  0  0  0  0  0  0  0  0  0  0
    3.6227   -2.6005    2.5075 C   0  0  0  0  0  0  0  0  0  0  0  0
    2.7983   -2.1014    1.4886 C   0  0  0  0  0  0  0  0  0  0  0  0
    1.6067   -2.7159    1.1433 O   0  0  0  0  0  0  0  0  0  0  0  0
    1.0878   -3.5738    2.1789 C   0  0  0  0  0  0  0  0  0  0  0  0
   -0.3866   -3.9614    2.0035 C   0  0  3  0  0  0  0  0  0  0  0  0
   -1.3361   -2.7511    1.9481 C   0  0  0  0  0  0  0  0  0  0  0  0
   -1.4382   -2.0710    3.2568 N   0  0  0  0  0  0  0  0  0  0  0  0
   -2.3419   -0.9293    3.1712 C   0  0  0  0  0  0  0  0  0  0  0  0
   -1.8987   -3.0468    4.2625 C   0  0  0  0  0  0  0  0  0  0  0  0
   -0.9449   -4.2488    4.3263 C   0  0  0  0  0  0  0  0  0  0  0  0
   -0.7990   -4.8855    3.0447 O   0  0  0  0  0  0  0  0  0  0  0  0
    2.8809   -0.1192   -2.2602 H   0  0  0  0  0  0  0  0  0  0  0  0
    4.3085   -0.0118   -1.2426 H   0  0  0  0  0  0  0  0  0  0  0  0
    3.0471    1.2609   -1.1552 H   0  0  0  0  0  0  0  0  0  0  0  0
    4.5421    0.7546    0.8748 H   0  0  0  0  0  0  0  0  0  0  0  0
    6.8506    1.2007    1.5406 H   0  0  0  0  0  0  0  0  0  0  0  0
    6.3370    1.7163    5.1399 H   0  0  0  0  0  0  0  0  0  0  0  0
    9.8194    4.2108    5.4629 H   0  0  0  0  0  0  0  0  0  0  0  0
   10.1424    4.0757    2.9910 H   0  0  0  0  0  0  0  0  0  0  0  0
    7.0517   -2.2572    5.2086 H   0  0  0  0  0  0  0  0  0  0  0  0
    3.3994   -3.5372    3.0122 H   0  0  0  0  0  0  0  0  0  0  0  0
    1.2022   -3.0861    3.1535 H   0  0  0  0  0  0  0  0  0  0  0  0
    1.6677   -4.5057    2.1869 H   0  0  0  0  0  0  0  0  0  0  0  0
   -0.4837   -4.5063    1.0574 H   0  0  0  0  0  0  0  0  0  0  0  0
   -2.3307   -3.1080    1.6462 H   0  0  0  0  0  0  0  0  0  0  0  0
   -0.9911   -2.0496    1.1807 H   0  0  0  0  0  0  0  0  0  0  0  0
   -1.9480   -0.1904    2.4646 H   0  0  0  0  0  0  0  0  0  0  0  0
   -2.4211   -0.4268    4.1412 H   0  0  0  0  0  0  0  0  0  0  0  0
   -3.3480   -1.2167    2.8462 H   0  0  0  0  0  0  0  0  0  0  0  0
   -2.9063   -3.4040    4.0130 H   0  0  0  0  0  0  0  0  0  0  0  0
   -1.9436   -2.5770    5.2519 H   0  0  0  0  0  0  0  0  0  0  0  0
   -1.3414   -4.9957    5.0227 H   0  0  0  0  0  0  0  0  0  0  0  0
    0.0375   -3.9551    4.7143 H   0  0  0  0  0  0  0  0  0  0  0  0
  1  2  1  0  0  0  0
  1 31  1  0  0  0  0
  1 32  1  0  0  0  0
  1 33  1  0  0  0  0
  2  3  1  0  0  0  0
  3  4  1  0  0  0  0
  3 21  2  0  0  0  0
  4  5  2  0  0  0  0
  4 34  1  0  0  0  0
  5  6  1  0  0  0  0
  5 19  1  0  0  0  0
  6  7  1  0  0  0  0
  6 16  2  0  0  0  0
  7  8  1  0  0  0  0
  7 35  1  0  0  0  0
  8  9  1  0  0  0  0
  8 14  2  0  0  0  0
  9 10  2  0  0  0  0
  9 36  1  0  0  0  0
 10 11  1  0  0  0  0
 10 12  1  0  0  0  0
 12 13  2  0  0  0  0
 12 37  1  0  0  0  0
 13 14  1  0  0  0  0
 13 38  1  0  0  0  0
 14 15  1  0  0  0  0
 16 17  1  0  0  0  0
 17 18  2  0  0  0  0
 17 39  1  0  0  0  0
 18 19  1  0  0  0  0
 19 20  2  0  0  0  0
 20 21  1  0  0  0  0
 20 40  1  0  0  0  0
 21 22  1  0  0  0  0
 22 23  1  0  0  0  0
 23 24  1  0  0  0  0
 23 41  1  0  0  0  0
 23 42  1  0  0  0  0
 24 25  1  0  0  0  0
 24 30  1  0  0  0  0
 24 43  1  0  0  0  0
 25 26  1  0  0  0  0
 25 44  1  0  0  0  0
 25 45  1  0  0  0  0
 26 27  1  0  0  0  0
 26 28  1  0  0  0  0
 27 46  1  0  0  0  0
 27 47  1  0  0  0  0
 27 48  1  0  0  0  0
 28 29  1  0  0  0  0
 28 49  1  0  0  0  0
 28 50  1  0  0  0  0
 29 30  1  0  0  0  0
 29 51  1  0  0  0  0
 29 52  1  0  0  0  0
M  END
$$$$
