CHEMBL3931458
 OpenBabel04072215373D

 66 70  0  0  0  0  0  0  0  0999 V2000
   -4.3095   -2.0850    0.4723 N   0  0  0  0  0  0  0  0  0  0  0  0
   -3.5053   -2.1017    1.5018 C   0  0  0  0  0  0  0  0  0  0  0  0
   -3.9761   -2.6965    2.4885 O   0  0  0  0  0  0  0  0  0  0  0  0
   -2.0673   -1.6578    1.2835 C   0  0  0  0  0  0  0  0  0  0  0  0
   -1.3659   -1.6688    2.6606 C   0  0  0  0  0  0  0  0  0  0  0  0
   -2.2406   -1.4875    3.7774 C   0  0  0  0  0  0  0  0  0  0  0  0
   -2.1475   -2.2935    4.9029 C   0  0  0  0  0  0  0  0  0  0  0  0
   -0.9698   -2.9614    5.1291 C   0  0  0  0  0  0  0  0  0  0  0  0
    0.0670   -2.8333    4.2101 C   0  0  0  0  0  0  0  0  0  0  0  0
   -0.1230   -2.2546    2.9442 C   0  0  0  0  0  0  0  0  0  0  0  0
    0.9749   -2.2836    1.9129 C   0  0  0  0  0  0  0  0  0  0  0  0
    2.2076   -3.1279    2.1829 C   0  0  0  0  0  0  0  0  0  0  0  0
    2.0235   -4.6407    2.0575 C   0  0  0  0  0  0  0  0  0  0  0  0
    0.8592   -5.1465    1.5533 N   0  0  0  0  0  0  0  0  0  0  0  0
    0.6727   -6.4889    1.3801 C   0  0  0  0  0  0  0  0  0  0  0  0
   -0.5486   -7.0546    0.8631 N   0  0  0  0  0  0  0  0  0  0  0  0
   -1.6705   -6.4514    0.2508 C   0  0  0  0  0  0  0  0  0  0  0  0
   -1.8216   -5.0755    0.3347 C   0  0  0  0  0  0  0  0  0  0  0  0
   -3.0592   -4.4891    0.0295 C   0  0  0  0  0  0  0  0  0  0  0  0
   -4.0527   -4.9846   -0.7837 C   0  0  0  0  0  0  0  0  0  0  0  0
   -5.0470   -4.0294   -1.6594 C   0  0  0  0  0  0  0  0  0  0  0  0
   -4.3891   -3.8639   -3.0431 C   0  0  0  0  0  0  0  0  0  0  0  0
   -3.5545   -2.5896   -3.1917 C   0  0  0  0  0  0  0  0  0  0  0  0
   -4.2821   -1.3299   -3.1005 N   0  0  0  0  0  0  0  0  0  0  0  0
   -5.0988   -1.1990   -1.9116 C   0  0  0  0  0  0  0  0  0  0  0  0
   -5.8288   -2.5421   -1.5060 C   0  0  0  0  0  0  0  0  0  0  0  0
   -3.9586   -6.3389   -0.8740 N   0  0  0  0  0  0  0  0  0  0  0  0
   -2.8518   -7.0277   -0.2703 C   0  0  0  0  0  0  0  0  0  0  0  0
    1.6525   -7.3368    1.7323 N   0  0  0  0  0  0  0  0  0  0  0  0
    2.8356   -6.8083    2.1830 C   0  0  0  0  0  0  0  0  0  0  0  0
    3.0874   -5.4611    2.3864 C   0  0  0  0  0  0  0  0  0  0  0  0
    4.4230   -5.0181    2.8805 C   0  0  0  0  0  0  0  0  0  0  0  0
    4.5740   -3.6742    3.0787 F   0  0  0  0  0  0  0  0  0  0  0  0
    4.7339   -5.5881    4.0781 F   0  0  0  0  0  0  0  0  0  0  0  0
    5.4362   -5.3589    2.0343 F   0  0  0  0  0  0  0  0  0  0  0  0
   -1.8094   -0.6722    0.1464 C   0  0  0  0  0  0  0  0  0  0  0  0
   -1.3209   -2.0538   -0.0436 C   0  0  0  0  0  0  0  0  0  0  0  0
   -5.0376   -2.7645    0.6824 H   0  0  0  0  0  0  0  0  0  0  0  0
   -3.7962   -2.2583   -0.3891 H   0  0  0  0  0  0  0  0  0  0  0  0
   -3.2155   -1.0018    3.6369 H   0  0  0  0  0  0  0  0  0  0  0  0
   -3.0210   -2.4530    5.5303 H   0  0  0  0  0  0  0  0  0  0  0  0
   -0.8563   -3.5804    6.0092 H   0  0  0  0  0  0  0  0  0  0  0  0
    1.0107   -3.2869    4.4876 H   0  0  0  0  0  0  0  0  0  0  0  0
    1.2797   -1.2433    1.7360 H   0  0  0  0  0  0  0  0  0  0  0  0
    0.6158   -2.7014    0.9900 H   0  0  0  0  0  0  0  0  0  0  0  0
    2.5895   -2.8627    3.1693 H   0  0  0  0  0  0  0  0  0  0  0  0
    2.9613   -2.8335    1.4451 H   0  0  0  0  0  0  0  0  0  0  0  0
   -0.4253   -8.0552    0.7666 H   0  0  0  0  0  0  0  0  0  0  0  0
   -1.1241   -4.5139    0.9095 H   0  0  0  0  0  0  0  0  0  0  0  0
   -3.4692   -4.2480    1.0193 H   0  0  0  0  0  0  0  0  0  0  0  0
   -5.9169   -4.6960   -1.7344 H   0  0  0  0  0  0  0  0  0  0  0  0
   -5.1892   -3.8341   -3.7913 H   0  0  0  0  0  0  0  0  0  0  0  0
   -3.7658   -4.7283   -3.2707 H   0  0  0  0  0  0  0  0  0  0  0  0
   -3.0894   -2.6066   -4.1819 H   0  0  0  0  0  0  0  0  0  0  0  0
   -2.7224   -2.5798   -2.4917 H   0  0  0  0  0  0  0  0  0  0  0  0
   -4.8705   -1.1982   -3.9186 H   0  0  0  0  0  0  0  0  0  0  0  0
   -5.8313   -0.3912   -2.0612 H   0  0  0  0  0  0  0  0  0  0  0  0
   -4.4851   -0.7170   -1.1502 H   0  0  0  0  0  0  0  0  0  0  0  0
   -6.6684   -2.5692   -2.2166 H   0  0  0  0  0  0  0  0  0  0  0  0
   -6.3587   -2.4087   -0.5517 H   0  0  0  0  0  0  0  0  0  0  0  0
   -3.0007   -8.1056   -0.1982 H   0  0  0  0  0  0  0  0  0  0  0  0
    3.6046   -7.5451    2.3914 H   0  0  0  0  0  0  0  0  0  0  0  0
   -1.0753    0.1016    0.2888 H   0  0  0  0  0  0  0  0  0  0  0  0
   -2.5112   -0.4318   -0.6481 H   0  0  0  0  0  0  0  0  0  0  0  0
   -0.2826   -2.0130   -0.3469 H   0  0  0  0  0  0  0  0  0  0  0  0
   -1.7875   -2.6785   -0.7916 H   0  0  0  0  0  0  0  0  0  0  0  0
  1  2  1  0  0  0  0
  1 38  1  0  0  0  0
  1 39  1  0  0  0  0
  2  3  2  0  0  0  0
  2  4  1  0  0  0  0
  4  5  1  0  0  0  0
  4 36  1  0  0  0  0
  4 37  1  0  0  0  0
  5  6  1  0  0  0  0
  5 10  2  0  0  0  0
  6  7  2  0  0  0  0
  6 40  1  0  0  0  0
  7  8  1  0  0  0  0
  7 41  1  0  0  0  0
  8  9  2  0  0  0  0
  8 42  1  0  0  0  0
  9 10  1  0  0  0  0
  9 43  1  0  0  0  0
 10 11  1  0  0  0  0
 11 12  1  0  0  0  0
 11 44  1  0  0  0  0
 11 45  1  0  0  0  0
 12 13  1  0  0  0  0
 12 46  1  0  0  0  0
 12 47  1  0  0  0  0
 13 14  1  0  0  0  0
 13 31  2  0  0  0  0
 14 15  2  0  0  0  0
 15 16  1  0  0  0  0
 15 29  1  0  0  0  0
 16 17  1  0  0  0  0
 16 48  1  0  0  0  0
 17 18  1  0  0  0  0
 17 28  2  0  0  0  0
 18 19  2  0  0  0  0
 18 49  1  0  0  0  0
 19 20  1  0  0  0  0
 19 50  1  0  0  0  0
 20 21  1  0  0  0  0
 20 27  2  0  0  0  0
 21 22  1  0  0  0  0
 21 26  1  0  0  0  0
 21 51  1  0  0  0  0
 22 23  1  0  0  0  0
 22 52  1  0  0  0  0
 22 53  1  0  0  0  0
 23 24  1  0  0  0  0
 23 54  1  0  0  0  0
 23 55  1  0  0  0  0
 24 25  1  0  0  0  0
 24 56  1  0  0  0  0
 25 26  1  0  0  0  0
 25 57  1  0  0  0  0
 25 58  1  0  0  0  0
 26 59  1  0  0  0  0
 26 60  1  0  0  0  0
 27 28  1  0  0  0  0
 28 61  1  0  0  0  0
 29 30  2  0  0  0  0
 30 31  1  0  0  0  0
 30 62  1  0  0  0  0
 31 32  1  0  0  0  0
 32 33  1  0  0  0  0
 32 34  1  0  0  0  0
 32 35  1  0  0  0  0
 36 37  1  0  0  0  0
 36 63  1  0  0  0  0
 36 64  1  0  0  0  0
 37 65  1  0  0  0  0
 37 66  1  0  0  0  0
M  END
$$$$
