CHEMBL462563
 OpenBabel04072215383D

 56 60  0  0  0  0  0  0  0  0999 V2000
   10.7392    1.9028   -1.3836 C   0  0  0  0  0  0  0  0  0  0  0  0
    9.8457    2.4157   -2.3716 O   0  0  0  0  0  0  0  0  0  0  0  0
    8.9453    3.3574   -1.9319 C   0  0  0  0  0  0  0  0  0  0  0  0
    9.2511    4.2018   -0.8589 C   0  0  0  0  0  0  0  0  0  0  0  0
    8.3240    5.0531   -0.2767 C   0  0  0  0  0  0  0  0  0  0  0  0
    8.7027    5.7152    0.8181 N   0  0  0  0  0  0  0  0  0  0  0  0
    7.8048    6.5199    1.4307 C   0  0  0  0  0  0  0  0  0  0  0  0
    6.5143    6.6950    0.9801 C   0  0  0  0  0  0  0  0  0  0  0  0
    6.1026    5.9640   -0.1355 C   0  0  0  0  0  0  0  0  0  0  0  0
    4.7919    6.0456   -0.5801 O   0  0  0  0  0  0  0  0  0  0  0  0
    3.7678    6.1160    0.3582 C   0  0  0  0  0  0  0  0  0  0  0  0
    2.6541    6.8934    0.0295 C   0  0  0  0  0  0  0  0  0  0  0  0
    1.5455    6.9963    0.8987 C   0  0  0  0  0  0  0  0  0  0  0  0
    1.5480    6.2733    2.1125 C   0  0  0  0  0  0  0  0  0  0  0  0
    0.6481    6.0647    3.2158 C   0  0  0  0  0  0  0  0  0  0  0  0
   -0.6143    6.6233    3.3726 N   0  0  0  0  0  0  0  0  0  0  0  0
   -1.4577    6.3230    4.4311 C   0  0  0  0  0  0  0  0  0  0  0  0
   -1.2398    5.5435    5.3559 O   0  0  0  0  0  0  0  0  0  0  0  0
   -2.7841    7.0164    4.4639 C   0  0  0  0  0  0  0  0  0  0  0  0
   -3.4529    7.4499    3.3105 C   0  0  0  0  0  0  0  0  0  0  0  0
   -4.7175    8.0440    3.4213 C   0  0  0  0  0  0  0  0  0  0  0  0
   -5.3175    8.1992    4.6730 C   0  0  0  0  0  0  0  0  0  0  0  0
   -6.8769    8.9146    4.7902 Cl  0  0  0  0  0  0  0  0  0  0  0  0
   -4.6678    7.7643    5.8231 C   0  0  0  0  0  0  0  0  0  0  0  0
   -3.4051    7.1770    5.7164 C   0  0  0  0  0  0  0  0  0  0  0  0
    1.1852    5.2220    4.1014 N   0  0  0  0  0  0  0  0  0  0  0  0
    2.3683    4.8801    3.5887 N   0  0  0  0  0  0  0  0  0  0  0  0
    3.1521    3.8671    4.2554 C   0  0  0  0  0  0  0  0  0  0  0  0
    2.6646    5.4911    2.4034 C   0  0  0  0  0  0  0  0  0  0  0  0
    3.7831    5.3900    1.5533 C   0  0  0  0  0  0  0  0  0  0  0  0
    7.0333    5.1540   -0.8352 C   0  0  0  0  0  0  0  0  0  0  0  0
    6.7663    4.4114   -2.0085 C   0  0  0  0  0  0  0  0  0  0  0  0
    7.7019    3.5017   -2.5564 C   0  0  0  0  0  0  0  0  0  0  0  0
    7.1865    2.8567   -3.6492 O   0  0  0  0  0  0  0  0  0  0  0  0
    7.8519    1.7398   -4.2099 C   0  0  0  0  0  0  0  0  0  0  0  0
   10.9142    0.8430   -1.5902 H   0  0  0  0  0  0  0  0  0  0  0  0
   10.3492    1.9584   -0.3574 H   0  0  0  0  0  0  0  0  0  0  0  0
   11.7021    2.4274   -1.4460 H   0  0  0  0  0  0  0  0  0  0  0  0
   10.2416    4.1874   -0.4072 H   0  0  0  0  0  0  0  0  0  0  0  0
    8.1620    7.0131    2.3249 H   0  0  0  0  0  0  0  0  0  0  0  0
    5.8504    7.3550    1.5170 H   0  0  0  0  0  0  0  0  0  0  0  0
    2.6362    7.4268   -0.9185 H   0  0  0  0  0  0  0  0  0  0  0  0
    0.6938    7.6051    0.6140 H   0  0  0  0  0  0  0  0  0  0  0  0
   -0.8846    7.3003    2.6779 H   0  0  0  0  0  0  0  0  0  0  0  0
   -3.0347    7.2974    2.3222 H   0  0  0  0  0  0  0  0  0  0  0  0
   -5.2383    8.3709    2.5246 H   0  0  0  0  0  0  0  0  0  0  0  0
   -5.1335    7.8698    6.7989 H   0  0  0  0  0  0  0  0  0  0  0  0
   -2.9052    6.8268    6.6194 H   0  0  0  0  0  0  0  0  0  0  0  0
    2.6727    3.5872    5.1963 H   0  0  0  0  0  0  0  0  0  0  0  0
    4.1473    4.2705    4.4520 H   0  0  0  0  0  0  0  0  0  0  0  0
    3.2101    2.9975    3.5959 H   0  0  0  0  0  0  0  0  0  0  0  0
    4.6223    4.7602    1.8287 H   0  0  0  0  0  0  0  0  0  0  0  0
    5.8075    4.5187   -2.4998 H   0  0  0  0  0  0  0  0  0  0  0  0
    7.1148    1.2099   -4.8264 H   0  0  0  0  0  0  0  0  0  0  0  0
    8.1973    1.0240   -3.4577 H   0  0  0  0  0  0  0  0  0  0  0  0
    8.6629    2.0574   -4.8749 H   0  0  0  0  0  0  0  0  0  0  0  0
  1  2  1  0  0  0  0
  1 36  1  0  0  0  0
  1 37  1  0  0  0  0
  1 38  1  0  0  0  0
  2  3  1  0  0  0  0
  3  4  1  0  0  0  0
  3 33  2  0  0  0  0
  4  5  2  0  0  0  0
  4 39  1  0  0  0  0
  5  6  1  0  0  0  0
  5 31  1  0  0  0  0
  6  7  2  0  0  0  0
  7  8  1  0  0  0  0
  7 40  1  0  0  0  0
  8  9  2  0  0  0  0
  8 41  1  0  0  0  0
  9 10  1  0  0  0  0
  9 31  1  0  0  0  0
 10 11  1  0  0  0  0
 11 12  1  0  0  0  0
 11 30  2  0  0  0  0
 12 13  2  0  0  0  0
 12 42  1  0  0  0  0
 13 14  1  0  0  0  0
 13 43  1  0  0  0  0
 14 15  1  0  0  0  0
 14 29  2  0  0  0  0
 15 16  1  0  0  0  0
 15 26  2  0  0  0  0
 16 17  1  0  0  0  0
 16 44  1  0  0  0  0
 17 18  2  0  0  0  0
 17 19  1  0  0  0  0
 19 20  1  0  0  0  0
 19 25  2  0  0  0  0
 20 21  2  0  0  0  0
 20 45  1  0  0  0  0
 21 22  1  0  0  0  0
 21 46  1  0  0  0  0
 22 23  1  0  0  0  0
 22 24  2  0  0  0  0
 24 25  1  0  0  0  0
 24 47  1  0  0  0  0
 25 48  1  0  0  0  0
 26 27  1  0  0  0  0
 27 28  1  0  0  0  0
 27 29  1  0  0  0  0
 28 49  1  0  0  0  0
 28 50  1  0  0  0  0
 28 51  1  0  0  0  0
 29 30  1  0  0  0  0
 30 52  1  0  0  0  0
 31 32  2  0  0  0  0
 32 33  1  0  0  0  0
 32 53  1  0  0  0  0
 33 34  1  0  0  0  0
 34 35  1  0  0  0  0
 35 54  1  0  0  0  0
 35 55  1  0  0  0  0
 35 56  1  0  0  0  0
M  END
$$$$
