CHEMBL1242107
 OpenBabel04072215363D

 50 53  0  0  0  0  0  0  0  0999 V2000
    0.8748    0.2175   -1.8179 C   0  0  0  0  0  0  0  0  0  0  0  0
    2.2917    0.1284   -1.7003 O   0  0  0  0  0  0  0  0  0  0  0  0
    2.9495    1.3146   -1.7102 C   0  0  0  0  0  0  0  0  0  0  0  0
    2.4461    2.4194   -1.7962 O   0  0  0  0  0  0  0  0  0  0  0  0
    4.4162    1.0848   -1.6136 C   0  0  0  0  0  0  0  0  0  0  0  0
    4.9304   -0.2145   -1.4977 C   0  0  0  0  0  0  0  0  0  0  0  0
    6.2976   -0.4116   -1.4079 C   0  0  0  0  0  0  0  0  0  0  0  0
    7.1510    0.6868   -1.4502 C   0  0  0  0  0  0  0  0  0  0  0  0
    6.6719    1.9951   -1.6307 C   0  0  0  0  0  0  0  0  0  0  0  0
    7.5408    3.1106   -1.8158 N   0  0  0  0  0  0  0  0  0  0  0  0
    8.8568    2.9714   -2.2209 C   0  0  0  0  0  0  0  0  0  0  0  0
    9.3736    1.8795   -2.4319 O   0  0  0  0  0  0  0  0  0  0  0  0
    9.5325    4.1715   -2.3887 N   0  0  0  0  0  0  0  0  0  0  0  0
   10.8653    4.2370   -2.8888 C   0  0  0  0  0  0  0  0  0  0  0  0
   11.4598    3.1587   -3.5448 C   0  0  0  0  0  0  0  0  0  0  0  0
   12.8216    3.1367   -3.8312 C   0  0  0  0  0  0  0  0  0  0  0  0
   13.6168    4.2623   -3.6379 C   0  0  0  0  0  0  0  0  0  0  0  0
   15.0626    4.2030   -3.9314 C   0  0  0  0  0  0  0  0  0  0  0  0
   15.5612    3.5103   -5.0424 C   0  0  0  0  0  0  0  0  0  0  0  0
   14.8953    2.7579   -6.1594 C   0  0  0  0  0  0  0  0  0  0  0  0
   17.2738    3.5319   -5.0992 S   0  0  0  0  0  0  0  0  0  0  0  0
   17.3845    4.4722   -3.7007 C   0  0  0  0  0  0  0  0  0  0  0  0
   18.6011    4.8309   -3.2600 N   0  0  0  0  0  0  0  0  0  0  0  0
   18.5452    5.5614   -2.1520 C   0  0  0  0  0  0  0  0  0  0  0  0
   17.4485    5.9198   -1.4763 N   0  0  0  0  0  0  0  0  0  0  0  0
   16.2450    5.5256   -1.9349 C   0  0  0  0  0  0  0  0  0  0  0  0
   15.1778    5.9065   -1.1292 N   0  0  0  0  0  0  0  0  0  0  0  0
   16.1555    4.7728   -3.1297 C   0  0  0  0  0  0  0  0  0  0  0  0
   12.9857    5.4083   -3.1285 C   0  0  0  0  0  0  0  0  0  0  0  0
   11.6369    5.3844   -2.7077 C   0  0  0  0  0  0  0  0  0  0  0  0
    5.2885    2.1921   -1.6687 C   0  0  0  0  0  0  0  0  0  0  0  0
    0.4676   -0.7897   -1.6904 H   0  0  0  0  0  0  0  0  0  0  0  0
    0.6054    0.5792   -2.8133 H   0  0  0  0  0  0  0  0  0  0  0  0
    0.4578    0.8608   -1.0381 H   0  0  0  0  0  0  0  0  0  0  0  0
    4.2800   -1.0850   -1.4789 H   0  0  0  0  0  0  0  0  0  0  0  0
    6.7109   -1.4125   -1.3207 H   0  0  0  0  0  0  0  0  0  0  0  0
    8.2104    0.4710   -1.3508 H   0  0  0  0  0  0  0  0  0  0  0  0
    7.1128    4.0162   -1.9407 H   0  0  0  0  0  0  0  0  0  0  0  0
    9.1828    4.9770   -1.8914 H   0  0  0  0  0  0  0  0  0  0  0  0
   10.9009    2.2743   -3.8311 H   0  0  0  0  0  0  0  0  0  0  0  0
   13.2281    2.2018   -4.2057 H   0  0  0  0  0  0  0  0  0  0  0  0
   13.8168    2.9147   -6.2111 H   0  0  0  0  0  0  0  0  0  0  0  0
   15.0782    1.6815   -6.0478 H   0  0  0  0  0  0  0  0  0  0  0  0
   15.2941    3.0698   -7.1306 H   0  0  0  0  0  0  0  0  0  0  0  0
   19.4932    5.8985   -1.7463 H   0  0  0  0  0  0  0  0  0  0  0  0
   15.5371    6.2577   -0.2473 H   0  0  0  0  0  0  0  0  0  0  0  0
   14.4650    5.1923   -1.0431 H   0  0  0  0  0  0  0  0  0  0  0  0
   13.5461    6.3333   -3.0019 H   0  0  0  0  0  0  0  0  0  0  0  0
   11.2281    6.2660   -2.2205 H   0  0  0  0  0  0  0  0  0  0  0  0
    4.8722    3.1901   -1.7834 H   0  0  0  0  0  0  0  0  0  0  0  0
  1  2  1  0  0  0  0
  1 32  1  0  0  0  0
  1 33  1  0  0  0  0
  1 34  1  0  0  0  0
  2  3  1  0  0  0  0
  3  4  2  0  0  0  0
  3  5  1  0  0  0  0
  5  6  1  0  0  0  0
  5 31  2  0  0  0  0
  6  7  2  0  0  0  0
  6 35  1  0  0  0  0
  7  8  1  0  0  0  0
  7 36  1  0  0  0  0
  8  9  2  0  0  0  0
  8 37  1  0  0  0  0
  9 10  1  0  0  0  0
  9 31  1  0  0  0  0
 10 11  1  0  0  0  0
 10 38  1  0  0  0  0
 11 12  2  0  0  0  0
 11 13  1  0  0  0  0
 13 14  1  0  0  0  0
 13 39  1  0  0  0  0
 14 15  1  0  0  0  0
 14 30  2  0  0  0  0
 15 16  2  0  0  0  0
 15 40  1  0  0  0  0
 16 17  1  0  0  0  0
 16 41  1  0  0  0  0
 17 18  1  0  0  0  0
 17 29  2  0  0  0  0
 18 19  2  0  0  0  0
 18 28  1  0  0  0  0
 19 20  1  0  0  0  0
 19 21  1  0  0  0  0
 20 42  1  0  0  0  0
 20 43  1  0  0  0  0
 20 44  1  0  0  0  0
 21 22  1  0  0  0  0
 22 23  1  0  0  0  0
 22 28  2  0  0  0  0
 23 24  2  0  0  0  0
 24 25  1  0  0  0  0
 24 45  1  0  0  0  0
 25 26  2  0  0  0  0
 26 27  1  0  0  0  0
 26 28  1  0  0  0  0
 27 46  1  0  0  0  0
 27 47  1  0  0  0  0
 29 30  1  0  0  0  0
 29 48  1  0  0  0  0
 30 49  1  0  0  0  0
 31 50  1  0  0  0  0
M  END
$$$$
