CHEMBL4541917
 OpenBabel04072215383D

 49 52  0  0  0  0  0  0  0  0999 V2000
    0.7375   -8.3859   -1.4234 C   0  0  0  0  0  0  0  0  0  0  0  0
    2.0935   -8.1665   -1.0438 O   0  0  0  0  0  0  0  0  0  0  0  0
    2.7558   -7.1637   -1.7035 C   0  0  0  0  0  0  0  0  0  0  0  0
    2.0962   -6.0413   -2.2231 C   0  0  0  0  0  0  0  0  0  0  0  0
    2.8010   -5.0128   -2.8662 C   0  0  0  0  0  0  0  0  0  0  0  0
    4.1897   -5.0737   -3.0053 C   0  0  0  0  0  0  0  0  0  0  0  0
    4.9673   -3.9398   -3.6464 C   0  0  0  0  0  0  0  0  0  0  0  0
    4.5153   -3.5283   -5.0529 C   0  0  0  0  0  0  0  0  0  0  0  0
    3.6800   -2.6467   -5.2345 O   0  0  0  0  0  0  0  0  0  0  0  0
    5.1113   -4.2713   -6.0629 N   0  0  0  0  0  0  0  0  0  0  0  0
    4.8006   -4.1375   -7.4395 C   0  0  0  0  0  0  0  0  0  0  0  0
    4.5189   -5.3309   -8.1142 C   0  0  0  0  0  0  0  0  0  0  0  0
    4.2032   -5.3524   -9.4717 C   0  0  0  0  0  0  0  0  0  0  0  0
    4.2524   -4.1224  -10.1168 C   0  0  0  0  0  0  0  0  0  0  0  0
    3.9978   -3.9265  -11.4306 O   0  0  0  0  0  0  0  0  0  0  0  0
    4.1499   -2.5729  -11.6120 C   0  0  0  0  0  0  0  0  0  0  0  0
    3.8160   -2.1333  -12.9761 C   0  0  0  0  0  0  0  0  0  0  0  0
    3.0159   -2.9594  -13.7955 C   0  0  0  0  0  0  0  0  0  0  0  0
    2.6388   -2.5774  -15.0853 C   0  0  0  0  0  0  0  0  0  0  0  0
    3.0660   -1.3572  -15.5892 C   0  0  0  0  0  0  0  0  0  0  0  0
    3.8759   -0.5302  -14.8090 C   0  0  0  0  0  0  0  0  0  0  0  0
    4.2479   -0.9133  -13.5076 C   0  0  0  0  0  0  0  0  0  0  0  0
    4.5200   -1.9227  -10.5137 N   0  0  0  0  0  0  0  0  0  0  0  0
    4.5531   -2.9119   -9.5225 C   0  0  0  0  0  0  0  0  0  0  0  0
    4.8147   -2.8993   -8.1347 C   0  0  0  0  0  0  0  0  0  0  0  0
    4.8542   -6.1677   -2.4228 C   0  0  0  0  0  0  0  0  0  0  0  0
    4.1564   -7.2165   -1.7905 C   0  0  0  0  0  0  0  0  0  0  0  0
    4.9825   -8.1786   -1.2639 O   0  0  0  0  0  0  0  0  0  0  0  0
    4.4831   -9.5106   -1.2231 C   0  0  0  0  0  0  0  0  0  0  0  0
    0.4174   -9.3402   -0.9927 H   0  0  0  0  0  0  0  0  0  0  0  0
    0.6345   -8.4613   -2.5114 H   0  0  0  0  0  0  0  0  0  0  0  0
    0.0848   -7.6079   -1.0174 H   0  0  0  0  0  0  0  0  0  0  0  0
    1.0239   -5.9178   -2.1076 H   0  0  0  0  0  0  0  0  0  0  0  0
    2.2481   -4.1475   -3.2304 H   0  0  0  0  0  0  0  0  0  0  0  0
    6.0334   -4.1971   -3.6927 H   0  0  0  0  0  0  0  0  0  0  0  0
    4.8978   -3.0566   -3.0001 H   0  0  0  0  0  0  0  0  0  0  0  0
    5.4038   -5.1970   -5.7689 H   0  0  0  0  0  0  0  0  0  0  0  0
    4.4819   -6.2729   -7.5688 H   0  0  0  0  0  0  0  0  0  0  0  0
    3.9345   -6.2585   -9.9963 H   0  0  0  0  0  0  0  0  0  0  0  0
    2.6620   -3.9212  -13.4259 H   0  0  0  0  0  0  0  0  0  0  0  0
    2.0122   -3.2331  -15.6838 H   0  0  0  0  0  0  0  0  0  0  0  0
    2.7673   -1.0511  -16.5905 H   0  0  0  0  0  0  0  0  0  0  0  0
    4.2157    0.4188  -15.2167 H   0  0  0  0  0  0  0  0  0  0  0  0
    4.8813   -0.2509  -12.9230 H   0  0  0  0  0  0  0  0  0  0  0  0
    5.0577   -1.9670   -7.6347 H   0  0  0  0  0  0  0  0  0  0  0  0
    5.9414   -6.2186   -2.4393 H   0  0  0  0  0  0  0  0  0  0  0  0
    5.3389  -10.1775   -1.0695 H   0  0  0  0  0  0  0  0  0  0  0  0
    4.0103   -9.7958   -2.1684 H   0  0  0  0  0  0  0  0  0  0  0  0
    3.8124   -9.6626   -0.3728 H   0  0  0  0  0  0  0  0  0  0  0  0
  1  2  1  0  0  0  0
  1 30  1  0  0  0  0
  1 31  1  0  0  0  0
  1 32  1  0  0  0  0
  2  3  1  0  0  0  0
  3  4  1  0  0  0  0
  3 27  2  0  0  0  0
  4  5  2  0  0  0  0
  4 33  1  0  0  0  0
  5  6  1  0  0  0  0
  5 34  1  0  0  0  0
  6  7  1  0  0  0  0
  6 26  2  0  0  0  0
  7  8  1  0  0  0  0
  7 35  1  0  0  0  0
  7 36  1  0  0  0  0
  8  9  2  0  0  0  0
  8 10  1  0  0  0  0
 10 11  1  0  0  0  0
 10 37  1  0  0  0  0
 11 12  1  0  0  0  0
 11 25  2  0  0  0  0
 12 13  2  0  0  0  0
 12 38  1  0  0  0  0
 13 14  1  0  0  0  0
 13 39  1  0  0  0  0
 14 15  1  0  0  0  0
 14 24  2  0  0  0  0
 15 16  1  0  0  0  0
 16 17  1  0  0  0  0
 16 23  2  0  0  0  0
 17 18  1  0  0  0  0
 17 22  2  0  0  0  0
 18 19  2  0  0  0  0
 18 40  1  0  0  0  0
 19 20  1  0  0  0  0
 19 41  1  0  0  0  0
 20 21  2  0  0  0  0
 20 42  1  0  0  0  0
 21 22  1  0  0  0  0
 21 43  1  0  0  0  0
 22 44  1  0  0  0  0
 23 24  1  0  0  0  0
 24 25  1  0  0  0  0
 25 45  1  0  0  0  0
 26 27  1  0  0  0  0
 26 46  1  0  0  0  0
 27 28  1  0  0  0  0
 28 29  1  0  0  0  0
 29 47  1  0  0  0  0
 29 48  1  0  0  0  0
 29 49  1  0  0  0  0
M  END
$$$$
