CHEMBL4079338
 OpenBabel04072215383D

 43 46  0  0  0  0  0  0  0  0999 V2000
   -1.0897    2.2141   -3.3704 C   0  0  0  0  0  0  0  0  0  0  0  0
   -1.3521    1.0496   -2.4859 C   0  0  0  0  0  0  0  0  0  0  0  0
   -1.7739   -0.0825   -3.0818 N   0  0  0  0  0  0  0  0  0  0  0  0
   -1.9444   -0.9363   -2.0633 N   0  0  0  0  0  0  0  0  0  0  0  0
   -1.6520   -0.4185   -0.8452 C   0  0  0  0  0  0  0  0  0  0  0  0
   -1.7537   -1.0915    0.3128 N   0  0  0  0  0  0  0  0  0  0  0  0
   -1.3968   -0.3613    1.3802 C   0  0  0  0  0  0  0  0  0  0  0  0
   -0.9604    0.9578    1.3361 C   0  0  0  0  0  0  0  0  0  0  0  0
   -0.8632    1.6384    0.1034 C   0  0  0  0  0  0  0  0  0  0  0  0
   -0.3756    3.0246    0.0451 C   0  0  0  0  0  0  0  0  0  0  0  0
    0.5518    3.4097   -0.9256 C   0  0  0  0  0  0  0  0  0  0  0  0
    0.9537    4.7365   -1.0723 C   0  0  0  0  0  0  0  0  0  0  0  0
    0.5190    5.7229   -0.1879 C   0  0  0  0  0  0  0  0  0  0  0  0
    0.9341    7.0745   -0.2884 N   0  0  0  0  0  0  0  0  0  0  0  0
    1.5717    7.6239   -1.3875 C   0  0  0  0  0  0  0  0  0  0  0  0
    1.7142    7.0711   -2.4724 O   0  0  0  0  0  0  0  0  0  0  0  0
    2.0931    8.8800   -1.1035 N   0  0  0  0  0  0  0  0  0  0  0  0
    2.8114    9.5975   -2.0900 C   0  0  0  0  0  0  0  0  0  0  0  0
    4.0199   10.2016   -1.7353 C   0  0  0  0  0  0  0  0  0  0  0  0
    4.7969   10.8344   -2.7098 C   0  0  0  0  0  0  0  0  0  0  0  0
    4.3466   10.9078   -4.0287 C   0  0  0  0  0  0  0  0  0  0  0  0
    3.1203   10.3432   -4.3701 C   0  0  0  0  0  0  0  0  0  0  0  0
    2.4960   10.4620   -6.1514 Br  0  0  0  0  0  0  0  0  0  0  0  0
    2.3543    9.6843   -3.4103 C   0  0  0  0  0  0  0  0  0  0  0  0
   -0.3183    5.3413    0.8612 C   0  0  0  0  0  0  0  0  0  0  0  0
   -0.7727    4.0134    0.9644 C   0  0  0  0  0  0  0  0  0  0  0  0
   -1.2389    0.8954   -1.0548 C   0  0  0  0  0  0  0  0  0  0  0  0
   -1.4141    2.0113   -4.3983 H   0  0  0  0  0  0  0  0  0  0  0  0
   -0.0211    2.4306   -3.4360 H   0  0  0  0  0  0  0  0  0  0  0  0
   -1.6267    3.1013   -3.0247 H   0  0  0  0  0  0  0  0  0  0  0  0
   -2.2695   -1.8755   -2.2590 H   0  0  0  0  0  0  0  0  0  0  0  0
   -1.4627   -0.8851    2.3300 H   0  0  0  0  0  0  0  0  0  0  0  0
   -0.6766    1.4421    2.2658 H   0  0  0  0  0  0  0  0  0  0  0  0
    0.9820    2.6715   -1.5962 H   0  0  0  0  0  0  0  0  0  0  0  0
    1.6240    4.9511   -1.8962 H   0  0  0  0  0  0  0  0  0  0  0  0
    0.5835    7.7193    0.3999 H   0  0  0  0  0  0  0  0  0  0  0  0
    2.4089    8.9872   -0.1504 H   0  0  0  0  0  0  0  0  0  0  0  0
    4.4033   10.1299   -0.7218 H   0  0  0  0  0  0  0  0  0  0  0  0
    5.7641   11.2545   -2.4455 H   0  0  0  0  0  0  0  0  0  0  0  0
    4.9582   11.3984   -4.7812 H   0  0  0  0  0  0  0  0  0  0  0  0
    1.4063    9.2334   -3.6942 H   0  0  0  0  0  0  0  0  0  0  0  0
   -0.6434    6.0641    1.6067 H   0  0  0  0  0  0  0  0  0  0  0  0
   -1.4515    3.7640    1.7784 H   0  0  0  0  0  0  0  0  0  0  0  0
  1  2  1  0  0  0  0
  1 28  1  0  0  0  0
  1 29  1  0  0  0  0
  1 30  1  0  0  0  0
  2  3  2  0  0  0  0
  2 27  1  0  0  0  0
  3  4  1  0  0  0  0
  4  5  1  0  0  0  0
  4 31  1  0  0  0  0
  5  6  1  0  0  0  0
  5 27  2  0  0  0  0
  6  7  2  0  0  0  0
  7  8  1  0  0  0  0
  7 32  1  0  0  0  0
  8  9  2  0  0  0  0
  8 33  1  0  0  0  0
  9 10  1  0  0  0  0
  9 27  1  0  0  0  0
 10 11  1  0  0  0  0
 10 26  2  0  0  0  0
 11 12  2  0  0  0  0
 11 34  1  0  0  0  0
 12 13  1  0  0  0  0
 12 35  1  0  0  0  0
 13 14  1  0  0  0  0
 13 25  2  0  0  0  0
 14 15  1  0  0  0  0
 14 36  1  0  0  0  0
 15 16  2  0  0  0  0
 15 17  1  0  0  0  0
 17 18  1  0  0  0  0
 17 37  1  0  0  0  0
 18 19  1  0  0  0  0
 18 24  2  0  0  0  0
 19 20  2  0  0  0  0
 19 38  1  0  0  0  0
 20 21  1  0  0  0  0
 20 39  1  0  0  0  0
 21 22  2  0  0  0  0
 21 40  1  0  0  0  0
 22 23  1  0  0  0  0
 22 24  1  0  0  0  0
 24 41  1  0  0  0  0
 25 26  1  0  0  0  0
 25 42  1  0  0  0  0
 26 43  1  0  0  0  0
M  END
$$$$
