CHEMBL171616
 OpenBabel04072215363D

 31 34  0  0  0  0  0  0  0  0999 V2000
    1.3629   -0.2381    0.1905 C   0  0  0  0  0  0  0  0  0  0  0  0
    0.8131    0.9301    0.7183 C   0  0  0  0  0  0  0  0  0  0  0  0
   -0.5543    1.1807    0.5905 C   0  0  0  0  0  0  0  0  0  0  0  0
   -1.3760    0.2629   -0.0695 C   0  0  0  0  0  0  0  0  0  0  0  0
   -2.8234    0.5040   -0.1838 C   0  0  0  0  0  0  0  0  0  0  0  0
   -3.7655   -0.0093    0.8094 C   0  0  0  0  0  0  0  0  0  0  0  0
   -5.0827    0.1911    0.6423 C   0  0  0  0  0  0  0  0  0  0  0  0
   -5.5376    0.8939   -0.4738 N   0  0  0  0  0  0  0  0  0  0  0  0
   -6.8193    1.1732   -0.9113 C   0  0  0  0  0  0  0  0  0  0  0  0
   -8.1173    0.8632   -0.2480 C   0  0  0  0  0  0  0  0  0  0  0  0
   -8.3632    0.7385    1.1520 C   0  0  0  0  0  0  0  0  0  0  0  0
   -9.5984    0.4193    1.5289 N   0  0  0  0  0  0  0  0  0  0  0  0
  -10.5369    0.2774    0.1688 S   0  0  0  0  0  0  0  0  0  0  0  0
   -9.2923    0.6592   -0.9445 C   0  0  0  0  0  0  0  0  0  0  0  0
   -6.6541    1.7899   -2.1355 C   0  0  0  0  0  0  0  0  0  0  0  0
   -5.3289    1.9398   -2.4492 N   0  0  0  0  0  0  0  0  0  0  0  0
   -4.6724    1.3871   -1.4518 C   0  0  0  0  0  0  0  0  0  0  0  0
   -3.2740    1.1824   -1.2629 C   0  0  0  0  0  0  0  0  0  0  0  0
   -0.8197   -0.9109   -0.5962 C   0  0  0  0  0  0  0  0  0  0  0  0
    0.5477   -1.1582   -0.4670 C   0  0  0  0  0  0  0  0  0  0  0  0
    2.4281   -0.4310    0.2913 H   0  0  0  0  0  0  0  0  0  0  0  0
    1.4493    1.6465    1.2309 H   0  0  0  0  0  0  0  0  0  0  0  0
   -0.9729    2.0927    1.0095 H   0  0  0  0  0  0  0  0  0  0  0  0
   -3.3796   -0.5664    1.6571 H   0  0  0  0  0  0  0  0  0  0  0  0
   -5.8077   -0.2091    1.3353 H   0  0  0  0  0  0  0  0  0  0  0  0
   -7.6502    0.9035    1.9484 H   0  0  0  0  0  0  0  0  0  0  0  0
   -9.4769    0.6623   -2.0089 H   0  0  0  0  0  0  0  0  0  0  0  0
   -7.4203    2.1683   -2.8006 H   0  0  0  0  0  0  0  0  0  0  0  0
   -2.6032    1.5644   -2.0252 H   0  0  0  0  0  0  0  0  0  0  0  0
   -1.4477   -1.6370   -1.1079 H   0  0  0  0  0  0  0  0  0  0  0  0
    0.9762   -2.0689   -0.8778 H   0  0  0  0  0  0  0  0  0  0  0  0
  1  2  1  0  0  0  0
  1 20  2  0  0  0  0
  1 21  1  0  0  0  0
  2  3  2  0  0  0  0
  2 22  1  0  0  0  0
  3  4  1  0  0  0  0
  3 23  1  0  0  0  0
  4  5  1  0  0  0  0
  4 19  2  0  0  0  0
  5  6  1  0  0  0  0
  5 18  2  0  0  0  0
  6  7  2  0  0  0  0
  6 24  1  0  0  0  0
  7  8  1  0  0  0  0
  7 25  1  0  0  0  0
  8  9  1  0  0  0  0
  8 17  1  0  0  0  0
  9 10  1  0  0  0  0
  9 15  2  0  0  0  0
 10 11  1  0  0  0  0
 10 14  2  0  0  0  0
 11 12  2  0  0  0  0
 11 26  1  0  0  0  0
 12 13  1  0  0  0  0
 13 14  1  0  0  0  0
 14 27  1  0  0  0  0
 15 16  1  0  0  0  0
 15 28  1  0  0  0  0
 16 17  2  0  0  0  0
 17 18  1  0  0  0  0
 18 29  1  0  0  0  0
 19 20  1  0  0  0  0
 19 30  1  0  0  0  0
 20 31  1  0  0  0  0
M  END
$$$$
