CHEMBL462338
 OpenBabel04072215383D

 42 46  0  0  0  0  0  0  0  0999 V2000
   -1.4017   -4.8219   -4.5158 C   0  0  0  0  0  0  0  0  0  0  0  0
   -0.7797   -5.4407   -3.3952 O   0  0  0  0  0  0  0  0  0  0  0  0
    0.5304   -5.0290   -3.2543 C   0  0  0  0  0  0  0  0  0  0  0  0
    0.8748   -3.8233   -3.7372 N   0  0  0  0  0  0  0  0  0  0  0  0
    2.1577   -3.3799   -3.6553 C   0  0  0  0  0  0  0  0  0  0  0  0
    2.4898   -2.1028   -4.1562 N   0  0  0  0  0  0  0  0  0  0  0  0
    1.6875   -1.1884   -4.8728 C   0  0  0  0  0  0  0  0  0  0  0  0
    1.9415    0.1901   -4.8298 C   0  0  0  0  0  0  0  0  0  0  0  0
    1.0738    1.1249   -5.4493 C   0  0  0  0  0  0  0  0  0  0  0  0
   -0.0846    0.7124   -6.1269 C   0  0  0  0  0  0  0  0  0  0  0  0
   -1.0242    1.6900   -6.7438 C   0  0  0  0  0  0  0  0  0  0  0  0
   -0.8450    2.9971   -6.8317 N   0  0  0  0  0  0  0  0  0  0  0  0
   -1.9421    3.6067   -7.4481 C   0  0  0  0  0  0  0  0  0  0  0  0
   -2.1166    4.9840   -7.7095 C   0  0  0  0  0  0  0  0  0  0  0  0
   -3.2965    5.4415   -8.3184 C   0  0  0  0  0  0  0  0  0  0  0  0
   -4.3016    4.5493   -8.6768 C   0  0  0  0  0  0  0  0  0  0  0  0
   -4.1502    3.1831   -8.4408 C   0  0  0  0  0  0  0  0  0  0  0  0
   -2.9670    2.7396   -7.8239 C   0  0  0  0  0  0  0  0  0  0  0  0
   -2.5237    1.1424   -7.4134 S   0  0  0  0  0  0  0  0  0  0  0  0
   -0.3151   -0.6689   -6.1801 C   0  0  0  0  0  0  0  0  0  0  0  0
    0.5512   -1.5880   -5.5758 C   0  0  0  0  0  0  0  0  0  0  0  0
    3.0845   -4.2470   -3.0309 C   0  0  0  0  0  0  0  0  0  0  0  0
    4.4795   -4.2569   -2.7324 C   0  0  0  0  0  0  0  0  0  0  0  0
    4.7730   -5.4504   -2.1005 C   0  0  0  0  0  0  0  0  0  0  0  0
    3.6101   -6.1606   -1.9925 N   0  0  0  0  0  0  0  0  0  0  0  0
    2.5846   -5.4564   -2.5589 C   0  0  0  0  0  0  0  0  0  0  0  0
    1.3257   -5.9019   -2.6310 N   0  0  0  0  0  0  0  0  0  0  0  0
   -2.3922   -5.2666   -4.6420 H   0  0  0  0  0  0  0  0  0  0  0  0
   -0.8334   -5.0083   -5.4349 H   0  0  0  0  0  0  0  0  0  0  0  0
   -1.5421   -3.7476   -4.3549 H   0  0  0  0  0  0  0  0  0  0  0  0
    3.4183   -1.7860   -3.9182 H   0  0  0  0  0  0  0  0  0  0  0  0
    2.8069    0.5669   -4.2899 H   0  0  0  0  0  0  0  0  0  0  0  0
    1.3068    2.1864   -5.3754 H   0  0  0  0  0  0  0  0  0  0  0  0
   -1.3381    5.6878   -7.4333 H   0  0  0  0  0  0  0  0  0  0  0  0
   -3.4294    6.5036   -8.5123 H   0  0  0  0  0  0  0  0  0  0  0  0
   -5.2144    4.9136   -9.1440 H   0  0  0  0  0  0  0  0  0  0  0  0
   -4.9295    2.4803   -8.7215 H   0  0  0  0  0  0  0  0  0  0  0  0
   -1.1832   -1.0845   -6.6843 H   0  0  0  0  0  0  0  0  0  0  0  0
    0.3087   -2.6400   -5.6795 H   0  0  0  0  0  0  0  0  0  0  0  0
    5.2016   -3.4859   -2.9636 H   0  0  0  0  0  0  0  0  0  0  0  0
    5.7015   -5.8578   -1.7219 H   0  0  0  0  0  0  0  0  0  0  0  0
    3.4924   -7.0766   -1.5768 H   0  0  0  0  0  0  0  0  0  0  0  0
  1  2  1  0  0  0  0
  1 28  1  0  0  0  0
  1 29  1  0  0  0  0
  1 30  1  0  0  0  0
  2  3  1  0  0  0  0
  3  4  1  0  0  0  0
  3 27  2  0  0  0  0
  4  5  2  0  0  0  0
  5  6  1  0  0  0  0
  5 22  1  0  0  0  0
  6  7  1  0  0  0  0
  6 31  1  0  0  0  0
  7  8  1  0  0  0  0
  7 21  2  0  0  0  0
  8  9  2  0  0  0  0
  8 32  1  0  0  0  0
  9 10  1  0  0  0  0
  9 33  1  0  0  0  0
 10 11  1  0  0  0  0
 10 20  2  0  0  0  0
 11 12  2  0  0  0  0
 11 19  1  0  0  0  0
 12 13  1  0  0  0  0
 13 14  1  0  0  0  0
 13 18  2  0  0  0  0
 14 15  2  0  0  0  0
 14 34  1  0  0  0  0
 15 16  1  0  0  0  0
 15 35  1  0  0  0  0
 16 17  2  0  0  0  0
 16 36  1  0  0  0  0
 17 18  1  0  0  0  0
 17 37  1  0  0  0  0
 18 19  1  0  0  0  0
 20 21  1  0  0  0  0
 20 38  1  0  0  0  0
 21 39  1  0  0  0  0
 22 23  1  0  0  0  0
 22 26  2  0  0  0  0
 23 24  2  0  0  0  0
 23 40  1  0  0  0  0
 24 25  1  0  0  0  0
 24 41  1  0  0  0  0
 25 26  1  0  0  0  0
 25 42  1  0  0  0  0
 26 27  1  0  0  0  0
M  END
$$$$
