CHEMBL3932577
 OpenBabel04072215373D

 61 64  0  0  1  0  0  0  0  0999 V2000
    3.9179   -6.3614   -1.9303 C   0  0  0  0  0  0  0  0  0  0  0  0
    3.8281   -4.9507   -1.5685 N   0  0  0  0  0  0  0  0  0  0  0  0
    4.6227   -4.6374   -0.3737 C   0  0  0  0  0  0  0  0  0  0  0  0
    4.4711   -3.1417   -0.0491 C   0  0  3  0  0  0  0  0  0  0  0  0
    3.0922   -2.8659    0.2833 O   0  0  0  0  0  0  0  0  0  0  0  0
    5.3624   -2.5953    1.0998 C   0  0  0  0  0  0  0  0  0  0  0  0
    6.8299   -2.9257    0.9852 N   0  0  0  0  0  0  0  0  0  0  0  0
    7.5704   -1.7292    0.6930 C   0  0  0  0  0  0  0  0  0  0  0  0
    8.6770   -1.3009    1.4488 C   0  0  0  0  0  0  0  0  0  0  0  0
    9.2965   -0.0660    1.1754 C   0  0  0  0  0  0  0  0  0  0  0  0
   10.3591    0.4933    1.8374 O   0  0  0  0  0  0  0  0  0  0  0  0
   10.9013   -0.2215    2.9331 C   0  0  0  0  0  0  0  0  0  0  0  0
    8.8368    0.7434    0.1332 C   0  0  0  0  0  0  0  0  0  0  0  0
    7.7674    0.3281   -0.6406 C   0  0  0  0  0  0  0  0  0  0  0  0
    7.2594    1.0447   -1.6894 O   0  0  0  0  0  0  0  0  0  0  0  0
    8.2723    1.5517   -2.5568 C   0  0  0  0  0  0  0  0  0  0  0  0
    7.1293   -0.8727   -0.3416 C   0  0  0  0  0  0  0  0  0  0  0  0
    7.2731   -4.1457    1.5921 C   0  0  0  0  0  0  0  0  0  0  0  0
    6.4399   -4.7965    2.5023 C   0  0  0  0  0  0  0  0  0  0  0  0
    6.8119   -5.9399    3.1832 C   0  0  0  0  0  0  0  0  0  0  0  0
    8.0014   -6.5545    2.9132 C   0  0  0  0  0  0  0  0  0  0  0  0
    8.1803   -7.6076    3.7060 N   0  0  0  0  0  0  0  0  0  0  0  0
    9.2045   -8.3944    3.4016 C   0  0  0  0  0  0  0  0  0  0  0  0
   10.0170   -8.1621    2.3053 C   0  0  0  0  0  0  0  0  0  0  0  0
   10.8852   -9.2721    1.9533 C   0  0  0  0  0  0  0  0  0  0  0  0
   10.7026  -10.2777    0.9712 C   0  0  0  0  0  0  0  0  0  0  0  0
   11.5253  -11.3219    1.1352 N   0  0  0  0  0  0  0  0  0  0  0  0
   12.2270  -10.9988    2.2341 N   0  0  0  0  0  0  0  0  0  0  0  0
   13.3817  -11.7698    2.6296 C   0  0  0  0  0  0  0  0  0  0  0  0
   11.7741   -9.8616    2.8402 C   0  0  0  0  0  0  0  0  0  0  0  0
    9.8880   -7.0046    1.5489 N   0  0  0  0  0  0  0  0  0  0  0  0
    8.8505   -6.1254    1.8700 C   0  0  0  0  0  0  0  0  0  0  0  0
    8.4852   -4.8425    1.2729 C   0  0  0  0  0  0  0  0  0  0  0  0
    3.3229   -6.5495   -2.8217 H   0  0  0  0  0  0  0  0  0  0  0  0
    3.5462   -7.0092   -1.1229 H   0  0  0  0  0  0  0  0  0  0  0  0
    4.9548   -6.6383   -2.1565 H   0  0  0  0  0  0  0  0  0  0  0  0
    2.8507   -4.6837   -1.4130 H   0  0  0  0  0  0  0  0  0  0  0  0
    5.6719   -4.8803   -0.5782 H   0  0  0  0  0  0  0  0  0  0  0  0
    4.2701   -5.2583    0.4734 H   0  0  0  0  0  0  0  0  0  0  0  0
    4.6890   -2.5737   -0.9555 H   0  0  0  0  0  0  0  0  0  0  0  0
    2.8062   -3.5165    0.9482 H   0  0  0  0  0  0  0  0  0  0  0  0
    4.9325   -2.8591    2.0703 H   0  0  0  0  0  0  0  0  0  0  0  0
    5.1967   -1.5069    1.1506 H   0  0  0  0  0  0  0  0  0  0  0  0
    9.0091   -1.9095    2.2817 H   0  0  0  0  0  0  0  0  0  0  0  0
   11.7820    0.3269    3.2818 H   0  0  0  0  0  0  0  0  0  0  0  0
   11.2308   -1.2206    2.6338 H   0  0  0  0  0  0  0  0  0  0  0  0
   10.1852   -0.2673    3.7599 H   0  0  0  0  0  0  0  0  0  0  0  0
    9.3189    1.6996   -0.0544 H   0  0  0  0  0  0  0  0  0  0  0  0
    7.8369    1.6611   -3.5545 H   0  0  0  0  0  0  0  0  0  0  0  0
    9.1261    0.8690   -2.6423 H   0  0  0  0  0  0  0  0  0  0  0  0
    8.6011    2.5378   -2.2157 H   0  0  0  0  0  0  0  0  0  0  0  0
    6.2670   -1.1281   -0.9494 H   0  0  0  0  0  0  0  0  0  0  0  0
    5.4481   -4.4609    2.7707 H   0  0  0  0  0  0  0  0  0  0  0  0
    6.1437   -6.3672    3.9068 H   0  0  0  0  0  0  0  0  0  0  0  0
    9.3135   -9.2718    4.0355 H   0  0  0  0  0  0  0  0  0  0  0  0
    9.9700  -10.3203    0.1744 H   0  0  0  0  0  0  0  0  0  0  0  0
   13.5495  -12.5834    1.9188 H   0  0  0  0  0  0  0  0  0  0  0  0
   13.2258  -12.1691    3.6351 H   0  0  0  0  0  0  0  0  0  0  0  0
   14.2398  -11.0919    2.6204 H   0  0  0  0  0  0  0  0  0  0  0  0
   12.1187   -9.5786    3.8255 H   0  0  0  0  0  0  0  0  0  0  0  0
    9.1484   -4.4472    0.5000 H   0  0  0  0  0  0  0  0  0  0  0  0
  1  2  1  0  0  0  0
  1 34  1  0  0  0  0
  1 35  1  0  0  0  0
  1 36  1  0  0  0  0
  2  3  1  0  0  0  0
  2 37  1  0  0  0  0
  3  4  1  0  0  0  0
  3 38  1  0  0  0  0
  3 39  1  0  0  0  0
  4  5  1  0  0  0  0
  4  6  1  0  0  0  0
  4 40  1  0  0  0  0
  5 41  1  0  0  0  0
  6  7  1  0  0  0  0
  6 42  1  0  0  0  0
  6 43  1  0  0  0  0
  7  8  1  0  0  0  0
  7 18  1  0  0  0  0
  8  9  1  0  0  0  0
  8 17  2  0  0  0  0
  9 10  2  0  0  0  0
  9 44  1  0  0  0  0
 10 11  1  0  0  0  0
 10 13  1  0  0  0  0
 11 12  1  0  0  0  0
 12 45  1  0  0  0  0
 12 46  1  0  0  0  0
 12 47  1  0  0  0  0
 13 14  2  0  0  0  0
 13 48  1  0  0  0  0
 14 15  1  0  0  0  0
 14 17  1  0  0  0  0
 15 16  1  0  0  0  0
 16 49  1  0  0  0  0
 16 50  1  0  0  0  0
 16 51  1  0  0  0  0
 17 52  1  0  0  0  0
 18 19  1  0  0  0  0
 18 33  2  0  0  0  0
 19 20  2  0  0  0  0
 19 53  1  0  0  0  0
 20 21  1  0  0  0  0
 20 54  1  0  0  0  0
 21 22  1  0  0  0  0
 21 32  2  0  0  0  0
 22 23  2  0  0  0  0
 23 24  1  0  0  0  0
 23 55  1  0  0  0  0
 24 25  1  0  0  0  0
 24 31  2  0  0  0  0
 25 26  1  0  0  0  0
 25 30  2  0  0  0  0
 26 27  2  0  0  0  0
 26 56  1  0  0  0  0
 27 28  1  0  0  0  0
 28 29  1  0  0  0  0
 28 30  1  0  0  0  0
 29 57  1  0  0  0  0
 29 58  1  0  0  0  0
 29 59  1  0  0  0  0
 30 60  1  0  0  0  0
 31 32  1  0  0  0  0
 32 33  1  0  0  0  0
 33 61  1  0  0  0  0
M  END
$$$$
