CHEMBL3916154
 OpenBabel04072215373D

 55 58  0  0  0  0  0  0  0  0999 V2000
    3.9128    8.5955    4.6232 C   0  0  0  0  0  0  0  0  0  0  0  0
    4.0466    8.8605    3.2319 O   0  0  0  0  0  0  0  0  0  0  0  0
    4.1451    7.7753    2.3946 C   0  0  0  0  0  0  0  0  0  0  0  0
    3.6385    6.5173    2.7399 C   0  0  0  0  0  0  0  0  0  0  0  0
    3.6402    5.4435    1.8384 C   0  0  0  0  0  0  0  0  0  0  0  0
    3.1338    4.1747    2.1891 N   0  0  0  0  0  0  0  0  0  0  0  0
    2.0098    3.9627    2.9987 C   0  0  0  0  0  0  0  0  0  0  0  0
    1.9883    2.8727    3.7798 N   0  0  0  0  0  0  0  0  0  0  0  0
    0.8956    2.7020    4.5602 C   0  0  0  0  0  0  0  0  0  0  0  0
   -0.1726    3.5708    4.5933 C   0  0  0  0  0  0  0  0  0  0  0  0
   -0.0725    4.6356    3.7163 C   0  0  0  0  0  0  0  0  0  0  0  0
    1.0073    4.8480    2.9447 N   0  0  0  0  0  0  0  0  0  0  0  0
   -1.1459    5.6807    3.6237 C   0  0  0  0  0  0  0  0  0  0  0  0
   -2.4563    5.1719    4.2204 C   0  0  0  0  0  0  0  0  0  0  0  0
   -2.1883    4.5833    5.5387 N   0  0  0  0  0  0  0  0  0  0  0  0
   -2.5689    5.0709    6.7832 C   0  0  0  0  0  0  0  0  0  0  0  0
   -2.4411    4.4027    7.8094 O   0  0  0  0  0  0  0  0  0  0  0  0
   -3.1345    6.4571    6.9406 C   0  0  0  0  0  0  0  0  0  0  0  0
   -4.0472    6.7145    7.9656 C   0  0  0  0  0  0  0  0  0  0  0  0
   -4.5810    7.9974    8.1353 C   0  0  0  0  0  0  0  0  0  0  0  0
   -4.2220    9.0338    7.2745 C   0  0  0  0  0  0  0  0  0  0  0  0
   -3.2870    8.8021    6.2769 C   0  0  0  0  0  0  0  0  0  0  0  0
   -2.7192    7.5334    6.1461 C   0  0  0  0  0  0  0  0  0  0  0  0
   -1.3805    3.3590    5.4637 C   0  0  0  0  0  0  0  0  0  0  0  0
    4.2167    5.6299    0.5813 C   0  0  0  0  0  0  0  0  0  0  0  0
    4.6957    6.8888    0.1964 C   0  0  0  0  0  0  0  0  0  0  0  0
    5.2277    7.1301   -1.0499 O   0  0  0  0  0  0  0  0  0  0  0  0
    4.6321    6.3997   -2.1187 C   0  0  0  0  0  0  0  0  0  0  0  0
    4.6888    7.9662    1.1106 C   0  0  0  0  0  0  0  0  0  0  0  0
    5.1727    9.1556    0.6159 O   0  0  0  0  0  0  0  0  0  0  0  0
    5.8360   10.0143    1.5367 C   0  0  0  0  0  0  0  0  0  0  0  0
    3.9256    9.5560    5.1478 H   0  0  0  0  0  0  0  0  0  0  0  0
    4.7561    8.0001    4.9887 H   0  0  0  0  0  0  0  0  0  0  0  0
    2.9566    8.1172    4.8566 H   0  0  0  0  0  0  0  0  0  0  0  0
    3.1900    6.3520    3.7133 H   0  0  0  0  0  0  0  0  0  0  0  0
    3.8453    3.5112    2.4708 H   0  0  0  0  0  0  0  0  0  0  0  0
    0.9137    1.8077    5.1793 H   0  0  0  0  0  0  0  0  0  0  0  0
   -1.2976    5.9862    2.5824 H   0  0  0  0  0  0  0  0  0  0  0  0
   -0.7577    6.5494    4.1597 H   0  0  0  0  0  0  0  0  0  0  0  0
   -2.8693    4.3786    3.5819 H   0  0  0  0  0  0  0  0  0  0  0  0
   -3.2229    5.9475    4.2604 H   0  0  0  0  0  0  0  0  0  0  0  0
   -4.3377    5.9201    8.6514 H   0  0  0  0  0  0  0  0  0  0  0  0
   -5.2786    8.1944    8.9468 H   0  0  0  0  0  0  0  0  0  0  0  0
   -4.6478   10.0262    7.3925 H   0  0  0  0  0  0  0  0  0  0  0  0
   -2.9765    9.6019    5.6091 H   0  0  0  0  0  0  0  0  0  0  0  0
   -1.9314    7.4295    5.4229 H   0  0  0  0  0  0  0  0  0  0  0  0
   -2.0092    2.5771    5.0205 H   0  0  0  0  0  0  0  0  0  0  0  0
   -1.0757    3.0316    6.4619 H   0  0  0  0  0  0  0  0  0  0  0  0
    4.2486    4.7879   -0.1032 H   0  0  0  0  0  0  0  0  0  0  0  0
    4.9148    6.8877   -3.0567 H   0  0  0  0  0  0  0  0  0  0  0  0
    3.5381    6.4031   -2.0581 H   0  0  0  0  0  0  0  0  0  0  0  0
    5.0192    5.3761   -2.1489 H   0  0  0  0  0  0  0  0  0  0  0  0
    6.4621   10.7011    0.9580 H   0  0  0  0  0  0  0  0  0  0  0  0
    6.4932    9.4634    2.2183 H   0  0  0  0  0  0  0  0  0  0  0  0
    5.1161   10.6307    2.0820 H   0  0  0  0  0  0  0  0  0  0  0  0
  1  2  1  0  0  0  0
  1 32  1  0  0  0  0
  1 33  1  0  0  0  0
  1 34  1  0  0  0  0
  2  3  1  0  0  0  0
  3  4  1  0  0  0  0
  3 29  2  0  0  0  0
  4  5  2  0  0  0  0
  4 35  1  0  0  0  0
  5  6  1  0  0  0  0
  5 25  1  0  0  0  0
  6  7  1  0  0  0  0
  6 36  1  0  0  0  0
  7  8  1  0  0  0  0
  7 12  2  0  0  0  0
  8  9  2  0  0  0  0
  9 10  1  0  0  0  0
  9 37  1  0  0  0  0
 10 11  2  0  0  0  0
 10 24  1  0  0  0  0
 11 12  1  0  0  0  0
 11 13  1  0  0  0  0
 13 14  1  0  0  0  0
 13 38  1  0  0  0  0
 13 39  1  0  0  0  0
 14 15  1  0  0  0  0
 14 40  1  0  0  0  0
 14 41  1  0  0  0  0
 15 16  1  0  0  0  0
 15 24  1  0  0  0  0
 16 17  2  0  0  0  0
 16 18  1  0  0  0  0
 18 19  1  0  0  0  0
 18 23  2  0  0  0  0
 19 20  2  0  0  0  0
 19 42  1  0  0  0  0
 20 21  1  0  0  0  0
 20 43  1  0  0  0  0
 21 22  2  0  0  0  0
 21 44  1  0  0  0  0
 22 23  1  0  0  0  0
 22 45  1  0  0  0  0
 23 46  1  0  0  0  0
 24 47  1  0  0  0  0
 24 48  1  0  0  0  0
 25 26  2  0  0  0  0
 25 49  1  0  0  0  0
 26 27  1  0  0  0  0
 26 29  1  0  0  0  0
 27 28  1  0  0  0  0
 28 50  1  0  0  0  0
 28 51  1  0  0  0  0
 28 52  1  0  0  0  0
 29 30  1  0  0  0  0
 30 31  1  0  0  0  0
 31 53  1  0  0  0  0
 31 54  1  0  0  0  0
 31 55  1  0  0  0  0
M  END
$$$$
