CHEMBL4061297
 OpenBabel04072215373D

 38 41  0  0  0  0  0  0  0  0999 V2000
    1.1746    0.0274   -0.3183 N   0  0  0  0  0  0  0  0  0  0  0  0
    2.5562    0.0233   -0.2332 C   0  0  0  0  0  0  0  0  0  0  0  0
    3.1539   -1.1749   -0.1349 N   0  0  0  0  0  0  0  0  0  0  0  0
    4.5075   -1.2520   -0.0355 C   0  0  0  0  0  0  0  0  0  0  0  0
    5.1313   -2.4826    0.1478 N   0  0  0  0  0  0  0  0  0  0  0  0
    4.5547   -3.6629   -0.4644 C   0  0  0  0  0  0  0  0  0  0  0  0
    5.0420   -3.8290   -1.8883 C   0  0  0  0  0  0  0  0  0  0  0  0
    6.2403   -4.5049   -2.1734 C   0  0  0  0  0  0  0  0  0  0  0  0
    6.6744   -4.6526   -3.4951 C   0  0  0  0  0  0  0  0  0  0  0  0
    5.9181   -4.1189   -4.5365 C   0  0  0  0  0  0  0  0  0  0  0  0
    6.4498   -4.3026   -6.1631 Cl  0  0  0  0  0  0  0  0  0  0  0  0
    4.7344   -3.4359   -4.2688 C   0  0  0  0  0  0  0  0  0  0  0  0
    4.3016   -3.2873   -2.9493 C   0  0  0  0  0  0  0  0  0  0  0  0
    5.2320   -0.0443   -0.0610 C   0  0  0  0  0  0  0  0  0  0  0  0
    4.4845    1.1178   -0.1282 C   0  0  0  0  0  0  0  0  0  0  0  0
    3.1520    1.2184   -0.2019 N   0  0  0  0  0  0  0  0  0  0  0  0
    5.3354    2.1848   -0.1039 N   0  0  0  0  0  0  0  0  0  0  0  0
    6.6415    1.7547   -0.0736 C   0  0  0  0  0  0  0  0  0  0  0  0
    7.8349    2.4886   -0.0709 C   0  0  0  0  0  0  0  0  0  0  0  0
    9.0375    1.7779   -0.0633 C   0  0  0  0  0  0  0  0  0  0  0  0
    9.0323    0.3902   -0.0458 C   0  0  0  0  0  0  0  0  0  0  0  0
   10.1937   -0.3265   -0.0478 O   0  0  0  0  0  0  0  0  0  0  0  0
    7.8418   -0.3329   -0.0348 C   0  0  0  0  0  0  0  0  0  0  0  0
    6.6104    0.3542   -0.0464 C   0  0  0  0  0  0  0  0  0  0  0  0
    0.8154   -0.8224    0.0923 H   0  0  0  0  0  0  0  0  0  0  0  0
    0.8234    0.9005    0.0494 H   0  0  0  0  0  0  0  0  0  0  0  0
    6.1349   -2.4325    0.0609 H   0  0  0  0  0  0  0  0  0  0  0  0
    3.4597   -3.6842   -0.4179 H   0  0  0  0  0  0  0  0  0  0  0  0
    4.8852   -4.5350    0.1144 H   0  0  0  0  0  0  0  0  0  0  0  0
    6.8413   -4.9275   -1.3707 H   0  0  0  0  0  0  0  0  0  0  0  0
    7.5990   -5.1842   -3.7057 H   0  0  0  0  0  0  0  0  0  0  0  0
    4.1437   -3.0160   -5.0783 H   0  0  0  0  0  0  0  0  0  0  0  0
    3.3797   -2.7436   -2.7465 H   0  0  0  0  0  0  0  0  0  0  0  0
    5.0303    3.1460   -0.1325 H   0  0  0  0  0  0  0  0  0  0  0  0
    7.8323    3.5759   -0.0877 H   0  0  0  0  0  0  0  0  0  0  0  0
    9.9722    2.3306   -0.0690 H   0  0  0  0  0  0  0  0  0  0  0  0
   10.9416    0.2914   -0.0802 H   0  0  0  0  0  0  0  0  0  0  0  0
    7.8915   -1.4149   -0.0362 H   0  0  0  0  0  0  0  0  0  0  0  0
  1  2  1  0  0  0  0
  1 25  1  0  0  0  0
  1 26  1  0  0  0  0
  2  3  1  0  0  0  0
  2 16  2  0  0  0  0
  3  4  2  0  0  0  0
  4  5  1  0  0  0  0
  4 14  1  0  0  0  0
  5  6  1  0  0  0  0
  5 27  1  0  0  0  0
  6  7  1  0  0  0  0
  6 28  1  0  0  0  0
  6 29  1  0  0  0  0
  7  8  1  0  0  0  0
  7 13  2  0  0  0  0
  8  9  2  0  0  0  0
  8 30  1  0  0  0  0
  9 10  1  0  0  0  0
  9 31  1  0  0  0  0
 10 11  1  0  0  0  0
 10 12  2  0  0  0  0
 12 13  1  0  0  0  0
 12 32  1  0  0  0  0
 13 33  1  0  0  0  0
 14 15  2  0  0  0  0
 14 24  1  0  0  0  0
 15 16  1  0  0  0  0
 15 17  1  0  0  0  0
 17 18  1  0  0  0  0
 17 34  1  0  0  0  0
 18 19  1  0  0  0  0
 18 24  2  0  0  0  0
 19 20  2  0  0  0  0
 19 35  1  0  0  0  0
 20 21  1  0  0  0  0
 20 36  1  0  0  0  0
 21 22  1  0  0  0  0
 21 23  2  0  0  0  0
 22 37  1  0  0  0  0
 23 24  1  0  0  0  0
 23 38  1  0  0  0  0
M  END
$$$$
