CHEMBL523823
 OpenBabel04072215383D

 28 30  0  0  0  0  0  0  0  0999 V2000
    2.4486   -0.4829   -1.3576 C   0  0  0  0  0  0  0  0  0  0  0  0
    2.4778    0.1400    0.0300 C   0  0  0  0  0  0  0  0  0  0  0  0
    3.0222    1.5105    0.0058 N   0  0  0  0  0  0  0  0  0  0  0  0
    4.4267    1.7052    0.1277 C   0  0  0  0  0  0  0  0  0  0  0  0
    5.3545    0.6495    0.1853 C   0  0  0  0  0  0  0  0  0  0  0  0
    6.7278    0.8931    0.3089 C   0  0  0  0  0  0  0  0  0  0  0  0
    7.8186   -0.4419    0.3814 Cl  0  0  0  0  0  0  0  0  0  0  0  0
    7.2103    2.1970    0.3722 C   0  0  0  0  0  0  0  0  0  0  0  0
    8.5416    2.4788    0.4887 O   0  0  0  0  0  0  0  0  0  0  0  0
    6.3319    3.2664    0.3140 C   0  0  0  0  0  0  0  0  0  0  0  0
    4.9554    3.0224    0.1895 C   0  0  0  0  0  0  0  0  0  0  0  0
    4.0424    4.1909    0.1260 C   0  0  0  0  0  0  0  0  0  0  0  0
    4.4621    5.3336    0.2442 O   0  0  0  0  0  0  0  0  0  0  0  0
    2.6380    3.8827   -0.0864 C   0  0  0  0  0  0  0  0  0  0  0  0
    1.4769    4.7684   -0.1739 C   0  0  0  0  0  0  0  0  0  0  0  0
    1.4484    5.9821   -0.1057 O   0  0  0  0  0  0  0  0  0  0  0  0
    0.3723    3.9507   -0.3019 O   0  0  0  0  0  0  0  0  0  0  0  0
    0.8336    2.6263   -0.3634 N   0  0  0  0  0  0  0  0  0  0  0  0
    2.1955    2.6202   -0.1483 C   0  0  0  0  0  0  0  0  0  0  0  0
    2.0659   -1.5073   -1.2990 H   0  0  0  0  0  0  0  0  0  0  0  0
    3.4440   -0.5201   -1.8098 H   0  0  0  0  0  0  0  0  0  0  0  0
    1.7956    0.0826   -2.0300 H   0  0  0  0  0  0  0  0  0  0  0  0
    3.0257   -0.4999    0.7308 H   0  0  0  0  0  0  0  0  0  0  0  0
    1.4556    0.1488    0.4278 H   0  0  0  0  0  0  0  0  0  0  0  0
    5.0384   -0.3869    0.1249 H   0  0  0  0  0  0  0  0  0  0  0  0
    9.0252    1.6317    0.5061 H   0  0  0  0  0  0  0  0  0  0  0  0
    6.7140    4.2840    0.3623 H   0  0  0  0  0  0  0  0  0  0  0  0
    0.3153    1.9970    0.2461 H   0  0  0  0  0  0  0  0  0  0  0  0
  1  2  1  0  0  0  0
  1 20  1  0  0  0  0
  1 21  1  0  0  0  0
  1 22  1  0  0  0  0
  2  3  1  0  0  0  0
  2 23  1  0  0  0  0
  2 24  1  0  0  0  0
  3  4  1  0  0  0  0
  3 19  1  0  0  0  0
  4  5  1  0  0  0  0
  4 11  2  0  0  0  0
  5  6  2  0  0  0  0
  5 25  1  0  0  0  0
  6  7  1  0  0  0  0
  6  8  1  0  0  0  0
  8  9  1  0  0  0  0
  8 10  2  0  0  0  0
  9 26  1  0  0  0  0
 10 11  1  0  0  0  0
 10 27  1  0  0  0  0
 11 12  1  0  0  0  0
 12 13  2  0  0  0  0
 12 14  1  0  0  0  0
 14 15  1  0  0  0  0
 14 19  2  0  0  0  0
 15 16  2  0  0  0  0
 15 17  1  0  0  0  0
 17 18  1  0  0  0  0
 18 19  1  0  0  0  0
 18 28  1  0  0  0  0
M  END
$$$$
