CHEMBL3287596
 OpenBabel04072215363D

 62 66  0  0  0  0  0  0  0  0999 V2000
    5.5901  -14.2271   -3.3102 C   0  0  0  0  0  0  0  0  0  0  0  0
    4.4666  -13.9751   -2.4713 O   0  0  0  0  0  0  0  0  0  0  0  0
    4.1211  -12.6621   -2.3086 C   0  0  0  0  0  0  0  0  0  0  0  0
    4.7812  -11.5825   -2.8804 C   0  0  0  0  0  0  0  0  0  0  0  0
    4.3459  -10.2814   -2.6271 C   0  0  0  0  0  0  0  0  0  0  0  0
    3.2666  -10.0117   -1.7771 C   0  0  0  0  0  0  0  0  0  0  0  0
    2.8223   -8.7064   -1.5032 N   0  0  0  0  0  0  0  0  0  0  0  0
    3.2670   -7.4958   -2.0371 C   0  0  0  0  0  0  0  0  0  0  0  0
    3.0816   -6.3841   -1.3171 N   0  0  0  0  0  0  0  0  0  0  0  0
    3.5266   -5.2288   -1.8589 C   0  0  0  0  0  0  0  0  0  0  0  0
    4.0989   -5.1255   -3.1057 C   0  0  0  0  0  0  0  0  0  0  0  0
    4.1885   -6.3062   -3.7863 C   0  0  0  0  0  0  0  0  0  0  0  0
    4.6414   -6.2929   -5.1054 O   0  0  0  0  0  0  0  0  0  0  0  0
    4.1989   -7.3288   -5.9084 C   0  0  0  0  0  0  0  0  0  0  0  0
    2.8886   -7.8077   -5.8381 C   0  0  0  0  0  0  0  0  0  0  0  0
    2.5082   -8.9386   -6.5512 C   0  0  0  0  0  0  0  0  0  0  0  0
    3.3992   -9.5717   -7.4124 C   0  0  0  0  0  0  0  0  0  0  0  0
    3.0487  -10.7396   -8.1182 N   0  0  0  0  0  0  0  0  0  0  0  0
    1.7770  -11.2723   -8.2294 C   0  0  0  0  0  0  0  0  0  0  0  0
    0.7208  -10.8251   -7.7890 O   0  0  0  0  0  0  0  0  0  0  0  0
    1.7182  -12.5508   -8.9895 C   0  0  0  0  0  0  0  0  0  0  0  0
    1.8461  -13.7912   -8.1658 C   0  0  0  0  0  0  0  0  0  0  0  0
    2.8291  -14.4922   -8.3551 O   0  0  0  0  0  0  0  0  0  0  0  0
    0.8126  -14.0364   -7.2643 N   0  0  0  0  0  0  0  0  0  0  0  0
    0.7659  -15.1402   -6.3795 C   0  0  0  0  0  0  0  0  0  0  0  0
    1.8940  -15.9289   -6.1066 C   0  0  0  0  0  0  0  0  0  0  0  0
    1.8035  -17.0870   -5.3352 C   0  0  0  0  0  0  0  0  0  0  0  0
    0.5791  -17.4549   -4.8088 C   0  0  0  0  0  0  0  0  0  0  0  0
    0.4775  -18.5917   -4.1100 F   0  0  0  0  0  0  0  0  0  0  0  0
   -0.5441  -16.6552   -5.0013 C   0  0  0  0  0  0  0  0  0  0  0  0
   -0.4483  -15.4875   -5.7736 C   0  0  0  0  0  0  0  0  0  0  0  0
    2.3506  -12.5550  -10.3901 C   0  0  0  0  0  0  0  0  0  0  0  0
    0.8638  -12.6081  -10.2540 C   0  0  0  0  0  0  0  0  0  0  0  0
    4.6881   -9.0430   -7.5622 C   0  0  0  0  0  0  0  0  0  0  0  0
    5.0752   -7.9225   -6.8140 C   0  0  0  0  0  0  0  0  0  0  0  0
    6.3156   -7.4376   -6.9741 F   0  0  0  0  0  0  0  0  0  0  0  0
    3.8223   -7.4795   -3.2495 N   0  0  0  0  0  0  0  0  0  0  0  0
    2.5789  -11.1090   -1.2449 C   0  0  0  0  0  0  0  0  0  0  0  0
    3.0101  -12.4200   -1.4990 C   0  0  0  0  0  0  0  0  0  0  0  0
    5.7128  -15.3101   -3.3961 H   0  0  0  0  0  0  0  0  0  0  0  0
    6.5075  -13.8192   -2.8706 H   0  0  0  0  0  0  0  0  0  0  0  0
    5.4292  -13.8322   -4.3196 H   0  0  0  0  0  0  0  0  0  0  0  0
    5.6451  -11.7005   -3.5242 H   0  0  0  0  0  0  0  0  0  0  0  0
    4.9082   -9.4817   -3.0971 H   0  0  0  0  0  0  0  0  0  0  0  0
    2.4255   -8.5580   -0.5873 H   0  0  0  0  0  0  0  0  0  0  0  0
    3.3872   -4.3492   -1.2348 H   0  0  0  0  0  0  0  0  0  0  0  0
    4.4219   -4.1851   -3.5250 H   0  0  0  0  0  0  0  0  0  0  0  0
    2.1597   -7.3604   -5.1670 H   0  0  0  0  0  0  0  0  0  0  0  0
    1.5112   -9.3228   -6.3632 H   0  0  0  0  0  0  0  0  0  0  0  0
    3.7977  -11.2323   -8.5916 H   0  0  0  0  0  0  0  0  0  0  0  0
    0.0062  -13.4161   -7.2904 H   0  0  0  0  0  0  0  0  0  0  0  0
    2.8778  -15.6573   -6.4777 H   0  0  0  0  0  0  0  0  0  0  0  0
    2.6816  -17.6994   -5.1644 H   0  0  0  0  0  0  0  0  0  0  0  0
   -1.4895  -16.9625   -4.5623 H   0  0  0  0  0  0  0  0  0  0  0  0
   -1.3443  -14.8908   -5.9215 H   0  0  0  0  0  0  0  0  0  0  0  0
    2.8725  -13.4499  -10.7104 H   0  0  0  0  0  0  0  0  0  0  0  0
    2.7883  -11.6378  -10.7725 H   0  0  0  0  0  0  0  0  0  0  0  0
    0.3772  -13.5405  -10.5175 H   0  0  0  0  0  0  0  0  0  0  0  0
    0.2996  -11.7243  -10.5324 H   0  0  0  0  0  0  0  0  0  0  0  0
    5.4053   -9.4791   -8.2506 H   0  0  0  0  0  0  0  0  0  0  0  0
    1.6979  -10.9591   -0.6260 H   0  0  0  0  0  0  0  0  0  0  0  0
    2.4742  -13.2581   -1.0602 H   0  0  0  0  0  0  0  0  0  0  0  0
  1  2  1  0  0  0  0
  1 40  1  0  0  0  0
  1 41  1  0  0  0  0
  1 42  1  0  0  0  0
  2  3  1  0  0  0  0
  3  4  1  0  0  0  0
  3 39  2  0  0  0  0
  4  5  2  0  0  0  0
  4 43  1  0  0  0  0
  5  6  1  0  0  0  0
  5 44  1  0  0  0  0
  6  7  1  0  0  0  0
  6 38  2  0  0  0  0
  7  8  1  0  0  0  0
  7 45  1  0  0  0  0
  8  9  1  0  0  0  0
  8 37  2  0  0  0  0
  9 10  2  0  0  0  0
 10 11  1  0  0  0  0
 10 46  1  0  0  0  0
 11 12  2  0  0  0  0
 11 47  1  0  0  0  0
 12 13  1  0  0  0  0
 12 37  1  0  0  0  0
 13 14  1  0  0  0  0
 14 15  1  0  0  0  0
 14 35  2  0  0  0  0
 15 16  2  0  0  0  0
 15 48  1  0  0  0  0
 16 17  1  0  0  0  0
 16 49  1  0  0  0  0
 17 18  1  0  0  0  0
 17 34  2  0  0  0  0
 18 19  1  0  0  0  0
 18 50  1  0  0  0  0
 19 20  2  0  0  0  0
 19 21  1  0  0  0  0
 21 22  1  0  0  0  0
 21 32  1  0  0  0  0
 21 33  1  0  0  0  0
 22 23  2  0  0  0  0
 22 24  1  0  0  0  0
 24 25  1  0  0  0  0
 24 51  1  0  0  0  0
 25 26  1  0  0  0  0
 25 31  2  0  0  0  0
 26 27  2  0  0  0  0
 26 52  1  0  0  0  0
 27 28  1  0  0  0  0
 27 53  1  0  0  0  0
 28 29  1  0  0  0  0
 28 30  2  0  0  0  0
 30 31  1  0  0  0  0
 30 54  1  0  0  0  0
 31 55  1  0  0  0  0
 32 33  1  0  0  0  0
 32 56  1  0  0  0  0
 32 57  1  0  0  0  0
 33 58  1  0  0  0  0
 33 59  1  0  0  0  0
 34 35  1  0  0  0  0
 34 60  1  0  0  0  0
 35 36  1  0  0  0  0
 38 39  1  0  0  0  0
 38 61  1  0  0  0  0
 39 62  1  0  0  0  0
M  END
$$$$
