CHEMBL2002407
 OpenBabel04072215363D

 32 33  0  0  0  0  0  0  0  0999 V2000
    1.4175    0.0456   -1.8746 C   0  0  0  0  0  0  0  0  0  0  0  0
    2.7179   -0.0163   -1.2998 O   0  0  0  0  0  0  0  0  0  0  0  0
    3.1930    1.1265   -0.7089 C   0  0  0  0  0  0  0  0  0  0  0  0
    2.5172    2.3525   -0.7008 C   0  0  0  0  0  0  0  0  0  0  0  0
    3.0382    3.4768   -0.0437 C   0  0  0  0  0  0  0  0  0  0  0  0
    2.3407    4.7815   -0.0235 C   0  0  0  0  0  0  0  0  0  0  0  0
    1.0133    5.0325    0.0119 C   0  0  0  0  0  0  0  0  0  0  0  0
    0.0137    4.0134    0.0751 C   0  0  0  0  0  0  0  0  0  0  0  0
   -0.8089    3.1923    0.0774 N   0  0  0  0  0  0  0  0  0  0  0  0
    0.4855    6.3691    0.0167 C   0  0  0  0  0  0  0  0  0  0  0  0
    0.2795    7.0705    1.1423 N   0  0  0  0  0  0  0  0  0  0  0  0
   -0.3069    8.2041    0.7199 N   0  0  0  0  0  0  0  0  0  0  0  0
   -0.4453    8.2849   -0.6405 C   0  0  0  0  0  0  0  0  0  0  0  0
   -1.0000    9.3624   -1.2301 N   0  0  0  0  0  0  0  0  0  0  0  0
    0.0730    7.1027   -1.1284 C   0  0  0  0  0  0  0  0  0  0  0  0
    0.1454    6.7122   -2.4969 C   0  0  0  0  0  0  0  0  0  0  0  0
    0.2162    6.3863   -3.6103 N   0  0  0  0  0  0  0  0  0  0  0  0
    4.3048    3.3703    0.5489 C   0  0  0  0  0  0  0  0  0  0  0  0
    5.0071    2.1603    0.5276 C   0  0  0  0  0  0  0  0  0  0  0  0
    4.4435    1.0442   -0.0890 C   0  0  0  0  0  0  0  0  0  0  0  0
    5.1204   -0.1456   -0.1008 O   0  0  0  0  0  0  0  0  0  0  0  0
    1.1774   -0.9422   -2.2777 H   0  0  0  0  0  0  0  0  0  0  0  0
    1.3916    0.7567   -2.7074 H   0  0  0  0  0  0  0  0  0  0  0  0
    0.6609    0.2916   -1.1212 H   0  0  0  0  0  0  0  0  0  0  0  0
    1.5743    2.4365   -1.2266 H   0  0  0  0  0  0  0  0  0  0  0  0
    3.0186    5.6366   -0.0195 H   0  0  0  0  0  0  0  0  0  0  0  0
   -0.5942    8.8856    1.4131 H   0  0  0  0  0  0  0  0  0  0  0  0
   -1.4354   10.1294   -0.7217 H   0  0  0  0  0  0  0  0  0  0  0  0
   -1.1743    9.3992   -2.2350 H   0  0  0  0  0  0  0  0  0  0  0  0
    4.7631    4.2286    1.0379 H   0  0  0  0  0  0  0  0  0  0  0  0
    5.9867    2.1065    0.9930 H   0  0  0  0  0  0  0  0  0  0  0  0
    5.9525   -0.0477    0.3861 H   0  0  0  0  0  0  0  0  0  0  0  0
  1  2  1  0  0  0  0
  1 22  1  0  0  0  0
  1 23  1  0  0  0  0
  1 24  1  0  0  0  0
  2  3  1  0  0  0  0
  3  4  1  0  0  0  0
  3 20  2  0  0  0  0
  4  5  2  0  0  0  0
  4 25  1  0  0  0  0
  5  6  1  0  0  0  0
  5 18  1  0  0  0  0
  6  7  2  3  0  0  0
  6 26  1  0  0  0  0
  7  8  1  0  0  0  0
  7 10  1  0  0  0  0
  8  9  3  0  0  0  0
 10 11  2  0  0  0  0
 10 15  1  0  0  0  0
 11 12  1  0  0  0  0
 12 13  1  0  0  0  0
 12 27  1  0  0  0  0
 13 14  1  0  0  0  0
 13 15  2  0  0  0  0
 14 28  1  0  0  0  0
 14 29  1  0  0  0  0
 15 16  1  0  0  0  0
 16 17  3  0  0  0  0
 18 19  2  0  0  0  0
 18 30  1  0  0  0  0
 19 20  1  0  0  0  0
 19 31  1  0  0  0  0
 20 21  1  0  0  0  0
 21 32  1  0  0  0  0
M  END
$$$$
