CHEMBL3926406
 OpenBabel04072215373D

 66 69  0  0  0  0  0  0  0  0999 V2000
    4.6873    6.1887   -0.6119 C   0  0  0  0  0  0  0  0  0  0  0  0
    3.9830    5.0949   -0.1891 O   0  0  0  0  0  0  0  0  0  0  0  0
    4.1654    3.8255   -0.6185 C   0  0  0  0  0  0  0  0  0  0  0  0
    3.3540    2.8608   -0.0350 C   0  0  0  0  0  0  0  0  0  0  0  0
    3.4945    1.5268   -0.3849 C   0  0  0  0  0  0  0  0  0  0  0  0
    2.6726    0.5541    0.1036 O   0  0  0  0  0  0  0  0  0  0  0  0
    1.4408    0.7904    0.6945 C   0  0  0  0  0  0  0  0  0  0  0  0
    4.4940    1.1768   -1.2954 C   0  0  0  0  0  0  0  0  0  0  0  0
    5.3527    2.1135   -1.9551 C   0  0  0  0  0  0  0  0  0  0  0  0
    6.3375    1.6493   -2.9494 N   0  0  0  0  0  0  0  0  0  0  0  0
    6.5486    0.1498   -3.0030 C   0  0  0  0  0  0  0  0  0  0  0  0
    5.8841   -0.6922   -4.1888 C   0  0  0  0  0  0  0  0  0  0  0  0
    4.3676   -0.9145   -4.1528 C   0  0  0  0  0  0  0  0  0  0  0  0
    3.9316   -1.9886   -3.1337 C   0  0  0  0  0  0  0  0  0  0  0  0
    4.6630   -3.2479   -3.3200 N   0  0  0  0  0  0  0  0  0  0  0  0
    6.1161   -3.0359   -3.2270 C   0  0  0  0  0  0  0  0  0  0  0  0
    6.5748   -2.0772   -4.3324 C   0  0  0  0  0  0  0  0  0  0  0  0
    7.3930    2.4387   -3.6899 C   0  0  0  0  0  0  0  0  0  0  0  0
    7.9988    1.7095   -4.7368 C   0  0  0  0  0  0  0  0  0  0  0  0
    9.1049    2.0505   -5.3958 C   0  0  0  0  0  0  0  0  0  0  0  0
    9.7344    3.1976   -5.1252 C   0  0  0  0  0  0  0  0  0  0  0  0
   10.9233    3.3413   -5.7249 N   0  0  0  0  0  0  0  0  0  0  0  0
   11.6226    4.4592   -5.6290 C   0  0  0  0  0  0  0  0  0  0  0  0
   11.0680    5.5478   -4.9750 C   0  0  0  0  0  0  0  0  0  0  0  0
   11.7972    6.7782   -5.4281 C   0  0  0  0  0  0  0  0  0  0  0  0
   11.2941    7.8060   -6.2113 C   0  0  0  0  0  0  0  0  0  0  0  0
   12.3211    8.5542   -6.6823 N   0  0  0  0  0  0  0  0  0  0  0  0
   13.4533    8.0318   -6.2327 N   0  0  0  0  0  0  0  0  0  0  0  0
   14.7895    8.5372   -6.5592 C   0  0  0  0  0  0  0  0  0  0  0  0
   13.1818    6.9472   -5.4830 C   0  0  0  0  0  0  0  0  0  0  0  0
    9.8522    5.4065   -4.2873 N   0  0  0  0  0  0  0  0  0  0  0  0
    9.1834    4.1727   -4.2813 C   0  0  0  0  0  0  0  0  0  0  0  0
    7.9791    3.7842   -3.4978 C   0  0  0  0  0  0  0  0  0  0  0  0
    5.1418    3.4612   -1.6056 C   0  0  0  0  0  0  0  0  0  0  0  0
    2.3870   -2.6116    0.9543 Cl  0  0  0  0  0  0  0  0  0  0  0  0
    4.4077    7.0518    0.0240 H   0  0  0  0  0  0  0  0  0  0  0  0
    4.4352    6.4045   -1.6698 H   0  0  0  0  0  0  0  0  0  0  0  0
    5.7758    6.0017   -0.4945 H   0  0  0  0  0  0  0  0  0  0  0  0
    2.6096    3.1633    0.6938 H   0  0  0  0  0  0  0  0  0  0  0  0
    0.9257   -0.1656    0.9163 H   0  0  0  0  0  0  0  0  0  0  0  0
    0.7973    1.3475   -0.0179 H   0  0  0  0  0  0  0  0  0  0  0  0
    1.5487    1.3585    1.6413 H   0  0  0  0  0  0  0  0  0  0  0  0
    4.5468    0.1486   -1.4835 H   0  0  0  0  0  0  0  0  0  0  0  0
    6.4488   -0.3348   -2.0192 H   0  0  0  0  0  0  0  0  0  0  0  0
    7.6482   -0.0189   -3.0620 H   0  0  0  0  0  0  0  0  0  0  0  0
    6.0166   -0.1884   -5.1552 H   0  0  0  0  0  0  0  0  0  0  0  0
    4.0770   -1.3121   -5.1554 H   0  0  0  0  0  0  0  0  0  0  0  0
    3.8418    0.0530   -4.0205 H   0  0  0  0  0  0  0  0  0  0  0  0
    2.8438   -2.1652   -3.2665 H   0  0  0  0  0  0  0  0  0  0  0  0
    4.0703   -1.6910   -2.0915 H   0  0  0  0  0  0  0  0  0  0  0  0
    4.4240   -3.6602   -4.2520 H   0  0  0  0  0  0  0  0  0  0  0  0
    6.6278   -4.0134   -3.3512 H   0  0  0  0  0  0  0  0  0  0  0  0
    6.3919   -2.6454   -2.2234 H   0  0  0  0  0  0  0  0  0  0  0  0
    6.2874   -2.5420   -5.3028 H   0  0  0  0  0  0  0  0  0  0  0  0
    7.6838   -1.9798   -4.3430 H   0  0  0  0  0  0  0  0  0  0  0  0
    7.6837    0.7848   -5.0815 H   0  0  0  0  0  0  0  0  0  0  0  0
    9.5172    1.3653   -6.1260 H   0  0  0  0  0  0  0  0  0  0  0  0
   12.5563    4.4965   -6.1622 H   0  0  0  0  0  0  0  0  0  0  0  0
   10.2686    7.9342   -6.5265 H   0  0  0  0  0  0  0  0  0  0  0  0
   14.7260    9.4162   -7.2370 H   0  0  0  0  0  0  0  0  0  0  0  0
   15.4000    7.7537   -7.0641 H   0  0  0  0  0  0  0  0  0  0  0  0
   15.3063    8.8421   -5.6262 H   0  0  0  0  0  0  0  0  0  0  0  0
   13.9381    6.2980   -5.0564 H   0  0  0  0  0  0  0  0  0  0  0  0
    7.6244    4.4937   -2.7612 H   0  0  0  0  0  0  0  0  0  0  0  0
    5.7023    4.2347   -2.0622 H   0  0  0  0  0  0  0  0  0  0  0  0
    2.3148   -1.6685    1.9558 H   0  0  0  0  0  0  0  0  0  0  0  0
  1  2  1  0  0  0  0
  1 36  1  0  0  0  0
  1 37  1  0  0  0  0
  1 38  1  0  0  0  0
  2  3  1  0  0  0  0
  3  4  1  0  0  0  0
  3 34  2  0  0  0  0
  4  5  2  0  0  0  0
  4 39  1  0  0  0  0
  5  6  1  0  0  0  0
  5  8  1  0  0  0  0
  6  7  1  0  0  0  0
  7 40  1  0  0  0  0
  7 41  1  0  0  0  0
  7 42  1  0  0  0  0
  8  9  2  0  0  0  0
  8 43  1  0  0  0  0
  9 10  1  0  0  0  0
  9 34  1  0  0  0  0
 10 11  1  0  0  0  0
 10 18  1  0  0  0  0
 11 12  1  0  0  0  0
 11 44  1  0  0  0  0
 11 45  1  0  0  0  0
 12 13  1  0  0  0  0
 12 17  1  0  0  0  0
 12 46  1  0  0  0  0
 13 14  1  0  0  0  0
 13 47  1  0  0  0  0
 13 48  1  0  0  0  0
 14 15  1  0  0  0  0
 14 49  1  0  0  0  0
 14 50  1  0  0  0  0
 15 16  1  0  0  0  0
 15 51  1  0  0  0  0
 16 17  1  0  0  0  0
 16 52  1  0  0  0  0
 16 53  1  0  0  0  0
 17 54  1  0  0  0  0
 17 55  1  0  0  0  0
 18 19  1  0  0  0  0
 18 33  2  0  0  0  0
 19 20  2  0  0  0  0
 19 56  1  0  0  0  0
 20 21  1  0  0  0  0
 20 57  1  0  0  0  0
 21 22  1  0  0  0  0
 21 32  2  0  0  0  0
 22 23  2  0  0  0  0
 23 24  1  0  0  0  0
 23 58  1  0  0  0  0
 24 25  1  0  0  0  0
 24 31  2  0  0  0  0
 25 26  1  0  0  0  0
 25 30  2  0  0  0  0
 26 27  2  0  0  0  0
 26 59  1  0  0  0  0
 27 28  1  0  0  0  0
 28 29  1  0  0  0  0
 28 30  1  0  0  0  0
 29 60  1  0  0  0  0
 29 61  1  0  0  0  0
 29 62  1  0  0  0  0
 30 63  1  0  0  0  0
 31 32  1  0  0  0  0
 32 33  1  0  0  0  0
 33 64  1  0  0  0  0
 34 65  1  0  0  0  0
 35 66  1  0  0  0  0
M  END
$$$$
