CHEMBL249179
 OpenBabel04072215363D

 42 44  0  0  0  0  0  0  0  0999 V2000
    0.9481    0.2430   -0.5423 O   0  0  0  0  0  0  0  0  0  0  0  0
    2.0712    0.0801   -0.0753 C   0  0  0  0  0  0  0  0  0  0  0  0
    2.5465    0.6405    1.0983 N   0  0  0  0  0  0  0  0  0  0  0  0
    1.8307    1.5158    1.9538 C   0  0  0  0  0  0  0  0  0  0  0  0
    0.5093    1.9093    1.7250 C   0  0  0  0  0  0  0  0  0  0  0  0
   -0.1545    2.7757    2.6001 C   0  0  0  0  0  0  0  0  0  0  0  0
    0.4932    3.2790    3.7310 C   0  0  0  0  0  0  0  0  0  0  0  0
   -0.2197    4.2201    4.6717 C   0  0  0  0  0  0  0  0  0  0  0  0
   -1.4887    4.5272    4.2785 F   0  0  0  0  0  0  0  0  0  0  0  0
   -0.3348    3.7143    5.9303 F   0  0  0  0  0  0  0  0  0  0  0  0
    0.4242    5.4128    4.8047 F   0  0  0  0  0  0  0  0  0  0  0  0
    1.8198    2.8880    3.9674 C   0  0  0  0  0  0  0  0  0  0  0  0
    2.4819    2.0137    3.0875 C   0  0  0  0  0  0  0  0  0  0  0  0
    2.9925   -0.7763   -0.8666 C   0  0  0  0  0  0  0  0  0  0  0  0
    2.7501   -0.8344   -2.2503 C   0  0  0  0  0  0  0  0  0  0  0  0
    3.5254   -1.6462   -3.0632 C   0  0  0  0  0  0  0  0  0  0  0  0
    4.5263   -2.3769   -2.4616 C   0  0  0  0  0  0  0  0  0  0  0  0
    4.8040   -2.3264   -1.1388 N   0  0  0  0  0  0  0  0  0  0  0  0
    4.0457   -1.5345   -0.3397 C   0  0  0  0  0  0  0  0  0  0  0  0
    4.3527   -1.4893    1.0335 N   0  0  0  0  0  0  0  0  0  0  0  0
    5.5734   -2.2057    1.4000 C   0  0  0  0  0  0  0  0  0  0  0  0
    5.9857   -1.7422    2.7737 C   0  0  0  0  0  0  0  0  0  0  0  0
    5.7763   -2.5299    3.9073 C   0  0  0  0  0  0  0  0  0  0  0  0
    6.1607   -2.0257    5.1405 C   0  0  0  0  0  0  0  0  0  0  0  0
    6.7251   -0.8110    5.3158 N   0  0  0  0  0  0  0  0  0  0  0  0
    6.9191   -0.0659    4.2079 C   0  0  0  0  0  0  0  0  0  0  0  0
    6.5697   -0.4801    2.9352 C   0  0  0  0  0  0  0  0  0  0  0  0
    3.4986    0.4035    1.3605 H   0  0  0  0  0  0  0  0  0  0  0  0
   -0.0543    1.5618    0.8659 H   0  0  0  0  0  0  0  0  0  0  0  0
   -1.1856    3.0510    2.3818 H   0  0  0  0  0  0  0  0  0  0  0  0
    2.3478    3.2650    4.8430 H   0  0  0  0  0  0  0  0  0  0  0  0
    3.5106    1.7384    3.3061 H   0  0  0  0  0  0  0  0  0  0  0  0
    1.9502   -0.2422   -2.6915 H   0  0  0  0  0  0  0  0  0  0  0  0
    3.3446   -1.7066   -4.1304 H   0  0  0  0  0  0  0  0  0  0  0  0
    5.1559   -3.0462   -3.0433 H   0  0  0  0  0  0  0  0  0  0  0  0
    3.5528   -1.8527    1.5527 H   0  0  0  0  0  0  0  0  0  0  0  0
    6.4040   -1.9829    0.7166 H   0  0  0  0  0  0  0  0  0  0  0  0
    5.4122   -3.2911    1.3873 H   0  0  0  0  0  0  0  0  0  0  0  0
    5.3271   -3.5151    3.8412 H   0  0  0  0  0  0  0  0  0  0  0  0
    6.0202   -2.6032    6.0498 H   0  0  0  0  0  0  0  0  0  0  0  0
    7.3766    0.9050    4.3744 H   0  0  0  0  0  0  0  0  0  0  0  0
    6.7469    0.1662    2.0809 H   0  0  0  0  0  0  0  0  0  0  0  0
  1  2  2  0  0  0  0
  2  3  1  0  0  0  0
  2 14  1  0  0  0  0
  3  4  1  0  0  0  0
  3 28  1  0  0  0  0
  4  5  1  0  0  0  0
  4 13  2  0  0  0  0
  5  6  2  0  0  0  0
  5 29  1  0  0  0  0
  6  7  1  0  0  0  0
  6 30  1  0  0  0  0
  7  8  1  0  0  0  0
  7 12  2  0  0  0  0
  8  9  1  0  0  0  0
  8 10  1  0  0  0  0
  8 11  1  0  0  0  0
 12 13  1  0  0  0  0
 12 31  1  0  0  0  0
 13 32  1  0  0  0  0
 14 15  1  0  0  0  0
 14 19  2  0  0  0  0
 15 16  2  0  0  0  0
 15 33  1  0  0  0  0
 16 17  1  0  0  0  0
 16 34  1  0  0  0  0
 17 18  2  0  0  0  0
 17 35  1  0  0  0  0
 18 19  1  0  0  0  0
 19 20  1  0  0  0  0
 20 21  1  0  0  0  0
 20 36  1  0  0  0  0
 21 22  1  0  0  0  0
 21 37  1  0  0  0  0
 21 38  1  0  0  0  0
 22 23  1  0  0  0  0
 22 27  2  0  0  0  0
 23 24  2  0  0  0  0
 23 39  1  0  0  0  0
 24 25  1  0  0  0  0
 24 40  1  0  0  0  0
 25 26  2  0  0  0  0
 26 27  1  0  0  0  0
 26 41  1  0  0  0  0
 27 42  1  0  0  0  0
M  END
$$$$
