CHEMBL3671563
 OpenBabel04072215373D

 60 63  0  0  0  0  0  0  0  0999 V2000
    2.5012    0.2532    2.3927 C   0  0  0  0  0  0  0  0  0  0  0  0
    3.1193    0.0492    1.2219 C   0  0  0  0  0  0  0  0  0  0  0  0
    3.9329   -1.1789    1.0246 C   0  0  0  0  0  0  0  0  0  0  0  0
    4.1458   -1.9580    1.9464 O   0  0  0  0  0  0  0  0  0  0  0  0
    4.3597   -1.3437   -0.2804 N   0  0  0  0  0  0  0  0  0  0  0  0
    5.1426   -2.4593   -0.6505 C   0  0  0  0  0  0  0  0  0  0  0  0
    6.2946   -2.6878    0.1017 C   0  0  0  0  0  0  0  0  0  0  0  0
    6.9989   -3.8928   -0.0025 C   0  0  0  0  0  0  0  0  0  0  0  0
    8.0563   -4.2656    0.8441 C   0  0  0  0  0  0  0  0  0  0  0  0
    8.4051   -3.4434    1.9526 N   0  0  0  0  0  0  0  0  0  0  0  0
    9.1082   -3.9042    3.0901 C   0  0  0  0  0  0  0  0  0  0  0  0
    8.7781   -5.1367    3.6717 C   0  0  0  0  0  0  0  0  0  0  0  0
    9.5769   -5.7003    4.6659 C   0  0  0  0  0  0  0  0  0  0  0  0
   10.7066   -5.0174    5.1066 C   0  0  0  0  0  0  0  0  0  0  0  0
   11.8737   -5.8529    6.3365 Br  0  0  0  0  0  0  0  0  0  0  0  0
   11.0029   -3.7481    4.6150 C   0  0  0  0  0  0  0  0  0  0  0  0
   10.1968   -3.1994    3.6178 C   0  0  0  0  0  0  0  0  0  0  0  0
   10.5103   -1.9913    3.1224 F   0  0  0  0  0  0  0  0  0  0  0  0
    8.6888   -5.4432    0.7034 N   0  0  0  0  0  0  0  0  0  0  0  0
    8.2468   -6.2676   -0.2617 C   0  0  0  0  0  0  0  0  0  0  0  0
    7.2204   -6.0306   -1.0771 N   0  0  0  0  0  0  0  0  0  0  0  0
    6.5910   -4.8560   -0.9374 C   0  0  0  0  0  0  0  0  0  0  0  0
    5.4848   -4.5843   -1.7354 C   0  0  0  0  0  0  0  0  0  0  0  0
    4.7612   -3.3850   -1.6363 C   0  0  0  0  0  0  0  0  0  0  0  0
    3.6998   -3.3004   -2.5140 O   0  0  0  0  0  0  0  0  0  0  0  0
    3.3890   -1.9737   -2.9386 C   0  0  0  0  0  0  0  0  0  0  0  0
    2.9225   -1.8963   -4.3967 C   0  0  0  0  0  0  0  0  0  0  0  0
    2.6960   -0.5182   -4.8388 N   0  0  0  0  0  0  0  0  0  0  0  0
    3.6953    0.4220   -4.8022 C   0  0  0  0  0  0  0  0  0  0  0  0
    4.8272    0.1456   -4.4122 O   0  0  0  0  0  0  0  0  0  0  0  0
    3.3338    1.6916   -5.1575 N   0  0  0  0  0  0  0  0  0  0  0  0
    1.9928    2.1669   -5.5108 C   0  0  0  0  0  0  0  0  0  0  0  0
    2.0794    3.1307   -6.6968 C   0  0  0  0  0  0  0  0  0  0  0  0
    2.9660    4.2237   -6.4126 O   0  0  0  0  0  0  0  0  0  0  0  0
    4.2922    3.7454   -6.1305 C   0  0  0  0  0  0  0  0  0  0  0  0
    4.2897    2.7851   -4.9396 C   0  0  0  0  0  0  0  0  0  0  0  0
    1.8617    1.1150    2.5494 H   0  0  0  0  0  0  0  0  0  0  0  0
    2.6006   -0.4483    3.2175 H   0  0  0  0  0  0  0  0  0  0  0  0
    2.9947    0.7373    0.3961 H   0  0  0  0  0  0  0  0  0  0  0  0
    4.4053   -0.5339   -0.8855 H   0  0  0  0  0  0  0  0  0  0  0  0
    6.6113   -1.9333    0.8174 H   0  0  0  0  0  0  0  0  0  0  0  0
    8.6600   -2.5001    1.6770 H   0  0  0  0  0  0  0  0  0  0  0  0
    7.9099   -5.6860    3.3127 H   0  0  0  0  0  0  0  0  0  0  0  0
    9.3246   -6.6839    5.0527 H   0  0  0  0  0  0  0  0  0  0  0  0
   11.8694   -3.1974    4.9654 H   0  0  0  0  0  0  0  0  0  0  0  0
    8.7659   -7.2074   -0.3660 H   0  0  0  0  0  0  0  0  0  0  0  0
    5.1565   -5.3455   -2.4409 H   0  0  0  0  0  0  0  0  0  0  0  0
    4.2740   -1.3477   -2.8402 H   0  0  0  0  0  0  0  0  0  0  0  0
    2.5948   -1.5796   -2.2954 H   0  0  0  0  0  0  0  0  0  0  0  0
    1.9724   -2.4376   -4.5194 H   0  0  0  0  0  0  0  0  0  0  0  0
    3.6440   -2.3685   -5.0772 H   0  0  0  0  0  0  0  0  0  0  0  0
    2.0566   -0.4257   -5.6089 H   0  0  0  0  0  0  0  0  0  0  0  0
    1.6058    2.6867   -4.6268 H   0  0  0  0  0  0  0  0  0  0  0  0
    1.3072    1.3496   -5.7442 H   0  0  0  0  0  0  0  0  0  0  0  0
    1.0908    3.5481   -6.9123 H   0  0  0  0  0  0  0  0  0  0  0  0
    2.4319    2.6117   -7.5962 H   0  0  0  0  0  0  0  0  0  0  0  0
    4.9204    4.6141   -5.9118 H   0  0  0  0  0  0  0  0  0  0  0  0
    4.6927    3.2558   -7.0261 H   0  0  0  0  0  0  0  0  0  0  0  0
    3.9527    3.3123   -4.0387 H   0  0  0  0  0  0  0  0  0  0  0  0
    5.3010    2.4144   -4.7486 H   0  0  0  0  0  0  0  0  0  0  0  0
  1  2  2  0  0  0  0
  1 37  1  0  0  0  0
  1 38  1  0  0  0  0
  2  3  1  0  0  0  0
  2 39  1  0  0  0  0
  3  4  2  0  0  0  0
  3  5  1  0  0  0  0
  5  6  1  0  0  0  0
  5 40  1  0  0  0  0
  6  7  1  0  0  0  0
  6 24  2  0  0  0  0
  7  8  2  0  0  0  0
  7 41  1  0  0  0  0
  8  9  1  0  0  0  0
  8 22  1  0  0  0  0
  9 10  1  0  0  0  0
  9 19  2  0  0  0  0
 10 11  1  0  0  0  0
 10 42  1  0  0  0  0
 11 12  1  0  0  0  0
 11 17  2  0  0  0  0
 12 13  2  0  0  0  0
 12 43  1  0  0  0  0
 13 14  1  0  0  0  0
 13 44  1  0  0  0  0
 14 15  1  0  0  0  0
 14 16  2  0  0  0  0
 16 17  1  0  0  0  0
 16 45  1  0  0  0  0
 17 18  1  0  0  0  0
 19 20  1  0  0  0  0
 20 21  2  0  0  0  0
 20 46  1  0  0  0  0
 21 22  1  0  0  0  0
 22 23  2  0  0  0  0
 23 24  1  0  0  0  0
 23 47  1  0  0  0  0
 24 25  1  0  0  0  0
 25 26  1  0  0  0  0
 26 27  1  0  0  0  0
 26 48  1  0  0  0  0
 26 49  1  0  0  0  0
 27 28  1  0  0  0  0
 27 50  1  0  0  0  0
 27 51  1  0  0  0  0
 28 29  1  0  0  0  0
 28 52  1  0  0  0  0
 29 30  2  0  0  0  0
 29 31  1  0  0  0  0
 31 32  1  0  0  0  0
 31 36  1  0  0  0  0
 32 33  1  0  0  0  0
 32 53  1  0  0  0  0
 32 54  1  0  0  0  0
 33 34  1  0  0  0  0
 33 55  1  0  0  0  0
 33 56  1  0  0  0  0
 34 35  1  0  0  0  0
 35 36  1  0  0  0  0
 35 57  1  0  0  0  0
 35 58  1  0  0  0  0
 36 59  1  0  0  0  0
 36 60  1  0  0  0  0
M  END
$$$$
