CHEMBL3660269
 OpenBabel04072215373D

 60 64  0  0  0  0  0  0  0  0999 V2000
    2.8088    0.7692   -2.3707 C   0  0  0  0  0  0  0  0  0  0  0  0
    1.4015    0.4977   -1.9245 C   0  0  0  0  0  0  0  0  0  0  0  0
    0.8906   -0.8019   -1.9961 C   0  0  0  0  0  0  0  0  0  0  0  0
   -0.3974   -1.0658   -1.5496 C   0  0  0  0  0  0  0  0  0  0  0  0
   -1.1883   -0.0351   -1.0491 C   0  0  0  0  0  0  0  0  0  0  0  0
   -2.3570   -0.4053   -0.5115 F   0  0  0  0  0  0  0  0  0  0  0  0
   -0.7362    1.2941   -1.0266 C   0  0  0  0  0  0  0  0  0  0  0  0
   -1.5194    2.4104   -0.6187 N   0  0  0  0  0  0  0  0  0  0  0  0
   -2.9017    2.4293   -0.5546 C   0  0  0  0  0  0  0  0  0  0  0  0
   -3.6402    1.5052   -0.8764 O   0  0  0  0  0  0  0  0  0  0  0  0
   -3.4017    3.6659   -0.1461 N   0  0  0  0  0  0  0  0  0  0  0  0
   -4.8008    3.7884    0.0558 C   0  0  0  0  0  0  0  0  0  0  0  0
   -5.4828    2.8562    0.8462 C   0  0  0  0  0  0  0  0  0  0  0  0
   -6.8735    2.8920    0.9447 C   0  0  0  0  0  0  0  0  0  0  0  0
   -7.5921    3.8985    0.2988 C   0  0  0  0  0  0  0  0  0  0  0  0
   -8.9654    4.0102    0.3322 O   0  0  0  0  0  0  0  0  0  0  0  0
   -9.6511    3.6076    1.4580 C   0  0  0  0  0  0  0  0  0  0  0  0
   -9.1899    3.7912    2.7566 C   0  0  0  0  0  0  0  0  0  0  0  0
   -9.9649    3.3085    3.7961 C   0  0  0  0  0  0  0  0  0  0  0  0
  -11.1654    2.7123    3.6292 N   0  0  0  0  0  0  0  0  0  0  0  0
  -11.6202    2.6053    2.3570 C   0  0  0  0  0  0  0  0  0  0  0  0
  -12.9365    1.9931    2.2338 C   0  0  0  0  0  0  0  0  0  0  0  0
  -13.7582    1.8058    1.1363 C   0  0  0  0  0  0  0  0  0  0  0  0
  -14.9557    1.1617    1.5582 C   0  0  0  0  0  0  0  0  0  0  0  0
  -16.0995    0.8336    0.7124 C   0  0  0  0  0  0  0  0  0  0  0  0
  -16.4282    1.5511   -0.2284 O   0  0  0  0  0  0  0  0  0  0  0  0
  -16.7630   -0.3340    1.0349 N   0  0  0  0  0  0  0  0  0  0  0  0
  -17.8393   -0.9186    0.2423 C   0  0  0  0  0  0  0  0  0  0  0  0
  -17.0593   -2.2288    0.2427 C   0  0  0  0  0  0  0  0  0  0  0  0
  -16.1203   -1.6266    1.2873 C   0  0  0  0  0  0  0  0  0  0  0  0
  -14.8286    0.9720    2.9234 C   0  0  0  0  0  0  0  0  0  0  0  0
  -13.6193    1.4858    3.3175 N   0  0  0  0  0  0  0  0  0  0  0  0
  -10.9016    3.0388    1.2509 C   0  0  0  0  0  0  0  0  0  0  0  0
   -6.9127    4.8299   -0.4929 C   0  0  0  0  0  0  0  0  0  0  0  0
   -5.5155    4.7939   -0.5952 C   0  0  0  0  0  0  0  0  0  0  0  0
    0.5849    1.5399   -1.4390 C   0  0  0  0  0  0  0  0  0  0  0  0
    3.3044   -0.1501   -2.7039 H   0  0  0  0  0  0  0  0  0  0  0  0
    3.3961    1.1786   -1.5432 H   0  0  0  0  0  0  0  0  0  0  0  0
    2.8147    1.4722   -3.2088 H   0  0  0  0  0  0  0  0  0  0  0  0
    1.4951   -1.6208   -2.3795 H   0  0  0  0  0  0  0  0  0  0  0  0
   -0.7985   -2.0745   -1.5673 H   0  0  0  0  0  0  0  0  0  0  0  0
   -1.0430    3.2916   -0.5008 H   0  0  0  0  0  0  0  0  0  0  0  0
   -2.9463    4.4583   -0.5744 H   0  0  0  0  0  0  0  0  0  0  0  0
   -4.9386    2.0700    1.3654 H   0  0  0  0  0  0  0  0  0  0  0  0
   -7.3735    2.1146    1.5153 H   0  0  0  0  0  0  0  0  0  0  0  0
   -8.2429    4.2749    2.9642 H   0  0  0  0  0  0  0  0  0  0  0  0
   -9.6244    3.3902    4.8243 H   0  0  0  0  0  0  0  0  0  0  0  0
  -13.5386    2.0960    0.1170 H   0  0  0  0  0  0  0  0  0  0  0  0
  -17.9917   -0.4700   -0.7468 H   0  0  0  0  0  0  0  0  0  0  0  0
  -18.7856   -0.9355    0.7913 H   0  0  0  0  0  0  0  0  0  0  0  0
  -16.5776   -2.4560   -0.7168 H   0  0  0  0  0  0  0  0  0  0  0  0
  -17.6241   -3.1054    0.5711 H   0  0  0  0  0  0  0  0  0  0  0  0
  -15.0604   -1.6792    1.0185 H   0  0  0  0  0  0  0  0  0  0  0  0
  -16.2723   -1.9738    2.3114 H   0  0  0  0  0  0  0  0  0  0  0  0
  -15.5112    0.5530    3.6511 H   0  0  0  0  0  0  0  0  0  0  0  0
  -13.2576    1.5220    4.2631 H   0  0  0  0  0  0  0  0  0  0  0  0
  -11.2935    2.9350    0.2461 H   0  0  0  0  0  0  0  0  0  0  0  0
   -7.4763    5.5707   -1.0550 H   0  0  0  0  0  0  0  0  0  0  0  0
   -5.0161    5.5042   -1.2466 H   0  0  0  0  0  0  0  0  0  0  0  0
    0.9893    2.5493   -1.4105 H   0  0  0  0  0  0  0  0  0  0  0  0
  1  2  1  0  0  0  0
  1 37  1  0  0  0  0
  1 38  1  0  0  0  0
  1 39  1  0  0  0  0
  2  3  1  0  0  0  0
  2 36  2  0  0  0  0
  3  4  2  0  0  0  0
  3 40  1  0  0  0  0
  4  5  1  0  0  0  0
  4 41  1  0  0  0  0
  5  6  1  0  0  0  0
  5  7  2  0  0  0  0
  7  8  1  0  0  0  0
  7 36  1  0  0  0  0
  8  9  1  0  0  0  0
  8 42  1  0  0  0  0
  9 10  2  0  0  0  0
  9 11  1  0  0  0  0
 11 12  1  0  0  0  0
 11 43  1  0  0  0  0
 12 13  1  0  0  0  0
 12 35  2  0  0  0  0
 13 14  2  0  0  0  0
 13 44  1  0  0  0  0
 14 15  1  0  0  0  0
 14 45  1  0  0  0  0
 15 16  1  0  0  0  0
 15 34  2  0  0  0  0
 16 17  1  0  0  0  0
 17 18  1  0  0  0  0
 17 33  2  0  0  0  0
 18 19  2  0  0  0  0
 18 46  1  0  0  0  0
 19 20  1  0  0  0  0
 19 47  1  0  0  0  0
 20 21  2  0  0  0  0
 21 22  1  0  0  0  0
 21 33  1  0  0  0  0
 22 23  2  0  0  0  0
 22 32  1  0  0  0  0
 23 24  1  0  0  0  0
 23 48  1  0  0  0  0
 24 25  1  0  0  0  0
 24 31  2  0  0  0  0
 25 26  2  0  0  0  0
 25 27  1  0  0  0  0
 27 28  1  0  0  0  0
 27 30  1  0  0  0  0
 28 29  1  0  0  0  0
 28 49  1  0  0  0  0
 28 50  1  0  0  0  0
 29 30  1  0  0  0  0
 29 51  1  0  0  0  0
 29 52  1  0  0  0  0
 30 53  1  0  0  0  0
 30 54  1  0  0  0  0
 31 32  1  0  0  0  0
 31 55  1  0  0  0  0
 32 56  1  0  0  0  0
 33 57  1  0  0  0  0
 34 35  1  0  0  0  0
 34 58  1  0  0  0  0
 35 59  1  0  0  0  0
 36 60  1  0  0  0  0
M  END
$$$$
