CHEMBL3742200
 OpenBabel04072215373D

 52 57  0  0  0  0  0  0  0  0999 V2000
    1.0319    0.6864   -1.0596 O   0  0  0  0  0  0  0  0  0  0  0  0
    2.3604    0.4170   -0.8986 C   0  0  0  0  0  0  0  0  0  0  0  0
    3.0790    1.2552   -0.1107 N   0  0  0  0  0  0  0  0  0  0  0  0
    4.5019    1.0824    0.1379 N   0  0  0  0  0  0  0  0  0  0  0  0
    5.2409    0.0468   -0.3611 C   0  0  0  0  0  0  0  0  0  0  0  0
    6.6682   -0.0285   -0.1184 C   0  0  0  0  0  0  0  0  0  0  0  0
    7.5553   -0.5651   -1.0320 C   0  0  0  0  0  0  0  0  0  0  0  0
    8.8165   -0.4618   -0.5271 N   0  0  0  0  0  0  0  0  0  0  0  0
    8.8095    0.2069    0.6749 C   0  0  0  0  0  0  0  0  0  0  0  0
   10.0863    0.4782    1.3606 C   0  0  0  0  0  0  0  0  0  0  0  0
   11.2268    0.8390    0.6220 C   0  0  0  0  0  0  0  0  0  0  0  0
   12.4301    1.1416    1.2609 C   0  0  0  0  0  0  0  0  0  0  0  0
   12.5060    1.1135    2.6509 C   0  0  0  0  0  0  0  0  0  0  0  0
   11.3880    0.7539    3.3981 C   0  0  0  0  0  0  0  0  0  0  0  0
   10.1973    0.4073    2.7537 C   0  0  0  0  0  0  0  0  0  0  0  0
    7.4677    0.4884    0.9700 C   0  0  0  0  0  0  0  0  0  0  0  0
    7.0127    1.1695    2.1887 C   0  0  0  0  0  0  0  0  0  0  0  0
    7.6932    2.2856    2.6962 C   0  0  0  0  0  0  0  0  0  0  0  0
    7.3412    2.8405    3.9292 C   0  0  0  0  0  0  0  0  0  0  0  0
    6.2492    2.3399    4.6322 C   0  0  0  0  0  0  0  0  0  0  0  0
    5.5132    1.2827    4.1044 C   0  0  0  0  0  0  0  0  0  0  0  0
    5.9057    0.6877    2.9020 C   0  0  0  0  0  0  0  0  0  0  0  0
    4.4718   -0.8294   -1.1385 C   0  0  0  0  0  0  0  0  0  0  0  0
    4.8552   -2.0153   -1.7035 C   0  0  0  0  0  0  0  0  0  0  0  0
    3.7806   -2.4658   -2.4283 N   0  0  0  0  0  0  0  0  0  0  0  0
    3.7465   -3.6221   -3.2612 C   0  0  0  0  0  0  0  0  0  0  0  0
    4.8440   -4.4929   -3.3301 C   0  0  0  0  0  0  0  0  0  0  0  0
    4.7927   -5.6312   -4.1370 C   0  0  0  0  0  0  0  0  0  0  0  0
    3.6498   -5.9005   -4.8850 C   0  0  0  0  0  0  0  0  0  0  0  0
    3.5867   -7.3143   -5.8615 Cl  0  0  0  0  0  0  0  0  0  0  0  0
    2.5591   -5.0338   -4.8401 C   0  0  0  0  0  0  0  0  0  0  0  0
    2.6051   -3.8953   -4.0283 C   0  0  0  0  0  0  0  0  0  0  0  0
    2.6871   -1.6783   -2.2619 N   0  0  0  0  0  0  0  0  0  0  0  0
    3.0702   -0.6735   -1.4494 C   0  0  0  0  0  0  0  0  0  0  0  0
    0.9257    1.4770   -0.5101 H   0  0  0  0  0  0  0  0  0  0  0  0
    7.4119   -1.0094   -2.0071 H   0  0  0  0  0  0  0  0  0  0  0  0
    9.6499   -0.8076   -0.9841 H   0  0  0  0  0  0  0  0  0  0  0  0
   11.1875    0.9182   -0.4608 H   0  0  0  0  0  0  0  0  0  0  0  0
   13.3039    1.4181    0.6759 H   0  0  0  0  0  0  0  0  0  0  0  0
   13.4333    1.3772    3.1533 H   0  0  0  0  0  0  0  0  0  0  0  0
   11.4318    0.7495    4.4830 H   0  0  0  0  0  0  0  0  0  0  0  0
    9.3439    0.1139    3.3619 H   0  0  0  0  0  0  0  0  0  0  0  0
    8.5385    2.7078    2.1578 H   0  0  0  0  0  0  0  0  0  0  0  0
    7.9281    3.6577    4.3395 H   0  0  0  0  0  0  0  0  0  0  0  0
    5.9691    2.7763    5.5868 H   0  0  0  0  0  0  0  0  0  0  0  0
    4.6390    0.9101    4.6314 H   0  0  0  0  0  0  0  0  0  0  0  0
    5.3312   -0.1575    2.5327 H   0  0  0  0  0  0  0  0  0  0  0  0
    5.7874   -2.5522   -1.6681 H   0  0  0  0  0  0  0  0  0  0  0  0
    5.7567   -4.3332   -2.7592 H   0  0  0  0  0  0  0  0  0  0  0  0
    5.6433   -6.3072   -4.1739 H   0  0  0  0  0  0  0  0  0  0  0  0
    1.6710   -5.2375   -5.4316 H   0  0  0  0  0  0  0  0  0  0  0  0
    1.7441   -3.2283   -4.0102 H   0  0  0  0  0  0  0  0  0  0  0  0
  1  2  1  0  0  0  0
  1 35  1  0  0  0  0
  2  3  2  0  0  0  0
  2 34  1  0  0  0  0
  3  4  1  0  0  0  0
  4  5  2  0  0  0  0
  5  6  1  0  0  0  0
  5 23  1  0  0  0  0
  6  7  2  0  0  0  0
  6 16  1  0  0  0  0
  7  8  1  0  0  0  0
  7 36  1  0  0  0  0
  8  9  1  0  0  0  0
  8 37  1  0  0  0  0
  9 10  1  0  0  0  0
  9 16  2  0  0  0  0
 10 11  1  0  0  0  0
 10 15  2  0  0  0  0
 11 12  2  0  0  0  0
 11 38  1  0  0  0  0
 12 13  1  0  0  0  0
 12 39  1  0  0  0  0
 13 14  2  0  0  0  0
 13 40  1  0  0  0  0
 14 15  1  0  0  0  0
 14 41  1  0  0  0  0
 15 42  1  0  0  0  0
 16 17  1  0  0  0  0
 17 18  1  0  0  0  0
 17 22  2  0  0  0  0
 18 19  2  0  0  0  0
 18 43  1  0  0  0  0
 19 20  1  0  0  0  0
 19 44  1  0  0  0  0
 20 21  2  0  0  0  0
 20 45  1  0  0  0  0
 21 22  1  0  0  0  0
 21 46  1  0  0  0  0
 22 47  1  0  0  0  0
 23 24  2  0  0  0  0
 23 34  1  0  0  0  0
 24 25  1  0  0  0  0
 24 48  1  0  0  0  0
 25 26  1  0  0  0  0
 25 33  1  0  0  0  0
 26 27  1  0  0  0  0
 26 32  2  0  0  0  0
 27 28  2  0  0  0  0
 27 49  1  0  0  0  0
 28 29  1  0  0  0  0
 28 50  1  0  0  0  0
 29 30  1  0  0  0  0
 29 31  2  0  0  0  0
 31 32  1  0  0  0  0
 31 51  1  0  0  0  0
 32 52  1  0  0  0  0
 33 34  2  0  0  0  0
M  END
$$$$
