CHEMBL202714
 OpenBabel04072215363D

 34 36  0  0  0  0  0  0  0  0999 V2000
    1.2232    0.3048    0.5633 O   0  0  0  0  0  0  0  0  0  0  0  0
    2.1668   -0.1083   -0.1049 C   0  0  0  0  0  0  0  0  0  0  0  0
    2.6249   -1.4166   -0.0253 N   0  0  0  0  0  0  0  0  0  0  0  0
    2.0301   -2.4396    0.7504 C   0  0  0  0  0  0  0  0  0  0  0  0
    0.7241   -2.3534    1.2497 C   0  0  0  0  0  0  0  0  0  0  0  0
    0.1961   -3.3598    2.0618 C   0  0  0  0  0  0  0  0  0  0  0  0
    0.9648   -4.4774    2.3779 C   0  0  0  0  0  0  0  0  0  0  0  0
    0.2630   -5.6646    3.4143 Cl  0  0  0  0  0  0  0  0  0  0  0  0
    2.2570   -4.5927    1.8540 C   0  0  0  0  0  0  0  0  0  0  0  0
    3.2692   -5.9498    2.2022 Cl  0  0  0  0  0  0  0  0  0  0  0  0
    2.7815   -3.5833    1.0309 C   0  0  0  0  0  0  0  0  0  0  0  0
    2.8833    0.7897   -0.9984 C   0  0  0  0  0  0  0  0  0  0  0  0
    4.1877    0.3096   -1.9987 S   0  0  0  0  0  0  0  0  0  0  0  0
    4.2833    1.9051   -2.6190 C   0  0  0  0  0  0  0  0  0  0  0  0
    3.4292    2.7718   -2.1225 N   0  0  0  0  0  0  0  0  0  0  0  0
    2.6169    2.1429   -1.1901 C   0  0  0  0  0  0  0  0  0  0  0  0
    1.5448    2.9209   -0.4781 C   0  0  0  0  0  0  0  0  0  0  0  0
    1.4068    4.3862   -0.8820 C   0  0  0  0  0  0  0  0  0  0  0  0
    0.2986    5.0487   -0.1355 C   0  0  0  0  0  0  0  0  0  0  0  0
   -1.0701    5.1221   -0.4812 C   0  0  0  0  0  0  0  0  0  0  0  0
   -1.7909    5.7751    0.4328 N   0  0  0  0  0  0  0  0  0  0  0  0
   -0.8863    6.1432    1.4149 O   0  0  0  0  0  0  0  0  0  0  0  0
    0.3508    5.7067    1.0713 C   0  0  0  0  0  0  0  0  0  0  0  0
    3.5155   -1.6134   -0.4657 H   0  0  0  0  0  0  0  0  0  0  0  0
    0.0727   -1.5156    1.0192 H   0  0  0  0  0  0  0  0  0  0  0  0
   -0.8161   -3.2507    2.4461 H   0  0  0  0  0  0  0  0  0  0  0  0
    3.7931   -3.6870    0.6469 H   0  0  0  0  0  0  0  0  0  0  0  0
    5.0074    2.1799   -3.3762 H   0  0  0  0  0  0  0  0  0  0  0  0
    1.7419    2.8668    0.6013 H   0  0  0  0  0  0  0  0  0  0  0  0
    0.5843    2.4188   -0.6549 H   0  0  0  0  0  0  0  0  0  0  0  0
    1.2129    4.4621   -1.9592 H   0  0  0  0  0  0  0  0  0  0  0  0
    2.3463    4.9200   -0.6928 H   0  0  0  0  0  0  0  0  0  0  0  0
   -1.5732    4.7242   -1.3516 H   0  0  0  0  0  0  0  0  0  0  0  0
    1.1352    5.9328    1.7783 H   0  0  0  0  0  0  0  0  0  0  0  0
  1  2  2  0  0  0  0
  2  3  1  0  0  0  0
  2 12  1  0  0  0  0
  3  4  1  0  0  0  0
  3 24  1  0  0  0  0
  4  5  1  0  0  0  0
  4 11  2  0  0  0  0
  5  6  2  0  0  0  0
  5 25  1  0  0  0  0
  6  7  1  0  0  0  0
  6 26  1  0  0  0  0
  7  8  1  0  0  0  0
  7  9  2  0  0  0  0
  9 10  1  0  0  0  0
  9 11  1  0  0  0  0
 11 27  1  0  0  0  0
 12 13  1  0  0  0  0
 12 16  2  0  0  0  0
 13 14  1  0  0  0  0
 14 15  2  0  0  0  0
 14 28  1  0  0  0  0
 15 16  1  0  0  0  0
 16 17  1  0  0  0  0
 17 18  1  0  0  0  0
 17 29  1  0  0  0  0
 17 30  1  0  0  0  0
 18 19  1  0  0  0  0
 18 31  1  0  0  0  0
 18 32  1  0  0  0  0
 19 20  1  0  0  0  0
 19 23  2  0  0  0  0
 20 21  2  0  0  0  0
 20 33  1  0  0  0  0
 21 22  1  0  0  0  0
 22 23  1  0  0  0  0
 23 34  1  0  0  0  0
M  END
$$$$
