CHEMBL4162460
 OpenBabel04072215383D

 45 49  0  0  0  0  0  0  0  0999 V2000
    4.8970    2.8758    4.0925 C   0  0  0  0  0  0  0  0  0  0  0  0
    5.3544    2.1152    2.9590 N   0  0  0  0  0  0  0  0  0  0  0  0
    5.4200    2.6814    1.7315 N   0  0  0  0  0  0  0  0  0  0  0  0
    5.9035    1.6978    0.9638 C   0  0  0  0  0  0  0  0  0  0  0  0
    6.1376    0.5149    1.6847 C   0  0  0  0  0  0  0  0  0  0  0  0
    6.6266   -0.7673    1.4575 C   0  0  0  0  0  0  0  0  0  0  0  0
    7.0796   -1.1363    0.1973 O   0  0  0  0  0  0  0  0  0  0  0  0
    8.1553   -1.9980    0.1363 C   0  0  0  0  0  0  0  0  0  0  0  0
    8.2116   -2.8525   -0.9702 C   0  0  0  0  0  0  0  0  0  0  0  0
    9.2441   -3.7909   -1.1184 C   0  0  0  0  0  0  0  0  0  0  0  0
   10.2077   -3.8368   -0.1028 C   0  0  0  0  0  0  0  0  0  0  0  0
   10.1950   -2.9587    0.9713 C   0  0  0  0  0  0  0  0  0  0  0  0
    9.1823   -2.0031    1.0856 C   0  0  0  0  0  0  0  0  0  0  0  0
   11.2428   -3.1928    1.8086 N   0  0  0  0  0  0  0  0  0  0  0  0
   11.9044   -4.2142    1.3116 C   0  0  0  0  0  0  0  0  0  0  0  0
   13.0310   -4.7784    1.8167 N   0  0  0  0  0  0  0  0  0  0  0  0
   13.6575   -4.3692    3.0163 C   0  0  0  0  0  0  0  0  0  0  0  0
   12.9432   -3.8322    4.0983 C   0  0  0  0  0  0  0  0  0  0  0  0
   13.5948   -3.3220    5.2252 C   0  0  0  0  0  0  0  0  0  0  0  0
   14.9864   -3.3372    5.2905 C   0  0  0  0  0  0  0  0  0  0  0  0
   15.7365   -2.6529    6.6877 Cl  0  0  0  0  0  0  0  0  0  0  0  0
   15.7181   -3.8850    4.2330 C   0  0  0  0  0  0  0  0  0  0  0  0
   17.4472   -3.9395    4.2380 Cl  0  0  0  0  0  0  0  0  0  0  0  0
   15.0557   -4.4004    3.1078 C   0  0  0  0  0  0  0  0  0  0  0  0
   11.3030   -4.6423    0.1418 N   0  0  0  0  0  0  0  0  0  0  0  0
   11.6720   -5.7657   -0.6822 C   0  0  0  0  0  0  0  0  0  0  0  0
    6.6493   -1.6601    2.4817 N   0  0  0  0  0  0  0  0  0  0  0  0
    6.2671   -1.2329    3.6993 C   0  0  0  0  0  0  0  0  0  0  0  0
    5.8186   -0.0143    4.0449 N   0  0  0  0  0  0  0  0  0  0  0  0
    5.7664    0.8111    2.9832 C   0  0  0  0  0  0  0  0  0  0  0  0
    4.6323    3.8869    3.7727 H   0  0  0  0  0  0  0  0  0  0  0  0
    5.7061    2.9209    4.8280 H   0  0  0  0  0  0  0  0  0  0  0  0
    4.0217    2.3781    4.5157 H   0  0  0  0  0  0  0  0  0  0  0  0
    6.0687    1.8859   -0.0894 H   0  0  0  0  0  0  0  0  0  0  0  0
    7.4295   -2.8014   -1.7250 H   0  0  0  0  0  0  0  0  0  0  0  0
    9.2719   -4.4595   -1.9716 H   0  0  0  0  0  0  0  0  0  0  0  0
    9.2013   -1.3254    1.9299 H   0  0  0  0  0  0  0  0  0  0  0  0
   13.6059   -5.3796    1.2399 H   0  0  0  0  0  0  0  0  0  0  0  0
   11.8558   -3.7945    4.0736 H   0  0  0  0  0  0  0  0  0  0  0  0
   13.0052   -2.9000    6.0350 H   0  0  0  0  0  0  0  0  0  0  0  0
   15.6449   -4.7919    2.2830 H   0  0  0  0  0  0  0  0  0  0  0  0
   12.3366   -6.4393   -0.1393 H   0  0  0  0  0  0  0  0  0  0  0  0
   12.1655   -5.3838   -1.5791 H   0  0  0  0  0  0  0  0  0  0  0  0
   10.7662   -6.3151   -0.9547 H   0  0  0  0  0  0  0  0  0  0  0  0
    6.3438   -1.9611    4.5029 H   0  0  0  0  0  0  0  0  0  0  0  0
  1  2  1  0  0  0  0
  1 31  1  0  0  0  0
  1 32  1  0  0  0  0
  1 33  1  0  0  0  0
  2  3  1  0  0  0  0
  2 30  1  0  0  0  0
  3  4  2  0  0  0  0
  4  5  1  0  0  0  0
  4 34  1  0  0  0  0
  5  6  1  0  0  0  0
  5 30  2  0  0  0  0
  6  7  1  0  0  0  0
  6 27  2  0  0  0  0
  7  8  1  0  0  0  0
  8  9  1  0  0  0  0
  8 13  2  0  0  0  0
  9 10  2  0  0  0  0
  9 35  1  0  0  0  0
 10 11  1  0  0  0  0
 10 36  1  0  0  0  0
 11 12  2  0  0  0  0
 11 25  1  0  0  0  0
 12 13  1  0  0  0  0
 12 14  1  0  0  0  0
 13 37  1  0  0  0  0
 14 15  2  0  0  0  0
 15 16  1  0  0  0  0
 15 25  1  0  0  0  0
 16 17  1  0  0  0  0
 16 38  1  0  0  0  0
 17 18  1  0  0  0  0
 17 24  2  0  0  0  0
 18 19  2  0  0  0  0
 18 39  1  0  0  0  0
 19 20  1  0  0  0  0
 19 40  1  0  0  0  0
 20 21  1  0  0  0  0
 20 22  2  0  0  0  0
 22 23  1  0  0  0  0
 22 24  1  0  0  0  0
 24 41  1  0  0  0  0
 25 26  1  0  0  0  0
 26 42  1  0  0  0  0
 26 43  1  0  0  0  0
 26 44  1  0  0  0  0
 27 28  1  0  0  0  0
 28 29  2  0  0  0  0
 28 45  1  0  0  0  0
 29 30  1  0  0  0  0
M  END
$$$$
