CHEMBL1254355
 OpenBabel04072215363D

 47 50  0  0  0  0  0  0  0  0999 V2000
    3.6825   -0.7696   -1.1327 C   0  0  0  0  0  0  0  0  0  0  0  0
    3.4618   -0.4322    0.2560 N   0  0  0  0  0  0  0  0  0  0  0  0
    4.0672    0.6147    0.9082 C   0  0  0  0  0  0  0  0  0  0  0  0
    3.6056    0.6282    2.2070 C   0  0  0  0  0  0  0  0  0  0  0  0
    2.6915   -0.4415    2.3400 C   0  0  0  0  0  0  0  0  0  0  0  0
    1.9921   -0.8254    3.4281 N   0  0  0  0  0  0  0  0  0  0  0  0
    1.1992   -1.8800    3.2061 C   0  0  0  0  0  0  0  0  0  0  0  0
    1.0471   -2.5689    2.0636 N   0  0  0  0  0  0  0  0  0  0  0  0
    1.7930   -2.2039    0.9962 C   0  0  0  0  0  0  0  0  0  0  0  0
    1.7122   -2.9332   -0.1860 O   0  0  0  0  0  0  0  0  0  0  0  0
    1.5424   -4.2973   -0.0744 C   0  0  0  0  0  0  0  0  0  0  0  0
    2.0980   -5.0493    0.9574 C   0  0  0  0  0  0  0  0  0  0  0  0
    1.8789   -6.4244    1.0290 C   0  0  0  0  0  0  0  0  0  0  0  0
    1.1333   -7.0951    0.0547 C   0  0  0  0  0  0  0  0  0  0  0  0
    0.8959   -8.4980    0.1076 N   0  0  0  0  0  0  0  0  0  0  0  0
    1.2551   -9.3381    1.1477 C   0  0  0  0  0  0  0  0  0  0  0  0
    1.7505   -8.9593    2.2045 O   0  0  0  0  0  0  0  0  0  0  0  0
    1.0172  -10.6708    0.8687 N   0  0  0  0  0  0  0  0  0  0  0  0
    1.3449  -11.6671    1.7777 C   0  0  0  0  0  0  0  0  0  0  0  0
    1.6884  -11.5834    3.1491 C   0  0  0  0  0  0  0  0  0  0  0  0
    1.9803  -12.7746    3.6764 N   0  0  0  0  0  0  0  0  0  0  0  0
    1.8792  -13.6115    2.6299 N   0  0  0  0  0  0  0  0  0  0  0  0
    2.2128  -15.0016    2.8240 C   0  0  0  0  0  0  0  0  0  0  0  0
    3.6657  -15.2914    2.5359 C   0  0  0  0  0  0  0  0  0  0  0  0
    4.3751  -14.2266    2.1099 F   0  0  0  0  0  0  0  0  0  0  0  0
    4.2920  -15.7939    3.6252 F   0  0  0  0  0  0  0  0  0  0  0  0
    3.7598  -16.2348    1.5629 F   0  0  0  0  0  0  0  0  0  0  0  0
    1.4229  -13.0110    1.4894 C   0  0  0  0  0  0  0  0  0  0  0  0
    0.6280   -6.3358   -1.0170 C   0  0  0  0  0  0  0  0  0  0  0  0
   -0.2693   -7.0909   -2.2921 Cl  0  0  0  0  0  0  0  0  0  0  0  0
    0.8328   -4.9482   -1.0846 C   0  0  0  0  0  0  0  0  0  0  0  0
    2.6154   -1.0938    1.1145 C   0  0  0  0  0  0  0  0  0  0  0  0
    4.3908   -0.0624   -1.5719 H   0  0  0  0  0  0  0  0  0  0  0  0
    2.7272   -0.7071   -1.6598 H   0  0  0  0  0  0  0  0  0  0  0  0
    4.0930   -1.7813   -1.1830 H   0  0  0  0  0  0  0  0  0  0  0  0
    4.7724    1.2635    0.4042 H   0  0  0  0  0  0  0  0  0  0  0  0
    3.8900    1.3277    2.9810 H   0  0  0  0  0  0  0  0  0  0  0  0
    0.6155   -2.2279    4.0530 H   0  0  0  0  0  0  0  0  0  0  0  0
    2.6905   -4.5860    1.7426 H   0  0  0  0  0  0  0  0  0  0  0  0
    2.3181   -6.9295    1.8820 H   0  0  0  0  0  0  0  0  0  0  0  0
    0.3377   -8.8788   -0.6461 H   0  0  0  0  0  0  0  0  0  0  0  0
    0.7991  -10.9506   -0.0744 H   0  0  0  0  0  0  0  0  0  0  0  0
    1.7385  -10.7099    3.7882 H   0  0  0  0  0  0  0  0  0  0  0  0
    1.5582  -15.5879    2.1716 H   0  0  0  0  0  0  0  0  0  0  0  0
    1.9624  -15.2654    3.8585 H   0  0  0  0  0  0  0  0  0  0  0  0
    1.2578  -13.5717    0.5806 H   0  0  0  0  0  0  0  0  0  0  0  0
    0.4328   -4.3725   -1.9150 H   0  0  0  0  0  0  0  0  0  0  0  0
  1  2  1  0  0  0  0
  1 33  1  0  0  0  0
  1 34  1  0  0  0  0
  1 35  1  0  0  0  0
  2  3  1  0  0  0  0
  2 32  1  0  0  0  0
  3  4  2  0  0  0  0
  3 36  1  0  0  0  0
  4  5  1  0  0  0  0
  4 37  1  0  0  0  0
  5  6  1  0  0  0  0
  5 32  2  0  0  0  0
  6  7  2  0  0  0  0
  7  8  1  0  0  0  0
  7 38  1  0  0  0  0
  8  9  2  0  0  0  0
  9 10  1  0  0  0  0
  9 32  1  0  0  0  0
 10 11  1  0  0  0  0
 11 12  1  0  0  0  0
 11 31  2  0  0  0  0
 12 13  2  0  0  0  0
 12 39  1  0  0  0  0
 13 14  1  0  0  0  0
 13 40  1  0  0  0  0
 14 15  1  0  0  0  0
 14 29  2  0  0  0  0
 15 16  1  0  0  0  0
 15 41  1  0  0  0  0
 16 17  2  0  0  0  0
 16 18  1  0  0  0  0
 18 19  1  0  0  0  0
 18 42  1  0  0  0  0
 19 20  1  0  0  0  0
 19 28  2  0  0  0  0
 20 21  2  0  0  0  0
 20 43  1  0  0  0  0
 21 22  1  0  0  0  0
 22 23  1  0  0  0  0
 22 28  1  0  0  0  0
 23 24  1  0  0  0  0
 23 44  1  0  0  0  0
 23 45  1  0  0  0  0
 24 25  1  0  0  0  0
 24 26  1  0  0  0  0
 24 27  1  0  0  0  0
 28 46  1  0  0  0  0
 29 30  1  0  0  0  0
 29 31  1  0  0  0  0
 31 47  1  0  0  0  0
M  END
$$$$
