CHEMBL1688861
 OpenBabel04072215363D

 68 72  0  0  1  0  0  0  0  0999 V2000
    2.9058    0.9246   -1.9630 C   0  0  0  0  0  0  0  0  0  0  0  0
    2.0973    1.5901   -0.8337 C   0  0  0  0  0  0  0  0  0  0  0  0
    2.6114    3.0310   -0.6516 C   0  0  0  0  0  0  0  0  0  0  0  0
    0.6941    1.6853   -1.2766 N   0  0  0  0  0  0  0  0  0  0  0  0
    2.1461    0.7388    0.4409 C   0  0  0  0  0  0  0  0  0  0  0  0
    2.7390    1.1723    1.6388 C   0  0  0  0  0  0  0  0  0  0  0  0
    2.6898    0.4104    2.8237 C   0  0  0  0  0  0  0  0  0  0  0  0
    3.3301    1.0183    4.0336 C   0  0  0  0  0  0  0  0  0  0  0  0
    3.9618    2.0735    3.9380 O   0  0  0  0  0  0  0  0  0  0  0  0
    3.2105    0.3693    5.2488 N   0  0  0  0  0  0  0  0  0  0  0  0
    3.8978    0.8032    6.4661 C   0  0  2  0  0  0  0  0  0  0  0  0
    3.3944    2.1528    7.0674 C   0  0  0  0  0  0  0  0  0  0  0  0
    4.5310    3.1620    7.3860 C   0  0  0  0  0  0  0  0  0  0  0  0
    5.5827    2.4269    8.1898 C   0  0  0  0  0  0  0  0  0  0  0  0
    6.0174    2.8615    9.4405 C   0  0  0  0  0  0  0  0  0  0  0  0
    6.6197    1.9452   10.3000 C   0  0  0  0  0  0  0  0  0  0  0  0
    6.7125    0.6007    9.9206 C   0  0  0  0  0  0  0  0  0  0  0  0
    6.9521   -0.4112   10.8226 O   0  0  0  0  0  0  0  0  0  0  0  0
    6.2078   -0.4589   11.9923 C   0  0  0  0  0  0  0  0  0  0  0  0
    5.0291    0.2569   12.2203 C   0  0  0  0  0  0  0  0  0  0  0  0
    4.4398    0.1862   13.4694 C   0  0  0  0  0  0  0  0  0  0  0  0
    4.8975   -0.5930   14.4666 N   0  0  0  0  0  0  0  0  0  0  0  0
    5.9790   -1.3478   14.1966 C   0  0  0  0  0  0  0  0  0  0  0  0
    6.6710   -1.3224   12.9896 C   0  0  0  0  0  0  0  0  0  0  0  0
    7.7630   -2.3236   12.7438 C   0  0  0  0  0  0  0  0  0  0  0  0
    8.4230   -2.7895   14.0296 C   0  0  0  0  0  0  0  0  0  0  0  0
    7.4325   -3.0634   15.1322 C   0  0  0  0  0  0  0  0  0  0  0  0
    7.6387   -3.9104   15.9990 O   0  0  0  0  0  0  0  0  0  0  0  0
    6.3539   -2.2386   15.1902 N   0  0  0  0  0  0  0  0  0  0  0  0
    6.4916    0.2224    8.5980 C   0  0  0  0  0  0  0  0  0  0  0  0
    5.9424    1.1496    7.7188 C   0  0  0  0  0  0  0  0  0  0  0  0
    5.4314    0.7677    6.3524 C   0  0  0  0  0  0  0  0  0  0  0  0
    2.0473   -0.8372    2.7989 C   0  0  0  0  0  0  0  0  0  0  0  0
    1.4502   -1.3066    1.6122 C   0  0  0  0  0  0  0  0  0  0  0  0
    0.6923   -2.6123    1.5430 C   0  0  0  0  0  0  0  0  0  0  0  0
    0.6463   -3.2754    2.7321 F   0  0  0  0  0  0  0  0  0  0  0  0
   -0.6047   -2.4374    1.1653 F   0  0  0  0  0  0  0  0  0  0  0  0
    1.2282   -3.4859    0.6470 F   0  0  0  0  0  0  0  0  0  0  0  0
    1.5196   -0.5187    0.4524 C   0  0  0  0  0  0  0  0  0  0  0  0
    2.8217    1.4913   -2.8988 H   0  0  0  0  0  0  0  0  0  0  0  0
    2.5692   -0.0976   -2.1742 H   0  0  0  0  0  0  0  0  0  0  0  0
    3.9707    0.8705   -1.7075 H   0  0  0  0  0  0  0  0  0  0  0  0
    2.4838    3.6204   -1.5673 H   0  0  0  0  0  0  0  0  0  0  0  0
    3.6816    3.0456   -0.4101 H   0  0  0  0  0  0  0  0  0  0  0  0
    2.0782    3.5548    0.1507 H   0  0  0  0  0  0  0  0  0  0  0  0
    0.6364    2.2555   -2.1195 H   0  0  0  0  0  0  0  0  0  0  0  0
    0.1564    2.1785   -0.5642 H   0  0  0  0  0  0  0  0  0  0  0  0
    3.2436    2.1361    1.6765 H   0  0  0  0  0  0  0  0  0  0  0  0
    2.6632   -0.4733    5.3191 H   0  0  0  0  0  0  0  0  0  0  0  0
    3.6213    0.0246    7.1934 H   0  0  0  0  0  0  0  0  0  0  0  0
    2.9054    1.9084    8.0246 H   0  0  0  0  0  0  0  0  0  0  0  0
    2.6234    2.6222    6.4503 H   0  0  0  0  0  0  0  0  0  0  0  0
    4.1237    4.0011    7.9623 H   0  0  0  0  0  0  0  0  0  0  0  0
    4.9667    3.5694    6.4674 H   0  0  0  0  0  0  0  0  0  0  0  0
    5.7956    3.8646    9.7966 H   0  0  0  0  0  0  0  0  0  0  0  0
    6.8835    2.2487   11.3102 H   0  0  0  0  0  0  0  0  0  0  0  0
    4.5579    0.8701   11.4614 H   0  0  0  0  0  0  0  0  0  0  0  0
    3.5532    0.7699   13.7039 H   0  0  0  0  0  0  0  0  0  0  0  0
    8.5350   -1.9078   12.0872 H   0  0  0  0  0  0  0  0  0  0  0  0
    7.3175   -3.1833   12.2284 H   0  0  0  0  0  0  0  0  0  0  0  0
    9.1118   -2.0215   14.4018 H   0  0  0  0  0  0  0  0  0  0  0  0
    9.0006   -3.7001   13.8358 H   0  0  0  0  0  0  0  0  0  0  0  0
    5.7388   -2.3067   15.9885 H   0  0  0  0  0  0  0  0  0  0  0  0
    6.6266   -0.8115    8.2935 H   0  0  0  0  0  0  0  0  0  0  0  0
    5.7995   -0.2145    6.0374 H   0  0  0  0  0  0  0  0  0  0  0  0
    5.8040    1.4872    5.6120 H   0  0  0  0  0  0  0  0  0  0  0  0
    1.9932   -1.4650    3.6832 H   0  0  0  0  0  0  0  0  0  0  0  0
    1.0373   -0.8785   -0.4592 H   0  0  0  0  0  0  0  0  0  0  0  0
  1  2  1  0  0  0  0
  1 40  1  0  0  0  0
  1 41  1  0  0  0  0
  1 42  1  0  0  0  0
  2  3  1  0  0  0  0
  2  4  1  0  0  0  0
  2  5  1  0  0  0  0
  3 43  1  0  0  0  0
  3 44  1  0  0  0  0
  3 45  1  0  0  0  0
  4 46  1  0  0  0  0
  4 47  1  0  0  0  0
  5  6  1  0  0  0  0
  5 39  2  0  0  0  0
  6  7  2  0  0  0  0
  6 48  1  0  0  0  0
  7  8  1  0  0  0  0
  7 33  1  0  0  0  0
  8  9  2  0  0  0  0
  8 10  1  0  0  0  0
 10 11  1  0  0  0  0
 10 49  1  0  0  0  0
 11 12  1  0  0  0  0
 11 32  1  0  0  0  0
 11 50  1  1  0  0  0
 12 13  1  0  0  0  0
 12 51  1  0  0  0  0
 12 52  1  0  0  0  0
 13 14  1  0  0  0  0
 13 53  1  0  0  0  0
 13 54  1  0  0  0  0
 14 15  1  0  0  0  0
 14 31  2  0  0  0  0
 15 16  2  0  0  0  0
 15 55  1  0  0  0  0
 16 17  1  0  0  0  0
 16 56  1  0  0  0  0
 17 18  1  0  0  0  0
 17 30  2  0  0  0  0
 18 19  1  0  0  0  0
 19 20  1  0  0  0  0
 19 24  2  0  0  0  0
 20 21  2  0  0  0  0
 20 57  1  0  0  0  0
 21 22  1  0  0  0  0
 21 58  1  0  0  0  0
 22 23  2  0  0  0  0
 23 24  1  0  0  0  0
 23 29  1  0  0  0  0
 24 25  1  0  0  0  0
 25 26  1  0  0  0  0
 25 59  1  0  0  0  0
 25 60  1  0  0  0  0
 26 27  1  0  0  0  0
 26 61  1  0  0  0  0
 26 62  1  0  0  0  0
 27 28  2  0  0  0  0
 27 29  1  0  0  0  0
 29 63  1  0  0  0  0
 30 31  1  0  0  0  0
 30 64  1  0  0  0  0
 31 32  1  0  0  0  0
 32 65  1  0  0  0  0
 32 66  1  0  0  0  0
 33 34  2  0  0  0  0
 33 67  1  0  0  0  0
 34 35  1  0  0  0  0
 34 39  1  0  0  0  0
 35 36  1  0  0  0  0
 35 37  1  0  0  0  0
 35 38  1  0  0  0  0
 39 68  1  0  0  0  0
M  END
$$$$
