CHEMBL2018761
 OpenBabel04072215363D

 47 49  0  0  0  0  0  0  0  0999 V2000
    2.7450   -0.8448   -3.3097 C   0  0  0  0  0  0  0  0  0  0  0  0
    2.7410    0.2191   -2.3529 O   0  0  0  0  0  0  0  0  0  0  0  0
    3.9516    0.8306   -2.2555 C   0  0  0  0  0  0  0  0  0  0  0  0
    4.9182    0.5028   -2.9316 O   0  0  0  0  0  0  0  0  0  0  0  0
    3.9011    1.8047   -1.2956 N   0  0  0  0  0  0  0  0  0  0  0  0
    4.9415    2.6899   -0.9310 C   0  0  0  0  0  0  0  0  0  0  0  0
    6.0815    2.8413   -1.7382 C   0  0  0  0  0  0  0  0  0  0  0  0
    7.1110    3.7316   -1.4128 C   0  0  0  0  0  0  0  0  0  0  0  0
    8.2733    3.7834   -2.2095 N   0  0  0  0  0  0  0  0  0  0  0  0
    9.1367    4.8939   -2.3639 C   0  0  0  0  0  0  0  0  0  0  0  0
    8.6051    6.1220   -2.2650 N   0  0  0  0  0  0  0  0  0  0  0  0
    9.4559    7.1495   -2.3485 C   0  0  0  0  0  0  0  0  0  0  0  0
   10.7880    7.0585   -2.4806 N   0  0  0  0  0  0  0  0  0  0  0  0
   11.3160    5.8306   -2.5670 C   0  0  0  0  0  0  0  0  0  0  0  0
   12.7011    5.6642   -2.5925 C   0  0  0  0  0  0  0  0  0  0  0  0
   13.3325    4.4014   -2.6334 C   0  0  0  0  0  0  0  0  0  0  0  0
   14.6654    4.4618   -2.3236 O   0  0  0  0  0  0  0  0  0  0  0  0
   15.5977    4.0169   -3.2975 C   0  0  0  0  0  0  0  0  0  0  0  0
   12.5402    3.2579   -2.7146 C   0  0  0  0  0  0  0  0  0  0  0  0
   12.8234    1.9281   -2.7573 O   0  0  0  0  0  0  0  0  0  0  0  0
   14.1297    1.4083   -2.7356 C   0  0  0  0  0  0  0  0  0  0  0  0
   11.1411    3.4200   -2.6771 C   0  0  0  0  0  0  0  0  0  0  0  0
   10.5199    4.6838   -2.5620 C   0  0  0  0  0  0  0  0  0  0  0  0
    6.9880    4.4696   -0.2350 C   0  0  0  0  0  0  0  0  0  0  0  0
    5.8654    4.3382    0.5830 C   0  0  0  0  0  0  0  0  0  0  0  0
    4.8388    3.4408    0.2582 C   0  0  0  0  0  0  0  0  0  0  0  0
    3.6894    3.3017    1.2190 C   0  0  0  0  0  0  0  0  0  0  0  0
    1.7423   -1.2753   -3.3528 H   0  0  0  0  0  0  0  0  0  0  0  0
    3.4460   -1.6284   -3.0007 H   0  0  0  0  0  0  0  0  0  0  0  0
    3.0041   -0.4708   -4.3069 H   0  0  0  0  0  0  0  0  0  0  0  0
    3.0327    1.8371   -0.7831 H   0  0  0  0  0  0  0  0  0  0  0  0
    6.1845    2.2850   -2.6620 H   0  0  0  0  0  0  0  0  0  0  0  0
    8.2146    3.2451   -3.0662 H   0  0  0  0  0  0  0  0  0  0  0  0
    9.0205    8.1407   -2.2861 H   0  0  0  0  0  0  0  0  0  0  0  0
   13.3065    6.5629   -2.5094 H   0  0  0  0  0  0  0  0  0  0  0  0
   16.4159    4.7419   -3.3624 H   0  0  0  0  0  0  0  0  0  0  0  0
   15.1719    3.8723   -4.2940 H   0  0  0  0  0  0  0  0  0  0  0  0
   16.0598    3.0969   -2.9303 H   0  0  0  0  0  0  0  0  0  0  0  0
   14.0388    0.3168   -2.7020 H   0  0  0  0  0  0  0  0  0  0  0  0
   14.6734    1.7159   -1.8401 H   0  0  0  0  0  0  0  0  0  0  0  0
   14.6564    1.6352   -3.6651 H   0  0  0  0  0  0  0  0  0  0  0  0
   10.5279    2.5222   -2.6680 H   0  0  0  0  0  0  0  0  0  0  0  0
    7.7815    5.1480    0.0714 H   0  0  0  0  0  0  0  0  0  0  0  0
    5.8170    4.9319    1.4941 H   0  0  0  0  0  0  0  0  0  0  0  0
    3.8957    3.8215    2.1625 H   0  0  0  0  0  0  0  0  0  0  0  0
    3.5276    2.2488    1.4716 H   0  0  0  0  0  0  0  0  0  0  0  0
    2.7753    3.7263    0.7946 H   0  0  0  0  0  0  0  0  0  0  0  0
  1  2  1  0  0  0  0
  1 28  1  0  0  0  0
  1 29  1  0  0  0  0
  1 30  1  0  0  0  0
  2  3  1  0  0  0  0
  3  4  2  0  0  0  0
  3  5  1  0  0  0  0
  5  6  1  0  0  0  0
  5 31  1  0  0  0  0
  6  7  1  0  0  0  0
  6 26  2  0  0  0  0
  7  8  2  0  0  0  0
  7 32  1  0  0  0  0
  8  9  1  0  0  0  0
  8 24  1  0  0  0  0
  9 10  1  0  0  0  0
  9 33  1  0  0  0  0
 10 11  1  0  0  0  0
 10 23  2  0  0  0  0
 11 12  2  0  0  0  0
 12 13  1  0  0  0  0
 12 34  1  0  0  0  0
 13 14  2  0  0  0  0
 14 15  1  0  0  0  0
 14 23  1  0  0  0  0
 15 16  2  0  0  0  0
 15 35  1  0  0  0  0
 16 17  1  0  0  0  0
 16 19  1  0  0  0  0
 17 18  1  0  0  0  0
 18 36  1  0  0  0  0
 18 37  1  0  0  0  0
 18 38  1  0  0  0  0
 19 20  1  0  0  0  0
 19 22  2  0  0  0  0
 20 21  1  0  0  0  0
 21 39  1  0  0  0  0
 21 40  1  0  0  0  0
 21 41  1  0  0  0  0
 22 23  1  0  0  0  0
 22 42  1  0  0  0  0
 24 25  2  0  0  0  0
 24 43  1  0  0  0  0
 25 26  1  0  0  0  0
 25 44  1  0  0  0  0
 26 27  1  0  0  0  0
 27 45  1  0  0  0  0
 27 46  1  0  0  0  0
 27 47  1  0  0  0  0
M  END
$$$$
