CHEMBL4548316
 OpenBabel04072215383D

 64 68  0  0  0  0  0  0  0  0999 V2000
    8.9465    3.7719    0.9098 C   0  0  0  0  0  0  0  0  0  0  0  0
    7.9953    4.3389    1.8176 O   0  0  0  0  0  0  0  0  0  0  0  0
    7.5406    3.5052    2.8051 C   0  0  0  0  0  0  0  0  0  0  0  0
    8.3509    2.4746    3.3212 C   0  0  0  0  0  0  0  0  0  0  0  0
    7.8778    1.5243    4.2199 C   0  0  0  0  0  0  0  0  0  0  0  0
    8.6760    0.5096    4.5649 N   0  0  0  0  0  0  0  0  0  0  0  0
    8.1385   -0.4350    5.3453 C   0  0  0  0  0  0  0  0  0  0  0  0
    6.8910   -0.4491    5.8221 N   0  0  0  0  0  0  0  0  0  0  0  0
    6.1093    0.5979    5.5019 C   0  0  0  0  0  0  0  0  0  0  0  0
    4.7696    0.6126    5.9486 N   0  0  0  0  0  0  0  0  0  0  0  0
    3.8792   -0.4598    6.1055 C   0  0  0  0  0  0  0  0  0  0  0  0
    4.0343   -1.6566    5.4136 C   0  0  0  0  0  0  0  0  0  0  0  0
    3.0604   -2.6589    5.4798 C   0  0  0  0  0  0  0  0  0  0  0  0
    1.9067   -2.5267    6.2661 C   0  0  0  0  0  0  0  0  0  0  0  0
    1.7530   -1.3276    6.9873 C   0  0  0  0  0  0  0  0  0  0  0  0
    2.7352   -0.3143    6.8963 C   0  0  0  0  0  0  0  0  0  0  0  0
    0.5466   -1.0540    7.8462 C   0  0  0  0  0  0  0  0  0  0  0  0
   -0.3062   -2.2889    8.0813 C   0  0  0  0  0  0  0  0  0  0  0  0
   -0.4252   -3.0917    6.7984 C   0  0  0  0  0  0  0  0  0  0  0  0
    0.8896   -3.5625    6.3410 N   0  0  0  0  0  0  0  0  0  0  0  0
    1.2154   -4.8965    6.0445 C   0  0  0  0  0  0  0  0  0  0  0  0
    2.3606   -5.2432    5.7633 O   0  0  0  0  0  0  0  0  0  0  0  0
    0.1889   -5.8293    6.1224 N   0  0  0  0  0  0  0  0  0  0  0  0
    0.3618   -7.2344    5.9490 C   0  0  0  0  0  0  0  0  0  0  0  0
    1.6145   -7.8561    5.9711 C   0  0  0  0  0  0  0  0  0  0  0  0
    1.7550   -9.2094    5.6750 C   0  0  0  0  0  0  0  0  0  0  0  0
    0.6360   -9.9900    5.4008 C   0  0  0  0  0  0  0  0  0  0  0  0
    0.8777  -11.4156    5.0510 C   0  0  0  0  0  0  0  0  0  0  0  0
   -0.1703  -12.4450    5.3663 C   0  0  0  0  0  0  0  0  0  0  0  0
    1.9369  -11.7451    4.5305 O   0  0  0  0  0  0  0  0  0  0  0  0
   -0.6338   -9.4039    5.4499 C   0  0  0  0  0  0  0  0  0  0  0  0
   -0.7680   -8.0298    5.7243 C   0  0  0  0  0  0  0  0  0  0  0  0
    6.5689    1.6455    4.6844 C   0  0  0  0  0  0  0  0  0  0  0  0
    5.7895    2.7469    4.2657 C   0  0  0  0  0  0  0  0  0  0  0  0
    6.2533    3.6716    3.3225 C   0  0  0  0  0  0  0  0  0  0  0  0
    5.2957    4.6005    3.0364 O   0  0  0  0  0  0  0  0  0  0  0  0
    5.4856    5.5504    2.0039 C   0  0  0  0  0  0  0  0  0  0  0  0
    8.7475    4.1728   -0.0886 H   0  0  0  0  0  0  0  0  0  0  0  0
    8.8840    2.6798    0.8268 H   0  0  0  0  0  0  0  0  0  0  0  0
    9.9568    4.0706    1.2066 H   0  0  0  0  0  0  0  0  0  0  0  0
    9.3816    2.3643    2.9943 H   0  0  0  0  0  0  0  0  0  0  0  0
    8.7723   -1.2751    5.6083 H   0  0  0  0  0  0  0  0  0  0  0  0
    4.5360    1.4539    6.4553 H   0  0  0  0  0  0  0  0  0  0  0  0
    4.8967   -1.8225    4.7729 H   0  0  0  0  0  0  0  0  0  0  0  0
    3.2342   -3.5246    4.8484 H   0  0  0  0  0  0  0  0  0  0  0  0
    2.5930    0.6059    7.4585 H   0  0  0  0  0  0  0  0  0  0  0  0
   -0.0548   -0.2841    7.3475 H   0  0  0  0  0  0  0  0  0  0  0  0
    0.8608   -0.6522    8.8174 H   0  0  0  0  0  0  0  0  0  0  0  0
   -1.2976   -1.9870    8.4382 H   0  0  0  0  0  0  0  0  0  0  0  0
    0.1446   -2.9139    8.8619 H   0  0  0  0  0  0  0  0  0  0  0  0
   -0.8521   -2.4799    5.9923 H   0  0  0  0  0  0  0  0  0  0  0  0
   -1.1212   -3.9123    6.9751 H   0  0  0  0  0  0  0  0  0  0  0  0
   -0.7559   -5.4947    6.0399 H   0  0  0  0  0  0  0  0  0  0  0  0
    2.5292   -7.3167    6.1976 H   0  0  0  0  0  0  0  0  0  0  0  0
    2.7546   -9.6412    5.6473 H   0  0  0  0  0  0  0  0  0  0  0  0
   -0.9625  -12.0567    6.0097 H   0  0  0  0  0  0  0  0  0  0  0  0
    0.3093  -13.2679    5.9091 H   0  0  0  0  0  0  0  0  0  0  0  0
   -0.6017  -12.8230    4.4381 H   0  0  0  0  0  0  0  0  0  0  0  0
   -1.5276   -9.9838    5.2370 H   0  0  0  0  0  0  0  0  0  0  0  0
   -1.7630   -7.5951    5.7321 H   0  0  0  0  0  0  0  0  0  0  0  0
    4.7731    2.8657    4.6345 H   0  0  0  0  0  0  0  0  0  0  0  0
    4.4950    5.9546    1.7639 H   0  0  0  0  0  0  0  0  0  0  0  0
    5.8710    5.1096    1.0824 H   0  0  0  0  0  0  0  0  0  0  0  0
    6.1032    6.3817    2.3550 H   0  0  0  0  0  0  0  0  0  0  0  0
  1  2  1  0  0  0  0
  1 38  1  0  0  0  0
  1 39  1  0  0  0  0
  1 40  1  0  0  0  0
  2  3  1  0  0  0  0
  3  4  1  0  0  0  0
  3 35  2  0  0  0  0
  4  5  2  0  0  0  0
  4 41  1  0  0  0  0
  5  6  1  0  0  0  0
  5 33  1  0  0  0  0
  6  7  2  0  0  0  0
  7  8  1  0  0  0  0
  7 42  1  0  0  0  0
  8  9  2  0  0  0  0
  9 10  1  0  0  0  0
  9 33  1  0  0  0  0
 10 11  1  0  0  0  0
 10 43  1  0  0  0  0
 11 12  1  0  0  0  0
 11 16  2  0  0  0  0
 12 13  2  0  0  0  0
 12 44  1  0  0  0  0
 13 14  1  0  0  0  0
 13 45  1  0  0  0  0
 14 15  2  0  0  0  0
 14 20  1  0  0  0  0
 15 16  1  0  0  0  0
 15 17  1  0  0  0  0
 16 46  1  0  0  0  0
 17 18  1  0  0  0  0
 17 47  1  0  0  0  0
 17 48  1  0  0  0  0
 18 19  1  0  0  0  0
 18 49  1  0  0  0  0
 18 50  1  0  0  0  0
 19 20  1  0  0  0  0
 19 51  1  0  0  0  0
 19 52  1  0  0  0  0
 20 21  1  0  0  0  0
 21 22  2  0  0  0  0
 21 23  1  0  0  0  0
 23 24  1  0  0  0  0
 23 53  1  0  0  0  0
 24 25  1  0  0  0  0
 24 32  2  0  0  0  0
 25 26  2  0  0  0  0
 25 54  1  0  0  0  0
 26 27  1  0  0  0  0
 26 55  1  0  0  0  0
 27 28  1  0  0  0  0
 27 31  2  0  0  0  0
 28 29  1  0  0  0  0
 28 30  2  0  0  0  0
 29 56  1  0  0  0  0
 29 57  1  0  0  0  0
 29 58  1  0  0  0  0
 31 32  1  0  0  0  0
 31 59  1  0  0  0  0
 32 60  1  0  0  0  0
 33 34  2  0  0  0  0
 34 35  1  0  0  0  0
 34 61  1  0  0  0  0
 35 36  1  0  0  0  0
 36 37  1  0  0  0  0
 37 62  1  0  0  0  0
 37 63  1  0  0  0  0
 37 64  1  0  0  0  0
M  END
$$$$
