CHEMBL499345
 OpenBabel04072215383D

 41 44  0  0  0  0  0  0  0  0999 V2000
    1.3232    0.1773   -0.0711 N   0  0  0  0  0  0  0  0  0  0  0  0
    2.7024    0.1346   -0.0147 C   0  0  0  0  0  0  0  0  0  0  0  0
    3.2482   -1.0843    0.0770 N   0  0  0  0  0  0  0  0  0  0  0  0
    4.5987   -1.2315    0.0627 C   0  0  0  0  0  0  0  0  0  0  0  0
    5.1784   -2.5059    0.0693 N   0  0  0  0  0  0  0  0  0  0  0  0
    4.6544   -3.7039    0.5763 C   0  0  0  0  0  0  0  0  0  0  0  0
    5.0703   -4.9253    0.0265 C   0  0  0  0  0  0  0  0  0  0  0  0
    4.5265   -6.1334    0.4748 C   0  0  0  0  0  0  0  0  0  0  0  0
    3.5626   -6.1319    1.4807 C   0  0  0  0  0  0  0  0  0  0  0  0
    3.1391   -4.9258    2.0265 C   0  0  0  0  0  0  0  0  0  0  0  0
    1.8419   -4.9162    3.4037 Br  0  0  0  0  0  0  0  0  0  0  0  0
    3.6691   -3.7234    1.5708 C   0  0  0  0  0  0  0  0  0  0  0  0
    5.3740   -0.0676   -0.0406 C   0  0  0  0  0  0  0  0  0  0  0  0
    6.7573    0.2470   -0.1389 C   0  0  0  0  0  0  0  0  0  0  0  0
    6.8657    1.6115   -0.3396 C   0  0  0  0  0  0  0  0  0  0  0  0
    8.0439    2.4438   -0.7261 C   0  0  0  0  0  0  0  0  0  0  0  0
    8.8398    2.9584    0.4469 C   0  0  0  0  0  0  0  0  0  0  0  0
    9.8851    2.1653    0.9567 C   0  0  0  0  0  0  0  0  0  0  0  0
   10.6561    2.6014    2.0351 C   0  0  0  0  0  0  0  0  0  0  0  0
   10.3936    3.8343    2.6241 C   0  0  0  0  0  0  0  0  0  0  0  0
    9.3597    4.6319    2.1343 C   0  0  0  0  0  0  0  0  0  0  0  0
    8.5841    4.1971    1.0548 C   0  0  0  0  0  0  0  0  0  0  0  0
    7.3214    5.2422    0.5054 Cl  0  0  0  0  0  0  0  0  0  0  0  0
    5.6025    2.1435   -0.1923 N   0  0  0  0  0  0  0  0  0  0  0  0
    4.6868    1.1326   -0.0790 C   0  0  0  0  0  0  0  0  0  0  0  0
    3.3582    1.2989   -0.0505 N   0  0  0  0  0  0  0  0  0  0  0  0
    0.9435   -0.6890    0.2855 H   0  0  0  0  0  0  0  0  0  0  0  0
    0.9767    1.0425    0.3139 H   0  0  0  0  0  0  0  0  0  0  0  0
    6.1502   -2.5351   -0.1928 H   0  0  0  0  0  0  0  0  0  0  0  0
    5.8003   -4.9412   -0.7773 H   0  0  0  0  0  0  0  0  0  0  0  0
    4.8465   -7.0712    0.0266 H   0  0  0  0  0  0  0  0  0  0  0  0
    3.1459   -7.0752    1.8265 H   0  0  0  0  0  0  0  0  0  0  0  0
    3.3289   -2.7880    2.0104 H   0  0  0  0  0  0  0  0  0  0  0  0
    7.5796   -0.4561   -0.1509 H   0  0  0  0  0  0  0  0  0  0  0  0
    7.7304    3.2659   -1.3798 H   0  0  0  0  0  0  0  0  0  0  0  0
    8.7027    1.8347   -1.3606 H   0  0  0  0  0  0  0  0  0  0  0  0
   10.1068    1.1984    0.5089 H   0  0  0  0  0  0  0  0  0  0  0  0
   11.4619    1.9770    2.4147 H   0  0  0  0  0  0  0  0  0  0  0  0
   10.9917    4.1750    3.4655 H   0  0  0  0  0  0  0  0  0  0  0  0
    9.1628    5.5947    2.5989 H   0  0  0  0  0  0  0  0  0  0  0  0
    5.3541    3.1218   -0.2486 H   0  0  0  0  0  0  0  0  0  0  0  0
  1  2  1  0  0  0  0
  1 27  1  0  0  0  0
  1 28  1  0  0  0  0
  2  3  1  0  0  0  0
  2 26  2  0  0  0  0
  3  4  2  0  0  0  0
  4  5  1  0  0  0  0
  4 13  1  0  0  0  0
  5  6  1  0  0  0  0
  5 29  1  0  0  0  0
  6  7  1  0  0  0  0
  6 12  2  0  0  0  0
  7  8  2  0  0  0  0
  7 30  1  0  0  0  0
  8  9  1  0  0  0  0
  8 31  1  0  0  0  0
  9 10  2  0  0  0  0
  9 32  1  0  0  0  0
 10 11  1  0  0  0  0
 10 12  1  0  0  0  0
 12 33  1  0  0  0  0
 13 14  1  0  0  0  0
 13 25  2  0  0  0  0
 14 15  2  0  0  0  0
 14 34  1  0  0  0  0
 15 16  1  0  0  0  0
 15 24  1  0  0  0  0
 16 17  1  0  0  0  0
 16 35  1  0  0  0  0
 16 36  1  0  0  0  0
 17 18  1  0  0  0  0
 17 22  2  0  0  0  0
 18 19  2  0  0  0  0
 18 37  1  0  0  0  0
 19 20  1  0  0  0  0
 19 38  1  0  0  0  0
 20 21  2  0  0  0  0
 20 39  1  0  0  0  0
 21 22  1  0  0  0  0
 21 40  1  0  0  0  0
 22 23  1  0  0  0  0
 24 25  1  0  0  0  0
 24 41  1  0  0  0  0
 25 26  1  0  0  0  0
M  END
$$$$
