CHEMBL3589737
 OpenBabel04072215363D

 43 46  0  0  0  0  0  0  0  0999 V2000
    2.3763    0.6937    0.9954 O   0  0  0  0  0  0  0  0  0  0  0  0
    1.9481    0.3562   -0.1033 C   0  0  0  0  0  0  0  0  0  0  0  0
    0.6100    0.1548   -0.3649 N   0  0  0  0  0  0  0  0  0  0  0  0
   -0.4321    0.1811    0.5956 C   0  0  0  0  0  0  0  0  0  0  0  0
   -0.2352    0.2730    1.9766 C   0  0  0  0  0  0  0  0  0  0  0  0
   -1.3141    0.2718    2.8614 C   0  0  0  0  0  0  0  0  0  0  0  0
   -2.6113    0.1884    2.3693 C   0  0  0  0  0  0  0  0  0  0  0  0
   -2.8241    0.1073    0.9932 C   0  0  0  0  0  0  0  0  0  0  0  0
   -1.7405    0.0928    0.1125 C   0  0  0  0  0  0  0  0  0  0  0  0
    2.7514    0.1185   -1.2177 N   0  0  0  0  0  0  0  0  0  0  0  0
    4.1597    0.0148   -1.1531 C   0  0  0  0  0  0  0  0  0  0  0  0
    4.7845   -0.1796    0.0651 C   0  0  0  0  0  0  0  0  0  0  0  0
    6.1564   -0.2149    0.1452 C   0  0  0  0  0  0  0  0  0  0  0  0
    6.9685   -0.2799   -0.9882 C   0  0  0  0  0  0  0  0  0  0  0  0
    8.3553   -0.5269   -0.8167 N   0  0  0  0  0  0  0  0  0  0  0  0
    8.6196   -1.4904    0.0302 C   0  0  0  0  0  0  0  0  0  0  0  0
    7.8686   -2.8499    0.1160 C   0  0  0  0  0  0  0  0  0  0  0  0
    7.5148   -3.5314   -0.8205 O   0  0  0  0  0  0  0  0  0  0  0  0
    7.6238   -3.0566    1.4589 N   0  0  0  0  0  0  0  0  0  0  0  0
    8.1425   -2.0032    2.2092 C   0  0  0  0  0  0  0  0  0  0  0  0
    7.6811   -1.6030    3.4517 C   0  0  0  0  0  0  0  0  0  0  0  0
    8.0709   -0.3359    3.9018 C   0  0  0  0  0  0  0  0  0  0  0  0
    8.9594    0.4647    3.1555 C   0  0  0  0  0  0  0  0  0  0  0  0
    9.4115    0.0492    1.9007 C   0  0  0  0  0  0  0  0  0  0  0  0
    8.9675   -1.1713    1.4320 C   0  0  0  0  0  0  0  0  0  0  0  0
    6.3620   -0.0630   -2.2214 C   0  0  0  0  0  0  0  0  0  0  0  0
    4.9580    0.0962   -2.3043 C   0  0  0  0  0  0  0  0  0  0  0  0
    0.3471   -0.0066   -1.3250 H   0  0  0  0  0  0  0  0  0  0  0  0
    0.7580    0.3257    2.4133 H   0  0  0  0  0  0  0  0  0  0  0  0
   -1.1316    0.3392    3.9319 H   0  0  0  0  0  0  0  0  0  0  0  0
   -3.4518    0.1905    3.0599 H   0  0  0  0  0  0  0  0  0  0  0  0
   -3.8351    0.0387    0.6036 H   0  0  0  0  0  0  0  0  0  0  0  0
   -1.9407    0.0263   -0.9526 H   0  0  0  0  0  0  0  0  0  0  0  0
    2.3355    0.1840   -2.1323 H   0  0  0  0  0  0  0  0  0  0  0  0
    4.2514   -0.3166    0.9979 H   0  0  0  0  0  0  0  0  0  0  0  0
    6.5648   -0.2305    1.1439 H   0  0  0  0  0  0  0  0  0  0  0  0
    6.9711   -3.7543    1.7841 H   0  0  0  0  0  0  0  0  0  0  0  0
    6.9163   -2.1613    3.9830 H   0  0  0  0  0  0  0  0  0  0  0  0
    7.6248    0.0735    4.8082 H   0  0  0  0  0  0  0  0  0  0  0  0
    9.2097    1.4630    3.5095 H   0  0  0  0  0  0  0  0  0  0  0  0
    9.9517    0.7279    1.2501 H   0  0  0  0  0  0  0  0  0  0  0  0
    6.9737   -0.0126   -3.1179 H   0  0  0  0  0  0  0  0  0  0  0  0
    4.5136    0.2853   -3.2769 H   0  0  0  0  0  0  0  0  0  0  0  0
  1  2  2  0  0  0  0
  2  3  1  0  0  0  0
  2 10  1  0  0  0  0
  3  4  1  0  0  0  0
  3 28  1  0  0  0  0
  4  5  1  0  0  0  0
  4  9  2  0  0  0  0
  5  6  2  0  0  0  0
  5 29  1  0  0  0  0
  6  7  1  0  0  0  0
  6 30  1  0  0  0  0
  7  8  2  0  0  0  0
  7 31  1  0  0  0  0
  8  9  1  0  0  0  0
  8 32  1  0  0  0  0
  9 33  1  0  0  0  0
 10 11  1  0  0  0  0
 10 34  1  0  0  0  0
 11 12  1  0  0  0  0
 11 27  2  0  0  0  0
 12 13  2  0  0  0  0
 12 35  1  0  0  0  0
 13 14  1  0  0  0  0
 13 36  1  0  0  0  0
 14 15  1  0  0  0  0
 14 26  2  0  0  0  0
 15 16  2  0  0  0  0
 16 17  1  0  0  0  0
 16 25  1  0  0  0  0
 17 18  2  0  0  0  0
 17 19  1  0  0  0  0
 19 20  1  0  0  0  0
 19 37  1  0  0  0  0
 20 21  1  0  0  0  0
 20 25  2  0  0  0  0
 21 22  2  0  0  0  0
 21 38  1  0  0  0  0
 22 23  1  0  0  0  0
 22 39  1  0  0  0  0
 23 24  2  0  0  0  0
 23 40  1  0  0  0  0
 24 25  1  0  0  0  0
 24 41  1  0  0  0  0
 26 27  1  0  0  0  0
 26 42  1  0  0  0  0
 27 43  1  0  0  0  0
M  END
$$$$
