CHEMBL565782
 OpenBabel04072215383D

 62 66  0  0  0  0  0  0  0  0999 V2000
    6.6258   -5.0592   -4.5847 C   0  0  0  0  0  0  0  0  0  0  0  0
    5.2752   -5.3550   -5.1961 C   0  0  0  0  0  0  0  0  0  0  0  0
    4.2076   -5.0134   -4.3188 N   0  0  0  0  0  0  0  0  0  0  0  0
    3.5650   -3.8262   -4.1758 C   0  0  0  0  0  0  0  0  0  0  0  0
    2.5509   -3.9319   -3.3223 N   0  0  0  0  0  0  0  0  0  0  0  0
    2.6287   -5.2283   -2.8815 C   0  0  0  0  0  0  0  0  0  0  0  0
    1.7464   -5.7746   -1.9076 C   0  0  0  0  0  0  0  0  0  0  0  0
    0.8423   -4.9471   -1.4508 C   0  0  0  0  0  0  0  0  0  0  0  0
    0.0645   -5.6681   -0.5587 C   0  0  0  0  0  0  0  0  0  0  0  0
   -0.7904   -4.8215    0.0421 N   0  0  0  0  0  0  0  0  0  0  0  0
   -1.2593   -5.1791    1.1557 C   0  0  0  0  0  0  0  0  0  0  0  0
   -1.0552   -6.5068    1.6453 C   0  0  0  0  0  0  0  0  0  0  0  0
   -0.0593   -7.4449    1.0327 C   0  0  0  0  0  0  0  0  0  0  0  0
    0.7144   -8.5497    1.4261 O   0  0  0  0  0  0  0  0  0  0  0  0
    0.8180   -9.3907    2.5288 C   0  0  0  0  0  0  0  0  0  0  0  0
   -0.0174   -9.3065    3.6048 C   0  0  0  0  0  0  0  0  0  0  0  0
   -0.4655  -10.4844    4.2509 C   0  0  0  0  0  0  0  0  0  0  0  0
    0.1741  -11.7075    4.0908 C   0  0  0  0  0  0  0  0  0  0  0  0
   -0.3199  -12.9515    4.6701 N   0  0  0  0  0  0  0  0  0  0  0  0
   -1.6625  -13.1814    4.9838 C   0  0  0  0  0  0  0  0  0  0  0  0
   -2.5212  -12.2954    4.9335 O   0  0  0  0  0  0  0  0  0  0  0  0
   -2.1616  -14.5709    5.4053 C   0  0  0  0  0  0  0  0  0  0  0  0
   -1.1657  -15.7173    5.3280 C   0  0  0  0  0  0  0  0  0  0  0  0
   -0.2224  -15.6097    4.5456 O   0  0  0  0  0  0  0  0  0  0  0  0
   -1.3196  -16.8402    6.1537 N   0  0  0  0  0  0  0  0  0  0  0  0
   -2.3623  -16.9991    7.1589 C   0  0  0  0  0  0  0  0  0  0  0  0
   -0.3589  -17.9147    6.0438 C   0  0  0  0  0  0  0  0  0  0  0  0
    0.4053  -18.3209    7.1476 C   0  0  0  0  0  0  0  0  0  0  0  0
    1.3873  -19.3138    7.0138 C   0  0  0  0  0  0  0  0  0  0  0  0
    1.7139  -19.8040    5.7527 C   0  0  0  0  0  0  0  0  0  0  0  0
    1.0044  -19.3580    4.6432 C   0  0  0  0  0  0  0  0  0  0  0  0
   -0.0998  -18.5138    4.8062 C   0  0  0  0  0  0  0  0  0  0  0  0
    1.3462  -11.6901    3.3229 C   0  0  0  0  0  0  0  0  0  0  0  0
    1.6526  -10.5541    2.5226 C   0  0  0  0  0  0  0  0  0  0  0  0
    2.7706  -10.6378    1.7629 F   0  0  0  0  0  0  0  0  0  0  0  0
    0.4806   -6.8625   -0.1179 C   0  0  0  0  0  0  0  0  0  0  0  0
    1.7052   -7.3753   -1.2552 S   0  0  0  0  0  0  0  0  0  0  0  0
    3.6494   -5.9155   -3.4244 C   0  0  0  0  0  0  0  0  0  0  0  0
    7.4219   -5.3418   -5.2774 H   0  0  0  0  0  0  0  0  0  0  0  0
    6.7667   -5.6147   -3.6488 H   0  0  0  0  0  0  0  0  0  0  0  0
    6.7316   -3.9949   -4.3556 H   0  0  0  0  0  0  0  0  0  0  0  0
    5.1791   -6.4203   -5.4339 H   0  0  0  0  0  0  0  0  0  0  0  0
    5.1053   -4.7851   -6.1076 H   0  0  0  0  0  0  0  0  0  0  0  0
    3.8144   -2.9568   -4.7144 H   0  0  0  0  0  0  0  0  0  0  0  0
    0.7282   -3.8391   -1.6079 H   0  0  0  0  0  0  0  0  0  0  0  0
   -1.8160   -4.2146    1.3682 H   0  0  0  0  0  0  0  0  0  0  0  0
   -1.8111   -6.8008    2.3824 H   0  0  0  0  0  0  0  0  0  0  0  0
   -0.2740   -8.3389    4.0212 H   0  0  0  0  0  0  0  0  0  0  0  0
   -1.3395  -10.3716    4.8846 H   0  0  0  0  0  0  0  0  0  0  0  0
    0.2848  -13.7748    4.6243 H   0  0  0  0  0  0  0  0  0  0  0  0
   -3.0112  -14.8190    4.7490 H   0  0  0  0  0  0  0  0  0  0  0  0
   -2.5689  -14.4461    6.4122 H   0  0  0  0  0  0  0  0  0  0  0  0
   -3.0298  -16.1408    7.2016 H   0  0  0  0  0  0  0  0  0  0  0  0
   -1.9255  -17.1289    8.1505 H   0  0  0  0  0  0  0  0  0  0  0  0
   -2.9751  -17.8663    6.8945 H   0  0  0  0  0  0  0  0  0  0  0  0
    0.2946  -17.8364    8.1127 H   0  0  0  0  0  0  0  0  0  0  0  0
    1.9249  -19.6737    7.8883 H   0  0  0  0  0  0  0  0  0  0  0  0
    2.5199  -20.5257    5.6336 H   0  0  0  0  0  0  0  0  0  0  0  0
    1.3234  -19.6448    3.6443 H   0  0  0  0  0  0  0  0  0  0  0  0
   -0.7429  -18.3261    3.9499 H   0  0  0  0  0  0  0  0  0  0  0  0
    1.9810  -12.5650    3.2470 H   0  0  0  0  0  0  0  0  0  0  0  0
    3.9873   -6.9490   -3.3016 H   0  0  0  0  0  0  0  0  0  0  0  0
  1  2  1  0  0  0  0
  1 39  1  0  0  0  0
  1 40  1  0  0  0  0
  1 41  1  0  0  0  0
  2  3  1  0  0  0  0
  2 42  1  0  0  0  0
  2 43  1  0  0  0  0
  3  4  1  0  0  0  0
  3 38  1  0  0  0  0
  4  5  2  0  0  0  0
  4 44  1  0  0  0  0
  5  6  1  0  0  0  0
  6  7  1  0  0  0  0
  6 38  2  0  0  0  0
  7  8  2  0  0  0  0
  7 37  1  0  0  0  0
  8  9  1  0  0  0  0
  8 45  1  0  0  0  0
  9 10  1  0  0  0  0
  9 36  2  0  0  0  0
 10 11  2  0  0  0  0
 11 12  1  0  0  0  0
 11 46  1  0  0  0  0
 12 13  2  0  0  0  0
 12 47  1  0  0  0  0
 13 14  1  0  0  0  0
 13 36  1  0  0  0  0
 14 15  1  0  0  0  0
 15 16  1  0  0  0  0
 15 34  2  0  0  0  0
 16 17  2  0  0  0  0
 16 48  1  0  0  0  0
 17 18  1  0  0  0  0
 17 49  1  0  0  0  0
 18 19  1  0  0  0  0
 18 33  2  0  0  0  0
 19 20  1  0  0  0  0
 19 50  1  0  0  0  0
 20 21  2  0  0  0  0
 20 22  1  0  0  0  0
 22 23  1  0  0  0  0
 22 51  1  0  0  0  0
 22 52  1  0  0  0  0
 23 24  2  0  0  0  0
 23 25  1  0  0  0  0
 25 26  1  0  0  0  0
 25 27  1  0  0  0  0
 26 53  1  0  0  0  0
 26 54  1  0  0  0  0
 26 55  1  0  0  0  0
 27 28  1  0  0  0  0
 27 32  2  0  0  0  0
 28 29  2  0  0  0  0
 28 56  1  0  0  0  0
 29 30  1  0  0  0  0
 29 57  1  0  0  0  0
 30 31  2  0  0  0  0
 30 58  1  0  0  0  0
 31 32  1  0  0  0  0
 31 59  1  0  0  0  0
 32 60  1  0  0  0  0
 33 34  1  0  0  0  0
 33 61  1  0  0  0  0
 34 35  1  0  0  0  0
 36 37  1  0  0  0  0
 38 62  1  0  0  0  0
M  END
$$$$
