CHEMBL3926057
 OpenBabel04072215373D

 48 51  0  0  0  0  0  0  0  0999 V2000
    2.7190   -8.1168   -1.1704 C   0  0  0  0  0  0  0  0  0  0  0  0
    4.1001   -8.4491   -1.1517 O   0  0  0  0  0  0  0  0  0  0  0  0
    4.9177   -7.3749   -1.6264 C   0  0  0  0  0  0  0  0  0  0  0  0
    4.6386   -7.0770   -2.9920 O   0  0  0  0  0  0  0  0  0  0  0  0
    5.2652   -5.9706   -3.4934 C   0  0  0  0  0  0  0  0  0  0  0  0
    6.5682   -5.5770   -3.1839 C   0  0  0  0  0  0  0  0  0  0  0  0
    7.1307   -4.4640   -3.8198 C   0  0  0  0  0  0  0  0  0  0  0  0
    6.3957   -3.7545   -4.7737 C   0  0  0  0  0  0  0  0  0  0  0  0
    7.0028   -2.6818   -5.3961 O   0  0  0  0  0  0  0  0  0  0  0  0
    6.8125   -2.5735   -6.7617 C   0  0  0  0  0  0  0  0  0  0  0  0
    6.4885   -1.3185   -7.2867 C   0  0  0  0  0  0  0  0  0  0  0  0
    6.1414   -1.1712   -8.6485 C   0  0  0  0  0  0  0  0  0  0  0  0
    6.2939   -2.2834   -9.5039 C   0  0  0  0  0  0  0  0  0  0  0  0
    6.0185   -2.6950  -10.8549 C   0  0  0  0  0  0  0  0  0  0  0  0
    4.7469   -3.1276  -11.4268 C   0  0  0  0  0  0  0  0  0  0  0  0
    3.7038   -3.5481  -10.6803 C   0  0  0  0  0  0  0  0  0  0  0  0
    2.9955   -4.8184  -10.9554 C   0  0  0  0  0  0  0  0  0  0  0  0
    3.7254   -5.9809  -11.3063 C   0  0  0  0  0  0  0  0  0  0  0  0
    3.1137   -7.2381  -11.3192 C   0  0  0  0  0  0  0  0  0  0  0  0
    1.7774   -7.3714  -10.9785 C   0  0  0  0  0  0  0  0  0  0  0  0
    1.0417   -6.2367  -10.6400 C   0  0  0  0  0  0  0  0  0  0  0  0
    1.6466   -4.9717  -10.6265 C   0  0  0  0  0  0  0  0  0  0  0  0
    7.0384   -3.4986  -11.2232 N   0  0  0  0  0  0  0  0  0  0  0  0
    7.3054   -4.1254  -10.0609 N   0  0  0  0  0  0  0  0  0  0  0  0
    6.8850   -3.4248   -8.9692 C   0  0  0  0  0  0  0  0  0  0  0  0
    7.0278   -3.6676   -7.6049 C   0  0  0  0  0  0  0  0  0  0  0  0
    5.0764   -4.1260   -5.0575 C   0  0  0  0  0  0  0  0  0  0  0  0
    4.5256   -5.2470   -4.4320 C   0  0  0  0  0  0  0  0  0  0  0  0
    2.1604   -8.9526   -0.7397 H   0  0  0  0  0  0  0  0  0  0  0  0
    2.3693   -7.9655   -2.1960 H   0  0  0  0  0  0  0  0  0  0  0  0
    2.5263   -7.2234   -0.5690 H   0  0  0  0  0  0  0  0  0  0  0  0
    5.9519   -7.7180   -1.5209 H   0  0  0  0  0  0  0  0  0  0  0  0
    4.7604   -6.4953   -0.9891 H   0  0  0  0  0  0  0  0  0  0  0  0
    7.1795   -6.1381   -2.4839 H   0  0  0  0  0  0  0  0  0  0  0  0
    8.1525   -4.1706   -3.5928 H   0  0  0  0  0  0  0  0  0  0  0  0
    6.4900   -0.4510   -6.6304 H   0  0  0  0  0  0  0  0  0  0  0  0
    5.8630   -0.1953   -9.0381 H   0  0  0  0  0  0  0  0  0  0  0  0
    4.8643   -3.5628  -12.4211 H   0  0  0  0  0  0  0  0  0  0  0  0
    3.5655   -3.1894   -9.6629 H   0  0  0  0  0  0  0  0  0  0  0  0
    4.7885   -5.9157  -11.5313 H   0  0  0  0  0  0  0  0  0  0  0  0
    3.7090   -8.1251  -11.5606 H   0  0  0  0  0  0  0  0  0  0  0  0
    1.3156   -8.3558  -10.9491 H   0  0  0  0  0  0  0  0  0  0  0  0
   -0.0041   -6.3379  -10.3556 H   0  0  0  0  0  0  0  0  0  0  0  0
    1.0638   -4.1099  -10.3168 H   0  0  0  0  0  0  0  0  0  0  0  0
    7.8564   -4.9725  -10.0857 H   0  0  0  0  0  0  0  0  0  0  0  0
    7.3446   -4.6329   -7.2300 H   0  0  0  0  0  0  0  0  0  0  0  0
    4.4843   -3.5713   -5.7707 H   0  0  0  0  0  0  0  0  0  0  0  0
    3.5182   -5.5598   -4.6843 H   0  0  0  0  0  0  0  0  0  0  0  0
  1  2  1  0  0  0  0
  1 29  1  0  0  0  0
  1 30  1  0  0  0  0
  1 31  1  0  0  0  0
  2  3  1  0  0  0  0
  3  4  1  0  0  0  0
  3 32  1  0  0  0  0
  3 33  1  0  0  0  0
  4  5  1  0  0  0  0
  5  6  1  0  0  0  0
  5 28  2  0  0  0  0
  6  7  2  0  0  0  0
  6 34  1  0  0  0  0
  7  8  1  0  0  0  0
  7 35  1  0  0  0  0
  8  9  1  0  0  0  0
  8 27  2  0  0  0  0
  9 10  1  0  0  0  0
 10 11  1  0  0  0  0
 10 26  2  0  0  0  0
 11 12  2  0  0  0  0
 11 36  1  0  0  0  0
 12 13  1  0  0  0  0
 12 37  1  0  0  0  0
 13 14  1  0  0  0  0
 13 25  2  0  0  0  0
 14 15  1  0  0  0  0
 14 23  2  0  0  0  0
 15 16  2  0  0  0  0
 15 38  1  0  0  0  0
 16 17  1  0  0  0  0
 16 39  1  0  0  0  0
 17 18  1  0  0  0  0
 17 22  2  0  0  0  0
 18 19  2  0  0  0  0
 18 40  1  0  0  0  0
 19 20  1  0  0  0  0
 19 41  1  0  0  0  0
 20 21  2  0  0  0  0
 20 42  1  0  0  0  0
 21 22  1  0  0  0  0
 21 43  1  0  0  0  0
 22 44  1  0  0  0  0
 23 24  1  0  0  0  0
 24 25  1  0  0  0  0
 24 45  1  0  0  0  0
 25 26  1  0  0  0  0
 26 46  1  0  0  0  0
 27 28  1  0  0  0  0
 27 47  1  0  0  0  0
 28 48  1  0  0  0  0
M  END
$$$$
