CHEMBL406381
 OpenBabel04072215373D

 50 52  0  0  0  0  0  0  0  0999 V2000
    4.7723   -1.6954   -1.3595 C   0  0  0  0  0  0  0  0  0  0  0  0
    6.0018   -0.8780   -1.7238 C   0  0  0  0  0  0  0  0  0  0  0  0
    6.9902   -0.7358   -0.5708 C   0  0  0  0  0  0  0  0  0  0  0  0
    6.4427   -0.0785    0.6004 N   0  0  0  0  0  0  0  0  0  0  0  0
    7.2984    0.1591    1.6605 C   0  0  0  0  0  0  0  0  0  0  0  0
    8.4869   -0.1303    1.6328 O   0  0  0  0  0  0  0  0  0  0  0  0
    6.6336    0.7006    2.7419 N   0  0  0  0  0  0  0  0  0  0  0  0
    7.3303    0.9859    3.9480 C   0  0  0  0  0  0  0  0  0  0  0  0
    8.4949    1.7615    3.9285 C   0  0  0  0  0  0  0  0  0  0  0  0
    9.1707    2.0580    5.1196 C   0  0  0  0  0  0  0  0  0  0  0  0
    8.6914    1.5857    6.3444 C   0  0  0  0  0  0  0  0  0  0  0  0
    9.4554    1.8786    7.4592 O   0  0  0  0  0  0  0  0  0  0  0  0
    8.8078    2.0910    8.6758 C   0  0  0  0  0  0  0  0  0  0  0  0
    7.5637    2.6063    8.6447 N   0  0  0  0  0  0  0  0  0  0  0  0
    6.9695    2.7227    9.8421 C   0  0  0  0  0  0  0  0  0  0  0  0
    7.4958    2.3885   11.0267 N   0  0  0  0  0  0  0  0  0  0  0  0
    8.7515    1.8987   11.0302 C   0  0  0  0  0  0  0  0  0  0  0  0
    9.3383    1.4889   12.2206 C   0  0  0  0  0  0  0  0  0  0  0  0
   10.6465    0.9473   12.3249 C   0  0  0  0  0  0  0  0  0  0  0  0
   10.8493    0.3893   13.5538 O   0  0  0  0  0  0  0  0  0  0  0  0
   12.0197    0.6720   14.3005 C   0  0  0  0  0  0  0  0  0  0  0  0
   11.4224    0.8816   11.1646 C   0  0  0  0  0  0  0  0  0  0  0  0
   12.6796    0.4495   10.8811 O   0  0  0  0  0  0  0  0  0  0  0  0
   13.5274   -0.1969   11.8045 C   0  0  0  0  0  0  0  0  0  0  0  0
   10.8208    1.2903    9.9481 C   0  0  0  0  0  0  0  0  0  0  0  0
    9.4974    1.7622    9.8587 C   0  0  0  0  0  0  0  0  0  0  0  0
    7.5500    0.7762    6.3646 C   0  0  0  0  0  0  0  0  0  0  0  0
    6.8633    0.4977    5.1760 C   0  0  0  0  0  0  0  0  0  0  0  0
    5.4893   -0.5528    5.2456 Cl  0  0  0  0  0  0  0  0  0  0  0  0
    4.1125   -1.7864   -2.2273 H   0  0  0  0  0  0  0  0  0  0  0  0
    4.2034   -1.2198   -0.5544 H   0  0  0  0  0  0  0  0  0  0  0  0
    5.0511   -2.7042   -1.0370 H   0  0  0  0  0  0  0  0  0  0  0  0
    5.6888    0.1118   -2.0702 H   0  0  0  0  0  0  0  0  0  0  0  0
    6.5112   -1.3661   -2.5630 H   0  0  0  0  0  0  0  0  0  0  0  0
    7.8611   -0.1610   -0.9101 H   0  0  0  0  0  0  0  0  0  0  0  0
    7.3540   -1.7228   -0.2591 H   0  0  0  0  0  0  0  0  0  0  0  0
    5.7509    0.6461    0.4547 H   0  0  0  0  0  0  0  0  0  0  0  0
    5.7062    0.3077    2.8630 H   0  0  0  0  0  0  0  0  0  0  0  0
    8.8844    2.1445    2.9881 H   0  0  0  0  0  0  0  0  0  0  0  0
   10.0773    2.6576    5.0838 H   0  0  0  0  0  0  0  0  0  0  0  0
    5.9624    3.1167    9.8450 H   0  0  0  0  0  0  0  0  0  0  0  0
    8.7276    1.5499   13.1203 H   0  0  0  0  0  0  0  0  0  0  0  0
   11.7565    0.6513   15.3630 H   0  0  0  0  0  0  0  0  0  0  0  0
   12.4661    1.6434   14.0754 H   0  0  0  0  0  0  0  0  0  0  0  0
   12.7284   -0.1471   14.1765 H   0  0  0  0  0  0  0  0  0  0  0  0
   14.3996   -0.5427   11.2405 H   0  0  0  0  0  0  0  0  0  0  0  0
   13.0573   -1.0793   12.2444 H   0  0  0  0  0  0  0  0  0  0  0  0
   13.9112    0.5107   12.5414 H   0  0  0  0  0  0  0  0  0  0  0  0
   11.4122    1.2058    9.0387 H   0  0  0  0  0  0  0  0  0  0  0  0
    7.1925    0.3516    7.2971 H   0  0  0  0  0  0  0  0  0  0  0  0
  1  2  1  0  0  0  0
  1 30  1  0  0  0  0
  1 31  1  0  0  0  0
  1 32  1  0  0  0  0
  2  3  1  0  0  0  0
  2 33  1  0  0  0  0
  2 34  1  0  0  0  0
  3  4  1  0  0  0  0
  3 35  1  0  0  0  0
  3 36  1  0  0  0  0
  4  5  1  0  0  0  0
  4 37  1  0  0  0  0
  5  6  2  0  0  0  0
  5  7  1  0  0  0  0
  7  8  1  0  0  0  0
  7 38  1  0  0  0  0
  8  9  1  0  0  0  0
  8 28  2  0  0  0  0
  9 10  2  0  0  0  0
  9 39  1  0  0  0  0
 10 11  1  0  0  0  0
 10 40  1  0  0  0  0
 11 12  1  0  0  0  0
 11 27  2  0  0  0  0
 12 13  1  0  0  0  0
 13 14  1  0  0  0  0
 13 26  2  0  0  0  0
 14 15  2  0  0  0  0
 15 16  1  0  0  0  0
 15 41  1  0  0  0  0
 16 17  2  0  0  0  0
 17 18  1  0  0  0  0
 17 26  1  0  0  0  0
 18 19  2  0  0  0  0
 18 42  1  0  0  0  0
 19 20  1  0  0  0  0
 19 22  1  0  0  0  0
 20 21  1  0  0  0  0
 21 43  1  0  0  0  0
 21 44  1  0  0  0  0
 21 45  1  0  0  0  0
 22 23  1  0  0  0  0
 22 25  2  0  0  0  0
 23 24  1  0  0  0  0
 24 46  1  0  0  0  0
 24 47  1  0  0  0  0
 24 48  1  0  0  0  0
 25 26  1  0  0  0  0
 25 49  1  0  0  0  0
 27 28  1  0  0  0  0
 27 50  1  0  0  0  0
 28 29  1  0  0  0  0
M  END
$$$$
