CHEMBL1095034
 OpenBabel04072215363D

 59 64  0  0  0  0  0  0  0  0999 V2000
   -1.7146   -0.2715   -4.2969 C   0  0  0  0  0  0  0  0  0  0  0  0
   -0.7701   -0.5878   -3.2540 N   0  0  0  0  0  0  0  0  0  0  0  0
   -0.4968   -1.8569   -2.8152 C   0  0  0  0  0  0  0  0  0  0  0  0
    0.5070   -1.7087   -1.8917 C   0  0  0  0  0  0  0  0  0  0  0  0
    0.8416   -0.3901   -1.7533 N   0  0  0  0  0  0  0  0  0  0  0  0
    0.0493    0.2827   -2.5687 C   0  0  0  0  0  0  0  0  0  0  0  0
    0.0696    1.7163   -2.6808 C   0  0  0  0  0  0  0  0  0  0  0  0
   -0.9733    2.5740   -2.9611 C   0  0  0  0  0  0  0  0  0  0  0  0
   -0.5896    3.9435   -2.9440 C   0  0  0  0  0  0  0  0  0  0  0  0
   -1.4315    4.9824   -3.1910 N   0  0  0  0  0  0  0  0  0  0  0  0
   -0.8977    6.2085   -3.0557 C   0  0  0  0  0  0  0  0  0  0  0  0
    0.4129    6.4700   -2.7067 C   0  0  0  0  0  0  0  0  0  0  0  0
    1.2955    5.3993   -2.5392 C   0  0  0  0  0  0  0  0  0  0  0  0
    2.6350    5.5562   -2.2446 O   0  0  0  0  0  0  0  0  0  0  0  0
    3.3434    6.5346   -2.9019 C   0  0  0  0  0  0  0  0  0  0  0  0
    3.0177    6.9965   -4.1764 C   0  0  0  0  0  0  0  0  0  0  0  0
    3.6843    8.0964   -4.7083 C   0  0  0  0  0  0  0  0  0  0  0  0
    4.7336    8.6993   -4.0111 C   0  0  0  0  0  0  0  0  0  0  0  0
    5.3861    9.8454   -4.4963 N   0  0  0  0  0  0  0  0  0  0  0  0
    4.8660   10.7075   -5.4433 C   0  0  0  0  0  0  0  0  0  0  0  0
    3.7122   10.7187   -5.8556 O   0  0  0  0  0  0  0  0  0  0  0  0
    5.8251   11.6578   -5.9647 C   0  0  0  0  0  0  0  0  0  0  0  0
    6.8607   12.3356   -5.3098 C   0  0  0  0  0  0  0  0  0  0  0  0
    7.6075   13.0461   -6.1467 N   0  0  0  0  0  0  0  0  0  0  0  0
    6.9738   12.9569   -7.3510 N   0  0  0  0  0  0  0  0  0  0  0  0
    7.4705   13.7361   -8.4315 C   0  0  0  0  0  0  0  0  0  0  0  0
    8.8397   14.0440   -8.4571 C   0  0  0  0  0  0  0  0  0  0  0  0
    9.3739   14.7889   -9.5081 C   0  0  0  0  0  0  0  0  0  0  0  0
    8.5425   15.2563  -10.5228 C   0  0  0  0  0  0  0  0  0  0  0  0
    7.1759   14.9859  -10.4835 C   0  0  0  0  0  0  0  0  0  0  0  0
    6.6366   14.2292   -9.4399 C   0  0  0  0  0  0  0  0  0  0  0  0
    5.9297   12.0564   -7.2938 C   0  0  0  0  0  0  0  0  0  0  0  0
    5.2311   11.5473   -8.4886 C   0  0  0  0  0  0  0  0  0  0  0  0
    4.5899   10.3723   -8.2669 F   0  0  0  0  0  0  0  0  0  0  0  0
    4.3002   12.4136   -8.9555 F   0  0  0  0  0  0  0  0  0  0  0  0
    6.0938   11.2952   -9.5059 F   0  0  0  0  0  0  0  0  0  0  0  0
    5.1679    8.1352   -2.8105 C   0  0  0  0  0  0  0  0  0  0  0  0
    4.4554    7.0722   -2.2549 C   0  0  0  0  0  0  0  0  0  0  0  0
    4.8428    6.5916   -1.0634 F   0  0  0  0  0  0  0  0  0  0  0  0
    0.7566    4.1080   -2.6299 C   0  0  0  0  0  0  0  0  0  0  0  0
    1.5225    2.5873   -2.4126 S   0  0  0  0  0  0  0  0  0  0  0  0
   -2.0457   -1.1937   -4.7813 H   0  0  0  0  0  0  0  0  0  0  0  0
   -1.2276    0.3696   -5.0361 H   0  0  0  0  0  0  0  0  0  0  0  0
   -2.5768    0.2254   -3.8472 H   0  0  0  0  0  0  0  0  0  0  0  0
   -1.0114   -2.7306   -3.1890 H   0  0  0  0  0  0  0  0  0  0  0  0
    1.0084   -2.4787   -1.3202 H   0  0  0  0  0  0  0  0  0  0  0  0
   -1.9923    2.2662   -3.1423 H   0  0  0  0  0  0  0  0  0  0  0  0
   -1.5867    7.0275   -3.2498 H   0  0  0  0  0  0  0  0  0  0  0  0
    0.7419    7.4990   -2.6045 H   0  0  0  0  0  0  0  0  0  0  0  0
    2.2207    6.5441   -4.7595 H   0  0  0  0  0  0  0  0  0  0  0  0
    3.3648    8.4526   -5.6843 H   0  0  0  0  0  0  0  0  0  0  0  0
    6.2846   10.0662   -4.0864 H   0  0  0  0  0  0  0  0  0  0  0  0
    7.1244   12.3252   -4.2595 H   0  0  0  0  0  0  0  0  0  0  0  0
    9.5085   13.6810   -7.6782 H   0  0  0  0  0  0  0  0  0  0  0  0
   10.4390   15.0025   -9.5330 H   0  0  0  0  0  0  0  0  0  0  0  0
    8.9575   15.8422  -11.3385 H   0  0  0  0  0  0  0  0  0  0  0  0
    6.5237   15.3767  -11.2613 H   0  0  0  0  0  0  0  0  0  0  0  0
    5.5599   14.1053   -9.4206 H   0  0  0  0  0  0  0  0  0  0  0  0
    6.0137    8.5336   -2.2598 H   0  0  0  0  0  0  0  0  0  0  0  0
  1  2  1  0  0  0  0
  1 42  1  0  0  0  0
  1 43  1  0  0  0  0
  1 44  1  0  0  0  0
  2  3  1  0  0  0  0
  2  6  1  0  0  0  0
  3  4  2  0  0  0  0
  3 45  1  0  0  0  0
  4  5  1  0  0  0  0
  4 46  1  0  0  0  0
  5  6  2  0  0  0  0
  6  7  1  0  0  0  0
  7  8  2  0  0  0  0
  7 41  1  0  0  0  0
  8  9  1  0  0  0  0
  8 47  1  0  0  0  0
  9 10  1  0  0  0  0
  9 40  2  0  0  0  0
 10 11  2  0  0  0  0
 11 12  1  0  0  0  0
 11 48  1  0  0  0  0
 12 13  2  0  0  0  0
 12 49  1  0  0  0  0
 13 14  1  0  0  0  0
 13 40  1  0  0  0  0
 14 15  1  0  0  0  0
 15 16  1  0  0  0  0
 15 38  2  0  0  0  0
 16 17  2  0  0  0  0
 16 50  1  0  0  0  0
 17 18  1  0  0  0  0
 17 51  1  0  0  0  0
 18 19  1  0  0  0  0
 18 37  2  0  0  0  0
 19 20  1  0  0  0  0
 19 52  1  0  0  0  0
 20 21  2  0  0  0  0
 20 22  1  0  0  0  0
 22 23  1  0  0  0  0
 22 32  2  0  0  0  0
 23 24  2  0  0  0  0
 23 53  1  0  0  0  0
 24 25  1  0  0  0  0
 25 26  1  0  0  0  0
 25 32  1  0  0  0  0
 26 27  1  0  0  0  0
 26 31  2  0  0  0  0
 27 28  2  0  0  0  0
 27 54  1  0  0  0  0
 28 29  1  0  0  0  0
 28 55  1  0  0  0  0
 29 30  2  0  0  0  0
 29 56  1  0  0  0  0
 30 31  1  0  0  0  0
 30 57  1  0  0  0  0
 31 58  1  0  0  0  0
 32 33  1  0  0  0  0
 33 34  1  0  0  0  0
 33 35  1  0  0  0  0
 33 36  1  0  0  0  0
 37 38  1  0  0  0  0
 37 59  1  0  0  0  0
 38 39  1  0  0  0  0
 40 41  1  0  0  0  0
M  END
$$$$
