CHEMBL244079
 OpenBabel04072215363D

 53 56  0  0  0  0  0  0  0  0999 V2000
    8.0372   -5.4352   -9.5204 C   0  0  0  0  0  0  0  0  0  0  0  0
    7.1876   -5.4459   -8.3694 O   0  0  0  0  0  0  0  0  0  0  0  0
    7.8441   -5.7372   -7.2077 C   0  0  0  0  0  0  0  0  0  0  0  0
    9.0525   -5.9336   -7.1609 O   0  0  0  0  0  0  0  0  0  0  0  0
    6.9275   -5.8261   -6.2014 N   0  0  0  0  0  0  0  0  0  0  0  0
    7.3026   -6.0886   -4.9066 C   0  0  0  0  0  0  0  0  0  0  0  0
    8.5120   -6.0295   -4.4066 N   0  0  0  0  0  0  0  0  0  0  0  0
    8.3963   -6.3863   -3.0927 C   0  0  0  0  0  0  0  0  0  0  0  0
    9.3834   -6.4596   -2.1059 C   0  0  0  0  0  0  0  0  0  0  0  0
    9.0161   -6.8963   -0.8269 C   0  0  0  0  0  0  0  0  0  0  0  0
    7.7076   -7.3184   -0.5642 C   0  0  0  0  0  0  0  0  0  0  0  0
    7.3178   -7.8448    0.6526 O   0  0  0  0  0  0  0  0  0  0  0  0
    8.1918   -8.6585    1.3458 C   0  0  0  0  0  0  0  0  0  0  0  0
    8.0965   -8.6264    2.7304 C   0  0  0  0  0  0  0  0  0  0  0  0
    8.9774   -9.3808    3.5126 C   0  0  0  0  0  0  0  0  0  0  0  0
    9.9699  -10.1784    2.9302 C   0  0  0  0  0  0  0  0  0  0  0  0
   10.9359  -10.8973    3.6788 N   0  0  0  0  0  0  0  0  0  0  0  0
   10.9935  -10.9786    5.0601 C   0  0  0  0  0  0  0  0  0  0  0  0
   10.1801  -10.4897    5.8346 O   0  0  0  0  0  0  0  0  0  0  0  0
   12.1248  -11.6637    5.5031 N   0  0  0  0  0  0  0  0  0  0  0  0
   12.3375  -11.8344    6.8957 C   0  0  0  0  0  0  0  0  0  0  0  0
   13.5636  -11.4629    7.4426 C   0  0  0  0  0  0  0  0  0  0  0  0
   13.7667  -11.5566    8.8223 C   0  0  0  0  0  0  0  0  0  0  0  0
   12.7626  -12.0600    9.6505 C   0  0  0  0  0  0  0  0  0  0  0  0
   11.5314  -12.4601    9.1127 C   0  0  0  0  0  0  0  0  0  0  0  0
   10.4354  -13.0024    9.9969 C   0  0  0  0  0  0  0  0  0  0  0  0
   10.7824  -13.0556   11.3150 F   0  0  0  0  0  0  0  0  0  0  0  0
    9.2926  -12.2641    9.9457 F   0  0  0  0  0  0  0  0  0  0  0  0
   10.0761  -14.2734    9.6612 F   0  0  0  0  0  0  0  0  0  0  0  0
   11.3283  -12.3368    7.7272 C   0  0  0  0  0  0  0  0  0  0  0  0
   10.0181  -10.2490    1.5315 C   0  0  0  0  0  0  0  0  0  0  0  0
    9.1152   -9.5187    0.7480 C   0  0  0  0  0  0  0  0  0  0  0  0
    6.6942   -7.1853   -1.5239 C   0  0  0  0  0  0  0  0  0  0  0  0
    7.0806   -6.7094   -2.7828 C   0  0  0  0  0  0  0  0  0  0  0  0
    6.3951   -6.4510   -3.9468 N   0  0  0  0  0  0  0  0  0  0  0  0
    7.4900   -4.9707  -10.3453 H   0  0  0  0  0  0  0  0  0  0  0  0
    8.2833   -6.4640   -9.8002 H   0  0  0  0  0  0  0  0  0  0  0  0
    8.9496   -4.8542   -9.3488 H   0  0  0  0  0  0  0  0  0  0  0  0
    5.9597   -5.7576   -6.4680 H   0  0  0  0  0  0  0  0  0  0  0  0
   10.4077   -6.1871   -2.3391 H   0  0  0  0  0  0  0  0  0  0  0  0
    9.7816   -6.9321   -0.0569 H   0  0  0  0  0  0  0  0  0  0  0  0
    7.3500   -8.0069    3.2193 H   0  0  0  0  0  0  0  0  0  0  0  0
    8.8577   -9.3046    4.5884 H   0  0  0  0  0  0  0  0  0  0  0  0
   11.5979  -11.4545    3.1588 H   0  0  0  0  0  0  0  0  0  0  0  0
   12.9503  -11.5077    4.9426 H   0  0  0  0  0  0  0  0  0  0  0  0
   14.3421  -11.0272    6.8250 H   0  0  0  0  0  0  0  0  0  0  0  0
   14.7055  -11.2185    9.2564 H   0  0  0  0  0  0  0  0  0  0  0  0
   12.9424  -12.1277   10.7227 H   0  0  0  0  0  0  0  0  0  0  0  0
   10.3695  -12.6342    7.3020 H   0  0  0  0  0  0  0  0  0  0  0  0
   10.7562  -10.8671    1.0286 H   0  0  0  0  0  0  0  0  0  0  0  0
    9.1669   -9.6107   -0.3337 H   0  0  0  0  0  0  0  0  0  0  0  0
    5.6699   -7.4616   -1.3033 H   0  0  0  0  0  0  0  0  0  0  0  0
    5.3998   -6.5748   -4.0834 H   0  0  0  0  0  0  0  0  0  0  0  0
  1  2  1  0  0  0  0
  1 36  1  0  0  0  0
  1 37  1  0  0  0  0
  1 38  1  0  0  0  0
  2  3  1  0  0  0  0
  3  4  2  0  0  0  0
  3  5  1  0  0  0  0
  5  6  1  0  0  0  0
  5 39  1  0  0  0  0
  6  7  2  0  0  0  0
  6 35  1  0  0  0  0
  7  8  1  0  0  0  0
  8  9  1  0  0  0  0
  8 34  2  0  0  0  0
  9 10  2  0  0  0  0
  9 40  1  0  0  0  0
 10 11  1  0  0  0  0
 10 41  1  0  0  0  0
 11 12  1  0  0  0  0
 11 33  2  0  0  0  0
 12 13  1  0  0  0  0
 13 14  1  0  0  0  0
 13 32  2  0  0  0  0
 14 15  2  0  0  0  0
 14 42  1  0  0  0  0
 15 16  1  0  0  0  0
 15 43  1  0  0  0  0
 16 17  1  0  0  0  0
 16 31  2  0  0  0  0
 17 18  1  0  0  0  0
 17 44  1  0  0  0  0
 18 19  2  0  0  0  0
 18 20  1  0  0  0  0
 20 21  1  0  0  0  0
 20 45  1  0  0  0  0
 21 22  1  0  0  0  0
 21 30  2  0  0  0  0
 22 23  2  0  0  0  0
 22 46  1  0  0  0  0
 23 24  1  0  0  0  0
 23 47  1  0  0  0  0
 24 25  2  0  0  0  0
 24 48  1  0  0  0  0
 25 26  1  0  0  0  0
 25 30  1  0  0  0  0
 26 27  1  0  0  0  0
 26 28  1  0  0  0  0
 26 29  1  0  0  0  0
 30 49  1  0  0  0  0
 31 32  1  0  0  0  0
 31 50  1  0  0  0  0
 32 51  1  0  0  0  0
 33 34  1  0  0  0  0
 33 52  1  0  0  0  0
 34 35  1  0  0  0  0
 35 53  1  0  0  0  0
M  END
$$$$
