CHEMBL244378
 OpenBabel04072215363D

 40 43  0  0  0  0  0  0  0  0999 V2000
    6.9215    3.5199   -0.9939 O   0  0  0  0  0  0  0  0  0  0  0  0
    6.3023    2.5942   -1.4964 C   0  0  0  0  0  0  0  0  0  0  0  0
    5.1011    2.7641   -2.0872 O   0  0  0  0  0  0  0  0  0  0  0  0
    6.8171    1.1977   -1.5362 C   0  0  0  0  0  0  0  0  0  0  0  0
    8.2197    1.0711   -1.5527 C   0  0  0  0  0  0  0  0  0  0  0  0
    8.8221   -0.1831   -1.5715 C   0  0  0  0  0  0  0  0  0  0  0  0
    8.0281   -1.3191   -1.5601 C   0  0  0  0  0  0  0  0  0  0  0  0
    6.6361   -1.1990   -1.5593 C   0  0  0  0  0  0  0  0  0  0  0  0
    5.9893    0.0480   -1.5526 C   0  0  0  0  0  0  0  0  0  0  0  0
    4.5701    0.1704   -1.6354 N   0  0  0  0  0  0  0  0  0  0  0  0
    3.5990   -0.8340   -1.9049 C   0  0  0  0  0  0  0  0  0  0  0  0
    2.3691   -0.4356   -2.3878 C   0  0  0  0  0  0  0  0  0  0  0  0
    1.4832   -1.4392   -2.6936 C   0  0  0  0  0  0  0  0  0  0  0  0
    1.7625   -2.7418   -2.5369 N   0  0  0  0  0  0  0  0  0  0  0  0
    2.9702   -3.0531   -2.0538 C   0  0  0  0  0  0  0  0  0  0  0  0
    3.3748   -4.3774   -1.8699 N   0  0  0  0  0  0  0  0  0  0  0  0
    3.1001   -5.5153   -2.6521 C   0  0  0  0  0  0  0  0  0  0  0  0
    3.7095   -6.7346   -2.3079 C   0  0  0  0  0  0  0  0  0  0  0  0
    3.5020   -7.9116   -3.0475 C   0  0  0  0  0  0  0  0  0  0  0  0
    2.6328   -7.8612   -4.1498 C   0  0  0  0  0  0  0  0  0  0  0  0
    2.1830   -8.7573   -5.1445 C   0  0  0  0  0  0  0  0  0  0  0  0
    1.2953   -8.2033   -5.9768 N   0  0  0  0  0  0  0  0  0  0  0  0
    1.1748   -6.9482   -5.5077 N   0  0  0  0  0  0  0  0  0  0  0  0
    1.9918   -6.6688   -4.4455 C   0  0  0  0  0  0  0  0  0  0  0  0
    2.1910   -5.4941   -3.7184 C   0  0  0  0  0  0  0  0  0  0  0  0
    3.8794   -2.1309   -1.7179 N   0  0  0  0  0  0  0  0  0  0  0  0
    4.7893    1.9514   -2.5350 H   0  0  0  0  0  0  0  0  0  0  0  0
    8.8500    1.9595   -1.5595 H   0  0  0  0  0  0  0  0  0  0  0  0
    9.9044   -0.2755   -1.5904 H   0  0  0  0  0  0  0  0  0  0  0  0
    8.4804   -2.3072   -1.5491 H   0  0  0  0  0  0  0  0  0  0  0  0
    6.0812   -2.1290   -1.5449 H   0  0  0  0  0  0  0  0  0  0  0  0
    4.2232    0.7360   -0.8554 H   0  0  0  0  0  0  0  0  0  0  0  0
    2.1155    0.6008   -2.5635 H   0  0  0  0  0  0  0  0  0  0  0  0
    0.4991   -1.2251   -3.0995 H   0  0  0  0  0  0  0  0  0  0  0  0
    4.3037   -4.3659   -1.4703 H   0  0  0  0  0  0  0  0  0  0  0  0
    4.3722   -6.7830   -1.4432 H   0  0  0  0  0  0  0  0  0  0  0  0
    4.0027   -8.8339   -2.7679 H   0  0  0  0  0  0  0  0  0  0  0  0
    2.4693   -9.7879   -5.3010 H   0  0  0  0  0  0  0  0  0  0  0  0
    0.5204   -6.3202   -5.9591 H   0  0  0  0  0  0  0  0  0  0  0  0
    1.6741   -4.5892   -4.0110 H   0  0  0  0  0  0  0  0  0  0  0  0
  1  2  2  0  0  0  0
  2  3  1  0  0  0  0
  2  4  1  0  0  0  0
  3 27  1  0  0  0  0
  4  5  1  0  0  0  0
  4  9  2  0  0  0  0
  5  6  2  0  0  0  0
  5 28  1  0  0  0  0
  6  7  1  0  0  0  0
  6 29  1  0  0  0  0
  7  8  2  0  0  0  0
  7 30  1  0  0  0  0
  8  9  1  0  0  0  0
  8 31  1  0  0  0  0
  9 10  1  0  0  0  0
 10 11  1  0  0  0  0
 10 32  1  0  0  0  0
 11 12  1  0  0  0  0
 11 26  2  0  0  0  0
 12 13  2  0  0  0  0
 12 33  1  0  0  0  0
 13 14  1  0  0  0  0
 13 34  1  0  0  0  0
 14 15  2  0  0  0  0
 15 16  1  0  0  0  0
 15 26  1  0  0  0  0
 16 17  1  0  0  0  0
 16 35  1  0  0  0  0
 17 18  1  0  0  0  0
 17 25  2  0  0  0  0
 18 19  2  0  0  0  0
 18 36  1  0  0  0  0
 19 20  1  0  0  0  0
 19 37  1  0  0  0  0
 20 21  1  0  0  0  0
 20 24  2  0  0  0  0
 21 22  2  0  0  0  0
 21 38  1  0  0  0  0
 22 23  1  0  0  0  0
 23 24  1  0  0  0  0
 23 39  1  0  0  0  0
 24 25  1  0  0  0  0
 25 40  1  0  0  0  0
M  END
$$$$
