CHEMBL4170025
 OpenBabel04072215383D

 49 53  0  0  0  0  0  0  0  0999 V2000
    4.7373    2.7548    4.1128 C   0  0  0  0  0  0  0  0  0  0  0  0
    5.2014    1.9911    2.9812 N   0  0  0  0  0  0  0  0  0  0  0  0
    5.2738    2.5580    1.7533 N   0  0  0  0  0  0  0  0  0  0  0  0
    5.7646    1.5724    0.9917 C   0  0  0  0  0  0  0  0  0  0  0  0
    5.9952    0.3873    1.7134 C   0  0  0  0  0  0  0  0  0  0  0  0
    6.4860   -0.8918    1.4922 C   0  0  0  0  0  0  0  0  0  0  0  0
    6.9438   -1.2607    0.2329 O   0  0  0  0  0  0  0  0  0  0  0  0
    8.0178   -2.1259    0.1777 C   0  0  0  0  0  0  0  0  0  0  0  0
    8.0756   -2.9857   -0.9244 C   0  0  0  0  0  0  0  0  0  0  0  0
    9.1068   -3.9276   -1.0687 C   0  0  0  0  0  0  0  0  0  0  0  0
   10.0697   -3.9676   -0.0517 C   0  0  0  0  0  0  0  0  0  0  0  0
   10.0538   -3.0846    1.0173 C   0  0  0  0  0  0  0  0  0  0  0  0
    9.0433   -2.1259    1.1273 C   0  0  0  0  0  0  0  0  0  0  0  0
   11.0972   -3.3094    1.8548 N   0  0  0  0  0  0  0  0  0  0  0  0
   11.7631   -4.3380    1.3710 C   0  0  0  0  0  0  0  0  0  0  0  0
   12.8779   -4.8994    1.8906 N   0  0  0  0  0  0  0  0  0  0  0  0
   13.4899   -4.4811    3.0966 C   0  0  0  0  0  0  0  0  0  0  0  0
   12.7667   -3.9123    4.1550 C   0  0  0  0  0  0  0  0  0  0  0  0
   13.4011   -3.3951    5.2950 C   0  0  0  0  0  0  0  0  0  0  0  0
   14.7837   -3.4683    5.4101 C   0  0  0  0  0  0  0  0  0  0  0  0
   15.5389   -3.0308    6.4535 O   0  0  0  0  0  0  0  0  0  0  0  0
   14.9523   -2.8614    7.7364 C   0  0  0  0  0  0  0  0  0  0  0  0
   13.8062   -3.5517    7.9132 F   0  0  0  0  0  0  0  0  0  0  0  0
   15.8375   -3.3022    8.6610 F   0  0  0  0  0  0  0  0  0  0  0  0
   14.7246   -1.5532    7.9682 F   0  0  0  0  0  0  0  0  0  0  0  0
   15.5179   -4.0209    4.3577 C   0  0  0  0  0  0  0  0  0  0  0  0
   14.8805   -4.5266    3.2164 C   0  0  0  0  0  0  0  0  0  0  0  0
   11.1671   -4.7690    0.2016 N   0  0  0  0  0  0  0  0  0  0  0  0
   11.5506   -5.8903   -0.6229 C   0  0  0  0  0  0  0  0  0  0  0  0
    6.5055   -1.7832    2.5153 N   0  0  0  0  0  0  0  0  0  0  0  0
    6.1124   -1.3550    3.7319 C   0  0  0  0  0  0  0  0  0  0  0  0
    5.6590   -0.1354    4.0727 N   0  0  0  0  0  0  0  0  0  0  0  0
    5.6134    0.6870    3.0100 C   0  0  0  0  0  0  0  0  0  0  0  0
    4.4713    3.7642    3.7882 H   0  0  0  0  0  0  0  0  0  0  0  0
    5.5437    2.8021    4.8503 H   0  0  0  0  0  0  0  0  0  0  0  0
    3.8610    2.2557    4.5312 H   0  0  0  0  0  0  0  0  0  0  0  0
    5.9361    1.7604   -0.0607 H   0  0  0  0  0  0  0  0  0  0  0  0
    7.2943   -2.9375   -1.6811 H   0  0  0  0  0  0  0  0  0  0  0  0
    9.1362   -4.5986   -1.9170 H   0  0  0  0  0  0  0  0  0  0  0  0
    9.0631   -1.4460    1.9686 H   0  0  0  0  0  0  0  0  0  0  0  0
   13.4577   -5.5159    1.3365 H   0  0  0  0  0  0  0  0  0  0  0  0
   11.6796   -3.8530    4.1086 H   0  0  0  0  0  0  0  0  0  0  0  0
   12.7735   -2.9293    6.0491 H   0  0  0  0  0  0  0  0  0  0  0  0
   16.6022   -4.0514    4.4163 H   0  0  0  0  0  0  0  0  0  0  0  0
   15.4917   -4.9230    2.4117 H   0  0  0  0  0  0  0  0  0  0  0  0
   12.2220   -6.5545   -0.0799 H   0  0  0  0  0  0  0  0  0  0  0  0
   12.0417   -5.5042   -1.5197 H   0  0  0  0  0  0  0  0  0  0  0  0
   10.6503   -6.4517   -0.8970 H   0  0  0  0  0  0  0  0  0  0  0  0
    6.1827   -2.0821    4.5364 H   0  0  0  0  0  0  0  0  0  0  0  0
  1  2  1  0  0  0  0
  1 34  1  0  0  0  0
  1 35  1  0  0  0  0
  1 36  1  0  0  0  0
  2  3  1  0  0  0  0
  2 33  1  0  0  0  0
  3  4  2  0  0  0  0
  4  5  1  0  0  0  0
  4 37  1  0  0  0  0
  5  6  1  0  0  0  0
  5 33  2  0  0  0  0
  6  7  1  0  0  0  0
  6 30  2  0  0  0  0
  7  8  1  0  0  0  0
  8  9  1  0  0  0  0
  8 13  2  0  0  0  0
  9 10  2  0  0  0  0
  9 38  1  0  0  0  0
 10 11  1  0  0  0  0
 10 39  1  0  0  0  0
 11 12  2  0  0  0  0
 11 28  1  0  0  0  0
 12 13  1  0  0  0  0
 12 14  1  0  0  0  0
 13 40  1  0  0  0  0
 14 15  2  0  0  0  0
 15 16  1  0  0  0  0
 15 28  1  0  0  0  0
 16 17  1  0  0  0  0
 16 41  1  0  0  0  0
 17 18  1  0  0  0  0
 17 27  2  0  0  0  0
 18 19  2  0  0  0  0
 18 42  1  0  0  0  0
 19 20  1  0  0  0  0
 19 43  1  0  0  0  0
 20 21  1  0  0  0  0
 20 26  2  0  0  0  0
 21 22  1  0  0  0  0
 22 23  1  0  0  0  0
 22 24  1  0  0  0  0
 22 25  1  0  0  0  0
 26 27  1  0  0  0  0
 26 44  1  0  0  0  0
 27 45  1  0  0  0  0
 28 29  1  0  0  0  0
 29 46  1  0  0  0  0
 29 47  1  0  0  0  0
 29 48  1  0  0  0  0
 30 31  1  0  0  0  0
 31 32  2  0  0  0  0
 31 49  1  0  0  0  0
 32 33  1  0  0  0  0
M  END
$$$$
