CHEMBL1258821
 OpenBabel04072215363D

 37 40  0  0  0  0  0  0  0  0999 V2000
    0.9395   -0.1170    0.0109 C   0  0  0  0  0  0  0  0  0  0  0  0
    2.4109    0.0006    0.0405 C   0  0  0  0  0  0  0  0  0  0  0  0
    3.2558   -1.0122   -0.3241 N   0  0  0  0  0  0  0  0  0  0  0  0
    4.5646   -0.7058   -0.2168 N   0  0  0  0  0  0  0  0  0  0  0  0
    4.5535    0.5567    0.2164 C   0  0  0  0  0  0  0  0  0  0  0  0
    3.2399    1.0238    0.4168 C   0  0  0  0  0  0  0  0  0  0  0  0
    2.8215    2.1973    1.0295 N   0  0  0  0  0  0  0  0  0  0  0  0
    3.4611    3.3114    0.8233 C   0  0  0  0  0  0  0  0  0  0  0  0
    3.0213    4.4747    1.6899 C   0  0  0  0  0  0  0  0  0  0  0  0
    4.0076    5.3533    2.1807 C   0  0  0  0  0  0  0  0  0  0  0  0
    3.6814    6.3700    3.0833 C   0  0  0  0  0  0  0  0  0  0  0  0
    2.3731    6.5098    3.5328 C   0  0  0  0  0  0  0  0  0  0  0  0
    1.3843    5.6507    3.0578 C   0  0  0  0  0  0  0  0  0  0  0  0
    1.6948    4.6434    2.1323 C   0  0  0  0  0  0  0  0  0  0  0  0
    0.3524    3.7061    1.5678 Cl  0  0  0  0  0  0  0  0  0  0  0  0
    4.6094    3.5261   -0.1348 C   0  0  0  0  0  0  0  0  0  0  0  0
    4.6109    4.6903   -0.9246 C   0  0  0  0  0  0  0  0  0  0  0  0
    5.6875    4.9519   -1.7856 C   0  0  0  0  0  0  0  0  0  0  0  0
    5.6857    6.1651   -2.6169 N   0  3  0  0  0  0  0  0  0  0  0  0
    4.7244    6.9363   -2.4991 O   0  0  0  0  0  0  0  0  0  0  0  0
    6.6443    6.3418   -3.3817 O   0  5  0  0  0  0  0  0  0  0  0  0
    6.7699    4.0719   -1.8628 C   0  0  0  0  0  0  0  0  0  0  0  0
    6.7632    2.9103   -1.0915 C   0  0  0  0  0  0  0  0  0  0  0  0
    5.6821    2.6106   -0.2403 C   0  0  0  0  0  0  0  0  0  0  0  0
    5.6553    1.3273    0.3591 N   0  0  0  0  0  0  0  0  0  0  0  0
    0.6187   -1.0719   -0.4173 H   0  0  0  0  0  0  0  0  0  0  0  0
    0.5056    0.6833   -0.5984 H   0  0  0  0  0  0  0  0  0  0  0  0
    0.5258   -0.0398    1.0210 H   0  0  0  0  0  0  0  0  0  0  0  0
    3.0081   -1.9400   -0.6504 H   0  0  0  0  0  0  0  0  0  0  0  0
    5.0514    5.2427    1.8980 H   0  0  0  0  0  0  0  0  0  0  0  0
    4.4556    7.0378    3.4547 H   0  0  0  0  0  0  0  0  0  0  0  0
    2.1209    7.2820    4.2558 H   0  0  0  0  0  0  0  0  0  0  0  0
    0.3637    5.7663    3.4174 H   0  0  0  0  0  0  0  0  0  0  0  0
    3.7665    5.3754   -0.8759 H   0  0  0  0  0  0  0  0  0  0  0  0
    7.6060    4.2513   -2.5366 H   0  0  0  0  0  0  0  0  0  0  0  0
    7.5846    2.2039   -1.2007 H   0  0  0  0  0  0  0  0  0  0  0  0
    6.5141    0.8067    0.2202 H   0  0  0  0  0  0  0  0  0  0  0  0
  1  2  1  0  0  0  0
  1 26  1  0  0  0  0
  1 27  1  0  0  0  0
  1 28  1  0  0  0  0
  2  3  1  0  0  0  0
  2  6  2  0  0  0  0
  3  4  1  0  0  0  0
  3 29  1  0  0  0  0
  4  5  2  0  0  0  0
  5  6  1  0  0  0  0
  5 25  1  0  0  0  0
  6  7  1  0  0  0  0
  7  8  2  0  0  0  0
  8  9  1  0  0  0  0
  8 16  1  0  0  0  0
  9 10  1  0  0  0  0
  9 14  2  0  0  0  0
 10 11  2  0  0  0  0
 10 30  1  0  0  0  0
 11 12  1  0  0  0  0
 11 31  1  0  0  0  0
 12 13  2  0  0  0  0
 12 32  1  0  0  0  0
 13 14  1  0  0  0  0
 13 33  1  0  0  0  0
 14 15  1  0  0  0  0
 16 17  1  0  0  0  0
 16 24  2  0  0  0  0
 17 18  2  0  0  0  0
 17 34  1  0  0  0  0
 18 19  1  0  0  0  0
 18 22  1  0  0  0  0
 19 20  2  0  0  0  0
 19 21  1  0  0  0  0
 22 23  2  0  0  0  0
 22 35  1  0  0  0  0
 23 24  1  0  0  0  0
 23 36  1  0  0  0  0
 24 25  1  0  0  0  0
 25 37  1  0  0  0  0
M  CHG  2  19   1  21  -1
M  END
$$$$
