CHEMBL3932832
 OpenBabel04072215373D

 69 73  0  0  0  0  0  0  0  0999 V2000
    2.7246    6.6574   -0.7225 C   0  0  0  0  0  0  0  0  0  0  0  0
    3.7320    6.4208    0.4019 C   0  0  0  0  0  0  0  0  0  0  0  0
    5.1412    6.4114   -0.0280 N   0  0  0  0  0  0  0  0  0  0  0  0
    5.5434    7.6125   -0.7845 C   0  0  0  0  0  0  0  0  0  0  0  0
    5.5564    8.9299   -0.0117 C   0  0  0  0  0  0  0  0  0  0  0  0
    6.0510    6.1763    1.1169 C   0  0  0  0  0  0  0  0  0  0  0  0
    5.9138    4.8140    1.7798 C   0  0  0  0  0  0  0  0  0  0  0  0
    5.9872    3.6609    0.9835 C   0  0  0  0  0  0  0  0  0  0  0  0
    5.9578    2.4115    1.5795 C   0  0  0  0  0  0  0  0  0  0  0  0
    6.0405    1.2110    0.9175 O   0  0  0  0  0  0  0  0  0  0  0  0
    6.0872    1.2609   -0.5063 C   0  0  0  0  0  0  0  0  0  0  0  0
    5.8688    2.3192    2.9790 C   0  0  0  0  0  0  0  0  0  0  0  0
    5.7971    3.4431    3.8412 C   0  0  0  0  0  0  0  0  0  0  0  0
    5.8195    3.3035    5.2542 N   0  0  0  0  0  0  0  0  0  0  0  0
    5.7013    1.9506    5.8670 C   0  0  0  0  0  0  0  0  0  0  0  0
    6.8346    0.9418    5.7446 C   0  0  0  0  0  0  0  0  0  0  0  0
    8.1300    0.9671    6.5411 C   0  0  0  0  0  0  0  0  0  0  0  0
    8.1616    1.1595    5.0541 C   0  0  0  0  0  0  0  0  0  0  0  0
    5.6053    4.3018    6.3011 C   0  0  0  0  0  0  0  0  0  0  0  0
    6.5460    4.2899    7.3289 C   0  0  0  0  0  0  0  0  0  0  0  0
    6.2161    4.7405    8.5924 C   0  0  0  0  0  0  0  0  0  0  0  0
    5.0041    5.3339    8.8539 C   0  0  0  0  0  0  0  0  0  0  0  0
    4.7702    5.5575   10.1534 N   0  0  0  0  0  0  0  0  0  0  0  0
    3.6622    6.2455   10.4545 C   0  0  0  0  0  0  0  0  0  0  0  0
    2.8446    6.7799    9.4790 C   0  0  0  0  0  0  0  0  0  0  0  0
    1.8766    7.7747    9.9301 C   0  0  0  0  0  0  0  0  0  0  0  0
    1.9621    9.1912    9.9185 C   0  0  0  0  0  0  0  0  0  0  0  0
    0.9728    9.7797   10.6036 N   0  0  0  0  0  0  0  0  0  0  0  0
    0.2497    8.7417   11.0564 N   0  0  0  0  0  0  0  0  0  0  0  0
   -1.0911    8.9451   11.5540 C   0  0  0  0  0  0  0  0  0  0  0  0
    0.8553    7.5338   10.8356 C   0  0  0  0  0  0  0  0  0  0  0  0
    3.0240    6.4744    8.1488 N   0  0  0  0  0  0  0  0  0  0  0  0
    4.1092    5.6641    7.8100 C   0  0  0  0  0  0  0  0  0  0  0  0
    4.4264    5.0705    6.5223 C   0  0  0  0  0  0  0  0  0  0  0  0
    5.8121    4.6916    3.1927 C   0  0  0  0  0  0  0  0  0  0  0  0
    1.7152    6.4165   -0.3722 H   0  0  0  0  0  0  0  0  0  0  0  0
    2.9340    6.0268   -1.5932 H   0  0  0  0  0  0  0  0  0  0  0  0
    2.7162    7.7046   -1.0414 H   0  0  0  0  0  0  0  0  0  0  0  0
    3.4849    5.4435    0.8330 H   0  0  0  0  0  0  0  0  0  0  0  0
    3.5640    7.1633    1.1901 H   0  0  0  0  0  0  0  0  0  0  0  0
    4.9065    7.7262   -1.6695 H   0  0  0  0  0  0  0  0  0  0  0  0
    6.5470    7.4479   -1.1996 H   0  0  0  0  0  0  0  0  0  0  0  0
    4.6396    9.0828    0.5643 H   0  0  0  0  0  0  0  0  0  0  0  0
    5.6491    9.7702   -0.7080 H   0  0  0  0  0  0  0  0  0  0  0  0
    6.4087    8.9768    0.6739 H   0  0  0  0  0  0  0  0  0  0  0  0
    5.9343    6.9630    1.8700 H   0  0  0  0  0  0  0  0  0  0  0  0
    7.0894    6.2276    0.7606 H   0  0  0  0  0  0  0  0  0  0  0  0
    6.0777    3.7805   -0.0947 H   0  0  0  0  0  0  0  0  0  0  0  0
    6.1016    0.2329   -0.8812 H   0  0  0  0  0  0  0  0  0  0  0  0
    7.0017    1.7523   -0.8567 H   0  0  0  0  0  0  0  0  0  0  0  0
    5.1957    1.7489   -0.9157 H   0  0  0  0  0  0  0  0  0  0  0  0
    5.9000    1.3124    3.3801 H   0  0  0  0  0  0  0  0  0  0  0  0
    4.8003    1.4906    5.4404 H   0  0  0  0  0  0  0  0  0  0  0  0
    5.4708    2.0026    6.9408 H   0  0  0  0  0  0  0  0  0  0  0  0
    6.3960   -0.0536    5.6902 H   0  0  0  0  0  0  0  0  0  0  0  0
    8.5196    0.0233    6.9191 H   0  0  0  0  0  0  0  0  0  0  0  0
    8.4107    1.8111    7.1541 H   0  0  0  0  0  0  0  0  0  0  0  0
    8.5304    0.3434    4.4394 H   0  0  0  0  0  0  0  0  0  0  0  0
    8.4355    2.1414    4.6905 H   0  0  0  0  0  0  0  0  0  0  0  0
    7.5035    3.8031    7.1837 H   0  0  0  0  0  0  0  0  0  0  0  0
    6.9074    4.5790    9.4146 H   0  0  0  0  0  0  0  0  0  0  0  0
    3.4806    6.3975   11.5118 H   0  0  0  0  0  0  0  0  0  0  0  0
    2.7200    9.8216    9.4706 H   0  0  0  0  0  0  0  0  0  0  0  0
   -1.3427   10.0088   11.5247 H   0  0  0  0  0  0  0  0  0  0  0  0
   -1.1664    8.5634   12.5745 H   0  0  0  0  0  0  0  0  0  0  0  0
   -1.7650    8.3952   10.8906 H   0  0  0  0  0  0  0  0  0  0  0  0
    0.4817    6.6301   11.2965 H   0  0  0  0  0  0  0  0  0  0  0  0
    3.6929    5.1695    5.7217 H   0  0  0  0  0  0  0  0  0  0  0  0
    5.7841    5.5994    3.7911 H   0  0  0  0  0  0  0  0  0  0  0  0
  1  2  1  0  0  0  0
  1 36  1  0  0  0  0
  1 37  1  0  0  0  0
  1 38  1  0  0  0  0
  2  3  1  0  0  0  0
  2 39  1  0  0  0  0
  2 40  1  0  0  0  0
  3  4  1  0  0  0  0
  3  6  1  0  0  0  0
  4  5  1  0  0  0  0
  4 41  1  0  0  0  0
  4 42  1  0  0  0  0
  5 43  1  0  0  0  0
  5 44  1  0  0  0  0
  5 45  1  0  0  0  0
  6  7  1  0  0  0  0
  6 46  1  0  0  0  0
  6 47  1  0  0  0  0
  7  8  1  0  0  0  0
  7 35  2  0  0  0  0
  8  9  2  0  0  0  0
  8 48  1  0  0  0  0
  9 10  1  0  0  0  0
  9 12  1  0  0  0  0
 10 11  1  0  0  0  0
 11 49  1  0  0  0  0
 11 50  1  0  0  0  0
 11 51  1  0  0  0  0
 12 13  2  0  0  0  0
 12 52  1  0  0  0  0
 13 14  1  0  0  0  0
 13 35  1  0  0  0  0
 14 15  1  0  0  0  0
 14 19  1  0  0  0  0
 15 16  1  0  0  0  0
 15 53  1  0  0  0  0
 15 54  1  0  0  0  0
 16 17  1  0  0  0  0
 16 18  1  0  0  0  0
 16 55  1  0  0  0  0
 17 18  1  0  0  0  0
 17 56  1  0  0  0  0
 17 57  1  0  0  0  0
 18 58  1  0  0  0  0
 18 59  1  0  0  0  0
 19 20  1  0  0  0  0
 19 34  2  0  0  0  0
 20 21  2  0  0  0  0
 20 60  1  0  0  0  0
 21 22  1  0  0  0  0
 21 61  1  0  0  0  0
 22 23  1  0  0  0  0
 22 33  2  0  0  0  0
 23 24  2  0  0  0  0
 24 25  1  0  0  0  0
 24 62  1  0  0  0  0
 25 26  1  0  0  0  0
 25 32  2  0  0  0  0
 26 27  1  0  0  0  0
 26 31  2  0  0  0  0
 27 28  2  0  0  0  0
 27 63  1  0  0  0  0
 28 29  1  0  0  0  0
 29 30  1  0  0  0  0
 29 31  1  0  0  0  0
 30 64  1  0  0  0  0
 30 65  1  0  0  0  0
 30 66  1  0  0  0  0
 31 67  1  0  0  0  0
 32 33  1  0  0  0  0
 33 34  1  0  0  0  0
 34 68  1  0  0  0  0
 35 69  1  0  0  0  0
M  END
$$$$
