CHEMBL178743
 OpenBabel04072215363D

 42 44  0  0  0  0  0  0  0  0999 V2000
    2.0707    3.1533   -5.1057 O   0  0  0  0  0  0  0  0  0  0  0  0
    1.8248    3.2535   -3.7098 C   0  0  0  0  0  0  0  0  0  0  0  0
    2.6726    2.2313   -2.9659 C   0  0  0  0  0  0  0  0  0  0  0  0
    4.1639    2.5039   -3.1601 C   0  0  0  0  0  0  0  0  0  0  0  0
    4.9476    1.4545   -2.5006 N   0  0  0  0  0  0  0  0  0  0  0  0
    6.3369    1.6329   -2.6739 C   0  0  0  0  0  0  0  0  0  0  0  0
    7.2038    0.5525   -2.4870 C   0  0  0  0  0  0  0  0  0  0  0  0
    8.5465    0.6295   -2.6358 N   0  0  0  0  0  0  0  0  0  0  0  0
    9.0127    1.8660   -2.9330 C   0  0  0  0  0  0  0  0  0  0  0  0
    8.1892    2.9823   -3.0685 C   0  0  0  0  0  0  0  0  0  0  0  0
    8.7242    4.3287   -3.3167 C   0  0  0  0  0  0  0  0  0  0  0  0
    7.9333    5.4733   -3.3232 C   0  0  0  0  0  0  0  0  0  0  0  0
    8.4331    6.7227   -3.5025 N   0  0  0  0  0  0  0  0  0  0  0  0
    9.7743    6.7807   -3.6901 C   0  0  0  0  0  0  0  0  0  0  0  0
   10.5977    5.6558   -3.7096 C   0  0  0  0  0  0  0  0  0  0  0  0
   11.9820    5.7960   -3.9505 N   0  0  0  0  0  0  0  0  0  0  0  0
   12.8364    4.7591   -4.3841 C   0  0  0  0  0  0  0  0  0  0  0  0
   12.4239    3.8513   -5.3724 C   0  0  0  0  0  0  0  0  0  0  0  0
   13.2686    2.8356   -5.8238 C   0  0  0  0  0  0  0  0  0  0  0  0
   14.5475    2.7109   -5.2860 C   0  0  0  0  0  0  0  0  0  0  0  0
   14.9686    3.6070   -4.3028 C   0  0  0  0  0  0  0  0  0  0  0  0
   16.5431    3.4463   -3.6306 Cl  0  0  0  0  0  0  0  0  0  0  0  0
   14.1261    4.6312   -3.8577 C   0  0  0  0  0  0  0  0  0  0  0  0
   10.0661    4.4271   -3.5203 N   0  0  0  0  0  0  0  0  0  0  0  0
    6.8375    2.8602   -2.9441 N   0  0  0  0  0  0  0  0  0  0  0  0
    1.5209    3.8254   -5.5453 H   0  0  0  0  0  0  0  0  0  0  0  0
    0.7617    3.0612   -3.5340 H   0  0  0  0  0  0  0  0  0  0  0  0
    2.0586    4.2716   -3.3825 H   0  0  0  0  0  0  0  0  0  0  0  0
    2.4377    1.2251   -3.3344 H   0  0  0  0  0  0  0  0  0  0  0  0
    2.4259    2.2541   -1.8980 H   0  0  0  0  0  0  0  0  0  0  0  0
    4.3994    3.4899   -2.7400 H   0  0  0  0  0  0  0  0  0  0  0  0
    4.4026    2.5149   -4.2311 H   0  0  0  0  0  0  0  0  0  0  0  0
    4.6842    0.5395   -2.8583 H   0  0  0  0  0  0  0  0  0  0  0  0
    6.8256   -0.4301   -2.2259 H   0  0  0  0  0  0  0  0  0  0  0  0
   10.0905    1.9374   -3.0467 H   0  0  0  0  0  0  0  0  0  0  0  0
    6.8587    5.4218   -3.1754 H   0  0  0  0  0  0  0  0  0  0  0  0
   10.1758    7.7745   -3.8540 H   0  0  0  0  0  0  0  0  0  0  0  0
   12.4052    6.4224   -3.2758 H   0  0  0  0  0  0  0  0  0  0  0  0
   11.4312    3.9381   -5.8097 H   0  0  0  0  0  0  0  0  0  0  0  0
   12.9259    2.1485   -6.5925 H   0  0  0  0  0  0  0  0  0  0  0  0
   15.2042    1.9211   -5.6348 H   0  0  0  0  0  0  0  0  0  0  0  0
   14.4779    5.3105   -3.0877 H   0  0  0  0  0  0  0  0  0  0  0  0
  1  2  1  0  0  0  0
  1 26  1  0  0  0  0
  2  3  1  0  0  0  0
  2 27  1  0  0  0  0
  2 28  1  0  0  0  0
  3  4  1  0  0  0  0
  3 29  1  0  0  0  0
  3 30  1  0  0  0  0
  4  5  1  0  0  0  0
  4 31  1  0  0  0  0
  4 32  1  0  0  0  0
  5  6  1  0  0  0  0
  5 33  1  0  0  0  0
  6  7  1  0  0  0  0
  6 25  2  0  0  0  0
  7  8  2  0  0  0  0
  7 34  1  0  0  0  0
  8  9  1  0  0  0  0
  9 10  2  0  0  0  0
  9 35  1  0  0  0  0
 10 11  1  0  0  0  0
 10 25  1  0  0  0  0
 11 12  1  0  0  0  0
 11 24  2  0  0  0  0
 12 13  2  0  0  0  0
 12 36  1  0  0  0  0
 13 14  1  0  0  0  0
 14 15  2  0  0  0  0
 14 37  1  0  0  0  0
 15 16  1  0  0  0  0
 15 24  1  0  0  0  0
 16 17  1  0  0  0  0
 16 38  1  0  0  0  0
 17 18  1  0  0  0  0
 17 23  2  0  0  0  0
 18 19  2  0  0  0  0
 18 39  1  0  0  0  0
 19 20  1  0  0  0  0
 19 40  1  0  0  0  0
 20 21  2  0  0  0  0
 20 41  1  0  0  0  0
 21 22  1  0  0  0  0
 21 23  1  0  0  0  0
 23 42  1  0  0  0  0
M  END
$$$$
