CHEMBL1083144
 OpenBabel04072215363D

 70 76  0  0  1  0  0  0  0  0999 V2000
    5.4445    2.9152   -0.7727 C   0  0  0  0  0  0  0  0  0  0  0  0
    4.9926    1.7056   -1.5765 C   0  0  0  0  0  0  0  0  0  0  0  0
    5.4150    0.3983   -0.9098 C   0  0  0  0  0  0  0  0  0  0  0  0
    4.9649   -0.8462   -1.6809 C   0  0  0  0  0  0  0  0  0  0  0  0
    5.5716   -1.0482   -3.0856 C   0  0  0  0  0  0  0  0  0  0  0  0
    7.0188   -1.2295   -3.1476 N   0  0  0  0  0  0  0  0  0  0  0  0
    7.7166   -2.2774   -2.4942 C   0  0  0  0  0  0  0  0  0  0  0  0
    7.2988   -3.3767   -1.7253 C   0  0  0  0  0  0  0  0  0  0  0  0
    8.2771   -4.1992   -1.1151 C   0  0  0  0  0  0  0  0  0  0  0  0
    9.6490   -3.9818   -1.2750 C   0  0  0  0  0  0  0  0  0  0  0  0
   10.7681   -4.8774   -0.7751 C   0  0  3  0  0  0  0  0  0  0  0  0
   10.4281   -6.0364    0.1637 C   0  0  0  0  0  0  0  0  0  0  0  0
   10.3164   -5.6013    1.6185 C   0  0  0  0  0  0  0  0  0  0  0  0
   11.5580   -4.8206    2.0235 C   0  0  0  0  0  0  0  0  0  0  0  0
   11.7737   -3.6609    1.0655 C   0  0  0  0  0  0  0  0  0  0  0  0
   11.8911   -4.1191   -0.2804 O   0  0  0  0  0  0  0  0  0  0  0  0
   10.0354   -2.8928   -2.0708 C   0  0  0  0  0  0  0  0  0  0  0  0
    9.0837   -2.0276   -2.6324 C   0  0  0  0  0  0  0  0  0  0  0  0
    9.1091   -0.8125   -3.2783 C   0  0  0  0  0  0  0  0  0  0  0  0
   10.2268    0.0323   -3.2329 C   0  0  0  0  0  0  0  0  0  0  0  0
    9.9499    1.3982   -3.4317 C   0  0  0  0  0  0  0  0  0  0  0  0
    8.6936    1.8880   -3.8343 C   0  0  0  0  0  0  0  0  0  0  0  0
    7.8745    0.8820   -4.4561 C   0  0  0  0  0  0  0  0  0  0  0  0
    7.9209   -0.3543   -3.7676 C   0  0  0  0  0  0  0  0  0  0  0  0
    7.9660    0.9898   -6.0507 C   0  0  0  0  0  0  0  0  0  0  0  0
    9.0318    2.0358   -6.5967 C   0  0  0  0  0  0  0  0  0  0  0  0
    8.8195    3.2965   -5.8354 C   0  0  0  0  0  0  0  0  0  0  0  0
    8.4704    4.4927   -6.3079 N   0  0  0  0  0  0  0  0  0  0  0  0
    7.9976    5.1177   -5.1981 N   0  0  0  0  0  0  0  0  0  0  0  0
    7.3960    6.4237   -5.3096 C   0  0  0  0  0  0  0  0  0  0  0  0
    7.9536    4.3106   -4.0877 C   0  0  0  0  0  0  0  0  0  0  0  0
    8.6501    3.1885   -4.4466 C   0  0  0  0  0  0  0  0  0  0  0  0
   11.2031    2.1074   -3.2923 C   0  0  0  0  0  0  0  0  0  0  0  0
   11.5180    3.2877   -3.3853 O   0  0  0  0  0  0  0  0  0  0  0  0
   12.1413    1.1123   -3.0590 N   0  0  0  0  0  0  0  0  0  0  0  0
   11.6287   -0.2313   -2.9352 C   0  0  0  0  0  0  0  0  0  0  0  0
    5.1415    3.8378   -1.2779 H   0  0  0  0  0  0  0  0  0  0  0  0
    6.5337    2.9293   -0.6657 H   0  0  0  0  0  0  0  0  0  0  0  0
    4.9996    2.9150    0.2277 H   0  0  0  0  0  0  0  0  0  0  0  0
    5.4176    1.7745   -2.5816 H   0  0  0  0  0  0  0  0  0  0  0  0
    3.9012    1.7325   -1.6798 H   0  0  0  0  0  0  0  0  0  0  0  0
    4.9638    0.3570    0.0917 H   0  0  0  0  0  0  0  0  0  0  0  0
    6.5002    0.3767   -0.7592 H   0  0  0  0  0  0  0  0  0  0  0  0
    3.8713   -0.8174   -1.7800 H   0  0  0  0  0  0  0  0  0  0  0  0
    5.1744   -1.7157   -1.0493 H   0  0  0  0  0  0  0  0  0  0  0  0
    5.2986   -0.2159   -3.7431 H   0  0  0  0  0  0  0  0  0  0  0  0
    5.1376   -1.9535   -3.5278 H   0  0  0  0  0  0  0  0  0  0  0  0
    6.2467   -3.5999   -1.5829 H   0  0  0  0  0  0  0  0  0  0  0  0
    7.9214   -5.0308   -0.5103 H   0  0  0  0  0  0  0  0  0  0  0  0
   11.1456   -5.3488   -1.6934 H   0  0  0  0  0  0  0  0  0  0  0  0
   11.2564   -6.7561    0.1054 H   0  0  0  0  0  0  0  0  0  0  0  0
    9.5304   -6.5733   -0.1563 H   0  0  0  0  0  0  0  0  0  0  0  0
   10.2048   -6.4819    2.2601 H   0  0  0  0  0  0  0  0  0  0  0  0
    9.4258   -4.9790    1.7595 H   0  0  0  0  0  0  0  0  0  0  0  0
   12.4275   -5.4895    1.9842 H   0  0  0  0  0  0  0  0  0  0  0  0
   11.4665   -4.4592    3.0530 H   0  0  0  0  0  0  0  0  0  0  0  0
   12.7111   -3.1528    1.3202 H   0  0  0  0  0  0  0  0  0  0  0  0
   10.9717   -2.9184    1.1452 H   0  0  0  0  0  0  0  0  0  0  0  0
   11.0968   -2.7190   -2.2322 H   0  0  0  0  0  0  0  0  0  0  0  0
    6.9792    1.2918   -6.4187 H   0  0  0  0  0  0  0  0  0  0  0  0
    8.2129    0.0079   -6.4703 H   0  0  0  0  0  0  0  0  0  0  0  0
    8.9561    2.1864   -7.6760 H   0  0  0  0  0  0  0  0  0  0  0  0
   10.0499    1.6668   -6.3947 H   0  0  0  0  0  0  0  0  0  0  0  0
    7.7302    6.8995   -6.2345 H   0  0  0  0  0  0  0  0  0  0  0  0
    7.7040    7.0224   -4.4492 H   0  0  0  0  0  0  0  0  0  0  0  0
    6.3104    6.2954   -5.3183 H   0  0  0  0  0  0  0  0  0  0  0  0
    7.4042    4.5834   -3.1978 H   0  0  0  0  0  0  0  0  0  0  0  0
   13.1199    1.3514   -3.0048 H   0  0  0  0  0  0  0  0  0  0  0  0
   11.7922   -0.5748   -1.9129 H   0  0  0  0  0  0  0  0  0  0  0  0
   12.0991   -0.8804   -3.6781 H   0  0  0  0  0  0  0  0  0  0  0  0
  1  2  1  0  0  0  0
  1 37  1  0  0  0  0
  1 38  1  0  0  0  0
  1 39  1  0  0  0  0
  2  3  1  0  0  0  0
  2 40  1  0  0  0  0
  2 41  1  0  0  0  0
  3  4  1  0  0  0  0
  3 42  1  0  0  0  0
  3 43  1  0  0  0  0
  4  5  1  0  0  0  0
  4 44  1  0  0  0  0
  4 45  1  0  0  0  0
  5  6  1  0  0  0  0
  5 46  1  0  0  0  0
  5 47  1  0  0  0  0
  6  7  1  0  0  0  0
  6 24  1  0  0  0  0
  7  8  1  0  0  0  0
  7 18  2  0  0  0  0
  8  9  2  0  0  0  0
  8 48  1  0  0  0  0
  9 10  1  0  0  0  0
  9 49  1  0  0  0  0
 10 11  1  0  0  0  0
 10 17  2  0  0  0  0
 11 12  1  0  0  0  0
 11 16  1  0  0  0  0
 11 50  1  0  0  0  0
 12 13  1  0  0  0  0
 12 51  1  0  0  0  0
 12 52  1  0  0  0  0
 13 14  1  0  0  0  0
 13 53  1  0  0  0  0
 13 54  1  0  0  0  0
 14 15  1  0  0  0  0
 14 55  1  0  0  0  0
 14 56  1  0  0  0  0
 15 16  1  0  0  0  0
 15 57  1  0  0  0  0
 15 58  1  0  0  0  0
 17 18  1  0  0  0  0
 17 59  1  0  0  0  0
 18 19  1  0  0  0  0
 19 20  1  0  0  0  0
 19 24  2  0  0  0  0
 20 21  2  0  0  0  0
 20 36  1  0  0  0  0
 21 22  1  0  0  0  0
 21 33  1  0  0  0  0
 22 23  2  0  0  0  0
 22 32  1  0  0  0  0
 23 24  1  0  0  0  0
 23 25  1  0  0  0  0
 25 26  1  0  0  0  0
 25 60  1  0  0  0  0
 25 61  1  0  0  0  0
 26 27  1  0  0  0  0
 26 62  1  0  0  0  0
 26 63  1  0  0  0  0
 27 28  2  0  0  0  0
 27 32  1  0  0  0  0
 28 29  1  0  0  0  0
 29 30  1  0  0  0  0
 29 31  1  0  0  0  0
 30 64  1  0  0  0  0
 30 65  1  0  0  0  0
 30 66  1  0  0  0  0
 31 32  2  0  0  0  0
 31 67  1  0  0  0  0
 33 34  2  0  0  0  0
 33 35  1  0  0  0  0
 35 36  1  0  0  0  0
 35 68  1  0  0  0  0
 36 69  1  0  0  0  0
 36 70  1  0  0  0  0
M  END
$$$$
