CHEMBL260956
 OpenBabel04072215363D

 85 91  0  0  0  0  0  0  0  0999 V2000
    1.8317    0.5842   -1.2106 C   0  0  0  0  0  0  0  0  0  0  0  0
    2.2873   -0.1644   -0.0821 O   0  0  0  0  0  0  0  0  0  0  0  0
    2.9894   -1.3049   -0.3883 C   0  0  0  0  0  0  0  0  0  0  0  0
    2.5584   -2.1414   -1.4228 C   0  0  0  0  0  0  0  0  0  0  0  0
    3.2907   -3.2658   -1.8115 C   0  0  0  0  0  0  0  0  0  0  0  0
    2.7392   -4.0629   -2.8438 N   0  0  0  0  0  0  0  0  0  0  0  0
    3.3296   -5.1596   -3.4750 C   0  0  0  0  0  0  0  0  0  0  0  0
    2.6277   -6.2796   -3.2327 N   0  0  0  0  0  0  0  0  0  0  0  0
    3.0921   -7.4105   -3.7547 C   0  0  0  0  0  0  0  0  0  0  0  0
    4.2185   -7.4412   -4.5375 C   0  0  0  0  0  0  0  0  0  0  0  0
    4.5071   -8.6763   -5.2124 C   0  0  0  0  0  0  0  0  0  0  0  0
    4.5853   -9.6968   -4.5493 O   0  0  0  0  0  0  0  0  0  0  0  0
    4.6044   -8.5499   -6.5884 N   0  0  0  0  0  0  0  0  0  0  0  0
    5.4518   -9.4217   -7.3420 C   0  0  0  0  0  0  0  0  0  0  0  0
    4.9900   -9.8442   -8.6045 C   0  0  0  0  0  0  0  0  0  0  0  0
    3.6027   -9.5330   -9.1076 C   0  0  0  0  0  0  0  0  0  0  0  0
    5.8336  -10.6016   -9.4252 C   0  0  0  0  0  0  0  0  0  0  0  0
    7.1141  -10.9540   -9.0090 C   0  0  0  0  0  0  0  0  0  0  0  0
    7.5743  -10.5567   -7.7596 C   0  0  0  0  0  0  0  0  0  0  0  0
    6.7686   -9.7797   -6.9076 C   0  0  0  0  0  0  0  0  0  0  0  0
    7.4099   -9.3754   -5.5984 C   0  0  0  0  0  0  0  0  0  0  0  0
    4.5260   -7.2297   -7.0805 C   0  0  0  0  0  0  0  0  0  0  0  0
    4.4548   -6.7803   -8.3096 N   0  0  0  0  0  0  0  0  0  0  0  0
    5.7363   -6.3599   -8.4539 C   0  0  0  0  0  0  0  0  0  0  0  0
    6.4470   -6.5201   -9.6470 C   0  0  0  0  0  0  0  0  0  0  0  0
    7.8153   -6.7861   -9.4871 C   0  0  0  0  0  0  0  0  0  0  0  0
    8.4321   -6.6658   -8.2306 C   0  0  0  0  0  0  0  0  0  0  0  0
    7.7306   -6.2453   -7.0578 C   0  0  0  0  0  0  0  0  0  0  0  0
    6.3292   -6.1453   -7.1750 C   0  0  0  0  0  0  0  0  0  0  0  0
    5.1823   -6.2470   -6.3324 N   0  0  0  0  0  0  0  0  0  0  0  0
    4.8090   -6.2335   -4.9342 C   0  0  0  0  0  0  0  0  0  0  0  0
    4.3996   -5.0724   -4.3369 N   0  0  0  0  0  0  0  0  0  0  0  0
    4.4334   -3.6041   -1.0921 C   0  0  0  0  0  0  0  0  0  0  0  0
    4.8658   -2.8078   -0.0183 C   0  0  0  0  0  0  0  0  0  0  0  0
    5.9999   -3.0653    0.7160 O   0  0  0  0  0  0  0  0  0  0  0  0
    6.8132   -4.1595    0.3146 C   0  0  0  0  0  0  0  0  0  0  0  0
    4.1153   -1.6741    0.3734 C   0  0  0  0  0  0  0  0  0  0  0  0
    4.5779   -1.0092    1.4972 O   0  0  0  0  0  0  0  0  0  0  0  0
    3.5624   -0.4114    2.3131 C   0  0  0  0  0  0  0  0  0  0  0  0
    3.9439   -0.4107    3.8124 C   0  0  0  0  0  0  0  0  0  0  0  0
    2.9377    0.2859    4.6428 N   0  0  0  0  0  0  0  0  0  0  0  0
    1.6121   -0.3609    4.6152 C   0  0  0  0  0  0  0  0  0  0  0  0
    0.5678    0.4545    5.4101 C   0  0  0  0  0  0  0  0  0  0  0  0
    0.9226    0.7208    6.8155 N   0  0  0  0  0  0  0  0  0  0  0  0
    0.7334   -0.4612    7.6497 C   0  0  0  0  0  0  0  0  0  0  0  0
    2.3097    1.2294    6.8795 C   0  0  0  0  0  0  0  0  0  0  0  0
    3.3606    0.4395    6.0477 C   0  0  0  0  0  0  0  0  0  0  0  0
    1.3625    1.4996   -0.8387 H   0  0  0  0  0  0  0  0  0  0  0  0
    1.0644    0.0488   -1.7779 H   0  0  0  0  0  0  0  0  0  0  0  0
    2.6685    0.8654   -1.8596 H   0  0  0  0  0  0  0  0  0  0  0  0
    1.6245   -1.9414   -1.9404 H   0  0  0  0  0  0  0  0  0  0  0  0
    1.9036   -4.5027   -2.4462 H   0  0  0  0  0  0  0  0  0  0  0  0
    2.4723   -8.2951   -3.6228 H   0  0  0  0  0  0  0  0  0  0  0  0
    3.0040   -8.9380   -8.4122 H   0  0  0  0  0  0  0  0  0  0  0  0
    3.0527  -10.4639   -9.2587 H   0  0  0  0  0  0  0  0  0  0  0  0
    3.6627   -8.9753  -10.0471 H   0  0  0  0  0  0  0  0  0  0  0  0
    5.4872  -10.9230  -10.4037 H   0  0  0  0  0  0  0  0  0  0  0  0
    7.7542  -11.5414   -9.6604 H   0  0  0  0  0  0  0  0  0  0  0  0
    8.5823  -10.8418   -7.4599 H   0  0  0  0  0  0  0  0  0  0  0  0
    8.5046   -9.4587   -5.6469 H   0  0  0  0  0  0  0  0  0  0  0  0
    7.0776  -10.0223   -4.7828 H   0  0  0  0  0  0  0  0  0  0  0  0
    7.2102   -8.3351   -5.3379 H   0  0  0  0  0  0  0  0  0  0  0  0
    5.9491   -6.7492  -10.5769 H   0  0  0  0  0  0  0  0  0  0  0  0
    8.3611   -7.2018  -10.3360 H   0  0  0  0  0  0  0  0  0  0  0  0
    9.4737   -6.9928   -8.1554 H   0  0  0  0  0  0  0  0  0  0  0  0
    8.2508   -6.2600   -6.1066 H   0  0  0  0  0  0  0  0  0  0  0  0
    4.9625   -4.5116   -1.3600 H   0  0  0  0  0  0  0  0  0  0  0  0
    7.7695   -4.0786    0.8397 H   0  0  0  0  0  0  0  0  0  0  0  0
    7.0349   -4.1453   -0.7581 H   0  0  0  0  0  0  0  0  0  0  0  0
    6.3433   -5.1037    0.6076 H   0  0  0  0  0  0  0  0  0  0  0  0
    2.6311   -0.9740    2.2067 H   0  0  0  0  0  0  0  0  0  0  0  0
    3.4226    0.6244    1.9852 H   0  0  0  0  0  0  0  0  0  0  0  0
    4.9151    0.0945    3.9099 H   0  0  0  0  0  0  0  0  0  0  0  0
    4.1026   -1.4412    4.1572 H   0  0  0  0  0  0  0  0  0  0  0  0
    1.6746   -1.3849    5.0060 H   0  0  0  0  0  0  0  0  0  0  0  0
    1.2308   -0.4266    3.5926 H   0  0  0  0  0  0  0  0  0  0  0  0
   -0.4078   -0.0436    5.3487 H   0  0  0  0  0  0  0  0  0  0  0  0
    0.4325    1.4218    4.9073 H   0  0  0  0  0  0  0  0  0  0  0  0
   -0.3046   -0.8100    7.5860 H   0  0  0  0  0  0  0  0  0  0  0  0
    0.9082   -0.2129    8.7021 H   0  0  0  0  0  0  0  0  0  0  0  0
    1.3892   -1.2934    7.3780 H   0  0  0  0  0  0  0  0  0  0  0  0
    2.6371    1.2964    7.9246 H   0  0  0  0  0  0  0  0  0  0  0  0
    2.2943    2.2647    6.5123 H   0  0  0  0  0  0  0  0  0  0  0  0
    3.5314   -0.5406    6.5118 H   0  0  0  0  0  0  0  0  0  0  0  0
    4.3073    0.9907    6.0935 H   0  0  0  0  0  0  0  0  0  0  0  0
  1  2  1  0  0  0  0
  1 48  1  0  0  0  0
  1 49  1  0  0  0  0
  1 50  1  0  0  0  0
  2  3  1  0  0  0  0
  3  4  1  0  0  0  0
  3 37  2  0  0  0  0
  4  5  2  0  0  0  0
  4 51  1  0  0  0  0
  5  6  1  0  0  0  0
  5 33  1  0  0  0  0
  6  7  1  0  0  0  0
  6 52  1  0  0  0  0
  7  8  1  0  0  0  0
  7 32  2  0  0  0  0
  8  9  2  0  0  0  0
  9 10  1  0  0  0  0
  9 53  1  0  0  0  0
 10 11  1  0  0  0  0
 10 31  2  0  0  0  0
 11 12  2  0  0  0  0
 11 13  1  0  0  0  0
 13 14  1  0  0  0  0
 13 22  1  0  0  0  0
 14 15  1  0  0  0  0
 14 20  2  0  0  0  0
 15 16  1  0  0  0  0
 15 17  2  0  0  0  0
 16 54  1  0  0  0  0
 16 55  1  0  0  0  0
 16 56  1  0  0  0  0
 17 18  1  0  0  0  0
 17 57  1  0  0  0  0
 18 19  2  0  0  0  0
 18 58  1  0  0  0  0
 19 20  1  0  0  0  0
 19 59  1  0  0  0  0
 20 21  1  0  0  0  0
 21 60  1  0  0  0  0
 21 61  1  0  0  0  0
 21 62  1  0  0  0  0
 22 23  2  0  0  0  0
 22 30  1  0  0  0  0
 23 24  1  0  0  0  0
 24 25  1  0  0  0  0
 24 29  2  0  0  0  0
 25 26  2  0  0  0  0
 25 63  1  0  0  0  0
 26 27  1  0  0  0  0
 26 64  1  0  0  0  0
 27 28  2  0  0  0  0
 27 65  1  0  0  0  0
 28 29  1  0  0  0  0
 28 66  1  0  0  0  0
 29 30  1  0  0  0  0
 30 31  1  0  0  0  0
 31 32  1  0  0  0  0
 33 34  2  0  0  0  0
 33 67  1  0  0  0  0
 34 35  1  0  0  0  0
 34 37  1  0  0  0  0
 35 36  1  0  0  0  0
 36 68  1  0  0  0  0
 36 69  1  0  0  0  0
 36 70  1  0  0  0  0
 37 38  1  0  0  0  0
 38 39  1  0  0  0  0
 39 40  1  0  0  0  0
 39 71  1  0  0  0  0
 39 72  1  0  0  0  0
 40 41  1  0  0  0  0
 40 73  1  0  0  0  0
 40 74  1  0  0  0  0
 41 42  1  0  0  0  0
 41 47  1  0  0  0  0
 42 43  1  0  0  0  0
 42 75  1  0  0  0  0
 42 76  1  0  0  0  0
 43 44  1  0  0  0  0
 43 77  1  0  0  0  0
 43 78  1  0  0  0  0
 44 45  1  0  0  0  0
 44 46  1  0  0  0  0
 45 79  1  0  0  0  0
 45 80  1  0  0  0  0
 45 81  1  0  0  0  0
 46 47  1  0  0  0  0
 46 82  1  0  0  0  0
 46 83  1  0  0  0  0
 47 84  1  0  0  0  0
 47 85  1  0  0  0  0
M  END
$$$$
