CHEMBL1080902
 OpenBabel04072215353D

 40 42  0  0  0  0  0  0  0  0999 V2000
    1.8013    1.1405    0.0088 C   0  0  0  0  0  0  0  0  0  0  0  0
    2.5271   -0.0812    0.0297 O   0  0  0  0  0  0  0  0  0  0  0  0
    3.1848   -0.4287   -1.1167 C   0  0  0  0  0  0  0  0  0  0  0  0
    3.1898    0.2882   -2.3149 C   0  0  0  0  0  0  0  0  0  0  0  0
    3.9091   -0.1873   -3.4189 C   0  0  0  0  0  0  0  0  0  0  0  0
    4.6152   -1.3902   -3.3306 C   0  0  0  0  0  0  0  0  0  0  0  0
    5.3684   -1.8713   -4.4920 C   0  0  0  0  0  0  0  0  0  0  0  0
    5.9131   -1.1126   -5.4095 N   0  0  0  0  0  0  0  0  0  0  0  0
    6.5885   -1.9446   -6.2966 N   0  0  0  0  0  0  0  0  0  0  0  0
    6.5289   -3.2883   -6.0062 C   0  0  0  0  0  0  0  0  0  0  0  0
    7.0303   -4.2489   -6.5449 O   0  0  0  0  0  0  0  0  0  0  0  0
    5.6432   -3.3050   -4.7987 C   0  0  0  0  0  0  0  0  0  0  0  0
    5.1369   -4.3016   -4.1477 N   0  0  0  0  0  0  0  0  0  0  0  0
    5.4820   -5.5466   -4.5447 N   0  0  0  0  0  0  0  0  0  0  0  0
    4.8861   -6.6586   -3.9258 C   0  0  0  0  0  0  0  0  0  0  0  0
    3.9069   -6.5280   -2.9334 C   0  0  0  0  0  0  0  0  0  0  0  0
    3.3765   -7.6508   -2.2946 C   0  0  0  0  0  0  0  0  0  0  0  0
    3.8319   -8.9268   -2.6272 C   0  0  0  0  0  0  0  0  0  0  0  0
    4.8157   -9.0805   -3.6036 C   0  0  0  0  0  0  0  0  0  0  0  0
    5.3509  -10.2673   -4.0257 O   0  0  0  0  0  0  0  0  0  0  0  0
    4.8678  -11.4486   -3.3992 C   0  0  0  0  0  0  0  0  0  0  0  0
    5.3380   -7.9467   -4.2397 C   0  0  0  0  0  0  0  0  0  0  0  0
    4.6231   -2.0985   -2.1261 C   0  0  0  0  0  0  0  0  0  0  0  0
    3.9078   -1.6196   -1.0289 C   0  0  0  0  0  0  0  0  0  0  0  0
    1.3338    1.2680    0.9897 H   0  0  0  0  0  0  0  0  0  0  0  0
    1.0027    1.1128   -0.7398 H   0  0  0  0  0  0  0  0  0  0  0  0
    2.4707    1.9911   -0.1561 H   0  0  0  0  0  0  0  0  0  0  0  0
    2.6442    1.2195   -2.4252 H   0  0  0  0  0  0  0  0  0  0  0  0
    3.9033    0.3831   -4.3453 H   0  0  0  0  0  0  0  0  0  0  0  0
    7.1269   -1.5496   -7.0593 H   0  0  0  0  0  0  0  0  0  0  0  0
    6.0389   -5.7216   -5.3862 H   0  0  0  0  0  0  0  0  0  0  0  0
    3.5415   -5.5427   -2.6550 H   0  0  0  0  0  0  0  0  0  0  0  0
    2.6103   -7.5269   -1.5342 H   0  0  0  0  0  0  0  0  0  0  0  0
    3.4030   -9.7740   -2.1058 H   0  0  0  0  0  0  0  0  0  0  0  0
    5.3302  -12.3046   -3.8999 H   0  0  0  0  0  0  0  0  0  0  0  0
    3.7833  -11.5487   -3.5122 H   0  0  0  0  0  0  0  0  0  0  0  0
    5.1605  -11.4773   -2.3444 H   0  0  0  0  0  0  0  0  0  0  0  0
    6.1180   -8.0798   -4.9849 H   0  0  0  0  0  0  0  0  0  0  0  0
    5.1871   -3.0217   -2.0105 H   0  0  0  0  0  0  0  0  0  0  0  0
    3.9176   -2.1786   -0.0957 H   0  0  0  0  0  0  0  0  0  0  0  0
  1  2  1  0  0  0  0
  1 25  1  0  0  0  0
  1 26  1  0  0  0  0
  1 27  1  0  0  0  0
  2  3  1  0  0  0  0
  3  4  1  0  0  0  0
  3 24  2  0  0  0  0
  4  5  2  0  0  0  0
  4 28  1  0  0  0  0
  5  6  1  0  0  0  0
  5 29  1  0  0  0  0
  6  7  1  0  0  0  0
  6 23  2  0  0  0  0
  7  8  2  0  0  0  0
  7 12  1  0  0  0  0
  8  9  1  0  0  0  0
  9 10  1  0  0  0  0
  9 30  1  0  0  0  0
 10 11  2  0  0  0  0
 10 12  1  0  0  0  0
 12 13  2  0  0  0  0
 13 14  1  0  0  0  0
 14 15  1  0  0  0  0
 14 31  1  0  0  0  0
 15 16  1  0  0  0  0
 15 22  2  0  0  0  0
 16 17  2  0  0  0  0
 16 32  1  0  0  0  0
 17 18  1  0  0  0  0
 17 33  1  0  0  0  0
 18 19  2  0  0  0  0
 18 34  1  0  0  0  0
 19 20  1  0  0  0  0
 19 22  1  0  0  0  0
 20 21  1  0  0  0  0
 21 35  1  0  0  0  0
 21 36  1  0  0  0  0
 21 37  1  0  0  0  0
 22 38  1  0  0  0  0
 23 24  1  0  0  0  0
 23 39  1  0  0  0  0
 24 40  1  0  0  0  0
M  END
$$$$
