CHEMBL3982717
 OpenBabel04072215373D

 64 68  0  0  0  0  0  0  0  0999 V2000
    2.8899   -3.8924  -11.1292 C   0  0  0  0  0  0  0  0  0  0  0  0
    3.7077   -2.8144  -10.5503 N   0  0  0  0  0  0  0  0  0  0  0  0
    2.9632   -1.5499  -10.6730 C   0  0  0  0  0  0  0  0  0  0  0  0
    3.5929   -0.3918   -9.8994 C   0  0  0  0  0  0  0  0  0  0  0  0
    3.8703   -0.7502   -8.4371 C   0  0  0  0  0  0  0  0  0  0  0  0
    2.6609   -0.8030   -7.6184 N   0  0  0  0  0  0  0  0  0  0  0  0
    2.3588    0.0005   -6.5506 C   0  0  0  0  0  0  0  0  0  0  0  0
    1.0771   -0.3311   -6.1824 C   0  0  0  0  0  0  0  0  0  0  0  0
    0.3537    0.2917   -5.2342 N   0  0  0  0  0  0  0  0  0  0  0  0
   -1.0224    0.2327   -5.0103 C   0  0  0  0  0  0  0  0  0  0  0  0
   -1.5315    1.1994   -4.2374 N   0  0  0  0  0  0  0  0  0  0  0  0
   -2.8659    1.1641   -4.0273 C   0  0  0  0  0  0  0  0  0  0  0  0
   -3.7090    0.1934   -4.5276 C   0  0  0  0  0  0  0  0  0  0  0  0
   -5.3630    0.2026   -4.0764 Cl  0  0  0  0  0  0  0  0  0  0  0  0
   -3.1104   -0.7663   -5.3213 C   0  0  0  0  0  0  0  0  0  0  0  0
   -3.8283   -1.9796   -5.8654 C   0  0  0  0  0  0  0  0  0  0  0  0
   -4.9457   -1.7216   -6.8951 C   0  0  0  0  0  0  0  0  0  0  0  0
   -5.6706   -2.9609   -7.4227 C   0  0  0  0  0  0  0  0  0  0  0  0
   -5.6118   -4.1820   -6.7221 C   0  0  0  0  0  0  0  0  0  0  0  0
   -6.2200   -5.3381   -7.2108 C   0  0  0  0  0  0  0  0  0  0  0  0
   -6.8775   -5.3094   -8.4280 C   0  0  0  0  0  0  0  0  0  0  0  0
   -6.9973   -4.1026   -9.1083 C   0  0  0  0  0  0  0  0  0  0  0  0
   -6.4602   -2.8954   -8.6028 C   0  0  0  0  0  0  0  0  0  0  0  0
   -6.8091   -1.5899   -9.3346 C   0  0  0  0  0  0  0  0  0  0  0  0
   -5.9317   -1.2220  -10.4962 C   0  0  0  0  0  0  0  0  0  0  0  0
   -6.2293   -1.8561  -11.6718 N   0  0  0  0  0  0  0  0  0  0  0  0
   -5.0268   -0.4083  -10.3973 O   0  0  0  0  0  0  0  0  0  0  0  0
   -7.4585   -0.4751   -8.5141 C   0  0  0  0  0  0  0  0  0  0  0  0
   -8.2982   -1.2396   -9.4772 C   0  0  0  0  0  0  0  0  0  0  0  0
   -1.7742   -0.7401   -5.5598 N   0  0  0  0  0  0  0  0  0  0  0  0
    0.7176   -1.3922   -7.0317 C   0  0  0  0  0  0  0  0  0  0  0  0
    1.6868   -1.6896   -7.8958 N   0  0  0  0  0  0  0  0  0  0  0  0
    4.6874   -2.0394   -8.3733 C   0  0  0  0  0  0  0  0  0  0  0  0
    4.0351   -3.1748   -9.1610 C   0  0  0  0  0  0  0  0  0  0  0  0
    2.6635   -3.6875  -12.1808 H   0  0  0  0  0  0  0  0  0  0  0  0
    1.9382   -4.0152  -10.5948 H   0  0  0  0  0  0  0  0  0  0  0  0
    3.4234   -4.8480  -11.0931 H   0  0  0  0  0  0  0  0  0  0  0  0
    1.9149   -1.6669  -10.3760 H   0  0  0  0  0  0  0  0  0  0  0  0
    2.9408   -1.2657  -11.7333 H   0  0  0  0  0  0  0  0  0  0  0  0
    2.9454    0.4910   -9.9664 H   0  0  0  0  0  0  0  0  0  0  0  0
    4.5421   -0.1220  -10.3821 H   0  0  0  0  0  0  0  0  0  0  0  0
    4.4755    0.0575   -8.0037 H   0  0  0  0  0  0  0  0  0  0  0  0
    3.0480    0.7493   -6.1900 H   0  0  0  0  0  0  0  0  0  0  0  0
    0.7213    1.0878   -4.7291 H   0  0  0  0  0  0  0  0  0  0  0  0
   -3.2431    1.9655   -3.3995 H   0  0  0  0  0  0  0  0  0  0  0  0
   -4.2096   -2.5270   -4.9966 H   0  0  0  0  0  0  0  0  0  0  0  0
   -3.0828   -2.6380   -6.3352 H   0  0  0  0  0  0  0  0  0  0  0  0
   -4.5016   -1.1843   -7.7425 H   0  0  0  0  0  0  0  0  0  0  0  0
   -5.7015   -1.0676   -6.4577 H   0  0  0  0  0  0  0  0  0  0  0  0
   -5.0954   -4.2659   -5.7707 H   0  0  0  0  0  0  0  0  0  0  0  0
   -6.1686   -6.2606   -6.6390 H   0  0  0  0  0  0  0  0  0  0  0  0
   -7.3219   -6.2139   -8.8339 H   0  0  0  0  0  0  0  0  0  0  0  0
   -7.5502   -4.0949  -10.0453 H   0  0  0  0  0  0  0  0  0  0  0  0
   -6.9370   -2.5720  -11.7359 H   0  0  0  0  0  0  0  0  0  0  0  0
   -5.6254   -1.6855  -12.4621 H   0  0  0  0  0  0  0  0  0  0  0  0
   -7.1908    0.5487   -8.7497 H   0  0  0  0  0  0  0  0  0  0  0  0
   -7.6672   -0.6372   -7.4618 H   0  0  0  0  0  0  0  0  0  0  0  0
   -8.6355   -0.7069  -10.3594 H   0  0  0  0  0  0  0  0  0  0  0  0
   -9.0376   -1.9203   -9.0677 H   0  0  0  0  0  0  0  0  0  0  0  0
   -0.2040   -1.9564   -7.0747 H   0  0  0  0  0  0  0  0  0  0  0  0
    4.8348   -2.3502   -7.3315 H   0  0  0  0  0  0  0  0  0  0  0  0
    5.6850   -1.8467   -8.7889 H   0  0  0  0  0  0  0  0  0  0  0  0
    3.1553   -3.5432   -8.6219 H   0  0  0  0  0  0  0  0  0  0  0  0
    4.7439   -4.0124   -9.1794 H   0  0  0  0  0  0  0  0  0  0  0  0
  1  2  1  0  0  0  0
  1 35  1  0  0  0  0
  1 36  1  0  0  0  0
  1 37  1  0  0  0  0
  2  3  1  0  0  0  0
  2 34  1  0  0  0  0
  3  4  1  0  0  0  0
  3 38  1  0  0  0  0
  3 39  1  0  0  0  0
  4  5  1  0  0  0  0
  4 40  1  0  0  0  0
  4 41  1  0  0  0  0
  5  6  1  0  0  0  0
  5 33  1  0  0  0  0
  5 42  1  0  0  0  0
  6  7  1  0  0  0  0
  6 32  1  0  0  0  0
  7  8  2  0  0  0  0
  7 43  1  0  0  0  0
  8  9  1  0  0  0  0
  8 31  1  0  0  0  0
  9 10  1  0  0  0  0
  9 44  1  0  0  0  0
 10 11  1  0  0  0  0
 10 30  2  0  0  0  0
 11 12  2  0  0  0  0
 12 13  1  0  0  0  0
 12 45  1  0  0  0  0
 13 14  1  0  0  0  0
 13 15  2  0  0  0  0
 15 16  1  0  0  0  0
 15 30  1  0  0  0  0
 16 17  1  0  0  0  0
 16 46  1  0  0  0  0
 16 47  1  0  0  0  0
 17 18  1  0  0  0  0
 17 48  1  0  0  0  0
 17 49  1  0  0  0  0
 18 19  1  0  0  0  0
 18 23  2  0  0  0  0
 19 20  2  0  0  0  0
 19 50  1  0  0  0  0
 20 21  1  0  0  0  0
 20 51  1  0  0  0  0
 21 22  2  0  0  0  0
 21 52  1  0  0  0  0
 22 23  1  0  0  0  0
 22 53  1  0  0  0  0
 23 24  1  0  0  0  0
 24 25  1  0  0  0  0
 24 28  1  0  0  0  0
 24 29  1  0  0  0  0
 25 26  1  0  0  0  0
 25 27  2  0  0  0  0
 26 54  1  0  0  0  0
 26 55  1  0  0  0  0
 28 29  1  0  0  0  0
 28 56  1  0  0  0  0
 28 57  1  0  0  0  0
 29 58  1  0  0  0  0
 29 59  1  0  0  0  0
 31 32  2  0  0  0  0
 31 60  1  0  0  0  0
 33 34  1  0  0  0  0
 33 61  1  0  0  0  0
 33 62  1  0  0  0  0
 34 63  1  0  0  0  0
 34 64  1  0  0  0  0
M  END
$$$$
