CHEMBL465016
 OpenBabel04072215383D

 61 64  0  0  0  0  0  0  0  0999 V2000
    1.0716    0.7538   -0.2531 C   0  0  0  0  0  0  0  0  0  0  0  0
    2.5012    0.7230   -0.2564 O   0  0  0  0  0  0  0  0  0  0  0  0
    3.0422    0.6372    0.9828 C   0  0  0  0  0  0  0  0  0  0  0  0
    2.4155    0.5917    2.0320 O   0  0  0  0  0  0  0  0  0  0  0  0
    4.5297    0.6505    0.9284 C   0  0  0  0  0  0  0  0  0  0  0  0
    5.2629    0.7422   -0.2761 C   0  0  0  0  0  0  0  0  0  0  0  0
    6.6694    0.8555   -0.2691 C   0  0  0  0  0  0  0  0  0  0  0  0
    7.3286    0.8994    0.9486 C   0  0  0  0  0  0  0  0  0  0  0  0
    6.5779    0.7665    2.1253 C   0  0  0  0  0  0  0  0  0  0  0  0
    5.2054    0.6275    2.1506 C   0  0  0  0  0  0  0  0  0  0  0  0
    7.3822    0.8841    3.2482 N   0  0  0  0  0  0  0  0  0  0  0  0
    8.6800    1.2012    2.9024 C   0  0  0  0  0  0  0  0  0  0  0  0
    9.5192    1.6352    3.6661 O   0  0  0  0  0  0  0  0  0  0  0  0
    8.7323    1.0678    1.3880 C   0  0  0  0  0  0  0  0  0  0  0  0
    9.9132    1.1296    0.7290 C   0  0  0  0  0  0  0  0  0  0  0  0
   11.1839    1.0592    1.2914 N   0  0  0  0  0  0  0  0  0  0  0  0
   11.6733    0.0537    2.1469 C   0  0  0  0  0  0  0  0  0  0  0  0
   10.9438   -1.1017    2.3987 C   0  0  0  0  0  0  0  0  0  0  0  0
   11.3229   -2.0009    3.4031 C   0  0  0  0  0  0  0  0  0  0  0  0
   12.4362   -1.7653    4.2007 C   0  0  0  0  0  0  0  0  0  0  0  0
   12.7476   -2.5613    5.3355 N   0  0  0  0  0  0  0  0  0  0  0  0
   11.9938   -3.6209    5.8226 C   0  0  0  0  0  0  0  0  0  0  0  0
   10.9979   -4.1146    5.3038 O   0  0  0  0  0  0  0  0  0  0  0  0
   12.5300   -4.2194    7.1293 C   0  0  0  0  0  0  0  0  0  0  0  0
   12.5998   -3.2227    8.2231 N   0  0  0  0  0  0  0  0  0  0  0  0
   11.2629   -2.6954    8.5409 C   0  0  0  0  0  0  0  0  0  0  0  0
   13.1429   -3.8745    9.4227 C   0  0  0  0  0  0  0  0  0  0  0  0
   13.2415   -0.6688    3.8868 C   0  0  0  0  0  0  0  0  0  0  0  0
   12.8631    0.2327    2.8666 C   0  0  0  0  0  0  0  0  0  0  0  0
    9.9441    1.3250   -0.7358 C   0  0  0  0  0  0  0  0  0  0  0  0
    9.9659    2.6340   -1.2423 C   0  0  0  0  0  0  0  0  0  0  0  0
   10.0373    2.8563   -2.6186 C   0  0  0  0  0  0  0  0  0  0  0  0
   10.0841    1.7750   -3.4969 C   0  0  0  0  0  0  0  0  0  0  0  0
   10.0666    0.4717   -3.0014 C   0  0  0  0  0  0  0  0  0  0  0  0
   10.0053    0.2462   -1.6220 C   0  0  0  0  0  0  0  0  0  0  0  0
    0.7298    0.6526   -1.2875 H   0  0  0  0  0  0  0  0  0  0  0  0
    0.7160    1.7116    0.1389 H   0  0  0  0  0  0  0  0  0  0  0  0
    0.6598   -0.0775    0.3279 H   0  0  0  0  0  0  0  0  0  0  0  0
    4.7437    0.7502   -1.2332 H   0  0  0  0  0  0  0  0  0  0  0  0
    7.1996    0.9360   -1.2122 H   0  0  0  0  0  0  0  0  0  0  0  0
    4.6684    0.5503    3.0911 H   0  0  0  0  0  0  0  0  0  0  0  0
    7.0593    0.9363    4.2018 H   0  0  0  0  0  0  0  0  0  0  0  0
   11.8431    1.7677    0.9962 H   0  0  0  0  0  0  0  0  0  0  0  0
   10.0445   -1.3370    1.8449 H   0  0  0  0  0  0  0  0  0  0  0  0
   10.6699   -2.8533    3.5578 H   0  0  0  0  0  0  0  0  0  0  0  0
   13.4984   -2.2394    5.9328 H   0  0  0  0  0  0  0  0  0  0  0  0
   13.5267   -4.6209    6.9125 H   0  0  0  0  0  0  0  0  0  0  0  0
   11.8828   -5.0623    7.4035 H   0  0  0  0  0  0  0  0  0  0  0  0
   10.8247   -2.1707    7.6860 H   0  0  0  0  0  0  0  0  0  0  0  0
   11.3311   -1.9578    9.3490 H   0  0  0  0  0  0  0  0  0  0  0  0
   10.5674   -3.4828    8.8563 H   0  0  0  0  0  0  0  0  0  0  0  0
   14.1392   -4.2840    9.2246 H   0  0  0  0  0  0  0  0  0  0  0  0
   12.5023   -4.6924    9.7787 H   0  0  0  0  0  0  0  0  0  0  0  0
   13.2541   -3.1500   10.2370 H   0  0  0  0  0  0  0  0  0  0  0  0
   14.1593   -0.4695    4.4356 H   0  0  0  0  0  0  0  0  0  0  0  0
   13.4927    1.0971    2.6679 H   0  0  0  0  0  0  0  0  0  0  0  0
    9.9439    3.4822   -0.5643 H   0  0  0  0  0  0  0  0  0  0  0  0
   10.0650    3.8742   -3.0008 H   0  0  0  0  0  0  0  0  0  0  0  0
   10.1446    1.9519   -4.5684 H   0  0  0  0  0  0  0  0  0  0  0  0
   10.1151   -0.3683   -3.6901 H   0  0  0  0  0  0  0  0  0  0  0  0
   10.0077   -0.7760   -1.2462 H   0  0  0  0  0  0  0  0  0  0  0  0
  1  2  1  0  0  0  0
  1 36  1  0  0  0  0
  1 37  1  0  0  0  0
  1 38  1  0  0  0  0
  2  3  1  0  0  0  0
  3  4  2  0  0  0  0
  3  5  1  0  0  0  0
  5  6  1  0  0  0  0
  5 10  2  0  0  0  0
  6  7  2  0  0  0  0
  6 39  1  0  0  0  0
  7  8  1  0  0  0  0
  7 40  1  0  0  0  0
  8  9  2  0  0  0  0
  8 14  1  0  0  0  0
  9 10  1  0  0  0  0
  9 11  1  0  0  0  0
 10 41  1  0  0  0  0
 11 12  1  0  0  0  0
 11 42  1  0  0  0  0
 12 13  2  0  0  0  0
 12 14  1  0  0  0  0
 14 15  2  0  0  0  0
 15 16  1  0  0  0  0
 15 30  1  0  0  0  0
 16 17  1  0  0  0  0
 16 43  1  0  0  0  0
 17 18  1  0  0  0  0
 17 29  2  0  0  0  0
 18 19  2  0  0  0  0
 18 44  1  0  0  0  0
 19 20  1  0  0  0  0
 19 45  1  0  0  0  0
 20 21  1  0  0  0  0
 20 28  2  0  0  0  0
 21 22  1  0  0  0  0
 21 46  1  0  0  0  0
 22 23  2  0  0  0  0
 22 24  1  0  0  0  0
 24 25  1  0  0  0  0
 24 47  1  0  0  0  0
 24 48  1  0  0  0  0
 25 26  1  0  0  0  0
 25 27  1  0  0  0  0
 26 49  1  0  0  0  0
 26 50  1  0  0  0  0
 26 51  1  0  0  0  0
 27 52  1  0  0  0  0
 27 53  1  0  0  0  0
 27 54  1  0  0  0  0
 28 29  1  0  0  0  0
 28 55  1  0  0  0  0
 29 56  1  0  0  0  0
 30 31  1  0  0  0  0
 30 35  2  0  0  0  0
 31 32  2  0  0  0  0
 31 57  1  0  0  0  0
 32 33  1  0  0  0  0
 32 58  1  0  0  0  0
 33 34  2  0  0  0  0
 33 59  1  0  0  0  0
 34 35  1  0  0  0  0
 34 60  1  0  0  0  0
 35 61  1  0  0  0  0
M  END
$$$$
