CHEMBL213910
 OpenBabel04072215363D

 72 77  0  0  0  0  0  0  0  0999 V2000
    1.9948   -0.1983   -1.0027 C   0  0  0  0  0  0  0  0  0  0  0  0
    0.5641    0.0825   -1.0677 N   0  0  0  0  0  0  0  0  0  0  0  0
   -0.2225   -1.1098   -0.7141 C   0  0  0  0  0  0  0  0  0  0  0  0
   -1.7380   -0.8087   -0.7329 C   0  0  0  0  0  0  0  0  0  0  0  0
   -2.1538    0.2703    0.1896 N   0  0  0  0  0  0  0  0  0  0  0  0
   -2.0120   -0.0663    1.6191 C   0  0  0  0  0  0  0  0  0  0  0  0
   -2.7945   -1.2851    2.0696 C   0  0  0  0  0  0  0  0  0  0  0  0
   -2.2005   -2.5724    1.9765 C   0  0  0  0  0  0  0  0  0  0  0  0
   -2.8911   -3.7381    2.3072 C   0  0  0  0  0  0  0  0  0  0  0  0
   -4.1751   -3.6038    2.7934 C   0  0  0  0  0  0  0  0  0  0  0  0
   -4.7414   -2.3127    2.9590 C   0  0  0  0  0  0  0  0  0  0  0  0
   -4.0955   -1.1551    2.5800 C   0  0  0  0  0  0  0  0  0  0  0  0
   -6.0096   -2.5301    3.5643 C   0  0  0  0  0  0  0  0  0  0  0  0
   -6.9894   -1.7853    4.0530 N   0  0  0  0  0  0  0  0  0  0  0  0
   -7.8600   -2.7314    4.4953 N   0  0  0  0  0  0  0  0  0  0  0  0
   -7.4534   -4.0373    4.2772 C   0  0  0  0  0  0  0  0  0  0  0  0
   -8.2212   -5.1912    4.6206 C   0  0  0  0  0  0  0  0  0  0  0  0
   -7.8034   -6.5074    4.6615 C   0  0  0  0  0  0  0  0  0  0  0  0
   -8.8228   -7.3864    5.1353 C   0  0  0  0  0  0  0  0  0  0  0  0
   -9.9820   -6.7067    5.4476 C   0  0  0  0  0  0  0  0  0  0  0  0
  -11.1946   -7.2006    6.1608 C   0  0  0  0  0  0  0  0  0  0  0  0
  -12.3545   -7.4747    5.3124 N   0  0  0  0  0  0  0  0  0  0  0  0
  -12.1654   -8.1348    4.0251 C   0  0  0  0  0  0  0  0  0  0  0  0
  -13.5602   -7.5081    6.0256 C   0  0  0  0  0  0  0  0  0  0  0  0
  -13.6176   -7.0998    7.1845 O   0  0  0  0  0  0  0  0  0  0  0  0
  -14.6276   -8.0624    5.3566 N   0  0  0  0  0  0  0  0  0  0  0  0
  -15.9421   -8.1820    5.8525 C   0  0  0  0  0  0  0  0  0  0  0  0
  -16.4263   -7.4552    6.9440 C   0  0  0  0  0  0  0  0  0  0  0  0
  -17.7210   -7.6764    7.4205 C   0  0  0  0  0  0  0  0  0  0  0  0
  -18.5328   -8.6304    6.8165 C   0  0  0  0  0  0  0  0  0  0  0  0
  -18.0751   -9.3553    5.7125 C   0  0  0  0  0  0  0  0  0  0  0  0
  -18.9170  -10.4290    5.0730 C   0  0  0  0  0  0  0  0  0  0  0  0
  -20.0960  -10.6552    5.7157 F   0  0  0  0  0  0  0  0  0  0  0  0
  -19.2409  -10.1410    3.7825 F   0  0  0  0  0  0  0  0  0  0  0  0
  -18.2774  -11.6323    5.0350 F   0  0  0  0  0  0  0  0  0  0  0  0
  -16.7838   -9.1001    5.2159 C   0  0  0  0  0  0  0  0  0  0  0  0
   -9.8731   -5.0527    5.0373 S   0  0  0  0  0  0  0  0  0  0  0  0
   -6.2163   -3.9090    3.7099 C   0  0  0  0  0  0  0  0  0  0  0  0
   -5.1023   -4.7468    3.2052 C   0  0  0  0  0  0  0  0  0  0  0  0
   -1.3367    1.4645   -0.1409 C   0  0  0  0  0  0  0  0  0  0  0  0
    0.1963    1.2154   -0.1966 C   0  0  0  0  0  0  0  0  0  0  0  0
    2.2521   -1.0355   -1.6615 H   0  0  0  0  0  0  0  0  0  0  0  0
    2.3255   -0.4484    0.0120 H   0  0  0  0  0  0  0  0  0  0  0  0
    2.5695    0.6658   -1.3520 H   0  0  0  0  0  0  0  0  0  0  0  0
    0.0817   -1.4818    0.2712 H   0  0  0  0  0  0  0  0  0  0  0  0
   -0.0222   -1.9137   -1.4322 H   0  0  0  0  0  0  0  0  0  0  0  0
   -2.3117   -1.7248   -0.5599 H   0  0  0  0  0  0  0  0  0  0  0  0
   -2.0165   -0.5089   -1.7532 H   0  0  0  0  0  0  0  0  0  0  0  0
   -2.3680    0.7881    2.2116 H   0  0  0  0  0  0  0  0  0  0  0  0
   -0.9654   -0.2054    1.9134 H   0  0  0  0  0  0  0  0  0  0  0  0
   -1.1805   -2.6721    1.6175 H   0  0  0  0  0  0  0  0  0  0  0  0
   -2.4289   -4.7112    2.1899 H   0  0  0  0  0  0  0  0  0  0  0  0
   -4.5802   -0.1895    2.6813 H   0  0  0  0  0  0  0  0  0  0  0  0
   -8.7194   -2.4293    4.9407 H   0  0  0  0  0  0  0  0  0  0  0  0
   -6.7988   -6.8319    4.4190 H   0  0  0  0  0  0  0  0  0  0  0  0
   -8.6834   -8.4488    5.3021 H   0  0  0  0  0  0  0  0  0  0  0  0
  -11.4630   -6.4429    6.9094 H   0  0  0  0  0  0  0  0  0  0  0  0
  -10.9642   -8.1162    6.7192 H   0  0  0  0  0  0  0  0  0  0  0  0
  -11.2655   -7.7877    3.5157 H   0  0  0  0  0  0  0  0  0  0  0  0
  -13.0091   -7.9125    3.3646 H   0  0  0  0  0  0  0  0  0  0  0  0
  -12.1129   -9.2151    4.1874 H   0  0  0  0  0  0  0  0  0  0  0  0
  -14.4139   -8.6407    4.5625 H   0  0  0  0  0  0  0  0  0  0  0  0
  -15.8229   -6.7095    7.4453 H   0  0  0  0  0  0  0  0  0  0  0  0
  -18.0774   -7.1094    8.2779 H   0  0  0  0  0  0  0  0  0  0  0  0
  -19.5294   -8.8122    7.2285 H   0  0  0  0  0  0  0  0  0  0  0  0
  -16.4334   -9.6589    4.3496 H   0  0  0  0  0  0  0  0  0  0  0  0
   -5.4024   -5.3397    2.3372 H   0  0  0  0  0  0  0  0  0  0  0  0
   -4.6489   -5.3596    3.9872 H   0  0  0  0  0  0  0  0  0  0  0  0
   -1.5519    2.2771    0.5635 H   0  0  0  0  0  0  0  0  0  0  0  0
   -1.6627    1.8344   -1.1227 H   0  0  0  0  0  0  0  0  0  0  0  0
    0.5708    1.0528    0.8222 H   0  0  0  0  0  0  0  0  0  0  0  0
    0.6765    2.1269   -0.5722 H   0  0  0  0  0  0  0  0  0  0  0  0
  1  2  1  0  0  0  0
  1 42  1  0  0  0  0
  1 43  1  0  0  0  0
  1 44  1  0  0  0  0
  2  3  1  0  0  0  0
  2 41  1  0  0  0  0
  3  4  1  0  0  0  0
  3 45  1  0  0  0  0
  3 46  1  0  0  0  0
  4  5  1  0  0  0  0
  4 47  1  0  0  0  0
  4 48  1  0  0  0  0
  5  6  1  0  0  0  0
  5 40  1  0  0  0  0
  6  7  1  0  0  0  0
  6 49  1  0  0  0  0
  6 50  1  0  0  0  0
  7  8  1  0  0  0  0
  7 12  2  0  0  0  0
  8  9  2  0  0  0  0
  8 51  1  0  0  0  0
  9 10  1  0  0  0  0
  9 52  1  0  0  0  0
 10 11  2  0  0  0  0
 10 39  1  0  0  0  0
 11 12  1  0  0  0  0
 11 13  1  0  0  0  0
 12 53  1  0  0  0  0
 13 14  2  0  0  0  0
 13 38  1  0  0  0  0
 14 15  1  0  0  0  0
 15 16  1  0  0  0  0
 15 54  1  0  0  0  0
 16 17  1  0  0  0  0
 16 38  2  0  0  0  0
 17 18  2  0  0  0  0
 17 37  1  0  0  0  0
 18 19  1  0  0  0  0
 18 55  1  0  0  0  0
 19 20  2  0  0  0  0
 19 56  1  0  0  0  0
 20 21  1  0  0  0  0
 20 37  1  0  0  0  0
 21 22  1  0  0  0  0
 21 57  1  0  0  0  0
 21 58  1  0  0  0  0
 22 23  1  0  0  0  0
 22 24  1  0  0  0  0
 23 59  1  0  0  0  0
 23 60  1  0  0  0  0
 23 61  1  0  0  0  0
 24 25  2  0  0  0  0
 24 26  1  0  0  0  0
 26 27  1  0  0  0  0
 26 62  1  0  0  0  0
 27 28  1  0  0  0  0
 27 36  2  0  0  0  0
 28 29  2  0  0  0  0
 28 63  1  0  0  0  0
 29 30  1  0  0  0  0
 29 64  1  0  0  0  0
 30 31  2  0  0  0  0
 30 65  1  0  0  0  0
 31 32  1  0  0  0  0
 31 36  1  0  0  0  0
 32 33  1  0  0  0  0
 32 34  1  0  0  0  0
 32 35  1  0  0  0  0
 36 66  1  0  0  0  0
 38 39  1  0  0  0  0
 39 67  1  0  0  0  0
 39 68  1  0  0  0  0
 40 41  1  0  0  0  0
 40 69  1  0  0  0  0
 40 70  1  0  0  0  0
 41 71  1  0  0  0  0
 41 72  1  0  0  0  0
M  END
$$$$
