CHEMBL1271667
 OpenBabel04072215363D

 31 33  0  0  0  0  0  0  0  0999 V2000
    1.2016   -0.4436    0.7780 O   0  0  0  0  0  0  0  0  0  0  0  0
    2.3157   -0.0896    0.3985 C   0  0  0  0  0  0  0  0  0  0  0  0
    2.8620    1.1605    0.5863 N   0  0  0  0  0  0  0  0  0  0  0  0
    2.2741    2.2632    1.2581 C   0  0  0  0  0  0  0  0  0  0  0  0
    1.1594    2.1243    2.0959 C   0  0  0  0  0  0  0  0  0  0  0  0
    0.5930    3.2365    2.7093 C   0  0  0  0  0  0  0  0  0  0  0  0
    1.1331    4.4968    2.4822 C   0  0  0  0  0  0  0  0  0  0  0  0
    2.2568    4.6477    1.6542 C   0  0  0  0  0  0  0  0  0  0  0  0
    2.7976    5.9148    1.4021 C   0  0  0  0  0  0  0  0  0  0  0  0
    3.9043    6.0428    0.5737 C   0  0  0  0  0  0  0  0  0  0  0  0
    4.4418    4.8936    0.0298 C   0  0  0  0  0  0  0  0  0  0  0  0
    3.9478    3.6534    0.2444 N   0  0  0  0  0  0  0  0  0  0  0  0
    2.8577    3.5244    1.0427 C   0  0  0  0  0  0  0  0  0  0  0  0
    3.1198   -1.0794   -0.3678 C   0  0  0  0  0  0  0  0  0  0  0  0
    2.5049   -2.2789   -0.7550 C   0  0  0  0  0  0  0  0  0  0  0  0
    3.2356   -3.2338   -1.4537 C   0  0  0  0  0  0  0  0  0  0  0  0
    2.4347   -4.8544   -1.9863 Br  0  0  0  0  0  0  0  0  0  0  0  0
    4.5634   -2.9667   -1.7465 C   0  0  0  0  0  0  0  0  0  0  0  0
    5.1947   -1.8204   -1.3939 N   0  0  0  0  0  0  0  0  0  0  0  0
    4.4525   -0.9176   -0.7193 C   0  0  0  0  0  0  0  0  0  0  0  0
    5.1664    0.1933   -0.4121 O   0  0  0  0  0  0  0  0  0  0  0  0
    3.7416    1.3895    0.1177 H   0  0  0  0  0  0  0  0  0  0  0  0
    0.7226    1.1518    2.2997 H   0  0  0  0  0  0  0  0  0  0  0  0
   -0.2723    3.1152    3.3562 H   0  0  0  0  0  0  0  0  0  0  0  0
    0.6710    5.3605    2.9548 H   0  0  0  0  0  0  0  0  0  0  0  0
    2.3537    6.8050    1.8404 H   0  0  0  0  0  0  0  0  0  0  0  0
    4.3323    7.0152    0.3573 H   0  0  0  0  0  0  0  0  0  0  0  0
    5.3107    4.9383   -0.6210 H   0  0  0  0  0  0  0  0  0  0  0  0
    1.4604   -2.4605   -0.5095 H   0  0  0  0  0  0  0  0  0  0  0  0
    5.1783   -3.6815   -2.2869 H   0  0  0  0  0  0  0  0  0  0  0  0
    6.0373   -0.0533   -0.7771 H   0  0  0  0  0  0  0  0  0  0  0  0
  1  2  2  0  0  0  0
  2  3  1  0  0  0  0
  2 14  1  0  0  0  0
  3  4  1  0  0  0  0
  3 22  1  0  0  0  0
  4  5  1  0  0  0  0
  4 13  2  0  0  0  0
  5  6  2  0  0  0  0
  5 23  1  0  0  0  0
  6  7  1  0  0  0  0
  6 24  1  0  0  0  0
  7  8  2  0  0  0  0
  7 25  1  0  0  0  0
  8  9  1  0  0  0  0
  8 13  1  0  0  0  0
  9 10  2  0  0  0  0
  9 26  1  0  0  0  0
 10 11  1  0  0  0  0
 10 27  1  0  0  0  0
 11 12  2  0  0  0  0
 11 28  1  0  0  0  0
 12 13  1  0  0  0  0
 14 15  1  0  0  0  0
 14 20  2  0  0  0  0
 15 16  2  0  0  0  0
 15 29  1  0  0  0  0
 16 17  1  0  0  0  0
 16 18  1  0  0  0  0
 18 19  2  0  0  0  0
 18 30  1  0  0  0  0
 19 20  1  0  0  0  0
 20 21  1  0  0  0  0
 21 31  1  0  0  0  0
M  END
$$$$
