CHEMBL1242024
 OpenBabel04072215363D

 38 40  0  0  0  0  0  0  0  0999 V2000
    2.4388    1.0220    1.2390 C   0  0  0  0  0  0  0  0  0  0  0  0
    1.2521    0.2948    0.6556 C   0  0  0  0  0  0  0  0  0  0  0  0
    0.0312    0.9936    0.5719 C   0  0  0  0  0  0  0  0  0  0  0  0
   -1.0976    0.3790    0.0400 C   0  0  0  0  0  0  0  0  0  0  0  0
   -2.2798    1.0442   -0.0888 O   0  0  0  0  0  0  0  0  0  0  0  0
   -1.0541   -0.9418   -0.3685 C   0  0  0  0  0  0  0  0  0  0  0  0
    0.1372   -1.6557   -0.2530 C   0  0  0  0  0  0  0  0  0  0  0  0
    1.3214   -1.0429    0.1971 C   0  0  0  0  0  0  0  0  0  0  0  0
    2.5812   -1.8097    0.1390 C   0  0  0  0  0  0  0  0  0  0  0  0
    3.4880   -1.7212    1.1299 N   0  0  0  0  0  0  0  0  0  0  0  0
    4.5034   -2.5200    0.7398 N   0  0  0  0  0  0  0  0  0  0  0  0
    5.7081   -2.6268    1.5563 C   0  0  0  0  0  0  0  0  0  0  0  0
    6.4352   -1.2855    1.6625 C   0  0  0  0  0  0  0  0  0  0  0  0
    5.4038   -3.1983    2.9401 C   0  0  0  0  0  0  0  0  0  0  0  0
    4.2730   -3.1487   -0.4516 C   0  0  0  0  0  0  0  0  0  0  0  0
    5.0897   -4.0141   -1.0740 N   0  0  0  0  0  0  0  0  0  0  0  0
    4.5612   -4.4469   -2.2272 C   0  0  0  0  0  0  0  0  0  0  0  0
    3.3854   -4.0971   -2.7781 N   0  0  0  0  0  0  0  0  0  0  0  0
    2.6001   -3.2133   -2.1257 C   0  0  0  0  0  0  0  0  0  0  0  0
    1.4132   -2.8877   -2.7672 N   0  0  0  0  0  0  0  0  0  0  0  0
    3.0339   -2.7057   -0.8901 C   0  0  0  0  0  0  0  0  0  0  0  0
    2.1839    2.0544    1.5046 H   0  0  0  0  0  0  0  0  0  0  0  0
    3.2599    1.0674    0.5174 H   0  0  0  0  0  0  0  0  0  0  0  0
    2.7711    0.5385    2.1630 H   0  0  0  0  0  0  0  0  0  0  0  0
   -0.0237    2.0224    0.9170 H   0  0  0  0  0  0  0  0  0  0  0  0
   -2.1825    1.9289    0.2997 H   0  0  0  0  0  0  0  0  0  0  0  0
   -1.9405   -1.4193   -0.7756 H   0  0  0  0  0  0  0  0  0  0  0  0
    0.1321   -2.7054   -0.5437 H   0  0  0  0  0  0  0  0  0  0  0  0
    6.3786   -3.3289    1.0462 H   0  0  0  0  0  0  0  0  0  0  0  0
    5.8101   -0.5227    2.1394 H   0  0  0  0  0  0  0  0  0  0  0  0
    6.7164   -0.9137    0.6712 H   0  0  0  0  0  0  0  0  0  0  0  0
    7.3512   -1.3871    2.2550 H   0  0  0  0  0  0  0  0  0  0  0  0
    4.7416   -2.5395    3.5122 H   0  0  0  0  0  0  0  0  0  0  0  0
    6.3270   -3.3282    3.5153 H   0  0  0  0  0  0  0  0  0  0  0  0
    4.9162   -4.1759    2.8603 H   0  0  0  0  0  0  0  0  0  0  0  0
    5.1511   -5.1645   -2.7885 H   0  0  0  0  0  0  0  0  0  0  0  0
    1.4207   -3.2209   -3.7245 H   0  0  0  0  0  0  0  0  0  0  0  0
    1.1027   -1.9329   -2.6390 H   0  0  0  0  0  0  0  0  0  0  0  0
  1  2  1  0  0  0  0
  1 22  1  0  0  0  0
  1 23  1  0  0  0  0
  1 24  1  0  0  0  0
  2  3  1  0  0  0  0
  2  8  2  0  0  0  0
  3  4  2  0  0  0  0
  3 25  1  0  0  0  0
  4  5  1  0  0  0  0
  4  6  1  0  0  0  0
  5 26  1  0  0  0  0
  6  7  2  0  0  0  0
  6 27  1  0  0  0  0
  7  8  1  0  0  0  0
  7 28  1  0  0  0  0
  8  9  1  0  0  0  0
  9 10  2  0  0  0  0
  9 21  1  0  0  0  0
 10 11  1  0  0  0  0
 11 12  1  0  0  0  0
 11 15  1  0  0  0  0
 12 13  1  0  0  0  0
 12 14  1  0  0  0  0
 12 29  1  0  0  0  0
 13 30  1  0  0  0  0
 13 31  1  0  0  0  0
 13 32  1  0  0  0  0
 14 33  1  0  0  0  0
 14 34  1  0  0  0  0
 14 35  1  0  0  0  0
 15 16  1  0  0  0  0
 15 21  2  0  0  0  0
 16 17  2  0  0  0  0
 17 18  1  0  0  0  0
 17 36  1  0  0  0  0
 18 19  2  0  0  0  0
 19 20  1  0  0  0  0
 19 21  1  0  0  0  0
 20 37  1  0  0  0  0
 20 38  1  0  0  0  0
M  END
$$$$
