CHEMBL404669
 OpenBabel04072215373D

 45 48  0  0  0  0  0  0  0  0999 V2000
    1.2144    1.7143    2.4476 C   0  0  0  0  0  0  0  0  0  0  0  0
    0.0540    0.8839    1.9909 C   0  0  0  0  0  0  0  0  0  0  0  0
   -1.1051    1.4970    1.5001 C   0  0  0  0  0  0  0  0  0  0  0  0
   -2.2051    0.7466    1.0454 C   0  0  0  0  0  0  0  0  0  0  0  0
   -3.3839    1.3394    0.5342 N   0  0  0  0  0  0  0  0  0  0  0  0
   -3.5583    2.6877    0.2806 C   0  0  0  0  0  0  0  0  0  0  0  0
   -2.6796    3.5362    0.3777 O   0  0  0  0  0  0  0  0  0  0  0  0
   -4.8715    2.9943   -0.0649 N   0  0  0  0  0  0  0  0  0  0  0  0
   -5.2220    4.3406   -0.3355 C   0  0  0  0  0  0  0  0  0  0  0  0
   -4.3804    5.1696   -1.0773 C   0  0  0  0  0  0  0  0  0  0  0  0
   -4.6079    6.5459   -1.1305 C   0  0  0  0  0  0  0  0  0  0  0  0
   -5.7036    7.1318   -0.4748 C   0  0  0  0  0  0  0  0  0  0  0  0
   -5.8456    8.5991   -0.4292 C   0  0  0  0  0  0  0  0  0  0  0  0
   -5.5268    9.4070   -1.5341 C   0  0  0  0  0  0  0  0  0  0  0  0
   -5.5772   10.7603   -1.5916 N   0  0  0  0  0  0  0  0  0  0  0  0
   -5.9812   11.4338   -0.5003 C   0  0  0  0  0  0  0  0  0  0  0  0
   -6.3211   10.7200    0.6359 C   0  0  0  0  0  0  0  0  0  0  0  0
   -6.7612   11.1548    1.8529 N   0  0  0  0  0  0  0  0  0  0  0  0
   -6.9642   10.1792    2.7418 N   0  0  0  0  0  0  0  0  0  0  0  0
   -6.6336    9.0738    2.0809 C   0  0  0  0  0  0  0  0  0  0  0  0
   -6.6572    7.8830    2.7003 N   0  0  0  0  0  0  0  0  0  0  0  0
   -6.2538    9.3261    0.7216 C   0  0  0  0  0  0  0  0  0  0  0  0
   -6.6230    6.2552    0.1279 C   0  0  0  0  0  0  0  0  0  0  0  0
   -6.3824    4.8744    0.2147 C   0  0  0  0  0  0  0  0  0  0  0  0
   -2.1309   -0.6464    1.1069 C   0  0  0  0  0  0  0  0  0  0  0  0
   -0.9809   -1.2733    1.6077 C   0  0  0  0  0  0  0  0  0  0  0  0
    0.0937   -0.5047    2.0391 C   0  0  0  0  0  0  0  0  0  0  0  0
    1.1882   -1.1236    2.5120 F   0  0  0  0  0  0  0  0  0  0  0  0
    1.0135    2.7830    2.3239 H   0  0  0  0  0  0  0  0  0  0  0  0
    2.1063    1.4773    1.8591 H   0  0  0  0  0  0  0  0  0  0  0  0
    1.4160    1.5347    3.5086 H   0  0  0  0  0  0  0  0  0  0  0  0
   -1.1194    2.5818    1.4894 H   0  0  0  0  0  0  0  0  0  0  0  0
   -4.1019    0.7183    0.1923 H   0  0  0  0  0  0  0  0  0  0  0  0
   -5.5714    2.4323    0.3982 H   0  0  0  0  0  0  0  0  0  0  0  0
   -3.4996    4.7667   -1.5727 H   0  0  0  0  0  0  0  0  0  0  0  0
   -3.8735    7.1538   -1.6561 H   0  0  0  0  0  0  0  0  0  0  0  0
   -5.1970    8.9563   -2.4687 H   0  0  0  0  0  0  0  0  0  0  0  0
   -6.0152   12.5143   -0.5686 H   0  0  0  0  0  0  0  0  0  0  0  0
   -6.9343   12.1099    2.1444 H   0  0  0  0  0  0  0  0  0  0  0  0
   -6.7903    7.9323    3.7051 H   0  0  0  0  0  0  0  0  0  0  0  0
   -5.9663    7.1880    2.4379 H   0  0  0  0  0  0  0  0  0  0  0  0
   -7.5233    6.6490    0.5976 H   0  0  0  0  0  0  0  0  0  0  0  0
   -7.0681    4.2586    0.7896 H   0  0  0  0  0  0  0  0  0  0  0  0
   -2.9585   -1.2665    0.7723 H   0  0  0  0  0  0  0  0  0  0  0  0
   -0.9201   -2.3546    1.6630 H   0  0  0  0  0  0  0  0  0  0  0  0
  1  2  1  0  0  0  0
  1 29  1  0  0  0  0
  1 30  1  0  0  0  0
  1 31  1  0  0  0  0
  2  3  1  0  0  0  0
  2 27  2  0  0  0  0
  3  4  2  0  0  0  0
  3 32  1  0  0  0  0
  4  5  1  0  0  0  0
  4 25  1  0  0  0  0
  5  6  1  0  0  0  0
  5 33  1  0  0  0  0
  6  7  2  0  0  0  0
  6  8  1  0  0  0  0
  8  9  1  0  0  0  0
  8 34  1  0  0  0  0
  9 10  1  0  0  0  0
  9 24  2  0  0  0  0
 10 11  2  0  0  0  0
 10 35  1  0  0  0  0
 11 12  1  0  0  0  0
 11 36  1  0  0  0  0
 12 13  1  0  0  0  0
 12 23  2  0  0  0  0
 13 14  1  0  0  0  0
 13 22  2  0  0  0  0
 14 15  2  0  0  0  0
 14 37  1  0  0  0  0
 15 16  1  0  0  0  0
 16 17  2  0  0  0  0
 16 38  1  0  0  0  0
 17 18  1  0  0  0  0
 17 22  1  0  0  0  0
 18 19  1  0  0  0  0
 18 39  1  0  0  0  0
 19 20  2  0  0  0  0
 20 21  1  0  0  0  0
 20 22  1  0  0  0  0
 21 40  1  0  0  0  0
 21 41  1  0  0  0  0
 23 24  1  0  0  0  0
 23 42  1  0  0  0  0
 24 43  1  0  0  0  0
 25 26  2  0  0  0  0
 25 44  1  0  0  0  0
 26 27  1  0  0  0  0
 26 45  1  0  0  0  0
 27 28  1  0  0  0  0
M  END
$$$$
