CHEMBL3545365
 OpenBabel04072215363D

 58 62  0  0  0  0  0  0  0  0999 V2000
    5.6399   -2.6239    1.9248 O   0  0  0  0  0  0  0  0  0  0  0  0
    5.0156   -1.9973    1.0796 C   0  0  0  0  0  0  0  0  0  0  0  0
    3.6721   -2.0687    0.7919 N   0  0  0  0  0  0  0  0  0  0  0  0
    2.7658   -2.9120    1.4627 C   0  0  0  0  0  0  0  0  0  0  0  0
    1.4510   -2.9365    1.0207 C   0  0  0  0  0  0  0  0  0  0  0  0
    0.5743   -3.8715    1.5773 C   0  0  0  0  0  0  0  0  0  0  0  0
   -0.7284   -4.0694    1.1529 O   0  0  0  0  0  0  0  0  0  0  0  0
   -1.0226   -3.8972   -0.1789 C   0  0  0  0  0  0  0  0  0  0  0  0
   -0.1384   -4.2172   -1.2099 C   0  0  0  0  0  0  0  0  0  0  0  0
   -0.4423   -3.8707   -2.5193 C   0  0  0  0  0  0  0  0  0  0  0  0
    0.5499   -3.9983   -3.4070 F   0  0  0  0  0  0  0  0  0  0  0  0
   -1.6730   -3.2882   -2.8512 C   0  0  0  0  0  0  0  0  0  0  0  0
   -2.0375   -2.8638   -4.1450 N   0  0  0  0  0  0  0  0  0  0  0  0
   -1.4248   -3.1943   -5.3350 C   0  0  0  0  0  0  0  0  0  0  0  0
   -0.5398   -4.0121   -5.5322 O   0  0  0  0  0  0  0  0  0  0  0  0
   -1.9741   -2.4549   -6.5178 C   0  0  0  0  0  0  0  0  0  0  0  0
   -1.3850   -1.0966   -6.7078 C   0  0  0  0  0  0  0  0  0  0  0  0
   -1.8027   -0.1914   -5.9944 O   0  0  0  0  0  0  0  0  0  0  0  0
   -0.4237   -0.9664   -7.6971 N   0  0  0  0  0  0  0  0  0  0  0  0
    0.2113    0.2683   -7.9354 C   0  0  0  0  0  0  0  0  0  0  0  0
    0.6942    1.0449   -6.8703 C   0  0  0  0  0  0  0  0  0  0  0  0
    1.2193    2.3150   -7.1047 C   0  0  0  0  0  0  0  0  0  0  0  0
    1.2404    2.8093   -8.4014 C   0  0  0  0  0  0  0  0  0  0  0  0
    1.6771    4.0562   -8.6235 F   0  0  0  0  0  0  0  0  0  0  0  0
    0.8037    2.0325   -9.4718 C   0  0  0  0  0  0  0  0  0  0  0  0
    0.3193    0.7418   -9.2446 C   0  0  0  0  0  0  0  0  0  0  0  0
   -3.4729   -2.5922   -6.8143 C   0  0  0  0  0  0  0  0  0  0  0  0
   -2.4812   -3.2944   -7.6833 C   0  0  0  0  0  0  0  0  0  0  0  0
   -2.5999   -3.0633   -1.8242 C   0  0  0  0  0  0  0  0  0  0  0  0
   -2.2728   -3.3748   -0.5035 C   0  0  0  0  0  0  0  0  0  0  0  0
   -3.1778   -3.1397    0.4580 F   0  0  0  0  0  0  0  0  0  0  0  0
    0.9899   -4.6655    2.6362 C   0  0  0  0  0  0  0  0  0  0  0  0
    2.2981   -4.5338    3.0478 C   0  0  0  0  0  0  0  0  0  0  0  0
    3.1802   -3.6961    2.4717 N   0  0  0  0  0  0  0  0  0  0  0  0
    5.7580   -1.0341    0.1988 C   0  0  0  0  0  0  0  0  0  0  0  0
    6.9944   -1.4970   -0.5430 C   0  0  0  0  0  0  0  0  0  0  0  0
    7.1321   -0.5540    0.6191 C   0  0  0  0  0  0  0  0  0  0  0  0
    3.3174   -1.5314    0.0208 H   0  0  0  0  0  0  0  0  0  0  0  0
    1.1257   -2.2700    0.2292 H   0  0  0  0  0  0  0  0  0  0  0  0
    0.8249   -4.6781   -1.0120 H   0  0  0  0  0  0  0  0  0  0  0  0
   -2.8407   -2.2462   -4.2132 H   0  0  0  0  0  0  0  0  0  0  0  0
   -0.3992   -1.6681   -8.4260 H   0  0  0  0  0  0  0  0  0  0  0  0
    0.6696    0.6626   -5.8518 H   0  0  0  0  0  0  0  0  0  0  0  0
    1.5867    2.9232   -6.2853 H   0  0  0  0  0  0  0  0  0  0  0  0
    0.8169    2.4532  -10.4721 H   0  0  0  0  0  0  0  0  0  0  0  0
   -0.0450    0.1547  -10.0840 H   0  0  0  0  0  0  0  0  0  0  0  0
   -3.9936   -1.7353   -7.2308 H   0  0  0  0  0  0  0  0  0  0  0  0
   -4.0825   -3.1891   -6.1460 H   0  0  0  0  0  0  0  0  0  0  0  0
   -2.3610   -2.9394   -8.6994 H   0  0  0  0  0  0  0  0  0  0  0  0
   -2.4119   -4.3766   -7.5906 H   0  0  0  0  0  0  0  0  0  0  0  0
   -3.5808   -2.6436   -2.0243 H   0  0  0  0  0  0  0  0  0  0  0  0
    0.3223   -5.3673    3.1208 H   0  0  0  0  0  0  0  0  0  0  0  0
    2.6985   -5.1262    3.8672 H   0  0  0  0  0  0  0  0  0  0  0  0
    5.1431   -0.2993   -0.3114 H   0  0  0  0  0  0  0  0  0  0  0  0
    7.1843   -1.1013   -1.5325 H   0  0  0  0  0  0  0  0  0  0  0  0
    7.3238   -2.5200   -0.4002 H   0  0  0  0  0  0  0  0  0  0  0  0
    7.3967    0.4757    0.4195 H   0  0  0  0  0  0  0  0  0  0  0  0
    7.5508   -0.9483    1.5404 H   0  0  0  0  0  0  0  0  0  0  0  0
  1  2  2  0  0  0  0
  2  3  1  0  0  0  0
  2 35  1  0  0  0  0
  3  4  1  0  0  0  0
  3 38  1  0  0  0  0
  4  5  1  0  0  0  0
  4 34  2  0  0  0  0
  5  6  2  0  0  0  0
  5 39  1  0  0  0  0
  6  7  1  0  0  0  0
  6 32  1  0  0  0  0
  7  8  1  0  0  0  0
  8  9  1  0  0  0  0
  8 30  2  0  0  0  0
  9 10  2  0  0  0  0
  9 40  1  0  0  0  0
 10 11  1  0  0  0  0
 10 12  1  0  0  0  0
 12 13  1  0  0  0  0
 12 29  2  0  0  0  0
 13 14  1  0  0  0  0
 13 41  1  0  0  0  0
 14 15  2  0  0  0  0
 14 16  1  0  0  0  0
 16 17  1  0  0  0  0
 16 27  1  0  0  0  0
 16 28  1  0  0  0  0
 17 18  2  0  0  0  0
 17 19  1  0  0  0  0
 19 20  1  0  0  0  0
 19 42  1  0  0  0  0
 20 21  1  0  0  0  0
 20 26  2  0  0  0  0
 21 22  2  0  0  0  0
 21 43  1  0  0  0  0
 22 23  1  0  0  0  0
 22 44  1  0  0  0  0
 23 24  1  0  0  0  0
 23 25  2  0  0  0  0
 25 26  1  0  0  0  0
 25 45  1  0  0  0  0
 26 46  1  0  0  0  0
 27 28  1  0  0  0  0
 27 47  1  0  0  0  0
 27 48  1  0  0  0  0
 28 49  1  0  0  0  0
 28 50  1  0  0  0  0
 29 30  1  0  0  0  0
 29 51  1  0  0  0  0
 30 31  1  0  0  0  0
 32 33  2  0  0  0  0
 32 52  1  0  0  0  0
 33 34  1  0  0  0  0
 33 53  1  0  0  0  0
 35 36  1  0  0  0  0
 35 37  1  0  0  0  0
 35 54  1  0  0  0  0
 36 37  1  0  0  0  0
 36 55  1  0  0  0  0
 36 56  1  0  0  0  0
 37 57  1  0  0  0  0
 37 58  1  0  0  0  0
M  END
$$$$
