CHEMBL1241482
 OpenBabel04072215363D

 45 49  0  0  0  0  0  0  0  0999 V2000
    1.0125    0.2434    0.1278 N   0  0  0  0  0  0  0  0  0  0  0  0
    2.3924    0.0737    0.1023 C   0  0  0  0  0  0  0  0  0  0  0  0
    3.1204    1.2115    0.0757 N   0  0  0  0  0  0  0  0  0  0  0  0
    4.4631    1.1199    0.0667 C   0  0  0  0  0  0  0  0  0  0  0  0
    5.2123    0.0098    0.1080 N   0  0  0  0  0  0  0  0  0  0  0  0
    4.4461   -1.0955    0.1330 C   0  0  0  0  0  0  0  0  0  0  0  0
    3.0613   -1.1580    0.1037 C   0  0  0  0  0  0  0  0  0  0  0  0
    2.7654   -2.5601    0.0603 C   0  0  0  0  0  0  0  0  0  0  0  0
    1.4716   -3.2429   -0.0678 C   0  0  0  0  0  0  0  0  0  0  0  0
    0.4266   -2.6817   -0.8198 C   0  0  0  0  0  0  0  0  0  0  0  0
   -0.8088   -3.3255   -0.9255 C   0  0  0  0  0  0  0  0  0  0  0  0
   -0.9809   -4.5643   -0.3278 C   0  0  0  0  0  0  0  0  0  0  0  0
   -2.1540   -5.2033   -0.4426 F   0  0  0  0  0  0  0  0  0  0  0  0
    0.0595   -5.1619    0.3751 C   0  0  0  0  0  0  0  0  0  0  0  0
   -0.0884   -6.4037    0.9216 O   0  0  0  0  0  0  0  0  0  0  0  0
    1.2787   -4.5055    0.5198 C   0  0  0  0  0  0  0  0  0  0  0  0
    3.8917   -3.2959    0.1194 N   0  0  0  0  0  0  0  0  0  0  0  0
    4.8858   -2.3853    0.1919 N   0  0  0  0  0  0  0  0  0  0  0  0
    6.2732   -2.8267    0.2040 C   0  0  0  0  0  0  0  0  0  0  0  0
    6.8227   -2.9956    1.5741 C   0  0  0  0  0  0  0  0  0  0  0  0
    6.0589   -2.5660    2.6329 O   0  0  0  0  0  0  0  0  0  0  0  0
    6.8300   -2.8013    3.7244 C   0  0  0  0  0  0  0  0  0  0  0  0
    8.0063   -3.3206    3.4708 N   0  0  0  0  0  0  0  0  0  0  0  0
    8.0136   -3.4688    2.0977 C   0  0  0  0  0  0  0  0  0  0  0  0
    9.1620   -4.0033    1.3829 C   0  0  0  0  0  0  0  0  0  0  0  0
    9.0380   -4.7118    0.1815 C   0  0  0  0  0  0  0  0  0  0  0  0
   10.1672   -5.2096   -0.4755 C   0  0  0  0  0  0  0  0  0  0  0  0
   11.4330   -5.0248    0.0721 C   0  0  0  0  0  0  0  0  0  0  0  0
   11.5721   -4.3447    1.2789 C   0  0  0  0  0  0  0  0  0  0  0  0
   10.4438   -3.8368    1.9293 C   0  0  0  0  0  0  0  0  0  0  0  0
    0.7768    1.2076    0.3396 H   0  0  0  0  0  0  0  0  0  0  0  0
    0.5034   -0.4543    0.6560 H   0  0  0  0  0  0  0  0  0  0  0  0
    5.0021    2.0613    0.0181 H   0  0  0  0  0  0  0  0  0  0  0  0
    0.5652   -1.7446   -1.3539 H   0  0  0  0  0  0  0  0  0  0  0  0
   -1.6215   -2.8728   -1.4838 H   0  0  0  0  0  0  0  0  0  0  0  0
   -0.9687   -6.7281    0.6541 H   0  0  0  0  0  0  0  0  0  0  0  0
    2.0808   -4.9881    1.0730 H   0  0  0  0  0  0  0  0  0  0  0  0
    6.8634   -2.1004   -0.3630 H   0  0  0  0  0  0  0  0  0  0  0  0
    6.2906   -3.7723   -0.3446 H   0  0  0  0  0  0  0  0  0  0  0  0
    6.4078   -2.5367    4.6837 H   0  0  0  0  0  0  0  0  0  0  0  0
    8.0691   -4.9268   -0.2536 H   0  0  0  0  0  0  0  0  0  0  0  0
   10.0526   -5.7556   -1.4089 H   0  0  0  0  0  0  0  0  0  0  0  0
   12.3083   -5.4237   -0.4340 H   0  0  0  0  0  0  0  0  0  0  0  0
   12.5568   -4.2135    1.7201 H   0  0  0  0  0  0  0  0  0  0  0  0
   10.5699   -3.3126    2.8754 H   0  0  0  0  0  0  0  0  0  0  0  0
  1  2  1  0  0  0  0
  1 31  1  0  0  0  0
  1 32  1  0  0  0  0
  2  3  1  0  0  0  0
  2  7  2  0  0  0  0
  3  4  2  0  0  0  0
  4  5  1  0  0  0  0
  4 33  1  0  0  0  0
  5  6  2  0  0  0  0
  6  7  1  0  0  0  0
  6 18  1  0  0  0  0
  7  8  1  0  0  0  0
  8  9  1  0  0  0  0
  8 17  2  0  0  0  0
  9 10  1  0  0  0  0
  9 16  2  0  0  0  0
 10 11  2  0  0  0  0
 10 34  1  0  0  0  0
 11 12  1  0  0  0  0
 11 35  1  0  0  0  0
 12 13  1  0  0  0  0
 12 14  2  0  0  0  0
 14 15  1  0  0  0  0
 14 16  1  0  0  0  0
 15 36  1  0  0  0  0
 16 37  1  0  0  0  0
 17 18  1  0  0  0  0
 18 19  1  0  0  0  0
 19 20  1  0  0  0  0
 19 38  1  0  0  0  0
 19 39  1  0  0  0  0
 20 21  1  0  0  0  0
 20 24  2  0  0  0  0
 21 22  1  0  0  0  0
 22 23  2  0  0  0  0
 22 40  1  0  0  0  0
 23 24  1  0  0  0  0
 24 25  1  0  0  0  0
 25 26  1  0  0  0  0
 25 30  2  0  0  0  0
 26 27  2  0  0  0  0
 26 41  1  0  0  0  0
 27 28  1  0  0  0  0
 27 42  1  0  0  0  0
 28 29  2  0  0  0  0
 28 43  1  0  0  0  0
 29 30  1  0  0  0  0
 29 44  1  0  0  0  0
 30 45  1  0  0  0  0
M  END
$$$$
