CHEMBL202748
 OpenBabel04072215363D

 19 20  0  0  0  0  0  0  0  0999 V2000
    2.6957    2.9846    1.1563 N   0  0  0  0  0  0  0  0  0  0  0  0
    3.3323    2.0695    0.8306 C   0  0  0  0  0  0  0  0  0  0  0  0
    4.0731    0.9311    0.4235 C   0  0  0  0  0  0  0  0  0  0  0  0
    3.5536   -0.1552   -0.2379 C   0  0  0  0  0  0  0  0  0  0  0  0
    4.4485   -1.1642   -0.4980 N   0  0  0  0  0  0  0  0  0  0  0  0
    5.6416   -0.8742   -0.0236 C   0  0  0  0  0  0  0  0  0  0  0  0
    6.7186   -1.6924   -0.0243 N   0  0  0  0  0  0  0  0  0  0  0  0
    6.6634   -3.0916   -0.0640 C   0  0  0  0  0  0  0  0  0  0  0  0
    5.6381   -3.7946   -0.6705 C   0  0  0  0  0  0  0  0  0  0  0  0
    5.6468   -5.1616   -0.5336 C   0  0  0  0  0  0  0  0  0  0  0  0
    6.6149   -5.8304    0.1084 N   0  0  0  0  0  0  0  0  0  0  0  0
    7.5954   -5.0698    0.6115 C   0  0  0  0  0  0  0  0  0  0  0  0
    7.6728   -3.7293    0.5571 N   0  0  0  0  0  0  0  0  0  0  0  0
    5.7452    0.6971    0.6909 S   0  0  0  0  0  0  0  0  0  0  0  0
    2.5208   -0.2798   -0.5461 H   0  0  0  0  0  0  0  0  0  0  0  0
    7.5389   -1.4107    0.5015 H   0  0  0  0  0  0  0  0  0  0  0  0
    4.8405   -3.3154   -1.2188 H   0  0  0  0  0  0  0  0  0  0  0  0
    4.8434   -5.7648   -0.9451 H   0  0  0  0  0  0  0  0  0  0  0  0
    8.4018   -5.5886    1.1183 H   0  0  0  0  0  0  0  0  0  0  0  0
  1  2  3  0  0  0  0
  2  3  1  0  0  0  0
  3  4  2  0  0  0  0
  3 14  1  0  0  0  0
  4  5  1  0  0  0  0
  4 15  1  0  0  0  0
  5  6  2  0  0  0  0
  6  7  1  0  0  0  0
  6 14  1  0  0  0  0
  7  8  1  0  0  0  0
  7 16  1  0  0  0  0
  8  9  1  0  0  0  0
  8 13  2  0  0  0  0
  9 10  2  0  0  0  0
  9 17  1  0  0  0  0
 10 11  1  0  0  0  0
 10 18  1  0  0  0  0
 11 12  2  0  0  0  0
 12 13  1  0  0  0  0
 12 19  1  0  0  0  0
M  END
$$$$
