CHEMBL1988370
 OpenBabel04072215363D

 65 70  0  0  1  0  0  0  0  0999 V2000
    1.0714    0.3286   -0.0295 N   0  0  0  0  0  0  0  0  0  0  0  0
    2.4443    0.1253   -0.0697 C   0  0  0  0  0  0  0  0  0  0  0  0
    3.2092    1.2342   -0.0426 N   0  0  0  0  0  0  0  0  0  0  0  0
    4.5464    1.0943   -0.0862 C   0  0  0  0  0  0  0  0  0  0  0  0
    5.2599   -0.0398   -0.1389 N   0  0  0  0  0  0  0  0  0  0  0  0
    4.4681   -1.1267   -0.1657 C   0  0  0  0  0  0  0  0  0  0  0  0
    3.0702   -1.1341   -0.1467 C   0  0  0  0  0  0  0  0  0  0  0  0
    2.6635   -2.5077   -0.2241 C   0  0  0  0  0  0  0  0  0  0  0  0
    1.3572   -3.1509   -0.2440 C   0  0  0  0  0  0  0  0  0  0  0  0
    0.2587   -2.6033   -0.9075 C   0  0  0  0  0  0  0  0  0  0  0  0
   -0.9800   -3.2498   -0.8730 C   0  0  0  0  0  0  0  0  0  0  0  0
   -1.1167   -4.4697   -0.2087 C   0  0  0  0  0  0  0  0  0  0  0  0
   -0.0231   -5.0394    0.4373 C   0  0  0  0  0  0  0  0  0  0  0  0
   -0.2416   -6.2343    1.0640 O   0  0  0  0  0  0  0  0  0  0  0  0
    0.7597   -6.6170    2.0081 C   0  0  0  0  0  0  0  0  0  0  0  0
    0.1932   -7.6795    2.8951 C   0  0  0  0  0  0  0  0  0  0  0  0
    0.4763   -9.0347    2.6729 C   0  0  0  0  0  0  0  0  0  0  0  0
   -0.0563  -10.0082    3.5160 C   0  0  0  0  0  0  0  0  0  0  0  0
   -0.8827   -9.6353    4.5743 C   0  0  0  0  0  0  0  0  0  0  0  0
   -1.1820   -8.2899    4.7997 C   0  0  0  0  0  0  0  0  0  0  0  0
   -0.6451   -7.3166    3.9613 C   0  0  0  0  0  0  0  0  0  0  0  0
    1.2027   -4.3802    0.4101 C   0  0  0  0  0  0  0  0  0  0  0  0
    3.8195   -3.2674   -0.2759 C   0  0  0  0  0  0  0  0  0  0  0  0
    4.8967   -2.4296   -0.2341 N   0  0  0  0  0  0  0  0  0  0  0  0
    6.2788   -2.8461   -0.3301 C   0  0  3  0  0  0  0  0  0  0  0  0
    6.5206   -3.7502   -1.5755 C   0  0  0  0  0  0  0  0  0  0  0  0
    7.3432   -4.7162   -0.6973 C   0  0  3  0  0  0  0  0  0  0  0  0
    8.8651   -4.5653   -0.8257 C   0  0  0  0  0  0  0  0  0  0  0  0
    9.5963   -5.4640    0.0857 N   0  0  0  0  0  0  0  0  0  0  0  0
   11.0488   -5.2145    0.0237 C   0  0  0  0  0  0  0  0  0  0  0  0
   11.5733   -6.1270   -1.0690 C   0  0  0  0  0  0  0  0  0  0  0  0
   10.7117   -7.3645   -0.9386 C   0  0  0  0  0  0  0  0  0  0  0  0
    9.4394   -6.8926   -0.2452 C   0  0  0  0  0  0  0  0  0  0  0  0
    6.6414   -4.0927    0.5339 C   0  0  0  0  0  0  0  0  0  0  0  0
    0.8474    1.2842    0.2210 H   0  0  0  0  0  0  0  0  0  0  0  0
    0.5457   -0.3916    0.4486 H   0  0  0  0  0  0  0  0  0  0  0  0
    5.1177    2.0176   -0.0793 H   0  0  0  0  0  0  0  0  0  0  0  0
    0.3511   -1.6787   -1.4718 H   0  0  0  0  0  0  0  0  0  0  0  0
   -1.8374   -2.8044   -1.3710 H   0  0  0  0  0  0  0  0  0  0  0  0
   -2.0787   -4.9755   -0.1919 H   0  0  0  0  0  0  0  0  0  0  0  0
    1.0545   -5.7705    2.6452 H   0  0  0  0  0  0  0  0  0  0  0  0
    1.6524   -6.9883    1.4868 H   0  0  0  0  0  0  0  0  0  0  0  0
    1.1084   -9.3342    1.8417 H   0  0  0  0  0  0  0  0  0  0  0  0
    0.1604  -11.0566    3.3399 H   0  0  0  0  0  0  0  0  0  0  0  0
   -1.3049  -10.3962    5.2271 H   0  0  0  0  0  0  0  0  0  0  0  0
   -1.8301   -8.0030    5.6162 H   0  0  0  0  0  0  0  0  0  0  0  0
   -0.8802   -6.2698    4.1333 H   0  0  0  0  0  0  0  0  0  0  0  0
    2.0667   -4.8176    0.8983 H   0  0  0  0  0  0  0  0  0  0  0  0
    3.9523   -4.3381   -0.3579 H   0  0  0  0  0  0  0  0  0  0  0  0
    7.0063   -2.0306   -0.2482 H   0  0  0  0  0  0  0  0  0  0  0  0
    7.0604   -3.2675   -2.3960 H   0  0  0  0  0  0  0  0  0  0  0  0
    5.6371   -4.2354   -2.0091 H   0  0  0  0  0  0  0  0  0  0  0  0
    7.0215   -5.7495   -0.8743 H   0  0  0  0  0  0  0  0  0  0  0  0
    9.1305   -3.5280   -0.5812 H   0  0  0  0  0  0  0  0  0  0  0  0
    9.1649   -4.7342   -1.8670 H   0  0  0  0  0  0  0  0  0  0  0  0
   11.4935   -5.4982    0.9855 H   0  0  0  0  0  0  0  0  0  0  0  0
   11.3106   -4.1655   -0.1530 H   0  0  0  0  0  0  0  0  0  0  0  0
   12.6370   -6.3555   -0.9513 H   0  0  0  0  0  0  0  0  0  0  0  0
   11.4316   -5.6734   -2.0569 H   0  0  0  0  0  0  0  0  0  0  0  0
   11.2160   -8.1200   -0.3252 H   0  0  0  0  0  0  0  0  0  0  0  0
   10.5046   -7.8082   -1.9179 H   0  0  0  0  0  0  0  0  0  0  0  0
    9.3044   -7.4521    0.6881 H   0  0  0  0  0  0  0  0  0  0  0  0
    8.5697   -7.1197   -0.8676 H   0  0  0  0  0  0  0  0  0  0  0  0
    7.2879   -3.8860    1.3928 H   0  0  0  0  0  0  0  0  0  0  0  0
    5.8081   -4.7066    0.8963 H   0  0  0  0  0  0  0  0  0  0  0  0
  1  2  1  0  0  0  0
  1 35  1  0  0  0  0
  1 36  1  0  0  0  0
  2  3  1  0  0  0  0
  2  7  2  0  0  0  0
  3  4  2  0  0  0  0
  4  5  1  0  0  0  0
  4 37  1  0  0  0  0
  5  6  2  0  0  0  0
  6  7  1  0  0  0  0
  6 24  1  0  0  0  0
  7  8  1  0  0  0  0
  8  9  1  0  0  0  0
  8 23  2  0  0  0  0
  9 10  1  0  0  0  0
  9 22  2  0  0  0  0
 10 11  2  0  0  0  0
 10 38  1  0  0  0  0
 11 12  1  0  0  0  0
 11 39  1  0  0  0  0
 12 13  2  0  0  0  0
 12 40  1  0  0  0  0
 13 14  1  0  0  0  0
 13 22  1  0  0  0  0
 14 15  1  0  0  0  0
 15 16  1  0  0  0  0
 15 41  1  0  0  0  0
 15 42  1  0  0  0  0
 16 17  1  0  0  0  0
 16 21  2  0  0  0  0
 17 18  2  0  0  0  0
 17 43  1  0  0  0  0
 18 19  1  0  0  0  0
 18 44  1  0  0  0  0
 19 20  2  0  0  0  0
 19 45  1  0  0  0  0
 20 21  1  0  0  0  0
 20 46  1  0  0  0  0
 21 47  1  0  0  0  0
 22 48  1  0  0  0  0
 23 24  1  0  0  0  0
 23 49  1  0  0  0  0
 24 25  1  0  0  0  0
 25 26  1  0  0  0  0
 25 34  1  0  0  0  0
 25 50  1  0  0  0  0
 26 27  1  0  0  0  0
 26 51  1  0  0  0  0
 26 52  1  0  0  0  0
 27 28  1  0  0  0  0
 27 34  1  0  0  0  0
 27 53  1  0  0  0  0
 28 29  1  0  0  0  0
 28 54  1  0  0  0  0
 28 55  1  0  0  0  0
 29 30  1  0  0  0  0
 29 33  1  0  0  0  0
 30 31  1  0  0  0  0
 30 56  1  0  0  0  0
 30 57  1  0  0  0  0
 31 32  1  0  0  0  0
 31 58  1  0  0  0  0
 31 59  1  0  0  0  0
 32 33  1  0  0  0  0
 32 60  1  0  0  0  0
 32 61  1  0  0  0  0
 33 62  1  0  0  0  0
 33 63  1  0  0  0  0
 34 64  1  0  0  0  0
 34 65  1  0  0  0  0
M  END
$$$$
