CHEMBL3759186
 OpenBabel04072215373D

 56 58  0  0  0  0  0  0  0  0999 V2000
    3.6367    1.2686   -0.1366 C   0  0  0  0  0  0  0  0  0  0  0  0
    2.6967    0.1932   -0.1194 O   0  0  0  0  0  0  0  0  0  0  0  0
    3.2030   -1.0382    0.1979 C   0  0  0  0  0  0  0  0  0  0  0  0
    4.2541   -1.1708    1.1127 C   0  0  0  0  0  0  0  0  0  0  0  0
    4.8432   -2.3903    1.3844 C   0  0  0  0  0  0  0  0  0  0  0  0
    5.9089   -2.3908    2.1845 N   0  0  0  0  0  0  0  0  0  0  0  0
    6.4975   -3.5688    2.3843 C   0  0  0  0  0  0  0  0  0  0  0  0
    6.1081   -4.7331    1.8657 N   0  0  0  0  0  0  0  0  0  0  0  0
    5.0160   -4.7324    1.0777 C   0  0  0  0  0  0  0  0  0  0  0  0
    4.5726   -5.9559    0.5062 N   0  0  0  0  0  0  0  0  0  0  0  0
    5.0551   -7.2548    0.7884 C   0  0  0  0  0  0  0  0  0  0  0  0
    5.6024   -7.6032    2.0285 C   0  0  0  0  0  0  0  0  0  0  0  0
    6.0819   -8.8913    2.2751 C   0  0  0  0  0  0  0  0  0  0  0  0
    5.9628   -9.8662    1.2933 C   0  0  0  0  0  0  0  0  0  0  0  0
    6.6441  -11.5996    1.6090 Br  0  0  0  0  0  0  0  0  0  0  0  0
    5.3460   -9.5708    0.0785 C   0  0  0  0  0  0  0  0  0  0  0  0
    4.8865   -8.2713   -0.1649 C   0  0  0  0  0  0  0  0  0  0  0  0
    4.3177   -3.5452    0.7933 C   0  0  0  0  0  0  0  0  0  0  0  0
    3.1716   -3.4380   -0.0347 C   0  0  0  0  0  0  0  0  0  0  0  0
    2.6368   -2.1909   -0.3644 C   0  0  0  0  0  0  0  0  0  0  0  0
    1.5747   -2.2505   -1.2362 O   0  0  0  0  0  0  0  0  0  0  0  0
    1.5825   -1.2240   -2.2228 C   0  0  0  0  0  0  0  0  0  0  0  0
    0.6076   -1.5461   -3.3563 C   0  0  0  0  0  0  0  0  0  0  0  0
    0.6478   -0.3924   -4.3579 C   0  0  0  0  0  0  0  0  0  0  0  0
   -0.3458   -0.5345   -5.5042 C   0  0  0  0  0  0  0  0  0  0  0  0
   -0.2375    0.6794   -6.4326 C   0  0  0  0  0  0  0  0  0  0  0  0
   -1.2182    0.5871   -7.5948 C   0  0  0  0  0  0  0  0  0  0  0  0
   -1.1431    1.7927   -8.5078 C   0  0  0  0  0  0  0  0  0  0  0  0
   -0.3659    2.7339   -8.3671 O   0  0  0  0  0  0  0  0  0  0  0  0
   -2.0531    1.7432   -9.5373 N   0  0  0  0  0  0  0  0  0  0  0  0
   -1.9677    2.7859  -10.4879 O   0  0  0  0  0  0  0  0  0  0  0  0
    3.3725    1.9347   -0.9632 H   0  0  0  0  0  0  0  0  0  0  0  0
    4.6710    0.9463   -0.3055 H   0  0  0  0  0  0  0  0  0  0  0  0
    3.5608    1.8296    0.7993 H   0  0  0  0  0  0  0  0  0  0  0  0
    4.6538   -0.2990    1.6249 H   0  0  0  0  0  0  0  0  0  0  0  0
    7.3763   -3.5817    3.0185 H   0  0  0  0  0  0  0  0  0  0  0  0
    4.4258   -5.8264   -0.4899 H   0  0  0  0  0  0  0  0  0  0  0  0
    5.6822   -6.8687    2.8243 H   0  0  0  0  0  0  0  0  0  0  0  0
    6.5441   -9.1102    3.2333 H   0  0  0  0  0  0  0  0  0  0  0  0
    5.2237  -10.3353   -0.6786 H   0  0  0  0  0  0  0  0  0  0  0  0
    4.3981   -8.0635   -1.1147 H   0  0  0  0  0  0  0  0  0  0  0  0
    2.7101   -4.3275   -0.4569 H   0  0  0  0  0  0  0  0  0  0  0  0
    2.5904   -1.1101   -2.6423 H   0  0  0  0  0  0  0  0  0  0  0  0
    1.2460   -0.2822   -1.7777 H   0  0  0  0  0  0  0  0  0  0  0  0
   -0.4027   -1.6783   -2.9505 H   0  0  0  0  0  0  0  0  0  0  0  0
    0.8763   -2.4954   -3.8344 H   0  0  0  0  0  0  0  0  0  0  0  0
    1.6625   -0.3104   -4.7673 H   0  0  0  0  0  0  0  0  0  0  0  0
    0.4429    0.5472   -3.8288 H   0  0  0  0  0  0  0  0  0  0  0  0
   -1.3651   -0.6082   -5.1071 H   0  0  0  0  0  0  0  0  0  0  0  0
   -0.1432   -1.4543   -6.0646 H   0  0  0  0  0  0  0  0  0  0  0  0
    0.7869    0.7596   -6.8186 H   0  0  0  0  0  0  0  0  0  0  0  0
   -0.4276    1.5978   -5.8620 H   0  0  0  0  0  0  0  0  0  0  0  0
   -2.2422    0.5125   -7.2122 H   0  0  0  0  0  0  0  0  0  0  0  0
   -1.0054   -0.3075   -8.1906 H   0  0  0  0  0  0  0  0  0  0  0  0
   -2.4974    0.8845   -9.8429 H   0  0  0  0  0  0  0  0  0  0  0  0
   -1.2577    3.3535  -10.1147 H   0  0  0  0  0  0  0  0  0  0  0  0
  1  2  1  0  0  0  0
  1 32  1  0  0  0  0
  1 33  1  0  0  0  0
  1 34  1  0  0  0  0
  2  3  1  0  0  0  0
  3  4  1  0  0  0  0
  3 20  2  0  0  0  0
  4  5  2  0  0  0  0
  4 35  1  0  0  0  0
  5  6  1  0  0  0  0
  5 18  1  0  0  0  0
  6  7  2  0  0  0  0
  7  8  1  0  0  0  0
  7 36  1  0  0  0  0
  8  9  2  0  0  0  0
  9 10  1  0  0  0  0
  9 18  1  0  0  0  0
 10 11  1  0  0  0  0
 10 37  1  0  0  0  0
 11 12  1  0  0  0  0
 11 17  2  0  0  0  0
 12 13  2  0  0  0  0
 12 38  1  0  0  0  0
 13 14  1  0  0  0  0
 13 39  1  0  0  0  0
 14 15  1  0  0  0  0
 14 16  2  0  0  0  0
 16 17  1  0  0  0  0
 16 40  1  0  0  0  0
 17 41  1  0  0  0  0
 18 19  2  0  0  0  0
 19 20  1  0  0  0  0
 19 42  1  0  0  0  0
 20 21  1  0  0  0  0
 21 22  1  0  0  0  0
 22 23  1  0  0  0  0
 22 43  1  0  0  0  0
 22 44  1  0  0  0  0
 23 24  1  0  0  0  0
 23 45  1  0  0  0  0
 23 46  1  0  0  0  0
 24 25  1  0  0  0  0
 24 47  1  0  0  0  0
 24 48  1  0  0  0  0
 25 26  1  0  0  0  0
 25 49  1  0  0  0  0
 25 50  1  0  0  0  0
 26 27  1  0  0  0  0
 26 51  1  0  0  0  0
 26 52  1  0  0  0  0
 27 28  1  0  0  0  0
 27 53  1  0  0  0  0
 27 54  1  0  0  0  0
 28 29  2  0  0  0  0
 28 30  1  0  0  0  0
 30 31  1  0  0  0  0
 30 55  1  0  0  0  0
 31 56  1  0  0  0  0
M  END
$$$$
