CHEMBL525203
 OpenBabel04072215383D

 64 67  0  0  0  0  0  0  0  0999 V2000
    1.1451    0.7173   -0.5278 C   0  0  0  0  0  0  0  0  0  0  0  0
    2.5748    0.6665   -0.5322 O   0  0  0  0  0  0  0  0  0  0  0  0
    3.1150    0.6924    0.7105 C   0  0  0  0  0  0  0  0  0  0  0  0
    2.4866    0.7292    1.7580 O   0  0  0  0  0  0  0  0  0  0  0  0
    4.6032    0.7187    0.6613 C   0  0  0  0  0  0  0  0  0  0  0  0
    5.3476    0.6924   -0.5390 C   0  0  0  0  0  0  0  0  0  0  0  0
    6.7562    0.8043   -0.5284 C   0  0  0  0  0  0  0  0  0  0  0  0
    7.4090    0.9610    0.6848 C   0  0  0  0  0  0  0  0  0  0  0  0
    6.6444    0.9545    1.8583 C   0  0  0  0  0  0  0  0  0  0  0  0
    5.2701    0.8248    1.8836 C   0  0  0  0  0  0  0  0  0  0  0  0
    7.4423    1.1533    2.9720 N   0  0  0  0  0  0  0  0  0  0  0  0
    8.7583    1.3726    2.6220 C   0  0  0  0  0  0  0  0  0  0  0  0
    9.6127    1.7576    3.3949 O   0  0  0  0  0  0  0  0  0  0  0  0
    8.8151    1.1439    1.1204 C   0  0  0  0  0  0  0  0  0  0  0  0
    9.9959    1.1710    0.4458 C   0  0  0  0  0  0  0  0  0  0  0  0
   11.2789    1.2212    0.9739 N   0  0  0  0  0  0  0  0  0  0  0  0
   11.8610    0.3613    1.9384 C   0  0  0  0  0  0  0  0  0  0  0  0
   11.2216   -0.7850    2.4216 C   0  0  0  0  0  0  0  0  0  0  0  0
   11.6954   -1.4613    3.5545 C   0  0  0  0  0  0  0  0  0  0  0  0
   12.8352   -1.0153    4.2351 C   0  0  0  0  0  0  0  0  0  0  0  0
   13.1545   -1.5098    5.6360 C   0  0  0  0  0  0  0  0  0  0  0  0
   14.0342   -2.6820    5.7759 N   0  0  0  0  0  0  0  0  0  0  0  0
   13.5289   -3.9061    5.1818 C   0  0  0  0  0  0  0  0  0  0  0  0
   14.9950   -2.6036    6.7778 C   0  0  0  0  0  0  0  0  0  0  0  0
   15.0741   -1.5736    7.4599 O   0  0  0  0  0  0  0  0  0  0  0  0
   15.8694   -3.6461    7.0440 N   0  0  0  0  0  0  0  0  0  0  0  0
   16.0893   -4.8993    6.3382 C   0  0  0  0  0  0  0  0  0  0  0  0
   16.7771   -3.4778    8.1791 C   0  0  0  0  0  0  0  0  0  0  0  0
   13.5522    0.0546    3.6818 C   0  0  0  0  0  0  0  0  0  0  0  0
   13.0612    0.7412    2.5580 C   0  0  0  0  0  0  0  0  0  0  0  0
    9.9894    1.2523   -1.0282 C   0  0  0  0  0  0  0  0  0  0  0  0
    9.9244    2.5054   -1.6580 C   0  0  0  0  0  0  0  0  0  0  0  0
    9.9812    2.5993   -3.0495 C   0  0  0  0  0  0  0  0  0  0  0  0
   10.1035    1.4442   -3.8202 C   0  0  0  0  0  0  0  0  0  0  0  0
   10.1742    0.1956   -3.2016 C   0  0  0  0  0  0  0  0  0  0  0  0
   10.1247    0.0989   -1.8091 C   0  0  0  0  0  0  0  0  0  0  0  0
    0.7930    0.5559   -1.5497 H   0  0  0  0  0  0  0  0  0  0  0  0
    0.8056    1.7038   -0.1941 H   0  0  0  0  0  0  0  0  0  0  0  0
    0.7239   -0.0682    0.1089 H   0  0  0  0  0  0  0  0  0  0  0  0
    4.8372    0.6021   -1.4966 H   0  0  0  0  0  0  0  0  0  0  0  0
    7.2923    0.7887   -1.4719 H   0  0  0  0  0  0  0  0  0  0  0  0
    4.7254    0.8400    2.8225 H   0  0  0  0  0  0  0  0  0  0  0  0
    7.1200    1.2787    3.9190 H   0  0  0  0  0  0  0  0  0  0  0  0
   11.9690    1.6777    0.3838 H   0  0  0  0  0  0  0  0  0  0  0  0
   10.3028   -1.1358    1.9629 H   0  0  0  0  0  0  0  0  0  0  0  0
   11.1041   -2.2841    3.9456 H   0  0  0  0  0  0  0  0  0  0  0  0
   12.2139   -1.7595    6.1467 H   0  0  0  0  0  0  0  0  0  0  0  0
   13.5429   -0.6478    6.1907 H   0  0  0  0  0  0  0  0  0  0  0  0
   12.4704   -3.8124    4.9294 H   0  0  0  0  0  0  0  0  0  0  0  0
   13.5991   -4.7392    5.8840 H   0  0  0  0  0  0  0  0  0  0  0  0
   14.0831   -4.1022    4.2601 H   0  0  0  0  0  0  0  0  0  0  0  0
   15.6540   -4.9391    5.3476 H   0  0  0  0  0  0  0  0  0  0  0  0
   15.6992   -5.7139    6.9590 H   0  0  0  0  0  0  0  0  0  0  0  0
   17.1662   -5.0489    6.2080 H   0  0  0  0  0  0  0  0  0  0  0  0
   16.6300   -2.5472    8.7321 H   0  0  0  0  0  0  0  0  0  0  0  0
   17.8070   -3.4911    7.8060 H   0  0  0  0  0  0  0  0  0  0  0  0
   16.6366   -4.3143    8.8713 H   0  0  0  0  0  0  0  0  0  0  0  0
   14.4441    0.4294    4.1813 H   0  0  0  0  0  0  0  0  0  0  0  0
   13.5870    1.6323    2.2235 H   0  0  0  0  0  0  0  0  0  0  0  0
    9.8450    3.4141   -1.0641 H   0  0  0  0  0  0  0  0  0  0  0  0
    9.9418    3.5735   -3.5308 H   0  0  0  0  0  0  0  0  0  0  0  0
   10.1552    1.5181   -4.9039 H   0  0  0  0  0  0  0  0  0  0  0  0
   10.2809   -0.7029   -3.8041 H   0  0  0  0  0  0  0  0  0  0  0  0
   10.2020   -0.8762   -1.3339 H   0  0  0  0  0  0  0  0  0  0  0  0
  1  2  1  0  0  0  0
  1 37  1  0  0  0  0
  1 38  1  0  0  0  0
  1 39  1  0  0  0  0
  2  3  1  0  0  0  0
  3  4  2  0  0  0  0
  3  5  1  0  0  0  0
  5  6  1  0  0  0  0
  5 10  2  0  0  0  0
  6  7  2  0  0  0  0
  6 40  1  0  0  0  0
  7  8  1  0  0  0  0
  7 41  1  0  0  0  0
  8  9  2  0  0  0  0
  8 14  1  0  0  0  0
  9 10  1  0  0  0  0
  9 11  1  0  0  0  0
 10 42  1  0  0  0  0
 11 12  1  0  0  0  0
 11 43  1  0  0  0  0
 12 13  2  0  0  0  0
 12 14  1  0  0  0  0
 14 15  2  0  0  0  0
 15 16  1  0  0  0  0
 15 31  1  0  0  0  0
 16 17  1  0  0  0  0
 16 44  1  0  0  0  0
 17 18  1  0  0  0  0
 17 30  2  0  0  0  0
 18 19  2  0  0  0  0
 18 45  1  0  0  0  0
 19 20  1  0  0  0  0
 19 46  1  0  0  0  0
 20 21  1  0  0  0  0
 20 29  2  0  0  0  0
 21 22  1  0  0  0  0
 21 47  1  0  0  0  0
 21 48  1  0  0  0  0
 22 23  1  0  0  0  0
 22 24  1  0  0  0  0
 23 49  1  0  0  0  0
 23 50  1  0  0  0  0
 23 51  1  0  0  0  0
 24 25  2  0  0  0  0
 24 26  1  0  0  0  0
 26 27  1  0  0  0  0
 26 28  1  0  0  0  0
 27 52  1  0  0  0  0
 27 53  1  0  0  0  0
 27 54  1  0  0  0  0
 28 55  1  0  0  0  0
 28 56  1  0  0  0  0
 28 57  1  0  0  0  0
 29 30  1  0  0  0  0
 29 58  1  0  0  0  0
 30 59  1  0  0  0  0
 31 32  1  0  0  0  0
 31 36  2  0  0  0  0
 32 33  2  0  0  0  0
 32 60  1  0  0  0  0
 33 34  1  0  0  0  0
 33 61  1  0  0  0  0
 34 35  2  0  0  0  0
 34 62  1  0  0  0  0
 35 36  1  0  0  0  0
 35 63  1  0  0  0  0
 36 64  1  0  0  0  0
M  END
$$$$
