CHEMBL495530
 OpenBabel04072215383D

 64 69  0  0  0  0  0  0  0  0999 V2000
    2.0033   -1.9036   -0.7434 C   0  0  0  0  0  0  0  0  0  0  0  0
    0.8343   -1.0277   -0.7326 N   0  0  0  0  0  0  0  0  0  0  0  0
   -0.3790   -1.7843   -1.1289 C   0  0  0  0  0  0  0  0  0  0  0  0
   -1.6727   -0.9376   -1.0508 C   0  0  0  0  0  0  0  0  0  0  0  0
   -1.7999   -0.4092    0.3132 N   0  0  0  0  0  0  0  0  0  0  0  0
   -3.0368   -0.1503    0.8803 C   0  0  0  0  0  0  0  0  0  0  0  0
   -3.1572   -0.1546    2.2843 C   0  0  0  0  0  0  0  0  0  0  0  0
   -4.3682    0.0555    2.9514 C   0  0  0  0  0  0  0  0  0  0  0  0
   -5.4775    0.2608    2.1428 C   0  0  0  0  0  0  0  0  0  0  0  0
   -6.7872    0.5189    2.4342 N   0  0  0  0  0  0  0  0  0  0  0  0
   -7.4897    0.6124    1.2569 C   0  0  0  0  0  0  0  0  0  0  0  0
   -8.8909    0.8740    1.2969 C   0  0  0  0  0  0  0  0  0  0  0  0
   -9.6826    0.4280    0.2924 C   0  0  0  0  0  0  0  0  0  0  0  0
   -9.2434   -0.3772   -0.7616 N   0  0  0  0  0  0  0  0  0  0  0  0
  -11.1135    0.8322    0.2836 C   0  0  0  0  0  0  0  0  0  0  0  0
  -11.9977    0.4291   -0.7262 C   0  0  0  0  0  0  0  0  0  0  0  0
  -13.3152    0.8910   -0.7774 C   0  0  0  0  0  0  0  0  0  0  0  0
  -14.2003    0.5474   -1.8213 N   0  0  0  0  0  0  0  0  0  0  0  0
  -13.8305    0.0084   -3.0450 C   0  0  0  0  0  0  0  0  0  0  0  0
  -12.6812   -0.1830   -3.4306 O   0  0  0  0  0  0  0  0  0  0  0  0
  -14.9357   -0.3602   -3.9714 C   0  0  0  0  0  0  0  0  0  0  0  0
  -16.1780    0.2843   -3.9739 C   0  0  0  0  0  0  0  0  0  0  0  0
  -17.1630   -0.1116   -4.8825 C   0  0  0  0  0  0  0  0  0  0  0  0
  -16.9099   -1.1377   -5.7939 C   0  0  0  0  0  0  0  0  0  0  0  0
  -15.6711   -1.7715   -5.8053 C   0  0  0  0  0  0  0  0  0  0  0  0
  -14.6870   -1.3812   -4.9006 C   0  0  0  0  0  0  0  0  0  0  0  0
  -13.7849    1.7199    0.2441 C   0  0  0  0  0  0  0  0  0  0  0  0
  -12.9326    2.1097    1.2795 C   0  0  0  0  0  0  0  0  0  0  0  0
  -11.6080    1.6695    1.2889 C   0  0  0  0  0  0  0  0  0  0  0  0
  -10.7700    2.0616    2.3315 N   0  0  0  0  0  0  0  0  0  0  0  0
   -9.4635    1.6789    2.4263 C   0  0  0  0  0  0  0  0  0  0  0  0
   -8.7992    1.9857    3.4165 O   0  0  0  0  0  0  0  0  0  0  0  0
   -6.6813    0.4278    0.2236 N   0  0  0  0  0  0  0  0  0  0  0  0
   -5.4296    0.2406    0.7574 C   0  0  0  0  0  0  0  0  0  0  0  0
   -4.1978    0.0460    0.1148 C   0  0  0  0  0  0  0  0  0  0  0  0
   -0.6449    0.4070    0.7254 C   0  0  0  0  0  0  0  0  0  0  0  0
    0.6379   -0.4486    0.6187 C   0  0  0  0  0  0  0  0  0  0  0  0
    2.1654   -2.3118   -1.7467 H   0  0  0  0  0  0  0  0  0  0  0  0
    1.9030   -2.7408   -0.0427 H   0  0  0  0  0  0  0  0  0  0  0  0
    2.9050   -1.3404   -0.4799 H   0  0  0  0  0  0  0  0  0  0  0  0
   -0.5022   -2.6604   -0.4764 H   0  0  0  0  0  0  0  0  0  0  0  0
   -0.2655   -2.1520   -2.1551 H   0  0  0  0  0  0  0  0  0  0  0  0
   -2.5161   -1.5886   -1.3092 H   0  0  0  0  0  0  0  0  0  0  0  0
   -1.6378   -0.1167   -1.7785 H   0  0  0  0  0  0  0  0  0  0  0  0
   -2.2808   -0.3720    2.8916 H   0  0  0  0  0  0  0  0  0  0  0  0
   -4.4321    0.0354    4.0332 H   0  0  0  0  0  0  0  0  0  0  0  0
   -7.1780    0.6735    3.3549 H   0  0  0  0  0  0  0  0  0  0  0  0
   -8.2160   -0.3940   -0.8080 H   0  0  0  0  0  0  0  0  0  0  0  0
   -9.6125   -0.0911   -1.6655 H   0  0  0  0  0  0  0  0  0  0  0  0
  -11.6510   -0.2792   -1.4699 H   0  0  0  0  0  0  0  0  0  0  0  0
  -15.1754    0.7506   -1.6589 H   0  0  0  0  0  0  0  0  0  0  0  0
  -16.3933    1.1140   -3.3090 H   0  0  0  0  0  0  0  0  0  0  0  0
  -18.1281    0.3896   -4.8905 H   0  0  0  0  0  0  0  0  0  0  0  0
  -17.6777   -1.4372   -6.5046 H   0  0  0  0  0  0  0  0  0  0  0  0
  -15.4617   -2.5592   -6.5252 H   0  0  0  0  0  0  0  0  0  0  0  0
  -13.7134   -1.8753   -4.9209 H   0  0  0  0  0  0  0  0  0  0  0  0
  -14.8032    2.0980    0.2343 H   0  0  0  0  0  0  0  0  0  0  0  0
  -13.3055    2.7680    2.0591 H   0  0  0  0  0  0  0  0  0  0  0  0
  -11.1222    2.6281    3.0911 H   0  0  0  0  0  0  0  0  0  0  0  0
   -4.1727    0.0713   -0.9675 H   0  0  0  0  0  0  0  0  0  0  0  0
   -0.7310    0.7783    1.7523 H   0  0  0  0  0  0  0  0  0  0  0  0
   -0.5653    1.2875    0.0741 H   0  0  0  0  0  0  0  0  0  0  0  0
    0.5810   -1.2502    1.3683 H   0  0  0  0  0  0  0  0  0  0  0  0
    1.4971    0.1819    0.8755 H   0  0  0  0  0  0  0  0  0  0  0  0
  1  2  1  0  0  0  0
  1 38  1  0  0  0  0
  1 39  1  0  0  0  0
  1 40  1  0  0  0  0
  2  3  1  0  0  0  0
  2 37  1  0  0  0  0
  3  4  1  0  0  0  0
  3 41  1  0  0  0  0
  3 42  1  0  0  0  0
  4  5  1  0  0  0  0
  4 43  1  0  0  0  0
  4 44  1  0  0  0  0
  5  6  1  0  0  0  0
  5 36  1  0  0  0  0
  6  7  1  0  0  0  0
  6 35  2  0  0  0  0
  7  8  2  0  0  0  0
  7 45  1  0  0  0  0
  8  9  1  0  0  0  0
  8 46  1  0  0  0  0
  9 10  1  0  0  0  0
  9 34  2  0  0  0  0
 10 11  1  0  0  0  0
 10 47  1  0  0  0  0
 11 12  1  0  0  0  0
 11 33  2  0  0  0  0
 12 13  2  0  0  0  0
 12 31  1  0  0  0  0
 13 14  1  0  0  0  0
 13 15  1  0  0  0  0
 14 48  1  0  0  0  0
 14 49  1  0  0  0  0
 15 16  1  0  0  0  0
 15 29  2  0  0  0  0
 16 17  2  0  0  0  0
 16 50  1  0  0  0  0
 17 18  1  0  0  0  0
 17 27  1  0  0  0  0
 18 19  1  0  0  0  0
 18 51  1  0  0  0  0
 19 20  2  0  0  0  0
 19 21  1  0  0  0  0
 21 22  1  0  0  0  0
 21 26  2  0  0  0  0
 22 23  2  0  0  0  0
 22 52  1  0  0  0  0
 23 24  1  0  0  0  0
 23 53  1  0  0  0  0
 24 25  2  0  0  0  0
 24 54  1  0  0  0  0
 25 26  1  0  0  0  0
 25 55  1  0  0  0  0
 26 56  1  0  0  0  0
 27 28  2  0  0  0  0
 27 57  1  0  0  0  0
 28 29  1  0  0  0  0
 28 58  1  0  0  0  0
 29 30  1  0  0  0  0
 30 31  1  0  0  0  0
 30 59  1  0  0  0  0
 31 32  2  0  0  0  0
 33 34  1  0  0  0  0
 34 35  1  0  0  0  0
 35 60  1  0  0  0  0
 36 37  1  0  0  0  0
 36 61  1  0  0  0  0
 36 62  1  0  0  0  0
 37 63  1  0  0  0  0
 37 64  1  0  0  0  0
M  END
$$$$
