CHEMBL327721
 OpenBabel04072215363D

 58 62  0  0  0  0  0  0  0  0999 V2000
   -5.5733   -1.6026    9.8189 C   0  0  0  0  0  0  0  0  0  0  0  0
   -4.9205   -0.4784    9.1531 N   0  0  0  0  0  0  0  0  0  0  0  0
   -3.6532   -0.8966    8.5297 C   0  0  0  0  0  0  0  0  0  0  0  0
   -2.9609    0.2868    7.8073 C   0  0  0  0  0  0  0  0  0  0  0  0
   -3.7692    0.9347    6.7509 N   0  0  0  0  0  0  0  0  0  0  0  0
   -3.9859    0.0602    5.5916 C   0  0  0  0  0  0  0  0  0  0  0  0
   -2.7816   -0.4407    4.7905 C   0  0  0  0  0  0  0  0  0  0  0  0
   -3.2272   -1.2842    3.5714 C   0  0  0  0  0  0  0  0  0  0  0  0
   -3.8784   -2.5548    3.8769 N   0  0  0  0  0  0  0  0  0  0  0  0
   -3.2749   -3.7784    3.7037 C   0  0  0  0  0  0  0  0  0  0  0  0
   -4.1407   -4.7662    4.1400 C   0  0  0  0  0  0  0  0  0  0  0  0
   -3.8743   -6.1948    4.0124 C   0  0  0  0  0  0  0  0  0  0  0  0
   -4.9072   -7.1063    3.8014 C   0  0  0  0  0  0  0  0  0  0  0  0
   -4.7463   -8.4380    3.6533 N   0  0  0  0  0  0  0  0  0  0  0  0
   -3.4739   -8.8930    3.6807 C   0  0  0  0  0  0  0  0  0  0  0  0
   -2.3530   -8.0837    3.8465 C   0  0  0  0  0  0  0  0  0  0  0  0
   -1.0081   -8.6538    3.8005 C   0  0  0  0  0  0  0  0  0  0  0  0
   -0.5741   -9.7832    3.0256 C   0  0  0  0  0  0  0  0  0  0  0  0
    0.7638  -10.0633    3.1954 C   0  0  0  0  0  0  0  0  0  0  0  0
    1.5093   -8.9835    4.2899 S   0  0  0  0  0  0  0  0  0  0  0  0
    0.0400   -8.1414    4.5371 C   0  0  0  0  0  0  0  0  0  0  0  0
   -2.5713   -6.7111    4.0200 C   0  0  0  0  0  0  0  0  0  0  0  0
   -5.2921   -4.1000    4.6662 C   0  0  0  0  0  0  0  0  0  0  0  0
   -6.4522   -4.5270    5.3556 C   0  0  0  0  0  0  0  0  0  0  0  0
   -7.4461   -3.6077    5.6968 C   0  0  0  0  0  0  0  0  0  0  0  0
   -7.3420   -2.2853    5.2913 C   0  0  0  0  0  0  0  0  0  0  0  0
   -6.2335   -1.8489    4.5632 C   0  0  0  0  0  0  0  0  0  0  0  0
   -5.1690   -2.7445    4.3443 C   0  0  0  0  0  0  0  0  0  0  0  0
   -5.0988    1.2707    7.3480 C   0  0  0  0  0  0  0  0  0  0  0  0
   -5.7997    0.1259    8.1370 C   0  0  0  0  0  0  0  0  0  0  0  0
   -4.9179   -2.0213   10.5906 H   0  0  0  0  0  0  0  0  0  0  0  0
   -5.8414   -2.4058    9.1230 H   0  0  0  0  0  0  0  0  0  0  0  0
   -6.4838   -1.2691   10.3292 H   0  0  0  0  0  0  0  0  0  0  0  0
   -3.8125   -1.7271    7.8317 H   0  0  0  0  0  0  0  0  0  0  0  0
   -2.9704   -1.2629    9.3075 H   0  0  0  0  0  0  0  0  0  0  0  0
   -1.9978   -0.0389    7.4055 H   0  0  0  0  0  0  0  0  0  0  0  0
   -2.7150    1.0523    8.5540 H   0  0  0  0  0  0  0  0  0  0  0  0
   -4.6236    0.6064    4.8884 H   0  0  0  0  0  0  0  0  0  0  0  0
   -4.5206   -0.8131    5.9474 H   0  0  0  0  0  0  0  0  0  0  0  0
   -2.1128   -1.0385    5.4199 H   0  0  0  0  0  0  0  0  0  0  0  0
   -2.2070    0.4195    4.4289 H   0  0  0  0  0  0  0  0  0  0  0  0
   -2.3344   -1.5196    2.9780 H   0  0  0  0  0  0  0  0  0  0  0  0
   -3.9040   -0.7208    2.9222 H   0  0  0  0  0  0  0  0  0  0  0  0
   -2.2925   -3.8448    3.2577 H   0  0  0  0  0  0  0  0  0  0  0  0
   -5.9405   -6.7764    3.7244 H   0  0  0  0  0  0  0  0  0  0  0  0
   -3.3867   -9.9686    3.5560 H   0  0  0  0  0  0  0  0  0  0  0  0
   -1.2066  -10.3576    2.3605 H   0  0  0  0  0  0  0  0  0  0  0  0
    1.3446  -10.8537    2.7315 H   0  0  0  0  0  0  0  0  0  0  0  0
    0.0345   -7.3043    5.2238 H   0  0  0  0  0  0  0  0  0  0  0  0
   -1.7270   -6.0387    4.1467 H   0  0  0  0  0  0  0  0  0  0  0  0
   -6.5703   -5.5647    5.6517 H   0  0  0  0  0  0  0  0  0  0  0  0
   -8.3109   -3.9344    6.2695 H   0  0  0  0  0  0  0  0  0  0  0  0
   -8.1182   -1.5749    5.5638 H   0  0  0  0  0  0  0  0  0  0  0  0
   -6.1763   -0.8109    4.2563 H   0  0  0  0  0  0  0  0  0  0  0  0
   -5.7827    1.6257    6.5626 H   0  0  0  0  0  0  0  0  0  0  0  0
   -4.9621    2.1239    8.0221 H   0  0  0  0  0  0  0  0  0  0  0  0
   -6.1553   -0.6395    7.4379 H   0  0  0  0  0  0  0  0  0  0  0  0
   -6.6906    0.5407    8.6246 H   0  0  0  0  0  0  0  0  0  0  0  0
  1  2  1  0  0  0  0
  1 31  1  0  0  0  0
  1 32  1  0  0  0  0
  1 33  1  0  0  0  0
  2  3  1  0  0  0  0
  2 30  1  0  0  0  0
  3  4  1  0  0  0  0
  3 34  1  0  0  0  0
  3 35  1  0  0  0  0
  4  5  1  0  0  0  0
  4 36  1  0  0  0  0
  4 37  1  0  0  0  0
  5  6  1  0  0  0  0
  5 29  1  0  0  0  0
  6  7  1  0  0  0  0
  6 38  1  0  0  0  0
  6 39  1  0  0  0  0
  7  8  1  0  0  0  0
  7 40  1  0  0  0  0
  7 41  1  0  0  0  0
  8  9  1  0  0  0  0
  8 42  1  0  0  0  0
  8 43  1  0  0  0  0
  9 10  1  0  0  0  0
  9 28  1  0  0  0  0
 10 11  2  0  0  0  0
 10 44  1  0  0  0  0
 11 12  1  0  0  0  0
 11 23  1  0  0  0  0
 12 13  1  0  0  0  0
 12 22  2  0  0  0  0
 13 14  2  0  0  0  0
 13 45  1  0  0  0  0
 14 15  1  0  0  0  0
 15 16  2  0  0  0  0
 15 46  1  0  0  0  0
 16 17  1  0  0  0  0
 16 22  1  0  0  0  0
 17 18  1  0  0  0  0
 17 21  2  0  0  0  0
 18 19  2  0  0  0  0
 18 47  1  0  0  0  0
 19 20  1  0  0  0  0
 19 48  1  0  0  0  0
 20 21  1  0  0  0  0
 21 49  1  0  0  0  0
 22 50  1  0  0  0  0
 23 24  1  0  0  0  0
 23 28  2  0  0  0  0
 24 25  2  0  0  0  0
 24 51  1  0  0  0  0
 25 26  1  0  0  0  0
 25 52  1  0  0  0  0
 26 27  2  0  0  0  0
 26 53  1  0  0  0  0
 27 28  1  0  0  0  0
 27 54  1  0  0  0  0
 29 30  1  0  0  0  0
 29 55  1  0  0  0  0
 29 56  1  0  0  0  0
 30 57  1  0  0  0  0
 30 58  1  0  0  0  0
M  END
$$$$
