CHEMBL4290758
 OpenBabel04072215383D

 37 40  0  0  0  0  0  0  0  0999 V2000
    2.9264    1.8321   -1.1787 C   0  0  0  0  0  0  0  0  0  0  0  0
    3.0879    0.3236   -0.1874 S   0  0  0  0  0  0  0  0  0  0  0  0
    3.4969   -0.8231   -1.4766 C   0  0  0  0  0  0  0  0  0  0  0  0
    3.0868   -2.0904   -1.3239 N   0  0  0  0  0  0  0  0  0  0  0  0
    3.3503   -2.9303   -2.3459 C   0  0  0  0  0  0  0  0  0  0  0  0
    4.0029   -2.5541   -3.5029 C   0  0  0  0  0  0  0  0  0  0  0  0
    4.3537   -1.2157   -3.5737 C   0  0  0  0  0  0  0  0  0  0  0  0
    4.1471   -0.3589   -2.5529 N   0  0  0  0  0  0  0  0  0  0  0  0
    4.8423   -0.6225   -4.7469 N   0  0  0  0  0  0  0  0  0  0  0  0
    4.1947   -0.8441   -5.9120 C   0  0  0  0  0  0  0  0  0  0  0  0
    3.7865    0.1213   -6.7370 N   0  0  0  0  0  0  0  0  0  0  0  0
    3.0686   -0.5378   -7.6663 N   0  0  0  0  0  0  0  0  0  0  0  0
    3.0101   -1.8912   -7.4731 C   0  0  0  0  0  0  0  0  0  0  0  0
    2.2656   -2.8010   -8.3661 C   0  0  0  0  0  0  0  0  0  0  0  0
    3.7608   -2.1161   -6.3481 C   0  0  0  0  0  0  0  0  0  0  0  0
    4.0948   -3.3782   -5.8599 N   0  0  0  0  0  0  0  0  0  0  0  0
    4.2735   -3.5479   -4.5797 C   0  0  0  0  0  0  0  0  0  0  0  0
    4.8208   -4.8968   -4.1809 C   0  0  0  0  0  0  0  0  0  0  0  0
    5.6554   -5.0504   -3.0637 C   0  0  0  0  0  0  0  0  0  0  0  0
    6.2135   -6.2966   -2.7659 C   0  0  0  0  0  0  0  0  0  0  0  0
    5.9572   -7.3919   -3.5900 C   0  0  0  0  0  0  0  0  0  0  0  0
    5.1374   -7.2397   -4.7064 C   0  0  0  0  0  0  0  0  0  0  0  0
    4.8389   -8.5895   -5.7319 Cl  0  0  0  0  0  0  0  0  0  0  0  0
    4.5693   -6.0034   -5.0062 C   0  0  0  0  0  0  0  0  0  0  0  0
    2.5698    2.6454   -0.5409 H   0  0  0  0  0  0  0  0  0  0  0  0
    2.2049    1.6910   -1.9894 H   0  0  0  0  0  0  0  0  0  0  0  0
    3.8923    2.1273   -1.5986 H   0  0  0  0  0  0  0  0  0  0  0  0
    2.9871   -3.9436   -2.1962 H   0  0  0  0  0  0  0  0  0  0  0  0
    4.9842    0.3637   -4.5505 H   0  0  0  0  0  0  0  0  0  0  0  0
    2.6368    0.0050   -8.4074 H   0  0  0  0  0  0  0  0  0  0  0  0
    1.6961   -2.2470   -9.1194 H   0  0  0  0  0  0  0  0  0  0  0  0
    1.5563   -3.4021   -7.7877 H   0  0  0  0  0  0  0  0  0  0  0  0
    2.9505   -3.4780   -8.8842 H   0  0  0  0  0  0  0  0  0  0  0  0
    5.9152   -4.2078   -2.4270 H   0  0  0  0  0  0  0  0  0  0  0  0
    6.8659   -6.4090   -1.9027 H   0  0  0  0  0  0  0  0  0  0  0  0
    6.4101   -8.3545   -3.3660 H   0  0  0  0  0  0  0  0  0  0  0  0
    3.9486   -5.8960   -5.8931 H   0  0  0  0  0  0  0  0  0  0  0  0
  1  2  1  0  0  0  0
  1 25  1  0  0  0  0
  1 26  1  0  0  0  0
  1 27  1  0  0  0  0
  2  3  1  0  0  0  0
  3  4  1  0  0  0  0
  3  8  2  0  0  0  0
  4  5  2  0  0  0  0
  5  6  1  0  0  0  0
  5 28  1  0  0  0  0
  6  7  2  0  0  0  0
  6 17  1  0  0  0  0
  7  8  1  0  0  0  0
  7  9  1  0  0  0  0
  9 10  1  0  0  0  0
  9 29  1  0  0  0  0
 10 11  2  0  0  0  0
 10 15  1  0  0  0  0
 11 12  1  0  0  0  0
 12 13  1  0  0  0  0
 12 30  1  0  0  0  0
 13 14  1  0  0  0  0
 13 15  2  0  0  0  0
 14 31  1  0  0  0  0
 14 32  1  0  0  0  0
 14 33  1  0  0  0  0
 15 16  1  0  0  0  0
 16 17  2  0  0  0  0
 17 18  1  0  0  0  0
 18 19  1  0  0  0  0
 18 24  2  0  0  0  0
 19 20  2  0  0  0  0
 19 34  1  0  0  0  0
 20 21  1  0  0  0  0
 20 35  1  0  0  0  0
 21 22  2  0  0  0  0
 21 36  1  0  0  0  0
 22 23  1  0  0  0  0
 22 24  1  0  0  0  0
 24 37  1  0  0  0  0
M  END
$$$$
