CHEMBL245949
 OpenBabel04072215363D

 60 63  0  0  0  0  0  0  0  0999 V2000
   13.8262    4.2332   -2.4141 C   0  0  0  0  0  0  0  0  0  0  0  0
   12.3977    4.3292   -2.5828 N   0  0  0  0  0  0  0  0  0  0  0  0
   11.6363    4.3130   -1.4248 C   0  0  0  0  0  0  0  0  0  0  0  0
   12.1201    4.7531   -0.2723 N   0  0  0  0  0  0  0  0  0  0  0  0
   11.2560    4.7433    0.7373 C   0  0  0  0  0  0  0  0  0  0  0  0
    9.9858    4.3499    0.6916 N   0  0  0  0  0  0  0  0  0  0  0  0
    9.5966    3.9202   -0.5054 C   0  0  0  0  0  0  0  0  0  0  0  0
    8.1759    3.6304   -0.7459 C   0  0  0  0  0  0  0  0  0  0  0  0
    7.6463    3.8312   -2.0425 C   0  0  0  0  0  0  0  0  0  0  0  0
    6.3116    3.5759   -2.3371 C   0  0  0  0  0  0  0  0  0  0  0  0
    5.4992    3.1603   -1.3080 C   0  0  0  0  0  0  0  0  0  0  0  0
    5.9357    2.9873   -0.0464 N   0  0  0  0  0  0  0  0  0  0  0  0
    7.2666    3.1626    0.2082 C   0  0  0  0  0  0  0  0  0  0  0  0
    7.7208    2.8098    1.4824 O   0  0  0  0  0  0  0  0  0  0  0  0
    6.9955    1.8530    2.1741 C   0  0  0  0  0  0  0  0  0  0  0  0
    6.4725    0.7105    1.5547 C   0  0  0  0  0  0  0  0  0  0  0  0
    5.6541   -0.1817    2.2475 C   0  0  0  0  0  0  0  0  0  0  0  0
    4.9736   -1.2581    1.6265 N   0  0  0  0  0  0  0  0  0  0  0  0
    4.9844   -1.5594    0.2725 C   0  0  0  0  0  0  0  0  0  0  0  0
    5.6482   -1.0094   -0.5997 O   0  0  0  0  0  0  0  0  0  0  0  0
    4.0555   -2.6341   -0.1687 C   0  0  0  0  0  0  0  0  0  0  0  0
    3.7841   -3.7657    0.6026 C   0  0  0  0  0  0  0  0  0  0  0  0
    2.9230   -4.7446    0.1032 C   0  0  0  0  0  0  0  0  0  0  0  0
    2.3323   -4.5971   -1.1578 C   0  0  0  0  0  0  0  0  0  0  0  0
    2.5872   -3.4647   -1.9432 C   0  0  0  0  0  0  0  0  0  0  0  0
    1.9807   -3.2516   -3.3202 C   0  0  0  0  0  0  0  0  0  0  0  0
    2.8442   -3.8964   -4.4064 C   0  0  0  0  0  0  0  0  0  0  0  0
    0.5283   -3.7218   -3.4349 C   0  0  0  0  0  0  0  0  0  0  0  0
    3.4689   -2.4976   -1.4371 C   0  0  0  0  0  0  0  0  0  0  0  0
    5.4602    0.0185    3.6191 C   0  0  0  0  0  0  0  0  0  0  0  0
    6.0640    1.1041    4.2862 C   0  0  0  0  0  0  0  0  0  0  0  0
    5.9113    1.2755    5.7771 C   0  0  0  0  0  0  0  0  0  0  0  0
    5.1427    0.3098    6.3577 F   0  0  0  0  0  0  0  0  0  0  0  0
    7.1067    1.2339    6.4289 F   0  0  0  0  0  0  0  0  0  0  0  0
    5.3378    2.4610    6.1203 F   0  0  0  0  0  0  0  0  0  0  0  0
    6.8203    2.0308    3.5456 C   0  0  0  0  0  0  0  0  0  0  0  0
   10.3934    3.8736   -1.5811 N   0  0  0  0  0  0  0  0  0  0  0  0
   14.3010    4.2068   -3.4006 H   0  0  0  0  0  0  0  0  0  0  0  0
   14.1087    3.3181   -1.8836 H   0  0  0  0  0  0  0  0  0  0  0  0
   14.2282    5.1033   -1.8845 H   0  0  0  0  0  0  0  0  0  0  0  0
   11.9781    3.6712   -3.2302 H   0  0  0  0  0  0  0  0  0  0  0  0
   11.6208    5.1097    1.6913 H   0  0  0  0  0  0  0  0  0  0  0  0
    8.2915    4.1880   -2.8450 H   0  0  0  0  0  0  0  0  0  0  0  0
    5.9256    3.7022   -3.3418 H   0  0  0  0  0  0  0  0  0  0  0  0
    4.4506    2.9328   -1.4738 H   0  0  0  0  0  0  0  0  0  0  0  0
    6.6755    0.5713    0.4999 H   0  0  0  0  0  0  0  0  0  0  0  0
    4.3288   -1.7717    2.2122 H   0  0  0  0  0  0  0  0  0  0  0  0
    4.2591   -3.9201    1.5663 H   0  0  0  0  0  0  0  0  0  0  0  0
    2.7197   -5.6378    0.6901 H   0  0  0  0  0  0  0  0  0  0  0  0
    1.6809   -5.3888   -1.5198 H   0  0  0  0  0  0  0  0  0  0  0  0
    1.9629   -2.1698   -3.5120 H   0  0  0  0  0  0  0  0  0  0  0  0
    2.9302   -4.9793   -4.2659 H   0  0  0  0  0  0  0  0  0  0  0  0
    3.8570   -3.4777   -4.4042 H   0  0  0  0  0  0  0  0  0  0  0  0
    2.4154   -3.7167   -5.3987 H   0  0  0  0  0  0  0  0  0  0  0  0
    0.4371   -4.8089   -3.3434 H   0  0  0  0  0  0  0  0  0  0  0  0
    0.1119   -3.4396   -4.4084 H   0  0  0  0  0  0  0  0  0  0  0  0
   -0.0938   -3.2609   -2.6599 H   0  0  0  0  0  0  0  0  0  0  0  0
    3.7077   -1.6198   -2.0373 H   0  0  0  0  0  0  0  0  0  0  0  0
    4.8376   -0.6708    4.1876 H   0  0  0  0  0  0  0  0  0  0  0  0
    7.2624    2.8965    4.0358 H   0  0  0  0  0  0  0  0  0  0  0  0
  1  2  1  0  0  0  0
  1 38  1  0  0  0  0
  1 39  1  0  0  0  0
  1 40  1  0  0  0  0
  2  3  1  0  0  0  0
  2 41  1  0  0  0  0
  3  4  1  0  0  0  0
  3 37  2  0  0  0  0
  4  5  2  0  0  0  0
  5  6  1  0  0  0  0
  5 42  1  0  0  0  0
  6  7  2  0  0  0  0
  7  8  1  0  0  0  0
  7 37  1  0  0  0  0
  8  9  1  0  0  0  0
  8 13  2  0  0  0  0
  9 10  2  0  0  0  0
  9 43  1  0  0  0  0
 10 11  1  0  0  0  0
 10 44  1  0  0  0  0
 11 12  2  0  0  0  0
 11 45  1  0  0  0  0
 12 13  1  0  0  0  0
 13 14  1  0  0  0  0
 14 15  1  0  0  0  0
 15 16  1  0  0  0  0
 15 36  2  0  0  0  0
 16 17  2  0  0  0  0
 16 46  1  0  0  0  0
 17 18  1  0  0  0  0
 17 30  1  0  0  0  0
 18 19  1  0  0  0  0
 18 47  1  0  0  0  0
 19 20  2  0  0  0  0
 19 21  1  0  0  0  0
 21 22  1  0  0  0  0
 21 29  2  0  0  0  0
 22 23  2  0  0  0  0
 22 48  1  0  0  0  0
 23 24  1  0  0  0  0
 23 49  1  0  0  0  0
 24 25  2  0  0  0  0
 24 50  1  0  0  0  0
 25 26  1  0  0  0  0
 25 29  1  0  0  0  0
 26 27  1  0  0  0  0
 26 28  1  0  0  0  0
 26 51  1  0  0  0  0
 27 52  1  0  0  0  0
 27 53  1  0  0  0  0
 27 54  1  0  0  0  0
 28 55  1  0  0  0  0
 28 56  1  0  0  0  0
 28 57  1  0  0  0  0
 29 58  1  0  0  0  0
 30 31  2  0  0  0  0
 30 59  1  0  0  0  0
 31 32  1  0  0  0  0
 31 36  1  0  0  0  0
 32 33  1  0  0  0  0
 32 34  1  0  0  0  0
 32 35  1  0  0  0  0
 36 60  1  0  0  0  0
M  END
$$$$
