CHEMBL393462
 OpenBabel04072215373D

 57 59  0  0  0  0  0  0  0  0999 V2000
   10.9174    0.9664  -11.4776 C   0  0  0  0  0  0  0  0  0  0  0  0
    9.4972    0.6875  -11.2385 N   0  0  0  0  0  0  0  0  0  0  0  0
    9.3018   -0.7521  -11.0609 C   0  0  0  0  0  0  0  0  0  0  0  0
    9.0377    1.4601  -10.0701 C   0  0  0  0  0  0  0  0  0  0  0  0
    7.5377    1.3200   -9.7509 C   0  0  0  0  0  0  0  0  0  0  0  0
    7.1436    2.1660   -8.5624 C   0  0  0  0  0  0  0  0  0  0  0  0
    7.2605    3.5585   -8.6203 C   0  0  0  0  0  0  0  0  0  0  0  0
    6.9287    4.3406   -7.5169 C   0  0  0  0  0  0  0  0  0  0  0  0
    6.4407    3.7554   -6.3436 C   0  0  0  0  0  0  0  0  0  0  0  0
    6.1278    4.5195   -5.2068 N   0  0  0  0  0  0  0  0  0  0  0  0
    5.6254    5.8203   -5.2147 C   0  0  0  0  0  0  0  0  0  0  0  0
    5.9444    6.5901   -4.1671 N   0  0  0  0  0  0  0  0  0  0  0  0
    5.3889    7.8179   -4.1437 C   0  0  0  0  0  0  0  0  0  0  0  0
    4.5366    8.3111   -5.1099 C   0  0  0  0  0  0  0  0  0  0  0  0
    3.8103    9.8465   -4.8394 Cl  0  0  0  0  0  0  0  0  0  0  0  0
    4.3036    7.4741   -6.1927 C   0  0  0  0  0  0  0  0  0  0  0  0
    3.4735    7.7977   -7.3802 C   0  0  0  0  0  0  0  0  0  0  0  0
    3.4184    9.0849   -7.9314 C   0  0  0  0  0  0  0  0  0  0  0  0
    2.5613    9.4043   -8.9916 C   0  0  0  0  0  0  0  0  0  0  0  0
    1.7461    8.4357   -9.5918 C   0  0  0  0  0  0  0  0  0  0  0  0
    0.7481    8.7744  -10.7069 C   0  0  0  0  0  0  0  0  0  0  0  0
    1.1145    8.0407  -12.0069 C   0  0  0  0  0  0  0  0  0  0  0  0
   -0.6824    8.4029  -10.2738 C   0  0  0  0  0  0  0  0  0  0  0  0
    0.7113   10.2094  -11.0350 N   0  0  0  0  0  0  0  0  0  0  0  0
    1.8743    7.1197   -9.1145 C   0  0  0  0  0  0  0  0  0  0  0  0
    2.7159    6.8104   -8.0347 C   0  0  0  0  0  0  0  0  0  0  0  0
    4.8408    6.2303   -6.2239 N   0  0  0  0  0  0  0  0  0  0  0  0
    6.3387    2.3628   -6.2808 C   0  0  0  0  0  0  0  0  0  0  0  0
    6.6704    1.5738   -7.3850 C   0  0  0  0  0  0  0  0  0  0  0  0
   11.2727    0.4341  -12.3670 H   0  0  0  0  0  0  0  0  0  0  0  0
   11.5431    0.6726  -10.6266 H   0  0  0  0  0  0  0  0  0  0  0  0
   11.0750    2.0337  -11.6687 H   0  0  0  0  0  0  0  0  0  0  0  0
    9.7219   -1.3099  -11.9065 H   0  0  0  0  0  0  0  0  0  0  0  0
    8.2368   -1.0043  -11.0376 H   0  0  0  0  0  0  0  0  0  0  0  0
    9.7699   -1.1220  -10.1404 H   0  0  0  0  0  0  0  0  0  0  0  0
    9.2449    2.5194  -10.2746 H   0  0  0  0  0  0  0  0  0  0  0  0
    9.6262    1.1978   -9.1793 H   0  0  0  0  0  0  0  0  0  0  0  0
    7.2901    0.2750   -9.5342 H   0  0  0  0  0  0  0  0  0  0  0  0
    6.9296    1.6164  -10.6145 H   0  0  0  0  0  0  0  0  0  0  0  0
    7.6157    4.0497   -9.5229 H   0  0  0  0  0  0  0  0  0  0  0  0
    7.0518    5.4180   -7.5874 H   0  0  0  0  0  0  0  0  0  0  0  0
    6.8311    4.4628   -4.4801 H   0  0  0  0  0  0  0  0  0  0  0  0
    5.6506    8.4132   -3.2727 H   0  0  0  0  0  0  0  0  0  0  0  0
    4.0439    9.8845   -7.5444 H   0  0  0  0  0  0  0  0  0  0  0  0
    2.5488   10.4397   -9.3191 H   0  0  0  0  0  0  0  0  0  0  0  0
    1.0575    6.9525  -11.8916 H   0  0  0  0  0  0  0  0  0  0  0  0
    2.1343    8.2839  -12.3293 H   0  0  0  0  0  0  0  0  0  0  0  0
    0.4337    8.3128  -12.8226 H   0  0  0  0  0  0  0  0  0  0  0  0
   -0.7958    7.3251  -10.1155 H   0  0  0  0  0  0  0  0  0  0  0  0
   -1.4183    8.6937  -11.0332 H   0  0  0  0  0  0  0  0  0  0  0  0
   -0.9585    8.9021   -9.3359 H   0  0  0  0  0  0  0  0  0  0  0  0
    1.6336   10.5117  -11.3405 H   0  0  0  0  0  0  0  0  0  0  0  0
    0.4717   10.7409  -10.1999 H   0  0  0  0  0  0  0  0  0  0  0  0
    1.3053    6.3096   -9.5676 H   0  0  0  0  0  0  0  0  0  0  0  0
    2.7715    5.7731   -7.6998 H   0  0  0  0  0  0  0  0  0  0  0  0
    5.9627    1.8873   -5.3778 H   0  0  0  0  0  0  0  0  0  0  0  0
    6.5518    0.4951   -7.3163 H   0  0  0  0  0  0  0  0  0  0  0  0
  1  2  1  0  0  0  0
  1 30  1  0  0  0  0
  1 31  1  0  0  0  0
  1 32  1  0  0  0  0
  2  3  1  0  0  0  0
  2  4  1  0  0  0  0
  3 33  1  0  0  0  0
  3 34  1  0  0  0  0
  3 35  1  0  0  0  0
  4  5  1  0  0  0  0
  4 36  1  0  0  0  0
  4 37  1  0  0  0  0
  5  6  1  0  0  0  0
  5 38  1  0  0  0  0
  5 39  1  0  0  0  0
  6  7  1  0  0  0  0
  6 29  2  0  0  0  0
  7  8  2  0  0  0  0
  7 40  1  0  0  0  0
  8  9  1  0  0  0  0
  8 41  1  0  0  0  0
  9 10  1  0  0  0  0
  9 28  2  0  0  0  0
 10 11  1  0  0  0  0
 10 42  1  0  0  0  0
 11 12  1  0  0  0  0
 11 27  2  0  0  0  0
 12 13  2  0  0  0  0
 13 14  1  0  0  0  0
 13 43  1  0  0  0  0
 14 15  1  0  0  0  0
 14 16  2  0  0  0  0
 16 17  1  0  0  0  0
 16 27  1  0  0  0  0
 17 18  1  0  0  0  0
 17 26  2  0  0  0  0
 18 19  2  0  0  0  0
 18 44  1  0  0  0  0
 19 20  1  0  0  0  0
 19 45  1  0  0  0  0
 20 21  1  0  0  0  0
 20 25  2  0  0  0  0
 21 22  1  0  0  0  0
 21 23  1  0  0  0  0
 21 24  1  0  0  0  0
 22 46  1  0  0  0  0
 22 47  1  0  0  0  0
 22 48  1  0  0  0  0
 23 49  1  0  0  0  0
 23 50  1  0  0  0  0
 23 51  1  0  0  0  0
 24 52  1  0  0  0  0
 24 53  1  0  0  0  0
 25 26  1  0  0  0  0
 25 54  1  0  0  0  0
 26 55  1  0  0  0  0
 28 29  1  0  0  0  0
 28 56  1  0  0  0  0
 29 57  1  0  0  0  0
M  END
$$$$
