CHEMBL565612
 OpenBabel04072215383D

 55 60  0  0  0  0  0  0  0  0999 V2000
    1.8209   -0.7992   -1.6956 C   0  0  0  0  0  0  0  0  0  0  0  0
    0.8157   -0.1082   -0.8890 N   0  0  0  0  0  0  0  0  0  0  0  0
   -0.3870    0.1921   -1.7040 C   0  0  0  0  0  0  0  0  0  0  0  0
   -1.5316    0.8452   -0.8872 C   0  0  0  0  0  0  0  0  0  0  0  0
   -1.8461   -0.0051    0.2579 N   0  0  0  0  0  0  0  0  0  0  0  0
   -3.0934    0.0599    0.8373 C   0  0  0  0  0  0  0  0  0  0  0  0
   -4.1000    0.6657    0.1931 N   0  0  0  0  0  0  0  0  0  0  0  0
   -5.3328    0.5839    0.7447 C   0  0  0  0  0  0  0  0  0  0  0  0
   -6.3817    1.2931    0.0250 C   0  0  0  0  0  0  0  0  0  0  0  0
   -6.7719    2.5668    0.1881 C   0  0  0  0  0  0  0  0  0  0  0  0
   -6.2496    3.5593    1.0505 C   0  0  0  0  0  0  0  0  0  0  0  0
   -5.2848    4.4697    0.6800 C   0  0  0  0  0  0  0  0  0  0  0  0
   -5.0201    5.2597    1.7673 N   0  0  0  0  0  0  0  0  0  0  0  0
   -5.7833    4.8643    2.8431 C   0  0  0  0  0  0  0  0  0  0  0  0
   -5.8252    5.3686    4.1488 C   0  0  0  0  0  0  0  0  0  0  0  0
   -6.7007    4.7604    5.0523 C   0  0  0  0  0  0  0  0  0  0  0  0
   -7.5160    3.7037    4.6583 C   0  0  0  0  0  0  0  0  0  0  0  0
   -7.4762    3.2247    3.3434 C   0  0  0  0  0  0  0  0  0  0  0  0
   -6.5819    3.8008    2.4166 C   0  0  0  0  0  0  0  0  0  0  0  0
   -7.9565    2.7732   -0.6748 C   0  0  0  0  0  0  0  0  0  0  0  0
   -8.6584    3.7648   -0.7266 O   0  0  0  0  0  0  0  0  0  0  0  0
   -8.1563    1.6237   -1.3555 N   0  0  0  0  0  0  0  0  0  0  0  0
   -7.3083    0.6647   -0.9295 C   0  0  0  0  0  0  0  0  0  0  0  0
   -7.3515   -0.5162   -1.2218 O   0  0  0  0  0  0  0  0  0  0  0  0
   -5.6055   -0.0898    1.9412 C   0  0  0  0  0  0  0  0  0  0  0  0
   -6.8753   -0.2333    2.5622 C   0  0  0  0  0  0  0  0  0  0  0  0
   -7.0004   -0.8833    3.7863 C   0  0  0  0  0  0  0  0  0  0  0  0
   -5.8716   -1.4188    4.3887 C   0  0  0  0  0  0  0  0  0  0  0  0
   -4.6313   -1.3055    3.7566 C   0  0  0  0  0  0  0  0  0  0  0  0
   -4.4828   -0.6454    2.5442 C   0  0  0  0  0  0  0  0  0  0  0  0
   -3.2652   -0.5735    2.0062 N   0  0  0  0  0  0  0  0  0  0  0  0
   -0.7000   -0.3161    1.1174 C   0  0  0  0  0  0  0  0  0  0  0  0
    0.4249   -0.9480    0.2674 C   0  0  0  0  0  0  0  0  0  0  0  0
    2.1391   -0.1698   -2.5334 H   0  0  0  0  0  0  0  0  0  0  0  0
    1.4515   -1.7492   -2.0989 H   0  0  0  0  0  0  0  0  0  0  0  0
    2.7157   -1.0059   -1.0976 H   0  0  0  0  0  0  0  0  0  0  0  0
   -0.7710   -0.7325   -2.1572 H   0  0  0  0  0  0  0  0  0  0  0  0
   -0.1138    0.8699   -2.5211 H   0  0  0  0  0  0  0  0  0  0  0  0
   -2.3883    0.9746   -1.5581 H   0  0  0  0  0  0  0  0  0  0  0  0
   -1.2224    1.8404   -0.5415 H   0  0  0  0  0  0  0  0  0  0  0  0
   -4.7646    4.6274   -0.2553 H   0  0  0  0  0  0  0  0  0  0  0  0
   -4.3550    6.0200    1.7870 H   0  0  0  0  0  0  0  0  0  0  0  0
   -5.1985    6.1989    4.4572 H   0  0  0  0  0  0  0  0  0  0  0  0
   -6.7478    5.1221    6.0770 H   0  0  0  0  0  0  0  0  0  0  0  0
   -8.1922    3.2465    5.3765 H   0  0  0  0  0  0  0  0  0  0  0  0
   -8.1330    2.4132    3.0509 H   0  0  0  0  0  0  0  0  0  0  0  0
   -8.9424    1.4582   -1.9597 H   0  0  0  0  0  0  0  0  0  0  0  0
   -7.7723    0.1660    2.0958 H   0  0  0  0  0  0  0  0  0  0  0  0
   -7.9717   -0.9696    4.2658 H   0  0  0  0  0  0  0  0  0  0  0  0
   -5.9472   -1.9279    5.3454 H   0  0  0  0  0  0  0  0  0  0  0  0
   -3.7519   -1.7412    4.2259 H   0  0  0  0  0  0  0  0  0  0  0  0
   -0.9441   -1.0306    1.9120 H   0  0  0  0  0  0  0  0  0  0  0  0
   -0.3360    0.6014    1.5985 H   0  0  0  0  0  0  0  0  0  0  0  0
    0.0850   -1.9338   -0.0798 H   0  0  0  0  0  0  0  0  0  0  0  0
    1.2959   -1.1115    0.9136 H   0  0  0  0  0  0  0  0  0  0  0  0
  1  2  1  0  0  0  0
  1 34  1  0  0  0  0
  1 35  1  0  0  0  0
  1 36  1  0  0  0  0
  2  3  1  0  0  0  0
  2 33  1  0  0  0  0
  3  4  1  0  0  0  0
  3 37  1  0  0  0  0
  3 38  1  0  0  0  0
  4  5  1  0  0  0  0
  4 39  1  0  0  0  0
  4 40  1  0  0  0  0
  5  6  1  0  0  0  0
  5 32  1  0  0  0  0
  6  7  1  0  0  0  0
  6 31  2  0  0  0  0
  7  8  2  0  0  0  0
  8  9  1  0  0  0  0
  8 25  1  0  0  0  0
  9 10  2  0  0  0  0
  9 23  1  0  0  0  0
 10 11  1  0  0  0  0
 10 20  1  0  0  0  0
 11 12  2  0  0  0  0
 11 19  1  0  0  0  0
 12 13  1  0  0  0  0
 12 41  1  0  0  0  0
 13 14  1  0  0  0  0
 13 42  1  0  0  0  0
 14 15  1  0  0  0  0
 14 19  2  0  0  0  0
 15 16  2  0  0  0  0
 15 43  1  0  0  0  0
 16 17  1  0  0  0  0
 16 44  1  0  0  0  0
 17 18  2  0  0  0  0
 17 45  1  0  0  0  0
 18 19  1  0  0  0  0
 18 46  1  0  0  0  0
 20 21  2  0  0  0  0
 20 22  1  0  0  0  0
 22 23  1  0  0  0  0
 22 47  1  0  0  0  0
 23 24  2  0  0  0  0
 25 26  1  0  0  0  0
 25 30  2  0  0  0  0
 26 27  2  0  0  0  0
 26 48  1  0  0  0  0
 27 28  1  0  0  0  0
 27 49  1  0  0  0  0
 28 29  2  0  0  0  0
 28 50  1  0  0  0  0
 29 30  1  0  0  0  0
 29 51  1  0  0  0  0
 30 31  1  0  0  0  0
 32 33  1  0  0  0  0
 32 52  1  0  0  0  0
 32 53  1  0  0  0  0
 33 54  1  0  0  0  0
 33 55  1  0  0  0  0
M  END
$$$$
