CHEMBL3959997
 OpenBabel04072215373D

 44 48  0  0  0  0  0  0  0  0999 V2000
   -3.4243    0.2682   -0.5377 C   0  0  0  0  0  0  0  0  0  0  0  0
   -1.9610    0.0865   -0.3949 C   0  0  0  0  0  0  0  0  0  0  0  0
   -1.1818   -1.0367   -0.5674 C   0  0  0  0  0  0  0  0  0  0  0  0
    0.1635   -0.6724   -0.3151 C   0  0  0  0  0  0  0  0  0  0  0  0
    1.3757   -1.3746   -0.3588 C   0  0  0  0  0  0  0  0  0  0  0  0
    2.5671   -0.7080   -0.0312 C   0  0  0  0  0  0  0  0  0  0  0  0
    3.7980   -1.3892   -0.1791 N   0  0  0  0  0  0  0  0  0  0  0  0
    4.8590   -1.1116    0.6253 N   0  0  0  0  0  0  0  0  0  0  0  0
    5.7834   -2.0010    0.2557 C   0  0  0  0  0  0  0  0  0  0  0  0
    5.3978   -2.7744   -0.8625 C   0  0  0  0  0  0  0  0  0  0  0  0
    6.1337   -3.7582   -1.6273 C   0  0  0  0  0  0  0  0  0  0  0  0
    5.9552   -3.9089   -2.8400 O   0  0  0  0  0  0  0  0  0  0  0  0
    7.0891   -4.5554   -0.8911 C   0  0  0  0  0  0  0  0  0  0  0  0
    7.1351   -4.9299    0.4367 C   0  0  0  0  0  0  0  0  0  0  0  0
    8.2344   -5.8084    0.6182 C   0  0  0  0  0  0  0  0  0  0  0  0
    8.7468   -6.5115    1.7221 C   0  0  0  0  0  0  0  0  0  0  0  0
    9.8652   -7.3332    1.5478 C   0  0  0  0  0  0  0  0  0  0  0  0
   10.4662   -7.4578    0.2967 C   0  0  0  0  0  0  0  0  0  0  0  0
    9.9735   -6.7667   -0.8150 C   0  0  0  0  0  0  0  0  0  0  0  0
    8.8547   -5.9492   -0.6210 C   0  0  0  0  0  0  0  0  0  0  0  0
    8.1516   -5.1760   -1.5128 N   0  0  0  0  0  0  0  0  0  0  0  0
    4.1152   -2.3476   -1.1424 C   0  0  0  0  0  0  0  0  0  0  0  0
    3.2906   -2.7124   -2.1648 N   0  0  0  0  0  0  0  0  0  0  0  0
    2.5538    0.6237    0.3875 C   0  0  0  0  0  0  0  0  0  0  0  0
    1.3554    1.3475    0.4014 C   0  0  0  0  0  0  0  0  0  0  0  0
    0.1797    0.6716    0.0420 C   0  0  0  0  0  0  0  0  0  0  0  0
   -1.1219    1.1160   -0.0377 N   0  0  0  0  0  0  0  0  0  0  0  0
   -3.9048   -0.6716   -0.8325 H   0  0  0  0  0  0  0  0  0  0  0  0
   -3.6469    1.0154   -1.3054 H   0  0  0  0  0  0  0  0  0  0  0  0
   -3.8681    0.5920    0.4079 H   0  0  0  0  0  0  0  0  0  0  0  0
   -1.5406   -2.0193   -0.8471 H   0  0  0  0  0  0  0  0  0  0  0  0
    1.3670   -2.4283   -0.6259 H   0  0  0  0  0  0  0  0  0  0  0  0
    6.7186   -2.0273    0.8018 H   0  0  0  0  0  0  0  0  0  0  0  0
    6.4259   -4.6495    1.2079 H   0  0  0  0  0  0  0  0  0  0  0  0
    8.2773   -6.4233    2.6971 H   0  0  0  0  0  0  0  0  0  0  0  0
   10.2631   -7.8811    2.3977 H   0  0  0  0  0  0  0  0  0  0  0  0
   11.3316   -8.1068    0.1820 H   0  0  0  0  0  0  0  0  0  0  0  0
   10.4411   -6.8721   -1.7881 H   0  0  0  0  0  0  0  0  0  0  0  0
    8.3604   -5.0889   -2.4987 H   0  0  0  0  0  0  0  0  0  0  0  0
    3.7041   -3.1643   -2.9821 H   0  0  0  0  0  0  0  0  0  0  0  0
    2.5119   -2.1108   -2.4301 H   0  0  0  0  0  0  0  0  0  0  0  0
    3.4841    1.1296    0.6455 H   0  0  0  0  0  0  0  0  0  0  0  0
    1.3477    2.3984    0.6702 H   0  0  0  0  0  0  0  0  0  0  0  0
   -1.4121    2.0650    0.1527 H   0  0  0  0  0  0  0  0  0  0  0  0
  1  2  1  0  0  0  0
  1 28  1  0  0  0  0
  1 29  1  0  0  0  0
  1 30  1  0  0  0  0
  2  3  2  0  0  0  0
  2 27  1  0  0  0  0
  3  4  1  0  0  0  0
  3 31  1  0  0  0  0
  4  5  1  0  0  0  0
  4 26  2  0  0  0  0
  5  6  2  0  0  0  0
  5 32  1  0  0  0  0
  6  7  1  0  0  0  0
  6 24  1  0  0  0  0
  7  8  1  0  0  0  0
  7 22  1  0  0  0  0
  8  9  2  0  0  0  0
  9 10  1  0  0  0  0
  9 33  1  0  0  0  0
 10 11  1  0  0  0  0
 10 22  2  0  0  0  0
 11 12  2  0  0  0  0
 11 13  1  0  0  0  0
 13 14  2  0  0  0  0
 13 21  1  0  0  0  0
 14 15  1  0  0  0  0
 14 34  1  0  0  0  0
 15 16  1  0  0  0  0
 15 20  2  0  0  0  0
 16 17  2  0  0  0  0
 16 35  1  0  0  0  0
 17 18  1  0  0  0  0
 17 36  1  0  0  0  0
 18 19  2  0  0  0  0
 18 37  1  0  0  0  0
 19 20  1  0  0  0  0
 19 38  1  0  0  0  0
 20 21  1  0  0  0  0
 21 39  1  0  0  0  0
 22 23  1  0  0  0  0
 23 40  1  0  0  0  0
 23 41  1  0  0  0  0
 24 25  2  0  0  0  0
 24 42  1  0  0  0  0
 25 26  1  0  0  0  0
 25 43  1  0  0  0  0
 26 27  1  0  0  0  0
 27 44  1  0  0  0  0
M  END
$$$$
