CHEMBL495984
 OpenBabel04072215383D

 57 61  0  0  1  0  0  0  0  0999 V2000
    7.5972   -3.1358    4.4473 C   0  0  0  0  0  0  0  0  0  0  0  0
    6.4135   -2.1802    4.4111 C   0  0  0  0  0  0  0  0  0  0  0  0
    6.2529   -1.4099    3.0845 C   0  0  3  0  0  0  0  0  0  0  0  0
    7.4282   -0.5267    2.6888 C   0  0  0  0  0  0  0  0  0  0  0  0
    7.6540    0.5942    3.6934 C   0  0  0  0  0  0  0  0  0  0  0  0
    6.4824    1.3065    4.2097 N   0  0  0  0  0  0  0  0  0  0  0  0
    6.7744    1.7730    5.5715 C   0  0  0  0  0  0  0  0  0  0  0  0
    5.1503    0.6775    4.1524 C   0  0  3  0  0  0  0  0  0  0  0  0
    3.9736    1.5455    3.8696 N   0  0  0  0  0  0  0  0  0  0  0  0
    3.5987    2.6154    4.7100 C   0  0  0  0  0  0  0  0  0  0  0  0
    2.6775    2.5289    5.7064 C   0  0  0  0  0  0  0  0  0  0  0  0
    2.0178    1.2859    5.9985 C   0  0  0  0  0  0  0  0  0  0  0  0
    2.1240    0.0797    5.4532 N   0  0  0  0  0  0  0  0  0  0  0  0
    1.0665   -0.6512    5.9490 C   0  0  0  0  0  0  0  0  0  0  0  0
    0.6259   -1.9417    5.6252 C   0  0  0  0  0  0  0  0  0  0  0  0
   -0.5805   -2.3954    6.1793 C   0  0  0  0  0  0  0  0  0  0  0  0
   -1.3099   -1.5988    7.0676 C   0  0  0  0  0  0  0  0  0  0  0  0
   -0.8489   -0.3384    7.4555 C   0  0  0  0  0  0  0  0  0  0  0  0
    0.3370    0.0944    6.8633 C   0  0  0  0  0  0  0  0  0  0  0  0
    1.0321    1.2647    6.9630 N   0  0  0  0  0  0  0  0  0  0  0  0
    2.2865    3.7583    6.4850 C   0  0  0  0  0  0  0  0  0  0  0  0
    1.4391    3.7379    7.3769 O   0  0  0  0  0  0  0  0  0  0  0  0
    2.8944    4.9336    6.1799 N   0  0  0  0  0  0  0  0  0  0  0  0
    3.8287    5.0728    5.1631 C   0  0  0  0  0  0  0  0  0  0  0  0
    4.3710    6.3397    4.9314 C   0  0  0  0  0  0  0  0  0  0  0  0
    5.2916    6.5220    3.9106 C   0  0  0  0  0  0  0  0  0  0  0  0
    5.6587    5.4323    3.1147 C   0  0  0  0  0  0  0  0  0  0  0  0
    5.1030    4.1694    3.3532 C   0  0  0  0  0  0  0  0  0  0  0  0
    4.1912    3.9536    4.3947 C   0  0  0  0  0  0  0  0  0  0  0  0
    5.0374   -0.4804    3.1171 C   0  0  0  0  0  0  0  0  0  0  0  0
    7.5325   -3.7691    5.3396 H   0  0  0  0  0  0  0  0  0  0  0  0
    8.5460   -2.5933    4.4998 H   0  0  0  0  0  0  0  0  0  0  0  0
    7.6135   -3.7903    3.5712 H   0  0  0  0  0  0  0  0  0  0  0  0
    6.5027   -1.4982    5.2629 H   0  0  0  0  0  0  0  0  0  0  0  0
    5.5002   -2.7643    4.5808 H   0  0  0  0  0  0  0  0  0  0  0  0
    6.1000   -2.1492    2.2871 H   0  0  0  0  0  0  0  0  0  0  0  0
    7.2343   -0.0907    1.6992 H   0  0  0  0  0  0  0  0  0  0  0  0
    8.3447   -1.1179    2.5809 H   0  0  0  0  0  0  0  0  0  0  0  0
    8.2977    1.3435    3.2127 H   0  0  0  0  0  0  0  0  0  0  0  0
    8.2528    0.1756    4.5122 H   0  0  0  0  0  0  0  0  0  0  0  0
    7.6871    2.3775    5.5847 H   0  0  0  0  0  0  0  0  0  0  0  0
    6.9154    0.9280    6.2588 H   0  0  0  0  0  0  0  0  0  0  0  0
    5.9803    2.3980    5.9847 H   0  0  0  0  0  0  0  0  0  0  0  0
    4.9563    0.2006    5.1236 H   0  0  0  0  0  0  0  0  0  0  0  0
    3.1773    0.8936    3.8688 H   0  0  0  0  0  0  0  0  0  0  0  0
    1.1835   -2.5508    4.9225 H   0  0  0  0  0  0  0  0  0  0  0  0
   -0.9658   -3.3708    5.8956 H   0  0  0  0  0  0  0  0  0  0  0  0
   -2.2591   -1.9603    7.4593 H   0  0  0  0  0  0  0  0  0  0  0  0
   -1.4087    0.2855    8.1443 H   0  0  0  0  0  0  0  0  0  0  0  0
    0.7763    2.0593    7.5388 H   0  0  0  0  0  0  0  0  0  0  0  0
    2.6007    5.7389    6.7194 H   0  0  0  0  0  0  0  0  0  0  0  0
    4.0824    7.1923    5.5471 H   0  0  0  0  0  0  0  0  0  0  0  0
    5.7242    7.4999    3.7284 H   0  0  0  0  0  0  0  0  0  0  0  0
    6.3724    5.5677    2.3104 H   0  0  0  0  0  0  0  0  0  0  0  0
    5.4061    3.3417    2.7146 H   0  0  0  0  0  0  0  0  0  0  0  0
    4.8859   -0.0601    2.1122 H   0  0  0  0  0  0  0  0  0  0  0  0
    4.1377   -1.0746    3.3287 H   0  0  0  0  0  0  0  0  0  0  0  0
  1  2  1  0  0  0  0
  1 31  1  0  0  0  0
  1 32  1  0  0  0  0
  1 33  1  0  0  0  0
  2  3  1  0  0  0  0
  2 34  1  0  0  0  0
  2 35  1  0  0  0  0
  3  4  1  0  0  0  0
  3 30  1  0  0  0  0
  3 36  1  0  0  0  0
  4  5  1  0  0  0  0
  4 37  1  0  0  0  0
  4 38  1  0  0  0  0
  5  6  1  0  0  0  0
  5 39  1  0  0  0  0
  5 40  1  0  0  0  0
  6  7  1  0  0  0  0
  6  8  1  0  0  0  0
  7 41  1  0  0  0  0
  7 42  1  0  0  0  0
  7 43  1  0  0  0  0
  8  9  1  0  0  0  0
  8 30  1  0  0  0  0
  8 44  1  0  0  0  0
  9 10  1  0  0  0  0
  9 45  1  0  0  0  0
 10 11  2  0  0  0  0
 10 29  1  0  0  0  0
 11 12  1  0  0  0  0
 11 21  1  0  0  0  0
 12 13  2  0  0  0  0
 12 20  1  0  0  0  0
 13 14  1  0  0  0  0
 14 15  1  0  0  0  0
 14 19  2  0  0  0  0
 15 16  2  0  0  0  0
 15 46  1  0  0  0  0
 16 17  1  0  0  0  0
 16 47  1  0  0  0  0
 17 18  2  0  0  0  0
 17 48  1  0  0  0  0
 18 19  1  0  0  0  0
 18 49  1  0  0  0  0
 19 20  1  0  0  0  0
 20 50  1  0  0  0  0
 21 22  2  0  0  0  0
 21 23  1  0  0  0  0
 23 24  1  0  0  0  0
 23 51  1  0  0  0  0
 24 25  1  0  0  0  0
 24 29  2  0  0  0  0
 25 26  2  0  0  0  0
 25 52  1  0  0  0  0
 26 27  1  0  0  0  0
 26 53  1  0  0  0  0
 27 28  2  0  0  0  0
 27 54  1  0  0  0  0
 28 29  1  0  0  0  0
 28 55  1  0  0  0  0
 30 56  1  0  0  0  0
 30 57  1  0  0  0  0
M  END
$$$$
