CHEMBL3671570
 OpenBabel04072215373D

 65 68  0  0  0  0  0  0  0  0999 V2000
    1.6417   -1.0678   -1.0023 C   0  0  0  0  0  0  0  0  0  0  0  0
    2.7135   -0.4344   -0.5092 C   0  0  0  0  0  0  0  0  0  0  0  0
    3.2355    0.7832   -1.1771 C   0  0  0  0  0  0  0  0  0  0  0  0
    2.5535    1.4395   -1.9523 O   0  0  0  0  0  0  0  0  0  0  0  0
    4.5600    1.0172   -0.8478 N   0  0  0  0  0  0  0  0  0  0  0  0
    5.2289    2.1328   -1.3893 C   0  0  0  0  0  0  0  0  0  0  0  0
    6.3332    1.8668   -2.2002 C   0  0  0  0  0  0  0  0  0  0  0  0
    6.9318    2.8923   -2.9678 C   0  0  0  0  0  0  0  0  0  0  0  0
    7.9910    2.6941   -3.8734 C   0  0  0  0  0  0  0  0  0  0  0  0
    8.4477    1.3739   -4.1213 N   0  0  0  0  0  0  0  0  0  0  0  0
    9.7389    0.9436   -4.4772 C   0  0  0  0  0  0  0  0  0  0  0  0
   10.8858    1.6409   -4.0805 C   0  0  0  0  0  0  0  0  0  0  0  0
   12.1558    1.0772   -4.2369 C   0  0  0  0  0  0  0  0  0  0  0  0
   12.2892   -0.1916   -4.7991 C   0  0  0  0  0  0  0  0  0  0  0  0
   13.9934   -1.0046   -4.8801 Br  0  0  0  0  0  0  0  0  0  0  0  0
   11.1709   -0.8819   -5.2538 C   0  0  0  0  0  0  0  0  0  0  0  0
    9.9132   -0.3131   -5.0804 C   0  0  0  0  0  0  0  0  0  0  0  0
    8.8314   -1.0041   -5.4782 F   0  0  0  0  0  0  0  0  0  0  0  0
    8.5580    3.7028   -4.5526 N   0  0  0  0  0  0  0  0  0  0  0  0
    8.0316    4.9139   -4.3589 C   0  0  0  0  0  0  0  0  0  0  0  0
    7.0161    5.2157   -3.5412 N   0  0  0  0  0  0  0  0  0  0  0  0
    6.4718    4.2086   -2.8464 C   0  0  0  0  0  0  0  0  0  0  0  0
    5.4249    4.4669   -1.9631 C   0  0  0  0  0  0  0  0  0  0  0  0
    4.8086    3.4563   -1.2052 C   0  0  0  0  0  0  0  0  0  0  0  0
    3.8648    3.9102   -0.3081 O   0  0  0  0  0  0  0  0  0  0  0  0
    3.7830    3.1842    0.9273 C   0  0  0  0  0  0  0  0  0  0  0  0
    3.3541    4.0908    2.0889 C   0  0  0  0  0  0  0  0  0  0  0  0
    3.3745    3.3937    3.3725 N   0  0  0  0  0  0  0  0  0  0  0  0
    4.5625    3.1181    4.0133 C   0  0  0  0  0  0  0  0  0  0  0  0
    5.6450    3.5334    3.6019 O   0  0  0  0  0  0  0  0  0  0  0  0
    4.4650    2.3116    5.3129 C   0  0  0  0  0  0  0  0  0  0  0  0
    3.4698    1.1996    5.2817 N   0  0  0  0  0  0  0  0  0  0  0  0
    3.8305    0.1927    4.2643 C   0  0  0  0  0  0  0  0  0  0  0  0
    2.8627   -0.9956    4.2818 C   0  0  0  0  0  0  0  0  0  0  0  0
    2.8308   -1.6610    5.6515 C   0  0  0  0  0  0  0  0  0  0  0  0
    2.5208   -0.6251    6.7229 C   0  0  0  0  0  0  0  0  0  0  0  0
    3.4689    0.5711    6.6259 C   0  0  0  0  0  0  0  0  0  0  0  0
    1.2185   -1.9290   -0.4957 H   0  0  0  0  0  0  0  0  0  0  0  0
    1.1528   -0.7305   -1.9131 H   0  0  0  0  0  0  0  0  0  0  0  0
    3.1866   -0.7585    0.4101 H   0  0  0  0  0  0  0  0  0  0  0  0
    5.1079    0.1822   -0.6842 H   0  0  0  0  0  0  0  0  0  0  0  0
    6.7018    0.8480   -2.2887 H   0  0  0  0  0  0  0  0  0  0  0  0
    7.7148    0.8284   -4.5782 H   0  0  0  0  0  0  0  0  0  0  0  0
   10.7989    2.6155   -3.6056 H   0  0  0  0  0  0  0  0  0  0  0  0
   13.0266    1.6245   -3.8836 H   0  0  0  0  0  0  0  0  0  0  0  0
   11.2558   -1.8651   -5.7053 H   0  0  0  0  0  0  0  0  0  0  0  0
    8.4676    5.7312   -4.9240 H   0  0  0  0  0  0  0  0  0  0  0  0
    5.0832    5.4945   -1.8502 H   0  0  0  0  0  0  0  0  0  0  0  0
    4.7433    2.7211    1.1815 H   0  0  0  0  0  0  0  0  0  0  0  0
    3.0206    2.4061    0.8279 H   0  0  0  0  0  0  0  0  0  0  0  0
    2.3396    4.4703    1.9267 H   0  0  0  0  0  0  0  0  0  0  0  0
    4.0195    4.9599    2.1472 H   0  0  0  0  0  0  0  0  0  0  0  0
    2.5446    2.9209    3.7187 H   0  0  0  0  0  0  0  0  0  0  0  0
    4.1966    3.0260    6.1009 H   0  0  0  0  0  0  0  0  0  0  0  0
    5.4661    1.9197    5.5346 H   0  0  0  0  0  0  0  0  0  0  0  0
    4.8548   -0.1711    4.4184 H   0  0  0  0  0  0  0  0  0  0  0  0
    3.7889    0.6344    3.2629 H   0  0  0  0  0  0  0  0  0  0  0  0
    3.1611   -1.7283    3.5237 H   0  0  0  0  0  0  0  0  0  0  0  0
    1.8532   -0.6550    4.0181 H   0  0  0  0  0  0  0  0  0  0  0  0
    3.8028   -2.1269    5.8575 H   0  0  0  0  0  0  0  0  0  0  0  0
    2.0816   -2.4601    5.6702 H   0  0  0  0  0  0  0  0  0  0  0  0
    2.6078   -1.0861    7.7142 H   0  0  0  0  0  0  0  0  0  0  0  0
    1.4837   -0.2846    6.6182 H   0  0  0  0  0  0  0  0  0  0  0  0
    4.4817    0.2390    6.8951 H   0  0  0  0  0  0  0  0  0  0  0  0
    3.1621    1.3090    7.3771 H   0  0  0  0  0  0  0  0  0  0  0  0
  1  2  2  0  0  0  0
  1 38  1  0  0  0  0
  1 39  1  0  0  0  0
  2  3  1  0  0  0  0
  2 40  1  0  0  0  0
  3  4  2  0  0  0  0
  3  5  1  0  0  0  0
  5  6  1  0  0  0  0
  5 41  1  0  0  0  0
  6  7  1  0  0  0  0
  6 24  2  0  0  0  0
  7  8  2  0  0  0  0
  7 42  1  0  0  0  0
  8  9  1  0  0  0  0
  8 22  1  0  0  0  0
  9 10  1  0  0  0  0
  9 19  2  0  0  0  0
 10 11  1  0  0  0  0
 10 43  1  0  0  0  0
 11 12  1  0  0  0  0
 11 17  2  0  0  0  0
 12 13  2  0  0  0  0
 12 44  1  0  0  0  0
 13 14  1  0  0  0  0
 13 45  1  0  0  0  0
 14 15  1  0  0  0  0
 14 16  2  0  0  0  0
 16 17  1  0  0  0  0
 16 46  1  0  0  0  0
 17 18  1  0  0  0  0
 19 20  1  0  0  0  0
 20 21  2  0  0  0  0
 20 47  1  0  0  0  0
 21 22  1  0  0  0  0
 22 23  2  0  0  0  0
 23 24  1  0  0  0  0
 23 48  1  0  0  0  0
 24 25  1  0  0  0  0
 25 26  1  0  0  0  0
 26 27  1  0  0  0  0
 26 49  1  0  0  0  0
 26 50  1  0  0  0  0
 27 28  1  0  0  0  0
 27 51  1  0  0  0  0
 27 52  1  0  0  0  0
 28 29  1  0  0  0  0
 28 53  1  0  0  0  0
 29 30  2  0  0  0  0
 29 31  1  0  0  0  0
 31 32  1  0  0  0  0
 31 54  1  0  0  0  0
 31 55  1  0  0  0  0
 32 33  1  0  0  0  0
 32 37  1  0  0  0  0
 33 34  1  0  0  0  0
 33 56  1  0  0  0  0
 33 57  1  0  0  0  0
 34 35  1  0  0  0  0
 34 58  1  0  0  0  0
 34 59  1  0  0  0  0
 35 36  1  0  0  0  0
 35 60  1  0  0  0  0
 35 61  1  0  0  0  0
 36 37  1  0  0  0  0
 36 62  1  0  0  0  0
 36 63  1  0  0  0  0
 37 64  1  0  0  0  0
 37 65  1  0  0  0  0
M  END
$$$$
