CHEMBL4100372
 OpenBabel04072215383D

 56 60  0  0  0  0  0  0  0  0999 V2000
   -0.4712    1.9827   -3.2714 C   0  0  0  0  0  0  0  0  0  0  0  0
   -0.8144    0.8496   -2.3690 C   0  0  0  0  0  0  0  0  0  0  0  0
   -1.0783   -0.3324   -2.9535 N   0  0  0  0  0  0  0  0  0  0  0  0
   -1.3683   -1.1326   -1.9287 N   0  0  0  0  0  0  0  0  0  0  0  0
   -1.3039   -0.5342   -0.7084 C   0  0  0  0  0  0  0  0  0  0  0  0
   -1.5595   -1.1491    0.4596 N   0  0  0  0  0  0  0  0  0  0  0  0
   -1.4060   -0.3368    1.5214 C   0  0  0  0  0  0  0  0  0  0  0  0
   -1.0267    0.9966    1.4647 C   0  0  0  0  0  0  0  0  0  0  0  0
   -0.7698    1.6108    0.2226 C   0  0  0  0  0  0  0  0  0  0  0  0
   -0.3280    3.0109    0.1472 C   0  0  0  0  0  0  0  0  0  0  0  0
    0.7277    3.3698   -0.6881 C   0  0  0  0  0  0  0  0  0  0  0  0
    1.1164    4.6976   -0.8585 C   0  0  0  0  0  0  0  0  0  0  0  0
    0.5416    5.7245   -0.1143 C   0  0  0  0  0  0  0  0  0  0  0  0
    0.9434    7.0791   -0.2474 N   0  0  0  0  0  0  0  0  0  0  0  0
    1.7747    7.5581   -1.2478 C   0  0  0  0  0  0  0  0  0  0  0  0
    2.2006    6.8925   -2.1869 O   0  0  0  0  0  0  0  0  0  0  0  0
    2.0424    8.9158   -1.1292 N   0  0  0  0  0  0  0  0  0  0  0  0
    3.0047    9.4718   -2.0213 C   0  0  0  0  0  0  0  0  0  0  0  0
    4.3083    8.9357   -2.0007 C   0  0  0  0  0  0  0  0  0  0  0  0
    5.2753    9.3747   -2.8986 C   0  0  0  0  0  0  0  0  0  0  0  0
    4.9475   10.3564   -3.8201 C   0  0  0  0  0  0  0  0  0  0  0  0
    3.6649   10.9156   -3.8160 C   0  0  0  0  0  0  0  0  0  0  0  0
    2.6591   10.5115   -2.9131 C   0  0  0  0  0  0  0  0  0  0  0  0
    1.4260   11.1309   -2.9553 N   0  0  0  0  0  0  0  0  0  0  0  0
    1.2935   12.5707   -3.2096 C   0  0  0  0  0  0  0  0  0  0  0  0
    0.4540   13.1981   -2.0825 C   0  0  0  0  0  0  0  0  0  0  0  0
   -0.8158   12.5408   -1.9145 O   0  0  0  0  0  0  0  0  0  0  0  0
   -0.6323   11.1365   -1.6468 C   0  0  0  0  0  0  0  0  0  0  0  0
    0.1382   10.4503   -2.7846 C   0  0  0  0  0  0  0  0  0  0  0  0
   -0.4460    5.3788    0.8116 C   0  0  0  0  0  0  0  0  0  0  0  0
   -0.8850    4.0419    0.9282 C   0  0  0  0  0  0  0  0  0  0  0  0
   -0.9219    0.7875   -0.9319 C   0  0  0  0  0  0  0  0  0  0  0  0
   -0.6425    1.7167   -4.3212 H   0  0  0  0  0  0  0  0  0  0  0  0
    0.5882    2.2409   -3.2003 H   0  0  0  0  0  0  0  0  0  0  0  0
   -1.0812    2.8626   -3.0505 H   0  0  0  0  0  0  0  0  0  0  0  0
   -1.6226   -2.1008   -2.1063 H   0  0  0  0  0  0  0  0  0  0  0  0
   -1.5971   -0.8093    2.4825 H   0  0  0  0  0  0  0  0  0  0  0  0
   -0.9073    1.5462    2.3941 H   0  0  0  0  0  0  0  0  0  0  0  0
    1.2796    2.6130   -1.2377 H   0  0  0  0  0  0  0  0  0  0  0  0
    1.8923    4.8727   -1.5940 H   0  0  0  0  0  0  0  0  0  0  0  0
    0.4841    7.7613    0.3373 H   0  0  0  0  0  0  0  0  0  0  0  0
    2.0963    9.2768   -0.1882 H   0  0  0  0  0  0  0  0  0  0  0  0
    4.5624    8.1358   -1.3089 H   0  0  0  0  0  0  0  0  0  0  0  0
    6.2655    8.9283   -2.8983 H   0  0  0  0  0  0  0  0  0  0  0  0
    5.6778   10.6812   -4.5563 H   0  0  0  0  0  0  0  0  0  0  0  0
    3.4382   11.6554   -4.5803 H   0  0  0  0  0  0  0  0  0  0  0  0
    0.7895   12.7090   -4.1735 H   0  0  0  0  0  0  0  0  0  0  0  0
    2.2576   13.0887   -3.2522 H   0  0  0  0  0  0  0  0  0  0  0  0
    0.2562   14.2495   -2.3131 H   0  0  0  0  0  0  0  0  0  0  0  0
    0.9970   13.1604   -1.1303 H   0  0  0  0  0  0  0  0  0  0  0  0
   -1.6253   10.6891   -1.5428 H   0  0  0  0  0  0  0  0  0  0  0  0
   -0.1113   11.0256   -0.6881 H   0  0  0  0  0  0  0  0  0  0  0  0
   -0.4288   10.5681   -3.7166 H   0  0  0  0  0  0  0  0  0  0  0  0
    0.2143    9.3748   -2.6186 H   0  0  0  0  0  0  0  0  0  0  0  0
   -0.9028    6.1321    1.4482 H   0  0  0  0  0  0  0  0  0  0  0  0
   -1.6718    3.8181    1.6460 H   0  0  0  0  0  0  0  0  0  0  0  0
  1  2  1  0  0  0  0
  1 33  1  0  0  0  0
  1 34  1  0  0  0  0
  1 35  1  0  0  0  0
  2  3  2  0  0  0  0
  2 32  1  0  0  0  0
  3  4  1  0  0  0  0
  4  5  1  0  0  0  0
  4 36  1  0  0  0  0
  5  6  1  0  0  0  0
  5 32  2  0  0  0  0
  6  7  2  0  0  0  0
  7  8  1  0  0  0  0
  7 37  1  0  0  0  0
  8  9  2  0  0  0  0
  8 38  1  0  0  0  0
  9 10  1  0  0  0  0
  9 32  1  0  0  0  0
 10 11  1  0  0  0  0
 10 31  2  0  0  0  0
 11 12  2  0  0  0  0
 11 39  1  0  0  0  0
 12 13  1  0  0  0  0
 12 40  1  0  0  0  0
 13 14  1  0  0  0  0
 13 30  2  0  0  0  0
 14 15  1  0  0  0  0
 14 41  1  0  0  0  0
 15 16  2  0  0  0  0
 15 17  1  0  0  0  0
 17 18  1  0  0  0  0
 17 42  1  0  0  0  0
 18 19  1  0  0  0  0
 18 23  2  0  0  0  0
 19 20  2  0  0  0  0
 19 43  1  0  0  0  0
 20 21  1  0  0  0  0
 20 44  1  0  0  0  0
 21 22  2  0  0  0  0
 21 45  1  0  0  0  0
 22 23  1  0  0  0  0
 22 46  1  0  0  0  0
 23 24  1  0  0  0  0
 24 25  1  0  0  0  0
 24 29  1  0  0  0  0
 25 26  1  0  0  0  0
 25 47  1  0  0  0  0
 25 48  1  0  0  0  0
 26 27  1  0  0  0  0
 26 49  1  0  0  0  0
 26 50  1  0  0  0  0
 27 28  1  0  0  0  0
 28 29  1  0  0  0  0
 28 51  1  0  0  0  0
 28 52  1  0  0  0  0
 29 53  1  0  0  0  0
 29 54  1  0  0  0  0
 30 31  1  0  0  0  0
 30 55  1  0  0  0  0
 31 56  1  0  0  0  0
M  END
$$$$
