CHEMBL3981955
 OpenBabel04072215373D

 68 70  0  0  1  0  0  0  0  0999 V2000
    4.5014   -2.4441   -2.9306 C   0  0  0  0  0  0  0  0  0  0  0  0
    4.1517   -1.0693   -3.1822 O   0  0  0  0  0  0  0  0  0  0  0  0
    4.7037   -0.1601   -2.3613 C   0  0  0  0  0  0  0  0  0  0  0  0
    4.2478    1.2034   -2.7590 C   0  0  3  0  0  0  0  0  0  0  0  0
    2.8589    1.0635   -2.6090 O   0  0  0  0  0  0  0  0  0  0  0  0
    4.9489    2.1582   -1.7958 C   0  0  0  0  0  0  0  0  0  0  0  0
    6.4441    2.1345   -1.8229 N   0  0  0  0  0  0  0  0  0  0  0  0
    7.1890    1.2649   -0.9751 C   0  0  0  0  0  0  0  0  0  0  0  0
    8.4133    0.7826   -1.3556 C   0  0  0  0  0  0  0  0  0  0  0  0
    9.2930    0.0855   -0.6186 C   0  0  0  0  0  0  0  0  0  0  0  0
   10.4905   -0.3156   -1.1417 O   0  0  0  0  0  0  0  0  0  0  0  0
   11.4441   -1.0359   -0.4246 C   0  0  0  0  0  0  0  0  0  0  0  0
    8.9674   -0.0686    0.6837 C   0  0  0  0  0  0  0  0  0  0  0  0
    7.7751    0.4751    1.1931 C   0  0  0  0  0  0  0  0  0  0  0  0
    7.5967    0.5446    2.5239 O   0  0  0  0  0  0  0  0  0  0  0  0
    6.4411    1.0754    3.0697 C   0  0  0  0  0  0  0  0  0  0  0  0
    6.8175    1.0219    0.3211 C   0  0  0  0  0  0  0  0  0  0  0  0
    7.1469    3.1322   -2.6448 C   0  0  0  0  0  0  0  0  0  0  0  0
    6.3703    3.4410   -3.6869 C   0  0  0  0  0  0  0  0  0  0  0  0
    6.7013    4.2941   -4.4853 C   0  0  0  0  0  0  0  0  0  0  0  0
    7.8100    4.8857   -4.4563 C   0  0  0  0  0  0  0  0  0  0  0  0
    7.8581    5.3812   -5.4347 N   0  0  0  0  0  0  0  0  0  0  0  0
    7.8741    5.8710   -6.4241 C   0  0  0  0  0  0  0  0  0  0  0  0
    8.8928    6.6719   -6.4042 C   0  0  0  0  0  0  0  0  0  0  0  0
    8.5168    7.4864   -8.1286 C   0  0  0  0  0  0  0  0  0  0  0  0
    9.3414    8.5271   -8.7461 C   0  0  0  0  0  0  0  0  0  0  0  0
    8.7598    9.1468   -9.8444 N   0  0  0  0  0  0  0  0  0  0  0  0
    7.5717    8.6121  -10.0651 N   0  0  0  0  0  0  0  0  0  0  0  0
    6.6414    9.1062  -11.1719 C   0  0  0  0  0  0  0  0  0  0  0  0
    6.3222    7.9909  -12.1767 C   0  0  0  0  0  0  0  0  0  0  0  0
    5.3349    9.5729  -10.5500 C   0  0  0  0  0  0  0  0  0  0  0  0
    7.3536    7.6046   -9.0937 C   0  0  0  0  0  0  0  0  0  0  0  0
    9.6907    6.2130   -4.8525 N   0  0  0  0  0  0  0  0  0  0  0  0
    8.9128    5.0309   -3.8200 C   0  0  0  0  0  0  0  0  0  0  0  0
    8.5423    3.8718   -2.5554 C   0  0  0  0  0  0  0  0  0  0  0  0
    2.2498   -1.9162    0.2517 Cl  0  0  0  0  0  0  0  0  0  0  0  0
    3.8085   -3.3082   -3.3645 H   0  0  0  0  0  0  0  0  0  0  0  0
    4.2621   -2.7831   -1.8856 H   0  0  0  0  0  0  0  0  0  0  0  0
    5.0256   -2.6285   -3.8369 H   0  0  0  0  0  0  0  0  0  0  0  0
    5.6636   -0.3525   -2.7323 H   0  0  0  0  0  0  0  0  0  0  0  0
    4.3166   -0.3344   -1.3286 H   0  0  0  0  0  0  0  0  0  0  0  0
    4.5187    1.5411   -3.8060 H   0  0  0  0  0  0  0  0  0  0  0  0
    2.5712    1.3508   -1.6966 H   0  0  0  0  0  0  0  0  0  0  0  0
    4.5465    1.8581   -0.7930 H   0  0  0  0  0  0  0  0  0  0  0  0
    4.5833    3.1802   -1.9987 H   0  0  0  0  0  0  0  0  0  0  0  0
    8.8113    1.0030   -2.1841 H   0  0  0  0  0  0  0  0  0  0  0  0
   12.3259   -1.2688   -1.0383 H   0  0  0  0  0  0  0  0  0  0  0  0
   11.0236   -2.0010   -0.0532 H   0  0  0  0  0  0  0  0  0  0  0  0
   11.7739   -0.4432    0.4527 H   0  0  0  0  0  0  0  0  0  0  0  0
    9.6650   -0.5552    1.3076 H   0  0  0  0  0  0  0  0  0  0  0  0
    6.4499    0.9909    4.1603 H   0  0  0  0  0  0  0  0  0  0  0  0
    5.5183    0.5679    2.6835 H   0  0  0  0  0  0  0  0  0  0  0  0
    6.3868    2.1436    2.7899 H   0  0  0  0  0  0  0  0  0  0  0  0
    5.8477    1.3327    0.6496 H   0  0  0  0  0  0  0  0  0  0  0  0
    5.4446    3.1062   -4.0088 H   0  0  0  0  0  0  0  0  0  0  0  0
    6.0413    4.5755   -5.2786 H   0  0  0  0  0  0  0  0  0  0  0  0
    6.9974    5.5158   -7.0285 H   0  0  0  0  0  0  0  0  0  0  0  0
   10.2773    8.8909   -8.4184 H   0  0  0  0  0  0  0  0  0  0  0  0
    7.0536    9.9730  -11.7783 H   0  0  0  0  0  0  0  0  0  0  0  0
    5.8949    7.1317  -11.6286 H   0  0  0  0  0  0  0  0  0  0  0  0
    7.2405    7.6700  -12.6989 H   0  0  0  0  0  0  0  0  0  0  0  0
    5.5823    8.3243  -12.9416 H   0  0  0  0  0  0  0  0  0  0  0  0
    4.9021    8.7258   -9.9802 H   0  0  0  0  0  0  0  0  0  0  0  0
    4.5979    9.9119  -11.2982 H   0  0  0  0  0  0  0  0  0  0  0  0
    5.5506   10.4059   -9.8556 H   0  0  0  0  0  0  0  0  0  0  0  0
    6.3941    7.1655   -9.1076 H   0  0  0  0  0  0  0  0  0  0  0  0
    8.9978    3.3233   -1.6306 H   0  0  0  0  0  0  0  0  0  0  0  0
    1.9455   -0.8992    0.8554 H   0  0  0  0  0  0  0  0  0  0  0  0
  1  2  1  0  0  0  0
  1 37  1  0  0  0  0
  1 38  1  0  0  0  0
  1 39  1  0  0  0  0
  2  3  1  0  0  0  0
  3  4  1  0  0  0  0
  3 40  1  0  0  0  0
  3 41  1  0  0  0  0
  4  5  1  0  0  0  0
  4  6  1  0  0  0  0
  4 42  1  0  0  0  0
  5 43  1  0  0  0  0
  6  7  1  0  0  0  0
  6 44  1  0  0  0  0
  6 45  1  0  0  0  0
  7  8  1  0  0  0  0
  7 18  1  0  0  0  0
  8  9  1  0  0  0  0
  8 17  2  0  0  0  0
  9 10  2  0  0  0  0
  9 46  1  0  0  0  0
 10 11  1  0  0  0  0
 10 13  1  0  0  0  0
 11 12  1  0  0  0  0
 12 47  1  0  0  0  0
 12 48  1  0  0  0  0
 12 49  1  0  0  0  0
 13 14  2  0  0  0  0
 13 50  1  0  0  0  0
 14 15  1  0  0  0  0
 14 17  1  0  0  0  0
 15 16  1  0  0  0  0
 16 51  1  0  0  0  0
 16 52  1  0  0  0  0
 16 53  1  0  0  0  0
 17 54  1  0  0  0  0
 18 19  1  0  0  0  0
 18 35  2  0  0  0  0
 19 20  2  0  0  0  0
 19 55  1  0  0  0  0
 20 21  1  0  0  0  0
 20 56  1  0  0  0  0
 21 22  1  0  0  0  0
 21 34  2  0  0  0  0
 22 23  2  0  0  0  0
 23 24  1  0  0  0  0
 23 57  1  0  0  0  0
 24 25  1  0  0  0  0
 24 33  2  0  0  0  0
 25 26  1  0  0  0  0
 25 32  2  0  0  0  0
 26 27  2  0  0  0  0
 26 58  1  0  0  0  0
 27 28  1  0  0  0  0
 28 29  1  0  0  0  0
 28 32  1  0  0  0  0
 29 30  1  0  0  0  0
 29 31  1  0  0  0  0
 29 59  1  0  0  0  0
 30 60  1  0  0  0  0
 30 61  1  0  0  0  0
 30 62  1  0  0  0  0
 31 63  1  0  0  0  0
 31 64  1  0  0  0  0
 31 65  1  0  0  0  0
 32 66  1  0  0  0  0
 33 34  1  0  0  0  0
 34 35  1  0  0  0  0
 35 67  1  0  0  0  0
 36 68  1  0  0  0  0
M  END
$$$$
