CHEMBL598418
 OpenBabel04072215383D

 42 45  0  0  0  0  0  0  0  0999 V2000
    1.4108   -0.8733   -0.2623 C   0  0  0  0  0  0  0  0  0  0  0  0
    2.5709   -0.0716   -0.0822 O   0  0  0  0  0  0  0  0  0  0  0  0
    3.1685   -0.1164    1.1460 C   0  0  0  0  0  0  0  0  0  0  0  0
    2.8075   -0.9338    2.2105 C   0  0  0  0  0  0  0  0  0  0  0  0
    3.5031   -0.8512    3.4240 C   0  0  0  0  0  0  0  0  0  0  0  0
    4.5352    0.0870    3.6288 C   0  0  0  0  0  0  0  0  0  0  0  0
    4.8633    0.9332    2.5455 C   0  0  0  0  0  0  0  0  0  0  0  0
    4.2234    0.7802    1.3068 C   0  0  0  0  0  0  0  0  0  0  0  0
    5.8025    1.9819    2.6069 N   0  0  0  0  0  0  0  0  0  0  0  0
    6.0596    2.8080    3.6667 C   0  0  0  0  0  0  0  0  0  0  0  0
    6.8592    3.7364    3.5427 O   0  0  0  0  0  0  0  0  0  0  0  0
    5.2754    2.6100    4.9416 C   0  0  0  0  0  0  0  0  0  0  0  0
    5.5964    1.2939    5.5505 C   0  0  0  0  0  0  0  0  0  0  0  0
    6.2982    1.1673    6.7286 C   0  0  0  0  0  0  0  0  0  0  0  0
    6.6444   -0.0134    7.2693 N   0  0  0  0  0  0  0  0  0  0  0  0
    6.2413   -1.1124    6.6195 C   0  0  0  0  0  0  0  0  0  0  0  0
    6.6229   -2.3334    7.1666 N   0  0  0  0  0  0  0  0  0  0  0  0
    6.0285   -3.5888    6.9975 C   0  0  0  0  0  0  0  0  0  0  0  0
    6.8110   -4.7477    7.0771 C   0  0  0  0  0  0  0  0  0  0  0  0
    6.2625   -6.0025    6.7906 C   0  0  0  0  0  0  0  0  0  0  0  0
    4.9192   -6.0956    6.4372 C   0  0  0  0  0  0  0  0  0  0  0  0
    4.3442   -7.2878    6.1089 O   0  0  0  0  0  0  0  0  0  0  0  0
    4.1151   -4.9679    6.3920 C   0  0  0  0  0  0  0  0  0  0  0  0
    4.6720   -3.7205    6.6607 C   0  0  0  0  0  0  0  0  0  0  0  0
    5.5395   -1.0803    5.4709 N   0  0  0  0  0  0  0  0  0  0  0  0
    5.2438    0.1174    4.9252 C   0  0  0  0  0  0  0  0  0  0  0  0
    1.0253   -0.6804   -1.2682 H   0  0  0  0  0  0  0  0  0  0  0  0
    0.6250   -0.6040    0.4517 H   0  0  0  0  0  0  0  0  0  0  0  0
    1.6598   -1.9367   -0.1965 H   0  0  0  0  0  0  0  0  0  0  0  0
    1.9973   -1.6513    2.1343 H   0  0  0  0  0  0  0  0  0  0  0  0
    3.2245   -1.5288    4.2311 H   0  0  0  0  0  0  0  0  0  0  0  0
    4.4917    1.4172    0.4666 H   0  0  0  0  0  0  0  0  0  0  0  0
    6.2055    2.3182    1.7383 H   0  0  0  0  0  0  0  0  0  0  0  0
    4.2014    2.6933    4.7287 H   0  0  0  0  0  0  0  0  0  0  0  0
    5.5105    3.4287    5.6297 H   0  0  0  0  0  0  0  0  0  0  0  0
    6.6254    2.0396    7.2893 H   0  0  0  0  0  0  0  0  0  0  0  0
    7.2378   -2.2114    7.9563 H   0  0  0  0  0  0  0  0  0  0  0  0
    7.8687   -4.6767    7.3166 H   0  0  0  0  0  0  0  0  0  0  0  0
    6.8943   -6.8820    6.8319 H   0  0  0  0  0  0  0  0  0  0  0  0
    5.0474   -7.9513    6.0238 H   0  0  0  0  0  0  0  0  0  0  0  0
    3.0665   -5.0464    6.1285 H   0  0  0  0  0  0  0  0  0  0  0  0
    4.0355   -2.8419    6.6129 H   0  0  0  0  0  0  0  0  0  0  0  0
  1  2  1  0  0  0  0
  1 27  1  0  0  0  0
  1 28  1  0  0  0  0
  1 29  1  0  0  0  0
  2  3  1  0  0  0  0
  3  4  1  0  0  0  0
  3  8  2  0  0  0  0
  4  5  2  0  0  0  0
  4 30  1  0  0  0  0
  5  6  1  0  0  0  0
  5 31  1  0  0  0  0
  6  7  2  0  0  0  0
  6 26  1  0  0  0  0
  7  8  1  0  0  0  0
  7  9  1  0  0  0  0
  8 32  1  0  0  0  0
  9 10  1  0  0  0  0
  9 33  1  0  0  0  0
 10 11  2  0  0  0  0
 10 12  1  0  0  0  0
 12 13  1  0  0  0  0
 12 34  1  0  0  0  0
 12 35  1  0  0  0  0
 13 14  1  0  0  0  0
 13 26  2  0  0  0  0
 14 15  2  0  0  0  0
 14 36  1  0  0  0  0
 15 16  1  0  0  0  0
 16 17  1  0  0  0  0
 16 25  2  0  0  0  0
 17 18  1  0  0  0  0
 17 37  1  0  0  0  0
 18 19  1  0  0  0  0
 18 24  2  0  0  0  0
 19 20  2  0  0  0  0
 19 38  1  0  0  0  0
 20 21  1  0  0  0  0
 20 39  1  0  0  0  0
 21 22  1  0  0  0  0
 21 23  2  0  0  0  0
 22 40  1  0  0  0  0
 23 24  1  0  0  0  0
 23 41  1  0  0  0  0
 24 42  1  0  0  0  0
 25 26  1  0  0  0  0
M  END
$$$$
