CHEMBL3929084
 OpenBabel04072215373D

 53 56  0  0  0  0  0  0  0  0999 V2000
   -2.7712    0.1561    2.7234 N   0  0  0  0  0  0  0  0  0  0  0  0
   -1.6669    0.1578    2.3687 C   0  0  0  0  0  0  0  0  0  0  0  0
   -0.2950    0.1077    1.9456 C   0  0  0  0  0  0  0  0  0  0  0  0
    0.3129   -1.1458    1.9217 C   0  0  0  0  0  0  0  0  0  0  0  0
    1.6489   -1.2849    1.5458 C   0  0  0  0  0  0  0  0  0  0  0  0
    2.4248   -0.1841    1.1726 C   0  0  0  0  0  0  0  0  0  0  0  0
    3.7947   -0.2975    0.8057 N   0  0  0  0  0  0  0  0  0  0  0  0
    4.4768   -1.5006    0.6586 C   0  0  0  0  0  0  0  0  0  0  0  0
    3.9580   -2.6077    0.7444 O   0  0  0  0  0  0  0  0  0  0  0  0
    5.8444   -1.3389    0.4441 N   0  0  0  0  0  0  0  0  0  0  0  0
    6.6540   -2.5011    0.2870 C   0  0  0  0  0  0  0  0  0  0  0  0
    6.2456   -3.5547   -0.5411 C   0  0  0  0  0  0  0  0  0  0  0  0
    6.9550   -4.7599   -0.5779 C   0  0  0  0  0  0  0  0  0  0  0  0
    8.1259   -4.9081    0.1655 C   0  0  0  0  0  0  0  0  0  0  0  0
    8.8618   -6.0782    0.2173 O   0  0  0  0  0  0  0  0  0  0  0  0
    9.0564   -6.8335   -0.9263 C   0  0  0  0  0  0  0  0  0  0  0  0
    9.0370   -6.3037   -2.2110 C   0  0  0  0  0  0  0  0  0  0  0  0
    9.2275   -7.1675   -3.2656 C   0  0  0  0  0  0  0  0  0  0  0  0
    9.4872   -8.4780   -3.1152 N   0  0  0  0  0  0  0  0  0  0  0  0
    9.5737   -8.9900   -1.8798 C   0  0  0  0  0  0  0  0  0  0  0  0
    9.8998  -10.3578   -1.7240 N   0  0  0  0  0  0  0  0  0  0  0  0
   10.1375  -11.2085   -2.7903 C   0  0  0  0  0  0  0  0  0  0  0  0
   10.0696  -10.9371   -3.9835 O   0  0  0  0  0  0  0  0  0  0  0  0
   10.5220  -12.6213   -2.4768 C   0  0  0  0  0  0  0  0  0  0  0  0
    9.9249  -13.4142   -1.3440 C   0  0  0  0  0  0  0  0  0  0  0  0
   11.3771  -13.0246   -1.3050 C   0  0  0  0  0  0  0  0  0  0  0  0
    9.3583   -8.1959   -0.7523 C   0  0  0  0  0  0  0  0  0  0  0  0
    8.5465   -3.8513    0.9826 C   0  0  0  0  0  0  0  0  0  0  0  0
    7.8285   -2.6419    1.0277 C   0  0  0  0  0  0  0  0  0  0  0  0
    1.8119    1.0791    1.1874 C   0  0  0  0  0  0  0  0  0  0  0  0
    0.4501    1.2402    1.5738 C   0  0  0  0  0  0  0  0  0  0  0  0
   -0.1426    2.6317    1.5751 C   0  0  0  0  0  0  0  0  0  0  0  0
   -1.4439    2.7097    1.9526 F   0  0  0  0  0  0  0  0  0  0  0  0
    0.5321    3.4689    2.4111 F   0  0  0  0  0  0  0  0  0  0  0  0
   -0.0832    3.2099    0.3438 F   0  0  0  0  0  0  0  0  0  0  0  0
   -0.2421   -2.0424    2.2010 H   0  0  0  0  0  0  0  0  0  0  0  0
    2.0409   -2.2962    1.5655 H   0  0  0  0  0  0  0  0  0  0  0  0
    4.2763    0.5389    0.5086 H   0  0  0  0  0  0  0  0  0  0  0  0
    6.2637   -0.5622    0.9350 H   0  0  0  0  0  0  0  0  0  0  0  0
    5.3422   -3.4644   -1.1412 H   0  0  0  0  0  0  0  0  0  0  0  0
    6.5633   -5.5734   -1.1819 H   0  0  0  0  0  0  0  0  0  0  0  0
    8.8673   -5.2529   -2.4102 H   0  0  0  0  0  0  0  0  0  0  0  0
    9.1783   -6.8248   -4.2951 H   0  0  0  0  0  0  0  0  0  0  0  0
    9.9852  -10.7171   -0.7877 H   0  0  0  0  0  0  0  0  0  0  0  0
   10.6994  -13.1870   -3.3915 H   0  0  0  0  0  0  0  0  0  0  0  0
    9.6810  -14.4522   -1.5499 H   0  0  0  0  0  0  0  0  0  0  0  0
    9.2370  -12.9340   -0.6608 H   0  0  0  0  0  0  0  0  0  0  0  0
   12.1167  -13.7987   -1.4842 H   0  0  0  0  0  0  0  0  0  0  0  0
   11.6979  -12.2752   -0.5927 H   0  0  0  0  0  0  0  0  0  0  0  0
    9.4240   -8.6064    0.2491 H   0  0  0  0  0  0  0  0  0  0  0  0
    9.4226   -3.9763    1.6145 H   0  0  0  0  0  0  0  0  0  0  0  0
    8.1576   -1.8595    1.7055 H   0  0  0  0  0  0  0  0  0  0  0  0
    2.3807    1.9640    0.9019 H   0  0  0  0  0  0  0  0  0  0  0  0
  1  2  3  0  0  0  0
  2  3  1  0  0  0  0
  3  4  1  0  0  0  0
  3 31  2  0  0  0  0
  4  5  2  0  0  0  0
  4 36  1  0  0  0  0
  5  6  1  0  0  0  0
  5 37  1  0  0  0  0
  6  7  1  0  0  0  0
  6 30  2  0  0  0  0
  7  8  1  0  0  0  0
  7 38  1  0  0  0  0
  8  9  2  0  0  0  0
  8 10  1  0  0  0  0
 10 11  1  0  0  0  0
 10 39  1  0  0  0  0
 11 12  1  0  0  0  0
 11 29  2  0  0  0  0
 12 13  2  0  0  0  0
 12 40  1  0  0  0  0
 13 14  1  0  0  0  0
 13 41  1  0  0  0  0
 14 15  1  0  0  0  0
 14 28  2  0  0  0  0
 15 16  1  0  0  0  0
 16 17  1  0  0  0  0
 16 27  2  0  0  0  0
 17 18  2  0  0  0  0
 17 42  1  0  0  0  0
 18 19  1  0  0  0  0
 18 43  1  0  0  0  0
 19 20  2  0  0  0  0
 20 21  1  0  0  0  0
 20 27  1  0  0  0  0
 21 22  1  0  0  0  0
 21 44  1  0  0  0  0
 22 23  2  0  0  0  0
 22 24  1  0  0  0  0
 24 25  1  0  0  0  0
 24 26  1  0  0  0  0
 24 45  1  0  0  0  0
 25 26  1  0  0  0  0
 25 46  1  0  0  0  0
 25 47  1  0  0  0  0
 26 48  1  0  0  0  0
 26 49  1  0  0  0  0
 27 50  1  0  0  0  0
 28 29  1  0  0  0  0
 28 51  1  0  0  0  0
 29 52  1  0  0  0  0
 30 31  1  0  0  0  0
 30 53  1  0  0  0  0
 31 32  1  0  0  0  0
 32 33  1  0  0  0  0
 32 34  1  0  0  0  0
 32 35  1  0  0  0  0
M  END
$$$$
