CHEMBL1987815
 OpenBabel04072215363D

 25 27  0  0  0  0  0  0  0  0999 V2000
    2.8751    0.8381    1.0448 N   0  0  0  0  0  0  0  0  0  0  0  0
    2.4209   -0.0315    0.0958 C   0  0  0  0  0  0  0  0  0  0  0  0
    1.4644    0.1970   -0.6259 O   0  0  0  0  0  0  0  0  0  0  0  0
    3.2215   -1.3349   -0.0170 C   0  0  0  0  0  0  0  0  0  0  0  0
    2.7764   -2.2838   -1.0764 C   0  0  0  0  0  0  0  0  0  0  0  0
    3.5017   -3.4099   -1.2317 C   0  0  0  0  0  0  0  0  0  0  0  0
    3.1479   -4.3501   -2.2638 C   0  0  0  0  0  0  0  0  0  0  0  0
    3.2394   -5.7363   -2.2598 C   0  0  0  0  0  0  0  0  0  0  0  0
    2.8194   -6.3434   -3.4795 C   0  0  0  0  0  0  0  0  0  0  0  0
    2.4094   -5.4113   -4.4006 C   0  0  0  0  0  0  0  0  0  0  0  0
    2.5512   -3.8216   -3.8055 S   0  0  0  0  0  0  0  0  0  0  0  0
    4.5932   -3.6294   -0.3611 N   0  0  0  0  0  0  0  0  0  0  0  0
    5.4575   -4.6865   -0.3131 N   0  0  0  0  0  0  0  0  0  0  0  0
    6.3017   -4.3989    0.6756 C   0  0  0  0  0  0  0  0  0  0  0  0
    6.0183   -3.1768    1.2946 C   0  0  0  0  0  0  0  0  0  0  0  0
    4.9221   -2.6813    0.6275 C   0  0  0  0  0  0  0  0  0  0  0  0
    4.2272   -1.5161    0.7945 N   0  0  0  0  0  0  0  0  0  0  0  0
    2.4232    1.7337    1.1580 H   0  0  0  0  0  0  0  0  0  0  0  0
    3.6895    0.5976    1.5987 H   0  0  0  0  0  0  0  0  0  0  0  0
    1.9081   -2.0163   -1.6651 H   0  0  0  0  0  0  0  0  0  0  0  0
    3.6060   -6.3032   -1.4109 H   0  0  0  0  0  0  0  0  0  0  0  0
    2.8242   -7.4096   -3.6694 H   0  0  0  0  0  0  0  0  0  0  0  0
    2.0422   -5.5859   -5.4026 H   0  0  0  0  0  0  0  0  0  0  0  0
    7.0961   -5.0983    0.9031 H   0  0  0  0  0  0  0  0  0  0  0  0
    6.5405   -2.7042    2.1130 H   0  0  0  0  0  0  0  0  0  0  0  0
  1  2  1  0  0  0  0
  1 18  1  0  0  0  0
  1 19  1  0  0  0  0
  2  3  2  0  0  0  0
  2  4  1  0  0  0  0
  4  5  1  0  0  0  0
  4 17  2  0  0  0  0
  5  6  2  0  0  0  0
  5 20  1  0  0  0  0
  6  7  1  0  0  0  0
  6 12  1  0  0  0  0
  7  8  2  0  0  0  0
  7 11  1  0  0  0  0
  8  9  1  0  0  0  0
  8 21  1  0  0  0  0
  9 10  2  0  0  0  0
  9 22  1  0  0  0  0
 10 11  1  0  0  0  0
 10 23  1  0  0  0  0
 12 13  1  0  0  0  0
 12 16  1  0  0  0  0
 13 14  2  0  0  0  0
 14 15  1  0  0  0  0
 14 24  1  0  0  0  0
 15 16  2  0  0  0  0
 15 25  1  0  0  0  0
 16 17  1  0  0  0  0
M  END
$$$$
