CHEMBL3892529
 OpenBabel04072215373D

 63 66  0  0  0  0  0  0  0  0999 V2000
    1.5617    2.4405    4.0504 C   0  0  0  0  0  0  0  0  0  0  0  0
    2.1954    3.2064    3.0273 O   0  0  0  0  0  0  0  0  0  0  0  0
    2.9048    2.4978    2.0910 C   0  0  0  0  0  0  0  0  0  0  0  0
    2.6900    1.1538    1.8116 C   0  0  0  0  0  0  0  0  0  0  0  0
    3.4883    0.4958    0.8778 C   0  0  0  0  0  0  0  0  0  0  0  0
    3.1550   -0.8241    0.7209 O   0  0  0  0  0  0  0  0  0  0  0  0
    3.8498   -1.5633   -0.2741 C   0  0  0  0  0  0  0  0  0  0  0  0
    4.5234    1.1954    0.2327 C   0  0  0  0  0  0  0  0  0  0  0  0
    5.3593    0.5053   -0.5596 F   0  0  0  0  0  0  0  0  0  0  0  0
    4.7535    2.5769    0.4328 C   0  0  0  0  0  0  0  0  0  0  0  0
    5.8061    3.2897   -0.2388 N   0  0  0  0  0  0  0  0  0  0  0  0
    6.1349    2.8728   -1.6294 C   0  0  0  0  0  0  0  0  0  0  0  0
    7.6380    2.6439   -1.8722 C   0  0  0  0  0  0  0  0  0  0  0  0
    8.2824    1.4814   -1.1111 C   0  0  0  0  0  0  0  0  0  0  0  0
    9.6991    1.4713   -1.4941 N   0  0  0  0  0  0  0  0  0  0  0  0
   10.4953    0.4020   -0.8524 C   0  0  0  0  0  0  0  0  0  0  0  0
   12.0055    0.4015   -1.2089 C   0  0  0  0  0  0  0  0  0  0  0  0
   12.3497    1.4483   -1.9961 F   0  0  0  0  0  0  0  0  0  0  0  0
   12.7643    0.4828   -0.0897 F   0  0  0  0  0  0  0  0  0  0  0  0
   12.3590   -0.7321   -1.8577 F   0  0  0  0  0  0  0  0  0  0  0  0
    6.4409    4.4825    0.2171 C   0  0  0  0  0  0  0  0  0  0  0  0
    6.7527    4.6440    1.5696 C   0  0  0  0  0  0  0  0  0  0  0  0
    7.4225    5.7802    2.0295 C   0  0  0  0  0  0  0  0  0  0  0  0
    7.8361    6.7754    1.1579 C   0  0  0  0  0  0  0  0  0  0  0  0
    8.5082    7.8402    1.6313 N   0  0  0  0  0  0  0  0  0  0  0  0
    8.9180    8.7457    0.7100 C   0  0  0  0  0  0  0  0  0  0  0  0
    8.6818    8.6051   -0.6492 C   0  0  0  0  0  0  0  0  0  0  0  0
    9.2068    9.5503   -1.6187 C   0  0  0  0  0  0  0  0  0  0  0  0
    9.9576   10.7371   -1.4471 C   0  0  0  0  0  0  0  0  0  0  0  0
   10.2898   11.3157   -2.6035 N   0  0  0  0  0  0  0  0  0  0  0  0
    9.7580   10.4964   -3.5281 N   0  0  0  0  0  0  0  0  0  0  0  0
    9.9450   10.7766   -4.9312 C   0  0  0  0  0  0  0  0  0  0  0  0
    9.0950    9.4318   -2.9909 C   0  0  0  0  0  0  0  0  0  0  0  0
    7.9801    7.5463   -1.1232 N   0  0  0  0  0  0  0  0  0  0  0  0
    7.5569    6.6367   -0.2189 C   0  0  0  0  0  0  0  0  0  0  0  0
    6.8456    5.5181   -0.6484 C   0  0  0  0  0  0  0  0  0  0  0  0
    3.8914    3.2003    1.3714 C   0  0  0  0  0  0  0  0  0  0  0  0
    3.9911    4.5211    1.6021 F   0  0  0  0  0  0  0  0  0  0  0  0
    1.2437    3.1239    4.8440 H   0  0  0  0  0  0  0  0  0  0  0  0
    2.2513    1.7144    4.4987 H   0  0  0  0  0  0  0  0  0  0  0  0
    0.6670    1.9401    3.6641 H   0  0  0  0  0  0  0  0  0  0  0  0
    1.9043    0.5885    2.3041 H   0  0  0  0  0  0  0  0  0  0  0  0
    3.3941   -2.5565   -0.3282 H   0  0  0  0  0  0  0  0  0  0  0  0
    4.8990   -1.6959    0.0063 H   0  0  0  0  0  0  0  0  0  0  0  0
    3.7491   -1.0997   -1.2609 H   0  0  0  0  0  0  0  0  0  0  0  0
    5.7844    3.6494   -2.3221 H   0  0  0  0  0  0  0  0  0  0  0  0
    5.5839    1.9943   -1.9735 H   0  0  0  0  0  0  0  0  0  0  0  0
    8.2035    3.5554   -1.6503 H   0  0  0  0  0  0  0  0  0  0  0  0
    7.7732    2.4733   -2.9487 H   0  0  0  0  0  0  0  0  0  0  0  0
    7.8092    0.5367   -1.3998 H   0  0  0  0  0  0  0  0  0  0  0  0
    8.1747    1.6129   -0.0290 H   0  0  0  0  0  0  0  0  0  0  0  0
   10.1267    2.3762   -1.2816 H   0  0  0  0  0  0  0  0  0  0  0  0
   10.0792   -0.5694   -1.1335 H   0  0  0  0  0  0  0  0  0  0  0  0
   10.4069    0.4944    0.2365 H   0  0  0  0  0  0  0  0  0  0  0  0
    6.4873    3.8757    2.2943 H   0  0  0  0  0  0  0  0  0  0  0  0
    7.6432    5.8820    3.0890 H   0  0  0  0  0  0  0  0  0  0  0  0
    9.4601    9.5907    1.1203 H   0  0  0  0  0  0  0  0  0  0  0  0
   10.2869   11.2068   -0.5296 H   0  0  0  0  0  0  0  0  0  0  0  0
   10.4816   11.7223   -5.0476 H   0  0  0  0  0  0  0  0  0  0  0  0
    8.9630   10.8457   -5.4050 H   0  0  0  0  0  0  0  0  0  0  0  0
   10.5283    9.9625   -5.3685 H   0  0  0  0  0  0  0  0  0  0  0  0
    8.6194    8.6837   -3.6112 H   0  0  0  0  0  0  0  0  0  0  0  0
    6.6290    5.4760   -1.7116 H   0  0  0  0  0  0  0  0  0  0  0  0
  1  2  1  0  0  0  0
  1 39  1  0  0  0  0
  1 40  1  0  0  0  0
  1 41  1  0  0  0  0
  2  3  1  0  0  0  0
  3  4  1  0  0  0  0
  3 37  2  0  0  0  0
  4  5  2  0  0  0  0
  4 42  1  0  0  0  0
  5  6  1  0  0  0  0
  5  8  1  0  0  0  0
  6  7  1  0  0  0  0
  7 43  1  0  0  0  0
  7 44  1  0  0  0  0
  7 45  1  0  0  0  0
  8  9  1  0  0  0  0
  8 10  2  0  0  0  0
 10 11  1  0  0  0  0
 10 37  1  0  0  0  0
 11 12  1  0  0  0  0
 11 21  1  0  0  0  0
 12 13  1  0  0  0  0
 12 46  1  0  0  0  0
 12 47  1  0  0  0  0
 13 14  1  0  0  0  0
 13 48  1  0  0  0  0
 13 49  1  0  0  0  0
 14 15  1  0  0  0  0
 14 50  1  0  0  0  0
 14 51  1  0  0  0  0
 15 16  1  0  0  0  0
 15 52  1  0  0  0  0
 16 17  1  0  0  0  0
 16 53  1  0  0  0  0
 16 54  1  0  0  0  0
 17 18  1  0  0  0  0
 17 19  1  0  0  0  0
 17 20  1  0  0  0  0
 21 22  1  0  0  0  0
 21 36  2  0  0  0  0
 22 23  2  0  0  0  0
 22 55  1  0  0  0  0
 23 24  1  0  0  0  0
 23 56  1  0  0  0  0
 24 25  1  0  0  0  0
 24 35  2  0  0  0  0
 25 26  2  0  0  0  0
 26 27  1  0  0  0  0
 26 57  1  0  0  0  0
 27 28  1  0  0  0  0
 27 34  2  0  0  0  0
 28 29  1  0  0  0  0
 28 33  2  0  0  0  0
 29 30  2  0  0  0  0
 29 58  1  0  0  0  0
 30 31  1  0  0  0  0
 31 32  1  0  0  0  0
 31 33  1  0  0  0  0
 32 59  1  0  0  0  0
 32 60  1  0  0  0  0
 32 61  1  0  0  0  0
 33 62  1  0  0  0  0
 34 35  1  0  0  0  0
 35 36  1  0  0  0  0
 36 63  1  0  0  0  0
 37 38  1  0  0  0  0
M  END
$$$$
