CHEMBL507936
 OpenBabel04072215383D

 47 50  0  0  0  0  0  0  0  0999 V2000
    2.4416   -0.4397    1.2483 C   0  0  0  0  0  0  0  0  0  0  0  0
    0.9434   -0.3153    1.2903 C   0  0  0  0  0  0  0  0  0  0  0  0
    0.3695    0.8774    1.7304 C   0  0  0  0  0  0  0  0  0  0  0  0
   -1.0166    1.0039    1.7753 C   0  0  0  0  0  0  0  0  0  0  0  0
   -1.8255   -0.0660    1.3950 C   0  0  0  0  0  0  0  0  0  0  0  0
   -1.2772   -1.2735    0.9430 C   0  0  0  0  0  0  0  0  0  0  0  0
   -2.0740   -2.3876    0.5591 N   0  0  0  0  0  0  0  0  0  0  0  0
   -3.4538   -2.3766    0.4553 C   0  0  0  0  0  0  0  0  0  0  0  0
   -4.1511   -1.3745    0.5766 O   0  0  0  0  0  0  0  0  0  0  0  0
   -3.9961   -3.6398    0.2281 N   0  0  0  0  0  0  0  0  0  0  0  0
   -5.4050   -3.7624    0.0983 C   0  0  0  0  0  0  0  0  0  0  0  0
   -6.1142   -2.8460   -0.6715 C   0  0  0  0  0  0  0  0  0  0  0  0
   -7.5043   -2.8766   -0.6995 C   0  0  0  0  0  0  0  0  0  0  0  0
   -8.2510   -3.8727   -0.0370 C   0  0  0  0  0  0  0  0  0  0  0  0
   -9.7171   -3.9439   -0.3071 C   0  0  0  0  0  0  0  0  0  0  0  0
  -10.0994   -3.7067   -1.6430 C   0  0  0  0  0  0  0  0  0  0  0  0
  -11.4236   -3.6544   -2.0421 C   0  0  0  0  0  0  0  0  0  0  0  0
  -12.4355   -3.9244   -1.1589 C   0  0  0  0  0  0  0  0  0  0  0  0
  -13.6823   -3.8996   -1.6577 N   0  0  0  0  0  0  0  0  0  0  0  0
  -14.6670   -4.2312   -0.8082 C   0  0  0  0  0  0  0  0  0  0  0  0
  -14.4081   -4.5662    0.5045 C   0  0  0  0  0  0  0  0  0  0  0  0
  -13.1564   -4.5590    1.0322 N   0  0  0  0  0  0  0  0  0  0  0  0
  -12.1311   -4.2392    0.1904 C   0  0  0  0  0  0  0  0  0  0  0  0
  -10.7613   -4.1867    0.6216 C   0  0  0  0  0  0  0  0  0  0  0  0
  -10.4677   -4.5468    1.9734 N   0  0  0  0  0  0  0  0  0  0  0  0
   -7.5220   -4.7989    0.7269 C   0  0  0  0  0  0  0  0  0  0  0  0
   -6.1094   -4.7536    0.7846 C   0  0  0  0  0  0  0  0  0  0  0  0
    0.1184   -1.3890    0.8960 C   0  0  0  0  0  0  0  0  0  0  0  0
    2.9248    0.4704    1.6265 H   0  0  0  0  0  0  0  0  0  0  0  0
    2.7824   -0.5932    0.2209 H   0  0  0  0  0  0  0  0  0  0  0  0
    2.7730   -1.2716    1.8764 H   0  0  0  0  0  0  0  0  0  0  0  0
    0.9848    1.7214    2.0330 H   0  0  0  0  0  0  0  0  0  0  0  0
   -1.4747    1.9300    2.1138 H   0  0  0  0  0  0  0  0  0  0  0  0
   -2.8935    0.0965    1.4698 H   0  0  0  0  0  0  0  0  0  0  0  0
   -1.5916   -3.2019    0.2092 H   0  0  0  0  0  0  0  0  0  0  0  0
   -3.5070   -4.4058    0.6660 H   0  0  0  0  0  0  0  0  0  0  0  0
   -5.6004   -2.0816   -1.2509 H   0  0  0  0  0  0  0  0  0  0  0  0
   -8.0023   -2.1049   -1.2847 H   0  0  0  0  0  0  0  0  0  0  0  0
   -9.3485   -3.5487   -2.4122 H   0  0  0  0  0  0  0  0  0  0  0  0
  -11.6624   -3.4267   -3.0769 H   0  0  0  0  0  0  0  0  0  0  0  0
  -15.6694   -4.2193   -1.2214 H   0  0  0  0  0  0  0  0  0  0  0  0
  -15.2133   -4.8653    1.1671 H   0  0  0  0  0  0  0  0  0  0  0  0
  -11.3037   -4.4486    2.5545 H   0  0  0  0  0  0  0  0  0  0  0  0
   -9.6646   -4.0518    2.3512 H   0  0  0  0  0  0  0  0  0  0  0  0
   -8.0387   -5.5842    1.2756 H   0  0  0  0  0  0  0  0  0  0  0  0
   -5.5834   -5.4730    1.4056 H   0  0  0  0  0  0  0  0  0  0  0  0
    0.5829   -2.3104    0.5558 H   0  0  0  0  0  0  0  0  0  0  0  0
  1  2  1  0  0  0  0
  1 29  1  0  0  0  0
  1 30  1  0  0  0  0
  1 31  1  0  0  0  0
  2  3  1  0  0  0  0
  2 28  2  0  0  0  0
  3  4  2  0  0  0  0
  3 32  1  0  0  0  0
  4  5  1  0  0  0  0
  4 33  1  0  0  0  0
  5  6  2  0  0  0  0
  5 34  1  0  0  0  0
  6  7  1  0  0  0  0
  6 28  1  0  0  0  0
  7  8  1  0  0  0  0
  7 35  1  0  0  0  0
  8  9  2  0  0  0  0
  8 10  1  0  0  0  0
 10 11  1  0  0  0  0
 10 36  1  0  0  0  0
 11 12  1  0  0  0  0
 11 27  2  0  0  0  0
 12 13  2  0  0  0  0
 12 37  1  0  0  0  0
 13 14  1  0  0  0  0
 13 38  1  0  0  0  0
 14 15  1  0  0  0  0
 14 26  2  0  0  0  0
 15 16  1  0  0  0  0
 15 24  2  0  0  0  0
 16 17  2  0  0  0  0
 16 39  1  0  0  0  0
 17 18  1  0  0  0  0
 17 40  1  0  0  0  0
 18 19  1  0  0  0  0
 18 23  2  0  0  0  0
 19 20  2  0  0  0  0
 20 21  1  0  0  0  0
 20 41  1  0  0  0  0
 21 22  2  0  0  0  0
 21 42  1  0  0  0  0
 22 23  1  0  0  0  0
 23 24  1  0  0  0  0
 24 25  1  0  0  0  0
 25 43  1  0  0  0  0
 25 44  1  0  0  0  0
 26 27  1  0  0  0  0
 26 45  1  0  0  0  0
 27 46  1  0  0  0  0
 28 47  1  0  0  0  0
M  END
$$$$
