CHEMBL194042
 OpenBabel04072215363D

 48 51  0  0  0  0  0  0  0  0999 V2000
    1.2223   -0.0909   -2.2977 C   0  0  0  0  0  0  0  0  0  0  0  0
    2.6410   -0.2379   -2.2151 O   0  0  0  0  0  0  0  0  0  0  0  0
    3.0705   -0.8921   -1.1086 C   0  0  0  0  0  0  0  0  0  0  0  0
    2.3656   -1.3492   -0.2262 O   0  0  0  0  0  0  0  0  0  0  0  0
    4.5595   -0.9543   -1.0863 C   0  0  0  0  0  0  0  0  0  0  0  0
    5.1792   -1.6120   -0.0241 C   0  0  0  0  0  0  0  0  0  0  0  0
    6.5792   -1.6653    0.0606 C   0  0  0  0  0  0  0  0  0  0  0  0
    7.4125   -1.0003   -0.8595 C   0  0  0  0  0  0  0  0  0  0  0  0
    8.9026   -0.9625   -0.7333 C   0  0  0  0  0  0  0  0  0  0  0  0
    9.5505   -0.9197   -1.9198 N   0  0  0  0  0  0  0  0  0  0  0  0
   10.9270   -0.9365   -1.9856 N   0  0  0  0  0  0  0  0  0  0  0  0
   11.6778   -1.0546   -0.8723 C   0  0  0  0  0  0  0  0  0  0  0  0
   13.1040   -1.1052   -0.9713 N   0  0  0  0  0  0  0  0  0  0  0  0
   13.8735   -0.5868   -2.0477 C   0  0  0  0  0  0  0  0  0  0  0  0
   13.5434    0.6036   -2.7050 C   0  0  0  0  0  0  0  0  0  0  0  0
   14.3967    1.1606   -3.6693 C   0  0  0  0  0  0  0  0  0  0  0  0
   15.6045    0.5398   -3.9792 C   0  0  0  0  0  0  0  0  0  0  0  0
   16.4879    0.9255   -4.9445 O   0  0  0  0  0  0  0  0  0  0  0  0
   16.5315    2.3004   -5.3062 C   0  0  0  0  0  0  0  0  0  0  0  0
   15.3461    2.6976   -5.8288 F   0  0  0  0  0  0  0  0  0  0  0  0
   16.7848    3.0526   -4.2068 F   0  0  0  0  0  0  0  0  0  0  0  0
   17.8071    2.5474   -6.5064 Cl  0  0  0  0  0  0  0  0  0  0  0  0
   15.9585   -0.6264   -3.2967 C   0  0  0  0  0  0  0  0  0  0  0  0
   15.1152   -1.1683   -2.3212 C   0  0  0  0  0  0  0  0  0  0  0  0
   11.0532   -1.1727    0.3941 C   0  0  0  0  0  0  0  0  0  0  0  0
   11.7767   -1.4187    1.5920 C   0  0  0  0  0  0  0  0  0  0  0  0
   11.1622   -1.4057    2.8427 C   0  0  0  0  0  0  0  0  0  0  0  0
    9.8220   -1.0974    2.9373 C   0  0  0  0  0  0  0  0  0  0  0  0
    9.0785   -0.8953    1.7722 C   0  0  0  0  0  0  0  0  0  0  0  0
    9.6451   -1.0126    0.4742 C   0  0  0  0  0  0  0  0  0  0  0  0
    6.7633   -0.3966   -1.9565 C   0  0  0  0  0  0  0  0  0  0  0  0
    5.3623   -0.3783   -2.0767 C   0  0  0  0  0  0  0  0  0  0  0  0
    0.9788    0.2817   -3.2970 H   0  0  0  0  0  0  0  0  0  0  0  0
    0.8788    0.6417   -1.5606 H   0  0  0  0  0  0  0  0  0  0  0  0
    0.7146   -1.0502   -2.1560 H   0  0  0  0  0  0  0  0  0  0  0  0
    4.5799   -2.0918    0.7477 H   0  0  0  0  0  0  0  0  0  0  0  0
    7.0000   -2.2493    0.8762 H   0  0  0  0  0  0  0  0  0  0  0  0
   13.4844   -0.6642   -0.1374 H   0  0  0  0  0  0  0  0  0  0  0  0
   12.6108    1.1164   -2.4796 H   0  0  0  0  0  0  0  0  0  0  0  0
   14.0623    2.0661   -4.1652 H   0  0  0  0  0  0  0  0  0  0  0  0
   16.9025   -1.1190   -3.5186 H   0  0  0  0  0  0  0  0  0  0  0  0
   15.4245   -2.0653   -1.7903 H   0  0  0  0  0  0  0  0  0  0  0  0
   12.8402   -1.6439    1.5677 H   0  0  0  0  0  0  0  0  0  0  0  0
   11.7426   -1.6066    3.7403 H   0  0  0  0  0  0  0  0  0  0  0  0
    9.3343   -1.0368    3.9069 H   0  0  0  0  0  0  0  0  0  0  0  0
    8.0352   -0.6183    1.9013 H   0  0  0  0  0  0  0  0  0  0  0  0
    7.3509    0.0718   -2.7460 H   0  0  0  0  0  0  0  0  0  0  0  0
    4.9188    0.1018   -2.9465 H   0  0  0  0  0  0  0  0  0  0  0  0
  1  2  1  0  0  0  0
  1 33  1  0  0  0  0
  1 34  1  0  0  0  0
  1 35  1  0  0  0  0
  2  3  1  0  0  0  0
  3  4  2  0  0  0  0
  3  5  1  0  0  0  0
  5  6  1  0  0  0  0
  5 32  2  0  0  0  0
  6  7  2  0  0  0  0
  6 36  1  0  0  0  0
  7  8  1  0  0  0  0
  7 37  1  0  0  0  0
  8  9  1  0  0  0  0
  8 31  2  0  0  0  0
  9 10  1  0  0  0  0
  9 30  2  0  0  0  0
 10 11  2  0  0  0  0
 11 12  1  0  0  0  0
 12 13  1  0  0  0  0
 12 25  2  0  0  0  0
 13 14  1  0  0  0  0
 13 38  1  0  0  0  0
 14 15  1  0  0  0  0
 14 24  2  0  0  0  0
 15 16  2  0  0  0  0
 15 39  1  0  0  0  0
 16 17  1  0  0  0  0
 16 40  1  0  0  0  0
 17 18  1  0  0  0  0
 17 23  2  0  0  0  0
 18 19  1  0  0  0  0
 19 20  1  0  0  0  0
 19 21  1  0  0  0  0
 19 22  1  0  0  0  0
 23 24  1  0  0  0  0
 23 41  1  0  0  0  0
 24 42  1  0  0  0  0
 25 26  1  0  0  0  0
 25 30  1  0  0  0  0
 26 27  2  0  0  0  0
 26 43  1  0  0  0  0
 27 28  1  0  0  0  0
 27 44  1  0  0  0  0
 28 29  2  0  0  0  0
 28 45  1  0  0  0  0
 29 30  1  0  0  0  0
 29 46  1  0  0  0  0
 31 32  1  0  0  0  0
 31 47  1  0  0  0  0
 32 48  1  0  0  0  0
M  END
$$$$
