CHEMBL3288503
 OpenBabel04072215363D

 50 54  0  0  0  0  0  0  0  0999 V2000
    5.3142   -4.2931   -3.1588 C   0  0  0  0  0  0  0  0  0  0  0  0
    3.8269   -4.2211   -3.3519 C   0  0  0  0  0  0  0  0  0  0  0  0
    3.2912   -4.7369   -4.5517 C   0  0  0  0  0  0  0  0  0  0  0  0
    1.9180   -4.7614   -4.7856 C   0  0  0  0  0  0  0  0  0  0  0  0
    1.0593   -4.2737   -3.8178 C   0  0  0  0  0  0  0  0  0  0  0  0
    1.5796   -3.7275   -2.6430 C   0  0  0  0  0  0  0  0  0  0  0  0
    2.9654   -3.6593   -2.3935 C   0  0  0  0  0  0  0  0  0  0  0  0
    3.5133   -3.0060   -1.2450 N   0  0  0  0  0  0  0  0  0  0  0  0
    2.7515   -2.5024   -0.2102 C   0  0  0  0  0  0  0  0  0  0  0  0
    1.5555   -2.7492   -0.0751 O   0  0  0  0  0  0  0  0  0  0  0  0
    3.3630   -1.6564    0.8622 C   0  0  0  0  0  0  0  0  0  0  0  0
    2.3476   -1.1175    1.7208 C   0  0  0  0  0  0  0  0  0  0  0  0
    2.6360   -0.1780    2.6891 C   0  0  0  0  0  0  0  0  0  0  0  0
    3.9428   -0.0433    3.0390 C   0  0  0  0  0  0  0  0  0  0  0  0
    4.8625   -0.9052    2.4454 C   0  0  0  0  0  0  0  0  0  0  0  0
    6.0514   -1.1773    3.0570 C   0  0  0  0  0  0  0  0  0  0  0  0
    6.9632   -0.2509    2.6751 C   0  0  0  0  0  0  0  0  0  0  0  0
    7.3426    0.6807    3.7832 C   0  0  0  0  0  0  0  0  0  0  0  0
    6.8270    0.3603    5.1061 C   0  0  0  0  0  0  0  0  0  0  0  0
    6.9166    1.1614    6.2353 C   0  0  0  0  0  0  0  0  0  0  0  0
    7.6031    2.3490    6.1495 C   0  0  0  0  0  0  0  0  0  0  0  0
    8.1349    2.6890    4.9005 C   0  0  0  0  0  0  0  0  0  0  0  0
    8.8525    3.8003    4.5601 N   0  0  0  0  0  0  0  0  0  0  0  0
    9.1403    3.8897    3.2622 N   0  0  0  0  0  0  0  0  0  0  0  0
    8.6081    2.7816    2.7416 C   0  0  0  0  0  0  0  0  0  0  0  0
    8.6920    2.5393    1.4282 N   0  0  0  0  0  0  0  0  0  0  0  0
    7.9963    1.9385    3.7159 C   0  0  0  0  0  0  0  0  0  0  0  0
    7.1398   -0.3927    1.2933 C   0  0  0  0  0  0  0  0  0  0  0  0
    6.0765   -1.0722    0.5184 C   0  0  0  0  0  0  0  0  0  0  0  0
    4.7469   -1.2915    1.1411 C   0  0  0  0  0  0  0  0  0  0  0  0
    5.7648   -5.0046   -3.8593 H   0  0  0  0  0  0  0  0  0  0  0  0
    5.5561   -4.6527   -2.1534 H   0  0  0  0  0  0  0  0  0  0  0  0
    5.7658   -3.3111   -3.3210 H   0  0  0  0  0  0  0  0  0  0  0  0
    3.9514   -5.1350   -5.3185 H   0  0  0  0  0  0  0  0  0  0  0  0
    1.5202   -5.1656   -5.7112 H   0  0  0  0  0  0  0  0  0  0  0  0
   -0.0176   -4.2980   -3.9657 H   0  0  0  0  0  0  0  0  0  0  0  0
    0.8408   -3.3485   -1.9456 H   0  0  0  0  0  0  0  0  0  0  0  0
    4.5135   -2.9125   -1.1834 H   0  0  0  0  0  0  0  0  0  0  0  0
    1.3005   -1.3857    1.6007 H   0  0  0  0  0  0  0  0  0  0  0  0
    1.8609    0.3725    3.2098 H   0  0  0  0  0  0  0  0  0  0  0  0
    4.2439    0.6504    3.8163 H   0  0  0  0  0  0  0  0  0  0  0  0
    6.4132   -2.2114    2.8835 H   0  0  0  0  0  0  0  0  0  0  0  0
    6.2611   -0.5609    5.2658 H   0  0  0  0  0  0  0  0  0  0  0  0
    6.4420    0.8452    7.1619 H   0  0  0  0  0  0  0  0  0  0  0  0
    7.7032    2.9882    7.0203 H   0  0  0  0  0  0  0  0  0  0  0  0
    9.1658    4.5375    5.1858 H   0  0  0  0  0  0  0  0  0  0  0  0
    9.1137    3.2817    0.8812 H   0  0  0  0  0  0  0  0  0  0  0  0
    7.9038    2.1068    0.9668 H   0  0  0  0  0  0  0  0  0  0  0  0
    8.0008    0.0190    0.7773 H   0  0  0  0  0  0  0  0  0  0  0  0
    6.2168   -1.2172   -0.5517 H   0  0  0  0  0  0  0  0  0  0  0  0
  1  2  1  0  0  0  0
  1 31  1  0  0  0  0
  1 32  1  0  0  0  0
  1 33  1  0  0  0  0
  2  3  1  0  0  0  0
  2  7  2  0  0  0  0
  3  4  2  0  0  0  0
  3 34  1  0  0  0  0
  4  5  1  0  0  0  0
  4 35  1  0  0  0  0
  5  6  2  0  0  0  0
  5 36  1  0  0  0  0
  6  7  1  0  0  0  0
  6 37  1  0  0  0  0
  7  8  1  0  0  0  0
  8  9  1  0  0  0  0
  8 38  1  0  0  0  0
  9 10  2  0  0  0  0
  9 11  1  0  0  0  0
 11 12  1  0  0  0  0
 11 30  2  0  0  0  0
 12 13  2  0  0  0  0
 12 39  1  0  0  0  0
 13 14  1  0  0  0  0
 13 40  1  0  0  0  0
 14 15  2  0  0  0  0
 14 41  1  0  0  0  0
 15 16  1  0  0  0  0
 15 30  1  0  0  0  0
 16 17  2  0  0  0  0
 16 42  1  0  0  0  0
 17 18  1  0  0  0  0
 17 28  1  0  0  0  0
 18 19  1  0  0  0  0
 18 27  2  0  0  0  0
 19 20  2  0  0  0  0
 19 43  1  0  0  0  0
 20 21  1  0  0  0  0
 20 44  1  0  0  0  0
 21 22  2  0  0  0  0
 21 45  1  0  0  0  0
 22 23  1  0  0  0  0
 22 27  1  0  0  0  0
 23 24  1  0  0  0  0
 23 46  1  0  0  0  0
 24 25  2  0  0  0  0
 25 26  1  0  0  0  0
 25 27  1  0  0  0  0
 26 47  1  0  0  0  0
 26 48  1  0  0  0  0
 28 29  2  0  0  0  0
 28 49  1  0  0  0  0
 29 30  1  0  0  0  0
 29 50  1  0  0  0  0
M  END
$$$$
