CHEMBL240607
 OpenBabel04072215363D

 39 41  0  0  0  0  0  0  0  0999 V2000
    2.3580    0.0284    0.0284 C   0  0  0  0  0  0  0  0  0  0  0  0
    0.8892   -0.1573    0.0520 C   0  0  0  0  0  0  0  0  0  0  0  0
    0.0999    0.9214    0.0914 N   0  0  0  0  0  0  0  0  0  0  0  0
   -1.1893    0.4445   -0.0043 O   0  0  0  0  0  0  0  0  0  0  0  0
   -1.1798   -0.9146   -0.0876 C   0  0  0  0  0  0  0  0  0  0  0  0
   -2.3659   -1.5628   -0.1757 N   0  0  0  0  0  0  0  0  0  0  0  0
   -3.5535   -0.8924   -0.6805 C   0  0  0  0  0  0  0  0  0  0  0  0
   -3.7914   -1.0814   -2.1650 C   0  0  0  0  0  0  0  0  0  0  0  0
   -3.0225   -1.9149   -2.9826 C   0  0  0  0  0  0  0  0  0  0  0  0
   -3.3521   -2.0255   -4.3288 C   0  0  0  0  0  0  0  0  0  0  0  0
   -4.3843   -1.3771   -4.9105 N   0  0  0  0  0  0  0  0  0  0  0  0
   -5.1172   -0.5775   -4.1119 C   0  0  0  0  0  0  0  0  0  0  0  0
   -4.8715   -0.4049   -2.7581 C   0  0  0  0  0  0  0  0  0  0  0  0
    0.1279   -1.3571   -0.0256 C   0  0  0  0  0  0  0  0  0  0  0  0
    0.5462   -2.7408   -0.1279 C   0  0  0  0  0  0  0  0  0  0  0  0
   -0.0612   -3.5341   -0.8419 O   0  0  0  0  0  0  0  0  0  0  0  0
    1.6028   -3.0976    0.7096 N   0  0  0  0  0  0  0  0  0  0  0  0
    2.0638   -4.4316    0.7749 C   0  0  0  0  0  0  0  0  0  0  0  0
    2.3363   -5.1664   -0.3838 C   0  0  0  0  0  0  0  0  0  0  0  0
    2.7270   -6.5060   -0.2962 C   0  0  0  0  0  0  0  0  0  0  0  0
    2.8192   -7.1282    0.9503 C   0  0  0  0  0  0  0  0  0  0  0  0
    3.2362   -8.8041    0.9863 Cl  0  0  0  0  0  0  0  0  0  0  0  0
    2.5642   -6.3897    2.1118 C   0  0  0  0  0  0  0  0  0  0  0  0
    2.6060   -7.1041    3.6859 Cl  0  0  0  0  0  0  0  0  0  0  0  0
    2.2239   -5.0324    2.0249 C   0  0  0  0  0  0  0  0  0  0  0  0
    2.6230    1.0904   -0.0279 H   0  0  0  0  0  0  0  0  0  0  0  0
    2.7914   -0.4671   -0.8458 H   0  0  0  0  0  0  0  0  0  0  0  0
    2.8158   -0.3840    0.9317 H   0  0  0  0  0  0  0  0  0  0  0  0
   -2.3641   -2.5731   -0.3058 H   0  0  0  0  0  0  0  0  0  0  0  0
   -3.5330    0.1833   -0.4597 H   0  0  0  0  0  0  0  0  0  0  0  0
   -4.4197   -1.3024   -0.1471 H   0  0  0  0  0  0  0  0  0  0  0  0
   -2.1726   -2.4719   -2.6016 H   0  0  0  0  0  0  0  0  0  0  0  0
   -2.7724   -2.6633   -4.9901 H   0  0  0  0  0  0  0  0  0  0  0  0
   -5.9423   -0.0681   -4.6010 H   0  0  0  0  0  0  0  0  0  0  0  0
   -5.5059    0.2552   -2.1795 H   0  0  0  0  0  0  0  0  0  0  0  0
    1.7107   -2.5283    1.5417 H   0  0  0  0  0  0  0  0  0  0  0  0
    2.2555   -4.7059   -1.3666 H   0  0  0  0  0  0  0  0  0  0  0  0
    2.9371   -7.0632   -1.2068 H   0  0  0  0  0  0  0  0  0  0  0  0
    2.0074   -4.4790    2.9345 H   0  0  0  0  0  0  0  0  0  0  0  0
  1  2  1  0  0  0  0
  1 26  1  0  0  0  0
  1 27  1  0  0  0  0
  1 28  1  0  0  0  0
  2  3  2  0  0  0  0
  2 14  1  0  0  0  0
  3  4  1  0  0  0  0
  4  5  1  0  0  0  0
  5  6  1  0  0  0  0
  5 14  2  0  0  0  0
  6  7  1  0  0  0  0
  6 29  1  0  0  0  0
  7  8  1  0  0  0  0
  7 30  1  0  0  0  0
  7 31  1  0  0  0  0
  8  9  1  0  0  0  0
  8 13  2  0  0  0  0
  9 10  2  0  0  0  0
  9 32  1  0  0  0  0
 10 11  1  0  0  0  0
 10 33  1  0  0  0  0
 11 12  2  0  0  0  0
 12 13  1  0  0  0  0
 12 34  1  0  0  0  0
 13 35  1  0  0  0  0
 14 15  1  0  0  0  0
 15 16  2  0  0  0  0
 15 17  1  0  0  0  0
 17 18  1  0  0  0  0
 17 36  1  0  0  0  0
 18 19  1  0  0  0  0
 18 25  2  0  0  0  0
 19 20  2  0  0  0  0
 19 37  1  0  0  0  0
 20 21  1  0  0  0  0
 20 38  1  0  0  0  0
 21 22  1  0  0  0  0
 21 23  2  0  0  0  0
 23 24  1  0  0  0  0
 23 25  1  0  0  0  0
 25 39  1  0  0  0  0
M  END
$$$$
