CHEMBL2148120
 OpenBabel04072215363D

 67 72  0  0  0  0  0  0  0  0999 V2000
    1.3902   -2.3306    0.3726 C   0  0  0  0  0  0  0  0  0  0  0  0
    1.0510   -0.9774    0.9147 C   0  0  0  0  0  0  0  0  0  0  0  0
    1.5074    0.0991    0.2322 N   0  0  0  0  0  0  0  0  0  0  0  0
    1.1878    1.3054    0.7162 C   0  0  0  0  0  0  0  0  0  0  0  0
    1.5872    2.4276   -0.0277 N   0  0  0  0  0  0  0  0  0  0  0  0
    0.9997    3.6493    0.0197 C   0  0  0  0  0  0  0  0  0  0  0  0
    0.1972    4.0598    0.9769 N   0  0  0  0  0  0  0  0  0  0  0  0
   -0.3413    5.2810    0.6873 C   0  0  0  0  0  0  0  0  0  0  0  0
   -1.2808    5.9848    1.4452 C   0  0  0  0  0  0  0  0  0  0  0  0
   -1.7035    7.2162    0.9571 C   0  0  0  0  0  0  0  0  0  0  0  0
   -1.1942    7.7009   -0.2525 C   0  0  0  0  0  0  0  0  0  0  0  0
   -1.6248    9.0044   -0.8020 C   0  0  0  0  0  0  0  0  0  0  0  0
   -2.9046    9.5387   -0.5532 C   0  0  0  0  0  0  0  0  0  0  0  0
   -3.2843   10.7843   -1.0586 C   0  0  0  0  0  0  0  0  0  0  0  0
   -2.3925   11.5148   -1.8364 C   0  0  0  0  0  0  0  0  0  0  0  0
   -1.1228   11.0002   -2.1195 C   0  0  0  0  0  0  0  0  0  0  0  0
   -0.1855   11.8182   -2.9313 C   0  0  0  0  0  0  0  0  0  0  0  0
   -0.2843   13.0404   -2.8548 O   0  0  0  0  0  0  0  0  0  0  0  0
    0.6795   11.1104   -3.7506 N   0  0  0  0  0  0  0  0  0  0  0  0
    1.6628   11.6698   -4.5955 C   0  0  0  0  0  0  0  0  0  0  0  0
    2.0970   12.9920   -4.4876 C   0  0  0  0  0  0  0  0  0  0  0  0
    3.0345   13.5107   -5.3814 C   0  0  0  0  0  0  0  0  0  0  0  0
    3.5576   12.7070   -6.3894 C   0  0  0  0  0  0  0  0  0  0  0  0
    3.1681   11.3656   -6.4966 C   0  0  0  0  0  0  0  0  0  0  0  0
    3.7413   10.4828   -7.5768 C   0  0  0  0  0  0  0  0  0  0  0  0
    4.6339   11.1193   -8.3859 F   0  0  0  0  0  0  0  0  0  0  0  0
    4.4020    9.4047   -7.0705 F   0  0  0  0  0  0  0  0  0  0  0  0
    2.7837    9.9790   -8.4034 F   0  0  0  0  0  0  0  0  0  0  0  0
    2.2241   10.8523   -5.5853 C   0  0  0  0  0  0  0  0  0  0  0  0
   -0.7427    9.7602   -1.5954 C   0  0  0  0  0  0  0  0  0  0  0  0
   -0.2705    7.0389   -1.0044 N   0  0  0  0  0  0  0  0  0  0  0  0
    0.1073    5.8509   -0.4914 C   0  0  0  0  0  0  0  0  0  0  0  0
    1.2344    4.8110   -1.2441 S   0  0  0  0  0  0  0  0  0  0  0  0
    0.4867    1.4099    1.8976 C   0  0  0  0  0  0  0  0  0  0  0  0
    0.0665    0.2693    2.5496 C   0  0  0  0  0  0  0  0  0  0  0  0
   -0.6481    0.4539    3.7256 N   0  0  0  0  0  0  0  0  0  0  0  0
   -1.6112   -0.5524    4.1614 C   0  0  0  0  0  0  0  0  0  0  0  0
   -2.5808    0.1333    5.1686 C   0  0  0  0  0  0  0  0  0  0  0  0
   -1.9110    0.8087    6.3095 N   0  0  0  0  0  0  0  0  0  0  0  0
   -0.8671    1.7260    5.7997 C   0  0  0  0  0  0  0  0  0  0  0  0
    0.1207    1.0438    4.8303 C   0  0  0  0  0  0  0  0  0  0  0  0
    0.3174   -0.9408    2.0456 N   0  0  0  0  0  0  0  0  0  0  0  0
    2.0218   -2.2526   -0.5174 H   0  0  0  0  0  0  0  0  0  0  0  0
    0.4741   -2.8643    0.1038 H   0  0  0  0  0  0  0  0  0  0  0  0
    1.9293   -2.9080    1.1296 H   0  0  0  0  0  0  0  0  0  0  0  0
    2.0841    2.1422   -0.8612 H   0  0  0  0  0  0  0  0  0  0  0  0
   -1.6639    5.5760    2.3737 H   0  0  0  0  0  0  0  0  0  0  0  0
   -2.4183    7.7875    1.5412 H   0  0  0  0  0  0  0  0  0  0  0  0
   -3.6350    8.9895    0.0389 H   0  0  0  0  0  0  0  0  0  0  0  0
   -4.2723   11.1833   -0.8404 H   0  0  0  0  0  0  0  0  0  0  0  0
   -2.6870   12.4892   -2.2232 H   0  0  0  0  0  0  0  0  0  0  0  0
    0.5081   10.1183   -3.8559 H   0  0  0  0  0  0  0  0  0  0  0  0
    1.7281   13.6475   -3.7039 H   0  0  0  0  0  0  0  0  0  0  0  0
    3.3484   14.5474   -5.2878 H   0  0  0  0  0  0  0  0  0  0  0  0
    4.2738   13.1340   -7.0903 H   0  0  0  0  0  0  0  0  0  0  0  0
    1.9136    9.8130   -5.6800 H   0  0  0  0  0  0  0  0  0  0  0  0
    0.2637    9.3823   -1.7682 H   0  0  0  0  0  0  0  0  0  0  0  0
    0.2193    2.3609    2.3306 H   0  0  0  0  0  0  0  0  0  0  0  0
   -1.1030   -1.3969    4.6421 H   0  0  0  0  0  0  0  0  0  0  0  0
   -2.1981   -0.9348    3.3174 H   0  0  0  0  0  0  0  0  0  0  0  0
   -3.2789   -0.6084    5.5660 H   0  0  0  0  0  0  0  0  0  0  0  0
   -3.1828    0.8798    4.6375 H   0  0  0  0  0  0  0  0  0  0  0  0
   -1.4482    0.0890    6.8652 H   0  0  0  0  0  0  0  0  0  0  0  0
   -0.3126    2.1432    6.6458 H   0  0  0  0  0  0  0  0  0  0  0  0
   -1.3506    2.5703    5.2899 H   0  0  0  0  0  0  0  0  0  0  0  0
    0.6816    0.2576    5.3523 H   0  0  0  0  0  0  0  0  0  0  0  0
    0.8487    1.7897    4.4913 H   0  0  0  0  0  0  0  0  0  0  0  0
  1  2  1  0  0  0  0
  1 43  1  0  0  0  0
  1 44  1  0  0  0  0
  1 45  1  0  0  0  0
  2  3  1  0  0  0  0
  2 42  2  0  0  0  0
  3  4  2  0  0  0  0
  4  5  1  0  0  0  0
  4 34  1  0  0  0  0
  5  6  1  0  0  0  0
  5 46  1  0  0  0  0
  6  7  2  0  0  0  0
  6 33  1  0  0  0  0
  7  8  1  0  0  0  0
  8  9  1  0  0  0  0
  8 32  2  0  0  0  0
  9 10  2  0  0  0  0
  9 47  1  0  0  0  0
 10 11  1  0  0  0  0
 10 48  1  0  0  0  0
 11 12  1  0  0  0  0
 11 31  2  0  0  0  0
 12 13  1  0  0  0  0
 12 30  2  0  0  0  0
 13 14  2  0  0  0  0
 13 49  1  0  0  0  0
 14 15  1  0  0  0  0
 14 50  1  0  0  0  0
 15 16  2  0  0  0  0
 15 51  1  0  0  0  0
 16 17  1  0  0  0  0
 16 30  1  0  0  0  0
 17 18  2  0  0  0  0
 17 19  1  0  0  0  0
 19 20  1  0  0  0  0
 19 52  1  0  0  0  0
 20 21  1  0  0  0  0
 20 29  2  0  0  0  0
 21 22  2  0  0  0  0
 21 53  1  0  0  0  0
 22 23  1  0  0  0  0
 22 54  1  0  0  0  0
 23 24  2  0  0  0  0
 23 55  1  0  0  0  0
 24 25  1  0  0  0  0
 24 29  1  0  0  0  0
 25 26  1  0  0  0  0
 25 27  1  0  0  0  0
 25 28  1  0  0  0  0
 29 56  1  0  0  0  0
 30 57  1  0  0  0  0
 31 32  1  0  0  0  0
 32 33  1  0  0  0  0
 34 35  2  0  0  0  0
 34 58  1  0  0  0  0
 35 36  1  0  0  0  0
 35 42  1  0  0  0  0
 36 37  1  0  0  0  0
 36 41  1  0  0  0  0
 37 38  1  0  0  0  0
 37 59  1  0  0  0  0
 37 60  1  0  0  0  0
 38 39  1  0  0  0  0
 38 61  1  0  0  0  0
 38 62  1  0  0  0  0
 39 40  1  0  0  0  0
 39 63  1  0  0  0  0
 40 41  1  0  0  0  0
 40 64  1  0  0  0  0
 40 65  1  0  0  0  0
 41 66  1  0  0  0  0
 41 67  1  0  0  0  0
M  END
$$$$
