CHEMBL1682358
 OpenBabel04072215363D

 36 39  0  0  0  0  0  0  0  0999 V2000
   -1.7189   -1.8261    3.5698 N   0  0  0  0  0  0  0  0  0  0  0  0
   -0.9833   -1.6205    2.4713 C   0  0  0  0  0  0  0  0  0  0  0  0
    0.1003   -2.3345    2.1798 N   0  0  0  0  0  0  0  0  0  0  0  0
    0.5411   -1.7918    1.0335 N   0  0  0  0  0  0  0  0  0  0  0  0
   -0.2304   -0.7633    0.5632 C   0  0  0  0  0  0  0  0  0  0  0  0
   -0.1142    0.0464   -0.5671 C   0  0  0  0  0  0  0  0  0  0  0  0
   -1.0862    1.0426   -0.7358 C   0  0  0  0  0  0  0  0  0  0  0  0
   -2.1373    1.2277    0.1784 C   0  0  0  0  0  0  0  0  0  0  0  0
   -3.1007    2.3067   -0.0237 C   0  0  0  0  0  0  0  0  0  0  0  0
   -3.2322    3.3301   -0.9350 C   0  0  0  0  0  0  0  0  0  0  0  0
   -4.3959    4.0285   -0.5350 C   0  0  0  0  0  0  0  0  0  0  0  0
   -5.0306    5.2031   -1.1949 C   0  0  0  0  0  0  0  0  0  0  0  0
   -4.3987    6.4387   -0.6010 C   0  0  0  0  0  0  0  0  0  0  0  0
   -3.2438    7.0034   -1.1659 C   0  0  0  0  0  0  0  0  0  0  0  0
   -2.6773    8.1567   -0.6182 C   0  0  0  0  0  0  0  0  0  0  0  0
   -3.2583    8.7601    0.4952 C   0  0  0  0  0  0  0  0  0  0  0  0
   -4.4033    8.2091    1.0668 C   0  0  0  0  0  0  0  0  0  0  0  0
   -4.9679    7.0533    0.5251 C   0  0  0  0  0  0  0  0  0  0  0  0
   -4.9574    3.4519    0.5361 N   0  0  0  0  0  0  0  0  0  0  0  0
   -4.1361    2.3860    0.8607 O   0  0  0  0  0  0  0  0  0  0  0  0
   -2.2276    0.3738    1.2941 C   0  0  0  0  0  0  0  0  0  0  0  0
   -1.2540   -0.6279    1.4923 C   0  0  0  0  0  0  0  0  0  0  0  0
   -1.5319   -2.6613    4.1118 H   0  0  0  0  0  0  0  0  0  0  0  0
   -2.6521   -1.4487    3.6685 H   0  0  0  0  0  0  0  0  0  0  0  0
    1.3869   -2.1677    0.6214 H   0  0  0  0  0  0  0  0  0  0  0  0
    0.6953   -0.0738   -1.2799 H   0  0  0  0  0  0  0  0  0  0  0  0
   -0.9991    1.6874   -1.6082 H   0  0  0  0  0  0  0  0  0  0  0  0
   -2.5839    3.5512   -1.7684 H   0  0  0  0  0  0  0  0  0  0  0  0
   -6.1162    5.2111   -1.0407 H   0  0  0  0  0  0  0  0  0  0  0  0
   -4.8667    5.1750   -2.2786 H   0  0  0  0  0  0  0  0  0  0  0  0
   -2.7784    6.5515   -2.0383 H   0  0  0  0  0  0  0  0  0  0  0  0
   -1.7823    8.5864   -1.0610 H   0  0  0  0  0  0  0  0  0  0  0  0
   -2.8181    9.6584    0.9199 H   0  0  0  0  0  0  0  0  0  0  0  0
   -4.8567    8.6773    1.9364 H   0  0  0  0  0  0  0  0  0  0  0  0
   -5.8577    6.6301    0.9884 H   0  0  0  0  0  0  0  0  0  0  0  0
   -3.0264    0.4849    2.0208 H   0  0  0  0  0  0  0  0  0  0  0  0
  1  2  1  0  0  0  0
  1 23  1  0  0  0  0
  1 24  1  0  0  0  0
  2  3  2  0  0  0  0
  2 22  1  0  0  0  0
  3  4  1  0  0  0  0
  4  5  1  0  0  0  0
  4 25  1  0  0  0  0
  5  6  1  0  0  0  0
  5 22  2  0  0  0  0
  6  7  2  0  0  0  0
  6 26  1  0  0  0  0
  7  8  1  0  0  0  0
  7 27  1  0  0  0  0
  8  9  1  0  0  0  0
  8 21  2  0  0  0  0
  9 10  2  0  0  0  0
  9 20  1  0  0  0  0
 10 11  1  0  0  0  0
 10 28  1  0  0  0  0
 11 12  1  0  0  0  0
 11 19  2  0  0  0  0
 12 13  1  0  0  0  0
 12 29  1  0  0  0  0
 12 30  1  0  0  0  0
 13 14  1  0  0  0  0
 13 18  2  0  0  0  0
 14 15  2  0  0  0  0
 14 31  1  0  0  0  0
 15 16  1  0  0  0  0
 15 32  1  0  0  0  0
 16 17  2  0  0  0  0
 16 33  1  0  0  0  0
 17 18  1  0  0  0  0
 17 34  1  0  0  0  0
 18 35  1  0  0  0  0
 19 20  1  0  0  0  0
 21 22  1  0  0  0  0
 21 36  1  0  0  0  0
M  END
$$$$
