CHEMBL3938610
 OpenBabel04072215373D

 63 66  0  0  0  0  0  0  0  0999 V2000
    9.0591    6.0976    5.4210 C   0  0  0  0  0  0  0  0  0  0  0  0
    8.1239    6.0013    4.3548 O   0  0  0  0  0  0  0  0  0  0  0  0
    7.3419    4.8241    4.5158 C   0  0  0  0  0  0  0  0  0  0  0  0
    6.3369    4.6915    3.3981 C   0  0  0  0  0  0  0  0  0  0  0  0
    6.9999    4.6149    2.0902 N   0  0  0  0  0  0  0  0  0  0  0  0
    6.2318    4.4921    0.9801 C   0  0  0  0  0  0  0  0  0  0  0  0
    5.0316    4.4614    1.2404 O   0  0  0  0  0  0  0  0  0  0  0  0
    6.8519    4.3601   -0.4473 C   0  0  0  0  0  0  0  0  0  0  0  0
    8.3789    4.3809   -0.4815 N   0  0  0  0  0  0  0  0  0  0  0  0
    9.0879    3.1803   -0.3764 C   0  0  0  0  0  0  0  0  0  0  0  0
   10.3265    3.0630   -1.0026 C   0  0  0  0  0  0  0  0  0  0  0  0
   11.0929    1.9238   -0.9802 C   0  0  0  0  0  0  0  0  0  0  0  0
   12.2636    1.7842   -1.6684 O   0  0  0  0  0  0  0  0  0  0  0  0
   12.6811    2.9152   -2.4426 C   0  0  0  0  0  0  0  0  0  0  0  0
   10.6836    0.9084   -0.1486 C   0  0  0  0  0  0  0  0  0  0  0  0
    9.5482    1.0560    0.6450 C   0  0  0  0  0  0  0  0  0  0  0  0
    9.2851    0.2306    1.7090 O   0  0  0  0  0  0  0  0  0  0  0  0
   10.2516   -0.8001    1.9613 C   0  0  0  0  0  0  0  0  0  0  0  0
    8.6688    2.1175    0.4121 C   0  0  0  0  0  0  0  0  0  0  0  0
    9.0547    5.6317   -0.5914 C   0  0  0  0  0  0  0  0  0  0  0  0
    8.3784    6.6345   -1.2844 C   0  0  0  0  0  0  0  0  0  0  0  0
    8.8268    7.8453   -1.3147 C   0  0  0  0  0  0  0  0  0  0  0  0
   10.0407    8.1135   -0.7143 C   0  0  0  0  0  0  0  0  0  0  0  0
   10.4501    9.0788   -1.4038 N   0  0  0  0  0  0  0  0  0  0  0  0
    9.9672   10.2622   -1.3921 C   0  0  0  0  0  0  0  0  0  0  0  0
   10.8700   10.7522   -0.7685 C   0  0  0  0  0  0  0  0  0  0  0  0
   10.6545   12.4194   -1.6305 C   0  0  0  0  0  0  0  0  0  0  0  0
    9.5505   13.4738   -2.3869 C   0  0  0  0  0  0  0  0  0  0  0  0
    9.7730   14.8384   -2.5495 N   0  0  0  0  0  0  0  0  0  0  0  0
   10.8772   15.1069   -1.8484 N   0  0  0  0  0  0  0  0  0  0  0  0
   11.4026   16.5287   -1.7252 C   0  0  0  0  0  0  0  0  0  0  0  0
   11.3361   13.7885   -1.2231 C   0  0  0  0  0  0  0  0  0  0  0  0
   11.5861    9.4076    0.1605 N   0  0  0  0  0  0  0  0  0  0  0  0
   10.9692    7.7438    0.1213 C   0  0  0  0  0  0  0  0  0  0  0  0
   10.3272    6.1010    0.0730 C   0  0  0  0  0  0  0  0  0  0  0  0
    9.6564    7.0023    5.2945 H   0  0  0  0  0  0  0  0  0  0  0  0
    9.7212    5.2271    5.4134 H   0  0  0  0  0  0  0  0  0  0  0  0
    8.5298    6.1482    6.3768 H   0  0  0  0  0  0  0  0  0  0  0  0
    6.8098    4.8657    5.4718 H   0  0  0  0  0  0  0  0  0  0  0  0
    7.9977    3.9475    4.5135 H   0  0  0  0  0  0  0  0  0  0  0  0
    5.6557    5.5568    3.4081 H   0  0  0  0  0  0  0  0  0  0  0  0
    5.7089    3.8018    3.5693 H   0  0  0  0  0  0  0  0  0  0  0  0
    7.9994    4.5473    2.0384 H   0  0  0  0  0  0  0  0  0  0  0  0
    6.4352    5.1991   -1.0260 H   0  0  0  0  0  0  0  0  0  0  0  0
    6.5025    3.4303   -0.9271 H   0  0  0  0  0  0  0  0  0  0  0  0
   10.6003    3.8215   -1.7174 H   0  0  0  0  0  0  0  0  0  0  0  0
   13.6465    2.6831   -2.8994 H   0  0  0  0  0  0  0  0  0  0  0  0
   12.8169    3.8123   -1.8228 H   0  0  0  0  0  0  0  0  0  0  0  0
   11.9717    3.1264   -3.2516 H   0  0  0  0  0  0  0  0  0  0  0  0
   11.2621    0.0020   -0.0943 H   0  0  0  0  0  0  0  0  0  0  0  0
    9.9347   -1.3616    2.8446 H   0  0  0  0  0  0  0  0  0  0  0  0
   11.2578   -0.4030    2.1626 H   0  0  0  0  0  0  0  0  0  0  0  0
   10.2918   -1.5029    1.1206 H   0  0  0  0  0  0  0  0  0  0  0  0
    7.6722    2.1267    0.8439 H   0  0  0  0  0  0  0  0  0  0  0  0
    7.5019    6.4945   -1.8481 H   0  0  0  0  0  0  0  0  0  0  0  0
    8.2141    8.6786   -1.8913 H   0  0  0  0  0  0  0  0  0  0  0  0
    9.2893   10.5132   -2.1830 H   0  0  0  0  0  0  0  0  0  0  0  0
    8.6271   13.2272   -2.8662 H   0  0  0  0  0  0  0  0  0  0  0  0
   10.8742   17.2588   -2.3864 H   0  0  0  0  0  0  0  0  0  0  0  0
   12.4715   16.5845   -1.9893 H   0  0  0  0  0  0  0  0  0  0  0  0
   11.2797   16.8941   -0.6941 H   0  0  0  0  0  0  0  0  0  0  0  0
   12.1948   14.0374   -0.6090 H   0  0  0  0  0  0  0  0  0  0  0  0
   10.8467    5.1212    0.4276 H   0  0  0  0  0  0  0  0  0  0  0  0
  1  2  1  0  0  0  0
  1 36  1  0  0  0  0
  1 37  1  0  0  0  0
  1 38  1  0  0  0  0
  2  3  1  0  0  0  0
  3  4  1  0  0  0  0
  3 39  1  0  0  0  0
  3 40  1  0  0  0  0
  4  5  1  0  0  0  0
  4 41  1  0  0  0  0
  4 42  1  0  0  0  0
  5  6  1  0  0  0  0
  5 43  1  0  0  0  0
  6  7  2  0  0  0  0
  6  8  1  0  0  0  0
  8  9  1  0  0  0  0
  8 44  1  0  0  0  0
  8 45  1  0  0  0  0
  9 10  1  0  0  0  0
  9 20  1  0  0  0  0
 10 11  1  0  0  0  0
 10 19  2  0  0  0  0
 11 12  2  0  0  0  0
 11 46  1  0  0  0  0
 12 13  1  0  0  0  0
 12 15  1  0  0  0  0
 13 14  1  0  0  0  0
 14 47  1  0  0  0  0
 14 48  1  0  0  0  0
 14 49  1  0  0  0  0
 15 16  2  0  0  0  0
 15 50  1  0  0  0  0
 16 17  1  0  0  0  0
 16 19  1  0  0  0  0
 17 18  1  0  0  0  0
 18 51  1  0  0  0  0
 18 52  1  0  0  0  0
 18 53  1  0  0  0  0
 19 54  1  0  0  0  0
 20 21  1  0  0  0  0
 20 35  2  0  0  0  0
 21 22  2  0  0  0  0
 21 55  1  0  0  0  0
 22 23  1  0  0  0  0
 22 56  1  0  0  0  0
 23 24  1  0  0  0  0
 23 34  2  0  0  0  0
 24 25  2  0  0  0  0
 25 26  1  0  0  0  0
 25 57  1  0  0  0  0
 26 27  1  0  0  0  0
 26 33  2  0  0  0  0
 27 28  1  0  0  0  0
 27 32  2  0  0  0  0
 28 29  2  0  0  0  0
 28 58  1  0  0  0  0
 29 30  1  0  0  0  0
 30 31  1  0  0  0  0
 30 32  1  0  0  0  0
 31 59  1  0  0  0  0
 31 60  1  0  0  0  0
 31 61  1  0  0  0  0
 32 62  1  0  0  0  0
 33 34  1  0  0  0  0
 34 35  1  0  0  0  0
 35 63  1  0  0  0  0
M  END
$$$$
