CHEMBL3775376
 OpenBabel04072215373D

 36 38  0  0  0  0  0  0  0  0999 V2000
    3.4482   -1.0808   -0.1642 C   0  0  0  0  0  0  0  0  0  0  0  0
    2.5325   -0.0159    0.1135 O   0  0  0  0  0  0  0  0  0  0  0  0
    3.0788    1.2416    0.1454 C   0  0  0  0  0  0  0  0  0  0  0  0
    4.1612    1.5845   -0.6893 C   0  0  0  0  0  0  0  0  0  0  0  0
    4.8186    2.7994   -0.5955 C   0  0  0  0  0  0  0  0  0  0  0  0
    5.8844    2.9993   -1.3763 N   0  0  0  0  0  0  0  0  0  0  0  0
    6.5404    4.1532   -1.2295 C   0  0  0  0  0  0  0  0  0  0  0  0
    6.2418    5.1169   -0.3581 N   0  0  0  0  0  0  0  0  0  0  0  0
    5.1569    4.9030    0.4169 C   0  0  0  0  0  0  0  0  0  0  0  0
    4.8509    6.2051    1.6037 S   0  0  0  0  0  0  0  0  0  0  0  0
    5.6221    5.5875    3.0982 C   0  0  0  0  0  0  0  0  0  0  0  0
    6.7643    4.7758    3.0961 C   0  0  0  0  0  0  0  0  0  0  0  0
    7.3163    4.3147    4.2971 C   0  0  0  0  0  0  0  0  0  0  0  0
    6.7440    4.6734    5.5151 C   0  0  0  0  0  0  0  0  0  0  0  0
    5.6297    5.5053    5.5203 C   0  0  0  0  0  0  0  0  0  0  0  0
    5.0493    5.8974    6.6917 O   0  0  0  0  0  0  0  0  0  0  0  0
    5.0722    5.9666    4.3303 C   0  0  0  0  0  0  0  0  0  0  0  0
    4.3649    3.7427    0.3277 C   0  0  0  0  0  0  0  0  0  0  0  0
    3.1944    3.4591    1.0719 C   0  0  0  0  0  0  0  0  0  0  0  0
    2.5513    2.2138    1.0012 C   0  0  0  0  0  0  0  0  0  0  0  0
    1.4816    2.1545    1.8438 O   0  0  0  0  0  0  0  0  0  0  0  0
    0.7953    0.9313    2.0474 C   0  0  0  0  0  0  0  0  0  0  0  0
    3.1817   -1.9342    0.4664 H   0  0  0  0  0  0  0  0  0  0  0  0
    4.4942   -0.8382    0.0605 H   0  0  0  0  0  0  0  0  0  0  0  0
    3.3489   -1.3805   -1.2120 H   0  0  0  0  0  0  0  0  0  0  0  0
    4.5253    0.8782   -1.4284 H   0  0  0  0  0  0  0  0  0  0  0  0
    7.4037    4.3145   -1.8654 H   0  0  0  0  0  0  0  0  0  0  0  0
    7.2512    4.4975    2.1648 H   0  0  0  0  0  0  0  0  0  0  0  0
    8.1976    3.6781    4.2779 H   0  0  0  0  0  0  0  0  0  0  0  0
    7.1787    4.3053    6.4393 H   0  0  0  0  0  0  0  0  0  0  0  0
    5.5488    5.5112    7.4359 H   0  0  0  0  0  0  0  0  0  0  0  0
    4.2088    6.6248    4.3744 H   0  0  0  0  0  0  0  0  0  0  0  0
    2.7784    4.2073    1.7462 H   0  0  0  0  0  0  0  0  0  0  0  0
    0.1850    1.0566    2.9479 H   0  0  0  0  0  0  0  0  0  0  0  0
    1.4732    0.0985    2.2462 H   0  0  0  0  0  0  0  0  0  0  0  0
    0.1165    0.7231    1.2149 H   0  0  0  0  0  0  0  0  0  0  0  0
  1  2  1  0  0  0  0
  1 23  1  0  0  0  0
  1 24  1  0  0  0  0
  1 25  1  0  0  0  0
  2  3  1  0  0  0  0
  3  4  1  0  0  0  0
  3 20  2  0  0  0  0
  4  5  2  0  0  0  0
  4 26  1  0  0  0  0
  5  6  1  0  0  0  0
  5 18  1  0  0  0  0
  6  7  2  0  0  0  0
  7  8  1  0  0  0  0
  7 27  1  0  0  0  0
  8  9  2  0  0  0  0
  9 10  1  0  0  0  0
  9 18  1  0  0  0  0
 10 11  1  0  0  0  0
 11 12  1  0  0  0  0
 11 17  2  0  0  0  0
 12 13  2  0  0  0  0
 12 28  1  0  0  0  0
 13 14  1  0  0  0  0
 13 29  1  0  0  0  0
 14 15  2  0  0  0  0
 14 30  1  0  0  0  0
 15 16  1  0  0  0  0
 15 17  1  0  0  0  0
 16 31  1  0  0  0  0
 17 32  1  0  0  0  0
 18 19  2  0  0  0  0
 19 20  1  0  0  0  0
 19 33  1  0  0  0  0
 20 21  1  0  0  0  0
 21 22  1  0  0  0  0
 22 34  1  0  0  0  0
 22 35  1  0  0  0  0
 22 36  1  0  0  0  0
M  END
$$$$
