CHEMBL357815
 OpenBabel04072215363D

 45 48  0  0  0  0  0  0  0  0999 V2000
    2.4806   -0.6533   -0.8827 C   0  0  0  0  0  0  0  0  0  0  0  0
    2.1819    0.0443    0.3263 O   0  0  0  0  0  0  0  0  0  0  0  0
    2.9629    1.1245    0.6379 C   0  0  0  0  0  0  0  0  0  0  0  0
    4.1550    1.4387   -0.0296 C   0  0  0  0  0  0  0  0  0  0  0  0
    4.8594    2.6370    0.2465 C   0  0  0  0  0  0  0  0  0  0  0  0
    5.9266    3.1531   -0.5045 C   0  0  0  0  0  0  0  0  0  0  0  0
    6.3252    2.5149   -1.7064 N   0  0  0  0  0  0  0  0  0  0  0  0
    7.1126    3.1564   -2.6934 C   0  0  0  0  0  0  0  0  0  0  0  0
    6.8214    4.4635   -3.1142 C   0  0  0  0  0  0  0  0  0  0  0  0
    7.6817    5.1446   -3.9770 C   0  0  0  0  0  0  0  0  0  0  0  0
    8.8280    4.5083   -4.4473 C   0  0  0  0  0  0  0  0  0  0  0  0
    9.9337    5.3756   -5.4392 Cl  0  0  0  0  0  0  0  0  0  0  0  0
    9.0958    3.1855   -4.1028 C   0  0  0  0  0  0  0  0  0  0  0  0
    8.2324    2.5202   -3.2385 C   0  0  0  0  0  0  0  0  0  0  0  0
    8.5074    1.2544   -2.8851 F   0  0  0  0  0  0  0  0  0  0  0  0
    6.5457    4.3087   -0.1654 N   0  0  0  0  0  0  0  0  0  0  0  0
    6.0819    4.9581    0.8996 C   0  0  0  0  0  0  0  0  0  0  0  0
    5.0523    4.5796    1.6544 N   0  0  0  0  0  0  0  0  0  0  0  0
    4.4455    3.4444    1.3064 C   0  0  0  0  0  0  0  0  0  0  0  0
    3.3137    3.0860    2.0103 C   0  0  0  0  0  0  0  0  0  0  0  0
    2.5210    1.9816    1.6612 C   0  0  0  0  0  0  0  0  0  0  0  0
    1.3009    1.7273    2.2736 O   0  0  0  0  0  0  0  0  0  0  0  0
    0.7308    2.8801    2.9234 C   0  0  0  0  0  0  0  0  0  0  0  0
   -0.7369    2.7032    3.2940 C   0  0  0  0  0  0  0  0  0  0  0  0
   -1.3042    3.9646    3.7344 N   0  0  0  0  0  0  0  0  0  0  0  0
   -1.7201    4.3327    4.9782 C   0  0  0  0  0  0  0  0  0  0  0  0
   -2.0490    5.6600    4.8412 C   0  0  0  0  0  0  0  0  0  0  0  0
   -1.8296    6.0494    3.5515 N   0  0  0  0  0  0  0  0  0  0  0  0
   -1.3822    4.9997    2.8789 N   0  0  0  0  0  0  0  0  0  0  0  0
    3.2391   -1.4212   -0.6966 H   0  0  0  0  0  0  0  0  0  0  0  0
    2.7956    0.0079   -1.6982 H   0  0  0  0  0  0  0  0  0  0  0  0
    1.5670   -1.1480   -1.2241 H   0  0  0  0  0  0  0  0  0  0  0  0
    4.5434    0.7902   -0.8069 H   0  0  0  0  0  0  0  0  0  0  0  0
    6.6482    1.5690   -1.5199 H   0  0  0  0  0  0  0  0  0  0  0  0
    5.9391    4.9738   -2.7329 H   0  0  0  0  0  0  0  0  0  0  0  0
    7.4625    6.1743   -4.2483 H   0  0  0  0  0  0  0  0  0  0  0  0
    9.9793    2.6776   -4.4730 H   0  0  0  0  0  0  0  0  0  0  0  0
    6.5728    5.8878    1.1606 H   0  0  0  0  0  0  0  0  0  0  0  0
    3.0320    3.7541    2.8201 H   0  0  0  0  0  0  0  0  0  0  0  0
    0.8152    3.7444    2.2523 H   0  0  0  0  0  0  0  0  0  0  0  0
    1.2891    3.0786    3.8476 H   0  0  0  0  0  0  0  0  0  0  0  0
   -0.8467    1.9713    4.1042 H   0  0  0  0  0  0  0  0  0  0  0  0
   -1.3316    2.3502    2.4466 H   0  0  0  0  0  0  0  0  0  0  0  0
   -1.7384    3.6570    5.8255 H   0  0  0  0  0  0  0  0  0  0  0  0
   -2.4211    6.3501    5.5860 H   0  0  0  0  0  0  0  0  0  0  0  0
  1  2  1  0  0  0  0
  1 30  1  0  0  0  0
  1 31  1  0  0  0  0
  1 32  1  0  0  0  0
  2  3  1  0  0  0  0
  3  4  1  0  0  0  0
  3 21  2  0  0  0  0
  4  5  2  0  0  0  0
  4 33  1  0  0  0  0
  5  6  1  0  0  0  0
  5 19  1  0  0  0  0
  6  7  1  0  0  0  0
  6 16  2  0  0  0  0
  7  8  1  0  0  0  0
  7 34  1  0  0  0  0
  8  9  1  0  0  0  0
  8 14  2  0  0  0  0
  9 10  2  0  0  0  0
  9 35  1  0  0  0  0
 10 11  1  0  0  0  0
 10 36  1  0  0  0  0
 11 12  1  0  0  0  0
 11 13  2  0  0  0  0
 13 14  1  0  0  0  0
 13 37  1  0  0  0  0
 14 15  1  0  0  0  0
 16 17  1  0  0  0  0
 17 18  2  0  0  0  0
 17 38  1  0  0  0  0
 18 19  1  0  0  0  0
 19 20  2  0  0  0  0
 20 21  1  0  0  0  0
 20 39  1  0  0  0  0
 21 22  1  0  0  0  0
 22 23  1  0  0  0  0
 23 24  1  0  0  0  0
 23 40  1  0  0  0  0
 23 41  1  0  0  0  0
 24 25  1  0  0  0  0
 24 42  1  0  0  0  0
 24 43  1  0  0  0  0
 25 26  1  0  0  0  0
 25 29  1  0  0  0  0
 26 27  2  0  0  0  0
 26 44  1  0  0  0  0
 27 28  1  0  0  0  0
 27 45  1  0  0  0  0
 28 29  2  0  0  0  0
M  END
$$$$
