CHEMBL3940199
 OpenBabel04072215373D

 55 58  0  0  0  0  0  0  0  0999 V2000
    2.5526    0.0081   -0.1375 C   0  0  0  0  0  0  0  0  0  0  0  0
    1.0511    0.0180   -0.1099 C   0  0  0  0  0  0  0  0  0  0  0  0
    0.4165    1.2739   -0.1347 C   0  0  0  0  0  0  0  0  0  0  0  0
   -0.9718    1.4115   -0.0782 C   0  0  0  0  0  0  0  0  0  0  0  0
   -1.6153    2.6705    0.0116 N   0  0  0  0  0  0  0  0  0  0  0  0
   -0.9756    3.8794    0.2527 C   0  0  0  0  0  0  0  0  0  0  0  0
    0.2355    4.0256    0.3977 O   0  0  0  0  0  0  0  0  0  0  0  0
   -1.8677    4.9340    0.3832 N   0  0  0  0  0  0  0  0  0  0  0  0
   -1.3746    6.2401    0.6265 C   0  0  0  0  0  0  0  0  0  0  0  0
   -1.9210    6.9831    1.6727 C   0  0  0  0  0  0  0  0  0  0  0  0
   -1.3864    8.2328    1.9912 C   0  0  0  0  0  0  0  0  0  0  0  0
   -0.3436    8.7680    1.2332 C   0  0  0  0  0  0  0  0  0  0  0  0
    0.1841    8.0561    0.1462 C   0  0  0  0  0  0  0  0  0  0  0  0
    1.2815    8.6366   -0.7107 C   0  0  0  0  0  0  0  0  0  0  0  0
    1.6422    9.9004   -0.3451 F   0  0  0  0  0  0  0  0  0  0  0  0
    2.4273    7.9029   -0.6844 F   0  0  0  0  0  0  0  0  0  0  0  0
    0.9223    8.7251   -2.0227 F   0  0  0  0  0  0  0  0  0  0  0  0
   -0.3314    6.7815   -0.1377 C   0  0  0  0  0  0  0  0  0  0  0  0
   -1.7495    0.2521   -0.0950 C   0  0  0  0  0  0  0  0  0  0  0  0
   -1.1341   -1.0086   -0.0825 C   0  0  0  0  0  0  0  0  0  0  0  0
    0.2626   -1.1341   -0.0098 C   0  0  0  0  0  0  0  0  0  0  0  0
    0.8851   -2.3683    0.1118 O   0  0  0  0  0  0  0  0  0  0  0  0
    0.3100   -3.3232    0.9401 C   0  0  0  0  0  0  0  0  0  0  0  0
   -0.3632   -2.9957    2.1126 C   0  0  0  0  0  0  0  0  0  0  0  0
   -0.9595   -4.0162    2.8195 C   0  0  0  0  0  0  0  0  0  0  0  0
   -0.8665   -5.3104    2.4661 N   0  0  0  0  0  0  0  0  0  0  0  0
   -0.1504   -5.6452    1.3822 C   0  0  0  0  0  0  0  0  0  0  0  0
   -0.0149   -7.0077    1.0507 N   0  0  0  0  0  0  0  0  0  0  0  0
   -0.5794   -8.0275    1.7932 C   0  0  0  0  0  0  0  0  0  0  0  0
   -1.2834   -7.9328    2.7874 O   0  0  0  0  0  0  0  0  0  0  0  0
   -0.2898   -9.4132    1.2728 C   0  0  0  0  0  0  0  0  0  0  0  0
   -1.3279  -10.5056    1.4484 C   0  0  0  0  0  0  0  0  0  0  0  0
   -0.0678  -10.5421    2.2629 C   0  0  0  0  0  0  0  0  0  0  0  0
    0.4562   -4.6730    0.5854 C   0  0  0  0  0  0  0  0  0  0  0  0
    2.9412    0.9866   -0.4546 H   0  0  0  0  0  0  0  0  0  0  0  0
    2.9297   -0.7223   -0.8588 H   0  0  0  0  0  0  0  0  0  0  0  0
    2.9565   -0.1951    0.8588 H   0  0  0  0  0  0  0  0  0  0  0  0
    1.0548    2.1471   -0.2073 H   0  0  0  0  0  0  0  0  0  0  0  0
   -2.6224    2.6825   -0.0492 H   0  0  0  0  0  0  0  0  0  0  0  0
   -2.7314    4.6943    0.8472 H   0  0  0  0  0  0  0  0  0  0  0  0
   -2.7132    6.5745    2.2922 H   0  0  0  0  0  0  0  0  0  0  0  0
   -1.7741    8.7856    2.8440 H   0  0  0  0  0  0  0  0  0  0  0  0
    0.0581    9.7460    1.4953 H   0  0  0  0  0  0  0  0  0  0  0  0
    0.0909    6.2093   -0.9647 H   0  0  0  0  0  0  0  0  0  0  0  0
   -2.8339    0.3018   -0.0811 H   0  0  0  0  0  0  0  0  0  0  0  0
   -1.7654   -1.8951   -0.0848 H   0  0  0  0  0  0  0  0  0  0  0  0
   -0.4611   -1.9753    2.4644 H   0  0  0  0  0  0  0  0  0  0  0  0
   -1.5486   -3.8271    3.7107 H   0  0  0  0  0  0  0  0  0  0  0  0
    0.5396   -7.2415    0.2427 H   0  0  0  0  0  0  0  0  0  0  0  0
    0.2958   -9.4614    0.3616 H   0  0  0  0  0  0  0  0  0  0  0  0
   -1.4458  -11.2420    0.6642 H   0  0  0  0  0  0  0  0  0  0  0  0
   -2.2507  -10.2602    1.9666 H   0  0  0  0  0  0  0  0  0  0  0  0
    0.6640  -11.3049    2.0266 H   0  0  0  0  0  0  0  0  0  0  0  0
   -0.1489  -10.3217    3.3226 H   0  0  0  0  0  0  0  0  0  0  0  0
    1.0273   -4.9383   -0.2966 H   0  0  0  0  0  0  0  0  0  0  0  0
  1  2  1  0  0  0  0
  1 35  1  0  0  0  0
  1 36  1  0  0  0  0
  1 37  1  0  0  0  0
  2  3  1  0  0  0  0
  2 21  2  0  0  0  0
  3  4  2  0  0  0  0
  3 38  1  0  0  0  0
  4  5  1  0  0  0  0
  4 19  1  0  0  0  0
  5  6  1  0  0  0  0
  5 39  1  0  0  0  0
  6  7  2  0  0  0  0
  6  8  1  0  0  0  0
  8  9  1  0  0  0  0
  8 40  1  0  0  0  0
  9 10  1  0  0  0  0
  9 18  2  0  0  0  0
 10 11  2  0  0  0  0
 10 41  1  0  0  0  0
 11 12  1  0  0  0  0
 11 42  1  0  0  0  0
 12 13  2  0  0  0  0
 12 43  1  0  0  0  0
 13 14  1  0  0  0  0
 13 18  1  0  0  0  0
 14 15  1  0  0  0  0
 14 16  1  0  0  0  0
 14 17  1  0  0  0  0
 18 44  1  0  0  0  0
 19 20  2  0  0  0  0
 19 45  1  0  0  0  0
 20 21  1  0  0  0  0
 20 46  1  0  0  0  0
 21 22  1  0  0  0  0
 22 23  1  0  0  0  0
 23 24  1  0  0  0  0
 23 34  2  0  0  0  0
 24 25  2  0  0  0  0
 24 47  1  0  0  0  0
 25 26  1  0  0  0  0
 25 48  1  0  0  0  0
 26 27  2  0  0  0  0
 27 28  1  0  0  0  0
 27 34  1  0  0  0  0
 28 29  1  0  0  0  0
 28 49  1  0  0  0  0
 29 30  2  0  0  0  0
 29 31  1  0  0  0  0
 31 32  1  0  0  0  0
 31 33  1  0  0  0  0
 31 50  1  0  0  0  0
 32 33  1  0  0  0  0
 32 51  1  0  0  0  0
 32 52  1  0  0  0  0
 33 53  1  0  0  0  0
 33 54  1  0  0  0  0
 34 55  1  0  0  0  0
M  END
$$$$
