CHEMBL3985259
 OpenBabel04072215373D

 54 58  0  0  0  0  0  0  0  0999 V2000
    0.5366   -0.2478    2.0022 C   0  0  0  0  0  0  0  0  0  0  0  0
    1.8705   -0.0489    2.4326 O   0  0  0  0  0  0  0  0  0  0  0  0
    2.8369   -0.8422    1.8827 C   0  0  0  0  0  0  0  0  0  0  0  0
    2.6193   -1.9496    1.0629 C   0  0  0  0  0  0  0  0  0  0  0  0
    3.7014   -2.6747    0.5747 C   0  0  0  0  0  0  0  0  0  0  0  0
    3.6106   -3.7816   -0.2310 O   0  0  0  0  0  0  0  0  0  0  0  0
    2.2995   -4.2099   -0.6092 C   0  0  0  0  0  0  0  0  0  0  0  0
    5.0085   -2.2688    0.9169 C   0  0  0  0  0  0  0  0  0  0  0  0
    5.2624   -1.1491    1.7607 C   0  0  0  0  0  0  0  0  0  0  0  0
    6.5948   -0.7771    2.1554 N   0  0  0  0  0  0  0  0  0  0  0  0
    7.1517    0.5875    2.2144 C   0  0  0  0  0  0  0  0  0  0  0  0
    8.5203    0.6614    1.9028 C   0  0  0  0  0  0  0  0  0  0  0  0
    9.3065    1.6718    2.4012 C   0  0  0  0  0  0  0  0  0  0  0  0
    8.7713    2.7383    3.0702 C   0  0  0  0  0  0  0  0  0  0  0  0
    9.6763    3.5320    3.6382 N   0  0  0  0  0  0  0  0  0  0  0  0
    9.2265    4.6947    4.1119 C   0  0  0  0  0  0  0  0  0  0  0  0
    7.9132    5.0893    3.9460 C   0  0  0  0  0  0  0  0  0  0  0  0
    7.6634    6.5167    4.0955 C   0  0  0  0  0  0  0  0  0  0  0  0
    7.5145    7.5112    3.0929 C   0  0  0  0  0  0  0  0  0  0  0  0
    7.5517    8.7564    3.5840 N   0  0  0  0  0  0  0  0  0  0  0  0
    7.7295    8.5673    4.9021 N   0  0  0  0  0  0  0  0  0  0  0  0
    7.5609    9.6617    5.8291 C   0  0  0  0  0  0  0  0  0  0  0  0
    7.9607    7.2591    5.2276 C   0  0  0  0  0  0  0  0  0  0  0  0
    6.9568    4.2099    3.4782 N   0  0  0  0  0  0  0  0  0  0  0  0
    7.3744    2.9540    3.0794 C   0  0  0  0  0  0  0  0  0  0  0  0
    6.5727    1.7986    2.6893 C   0  0  0  0  0  0  0  0  0  0  0  0
    7.5451   -1.8074    2.7026 C   0  0  0  0  0  0  0  0  0  0  0  0
    8.3520   -2.6389    1.6932 C   0  0  0  0  0  0  0  0  0  0  0  0
    8.0885   -3.8530    2.4444 O   0  0  0  0  0  0  0  0  0  0  0  0
    7.0655   -3.1616    3.2196 C   0  0  0  0  0  0  0  0  0  0  0  0
    4.1413   -0.4776    2.2407 C   0  0  0  0  0  0  0  0  0  0  0  0
   -0.0503    0.6091    2.3476 H   0  0  0  0  0  0  0  0  0  0  0  0
    0.1197   -1.1518    2.4568 H   0  0  0  0  0  0  0  0  0  0  0  0
    0.4570   -0.2798    0.9109 H   0  0  0  0  0  0  0  0  0  0  0  0
    1.6061   -2.2540    0.8284 H   0  0  0  0  0  0  0  0  0  0  0  0
    2.3987   -5.0547   -1.2996 H   0  0  0  0  0  0  0  0  0  0  0  0
    1.7578   -3.4190   -1.1401 H   0  0  0  0  0  0  0  0  0  0  0  0
    1.7290   -4.5595    0.2590 H   0  0  0  0  0  0  0  0  0  0  0  0
    5.8249   -2.8592    0.5155 H   0  0  0  0  0  0  0  0  0  0  0  0
    9.0039   -0.1330    1.3573 H   0  0  0  0  0  0  0  0  0  0  0  0
   10.3867    1.6049    2.2835 H   0  0  0  0  0  0  0  0  0  0  0  0
    9.9793    5.3374    4.5521 H   0  0  0  0  0  0  0  0  0  0  0  0
    7.4247    7.3829    2.0217 H   0  0  0  0  0  0  0  0  0  0  0  0
    7.3082   10.5756    5.2848 H   0  0  0  0  0  0  0  0  0  0  0  0
    8.4816    9.8020    6.3999 H   0  0  0  0  0  0  0  0  0  0  0  0
    6.7362    9.3950    6.4960 H   0  0  0  0  0  0  0  0  0  0  0  0
    8.2850    6.9793    6.2207 H   0  0  0  0  0  0  0  0  0  0  0  0
    5.5045    1.8967    2.8345 H   0  0  0  0  0  0  0  0  0  0  0  0
    8.1919   -1.3539    3.4683 H   0  0  0  0  0  0  0  0  0  0  0  0
    9.4249   -2.4190    1.6636 H   0  0  0  0  0  0  0  0  0  0  0  0
    7.9850   -2.7223    0.6676 H   0  0  0  0  0  0  0  0  0  0  0  0
    7.2291   -3.3065    4.2934 H   0  0  0  0  0  0  0  0  0  0  0  0
    6.0753   -3.5339    2.9613 H   0  0  0  0  0  0  0  0  0  0  0  0
    4.2480    0.3254    2.9565 H   0  0  0  0  0  0  0  0  0  0  0  0
  1  2  1  0  0  0  0
  1 32  1  0  0  0  0
  1 33  1  0  0  0  0
  1 34  1  0  0  0  0
  2  3  1  0  0  0  0
  3  4  1  0  0  0  0
  3 31  2  0  0  0  0
  4  5  2  0  0  0  0
  4 35  1  0  0  0  0
  5  6  1  0  0  0  0
  5  8  1  0  0  0  0
  6  7  1  0  0  0  0
  7 36  1  0  0  0  0
  7 37  1  0  0  0  0
  7 38  1  0  0  0  0
  8  9  2  0  0  0  0
  8 39  1  0  0  0  0
  9 10  1  0  0  0  0
  9 31  1  0  0  0  0
 10 11  1  0  0  0  0
 10 27  1  0  0  0  0
 11 12  1  0  0  0  0
 11 26  2  0  0  0  0
 12 13  2  0  0  0  0
 12 40  1  0  0  0  0
 13 14  1  0  0  0  0
 13 41  1  0  0  0  0
 14 15  1  0  0  0  0
 14 25  2  0  0  0  0
 15 16  2  0  0  0  0
 16 17  1  0  0  0  0
 16 42  1  0  0  0  0
 17 18  1  0  0  0  0
 17 24  2  0  0  0  0
 18 19  1  0  0  0  0
 18 23  2  0  0  0  0
 19 20  2  0  0  0  0
 19 43  1  0  0  0  0
 20 21  1  0  0  0  0
 21 22  1  0  0  0  0
 21 23  1  0  0  0  0
 22 44  1  0  0  0  0
 22 45  1  0  0  0  0
 22 46  1  0  0  0  0
 23 47  1  0  0  0  0
 24 25  1  0  0  0  0
 25 26  1  0  0  0  0
 26 48  1  0  0  0  0
 27 28  1  0  0  0  0
 27 30  1  0  0  0  0
 27 49  1  0  0  0  0
 28 29  1  0  0  0  0
 28 50  1  0  0  0  0
 28 51  1  0  0  0  0
 29 30  1  0  0  0  0
 30 52  1  0  0  0  0
 30 53  1  0  0  0  0
 31 54  1  0  0  0  0
M  END
$$$$
