CHEMBL4758444
 OpenBabel04072215383D

 54 57  0  0  0  0  0  0  0  0999 V2000
    7.9092  -10.1086   -3.4454 C   0  0  0  0  0  0  0  0  0  0  0  0
    8.4554   -8.7879   -3.3528 O   0  0  0  0  0  0  0  0  0  0  0  0
    7.5373   -7.7718   -3.4030 C   0  0  0  0  0  0  0  0  0  0  0  0
    6.2371   -7.9442   -2.8892 C   0  0  0  0  0  0  0  0  0  0  0  0
    5.2318   -6.9982   -3.0587 C   0  0  0  0  0  0  0  0  0  0  0  0
    3.9977   -7.2872   -2.6377 N   0  0  0  0  0  0  0  0  0  0  0  0
    3.0482   -6.3916   -2.9190 C   0  0  0  0  0  0  0  0  0  0  0  0
    3.2217   -5.2514   -3.5873 N   0  0  0  0  0  0  0  0  0  0  0  0
    4.4730   -4.9639   -3.9910 C   0  0  0  0  0  0  0  0  0  0  0  0
    4.6916   -3.8072   -4.7828 N   0  0  0  0  0  0  0  0  0  0  0  0
    3.6969   -3.0923   -5.4745 C   0  0  0  0  0  0  0  0  0  0  0  0
    3.7982   -1.7085   -5.5973 C   0  0  0  0  0  0  0  0  0  0  0  0
    2.7710   -0.9764   -6.1958 C   0  0  0  0  0  0  0  0  0  0  0  0
    1.6366   -1.6116   -6.7068 C   0  0  0  0  0  0  0  0  0  0  0  0
    0.5096   -0.9148   -7.2003 N   0  0  0  0  0  0  0  0  0  0  0  0
    0.2562    0.4329   -6.9868 C   0  0  0  0  0  0  0  0  0  0  0  0
    0.9732    1.2119   -6.3637 O   0  0  0  0  0  0  0  0  0  0  0  0
   -1.0472    0.9562   -7.4773 C   0  0  0  0  0  0  0  0  0  0  0  0
   -2.1978    0.1703   -7.2568 C   0  0  0  0  0  0  0  0  0  0  0  0
   -3.4739    0.6992   -7.4602 C   0  0  0  0  0  0  0  0  0  0  0  0
   -3.6174    2.0192   -7.8705 C   0  0  0  0  0  0  0  0  0  0  0  0
   -2.4852    2.7968   -8.1116 C   0  0  0  0  0  0  0  0  0  0  0  0
   -1.1941    2.2759   -7.9409 C   0  0  0  0  0  0  0  0  0  0  0  0
   -0.2184    3.2084   -8.1789 O   0  0  0  0  0  0  0  0  0  0  0  0
    0.9623    2.7739   -8.8449 C   0  0  0  0  0  0  0  0  0  0  0  0
    1.5924   -3.0056   -6.7024 C   0  0  0  0  0  0  0  0  0  0  0  0
    2.6193   -3.7362   -6.0968 C   0  0  0  0  0  0  0  0  0  0  0  0
    5.5535   -5.8137   -3.7136 C   0  0  0  0  0  0  0  0  0  0  0  0
    6.8862   -5.5737   -4.1125 C   0  0  0  0  0  0  0  0  0  0  0  0
    7.8827   -6.5429   -3.9717 C   0  0  0  0  0  0  0  0  0  0  0  0
    9.0682   -6.1016   -4.4814 O   0  0  0  0  0  0  0  0  0  0  0  0
   10.1782   -6.9731   -4.5826 C   0  0  0  0  0  0  0  0  0  0  0  0
    8.6247  -10.7382   -3.9817 H   0  0  0  0  0  0  0  0  0  0  0  0
    6.9661  -10.1540   -4.0051 H   0  0  0  0  0  0  0  0  0  0  0  0
    7.7727  -10.5201   -2.4403 H   0  0  0  0  0  0  0  0  0  0  0  0
    5.9643   -8.8592   -2.3703 H   0  0  0  0  0  0  0  0  0  0  0  0
    2.0394   -6.6171   -2.5915 H   0  0  0  0  0  0  0  0  0  0  0  0
    5.3792   -3.2068   -4.3390 H   0  0  0  0  0  0  0  0  0  0  0  0
    4.6498   -1.1711   -5.1907 H   0  0  0  0  0  0  0  0  0  0  0  0
    2.8876    0.1013   -6.2319 H   0  0  0  0  0  0  0  0  0  0  0  0
   -0.2160   -1.4835   -7.6186 H   0  0  0  0  0  0  0  0  0  0  0  0
   -2.1250   -0.8326   -6.8446 H   0  0  0  0  0  0  0  0  0  0  0  0
   -4.3548    0.0980   -7.2477 H   0  0  0  0  0  0  0  0  0  0  0  0
   -4.6073    2.4551   -7.9796 H   0  0  0  0  0  0  0  0  0  0  0  0
   -2.6054    3.8356   -8.4136 H   0  0  0  0  0  0  0  0  0  0  0  0
    1.3012    3.5984   -9.4817 H   0  0  0  0  0  0  0  0  0  0  0  0
    0.8014    1.9016   -9.4859 H   0  0  0  0  0  0  0  0  0  0  0  0
    1.7638    2.5922   -8.1250 H   0  0  0  0  0  0  0  0  0  0  0  0
    0.7492   -3.5507   -7.1161 H   0  0  0  0  0  0  0  0  0  0  0  0
    2.5563   -4.8229   -6.0809 H   0  0  0  0  0  0  0  0  0  0  0  0
    7.1546   -4.6336   -4.5912 H   0  0  0  0  0  0  0  0  0  0  0  0
   10.8958   -6.4900   -5.2557 H   0  0  0  0  0  0  0  0  0  0  0  0
    9.9208   -7.9317   -5.0380 H   0  0  0  0  0  0  0  0  0  0  0  0
   10.6648   -7.0925   -3.6109 H   0  0  0  0  0  0  0  0  0  0  0  0
  1  2  1  0  0  0  0
  1 33  1  0  0  0  0
  1 34  1  0  0  0  0
  1 35  1  0  0  0  0
  2  3  1  0  0  0  0
  3  4  1  0  0  0  0
  3 30  2  0  0  0  0
  4  5  2  0  0  0  0
  4 36  1  0  0  0  0
  5  6  1  0  0  0  0
  5 28  1  0  0  0  0
  6  7  2  0  0  0  0
  7  8  1  0  0  0  0
  7 37  1  0  0  0  0
  8  9  2  0  0  0  0
  9 10  1  0  0  0  0
  9 28  1  0  0  0  0
 10 11  1  0  0  0  0
 10 38  1  0  0  0  0
 11 12  1  0  0  0  0
 11 27  2  0  0  0  0
 12 13  2  0  0  0  0
 12 39  1  0  0  0  0
 13 14  1  0  0  0  0
 13 40  1  0  0  0  0
 14 15  1  0  0  0  0
 14 26  2  0  0  0  0
 15 16  1  0  0  0  0
 15 41  1  0  0  0  0
 16 17  2  0  0  0  0
 16 18  1  0  0  0  0
 18 19  1  0  0  0  0
 18 23  2  0  0  0  0
 19 20  2  0  0  0  0
 19 42  1  0  0  0  0
 20 21  1  0  0  0  0
 20 43  1  0  0  0  0
 21 22  2  0  0  0  0
 21 44  1  0  0  0  0
 22 23  1  0  0  0  0
 22 45  1  0  0  0  0
 23 24  1  0  0  0  0
 24 25  1  0  0  0  0
 25 46  1  0  0  0  0
 25 47  1  0  0  0  0
 25 48  1  0  0  0  0
 26 27  1  0  0  0  0
 26 49  1  0  0  0  0
 27 50  1  0  0  0  0
 28 29  2  0  0  0  0
 29 30  1  0  0  0  0
 29 51  1  0  0  0  0
 30 31  1  0  0  0  0
 31 32  1  0  0  0  0
 32 52  1  0  0  0  0
 32 53  1  0  0  0  0
 32 54  1  0  0  0  0
M  END
$$$$
