CHEMBL500435
 OpenBabel04072215383D

 58 62  0  0  0  0  0  0  0  0999 V2000
   -2.6406   -0.0452    2.4306 O   0  0  0  0  0  0  0  0  0  0  0  0
   -1.5562   -0.0785    1.8802 C   0  0  0  0  0  0  0  0  0  0  0  0
   -0.4964    0.7498    2.1994 N   0  0  0  0  0  0  0  0  0  0  0  0
    0.6805    0.3134    1.6119 C   0  0  0  0  0  0  0  0  0  0  0  0
    1.9292    0.8677    1.8147 C   0  0  0  0  0  0  0  0  0  0  0  0
    3.0088    0.2548    1.1843 C   0  0  0  0  0  0  0  0  0  0  0  0
    2.8092   -0.8737    0.3702 C   0  0  0  0  0  0  0  0  0  0  0  0
    1.5272   -1.4096    0.1712 C   0  0  0  0  0  0  0  0  0  0  0  0
    0.4533   -0.8126    0.8080 C   0  0  0  0  0  0  0  0  0  0  0  0
   -1.0010   -1.0684    0.8658 C   0  0  0  0  0  0  0  0  0  0  0  0
   -1.7958   -1.9655    0.2360 C   0  0  0  0  0  0  0  0  0  0  0  0
   -3.1823   -1.9725    0.2656 N   0  0  0  0  0  0  0  0  0  0  0  0
   -3.9978   -0.8904   -0.1259 C   0  0  0  0  0  0  0  0  0  0  0  0
   -3.5820    0.0417   -1.0867 C   0  0  0  0  0  0  0  0  0  0  0  0
   -4.2836    1.2309   -1.2900 C   0  0  0  0  0  0  0  0  0  0  0  0
   -5.4076    1.5252   -0.5134 C   0  0  0  0  0  0  0  0  0  0  0  0
   -6.0103    2.9116   -0.5387 C   0  0  0  0  0  0  0  0  0  0  0  0
   -6.4771    3.3769   -1.8627 N   0  0  0  0  0  0  0  0  0  0  0  0
   -7.6396    2.5847   -2.2978 C   0  0  0  0  0  0  0  0  0  0  0  0
   -8.2853    3.1302   -3.5726 C   0  0  0  0  0  0  0  0  0  0  0  0
   -8.6775    4.5903   -3.4004 C   0  0  0  0  0  0  0  0  0  0  0  0
   -7.4494    5.3968   -3.0065 C   0  0  0  0  0  0  0  0  0  0  0  0
   -6.7895    4.8154   -1.7569 C   0  0  0  0  0  0  0  0  0  0  0  0
   -5.8757    0.5598    0.3905 C   0  0  0  0  0  0  0  0  0  0  0  0
   -5.1856   -0.6443    0.5687 C   0  0  0  0  0  0  0  0  0  0  0  0
   -1.2243   -3.0870   -0.5374 C   0  0  0  0  0  0  0  0  0  0  0  0
   -0.9316   -4.2896    0.1138 C   0  0  0  0  0  0  0  0  0  0  0  0
   -0.4325   -5.3794   -0.6120 C   0  0  0  0  0  0  0  0  0  0  0  0
   -0.2265   -5.2636   -1.9864 C   0  0  0  0  0  0  0  0  0  0  0  0
   -0.5170   -4.0673   -2.6416 C   0  0  0  0  0  0  0  0  0  0  0  0
   -1.0216   -2.9828   -1.9214 C   0  0  0  0  0  0  0  0  0  0  0  0
   -0.5816    1.4793    2.8886 H   0  0  0  0  0  0  0  0  0  0  0  0
    2.0693    1.7362    2.4480 H   0  0  0  0  0  0  0  0  0  0  0  0
    4.0126    0.6470    1.3304 H   0  0  0  0  0  0  0  0  0  0  0  0
    3.6671   -1.3415   -0.1093 H   0  0  0  0  0  0  0  0  0  0  0  0
    1.4099   -2.2799   -0.4636 H   0  0  0  0  0  0  0  0  0  0  0  0
   -3.6434   -2.8726    0.3200 H   0  0  0  0  0  0  0  0  0  0  0  0
   -2.6829   -0.1345   -1.6684 H   0  0  0  0  0  0  0  0  0  0  0  0
   -3.9172    1.9553   -2.0131 H   0  0  0  0  0  0  0  0  0  0  0  0
   -5.2224    3.5852   -0.1726 H   0  0  0  0  0  0  0  0  0  0  0  0
   -6.8247    2.9775    0.1962 H   0  0  0  0  0  0  0  0  0  0  0  0
   -8.3999    2.5437   -1.5071 H   0  0  0  0  0  0  0  0  0  0  0  0
   -7.3255    1.5547   -2.5024 H   0  0  0  0  0  0  0  0  0  0  0  0
   -9.1718    2.5357   -3.8188 H   0  0  0  0  0  0  0  0  0  0  0  0
   -7.5883    3.0332   -4.4146 H   0  0  0  0  0  0  0  0  0  0  0  0
   -9.4461    4.6783   -2.6197 H   0  0  0  0  0  0  0  0  0  0  0  0
   -9.1099    4.9812   -4.3252 H   0  0  0  0  0  0  0  0  0  0  0  0
   -7.7380    6.4380   -2.8183 H   0  0  0  0  0  0  0  0  0  0  0  0
   -6.7338    5.4080   -3.8377 H   0  0  0  0  0  0  0  0  0  0  0  0
   -7.4447    5.0070   -0.8966 H   0  0  0  0  0  0  0  0  0  0  0  0
   -5.8589    5.3709   -1.5816 H   0  0  0  0  0  0  0  0  0  0  0  0
   -6.7390    0.7654    1.0184 H   0  0  0  0  0  0  0  0  0  0  0  0
   -5.5139   -1.3336    1.3419 H   0  0  0  0  0  0  0  0  0  0  0  0
   -1.0972   -4.3925    1.1826 H   0  0  0  0  0  0  0  0  0  0  0  0
   -0.2154   -6.3126   -0.1036 H   0  0  0  0  0  0  0  0  0  0  0  0
    0.1537   -6.1138   -2.5489 H   0  0  0  0  0  0  0  0  0  0  0  0
   -0.3628   -3.9852   -3.7146 H   0  0  0  0  0  0  0  0  0  0  0  0
   -1.2567   -2.0586   -2.4443 H   0  0  0  0  0  0  0  0  0  0  0  0
  1  2  2  0  0  0  0
  2  3  1  0  0  0  0
  2 10  1  0  0  0  0
  3  4  1  0  0  0  0
  3 32  1  0  0  0  0
  4  5  1  0  0  0  0
  4  9  2  0  0  0  0
  5  6  2  0  0  0  0
  5 33  1  0  0  0  0
  6  7  1  0  0  0  0
  6 34  1  0  0  0  0
  7  8  2  0  0  0  0
  7 35  1  0  0  0  0
  8  9  1  0  0  0  0
  8 36  1  0  0  0  0
  9 10  1  0  0  0  0
 10 11  2  0  0  0  0
 11 12  1  0  0  0  0
 11 26  1  0  0  0  0
 12 13  1  0  0  0  0
 12 37  1  0  0  0  0
 13 14  1  0  0  0  0
 13 25  2  0  0  0  0
 14 15  2  0  0  0  0
 14 38  1  0  0  0  0
 15 16  1  0  0  0  0
 15 39  1  0  0  0  0
 16 17  1  0  0  0  0
 16 24  2  0  0  0  0
 17 18  1  0  0  0  0
 17 40  1  0  0  0  0
 17 41  1  0  0  0  0
 18 19  1  0  0  0  0
 18 23  1  0  0  0  0
 19 20  1  0  0  0  0
 19 42  1  0  0  0  0
 19 43  1  0  0  0  0
 20 21  1  0  0  0  0
 20 44  1  0  0  0  0
 20 45  1  0  0  0  0
 21 22  1  0  0  0  0
 21 46  1  0  0  0  0
 21 47  1  0  0  0  0
 22 23  1  0  0  0  0
 22 48  1  0  0  0  0
 22 49  1  0  0  0  0
 23 50  1  0  0  0  0
 23 51  1  0  0  0  0
 24 25  1  0  0  0  0
 24 52  1  0  0  0  0
 25 53  1  0  0  0  0
 26 27  1  0  0  0  0
 26 31  2  0  0  0  0
 27 28  2  0  0  0  0
 27 54  1  0  0  0  0
 28 29  1  0  0  0  0
 28 55  1  0  0  0  0
 29 30  2  0  0  0  0
 29 56  1  0  0  0  0
 30 31  1  0  0  0  0
 30 57  1  0  0  0  0
 31 58  1  0  0  0  0
M  END
$$$$
