CHEMBL372174
 OpenBabel04072215373D

 44 47  0  0  0  0  0  0  0  0999 V2000
    5.3189    1.6223   -1.5806 C   0  0  0  0  0  0  0  0  0  0  0  0
    4.3392    0.8121   -0.7896 C   0  0  0  0  0  0  0  0  0  0  0  0
    4.6602   -0.8667   -0.6713 S   0  0  0  0  0  0  0  0  0  0  0  0
    3.3211   -1.1346    0.3256 C   0  0  0  0  0  0  0  0  0  0  0  0
    3.1004   -2.3768    0.7863 N   0  0  0  0  0  0  0  0  0  0  0  0
    2.0175   -2.4507    1.5510 C   0  0  0  0  0  0  0  0  0  0  0  0
    1.1762   -1.4581    1.8537 N   0  0  0  0  0  0  0  0  0  0  0  0
    1.4170   -0.2258    1.3641 C   0  0  0  0  0  0  0  0  0  0  0  0
    0.4586    0.7116    1.7183 N   0  0  0  0  0  0  0  0  0  0  0  0
    2.5654    0.0049    0.5610 C   0  0  0  0  0  0  0  0  0  0  0  0
    3.1865    1.1815   -0.0999 C   0  0  0  0  0  0  0  0  0  0  0  0
    2.7370    2.5850   -0.0209 C   0  0  0  0  0  0  0  0  0  0  0  0
    2.1946    3.0772    1.1671 C   0  0  0  0  0  0  0  0  0  0  0  0
    1.6486    4.3577    1.2457 C   0  0  0  0  0  0  0  0  0  0  0  0
    1.7404    5.2547    0.1824 C   0  0  0  0  0  0  0  0  0  0  0  0
    1.2242    6.5722    0.2280 N   0  0  0  0  0  0  0  0  0  0  0  0
    0.5703    7.1332    1.3046 C   0  0  0  0  0  0  0  0  0  0  0  0
    0.4027    6.5872    2.3899 O   0  0  0  0  0  0  0  0  0  0  0  0
    0.0461    8.3914    1.0160 N   0  0  0  0  0  0  0  0  0  0  0  0
   -0.7174    9.0406    2.0182 C   0  0  0  0  0  0  0  0  0  0  0  0
   -0.2437    9.1318    3.3341 C   0  0  0  0  0  0  0  0  0  0  0  0
   -1.0766    9.5992    4.3520 C   0  0  0  0  0  0  0  0  0  0  0  0
   -2.3795    9.9775    4.0473 C   0  0  0  0  0  0  0  0  0  0  0  0
   -3.4408   10.4650    5.3100 Cl  0  0  0  0  0  0  0  0  0  0  0  0
   -2.8396    9.9377    2.7294 C   0  0  0  0  0  0  0  0  0  0  0  0
   -1.9979    9.4925    1.7046 C   0  0  0  0  0  0  0  0  0  0  0  0
    2.3636    4.8139   -0.9855 C   0  0  0  0  0  0  0  0  0  0  0  0
    2.8148    3.4876   -1.0968 C   0  0  0  0  0  0  0  0  0  0  0  0
    6.2308    1.0622   -1.8170 H   0  0  0  0  0  0  0  0  0  0  0  0
    5.6235    2.5163   -1.0280 H   0  0  0  0  0  0  0  0  0  0  0  0
    4.8822    1.9197   -2.5392 H   0  0  0  0  0  0  0  0  0  0  0  0
    1.7847   -3.4241    1.9704 H   0  0  0  0  0  0  0  0  0  0  0  0
   -0.3440    0.2582    2.1397 H   0  0  0  0  0  0  0  0  0  0  0  0
    0.2531    1.4098    1.0161 H   0  0  0  0  0  0  0  0  0  0  0  0
    2.1525    2.4619    2.0643 H   0  0  0  0  0  0  0  0  0  0  0  0
    1.1559    4.6060    2.1801 H   0  0  0  0  0  0  0  0  0  0  0  0
    1.4113    7.1710   -0.5619 H   0  0  0  0  0  0  0  0  0  0  0  0
   -0.2880    8.4866    0.0680 H   0  0  0  0  0  0  0  0  0  0  0  0
    0.7564    8.7914    3.5886 H   0  0  0  0  0  0  0  0  0  0  0  0
   -0.7119    9.6198    5.3750 H   0  0  0  0  0  0  0  0  0  0  0  0
   -3.8662   10.2115    2.5020 H   0  0  0  0  0  0  0  0  0  0  0  0
   -2.3902    9.4159    0.6952 H   0  0  0  0  0  0  0  0  0  0  0  0
    2.4876    5.4810   -1.8358 H   0  0  0  0  0  0  0  0  0  0  0  0
    3.2233    3.1803   -2.0563 H   0  0  0  0  0  0  0  0  0  0  0  0
  1  2  1  0  0  0  0
  1 29  1  0  0  0  0
  1 30  1  0  0  0  0
  1 31  1  0  0  0  0
  2  3  1  0  0  0  0
  2 11  2  0  0  0  0
  3  4  1  0  0  0  0
  4  5  1  0  0  0  0
  4 10  2  0  0  0  0
  5  6  2  0  0  0  0
  6  7  1  0  0  0  0
  6 32  1  0  0  0  0
  7  8  2  0  0  0  0
  8  9  1  0  0  0  0
  8 10  1  0  0  0  0
  9 33  1  0  0  0  0
  9 34  1  0  0  0  0
 10 11  1  0  0  0  0
 11 12  1  0  0  0  0
 12 13  1  0  0  0  0
 12 28  2  0  0  0  0
 13 14  2  0  0  0  0
 13 35  1  0  0  0  0
 14 15  1  0  0  0  0
 14 36  1  0  0  0  0
 15 16  1  0  0  0  0
 15 27  2  0  0  0  0
 16 17  1  0  0  0  0
 16 37  1  0  0  0  0
 17 18  2  0  0  0  0
 17 19  1  0  0  0  0
 19 20  1  0  0  0  0
 19 38  1  0  0  0  0
 20 21  1  0  0  0  0
 20 26  2  0  0  0  0
 21 22  2  0  0  0  0
 21 39  1  0  0  0  0
 22 23  1  0  0  0  0
 22 40  1  0  0  0  0
 23 24  1  0  0  0  0
 23 25  2  0  0  0  0
 25 26  1  0  0  0  0
 25 41  1  0  0  0  0
 26 42  1  0  0  0  0
 27 28  1  0  0  0  0
 27 43  1  0  0  0  0
 28 44  1  0  0  0  0
M  END
$$$$
