CHEMBL2018769
 OpenBabel04072215363D

 64 66  0  0  0  0  0  0  0  0999 V2000
    8.7148   -7.2476    5.9322 C   0  0  0  0  0  0  0  0  0  0  0  0
    7.3751   -6.8097    5.3641 C   0  0  0  0  0  0  0  0  0  0  0  0
    7.6106   -5.9671    4.2232 O   0  0  0  0  0  0  0  0  0  0  0  0
    7.7644   -4.6570    4.5498 C   0  0  0  0  0  0  0  0  0  0  0  0
    7.4964   -4.2023    5.6509 O   0  0  0  0  0  0  0  0  0  0  0  0
    8.3013   -3.9739    3.4922 N   0  0  0  0  0  0  0  0  0  0  0  0
    8.8511   -2.6745    3.5464 C   0  0  0  0  0  0  0  0  0  0  0  0
    9.0661   -2.0150    4.7626 C   0  0  0  0  0  0  0  0  0  0  0  0
    9.6256   -0.7401    4.8068 C   0  0  0  0  0  0  0  0  0  0  0  0
   10.0239   -0.1028    3.6338 C   0  0  0  0  0  0  0  0  0  0  0  0
   10.5488    1.1923    3.7050 N   0  0  0  0  0  0  0  0  0  0  0  0
   11.4351    1.7878    2.7813 C   0  0  0  0  0  0  0  0  0  0  0  0
   12.3709    1.0108    2.2065 N   0  0  0  0  0  0  0  0  0  0  0  0
   13.1630    1.6063    1.3135 C   0  0  0  0  0  0  0  0  0  0  0  0
   13.0874    2.8886    0.9361 N   0  0  0  0  0  0  0  0  0  0  0  0
   12.1210    3.6249    1.4956 C   0  0  0  0  0  0  0  0  0  0  0  0
   11.9127    4.9133    1.0387 C   0  0  0  0  0  0  0  0  0  0  0  0
   10.8127    5.7292    1.4178 C   0  0  0  0  0  0  0  0  0  0  0  0
   10.5294    6.9075    0.7229 O   0  0  0  0  0  0  0  0  0  0  0  0
   11.2052    6.9425   -0.5626 C   0  0  0  0  0  0  0  0  0  0  0  0
   10.6999    7.9180   -1.6462 C   0  0  0  0  0  0  0  0  0  0  0  0
   11.3507    7.6845   -2.9781 N   0  0  0  0  0  0  0  0  0  0  0  0
   11.2382    6.3037   -3.4884 C   0  0  0  0  0  0  0  0  0  0  0  0
    9.8269    5.8279   -3.8155 C   0  0  0  0  0  0  0  0  0  0  0  0
   10.9196    8.6962   -3.9617 C   0  0  0  0  0  0  0  0  0  0  0  0
   11.5508    8.5601   -5.3524 C   0  0  0  0  0  0  0  0  0  0  0  0
   10.0241    5.2774    2.4819 C   0  0  0  0  0  0  0  0  0  0  0  0
    9.0409    5.8919    3.1959 O   0  0  0  0  0  0  0  0  0  0  0  0
    8.1714    6.8131    2.5723 C   0  0  0  0  0  0  0  0  0  0  0  0
   10.2691    3.9945    2.9995 C   0  0  0  0  0  0  0  0  0  0  0  0
   11.2640    3.1431    2.4703 C   0  0  0  0  0  0  0  0  0  0  0  0
    9.8046   -0.7526    2.4111 C   0  0  0  0  0  0  0  0  0  0  0  0
    9.2329   -2.0268    2.3651 C   0  0  0  0  0  0  0  0  0  0  0  0
    8.9823   -2.7565    0.8164 Cl  0  0  0  0  0  0  0  0  0  0  0  0
    8.5818   -7.8555    6.8307 H   0  0  0  0  0  0  0  0  0  0  0  0
    9.3402   -6.3835    6.1835 H   0  0  0  0  0  0  0  0  0  0  0  0
    9.2683   -7.8292    5.1879 H   0  0  0  0  0  0  0  0  0  0  0  0
    6.7728   -6.3079    6.1316 H   0  0  0  0  0  0  0  0  0  0  0  0
    6.7986   -7.6762    5.0294 H   0  0  0  0  0  0  0  0  0  0  0  0
    8.3334   -4.4671    2.6078 H   0  0  0  0  0  0  0  0  0  0  0  0
    8.8309   -2.4717    5.7180 H   0  0  0  0  0  0  0  0  0  0  0  0
    9.7590   -0.2629    5.7736 H   0  0  0  0  0  0  0  0  0  0  0  0
   10.6901    1.5575    4.6376 H   0  0  0  0  0  0  0  0  0  0  0  0
   13.9194    0.9945    0.8420 H   0  0  0  0  0  0  0  0  0  0  0  0
   12.6372    5.2396    0.2970 H   0  0  0  0  0  0  0  0  0  0  0  0
   11.0825    5.9463   -0.9885 H   0  0  0  0  0  0  0  0  0  0  0  0
   12.2641    7.1736   -0.3888 H   0  0  0  0  0  0  0  0  0  0  0  0
   10.9431    8.9354   -1.3120 H   0  0  0  0  0  0  0  0  0  0  0  0
    9.6085    7.8709   -1.7200 H   0  0  0  0  0  0  0  0  0  0  0  0
   11.7039    5.5984   -2.7929 H   0  0  0  0  0  0  0  0  0  0  0  0
   11.8671    6.1835   -4.3788 H   0  0  0  0  0  0  0  0  0  0  0  0
    9.1394    5.9715   -2.9774 H   0  0  0  0  0  0  0  0  0  0  0  0
    9.8420    4.7578   -4.0481 H   0  0  0  0  0  0  0  0  0  0  0  0
    9.4232    6.3482   -4.6893 H   0  0  0  0  0  0  0  0  0  0  0  0
   11.1970    9.6874   -3.5837 H   0  0  0  0  0  0  0  0  0  0  0  0
    9.8290    8.6869   -4.0718 H   0  0  0  0  0  0  0  0  0  0  0  0
   12.6445    8.5672   -5.2995 H   0  0  0  0  0  0  0  0  0  0  0  0
   11.2390    9.3950   -5.9888 H   0  0  0  0  0  0  0  0  0  0  0  0
   11.2362    7.6443   -5.8643 H   0  0  0  0  0  0  0  0  0  0  0  0
    7.3588    6.9964    3.2882 H   0  0  0  0  0  0  0  0  0  0  0  0
    7.7162    6.4005    1.6682 H   0  0  0  0  0  0  0  0  0  0  0  0
    8.6687    7.7666    2.3929 H   0  0  0  0  0  0  0  0  0  0  0  0
    9.6218    3.6311    3.7972 H   0  0  0  0  0  0  0  0  0  0  0  0
   10.0697   -0.2537    1.4818 H   0  0  0  0  0  0  0  0  0  0  0  0
  1  2  1  0  0  0  0
  1 35  1  0  0  0  0
  1 36  1  0  0  0  0
  1 37  1  0  0  0  0
  2  3  1  0  0  0  0
  2 38  1  0  0  0  0
  2 39  1  0  0  0  0
  3  4  1  0  0  0  0
  4  5  2  0  0  0  0
  4  6  1  0  0  0  0
  6  7  1  0  0  0  0
  6 40  1  0  0  0  0
  7  8  1  0  0  0  0
  7 33  2  0  0  0  0
  8  9  2  0  0  0  0
  8 41  1  0  0  0  0
  9 10  1  0  0  0  0
  9 42  1  0  0  0  0
 10 11  1  0  0  0  0
 10 32  2  0  0  0  0
 11 12  1  0  0  0  0
 11 43  1  0  0  0  0
 12 13  1  0  0  0  0
 12 31  2  0  0  0  0
 13 14  2  0  0  0  0
 14 15  1  0  0  0  0
 14 44  1  0  0  0  0
 15 16  2  0  0  0  0
 16 17  1  0  0  0  0
 16 31  1  0  0  0  0
 17 18  2  0  0  0  0
 17 45  1  0  0  0  0
 18 19  1  0  0  0  0
 18 27  1  0  0  0  0
 19 20  1  0  0  0  0
 20 21  1  0  0  0  0
 20 46  1  0  0  0  0
 20 47  1  0  0  0  0
 21 22  1  0  0  0  0
 21 48  1  0  0  0  0
 21 49  1  0  0  0  0
 22 23  1  0  0  0  0
 22 25  1  0  0  0  0
 23 24  1  0  0  0  0
 23 50  1  0  0  0  0
 23 51  1  0  0  0  0
 24 52  1  0  0  0  0
 24 53  1  0  0  0  0
 24 54  1  0  0  0  0
 25 26  1  0  0  0  0
 25 55  1  0  0  0  0
 25 56  1  0  0  0  0
 26 57  1  0  0  0  0
 26 58  1  0  0  0  0
 26 59  1  0  0  0  0
 27 28  1  0  0  0  0
 27 30  2  0  0  0  0
 28 29  1  0  0  0  0
 29 60  1  0  0  0  0
 29 61  1  0  0  0  0
 29 62  1  0  0  0  0
 30 31  1  0  0  0  0
 30 63  1  0  0  0  0
 32 33  1  0  0  0  0
 32 64  1  0  0  0  0
 33 34  1  0  0  0  0
M  END
$$$$
