CHEMBL2011304
 OpenBabel04072215363D

 38 41  0  0  0  0  0  0  0  0999 V2000
    2.2361    0.2210   -0.0863 F   0  0  0  0  0  0  0  0  0  0  0  0
    0.9005    0.1336   -0.1276 C   0  0  0  0  0  0  0  0  0  0  0  0
    0.1663    1.1378   -0.7442 C   0  0  0  0  0  0  0  0  0  0  0  0
   -1.2305    1.0772   -0.7381 C   0  0  0  0  0  0  0  0  0  0  0  0
   -1.8959    0.0026   -0.1267 C   0  0  0  0  0  0  0  0  0  0  0  0
   -3.3513   -0.0190   -0.0177 C   0  0  0  0  0  0  0  0  0  0  0  0
   -4.1947    0.5423   -0.9538 C   0  0  0  0  0  0  0  0  0  0  0  0
   -5.4949    0.3032   -0.5499 N   0  0  0  0  0  0  0  0  0  0  0  0
   -6.7038    0.6622   -1.2186 C   0  0  0  0  0  0  0  0  0  0  0  0
   -6.7911    0.6883   -2.6280 C   0  0  0  0  0  0  0  0  0  0  0  0
   -5.5538    0.1383   -3.7119 Cl  0  0  0  0  0  0  0  0  0  0  0  0
   -7.9813    1.0669   -3.2661 C   0  0  0  0  0  0  0  0  0  0  0  0
   -9.1022    1.3965   -2.5187 C   0  0  0  0  0  0  0  0  0  0  0  0
  -10.5586    1.8486   -3.3128 Cl  0  0  0  0  0  0  0  0  0  0  0  0
   -9.0497    1.3582   -1.1332 C   0  0  0  0  0  0  0  0  0  0  0  0
   -7.8606    1.0022   -0.4781 C   0  0  0  0  0  0  0  0  0  0  0  0
   -7.9301    1.1565    1.2490 Cl  0  0  0  0  0  0  0  0  0  0  0  0
   -5.5118   -0.3521    0.6307 N   0  0  0  0  0  0  0  0  0  0  0  0
   -4.2316   -0.5041    0.9992 C   0  0  0  0  0  0  0  0  0  0  0  0
   -3.9120   -1.0953    2.3029 C   0  0  0  0  0  0  0  0  0  0  0  0
   -4.6843   -2.1403    2.8150 C   0  0  0  0  0  0  0  0  0  0  0  0
   -4.3101   -2.7084    4.0224 C   0  0  0  0  0  0  0  0  0  0  0  0
   -3.2318   -2.3188    4.7351 N   0  0  0  0  0  0  0  0  0  0  0  0
   -2.5188   -1.2880    4.2397 C   0  0  0  0  0  0  0  0  0  0  0  0
   -2.8301   -0.6367    3.0588 C   0  0  0  0  0  0  0  0  0  0  0  0
   -1.1261   -1.0377    0.4193 C   0  0  0  0  0  0  0  0  0  0  0  0
    0.2678   -0.9571    0.4504 C   0  0  0  0  0  0  0  0  0  0  0  0
    0.6822    1.9711   -1.2098 H   0  0  0  0  0  0  0  0  0  0  0  0
   -1.7845    1.8910   -1.1984 H   0  0  0  0  0  0  0  0  0  0  0  0
   -3.9765    1.1060   -1.8453 H   0  0  0  0  0  0  0  0  0  0  0  0
   -8.0387    1.0826   -4.3529 H   0  0  0  0  0  0  0  0  0  0  0  0
   -9.9310    1.6303   -0.5549 H   0  0  0  0  0  0  0  0  0  0  0  0
   -5.5562   -2.5097    2.2852 H   0  0  0  0  0  0  0  0  0  0  0  0
   -4.8832   -3.5212    4.4587 H   0  0  0  0  0  0  0  0  0  0  0  0
   -1.6566   -0.9905    4.8298 H   0  0  0  0  0  0  0  0  0  0  0  0
   -2.2180    0.1977    2.7355 H   0  0  0  0  0  0  0  0  0  0  0  0
   -1.5994   -1.9149    0.8571 H   0  0  0  0  0  0  0  0  0  0  0  0
    0.8565   -1.7330    0.9293 H   0  0  0  0  0  0  0  0  0  0  0  0
  1  2  1  0  0  0  0
  2  3  1  0  0  0  0
  2 27  2  0  0  0  0
  3  4  2  0  0  0  0
  3 28  1  0  0  0  0
  4  5  1  0  0  0  0
  4 29  1  0  0  0  0
  5  6  1  0  0  0  0
  5 26  2  0  0  0  0
  6  7  2  0  0  0  0
  6 19  1  0  0  0  0
  7  8  1  0  0  0  0
  7 30  1  0  0  0  0
  8  9  1  0  0  0  0
  8 18  1  0  0  0  0
  9 10  1  0  0  0  0
  9 16  2  0  0  0  0
 10 11  1  0  0  0  0
 10 12  2  0  0  0  0
 12 13  1  0  0  0  0
 12 31  1  0  0  0  0
 13 14  1  0  0  0  0
 13 15  2  0  0  0  0
 15 16  1  0  0  0  0
 15 32  1  0  0  0  0
 16 17  1  0  0  0  0
 18 19  2  0  0  0  0
 19 20  1  0  0  0  0
 20 21  1  0  0  0  0
 20 25  2  0  0  0  0
 21 22  2  0  0  0  0
 21 33  1  0  0  0  0
 22 23  1  0  0  0  0
 22 34  1  0  0  0  0
 23 24  2  0  0  0  0
 24 25  1  0  0  0  0
 24 35  1  0  0  0  0
 25 36  1  0  0  0  0
 26 27  1  0  0  0  0
 26 37  1  0  0  0  0
 27 38  1  0  0  0  0
M  END
$$$$
