CHEMBL1999484
 OpenBabel04072215363D

 50 53  0  0  0  0  0  0  0  0999 V2000
    6.7089   -2.1665    3.0456 C   0  0  0  0  0  0  0  0  0  0  0  0
    5.9075   -1.4554    2.0734 N   0  0  0  0  0  0  0  0  0  0  0  0
    5.6687   -1.9781    0.8477 C   0  0  0  0  0  0  0  0  0  0  0  0
    5.4584   -1.2058   -0.1912 N   0  0  0  0  0  0  0  0  0  0  0  0
    5.2348   -1.9596   -1.3378 C   0  0  0  0  0  0  0  0  0  0  0  0
    4.9812   -1.2292   -2.6084 C   0  0  0  0  0  0  0  0  0  0  0  0
    5.2563   -3.3340   -1.1508 C   0  0  0  0  0  0  0  0  0  0  0  0
    5.0766   -4.4355   -2.1013 C   0  0  0  0  0  0  0  0  0  0  0  0
    4.4992   -5.6342   -1.7340 C   0  0  0  0  0  0  0  0  0  0  0  0
    4.4438   -6.5918   -2.7076 C   0  0  0  0  0  0  0  0  0  0  0  0
    4.9184   -6.3990   -3.9433 N   0  0  0  0  0  0  0  0  0  0  0  0
    5.4663   -5.2046   -4.2305 C   0  0  0  0  0  0  0  0  0  0  0  0
    5.9929   -4.9911   -5.5095 N   0  0  0  0  0  0  0  0  0  0  0  0
    6.6057   -5.9603   -6.3243 C   0  0  0  0  0  0  0  0  0  0  0  0
    6.6327   -5.7964   -7.7111 C   0  0  0  0  0  0  0  0  0  0  0  0
    7.1739   -6.7924   -8.5446 C   0  0  0  0  0  0  0  0  0  0  0  0
    7.7146   -7.9742   -8.0229 C   0  0  0  0  0  0  0  0  0  0  0  0
    8.2142   -8.9961   -8.8072 N   0  0  0  0  0  0  0  0  0  0  0  0
    8.8141   -8.7720  -10.1277 C   0  0  0  0  0  0  0  0  0  0  0  0
    8.0022   -9.4611  -11.2454 C   0  0  0  0  0  0  0  0  0  0  0  0
    7.7292  -10.8918  -10.9865 N   0  0  0  0  0  0  0  0  0  0  0  0
    7.0298  -10.9995   -9.6884 C   0  0  0  0  0  0  0  0  0  0  0  0
    7.8186  -10.3848   -8.5091 C   0  0  0  0  0  0  0  0  0  0  0  0
    7.7350   -8.0924   -6.6280 C   0  0  0  0  0  0  0  0  0  0  0  0
    7.1947   -7.1100   -5.7965 C   0  0  0  0  0  0  0  0  0  0  0  0
    5.5421   -4.1972   -3.3502 N   0  0  0  0  0  0  0  0  0  0  0  0
    5.5905   -3.6584    0.5064 S   0  0  0  0  0  0  0  0  0  0  0  0
    6.8406   -1.5426    3.9352 H   0  0  0  0  0  0  0  0  0  0  0  0
    7.7029   -2.3972    2.6481 H   0  0  0  0  0  0  0  0  0  0  0  0
    6.2229   -3.0930    3.3688 H   0  0  0  0  0  0  0  0  0  0  0  0
    6.0803   -0.4554    2.0416 H   0  0  0  0  0  0  0  0  0  0  0  0
    4.9601   -0.1480   -2.4386 H   0  0  0  0  0  0  0  0  0  0  0  0
    4.0163   -1.5212   -3.0347 H   0  0  0  0  0  0  0  0  0  0  0  0
    5.7691   -1.4373   -3.3382 H   0  0  0  0  0  0  0  0  0  0  0  0
    4.1097   -5.8286   -0.7437 H   0  0  0  0  0  0  0  0  0  0  0  0
    4.0187   -7.5719   -2.5195 H   0  0  0  0  0  0  0  0  0  0  0  0
    6.4153   -4.0754   -5.5561 H   0  0  0  0  0  0  0  0  0  0  0  0
    6.1819   -4.9170   -8.1643 H   0  0  0  0  0  0  0  0  0  0  0  0
    7.1093   -6.6442   -9.6187 H   0  0  0  0  0  0  0  0  0  0  0  0
    9.8240   -9.2015  -10.1101 H   0  0  0  0  0  0  0  0  0  0  0  0
    8.9443   -7.7096  -10.3601 H   0  0  0  0  0  0  0  0  0  0  0  0
    8.5547   -9.3818  -12.1881 H   0  0  0  0  0  0  0  0  0  0  0  0
    7.0498   -8.9366  -11.3922 H   0  0  0  0  0  0  0  0  0  0  0  0
    8.6265  -11.3695  -10.8950 H   0  0  0  0  0  0  0  0  0  0  0  0
    6.8416  -12.0586   -9.4801 H   0  0  0  0  0  0  0  0  0  0  0  0
    6.0482  -10.5162   -9.7707 H   0  0  0  0  0  0  0  0  0  0  0  0
    8.7255  -10.9732   -8.3253 H   0  0  0  0  0  0  0  0  0  0  0  0
    7.1948  -10.4659   -7.6113 H   0  0  0  0  0  0  0  0  0  0  0  0
    8.1906   -8.9618   -6.1618 H   0  0  0  0  0  0  0  0  0  0  0  0
    7.2429   -7.2656   -4.7219 H   0  0  0  0  0  0  0  0  0  0  0  0
  1  2  1  0  0  0  0
  1 28  1  0  0  0  0
  1 29  1  0  0  0  0
  1 30  1  0  0  0  0
  2  3  1  0  0  0  0
  2 31  1  0  0  0  0
  3  4  2  0  0  0  0
  3 27  1  0  0  0  0
  4  5  1  0  0  0  0
  5  6  1  0  0  0  0
  5  7  2  0  0  0  0
  6 32  1  0  0  0  0
  6 33  1  0  0  0  0
  6 34  1  0  0  0  0
  7  8  1  0  0  0  0
  7 27  1  0  0  0  0
  8  9  1  0  0  0  0
  8 26  2  0  0  0  0
  9 10  2  0  0  0  0
  9 35  1  0  0  0  0
 10 11  1  0  0  0  0
 10 36  1  0  0  0  0
 11 12  2  0  0  0  0
 12 13  1  0  0  0  0
 12 26  1  0  0  0  0
 13 14  1  0  0  0  0
 13 37  1  0  0  0  0
 14 15  1  0  0  0  0
 14 25  2  0  0  0  0
 15 16  2  0  0  0  0
 15 38  1  0  0  0  0
 16 17  1  0  0  0  0
 16 39  1  0  0  0  0
 17 18  1  0  0  0  0
 17 24  2  0  0  0  0
 18 19  1  0  0  0  0
 18 23  1  0  0  0  0
 19 20  1  0  0  0  0
 19 40  1  0  0  0  0
 19 41  1  0  0  0  0
 20 21  1  0  0  0  0
 20 42  1  0  0  0  0
 20 43  1  0  0  0  0
 21 22  1  0  0  0  0
 21 44  1  0  0  0  0
 22 23  1  0  0  0  0
 22 45  1  0  0  0  0
 22 46  1  0  0  0  0
 23 47  1  0  0  0  0
 23 48  1  0  0  0  0
 24 25  1  0  0  0  0
 24 49  1  0  0  0  0
 25 50  1  0  0  0  0
M  END
$$$$
