CHEMBL1242200
 OpenBabel04072215363D

 38 40  0  0  0  0  0  0  0  0999 V2000
    2.3261    4.0290    2.2038 C   0  0  0  0  0  0  0  0  0  0  0  0
    3.1590    4.3199    1.0865 O   0  0  0  0  0  0  0  0  0  0  0  0
    3.2724    3.3309    0.1481 C   0  0  0  0  0  0  0  0  0  0  0  0
    2.3351    2.3272   -0.0831 C   0  0  0  0  0  0  0  0  0  0  0  0
    2.5753    1.3802   -1.0785 C   0  0  0  0  0  0  0  0  0  0  0  0
    1.2796    0.0460   -1.4261 Br  0  0  0  0  0  0  0  0  0  0  0  0
    3.7515    1.4106   -1.8268 C   0  0  0  0  0  0  0  0  0  0  0  0
    4.6986    2.4207   -1.6079 C   0  0  0  0  0  0  0  0  0  0  0  0
    5.9264    2.4621   -2.4087 C   0  0  0  0  0  0  0  0  0  0  0  0
    5.8830    2.0835   -3.7003 N   0  0  0  0  0  0  0  0  0  0  0  0
    7.1380    2.2850   -4.1553 N   0  0  0  0  0  0  0  0  0  0  0  0
    7.4605    2.0184   -5.5532 C   0  0  0  0  0  0  0  0  0  0  0  0
    7.2535    0.5456   -5.9076 C   0  0  0  0  0  0  0  0  0  0  0  0
    6.6675    2.9253   -6.4944 C   0  0  0  0  0  0  0  0  0  0  0  0
    7.9985    2.7390   -3.1941 C   0  0  0  0  0  0  0  0  0  0  0  0
    9.3037    3.0186   -3.3474 N   0  0  0  0  0  0  0  0  0  0  0  0
    9.8525    3.4446   -2.2001 C   0  0  0  0  0  0  0  0  0  0  0  0
    9.2573    3.5816   -1.0015 N   0  0  0  0  0  0  0  0  0  0  0  0
    7.9467    3.2825   -0.8890 C   0  0  0  0  0  0  0  0  0  0  0  0
    7.4062    3.4190    0.3821 N   0  0  0  0  0  0  0  0  0  0  0  0
    7.2515    2.8516   -2.0292 C   0  0  0  0  0  0  0  0  0  0  0  0
    4.4248    3.3970   -0.6418 C   0  0  0  0  0  0  0  0  0  0  0  0
    2.4248    4.8530    2.9171 H   0  0  0  0  0  0  0  0  0  0  0  0
    2.6471    3.1098    2.7064 H   0  0  0  0  0  0  0  0  0  0  0  0
    1.2736    3.9719    1.9111 H   0  0  0  0  0  0  0  0  0  0  0  0
    1.4066    2.2831    0.4752 H   0  0  0  0  0  0  0  0  0  0  0  0
    3.9279    0.6597   -2.5946 H   0  0  0  0  0  0  0  0  0  0  0  0
    8.5247    2.2484   -5.6852 H   0  0  0  0  0  0  0  0  0  0  0  0
    6.2100    0.2395   -5.7743 H   0  0  0  0  0  0  0  0  0  0  0  0
    7.8730   -0.0985   -5.2741 H   0  0  0  0  0  0  0  0  0  0  0  0
    7.5277    0.3563   -6.9509 H   0  0  0  0  0  0  0  0  0  0  0  0
    5.5900    2.7408   -6.4215 H   0  0  0  0  0  0  0  0  0  0  0  0
    6.9666    2.7580   -7.5347 H   0  0  0  0  0  0  0  0  0  0  0  0
    6.8417    3.9810   -6.2594 H   0  0  0  0  0  0  0  0  0  0  0  0
   10.9053    3.7058   -2.2386 H   0  0  0  0  0  0  0  0  0  0  0  0
    8.1392    3.5283    1.0743 H   0  0  0  0  0  0  0  0  0  0  0  0
    6.6730    2.7637    0.6191 H   0  0  0  0  0  0  0  0  0  0  0  0
    5.1063    4.2315   -0.4885 H   0  0  0  0  0  0  0  0  0  0  0  0
  1  2  1  0  0  0  0
  1 23  1  0  0  0  0
  1 24  1  0  0  0  0
  1 25  1  0  0  0  0
  2  3  1  0  0  0  0
  3  4  1  0  0  0  0
  3 22  2  0  0  0  0
  4  5  2  0  0  0  0
  4 26  1  0  0  0  0
  5  6  1  0  0  0  0
  5  7  1  0  0  0  0
  7  8  2  0  0  0  0
  7 27  1  0  0  0  0
  8  9  1  0  0  0  0
  8 22  1  0  0  0  0
  9 10  2  0  0  0  0
  9 21  1  0  0  0  0
 10 11  1  0  0  0  0
 11 12  1  0  0  0  0
 11 15  1  0  0  0  0
 12 13  1  0  0  0  0
 12 14  1  0  0  0  0
 12 28  1  0  0  0  0
 13 29  1  0  0  0  0
 13 30  1  0  0  0  0
 13 31  1  0  0  0  0
 14 32  1  0  0  0  0
 14 33  1  0  0  0  0
 14 34  1  0  0  0  0
 15 16  1  0  0  0  0
 15 21  2  0  0  0  0
 16 17  2  0  0  0  0
 17 18  1  0  0  0  0
 17 35  1  0  0  0  0
 18 19  2  0  0  0  0
 19 20  1  0  0  0  0
 19 21  1  0  0  0  0
 20 36  1  0  0  0  0
 20 37  1  0  0  0  0
 22 38  1  0  0  0  0
M  END
$$$$
