CHEMBL209421
 OpenBabel04072215363D

 72 77  0  0  0  0  0  0  0  0999 V2000
    6.7515   -2.2203    8.7418 C   0  0  0  0  0  0  0  0  0  0  0  0
    5.7246   -3.1530    9.3267 C   0  0  0  0  0  0  0  0  0  0  0  0
    5.3612   -2.9722   10.6807 C   0  0  0  0  0  0  0  0  0  0  0  0
    4.4153   -3.7798   11.2967 C   0  0  0  0  0  0  0  0  0  0  0  0
    3.8208   -4.7951   10.5756 C   0  0  0  0  0  0  0  0  0  0  0  0
    4.1693   -4.9965    9.2383 C   0  0  0  0  0  0  0  0  0  0  0  0
    5.1017   -4.1759    8.5811 C   0  0  0  0  0  0  0  0  0  0  0  0
    5.4431   -4.3695    7.2036 N   0  0  0  0  0  0  0  0  0  0  0  0
    4.7395   -5.1647    6.3303 C   0  0  0  0  0  0  0  0  0  0  0  0
    3.6366   -5.6567    6.5914 O   0  0  0  0  0  0  0  0  0  0  0  0
    5.3192   -5.4376    5.0896 N   0  0  0  0  0  0  0  0  0  0  0  0
    6.5588   -4.8968    4.5525 C   0  0  0  0  0  0  0  0  0  0  0  0
    4.5714   -6.4580    4.3457 C   0  0  0  0  0  0  0  0  0  0  0  0
    4.9866   -6.7825    2.9436 C   0  0  0  0  0  0  0  0  0  0  0  0
    4.6840   -6.0576    1.8178 C   0  0  0  0  0  0  0  0  0  0  0  0
    4.9313   -6.7982    0.6463 C   0  0  0  0  0  0  0  0  0  0  0  0
    5.3053   -8.1336    0.8791 C   0  0  0  0  0  0  0  0  0  0  0  0
    5.3134   -9.1786   -0.1068 C   0  0  0  0  0  0  0  0  0  0  0  0
    6.2265  -10.2016   -0.2507 N   0  0  0  0  0  0  0  0  0  0  0  0
    6.3357  -10.6696   -1.5482 N   0  0  0  0  0  0  0  0  0  0  0  0
    5.3254  -10.0639   -2.1853 C   0  0  0  0  0  0  0  0  0  0  0  0
    4.5810   -9.2395   -1.2722 C   0  0  0  0  0  0  0  0  0  0  0  0
    3.8058   -8.2247   -2.0164 C   0  0  0  0  0  0  0  0  0  0  0  0
    4.9386   -8.0685   -3.0482 C   0  0  0  0  0  0  0  0  0  0  0  0
    6.0693   -7.2339   -2.8653 C   0  0  0  0  0  0  0  0  0  0  0  0
    7.2612   -7.5627   -3.5379 C   0  0  0  0  0  0  0  0  0  0  0  0
    8.6401   -7.3029   -2.9471 C   0  0  0  0  0  0  0  0  0  0  0  0
    9.4033   -6.2243   -3.5672 N   0  0  0  0  0  0  0  0  0  0  0  0
    8.8305   -4.9176   -3.2122 C   0  0  0  0  0  0  0  0  0  0  0  0
    9.6621   -3.7582   -3.7955 C   0  0  0  0  0  0  0  0  0  0  0  0
   11.0861   -3.7576   -3.4054 N   0  0  0  0  0  0  0  0  0  0  0  0
   11.2653   -3.3588   -2.0121 C   0  0  0  0  0  0  0  0  0  0  0  0
   11.6566   -5.0945   -3.6697 C   0  0  0  0  0  0  0  0  0  0  0  0
   10.8183   -6.2805   -3.1314 C   0  0  0  0  0  0  0  0  0  0  0  0
    7.1856   -8.4666   -4.5958 C   0  0  0  0  0  0  0  0  0  0  0  0
    6.1875   -9.4336   -4.5444 C   0  0  0  0  0  0  0  0  0  0  0  0
    5.2573   -9.3617   -3.5261 C   0  0  0  0  0  0  0  0  0  0  0  0
    5.6833   -8.3147    2.5426 S   0  0  0  0  0  0  0  0  0  0  0  0
    7.1281   -1.5203    9.4960 H   0  0  0  0  0  0  0  0  0  0  0  0
    6.3121   -1.6287    7.9344 H   0  0  0  0  0  0  0  0  0  0  0  0
    7.6106   -2.7855    8.3678 H   0  0  0  0  0  0  0  0  0  0  0  0
    5.8255   -2.1742   11.2629 H   0  0  0  0  0  0  0  0  0  0  0  0
    4.1460   -3.6129   12.3357 H   0  0  0  0  0  0  0  0  0  0  0  0
    3.0808   -5.4420   11.0413 H   0  0  0  0  0  0  0  0  0  0  0  0
    3.6836   -5.8286    8.7388 H   0  0  0  0  0  0  0  0  0  0  0  0
    6.1379   -3.7582    6.8295 H   0  0  0  0  0  0  0  0  0  0  0  0
    7.1025   -4.2907    5.2717 H   0  0  0  0  0  0  0  0  0  0  0  0
    6.3179   -4.2687    3.6888 H   0  0  0  0  0  0  0  0  0  0  0  0
    7.2114   -5.7202    4.2385 H   0  0  0  0  0  0  0  0  0  0  0  0
    3.5270   -6.1123    4.2794 H   0  0  0  0  0  0  0  0  0  0  0  0
    4.5599   -7.3673    4.9524 H   0  0  0  0  0  0  0  0  0  0  0  0
    4.2099   -5.0833    1.8223 H   0  0  0  0  0  0  0  0  0  0  0  0
    4.7060   -6.3936   -0.3248 H   0  0  0  0  0  0  0  0  0  0  0  0
    6.9555  -10.4749    0.3871 H   0  0  0  0  0  0  0  0  0  0  0  0
    3.4959   -7.3245   -1.5120 H   0  0  0  0  0  0  0  0  0  0  0  0
    2.9254   -8.6860   -2.4797 H   0  0  0  0  0  0  0  0  0  0  0  0
    6.1183   -6.5742   -2.0035 H   0  0  0  0  0  0  0  0  0  0  0  0
    9.2000   -8.2458   -3.0745 H   0  0  0  0  0  0  0  0  0  0  0  0
    8.5698   -7.1836   -1.8554 H   0  0  0  0  0  0  0  0  0  0  0  0
    8.7564   -4.8112   -2.1216 H   0  0  0  0  0  0  0  0  0  0  0  0
    7.8148   -4.8380   -3.6140 H   0  0  0  0  0  0  0  0  0  0  0  0
    9.1943   -2.8048   -3.5241 H   0  0  0  0  0  0  0  0  0  0  0  0
    9.6105   -3.8133   -4.8911 H   0  0  0  0  0  0  0  0  0  0  0  0
   10.8251   -2.3704   -1.8390 H   0  0  0  0  0  0  0  0  0  0  0  0
   12.3321   -3.2679   -1.7798 H   0  0  0  0  0  0  0  0  0  0  0  0
   10.8207   -4.0575   -1.2964 H   0  0  0  0  0  0  0  0  0  0  0  0
   12.6786   -5.1540   -3.2735 H   0  0  0  0  0  0  0  0  0  0  0  0
   11.7572   -5.2088   -4.7567 H   0  0  0  0  0  0  0  0  0  0  0  0
   10.8870   -6.3009   -2.0349 H   0  0  0  0  0  0  0  0  0  0  0  0
   11.2789   -7.2090   -3.4942 H   0  0  0  0  0  0  0  0  0  0  0  0
    7.9664   -8.5083   -5.3430 H   0  0  0  0  0  0  0  0  0  0  0  0
    6.0774  -10.1548   -5.3456 H   0  0  0  0  0  0  0  0  0  0  0  0
  1  2  1  0  0  0  0
  1 39  1  0  0  0  0
  1 40  1  0  0  0  0
  1 41  1  0  0  0  0
  2  3  1  0  0  0  0
  2  7  2  0  0  0  0
  3  4  2  0  0  0  0
  3 42  1  0  0  0  0
  4  5  1  0  0  0  0
  4 43  1  0  0  0  0
  5  6  2  0  0  0  0
  5 44  1  0  0  0  0
  6  7  1  0  0  0  0
  6 45  1  0  0  0  0
  7  8  1  0  0  0  0
  8  9  1  0  0  0  0
  8 46  1  0  0  0  0
  9 10  2  0  0  0  0
  9 11  1  0  0  0  0
 11 12  1  0  0  0  0
 11 13  1  0  0  0  0
 12 47  1  0  0  0  0
 12 48  1  0  0  0  0
 12 49  1  0  0  0  0
 13 14  1  0  0  0  0
 13 50  1  0  0  0  0
 13 51  1  0  0  0  0
 14 15  2  0  0  0  0
 14 38  1  0  0  0  0
 15 16  1  0  0  0  0
 15 52  1  0  0  0  0
 16 17  2  0  0  0  0
 16 53  1  0  0  0  0
 17 18  1  0  0  0  0
 17 38  1  0  0  0  0
 18 19  1  0  0  0  0
 18 22  2  0  0  0  0
 19 20  1  0  0  0  0
 19 54  1  0  0  0  0
 20 21  2  0  0  0  0
 21 22  1  0  0  0  0
 21 37  1  0  0  0  0
 22 23  1  0  0  0  0
 23 24  1  0  0  0  0
 23 55  1  0  0  0  0
 23 56  1  0  0  0  0
 24 25  1  0  0  0  0
 24 37  2  0  0  0  0
 25 26  2  0  0  0  0
 25 57  1  0  0  0  0
 26 27  1  0  0  0  0
 26 35  1  0  0  0  0
 27 28  1  0  0  0  0
 27 58  1  0  0  0  0
 27 59  1  0  0  0  0
 28 29  1  0  0  0  0
 28 34  1  0  0  0  0
 29 30  1  0  0  0  0
 29 60  1  0  0  0  0
 29 61  1  0  0  0  0
 30 31  1  0  0  0  0
 30 62  1  0  0  0  0
 30 63  1  0  0  0  0
 31 32  1  0  0  0  0
 31 33  1  0  0  0  0
 32 64  1  0  0  0  0
 32 65  1  0  0  0  0
 32 66  1  0  0  0  0
 33 34  1  0  0  0  0
 33 67  1  0  0  0  0
 33 68  1  0  0  0  0
 34 69  1  0  0  0  0
 34 70  1  0  0  0  0
 35 36  2  0  0  0  0
 35 71  1  0  0  0  0
 36 37  1  0  0  0  0
 36 72  1  0  0  0  0
M  END
$$$$
