CHEMBL3927794
 OpenBabel04072215373D

 59 62  0  0  0  0  0  0  0  0999 V2000
    7.5434   -6.5596    1.7573 C   0  0  0  0  0  0  0  0  0  0  0  0
    7.7036   -5.3681    0.9803 O   0  0  0  0  0  0  0  0  0  0  0  0
    7.0440   -5.3258   -0.2291 C   0  0  0  0  0  0  0  0  0  0  0  0
    6.2630   -6.3661   -0.7306 C   0  0  0  0  0  0  0  0  0  0  0  0
    5.5800   -6.2104   -1.9304 C   0  0  0  0  0  0  0  0  0  0  0  0
    4.7436   -7.1376   -2.4966 O   0  0  0  0  0  0  0  0  0  0  0  0
    4.6510   -8.3962   -1.8579 C   0  0  0  0  0  0  0  0  0  0  0  0
    5.7011   -5.0118   -2.6486 C   0  0  0  0  0  0  0  0  0  0  0  0
    6.4901   -3.9434   -2.2022 C   0  0  0  0  0  0  0  0  0  0  0  0
    6.4608   -2.6694   -2.8310 N   0  0  0  0  0  0  0  0  0  0  0  0
    5.1136   -2.2616   -3.4064 C   0  0  0  0  0  0  0  0  0  0  0  0
    3.9113   -2.2639   -2.4402 C   0  0  0  0  0  0  0  0  0  0  0  0
    4.0087   -1.2317   -1.4597 O   0  0  0  0  0  0  0  0  0  0  0  0
    7.4845   -1.9717   -3.5807 C   0  0  0  0  0  0  0  0  0  0  0  0
    7.4243   -0.5803   -3.4783 C   0  0  0  0  0  0  0  0  0  0  0  0
    7.8646    0.2067   -4.5264 C   0  0  0  0  0  0  0  0  0  0  0  0
    8.5316   -0.3182   -5.6002 C   0  0  0  0  0  0  0  0  0  0  0  0
    8.6966    0.5336   -6.6196 N   0  0  0  0  0  0  0  0  0  0  0  0
    9.5327    0.1502   -7.5947 C   0  0  0  0  0  0  0  0  0  0  0  0
   10.3055   -0.9918   -7.4940 C   0  0  0  0  0  0  0  0  0  0  0  0
   11.6240   -0.9132   -8.1678 C   0  0  0  0  0  0  0  0  0  0  0  0
   12.2393   -1.6165   -9.2463 C   0  0  0  0  0  0  0  0  0  0  0  0
   11.7722   -2.7671  -10.0577 C   0  0  0  0  0  0  0  0  0  0  0  0
   13.4244   -1.0947   -9.5855 N   0  0  0  0  0  0  0  0  0  0  0  0
   13.5992   -0.0786   -8.7359 N   0  0  0  0  0  0  0  0  0  0  0  0
   14.8925    0.5618   -8.6557 C   0  0  0  0  0  0  0  0  0  0  0  0
   12.4826    0.1907   -7.9894 C   0  0  0  0  0  0  0  0  0  0  0  0
   12.3536    1.4544   -7.2021 C   0  0  0  0  0  0  0  0  0  0  0  0
    9.9934   -1.9502   -6.5457 N   0  0  0  0  0  0  0  0  0  0  0  0
    9.0040   -1.6499   -5.5843 C   0  0  0  0  0  0  0  0  0  0  0  0
    8.3695   -2.4930   -4.5722 C   0  0  0  0  0  0  0  0  0  0  0  0
    7.1654   -4.1268   -0.9724 C   0  0  0  0  0  0  0  0  0  0  0  0
    8.0904   -6.4355    2.6980 H   0  0  0  0  0  0  0  0  0  0  0  0
    7.9691   -7.4290    1.2432 H   0  0  0  0  0  0  0  0  0  0  0  0
    6.4919   -6.7372    2.0165 H   0  0  0  0  0  0  0  0  0  0  0  0
    6.1499   -7.2883   -0.1709 H   0  0  0  0  0  0  0  0  0  0  0  0
    3.9918   -9.0315   -2.4683 H   0  0  0  0  0  0  0  0  0  0  0  0
    4.1882   -8.3066   -0.8683 H   0  0  0  0  0  0  0  0  0  0  0  0
    5.6233   -8.8829   -1.8030 H   0  0  0  0  0  0  0  0  0  0  0  0
    5.1307   -4.9253   -3.5679 H   0  0  0  0  0  0  0  0  0  0  0  0
    4.8914   -2.8858   -4.2774 H   0  0  0  0  0  0  0  0  0  0  0  0
    5.1443   -1.2321   -3.7837 H   0  0  0  0  0  0  0  0  0  0  0  0
    3.7410   -3.2223   -1.9466 H   0  0  0  0  0  0  0  0  0  0  0  0
    3.0081   -2.0414   -3.0266 H   0  0  0  0  0  0  0  0  0  0  0  0
    3.7472   -1.6246   -0.6085 H   0  0  0  0  0  0  0  0  0  0  0  0
    6.8581   -0.1181   -2.6757 H   0  0  0  0  0  0  0  0  0  0  0  0
    7.6286    1.2695   -4.5163 H   0  0  0  0  0  0  0  0  0  0  0  0
    9.6776    0.8747   -8.3875 H   0  0  0  0  0  0  0  0  0  0  0  0
   10.6999   -2.9395   -9.9526 H   0  0  0  0  0  0  0  0  0  0  0  0
   12.3179   -3.6702   -9.7651 H   0  0  0  0  0  0  0  0  0  0  0  0
   11.9788   -2.5910  -11.1232 H   0  0  0  0  0  0  0  0  0  0  0  0
   15.6344   -0.0497   -9.1824 H   0  0  0  0  0  0  0  0  0  0  0  0
   15.1765    0.6287   -7.6024 H   0  0  0  0  0  0  0  0  0  0  0  0
   14.8364    1.5544   -9.1077 H   0  0  0  0  0  0  0  0  0  0  0  0
   13.3036    1.9865   -7.0953 H   0  0  0  0  0  0  0  0  0  0  0  0
   11.9694    1.2567   -6.1989 H   0  0  0  0  0  0  0  0  0  0  0  0
   11.6691    2.1436   -7.7105 H   0  0  0  0  0  0  0  0  0  0  0  0
    8.5358   -3.5686   -4.6321 H   0  0  0  0  0  0  0  0  0  0  0  0
    7.7386   -3.3084   -0.5431 H   0  0  0  0  0  0  0  0  0  0  0  0
  1  2  1  0  0  0  0
  1 33  1  0  0  0  0
  1 34  1  0  0  0  0
  1 35  1  0  0  0  0
  2  3  1  0  0  0  0
  3  4  1  0  0  0  0
  3 32  2  0  0  0  0
  4  5  2  0  0  0  0
  4 36  1  0  0  0  0
  5  6  1  0  0  0  0
  5  8  1  0  0  0  0
  6  7  1  0  0  0  0
  7 37  1  0  0  0  0
  7 38  1  0  0  0  0
  7 39  1  0  0  0  0
  8  9  2  0  0  0  0
  8 40  1  0  0  0  0
  9 10  1  0  0  0  0
  9 32  1  0  0  0  0
 10 11  1  0  0  0  0
 10 14  1  0  0  0  0
 11 12  1  0  0  0  0
 11 41  1  0  0  0  0
 11 42  1  0  0  0  0
 12 13  1  0  0  0  0
 12 43  1  0  0  0  0
 12 44  1  0  0  0  0
 13 45  1  0  0  0  0
 14 15  1  0  0  0  0
 14 31  2  0  0  0  0
 15 16  2  0  0  0  0
 15 46  1  0  0  0  0
 16 17  1  0  0  0  0
 16 47  1  0  0  0  0
 17 18  1  0  0  0  0
 17 30  2  0  0  0  0
 18 19  2  0  0  0  0
 19 20  1  0  0  0  0
 19 48  1  0  0  0  0
 20 21  1  0  0  0  0
 20 29  2  0  0  0  0
 21 22  1  0  0  0  0
 21 27  2  0  0  0  0
 22 23  1  0  0  0  0
 22 24  2  0  0  0  0
 23 49  1  0  0  0  0
 23 50  1  0  0  0  0
 23 51  1  0  0  0  0
 24 25  1  0  0  0  0
 25 26  1  0  0  0  0
 25 27  1  0  0  0  0
 26 52  1  0  0  0  0
 26 53  1  0  0  0  0
 26 54  1  0  0  0  0
 27 28  1  0  0  0  0
 28 55  1  0  0  0  0
 28 56  1  0  0  0  0
 28 57  1  0  0  0  0
 29 30  1  0  0  0  0
 30 31  1  0  0  0  0
 31 58  1  0  0  0  0
 32 59  1  0  0  0  0
M  END
$$$$
