CHEMBL462231
 OpenBabel04072215383D

 63 68  0  0  1  0  0  0  0  0999 V2000
    0.4703    3.0119   -2.4919 C   0  0  0  0  0  0  0  0  0  0  0  0
    0.1776    1.6668   -2.9145 N   0  0  0  0  0  0  0  0  0  0  0  0
    1.0354    0.7953   -3.5168 C   0  0  0  0  0  0  0  0  0  0  0  0
    0.4810   -0.3868   -3.6795 N   0  0  0  0  0  0  0  0  0  0  0  0
   -0.7974   -0.2560   -3.1919 C   0  0  0  0  0  0  0  0  0  0  0  0
   -1.7891   -1.3636   -3.1495 C   0  0  0  0  0  0  0  0  0  0  0  0
   -1.4957   -2.6711   -3.4646 C   0  0  0  0  0  0  0  0  0  0  0  0
   -2.6145   -3.5347   -3.2750 C   0  0  0  0  0  0  0  0  0  0  0  0
   -2.6075   -4.8827   -3.4663 N   0  0  0  0  0  0  0  0  0  0  0  0
   -3.7650   -5.5166   -3.2042 C   0  0  0  0  0  0  0  0  0  0  0  0
   -4.9357   -4.9049   -2.7998 C   0  0  0  0  0  0  0  0  0  0  0  0
   -4.9637   -3.5138   -2.6872 C   0  0  0  0  0  0  0  0  0  0  0  0
   -6.1078   -2.8018   -2.3788 O   0  0  0  0  0  0  0  0  0  0  0  0
   -7.2741   -3.1337   -3.0325 C   0  0  0  0  0  0  0  0  0  0  0  0
   -7.3057   -3.7423   -4.2854 C   0  0  0  0  0  0  0  0  0  0  0  0
   -8.5086   -4.2209   -4.7938 C   0  0  0  0  0  0  0  0  0  0  0  0
   -9.7066   -4.0354   -4.1002 C   0  0  0  0  0  0  0  0  0  0  0  0
  -10.9200   -4.5883   -4.5558 N   0  0  0  0  0  0  0  0  0  0  0  0
  -11.0250   -5.6190   -5.4729 C   0  0  0  0  0  0  0  0  0  0  0  0
  -10.0783   -6.3136   -5.8502 O   0  0  0  0  0  0  0  0  0  0  0  0
  -12.4241   -5.9703   -5.9384 C   0  0  3  0  0  0  0  0  0  0  0  0
  -13.0332   -7.0327   -5.0136 C   0  0  0  0  0  0  0  0  0  0  0  0
  -12.3684   -6.4574   -7.3926 C   0  0  0  0  0  0  0  0  0  0  0  0
  -13.6453   -5.9604   -8.0355 C   0  0  0  0  0  0  0  0  0  0  0  0
  -14.2044   -4.9928   -7.1206 N   0  0  0  0  0  0  0  0  0  0  0  0
  -15.5247   -4.4914   -7.2771 C   0  0  0  0  0  0  0  0  0  0  0  0
  -16.1695   -3.7943   -6.2447 C   0  0  0  0  0  0  0  0  0  0  0  0
  -17.5119   -3.4200   -6.3561 C   0  0  0  0  0  0  0  0  0  0  0  0
  -18.2313   -3.7279   -7.5038 C   0  0  0  0  0  0  0  0  0  0  0  0
  -17.6032   -4.3940   -8.5501 C   0  0  0  0  0  0  0  0  0  0  0  0
  -16.2594   -4.7658   -8.4404 C   0  0  0  0  0  0  0  0  0  0  0  0
  -13.3998   -4.8227   -5.9916 C   0  0  0  0  0  0  0  0  0  0  0  0
  -13.4908   -3.9900   -5.0974 O   0  0  0  0  0  0  0  0  0  0  0  0
   -9.7005   -3.2698   -2.9328 C   0  0  0  0  0  0  0  0  0  0  0  0
   -8.4824   -2.8399   -2.3995 C   0  0  0  0  0  0  0  0  0  0  0  0
   -8.4882   -2.1637   -1.2405 F   0  0  0  0  0  0  0  0  0  0  0  0
   -3.7529   -2.8342   -2.8750 C   0  0  0  0  0  0  0  0  0  0  0  0
   -3.4165   -1.1632   -2.6903 S   0  0  0  0  0  0  0  0  0  0  0  0
   -1.0121    1.0246   -2.7317 C   0  0  0  0  0  0  0  0  0  0  0  0
    1.4445    3.3166   -2.8809 H   0  0  0  0  0  0  0  0  0  0  0  0
    0.4807    3.0263   -1.3984 H   0  0  0  0  0  0  0  0  0  0  0  0
   -0.3102    3.6760   -2.8720 H   0  0  0  0  0  0  0  0  0  0  0  0
    2.0439    1.0605   -3.8047 H   0  0  0  0  0  0  0  0  0  0  0  0
   -0.5177   -3.0080   -3.7851 H   0  0  0  0  0  0  0  0  0  0  0  0
   -3.7352   -6.5945   -3.3490 H   0  0  0  0  0  0  0  0  0  0  0  0
   -5.8220   -5.5045   -2.6203 H   0  0  0  0  0  0  0  0  0  0  0  0
   -6.4030   -3.9028   -4.8677 H   0  0  0  0  0  0  0  0  0  0  0  0
   -8.4751   -4.7392   -5.7475 H   0  0  0  0  0  0  0  0  0  0  0  0
  -11.7843   -4.2180   -4.1574 H   0  0  0  0  0  0  0  0  0  0  0  0
  -12.3824   -7.9089   -4.9257 H   0  0  0  0  0  0  0  0  0  0  0  0
  -14.0098   -7.3724   -5.3794 H   0  0  0  0  0  0  0  0  0  0  0  0
  -13.1896   -6.6342   -4.0041 H   0  0  0  0  0  0  0  0  0  0  0  0
  -12.2828   -7.5480   -7.4691 H   0  0  0  0  0  0  0  0  0  0  0  0
  -11.5062   -6.0410   -7.9297 H   0  0  0  0  0  0  0  0  0  0  0  0
  -14.3438   -6.7883   -8.1919 H   0  0  0  0  0  0  0  0  0  0  0  0
  -13.4268   -5.4735   -8.9931 H   0  0  0  0  0  0  0  0  0  0  0  0
  -15.6693   -3.5503   -5.3152 H   0  0  0  0  0  0  0  0  0  0  0  0
  -17.9926   -2.9023   -5.5299 H   0  0  0  0  0  0  0  0  0  0  0  0
  -19.2799   -3.4529   -7.5798 H   0  0  0  0  0  0  0  0  0  0  0  0
  -18.1596   -4.6386   -9.4503 H   0  0  0  0  0  0  0  0  0  0  0  0
  -15.8158   -5.2927   -9.2803 H   0  0  0  0  0  0  0  0  0  0  0  0
  -10.6138   -3.0456   -2.3913 H   0  0  0  0  0  0  0  0  0  0  0  0
   -1.8672    1.5044   -2.2769 H   0  0  0  0  0  0  0  0  0  0  0  0
  1  2  1  0  0  0  0
  1 40  1  0  0  0  0
  1 41  1  0  0  0  0
  1 42  1  0  0  0  0
  2  3  1  0  0  0  0
  2 39  1  0  0  0  0
  3  4  2  0  0  0  0
  3 43  1  0  0  0  0
  4  5  1  0  0  0  0
  5  6  1  0  0  0  0
  5 39  2  0  0  0  0
  6  7  2  0  0  0  0
  6 38  1  0  0  0  0
  7  8  1  0  0  0  0
  7 44  1  0  0  0  0
  8  9  1  0  0  0  0
  8 37  2  0  0  0  0
  9 10  2  0  0  0  0
 10 11  1  0  0  0  0
 10 45  1  0  0  0  0
 11 12  2  0  0  0  0
 11 46  1  0  0  0  0
 12 13  1  0  0  0  0
 12 37  1  0  0  0  0
 13 14  1  0  0  0  0
 14 15  1  0  0  0  0
 14 35  2  0  0  0  0
 15 16  2  0  0  0  0
 15 47  1  0  0  0  0
 16 17  1  0  0  0  0
 16 48  1  0  0  0  0
 17 18  1  0  0  0  0
 17 34  2  0  0  0  0
 18 19  1  0  0  0  0
 18 49  1  0  0  0  0
 19 20  2  0  0  0  0
 19 21  1  0  0  0  0
 21 22  1  0  0  0  0
 21 23  1  0  0  0  0
 21 32  1  0  0  0  0
 22 50  1  0  0  0  0
 22 51  1  0  0  0  0
 22 52  1  0  0  0  0
 23 24  1  0  0  0  0
 23 53  1  0  0  0  0
 23 54  1  0  0  0  0
 24 25  1  0  0  0  0
 24 55  1  0  0  0  0
 24 56  1  0  0  0  0
 25 26  1  0  0  0  0
 25 32  1  0  0  0  0
 26 27  1  0  0  0  0
 26 31  2  0  0  0  0
 27 28  2  0  0  0  0
 27 57  1  0  0  0  0
 28 29  1  0  0  0  0
 28 58  1  0  0  0  0
 29 30  2  0  0  0  0
 29 59  1  0  0  0  0
 30 31  1  0  0  0  0
 30 60  1  0  0  0  0
 31 61  1  0  0  0  0
 32 33  2  0  0  0  0
 34 35  1  0  0  0  0
 34 62  1  0  0  0  0
 35 36  1  0  0  0  0
 37 38  1  0  0  0  0
 39 63  1  0  0  0  0
M  END
$$$$
