CHEMBL3972249
 OpenBabel04072215373D

 76 80  0  0  1  0  0  0  0  0999 V2000
   -0.8735    5.5640   -0.0416 C   0  0  0  0  0  0  0  0  0  0  0  0
   -0.4331    4.8060    1.2153 C   0  0  1  0  0  0  0  0  0  0  0  0
    1.0222    4.6782    1.2749 N   0  0  0  0  0  0  0  0  0  0  0  0
    1.6466    3.9099    0.2931 C   0  0  0  0  0  0  0  0  0  0  0  0
    0.9930    2.9474   -0.3916 N   0  0  0  0  0  0  0  0  0  0  0  0
    1.6711    2.2628   -1.3388 C   0  0  0  0  0  0  0  0  0  0  0  0
    2.9543    2.4095   -1.7291 N   0  0  0  0  0  0  0  0  0  0  0  0
    3.5639    3.3745   -1.0235 C   0  0  0  0  0  0  0  0  0  0  0  0
    4.8620    3.7886   -1.1924 N   0  0  0  0  0  0  0  0  0  0  0  0
    5.1663    4.8117   -0.3100 C   0  0  0  0  0  0  0  0  0  0  0  0
    6.4530    5.5171   -0.2197 C   0  0  0  0  0  0  0  0  0  0  0  0
    6.4749    6.8188    0.3069 C   0  0  0  0  0  0  0  0  0  0  0  0
    7.6735    7.5020    0.5252 C   0  0  0  0  0  0  0  0  0  0  0  0
    8.8976    6.9112    0.2036 C   0  0  0  0  0  0  0  0  0  0  0  0
   10.1908    7.6594    0.4768 C   0  0  0  0  0  0  0  0  0  0  0  0
   10.5372    7.7616    1.9089 N   0  0  0  0  0  0  0  0  0  0  0  0
   11.7015    8.6483    2.1178 C   0  0  0  0  0  0  0  0  0  0  0  0
   13.0497    8.0739    1.6210 C   0  0  0  0  0  0  0  0  0  0  0  0
   13.3830    6.7194    2.0994 N   0  0  0  0  0  0  0  0  0  0  0  0
   14.1562    6.7443    3.3463 C   0  0  0  0  0  0  0  0  0  0  0  0
   14.7426    5.3767    3.7455 C   0  0  0  0  0  0  0  0  0  0  0  0
   15.5218    4.7030    2.6100 C   0  0  0  0  0  0  0  0  0  0  0  0
   15.9291    3.2810    2.9781 C   0  0  0  0  0  0  0  0  0  0  0  0
   16.6962    2.6494    1.8405 C   0  0  0  0  0  0  0  0  0  0  0  0
   17.9170    2.7274    1.7276 O   0  0  0  0  0  0  0  0  0  0  0  0
   15.9131    2.0059    0.9118 N   0  0  0  0  0  0  0  0  0  0  0  0
   16.5976    1.5375   -0.2347 O   0  0  0  0  0  0  0  0  0  0  0  0
   12.2018    5.8368    2.1101 C   0  0  0  0  0  0  0  0  0  0  0  0
   10.8532    6.4641    2.5314 C   0  0  0  0  0  0  0  0  0  0  0  0
    8.8852    5.6274   -0.3659 C   0  0  0  0  0  0  0  0  0  0  0  0
    7.6764    4.9363   -0.5748 C   0  0  0  0  0  0  0  0  0  0  0  0
    4.0075    5.0239    0.4287 C   0  0  0  0  0  0  0  0  0  0  0  0
    3.0007    4.1313   -0.0158 C   0  0  0  0  0  0  0  0  0  0  0  0
   -0.8726    5.5666    2.4665 C   0  0  0  0  0  0  0  0  0  0  0  0
   -1.8021    5.0083    3.3577 C   0  0  0  0  0  0  0  0  0  0  0  0
   -2.1655    5.6897    4.5236 C   0  0  0  0  0  0  0  0  0  0  0  0
   -1.6104    6.9349    4.8120 C   0  0  0  0  0  0  0  0  0  0  0  0
   -0.7006    7.5091    3.9295 C   0  0  0  0  0  0  0  0  0  0  0  0
   -0.3356    6.8318    2.7657 C   0  0  0  0  0  0  0  0  0  0  0  0
   -0.6739    4.9831   -0.9479 H   0  0  0  0  0  0  0  0  0  0  0  0
   -0.3413    6.5159   -0.1487 H   0  0  0  0  0  0  0  0  0  0  0  0
   -1.9474    5.7786   -0.0191 H   0  0  0  0  0  0  0  0  0  0  0  0
   -0.9024    3.8114    1.2265 H   0  0  0  0  0  0  0  0  0  0  0  0
    1.3099    4.3092    2.1790 H   0  0  0  0  0  0  0  0  0  0  0  0
    1.1011    1.4999   -1.8620 H   0  0  0  0  0  0  0  0  0  0  0  0
    5.4808    3.4052   -1.8904 H   0  0  0  0  0  0  0  0  0  0  0  0
    5.5476    7.3216    0.5700 H   0  0  0  0  0  0  0  0  0  0  0  0
    7.6458    8.4973    0.9632 H   0  0  0  0  0  0  0  0  0  0  0  0
   10.0410    8.6758    0.0846 H   0  0  0  0  0  0  0  0  0  0  0  0
   11.0001    7.2284   -0.1236 H   0  0  0  0  0  0  0  0  0  0  0  0
   11.7839    8.8560    3.1935 H   0  0  0  0  0  0  0  0  0  0  0  0
   11.5218    9.6226    1.6471 H   0  0  0  0  0  0  0  0  0  0  0  0
   13.8510    8.7830    1.8668 H   0  0  0  0  0  0  0  0  0  0  0  0
   13.0354    8.0384    0.5251 H   0  0  0  0  0  0  0  0  0  0  0  0
   13.5640    7.1473    4.1762 H   0  0  0  0  0  0  0  0  0  0  0  0
   15.0144    7.4180    3.2137 H   0  0  0  0  0  0  0  0  0  0  0  0
   13.9462    4.7139    4.1008 H   0  0  0  0  0  0  0  0  0  0  0  0
   15.4148    5.5203    4.6014 H   0  0  0  0  0  0  0  0  0  0  0  0
   16.4127    5.2982    2.3725 H   0  0  0  0  0  0  0  0  0  0  0  0
   14.9216    4.6680    1.6936 H   0  0  0  0  0  0  0  0  0  0  0  0
   15.0420    2.6732    3.1951 H   0  0  0  0  0  0  0  0  0  0  0  0
   16.5589    3.2652    3.8738 H   0  0  0  0  0  0  0  0  0  0  0  0
   14.9252    2.2042    0.7966 H   0  0  0  0  0  0  0  0  0  0  0  0
   17.5256    1.8039   -0.0479 H   0  0  0  0  0  0  0  0  0  0  0  0
   12.3657    4.9505    2.7309 H   0  0  0  0  0  0  0  0  0  0  0  0
   12.0951    5.4419    1.0927 H   0  0  0  0  0  0  0  0  0  0  0  0
   10.8668    6.6118    3.6196 H   0  0  0  0  0  0  0  0  0  0  0  0
   10.0495    5.7397    2.3576 H   0  0  0  0  0  0  0  0  0  0  0  0
    9.8224    5.1446   -0.6350 H   0  0  0  0  0  0  0  0  0  0  0  0
    7.7190    3.9308   -0.9856 H   0  0  0  0  0  0  0  0  0  0  0  0
    3.8854    5.7631    1.2095 H   0  0  0  0  0  0  0  0  0  0  0  0
   -2.2452    4.0360    3.1563 H   0  0  0  0  0  0  0  0  0  0  0  0
   -2.8795    5.2448    5.2124 H   0  0  0  0  0  0  0  0  0  0  0  0
   -1.8850    7.4570    5.7248 H   0  0  0  0  0  0  0  0  0  0  0  0
   -0.2656    8.4817    4.1497 H   0  0  0  0  0  0  0  0  0  0  0  0
    0.3871    7.2879    2.0909 H   0  0  0  0  0  0  0  0  0  0  0  0
  1  2  1  0  0  0  0
  1 40  1  0  0  0  0
  1 41  1  0  0  0  0
  1 42  1  0  0  0  0
  2  3  1  0  0  0  0
  2 34  1  0  0  0  0
  2 43  1  1  0  0  0
  3  4  1  0  0  0  0
  3 44  1  0  0  0  0
  4  5  1  0  0  0  0
  4 33  2  0  0  0  0
  5  6  2  0  0  0  0
  6  7  1  0  0  0  0
  6 45  1  0  0  0  0
  7  8  2  0  0  0  0
  8  9  1  0  0  0  0
  8 33  1  0  0  0  0
  9 10  1  0  0  0  0
  9 46  1  0  0  0  0
 10 11  1  0  0  0  0
 10 32  2  0  0  0  0
 11 12  1  0  0  0  0
 11 31  2  0  0  0  0
 12 13  2  0  0  0  0
 12 47  1  0  0  0  0
 13 14  1  0  0  0  0
 13 48  1  0  0  0  0
 14 15  1  0  0  0  0
 14 30  2  0  0  0  0
 15 16  1  0  0  0  0
 15 49  1  0  0  0  0
 15 50  1  0  0  0  0
 16 17  1  0  0  0  0
 16 29  1  0  0  0  0
 17 18  1  0  0  0  0
 17 51  1  0  0  0  0
 17 52  1  0  0  0  0
 18 19  1  0  0  0  0
 18 53  1  0  0  0  0
 18 54  1  0  0  0  0
 19 20  1  0  0  0  0
 19 28  1  0  0  0  0
 20 21  1  0  0  0  0
 20 55  1  0  0  0  0
 20 56  1  0  0  0  0
 21 22  1  0  0  0  0
 21 57  1  0  0  0  0
 21 58  1  0  0  0  0
 22 23  1  0  0  0  0
 22 59  1  0  0  0  0
 22 60  1  0  0  0  0
 23 24  1  0  0  0  0
 23 61  1  0  0  0  0
 23 62  1  0  0  0  0
 24 25  2  0  0  0  0
 24 26  1  0  0  0  0
 26 27  1  0  0  0  0
 26 63  1  0  0  0  0
 27 64  1  0  0  0  0
 28 29  1  0  0  0  0
 28 65  1  0  0  0  0
 28 66  1  0  0  0  0
 29 67  1  0  0  0  0
 29 68  1  0  0  0  0
 30 31  1  0  0  0  0
 30 69  1  0  0  0  0
 31 70  1  0  0  0  0
 32 33  1  0  0  0  0
 32 71  1  0  0  0  0
 34 35  1  0  0  0  0
 34 39  2  0  0  0  0
 35 36  2  0  0  0  0
 35 72  1  0  0  0  0
 36 37  1  0  0  0  0
 36 73  1  0  0  0  0
 37 38  2  0  0  0  0
 37 74  1  0  0  0  0
 38 39  1  0  0  0  0
 38 75  1  0  0  0  0
 39 76  1  0  0  0  0
M  END
$$$$
