CHEMBL2016925
 OpenBabel04072215363D

 48 52  0  0  0  0  0  0  0  0999 V2000
    1.2171    0.4896    0.5815 O   0  0  0  0  0  0  0  0  0  0  0  0
    2.3226    0.1328    0.1444 C   0  0  0  0  0  0  0  0  0  0  0  0
    2.9669   -1.1338    0.7025 C   0  0  0  0  0  0  0  0  0  0  0  0
    2.6788   -2.3859   -0.0863 C   0  0  0  0  0  0  0  0  0  0  0  0
    3.7284   -3.1522   -0.6043 C   0  0  0  0  0  0  0  0  0  0  0  0
    3.4272   -4.3174   -1.2931 C   0  0  0  0  0  0  0  0  0  0  0  0
    2.1734   -4.7694   -1.4916 N   0  0  0  0  0  0  0  0  0  0  0  0
    1.1736   -4.0241   -0.9774 C   0  0  0  0  0  0  0  0  0  0  0  0
    1.3725   -2.8399   -0.2794 C   0  0  0  0  0  0  0  0  0  0  0  0
    3.0184    0.8823   -0.8105 N   0  0  0  0  0  0  0  0  0  0  0  0
    2.3061    2.1068   -1.2716 C   0  0  0  0  0  0  0  0  0  0  0  0
    3.0490    3.1236   -2.1654 C   0  0  0  0  0  0  0  0  0  0  0  0
    4.1583    2.4472   -2.8914 C   0  0  0  0  0  0  0  0  0  0  0  0
    4.9526    3.0561   -3.8227 N   0  0  0  0  0  0  0  0  0  0  0  0
    5.7826    2.1171   -4.2591 C   0  0  0  0  0  0  0  0  0  0  0  0
    6.7215    2.1620   -5.3267 C   0  0  0  0  0  0  0  0  0  0  0  0
    7.1051    3.3699   -5.7778 C   0  0  0  0  0  0  0  0  0  0  0  0
    7.6915    3.5118   -7.1111 C   0  0  0  0  0  0  0  0  0  0  0  0
    7.9189    4.7755   -7.6432 C   0  0  0  0  0  0  0  0  0  0  0  0
    7.7309    4.9578   -9.0073 C   0  0  0  0  0  0  0  0  0  0  0  0
    7.6902    3.8481   -9.8508 C   0  0  0  0  0  0  0  0  0  0  0  0
    7.8324    2.5611   -9.3229 C   0  0  0  0  0  0  0  0  0  0  0  0
    7.7316    2.3940   -7.9455 C   0  0  0  0  0  0  0  0  0  0  0  0
    7.5908    1.1225   -7.3711 N   0  0  0  0  0  0  0  0  0  0  0  0
    7.1361    0.9308   -6.0863 C   0  0  0  0  0  0  0  0  0  0  0  0
    7.0195   -0.1936   -5.6032 O   0  0  0  0  0  0  0  0  0  0  0  0
    5.5665    0.9407   -3.5631 N   0  0  0  0  0  0  0  0  0  0  0  0
    4.5558    1.1586   -2.6704 C   0  0  0  0  0  0  0  0  0  0  0  0
    3.9646    0.2073   -1.7224 C   0  0  0  0  0  0  0  0  0  0  0  0
    2.5845   -1.2757    1.7243 H   0  0  0  0  0  0  0  0  0  0  0  0
    4.0442   -0.9714    0.8248 H   0  0  0  0  0  0  0  0  0  0  0  0
    4.7636   -2.8595   -0.4744 H   0  0  0  0  0  0  0  0  0  0  0  0
    4.2142   -4.9395   -1.7099 H   0  0  0  0  0  0  0  0  0  0  0  0
    0.1734   -4.4188   -1.1357 H   0  0  0  0  0  0  0  0  0  0  0  0
    0.5179   -2.2976    0.1171 H   0  0  0  0  0  0  0  0  0  0  0  0
    1.9557    2.6467   -0.3812 H   0  0  0  0  0  0  0  0  0  0  0  0
    1.4039    1.7668   -1.7956 H   0  0  0  0  0  0  0  0  0  0  0  0
    3.4562    3.9311   -1.5529 H   0  0  0  0  0  0  0  0  0  0  0  0
    2.3618    3.5524   -2.8827 H   0  0  0  0  0  0  0  0  0  0  0  0
    6.7533    4.2784   -5.2935 H   0  0  0  0  0  0  0  0  0  0  0  0
    8.1645    5.6179   -7.0042 H   0  0  0  0  0  0  0  0  0  0  0  0
    7.6024    5.9623   -9.4034 H   0  0  0  0  0  0  0  0  0  0  0  0
    7.5623    3.9929  -10.9202 H   0  0  0  0  0  0  0  0  0  0  0  0
    7.8999    1.7121   -9.9937 H   0  0  0  0  0  0  0  0  0  0  0  0
    7.7564    0.2940   -7.9297 H   0  0  0  0  0  0  0  0  0  0  0  0
    6.0572    0.0687   -3.7535 H   0  0  0  0  0  0  0  0  0  0  0  0
    4.7553   -0.2585   -1.1235 H   0  0  0  0  0  0  0  0  0  0  0  0
    3.4210   -0.5754   -2.2605 H   0  0  0  0  0  0  0  0  0  0  0  0
  1  2  2  0  0  0  0
  2  3  1  0  0  0  0
  2 10  1  0  0  0  0
  3  4  1  0  0  0  0
  3 30  1  0  0  0  0
  3 31  1  0  0  0  0
  4  5  1  0  0  0  0
  4  9  2  0  0  0  0
  5  6  2  0  0  0  0
  5 32  1  0  0  0  0
  6  7  1  0  0  0  0
  6 33  1  0  0  0  0
  7  8  2  0  0  0  0
  8  9  1  0  0  0  0
  8 34  1  0  0  0  0
  9 35  1  0  0  0  0
 10 11  1  0  0  0  0
 10 29  1  0  0  0  0
 11 12  1  0  0  0  0
 11 36  1  0  0  0  0
 11 37  1  0  0  0  0
 12 13  1  0  0  0  0
 12 38  1  0  0  0  0
 12 39  1  0  0  0  0
 13 14  1  0  0  0  0
 13 28  2  0  0  0  0
 14 15  2  0  0  0  0
 15 16  1  0  0  0  0
 15 27  1  0  0  0  0
 16 17  2  0  0  0  0
 16 25  1  0  0  0  0
 17 18  1  0  0  0  0
 17 40  1  0  0  0  0
 18 19  1  0  0  0  0
 18 23  2  0  0  0  0
 19 20  2  0  0  0  0
 19 41  1  0  0  0  0
 20 21  1  0  0  0  0
 20 42  1  0  0  0  0
 21 22  2  0  0  0  0
 21 43  1  0  0  0  0
 22 23  1  0  0  0  0
 22 44  1  0  0  0  0
 23 24  1  0  0  0  0
 24 25  1  0  0  0  0
 24 45  1  0  0  0  0
 25 26  2  0  0  0  0
 27 28  1  0  0  0  0
 27 46  1  0  0  0  0
 28 29  1  0  0  0  0
 29 47  1  0  0  0  0
 29 48  1  0  0  0  0
M  END
$$$$
