CHEMBL3918011
 OpenBabel04072215373D

 74 79  0  0  0  0  0  0  0  0999 V2000
    4.0832   -1.6597   -2.4401 C   0  0  0  0  0  0  0  0  0  0  0  0
    4.1840   -0.4360   -1.6897 O   0  0  0  0  0  0  0  0  0  0  0  0
    5.1371   -0.3980   -0.6934 C   0  0  0  0  0  0  0  0  0  0  0  0
    5.7985   -1.5448   -0.2521 C   0  0  0  0  0  0  0  0  0  0  0  0
    6.8156   -1.4308    0.6787 C   0  0  0  0  0  0  0  0  0  0  0  0
    7.5306   -2.4711    1.2077 O   0  0  0  0  0  0  0  0  0  0  0  0
    7.3738   -3.7400    0.5845 C   0  0  0  0  0  0  0  0  0  0  0  0
    7.1816   -0.1652    1.1529 C   0  0  0  0  0  0  0  0  0  0  0  0
    6.5094    1.0325    0.8166 C   0  0  0  0  0  0  0  0  0  0  0  0
    6.9806    2.3075    1.4269 N   0  0  0  0  0  0  0  0  0  0  0  0
    6.6527    3.4976    0.6242 C   0  0  0  0  0  0  0  0  0  0  0  0
    7.3897    3.4013   -0.6878 C   0  0  0  0  0  0  0  0  0  0  0  0
    8.8930    3.3709   -0.6208 C   0  0  0  0  0  0  0  0  0  0  0  0
    8.1941    4.5128   -1.3000 C   0  0  0  0  0  0  0  0  0  0  0  0
    7.6421    2.4045    2.7289 C   0  0  0  0  0  0  0  0  0  0  0  0
    7.1734    1.4234    3.5684 C   0  0  0  0  0  0  0  0  0  0  0  0
    7.7864    1.1519    4.7638 C   0  0  0  0  0  0  0  0  0  0  0  0
    8.7226    1.8903    5.3307 C   0  0  0  0  0  0  0  0  0  0  0  0
    8.7074    1.4700    6.5676 N   0  0  0  0  0  0  0  0  0  0  0  0
    9.7264    1.7888    7.3201 C   0  0  0  0  0  0  0  0  0  0  0  0
   10.8589    2.4226    6.8855 C   0  0  0  0  0  0  0  0  0  0  0  0
   11.9955    2.0810    7.8774 C   0  0  0  0  0  0  0  0  0  0  0  0
   12.9153    2.8108    8.6824 C   0  0  0  0  0  0  0  0  0  0  0  0
   13.3857    2.1416    9.7629 N   0  0  0  0  0  0  0  0  0  0  0  0
   12.7818    0.9334    9.7197 N   0  0  0  0  0  0  0  0  0  0  0  0
   13.0605   -0.1110   10.7451 C   0  0  0  0  0  0  0  0  0  0  0  0
   11.9164   -1.0800   11.1525 C   0  0  0  0  0  0  0  0  0  0  0  0
   10.8279   -0.3915   11.9622 C   0  0  0  0  0  0  0  0  0  0  0  0
   11.3689    0.3295   13.1408 N   0  0  0  0  0  0  0  0  0  0  0  0
   10.1718    1.0940   14.1177 S   0  0  0  0  0  0  0  0  0  0  0  0
    9.4113    2.2153   12.9527 C   0  0  0  0  0  0  0  0  0  0  0  0
    9.1825    0.0982   14.4704 O   0  0  0  0  0  0  0  0  0  0  0  0
   10.8418    1.8804   15.1303 O   0  0  0  0  0  0  0  0  0  0  0  0
   12.5858    1.1522   12.8997 C   0  0  0  0  0  0  0  0  0  0  0  0
   13.6295    0.3890   12.0926 C   0  0  0  0  0  0  0  0  0  0  0  0
   12.0124    0.8444    8.5814 C   0  0  0  0  0  0  0  0  0  0  0  0
   10.7688    3.0779    5.6111 N   0  0  0  0  0  0  0  0  0  0  0  0
    9.5365    2.8236    4.6951 C   0  0  0  0  0  0  0  0  0  0  0  0
    8.7876    3.1624    3.2948 C   0  0  0  0  0  0  0  0  0  0  0  0
    5.4460    0.8695   -0.1157 C   0  0  0  0  0  0  0  0  0  0  0  0
    3.4898   -1.4779   -3.3425 H   0  0  0  0  0  0  0  0  0  0  0  0
    3.5669   -2.4322   -1.8567 H   0  0  0  0  0  0  0  0  0  0  0  0
    5.0623   -2.0266   -2.7766 H   0  0  0  0  0  0  0  0  0  0  0  0
    5.5277   -2.5204   -0.6338 H   0  0  0  0  0  0  0  0  0  0  0  0
    8.0829   -4.4294    1.0512 H   0  0  0  0  0  0  0  0  0  0  0  0
    7.6138   -3.6852   -0.4827 H   0  0  0  0  0  0  0  0  0  0  0  0
    6.3665   -4.1408    0.7421 H   0  0  0  0  0  0  0  0  0  0  0  0
    8.0322   -0.1367    1.8262 H   0  0  0  0  0  0  0  0  0  0  0  0
    6.8808    4.4301    1.1509 H   0  0  0  0  0  0  0  0  0  0  0  0
    5.5711    3.5537    0.4175 H   0  0  0  0  0  0  0  0  0  0  0  0
    6.9016    2.7333   -1.3915 H   0  0  0  0  0  0  0  0  0  0  0  0
    9.3777    2.5917   -1.1954 H   0  0  0  0  0  0  0  0  0  0  0  0
    9.3628    3.5636    0.3360 H   0  0  0  0  0  0  0  0  0  0  0  0
    8.2619    4.5467   -2.3822 H   0  0  0  0  0  0  0  0  0  0  0  0
    8.1778    5.4794   -0.8157 H   0  0  0  0  0  0  0  0  0  0  0  0
    6.3582    0.7667    3.3153 H   0  0  0  0  0  0  0  0  0  0  0  0
    7.4838    0.2205    5.2627 H   0  0  0  0  0  0  0  0  0  0  0  0
    9.6544    1.2944    8.2718 H   0  0  0  0  0  0  0  0  0  0  0  0
   13.2207    3.8462    8.5897 H   0  0  0  0  0  0  0  0  0  0  0  0
   13.8356   -0.7248   10.2677 H   0  0  0  0  0  0  0  0  0  0  0  0
   12.3369   -1.8832   11.7826 H   0  0  0  0  0  0  0  0  0  0  0  0
   11.4770   -1.5864   10.2882 H   0  0  0  0  0  0  0  0  0  0  0  0
   10.1135   -1.1483   12.3127 H   0  0  0  0  0  0  0  0  0  0  0  0
   10.3022    0.2993   11.3029 H   0  0  0  0  0  0  0  0  0  0  0  0
    8.8991    1.6374   12.1816 H   0  0  0  0  0  0  0  0  0  0  0  0
   10.1743    2.8612   12.5179 H   0  0  0  0  0  0  0  0  0  0  0  0
    8.6750    2.8176   13.4864 H   0  0  0  0  0  0  0  0  0  0  0  0
   13.0333    1.4024   13.8702 H   0  0  0  0  0  0  0  0  0  0  0  0
   12.3177    2.0811   12.3947 H   0  0  0  0  0  0  0  0  0  0  0  0
   13.9550   -0.4801   12.6897 H   0  0  0  0  0  0  0  0  0  0  0  0
   14.5237    1.0014   11.9488 H   0  0  0  0  0  0  0  0  0  0  0  0
   11.4427   -0.0618    8.4173 H   0  0  0  0  0  0  0  0  0  0  0  0
    9.1625    4.0036    2.7011 H   0  0  0  0  0  0  0  0  0  0  0  0
    4.8268    1.7038   -0.4373 H   0  0  0  0  0  0  0  0  0  0  0  0
  1  2  1  0  0  0  0
  1 41  1  0  0  0  0
  1 42  1  0  0  0  0
  1 43  1  0  0  0  0
  2  3  1  0  0  0  0
  3  4  1  0  0  0  0
  3 40  2  0  0  0  0
  4  5  2  0  0  0  0
  4 44  1  0  0  0  0
  5  6  1  0  0  0  0
  5  8  1  0  0  0  0
  6  7  1  0  0  0  0
  7 45  1  0  0  0  0
  7 46  1  0  0  0  0
  7 47  1  0  0  0  0
  8  9  2  0  0  0  0
  8 48  1  0  0  0  0
  9 10  1  0  0  0  0
  9 40  1  0  0  0  0
 10 11  1  0  0  0  0
 10 15  1  0  0  0  0
 11 12  1  0  0  0  0
 11 49  1  0  0  0  0
 11 50  1  0  0  0  0
 12 13  1  0  0  0  0
 12 14  1  0  0  0  0
 12 51  1  0  0  0  0
 13 14  1  0  0  0  0
 13 52  1  0  0  0  0
 13 53  1  0  0  0  0
 14 54  1  0  0  0  0
 14 55  1  0  0  0  0
 15 16  1  0  0  0  0
 15 39  2  0  0  0  0
 16 17  2  0  0  0  0
 16 56  1  0  0  0  0
 17 18  1  0  0  0  0
 17 57  1  0  0  0  0
 18 19  1  0  0  0  0
 18 38  2  0  0  0  0
 19 20  2  0  0  0  0
 20 21  1  0  0  0  0
 20 58  1  0  0  0  0
 21 22  1  0  0  0  0
 21 37  2  0  0  0  0
 22 23  1  0  0  0  0
 22 36  2  0  0  0  0
 23 24  2  0  0  0  0
 23 59  1  0  0  0  0
 24 25  1  0  0  0  0
 25 26  1  0  0  0  0
 25 36  1  0  0  0  0
 26 27  1  0  0  0  0
 26 35  1  0  0  0  0
 26 60  1  0  0  0  0
 27 28  1  0  0  0  0
 27 61  1  0  0  0  0
 27 62  1  0  0  0  0
 28 29  1  0  0  0  0
 28 63  1  0  0  0  0
 28 64  1  0  0  0  0
 29 30  1  0  0  0  0
 29 34  1  0  0  0  0
 30 31  1  0  0  0  0
 30 32  2  0  0  0  0
 30 33  2  0  0  0  0
 31 65  1  0  0  0  0
 31 66  1  0  0  0  0
 31 67  1  0  0  0  0
 34 35  1  0  0  0  0
 34 68  1  0  0  0  0
 34 69  1  0  0  0  0
 35 70  1  0  0  0  0
 35 71  1  0  0  0  0
 36 72  1  0  0  0  0
 37 38  1  0  0  0  0
 38 39  1  0  0  0  0
 39 73  1  0  0  0  0
 40 74  1  0  0  0  0
M  END
$$$$
