CHEMBL188648
 OpenBabel04072215363D

 56 58  0  0  0  0  0  0  0  0999 V2000
    3.2516    0.6320   -0.6053 C   0  0  0  0  0  0  0  0  0  0  0  0
    4.7260    0.2575   -0.5328 C   0  0  0  0  0  0  0  0  0  0  0  0
    5.4967    0.4622   -1.7708 N   0  0  0  0  0  0  0  0  0  0  0  0
    5.4065    1.8282   -2.3161 C   0  0  0  0  0  0  0  0  0  0  0  0
    6.0420    2.9329   -1.4749 C   0  0  0  0  0  0  0  0  0  0  0  0
    6.9002    0.0448   -1.5938 C   0  0  0  0  0  0  0  0  0  0  0  0
    7.0718   -1.4402   -1.2384 C   0  0  0  0  0  0  0  0  0  0  0  0
    6.5034   -2.4018   -2.2883 C   0  0  0  0  0  0  0  0  0  0  0  0
    7.1853   -2.2847   -3.6518 C   0  0  0  0  0  0  0  0  0  0  0  0
    8.5956   -2.5842   -3.4671 N   0  0  0  0  0  0  0  0  0  0  0  0
    9.2607   -3.0776   -4.5880 C   0  0  0  0  0  0  0  0  0  0  0  0
   10.3548   -3.9022   -4.3569 C   0  0  0  0  0  0  0  0  0  0  0  0
   10.9674   -4.5323   -5.4125 C   0  0  0  0  0  0  0  0  0  0  0  0
   11.8943   -5.4668   -5.1561 N   0  0  0  0  0  0  0  0  0  0  0  0
   12.4178   -6.1636   -6.1939 C   0  0  0  0  0  0  0  0  0  0  0  0
   13.2961   -7.1347   -5.7427 N   0  0  0  0  0  0  0  0  0  0  0  0
   12.1422   -5.9064   -7.5443 C   0  0  0  0  0  0  0  0  0  0  0  0
   12.7481   -6.6448   -8.7141 C   0  0  0  0  0  0  0  0  0  0  0  0
   11.9765   -7.0445   -9.8462 C   0  0  0  0  0  0  0  0  0  0  0  0
   10.2518   -6.8347   -9.9794 Cl  0  0  0  0  0  0  0  0  0  0  0  0
   12.5450   -7.6857  -10.9625 C   0  0  0  0  0  0  0  0  0  0  0  0
   13.8838   -8.0344  -10.9696 C   0  0  0  0  0  0  0  0  0  0  0  0
   14.6664   -7.6991   -9.8781 C   0  0  0  0  0  0  0  0  0  0  0  0
   14.1321   -6.9710   -8.7976 C   0  0  0  0  0  0  0  0  0  0  0  0
   15.3466   -6.4256   -7.6833 Cl  0  0  0  0  0  0  0  0  0  0  0  0
   11.2006   -4.8788   -7.7674 C   0  0  0  0  0  0  0  0  0  0  0  0
   10.5475   -4.2384   -6.7014 C   0  0  0  0  0  0  0  0  0  0  0  0
    9.4973   -3.3377   -6.8579 C   0  0  0  0  0  0  0  0  0  0  0  0
    8.8319   -2.7763   -5.8244 N   0  0  0  0  0  0  0  0  0  0  0  0
    2.7289    0.2041    0.2577 H   0  0  0  0  0  0  0  0  0  0  0  0
    2.7804    0.2320   -1.5086 H   0  0  0  0  0  0  0  0  0  0  0  0
    3.1078    1.7154   -0.5751 H   0  0  0  0  0  0  0  0  0  0  0  0
    4.7312   -0.8089   -0.2870 H   0  0  0  0  0  0  0  0  0  0  0  0
    5.1920    0.7783    0.3117 H   0  0  0  0  0  0  0  0  0  0  0  0
    4.3565    2.0803   -2.5039 H   0  0  0  0  0  0  0  0  0  0  0  0
    5.8695    1.8437   -3.3119 H   0  0  0  0  0  0  0  0  0  0  0  0
    5.7929    2.8438   -0.4142 H   0  0  0  0  0  0  0  0  0  0  0  0
    5.6862    3.9113   -1.8134 H   0  0  0  0  0  0  0  0  0  0  0  0
    7.1326    2.9247   -1.5747 H   0  0  0  0  0  0  0  0  0  0  0  0
    7.3832    0.6389   -0.8086 H   0  0  0  0  0  0  0  0  0  0  0  0
    7.4599    0.2460   -2.5158 H   0  0  0  0  0  0  0  0  0  0  0  0
    6.6145   -1.6647   -0.2688 H   0  0  0  0  0  0  0  0  0  0  0  0
    8.1391   -1.6397   -1.0855 H   0  0  0  0  0  0  0  0  0  0  0  0
    5.4247   -2.2509   -2.4066 H   0  0  0  0  0  0  0  0  0  0  0  0
    6.6329   -3.4264   -1.9156 H   0  0  0  0  0  0  0  0  0  0  0  0
    7.0493   -1.2934   -4.0962 H   0  0  0  0  0  0  0  0  0  0  0  0
    6.7102   -3.0173   -4.3189 H   0  0  0  0  0  0  0  0  0  0  0  0
    9.1325   -1.8161   -3.0745 H   0  0  0  0  0  0  0  0  0  0  0  0
   10.6661   -4.1165   -3.3418 H   0  0  0  0  0  0  0  0  0  0  0  0
   13.2935   -7.1383   -4.7310 H   0  0  0  0  0  0  0  0  0  0  0  0
   13.1988   -8.0394   -6.1703 H   0  0  0  0  0  0  0  0  0  0  0  0
   11.9335   -7.9281  -11.8303 H   0  0  0  0  0  0  0  0  0  0  0  0
   14.3190   -8.5487  -11.8221 H   0  0  0  0  0  0  0  0  0  0  0  0
   15.7201   -7.9728   -9.8815 H   0  0  0  0  0  0  0  0  0  0  0  0
   10.9286   -4.5804   -8.7775 H   0  0  0  0  0  0  0  0  0  0  0  0
    9.1091   -3.0715   -7.8375 H   0  0  0  0  0  0  0  0  0  0  0  0
  1  2  1  0  0  0  0
  1 30  1  0  0  0  0
  1 31  1  0  0  0  0
  1 32  1  0  0  0  0
  2  3  1  0  0  0  0
  2 33  1  0  0  0  0
  2 34  1  0  0  0  0
  3  4  1  0  0  0  0
  3  6  1  0  0  0  0
  4  5  1  0  0  0  0
  4 35  1  0  0  0  0
  4 36  1  0  0  0  0
  5 37  1  0  0  0  0
  5 38  1  0  0  0  0
  5 39  1  0  0  0  0
  6  7  1  0  0  0  0
  6 40  1  0  0  0  0
  6 41  1  0  0  0  0
  7  8  1  0  0  0  0
  7 42  1  0  0  0  0
  7 43  1  0  0  0  0
  8  9  1  0  0  0  0
  8 44  1  0  0  0  0
  8 45  1  0  0  0  0
  9 10  1  0  0  0  0
  9 46  1  0  0  0  0
  9 47  1  0  0  0  0
 10 11  1  0  0  0  0
 10 48  1  0  0  0  0
 11 12  1  0  0  0  0
 11 29  2  0  0  0  0
 12 13  2  0  0  0  0
 12 49  1  0  0  0  0
 13 14  1  0  0  0  0
 13 27  1  0  0  0  0
 14 15  2  0  0  0  0
 15 16  1  0  0  0  0
 15 17  1  0  0  0  0
 16 50  1  0  0  0  0
 16 51  1  0  0  0  0
 17 18  1  0  0  0  0
 17 26  2  0  0  0  0
 18 19  1  0  0  0  0
 18 24  2  0  0  0  0
 19 20  1  0  0  0  0
 19 21  2  0  0  0  0
 21 22  1  0  0  0  0
 21 52  1  0  0  0  0
 22 23  2  0  0  0  0
 22 53  1  0  0  0  0
 23 24  1  0  0  0  0
 23 54  1  0  0  0  0
 24 25  1  0  0  0  0
 26 27  1  0  0  0  0
 26 55  1  0  0  0  0
 27 28  2  0  0  0  0
 28 29  1  0  0  0  0
 28 56  1  0  0  0  0
M  END
$$$$
