CHEMBL3287313
 OpenBabel04072215363D

 71 75  0  0  0  0  0  0  0  0999 V2000
   11.2225    6.3537    4.5707 C   0  0  0  0  0  0  0  0  0  0  0  0
   10.3874    5.2246    4.3323 O   0  0  0  0  0  0  0  0  0  0  0  0
   10.9775    4.1416    3.7367 C   0  0  0  0  0  0  0  0  0  0  0  0
   12.2995    4.0820    3.2988 C   0  0  0  0  0  0  0  0  0  0  0  0
   12.7853    2.9154    2.7124 C   0  0  0  0  0  0  0  0  0  0  0  0
   11.9597    1.7984    2.5750 C   0  0  0  0  0  0  0  0  0  0  0  0
   10.6393    1.8310    3.0256 C   0  0  0  0  0  0  0  0  0  0  0  0
    9.7695    0.7191    2.9614 N   0  0  0  0  0  0  0  0  0  0  0  0
   10.1111   -0.5742    2.6147 C   0  0  0  0  0  0  0  0  0  0  0  0
   11.2163   -0.9963    2.3045 O   0  0  0  0  0  0  0  0  0  0  0  0
    8.9696   -1.5463    2.6762 C   0  0  0  0  0  0  0  0  0  0  0  0
    8.3980   -1.8269    4.0287 C   0  0  0  0  0  0  0  0  0  0  0  0
    7.3675   -1.2445    4.3609 O   0  0  0  0  0  0  0  0  0  0  0  0
    9.1298   -2.6851    4.8421 N   0  0  0  0  0  0  0  0  0  0  0  0
    8.7243   -2.8113    6.1880 C   0  0  0  0  0  0  0  0  0  0  0  0
    7.6621   -3.6638    6.4982 C   0  0  0  0  0  0  0  0  0  0  0  0
    7.1575   -3.7148    7.8006 C   0  0  0  0  0  0  0  0  0  0  0  0
    7.7149   -2.9152    8.8041 C   0  0  0  0  0  0  0  0  0  0  0  0
    7.1970   -2.8317   10.0812 O   0  0  0  0  0  0  0  0  0  0  0  0
    6.7321   -3.9923   10.6818 C   0  0  0  0  0  0  0  0  0  0  0  0
    5.7773   -3.8707   11.6571 C   0  0  0  0  0  0  0  0  0  0  0  0
    5.3560   -5.0588   12.2027 C   0  0  0  0  0  0  0  0  0  0  0  0
    5.8336   -6.2667   11.8356 N   0  0  0  0  0  0  0  0  0  0  0  0
    6.7944   -6.2741   10.9017 C   0  0  0  0  0  0  0  0  0  0  0  0
    7.3073   -7.5113   10.5044 N   0  0  0  0  0  0  0  0  0  0  0  0
    8.5952   -7.7556    9.9948 C   0  0  0  0  0  0  0  0  0  0  0  0
    9.6848   -6.9318   10.3045 C   0  0  0  0  0  0  0  0  0  0  0  0
   10.9370   -7.1528    9.7418 C   0  0  0  0  0  0  0  0  0  0  0  0
   11.1230   -8.2098    8.8564 C   0  0  0  0  0  0  0  0  0  0  0  0
   10.0674   -9.0801    8.5517 C   0  0  0  0  0  0  0  0  0  0  0  0
   10.2422  -10.1842    7.5415 C   0  0  0  0  0  0  0  0  0  0  0  0
   11.4329  -11.4124    8.0649 S   0  0  0  0  0  0  0  0  0  0  0  0
   10.8230  -12.0054    9.6259 C   0  0  0  0  0  0  0  0  0  0  0  0
   11.3352  -12.5244    7.1342 O   0  0  0  0  0  0  0  0  0  0  0  0
   12.7250  -10.7911    8.2946 O   0  0  0  0  0  0  0  0  0  0  0  0
    8.8067   -8.8422    9.1333 C   0  0  0  0  0  0  0  0  0  0  0  0
    7.2619   -5.1664   10.3141 N   0  0  0  0  0  0  0  0  0  0  0  0
    8.7831   -2.0749    8.4787 C   0  0  0  0  0  0  0  0  0  0  0  0
    9.3013   -1.2587    9.4096 F   0  0  0  0  0  0  0  0  0  0  0  0
    9.3102   -2.0330    7.1845 C   0  0  0  0  0  0  0  0  0  0  0  0
    8.9182   -2.6506    1.6195 C   0  0  0  0  0  0  0  0  0  0  0  0
    7.9651   -1.5043    1.5182 C   0  0  0  0  0  0  0  0  0  0  0  0
   10.1495    3.0197    3.5848 C   0  0  0  0  0  0  0  0  0  0  0  0
   10.6372    7.0976    5.1191 H   0  0  0  0  0  0  0  0  0  0  0  0
   11.5425    6.8080    3.6266 H   0  0  0  0  0  0  0  0  0  0  0  0
   12.0844    6.0892    5.1933 H   0  0  0  0  0  0  0  0  0  0  0  0
   12.9788    4.9217    3.3969 H   0  0  0  0  0  0  0  0  0  0  0  0
   13.8143    2.8685    2.3648 H   0  0  0  0  0  0  0  0  0  0  0  0
   12.3843    0.9179    2.1042 H   0  0  0  0  0  0  0  0  0  0  0  0
    8.8161    0.8697    3.2784 H   0  0  0  0  0  0  0  0  0  0  0  0
   10.1280   -2.6726    4.6571 H   0  0  0  0  0  0  0  0  0  0  0  0
    7.2155   -4.2896    5.7298 H   0  0  0  0  0  0  0  0  0  0  0  0
    6.3228   -4.3769    8.0118 H   0  0  0  0  0  0  0  0  0  0  0  0
    5.3780   -2.9154   11.9658 H   0  0  0  0  0  0  0  0  0  0  0  0
    4.5940   -5.0800   12.9766 H   0  0  0  0  0  0  0  0  0  0  0  0
    6.9238   -8.2414   11.0873 H   0  0  0  0  0  0  0  0  0  0  0  0
    9.5645   -6.0873   10.9807 H   0  0  0  0  0  0  0  0  0  0  0  0
   11.7598   -6.4837    9.9784 H   0  0  0  0  0  0  0  0  0  0  0  0
   12.1040   -8.3334    8.3999 H   0  0  0  0  0  0  0  0  0  0  0  0
   10.5830   -9.7756    6.5848 H   0  0  0  0  0  0  0  0  0  0  0  0
    9.3008  -10.7166    7.3659 H   0  0  0  0  0  0  0  0  0  0  0  0
    9.7973  -12.3547    9.4897 H   0  0  0  0  0  0  0  0  0  0  0  0
   10.8723  -11.2062   10.3648 H   0  0  0  0  0  0  0  0  0  0  0  0
   11.4563  -12.8376    9.9394 H   0  0  0  0  0  0  0  0  0  0  0  0
    7.9567   -9.4676    8.8652 H   0  0  0  0  0  0  0  0  0  0  0  0
   10.1098   -1.3344    6.9631 H   0  0  0  0  0  0  0  0  0  0  0  0
    8.5232   -3.6199    1.9005 H   0  0  0  0  0  0  0  0  0  0  0  0
    9.7157   -2.7017    0.8841 H   0  0  0  0  0  0  0  0  0  0  0  0
    6.9197   -1.6920    1.7428 H   0  0  0  0  0  0  0  0  0  0  0  0
    8.1175   -0.7738    0.7317 H   0  0  0  0  0  0  0  0  0  0  0  0
    9.1218    3.0857    3.9342 H   0  0  0  0  0  0  0  0  0  0  0  0
  1  2  1  0  0  0  0
  1 44  1  0  0  0  0
  1 45  1  0  0  0  0
  1 46  1  0  0  0  0
  2  3  1  0  0  0  0
  3  4  1  0  0  0  0
  3 43  2  0  0  0  0
  4  5  2  0  0  0  0
  4 47  1  0  0  0  0
  5  6  1  0  0  0  0
  5 48  1  0  0  0  0
  6  7  2  0  0  0  0
  6 49  1  0  0  0  0
  7  8  1  0  0  0  0
  7 43  1  0  0  0  0
  8  9  1  0  0  0  0
  8 50  1  0  0  0  0
  9 10  2  0  0  0  0
  9 11  1  0  0  0  0
 11 12  1  0  0  0  0
 11 41  1  0  0  0  0
 11 42  1  0  0  0  0
 12 13  2  0  0  0  0
 12 14  1  0  0  0  0
 14 15  1  0  0  0  0
 14 51  1  0  0  0  0
 15 16  1  0  0  0  0
 15 40  2  0  0  0  0
 16 17  2  0  0  0  0
 16 52  1  0  0  0  0
 17 18  1  0  0  0  0
 17 53  1  0  0  0  0
 18 19  1  0  0  0  0
 18 38  2  0  0  0  0
 19 20  1  0  0  0  0
 20 21  1  0  0  0  0
 20 37  2  0  0  0  0
 21 22  2  0  0  0  0
 21 54  1  0  0  0  0
 22 23  1  0  0  0  0
 22 55  1  0  0  0  0
 23 24  2  0  0  0  0
 24 25  1  0  0  0  0
 24 37  1  0  0  0  0
 25 26  1  0  0  0  0
 25 56  1  0  0  0  0
 26 27  1  0  0  0  0
 26 36  2  0  0  0  0
 27 28  2  0  0  0  0
 27 57  1  0  0  0  0
 28 29  1  0  0  0  0
 28 58  1  0  0  0  0
 29 30  2  0  0  0  0
 29 59  1  0  0  0  0
 30 31  1  0  0  0  0
 30 36  1  0  0  0  0
 31 32  1  0  0  0  0
 31 60  1  0  0  0  0
 31 61  1  0  0  0  0
 32 33  1  0  0  0  0
 32 34  2  0  0  0  0
 32 35  2  0  0  0  0
 33 62  1  0  0  0  0
 33 63  1  0  0  0  0
 33 64  1  0  0  0  0
 36 65  1  0  0  0  0
 38 39  1  0  0  0  0
 38 40  1  0  0  0  0
 40 66  1  0  0  0  0
 41 42  1  0  0  0  0
 41 67  1  0  0  0  0
 41 68  1  0  0  0  0
 42 69  1  0  0  0  0
 42 70  1  0  0  0  0
 43 71  1  0  0  0  0
M  END
$$$$
