CHEMBL396283
 OpenBabel04072215373D

 50 53  0  0  0  0  0  0  0  0999 V2000
    5.3706   -0.2246   -8.8396 C   0  0  0  0  0  0  0  0  0  0  0  0
    6.1885   -1.3939   -8.8854 O   0  0  0  0  0  0  0  0  0  0  0  0
    5.9861   -2.2847   -7.8796 C   0  0  0  0  0  0  0  0  0  0  0  0
    5.0942   -2.2160   -7.0461 O   0  0  0  0  0  0  0  0  0  0  0  0
    6.9982   -3.1966   -7.9201 N   0  0  0  0  0  0  0  0  0  0  0  0
    7.3060   -3.9473   -6.8216 C   0  0  0  0  0  0  0  0  0  0  0  0
    8.5350   -4.1431   -6.4110 N   0  0  0  0  0  0  0  0  0  0  0  0
    8.4157   -4.8741   -5.2613 C   0  0  0  0  0  0  0  0  0  0  0  0
    9.4032   -5.2428   -4.3411 C   0  0  0  0  0  0  0  0  0  0  0  0
    9.0455   -6.0784   -3.2785 C   0  0  0  0  0  0  0  0  0  0  0  0
    7.7481   -6.5992   -3.1844 C   0  0  0  0  0  0  0  0  0  0  0  0
    7.3768   -7.5285   -2.2337 O   0  0  0  0  0  0  0  0  0  0  0  0
    8.2790   -8.4981   -1.8521 C   0  0  0  0  0  0  0  0  0  0  0  0
    8.1831   -8.9327   -0.5347 C   0  0  0  0  0  0  0  0  0  0  0  0
    9.0861   -9.8774   -0.0372 C   0  0  0  0  0  0  0  0  0  0  0  0
   10.0970  -10.4059   -0.8470 C   0  0  0  0  0  0  0  0  0  0  0  0
   11.0896  -11.2990   -0.3779 N   0  0  0  0  0  0  0  0  0  0  0  0
   11.1384  -11.8686    0.8821 C   0  0  0  0  0  0  0  0  0  0  0  0
   10.2600  -11.7793    1.7297 O   0  0  0  0  0  0  0  0  0  0  0  0
   12.3424  -12.5343    1.1013 N   0  0  0  0  0  0  0  0  0  0  0  0
   12.5703  -13.1859    2.3378 C   0  0  0  0  0  0  0  0  0  0  0  0
   11.5863  -13.9960    2.9193 C   0  0  0  0  0  0  0  0  0  0  0  0
   11.7810  -14.5545    4.1825 C   0  0  0  0  0  0  0  0  0  0  0  0
   12.9615  -14.2990    4.8753 C   0  0  0  0  0  0  0  0  0  0  0  0
   13.9508  -13.5120    4.2854 C   0  0  0  0  0  0  0  0  0  0  0  0
   15.3874  -13.1577    5.1663 Cl  0  0  0  0  0  0  0  0  0  0  0  0
   13.7761  -12.9768    3.0070 C   0  0  0  0  0  0  0  0  0  0  0  0
   10.1509  -10.0089   -2.1874 C   0  0  0  0  0  0  0  0  0  0  0  0
    9.2304   -9.0806   -2.6940 C   0  0  0  0  0  0  0  0  0  0  0  0
    6.7254   -6.1556   -4.0371 C   0  0  0  0  0  0  0  0  0  0  0  0
    7.0983   -5.2696   -5.0521 C   0  0  0  0  0  0  0  0  0  0  0  0
    6.3970   -4.5987   -6.0258 N   0  0  0  0  0  0  0  0  0  0  0  0
    5.5005    0.3126   -9.7843 H   0  0  0  0  0  0  0  0  0  0  0  0
    5.7075    0.4242   -8.0245 H   0  0  0  0  0  0  0  0  0  0  0  0
    4.3131   -0.4763   -8.7266 H   0  0  0  0  0  0  0  0  0  0  0  0
    7.7830   -2.9218   -8.4908 H   0  0  0  0  0  0  0  0  0  0  0  0
   10.4207   -4.8857   -4.4584 H   0  0  0  0  0  0  0  0  0  0  0  0
    9.8062   -6.3456   -2.5491 H   0  0  0  0  0  0  0  0  0  0  0  0
    7.4164   -8.5298    0.1220 H   0  0  0  0  0  0  0  0  0  0  0  0
    8.9712  -10.1637    1.0031 H   0  0  0  0  0  0  0  0  0  0  0  0
   11.7627  -11.6341   -1.0511 H   0  0  0  0  0  0  0  0  0  0  0  0
   13.1438  -12.0988    0.6674 H   0  0  0  0  0  0  0  0  0  0  0  0
   10.6479  -14.1833    2.4007 H   0  0  0  0  0  0  0  0  0  0  0  0
   11.0000  -15.1633    4.6308 H   0  0  0  0  0  0  0  0  0  0  0  0
   13.0969  -14.7033    5.8748 H   0  0  0  0  0  0  0  0  0  0  0  0
   14.5465  -12.3413    2.5824 H   0  0  0  0  0  0  0  0  0  0  0  0
   10.9089  -10.4041   -2.8582 H   0  0  0  0  0  0  0  0  0  0  0  0
    9.2875   -8.8032   -3.7432 H   0  0  0  0  0  0  0  0  0  0  0  0
    5.7036   -6.4999   -3.9179 H   0  0  0  0  0  0  0  0  0  0  0  0
    5.3954   -4.5993   -6.1645 H   0  0  0  0  0  0  0  0  0  0  0  0
  1  2  1  0  0  0  0
  1 33  1  0  0  0  0
  1 34  1  0  0  0  0
  1 35  1  0  0  0  0
  2  3  1  0  0  0  0
  3  4  2  0  0  0  0
  3  5  1  0  0  0  0
  5  6  1  0  0  0  0
  5 36  1  0  0  0  0
  6  7  2  0  0  0  0
  6 32  1  0  0  0  0
  7  8  1  0  0  0  0
  8  9  1  0  0  0  0
  8 31  2  0  0  0  0
  9 10  2  0  0  0  0
  9 37  1  0  0  0  0
 10 11  1  0  0  0  0
 10 38  1  0  0  0  0
 11 12  1  0  0  0  0
 11 30  2  0  0  0  0
 12 13  1  0  0  0  0
 13 14  1  0  0  0  0
 13 29  2  0  0  0  0
 14 15  2  0  0  0  0
 14 39  1  0  0  0  0
 15 16  1  0  0  0  0
 15 40  1  0  0  0  0
 16 17  1  0  0  0  0
 16 28  2  0  0  0  0
 17 18  1  0  0  0  0
 17 41  1  0  0  0  0
 18 19  2  0  0  0  0
 18 20  1  0  0  0  0
 20 21  1  0  0  0  0
 20 42  1  0  0  0  0
 21 22  1  0  0  0  0
 21 27  2  0  0  0  0
 22 23  2  0  0  0  0
 22 43  1  0  0  0  0
 23 24  1  0  0  0  0
 23 44  1  0  0  0  0
 24 25  2  0  0  0  0
 24 45  1  0  0  0  0
 25 26  1  0  0  0  0
 25 27  1  0  0  0  0
 27 46  1  0  0  0  0
 28 29  1  0  0  0  0
 28 47  1  0  0  0  0
 29 48  1  0  0  0  0
 30 31  1  0  0  0  0
 30 49  1  0  0  0  0
 31 32  1  0  0  0  0
 32 50  1  0  0  0  0
M  END
$$$$
