CHEMBL47110
 OpenBabel04072215383D

 44 47  0  0  0  0  0  0  0  0999 V2000
   -2.4517   -5.3303   -3.6624 C   0  0  0  0  0  0  0  0  0  0  0  0
   -2.4842   -4.5516   -2.3851 C   0  0  0  0  0  0  0  0  0  0  0  0
   -3.6739   -4.1048   -1.8144 C   0  0  0  0  0  0  0  0  0  0  0  0
   -3.6518   -3.3731   -0.6196 C   0  0  0  0  0  0  0  0  0  0  0  0
   -4.9290   -2.8793   -0.0063 C   0  0  0  0  0  0  0  0  0  0  0  0
   -2.4223   -3.1079    0.0112 C   0  0  0  0  0  0  0  0  0  0  0  0
   -1.2142   -3.5716   -0.5303 C   0  0  0  0  0  0  0  0  0  0  0  0
   -0.0047   -3.3154    0.1329 N   0  0  0  0  0  0  0  0  0  0  0  0
    1.2449   -3.9279    0.0052 C   0  0  0  0  0  0  0  0  0  0  0  0
    1.5189   -4.7546   -1.0138 N   0  0  0  0  0  0  0  0  0  0  0  0
    2.7069   -5.3736   -1.0343 C   0  0  0  0  0  0  0  0  0  0  0  0
    3.6493   -5.2113   -0.0566 C   0  0  0  0  0  0  0  0  0  0  0  0
    3.2767   -4.3773    0.9760 C   0  0  0  0  0  0  0  0  0  0  0  0
    4.1289   -4.2828    2.1127 N   0  0  0  0  0  0  0  0  0  0  0  0
    5.5071   -4.3624    2.0895 C   0  0  0  0  0  0  0  0  0  0  0  0
    5.9202   -4.0919    3.3664 C   0  0  0  0  0  0  0  0  0  0  0  0
    4.8496   -3.9064    4.1921 N   0  0  0  0  0  0  0  0  0  0  0  0
    3.7627   -4.0884    3.4456 C   0  0  0  0  0  0  0  0  0  0  0  0
    2.3933   -4.1674    3.9774 C   0  0  0  0  0  0  0  0  0  0  0  0
    2.0319   -3.5003    5.1432 C   0  0  0  0  0  0  0  0  0  0  0  0
    0.7098   -3.5823    5.5786 C   0  0  0  0  0  0  0  0  0  0  0  0
   -0.2116   -4.3131    4.8364 C   0  0  0  0  0  0  0  0  0  0  0  0
    0.2384   -4.9750    3.7099 C   0  0  0  0  0  0  0  0  0  0  0  0
    1.5223   -4.9531    3.2982 N   0  0  0  0  0  0  0  0  0  0  0  0
    2.1190   -3.6847    0.9853 N   0  0  0  0  0  0  0  0  0  0  0  0
   -1.2753   -4.2670   -1.7437 C   0  0  0  0  0  0  0  0  0  0  0  0
   -3.4569   -5.4896   -4.0674 H   0  0  0  0  0  0  0  0  0  0  0  0
   -1.9967   -6.3144   -3.4917 H   0  0  0  0  0  0  0  0  0  0  0  0
   -1.8624   -4.7966   -4.4152 H   0  0  0  0  0  0  0  0  0  0  0  0
   -4.6199   -4.3214   -2.3033 H   0  0  0  0  0  0  0  0  0  0  0  0
   -5.7960   -3.1419   -0.6218 H   0  0  0  0  0  0  0  0  0  0  0  0
   -4.9045   -1.7893    0.0890 H   0  0  0  0  0  0  0  0  0  0  0  0
   -5.0706   -3.3274    0.9822 H   0  0  0  0  0  0  0  0  0  0  0  0
   -2.4155   -2.5449    0.9402 H   0  0  0  0  0  0  0  0  0  0  0  0
   -0.0541   -2.8659    1.0353 H   0  0  0  0  0  0  0  0  0  0  0  0
    2.8599   -6.0476   -1.8696 H   0  0  0  0  0  0  0  0  0  0  0  0
    4.5674   -5.7808   -0.0829 H   0  0  0  0  0  0  0  0  0  0  0  0
    6.0661   -4.5205    1.1782 H   0  0  0  0  0  0  0  0  0  0  0  0
    6.9372   -4.0169    3.7304 H   0  0  0  0  0  0  0  0  0  0  0  0
    2.7655   -2.9245    5.6973 H   0  0  0  0  0  0  0  0  0  0  0  0
    0.4016   -3.0701    6.4842 H   0  0  0  0  0  0  0  0  0  0  0  0
   -1.2532   -4.3700    5.1302 H   0  0  0  0  0  0  0  0  0  0  0  0
   -0.4375   -5.5455    3.0795 H   0  0  0  0  0  0  0  0  0  0  0  0
   -0.3669   -4.6082   -2.2273 H   0  0  0  0  0  0  0  0  0  0  0  0
  1  2  1  0  0  0  0
  1 27  1  0  0  0  0
  1 28  1  0  0  0  0
  1 29  1  0  0  0  0
  2  3  1  0  0  0  0
  2 26  2  0  0  0  0
  3  4  2  0  0  0  0
  3 30  1  0  0  0  0
  4  5  1  0  0  0  0
  4  6  1  0  0  0  0
  5 31  1  0  0  0  0
  5 32  1  0  0  0  0
  5 33  1  0  0  0  0
  6  7  2  0  0  0  0
  6 34  1  0  0  0  0
  7  8  1  0  0  0  0
  7 26  1  0  0  0  0
  8  9  1  0  0  0  0
  8 35  1  0  0  0  0
  9 10  1  0  0  0  0
  9 25  2  0  0  0  0
 10 11  2  0  0  0  0
 11 12  1  0  0  0  0
 11 36  1  0  0  0  0
 12 13  2  0  0  0  0
 12 37  1  0  0  0  0
 13 14  1  0  0  0  0
 13 25  1  0  0  0  0
 14 15  1  0  0  0  0
 14 18  1  0  0  0  0
 15 16  2  0  0  0  0
 15 38  1  0  0  0  0
 16 17  1  0  0  0  0
 16 39  1  0  0  0  0
 17 18  2  0  0  0  0
 18 19  1  0  0  0  0
 19 20  1  0  0  0  0
 19 24  2  0  0  0  0
 20 21  2  0  0  0  0
 20 40  1  0  0  0  0
 21 22  1  0  0  0  0
 21 41  1  0  0  0  0
 22 23  2  0  0  0  0
 22 42  1  0  0  0  0
 23 24  1  0  0  0  0
 23 43  1  0  0  0  0
 26 44  1  0  0  0  0
M  END
$$$$
