CHEMBL13629
 OpenBabel04072215363D

 56 58  0  0  0  0  0  0  0  0999 V2000
    4.8435    0.0125   -2.5750 C   0  0  0  0  0  0  0  0  0  0  0  0
    4.4723   -0.8327   -1.3658 C   0  0  0  0  0  0  0  0  0  0  0  0
    4.8836   -0.3221   -0.0407 N   0  0  0  0  0  0  0  0  0  0  0  0
    4.3502    1.0260    0.2582 C   0  0  0  0  0  0  0  0  0  0  0  0
    2.8325    1.1662    0.3567 C   0  0  0  0  0  0  0  0  0  0  0  0
    4.5030   -1.2946    1.0115 C   0  0  0  0  0  0  0  0  0  0  0  0
    5.1142   -2.7055    0.8560 C   0  0  0  0  0  0  0  0  0  0  0  0
    6.5652   -2.7453    0.8990 N   0  0  0  0  0  0  0  0  0  0  0  0
    7.2052   -3.9494    0.7530 C   0  0  0  0  0  0  0  0  0  0  0  0
    6.5936   -5.0088    0.6201 O   0  0  0  0  0  0  0  0  0  0  0  0
    8.6712   -3.8861    0.7278 C   0  0  0  0  0  0  0  0  0  0  0  0
    9.4927   -2.9549    1.3549 C   0  0  0  0  0  0  0  0  0  0  0  0
    9.2294   -1.7896    2.2338 C   0  0  0  0  0  0  0  0  0  0  0  0
   10.7968   -3.3046    1.0863 N   0  0  0  0  0  0  0  0  0  0  0  0
   10.8508   -4.4464    0.3342 C   0  0  0  0  0  0  0  0  0  0  0  0
   12.0835   -5.0343   -0.0563 C   0  0  0  0  0  0  0  0  0  0  0  0
   13.3412   -4.6510    0.1900 C   0  0  0  0  0  0  0  0  0  0  0  0
   13.9158   -3.4841    0.9570 C   0  0  0  0  0  0  0  0  0  0  0  0
   13.3207   -2.6017    1.5470 O   0  0  0  0  0  0  0  0  0  0  0  0
   15.2964   -3.6249    0.8546 N   0  0  0  0  0  0  0  0  0  0  0  0
   15.6374   -4.7492    0.1056 C   0  0  0  0  0  0  0  0  0  0  0  0
   16.9077   -5.1970   -0.2103 C   0  0  0  0  0  0  0  0  0  0  0  0
   17.0040   -6.3556   -0.9856 C   0  0  0  0  0  0  0  0  0  0  0  0
   15.8563   -7.0298   -1.4187 C   0  0  0  0  0  0  0  0  0  0  0  0
   16.0115   -8.5924   -2.4713 Br  0  0  0  0  0  0  0  0  0  0  0  0
   14.5775   -6.5656   -1.0886 C   0  0  0  0  0  0  0  0  0  0  0  0
   14.4896   -5.4144   -0.3220 C   0  0  0  0  0  0  0  0  0  0  0  0
    9.5439   -4.8421    0.0879 C   0  0  0  0  0  0  0  0  0  0  0  0
    9.0885   -6.0325   -0.6932 C   0  0  0  0  0  0  0  0  0  0  0  0
    4.7629   -0.6019   -3.4781 H   0  0  0  0  0  0  0  0  0  0  0  0
    5.8744    0.3728   -2.5144 H   0  0  0  0  0  0  0  0  0  0  0  0
    4.1682    0.8639   -2.6984 H   0  0  0  0  0  0  0  0  0  0  0  0
    4.9670   -1.7884   -1.5389 H   0  0  0  0  0  0  0  0  0  0  0  0
    3.3936   -1.0331   -1.3827 H   0  0  0  0  0  0  0  0  0  0  0  0
    4.6907    1.7224   -0.5184 H   0  0  0  0  0  0  0  0  0  0  0  0
    4.8053    1.3942    1.1843 H   0  0  0  0  0  0  0  0  0  0  0  0
    2.3218    0.6265   -0.4439 H   0  0  0  0  0  0  0  0  0  0  0  0
    2.5552    2.2203    0.2579 H   0  0  0  0  0  0  0  0  0  0  0  0
    2.4487    0.8089    1.3191 H   0  0  0  0  0  0  0  0  0  0  0  0
    3.4061   -1.4250    1.0130 H   0  0  0  0  0  0  0  0  0  0  0  0
    4.7782   -0.9040    1.9944 H   0  0  0  0  0  0  0  0  0  0  0  0
    4.8068   -3.1764   -0.0800 H   0  0  0  0  0  0  0  0  0  0  0  0
    4.7482   -3.3525    1.6563 H   0  0  0  0  0  0  0  0  0  0  0  0
    7.0792   -1.8967    0.7187 H   0  0  0  0  0  0  0  0  0  0  0  0
    8.1649   -1.6336    2.4371 H   0  0  0  0  0  0  0  0  0  0  0  0
    9.6233   -0.8741    1.7824 H   0  0  0  0  0  0  0  0  0  0  0  0
    9.7081   -1.9365    3.2063 H   0  0  0  0  0  0  0  0  0  0  0  0
   11.6024   -2.7965    1.4382 H   0  0  0  0  0  0  0  0  0  0  0  0
   11.9547   -5.9360   -0.6466 H   0  0  0  0  0  0  0  0  0  0  0  0
   15.9437   -2.9763    1.2761 H   0  0  0  0  0  0  0  0  0  0  0  0
   17.7956   -4.6732    0.1243 H   0  0  0  0  0  0  0  0  0  0  0  0
   17.9929   -6.7346   -1.2562 H   0  0  0  0  0  0  0  0  0  0  0  0
   13.6933   -7.0920   -1.4268 H   0  0  0  0  0  0  0  0  0  0  0  0
    9.9235   -6.6311   -1.0666 H   0  0  0  0  0  0  0  0  0  0  0  0
    8.5004   -5.7149   -1.5602 H   0  0  0  0  0  0  0  0  0  0  0  0
    8.4739   -6.6918   -0.0727 H   0  0  0  0  0  0  0  0  0  0  0  0
  1  2  1  0  0  0  0
  1 30  1  0  0  0  0
  1 31  1  0  0  0  0
  1 32  1  0  0  0  0
  2  3  1  0  0  0  0
  2 33  1  0  0  0  0
  2 34  1  0  0  0  0
  3  4  1  0  0  0  0
  3  6  1  0  0  0  0
  4  5  1  0  0  0  0
  4 35  1  0  0  0  0
  4 36  1  0  0  0  0
  5 37  1  0  0  0  0
  5 38  1  0  0  0  0
  5 39  1  0  0  0  0
  6  7  1  0  0  0  0
  6 40  1  0  0  0  0
  6 41  1  0  0  0  0
  7  8  1  0  0  0  0
  7 42  1  0  0  0  0
  7 43  1  0  0  0  0
  8  9  1  0  0  0  0
  8 44  1  0  0  0  0
  9 10  2  0  0  0  0
  9 11  1  0  0  0  0
 11 12  2  0  0  0  0
 11 28  1  0  0  0  0
 12 13  1  0  0  0  0
 12 14  1  0  0  0  0
 13 45  1  0  0  0  0
 13 46  1  0  0  0  0
 13 47  1  0  0  0  0
 14 15  1  0  0  0  0
 14 48  1  0  0  0  0
 15 16  1  0  0  0  0
 15 28  2  0  0  0  0
 16 17  2  0  0  0  0
 16 49  1  0  0  0  0
 17 18  1  0  0  0  0
 17 27  1  0  0  0  0
 18 19  2  0  0  0  0
 18 20  1  0  0  0  0
 20 21  1  0  0  0  0
 20 50  1  0  0  0  0
 21 22  1  0  0  0  0
 21 27  2  0  0  0  0
 22 23  2  0  0  0  0
 22 51  1  0  0  0  0
 23 24  1  0  0  0  0
 23 52  1  0  0  0  0
 24 25  1  0  0  0  0
 24 26  2  0  0  0  0
 26 27  1  0  0  0  0
 26 53  1  0  0  0  0
 28 29  1  0  0  0  0
 29 54  1  0  0  0  0
 29 55  1  0  0  0  0
 29 56  1  0  0  0  0
M  END
$$$$
