CHEMBL3109356
 OpenBabel04072215363D

 57 61  0  0  1  0  0  0  0  0999 V2000
    1.5261    6.2515    1.8412 C   0  0  0  0  0  0  0  0  0  0  0  0
    2.8911    5.8752    1.7452 O   0  0  0  0  0  0  0  0  0  0  0  0
    3.1942    4.7706    2.5965 C   0  0  0  0  0  0  0  0  0  0  0  0
    4.6664    4.4285    2.4307 C   0  0  0  0  0  0  0  0  0  0  0  0
    4.9939    3.3100    3.2516 O   0  0  0  0  0  0  0  0  0  0  0  0
    6.3184    2.9170    3.3062 C   0  0  0  0  0  0  0  0  0  0  0  0
    7.3095    3.5047    2.4116 C   0  0  0  0  0  0  0  0  0  0  0  0
    8.5865    3.0912    2.4816 C   0  0  0  0  0  0  0  0  0  0  0  0
    8.9505    2.1148    3.4072 N   0  0  0  0  0  0  0  0  0  0  0  0
   10.1720    1.5080    3.6514 C   0  0  0  0  0  0  0  0  0  0  0  0
   11.4143    1.7564    2.9340 C   0  0  0  0  0  0  0  0  0  0  0  0
   12.3334    0.7377    2.7512 C   0  0  0  0  0  0  0  0  0  0  0  0
   13.5085    1.0302    2.0812 C   0  0  0  0  0  0  0  0  0  0  0  0
   13.7346    2.3263    1.6087 C   0  0  0  0  0  0  0  0  0  0  0  0
   14.9320    2.6089    0.9434 C   0  0  0  0  0  0  0  0  0  0  0  0
   15.1721    3.8842    0.4524 C   0  0  0  0  0  0  0  0  0  0  0  0
   14.2100    4.8805    0.6104 C   0  0  0  0  0  0  0  0  0  0  0  0
   13.0108    4.6194    1.2951 C   0  0  0  0  0  0  0  0  0  0  0  0
   12.0155    5.5794    1.4263 O   0  0  0  0  0  0  0  0  0  0  0  0
   12.4276    6.9538    1.5905 C   0  0  2  0  0  0  0  0  0  0  0  0
   11.7371    7.5348    2.8320 C   0  0  0  0  0  0  0  0  0  0  0  0
   10.2346    7.7601    2.6384 C   0  0  0  0  0  0  0  0  0  0  0  0
    9.8960    8.5563    1.4577 N   0  0  0  0  0  0  0  0  0  0  0  0
   10.5512    8.0524    0.2446 C   0  0  0  0  0  0  0  0  0  0  0  0
   12.0607    7.8389    0.3899 C   0  0  2  0  0  0  0  0  0  0  0  0
   12.5639    7.3143   -0.7592 F   0  0  0  0  0  0  0  0  0  0  0  0
   12.7472    3.3254    1.8095 C   0  0  0  0  0  0  0  0  0  0  0  0
   11.6072    3.0195    2.4805 N   0  0  0  0  0  0  0  0  0  0  0  0
    9.9018    0.6073    4.6724 C   0  0  0  0  0  0  0  0  0  0  0  0
    8.5877    0.6215    5.0465 N   0  0  0  0  0  0  0  0  0  0  0  0
    8.0300    1.5270    4.2737 C   0  0  0  0  0  0  0  0  0  0  0  0
    6.6781    1.9669    4.1925 C   0  0  0  0  0  0  0  0  0  0  0  0
    1.3568    7.0973    1.1698 H   0  0  0  0  0  0  0  0  0  0  0  0
    1.2871    6.5604    2.8629 H   0  0  0  0  0  0  0  0  0  0  0  0
    0.8803    5.4240    1.5333 H   0  0  0  0  0  0  0  0  0  0  0  0
    2.5755    3.9054    2.3303 H   0  0  0  0  0  0  0  0  0  0  0  0
    2.9849    5.0283    3.6414 H   0  0  0  0  0  0  0  0  0  0  0  0
    5.2661    5.3040    2.7108 H   0  0  0  0  0  0  0  0  0  0  0  0
    4.8549    4.1918    1.3760 H   0  0  0  0  0  0  0  0  0  0  0  0
    7.0561    4.2659    1.6873 H   0  0  0  0  0  0  0  0  0  0  0  0
    9.3539    3.4979    1.8377 H   0  0  0  0  0  0  0  0  0  0  0  0
   12.1476   -0.2692    3.1093 H   0  0  0  0  0  0  0  0  0  0  0  0
   14.2396    0.2393    1.9301 H   0  0  0  0  0  0  0  0  0  0  0  0
   15.6815    1.8329    0.7970 H   0  0  0  0  0  0  0  0  0  0  0  0
   16.1024    4.0947   -0.0693 H   0  0  0  0  0  0  0  0  0  0  0  0
   14.4090    5.8504    0.1653 H   0  0  0  0  0  0  0  0  0  0  0  0
   13.5072    7.0179    1.7667 H   0  0  0  0  0  0  0  0  0  0  0  0
   12.2091    8.4942    3.0816 H   0  0  0  0  0  0  0  0  0  0  0  0
   11.8845    6.8650    3.6867 H   0  0  0  0  0  0  0  0  0  0  0  0
    9.8479    8.2879    3.5190 H   0  0  0  0  0  0  0  0  0  0  0  0
    9.7066    6.8013    2.5985 H   0  0  0  0  0  0  0  0  0  0  0  0
   10.1284    9.5370    1.6101 H   0  0  0  0  0  0  0  0  0  0  0  0
   10.3787    8.7805   -0.5588 H   0  0  0  0  0  0  0  0  0  0  0  0
   10.0647    7.1304   -0.0918 H   0  0  0  0  0  0  0  0  0  0  0  0
   12.5356    8.8199    0.5209 H   0  0  0  0  0  0  0  0  0  0  0  0
   10.6004   -0.0653    5.1544 H   0  0  0  0  0  0  0  0  0  0  0  0
    5.9494    1.5102    4.8510 H   0  0  0  0  0  0  0  0  0  0  0  0
  1  2  1  0  0  0  0
  1 33  1  0  0  0  0
  1 34  1  0  0  0  0
  1 35  1  0  0  0  0
  2  3  1  0  0  0  0
  3  4  1  0  0  0  0
  3 36  1  0  0  0  0
  3 37  1  0  0  0  0
  4  5  1  0  0  0  0
  4 38  1  0  0  0  0
  4 39  1  0  0  0  0
  5  6  1  0  0  0  0
  6  7  1  0  0  0  0
  6 32  2  0  0  0  0
  7  8  2  0  0  0  0
  7 40  1  0  0  0  0
  8  9  1  0  0  0  0
  8 41  1  0  0  0  0
  9 10  1  0  0  0  0
  9 31  1  0  0  0  0
 10 11  1  0  0  0  0
 10 29  2  0  0  0  0
 11 12  1  0  0  0  0
 11 28  2  0  0  0  0
 12 13  2  0  0  0  0
 12 42  1  0  0  0  0
 13 14  1  0  0  0  0
 13 43  1  0  0  0  0
 14 15  1  0  0  0  0
 14 27  2  0  0  0  0
 15 16  2  0  0  0  0
 15 44  1  0  0  0  0
 16 17  1  0  0  0  0
 16 45  1  0  0  0  0
 17 18  2  0  0  0  0
 17 46  1  0  0  0  0
 18 19  1  0  0  0  0
 18 27  1  0  0  0  0
 19 20  1  0  0  0  0
 20 21  1  0  0  0  0
 20 25  1  0  0  0  0
 20 47  1  1  0  0  0
 21 22  1  0  0  0  0
 21 48  1  0  0  0  0
 21 49  1  0  0  0  0
 22 23  1  0  0  0  0
 22 50  1  0  0  0  0
 22 51  1  0  0  0  0
 23 24  1  0  0  0  0
 23 52  1  0  0  0  0
 24 25  1  0  0  0  0
 24 53  1  0  0  0  0
 24 54  1  0  0  0  0
 25 26  1  0  0  0  0
 25 55  1  1  0  0  0
 27 28  1  0  0  0  0
 29 30  1  0  0  0  0
 29 56  1  0  0  0  0
 30 31  2  0  0  0  0
 31 32  1  0  0  0  0
 32 57  1  0  0  0  0
M  END
$$$$
