CHEMBL4059568
 OpenBabel04072215383D

 72 77  0  0  0  0  0  0  0  0999 V2000
    0.9837   -1.1363   -0.1010 C   0  0  0  0  0  0  0  0  0  0  0  0
    2.4125   -1.1164   -0.0161 O   0  0  0  0  0  0  0  0  0  0  0  0
    3.0102   -1.1807   -1.2299 C   0  0  0  0  0  0  0  0  0  0  0  0
    2.4323   -1.2977   -2.3011 O   0  0  0  0  0  0  0  0  0  0  0  0
    4.4859   -1.0202   -1.1307 C   0  0  0  0  0  0  0  0  0  0  0  0
    5.2127   -1.0828    0.0765 C   0  0  0  0  0  0  0  0  0  0  0  0
    6.6195   -0.9125    0.0926 C   0  0  0  0  0  0  0  0  0  0  0  0
    7.2906   -0.6682   -1.0968 C   0  0  0  0  0  0  0  0  0  0  0  0
    6.5285   -0.5870   -2.2664 C   0  0  0  0  0  0  0  0  0  0  0  0
    5.1628   -0.7763   -2.3251 C   0  0  0  0  0  0  0  0  0  0  0  0
    7.3148   -0.2860   -3.3569 N   0  0  0  0  0  0  0  0  0  0  0  0
    8.6461   -0.1947   -3.0186 C   0  0  0  0  0  0  0  0  0  0  0  0
    9.5247   -0.0784   -3.8476 O   0  0  0  0  0  0  0  0  0  0  0  0
    8.7072   -0.3948   -1.5063 C   0  0  0  0  0  0  0  0  0  0  0  0
    9.8670   -0.3938   -0.7993 C   0  0  0  0  0  0  0  0  0  0  0  0
   11.1592   -0.0247   -1.1722 N   0  0  0  0  0  0  0  0  0  0  0  0
   11.5781    0.8975   -2.1547 C   0  0  0  0  0  0  0  0  0  0  0  0
   10.8773    2.0766   -2.4239 C   0  0  0  0  0  0  0  0  0  0  0  0
   11.0783    2.7956   -3.6185 C   0  0  0  0  0  0  0  0  0  0  0  0
   11.9712    2.3382   -4.5814 C   0  0  0  0  0  0  0  0  0  0  0  0
   12.0093    2.8439   -5.9367 N   0  0  0  0  0  0  0  0  0  0  0  0
   13.1193    2.6851   -6.7647 C   0  0  0  0  0  0  0  0  0  0  0  0
   12.8501    3.1407   -8.0294 C   0  0  0  0  0  0  0  0  0  0  0  0
   11.5395    3.6284   -8.0062 C   0  0  0  0  0  0  0  0  0  0  0  0
   11.0256    3.4860   -6.7204 C   0  0  0  0  0  0  0  0  0  0  0  0
    9.6702    3.9849   -6.3071 C   0  0  0  0  0  0  0  0  0  0  0  0
    8.5619    3.6077   -7.2359 N   0  0  0  0  0  0  0  0  0  0  0  0
    8.1888    2.1972   -7.0111 C   0  0  0  0  0  0  0  0  0  0  0  0
    6.8092    1.7667   -7.5345 C   0  0  0  0  0  0  0  0  0  0  0  0
    5.7190    2.7761   -7.2081 C   0  0  0  0  0  0  0  0  0  0  0  0
    6.1465    4.1358   -7.7264 C   0  0  0  0  0  0  0  0  0  0  0  0
    7.4426    4.5492   -7.0416 C   0  0  0  0  0  0  0  0  0  0  0  0
   12.8265    1.2779   -4.2123 C   0  0  0  0  0  0  0  0  0  0  0  0
   12.6318    0.5696   -3.0124 C   0  0  0  0  0  0  0  0  0  0  0  0
    9.8451   -0.9572    0.5787 C   0  0  0  0  0  0  0  0  0  0  0  0
    9.9981   -2.3410    0.7846 C   0  0  0  0  0  0  0  0  0  0  0  0
    9.9704   -2.8717    2.0772 C   0  0  0  0  0  0  0  0  0  0  0  0
    9.8030   -2.0269    3.1753 C   0  0  0  0  0  0  0  0  0  0  0  0
    9.6694   -0.6549    2.9792 C   0  0  0  0  0  0  0  0  0  0  0  0
    9.7000   -0.1178    1.6876 C   0  0  0  0  0  0  0  0  0  0  0  0
    0.5782   -1.0484    0.9101 H   0  0  0  0  0  0  0  0  0  0  0  0
    0.6334   -2.0785   -0.5364 H   0  0  0  0  0  0  0  0  0  0  0  0
    0.6230   -0.2857   -0.6905 H   0  0  0  0  0  0  0  0  0  0  0  0
    4.6932   -1.2649    1.0159 H   0  0  0  0  0  0  0  0  0  0  0  0
    7.1335   -0.9655    1.0474 H   0  0  0  0  0  0  0  0  0  0  0  0
    4.6345   -0.7226   -3.2720 H   0  0  0  0  0  0  0  0  0  0  0  0
    7.0037   -0.2109   -4.3132 H   0  0  0  0  0  0  0  0  0  0  0  0
   11.8942   -0.6260   -0.8105 H   0  0  0  0  0  0  0  0  0  0  0  0
   10.1144    2.4146   -1.7291 H   0  0  0  0  0  0  0  0  0  0  0  0
   10.5049    3.7033   -3.7481 H   0  0  0  0  0  0  0  0  0  0  0  0
   14.0420    2.2725   -6.3855 H   0  0  0  0  0  0  0  0  0  0  0  0
   13.5335    3.1337   -8.8686 H   0  0  0  0  0  0  0  0  0  0  0  0
   10.9983    4.0695   -8.8351 H   0  0  0  0  0  0  0  0  0  0  0  0
    9.7632    5.0811   -6.3091 H   0  0  0  0  0  0  0  0  0  0  0  0
    9.3730    3.7080   -5.3008 H   0  0  0  0  0  0  0  0  0  0  0  0
    8.2184    1.9553   -5.9417 H   0  0  0  0  0  0  0  0  0  0  0  0
    8.9358    1.5612   -7.5029 H   0  0  0  0  0  0  0  0  0  0  0  0
    6.5447    0.7969   -7.0946 H   0  0  0  0  0  0  0  0  0  0  0  0
    6.8492    1.6211   -8.6209 H   0  0  0  0  0  0  0  0  0  0  0  0
    5.5572    2.8210   -6.1230 H   0  0  0  0  0  0  0  0  0  0  0  0
    4.7677    2.4723   -7.6614 H   0  0  0  0  0  0  0  0  0  0  0  0
    5.3618    4.8775   -7.5254 H   0  0  0  0  0  0  0  0  0  0  0  0
    6.2819    4.0998   -8.8137 H   0  0  0  0  0  0  0  0  0  0  0  0
    7.2391    4.6860   -5.9705 H   0  0  0  0  0  0  0  0  0  0  0  0
    7.7358    5.5319   -7.4380 H   0  0  0  0  0  0  0  0  0  0  0  0
   13.5929    0.8935   -4.8792 H   0  0  0  0  0  0  0  0  0  0  0  0
   13.2478   -0.3048   -2.8198 H   0  0  0  0  0  0  0  0  0  0  0  0
   10.1368   -3.0048   -0.0629 H   0  0  0  0  0  0  0  0  0  0  0  0
   10.0992   -3.9432    2.2311 H   0  0  0  0  0  0  0  0  0  0  0  0
    9.7833   -2.4409    4.1850 H   0  0  0  0  0  0  0  0  0  0  0  0
    9.5381    0.0028    3.8362 H   0  0  0  0  0  0  0  0  0  0  0  0
    9.6004    0.9566    1.5507 H   0  0  0  0  0  0  0  0  0  0  0  0
  1  2  1  0  0  0  0
  1 41  1  0  0  0  0
  1 42  1  0  0  0  0
  1 43  1  0  0  0  0
  2  3  1  0  0  0  0
  3  4  2  0  0  0  0
  3  5  1  0  0  0  0
  5  6  1  0  0  0  0
  5 10  2  0  0  0  0
  6  7  2  0  0  0  0
  6 44  1  0  0  0  0
  7  8  1  0  0  0  0
  7 45  1  0  0  0  0
  8  9  2  0  0  0  0
  8 14  1  0  0  0  0
  9 10  1  0  0  0  0
  9 11  1  0  0  0  0
 10 46  1  0  0  0  0
 11 12  1  0  0  0  0
 11 47  1  0  0  0  0
 12 13  2  0  0  0  0
 12 14  1  0  0  0  0
 14 15  2  0  0  0  0
 15 16  1  0  0  0  0
 15 35  1  0  0  0  0
 16 17  1  0  0  0  0
 16 48  1  0  0  0  0
 17 18  1  0  0  0  0
 17 34  2  0  0  0  0
 18 19  2  0  0  0  0
 18 49  1  0  0  0  0
 19 20  1  0  0  0  0
 19 50  1  0  0  0  0
 20 21  1  0  0  0  0
 20 33  2  0  0  0  0
 21 22  1  0  0  0  0
 21 25  1  0  0  0  0
 22 23  2  0  0  0  0
 22 51  1  0  0  0  0
 23 24  1  0  0  0  0
 23 52  1  0  0  0  0
 24 25  2  0  0  0  0
 24 53  1  0  0  0  0
 25 26  1  0  0  0  0
 26 27  1  0  0  0  0
 26 54  1  0  0  0  0
 26 55  1  0  0  0  0
 27 28  1  0  0  0  0
 27 32  1  0  0  0  0
 28 29  1  0  0  0  0
 28 56  1  0  0  0  0
 28 57  1  0  0  0  0
 29 30  1  0  0  0  0
 29 58  1  0  0  0  0
 29 59  1  0  0  0  0
 30 31  1  0  0  0  0
 30 60  1  0  0  0  0
 30 61  1  0  0  0  0
 31 32  1  0  0  0  0
 31 62  1  0  0  0  0
 31 63  1  0  0  0  0
 32 64  1  0  0  0  0
 32 65  1  0  0  0  0
 33 34  1  0  0  0  0
 33 66  1  0  0  0  0
 34 67  1  0  0  0  0
 35 36  1  0  0  0  0
 35 40  2  0  0  0  0
 36 37  2  0  0  0  0
 36 68  1  0  0  0  0
 37 38  1  0  0  0  0
 37 69  1  0  0  0  0
 38 39  2  0  0  0  0
 38 70  1  0  0  0  0
 39 40  1  0  0  0  0
 39 71  1  0  0  0  0
 40 72  1  0  0  0  0
M  END
$$$$
