CHEMBL3690583
 OpenBabel04072215373D

 50 53  0  0  0  0  0  0  0  0999 V2000
    2.6290    0.0066   -1.0026 C   0  0  0  0  0  0  0  0  0  0  0  0
    3.5917   -1.1652   -0.9112 C   0  0  0  0  0  0  0  0  0  0  0  0
    4.0697   -1.3846    0.4431 N   0  0  0  0  0  0  0  0  0  0  0  0
    5.1581   -0.6745    0.9041 C   0  0  0  0  0  0  0  0  0  0  0  0
    5.7414    0.1336    0.1921 O   0  0  0  0  0  0  0  0  0  0  0  0
    5.4989   -1.0287    2.1965 N   0  0  0  0  0  0  0  0  0  0  0  0
    6.5725   -0.4712    2.9336 C   0  0  0  0  0  0  0  0  0  0  0  0
    7.1826    0.7280    2.5605 C   0  0  0  0  0  0  0  0  0  0  0  0
    8.3144    1.1848    3.2234 C   0  0  0  0  0  0  0  0  0  0  0  0
    8.8266    0.4640    4.2942 C   0  0  0  0  0  0  0  0  0  0  0  0
    8.1640   -0.6690    4.7845 C   0  0  0  0  0  0  0  0  0  0  0  0
    8.6301   -1.3459    6.0039 C   0  0  0  0  0  0  0  0  0  0  0  0
    8.6382   -2.6951    6.3267 C   0  0  0  0  0  0  0  0  0  0  0  0
    9.1379   -2.9284    7.5809 N   0  0  0  0  0  0  0  0  0  0  0  0
    9.4379   -1.7414    8.0599 C   0  0  0  0  0  0  0  0  0  0  0  0
    9.9589   -1.3603    9.3341 C   0  0  0  0  0  0  0  0  0  0  0  0
   10.1815   -0.0580    9.6429 C   0  0  0  0  0  0  0  0  0  0  0  0
   10.6301    0.3218   11.0102 C   0  0  0  0  0  0  0  0  0  0  0  0
   10.8374    1.6306   11.2397 N   0  0  0  0  0  0  0  0  0  0  0  0
   11.0897    1.9828   12.5116 C   0  0  0  0  0  0  0  0  0  0  0  0
   11.1480    1.0871   13.5550 C   0  0  0  0  0  0  0  0  0  0  0  0
   11.3803    1.5446   14.9457 C   0  0  0  0  0  0  0  0  0  0  0  0
   11.5799    2.8918   15.0395 F   0  0  0  0  0  0  0  0  0  0  0  0
   10.3483    1.2747   15.7902 F   0  0  0  0  0  0  0  0  0  0  0  0
   12.4864    0.9770   15.5057 F   0  0  0  0  0  0  0  0  0  0  0  0
   10.9657   -0.2338   13.2145 C   0  0  0  0  0  0  0  0  0  0  0  0
   10.9552   -1.2536   14.1578 N   0  0  0  0  0  0  0  0  0  0  0  0
   10.7029   -0.6284   11.9587 N   0  0  0  0  0  0  0  0  0  0  0  0
    9.8906    0.9636    8.6268 C   0  0  0  0  0  0  0  0  0  0  0  0
    9.3604    0.6156    7.4460 C   0  0  0  0  0  0  0  0  0  0  0  0
    9.1447   -0.7306    7.1461 N   0  0  0  0  0  0  0  0  0  0  0  0
    7.0443   -1.1439    4.0723 C   0  0  0  0  0  0  0  0  0  0  0  0
    2.3082    0.1530   -2.0391 H   0  0  0  0  0  0  0  0  0  0  0  0
    3.0923    0.9361   -0.6559 H   0  0  0  0  0  0  0  0  0  0  0  0
    1.7390   -0.1721   -0.3909 H   0  0  0  0  0  0  0  0  0  0  0  0
    4.4481   -0.9864   -1.5717 H   0  0  0  0  0  0  0  0  0  0  0  0
    3.1013   -2.0860   -1.2395 H   0  0  0  0  0  0  0  0  0  0  0  0
    3.4094   -1.7210    1.1268 H   0  0  0  0  0  0  0  0  0  0  0  0
    5.1217   -1.9049    2.5257 H   0  0  0  0  0  0  0  0  0  0  0  0
    6.8072    1.3279    1.7382 H   0  0  0  0  0  0  0  0  0  0  0  0
    8.7996    2.0992    2.8930 H   0  0  0  0  0  0  0  0  0  0  0  0
    9.7528    0.8122    4.7411 H   0  0  0  0  0  0  0  0  0  0  0  0
    8.3095   -3.5205    5.7072 H   0  0  0  0  0  0  0  0  0  0  0  0
   10.1315   -2.1583   10.0494 H   0  0  0  0  0  0  0  0  0  0  0  0
   11.2301    3.0509   12.6655 H   0  0  0  0  0  0  0  0  0  0  0  0
   11.7622   -1.2701   14.7730 H   0  0  0  0  0  0  0  0  0  0  0  0
   10.8392   -2.1394   13.6678 H   0  0  0  0  0  0  0  0  0  0  0  0
   10.0807    2.0070    8.8632 H   0  0  0  0  0  0  0  0  0  0  0  0
    9.0909    1.3652    6.7179 H   0  0  0  0  0  0  0  0  0  0  0  0
    6.5461   -2.0513    4.4051 H   0  0  0  0  0  0  0  0  0  0  0  0
  1  2  1  0  0  0  0
  1 33  1  0  0  0  0
  1 34  1  0  0  0  0
  1 35  1  0  0  0  0
  2  3  1  0  0  0  0
  2 36  1  0  0  0  0
  2 37  1  0  0  0  0
  3  4  1  0  0  0  0
  3 38  1  0  0  0  0
  4  5  2  0  0  0  0
  4  6  1  0  0  0  0
  6  7  1  0  0  0  0
  6 39  1  0  0  0  0
  7  8  1  0  0  0  0
  7 32  2  0  0  0  0
  8  9  2  0  0  0  0
  8 40  1  0  0  0  0
  9 10  1  0  0  0  0
  9 41  1  0  0  0  0
 10 11  2  0  0  0  0
 10 42  1  0  0  0  0
 11 12  1  0  0  0  0
 11 32  1  0  0  0  0
 12 13  2  0  0  0  0
 12 31  1  0  0  0  0
 13 14  1  0  0  0  0
 13 43  1  0  0  0  0
 14 15  2  0  0  0  0
 15 16  1  0  0  0  0
 15 31  1  0  0  0  0
 16 17  2  0  0  0  0
 16 44  1  0  0  0  0
 17 18  1  0  0  0  0
 17 29  1  0  0  0  0
 18 19  1  0  0  0  0
 18 28  2  0  0  0  0
 19 20  2  0  0  0  0
 20 21  1  0  0  0  0
 20 45  1  0  0  0  0
 21 22  1  0  0  0  0
 21 26  2  0  0  0  0
 22 23  1  0  0  0  0
 22 24  1  0  0  0  0
 22 25  1  0  0  0  0
 26 27  1  0  0  0  0
 26 28  1  0  0  0  0
 27 46  1  0  0  0  0
 27 47  1  0  0  0  0
 29 30  2  0  0  0  0
 29 48  1  0  0  0  0
 30 31  1  0  0  0  0
 30 49  1  0  0  0  0
 32 50  1  0  0  0  0
M  END
$$$$
