CHEMBL2032031
 OpenBabel04072215363D

 69 73  0  0  1  0  0  0  0  0999 V2000
    3.9523   -1.2904    0.0338 C   0  0  0  0  0  0  0  0  0  0  0  0
    5.2665   -0.9608    0.4746 O   0  0  0  0  0  0  0  0  0  0  0  0
    5.3646    0.0946    1.3401 C   0  0  0  0  0  0  0  0  0  0  0  0
    4.3064    0.8879    1.7566 C   0  0  0  0  0  0  0  0  0  0  0  0
    4.5368    1.9296    2.6496 C   0  0  0  0  0  0  0  0  0  0  0  0
    5.8104    2.1451    3.2193 C   0  0  0  0  0  0  0  0  0  0  0  0
    6.0753    3.0636    4.2675 C   0  0  0  0  0  0  0  0  0  0  0  0
    5.1120    3.8296    4.9089 O   0  0  0  0  0  0  0  0  0  0  0  0
    3.9856    3.2225    5.4362 C   0  0  0  0  0  0  0  0  0  0  0  0
    3.8691    1.8604    5.6846 C   0  0  0  0  0  0  0  0  0  0  0  0
    2.6323    1.3143    6.0460 C   0  0  0  0  0  0  0  0  0  0  0  0
    1.5026    2.1191    6.2496 C   0  0  0  0  0  0  0  0  0  0  0  0
    0.2336    1.5868    6.6236 N   0  0  0  0  0  0  0  0  0  0  0  0
   -0.0772    0.2377    6.6654 C   0  0  0  0  0  0  0  0  0  0  0  0
    0.6472   -0.6493    6.2207 O   0  0  0  0  0  0  0  0  0  0  0  0
   -1.3694   -0.1259    7.2845 C   0  0  0  0  0  0  0  0  0  0  0  0
   -1.7135   -1.3268    7.8053 C   0  0  0  0  0  0  0  0  0  0  0  0
   -0.8175   -2.5272    7.8300 C   0  0  0  0  0  0  0  0  0  0  0  0
   -2.9949   -1.3114    8.3791 N   0  0  0  0  0  0  0  0  0  0  0  0
   -3.9493   -2.4133    8.6843 C   0  0  0  0  0  0  0  0  0  0  0  0
   -3.5686   -3.8538    8.2716 C   0  0  3  0  0  0  0  0  0  0  0  0
   -2.4602   -4.3787    9.0267 O   0  0  0  0  0  0  0  0  0  0  0  0
   -4.7116   -4.8604    8.5140 C   0  0  0  0  0  0  0  0  0  0  0  0
   -4.9620   -5.0476    9.9518 N   0  0  0  0  0  0  0  0  0  0  0  0
   -3.5517   -0.0414    8.0482 N   0  0  0  0  0  0  0  0  0  0  0  0
   -4.6985    0.5076    8.6618 C   0  0  0  0  0  0  0  0  0  0  0  0
   -5.5884    1.2501    7.8733 C   0  0  0  0  0  0  0  0  0  0  0  0
   -6.7603    1.7759    8.4233 C   0  0  0  0  0  0  0  0  0  0  0  0
   -7.0320    1.6002    9.7782 C   0  0  0  0  0  0  0  0  0  0  0  0
   -6.1399    0.8866   10.5778 C   0  0  0  0  0  0  0  0  0  0  0  0
   -4.9842    0.3272   10.0191 C   0  0  0  0  0  0  0  0  0  0  0  0
   -2.5490    0.7484    7.4652 C   0  0  0  0  0  0  0  0  0  0  0  0
   -2.5501    1.9373    7.1797 O   0  0  0  0  0  0  0  0  0  0  0  0
    1.6449    3.4961    6.1052 C   0  0  0  0  0  0  0  0  0  0  0  0
    2.8768    4.0312    5.6892 C   0  0  0  0  0  0  0  0  0  0  0  0
    2.9642    5.3619    5.5061 F   0  0  0  0  0  0  0  0  0  0  0  0
    7.3810    3.2673    4.7011 C   0  0  0  0  0  0  0  0  0  0  0  0
    8.3779    2.5073    4.1258 C   0  0  0  0  0  0  0  0  0  0  0  0
    8.1550    1.5638    3.1864 N   0  0  0  0  0  0  0  0  0  0  0  0
    6.8962    1.3763    2.7496 C   0  0  0  0  0  0  0  0  0  0  0  0
    6.6499    0.3720    1.8174 C   0  0  0  0  0  0  0  0  0  0  0  0
    4.0271   -2.1292   -0.6637 H   0  0  0  0  0  0  0  0  0  0  0  0
    3.4957   -0.4531   -0.5059 H   0  0  0  0  0  0  0  0  0  0  0  0
    3.3241   -1.6069    0.8741 H   0  0  0  0  0  0  0  0  0  0  0  0
    3.2872    0.7238    1.4248 H   0  0  0  0  0  0  0  0  0  0  0  0
    3.6883    2.5463    2.9328 H   0  0  0  0  0  0  0  0  0  0  0  0
    4.7012    1.1755    5.5419 H   0  0  0  0  0  0  0  0  0  0  0  0
    2.6048    0.2346    6.1476 H   0  0  0  0  0  0  0  0  0  0  0  0
   -0.5094    2.2491    6.8498 H   0  0  0  0  0  0  0  0  0  0  0  0
    0.2028   -2.3531    7.4924 H   0  0  0  0  0  0  0  0  0  0  0  0
   -1.2053   -3.3068    7.1693 H   0  0  0  0  0  0  0  0  0  0  0  0
   -0.6993   -2.8935    8.8517 H   0  0  0  0  0  0  0  0  0  0  0  0
   -4.9134   -2.1866    8.2111 H   0  0  0  0  0  0  0  0  0  0  0  0
   -4.1045   -2.3968    9.7692 H   0  0  0  0  0  0  0  0  0  0  0  0
   -3.3125   -3.8825    7.2070 H   0  0  0  0  0  0  0  0  0  0  0  0
   -2.4447   -3.9065    9.8770 H   0  0  0  0  0  0  0  0  0  0  0  0
   -4.4081   -5.8341    8.1086 H   0  0  0  0  0  0  0  0  0  0  0  0
   -5.6306   -4.5557    8.0050 H   0  0  0  0  0  0  0  0  0  0  0  0
   -4.0721   -5.3347   10.3740 H   0  0  0  0  0  0  0  0  0  0  0  0
   -5.5739   -5.8531   10.0748 H   0  0  0  0  0  0  0  0  0  0  0  0
   -5.3939    1.3915    6.8125 H   0  0  0  0  0  0  0  0  0  0  0  0
   -7.4591    2.3215    7.7936 H   0  0  0  0  0  0  0  0  0  0  0  0
   -7.9351    2.0244   10.2112 H   0  0  0  0  0  0  0  0  0  0  0  0
   -6.3414    0.7722   11.6405 H   0  0  0  0  0  0  0  0  0  0  0  0
   -4.2893   -0.2015   10.6648 H   0  0  0  0  0  0  0  0  0  0  0  0
    0.8192    4.1761    6.2690 H   0  0  0  0  0  0  0  0  0  0  0  0
    7.6124    3.9916    5.4729 H   0  0  0  0  0  0  0  0  0  0  0  0
    9.4173    2.6267    4.4208 H   0  0  0  0  0  0  0  0  0  0  0  0
    7.4851   -0.2334    1.4706 H   0  0  0  0  0  0  0  0  0  0  0  0
  1  2  1  0  0  0  0
  1 42  1  0  0  0  0
  1 43  1  0  0  0  0
  1 44  1  0  0  0  0
  2  3  1  0  0  0  0
  3  4  1  0  0  0  0
  3 41  2  0  0  0  0
  4  5  2  0  0  0  0
  4 45  1  0  0  0  0
  5  6  1  0  0  0  0
  5 46  1  0  0  0  0
  6  7  1  0  0  0  0
  6 40  2  0  0  0  0
  7  8  1  0  0  0  0
  7 37  2  0  0  0  0
  8  9  1  0  0  0  0
  9 10  1  0  0  0  0
  9 35  2  0  0  0  0
 10 11  2  0  0  0  0
 10 47  1  0  0  0  0
 11 12  1  0  0  0  0
 11 48  1  0  0  0  0
 12 13  1  0  0  0  0
 12 34  2  0  0  0  0
 13 14  1  0  0  0  0
 13 49  1  0  0  0  0
 14 15  2  0  0  0  0
 14 16  1  0  0  0  0
 16 17  2  0  0  0  0
 16 32  1  0  0  0  0
 17 18  1  0  0  0  0
 17 19  1  0  0  0  0
 18 50  1  0  0  0  0
 18 51  1  0  0  0  0
 18 52  1  0  0  0  0
 19 20  1  0  0  0  0
 19 25  1  0  0  0  0
 20 21  1  0  0  0  0
 20 53  1  0  0  0  0
 20 54  1  0  0  0  0
 21 22  1  0  0  0  0
 21 23  1  0  0  0  0
 21 55  1  0  0  0  0
 22 56  1  0  0  0  0
 23 24  1  0  0  0  0
 23 57  1  0  0  0  0
 23 58  1  0  0  0  0
 24 59  1  0  0  0  0
 24 60  1  0  0  0  0
 25 26  1  0  0  0  0
 25 32  1  0  0  0  0
 26 27  1  0  0  0  0
 26 31  2  0  0  0  0
 27 28  2  0  0  0  0
 27 61  1  0  0  0  0
 28 29  1  0  0  0  0
 28 62  1  0  0  0  0
 29 30  2  0  0  0  0
 29 63  1  0  0  0  0
 30 31  1  0  0  0  0
 30 64  1  0  0  0  0
 31 65  1  0  0  0  0
 32 33  2  0  0  0  0
 34 35  1  0  0  0  0
 34 66  1  0  0  0  0
 35 36  1  0  0  0  0
 37 38  1  0  0  0  0
 37 67  1  0  0  0  0
 38 39  2  0  0  0  0
 38 68  1  0  0  0  0
 39 40  1  0  0  0  0
 40 41  1  0  0  0  0
 41 69  1  0  0  0  0
M  END
$$$$
