CHEMBL1945801
 OpenBabel04072215363D

 57 60  0  0  0  0  0  0  0  0999 V2000
    0.8996   -0.5309   -0.5212 C   0  0  0  0  0  0  0  0  0  0  0  0
    2.3589   -0.4408   -0.4971 N   0  0  0  0  0  0  0  0  0  0  0  0
    2.7518    0.9591   -0.3731 C   0  0  0  0  0  0  0  0  0  0  0  0
    2.9129   -1.2808    0.5806 C   0  0  0  0  0  0  0  0  0  0  0  0
    4.4430   -1.2151    0.6448 C   0  0  0  0  0  0  0  0  0  0  0  0
    5.0460   -2.1835    1.6741 C   0  0  0  0  0  0  0  0  0  0  0  0
    6.5658   -2.1596    1.7738 C   0  0  0  0  0  0  0  0  0  0  0  0
    7.2689   -1.0107    1.3400 C   0  0  0  0  0  0  0  0  0  0  0  0
    8.6586   -0.9054    1.3587 C   0  0  0  0  0  0  0  0  0  0  0  0
    9.3514    0.1371    0.7423 N   0  0  0  0  0  0  0  0  0  0  0  0
    8.9851    1.2810    0.0276 C   0  0  0  0  0  0  0  0  0  0  0  0
   10.0439    2.0465   -0.2918 N   0  0  0  0  0  0  0  0  0  0  0  0
    9.8013    3.3062   -0.6691 C   0  0  0  0  0  0  0  0  0  0  0  0
    8.5372    3.8181   -0.7214 C   0  0  0  0  0  0  0  0  0  0  0  0
    7.4969    2.9242   -0.5876 C   0  0  0  0  0  0  0  0  0  0  0  0
    7.7113    1.6441   -0.2081 N   0  0  0  0  0  0  0  0  0  0  0  0
    6.1090    3.4240   -0.6549 C   0  0  0  0  0  0  0  0  0  0  0  0
    5.2753    3.1201   -1.7419 C   0  0  0  0  0  0  0  0  0  0  0  0
    3.9920    3.6765   -1.8334 C   0  0  0  0  0  0  0  0  0  0  0  0
    3.4910    4.4492   -0.7865 C   0  0  0  0  0  0  0  0  0  0  0  0
    1.8960    5.0881   -0.8782 Cl  0  0  0  0  0  0  0  0  0  0  0  0
    4.2909    4.7577    0.3073 C   0  0  0  0  0  0  0  0  0  0  0  0
    5.6254    4.3440    0.3059 C   0  0  0  0  0  0  0  0  0  0  0  0
    6.4907    5.0074    1.2032 N   0  0  0  0  0  0  0  0  0  0  0  0
    7.7340    5.4975    0.8616 C   0  0  0  0  0  0  0  0  0  0  0  0
    8.6354    6.3197    2.0062 S   0  0  0  0  0  0  0  0  0  0  0  0
    8.2547    5.2888   -0.5700 C   0  0  0  0  0  0  0  0  0  0  0  0
    9.3718   -1.9528    1.9418 C   0  0  0  0  0  0  0  0  0  0  0  0
    8.7134   -3.0930    2.4094 C   0  0  0  0  0  0  0  0  0  0  0  0
    7.3121   -3.2316    2.3096 C   0  0  0  0  0  0  0  0  0  0  0  0
    6.7429   -4.5634    2.7589 C   0  0  0  0  0  0  0  0  0  0  0  0
    5.3879   -4.6696    2.7470 F   0  0  0  0  0  0  0  0  0  0  0  0
    7.1982   -5.5928    1.9859 F   0  0  0  0  0  0  0  0  0  0  0  0
    7.1156   -4.8767    4.0336 F   0  0  0  0  0  0  0  0  0  0  0  0
    0.4971    0.0403   -1.3661 H   0  0  0  0  0  0  0  0  0  0  0  0
    0.4496   -0.1435    0.3997 H   0  0  0  0  0  0  0  0  0  0  0  0
    0.5779   -1.5674   -0.6614 H   0  0  0  0  0  0  0  0  0  0  0  0
    2.2732    1.5590   -1.1539 H   0  0  0  0  0  0  0  0  0  0  0  0
    3.8291    1.0712   -0.5287 H   0  0  0  0  0  0  0  0  0  0  0  0
    2.4908    1.3885    0.6008 H   0  0  0  0  0  0  0  0  0  0  0  0
    2.6170   -2.3211    0.4027 H   0  0  0  0  0  0  0  0  0  0  0  0
    2.4992   -0.9852    1.5523 H   0  0  0  0  0  0  0  0  0  0  0  0
    4.7222   -0.1947    0.9183 H   0  0  0  0  0  0  0  0  0  0  0  0
    4.8659   -1.4310   -0.3458 H   0  0  0  0  0  0  0  0  0  0  0  0
    4.7156   -3.1835    1.3830 H   0  0  0  0  0  0  0  0  0  0  0  0
    4.6393   -1.9588    2.6682 H   0  0  0  0  0  0  0  0  0  0  0  0
    6.7209   -0.1635    0.9468 H   0  0  0  0  0  0  0  0  0  0  0  0
   10.3474    0.1790    0.9092 H   0  0  0  0  0  0  0  0  0  0  0  0
   10.6796    3.9187   -0.8372 H   0  0  0  0  0  0  0  0  0  0  0  0
    5.6342    2.4803   -2.5471 H   0  0  0  0  0  0  0  0  0  0  0  0
    3.3788    3.4799   -2.7101 H   0  0  0  0  0  0  0  0  0  0  0  0
    3.9120    5.4133    1.0862 H   0  0  0  0  0  0  0  0  0  0  0  0
    6.1097    5.3611    2.0754 H   0  0  0  0  0  0  0  0  0  0  0  0
    9.1632    5.8779   -0.7564 H   0  0  0  0  0  0  0  0  0  0  0  0
    7.5125    5.6257   -1.2965 H   0  0  0  0  0  0  0  0  0  0  0  0
   10.4560   -1.9080    2.0159 H   0  0  0  0  0  0  0  0  0  0  0  0
    9.3085   -3.9034    2.8320 H   0  0  0  0  0  0  0  0  0  0  0  0
  1  2  1  0  0  0  0
  1 35  1  0  0  0  0
  1 36  1  0  0  0  0
  1 37  1  0  0  0  0
  2  3  1  0  0  0  0
  2  4  1  0  0  0  0
  3 38  1  0  0  0  0
  3 39  1  0  0  0  0
  3 40  1  0  0  0  0
  4  5  1  0  0  0  0
  4 41  1  0  0  0  0
  4 42  1  0  0  0  0
  5  6  1  0  0  0  0
  5 43  1  0  0  0  0
  5 44  1  0  0  0  0
  6  7  1  0  0  0  0
  6 45  1  0  0  0  0
  6 46  1  0  0  0  0
  7  8  1  0  0  0  0
  7 30  2  0  0  0  0
  8  9  2  0  0  0  0
  8 47  1  0  0  0  0
  9 10  1  0  0  0  0
  9 28  1  0  0  0  0
 10 11  1  0  0  0  0
 10 48  1  0  0  0  0
 11 12  1  0  0  0  0
 11 16  2  0  0  0  0
 12 13  2  0  0  0  0
 13 14  1  0  0  0  0
 13 49  1  0  0  0  0
 14 15  2  0  0  0  0
 14 27  1  0  0  0  0
 15 16  1  0  0  0  0
 15 17  1  0  0  0  0
 17 18  1  0  0  0  0
 17 23  2  0  0  0  0
 18 19  2  0  0  0  0
 18 50  1  0  0  0  0
 19 20  1  0  0  0  0
 19 51  1  0  0  0  0
 20 21  1  0  0  0  0
 20 22  2  0  0  0  0
 22 23  1  0  0  0  0
 22 52  1  0  0  0  0
 23 24  1  0  0  0  0
 24 25  1  0  0  0  0
 24 53  1  0  0  0  0
 25 26  2  0  0  0  0
 25 27  1  0  0  0  0
 27 54  1  0  0  0  0
 27 55  1  0  0  0  0
 28 29  2  0  0  0  0
 28 56  1  0  0  0  0
 29 30  1  0  0  0  0
 29 57  1  0  0  0  0
 30 31  1  0  0  0  0
 31 32  1  0  0  0  0
 31 33  1  0  0  0  0
 31 34  1  0  0  0  0
M  END
$$$$
