CHEMBL3930516
 OpenBabel04072215373D

 55 58  0  0  0  0  0  0  0  0999 V2000
    2.1483    5.5144   -1.4038 C   0  0  0  0  0  0  0  0  0  0  0  0
    3.4760    4.8879   -1.8041 C   0  0  0  0  0  0  0  0  0  0  0  0
    3.4098    4.5626   -3.1272 F   0  0  0  0  0  0  0  0  0  0  0  0
    4.4113    5.8892   -1.7552 F   0  0  0  0  0  0  0  0  0  0  0  0
    3.8610    3.7215   -0.9173 C   0  0  0  0  0  0  0  0  0  0  0  0
    4.6528    3.9840    0.2207 C   0  0  0  0  0  0  0  0  0  0  0  0
    5.0866    2.9757    1.0922 C   0  0  0  0  0  0  0  0  0  0  0  0
    5.8587    3.2272    2.2579 N   0  0  0  0  0  0  0  0  0  0  0  0
    6.1181    4.4751    2.7880 C   0  0  0  0  0  0  0  0  0  0  0  0
    5.6666    5.5305    2.3436 O   0  0  0  0  0  0  0  0  0  0  0  0
    7.0038    4.4388    3.8582 N   0  0  0  0  0  0  0  0  0  0  0  0
    7.4114    5.6582    4.4630 C   0  0  0  0  0  0  0  0  0  0  0  0
    6.4846    6.6607    4.7804 C   0  0  0  0  0  0  0  0  0  0  0  0
    6.9123    7.9229    5.2095 C   0  0  0  0  0  0  0  0  0  0  0  0
    8.2746    8.1972    5.3280 C   0  0  0  0  0  0  0  0  0  0  0  0
    8.6043    9.4784    5.7234 O   0  0  0  0  0  0  0  0  0  0  0  0
    9.6855   10.1315    5.1628 C   0  0  0  0  0  0  0  0  0  0  0  0
   10.2086    9.8487    3.9069 C   0  0  0  0  0  0  0  0  0  0  0  0
   11.3294   10.5441    3.5096 C   0  0  0  0  0  0  0  0  0  0  0  0
   11.8999   11.5179    4.2413 N   0  0  0  0  0  0  0  0  0  0  0  0
   11.3595   11.8464    5.4250 C   0  0  0  0  0  0  0  0  0  0  0  0
   11.9386   12.8860    6.1822 N   0  0  0  0  0  0  0  0  0  0  0  0
   13.0863   13.5587    5.8056 C   0  0  0  0  0  0  0  0  0  0  0  0
   13.7725   13.3561    4.8077 O   0  0  0  0  0  0  0  0  0  0  0  0
   13.5711   14.6437    6.7134 C   0  0  0  0  0  0  0  0  0  0  0  0
   13.9739   14.3102    8.1309 C   0  0  0  0  0  0  0  0  0  0  0  0
   12.8372   15.2589    7.8734 C   0  0  0  0  0  0  0  0  0  0  0  0
   10.2408   11.1777    5.9172 C   0  0  0  0  0  0  0  0  0  0  0  0
    9.1861    7.1568    5.1143 C   0  0  0  0  0  0  0  0  0  0  0  0
   10.5028    7.3528    5.2768 F   0  0  0  0  0  0  0  0  0  0  0  0
    8.7660    5.8934    4.6838 C   0  0  0  0  0  0  0  0  0  0  0  0
    4.7492    1.6557    0.7860 C   0  0  0  0  0  0  0  0  0  0  0  0
    3.9482    1.3721   -0.3282 C   0  0  0  0  0  0  0  0  0  0  0  0
    3.4881    2.3981   -1.1632 C   0  0  0  0  0  0  0  0  0  0  0  0
    2.4444    1.9523   -2.4629 Cl  0  0  0  0  0  0  0  0  0  0  0  0
    1.8665    6.2804   -2.1350 H   0  0  0  0  0  0  0  0  0  0  0  0
    2.2202    6.0065   -0.4276 H   0  0  0  0  0  0  0  0  0  0  0  0
    1.3392    4.7791   -1.3687 H   0  0  0  0  0  0  0  0  0  0  0  0
    4.9283    5.0220    0.3908 H   0  0  0  0  0  0  0  0  0  0  0  0
    6.0961    2.4362    2.8311 H   0  0  0  0  0  0  0  0  0  0  0  0
    7.7004    3.7103    3.7990 H   0  0  0  0  0  0  0  0  0  0  0  0
    5.4167    6.4791    4.6636 H   0  0  0  0  0  0  0  0  0  0  0  0
    6.1738    8.6935    5.4210 H   0  0  0  0  0  0  0  0  0  0  0  0
    9.7919    9.0956    3.2506 H   0  0  0  0  0  0  0  0  0  0  0  0
   11.8237   10.3324    2.5657 H   0  0  0  0  0  0  0  0  0  0  0  0
   11.5049   13.1249    7.0579 H   0  0  0  0  0  0  0  0  0  0  0  0
   14.2331   15.3265    6.1817 H   0  0  0  0  0  0  0  0  0  0  0  0
   14.9203   14.7133    8.4791 H   0  0  0  0  0  0  0  0  0  0  0  0
   13.7441   13.3257    8.5195 H   0  0  0  0  0  0  0  0  0  0  0  0
   13.0146   16.3123    8.0625 H   0  0  0  0  0  0  0  0  0  0  0  0
   11.8344   14.9445    8.1215 H   0  0  0  0  0  0  0  0  0  0  0  0
    9.7991   11.4420    6.8711 H   0  0  0  0  0  0  0  0  0  0  0  0
    9.5188    5.1465    4.4570 H   0  0  0  0  0  0  0  0  0  0  0  0
    5.0875    0.8294    1.4059 H   0  0  0  0  0  0  0  0  0  0  0  0
    3.6828    0.3385   -0.5441 H   0  0  0  0  0  0  0  0  0  0  0  0
  1  2  1  0  0  0  0
  1 36  1  0  0  0  0
  1 37  1  0  0  0  0
  1 38  1  0  0  0  0
  2  3  1  0  0  0  0
  2  4  1  0  0  0  0
  2  5  1  0  0  0  0
  5  6  1  0  0  0  0
  5 34  2  0  0  0  0
  6  7  2  0  0  0  0
  6 39  1  0  0  0  0
  7  8  1  0  0  0  0
  7 32  1  0  0  0  0
  8  9  1  0  0  0  0
  8 40  1  0  0  0  0
  9 10  2  0  0  0  0
  9 11  1  0  0  0  0
 11 12  1  0  0  0  0
 11 41  1  0  0  0  0
 12 13  1  0  0  0  0
 12 31  2  0  0  0  0
 13 14  2  0  0  0  0
 13 42  1  0  0  0  0
 14 15  1  0  0  0  0
 14 43  1  0  0  0  0
 15 16  1  0  0  0  0
 15 29  2  0  0  0  0
 16 17  1  0  0  0  0
 17 18  1  0  0  0  0
 17 28  2  0  0  0  0
 18 19  2  0  0  0  0
 18 44  1  0  0  0  0
 19 20  1  0  0  0  0
 19 45  1  0  0  0  0
 20 21  2  0  0  0  0
 21 22  1  0  0  0  0
 21 28  1  0  0  0  0
 22 23  1  0  0  0  0
 22 46  1  0  0  0  0
 23 24  2  0  0  0  0
 23 25  1  0  0  0  0
 25 26  1  0  0  0  0
 25 27  1  0  0  0  0
 25 47  1  0  0  0  0
 26 27  1  0  0  0  0
 26 48  1  0  0  0  0
 26 49  1  0  0  0  0
 27 50  1  0  0  0  0
 27 51  1  0  0  0  0
 28 52  1  0  0  0  0
 29 30  1  0  0  0  0
 29 31  1  0  0  0  0
 31 53  1  0  0  0  0
 32 33  2  0  0  0  0
 32 54  1  0  0  0  0
 33 34  1  0  0  0  0
 33 55  1  0  0  0  0
 34 35  1  0  0  0  0
M  END
$$$$
