CHEMBL371242
 OpenBabel04072215373D

 31 32  0  0  0  0  0  0  0  0999 V2000
    3.3466    2.7043    2.9604 C   0  0  0  0  0  0  0  0  0  0  0  0
    3.5093    2.6088    1.4509 C   0  0  0  0  0  0  0  0  0  0  0  0
    4.4678    1.4822    1.0574 C   0  0  0  0  0  0  0  0  0  0  0  0
    4.6181    1.3390   -0.4572 C   0  0  0  0  0  0  0  0  0  0  0  0
    5.2026    2.5036   -1.0832 N   0  0  0  0  0  0  0  0  0  0  0  0
    6.5641    2.7088   -1.1628 C   0  0  0  0  0  0  0  0  0  0  0  0
    7.3684    1.8917   -0.7181 O   0  0  0  0  0  0  0  0  0  0  0  0
    6.9757    3.9381   -1.8289 C   0  0  0  0  0  0  0  0  0  0  0  0
    8.2834    4.3666   -2.1136 C   0  0  0  0  0  0  0  0  0  0  0  0
    8.2191    5.5582   -2.8340 C   0  0  0  0  0  0  0  0  0  0  0  0
    9.0903    6.4433   -3.4611 C   0  0  0  0  0  0  0  0  0  0  0  0
   10.5624    6.4361   -3.6048 C   0  0  0  0  0  0  0  0  0  0  0  0
    8.3784    7.4499   -4.0280 N   0  0  0  0  0  0  0  0  0  0  0  0
    7.0817    7.1471   -3.7436 N   0  0  0  0  0  0  0  0  0  0  0  0
    6.9814    6.0158   -3.0302 C   0  0  0  0  0  0  0  0  0  0  0  0
    5.7754    5.0840   -2.3999 S   0  0  0  0  0  0  0  0  0  0  0  0
    2.6547    3.5134    3.2156 H   0  0  0  0  0  0  0  0  0  0  0  0
    4.3053    2.9126    3.4459 H   0  0  0  0  0  0  0  0  0  0  0  0
    2.9464    1.7729    3.3735 H   0  0  0  0  0  0  0  0  0  0  0  0
    3.8798    3.5690    1.0752 H   0  0  0  0  0  0  0  0  0  0  0  0
    2.5274    2.4374    0.9946 H   0  0  0  0  0  0  0  0  0  0  0  0
    4.0902    0.5330    1.4571 H   0  0  0  0  0  0  0  0  0  0  0  0
    5.4480    1.6563    1.5173 H   0  0  0  0  0  0  0  0  0  0  0  0
    3.6428    1.1717   -0.9265 H   0  0  0  0  0  0  0  0  0  0  0  0
    5.2529    0.4751   -0.6813 H   0  0  0  0  0  0  0  0  0  0  0  0
    4.5930    3.1862   -1.5170 H   0  0  0  0  0  0  0  0  0  0  0  0
    9.1697    3.8104   -1.8348 H   0  0  0  0  0  0  0  0  0  0  0  0
   11.0186    5.5801   -3.0997 H   0  0  0  0  0  0  0  0  0  0  0  0
   10.9936    7.3516   -3.1850 H   0  0  0  0  0  0  0  0  0  0  0  0
   10.8348    6.3919   -4.6645 H   0  0  0  0  0  0  0  0  0  0  0  0
    6.3490    7.7538   -4.0934 H   0  0  0  0  0  0  0  0  0  0  0  0
  1  2  1  0  0  0  0
  1 17  1  0  0  0  0
  1 18  1  0  0  0  0
  1 19  1  0  0  0  0
  2  3  1  0  0  0  0
  2 20  1  0  0  0  0
  2 21  1  0  0  0  0
  3  4  1  0  0  0  0
  3 22  1  0  0  0  0
  3 23  1  0  0  0  0
  4  5  1  0  0  0  0
  4 24  1  0  0  0  0
  4 25  1  0  0  0  0
  5  6  1  0  0  0  0
  5 26  1  0  0  0  0
  6  7  2  0  0  0  0
  6  8  1  0  0  0  0
  8  9  2  0  0  0  0
  8 16  1  0  0  0  0
  9 10  1  0  0  0  0
  9 27  1  0  0  0  0
 10 11  1  0  0  0  0
 10 15  2  0  0  0  0
 11 12  1  0  0  0  0
 11 13  2  0  0  0  0
 12 28  1  0  0  0  0
 12 29  1  0  0  0  0
 12 30  1  0  0  0  0
 13 14  1  0  0  0  0
 14 15  1  0  0  0  0
 14 31  1  0  0  0  0
 15 16  1  0  0  0  0
M  END
$$$$
