CHEMBL261720
 OpenBabel04072215363D

 41 43  0  0  0  0  0  0  0  0999 V2000
    1.1968    0.2873   -0.0073 N   0  0  0  0  0  0  0  0  0  0  0  0
    2.5259    0.0993   -0.0281 C   0  0  0  0  0  0  0  0  0  0  0  0
    3.1049   -1.0698   -0.0815 N   0  0  0  0  0  0  0  0  0  0  0  0
    4.4385   -0.7901   -0.0981 C   0  0  0  0  0  0  0  0  0  0  0  0
    5.3264   -1.7974    0.0077 N   0  0  0  0  0  0  0  0  0  0  0  0
    5.1929   -3.1248   -0.4456 C   0  0  0  0  0  0  0  0  0  0  0  0
    4.3894   -3.4419   -1.5521 C   0  0  0  0  0  0  0  0  0  0  0  0
    4.2254   -4.7611   -1.9764 C   0  0  0  0  0  0  0  0  0  0  0  0
    4.8481   -5.7885   -1.2710 C   0  0  0  0  0  0  0  0  0  0  0  0
    4.5868   -7.4626   -1.7730 S   0  0  0  0  0  0  0  0  0  0  0  0
    5.8742   -7.7158   -2.8215 N   0  0  0  0  0  0  0  0  0  0  0  0
    4.8189   -8.3387   -0.6485 O   0  0  0  0  0  0  0  0  0  0  0  0
    3.3962   -7.5465   -2.5808 O   0  0  0  0  0  0  0  0  0  0  0  0
    5.6225   -5.5051   -0.1427 C   0  0  0  0  0  0  0  0  0  0  0  0
    5.7995   -4.1745    0.2598 C   0  0  0  0  0  0  0  0  0  0  0  0
    4.7358    0.5094   -0.1534 N   0  0  0  0  0  0  0  0  0  0  0  0
    3.4992    1.0964   -0.0503 N   0  0  0  0  0  0  0  0  0  0  0  0
    3.3928    2.5060    0.0734 C   0  0  0  0  0  0  0  0  0  0  0  0
    2.0702    3.3548    0.6834 S   0  0  0  0  0  0  0  0  0  0  0  0
    4.5087    3.0977   -0.5257 N   0  0  0  0  0  0  0  0  0  0  0  0
    5.0536    4.3808   -0.2745 C   0  0  0  0  0  0  0  0  0  0  0  0
    5.1287    4.9360    1.0064 C   0  0  0  0  0  0  0  0  0  0  0  0
    4.7271    4.2378    2.0788 F   0  0  0  0  0  0  0  0  0  0  0  0
    5.7370    6.1727    1.2270 C   0  0  0  0  0  0  0  0  0  0  0  0
    6.2817    6.8819    0.1577 C   0  0  0  0  0  0  0  0  0  0  0  0
    6.2399    6.3329   -1.1237 C   0  0  0  0  0  0  0  0  0  0  0  0
    5.6502    5.0833   -1.3250 C   0  0  0  0  0  0  0  0  0  0  0  0
    5.6332    4.5707   -2.5655 F   0  0  0  0  0  0  0  0  0  0  0  0
    0.5905   -0.5249   -0.0732 H   0  0  0  0  0  0  0  0  0  0  0  0
    0.7455    1.1914   -0.1095 H   0  0  0  0  0  0  0  0  0  0  0  0
    6.2458   -1.5684    0.3598 H   0  0  0  0  0  0  0  0  0  0  0  0
    3.8916   -2.6502   -2.1078 H   0  0  0  0  0  0  0  0  0  0  0  0
    3.6067   -4.9712   -2.8452 H   0  0  0  0  0  0  0  0  0  0  0  0
    6.4773   -8.4520   -2.4538 H   0  0  0  0  0  0  0  0  0  0  0  0
    5.5216   -7.9026   -3.7605 H   0  0  0  0  0  0  0  0  0  0  0  0
    6.0775   -6.3079    0.4337 H   0  0  0  0  0  0  0  0  0  0  0  0
    6.3843   -3.9682    1.1533 H   0  0  0  0  0  0  0  0  0  0  0  0
    4.9624    2.5663   -1.2688 H   0  0  0  0  0  0  0  0  0  0  0  0
    5.8015    6.5593    2.2404 H   0  0  0  0  0  0  0  0  0  0  0  0
    6.7527    7.8474    0.3273 H   0  0  0  0  0  0  0  0  0  0  0  0
    6.6683    6.8681   -1.9664 H   0  0  0  0  0  0  0  0  0  0  0  0
  1  2  1  0  0  0  0
  1 29  1  0  0  0  0
  1 30  1  0  0  0  0
  2  3  2  0  0  0  0
  2 17  1  0  0  0  0
  3  4  1  0  0  0  0
  4  5  1  0  0  0  0
  4 16  2  0  0  0  0
  5  6  1  0  0  0  0
  5 31  1  0  0  0  0
  6  7  1  0  0  0  0
  6 15  2  0  0  0  0
  7  8  2  0  0  0  0
  7 32  1  0  0  0  0
  8  9  1  0  0  0  0
  8 33  1  0  0  0  0
  9 10  1  0  0  0  0
  9 14  2  0  0  0  0
 10 11  1  0  0  0  0
 10 12  2  0  0  0  0
 10 13  2  0  0  0  0
 11 34  1  0  0  0  0
 11 35  1  0  0  0  0
 14 15  1  0  0  0  0
 14 36  1  0  0  0  0
 15 37  1  0  0  0  0
 16 17  1  0  0  0  0
 17 18  1  0  0  0  0
 18 19  2  0  0  0  0
 18 20  1  0  0  0  0
 20 21  1  0  0  0  0
 20 38  1  0  0  0  0
 21 22  1  0  0  0  0
 21 27  2  0  0  0  0
 22 23  1  0  0  0  0
 22 24  2  0  0  0  0
 24 25  1  0  0  0  0
 24 39  1  0  0  0  0
 25 26  2  0  0  0  0
 25 40  1  0  0  0  0
 26 27  1  0  0  0  0
 26 41  1  0  0  0  0
 27 28  1  0  0  0  0
M  END
$$$$
