CHEMBL522892
 OpenBabel04072215383D

 50 54  0  0  0  0  0  0  0  0999 V2000
    2.0247   -1.2888   -1.1778 C   0  0  0  0  0  0  0  0  0  0  0  0
    0.9076   -0.4169   -0.8229 N   0  0  0  0  0  0  0  0  0  0  0  0
   -0.3093   -0.8019   -1.5788 C   0  0  0  0  0  0  0  0  0  0  0  0
   -1.5561    0.0296   -1.1856 C   0  0  0  0  0  0  0  0  0  0  0  0
   -1.7662   -0.0957    0.2615 N   0  0  0  0  0  0  0  0  0  0  0  0
   -3.0254   -0.0326    0.8332 C   0  0  0  0  0  0  0  0  0  0  0  0
   -3.2374   -0.6563    2.0779 C   0  0  0  0  0  0  0  0  0  0  0  0
   -4.4846   -0.6890    2.7099 C   0  0  0  0  0  0  0  0  0  0  0  0
   -5.5574   -0.0724    2.0695 C   0  0  0  0  0  0  0  0  0  0  0  0
   -6.8599    0.0300    2.4689 N   0  0  0  0  0  0  0  0  0  0  0  0
   -7.4838    0.7122    1.5204 C   0  0  0  0  0  0  0  0  0  0  0  0
   -8.8625    1.0886    1.4280 C   0  0  0  0  0  0  0  0  0  0  0  0
   -9.6839    0.8720    2.4886 C   0  0  0  0  0  0  0  0  0  0  0  0
   -9.2530    0.4117    3.7278 N   0  0  0  0  0  0  0  0  0  0  0  0
  -11.1441    1.1190    2.3406 C   0  0  0  0  0  0  0  0  0  0  0  0
  -12.0917    0.8166    3.3315 C   0  0  0  0  0  0  0  0  0  0  0  0
  -11.7193    0.2821    4.5059 F   0  0  0  0  0  0  0  0  0  0  0  0
  -13.4580    1.0158    3.1296 C   0  0  0  0  0  0  0  0  0  0  0  0
  -13.9132    1.5310    1.9210 C   0  0  0  0  0  0  0  0  0  0  0  0
  -12.9969    1.8517    0.9217 C   0  0  0  0  0  0  0  0  0  0  0  0
  -11.6291    1.6394    1.1340 C   0  0  0  0  0  0  0  0  0  0  0  0
  -10.7404    1.9372    0.0995 N   0  0  0  0  0  0  0  0  0  0  0  0
   -9.3986    1.6989    0.1668 C   0  0  0  0  0  0  0  0  0  0  0  0
   -8.6730    1.9825   -0.7874 O   0  0  0  0  0  0  0  0  0  0  0  0
   -6.6002    1.0190    0.5062 N   0  0  0  0  0  0  0  0  0  0  0  0
   -5.3617    0.5369    0.8402 C   0  0  0  0  0  0  0  0  0  0  0  0
   -4.1213    0.5716    0.1916 C   0  0  0  0  0  0  0  0  0  0  0  0
   -0.5993    0.3293    1.0557 C   0  0  0  0  0  0  0  0  0  0  0  0
    0.6319   -0.5025    0.6316 C   0  0  0  0  0  0  0  0  0  0  0  0
    2.2481   -1.2074   -2.2468 H   0  0  0  0  0  0  0  0  0  0  0  0
    1.8218   -2.3411   -0.9468 H   0  0  0  0  0  0  0  0  0  0  0  0
    2.9302   -0.9871   -0.6403 H   0  0  0  0  0  0  0  0  0  0  0  0
   -0.5356   -1.8638   -1.4062 H   0  0  0  0  0  0  0  0  0  0  0  0
   -0.1316   -0.6743   -2.6527 H   0  0  0  0  0  0  0  0  0  0  0  0
   -2.4107   -0.3607   -1.7505 H   0  0  0  0  0  0  0  0  0  0  0  0
   -1.4161    1.0827   -1.4607 H   0  0  0  0  0  0  0  0  0  0  0  0
   -2.4180   -1.1789    2.5646 H   0  0  0  0  0  0  0  0  0  0  0  0
   -4.6202   -1.1906    3.6604 H   0  0  0  0  0  0  0  0  0  0  0  0
   -8.3146   -0.0076    3.6821 H   0  0  0  0  0  0  0  0  0  0  0  0
   -9.9204   -0.1700    4.2282 H   0  0  0  0  0  0  0  0  0  0  0  0
  -14.1545    0.7525    3.9203 H   0  0  0  0  0  0  0  0  0  0  0  0
  -14.9780    1.6731    1.7557 H   0  0  0  0  0  0  0  0  0  0  0  0
  -13.3600    2.2471   -0.0233 H   0  0  0  0  0  0  0  0  0  0  0  0
  -11.0755    2.3358   -0.7676 H   0  0  0  0  0  0  0  0  0  0  0  0
   -6.8477    1.5079   -0.3467 H   0  0  0  0  0  0  0  0  0  0  0  0
   -4.0175    1.0687   -0.7656 H   0  0  0  0  0  0  0  0  0  0  0  0
   -0.7468    0.2046    2.1338 H   0  0  0  0  0  0  0  0  0  0  0  0
   -0.4092    1.3969    0.8838 H   0  0  0  0  0  0  0  0  0  0  0  0
    0.4609   -1.5482    0.9233 H   0  0  0  0  0  0  0  0  0  0  0  0
    1.5026   -0.1426    1.1921 H   0  0  0  0  0  0  0  0  0  0  0  0
  1  2  1  0  0  0  0
  1 30  1  0  0  0  0
  1 31  1  0  0  0  0
  1 32  1  0  0  0  0
  2  3  1  0  0  0  0
  2 29  1  0  0  0  0
  3  4  1  0  0  0  0
  3 33  1  0  0  0  0
  3 34  1  0  0  0  0
  4  5  1  0  0  0  0
  4 35  1  0  0  0  0
  4 36  1  0  0  0  0
  5  6  1  0  0  0  0
  5 28  1  0  0  0  0
  6  7  1  0  0  0  0
  6 27  2  0  0  0  0
  7  8  2  0  0  0  0
  7 37  1  0  0  0  0
  8  9  1  0  0  0  0
  8 38  1  0  0  0  0
  9 10  1  0  0  0  0
  9 26  2  0  0  0  0
 10 11  2  0  0  0  0
 11 12  1  0  0  0  0
 11 25  1  0  0  0  0
 12 13  2  0  0  0  0
 12 23  1  0  0  0  0
 13 14  1  0  0  0  0
 13 15  1  0  0  0  0
 14 39  1  0  0  0  0
 14 40  1  0  0  0  0
 15 16  1  0  0  0  0
 15 21  2  0  0  0  0
 16 17  1  0  0  0  0
 16 18  2  0  0  0  0
 18 19  1  0  0  0  0
 18 41  1  0  0  0  0
 19 20  2  0  0  0  0
 19 42  1  0  0  0  0
 20 21  1  0  0  0  0
 20 43  1  0  0  0  0
 21 22  1  0  0  0  0
 22 23  1  0  0  0  0
 22 44  1  0  0  0  0
 23 24  2  0  0  0  0
 25 26  1  0  0  0  0
 25 45  1  0  0  0  0
 26 27  1  0  0  0  0
 27 46  1  0  0  0  0
 28 29  1  0  0  0  0
 28 47  1  0  0  0  0
 28 48  1  0  0  0  0
 29 49  1  0  0  0  0
 29 50  1  0  0  0  0
M  END
$$$$
