CHEMBL1967531
 OpenBabel04072215363D

 41 44  0  0  0  0  0  0  0  0999 V2000
    1.1071   -0.0861   -1.6330 N   0  0  0  0  0  0  0  0  0  0  0  0
    2.4683   -0.1632   -1.3612 C   0  0  0  0  0  0  0  0  0  0  0  0
    3.1782    0.9165   -1.7371 N   0  0  0  0  0  0  0  0  0  0  0  0
    4.4892    0.9489   -1.4715 C   0  0  0  0  0  0  0  0  0  0  0  0
    5.2102    0.0181   -0.8528 N   0  0  0  0  0  0  0  0  0  0  0  0
    4.4783   -1.0529   -0.5062 C   0  0  0  0  0  0  0  0  0  0  0  0
    5.2249   -2.3446    0.3061 S   0  0  0  0  0  0  0  0  0  0  0  0
    3.7667   -3.2180    0.3619 C   0  0  0  0  0  0  0  0  0  0  0  0
    2.6993   -2.5456   -0.2163 C   0  0  0  0  0  0  0  0  0  0  0  0
    1.3674   -3.1635   -0.2025 C   0  0  0  0  0  0  0  0  0  0  0  0
    0.9573   -3.9001    0.9110 C   0  0  0  0  0  0  0  0  0  0  0  0
   -0.3188   -4.4549    0.9691 C   0  0  0  0  0  0  0  0  0  0  0  0
   -1.2607   -4.2296   -0.0429 C   0  0  0  0  0  0  0  0  0  0  0  0
   -2.6041   -4.6745    0.0567 N   0  0  0  0  0  0  0  0  0  0  0  0
   -3.1947   -5.0248    1.2598 C   0  0  0  0  0  0  0  0  0  0  0  0
   -2.6436   -4.8782    2.3469 O   0  0  0  0  0  0  0  0  0  0  0  0
   -4.4514   -5.5819    1.1058 N   0  0  0  0  0  0  0  0  0  0  0  0
   -5.2128   -6.0870    2.1934 C   0  0  0  0  0  0  0  0  0  0  0  0
   -4.9634   -5.7242    3.5257 C   0  0  0  0  0  0  0  0  0  0  0  0
   -5.6013   -6.3683    4.5842 C   0  0  0  0  0  0  0  0  0  0  0  0
   -6.5461   -7.3496    4.3228 C   0  0  0  0  0  0  0  0  0  0  0  0
   -6.8754   -7.6567    3.0021 C   0  0  0  0  0  0  0  0  0  0  0  0
   -6.2178   -7.0230    1.9390 C   0  0  0  0  0  0  0  0  0  0  0  0
   -0.8429   -3.5438   -1.1832 C   0  0  0  0  0  0  0  0  0  0  0  0
    0.4694   -3.0437   -1.2709 C   0  0  0  0  0  0  0  0  0  0  0  0
    3.1173   -1.2450   -0.7255 C   0  0  0  0  0  0  0  0  0  0  0  0
    0.8692    0.8649   -1.8950 H   0  0  0  0  0  0  0  0  0  0  0  0
    0.5260   -0.4854   -0.9057 H   0  0  0  0  0  0  0  0  0  0  0  0
    5.0218    1.8386   -1.7905 H   0  0  0  0  0  0  0  0  0  0  0  0
    3.7704   -4.1933    0.8305 H   0  0  0  0  0  0  0  0  0  0  0  0
    1.6099   -4.0518    1.7675 H   0  0  0  0  0  0  0  0  0  0  0  0
   -0.5486   -5.0496    1.8482 H   0  0  0  0  0  0  0  0  0  0  0  0
   -3.2205   -4.4758   -0.7194 H   0  0  0  0  0  0  0  0  0  0  0  0
   -4.6850   -5.9296    0.1865 H   0  0  0  0  0  0  0  0  0  0  0  0
   -4.2509   -4.9473    3.7835 H   0  0  0  0  0  0  0  0  0  0  0  0
   -5.3350   -6.1068    5.6051 H   0  0  0  0  0  0  0  0  0  0  0  0
   -7.0232   -7.8710    5.1479 H   0  0  0  0  0  0  0  0  0  0  0  0
   -7.6300   -8.4124    2.8019 H   0  0  0  0  0  0  0  0  0  0  0  0
   -6.4768   -7.3061    0.9231 H   0  0  0  0  0  0  0  0  0  0  0  0
   -1.5283   -3.3578   -2.0048 H   0  0  0  0  0  0  0  0  0  0  0  0
    0.7652   -2.5343   -2.1861 H   0  0  0  0  0  0  0  0  0  0  0  0
  1  2  1  0  0  0  0
  1 27  1  0  0  0  0
  1 28  1  0  0  0  0
  2  3  1  0  0  0  0
  2 26  2  0  0  0  0
  3  4  2  0  0  0  0
  4  5  1  0  0  0  0
  4 29  1  0  0  0  0
  5  6  2  0  0  0  0
  6  7  1  0  0  0  0
  6 26  1  0  0  0  0
  7  8  1  0  0  0  0
  8  9  2  0  0  0  0
  8 30  1  0  0  0  0
  9 10  1  0  0  0  0
  9 26  1  0  0  0  0
 10 11  1  0  0  0  0
 10 25  2  0  0  0  0
 11 12  2  0  0  0  0
 11 31  1  0  0  0  0
 12 13  1  0  0  0  0
 12 32  1  0  0  0  0
 13 14  1  0  0  0  0
 13 24  2  0  0  0  0
 14 15  1  0  0  0  0
 14 33  1  0  0  0  0
 15 16  2  0  0  0  0
 15 17  1  0  0  0  0
 17 18  1  0  0  0  0
 17 34  1  0  0  0  0
 18 19  1  0  0  0  0
 18 23  2  0  0  0  0
 19 20  2  0  0  0  0
 19 35  1  0  0  0  0
 20 21  1  0  0  0  0
 20 36  1  0  0  0  0
 21 22  2  0  0  0  0
 21 37  1  0  0  0  0
 22 23  1  0  0  0  0
 22 38  1  0  0  0  0
 23 39  1  0  0  0  0
 24 25  1  0  0  0  0
 24 40  1  0  0  0  0
 25 41  1  0  0  0  0
M  END
$$$$
