CHEMBL3690553
 OpenBabel04072215373D

 55 59  0  0  0  0  0  0  0  0999 V2000
    2.6342   -1.3788    0.1410 O   0  0  0  0  0  0  0  0  0  0  0  0
    2.5616   -0.3723    0.8326 C   0  0  0  0  0  0  0  0  0  0  0  0
    1.5573   -0.2219    1.7659 N   0  0  0  0  0  0  0  0  0  0  0  0
    0.4817   -1.2230    1.8079 C   0  0  0  0  0  0  0  0  0  0  0  0
   -0.6425   -1.0042    0.7876 C   0  0  0  0  0  0  0  0  0  0  0  0
   -0.4712    0.1395    0.0835 F   0  0  0  0  0  0  0  0  0  0  0  0
   -0.7519   -2.0241   -0.0869 F   0  0  0  0  0  0  0  0  0  0  0  0
   -1.8315   -0.8894    1.4304 F   0  0  0  0  0  0  0  0  0  0  0  0
    3.4144    0.7093    0.8298 N   0  0  0  0  0  0  0  0  0  0  0  0
    4.5698    0.8796    0.0351 C   0  0  0  0  0  0  0  0  0  0  0  0
    5.0145   -0.0767   -0.8776 C   0  0  0  0  0  0  0  0  0  0  0  0
    6.2096    0.1071   -1.5662 C   0  0  0  0  0  0  0  0  0  0  0  0
    6.9543    1.2658   -1.3713 C   0  0  0  0  0  0  0  0  0  0  0  0
    6.4784    2.2976   -0.5537 C   0  0  0  0  0  0  0  0  0  0  0  0
    7.1777    3.5881   -0.4757 C   0  0  0  0  0  0  0  0  0  0  0  0
    7.3403    4.4532    0.5955 C   0  0  0  0  0  0  0  0  0  0  0  0
    8.0621    5.5681    0.2592 N   0  0  0  0  0  0  0  0  0  0  0  0
    8.3452    5.4245   -1.0167 C   0  0  0  0  0  0  0  0  0  0  0  0
    9.0689    6.2721   -1.9082 C   0  0  0  0  0  0  0  0  0  0  0  0
    9.2350    5.9416   -3.2141 C   0  0  0  0  0  0  0  0  0  0  0  0
    9.9762    6.8563   -4.1248 C   0  0  0  0  0  0  0  0  0  0  0  0
   10.0868    6.4740   -5.4088 N   0  0  0  0  0  0  0  0  0  0  0  0
   10.7136    7.3249   -6.2316 C   0  0  0  0  0  0  0  0  0  0  0  0
   11.2212    8.5312   -5.8196 C   0  0  0  0  0  0  0  0  0  0  0  0
   11.0773    8.8407   -4.4832 C   0  0  0  0  0  0  0  0  0  0  0  0
   11.5800   10.0396   -3.9799 N   0  0  0  0  0  0  0  0  0  0  0  0
   12.3432   11.0907   -4.5510 C   0  0  0  0  0  0  0  0  0  0  0  0
   12.8419   11.4152   -3.1293 C   0  0  0  0  0  0  0  0  0  0  0  0
   14.2046   11.0218   -2.8319 O   0  0  0  0  0  0  0  0  0  0  0  0
   11.7319   10.4706   -2.6330 C   0  0  0  0  0  0  0  0  0  0  0  0
   10.4612    8.0058   -3.6287 N   0  0  0  0  0  0  0  0  0  0  0  0
    8.6333    4.6940   -3.7053 C   0  0  0  0  0  0  0  0  0  0  0  0
    7.9292    3.9078   -2.8793 C   0  0  0  0  0  0  0  0  0  0  0  0
    7.8052    4.2479   -1.5317 N   0  0  0  0  0  0  0  0  0  0  0  0
    5.3013    2.0710    0.1820 C   0  0  0  0  0  0  0  0  0  0  0  0
    1.2826    0.7299    1.9637 H   0  0  0  0  0  0  0  0  0  0  0  0
    0.0748   -1.1888    2.8222 H   0  0  0  0  0  0  0  0  0  0  0  0
    0.9165   -2.2190    1.6653 H   0  0  0  0  0  0  0  0  0  0  0  0
    3.2373    1.4205    1.5224 H   0  0  0  0  0  0  0  0  0  0  0  0
    4.4677   -0.9950   -1.0636 H   0  0  0  0  0  0  0  0  0  0  0  0
    6.5598   -0.6580   -2.2542 H   0  0  0  0  0  0  0  0  0  0  0  0
    7.9085    1.3492   -1.8839 H   0  0  0  0  0  0  0  0  0  0  0  0
    6.9781    4.3218    1.6076 H   0  0  0  0  0  0  0  0  0  0  0  0
    9.4734    7.1879   -1.4901 H   0  0  0  0  0  0  0  0  0  0  0  0
   10.7987    7.0015   -7.2639 H   0  0  0  0  0  0  0  0  0  0  0  0
   11.7164    9.1904   -6.5182 H   0  0  0  0  0  0  0  0  0  0  0  0
   11.7091   11.8546   -5.0107 H   0  0  0  0  0  0  0  0  0  0  0  0
   13.1131   10.7586   -5.2513 H   0  0  0  0  0  0  0  0  0  0  0  0
   12.6914   12.4609   -2.8415 H   0  0  0  0  0  0  0  0  0  0  0  0
   14.2399   10.0763   -3.0671 H   0  0  0  0  0  0  0  0  0  0  0  0
   10.8325   10.9634   -2.2515 H   0  0  0  0  0  0  0  0  0  0  0  0
   12.0568    9.6840   -1.9462 H   0  0  0  0  0  0  0  0  0  0  0  0
    8.7545    4.4314   -4.7523 H   0  0  0  0  0  0  0  0  0  0  0  0
    7.4491    3.0099   -3.2391 H   0  0  0  0  0  0  0  0  0  0  0  0
    4.9409    2.8415    0.8593 H   0  0  0  0  0  0  0  0  0  0  0  0
  1  2  2  0  0  0  0
  2  3  1  0  0  0  0
  2  9  1  0  0  0  0
  3  4  1  0  0  0  0
  3 36  1  0  0  0  0
  4  5  1  0  0  0  0
  4 37  1  0  0  0  0
  4 38  1  0  0  0  0
  5  6  1  0  0  0  0
  5  7  1  0  0  0  0
  5  8  1  0  0  0  0
  9 10  1  0  0  0  0
  9 39  1  0  0  0  0
 10 11  1  0  0  0  0
 10 35  2  0  0  0  0
 11 12  2  0  0  0  0
 11 40  1  0  0  0  0
 12 13  1  0  0  0  0
 12 41  1  0  0  0  0
 13 14  2  0  0  0  0
 13 42  1  0  0  0  0
 14 15  1  0  0  0  0
 14 35  1  0  0  0  0
 15 16  2  0  0  0  0
 15 34  1  0  0  0  0
 16 17  1  0  0  0  0
 16 43  1  0  0  0  0
 17 18  2  0  0  0  0
 18 19  1  0  0  0  0
 18 34  1  0  0  0  0
 19 20  2  0  0  0  0
 19 44  1  0  0  0  0
 20 21  1  0  0  0  0
 20 32  1  0  0  0  0
 21 22  1  0  0  0  0
 21 31  2  0  0  0  0
 22 23  2  0  0  0  0
 23 24  1  0  0  0  0
 23 45  1  0  0  0  0
 24 25  2  0  0  0  0
 24 46  1  0  0  0  0
 25 26  1  0  0  0  0
 25 31  1  0  0  0  0
 26 27  1  0  0  0  0
 26 30  1  0  0  0  0
 27 28  1  0  0  0  0
 27 47  1  0  0  0  0
 27 48  1  0  0  0  0
 28 29  1  0  0  0  0
 28 30  1  0  0  0  0
 28 49  1  0  0  0  0
 29 50  1  0  0  0  0
 30 51  1  0  0  0  0
 30 52  1  0  0  0  0
 32 33  2  0  0  0  0
 32 53  1  0  0  0  0
 33 34  1  0  0  0  0
 33 54  1  0  0  0  0
 35 55  1  0  0  0  0
M  END
$$$$
