CHEMBL2016912
 OpenBabel04072215363D

 56 60  0  0  0  0  0  0  0  0999 V2000
   -0.4079   -2.8760   -3.2074 C   0  0  0  0  0  0  0  0  0  0  0  0
   -0.1104   -2.7496   -1.7866 N   0  0  0  0  0  0  0  0  0  0  0  0
   -0.7197   -1.5345   -1.2167 C   0  0  0  0  0  0  0  0  0  0  0  0
   -0.3833   -1.4027    0.2882 C   0  0  0  0  0  0  0  0  0  0  0  0
   -0.8062   -2.5594    1.1170 N   0  0  0  0  0  0  0  0  0  0  0  0
   -2.2767   -2.6471    1.2337 C   0  0  0  0  0  0  0  0  0  0  0  0
   -2.8664   -1.4610    2.0333 C   0  0  0  0  0  0  0  0  0  0  0  0
   -3.1268   -0.3986    1.4583 O   0  0  0  0  0  0  0  0  0  0  0  0
   -3.1093   -1.6324    3.3985 N   0  0  0  0  0  0  0  0  0  0  0  0
   -3.6709   -0.4689    4.1308 C   0  0  0  0  0  0  0  0  0  0  0  0
   -4.1495   -0.6105    5.5918 C   0  0  0  0  0  0  0  0  0  0  0  0
   -3.9619   -1.9685    6.1083 C   0  0  0  0  0  0  0  0  0  0  0  0
   -4.3227   -2.3996    7.3522 N   0  0  0  0  0  0  0  0  0  0  0  0
   -3.9512   -3.6710    7.4113 C   0  0  0  0  0  0  0  0  0  0  0  0
   -4.0369   -4.6076    8.4729 C   0  0  0  0  0  0  0  0  0  0  0  0
   -4.6786   -4.2311    9.5911 C   0  0  0  0  0  0  0  0  0  0  0  0
   -4.7340   -5.0999   10.7591 C   0  0  0  0  0  0  0  0  0  0  0  0
   -5.3971   -4.7048   11.9213 C   0  0  0  0  0  0  0  0  0  0  0  0
   -5.3913   -5.5408   13.0395 C   0  0  0  0  0  0  0  0  0  0  0  0
   -4.7209   -6.7674   12.9991 C   0  0  0  0  0  0  0  0  0  0  0  0
   -4.0638   -7.1692   11.8332 C   0  0  0  0  0  0  0  0  0  0  0  0
   -4.0787   -6.3400   10.7169 C   0  0  0  0  0  0  0  0  0  0  0  0
   -3.4406   -6.7355    9.5344 N   0  0  0  0  0  0  0  0  0  0  0  0
   -3.4069   -5.9765    8.3996 C   0  0  0  0  0  0  0  0  0  0  0  0
   -2.8690   -6.3858    7.3717 O   0  0  0  0  0  0  0  0  0  0  0  0
   -3.3793   -4.0581    6.2172 N   0  0  0  0  0  0  0  0  0  0  0  0
   -3.4055   -2.9785    5.3865 C   0  0  0  0  0  0  0  0  0  0  0  0
   -2.9653   -2.9578    4.0002 C   0  0  0  0  0  0  0  0  0  0  0  0
   -0.2644   -3.7894    0.4880 C   0  0  0  0  0  0  0  0  0  0  0  0
   -0.5461   -3.9356   -1.0314 C   0  0  0  0  0  0  0  0  0  0  0  0
   -0.0430   -1.9989   -3.7529 H   0  0  0  0  0  0  0  0  0  0  0  0
   -1.4805   -2.9828   -3.4025 H   0  0  0  0  0  0  0  0  0  0  0  0
    0.1100   -3.7443   -3.6300 H   0  0  0  0  0  0  0  0  0  0  0  0
   -1.8077   -1.5397   -1.3613 H   0  0  0  0  0  0  0  0  0  0  0  0
   -0.3335   -0.6494   -1.7342 H   0  0  0  0  0  0  0  0  0  0  0  0
   -0.7883   -0.4645    0.6796 H   0  0  0  0  0  0  0  0  0  0  0  0
    0.7058   -1.2971    0.3902 H   0  0  0  0  0  0  0  0  0  0  0  0
   -2.5292   -3.5943    1.7132 H   0  0  0  0  0  0  0  0  0  0  0  0
   -2.7914   -2.6813    0.2682 H   0  0  0  0  0  0  0  0  0  0  0  0
   -4.5149   -0.0961    3.5358 H   0  0  0  0  0  0  0  0  0  0  0  0
   -2.9163    0.3289    4.0855 H   0  0  0  0  0  0  0  0  0  0  0  0
   -5.2083   -0.3326    5.6556 H   0  0  0  0  0  0  0  0  0  0  0  0
   -3.6053    0.0999    6.2270 H   0  0  0  0  0  0  0  0  0  0  0  0
   -5.1402   -3.2494    9.6683 H   0  0  0  0  0  0  0  0  0  0  0  0
   -5.9127   -3.7510   11.9715 H   0  0  0  0  0  0  0  0  0  0  0  0
   -5.9047   -5.2350   13.9464 H   0  0  0  0  0  0  0  0  0  0  0  0
   -4.7110   -7.4080   13.8752 H   0  0  0  0  0  0  0  0  0  0  0  0
   -3.5430   -8.1240   11.8150 H   0  0  0  0  0  0  0  0  0  0  0  0
   -2.9891   -7.6421    9.4799 H   0  0  0  0  0  0  0  0  0  0  0  0
   -3.0094   -4.9836    6.0243 H   0  0  0  0  0  0  0  0  0  0  0  0
   -3.6118   -3.6380    3.4355 H   0  0  0  0  0  0  0  0  0  0  0  0
   -1.9250   -3.2843    3.9050 H   0  0  0  0  0  0  0  0  0  0  0  0
   -0.6366   -4.6767    1.0151 H   0  0  0  0  0  0  0  0  0  0  0  0
    0.8235   -3.7962    0.6416 H   0  0  0  0  0  0  0  0  0  0  0  0
   -1.6156   -4.1258   -1.1877 H   0  0  0  0  0  0  0  0  0  0  0  0
   -0.0066   -4.8194   -1.3931 H   0  0  0  0  0  0  0  0  0  0  0  0
  1  2  1  0  0  0  0
  1 31  1  0  0  0  0
  1 32  1  0  0  0  0
  1 33  1  0  0  0  0
  2  3  1  0  0  0  0
  2 30  1  0  0  0  0
  3  4  1  0  0  0  0
  3 34  1  0  0  0  0
  3 35  1  0  0  0  0
  4  5  1  0  0  0  0
  4 36  1  0  0  0  0
  4 37  1  0  0  0  0
  5  6  1  0  0  0  0
  5 29  1  0  0  0  0
  6  7  1  0  0  0  0
  6 38  1  0  0  0  0
  6 39  1  0  0  0  0
  7  8  2  0  0  0  0
  7  9  1  0  0  0  0
  9 10  1  0  0  0  0
  9 28  1  0  0  0  0
 10 11  1  0  0  0  0
 10 40  1  0  0  0  0
 10 41  1  0  0  0  0
 11 12  1  0  0  0  0
 11 42  1  0  0  0  0
 11 43  1  0  0  0  0
 12 13  1  0  0  0  0
 12 27  2  0  0  0  0
 13 14  2  0  0  0  0
 14 15  1  0  0  0  0
 14 26  1  0  0  0  0
 15 16  2  0  0  0  0
 15 24  1  0  0  0  0
 16 17  1  0  0  0  0
 16 44  1  0  0  0  0
 17 18  1  0  0  0  0
 17 22  2  0  0  0  0
 18 19  2  0  0  0  0
 18 45  1  0  0  0  0
 19 20  1  0  0  0  0
 19 46  1  0  0  0  0
 20 21  2  0  0  0  0
 20 47  1  0  0  0  0
 21 22  1  0  0  0  0
 21 48  1  0  0  0  0
 22 23  1  0  0  0  0
 23 24  1  0  0  0  0
 23 49  1  0  0  0  0
 24 25  2  0  0  0  0
 26 27  1  0  0  0  0
 26 50  1  0  0  0  0
 27 28  1  0  0  0  0
 28 51  1  0  0  0  0
 28 52  1  0  0  0  0
 29 30  1  0  0  0  0
 29 53  1  0  0  0  0
 29 54  1  0  0  0  0
 30 55  1  0  0  0  0
 30 56  1  0  0  0  0
M  END
$$$$
