CHEMBL4251080
 OpenBabel04072215383D

 44 47  0  0  0  0  0  0  0  0999 V2000
    1.4664   -0.3901    1.2198 C   0  0  0  0  0  0  0  0  0  0  0  0
    2.7443   -0.1879    0.4501 C   0  0  0  0  0  0  0  0  0  0  0  0
    3.3181    1.1070    0.4022 C   0  0  0  0  0  0  0  0  0  0  0  0
    4.5545    1.3975   -0.2275 C   0  0  0  0  0  0  0  0  0  0  0  0
    5.1699    2.7243   -0.1681 C   0  0  0  0  0  0  0  0  0  0  0  0
    5.0799    3.4533    1.0243 C   0  0  0  0  0  0  0  0  0  0  0  0
    5.6128    4.7348    1.1438 C   0  0  0  0  0  0  0  0  0  0  0  0
    6.3076    5.3270    0.0923 C   0  0  0  0  0  0  0  0  0  0  0  0
    6.8836    6.6159    0.1835 N   0  0  0  0  0  0  0  0  0  0  0  0
    6.9400    7.3812    1.3321 C   0  0  0  0  0  0  0  0  0  0  0  0
    6.5984    7.0083    2.4469 O   0  0  0  0  0  0  0  0  0  0  0  0
    7.4068    8.6616    1.0839 N   0  0  0  0  0  0  0  0  0  0  0  0
    7.5626    9.5870    2.1526 C   0  0  0  0  0  0  0  0  0  0  0  0
    8.1146    9.1818    3.3773 C   0  0  0  0  0  0  0  0  0  0  0  0
    8.2064   10.0724    4.4459 C   0  0  0  0  0  0  0  0  0  0  0  0
    7.7524   11.3796    4.3006 C   0  0  0  0  0  0  0  0  0  0  0  0
    7.2199   11.8031    3.0812 C   0  0  0  0  0  0  0  0  0  0  0  0
    7.1382   10.9136    2.0057 C   0  0  0  0  0  0  0  0  0  0  0  0
    6.4232   11.4622    0.5292 Cl  0  0  0  0  0  0  0  0  0  0  0  0
    6.4111    4.6194   -1.1077 C   0  0  0  0  0  0  0  0  0  0  0  0
    5.8188    3.3492   -1.2431 C   0  0  0  0  0  0  0  0  0  0  0  0
    5.0649    0.2208   -0.7961 C   0  0  0  0  0  0  0  0  0  0  0  0
    6.2532   -0.0084   -1.4543 C   0  0  0  0  0  0  0  0  0  0  0  0
    7.3391    0.7218   -1.7737 N   0  0  0  0  0  0  0  0  0  0  0  0
    6.2978   -1.3163   -1.8433 O   0  0  0  0  0  0  0  0  0  0  0  0
    5.1742   -1.9896   -1.4037 N   0  0  0  0  0  0  0  0  0  0  0  0
    4.4424   -1.0760   -0.7640 C   0  0  0  0  0  0  0  0  0  0  0  0
    3.2626   -1.3036   -0.1286 N   0  0  0  0  0  0  0  0  0  0  0  0
    1.1267    0.5336    1.6998 H   0  0  0  0  0  0  0  0  0  0  0  0
    1.6227   -1.1368    2.0051 H   0  0  0  0  0  0  0  0  0  0  0  0
    0.6779   -0.7370    0.5463 H   0  0  0  0  0  0  0  0  0  0  0  0
    2.7794    1.9165    0.8957 H   0  0  0  0  0  0  0  0  0  0  0  0
    4.5806    3.0409    1.8991 H   0  0  0  0  0  0  0  0  0  0  0  0
    5.4533    5.2325    2.0940 H   0  0  0  0  0  0  0  0  0  0  0  0
    7.4067    6.9503   -0.6120 H   0  0  0  0  0  0  0  0  0  0  0  0
    7.0920    9.0645    0.2100 H   0  0  0  0  0  0  0  0  0  0  0  0
    8.4632    8.1602    3.5178 H   0  0  0  0  0  0  0  0  0  0  0  0
    8.6147    9.7333    5.3950 H   0  0  0  0  0  0  0  0  0  0  0  0
    7.8056   12.0672    5.1404 H   0  0  0  0  0  0  0  0  0  0  0  0
    6.8499   12.8198    2.9840 H   0  0  0  0  0  0  0  0  0  0  0  0
    6.9376    5.0413   -1.9599 H   0  0  0  0  0  0  0  0  0  0  0  0
    5.8761    2.8549   -2.2121 H   0  0  0  0  0  0  0  0  0  0  0  0
    7.5887    1.5112   -1.1850 H   0  0  0  0  0  0  0  0  0  0  0  0
    8.1535    0.2152   -2.1127 H   0  0  0  0  0  0  0  0  0  0  0  0
  1  2  1  0  0  0  0
  1 29  1  0  0  0  0
  1 30  1  0  0  0  0
  1 31  1  0  0  0  0
  2  3  1  0  0  0  0
  2 28  2  0  0  0  0
  3  4  2  0  0  0  0
  3 32  1  0  0  0  0
  4  5  1  0  0  0  0
  4 22  1  0  0  0  0
  5  6  1  0  0  0  0
  5 21  2  0  0  0  0
  6  7  2  0  0  0  0
  6 33  1  0  0  0  0
  7  8  1  0  0  0  0
  7 34  1  0  0  0  0
  8  9  1  0  0  0  0
  8 20  2  0  0  0  0
  9 10  1  0  0  0  0
  9 35  1  0  0  0  0
 10 11  2  0  0  0  0
 10 12  1  0  0  0  0
 12 13  1  0  0  0  0
 12 36  1  0  0  0  0
 13 14  1  0  0  0  0
 13 18  2  0  0  0  0
 14 15  2  0  0  0  0
 14 37  1  0  0  0  0
 15 16  1  0  0  0  0
 15 38  1  0  0  0  0
 16 17  2  0  0  0  0
 16 39  1  0  0  0  0
 17 18  1  0  0  0  0
 17 40  1  0  0  0  0
 18 19  1  0  0  0  0
 20 21  1  0  0  0  0
 20 41  1  0  0  0  0
 21 42  1  0  0  0  0
 22 23  2  0  0  0  0
 22 27  1  0  0  0  0
 23 24  1  0  0  0  0
 23 25  1  0  0  0  0
 24 43  1  0  0  0  0
 24 44  1  0  0  0  0
 25 26  1  0  0  0  0
 26 27  2  0  0  0  0
 27 28  1  0  0  0  0
M  END
$$$$
