CHEMBL365140
 OpenBabel04072215373D

 63 65  0  0  0  0  0  0  0  0999 V2000
    1.5789    0.1166   -5.0409 C   0  0  0  0  0  0  0  0  0  0  0  0
    2.7885   -0.6076   -4.8539 O   0  0  0  0  0  0  0  0  0  0  0  0
    2.9858   -1.1342   -3.6057 C   0  0  0  0  0  0  0  0  0  0  0  0
    1.9777   -1.4602   -2.6990 C   0  0  0  0  0  0  0  0  0  0  0  0
    2.3120   -2.0416   -1.4801 C   0  0  0  0  0  0  0  0  0  0  0  0
    1.4114   -2.4791   -0.5447 O   0  0  0  0  0  0  0  0  0  0  0  0
    0.1545   -2.9139   -1.0599 C   0  0  0  0  0  0  0  0  0  0  0  0
    3.6570   -2.2279   -1.1473 C   0  0  0  0  0  0  0  0  0  0  0  0
    4.6982   -1.9608   -2.0627 C   0  0  0  0  0  0  0  0  0  0  0  0
    6.0925   -2.3910   -1.7787 C   0  0  0  0  0  0  0  0  0  0  0  0
    6.2776   -3.6067   -1.1046 C   0  0  0  0  0  0  0  0  0  0  0  0
    7.5567   -4.1236   -0.8860 C   0  0  0  0  0  0  0  0  0  0  0  0
    7.7787   -5.3194   -0.2342 C   0  0  0  0  0  0  0  0  0  0  0  0
    8.9979   -5.8196   -0.0194 N   0  0  0  0  0  0  0  0  0  0  0  0
   10.0212   -5.0872   -0.4444 C   0  0  0  0  0  0  0  0  0  0  0  0
   11.2575   -5.6518   -0.2421 N   0  0  0  0  0  0  0  0  0  0  0  0
   12.3970   -4.8217    0.0757 C   0  0  0  0  0  0  0  0  0  0  0  0
   13.5183   -5.1686   -0.8982 C   0  0  0  0  0  0  0  0  0  0  0  0
   13.1004   -4.9634   -2.3509 C   0  0  0  0  0  0  0  0  0  0  0  0
   12.7139   -3.6148   -2.5798 O   0  0  0  0  0  0  0  0  0  0  0  0
    9.9020   -3.9239   -1.1098 N   0  0  0  0  0  0  0  0  0  0  0  0
    8.6783   -3.4484   -1.3433 C   0  0  0  0  0  0  0  0  0  0  0  0
    8.5229   -2.3178   -2.0439 N   0  0  0  0  0  0  0  0  0  0  0  0
    7.2807   -1.7815   -2.2196 C   0  0  0  0  0  0  0  0  0  0  0  0
    7.2746   -0.5870   -2.9834 N   0  0  0  0  0  0  0  0  0  0  0  0
    7.1960    0.6157   -2.3033 C   0  0  0  0  0  0  0  0  0  0  0  0
    7.1248    0.7219   -1.0880 O   0  0  0  0  0  0  0  0  0  0  0  0
    7.2665    1.6915   -3.1762 N   0  0  0  0  0  0  0  0  0  0  0  0
    7.4204    3.0992   -2.7485 C   0  0  0  0  0  0  0  0  0  0  0  0
    8.8068    3.3079   -2.1133 C   0  0  0  0  0  0  0  0  0  0  0  0
    7.3307    4.0311   -3.9783 C   0  0  0  0  0  0  0  0  0  0  0  0
    6.3202    3.5289   -1.7652 C   0  0  0  0  0  0  0  0  0  0  0  0
    4.3224   -1.4156   -3.2984 C   0  0  0  0  0  0  0  0  0  0  0  0
    1.6038    0.5470   -6.0464 H   0  0  0  0  0  0  0  0  0  0  0  0
    1.5013    0.9393   -4.3222 H   0  0  0  0  0  0  0  0  0  0  0  0
    0.7053   -0.5399   -4.9879 H   0  0  0  0  0  0  0  0  0  0  0  0
    0.9385   -1.2866   -2.9427 H   0  0  0  0  0  0  0  0  0  0  0  0
   -0.3036   -3.5764   -0.3184 H   0  0  0  0  0  0  0  0  0  0  0  0
    0.2608   -3.4880   -1.9880 H   0  0  0  0  0  0  0  0  0  0  0  0
   -0.5105   -2.0576   -1.2060 H   0  0  0  0  0  0  0  0  0  0  0  0
    3.8768   -2.6467   -0.1667 H   0  0  0  0  0  0  0  0  0  0  0  0
    5.4212   -4.1891   -0.7705 H   0  0  0  0  0  0  0  0  0  0  0  0
    6.9621   -5.9317    0.1337 H   0  0  0  0  0  0  0  0  0  0  0  0
   11.1803   -6.5444    0.2278 H   0  0  0  0  0  0  0  0  0  0  0  0
   12.7285   -5.0349    1.1000 H   0  0  0  0  0  0  0  0  0  0  0  0
   12.1802   -3.7466    0.0467 H   0  0  0  0  0  0  0  0  0  0  0  0
   13.8199   -6.2139   -0.7551 H   0  0  0  0  0  0  0  0  0  0  0  0
   14.3870   -4.5404   -0.6709 H   0  0  0  0  0  0  0  0  0  0  0  0
   12.2717   -5.6215   -2.6357 H   0  0  0  0  0  0  0  0  0  0  0  0
   13.9388   -5.1964   -3.0126 H   0  0  0  0  0  0  0  0  0  0  0  0
   11.8161   -3.5106   -2.1987 H   0  0  0  0  0  0  0  0  0  0  0  0
    8.0974   -0.5515   -3.5710 H   0  0  0  0  0  0  0  0  0  0  0  0
    6.8256    1.5262   -4.0712 H   0  0  0  0  0  0  0  0  0  0  0  0
    9.6041    3.0664   -2.8272 H   0  0  0  0  0  0  0  0  0  0  0  0
    8.9528    2.6723   -1.2352 H   0  0  0  0  0  0  0  0  0  0  0  0
    8.9487    4.3488   -1.7988 H   0  0  0  0  0  0  0  0  0  0  0  0
    8.1105    3.8083   -4.7146 H   0  0  0  0  0  0  0  0  0  0  0  0
    7.4453    5.0831   -3.6845 H   0  0  0  0  0  0  0  0  0  0  0  0
    6.3621    3.9350   -4.4816 H   0  0  0  0  0  0  0  0  0  0  0  0
    6.3801    2.9902   -0.8157 H   0  0  0  0  0  0  0  0  0  0  0  0
    5.3251    3.3510   -2.1875 H   0  0  0  0  0  0  0  0  0  0  0  0
    6.3992    4.5961   -1.5266 H   0  0  0  0  0  0  0  0  0  0  0  0
    5.0657   -1.2245   -4.0676 H   0  0  0  0  0  0  0  0  0  0  0  0
  1  2  1  0  0  0  0
  1 34  1  0  0  0  0
  1 35  1  0  0  0  0
  1 36  1  0  0  0  0
  2  3  1  0  0  0  0
  3  4  1  0  0  0  0
  3 33  2  0  0  0  0
  4  5  2  0  0  0  0
  4 37  1  0  0  0  0
  5  6  1  0  0  0  0
  5  8  1  0  0  0  0
  6  7  1  0  0  0  0
  7 38  1  0  0  0  0
  7 39  1  0  0  0  0
  7 40  1  0  0  0  0
  8  9  2  0  0  0  0
  8 41  1  0  0  0  0
  9 10  1  0  0  0  0
  9 33  1  0  0  0  0
 10 11  1  0  0  0  0
 10 24  2  0  0  0  0
 11 12  2  0  0  0  0
 11 42  1  0  0  0  0
 12 13  1  0  0  0  0
 12 22  1  0  0  0  0
 13 14  2  0  0  0  0
 13 43  1  0  0  0  0
 14 15  1  0  0  0  0
 15 16  1  0  0  0  0
 15 21  2  0  0  0  0
 16 17  1  0  0  0  0
 16 44  1  0  0  0  0
 17 18  1  0  0  0  0
 17 45  1  0  0  0  0
 17 46  1  0  0  0  0
 18 19  1  0  0  0  0
 18 47  1  0  0  0  0
 18 48  1  0  0  0  0
 19 20  1  0  0  0  0
 19 49  1  0  0  0  0
 19 50  1  0  0  0  0
 20 51  1  0  0  0  0
 21 22  1  0  0  0  0
 22 23  2  0  0  0  0
 23 24  1  0  0  0  0
 24 25  1  0  0  0  0
 25 26  1  0  0  0  0
 25 52  1  0  0  0  0
 26 27  2  0  0  0  0
 26 28  1  0  0  0  0
 28 29  1  0  0  0  0
 28 53  1  0  0  0  0
 29 30  1  0  0  0  0
 29 31  1  0  0  0  0
 29 32  1  0  0  0  0
 30 54  1  0  0  0  0
 30 55  1  0  0  0  0
 30 56  1  0  0  0  0
 31 57  1  0  0  0  0
 31 58  1  0  0  0  0
 31 59  1  0  0  0  0
 32 60  1  0  0  0  0
 32 61  1  0  0  0  0
 32 62  1  0  0  0  0
 33 63  1  0  0  0  0
M  END
$$$$
