CHEMBL3924346
 OpenBabel04072215373D

 63 66  0  0  1  0  0  0  0  0999 V2000
   -0.3174   -5.7313    0.7137 C   0  0  0  0  0  0  0  0  0  0  0  0
   -0.0703   -4.8433   -0.5127 C   0  0  1  0  0  0  0  0  0  0  0  0
    1.3746   -4.6451   -0.7296 N   0  0  0  0  0  0  0  0  0  0  0  0
    2.0082   -3.8864    0.2725 C   0  0  0  0  0  0  0  0  0  0  0  0
    1.3157   -2.9760    0.9988 N   0  0  0  0  0  0  0  0  0  0  0  0
    1.9537   -2.3055    1.9805 C   0  0  0  0  0  0  0  0  0  0  0  0
    3.2414   -2.3994    2.3530 N   0  0  0  0  0  0  0  0  0  0  0  0
    3.8948   -3.2965    1.6016 C   0  0  0  0  0  0  0  0  0  0  0  0
    5.2136   -3.6278    1.7553 N   0  0  0  0  0  0  0  0  0  0  0  0
    5.5738   -4.6075    0.8539 C   0  0  0  0  0  0  0  0  0  0  0  0
    6.8963   -5.2366    0.8105 C   0  0  0  0  0  0  0  0  0  0  0  0
    7.0019   -6.5593    0.3732 C   0  0  0  0  0  0  0  0  0  0  0  0
    8.2404   -7.2004    0.2976 C   0  0  0  0  0  0  0  0  0  0  0  0
    9.4128   -6.5394    0.6572 C   0  0  0  0  0  0  0  0  0  0  0  0
   10.6893   -7.1446    0.5985 N   0  0  0  0  0  0  0  0  0  0  0  0
   10.9723   -8.4109    0.1144 C   0  0  0  0  0  0  0  0  0  0  0  0
   10.1707   -9.2091   -0.3631 O   0  0  0  0  0  0  0  0  0  0  0  0
   12.4209   -8.8239    0.2817 C   0  0  0  0  0  0  0  0  0  0  0  0
   12.6916   -9.4034    1.6699 C   0  0  0  0  0  0  0  0  0  0  0  0
   11.8211  -10.6268    1.9865 C   0  0  0  0  0  0  0  0  0  0  0  0
   12.1167  -11.1881    3.3745 C   0  0  0  0  0  0  0  0  0  0  0  0
   11.2447  -12.3803    3.7016 C   0  0  0  0  0  0  0  0  0  0  0  0
   11.7007  -13.4992    3.9305 O   0  0  0  0  0  0  0  0  0  0  0  0
    9.9011  -12.1173    3.7600 N   0  0  0  0  0  0  0  0  0  0  0  0
    9.0535  -13.2025    4.0688 O   0  0  0  0  0  0  0  0  0  0  0  0
    9.3170   -5.2165    1.1075 C   0  0  0  0  0  0  0  0  0  0  0  0
    8.0691   -4.5690    1.1824 C   0  0  0  0  0  0  0  0  0  0  0  0
    4.4343   -4.8756    0.1034 C   0  0  0  0  0  0  0  0  0  0  0  0
    3.3724   -4.0558    0.5696 C   0  0  0  0  0  0  0  0  0  0  0  0
   -0.7245   -5.4978   -1.7293 C   0  0  0  0  0  0  0  0  0  0  0  0
   -2.0766   -5.2194   -2.0083 C   0  0  0  0  0  0  0  0  0  0  0  0
   -2.7429   -5.8558   -3.0576 C   0  0  0  0  0  0  0  0  0  0  0  0
   -2.0686   -6.7785   -3.8517 C   0  0  0  0  0  0  0  0  0  0  0  0
   -0.7292   -7.0650   -3.5944 C   0  0  0  0  0  0  0  0  0  0  0  0
   -0.0616   -6.4349   -2.5367 C   0  0  0  0  0  0  0  0  0  0  0  0
    0.0312   -5.2534    1.6349 H   0  0  0  0  0  0  0  0  0  0  0  0
    0.2075   -6.6895    0.6250 H   0  0  0  0  0  0  0  0  0  0  0  0
   -1.3844   -5.9426    0.8439 H   0  0  0  0  0  0  0  0  0  0  0  0
   -0.5566   -3.8683   -0.3756 H   0  0  0  0  0  0  0  0  0  0  0  0
    1.5087   -4.1314   -1.5990 H   0  0  0  0  0  0  0  0  0  0  0  0
    1.3458   -1.6048    2.5449 H   0  0  0  0  0  0  0  0  0  0  0  0
    5.8029   -3.2359    2.4735 H   0  0  0  0  0  0  0  0  0  0  0  0
    6.1175   -7.1241    0.0879 H   0  0  0  0  0  0  0  0  0  0  0  0
    8.2361   -8.2268   -0.0509 H   0  0  0  0  0  0  0  0  0  0  0  0
   11.4710   -6.5748    0.8982 H   0  0  0  0  0  0  0  0  0  0  0  0
   13.0711   -7.9615    0.0976 H   0  0  0  0  0  0  0  0  0  0  0  0
   12.6515   -9.5620   -0.4962 H   0  0  0  0  0  0  0  0  0  0  0  0
   12.5277   -8.6328    2.4309 H   0  0  0  0  0  0  0  0  0  0  0  0
   13.7500   -9.6929    1.7237 H   0  0  0  0  0  0  0  0  0  0  0  0
   11.9798  -11.4066    1.2309 H   0  0  0  0  0  0  0  0  0  0  0  0
   10.7633  -10.3490    1.9303 H   0  0  0  0  0  0  0  0  0  0  0  0
   11.9567  -10.4245    4.1445 H   0  0  0  0  0  0  0  0  0  0  0  0
   13.1648  -11.5030    3.4380 H   0  0  0  0  0  0  0  0  0  0  0  0
    9.4628  -11.2204    3.5837 H   0  0  0  0  0  0  0  0  0  0  0  0
    9.6909  -13.9441    4.1631 H   0  0  0  0  0  0  0  0  0  0  0  0
   10.2063   -4.6610    1.3956 H   0  0  0  0  0  0  0  0  0  0  0  0
    8.0397   -3.5338    1.5137 H   0  0  0  0  0  0  0  0  0  0  0  0
    4.3562   -5.6095   -0.6887 H   0  0  0  0  0  0  0  0  0  0  0  0
   -2.6291   -4.5159   -1.3878 H   0  0  0  0  0  0  0  0  0  0  0  0
   -3.7914   -5.6398   -3.2471 H   0  0  0  0  0  0  0  0  0  0  0  0
   -2.5877   -7.2806   -4.6641 H   0  0  0  0  0  0  0  0  0  0  0  0
   -0.2045   -7.7913   -4.2105 H   0  0  0  0  0  0  0  0  0  0  0  0
    0.9751   -6.6954   -2.3384 H   0  0  0  0  0  0  0  0  0  0  0  0
  1  2  1  0  0  0  0
  1 36  1  0  0  0  0
  1 37  1  0  0  0  0
  1 38  1  0  0  0  0
  2  3  1  0  0  0  0
  2 30  1  0  0  0  0
  2 39  1  1  0  0  0
  3  4  1  0  0  0  0
  3 40  1  0  0  0  0
  4  5  1  0  0  0  0
  4 29  2  0  0  0  0
  5  6  2  0  0  0  0
  6  7  1  0  0  0  0
  6 41  1  0  0  0  0
  7  8  2  0  0  0  0
  8  9  1  0  0  0  0
  8 29  1  0  0  0  0
  9 10  1  0  0  0  0
  9 42  1  0  0  0  0
 10 11  1  0  0  0  0
 10 28  2  0  0  0  0
 11 12  1  0  0  0  0
 11 27  2  0  0  0  0
 12 13  2  0  0  0  0
 12 43  1  0  0  0  0
 13 14  1  0  0  0  0
 13 44  1  0  0  0  0
 14 15  1  0  0  0  0
 14 26  2  0  0  0  0
 15 16  1  0  0  0  0
 15 45  1  0  0  0  0
 16 17  2  0  0  0  0
 16 18  1  0  0  0  0
 18 19  1  0  0  0  0
 18 46  1  0  0  0  0
 18 47  1  0  0  0  0
 19 20  1  0  0  0  0
 19 48  1  0  0  0  0
 19 49  1  0  0  0  0
 20 21  1  0  0  0  0
 20 50  1  0  0  0  0
 20 51  1  0  0  0  0
 21 22  1  0  0  0  0
 21 52  1  0  0  0  0
 21 53  1  0  0  0  0
 22 23  2  0  0  0  0
 22 24  1  0  0  0  0
 24 25  1  0  0  0  0
 24 54  1  0  0  0  0
 25 55  1  0  0  0  0
 26 27  1  0  0  0  0
 26 56  1  0  0  0  0
 27 57  1  0  0  0  0
 28 29  1  0  0  0  0
 28 58  1  0  0  0  0
 30 31  1  0  0  0  0
 30 35  2  0  0  0  0
 31 32  2  0  0  0  0
 31 59  1  0  0  0  0
 32 33  1  0  0  0  0
 32 60  1  0  0  0  0
 33 34  2  0  0  0  0
 33 61  1  0  0  0  0
 34 35  1  0  0  0  0
 34 62  1  0  0  0  0
 35 63  1  0  0  0  0
M  END
$$$$
