CHEMBL260138
 OpenBabel04072215363D

 40 43  0  0  0  0  0  0  0  0999 V2000
    4.5487   -4.0375    0.9869 N   0  0  0  0  0  0  0  0  0  0  0  0
    4.2254   -2.9476    0.7512 C   0  0  0  0  0  0  0  0  0  0  0  0
    3.8422   -1.5670    0.4198 C   0  0  0  0  0  0  0  0  0  0  0  0
    4.4128   -1.1234   -0.9295 C   0  0  0  0  0  0  0  0  0  0  0  0
    5.9228   -1.1036   -0.9485 C   0  0  0  0  0  0  0  0  0  0  0  0
    6.6317    0.0120   -0.5019 C   0  0  0  0  0  0  0  0  0  0  0  0
    8.0270   -0.0085   -0.4793 C   0  0  0  0  0  0  0  0  0  0  0  0
    8.7425   -1.1252   -0.9374 C   0  0  0  0  0  0  0  0  0  0  0  0
    8.0368   -2.2710   -1.3660 C   0  0  0  0  0  0  0  0  0  0  0  0
    6.6330   -2.2378   -1.3704 C   0  0  0  0  0  0  0  0  0  0  0  0
    8.7152   -3.4923   -1.8024 C   0  0  0  0  0  0  0  0  0  0  0  0
    8.2834   -4.7780   -1.5701 N   0  0  0  0  0  0  0  0  0  0  0  0
    9.1493   -5.6886   -2.1404 C   0  0  0  0  0  0  0  0  0  0  0  0
    9.1033   -7.0886   -2.1710 C   0  0  0  0  0  0  0  0  0  0  0  0
   10.1382   -7.7586   -2.8324 C   0  0  0  0  0  0  0  0  0  0  0  0
   11.1792   -7.0405   -3.4332 C   0  0  0  0  0  0  0  0  0  0  0  0
   12.2544   -7.7581   -4.1334 N   0  3  0  0  0  0  0  0  0  0  0  0
   12.2057   -8.9976   -4.1500 O   0  0  0  0  0  0  0  0  0  0  0  0
   13.1409   -7.0840   -4.6774 O   0  5  0  0  0  0  0  0  0  0  0  0
   11.2184   -5.6399   -3.3909 C   0  0  0  0  0  0  0  0  0  0  0  0
   10.1809   -4.9565   -2.7294 C   0  0  0  0  0  0  0  0  0  0  0  0
    9.9100   -3.5830   -2.4874 C   0  0  0  0  0  0  0  0  0  0  0  0
   10.7154   -2.4019   -2.8732 C   0  0  0  0  0  0  0  0  0  0  0  0
   11.1149   -1.6039   -1.6508 C   0  0  0  0  0  0  0  0  0  0  0  0
   12.3000   -1.3834   -1.3875 O   0  0  0  0  0  0  0  0  0  0  0  0
   10.1477   -0.9995   -0.8920 N   0  0  0  0  0  0  0  0  0  0  0  0
    4.1752   -0.8888    1.2141 H   0  0  0  0  0  0  0  0  0  0  0  0
    2.7490   -1.5006    0.3789 H   0  0  0  0  0  0  0  0  0  0  0  0
    4.0408   -0.1188   -1.1689 H   0  0  0  0  0  0  0  0  0  0  0  0
    4.0465   -1.7755   -1.7335 H   0  0  0  0  0  0  0  0  0  0  0  0
    6.1107    0.9099   -0.1766 H   0  0  0  0  0  0  0  0  0  0  0  0
    8.5542    0.8813   -0.1410 H   0  0  0  0  0  0  0  0  0  0  0  0
    6.0770   -3.1090   -1.7141 H   0  0  0  0  0  0  0  0  0  0  0  0
    7.4533   -5.0271   -1.0451 H   0  0  0  0  0  0  0  0  0  0  0  0
    8.2966   -7.6408   -1.6983 H   0  0  0  0  0  0  0  0  0  0  0  0
   10.1182   -8.8477   -2.8677 H   0  0  0  0  0  0  0  0  0  0  0  0
   12.0247   -5.0789   -3.8543 H   0  0  0  0  0  0  0  0  0  0  0  0
   10.1468   -1.7491   -3.5463 H   0  0  0  0  0  0  0  0  0  0  0  0
   11.6235   -2.6972   -3.4083 H   0  0  0  0  0  0  0  0  0  0  0  0
   10.5378   -0.3174   -0.2534 H   0  0  0  0  0  0  0  0  0  0  0  0
  1  2  3  0  0  0  0
  2  3  1  0  0  0  0
  3  4  1  0  0  0  0
  3 27  1  0  0  0  0
  3 28  1  0  0  0  0
  4  5  1  0  0  0  0
  4 29  1  0  0  0  0
  4 30  1  0  0  0  0
  5  6  1  0  0  0  0
  5 10  2  0  0  0  0
  6  7  2  0  0  0  0
  6 31  1  0  0  0  0
  7  8  1  0  0  0  0
  7 32  1  0  0  0  0
  8  9  2  0  0  0  0
  8 26  1  0  0  0  0
  9 10  1  0  0  0  0
  9 11  1  0  0  0  0
 10 33  1  0  0  0  0
 11 12  1  0  0  0  0
 11 22  2  0  0  0  0
 12 13  1  0  0  0  0
 12 34  1  0  0  0  0
 13 14  1  0  0  0  0
 13 21  2  0  0  0  0
 14 15  2  0  0  0  0
 14 35  1  0  0  0  0
 15 16  1  0  0  0  0
 15 36  1  0  0  0  0
 16 17  1  0  0  0  0
 16 20  2  0  0  0  0
 17 18  2  0  0  0  0
 17 19  1  0  0  0  0
 20 21  1  0  0  0  0
 20 37  1  0  0  0  0
 21 22  1  0  0  0  0
 22 23  1  0  0  0  0
 23 24  1  0  0  0  0
 23 38  1  0  0  0  0
 23 39  1  0  0  0  0
 24 25  2  0  0  0  0
 24 26  1  0  0  0  0
 26 40  1  0  0  0  0
M  CHG  2  17   1  19  -1
M  END
$$$$
