CHEMBL1969102
 OpenBabel04072215363D

 52 56  0  0  0  0  0  0  0  0999 V2000
    2.3737   -0.4264    1.5802 C   0  0  0  0  0  0  0  0  0  0  0  0
    0.8791   -0.3053    1.5438 C   0  0  0  0  0  0  0  0  0  0  0  0
    0.2665    0.8810    1.9642 C   0  0  0  0  0  0  0  0  0  0  0  0
   -1.1134    0.9960    1.9325 C   0  0  0  0  0  0  0  0  0  0  0  0
   -1.8980   -0.0695    1.4915 C   0  0  0  0  0  0  0  0  0  0  0  0
   -1.3169   -1.2640    1.0542 C   0  0  0  0  0  0  0  0  0  0  0  0
   -2.0771   -2.3731    0.5967 N   0  0  0  0  0  0  0  0  0  0  0  0
   -3.4425   -2.3782    0.3919 C   0  0  0  0  0  0  0  0  0  0  0  0
   -4.1743   -1.4029    0.5071 O   0  0  0  0  0  0  0  0  0  0  0  0
   -3.9306   -3.6494    0.0865 N   0  0  0  0  0  0  0  0  0  0  0  0
   -5.3192   -3.8317   -0.1409 C   0  0  0  0  0  0  0  0  0  0  0  0
   -6.0508   -2.9129   -0.8946 C   0  0  0  0  0  0  0  0  0  0  0  0
   -7.4442   -2.9797   -0.9358 C   0  0  0  0  0  0  0  0  0  0  0  0
   -8.1393   -3.9943   -0.2598 C   0  0  0  0  0  0  0  0  0  0  0  0
   -9.6131   -3.9802   -0.2274 C   0  0  0  0  0  0  0  0  0  0  0  0
  -10.2881   -3.5949   -1.3685 C   0  0  0  0  0  0  0  0  0  0  0  0
  -11.9598   -3.5212   -1.1687 S   0  0  0  0  0  0  0  0  0  0  0  0
  -11.8918   -4.1124    0.4545 C   0  0  0  0  0  0  0  0  0  0  0  0
  -12.9817   -4.3746    1.3183 C   0  0  0  0  0  0  0  0  0  0  0  0
  -14.3723   -4.2227    0.9217 C   0  0  0  0  0  0  0  0  0  0  0  0
  -15.0345   -4.4146   -0.3153 C   0  0  0  0  0  0  0  0  0  0  0  0
  -16.3476   -4.1799   -0.2479 N   0  0  0  0  0  0  0  0  0  0  0  0
  -16.5413   -3.8451    1.0345 N   0  0  0  0  0  0  0  0  0  0  0  0
  -15.3963   -3.8652    1.7785 C   0  0  0  0  0  0  0  0  0  0  0  0
  -12.6346   -4.7968    2.5899 C   0  0  0  0  0  0  0  0  0  0  0  0
  -11.3772   -4.9430    3.0381 N   0  0  0  0  0  0  0  0  0  0  0  0
  -10.3372   -4.6835    2.2225 C   0  0  0  0  0  0  0  0  0  0  0  0
   -9.1016   -4.8220    2.8430 N   0  0  0  0  0  0  0  0  0  0  0  0
  -10.5493   -4.2817    0.8709 C   0  0  0  0  0  0  0  0  0  0  0  0
   -7.3856   -4.9884    0.3768 C   0  0  0  0  0  0  0  0  0  0  0  0
   -5.9848   -4.9030    0.4517 C   0  0  0  0  0  0  0  0  0  0  0  0
    0.0813   -1.3720    1.0867 C   0  0  0  0  0  0  0  0  0  0  0  0
    2.8351    0.4875    1.9715 H   0  0  0  0  0  0  0  0  0  0  0  0
    2.7673   -0.5933    0.5731 H   0  0  0  0  0  0  0  0  0  0  0  0
    2.6699   -1.2528    2.2329 H   0  0  0  0  0  0  0  0  0  0  0  0
    0.8602    1.7202    2.3127 H   0  0  0  0  0  0  0  0  0  0  0  0
   -1.5973    1.9146    2.2597 H   0  0  0  0  0  0  0  0  0  0  0  0
   -2.9713    0.0821    1.5035 H   0  0  0  0  0  0  0  0  0  0  0  0
   -1.5667   -3.1802    0.2712 H   0  0  0  0  0  0  0  0  0  0  0  0
   -3.4460   -4.4095    0.5402 H   0  0  0  0  0  0  0  0  0  0  0  0
   -5.5508   -2.0999   -1.4173 H   0  0  0  0  0  0  0  0  0  0  0  0
   -7.9689   -2.1954   -1.4769 H   0  0  0  0  0  0  0  0  0  0  0  0
   -9.8728   -3.3188   -2.3286 H   0  0  0  0  0  0  0  0  0  0  0  0
  -14.6220   -4.7240   -1.2666 H   0  0  0  0  0  0  0  0  0  0  0  0
  -17.4844   -3.6209    1.3351 H   0  0  0  0  0  0  0  0  0  0  0  0
  -15.4222   -3.6191    2.8307 H   0  0  0  0  0  0  0  0  0  0  0  0
  -13.3929   -5.0428    3.3290 H   0  0  0  0  0  0  0  0  0  0  0  0
   -9.2535   -4.9099    3.8429 H   0  0  0  0  0  0  0  0  0  0  0  0
   -8.4404   -4.1023    2.5782 H   0  0  0  0  0  0  0  0  0  0  0  0
   -7.8793   -5.8224    0.8713 H   0  0  0  0  0  0  0  0  0  0  0  0
   -5.4477   -5.6369    1.0455 H   0  0  0  0  0  0  0  0  0  0  0  0
    0.5663   -2.2893    0.7603 H   0  0  0  0  0  0  0  0  0  0  0  0
  1  2  1  0  0  0  0
  1 33  1  0  0  0  0
  1 34  1  0  0  0  0
  1 35  1  0  0  0  0
  2  3  1  0  0  0  0
  2 32  2  0  0  0  0
  3  4  2  0  0  0  0
  3 36  1  0  0  0  0
  4  5  1  0  0  0  0
  4 37  1  0  0  0  0
  5  6  2  0  0  0  0
  5 38  1  0  0  0  0
  6  7  1  0  0  0  0
  6 32  1  0  0  0  0
  7  8  1  0  0  0  0
  7 39  1  0  0  0  0
  8  9  2  0  0  0  0
  8 10  1  0  0  0  0
 10 11  1  0  0  0  0
 10 40  1  0  0  0  0
 11 12  1  0  0  0  0
 11 31  2  0  0  0  0
 12 13  2  0  0  0  0
 12 41  1  0  0  0  0
 13 14  1  0  0  0  0
 13 42  1  0  0  0  0
 14 15  1  0  0  0  0
 14 30  2  0  0  0  0
 15 16  2  0  0  0  0
 15 29  1  0  0  0  0
 16 17  1  0  0  0  0
 16 43  1  0  0  0  0
 17 18  1  0  0  0  0
 18 19  1  0  0  0  0
 18 29  2  0  0  0  0
 19 20  1  0  0  0  0
 19 25  2  0  0  0  0
 20 21  1  0  0  0  0
 20 24  2  0  0  0  0
 21 22  2  0  0  0  0
 21 44  1  0  0  0  0
 22 23  1  0  0  0  0
 23 24  1  0  0  0  0
 23 45  1  0  0  0  0
 24 46  1  0  0  0  0
 25 26  1  0  0  0  0
 25 47  1  0  0  0  0
 26 27  2  0  0  0  0
 27 28  1  0  0  0  0
 27 29  1  0  0  0  0
 28 48  1  0  0  0  0
 28 49  1  0  0  0  0
 30 31  1  0  0  0  0
 30 50  1  0  0  0  0
 31 51  1  0  0  0  0
 32 52  1  0  0  0  0
M  END
$$$$
