CHEMBL4476000
 OpenBabel04072215383D

 44 47  0  0  0  0  0  0  0  0999 V2000
   -0.7765    2.1569    0.0703 C   0  0  0  0  0  0  0  0  0  0  0  0
   -0.1443    0.8629   -0.0104 N   0  0  0  0  0  0  0  0  0  0  0  0
    1.1901    0.6050   -0.1472 C   0  0  0  0  0  0  0  0  0  0  0  0
    1.3241   -0.7691   -0.1377 C   0  0  0  0  0  0  0  0  0  0  0  0
    2.5792   -1.4949   -0.2262 C   0  0  0  0  0  0  0  0  0  0  0  0
    2.7048   -2.7539    0.3757 C   0  0  0  0  0  0  0  0  0  0  0  0
    3.9041   -3.4702    0.2968 C   0  0  0  0  0  0  0  0  0  0  0  0
    5.0051   -2.9405   -0.3886 C   0  0  0  0  0  0  0  0  0  0  0  0
    6.3034   -3.7006   -0.4706 C   0  0  0  0  0  0  0  0  0  0  0  0
    6.3622   -4.5660   -1.6340 N   0  0  0  0  0  0  0  0  0  0  0  0
    5.9873   -5.8773   -1.7152 C   0  0  0  0  0  0  0  0  0  0  0  0
    6.4681   -6.2845   -2.9397 C   0  0  0  0  0  0  0  0  0  0  0  0
    6.4227   -7.6303   -3.4771 C   0  0  0  0  0  0  0  0  0  0  0  0
    7.4238   -8.0590   -4.3586 C   0  0  0  0  0  0  0  0  0  0  0  0
    7.4301   -9.3673   -4.8479 C   0  0  0  0  0  0  0  0  0  0  0  0
    6.4300  -10.2613   -4.4664 C   0  0  0  0  0  0  0  0  0  0  0  0
    5.4099   -9.8534   -3.5958 C   0  0  0  0  0  0  0  0  0  0  0  0
    4.3213  -10.8037   -3.1637 C   0  0  0  0  0  0  0  0  0  0  0  0
    4.4589  -12.0617   -3.6669 F   0  0  0  0  0  0  0  0  0  0  0  0
    4.2705  -10.9480   -1.8096 F   0  0  0  0  0  0  0  0  0  0  0  0
    3.0820  -10.3831   -3.5391 F   0  0  0  0  0  0  0  0  0  0  0  0
    5.4138   -8.5322   -3.1114 C   0  0  0  0  0  0  0  0  0  0  0  0
    7.0876   -5.2260   -3.5532 N   0  0  0  0  0  0  0  0  0  0  0  0
    7.0133   -4.1749   -2.7456 N   0  0  0  0  0  0  0  0  0  0  0  0
    4.8784   -1.6862   -0.9992 C   0  0  0  0  0  0  0  0  0  0  0  0
    3.6798   -0.9693   -0.9141 C   0  0  0  0  0  0  0  0  0  0  0  0
   -0.0049   -1.2359    0.0012 C   0  0  0  0  0  0  0  0  0  0  0  0
   -0.8981   -0.2465    0.0800 N   0  0  0  0  0  0  0  0  0  0  0  0
   -0.0326    2.9377   -0.1065 H   0  0  0  0  0  0  0  0  0  0  0  0
   -1.2034    2.2665    1.0702 H   0  0  0  0  0  0  0  0  0  0  0  0
   -1.5595    2.2098   -0.6898 H   0  0  0  0  0  0  0  0  0  0  0  0
    1.9124    1.4057   -0.2201 H   0  0  0  0  0  0  0  0  0  0  0  0
    1.8744   -3.1892    0.9274 H   0  0  0  0  0  0  0  0  0  0  0  0
    3.9666   -4.4416    0.7829 H   0  0  0  0  0  0  0  0  0  0  0  0
    6.4417   -4.3290    0.4174 H   0  0  0  0  0  0  0  0  0  0  0  0
    7.1585   -3.0154   -0.5103 H   0  0  0  0  0  0  0  0  0  0  0  0
    5.4834   -6.3889   -0.9096 H   0  0  0  0  0  0  0  0  0  0  0  0
    8.2195   -7.3782   -4.6577 H   0  0  0  0  0  0  0  0  0  0  0  0
    8.2214   -9.6890   -5.5213 H   0  0  0  0  0  0  0  0  0  0  0  0
    6.4520  -11.2799   -4.8518 H   0  0  0  0  0  0  0  0  0  0  0  0
    4.6123   -8.2154   -2.4453 H   0  0  0  0  0  0  0  0  0  0  0  0
    5.7129   -1.2556   -1.5511 H   0  0  0  0  0  0  0  0  0  0  0  0
    3.6167   -0.0025   -1.4078 H   0  0  0  0  0  0  0  0  0  0  0  0
   -0.3583   -2.2577    0.0464 H   0  0  0  0  0  0  0  0  0  0  0  0
  1  2  1  0  0  0  0
  1 29  1  0  0  0  0
  1 30  1  0  0  0  0
  1 31  1  0  0  0  0
  2  3  1  0  0  0  0
  2 28  1  0  0  0  0
  3  4  2  0  0  0  0
  3 32  1  0  0  0  0
  4  5  1  0  0  0  0
  4 27  1  0  0  0  0
  5  6  1  0  0  0  0
  5 26  2  0  0  0  0
  6  7  2  0  0  0  0
  6 33  1  0  0  0  0
  7  8  1  0  0  0  0
  7 34  1  0  0  0  0
  8  9  1  0  0  0  0
  8 25  2  0  0  0  0
  9 10  1  0  0  0  0
  9 35  1  0  0  0  0
  9 36  1  0  0  0  0
 10 11  1  0  0  0  0
 10 24  1  0  0  0  0
 11 12  2  0  0  0  0
 11 37  1  0  0  0  0
 12 13  1  0  0  0  0
 12 23  1  0  0  0  0
 13 14  1  0  0  0  0
 13 22  2  0  0  0  0
 14 15  2  0  0  0  0
 14 38  1  0  0  0  0
 15 16  1  0  0  0  0
 15 39  1  0  0  0  0
 16 17  2  0  0  0  0
 16 40  1  0  0  0  0
 17 18  1  0  0  0  0
 17 22  1  0  0  0  0
 18 19  1  0  0  0  0
 18 20  1  0  0  0  0
 18 21  1  0  0  0  0
 22 41  1  0  0  0  0
 23 24  2  0  0  0  0
 25 26  1  0  0  0  0
 25 42  1  0  0  0  0
 26 43  1  0  0  0  0
 27 28  2  0  0  0  0
 27 44  1  0  0  0  0
M  END
$$$$
