CHEMBL198022
 OpenBabel04072215363D

 19 20  0  0  0  0  0  0  0  0999 V2000
    1.0967   -0.0277   -0.0530 C   0  0  0  0  0  0  0  0  0  0  0  0
    2.5740   -0.0108   -0.0537 C   0  0  0  0  0  0  0  0  0  0  0  0
    3.2687   -1.1775   -0.0560 N   0  0  0  0  0  0  0  0  0  0  0  0
    4.5742   -0.7936   -0.0543 N   0  0  0  0  0  0  0  0  0  0  0  0
    4.6978    0.5456   -0.0528 C   0  0  0  0  0  0  0  0  0  0  0  0
    5.9205    1.6523   -0.0515 S   0  0  0  0  0  0  0  0  0  0  0  0
    4.7305    2.9511   -0.0503 C   0  0  0  0  0  0  0  0  0  0  0  0
    5.1695    4.3375   -0.0499 C   0  0  0  0  0  0  0  0  0  0  0  0
    6.5228    4.5456   -0.0477 N   0  0  0  0  0  0  0  0  0  0  0  0
    4.4121    5.3051   -0.0504 O   0  0  0  0  0  0  0  0  0  0  0  0
    3.4185    2.4497   -0.0517 C   0  0  0  0  0  0  0  0  0  0  0  0
    3.4682    1.0570   -0.0530 C   0  0  0  0  0  0  0  0  0  0  0  0
    0.7098   -1.0536   -0.0534 H   0  0  0  0  0  0  0  0  0  0  0  0
    0.7065    0.4766   -0.9416 H   0  0  0  0  0  0  0  0  0  0  0  0
    0.7074    0.4755    0.8366 H   0  0  0  0  0  0  0  0  0  0  0  0
    5.2987   -1.5056   -0.0549 H   0  0  0  0  0  0  0  0  0  0  0  0
    7.1749    3.7724   -0.0477 H   0  0  0  0  0  0  0  0  0  0  0  0
    6.8688    5.4929   -0.0480 H   0  0  0  0  0  0  0  0  0  0  0  0
    2.5331    3.0748   -0.0513 H   0  0  0  0  0  0  0  0  0  0  0  0
  1  2  1  0  0  0  0
  1 13  1  0  0  0  0
  1 14  1  0  0  0  0
  1 15  1  0  0  0  0
  2  3  2  0  0  0  0
  2 12  1  0  0  0  0
  3  4  1  0  0  0  0
  4  5  1  0  0  0  0
  4 16  1  0  0  0  0
  5  6  1  0  0  0  0
  5 12  2  0  0  0  0
  6  7  1  0  0  0  0
  7  8  1  0  0  0  0
  7 11  2  0  0  0  0
  8  9  1  0  0  0  0
  8 10  2  0  0  0  0
  9 17  1  0  0  0  0
  9 18  1  0  0  0  0
 11 12  1  0  0  0  0
 11 19  1  0  0  0  0
M  END
$$$$
