CHEMBL205464
 OpenBabel04072215363D

 53 57  0  0  0  0  0  0  0  0999 V2000
    1.3212   -0.2755    1.8993 C   0  0  0  0  0  0  0  0  0  0  0  0
    0.3169   -0.2128    0.8648 N   0  0  0  0  0  0  0  0  0  0  0  0
   -0.4321    0.8948    0.5719 C   0  0  0  0  0  0  0  0  0  0  0  0
   -1.2786    0.6629   -0.4061 N   0  0  0  0  0  0  0  0  0  0  0  0
   -1.0196   -0.6168   -0.7960 C   0  0  0  0  0  0  0  0  0  0  0  0
   -1.6466   -1.1795   -1.8402 N   0  0  0  0  0  0  0  0  0  0  0  0
   -3.0338   -0.8824   -2.1381 C   0  0  0  0  0  0  0  0  0  0  0  0
   -3.7746   -2.1221   -2.6056 C   0  0  0  0  0  0  0  0  0  0  0  0
   -3.5046   -3.3960   -2.0880 C   0  0  0  0  0  0  0  0  0  0  0  0
   -4.2390   -4.4802   -2.5437 C   0  0  0  0  0  0  0  0  0  0  0  0
   -5.2357   -4.3860   -3.4485 N   0  0  0  0  0  0  0  0  0  0  0  0
   -5.5053   -3.1500   -3.9158 C   0  0  0  0  0  0  0  0  0  0  0  0
   -4.8185   -2.0064   -3.5304 C   0  0  0  0  0  0  0  0  0  0  0  0
   -0.0614   -1.2126   -0.0014 C   0  0  0  0  0  0  0  0  0  0  0  0
    0.4260   -2.5522   -0.0041 C   0  0  0  0  0  0  0  0  0  0  0  0
    0.0999   -3.4578   -0.9072 N   0  0  0  0  0  0  0  0  0  0  0  0
    0.7580   -4.6197   -0.5709 N   0  0  0  0  0  0  0  0  0  0  0  0
    1.4178   -4.3672    0.5385 C   0  0  0  0  0  0  0  0  0  0  0  0
    2.2618   -5.1620    1.2163 N   0  0  0  0  0  0  0  0  0  0  0  0
    2.6013   -5.0949    2.5772 C   0  0  0  0  0  0  0  0  0  0  0  0
    1.7628   -4.5538    3.5536 C   0  0  0  0  0  0  0  0  0  0  0  0
    2.1667   -4.4909    4.8967 C   0  0  0  0  0  0  0  0  0  0  0  0
    3.4291   -4.9499    5.3080 C   0  0  0  0  0  0  0  0  0  0  0  0
    3.8778   -4.8710    6.7202 C   0  0  0  0  0  0  0  0  0  0  0  0
    2.9821   -5.0111    7.7960 C   0  0  0  0  0  0  0  0  0  0  0  0
    3.4215   -4.9623    9.1247 C   0  0  0  0  0  0  0  0  0  0  0  0
    4.7714   -4.7806    9.4095 C   0  0  0  0  0  0  0  0  0  0  0  0
    5.6788   -4.6305    8.3677 C   0  0  0  0  0  0  0  0  0  0  0  0
    5.2336   -4.6647    7.0426 C   0  0  0  0  0  0  0  0  0  0  0  0
    4.2591   -5.4941    4.3132 C   0  0  0  0  0  0  0  0  0  0  0  0
    3.8562   -5.5622    2.9737 C   0  0  0  0  0  0  0  0  0  0  0  0
    1.2576   -3.0762    0.9562 O   0  0  0  0  0  0  0  0  0  0  0  0
    1.4105    0.7008    2.3836 H   0  0  0  0  0  0  0  0  0  0  0  0
    2.2785   -0.5442    1.4451 H   0  0  0  0  0  0  0  0  0  0  0  0
    1.0148   -1.0198    2.6381 H   0  0  0  0  0  0  0  0  0  0  0  0
   -0.3211    1.8366    1.0944 H   0  0  0  0  0  0  0  0  0  0  0  0
   -1.2798   -2.0282   -2.2617 H   0  0  0  0  0  0  0  0  0  0  0  0
   -3.0599   -0.1188   -2.9239 H   0  0  0  0  0  0  0  0  0  0  0  0
   -3.5673   -0.4875   -1.2638 H   0  0  0  0  0  0  0  0  0  0  0  0
   -2.7300   -3.5559   -1.3441 H   0  0  0  0  0  0  0  0  0  0  0  0
   -4.0380   -5.4833   -2.1774 H   0  0  0  0  0  0  0  0  0  0  0  0
   -6.3198   -3.0974   -4.6326 H   0  0  0  0  0  0  0  0  0  0  0  0
   -5.1017   -1.0450   -3.9455 H   0  0  0  0  0  0  0  0  0  0  0  0
    2.4645   -6.0605    0.7925 H   0  0  0  0  0  0  0  0  0  0  0  0
    0.7654   -4.2041    3.2966 H   0  0  0  0  0  0  0  0  0  0  0  0
    1.4707   -4.0669    5.6172 H   0  0  0  0  0  0  0  0  0  0  0  0
    1.9224   -5.1805    7.6176 H   0  0  0  0  0  0  0  0  0  0  0  0
    2.7077   -5.0758    9.9370 H   0  0  0  0  0  0  0  0  0  0  0  0
    5.1157   -4.7568   10.4398 H   0  0  0  0  0  0  0  0  0  0  0  0
    6.7352   -4.4875    8.5796 H   0  0  0  0  0  0  0  0  0  0  0  0
    5.9723   -4.5220    6.2571 H   0  0  0  0  0  0  0  0  0  0  0  0
    5.2445   -5.8797    4.5654 H   0  0  0  0  0  0  0  0  0  0  0  0
    4.5495   -5.9663    2.2406 H   0  0  0  0  0  0  0  0  0  0  0  0
  1  2  1  0  0  0  0
  1 33  1  0  0  0  0
  1 34  1  0  0  0  0
  1 35  1  0  0  0  0
  2  3  1  0  0  0  0
  2 14  1  0  0  0  0
  3  4  2  0  0  0  0
  3 36  1  0  0  0  0
  4  5  1  0  0  0  0
  5  6  1  0  0  0  0
  5 14  2  0  0  0  0
  6  7  1  0  0  0  0
  6 37  1  0  0  0  0
  7  8  1  0  0  0  0
  7 38  1  0  0  0  0
  7 39  1  0  0  0  0
  8  9  1  0  0  0  0
  8 13  2  0  0  0  0
  9 10  2  0  0  0  0
  9 40  1  0  0  0  0
 10 11  1  0  0  0  0
 10 41  1  0  0  0  0
 11 12  2  0  0  0  0
 12 13  1  0  0  0  0
 12 42  1  0  0  0  0
 13 43  1  0  0  0  0
 14 15  1  0  0  0  0
 15 16  2  0  0  0  0
 15 32  1  0  0  0  0
 16 17  1  0  0  0  0
 17 18  2  0  0  0  0
 18 19  1  0  0  0  0
 18 32  1  0  0  0  0
 19 20  1  0  0  0  0
 19 44  1  0  0  0  0
 20 21  1  0  0  0  0
 20 31  2  0  0  0  0
 21 22  2  0  0  0  0
 21 45  1  0  0  0  0
 22 23  1  0  0  0  0
 22 46  1  0  0  0  0
 23 24  1  0  0  0  0
 23 30  2  0  0  0  0
 24 25  1  0  0  0  0
 24 29  2  0  0  0  0
 25 26  2  0  0  0  0
 25 47  1  0  0  0  0
 26 27  1  0  0  0  0
 26 48  1  0  0  0  0
 27 28  2  0  0  0  0
 27 49  1  0  0  0  0
 28 29  1  0  0  0  0
 28 50  1  0  0  0  0
 29 51  1  0  0  0  0
 30 31  1  0  0  0  0
 30 52  1  0  0  0  0
 31 53  1  0  0  0  0
M  END
$$$$
