CHEMBL257789
 OpenBabel04072215363D

 51 56  0  0  0  0  0  0  0  0999 V2000
    1.0604    0.2428   -0.1811 C   0  0  0  0  0  0  0  0  0  0  0  0
    2.4502    0.1045    0.0870 O   0  0  0  0  0  0  0  0  0  0  0  0
    3.0930   -0.2725   -1.0923 N   0  0  0  0  0  0  0  0  0  0  0  0
    4.3825   -0.3491   -0.9695 C   0  0  0  0  0  0  0  0  0  0  0  0
    5.1400   -0.0792    0.3074 C   0  0  0  0  0  0  0  0  0  0  0  0
    5.1907   -0.7245   -2.1672 C   0  0  0  0  0  0  0  0  0  0  0  0
    4.5815   -0.4869   -3.4073 C   0  0  0  0  0  0  0  0  0  0  0  0
    5.1524   -0.9381   -4.5748 C   0  0  0  0  0  0  0  0  0  0  0  0
    6.3364   -1.6527   -4.4447 C   0  0  0  0  0  0  0  0  0  0  0  0
    6.9278   -2.4154   -5.4173 N   0  0  0  0  0  0  0  0  0  0  0  0
    8.0369   -3.0037   -4.9159 C   0  0  0  0  0  0  0  0  0  0  0  0
    8.7755   -4.0772   -5.3429 C   0  0  0  0  0  0  0  0  0  0  0  0
   10.1569   -3.7789   -5.3231 C   0  0  0  0  0  0  0  0  0  0  0  0
   10.4670   -3.4544   -3.9713 C   0  0  0  0  0  0  0  0  0  0  0  0
    9.4253   -2.8982   -3.0644 C   0  0  0  0  0  0  0  0  0  0  0  0
    8.2433   -2.4389   -3.7156 C   0  0  0  0  0  0  0  0  0  0  0  0
    7.0816   -1.7986   -3.2552 C   0  0  0  0  0  0  0  0  0  0  0  0
    6.4708   -1.3334   -2.0716 C   0  0  0  0  0  0  0  0  0  0  0  0
    9.6884   -3.1327   -1.6559 C   0  0  0  0  0  0  0  0  0  0  0  0
   10.9963   -3.7549   -1.7805 N   0  0  0  0  0  0  0  0  0  0  0  0
   11.4869   -3.9744   -3.0859 C   0  0  0  0  0  0  0  0  0  0  0  0
   12.5268   -4.6013   -3.2818 O   0  0  0  0  0  0  0  0  0  0  0  0
   10.6867   -3.9766   -6.7243 C   0  0  0  0  0  0  0  0  0  0  0  0
   11.8521   -3.9103   -7.4935 C   0  0  0  0  0  0  0  0  0  0  0  0
   11.4898   -4.2468   -8.8085 N   0  0  0  0  0  0  0  0  0  0  0  0
   12.2048   -4.8036   -9.9358 C   0  0  0  0  0  0  0  0  0  0  0  0
   10.1745   -4.2076   -9.0123 N   0  0  0  0  0  0  0  0  0  0  0  0
    9.7137   -4.2413   -7.7838 C   0  0  0  0  0  0  0  0  0  0  0  0
    8.2952   -4.6355   -7.5837 C   0  0  0  0  0  0  0  0  0  0  0  0
    8.2516   -5.1794   -6.1839 C   0  0  0  0  0  0  0  0  0  0  0  0
    0.5659    0.5667    0.7360 H   0  0  0  0  0  0  0  0  0  0  0  0
    0.6389   -0.7209   -0.4915 H   0  0  0  0  0  0  0  0  0  0  0  0
    0.8906    0.9904   -0.9615 H   0  0  0  0  0  0  0  0  0  0  0  0
    4.5255    0.4228    1.0540 H   0  0  0  0  0  0  0  0  0  0  0  0
    5.9917    0.5727    0.0876 H   0  0  0  0  0  0  0  0  0  0  0  0
    5.4966   -1.0236    0.7247 H   0  0  0  0  0  0  0  0  0  0  0  0
    3.6179    0.0165   -3.4697 H   0  0  0  0  0  0  0  0  0  0  0  0
    4.6621   -0.8149   -5.5343 H   0  0  0  0  0  0  0  0  0  0  0  0
    6.5539   -2.5503   -6.3449 H   0  0  0  0  0  0  0  0  0  0  0  0
    6.9395   -1.5232   -1.1115 H   0  0  0  0  0  0  0  0  0  0  0  0
    8.9828   -3.8602   -1.2529 H   0  0  0  0  0  0  0  0  0  0  0  0
    9.7330   -2.2394   -1.0275 H   0  0  0  0  0  0  0  0  0  0  0  0
   11.4211   -4.2523   -1.0113 H   0  0  0  0  0  0  0  0  0  0  0  0
   12.8903   -3.6984   -7.2792 H   0  0  0  0  0  0  0  0  0  0  0  0
   12.5430   -4.0013  -10.5925 H   0  0  0  0  0  0  0  0  0  0  0  0
   11.4881   -5.4177  -10.5151 H   0  0  0  0  0  0  0  0  0  0  0  0
   12.9979   -5.4652   -9.5996 H   0  0  0  0  0  0  0  0  0  0  0  0
    7.9855   -5.3981   -8.2911 H   0  0  0  0  0  0  0  0  0  0  0  0
    7.6590   -3.7590   -7.7112 H   0  0  0  0  0  0  0  0  0  0  0  0
    8.9213   -6.0441   -6.0538 H   0  0  0  0  0  0  0  0  0  0  0  0
    7.2621   -5.4846   -5.8476 H   0  0  0  0  0  0  0  0  0  0  0  0
  1  2  1  0  0  0  0
  1 31  1  0  0  0  0
  1 32  1  0  0  0  0
  1 33  1  0  0  0  0
  2  3  1  0  0  0  0
  3  4  2  0  0  0  0
  4  5  1  0  0  0  0
  4  6  1  0  0  0  0
  5 34  1  0  0  0  0
  5 35  1  0  0  0  0
  5 36  1  0  0  0  0
  6  7  1  0  0  0  0
  6 18  2  0  0  0  0
  7  8  2  0  0  0  0
  7 37  1  0  0  0  0
  8  9  1  0  0  0  0
  8 38  1  0  0  0  0
  9 10  1  0  0  0  0
  9 17  2  0  0  0  0
 10 11  1  0  0  0  0
 10 39  1  0  0  0  0
 11 12  1  0  0  0  0
 11 16  2  0  0  0  0
 12 13  2  0  0  0  0
 12 30  1  0  0  0  0
 13 14  1  0  0  0  0
 13 23  1  0  0  0  0
 14 15  2  0  0  0  0
 14 21  1  0  0  0  0
 15 16  1  0  0  0  0
 15 19  1  0  0  0  0
 16 17  1  0  0  0  0
 17 18  1  0  0  0  0
 18 40  1  0  0  0  0
 19 20  1  0  0  0  0
 19 41  1  0  0  0  0
 19 42  1  0  0  0  0
 20 21  1  0  0  0  0
 20 43  1  0  0  0  0
 21 22  2  0  0  0  0
 23 24  2  0  0  0  0
 23 28  1  0  0  0  0
 24 25  1  0  0  0  0
 24 44  1  0  0  0  0
 25 26  1  0  0  0  0
 25 27  1  0  0  0  0
 26 45  1  0  0  0  0
 26 46  1  0  0  0  0
 26 47  1  0  0  0  0
 27 28  2  0  0  0  0
 28 29  1  0  0  0  0
 29 30  1  0  0  0  0
 29 48  1  0  0  0  0
 29 49  1  0  0  0  0
 30 50  1  0  0  0  0
 30 51  1  0  0  0  0
M  END
$$$$
