CHEMBL3690521
 OpenBabel04072215373D

 53 56  0  0  0  0  0  0  0  0999 V2000
    0.0657    1.3397   -1.4105 C   0  0  0  0  0  0  0  0  0  0  0  0
    1.2486    0.5179   -1.6334 N   0  0  0  0  0  0  0  0  0  0  0  0
    1.1031   -0.6737   -2.4563 C   0  0  0  0  0  0  0  0  0  0  0  0
    2.5045    1.1403   -1.6319 C   0  0  0  0  0  0  0  0  0  0  0  0
    3.4737    0.6655   -2.4615 N   0  0  0  0  0  0  0  0  0  0  0  0
    4.6814    1.2745   -2.4538 C   0  0  0  0  0  0  0  0  0  0  0  0
    5.7380    0.8538   -3.4267 C   0  0  0  0  0  0  0  0  0  0  0  0
    7.0244    1.5703   -3.4988 C   0  0  0  0  0  0  0  0  0  0  0  0
    7.9617    1.2150   -4.3908 C   0  0  0  0  0  0  0  0  0  0  0  0
    7.7400    0.1295   -5.2375 N   0  0  0  0  0  0  0  0  0  0  0  0
    8.5694   -0.4866   -6.1805 C   0  0  0  0  0  0  0  0  0  0  0  0
    9.9992   -0.2075   -6.4278 C   0  0  0  0  0  0  0  0  0  0  0  0
   10.8380    0.1734   -5.3730 C   0  0  0  0  0  0  0  0  0  0  0  0
   12.1821    0.4553   -5.5862 C   0  0  0  0  0  0  0  0  0  0  0  0
   12.7347    0.2815   -6.8491 C   0  0  0  0  0  0  0  0  0  0  0  0
   11.9637   -0.1784   -7.9165 C   0  0  0  0  0  0  0  0  0  0  0  0
   12.5192   -0.4490   -9.1921 N   0  0  0  0  0  0  0  0  0  0  0  0
   13.8628   -0.3876   -9.5258 C   0  0  0  0  0  0  0  0  0  0  0  0
   14.7973   -0.0928   -8.7908 O   0  0  0  0  0  0  0  0  0  0  0  0
   14.0928   -0.6574  -10.8574 N   0  0  0  0  0  0  0  0  0  0  0  0
   15.4854   -0.6220  -11.3386 C   0  0  0  0  0  0  0  0  0  0  0  0
   16.3498   -1.8500  -11.0151 C   0  0  0  0  0  0  0  0  0  0  0  0
   15.6169   -2.8705  -10.5119 F   0  0  0  0  0  0  0  0  0  0  0  0
   16.9293   -2.3132  -12.1521 F   0  0  0  0  0  0  0  0  0  0  0  0
   17.3428   -1.5730  -10.1470 F   0  0  0  0  0  0  0  0  0  0  0  0
   10.5844   -0.3927   -7.7041 C   0  0  0  0  0  0  0  0  0  0  0  0
    7.7449   -1.4431   -6.7551 C   0  0  0  0  0  0  0  0  0  0  0  0
    6.5031   -1.4834   -6.1752 N   0  0  0  0  0  0  0  0  0  0  0  0
    6.5253   -0.5580   -5.2410 C   0  0  0  0  0  0  0  0  0  0  0  0
    5.5252   -0.1682   -4.2924 C   0  0  0  0  0  0  0  0  0  0  0  0
    5.0109    2.3038   -1.6483 N   0  0  0  0  0  0  0  0  0  0  0  0
    4.0464    2.7447   -0.8254 C   0  0  0  0  0  0  0  0  0  0  0  0
    2.7833    2.2116   -0.7872 C   0  0  0  0  0  0  0  0  0  0  0  0
    1.8869    2.7259    0.0676 F   0  0  0  0  0  0  0  0  0  0  0  0
   -0.8529    0.8025   -1.6700 H   0  0  0  0  0  0  0  0  0  0  0  0
    0.0883    2.2549   -2.0136 H   0  0  0  0  0  0  0  0  0  0  0  0
   -0.0298    1.6047   -0.3523 H   0  0  0  0  0  0  0  0  0  0  0  0
    0.0739   -1.0471   -2.4322 H   0  0  0  0  0  0  0  0  0  0  0  0
    1.7350   -1.4803   -2.0684 H   0  0  0  0  0  0  0  0  0  0  0  0
    1.3574   -0.4822   -3.5080 H   0  0  0  0  0  0  0  0  0  0  0  0
    7.1962    2.4027   -2.8220 H   0  0  0  0  0  0  0  0  0  0  0  0
    8.8930    1.7565   -4.4727 H   0  0  0  0  0  0  0  0  0  0  0  0
   10.4717    0.2400   -4.3529 H   0  0  0  0  0  0  0  0  0  0  0  0
   12.8113    0.7858   -4.7633 H   0  0  0  0  0  0  0  0  0  0  0  0
   13.7924    0.5105   -6.9536 H   0  0  0  0  0  0  0  0  0  0  0  0
   11.8824   -0.7343   -9.9187 H   0  0  0  0  0  0  0  0  0  0  0  0
   13.4746   -1.3222  -11.2933 H   0  0  0  0  0  0  0  0  0  0  0  0
   15.9721    0.2730  -10.9285 H   0  0  0  0  0  0  0  0  0  0  0  0
   15.4276   -0.4866  -12.4209 H   0  0  0  0  0  0  0  0  0  0  0  0
    9.9616   -0.7201   -8.5300 H   0  0  0  0  0  0  0  0  0  0  0  0
    8.0028   -2.1429   -7.5395 H   0  0  0  0  0  0  0  0  0  0  0  0
    4.5934   -0.7249   -4.3031 H   0  0  0  0  0  0  0  0  0  0  0  0
    4.3182    3.5687   -0.1741 H   0  0  0  0  0  0  0  0  0  0  0  0
  1  2  1  0  0  0  0
  1 35  1  0  0  0  0
  1 36  1  0  0  0  0
  1 37  1  0  0  0  0
  2  3  1  0  0  0  0
  2  4  1  0  0  0  0
  3 38  1  0  0  0  0
  3 39  1  0  0  0  0
  3 40  1  0  0  0  0
  4  5  1  0  0  0  0
  4 33  2  0  0  0  0
  5  6  2  0  0  0  0
  6  7  1  0  0  0  0
  6 31  1  0  0  0  0
  7  8  1  0  0  0  0
  7 30  2  0  0  0  0
  8  9  2  0  0  0  0
  8 41  1  0  0  0  0
  9 10  1  0  0  0  0
  9 42  1  0  0  0  0
 10 11  1  0  0  0  0
 10 29  1  0  0  0  0
 11 12  1  0  0  0  0
 11 27  2  0  0  0  0
 12 13  1  0  0  0  0
 12 26  2  0  0  0  0
 13 14  2  0  0  0  0
 13 43  1  0  0  0  0
 14 15  1  0  0  0  0
 14 44  1  0  0  0  0
 15 16  2  0  0  0  0
 15 45  1  0  0  0  0
 16 17  1  0  0  0  0
 16 26  1  0  0  0  0
 17 18  1  0  0  0  0
 17 46  1  0  0  0  0
 18 19  2  0  0  0  0
 18 20  1  0  0  0  0
 20 21  1  0  0  0  0
 20 47  1  0  0  0  0
 21 22  1  0  0  0  0
 21 48  1  0  0  0  0
 21 49  1  0  0  0  0
 22 23  1  0  0  0  0
 22 24  1  0  0  0  0
 22 25  1  0  0  0  0
 26 50  1  0  0  0  0
 27 28  1  0  0  0  0
 27 51  1  0  0  0  0
 28 29  2  0  0  0  0
 29 30  1  0  0  0  0
 30 52  1  0  0  0  0
 31 32  2  0  0  0  0
 32 33  1  0  0  0  0
 32 53  1  0  0  0  0
 33 34  1  0  0  0  0
M  END
$$$$
