CHEMBL526925
 OpenBabel04072215383D

 36 38  0  0  0  0  0  0  0  0999 V2000
    2.1801    0.1083   -0.0083 C   0  0  0  0  0  0  0  0  0  0  0  0
    0.7445   -0.0344   -0.0212 N   0  0  0  0  0  0  0  0  0  0  0  0
   -0.1440    1.0029   -0.0563 C   0  0  0  0  0  0  0  0  0  0  0  0
   -1.3848    0.5769   -0.0902 N   0  0  0  0  0  0  0  0  0  0  0  0
   -1.3039   -0.7993   -0.0389 C   0  0  0  0  0  0  0  0  0  0  0  0
   -2.4848   -1.6531   -0.0516 C   0  0  0  0  0  0  0  0  0  0  0  0
   -3.6382   -1.2161   -0.7175 C   0  0  0  0  0  0  0  0  0  0  0  0
   -4.7669   -2.0357   -0.8035 C   0  0  0  0  0  0  0  0  0  0  0  0
   -4.7589   -3.2984   -0.2146 C   0  0  0  0  0  0  0  0  0  0  0  0
   -3.6338   -3.7312    0.4823 C   0  0  0  0  0  0  0  0  0  0  0  0
   -2.5077   -2.9088    0.5716 C   0  0  0  0  0  0  0  0  0  0  0  0
    0.0229   -1.2061   -0.0124 C   0  0  0  0  0  0  0  0  0  0  0  0
    0.6772   -2.4573    0.0694 C   0  0  0  0  0  0  0  0  0  0  0  0
    0.8810   -3.2150   -1.0209 C   0  0  0  0  0  0  0  0  0  0  0  0
    1.4470   -4.5721   -0.9357 C   0  0  0  0  0  0  0  0  0  0  0  0
    1.6693   -5.3193   -2.0715 C   0  0  0  0  0  0  0  0  0  0  0  0
    2.1749   -6.5802   -1.8608 C   0  0  0  0  0  0  0  0  0  0  0  0
    2.4474   -7.0798   -0.6418 N   0  0  0  0  0  0  0  0  0  0  0  0
    2.2130   -6.2734    0.3942 C   0  0  0  0  0  0  0  0  0  0  0  0
    2.4661   -6.7586    1.6600 N   0  0  0  0  0  0  0  0  0  0  0  0
    1.7083   -5.0436    0.3011 N   0  0  0  0  0  0  0  0  0  0  0  0
    2.4410    1.1695   -0.0273 H   0  0  0  0  0  0  0  0  0  0  0  0
    2.5874   -0.3833   -0.8956 H   0  0  0  0  0  0  0  0  0  0  0  0
    2.5690   -0.3500    0.9043 H   0  0  0  0  0  0  0  0  0  0  0  0
    0.1626    2.0406   -0.0574 H   0  0  0  0  0  0  0  0  0  0  0  0
   -3.6544   -0.2326   -1.1835 H   0  0  0  0  0  0  0  0  0  0  0  0
   -5.6480   -1.6872   -1.3351 H   0  0  0  0  0  0  0  0  0  0  0  0
   -5.6311   -3.9417   -0.2920 H   0  0  0  0  0  0  0  0  0  0  0  0
   -3.6271   -4.7087    0.9568 H   0  0  0  0  0  0  0  0  0  0  0  0
   -1.6536   -3.2654    1.1396 H   0  0  0  0  0  0  0  0  0  0  0  0
    0.9342   -2.8204    1.0595 H   0  0  0  0  0  0  0  0  0  0  0  0
    0.6043   -2.8571   -2.0086 H   0  0  0  0  0  0  0  0  0  0  0  0
    1.4606   -4.9558   -3.0679 H   0  0  0  0  0  0  0  0  0  0  0  0
    2.3821   -7.2505   -2.6902 H   0  0  0  0  0  0  0  0  0  0  0  0
    2.4403   -7.7682    1.6487 H   0  0  0  0  0  0  0  0  0  0  0  0
    1.8722   -6.2872    2.3277 H   0  0  0  0  0  0  0  0  0  0  0  0
  1  2  1  0  0  0  0
  1 22  1  0  0  0  0
  1 23  1  0  0  0  0
  1 24  1  0  0  0  0
  2  3  1  0  0  0  0
  2 12  1  0  0  0  0
  3  4  2  0  0  0  0
  3 25  1  0  0  0  0
  4  5  1  0  0  0  0
  5  6  1  0  0  0  0
  5 12  2  0  0  0  0
  6  7  1  0  0  0  0
  6 11  2  0  0  0  0
  7  8  2  0  0  0  0
  7 26  1  0  0  0  0
  8  9  1  0  0  0  0
  8 27  1  0  0  0  0
  9 10  2  0  0  0  0
  9 28  1  0  0  0  0
 10 11  1  0  0  0  0
 10 29  1  0  0  0  0
 11 30  1  0  0  0  0
 12 13  1  0  0  0  0
 13 14  2  0  0  0  0
 13 31  1  0  0  0  0
 14 15  1  0  0  0  0
 14 32  1  0  0  0  0
 15 16  1  0  0  0  0
 15 21  2  0  0  0  0
 16 17  2  0  0  0  0
 16 33  1  0  0  0  0
 17 18  1  0  0  0  0
 17 34  1  0  0  0  0
 18 19  2  0  0  0  0
 19 20  1  0  0  0  0
 19 21  1  0  0  0  0
 20 35  1  0  0  0  0
 20 36  1  0  0  0  0
M  END
$$$$
