CHEMBL1973793
 OpenBabel04072215363D

 39 42  0  0  0  0  0  0  0  0999 V2000
    3.2921   -2.6262    1.2653 O   0  0  0  0  0  0  0  0  0  0  0  0
    2.9606   -1.7700    2.3842 S   0  0  0  0  0  0  0  0  0  0  0  0
    3.7274   -1.7964    3.6099 O   0  0  0  0  0  0  0  0  0  0  0  0
    2.9258   -0.1931    1.7845 N   0  0  0  0  0  0  0  0  0  0  0  0
    2.6109    0.8716    2.6685 C   0  0  0  0  0  0  0  0  0  0  0  0
    1.2794    1.3010    2.7706 C   0  0  0  0  0  0  0  0  0  0  0  0
    0.9355    2.3359    3.6394 C   0  0  0  0  0  0  0  0  0  0  0  0
    1.9361    2.9353    4.3863 C   0  0  0  0  0  0  0  0  0  0  0  0
    3.2721    2.4939    4.2834 C   0  0  0  0  0  0  0  0  0  0  0  0
    3.6254    1.4582    3.4352 C   0  0  0  0  0  0  0  0  0  0  0  0
    4.0789    3.3455    5.2071 C   0  0  0  0  0  0  0  0  0  0  0  0
    5.3417    3.3635    5.4976 N   0  0  0  0  0  0  0  0  0  0  0  0
    6.0671    2.3970    4.8042 O   0  0  0  0  0  0  0  0  0  0  0  0
    3.1296    4.2990    5.8332 C   0  0  0  0  0  0  0  0  0  0  0  0
    3.3658    5.3033    6.7554 C   0  0  0  0  0  0  0  0  0  0  0  0
    2.2716    6.0644    7.1710 C   0  0  0  0  0  0  0  0  0  0  0  0
    0.9844    5.8064    6.6700 C   0  0  0  0  0  0  0  0  0  0  0  0
    0.7668    4.7834    5.7377 C   0  0  0  0  0  0  0  0  0  0  0  0
    1.8541    4.0285    5.3252 C   0  0  0  0  0  0  0  0  0  0  0  0
    1.2601   -2.1243    2.7888 C   0  0  0  0  0  0  0  0  0  0  0  0
    0.8946   -2.3674    4.1167 C   0  0  0  0  0  0  0  0  0  0  0  0
   -0.3971   -2.8110    4.4060 C   0  0  0  0  0  0  0  0  0  0  0  0
   -1.3190   -3.0057    3.3752 C   0  0  0  0  0  0  0  0  0  0  0  0
   -0.9504   -2.7411    2.0555 C   0  0  0  0  0  0  0  0  0  0  0  0
   -2.1994   -3.0239    0.6642 Br  0  0  0  0  0  0  0  0  0  0  0  0
    0.3372   -2.3021    1.7506 C   0  0  0  0  0  0  0  0  0  0  0  0
    2.5564   -0.1439    0.8368 H   0  0  0  0  0  0  0  0  0  0  0  0
    0.4989    0.8324    2.1761 H   0  0  0  0  0  0  0  0  0  0  0  0
   -0.0972    2.6609    3.7182 H   0  0  0  0  0  0  0  0  0  0  0  0
    4.6503    1.1175    3.3488 H   0  0  0  0  0  0  0  0  0  0  0  0
    6.9702    2.5154    5.1636 H   0  0  0  0  0  0  0  0  0  0  0  0
    4.3653    5.4917    7.1335 H   0  0  0  0  0  0  0  0  0  0  0  0
    2.4142    6.8669    7.8919 H   0  0  0  0  0  0  0  0  0  0  0  0
    0.1456    6.4138    7.0018 H   0  0  0  0  0  0  0  0  0  0  0  0
   -0.2301    4.5976    5.3549 H   0  0  0  0  0  0  0  0  0  0  0  0
    1.6162   -2.2534    4.9235 H   0  0  0  0  0  0  0  0  0  0  0  0
   -0.6778   -3.0351    5.4333 H   0  0  0  0  0  0  0  0  0  0  0  0
   -2.3125   -3.3820    3.6090 H   0  0  0  0  0  0  0  0  0  0  0  0
    0.6295   -2.1390    0.7165 H   0  0  0  0  0  0  0  0  0  0  0  0
  1  2  2  0  0  0  0
  2  3  2  0  0  0  0
  2  4  1  0  0  0  0
  2 20  1  0  0  0  0
  4  5  1  0  0  0  0
  4 27  1  0  0  0  0
  5  6  1  0  0  0  0
  5 10  2  0  0  0  0
  6  7  2  0  0  0  0
  6 28  1  0  0  0  0
  7  8  1  0  0  0  0
  7 29  1  0  0  0  0
  8  9  2  0  0  0  0
  8 19  1  0  0  0  0
  9 10  1  0  0  0  0
  9 11  1  0  0  0  0
 10 30  1  0  0  0  0
 11 12  2  3  0  0  0
 11 14  1  0  0  0  0
 12 13  1  0  0  0  0
 13 31  1  0  0  0  0
 14 15  1  0  0  0  0
 14 19  2  0  0  0  0
 15 16  2  0  0  0  0
 15 32  1  0  0  0  0
 16 17  1  0  0  0  0
 16 33  1  0  0  0  0
 17 18  2  0  0  0  0
 17 34  1  0  0  0  0
 18 19  1  0  0  0  0
 18 35  1  0  0  0  0
 20 21  1  0  0  0  0
 20 26  2  0  0  0  0
 21 22  2  0  0  0  0
 21 36  1  0  0  0  0
 22 23  1  0  0  0  0
 22 37  1  0  0  0  0
 23 24  2  0  0  0  0
 23 38  1  0  0  0  0
 24 25  1  0  0  0  0
 24 26  1  0  0  0  0
 26 39  1  0  0  0  0
M  END
$$$$
