CHEMBL78257
 OpenBabel04072215383D

 28 28  0  0  0  0  0  0  0  0999 V2000
    1.0866   -1.9804   -0.3416 N   0  0  0  0  0  0  0  0  0  0  0  0
    2.3469   -1.9827   -0.3810 C   0  0  0  0  0  0  0  0  0  0  0  0
    3.8662   -1.9856   -0.4285 C   0  0  0  0  0  0  0  0  0  0  0  0
    4.6364   -3.2367   -0.0386 C   0  0  0  0  0  0  0  0  0  0  0  0
    5.2754   -4.2745    0.2849 N   0  0  0  0  0  0  0  0  0  0  0  0
    4.5637   -0.8764   -0.8262 C   0  0  0  0  0  0  0  0  0  0  0  0
    3.9646    0.2992   -1.2571 N   0  0  0  0  0  0  0  0  0  0  0  0
    6.0559   -0.8713   -0.8674 C   0  0  0  0  0  0  0  0  0  0  0  0
    6.8159    0.0936    0.0280 C   0  0  0  0  0  0  0  0  0  0  0  0
    7.4463    0.8941    0.7708 N   0  0  0  0  0  0  0  0  0  0  0  0
    6.7741   -1.7071   -1.6522 C   0  0  0  0  0  0  0  0  0  0  0  0
    8.2473   -1.7635   -1.6662 C   0  0  0  0  0  0  0  0  0  0  0  0
    8.9465   -2.5390   -0.7194 C   0  0  0  0  0  0  0  0  0  0  0  0
   10.3432   -2.5353   -0.7249 C   0  0  0  0  0  0  0  0  0  0  0  0
   11.0800   -3.2499    0.1786 O   0  0  0  0  0  0  0  0  0  0  0  0
   11.0381   -1.7822   -1.6640 C   0  0  0  0  0  0  0  0  0  0  0  0
   12.4068   -1.7730   -1.6801 O   0  0  0  0  0  0  0  0  0  0  0  0
   10.3475   -1.0217   -2.5965 C   0  0  0  0  0  0  0  0  0  0  0  0
   11.0332   -0.2771   -3.5120 O   0  0  0  0  0  0  0  0  0  0  0  0
    8.9566   -1.0025   -2.6048 C   0  0  0  0  0  0  0  0  0  0  0  0
    2.9805    0.4474   -1.0356 H   0  0  0  0  0  0  0  0  0  0  0  0
    4.5188    1.1527   -1.1868 H   0  0  0  0  0  0  0  0  0  0  0  0
    6.2963   -2.4102   -2.3302 H   0  0  0  0  0  0  0  0  0  0  0  0
    8.4038   -3.1335    0.0093 H   0  0  0  0  0  0  0  0  0  0  0  0
   10.4743   -3.6483    0.8279 H   0  0  0  0  0  0  0  0  0  0  0  0
   12.6606   -2.3635   -0.9408 H   0  0  0  0  0  0  0  0  0  0  0  0
   11.9764   -0.4355   -3.2996 H   0  0  0  0  0  0  0  0  0  0  0  0
    8.4420   -0.3882   -3.3370 H   0  0  0  0  0  0  0  0  0  0  0  0
  1  2  3  0  0  0  0
  2  3  1  0  0  0  0
  3  4  1  0  0  0  0
  3  6  2  0  0  0  0
  4  5  3  0  0  0  0
  6  7  1  0  0  0  0
  6  8  1  0  0  0  0
  7 21  1  0  0  0  0
  7 22  1  0  0  0  0
  8  9  1  0  0  0  0
  8 11  2  0  0  0  0
  9 10  3  0  0  0  0
 11 12  1  0  0  0  0
 11 23  1  0  0  0  0
 12 13  1  0  0  0  0
 12 20  2  0  0  0  0
 13 14  2  0  0  0  0
 13 24  1  0  0  0  0
 14 15  1  0  0  0  0
 14 16  1  0  0  0  0
 15 25  1  0  0  0  0
 16 17  1  0  0  0  0
 16 18  2  0  0  0  0
 17 26  1  0  0  0  0
 18 19  1  0  0  0  0
 18 20  1  0  0  0  0
 19 27  1  0  0  0  0
 20 28  1  0  0  0  0
M  END
$$$$
