CHEMBL2005886
 OpenBabel04072215363D

 60 64  0  0  1  0  0  0  0  0999 V2000
   -0.4664   -2.1191    2.1442 C   0  0  0  0  0  0  0  0  0  0  0  0
   -0.6609   -0.7767    1.5064 C   0  0  0  0  0  0  0  0  0  0  0  0
   -1.9286   -0.1378    1.5532 C   0  0  0  0  0  0  0  0  0  0  0  0
   -2.1847    1.1294    0.9978 C   0  0  0  0  0  0  0  0  0  0  0  0
   -3.4438    1.6954    1.0051 N   0  0  0  0  0  0  0  0  0  0  0  0
   -4.6803    0.9038    1.0623 C   0  0  0  0  0  0  0  0  0  0  0  0
   -5.7055    1.5146    0.0864 C   0  0  0  0  0  0  0  0  0  0  0  0
   -5.9329    2.9126    0.3408 O   0  0  0  0  0  0  0  0  0  0  0  0
   -4.7002    3.6483    0.2381 C   0  0  0  0  0  0  0  0  0  0  0  0
   -3.6598    3.1317    1.2433 C   0  0  0  0  0  0  0  0  0  0  0  0
   -1.1135    1.7975    0.3833 C   0  0  0  0  0  0  0  0  0  0  0  0
    0.1360    1.1740    0.3440 C   0  0  0  0  0  0  0  0  0  0  0  0
    1.3451    1.5904   -0.1459 N   0  0  0  0  0  0  0  0  0  0  0  0
    2.2880    0.6415    0.1659 C   0  0  0  0  0  0  0  0  0  0  0  0
    3.6456    1.0054    0.0071 C   0  0  0  0  0  0  0  0  0  0  0  0
    4.4152    0.5789   -1.0308 C   0  0  0  0  0  0  0  0  0  0  0  0
    4.0040   -0.2190   -2.1054 N   0  0  0  0  0  0  0  0  0  0  0  0
    4.2795   -1.6740   -2.0356 C   0  0  0  0  0  0  0  0  0  0  0  0
    3.2531   -2.4887   -2.8630 C   0  0  3  0  0  0  0  0  0  0  0  0
    3.2581   -2.1158   -4.2447 O   0  0  0  0  0  0  0  0  0  0  0  0
    3.5207   -3.9733   -2.7374 C   0  0  0  0  0  0  0  0  0  0  0  0
    2.8980   -4.7068   -1.7147 C   0  0  0  0  0  0  0  0  0  0  0  0
    3.1779   -6.0634   -1.5392 C   0  0  0  0  0  0  0  0  0  0  0  0
    4.0878   -6.7033   -2.3795 C   0  0  0  0  0  0  0  0  0  0  0  0
    4.7120   -5.9844   -3.3955 C   0  0  0  0  0  0  0  0  0  0  0  0
    5.8521   -6.7660   -4.4208 Cl  0  0  0  0  0  0  0  0  0  0  0  0
    4.4340   -4.6301   -3.5784 C   0  0  0  0  0  0  0  0  0  0  0  0
    5.8102    1.0062   -1.0833 C   0  0  0  0  0  0  0  0  0  0  0  0
    6.3419    1.7884   -0.1347 C   0  0  0  0  0  0  0  0  0  0  0  0
    5.5767    2.2073    0.9143 N   0  0  0  0  0  0  0  0  0  0  0  0
    4.2472    1.8992    1.0663 C   0  0  0  0  0  0  0  0  0  0  0  0
    3.5903    2.3738    1.9901 O   0  0  0  0  0  0  0  0  0  0  0  0
    1.7138   -0.4261    0.6919 N   0  0  0  0  0  0  0  0  0  0  0  0
    0.3876   -0.0817    0.8745 C   0  0  0  0  0  0  0  0  0  0  0  0
   -1.4119   -2.5361    2.5062 H   0  0  0  0  0  0  0  0  0  0  0  0
    0.2166   -2.0376    2.9956 H   0  0  0  0  0  0  0  0  0  0  0  0
   -0.0481   -2.8207    1.4161 H   0  0  0  0  0  0  0  0  0  0  0  0
   -2.7331   -0.6562    2.0715 H   0  0  0  0  0  0  0  0  0  0  0  0
   -5.0755    0.9325    2.0847 H   0  0  0  0  0  0  0  0  0  0  0  0
   -4.5226   -0.1423    0.7794 H   0  0  0  0  0  0  0  0  0  0  0  0
   -6.6660    0.9994    0.1845 H   0  0  0  0  0  0  0  0  0  0  0  0
   -5.3686    1.3972   -0.9511 H   0  0  0  0  0  0  0  0  0  0  0  0
   -4.9244    4.7008    0.4370 H   0  0  0  0  0  0  0  0  0  0  0  0
   -4.3235    3.5728   -0.7894 H   0  0  0  0  0  0  0  0  0  0  0  0
   -4.0487    3.2556    2.2622 H   0  0  0  0  0  0  0  0  0  0  0  0
   -2.7475    3.7313    1.1734 H   0  0  0  0  0  0  0  0  0  0  0  0
   -1.2479    2.7659   -0.0840 H   0  0  0  0  0  0  0  0  0  0  0  0
    1.5326    2.4919   -0.5586 H   0  0  0  0  0  0  0  0  0  0  0  0
    3.0014   -0.0972   -2.2651 H   0  0  0  0  0  0  0  0  0  0  0  0
    4.2496   -2.0088   -0.9910 H   0  0  0  0  0  0  0  0  0  0  0  0
    5.2938   -1.8475   -2.4156 H   0  0  0  0  0  0  0  0  0  0  0  0
    2.2397   -2.2736   -2.5016 H   0  0  0  0  0  0  0  0  0  0  0  0
    4.1494   -1.7919   -4.4572 H   0  0  0  0  0  0  0  0  0  0  0  0
    2.1927   -4.2211   -1.0408 H   0  0  0  0  0  0  0  0  0  0  0  0
    2.6904   -6.6192   -0.7421 H   0  0  0  0  0  0  0  0  0  0  0  0
    4.3076   -7.7573   -2.2355 H   0  0  0  0  0  0  0  0  0  0  0  0
    4.9323   -4.0881   -4.3782 H   0  0  0  0  0  0  0  0  0  0  0  0
    6.4106    0.6922   -1.9326 H   0  0  0  0  0  0  0  0  0  0  0  0
    7.3725    2.1230   -0.1608 H   0  0  0  0  0  0  0  0  0  0  0  0
    5.9701    2.8007    1.6329 H   0  0  0  0  0  0  0  0  0  0  0  0
  1  2  1  0  0  0  0
  1 35  1  0  0  0  0
  1 36  1  0  0  0  0
  1 37  1  0  0  0  0
  2  3  1  0  0  0  0
  2 34  2  0  0  0  0
  3  4  2  0  0  0  0
  3 38  1  0  0  0  0
  4  5  1  0  0  0  0
  4 11  1  0  0  0  0
  5  6  1  0  0  0  0
  5 10  1  0  0  0  0
  6  7  1  0  0  0  0
  6 39  1  0  0  0  0
  6 40  1  0  0  0  0
  7  8  1  0  0  0  0
  7 41  1  0  0  0  0
  7 42  1  0  0  0  0
  8  9  1  0  0  0  0
  9 10  1  0  0  0  0
  9 43  1  0  0  0  0
  9 44  1  0  0  0  0
 10 45  1  0  0  0  0
 10 46  1  0  0  0  0
 11 12  2  0  0  0  0
 11 47  1  0  0  0  0
 12 13  1  0  0  0  0
 12 34  1  0  0  0  0
 13 14  1  0  0  0  0
 13 48  1  0  0  0  0
 14 15  1  0  0  0  0
 14 33  2  0  0  0  0
 15 16  2  0  0  0  0
 15 31  1  0  0  0  0
 16 17  1  0  0  0  0
 16 28  1  0  0  0  0
 17 18  1  0  0  0  0
 17 49  1  0  0  0  0
 18 19  1  0  0  0  0
 18 50  1  0  0  0  0
 18 51  1  0  0  0  0
 19 20  1  0  0  0  0
 19 21  1  0  0  0  0
 19 52  1  0  0  0  0
 20 53  1  0  0  0  0
 21 22  1  0  0  0  0
 21 27  2  0  0  0  0
 22 23  2  0  0  0  0
 22 54  1  0  0  0  0
 23 24  1  0  0  0  0
 23 55  1  0  0  0  0
 24 25  2  0  0  0  0
 24 56  1  0  0  0  0
 25 26  1  0  0  0  0
 25 27  1  0  0  0  0
 27 57  1  0  0  0  0
 28 29  2  0  0  0  0
 28 58  1  0  0  0  0
 29 30  1  0  0  0  0
 29 59  1  0  0  0  0
 30 31  1  0  0  0  0
 30 60  1  0  0  0  0
 31 32  2  0  0  0  0
 33 34  1  0  0  0  0
M  END
$$$$
