CHEMBL606185
 OpenBabel04072215383D

 37 40  0  0  0  0  0  0  0  0999 V2000
    1.1401   -0.6204    0.5453 O   0  0  0  0  0  0  0  0  0  0  0  0
    2.2752   -0.2835    0.1863 C   0  0  0  0  0  0  0  0  0  0  0  0
    2.9794   -0.9731   -0.9637 C   0  0  0  0  0  0  0  0  0  0  0  0
    4.2281   -1.6252   -0.4928 C   0  0  0  0  0  0  0  0  0  0  0  0
    4.3861   -2.9899   -0.4391 C   0  0  0  0  0  0  0  0  0  0  0  0
    5.4849   -3.5961    0.0383 N   0  0  0  0  0  0  0  0  0  0  0  0
    6.4760   -2.8025    0.4659 C   0  0  0  0  0  0  0  0  0  0  0  0
    7.6211   -3.4431    0.9365 N   0  0  0  0  0  0  0  0  0  0  0  0
    8.9443   -2.9810    1.0149 C   0  0  0  0  0  0  0  0  0  0  0  0
    9.3399   -1.7369    0.5009 C   0  0  0  0  0  0  0  0  0  0  0  0
   10.6479   -1.2701    0.6452 C   0  0  0  0  0  0  0  0  0  0  0  0
   11.5890   -2.0385    1.3134 C   0  0  0  0  0  0  0  0  0  0  0  0
   11.2091   -3.2719    1.8364 C   0  0  0  0  0  0  0  0  0  0  0  0
   12.1056   -4.0605    2.4934 O   0  0  0  0  0  0  0  0  0  0  0  0
    9.9004   -3.7380    1.7028 C   0  0  0  0  0  0  0  0  0  0  0  0
    6.3958   -1.4655    0.4603 N   0  0  0  0  0  0  0  0  0  0  0  0
    5.2841   -0.8744   -0.0193 C   0  0  0  0  0  0  0  0  0  0  0  0
    5.2502    0.6058    0.0009 C   0  0  0  0  0  0  0  0  0  0  0  0
    6.3880    1.2268   -0.4267 N   0  0  0  0  0  0  0  0  0  0  0  0
    6.4296    2.5757   -0.3908 C   0  0  0  0  0  0  0  0  0  0  0  0
    5.3999    3.3626    0.0900 C   0  0  0  0  0  0  0  0  0  0  0  0
    4.2468    2.7320    0.5411 C   0  0  0  0  0  0  0  0  0  0  0  0
    4.1357    1.3421    0.4459 C   0  0  0  0  0  0  0  0  0  0  0  0
    2.8819    0.7951    0.7771 N   0  0  0  0  0  0  0  0  0  0  0  0
    3.1895   -0.2416   -1.7529 H   0  0  0  0  0  0  0  0  0  0  0  0
    2.2936   -1.7056   -1.4053 H   0  0  0  0  0  0  0  0  0  0  0  0
    3.6067   -3.6659   -0.7868 H   0  0  0  0  0  0  0  0  0  0  0  0
    7.4955   -4.4435    0.9107 H   0  0  0  0  0  0  0  0  0  0  0  0
    8.6425   -1.1065   -0.0379 H   0  0  0  0  0  0  0  0  0  0  0  0
   10.9144   -0.3010    0.2295 H   0  0  0  0  0  0  0  0  0  0  0  0
   12.6005   -1.6634    1.4238 H   0  0  0  0  0  0  0  0  0  0  0  0
   12.9771   -3.6351    2.4445 H   0  0  0  0  0  0  0  0  0  0  0  0
    9.6351   -4.6928    2.1485 H   0  0  0  0  0  0  0  0  0  0  0  0
    7.3424    3.0213   -0.7756 H   0  0  0  0  0  0  0  0  0  0  0  0
    5.4817    4.4441    0.0898 H   0  0  0  0  0  0  0  0  0  0  0  0
    3.4175    3.3369    0.8973 H   0  0  0  0  0  0  0  0  0  0  0  0
    2.2585    1.3238    1.3742 H   0  0  0  0  0  0  0  0  0  0  0  0
  1  2  2  0  0  0  0
  2  3  1  0  0  0  0
  2 24  1  0  0  0  0
  3  4  1  0  0  0  0
  3 25  1  0  0  0  0
  3 26  1  0  0  0  0
  4  5  1  0  0  0  0
  4 17  2  0  0  0  0
  5  6  2  0  0  0  0
  5 27  1  0  0  0  0
  6  7  1  0  0  0  0
  7  8  1  0  0  0  0
  7 16  2  0  0  0  0
  8  9  1  0  0  0  0
  8 28  1  0  0  0  0
  9 10  1  0  0  0  0
  9 15  2  0  0  0  0
 10 11  2  0  0  0  0
 10 29  1  0  0  0  0
 11 12  1  0  0  0  0
 11 30  1  0  0  0  0
 12 13  2  0  0  0  0
 12 31  1  0  0  0  0
 13 14  1  0  0  0  0
 13 15  1  0  0  0  0
 14 32  1  0  0  0  0
 15 33  1  0  0  0  0
 16 17  1  0  0  0  0
 17 18  1  0  0  0  0
 18 19  1  0  0  0  0
 18 23  2  0  0  0  0
 19 20  2  0  0  0  0
 20 21  1  0  0  0  0
 20 34  1  0  0  0  0
 21 22  2  0  0  0  0
 21 35  1  0  0  0  0
 22 23  1  0  0  0  0
 22 36  1  0  0  0  0
 23 24  1  0  0  0  0
 24 37  1  0  0  0  0
M  END
$$$$
