CHEMBL225311
 OpenBabel04072215363D

 66 71  0  0  0  0  0  0  0  0999 V2000
    1.9239    0.0053   -1.0724 C   0  0  0  0  0  0  0  0  0  0  0  0
    0.4782    0.1966   -1.0783 N   0  0  0  0  0  0  0  0  0  0  0  0
   -0.2254   -1.0377   -0.6959 C   0  0  0  0  0  0  0  0  0  0  0  0
   -1.7536   -0.8134   -0.7403 C   0  0  0  0  0  0  0  0  0  0  0  0
   -2.2303    0.2138    0.2133 N   0  0  0  0  0  0  0  0  0  0  0  0
   -2.0597   -0.1432    1.6385 C   0  0  0  0  0  0  0  0  0  0  0  0
   -2.7786   -1.4078    2.0891 C   0  0  0  0  0  0  0  0  0  0  0  0
   -2.1206   -2.6642    1.9986 C   0  0  0  0  0  0  0  0  0  0  0  0
   -2.7606   -3.8644    2.3072 C   0  0  0  0  0  0  0  0  0  0  0  0
   -4.0349   -3.7728    2.7943 C   0  0  0  0  0  0  0  0  0  0  0  0
   -4.7029   -2.5329    2.9867 C   0  0  0  0  0  0  0  0  0  0  0  0
   -4.0861   -1.3470    2.6101 C   0  0  0  0  0  0  0  0  0  0  0  0
   -6.0879   -2.6955    3.6437 C   0  0  0  0  0  0  0  0  0  0  0  0
   -6.0819   -4.1851    3.7327 C   0  0  0  0  0  0  0  0  0  0  0  0
   -6.8486   -5.2637    4.1794 C   0  0  0  0  0  0  0  0  0  0  0  0
   -8.1701   -5.1506    4.7785 C   0  0  0  0  0  0  0  0  0  0  0  0
   -8.6810   -6.0119    5.7248 C   0  0  0  0  0  0  0  0  0  0  0  0
  -10.2753   -5.5929    6.1715 S   0  0  0  0  0  0  0  0  0  0  0  0
  -10.2912   -4.2663    5.0972 C   0  0  0  0  0  0  0  0  0  0  0  0
  -11.4242   -3.4242    4.9324 C   0  0  0  0  0  0  0  0  0  0  0  0
  -12.4846   -2.6734    4.8230 C   0  0  0  0  0  0  0  0  0  0  0  0
  -13.7207   -1.7982    4.6955 C   0  0  0  0  0  0  0  0  0  0  0  0
  -13.4199   -0.4424    5.0981 N   0  0  0  0  0  0  0  0  0  0  0  0
  -14.1243    0.6105    4.5331 C   0  0  0  0  0  0  0  0  0  0  0  0
  -14.9800    0.4651    3.6797 O   0  0  0  0  0  0  0  0  0  0  0  0
  -13.8079    1.9740    5.0458 C   0  0  0  0  0  0  0  0  0  0  0  0
  -12.5438    2.3083    5.5433 C   0  0  0  0  0  0  0  0  0  0  0  0
  -12.3040    3.5953    6.0340 C   0  0  0  0  0  0  0  0  0  0  0  0
  -13.3188    4.5535    6.0152 C   0  0  0  0  0  0  0  0  0  0  0  0
  -14.5683    4.2379    5.4850 C   0  0  0  0  0  0  0  0  0  0  0  0
  -14.8107    2.9525    4.9932 C   0  0  0  0  0  0  0  0  0  0  0  0
   -9.0966   -4.1236    4.4277 C   0  0  0  0  0  0  0  0  0  0  0  0
   -6.2062   -6.4382    4.0024 N   0  0  0  0  0  0  0  0  0  0  0  0
   -5.0412   -6.0916    3.3968 N   0  0  0  0  0  0  0  0  0  0  0  0
   -4.9397   -4.7588    3.2539 C   0  0  0  0  0  0  0  0  0  0  0  0
   -1.4827    1.4604   -0.1070 C   0  0  0  0  0  0  0  0  0  0  0  0
    0.0646    1.3043   -0.1946 C   0  0  0  0  0  0  0  0  0  0  0  0
    2.2039   -0.8205   -1.7368 H   0  0  0  0  0  0  0  0  0  0  0  0
    2.3133   -0.2142   -0.0720 H   0  0  0  0  0  0  0  0  0  0  0  0
    2.4283    0.8991   -1.4551 H   0  0  0  0  0  0  0  0  0  0  0  0
    0.0931   -1.3612    0.3014 H   0  0  0  0  0  0  0  0  0  0  0  0
    0.0288   -1.8488   -1.3885 H   0  0  0  0  0  0  0  0  0  0  0  0
   -2.2944   -1.7570   -0.6177 H   0  0  0  0  0  0  0  0  0  0  0  0
   -2.0194   -0.4826   -1.7555 H   0  0  0  0  0  0  0  0  0  0  0  0
   -2.4577    0.6864    2.2388 H   0  0  0  0  0  0  0  0  0  0  0  0
   -1.0063   -0.2264    1.9277 H   0  0  0  0  0  0  0  0  0  0  0  0
   -1.0853   -2.7134    1.6754 H   0  0  0  0  0  0  0  0  0  0  0  0
   -2.2609   -4.8162    2.1832 H   0  0  0  0  0  0  0  0  0  0  0  0
   -4.5967   -0.3952    2.7301 H   0  0  0  0  0  0  0  0  0  0  0  0
   -6.8804   -2.3157    2.9968 H   0  0  0  0  0  0  0  0  0  0  0  0
   -6.1042   -2.2336    4.6348 H   0  0  0  0  0  0  0  0  0  0  0  0
   -8.1871   -6.8638    6.1721 H   0  0  0  0  0  0  0  0  0  0  0  0
  -14.5240   -2.1832    5.3314 H   0  0  0  0  0  0  0  0  0  0  0  0
  -14.0630   -1.8078    3.6554 H   0  0  0  0  0  0  0  0  0  0  0  0
  -12.9122   -0.3032    5.9594 H   0  0  0  0  0  0  0  0  0  0  0  0
  -11.7300    1.5890    5.5334 H   0  0  0  0  0  0  0  0  0  0  0  0
  -11.3237    3.8564    6.4255 H   0  0  0  0  0  0  0  0  0  0  0  0
  -13.1328    5.5519    6.4056 H   0  0  0  0  0  0  0  0  0  0  0  0
  -15.3539    4.9881    5.4537 H   0  0  0  0  0  0  0  0  0  0  0  0
  -15.7863    2.7136    4.5739 H   0  0  0  0  0  0  0  0  0  0  0  0
   -8.9117   -3.3437    3.7007 H   0  0  0  0  0  0  0  0  0  0  0  0
   -4.3921   -6.8238    3.1254 H   0  0  0  0  0  0  0  0  0  0  0  0
   -1.7362    2.2522    0.6081 H   0  0  0  0  0  0  0  0  0  0  0  0
   -1.8419    1.8225   -1.0807 H   0  0  0  0  0  0  0  0  0  0  0  0
    0.4672    1.1583    0.8160 H   0  0  0  0  0  0  0  0  0  0  0  0
    0.4833    2.2437   -0.5758 H   0  0  0  0  0  0  0  0  0  0  0  0
  1  2  1  0  0  0  0
  1 38  1  0  0  0  0
  1 39  1  0  0  0  0
  1 40  1  0  0  0  0
  2  3  1  0  0  0  0
  2 37  1  0  0  0  0
  3  4  1  0  0  0  0
  3 41  1  0  0  0  0
  3 42  1  0  0  0  0
  4  5  1  0  0  0  0
  4 43  1  0  0  0  0
  4 44  1  0  0  0  0
  5  6  1  0  0  0  0
  5 36  1  0  0  0  0
  6  7  1  0  0  0  0
  6 45  1  0  0  0  0
  6 46  1  0  0  0  0
  7  8  1  0  0  0  0
  7 12  2  0  0  0  0
  8  9  2  0  0  0  0
  8 47  1  0  0  0  0
  9 10  1  0  0  0  0
  9 48  1  0  0  0  0
 10 11  2  0  0  0  0
 10 35  1  0  0  0  0
 11 12  1  0  0  0  0
 11 13  1  0  0  0  0
 12 49  1  0  0  0  0
 13 14  1  0  0  0  0
 13 50  1  0  0  0  0
 13 51  1  0  0  0  0
 14 15  1  0  0  0  0
 14 35  2  0  0  0  0
 15 16  1  0  0  0  0
 15 33  2  0  0  0  0
 16 17  2  0  0  0  0
 16 32  1  0  0  0  0
 17 18  1  0  0  0  0
 17 52  1  0  0  0  0
 18 19  1  0  0  0  0
 19 20  1  0  0  0  0
 19 32  2  0  0  0  0
 20 21  3  0  0  0  0
 21 22  1  0  0  0  0
 22 23  1  0  0  0  0
 22 53  1  0  0  0  0
 22 54  1  0  0  0  0
 23 24  1  0  0  0  0
 23 55  1  0  0  0  0
 24 25  2  0  0  0  0
 24 26  1  0  0  0  0
 26 27  1  0  0  0  0
 26 31  2  0  0  0  0
 27 28  2  0  0  0  0
 27 56  1  0  0  0  0
 28 29  1  0  0  0  0
 28 57  1  0  0  0  0
 29 30  2  0  0  0  0
 29 58  1  0  0  0  0
 30 31  1  0  0  0  0
 30 59  1  0  0  0  0
 31 60  1  0  0  0  0
 32 61  1  0  0  0  0
 33 34  1  0  0  0  0
 34 35  1  0  0  0  0
 34 62  1  0  0  0  0
 36 37  1  0  0  0  0
 36 63  1  0  0  0  0
 36 64  1  0  0  0  0
 37 65  1  0  0  0  0
 37 66  1  0  0  0  0
M  END
$$$$
