CHEMBL3901866
 OpenBabel04072215373D

 43 46  0  0  0  0  0  0  0  0999 V2000
    2.7173   -0.6207    1.1615 C   0  0  0  0  0  0  0  0  0  0  0  0
    2.2664    0.0964    0.1107 C   0  0  0  0  0  0  0  0  0  0  0  0
    1.1631   -0.4319   -0.7378 C   0  0  0  0  0  0  0  0  0  0  0  0
    0.1698   -1.2829   -0.2184 C   0  0  0  0  0  0  0  0  0  0  0  0
   -0.8637   -1.7695   -1.0211 C   0  0  0  0  0  0  0  0  0  0  0  0
   -0.9338   -1.4035   -2.3618 C   0  0  0  0  0  0  0  0  0  0  0  0
    0.0397   -0.5657   -2.8998 C   0  0  0  0  0  0  0  0  0  0  0  0
    1.0793   -0.0835   -2.0947 C   0  0  0  0  0  0  0  0  0  0  0  0
    3.0348    1.3458   -0.1325 C   0  0  0  0  0  0  0  0  0  0  0  0
    2.5015    2.6222    0.1135 C   0  0  0  0  0  0  0  0  0  0  0  0
    3.2785    3.7933   -0.0696 C   0  0  0  0  0  0  0  0  0  0  0  0
    4.6618    3.6410   -0.3284 C   0  0  0  0  0  0  0  0  0  0  0  0
    5.8289    4.4245   -0.6346 C   0  0  0  0  0  0  0  0  0  0  0  0
    6.2003    5.0129   -1.9178 C   0  0  0  0  0  0  0  0  0  0  0  0
    5.6578    4.5975   -3.0850 C   0  0  0  0  0  0  0  0  0  0  0  0
    6.4861    4.2204   -4.2628 C   0  0  0  0  0  0  0  0  0  0  0  0
    7.6766    3.4777   -4.0929 C   0  0  0  0  0  0  0  0  0  0  0  0
    8.3167    2.8762   -5.1855 C   0  0  0  0  0  0  0  0  0  0  0  0
    7.7749    3.0085   -6.4624 C   0  0  0  0  0  0  0  0  0  0  0  0
    6.6122    3.7542   -6.6484 C   0  0  0  0  0  0  0  0  0  0  0  0
    5.9662    4.3490   -5.5518 C   0  0  0  0  0  0  0  0  0  0  0  0
    6.8798    3.7900   -0.0518 N   0  0  0  0  0  0  0  0  0  0  0  0
    6.5158    2.5044   -0.2051 N   0  0  0  0  0  0  0  0  0  0  0  0
    5.1646    2.3513   -0.3735 C   0  0  0  0  0  0  0  0  0  0  0  0
    4.3873    1.2060   -0.4706 C   0  0  0  0  0  0  0  0  0  0  0  0
    2.3262   -1.5947    1.4302 H   0  0  0  0  0  0  0  0  0  0  0  0
    3.5337   -0.2629    1.7854 H   0  0  0  0  0  0  0  0  0  0  0  0
    0.1791   -1.5747    0.8281 H   0  0  0  0  0  0  0  0  0  0  0  0
   -1.6151   -2.4310   -0.5968 H   0  0  0  0  0  0  0  0  0  0  0  0
   -1.7359   -1.7791   -2.9868 H   0  0  0  0  0  0  0  0  0  0  0  0
   -0.0080   -0.2846   -3.9483 H   0  0  0  0  0  0  0  0  0  0  0  0
    1.8280    0.5624   -2.5481 H   0  0  0  0  0  0  0  0  0  0  0  0
    1.4803    2.7140    0.4824 H   0  0  0  0  0  0  0  0  0  0  0  0
    2.8482    4.7711    0.1271 H   0  0  0  0  0  0  0  0  0  0  0  0
    7.2228    5.3886   -1.9317 H   0  0  0  0  0  0  0  0  0  0  0  0
    4.6640    4.1646   -3.1072 H   0  0  0  0  0  0  0  0  0  0  0  0
    8.0909    3.3078   -3.1016 H   0  0  0  0  0  0  0  0  0  0  0  0
    9.2077    2.2766   -5.0318 H   0  0  0  0  0  0  0  0  0  0  0  0
    8.2484    2.5136   -7.3085 H   0  0  0  0  0  0  0  0  0  0  0  0
    6.1749    3.8411   -7.6401 H   0  0  0  0  0  0  0  0  0  0  0  0
    5.0342    4.8779   -5.7086 H   0  0  0  0  0  0  0  0  0  0  0  0
    7.2164    1.7894   -0.0885 H   0  0  0  0  0  0  0  0  0  0  0  0
    4.8293    0.2290   -0.6418 H   0  0  0  0  0  0  0  0  0  0  0  0
  1  2  2  0  0  0  0
  1 26  1  0  0  0  0
  1 27  1  0  0  0  0
  2  3  1  0  0  0  0
  2  9  1  0  0  0  0
  3  4  1  0  0  0  0
  3  8  2  0  0  0  0
  4  5  2  0  0  0  0
  4 28  1  0  0  0  0
  5  6  1  0  0  0  0
  5 29  1  0  0  0  0
  6  7  2  0  0  0  0
  6 30  1  0  0  0  0
  7  8  1  0  0  0  0
  7 31  1  0  0  0  0
  8 32  1  0  0  0  0
  9 10  1  0  0  0  0
  9 25  2  0  0  0  0
 10 11  2  0  0  0  0
 10 33  1  0  0  0  0
 11 12  1  0  0  0  0
 11 34  1  0  0  0  0
 12 13  1  0  0  0  0
 12 24  2  0  0  0  0
 13 14  1  0  0  0  0
 13 22  2  0  0  0  0
 14 15  2  0  0  0  0
 14 35  1  0  0  0  0
 15 16  1  0  0  0  0
 15 36  1  0  0  0  0
 16 17  1  0  0  0  0
 16 21  2  0  0  0  0
 17 18  2  0  0  0  0
 17 37  1  0  0  0  0
 18 19  1  0  0  0  0
 18 38  1  0  0  0  0
 19 20  2  0  0  0  0
 19 39  1  0  0  0  0
 20 21  1  0  0  0  0
 20 40  1  0  0  0  0
 21 41  1  0  0  0  0
 22 23  1  0  0  0  0
 23 24  1  0  0  0  0
 23 42  1  0  0  0  0
 24 25  1  0  0  0  0
 25 43  1  0  0  0  0
M  END
$$$$
