CHEMBL2348995
 OpenBabel04072215363D

 60 65  0  0  0  0  0  0  0  0999 V2000
    1.1739   -0.0245    0.1206 C   0  0  0  0  0  0  0  0  0  0  0  0
    2.6424    0.1877    0.0773 C   0  0  0  0  0  0  0  0  0  0  0  0
    3.3904    1.3820    0.1781 C   0  0  0  0  0  0  0  0  0  0  0  0
    4.7239    1.0026    0.0618 C   0  0  0  0  0  0  0  0  0  0  0  0
    5.9101    1.7909   -0.1768 C   0  0  0  0  0  0  0  0  0  0  0  0
    6.8191    1.3462   -0.8733 O   0  0  0  0  0  0  0  0  0  0  0  0
    5.9909    3.0657    0.4269 N   0  0  0  0  0  0  0  0  0  0  0  0
    7.1097    3.9652    0.3071 C   0  0  0  0  0  0  0  0  0  0  0  0
    8.1153    3.7499   -0.6486 C   0  0  0  0  0  0  0  0  0  0  0  0
    9.2522    4.5470   -0.7158 C   0  0  0  0  0  0  0  0  0  0  0  0
    9.4061    5.6064    0.1561 C   0  0  0  0  0  0  0  0  0  0  0  0
    8.3909    5.9198    1.0557 C   0  0  0  0  0  0  0  0  0  0  0  0
    8.5148    7.0408    1.9373 O   0  0  0  0  0  0  0  0  0  0  0  0
    9.4109    8.1093    1.7481 C   0  0  0  0  0  0  0  0  0  0  0  0
    9.3752    8.9917    2.9493 C   0  0  0  0  0  0  0  0  0  0  0  0
    9.9965   10.1771    2.7849 C   0  0  0  0  0  0  0  0  0  0  0  0
   10.9948   10.2789    1.7949 C   0  0  0  0  0  0  0  0  0  0  0  0
   12.0726   11.0445    1.6947 N   0  0  0  0  0  0  0  0  0  0  0  0
   12.7288   10.6020    0.5800 C   0  0  0  0  0  0  0  0  0  0  0  0
   13.9599   11.0351    0.1539 N   0  0  0  0  0  0  0  0  0  0  0  0
   14.7950   11.8496    0.8828 C   0  0  0  0  0  0  0  0  0  0  0  0
   14.5735   12.3689    1.9656 O   0  0  0  0  0  0  0  0  0  0  0  0
   16.1153   12.0854    0.2078 C   0  0  0  0  0  0  0  0  0  0  0  0
   17.1940   12.9127    0.8760 C   0  0  0  0  0  0  0  0  0  0  0  0
   16.4336   13.4773   -0.2884 C   0  0  0  0  0  0  0  0  0  0  0  0
   12.0024    9.6112   -0.0456 C   0  0  0  0  0  0  0  0  0  0  0  0
   10.9545    9.3344    0.7821 N   0  0  0  0  0  0  0  0  0  0  0  0
   10.1170    8.2851    0.6818 N   0  0  0  0  0  0  0  0  0  0  0  0
    7.2396    5.0926    1.1507 C   0  0  0  0  0  0  0  0  0  0  0  0
    4.7018   -0.3940   -0.0081 N   0  0  0  0  0  0  0  0  0  0  0  0
    5.7589   -1.3471    0.0973 C   0  0  0  0  0  0  0  0  0  0  0  0
    6.9278   -1.0660    0.8131 C   0  0  0  0  0  0  0  0  0  0  0  0
    7.9132   -2.0478    0.9585 C   0  0  0  0  0  0  0  0  0  0  0  0
    7.7441   -3.3078    0.3861 C   0  0  0  0  0  0  0  0  0  0  0  0
    6.5854   -3.5957   -0.3311 C   0  0  0  0  0  0  0  0  0  0  0  0
    5.5890   -2.6251   -0.4646 C   0  0  0  0  0  0  0  0  0  0  0  0
    3.4333   -0.8652   -0.1139 N   0  0  0  0  0  0  0  0  0  0  0  0
    0.6277    0.9188    0.0429 H   0  0  0  0  0  0  0  0  0  0  0  0
    0.8951   -0.5089    1.0631 H   0  0  0  0  0  0  0  0  0  0  0  0
    0.8491   -0.6753   -0.7004 H   0  0  0  0  0  0  0  0  0  0  0  0
    2.9961    2.3886    0.2240 H   0  0  0  0  0  0  0  0  0  0  0  0
    5.2536    3.3302    1.0663 H   0  0  0  0  0  0  0  0  0  0  0  0
    8.0583    2.9575   -1.3838 H   0  0  0  0  0  0  0  0  0  0  0  0
   10.0229    4.3295   -1.4503 H   0  0  0  0  0  0  0  0  0  0  0  0
   10.3307    6.1658    0.0940 H   0  0  0  0  0  0  0  0  0  0  0  0
    9.6965    8.4173    3.8252 H   0  0  0  0  0  0  0  0  0  0  0  0
    9.5245   11.0947    3.1215 H   0  0  0  0  0  0  0  0  0  0  0  0
   14.3064   10.6377   -0.7100 H   0  0  0  0  0  0  0  0  0  0  0  0
   16.4809   11.2569   -0.3928 H   0  0  0  0  0  0  0  0  0  0  0  0
   18.2296   12.6335    0.7185 H   0  0  0  0  0  0  0  0  0  0  0  0
   16.9940   13.3188    1.8623 H   0  0  0  0  0  0  0  0  0  0  0  0
   16.9534   13.5812   -1.2326 H   0  0  0  0  0  0  0  0  0  0  0  0
   15.7189   14.2673   -0.0822 H   0  0  0  0  0  0  0  0  0  0  0  0
   12.1713    9.0343   -0.9438 H   0  0  0  0  0  0  0  0  0  0  0  0
    6.4858    5.3259    1.8926 H   0  0  0  0  0  0  0  0  0  0  0  0
    7.0853   -0.1094    1.3003 H   0  0  0  0  0  0  0  0  0  0  0  0
    8.8128   -1.8280    1.5276 H   0  0  0  0  0  0  0  0  0  0  0  0
    8.5139   -4.0661    0.5036 H   0  0  0  0  0  0  0  0  0  0  0  0
    6.4546   -4.5754   -0.7839 H   0  0  0  0  0  0  0  0  0  0  0  0
    4.6915   -2.8710   -1.0303 H   0  0  0  0  0  0  0  0  0  0  0  0
  1  2  1  0  0  0  0
  1 38  1  0  0  0  0
  1 39  1  0  0  0  0
  1 40  1  0  0  0  0
  2  3  1  0  0  0  0
  2 37  2  0  0  0  0
  3  4  2  0  0  0  0
  3 41  1  0  0  0  0
  4  5  1  0  0  0  0
  4 30  1  0  0  0  0
  5  6  2  0  0  0  0
  5  7  1  0  0  0  0
  7  8  1  0  0  0  0
  7 42  1  0  0  0  0
  8  9  1  0  0  0  0
  8 29  2  0  0  0  0
  9 10  2  0  0  0  0
  9 43  1  0  0  0  0
 10 11  1  0  0  0  0
 10 44  1  0  0  0  0
 11 12  2  0  0  0  0
 11 45  1  0  0  0  0
 12 13  1  0  0  0  0
 12 29  1  0  0  0  0
 13 14  1  0  0  0  0
 14 15  1  0  0  0  0
 14 28  2  0  0  0  0
 15 16  2  0  0  0  0
 15 46  1  0  0  0  0
 16 17  1  0  0  0  0
 16 47  1  0  0  0  0
 17 18  2  0  0  0  0
 17 27  1  0  0  0  0
 18 19  1  0  0  0  0
 19 20  1  0  0  0  0
 19 26  2  0  0  0  0
 20 21  1  0  0  0  0
 20 48  1  0  0  0  0
 21 22  2  0  0  0  0
 21 23  1  0  0  0  0
 23 24  1  0  0  0  0
 23 25  1  0  0  0  0
 23 49  1  0  0  0  0
 24 25  1  0  0  0  0
 24 50  1  0  0  0  0
 24 51  1  0  0  0  0
 25 52  1  0  0  0  0
 25 53  1  0  0  0  0
 26 27  1  0  0  0  0
 26 54  1  0  0  0  0
 27 28  1  0  0  0  0
 29 55  1  0  0  0  0
 30 31  1  0  0  0  0
 30 37  1  0  0  0  0
 31 32  1  0  0  0  0
 31 36  2  0  0  0  0
 32 33  2  0  0  0  0
 32 56  1  0  0  0  0
 33 34  1  0  0  0  0
 33 57  1  0  0  0  0
 34 35  2  0  0  0  0
 34 58  1  0  0  0  0
 35 36  1  0  0  0  0
 35 59  1  0  0  0  0
 36 60  1  0  0  0  0
M  END
$$$$
