CHEMBL2349009
 OpenBabel04072215363D

 59 63  0  0  0  0  0  0  0  0999 V2000
    5.6028    2.9209    5.8255 O   0  0  0  0  0  0  0  0  0  0  0  0
    4.7071    2.8293    4.9937 C   0  0  0  0  0  0  0  0  0  0  0  0
    3.8798    1.7287    4.7969 N   0  0  0  0  0  0  0  0  0  0  0  0
    3.9096    0.5515    5.5959 C   0  0  0  0  0  0  0  0  0  0  0  0
    4.5245    0.5299    6.8545 C   0  0  0  0  0  0  0  0  0  0  0  0
    4.6346   -0.6488    7.5904 C   0  0  0  0  0  0  0  0  0  0  0  0
    4.1066   -1.8261    7.0885 C   0  0  0  0  0  0  0  0  0  0  0  0
    3.4128   -1.8063    5.8783 C   0  0  0  0  0  0  0  0  0  0  0  0
    2.8963   -3.0057    5.3358 O   0  0  0  0  0  0  0  0  0  0  0  0
    2.2930   -3.9341    6.1845 C   0  0  0  0  0  0  0  0  0  0  0  0
    2.3304   -5.2666    5.5368 C   0  0  0  0  0  0  0  0  0  0  0  0
    1.8097   -6.2857    6.2360 C   0  0  0  0  0  0  0  0  0  0  0  0
    1.2558   -6.0377    7.5120 C   0  0  0  0  0  0  0  0  0  0  0  0
    0.6789   -6.8372    8.3815 N   0  0  0  0  0  0  0  0  0  0  0  0
    0.3555   -6.0497    9.4487 C   0  0  0  0  0  0  0  0  0  0  0  0
   -0.2917   -6.4934   10.5792 N   0  0  0  0  0  0  0  0  0  0  0  0
   -0.7441   -7.7890   10.7671 C   0  0  0  0  0  0  0  0  0  0  0  0
   -0.5440   -8.7407   10.0193 O   0  0  0  0  0  0  0  0  0  0  0  0
   -1.5518   -7.9538   12.0674 C   0  0  0  0  0  0  0  0  0  0  0  0
   -1.9692   -9.4233   12.2644 C   0  0  0  0  0  0  0  0  0  0  0  0
   -2.8770   -9.6229   13.4754 C   0  0  0  0  0  0  0  0  0  0  0  0
   -4.0997   -8.7166   13.4091 C   0  0  0  0  0  0  0  0  0  0  0  0
   -3.6881   -7.2568   13.2737 C   0  0  0  0  0  0  0  0  0  0  0  0
   -2.7851   -7.0345   12.0634 C   0  0  0  0  0  0  0  0  0  0  0  0
    0.7445   -4.7477    9.2336 C   0  0  0  0  0  0  0  0  0  0  0  0
    1.3004   -4.7369    7.9822 N   0  0  0  0  0  0  0  0  0  0  0  0
    1.8041   -3.6427    7.3481 N   0  0  0  0  0  0  0  0  0  0  0  0
    3.3204   -0.6294    5.1171 C   0  0  0  0  0  0  0  0  0  0  0  0
    4.5433    3.9875    4.0785 C   0  0  0  0  0  0  0  0  0  0  0  0
    5.6977    4.7257    3.7572 C   0  0  0  0  0  0  0  0  0  0  0  0
    5.6131    5.8813    2.9806 C   0  0  0  0  0  0  0  0  0  0  0  0
    4.3696    6.3109    2.5287 C   0  0  0  0  0  0  0  0  0  0  0  0
    3.2282    5.5814    2.8569 C   0  0  0  0  0  0  0  0  0  0  0  0
    2.0336    6.0197    2.4388 F   0  0  0  0  0  0  0  0  0  0  0  0
    3.2972    4.4209    3.6268 C   0  0  0  0  0  0  0  0  0  0  0  0
    3.3369    1.6887    3.9433 H   0  0  0  0  0  0  0  0  0  0  0  0
    4.9379    1.4280    7.3018 H   0  0  0  0  0  0  0  0  0  0  0  0
    5.1436   -0.6400    8.5502 H   0  0  0  0  0  0  0  0  0  0  0  0
    4.2335   -2.7442    7.6545 H   0  0  0  0  0  0  0  0  0  0  0  0
    2.7877   -5.3870    4.5650 H   0  0  0  0  0  0  0  0  0  0  0  0
    1.8051   -7.3025    5.8595 H   0  0  0  0  0  0  0  0  0  0  0  0
   -0.4633   -5.8022   11.2936 H   0  0  0  0  0  0  0  0  0  0  0  0
   -0.8932   -7.6707   12.8997 H   0  0  0  0  0  0  0  0  0  0  0  0
   -1.0764  -10.0512   12.3751 H   0  0  0  0  0  0  0  0  0  0  0  0
   -2.4924   -9.7859   11.3697 H   0  0  0  0  0  0  0  0  0  0  0  0
   -2.3150   -9.4165   14.3941 H   0  0  0  0  0  0  0  0  0  0  0  0
   -3.1986  -10.6696   13.5257 H   0  0  0  0  0  0  0  0  0  0  0  0
   -4.7090   -8.8483   14.3103 H   0  0  0  0  0  0  0  0  0  0  0  0
   -4.7254   -9.0030   12.5548 H   0  0  0  0  0  0  0  0  0  0  0  0
   -3.1645   -6.9386   14.1837 H   0  0  0  0  0  0  0  0  0  0  0  0
   -4.5820   -6.6289   13.1842 H   0  0  0  0  0  0  0  0  0  0  0  0
   -2.4808   -5.9818   12.0506 H   0  0  0  0  0  0  0  0  0  0  0  0
   -3.3620   -7.1986   11.1437 H   0  0  0  0  0  0  0  0  0  0  0  0
    0.6710   -3.8441    9.8184 H   0  0  0  0  0  0  0  0  0  0  0  0
    2.8239   -0.6592    4.1528 H   0  0  0  0  0  0  0  0  0  0  0  0
    6.6689    4.4069    4.1352 H   0  0  0  0  0  0  0  0  0  0  0  0
    6.5119    6.4484    2.7501 H   0  0  0  0  0  0  0  0  0  0  0  0
    4.2807    7.2178    1.9381 H   0  0  0  0  0  0  0  0  0  0  0  0
    2.3776    3.9153    3.8989 H   0  0  0  0  0  0  0  0  0  0  0  0
  1  2  2  0  0  0  0
  2  3  1  0  0  0  0
  2 29  1  0  0  0  0
  3  4  1  0  0  0  0
  3 36  1  0  0  0  0
  4  5  1  0  0  0  0
  4 28  2  0  0  0  0
  5  6  2  0  0  0  0
  5 37  1  0  0  0  0
  6  7  1  0  0  0  0
  6 38  1  0  0  0  0
  7  8  2  0  0  0  0
  7 39  1  0  0  0  0
  8  9  1  0  0  0  0
  8 28  1  0  0  0  0
  9 10  1  0  0  0  0
 10 11  1  0  0  0  0
 10 27  2  0  0  0  0
 11 12  2  0  0  0  0
 11 40  1  0  0  0  0
 12 13  1  0  0  0  0
 12 41  1  0  0  0  0
 13 14  2  0  0  0  0
 13 26  1  0  0  0  0
 14 15  1  0  0  0  0
 15 16  1  0  0  0  0
 15 25  2  0  0  0  0
 16 17  1  0  0  0  0
 16 42  1  0  0  0  0
 17 18  2  0  0  0  0
 17 19  1  0  0  0  0
 19 20  1  0  0  0  0
 19 24  1  0  0  0  0
 19 43  1  0  0  0  0
 20 21  1  0  0  0  0
 20 44  1  0  0  0  0
 20 45  1  0  0  0  0
 21 22  1  0  0  0  0
 21 46  1  0  0  0  0
 21 47  1  0  0  0  0
 22 23  1  0  0  0  0
 22 48  1  0  0  0  0
 22 49  1  0  0  0  0
 23 24  1  0  0  0  0
 23 50  1  0  0  0  0
 23 51  1  0  0  0  0
 24 52  1  0  0  0  0
 24 53  1  0  0  0  0
 25 26  1  0  0  0  0
 25 54  1  0  0  0  0
 26 27  1  0  0  0  0
 28 55  1  0  0  0  0
 29 30  1  0  0  0  0
 29 35  2  0  0  0  0
 30 31  2  0  0  0  0
 30 56  1  0  0  0  0
 31 32  1  0  0  0  0
 31 57  1  0  0  0  0
 32 33  2  0  0  0  0
 32 58  1  0  0  0  0
 33 34  1  0  0  0  0
 33 35  1  0  0  0  0
 35 59  1  0  0  0  0
M  END
$$$$
