CHEMBL437747
 OpenBabel04072215383D

 69 73  0  0  0  0  0  0  0  0999 V2000
    2.8109   -0.4675   -1.5017 C   0  0  0  0  0  0  0  0  0  0  0  0
    2.5741    0.2967   -0.2078 C   0  0  0  0  0  0  0  0  0  0  0  0
    3.2062   -0.3886    1.0005 C   0  0  0  0  0  0  0  0  0  0  0  0
    4.6602   -0.4654    0.9948 N   0  0  0  0  0  0  0  0  0  0  0  0
    5.3576   -1.6612    1.0890 C   0  0  0  0  0  0  0  0  0  0  0  0
    4.7709   -2.9242    1.6626 C   0  0  0  0  0  0  0  0  0  0  0  0
    4.0193   -3.8461    0.6991 C   0  0  0  0  0  0  0  0  0  0  0  0
    3.3121   -4.9255    1.5373 C   0  0  0  0  0  0  0  0  0  0  0  0
    4.2357   -5.6907    2.3790 N   0  0  0  0  0  0  0  0  0  0  0  0
    5.0910   -4.8374    3.2077 C   0  0  0  0  0  0  0  0  0  0  0  0
    5.8205   -3.7790    2.3829 C   0  0  0  0  0  0  0  0  0  0  0  0
    6.6375   -1.4498    0.8843 N   0  0  0  0  0  0  0  0  0  0  0  0
    6.8145   -0.0823    0.9342 C   0  0  0  0  0  0  0  0  0  0  0  0
    8.1713    0.4583    0.9946 C   0  0  0  0  0  0  0  0  0  0  0  0
    9.2029   -0.2026    0.3085 C   0  0  0  0  0  0  0  0  0  0  0  0
   10.5235    0.2515    0.3892 C   0  0  0  0  0  0  0  0  0  0  0  0
   10.8329    1.3775    1.1523 C   0  0  0  0  0  0  0  0  0  0  0  0
   12.4811    1.8951    1.1986 Cl  0  0  0  0  0  0  0  0  0  0  0  0
    9.8202    2.0334    1.8555 C   0  0  0  0  0  0  0  0  0  0  0  0
   10.1234    3.4271    2.8321 Cl  0  0  0  0  0  0  0  0  0  0  0  0
    8.5056    1.5584    1.7937 C   0  0  0  0  0  0  0  0  0  0  0  0
    5.5865    0.5857    1.0250 C   0  0  0  0  0  0  0  0  0  0  0  0
    5.2664    2.0283    1.1442 C   0  0  0  0  0  0  0  0  0  0  0  0
    4.2181    2.5115    1.8924 C   0  0  0  0  0  0  0  0  0  0  0  0
    4.0444    3.8683    1.8982 C   0  0  0  0  0  0  0  0  0  0  0  0
    4.8839    4.7221    1.3033 N   0  0  0  0  0  0  0  0  0  0  0  0
    5.9332    4.1897    0.6665 C   0  0  0  0  0  0  0  0  0  0  0  0
    6.9247    5.0123    0.1777 N   0  0  0  0  0  0  0  0  0  0  0  0
    6.5961    6.3818   -0.1952 C   0  0  0  0  0  0  0  0  0  0  0  0
    5.7066    6.4159   -1.4468 C   0  0  0  0  0  0  0  0  0  0  0  0
    5.4398    7.8446   -1.9143 C   0  0  0  0  0  0  0  0  0  0  0  0
    6.7356    8.6082   -2.1628 C   0  0  0  0  0  0  0  0  0  0  0  0
    7.6460    8.5786   -0.9391 C   0  0  0  0  0  0  0  0  0  0  0  0
    7.9046    7.1508   -0.4581 C   0  0  0  0  0  0  0  0  0  0  0  0
    6.1214    2.8638    0.5218 N   0  0  0  0  0  0  0  0  0  0  0  0
    2.2803    0.0169   -2.3246 H   0  0  0  0  0  0  0  0  0  0  0  0
    2.4425   -1.4961   -1.4203 H   0  0  0  0  0  0  0  0  0  0  0  0
    3.8742   -0.4999   -1.7523 H   0  0  0  0  0  0  0  0  0  0  0  0
    1.4930    0.3639   -0.0335 H   0  0  0  0  0  0  0  0  0  0  0  0
    2.9366    1.3211   -0.3261 H   0  0  0  0  0  0  0  0  0  0  0  0
    2.7977   -1.4001    1.0553 H   0  0  0  0  0  0  0  0  0  0  0  0
    2.9039    0.0732    1.9416 H   0  0  0  0  0  0  0  0  0  0  0  0
    4.0649   -2.5863    2.4381 H   0  0  0  0  0  0  0  0  0  0  0  0
    4.6978   -4.3115   -0.0214 H   0  0  0  0  0  0  0  0  0  0  0  0
    3.2681   -3.3025    0.1123 H   0  0  0  0  0  0  0  0  0  0  0  0
    2.7786   -5.6184    0.8787 H   0  0  0  0  0  0  0  0  0  0  0  0
    2.5468   -4.4600    2.1735 H   0  0  0  0  0  0  0  0  0  0  0  0
    4.8290   -6.2665    1.7837 H   0  0  0  0  0  0  0  0  0  0  0  0
    5.8213   -5.4606    3.7350 H   0  0  0  0  0  0  0  0  0  0  0  0
    4.4859   -4.3482    3.9825 H   0  0  0  0  0  0  0  0  0  0  0  0
    6.4929   -4.2611    1.6587 H   0  0  0  0  0  0  0  0  0  0  0  0
    6.4483   -3.1660    3.0392 H   0  0  0  0  0  0  0  0  0  0  0  0
    8.9798   -1.0924   -0.2790 H   0  0  0  0  0  0  0  0  0  0  0  0
   11.3054   -0.2872   -0.1410 H   0  0  0  0  0  0  0  0  0  0  0  0
    7.7441    2.0567    2.3861 H   0  0  0  0  0  0  0  0  0  0  0  0
    3.5460    1.8934    2.4626 H   0  0  0  0  0  0  0  0  0  0  0  0
    3.2045    4.3297    2.4186 H   0  0  0  0  0  0  0  0  0  0  0  0
    7.5432    4.4881   -0.4250 H   0  0  0  0  0  0  0  0  0  0  0  0
    6.0810    6.8887    0.6333 H   0  0  0  0  0  0  0  0  0  0  0  0
    4.7470    5.9246   -1.2487 H   0  0  0  0  0  0  0  0  0  0  0  0
    6.1842    5.8497   -2.2570 H   0  0  0  0  0  0  0  0  0  0  0  0
    4.8449    8.3716   -1.1581 H   0  0  0  0  0  0  0  0  0  0  0  0
    4.8427    7.8251   -2.8329 H   0  0  0  0  0  0  0  0  0  0  0  0
    6.5066    9.6468   -2.4281 H   0  0  0  0  0  0  0  0  0  0  0  0
    7.2601    8.1685   -3.0201 H   0  0  0  0  0  0  0  0  0  0  0  0
    7.1877    9.1606   -0.1301 H   0  0  0  0  0  0  0  0  0  0  0  0
    8.5982    9.0658   -1.1804 H   0  0  0  0  0  0  0  0  0  0  0  0
    8.5134    7.1806    0.4541 H   0  0  0  0  0  0  0  0  0  0  0  0
    8.5028    6.6226   -1.2124 H   0  0  0  0  0  0  0  0  0  0  0  0
  1  2  1  0  0  0  0
  1 36  1  0  0  0  0
  1 37  1  0  0  0  0
  1 38  1  0  0  0  0
  2  3  1  0  0  0  0
  2 39  1  0  0  0  0
  2 40  1  0  0  0  0
  3  4  1  0  0  0  0
  3 41  1  0  0  0  0
  3 42  1  0  0  0  0
  4  5  1  0  0  0  0
  4 22  1  0  0  0  0
  5  6  1  0  0  0  0
  5 12  2  0  0  0  0
  6  7  1  0  0  0  0
  6 11  1  0  0  0  0
  6 43  1  0  0  0  0
  7  8  1  0  0  0  0
  7 44  1  0  0  0  0
  7 45  1  0  0  0  0
  8  9  1  0  0  0  0
  8 46  1  0  0  0  0
  8 47  1  0  0  0  0
  9 10  1  0  0  0  0
  9 48  1  0  0  0  0
 10 11  1  0  0  0  0
 10 49  1  0  0  0  0
 10 50  1  0  0  0  0
 11 51  1  0  0  0  0
 11 52  1  0  0  0  0
 12 13  1  0  0  0  0
 13 14  1  0  0  0  0
 13 22  2  0  0  0  0
 14 15  1  0  0  0  0
 14 21  2  0  0  0  0
 15 16  2  0  0  0  0
 15 53  1  0  0  0  0
 16 17  1  0  0  0  0
 16 54  1  0  0  0  0
 17 18  1  0  0  0  0
 17 19  2  0  0  0  0
 19 20  1  0  0  0  0
 19 21  1  0  0  0  0
 21 55  1  0  0  0  0
 22 23  1  0  0  0  0
 23 24  1  0  0  0  0
 23 35  2  0  0  0  0
 24 25  2  0  0  0  0
 24 56  1  0  0  0  0
 25 26  1  0  0  0  0
 25 57  1  0  0  0  0
 26 27  2  0  0  0  0
 27 28  1  0  0  0  0
 27 35  1  0  0  0  0
 28 29  1  0  0  0  0
 28 58  1  0  0  0  0
 29 30  1  0  0  0  0
 29 34  1  0  0  0  0
 29 59  1  0  0  0  0
 30 31  1  0  0  0  0
 30 60  1  0  0  0  0
 30 61  1  0  0  0  0
 31 32  1  0  0  0  0
 31 62  1  0  0  0  0
 31 63  1  0  0  0  0
 32 33  1  0  0  0  0
 32 64  1  0  0  0  0
 32 65  1  0  0  0  0
 33 34  1  0  0  0  0
 33 66  1  0  0  0  0
 33 67  1  0  0  0  0
 34 68  1  0  0  0  0
 34 69  1  0  0  0  0
M  END
$$$$
