CHEMBL2047241
 OpenBabel04072215363D

 35 38  0  0  0  0  0  0  0  0999 V2000
    1.1936    0.0611   -0.1091 N   0  0  0  0  0  0  0  0  0  0  0  0
    2.5716    0.0400   -0.0480 C   0  0  0  0  0  0  0  0  0  0  0  0
    3.2106    1.2063    0.0348 N   0  0  0  0  0  0  0  0  0  0  0  0
    4.5463    1.0940    0.0786 C   0  0  0  0  0  0  0  0  0  0  0  0
    5.2636   -0.0999    0.0642 C   0  0  0  0  0  0  0  0  0  0  0  0
    4.5088   -1.2434   -0.0112 C   0  0  0  0  0  0  0  0  0  0  0  0
    5.1161   -2.5193   -0.0594 N   0  0  0  0  0  0  0  0  0  0  0  0
    4.5062   -3.6775   -0.5926 C   0  0  0  0  0  0  0  0  0  0  0  0
    3.6643   -3.5979   -1.7159 C   0  0  0  0  0  0  0  0  0  0  0  0
    3.0540   -4.7334   -2.2446 C   0  0  0  0  0  0  0  0  0  0  0  0
    3.3093   -5.9675   -1.6673 C   0  0  0  0  0  0  0  0  0  0  0  0
    2.7102   -7.0605   -2.1578 F   0  0  0  0  0  0  0  0  0  0  0  0
    4.1796   -6.0847   -0.5901 C   0  0  0  0  0  0  0  0  0  0  0  0
    4.7904   -4.9425   -0.0612 C   0  0  0  0  0  0  0  0  0  0  0  0
    3.1566   -1.1651   -0.0491 N   0  0  0  0  0  0  0  0  0  0  0  0
    6.6822    0.1955    0.0727 C   0  0  0  0  0  0  0  0  0  0  0  0
    7.7961   -0.6264    0.0344 C   0  0  0  0  0  0  0  0  0  0  0  0
    9.0654   -0.0349    0.0394 C   0  0  0  0  0  0  0  0  0  0  0  0
    9.2129    1.3617    0.0728 C   0  0  0  0  0  0  0  0  0  0  0  0
    8.0950    2.1948    0.0984 C   0  0  0  0  0  0  0  0  0  0  0  0
    6.8439    1.6003    0.0981 C   0  0  0  0  0  0  0  0  0  0  0  0
    5.4931    2.2840    0.0997 C   0  0  0  0  0  0  0  0  0  0  0  0
    0.8414    0.9162    0.2998 H   0  0  0  0  0  0  0  0  0  0  0  0
    0.8245   -0.8121    0.2370 H   0  0  0  0  0  0  0  0  0  0  0  0
    5.6170   -2.6881    0.8058 H   0  0  0  0  0  0  0  0  0  0  0  0
    3.4670   -2.6355   -2.1830 H   0  0  0  0  0  0  0  0  0  0  0  0
    2.3847   -4.6537   -3.0939 H   0  0  0  0  0  0  0  0  0  0  0  0
    4.3730   -7.0648   -0.1661 H   0  0  0  0  0  0  0  0  0  0  0  0
    5.4676   -5.0519    0.7807 H   0  0  0  0  0  0  0  0  0  0  0  0
    7.7093   -1.7063   -0.0159 H   0  0  0  0  0  0  0  0  0  0  0  0
    9.9523   -0.6645    0.0070 H   0  0  0  0  0  0  0  0  0  0  0  0
   10.2099    1.7966    0.0696 H   0  0  0  0  0  0  0  0  0  0  0  0
    8.2069    3.2741    0.1098 H   0  0  0  0  0  0  0  0  0  0  0  0
    5.3594    2.8888   -0.8015 H   0  0  0  0  0  0  0  0  0  0  0  0
    5.3487    2.8742    1.0084 H   0  0  0  0  0  0  0  0  0  0  0  0
  1  2  1  0  0  0  0
  1 23  1  0  0  0  0
  1 24  1  0  0  0  0
  2  3  1  0  0  0  0
  2 15  2  0  0  0  0
  3  4  2  0  0  0  0
  4  5  1  0  0  0  0
  4 22  1  0  0  0  0
  5  6  2  0  0  0  0
  5 16  1  0  0  0  0
  6  7  1  0  0  0  0
  6 15  1  0  0  0  0
  7  8  1  0  0  0  0
  7 25  1  0  0  0  0
  8  9  1  0  0  0  0
  8 14  2  0  0  0  0
  9 10  2  0  0  0  0
  9 26  1  0  0  0  0
 10 11  1  0  0  0  0
 10 27  1  0  0  0  0
 11 12  1  0  0  0  0
 11 13  2  0  0  0  0
 13 14  1  0  0  0  0
 13 28  1  0  0  0  0
 14 29  1  0  0  0  0
 16 17  1  0  0  0  0
 16 21  2  0  0  0  0
 17 18  2  0  0  0  0
 17 30  1  0  0  0  0
 18 19  1  0  0  0  0
 18 31  1  0  0  0  0
 19 20  2  0  0  0  0
 19 32  1  0  0  0  0
 20 21  1  0  0  0  0
 20 33  1  0  0  0  0
 21 22  1  0  0  0  0
 22 34  1  0  0  0  0
 22 35  1  0  0  0  0
M  END
$$$$
