CHEMBL169797
 OpenBabel04072215363D

 59 62  0  0  0  0  0  0  0  0999 V2000
    1.3848   -0.5746   -0.4260 C   0  0  0  0  0  0  0  0  0  0  0  0
    2.7231   -0.4363    0.0264 O   0  0  0  0  0  0  0  0  0  0  0  0
    3.2668   -1.5028    0.6857 C   0  0  0  0  0  0  0  0  0  0  0  0
    2.6189   -2.6875    1.0236 C   0  0  0  0  0  0  0  0  0  0  0  0
    3.3188   -3.6914    1.7005 C   0  0  0  0  0  0  0  0  0  0  0  0
    4.6641   -3.5151    2.0246 C   0  0  0  0  0  0  0  0  0  0  0  0
    5.3425   -2.3497    1.6567 C   0  0  0  0  0  0  0  0  0  0  0  0
    6.6891   -2.0916    1.9861 N   0  0  0  0  0  0  0  0  0  0  0  0
    7.7379   -3.0172    2.2239 C   0  0  0  0  0  0  0  0  0  0  0  0
    7.5375   -4.3276    1.9827 N   0  0  0  0  0  0  0  0  0  0  0  0
    8.5434   -5.1582    2.2536 C   0  0  0  0  0  0  0  0  0  0  0  0
    9.7274   -4.8063    2.7554 N   0  0  0  0  0  0  0  0  0  0  0  0
    9.9047   -3.5078    3.0040 C   0  0  0  0  0  0  0  0  0  0  0  0
   11.1075   -3.1308    3.5632 C   0  0  0  0  0  0  0  0  0  0  0  0
   11.4275   -1.8005    3.8806 C   0  0  0  0  0  0  0  0  0  0  0  0
   12.6327   -1.4462    4.4239 O   0  0  0  0  0  0  0  0  0  0  0  0
   13.4734   -2.5054    4.8655 C   0  0  0  0  0  0  0  0  0  0  0  0
   14.8774   -1.9656    5.0709 C   0  0  0  0  0  0  0  0  0  0  0  0
   15.7981   -3.1498    5.3619 C   0  0  0  0  0  0  0  0  0  0  0  0
   17.2252   -2.8176    5.4397 N   0  0  0  0  0  0  0  0  0  0  0  0
   17.7616   -2.2152    4.1961 C   0  0  0  0  0  0  0  0  0  0  0  0
   17.7918   -3.1868    3.0076 C   0  0  0  0  0  0  0  0  0  0  0  0
   18.5813   -4.3430    3.3145 O   0  0  0  0  0  0  0  0  0  0  0  0
   18.1002   -5.0052    4.4901 C   0  0  0  0  0  0  0  0  0  0  0  0
   18.0110   -4.0510    5.6990 C   0  0  0  0  0  0  0  0  0  0  0  0
   10.4922   -0.7994    3.6047 C   0  0  0  0  0  0  0  0  0  0  0  0
   10.5926    0.5506    3.8130 O   0  0  0  0  0  0  0  0  0  0  0  0
   11.7280    1.0567    4.5022 C   0  0  0  0  0  0  0  0  0  0  0  0
    9.2632   -1.1722    3.0434 C   0  0  0  0  0  0  0  0  0  0  0  0
    8.9508   -2.5287    2.7490 C   0  0  0  0  0  0  0  0  0  0  0  0
    4.6115   -1.3357    1.0249 C   0  0  0  0  0  0  0  0  0  0  0  0
    1.1645    0.2833   -1.0687 H   0  0  0  0  0  0  0  0  0  0  0  0
    0.6909   -0.5527    0.4197 H   0  0  0  0  0  0  0  0  0  0  0  0
    1.2506   -1.4786   -1.0284 H   0  0  0  0  0  0  0  0  0  0  0  0
    1.5758   -2.8606    0.7867 H   0  0  0  0  0  0  0  0  0  0  0  0
    2.8139   -4.6134    1.9772 H   0  0  0  0  0  0  0  0  0  0  0  0
    5.1723   -4.3055    2.5708 H   0  0  0  0  0  0  0  0  0  0  0  0
    7.0510   -1.3041    1.4595 H   0  0  0  0  0  0  0  0  0  0  0  0
    8.3869   -6.2102    2.0569 H   0  0  0  0  0  0  0  0  0  0  0  0
   11.7951   -3.9509    3.7393 H   0  0  0  0  0  0  0  0  0  0  0  0
   13.5647   -3.2766    4.0956 H   0  0  0  0  0  0  0  0  0  0  0  0
   13.0755   -2.9371    5.7906 H   0  0  0  0  0  0  0  0  0  0  0  0
   14.8999   -1.2260    5.8779 H   0  0  0  0  0  0  0  0  0  0  0  0
   15.1621   -1.4392    4.1536 H   0  0  0  0  0  0  0  0  0  0  0  0
   15.6173   -3.9273    4.6106 H   0  0  0  0  0  0  0  0  0  0  0  0
   15.4847   -3.5829    6.3224 H   0  0  0  0  0  0  0  0  0  0  0  0
   18.7880   -1.8934    4.4075 H   0  0  0  0  0  0  0  0  0  0  0  0
   17.2256   -1.2988    3.9297 H   0  0  0  0  0  0  0  0  0  0  0  0
   18.2493   -2.6951    2.1435 H   0  0  0  0  0  0  0  0  0  0  0  0
   16.7854   -3.5017    2.7043 H   0  0  0  0  0  0  0  0  0  0  0  0
   18.7999   -5.8162    4.7182 H   0  0  0  0  0  0  0  0  0  0  0  0
   17.1328   -5.4704    4.2649 H   0  0  0  0  0  0  0  0  0  0  0  0
   19.0260   -3.7402    5.9740 H   0  0  0  0  0  0  0  0  0  0  0  0
   17.6086   -4.5836    6.5692 H   0  0  0  0  0  0  0  0  0  0  0  0
   11.5803    2.1326    4.6394 H   0  0  0  0  0  0  0  0  0  0  0  0
   12.6401    0.9314    3.9102 H   0  0  0  0  0  0  0  0  0  0  0  0
   11.8205    0.6155    5.4998 H   0  0  0  0  0  0  0  0  0  0  0  0
    8.5340   -0.3884    2.8497 H   0  0  0  0  0  0  0  0  0  0  0  0
    5.0930   -0.3937    0.7750 H   0  0  0  0  0  0  0  0  0  0  0  0
  1  2  1  0  0  0  0
  1 32  1  0  0  0  0
  1 33  1  0  0  0  0
  1 34  1  0  0  0  0
  2  3  1  0  0  0  0
  3  4  1  0  0  0  0
  3 31  2  0  0  0  0
  4  5  2  0  0  0  0
  4 35  1  0  0  0  0
  5  6  1  0  0  0  0
  5 36  1  0  0  0  0
  6  7  2  0  0  0  0
  6 37  1  0  0  0  0
  7  8  1  0  0  0  0
  7 31  1  0  0  0  0
  8  9  1  0  0  0  0
  8 38  1  0  0  0  0
  9 10  1  0  0  0  0
  9 30  2  0  0  0  0
 10 11  2  0  0  0  0
 11 12  1  0  0  0  0
 11 39  1  0  0  0  0
 12 13  2  0  0  0  0
 13 14  1  0  0  0  0
 13 30  1  0  0  0  0
 14 15  2  0  0  0  0
 14 40  1  0  0  0  0
 15 16  1  0  0  0  0
 15 26  1  0  0  0  0
 16 17  1  0  0  0  0
 17 18  1  0  0  0  0
 17 41  1  0  0  0  0
 17 42  1  0  0  0  0
 18 19  1  0  0  0  0
 18 43  1  0  0  0  0
 18 44  1  0  0  0  0
 19 20  1  0  0  0  0
 19 45  1  0  0  0  0
 19 46  1  0  0  0  0
 20 21  1  0  0  0  0
 20 25  1  0  0  0  0
 21 22  1  0  0  0  0
 21 47  1  0  0  0  0
 21 48  1  0  0  0  0
 22 23  1  0  0  0  0
 22 49  1  0  0  0  0
 22 50  1  0  0  0  0
 23 24  1  0  0  0  0
 24 25  1  0  0  0  0
 24 51  1  0  0  0  0
 24 52  1  0  0  0  0
 25 53  1  0  0  0  0
 25 54  1  0  0  0  0
 26 27  1  0  0  0  0
 26 29  2  0  0  0  0
 27 28  1  0  0  0  0
 28 55  1  0  0  0  0
 28 56  1  0  0  0  0
 28 57  1  0  0  0  0
 29 30  1  0  0  0  0
 29 58  1  0  0  0  0
 31 59  1  0  0  0  0
M  END
$$$$
