CHEMBL56569
 OpenBabel04072215383D

 54 57  0  0  0  0  0  0  0  0999 V2000
    1.0286   -2.0090   -1.5916 C   0  0  0  0  0  0  0  0  0  0  0  0
    2.4512   -1.8031   -1.8589 N   0  0  0  0  0  0  0  0  0  0  0  0
    3.2478   -0.5547   -1.0592 S   0  0  0  0  0  0  0  0  0  0  0  0
    4.4249   -0.2656   -1.8472 O   0  0  0  0  0  0  0  0  0  0  0  0
    2.2817    0.4706   -0.7328 O   0  0  0  0  0  0  0  0  0  0  0  0
    3.7920   -1.3178    0.4579 C   0  0  0  0  0  0  0  0  0  0  0  0
    2.8923   -1.3279    1.5444 C   0  0  0  0  0  0  0  0  0  0  0  0
    3.2875   -1.8425    2.7759 C   0  0  0  0  0  0  0  0  0  0  0  0
    4.5835   -2.3122    2.8816 C   0  0  0  0  0  0  0  0  0  0  0  0
    5.5074   -2.2907    1.8253 C   0  0  0  0  0  0  0  0  0  0  0  0
    5.1168   -1.7900    0.5901 C   0  0  0  0  0  0  0  0  0  0  0  0
    6.7619   -2.8475    2.3841 C   0  0  0  0  0  0  0  0  0  0  0  0
    7.9524   -2.9847    1.7739 C   0  0  0  0  0  0  0  0  0  0  0  0
    9.1077   -3.5225    2.4139 C   0  0  0  0  0  0  0  0  0  0  0  0
    9.9682   -2.6470    3.0378 N   0  0  0  0  0  0  0  0  0  0  0  0
   11.0304   -3.3366    3.5510 C   0  0  0  0  0  0  0  0  0  0  0  0
   10.8641   -4.6789    3.2755 C   0  0  0  0  0  0  0  0  0  0  0  0
    9.6257   -4.8113    2.5603 C   0  0  0  0  0  0  0  0  0  0  0  0
    8.9655   -6.0593    2.0402 C   0  0  0  0  0  0  0  0  0  0  0  0
    9.2094   -7.3550    2.8007 C   0  0  0  0  0  0  0  0  0  0  0  0
    8.8198   -7.4172    4.2661 C   0  0  0  0  0  0  0  0  0  0  0  0
    8.0722   -6.4201    4.8001 N   0  0  0  0  0  0  0  0  0  0  0  0
    9.1197   -8.3876    4.9618 O   0  0  0  0  0  0  0  0  0  0  0  0
   11.8932   -5.6922    3.6854 C   0  0  0  0  0  0  0  0  0  0  0  0
   12.9258   -5.1211    4.6753 C   0  0  0  0  0  0  0  0  0  0  0  0
   13.3591   -3.6942    4.3132 C   0  0  0  0  0  0  0  0  0  0  0  0
   12.1619   -2.7277    4.3073 C   0  0  0  0  0  0  0  0  0  0  0  0
    6.4668   -3.2180    3.8192 C   0  0  0  0  0  0  0  0  0  0  0  0
    7.1985   -3.7333    4.6419 O   0  0  0  0  0  0  0  0  0  0  0  0
    5.1529   -2.8495    4.0282 N   0  0  0  0  0  0  0  0  0  0  0  0
    0.6848   -2.8810   -2.1570 H   0  0  0  0  0  0  0  0  0  0  0  0
    0.4400   -1.1494   -1.9245 H   0  0  0  0  0  0  0  0  0  0  0  0
    0.8461   -2.2018   -0.5323 H   0  0  0  0  0  0  0  0  0  0  0  0
    2.7464   -1.8541   -2.8348 H   0  0  0  0  0  0  0  0  0  0  0  0
    1.8883   -0.9205    1.4334 H   0  0  0  0  0  0  0  0  0  0  0  0
    2.6050   -1.8535    3.6187 H   0  0  0  0  0  0  0  0  0  0  0  0
    5.8065   -1.7471   -0.2474 H   0  0  0  0  0  0  0  0  0  0  0  0
    8.0702   -2.6813    0.7369 H   0  0  0  0  0  0  0  0  0  0  0  0
    9.8330   -1.6479    3.1130 H   0  0  0  0  0  0  0  0  0  0  0  0
    9.2993   -6.2008    1.0040 H   0  0  0  0  0  0  0  0  0  0  0  0
    7.8816   -5.8948    1.9927 H   0  0  0  0  0  0  0  0  0  0  0  0
   10.2650   -7.6377    2.7246 H   0  0  0  0  0  0  0  0  0  0  0  0
    8.6499   -8.1558    2.3012 H   0  0  0  0  0  0  0  0  0  0  0  0
    8.0709   -5.4693    4.4307 H   0  0  0  0  0  0  0  0  0  0  0  0
    7.9384   -6.4574    5.8015 H   0  0  0  0  0  0  0  0  0  0  0  0
   12.4107   -6.0462    2.7857 H   0  0  0  0  0  0  0  0  0  0  0  0
   11.4317   -6.5561    4.1676 H   0  0  0  0  0  0  0  0  0  0  0  0
   13.7991   -5.7834    4.7106 H   0  0  0  0  0  0  0  0  0  0  0  0
   12.4949   -5.1163    5.6852 H   0  0  0  0  0  0  0  0  0  0  0  0
   13.8314   -3.7062    3.3225 H   0  0  0  0  0  0  0  0  0  0  0  0
   14.1148   -3.3431    5.0251 H   0  0  0  0  0  0  0  0  0  0  0  0
   12.4611   -1.7693    3.8714 H   0  0  0  0  0  0  0  0  0  0  0  0
   11.8422   -2.5418    5.3401 H   0  0  0  0  0  0  0  0  0  0  0  0
    4.6901   -2.9841    4.9118 H   0  0  0  0  0  0  0  0  0  0  0  0
  1  2  1  0  0  0  0
  1 31  1  0  0  0  0
  1 32  1  0  0  0  0
  1 33  1  0  0  0  0
  2  3  1  0  0  0  0
  2 34  1  0  0  0  0
  3  4  2  0  0  0  0
  3  5  2  0  0  0  0
  3  6  1  0  0  0  0
  6  7  1  0  0  0  0
  6 11  2  0  0  0  0
  7  8  2  0  0  0  0
  7 35  1  0  0  0  0
  8  9  1  0  0  0  0
  8 36  1  0  0  0  0
  9 10  2  0  0  0  0
  9 30  1  0  0  0  0
 10 11  1  0  0  0  0
 10 12  1  0  0  0  0
 11 37  1  0  0  0  0
 12 13  2  0  0  0  0
 12 28  1  0  0  0  0
 13 14  1  0  0  0  0
 13 38  1  0  0  0  0
 14 15  1  0  0  0  0
 14 18  2  0  0  0  0
 15 16  1  0  0  0  0
 15 39  1  0  0  0  0
 16 17  2  0  0  0  0
 16 27  1  0  0  0  0
 17 18  1  0  0  0  0
 17 24  1  0  0  0  0
 18 19  1  0  0  0  0
 19 20  1  0  0  0  0
 19 40  1  0  0  0  0
 19 41  1  0  0  0  0
 20 21  1  0  0  0  0
 20 42  1  0  0  0  0
 20 43  1  0  0  0  0
 21 22  1  0  0  0  0
 21 23  2  0  0  0  0
 22 44  1  0  0  0  0
 22 45  1  0  0  0  0
 24 25  1  0  0  0  0
 24 46  1  0  0  0  0
 24 47  1  0  0  0  0
 25 26  1  0  0  0  0
 25 48  1  0  0  0  0
 25 49  1  0  0  0  0
 26 27  1  0  0  0  0
 26 50  1  0  0  0  0
 26 51  1  0  0  0  0
 27 52  1  0  0  0  0
 27 53  1  0  0  0  0
 28 29  2  0  0  0  0
 28 30  1  0  0  0  0
 30 54  1  0  0  0  0
M  END
$$$$
