CHEMBL1688354
 OpenBabel04072215363D

 50 54  0  0  0  0  0  0  0  0999 V2000
    0.4635    1.1417    0.8447 C   0  0  0  0  0  0  0  0  0  0  0  0
   -0.8843    1.0134    0.5601 C   0  0  0  0  0  0  0  0  0  0  0  0
   -1.4525   -0.1351    0.1416 N   0  0  0  0  0  0  0  0  0  0  0  0
   -0.6343   -1.2030   -0.0076 C   0  0  0  0  0  0  0  0  0  0  0  0
    0.7357   -1.1893    0.2422 C   0  0  0  0  0  0  0  0  0  0  0  0
    1.5288   -2.4510   -0.0169 C   0  0  0  0  0  0  0  0  0  0  0  0
    2.9387   -2.2909    0.3405 N   0  0  0  0  0  0  0  0  0  0  0  0
    3.8280   -3.3837    0.1784 C   0  0  0  0  0  0  0  0  0  0  0  0
    3.6568   -4.3544   -0.8200 C   0  0  0  0  0  0  0  0  0  0  0  0
    4.6464   -5.3105   -1.0730 C   0  0  0  0  0  0  0  0  0  0  0  0
    5.8407   -5.2923   -0.3601 C   0  0  0  0  0  0  0  0  0  0  0  0
    6.0409   -4.3300    0.6257 C   0  0  0  0  0  0  0  0  0  0  0  0
    5.0443   -3.3843    0.9138 C   0  0  0  0  0  0  0  0  0  0  0  0
    5.2650   -2.4658    2.0302 C   0  0  0  0  0  0  0  0  0  0  0  0
    6.4034   -2.0220    2.5234 N   0  0  0  0  0  0  0  0  0  0  0  0
    6.1155   -1.2586    3.6362 N   0  0  0  0  0  0  0  0  0  0  0  0
    4.8134   -1.2730    3.8293 C   0  0  0  0  0  0  0  0  0  0  0  0
    4.0202   -0.7430    4.7847 N   0  0  0  0  0  0  0  0  0  0  0  0
    4.3828    0.1476    5.8170 C   0  0  0  0  0  0  0  0  0  0  0  0
    5.6823    0.6267    6.0141 C   0  0  0  0  0  0  0  0  0  0  0  0
    5.9589    1.5868    6.9950 C   0  0  0  0  0  0  0  0  0  0  0  0
    4.9394    2.0788    7.8041 C   0  0  0  0  0  0  0  0  0  0  0  0
    3.6562    1.5615    7.6740 C   0  0  0  0  0  0  0  0  0  0  0  0
    3.3802    0.6066    6.6900 C   0  0  0  0  0  0  0  0  0  0  0  0
    2.6158    1.9317    8.4814 O   0  0  0  0  0  0  0  0  0  0  0  0
    2.8236    3.2272    9.0413 C   0  0  0  0  0  0  0  0  0  0  0  0
    4.2350    3.4448    9.5705 C   0  0  0  0  0  0  0  0  0  0  0  0
    5.2768    3.0805    8.6665 O   0  0  0  0  0  0  0  0  0  0  0  0
    4.2488   -1.9873    2.8141 N   0  0  0  0  0  0  0  0  0  0  0  0
    1.2801    0.0220    0.6865 C   0  0  0  0  0  0  0  0  0  0  0  0
    0.8717    2.0896    1.1782 H   0  0  0  0  0  0  0  0  0  0  0  0
   -1.5601    1.8596    0.6599 H   0  0  0  0  0  0  0  0  0  0  0  0
   -1.1366   -2.1004   -0.3580 H   0  0  0  0  0  0  0  0  0  0  0  0
    1.4247   -2.6894   -1.0809 H   0  0  0  0  0  0  0  0  0  0  0  0
    1.0970   -3.2628    0.5810 H   0  0  0  0  0  0  0  0  0  0  0  0
    3.3410   -1.5355   -0.2250 H   0  0  0  0  0  0  0  0  0  0  0  0
    2.7657   -4.3824   -1.4390 H   0  0  0  0  0  0  0  0  0  0  0  0
    4.4920   -6.0594   -1.8465 H   0  0  0  0  0  0  0  0  0  0  0  0
    6.6165   -6.0246   -0.5685 H   0  0  0  0  0  0  0  0  0  0  0  0
    6.9745   -4.3241    1.1872 H   0  0  0  0  0  0  0  0  0  0  0  0
    3.0300   -0.9564    4.7828 H   0  0  0  0  0  0  0  0  0  0  0  0
    6.5080    0.2800    5.3988 H   0  0  0  0  0  0  0  0  0  0  0  0
    6.9749    1.9525    7.1150 H   0  0  0  0  0  0  0  0  0  0  0  0
    2.3588    0.2493    6.5929 H   0  0  0  0  0  0  0  0  0  0  0  0
    2.5629    3.9743    8.2831 H   0  0  0  0  0  0  0  0  0  0  0  0
    2.1128    3.3426    9.8679 H   0  0  0  0  0  0  0  0  0  0  0  0
    4.3924    2.8994   10.5068 H   0  0  0  0  0  0  0  0  0  0  0  0
    4.3630    4.5115    9.7894 H   0  0  0  0  0  0  0  0  0  0  0  0
    3.2696   -2.1483    2.6376 H   0  0  0  0  0  0  0  0  0  0  0  0
    2.3374    0.1217    0.9146 H   0  0  0  0  0  0  0  0  0  0  0  0
  1  2  1  0  0  0  0
  1 30  2  0  0  0  0
  1 31  1  0  0  0  0
  2  3  2  0  0  0  0
  2 32  1  0  0  0  0
  3  4  1  0  0  0  0
  4  5  2  0  0  0  0
  4 33  1  0  0  0  0
  5  6  1  0  0  0  0
  5 30  1  0  0  0  0
  6  7  1  0  0  0  0
  6 34  1  0  0  0  0
  6 35  1  0  0  0  0
  7  8  1  0  0  0  0
  7 36  1  0  0  0  0
  8  9  1  0  0  0  0
  8 13  2  0  0  0  0
  9 10  2  0  0  0  0
  9 37  1  0  0  0  0
 10 11  1  0  0  0  0
 10 38  1  0  0  0  0
 11 12  2  0  0  0  0
 11 39  1  0  0  0  0
 12 13  1  0  0  0  0
 12 40  1  0  0  0  0
 13 14  1  0  0  0  0
 14 15  2  0  0  0  0
 14 29  1  0  0  0  0
 15 16  1  0  0  0  0
 16 17  2  0  0  0  0
 17 18  1  0  0  0  0
 17 29  1  0  0  0  0
 18 19  1  0  0  0  0
 18 41  1  0  0  0  0
 19 20  1  0  0  0  0
 19 24  2  0  0  0  0
 20 21  2  0  0  0  0
 20 42  1  0  0  0  0
 21 22  1  0  0  0  0
 21 43  1  0  0  0  0
 22 23  2  0  0  0  0
 22 28  1  0  0  0  0
 23 24  1  0  0  0  0
 23 25  1  0  0  0  0
 24 44  1  0  0  0  0
 25 26  1  0  0  0  0
 26 27  1  0  0  0  0
 26 45  1  0  0  0  0
 26 46  1  0  0  0  0
 27 28  1  0  0  0  0
 27 47  1  0  0  0  0
 27 48  1  0  0  0  0
 29 49  1  0  0  0  0
 30 50  1  0  0  0  0
M  END
$$$$
