CHEMBL525527
 OpenBabel04072215383D

 47 50  0  0  0  0  0  0  0  0999 V2000
    0.9797   -0.0397   -0.3544 C   0  0  0  0  0  0  0  0  0  0  0  0
    2.3633   -0.0498   -0.0109 O   0  0  0  0  0  0  0  0  0  0  0  0
    2.8114   -1.1989    0.5887 C   0  0  0  0  0  0  0  0  0  0  0  0
    3.7804   -0.9904    1.5772 C   0  0  0  0  0  0  0  0  0  0  0  0
    4.3409   -2.0386    2.2959 C   0  0  0  0  0  0  0  0  0  0  0  0
    5.2434   -1.7498    3.2357 N   0  0  0  0  0  0  0  0  0  0  0  0
    5.7423   -2.7904    3.9008 C   0  0  0  0  0  0  0  0  0  0  0  0
    6.8773   -2.4412    5.1268 Cl  0  0  0  0  0  0  0  0  0  0  0  0
    5.4412   -4.0751    3.7293 N   0  0  0  0  0  0  0  0  0  0  0  0
    4.5334   -4.3595    2.7825 C   0  0  0  0  0  0  0  0  0  0  0  0
    4.1515   -5.7170    2.5670 N   0  0  0  0  0  0  0  0  0  0  0  0
    4.5495   -6.8496    3.3183 C   0  0  0  0  0  0  0  0  0  0  0  0
    4.8468   -6.7828    4.6843 C   0  0  0  0  0  0  0  0  0  0  0  0
    5.2960   -7.9051    5.3800 C   0  0  0  0  0  0  0  0  0  0  0  0
    5.3911   -9.1317    4.7236 C   0  0  0  0  0  0  0  0  0  0  0  0
    6.1400  -10.4992    5.5710 S   0  0  0  0  0  0  0  0  0  0  0  0
    6.5592  -11.4534    4.5645 O   0  0  0  0  0  0  0  0  0  0  0  0
    7.0854   -9.9586    6.5238 O   0  0  0  0  0  0  0  0  0  0  0  0
    4.8121  -11.2084    6.3438 N   0  0  0  0  0  0  0  0  0  0  0  0
    4.9345  -11.1485    7.7480 C   0  0  0  0  0  0  0  0  0  0  0  0
    5.3345  -12.2116    8.3966 N   0  0  0  0  0  0  0  0  0  0  0  0
    5.3955  -11.9114    9.7455 C   0  0  0  0  0  0  0  0  0  0  0  0
    4.9208  -10.6657   10.1012 C   0  0  0  0  0  0  0  0  0  0  0  0
    4.4465   -9.8100    8.6918 S   0  0  0  0  0  0  0  0  0  0  0  0
    5.0154   -9.2457    3.3851 C   0  0  0  0  0  0  0  0  0  0  0  0
    4.5778   -8.1098    2.6953 C   0  0  0  0  0  0  0  0  0  0  0  0
    3.9276   -3.3477    2.0099 C   0  0  0  0  0  0  0  0  0  0  0  0
    2.9669   -3.5650    0.9903 C   0  0  0  0  0  0  0  0  0  0  0  0
    2.4139   -2.5011    0.2740 C   0  0  0  0  0  0  0  0  0  0  0  0
    1.5738   -2.6923   -0.7868 O   0  0  0  0  0  0  0  0  0  0  0  0
    0.6737   -3.7889   -0.6876 C   0  0  0  0  0  0  0  0  0  0  0  0
    0.6689    1.0038   -0.4608 H   0  0  0  0  0  0  0  0  0  0  0  0
    0.3588   -0.4932    0.4270 H   0  0  0  0  0  0  0  0  0  0  0  0
    0.8153   -0.5206   -1.3223 H   0  0  0  0  0  0  0  0  0  0  0  0
    4.0981    0.0273    1.7982 H   0  0  0  0  0  0  0  0  0  0  0  0
    4.1943   -5.9186    1.5733 H   0  0  0  0  0  0  0  0  0  0  0  0
    4.7721   -5.8438    5.2262 H   0  0  0  0  0  0  0  0  0  0  0  0
    5.5987   -7.7998    6.4182 H   0  0  0  0  0  0  0  0  0  0  0  0
    4.8248  -12.1879    6.0578 H   0  0  0  0  0  0  0  0  0  0  0  0
    5.7861  -12.6492   10.4360 H   0  0  0  0  0  0  0  0  0  0  0  0
    4.8398  -10.2285   11.0859 H   0  0  0  0  0  0  0  0  0  0  0  0
    5.0888  -10.1973    2.8634 H   0  0  0  0  0  0  0  0  0  0  0  0
    4.2995   -8.2137    1.6489 H   0  0  0  0  0  0  0  0  0  0  0  0
    2.6753   -4.5805    0.7480 H   0  0  0  0  0  0  0  0  0  0  0  0
   -0.1248   -3.6271   -1.4179 H   0  0  0  0  0  0  0  0  0  0  0  0
    0.2143   -3.8471    0.3044 H   0  0  0  0  0  0  0  0  0  0  0  0
    1.1762   -4.7265   -0.9442 H   0  0  0  0  0  0  0  0  0  0  0  0
  1  2  1  0  0  0  0
  1 32  1  0  0  0  0
  1 33  1  0  0  0  0
  1 34  1  0  0  0  0
  2  3  1  0  0  0  0
  3  4  1  0  0  0  0
  3 29  2  0  0  0  0
  4  5  2  0  0  0  0
  4 35  1  0  0  0  0
  5  6  1  0  0  0  0
  5 27  1  0  0  0  0
  6  7  2  0  0  0  0
  7  8  1  0  0  0  0
  7  9  1  0  0  0  0
  9 10  2  0  0  0  0
 10 11  1  0  0  0  0
 10 27  1  0  0  0  0
 11 12  1  0  0  0  0
 11 36  1  0  0  0  0
 12 13  1  0  0  0  0
 12 26  2  0  0  0  0
 13 14  2  0  0  0  0
 13 37  1  0  0  0  0
 14 15  1  0  0  0  0
 14 38  1  0  0  0  0
 15 16  1  0  0  0  0
 15 25  2  0  0  0  0
 16 17  2  0  0  0  0
 16 18  2  0  0  0  0
 16 19  1  0  0  0  0
 19 20  1  0  0  0  0
 19 39  1  0  0  0  0
 20 21  2  0  0  0  0
 20 24  1  0  0  0  0
 21 22  1  0  0  0  0
 22 23  2  0  0  0  0
 22 40  1  0  0  0  0
 23 24  1  0  0  0  0
 23 41  1  0  0  0  0
 25 26  1  0  0  0  0
 25 42  1  0  0  0  0
 26 43  1  0  0  0  0
 27 28  2  0  0  0  0
 28 29  1  0  0  0  0
 28 44  1  0  0  0  0
 29 30  1  0  0  0  0
 30 31  1  0  0  0  0
 31 45  1  0  0  0  0
 31 46  1  0  0  0  0
 31 47  1  0  0  0  0
M  END
$$$$
