CHEMBL373693
 OpenBabel04072215373D

 36 38  0  0  0  0  0  0  0  0999 V2000
    5.7633    0.6798    6.5004 N   0  0  0  0  0  0  0  0  0  0  0  0
    6.2047    0.3535    5.4654 C   0  0  0  0  0  0  0  0  0  0  0  0
    6.6708   -0.0284    4.1819 C   0  0  0  0  0  0  0  0  0  0  0  0
    7.4008    0.7543    3.3165 C   0  0  0  0  0  0  0  0  0  0  0  0
    7.6177    0.2072    2.0581 N   0  0  0  0  0  0  0  0  0  0  0  0
    7.1110   -1.0084    1.9814 C   0  0  0  0  0  0  0  0  0  0  0  0
    7.0431   -1.6972    0.8142 N   0  0  0  0  0  0  0  0  0  0  0  0
    6.9437   -3.0945    0.6520 C   0  0  0  0  0  0  0  0  0  0  0  0
    6.2695   -3.5848   -0.4808 C   0  0  0  0  0  0  0  0  0  0  0  0
    6.0078   -4.9600   -0.6402 C   0  0  0  0  0  0  0  0  0  0  0  0
    5.3347   -5.5051   -1.8915 C   0  0  0  0  0  0  0  0  0  0  0  0
    3.8833   -5.7123   -1.9966 N   0  0  0  0  0  0  0  0  0  0  0  0
    2.9892   -4.5733   -1.8077 C   0  0  0  0  0  0  0  0  0  0  0  0
    2.6572   -4.2843   -0.3389 C   0  0  0  0  0  0  0  0  0  0  0  0
    2.2489   -5.4425    0.4005 O   0  0  0  0  0  0  0  0  0  0  0  0
    3.0149   -6.6276    0.1581 C   0  0  0  0  0  0  0  0  0  0  0  0
    3.3129   -6.8768   -1.3223 C   0  0  0  0  0  0  0  0  0  0  0  0
    6.5188   -5.8096    0.3453 C   0  0  0  0  0  0  0  0  0  0  0  0
    7.2190   -5.2598    1.4142 C   0  0  0  0  0  0  0  0  0  0  0  0
    7.4251   -3.9353    1.5886 N   0  0  0  0  0  0  0  0  0  0  0  0
    6.3741   -1.5456    3.4569 S   0  0  0  0  0  0  0  0  0  0  0  0
    7.7652    1.7536    3.5285 H   0  0  0  0  0  0  0  0  0  0  0  0
    7.3690   -1.2139   -0.0102 H   0  0  0  0  0  0  0  0  0  0  0  0
    5.9333   -2.8818   -1.2364 H   0  0  0  0  0  0  0  0  0  0  0  0
    5.8233   -6.4568   -2.1388 H   0  0  0  0  0  0  0  0  0  0  0  0
    5.6253   -4.8478   -2.7229 H   0  0  0  0  0  0  0  0  0  0  0  0
    2.0406   -4.8296   -2.3043 H   0  0  0  0  0  0  0  0  0  0  0  0
    3.3481   -3.6791   -2.3276 H   0  0  0  0  0  0  0  0  0  0  0  0
    1.8010   -3.5997   -0.3081 H   0  0  0  0  0  0  0  0  0  0  0  0
    3.4814   -3.7751    0.1674 H   0  0  0  0  0  0  0  0  0  0  0  0
    2.4091   -7.4595    0.5355 H   0  0  0  0  0  0  0  0  0  0  0  0
    3.9332   -6.6180    0.7485 H   0  0  0  0  0  0  0  0  0  0  0  0
    2.3586   -7.1071   -1.8205 H   0  0  0  0  0  0  0  0  0  0  0  0
    3.9294   -7.7706   -1.4635 H   0  0  0  0  0  0  0  0  0  0  0  0
    6.4016   -6.8859    0.2866 H   0  0  0  0  0  0  0  0  0  0  0  0
    7.6473   -5.8936    2.1886 H   0  0  0  0  0  0  0  0  0  0  0  0
  1  2  3  0  0  0  0
  2  3  1  0  0  0  0
  3  4  2  0  0  0  0
  3 21  1  0  0  0  0
  4  5  1  0  0  0  0
  4 22  1  0  0  0  0
  5  6  2  0  0  0  0
  6  7  1  0  0  0  0
  6 21  1  0  0  0  0
  7  8  1  0  0  0  0
  7 23  1  0  0  0  0
  8  9  1  0  0  0  0
  8 20  2  0  0  0  0
  9 10  2  0  0  0  0
  9 24  1  0  0  0  0
 10 11  1  0  0  0  0
 10 18  1  0  0  0  0
 11 12  1  0  0  0  0
 11 25  1  0  0  0  0
 11 26  1  0  0  0  0
 12 13  1  0  0  0  0
 12 17  1  0  0  0  0
 13 14  1  0  0  0  0
 13 27  1  0  0  0  0
 13 28  1  0  0  0  0
 14 15  1  0  0  0  0
 14 29  1  0  0  0  0
 14 30  1  0  0  0  0
 15 16  1  0  0  0  0
 16 17  1  0  0  0  0
 16 31  1  0  0  0  0
 16 32  1  0  0  0  0
 17 33  1  0  0  0  0
 17 34  1  0  0  0  0
 18 19  2  0  0  0  0
 18 35  1  0  0  0  0
 19 20  1  0  0  0  0
 19 36  1  0  0  0  0
M  END
$$$$
