CHEMBL3323611
 OpenBabel04072215363D

 42 46  0  0  0  0  0  0  0  0999 V2000
   -2.5229    0.6697    1.2422 Cl  0  0  0  0  0  0  0  0  0  0  0  0
   -1.1105   -0.0766    0.5619 C   0  0  0  0  0  0  0  0  0  0  0  0
   -1.1185   -1.4803    0.5535 C   0  0  0  0  0  0  0  0  0  0  0  0
   -0.0556   -2.1897    0.0121 C   0  0  0  0  0  0  0  0  0  0  0  0
    1.0258   -1.4962   -0.5184 C   0  0  0  0  0  0  0  0  0  0  0  0
    1.0480   -0.0925   -0.5069 C   0  0  0  0  0  0  0  0  0  0  0  0
    2.4961    0.6232   -1.1444 Cl  0  0  0  0  0  0  0  0  0  0  0  0
   -0.0255    0.6563    0.0313 C   0  0  0  0  0  0  0  0  0  0  0  0
   -0.0028    2.1311    0.0061 C   0  0  0  0  0  0  0  0  0  0  0  0
    0.5592    2.8775   -0.9264 N   0  0  0  0  0  0  0  0  0  0  0  0
    0.3929    4.1789   -0.5427 C   0  0  0  0  0  0  0  0  0  0  0  0
    0.8296    5.3503   -1.1653 C   0  0  0  0  0  0  0  0  0  0  0  0
    0.4970    6.5760   -0.5790 C   0  0  0  0  0  0  0  0  0  0  0  0
   -0.2582    6.6545    0.6021 C   0  0  0  0  0  0  0  0  0  0  0  0
   -0.6712    7.9037    1.1092 N   0  0  0  0  0  0  0  0  0  0  0  0
   -1.1438    9.0460    0.4134 C   0  0  0  0  0  0  0  0  0  0  0  0
   -1.6004    8.9307   -0.9043 C   0  0  0  0  0  0  0  0  0  0  0  0
   -1.9885   10.0653   -1.5860 C   0  0  0  0  0  0  0  0  0  0  0  0
   -1.9590   11.2999   -1.0540 N   0  0  0  0  0  0  0  0  0  0  0  0
   -1.5297   11.4307    0.2094 C   0  0  0  0  0  0  0  0  0  0  0  0
   -1.5121   12.7075    0.7497 C   0  0  0  0  0  0  0  0  0  0  0  0
   -1.0883   12.9516    2.0546 C   0  0  0  0  0  0  0  0  0  0  0  0
   -0.6525   11.8958    2.8429 C   0  0  0  0  0  0  0  0  0  0  0  0
   -0.6496   10.6022    2.3214 C   0  0  0  0  0  0  0  0  0  0  0  0
   -1.1021   10.3379    1.0035 C   0  0  0  0  0  0  0  0  0  0  0  0
   -0.6814    5.4734    1.2395 C   0  0  0  0  0  0  0  0  0  0  0  0
   -0.3276    4.2588    0.6386 C   0  0  0  0  0  0  0  0  0  0  0  0
   -0.5588    2.9486    0.9706 N   0  0  0  0  0  0  0  0  0  0  0  0
   -1.9650   -2.0282    0.9641 H   0  0  0  0  0  0  0  0  0  0  0  0
   -0.0652   -3.2769   -0.0012 H   0  0  0  0  0  0  0  0  0  0  0  0
    1.8610   -2.0507   -0.9423 H   0  0  0  0  0  0  0  0  0  0  0  0
    1.4071    5.3018   -2.0813 H   0  0  0  0  0  0  0  0  0  0  0  0
    0.8470    7.4878   -1.0586 H   0  0  0  0  0  0  0  0  0  0  0  0
   -0.8124    7.9268    2.1108 H   0  0  0  0  0  0  0  0  0  0  0  0
   -1.6823    7.9699   -1.3995 H   0  0  0  0  0  0  0  0  0  0  0  0
   -2.3451   10.0077   -2.6104 H   0  0  0  0  0  0  0  0  0  0  0  0
   -1.8404   13.5410    0.1329 H   0  0  0  0  0  0  0  0  0  0  0  0
   -1.0932   13.9649    2.4479 H   0  0  0  0  0  0  0  0  0  0  0  0
   -0.3143   12.0752    3.8603 H   0  0  0  0  0  0  0  0  0  0  0  0
   -0.2873    9.7994    2.9568 H   0  0  0  0  0  0  0  0  0  0  0  0
   -1.2846    5.5003    2.1402 H   0  0  0  0  0  0  0  0  0  0  0  0
   -1.0760    2.6248    1.7746 H   0  0  0  0  0  0  0  0  0  0  0  0
  1  2  1  0  0  0  0
  2  3  1  0  0  0  0
  2  8  2  0  0  0  0
  3  4  2  0  0  0  0
  3 29  1  0  0  0  0
  4  5  1  0  0  0  0
  4 30  1  0  0  0  0
  5  6  2  0  0  0  0
  5 31  1  0  0  0  0
  6  7  1  0  0  0  0
  6  8  1  0  0  0  0
  8  9  1  0  0  0  0
  9 10  2  0  0  0  0
  9 28  1  0  0  0  0
 10 11  1  0  0  0  0
 11 12  1  0  0  0  0
 11 27  2  0  0  0  0
 12 13  2  0  0  0  0
 12 32  1  0  0  0  0
 13 14  1  0  0  0  0
 13 33  1  0  0  0  0
 14 15  1  0  0  0  0
 14 26  2  0  0  0  0
 15 16  1  0  0  0  0
 15 34  1  0  0  0  0
 16 17  1  0  0  0  0
 16 25  2  0  0  0  0
 17 18  2  0  0  0  0
 17 35  1  0  0  0  0
 18 19  1  0  0  0  0
 18 36  1  0  0  0  0
 19 20  2  0  0  0  0
 20 21  1  0  0  0  0
 20 25  1  0  0  0  0
 21 22  2  0  0  0  0
 21 37  1  0  0  0  0
 22 23  1  0  0  0  0
 22 38  1  0  0  0  0
 23 24  2  0  0  0  0
 23 39  1  0  0  0  0
 24 25  1  0  0  0  0
 24 40  1  0  0  0  0
 26 27  1  0  0  0  0
 26 41  1  0  0  0  0
 27 28  1  0  0  0  0
 28 42  1  0  0  0  0
M  END
$$$$
