CHEMBL1254097
 OpenBabel04072215363D

 43 46  0  0  0  0  0  0  0  0999 V2000
    3.7171   -0.8911   -0.9845 C   0  0  0  0  0  0  0  0  0  0  0  0
    3.4676   -0.5819    0.4061 N   0  0  0  0  0  0  0  0  0  0  0  0
    4.0472    0.4610    1.0876 C   0  0  0  0  0  0  0  0  0  0  0  0
    3.5680    0.4412    2.3799 C   0  0  0  0  0  0  0  0  0  0  0  0
    2.6666   -0.6424    2.4793 C   0  0  0  0  0  0  0  0  0  0  0  0
    1.9585   -1.0592    3.5498 N   0  0  0  0  0  0  0  0  0  0  0  0
    1.1795   -2.1164    3.2938 C   0  0  0  0  0  0  0  0  0  0  0  0
    1.0490   -2.7780    2.1341 N   0  0  0  0  0  0  0  0  0  0  0  0
    1.8074   -2.3819    1.0878 C   0  0  0  0  0  0  0  0  0  0  0  0
    1.7623   -3.0892   -0.1062 O   0  0  0  0  0  0  0  0  0  0  0  0
    1.6003   -4.4539   -0.0154 C   0  0  0  0  0  0  0  0  0  0  0  0
    2.1416   -5.2245    1.0152 C   0  0  0  0  0  0  0  0  0  0  0  0
    1.9151   -6.5987    1.0728 C   0  0  0  0  0  0  0  0  0  0  0  0
    1.1913   -7.2353    0.0685 C   0  0  0  0  0  0  0  0  0  0  0  0
    0.9355   -8.6174    0.0978 N   0  0  0  0  0  0  0  0  0  0  0  0
    1.1984   -9.5341    1.0795 C   0  0  0  0  0  0  0  0  0  0  0  0
    1.7571   -9.3136    2.1518 O   0  0  0  0  0  0  0  0  0  0  0  0
    0.7279  -10.8017    0.8555 N   0  0  0  0  0  0  0  0  0  0  0  0
    0.1534  -11.3109   -0.3128 C   0  0  0  0  0  0  0  0  0  0  0  0
   -0.4135  -12.5763   -0.2803 C   0  0  0  0  0  0  0  0  0  0  0  0
   -0.9926  -13.0719   -1.4472 C   0  0  0  0  0  0  0  0  0  0  0  0
   -0.9634  -12.3061   -2.6074 C   0  0  0  0  0  0  0  0  0  0  0  0
   -0.3664  -11.0640   -2.5527 C   0  0  0  0  0  0  0  0  0  0  0  0
    0.1754  -10.5528   -1.4293 N   0  0  0  0  0  0  0  0  0  0  0  0
    0.6994   -6.4609   -1.0028 C   0  0  0  0  0  0  0  0  0  0  0  0
   -0.2017   -7.1801   -2.2974 Cl  0  0  0  0  0  0  0  0  0  0  0  0
    0.9009   -5.0783   -1.0476 C   0  0  0  0  0  0  0  0  0  0  0  0
    2.6154   -1.2676    1.2393 C   0  0  0  0  0  0  0  0  0  0  0  0
    4.4246   -0.1670   -1.3974 H   0  0  0  0  0  0  0  0  0  0  0  0
    2.7712   -0.8303   -1.5285 H   0  0  0  0  0  0  0  0  0  0  0  0
    4.1418   -1.8960   -1.0469 H   0  0  0  0  0  0  0  0  0  0  0  0
    4.7499    1.1291    0.6066 H   0  0  0  0  0  0  0  0  0  0  0  0
    3.8325    1.1278    3.1717 H   0  0  0  0  0  0  0  0  0  0  0  0
    0.5905   -2.4931    4.1244 H   0  0  0  0  0  0  0  0  0  0  0  0
    2.7230   -4.7692    1.8124 H   0  0  0  0  0  0  0  0  0  0  0  0
    2.3226   -7.1417    1.9181 H   0  0  0  0  0  0  0  0  0  0  0  0
    0.4631   -9.0020   -0.7205 H   0  0  0  0  0  0  0  0  0  0  0  0
    0.8289  -11.4109    1.6543 H   0  0  0  0  0  0  0  0  0  0  0  0
   -0.4366  -13.1658    0.6310 H   0  0  0  0  0  0  0  0  0  0  0  0
   -1.4677  -14.0502   -1.4508 H   0  0  0  0  0  0  0  0  0  0  0  0
   -1.3987  -12.6658   -3.5337 H   0  0  0  0  0  0  0  0  0  0  0  0
   -0.2997  -10.4239   -3.4285 H   0  0  0  0  0  0  0  0  0  0  0  0
    0.5020   -4.4891   -1.8671 H   0  0  0  0  0  0  0  0  0  0  0  0
  1  2  1  0  0  0  0
  1 29  1  0  0  0  0
  1 30  1  0  0  0  0
  1 31  1  0  0  0  0
  2  3  1  0  0  0  0
  2 28  1  0  0  0  0
  3  4  2  0  0  0  0
  3 32  1  0  0  0  0
  4  5  1  0  0  0  0
  4 33  1  0  0  0  0
  5  6  1  0  0  0  0
  5 28  2  0  0  0  0
  6  7  2  0  0  0  0
  7  8  1  0  0  0  0
  7 34  1  0  0  0  0
  8  9  2  0  0  0  0
  9 10  1  0  0  0  0
  9 28  1  0  0  0  0
 10 11  1  0  0  0  0
 11 12  1  0  0  0  0
 11 27  2  0  0  0  0
 12 13  2  0  0  0  0
 12 35  1  0  0  0  0
 13 14  1  0  0  0  0
 13 36  1  0  0  0  0
 14 15  1  0  0  0  0
 14 25  2  0  0  0  0
 15 16  1  0  0  0  0
 15 37  1  0  0  0  0
 16 17  2  0  0  0  0
 16 18  1  0  0  0  0
 18 19  1  0  0  0  0
 18 38  1  0  0  0  0
 19 20  1  0  0  0  0
 19 24  2  0  0  0  0
 20 21  2  0  0  0  0
 20 39  1  0  0  0  0
 21 22  1  0  0  0  0
 21 40  1  0  0  0  0
 22 23  2  0  0  0  0
 22 41  1  0  0  0  0
 23 24  1  0  0  0  0
 23 42  1  0  0  0  0
 25 26  1  0  0  0  0
 25 27  1  0  0  0  0
 27 43  1  0  0  0  0
M  END
$$$$
