CHEMBL3931364
 OpenBabel04072215373D

 54 57  0  0  0  0  0  0  0  0999 V2000
    2.6069   -0.0060   -0.1631 C   0  0  0  0  0  0  0  0  0  0  0  0
    1.1140    0.0621   -0.0728 C   0  0  0  0  0  0  0  0  0  0  0  0
    0.5096    1.3274   -0.0940 C   0  0  0  0  0  0  0  0  0  0  0  0
   -0.8687    1.4863    0.0243 C   0  0  0  0  0  0  0  0  0  0  0  0
   -1.5038    2.7516    0.0698 N   0  0  0  0  0  0  0  0  0  0  0  0
   -0.8442    3.9504    0.2840 C   0  0  0  0  0  0  0  0  0  0  0  0
    0.3685    4.0764    0.4139 O   0  0  0  0  0  0  0  0  0  0  0  0
   -1.7155    5.0227    0.4090 N   0  0  0  0  0  0  0  0  0  0  0  0
   -1.1952    6.3128    0.6704 C   0  0  0  0  0  0  0  0  0  0  0  0
   -1.7280    7.0507    1.7200 C   0  0  0  0  0  0  0  0  0  0  0  0
   -1.1678    8.2870    2.0458 C   0  0  0  0  0  0  0  0  0  0  0  0
   -0.1095    8.8215    1.2956 C   0  0  0  0  0  0  0  0  0  0  0  0
    0.4779   10.3638    1.7968 Cl  0  0  0  0  0  0  0  0  0  0  0  0
    0.4139    8.1142    0.2097 C   0  0  0  0  0  0  0  0  0  0  0  0
    1.5273    8.6049   -0.6800 C   0  0  0  0  0  0  0  0  0  0  0  0
    1.9750    9.8668   -0.4484 F   0  0  0  0  0  0  0  0  0  0  0  0
    2.6321    7.8087   -0.6133 F   0  0  0  0  0  0  0  0  0  0  0  0
    1.1562    8.5981   -1.9951 F   0  0  0  0  0  0  0  0  0  0  0  0
   -0.1360    6.8443   -0.0786 C   0  0  0  0  0  0  0  0  0  0  0  0
   -1.6107    0.3193    0.1267 C   0  0  0  0  0  0  0  0  0  0  0  0
   -1.0721   -0.9236    0.1799 N   0  0  0  0  0  0  0  0  0  0  0  0
    0.2782   -1.0399    0.0720 C   0  0  0  0  0  0  0  0  0  0  0  0
    0.8456   -2.3179    0.1202 O   0  0  0  0  0  0  0  0  0  0  0  0
    0.0469   -3.3794   -0.2755 C   0  0  0  0  0  0  0  0  0  0  0  0
   -0.8015   -3.2822   -1.3741 C   0  0  0  0  0  0  0  0  0  0  0  0
   -1.6107   -4.3527   -1.6583 C   0  0  0  0  0  0  0  0  0  0  0  0
   -1.5721   -5.5098   -0.9795 N   0  0  0  0  0  0  0  0  0  0  0  0
   -0.7056   -5.6389    0.0394 C   0  0  0  0  0  0  0  0  0  0  0  0
   -0.6507   -6.8710    0.7210 N   0  0  0  0  0  0  0  0  0  0  0  0
   -1.4677   -7.9476    0.4005 C   0  0  0  0  0  0  0  0  0  0  0  0
   -2.3401   -7.9883   -0.4466 O   0  0  0  0  0  0  0  0  0  0  0  0
   -1.2393   -9.1738    1.2419 C   0  0  0  0  0  0  0  0  0  0  0  0
   -1.4529  -10.5399    0.6112 C   0  0  0  0  0  0  0  0  0  0  0  0
   -2.4256  -10.0347    1.6370 C   0  0  0  0  0  0  0  0  0  0  0  0
    0.1314   -4.5910    0.4249 C   0  0  0  0  0  0  0  0  0  0  0  0
    3.0167    0.9459   -0.5279 H   0  0  0  0  0  0  0  0  0  0  0  0
    2.9307   -0.7764   -0.8666 H   0  0  0  0  0  0  0  0  0  0  0  0
    3.0384   -0.1889    0.8251 H   0  0  0  0  0  0  0  0  0  0  0  0
    1.1594    2.1866   -0.2238 H   0  0  0  0  0  0  0  0  0  0  0  0
   -2.5126    2.7694    0.0287 H   0  0  0  0  0  0  0  0  0  0  0  0
   -2.5917    4.7982    0.8574 H   0  0  0  0  0  0  0  0  0  0  0  0
   -2.5263    6.6513    2.3386 H   0  0  0  0  0  0  0  0  0  0  0  0
   -1.5554    8.8307    2.9050 H   0  0  0  0  0  0  0  0  0  0  0  0
    0.2794    6.2672   -0.9068 H   0  0  0  0  0  0  0  0  0  0  0  0
   -2.6942    0.3310    0.1989 H   0  0  0  0  0  0  0  0  0  0  0  0
   -0.8731   -2.3817   -1.9705 H   0  0  0  0  0  0  0  0  0  0  0  0
   -2.3432   -4.3146   -2.4573 H   0  0  0  0  0  0  0  0  0  0  0  0
    0.0126   -6.9674    1.4696 H   0  0  0  0  0  0  0  0  0  0  0  0
   -0.4351   -9.1117    1.9658 H   0  0  0  0  0  0  0  0  0  0  0  0
   -0.7964  -11.3540    0.8918 H   0  0  0  0  0  0  0  0  0  0  0  0
   -1.7917  -10.5839   -0.4208 H   0  0  0  0  0  0  0  0  0  0  0  0
   -2.4241  -10.5110    2.6091 H   0  0  0  0  0  0  0  0  0  0  0  0
   -3.4111   -9.7418    1.2889 H   0  0  0  0  0  0  0  0  0  0  0  0
    0.8230   -4.6918    1.2524 H   0  0  0  0  0  0  0  0  0  0  0  0
  1  2  1  0  0  0  0
  1 36  1  0  0  0  0
  1 37  1  0  0  0  0
  1 38  1  0  0  0  0
  2  3  1  0  0  0  0
  2 22  2  0  0  0  0
  3  4  2  0  0  0  0
  3 39  1  0  0  0  0
  4  5  1  0  0  0  0
  4 20  1  0  0  0  0
  5  6  1  0  0  0  0
  5 40  1  0  0  0  0
  6  7  2  0  0  0  0
  6  8  1  0  0  0  0
  8  9  1  0  0  0  0
  8 41  1  0  0  0  0
  9 10  1  0  0  0  0
  9 19  2  0  0  0  0
 10 11  2  0  0  0  0
 10 42  1  0  0  0  0
 11 12  1  0  0  0  0
 11 43  1  0  0  0  0
 12 13  1  0  0  0  0
 12 14  2  0  0  0  0
 14 15  1  0  0  0  0
 14 19  1  0  0  0  0
 15 16  1  0  0  0  0
 15 17  1  0  0  0  0
 15 18  1  0  0  0  0
 19 44  1  0  0  0  0
 20 21  2  0  0  0  0
 20 45  1  0  0  0  0
 21 22  1  0  0  0  0
 22 23  1  0  0  0  0
 23 24  1  0  0  0  0
 24 25  1  0  0  0  0
 24 35  2  0  0  0  0
 25 26  2  0  0  0  0
 25 46  1  0  0  0  0
 26 27  1  0  0  0  0
 26 47  1  0  0  0  0
 27 28  2  0  0  0  0
 28 29  1  0  0  0  0
 28 35  1  0  0  0  0
 29 30  1  0  0  0  0
 29 48  1  0  0  0  0
 30 31  2  0  0  0  0
 30 32  1  0  0  0  0
 32 33  1  0  0  0  0
 32 34  1  0  0  0  0
 32 49  1  0  0  0  0
 33 34  1  0  0  0  0
 33 50  1  0  0  0  0
 33 51  1  0  0  0  0
 34 52  1  0  0  0  0
 34 53  1  0  0  0  0
 35 54  1  0  0  0  0
M  END
$$$$
