CHEMBL1977138
 OpenBabel04072215363D

 42 45  0  0  1  0  0  0  0  0999 V2000
    4.1639   -0.5679    1.0592 C   0  0  0  0  0  0  0  0  0  0  0  0
    4.0805   -0.3874   -0.4599 C   0  0  3  0  0  0  0  0  0  0  0  0
    2.8137   -0.9333   -0.9745 N   0  0  0  0  0  0  0  0  0  0  0  0
    2.5903   -2.3097   -0.8797 C   0  0  0  0  0  0  0  0  0  0  0  0
    1.2742   -2.7647   -0.7574 C   0  0  0  0  0  0  0  0  0  0  0  0
    0.9277   -4.0716   -0.6833 N   0  0  0  0  0  0  0  0  0  0  0  0
    1.9575   -4.9372   -0.7853 C   0  0  0  0  0  0  0  0  0  0  0  0
    3.2698   -4.5165   -0.9791 C   0  0  0  0  0  0  0  0  0  0  0  0
    4.2735   -5.4894   -1.2275 N   0  0  0  0  0  0  0  0  0  0  0  0
    4.2348   -6.8207   -0.8711 C   0  0  0  0  0  0  0  0  0  0  0  0
    5.2598   -7.5004   -1.3281 N   0  0  0  0  0  0  0  0  0  0  0  0
    6.0216   -6.5828   -1.9960 C   0  0  0  0  0  0  0  0  0  0  0  0
    7.2190   -6.7797   -2.6999 C   0  0  0  0  0  0  0  0  0  0  0  0
    7.8250   -5.6849   -3.3292 C   0  0  0  0  0  0  0  0  0  0  0  0
    7.2466   -4.4135   -3.2635 C   0  0  0  0  0  0  0  0  0  0  0  0
    7.8802   -3.3117   -3.9249 C   0  0  0  0  0  0  0  0  0  0  0  0
    8.3940   -2.4201   -4.4681 N   0  0  0  0  0  0  0  0  0  0  0  0
    6.0469   -4.2022   -2.5685 C   0  0  0  0  0  0  0  0  0  0  0  0
    5.4565   -5.3088   -1.9322 C   0  0  0  0  0  0  0  0  0  0  0  0
    3.5995   -3.1917   -1.0255 N   0  0  0  0  0  0  0  0  0  0  0  0
    4.1361    1.0989   -0.8004 C   0  0  0  0  0  0  0  0  0  0  0  0
    2.9782    1.8943   -0.8815 C   0  0  0  0  0  0  0  0  0  0  0  0
    3.0524    3.2358   -1.2670 C   0  0  0  0  0  0  0  0  0  0  0  0
    4.2881    3.8162   -1.5444 C   0  0  0  0  0  0  0  0  0  0  0  0
    5.4512    3.0611   -1.4075 C   0  0  0  0  0  0  0  0  0  0  0  0
    5.3683    1.7194   -1.0344 C   0  0  0  0  0  0  0  0  0  0  0  0
    6.5037    1.0194   -0.9008 F   0  0  0  0  0  0  0  0  0  0  0  0
    4.2803   -1.6245    1.3245 H   0  0  0  0  0  0  0  0  0  0  0  0
    3.2565   -0.2050    1.5572 H   0  0  0  0  0  0  0  0  0  0  0  0
    5.0165   -0.0271    1.4848 H   0  0  0  0  0  0  0  0  0  0  0  0
    4.9263   -0.8894   -0.9482 H   0  0  0  0  0  0  0  0  0  0  0  0
    2.6965   -0.6828   -1.9556 H   0  0  0  0  0  0  0  0  0  0  0  0
    0.4494   -2.0614   -0.6953 H   0  0  0  0  0  0  0  0  0  0  0  0
    1.6573   -5.9791   -0.7720 H   0  0  0  0  0  0  0  0  0  0  0  0
    3.4525   -7.2453   -0.2557 H   0  0  0  0  0  0  0  0  0  0  0  0
    7.6563   -7.7718   -2.7567 H   0  0  0  0  0  0  0  0  0  0  0  0
    8.7520   -5.8408   -3.8773 H   0  0  0  0  0  0  0  0  0  0  0  0
    5.5828   -3.2197   -2.5405 H   0  0  0  0  0  0  0  0  0  0  0  0
    2.0026    1.4673   -0.6559 H   0  0  0  0  0  0  0  0  0  0  0  0
    2.1423    3.8250   -1.3545 H   0  0  0  0  0  0  0  0  0  0  0  0
    4.3436    4.8556   -1.8586 H   0  0  0  0  0  0  0  0  0  0  0  0
    6.4227    3.5078   -1.5962 H   0  0  0  0  0  0  0  0  0  0  0  0
  1  2  1  0  0  0  0
  1 28  1  0  0  0  0
  1 29  1  0  0  0  0
  1 30  1  0  0  0  0
  2  3  1  0  0  0  0
  2 21  1  0  0  0  0
  2 31  1  0  0  0  0
  3  4  1  0  0  0  0
  3 32  1  0  0  0  0
  4  5  1  0  0  0  0
  4 20  2  0  0  0  0
  5  6  2  0  0  0  0
  5 33  1  0  0  0  0
  6  7  1  0  0  0  0
  7  8  2  0  0  0  0
  7 34  1  0  0  0  0
  8  9  1  0  0  0  0
  8 20  1  0  0  0  0
  9 10  1  0  0  0  0
  9 19  1  0  0  0  0
 10 11  2  0  0  0  0
 10 35  1  0  0  0  0
 11 12  1  0  0  0  0
 12 13  1  0  0  0  0
 12 19  2  0  0  0  0
 13 14  2  0  0  0  0
 13 36  1  0  0  0  0
 14 15  1  0  0  0  0
 14 37  1  0  0  0  0
 15 16  1  0  0  0  0
 15 18  2  0  0  0  0
 16 17  3  0  0  0  0
 18 19  1  0  0  0  0
 18 38  1  0  0  0  0
 21 22  1  0  0  0  0
 21 26  2  0  0  0  0
 22 23  2  0  0  0  0
 22 39  1  0  0  0  0
 23 24  1  0  0  0  0
 23 40  1  0  0  0  0
 24 25  2  0  0  0  0
 24 41  1  0  0  0  0
 25 26  1  0  0  0  0
 25 42  1  0  0  0  0
 26 27  1  0  0  0  0
M  END
$$$$
