CHEMBL185059
 OpenBabel04072215363D

 49 52  0  0  0  0  0  0  0  0999 V2000
    3.0203   -5.6212   -0.5322 C   0  0  0  0  0  0  0  0  0  0  0  0
    1.5863   -6.0301   -0.7084 C   0  0  0  0  0  0  0  0  0  0  0  0
    1.2842   -7.3116   -1.1797 C   0  0  0  0  0  0  0  0  0  0  0  0
   -0.0387   -7.6957   -1.3581 C   0  0  0  0  0  0  0  0  0  0  0  0
   -1.0716   -6.8053   -1.0638 C   0  0  0  0  0  0  0  0  0  0  0  0
   -0.8031   -5.5241   -0.5756 C   0  0  0  0  0  0  0  0  0  0  0  0
   -1.8206   -4.5884   -0.2559 N   0  0  0  0  0  0  0  0  0  0  0  0
   -3.1802   -4.8364   -0.2540 C   0  0  0  0  0  0  0  0  0  0  0  0
   -3.7045   -5.9362   -0.4399 O   0  0  0  0  0  0  0  0  0  0  0  0
   -3.9256   -3.6846   -0.0669 N   0  0  0  0  0  0  0  0  0  0  0  0
   -5.3377   -3.7559   -0.0690 C   0  0  0  0  0  0  0  0  0  0  0  0
   -6.0526   -2.9307   -0.9134 C   0  0  0  0  0  0  0  0  0  0  0  0
   -7.4439   -3.0518   -0.9792 C   0  0  0  0  0  0  0  0  0  0  0  0
   -8.1999   -3.8759   -0.1099 C   0  0  0  0  0  0  0  0  0  0  0  0
   -9.6892   -3.7368   -0.1264 C   0  0  0  0  0  0  0  0  0  0  0  0
  -10.5596   -4.8424   -0.0062 C   0  0  0  0  0  0  0  0  0  0  0  0
  -11.9555   -4.7008    0.1738 C   0  0  0  0  0  0  0  0  0  0  0  0
  -12.5505   -3.4471    0.1639 C   0  0  0  0  0  0  0  0  0  0  0  0
  -11.7209   -2.3720   -0.0646 C   0  0  0  0  0  0  0  0  0  0  0  0
  -10.3305   -2.4890   -0.2186 C   0  0  0  0  0  0  0  0  0  0  0  0
   -9.7775   -1.1170   -0.4794 C   0  0  0  0  0  0  0  0  0  0  0  0
  -10.9279   -0.2598   -0.3755 N   0  0  0  0  0  0  0  0  0  0  0  0
  -12.0938   -0.9568   -0.1733 C   0  0  0  0  0  0  0  0  0  0  0  0
  -13.2152   -0.4992   -0.1130 O   0  0  0  0  0  0  0  0  0  0  0  0
   -7.4558   -4.7129    0.7638 C   0  0  0  0  0  0  0  0  0  0  0  0
   -8.0066   -5.7123    1.7659 C   0  0  0  0  0  0  0  0  0  0  0  0
   -9.3059   -5.5607    2.1286 F   0  0  0  0  0  0  0  0  0  0  0  0
   -7.8929   -6.9965    1.3182 F   0  0  0  0  0  0  0  0  0  0  0  0
   -7.3221   -5.6809    2.9490 F   0  0  0  0  0  0  0  0  0  0  0  0
   -6.0325   -4.6593    0.7334 C   0  0  0  0  0  0  0  0  0  0  0  0
    0.5366   -5.1393   -0.4073 C   0  0  0  0  0  0  0  0  0  0  0  0
    3.7005   -6.4265   -0.8305 H   0  0  0  0  0  0  0  0  0  0  0  0
    3.2216   -5.3862    0.5169 H   0  0  0  0  0  0  0  0  0  0  0  0
    3.2468   -4.7498   -1.1549 H   0  0  0  0  0  0  0  0  0  0  0  0
    2.0778   -8.0207   -1.4138 H   0  0  0  0  0  0  0  0  0  0  0  0
   -0.2773   -8.6921   -1.7218 H   0  0  0  0  0  0  0  0  0  0  0  0
   -2.0827   -7.1606   -1.2290 H   0  0  0  0  0  0  0  0  0  0  0  0
   -1.5251   -3.7057    0.1308 H   0  0  0  0  0  0  0  0  0  0  0  0
   -3.5204   -2.8720   -0.5097 H   0  0  0  0  0  0  0  0  0  0  0  0
   -5.5478   -2.2384   -1.5812 H   0  0  0  0  0  0  0  0  0  0  0  0
   -7.9383   -2.4712   -1.7532 H   0  0  0  0  0  0  0  0  0  0  0  0
  -10.1652   -5.8581   -0.0057 H   0  0  0  0  0  0  0  0  0  0  0  0
  -12.5672   -5.5846    0.3448 H   0  0  0  0  0  0  0  0  0  0  0  0
  -13.6153   -3.3093    0.3162 H   0  0  0  0  0  0  0  0  0  0  0  0
   -9.4095   -1.0133   -1.5045 H   0  0  0  0  0  0  0  0  0  0  0  0
   -9.0284   -0.8055    0.2506 H   0  0  0  0  0  0  0  0  0  0  0  0
  -10.9406    0.7330   -0.5688 H   0  0  0  0  0  0  0  0  0  0  0  0
   -5.4667   -5.3350    1.3786 H   0  0  0  0  0  0  0  0  0  0  0  0
    0.7820   -4.1456   -0.0413 H   0  0  0  0  0  0  0  0  0  0  0  0
  1  2  1  0  0  0  0
  1 32  1  0  0  0  0
  1 33  1  0  0  0  0
  1 34  1  0  0  0  0
  2  3  1  0  0  0  0
  2 31  2  0  0  0  0
  3  4  2  0  0  0  0
  3 35  1  0  0  0  0
  4  5  1  0  0  0  0
  4 36  1  0  0  0  0
  5  6  2  0  0  0  0
  5 37  1  0  0  0  0
  6  7  1  0  0  0  0
  6 31  1  0  0  0  0
  7  8  1  0  0  0  0
  7 38  1  0  0  0  0
  8  9  2  0  0  0  0
  8 10  1  0  0  0  0
 10 11  1  0  0  0  0
 10 39  1  0  0  0  0
 11 12  1  0  0  0  0
 11 30  2  0  0  0  0
 12 13  2  0  0  0  0
 12 40  1  0  0  0  0
 13 14  1  0  0  0  0
 13 41  1  0  0  0  0
 14 15  1  0  0  0  0
 14 25  2  0  0  0  0
 15 16  1  0  0  0  0
 15 20  2  0  0  0  0
 16 17  2  0  0  0  0
 16 42  1  0  0  0  0
 17 18  1  0  0  0  0
 17 43  1  0  0  0  0
 18 19  2  0  0  0  0
 18 44  1  0  0  0  0
 19 20  1  0  0  0  0
 19 23  1  0  0  0  0
 20 21  1  0  0  0  0
 21 22  1  0  0  0  0
 21 45  1  0  0  0  0
 21 46  1  0  0  0  0
 22 23  1  0  0  0  0
 22 47  1  0  0  0  0
 23 24  2  0  0  0  0
 25 26  1  0  0  0  0
 25 30  1  0  0  0  0
 26 27  1  0  0  0  0
 26 28  1  0  0  0  0
 26 29  1  0  0  0  0
 30 48  1  0  0  0  0
 31 49  1  0  0  0  0
M  END
$$$$
