CHEMBL3745943
 OpenBabel04072215373D

 54 58  0  0  0  0  0  0  0  0999 V2000
    6.0339   -1.3835    1.0736 C   0  0  0  0  0  0  0  0  0  0  0  0
    5.0558   -0.2089    1.0733 C   0  0  0  0  0  0  0  0  0  0  0  0
    5.4091    0.7955    2.1686 C   0  0  0  0  0  0  0  0  0  0  0  0
    4.9990    0.4624   -0.2647 C   0  0  0  0  0  0  0  0  0  0  0  0
    5.9310    1.1364   -1.0363 C   0  0  0  0  0  0  0  0  0  0  0  0
    5.2370    1.5519   -2.2004 C   0  0  0  0  0  0  0  0  0  0  0  0
    5.7811    2.2519   -3.2626 N   0  0  0  0  0  0  0  0  0  0  0  0
    5.1179    2.3817   -4.4717 C   0  0  0  0  0  0  0  0  0  0  0  0
    4.0374    1.9480   -4.8361 O   0  0  0  0  0  0  0  0  0  0  0  0
    5.9407    2.9820   -5.4488 N   0  0  0  0  0  0  0  0  0  0  0  0
    5.9767    2.5414   -6.7637 C   0  0  0  0  0  0  0  0  0  0  0  0
    6.9386    3.2345   -7.4516 C   0  0  0  0  0  0  0  0  0  0  0  0
    7.4789    4.1984   -6.5656 C   0  0  0  0  0  0  0  0  0  0  0  0
    8.4666    5.1922   -6.7156 C   0  0  0  0  0  0  0  0  0  0  0  0
    8.7584    6.0525   -5.6515 C   0  0  0  0  0  0  0  0  0  0  0  0
    9.8220    6.9028   -5.8659 O   0  0  0  0  0  0  0  0  0  0  0  0
    9.9395    8.0437   -5.0887 C   0  0  0  0  0  0  0  0  0  0  0  0
    8.8501    8.8204   -4.9422 N   0  0  0  0  0  0  0  0  0  0  0  0
    9.0401    9.9372   -4.2398 C   0  0  0  0  0  0  0  0  0  0  0  0
   10.2051   10.3498   -3.7220 N   0  0  0  0  0  0  0  0  0  0  0  0
   11.2835    9.5541   -3.9234 C   0  0  0  0  0  0  0  0  0  0  0  0
   11.1973    8.3567   -4.5975 C   0  0  0  0  0  0  0  0  0  0  0  0
   12.3780    7.4675   -4.7882 C   0  0  0  0  0  0  0  0  0  0  0  0
   13.6747    7.9237   -4.1069 C   0  0  0  0  0  0  0  0  0  0  0  0
   13.8084    9.2905   -3.6343 N   0  0  0  0  0  0  0  0  0  0  0  0
   12.5951   10.0645   -3.3858 C   0  0  0  0  0  0  0  0  0  0  0  0
    8.0454    5.9473   -4.4581 C   0  0  0  0  0  0  0  0  0  0  0  0
    7.0545    4.9706   -4.2865 C   0  0  0  0  0  0  0  0  0  0  0  0
    6.8200    4.0635   -5.3357 C   0  0  0  0  0  0  0  0  0  0  0  0
    3.9572    1.1762   -2.1413 N   0  0  0  0  0  0  0  0  0  0  0  0
    3.8332    0.5203   -0.9854 N   0  0  0  0  0  0  0  0  0  0  0  0
    6.0643   -1.8622    2.0593 H   0  0  0  0  0  0  0  0  0  0  0  0
    7.0516   -1.0658    0.8226 H   0  0  0  0  0  0  0  0  0  0  0  0
    5.7319   -2.1448    0.3452 H   0  0  0  0  0  0  0  0  0  0  0  0
    4.0618   -0.6146    1.3097 H   0  0  0  0  0  0  0  0  0  0  0  0
    6.3956    1.2421    2.0030 H   0  0  0  0  0  0  0  0  0  0  0  0
    5.4162    0.3127    3.1516 H   0  0  0  0  0  0  0  0  0  0  0  0
    4.6754    1.6088    2.2003 H   0  0  0  0  0  0  0  0  0  0  0  0
    6.9719    1.2851   -0.7946 H   0  0  0  0  0  0  0  0  0  0  0  0
    6.7590    2.4893   -3.1907 H   0  0  0  0  0  0  0  0  0  0  0  0
    5.3366    1.7211   -7.0652 H   0  0  0  0  0  0  0  0  0  0  0  0
    7.2080    3.0757   -8.4876 H   0  0  0  0  0  0  0  0  0  0  0  0
    8.9968    5.2924   -7.6590 H   0  0  0  0  0  0  0  0  0  0  0  0
    8.1738   10.5674   -4.0721 H   0  0  0  0  0  0  0  0  0  0  0  0
   12.1273    6.4737   -4.3928 H   0  0  0  0  0  0  0  0  0  0  0  0
   12.5608    7.3544   -5.8635 H   0  0  0  0  0  0  0  0  0  0  0  0
   14.4996    7.7319   -4.8069 H   0  0  0  0  0  0  0  0  0  0  0  0
   13.8788    7.2551   -3.2616 H   0  0  0  0  0  0  0  0  0  0  0  0
   14.4650    9.8232   -4.1993 H   0  0  0  0  0  0  0  0  0  0  0  0
   12.7512   11.0581   -3.8261 H   0  0  0  0  0  0  0  0  0  0  0  0
   12.4907   10.2173   -2.3059 H   0  0  0  0  0  0  0  0  0  0  0  0
    8.2396    6.6284   -3.6336 H   0  0  0  0  0  0  0  0  0  0  0  0
    6.4784    4.9438   -3.3657 H   0  0  0  0  0  0  0  0  0  0  0  0
    2.9314    0.1282   -0.7535 H   0  0  0  0  0  0  0  0  0  0  0  0
  1  2  1  0  0  0  0
  1 32  1  0  0  0  0
  1 33  1  0  0  0  0
  1 34  1  0  0  0  0
  2  3  1  0  0  0  0
  2  4  1  0  0  0  0
  2 35  1  0  0  0  0
  3 36  1  0  0  0  0
  3 37  1  0  0  0  0
  3 38  1  0  0  0  0
  4  5  2  0  0  0  0
  4 31  1  0  0  0  0
  5  6  1  0  0  0  0
  5 39  1  0  0  0  0
  6  7  1  0  0  0  0
  6 30  2  0  0  0  0
  7  8  1  0  0  0  0
  7 40  1  0  0  0  0
  8  9  2  0  0  0  0
  8 10  1  0  0  0  0
 10 11  1  0  0  0  0
 10 29  1  0  0  0  0
 11 12  2  0  0  0  0
 11 41  1  0  0  0  0
 12 13  1  0  0  0  0
 12 42  1  0  0  0  0
 13 14  1  0  0  0  0
 13 29  2  0  0  0  0
 14 15  2  0  0  0  0
 14 43  1  0  0  0  0
 15 16  1  0  0  0  0
 15 27  1  0  0  0  0
 16 17  1  0  0  0  0
 17 18  1  0  0  0  0
 17 22  2  0  0  0  0
 18 19  2  0  0  0  0
 19 20  1  0  0  0  0
 19 44  1  0  0  0  0
 20 21  2  0  0  0  0
 21 22  1  0  0  0  0
 21 26  1  0  0  0  0
 22 23  1  0  0  0  0
 23 24  1  0  0  0  0
 23 45  1  0  0  0  0
 23 46  1  0  0  0  0
 24 25  1  0  0  0  0
 24 47  1  0  0  0  0
 24 48  1  0  0  0  0
 25 26  1  0  0  0  0
 25 49  1  0  0  0  0
 26 50  1  0  0  0  0
 26 51  1  0  0  0  0
 27 28  2  0  0  0  0
 27 52  1  0  0  0  0
 28 29  1  0  0  0  0
 28 53  1  0  0  0  0
 30 31  1  0  0  0  0
 31 54  1  0  0  0  0
M  END
$$$$
