CHEMBL3966941
 OpenBabel04072215373D

 63 67  0  0  1  0  0  0  0  0999 V2000
    2.5110   -1.0120   -1.1773 C   0  0  0  0  0  0  0  0  0  0  0  0
    1.9662    0.2704   -0.8874 O   0  0  0  0  0  0  0  0  0  0  0  0
    2.8887    1.2841   -0.9052 C   0  0  0  0  0  0  0  0  0  0  0  0
    2.6260    2.3190   -0.0341 C   0  0  0  0  0  0  0  0  0  0  0  0
    3.5004    3.3979    0.0213 C   0  0  0  0  0  0  0  0  0  0  0  0
    3.3359    4.4849    0.8388 O   0  0  0  0  0  0  0  0  0  0  0  0
    2.1868    4.4093    1.6744 C   0  0  0  0  0  0  0  0  0  0  0  0
    4.6667    3.4077   -0.7608 C   0  0  0  0  0  0  0  0  0  0  0  0
    5.0392    2.3269   -1.5594 C   0  0  0  0  0  0  0  0  0  0  0  0
    6.3378    2.2611   -2.1683 N   0  0  0  0  0  0  0  0  0  0  0  0
    6.8517    0.7966   -2.5385 C   0  0  0  0  0  0  0  0  0  0  0  0
    7.7780    0.4183   -1.3943 C   0  0  0  0  0  0  0  0  0  0  0  0
    8.5726    0.0937   -0.4128 C   0  0  0  0  0  0  0  0  0  0  0  0
    9.4653   -0.2665    0.7159 C   0  0  3  0  0  0  0  0  0  0  0  0
    8.6617   -0.4239    1.8889 O   0  0  0  0  0  0  0  0  0  0  0  0
   10.5216    0.7957    0.9640 C   0  0  0  0  0  0  0  0  0  0  0  0
   11.7545    0.0485    1.4438 C   0  0  0  0  0  0  0  0  0  0  0  0
   11.4664   -1.3501    1.4112 O   0  0  0  0  0  0  0  0  0  0  0  0
   10.3171   -1.5274    0.5509 C   0  0  0  0  0  0  0  0  0  0  0  0
    7.3389    3.3302   -2.3510 C   0  0  0  0  0  0  0  0  0  0  0  0
    7.8741    3.3284   -3.5972 C   0  0  0  0  0  0  0  0  0  0  0  0
    8.9530    4.1052   -3.8553 C   0  0  0  0  0  0  0  0  0  0  0  0
    9.5381    4.8836   -2.8342 C   0  0  0  0  0  0  0  0  0  0  0  0
   10.7907    4.6773   -3.0658 N   0  0  0  0  0  0  0  0  0  0  0  0
   11.3844    5.7046   -3.6102 C   0  0  0  0  0  0  0  0  0  0  0  0
   11.2300    6.9414   -3.1250 C   0  0  0  0  0  0  0  0  0  0  0  0
   12.3617    7.8529   -3.9817 C   0  0  0  0  0  0  0  0  0  0  0  0
   13.0363    7.4400   -5.2729 C   0  0  0  0  0  0  0  0  0  0  0  0
   14.0299    8.2215   -5.7209 N   0  0  0  0  0  0  0  0  0  0  0  0
   14.0934    9.2012   -4.8131 N   0  0  0  0  0  0  0  0  0  0  0  0
   15.0424   10.2967   -5.0506 C   0  0  0  0  0  0  0  0  0  0  0  0
   13.1469    9.0058   -3.7666 C   0  0  0  0  0  0  0  0  0  0  0  0
   10.1623    6.9230   -2.0903 N   0  0  0  0  0  0  0  0  0  0  0  0
    9.0418    5.6403   -1.9124 C   0  0  0  0  0  0  0  0  0  0  0  0
    7.8362    4.4901   -1.5115 C   0  0  0  0  0  0  0  0  0  0  0  0
    4.0267    1.3494   -1.7310 C   0  0  0  0  0  0  0  0  0  0  0  0
    1.7291   -1.7625   -1.0278 H   0  0  0  0  0  0  0  0  0  0  0  0
    3.3455   -1.2540   -0.5080 H   0  0  0  0  0  0  0  0  0  0  0  0
    2.8186   -1.0631   -2.2236 H   0  0  0  0  0  0  0  0  0  0  0  0
    1.7203    2.2658    0.5629 H   0  0  0  0  0  0  0  0  0  0  0  0
    2.1671    5.2902    2.3156 H   0  0  0  0  0  0  0  0  0  0  0  0
    2.2284    3.5234    2.3209 H   0  0  0  0  0  0  0  0  0  0  0  0
    1.2772    4.4075    1.0633 H   0  0  0  0  0  0  0  0  0  0  0  0
    5.2808    4.2942   -0.7281 H   0  0  0  0  0  0  0  0  0  0  0  0
    7.3679    0.7574   -3.4991 H   0  0  0  0  0  0  0  0  0  0  0  0
    6.0319    0.0774   -2.5767 H   0  0  0  0  0  0  0  0  0  0  0  0
    8.0572    0.3358    1.9222 H   0  0  0  0  0  0  0  0  0  0  0  0
   10.2085    1.5122    1.7284 H   0  0  0  0  0  0  0  0  0  0  0  0
   10.7775    1.3539    0.0556 H   0  0  0  0  0  0  0  0  0  0  0  0
   12.0364    0.3526    2.4573 H   0  0  0  0  0  0  0  0  0  0  0  0
   12.6184    0.2357    0.7945 H   0  0  0  0  0  0  0  0  0  0  0  0
    9.8065   -2.4430    0.8682 H   0  0  0  0  0  0  0  0  0  0  0  0
   10.7038   -1.6656   -0.4640 H   0  0  0  0  0  0  0  0  0  0  0  0
    7.6812    2.5776   -4.3510 H   0  0  0  0  0  0  0  0  0  0  0  0
    9.4991    3.9449   -4.7609 H   0  0  0  0  0  0  0  0  0  0  0  0
   11.7908    5.4746   -4.5696 H   0  0  0  0  0  0  0  0  0  0  0  0
   12.8627    6.5876   -5.9290 H   0  0  0  0  0  0  0  0  0  0  0  0
   15.7030   10.1096   -5.9183 H   0  0  0  0  0  0  0  0  0  0  0  0
   15.6848   10.4389   -4.1778 H   0  0  0  0  0  0  0  0  0  0  0  0
   14.4850   11.2128   -5.2666 H   0  0  0  0  0  0  0  0  0  0  0  0
   13.1747    9.7395   -2.9817 H   0  0  0  0  0  0  0  0  0  0  0  0
    7.4039    4.5344   -0.4936 H   0  0  0  0  0  0  0  0  0  0  0  0
    4.0445    0.6730   -2.5789 H   0  0  0  0  0  0  0  0  0  0  0  0
  1  2  1  0  0  0  0
  1 37  1  0  0  0  0
  1 38  1  0  0  0  0
  1 39  1  0  0  0  0
  2  3  1  0  0  0  0
  3  4  1  0  0  0  0
  3 36  2  0  0  0  0
  4  5  2  0  0  0  0
  4 40  1  0  0  0  0
  5  6  1  0  0  0  0
  5  8  1  0  0  0  0
  6  7  1  0  0  0  0
  7 41  1  0  0  0  0
  7 42  1  0  0  0  0
  7 43  1  0  0  0  0
  8  9  2  0  0  0  0
  8 44  1  0  0  0  0
  9 10  1  0  0  0  0
  9 36  1  0  0  0  0
 10 11  1  0  0  0  0
 10 20  1  0  0  0  0
 11 12  1  0  0  0  0
 11 45  1  0  0  0  0
 11 46  1  0  0  0  0
 12 13  3  0  0  0  0
 13 14  1  0  0  0  0
 14 15  1  0  0  0  0
 14 16  1  0  0  0  0
 14 19  1  0  0  0  0
 15 47  1  0  0  0  0
 16 17  1  0  0  0  0
 16 48  1  0  0  0  0
 16 49  1  0  0  0  0
 17 18  1  0  0  0  0
 17 50  1  0  0  0  0
 17 51  1  0  0  0  0
 18 19  1  0  0  0  0
 19 52  1  0  0  0  0
 19 53  1  0  0  0  0
 20 21  1  0  0  0  0
 20 35  2  0  0  0  0
 21 22  2  0  0  0  0
 21 54  1  0  0  0  0
 22 23  1  0  0  0  0
 22 55  1  0  0  0  0
 23 24  1  0  0  0  0
 23 34  2  0  0  0  0
 24 25  2  0  0  0  0
 25 26  1  0  0  0  0
 25 56  1  0  0  0  0
 26 27  1  0  0  0  0
 26 33  2  0  0  0  0
 27 28  1  0  0  0  0
 27 32  2  0  0  0  0
 28 29  2  0  0  0  0
 28 57  1  0  0  0  0
 29 30  1  0  0  0  0
 30 31  1  0  0  0  0
 30 32  1  0  0  0  0
 31 58  1  0  0  0  0
 31 59  1  0  0  0  0
 31 60  1  0  0  0  0
 32 61  1  0  0  0  0
 33 34  1  0  0  0  0
 34 35  1  0  0  0  0
 35 62  1  0  0  0  0
 36 63  1  0  0  0  0
M  END
$$$$
