CHEMBL181959
 OpenBabel04072215363D

 44 47  0  0  0  0  0  0  0  0999 V2000
    2.6849    0.2469   -1.1847 C   0  0  0  0  0  0  0  0  0  0  0  0
    3.1651   -0.5888   -0.1390 O   0  0  0  0  0  0  0  0  0  0  0  0
    3.6216    0.0326    0.9895 C   0  0  0  0  0  0  0  0  0  0  0  0
    3.6453    1.4066    1.2160 C   0  0  0  0  0  0  0  0  0  0  0  0
    4.1689    1.9153    2.4121 C   0  0  0  0  0  0  0  0  0  0  0  0
    4.6895    1.0647    3.3979 C   0  0  0  0  0  0  0  0  0  0  0  0
    5.3200    1.6198    4.5944 C   0  0  0  0  0  0  0  0  0  0  0  0
    5.5899    2.9040    5.0317 C   0  0  0  0  0  0  0  0  0  0  0  0
    6.2935    2.7818    6.2598 C   0  0  0  0  0  0  0  0  0  0  0  0
    6.8698    3.6261    7.2150 C   0  0  0  0  0  0  0  0  0  0  0  0
    6.8044    5.0220    7.0683 N   0  0  0  0  0  0  0  0  0  0  0  0
    7.3165    5.9225    7.9865 C   0  0  0  0  0  0  0  0  0  0  0  0
    7.8445    5.6387    9.0546 O   0  0  0  0  0  0  0  0  0  0  0  0
    7.1103    7.3813    7.5813 C   0  0  0  0  0  0  0  0  0  0  0  0
    7.7643    7.7492    6.2518 C   0  0  0  0  0  0  0  0  0  0  0  0
    8.0020    9.2573    6.3197 C   0  0  0  0  0  0  0  0  0  0  0  0
    7.8968    9.6508    7.7900 C   0  0  0  0  0  0  0  0  0  0  0  0
    7.7878    8.3444    8.5573 C   0  0  0  0  0  0  0  0  0  0  0  0
    7.4937    3.0611    8.2680 N   0  0  0  0  0  0  0  0  0  0  0  0
    7.5313    1.7232    8.3753 C   0  0  0  0  0  0  0  0  0  0  0  0
    7.0083    0.8244    7.5364 N   0  0  0  0  0  0  0  0  0  0  0  0
    6.4058    1.4199    6.4997 C   0  0  0  0  0  0  0  0  0  0  0  0
    5.8089    0.7196    5.4969 O   0  0  0  0  0  0  0  0  0  0  0  0
    4.6272   -0.3170    3.1738 C   0  0  0  0  0  0  0  0  0  0  0  0
    4.1022   -0.8250    1.9797 C   0  0  0  0  0  0  0  0  0  0  0  0
    2.3158   -0.3994   -1.9865 H   0  0  0  0  0  0  0  0  0  0  0  0
    3.4904    0.8649   -1.5962 H   0  0  0  0  0  0  0  0  0  0  0  0
    1.8470    0.8646   -0.8456 H   0  0  0  0  0  0  0  0  0  0  0  0
    3.2755    2.1140    0.4818 H   0  0  0  0  0  0  0  0  0  0  0  0
    4.1740    2.9932    2.5494 H   0  0  0  0  0  0  0  0  0  0  0  0
    5.3344    3.8152    4.5115 H   0  0  0  0  0  0  0  0  0  0  0  0
    6.3302    5.3793    6.2522 H   0  0  0  0  0  0  0  0  0  0  0  0
    6.0324    7.5877    7.5469 H   0  0  0  0  0  0  0  0  0  0  0  0
    7.1384    7.4827    5.3940 H   0  0  0  0  0  0  0  0  0  0  0  0
    8.7211    7.2266    6.1305 H   0  0  0  0  0  0  0  0  0  0  0  0
    7.2505    9.7983    5.7338 H   0  0  0  0  0  0  0  0  0  0  0  0
    8.9830    9.5143    5.9064 H   0  0  0  0  0  0  0  0  0  0  0  0
    6.9999   10.2600    7.9508 H   0  0  0  0  0  0  0  0  0  0  0  0
    8.7581   10.2408    8.1196 H   0  0  0  0  0  0  0  0  0  0  0  0
    7.2216    8.4589    9.4873 H   0  0  0  0  0  0  0  0  0  0  0  0
    8.7925    7.9930    8.8247 H   0  0  0  0  0  0  0  0  0  0  0  0
    8.0499    1.3311    9.2454 H   0  0  0  0  0  0  0  0  0  0  0  0
    5.0030   -1.0180    3.9166 H   0  0  0  0  0  0  0  0  0  0  0  0
    4.0815   -1.9005    1.8175 H   0  0  0  0  0  0  0  0  0  0  0  0
  1  2  1  0  0  0  0
  1 26  1  0  0  0  0
  1 27  1  0  0  0  0
  1 28  1  0  0  0  0
  2  3  1  0  0  0  0
  3  4  1  0  0  0  0
  3 25  2  0  0  0  0
  4  5  2  0  0  0  0
  4 29  1  0  0  0  0
  5  6  1  0  0  0  0
  5 30  1  0  0  0  0
  6  7  1  0  0  0  0
  6 24  2  0  0  0  0
  7  8  2  0  0  0  0
  7 23  1  0  0  0  0
  8  9  1  0  0  0  0
  8 31  1  0  0  0  0
  9 10  1  0  0  0  0
  9 22  2  0  0  0  0
 10 11  1  0  0  0  0
 10 19  2  0  0  0  0
 11 12  1  0  0  0  0
 11 32  1  0  0  0  0
 12 13  2  0  0  0  0
 12 14  1  0  0  0  0
 14 15  1  0  0  0  0
 14 18  1  0  0  0  0
 14 33  1  0  0  0  0
 15 16  1  0  0  0  0
 15 34  1  0  0  0  0
 15 35  1  0  0  0  0
 16 17  1  0  0  0  0
 16 36  1  0  0  0  0
 16 37  1  0  0  0  0
 17 18  1  0  0  0  0
 17 38  1  0  0  0  0
 17 39  1  0  0  0  0
 18 40  1  0  0  0  0
 18 41  1  0  0  0  0
 19 20  1  0  0  0  0
 20 21  2  0  0  0  0
 20 42  1  0  0  0  0
 21 22  1  0  0  0  0
 22 23  1  0  0  0  0
 24 25  1  0  0  0  0
 24 43  1  0  0  0  0
 25 44  1  0  0  0  0
M  END
$$$$
