CHEMBL1242112
 OpenBabel04072215363D

 39 41  0  0  0  0  0  0  0  0999 V2000
    7.0623    2.8903   -1.4029 C   0  0  0  0  0  0  0  0  0  0  0  0
    6.3637    1.8839   -0.6844 O   0  0  0  0  0  0  0  0  0  0  0  0
    5.1005    2.1740   -0.2363 C   0  0  0  0  0  0  0  0  0  0  0  0
    4.4489    3.3874   -0.4068 C   0  0  0  0  0  0  0  0  0  0  0  0
    3.1534    3.6092    0.0837 C   0  0  0  0  0  0  0  0  0  0  0  0
    2.5212    4.9133   -0.0539 C   0  0  0  0  0  0  0  0  0  0  0  0
    1.6421    5.3611    0.8861 N   0  0  0  0  0  0  0  0  0  0  0  0
    1.3394    6.6137    0.4932 N   0  0  0  0  0  0  0  0  0  0  0  0
    0.4377    7.4310    1.3099 C   0  0  0  0  0  0  0  0  0  0  0  0
   -0.9320    6.7600    1.4705 C   0  0  0  0  0  0  0  0  0  0  0  0
    0.9865    7.7727    2.7017 C   0  0  0  0  0  0  0  0  0  0  0  0
    1.9134    6.9600   -0.7211 C   0  0  0  0  0  0  0  0  0  0  0  0
    1.7587    8.0941   -1.4114 N   0  0  0  0  0  0  0  0  0  0  0  0
    2.4837    8.0801   -2.5513 C   0  0  0  0  0  0  0  0  0  0  0  0
    3.2933    7.1077   -3.0145 N   0  0  0  0  0  0  0  0  0  0  0  0
    3.4175    5.9880   -2.2864 C   0  0  0  0  0  0  0  0  0  0  0  0
    4.2520    5.0201   -2.8230 N   0  0  0  0  0  0  0  0  0  0  0  0
    2.6968    5.8763   -1.0782 C   0  0  0  0  0  0  0  0  0  0  0  0
    2.5141    2.5739    0.7722 C   0  0  0  0  0  0  0  0  0  0  0  0
    3.1604    1.3647    0.9840 C   0  0  0  0  0  0  0  0  0  0  0  0
    4.4505    1.1660    0.4657 C   0  0  0  0  0  0  0  0  0  0  0  0
    5.0954   -0.0102    0.7124 O   0  0  0  0  0  0  0  0  0  0  0  0
    8.0385    2.4813   -1.6843 H   0  0  0  0  0  0  0  0  0  0  0  0
    7.2386    3.7735   -0.7799 H   0  0  0  0  0  0  0  0  0  0  0  0
    6.5360    3.1520   -2.3251 H   0  0  0  0  0  0  0  0  0  0  0  0
    4.9711    4.1836   -0.8965 H   0  0  0  0  0  0  0  0  0  0  0  0
    0.3018    8.3763    0.7694 H   0  0  0  0  0  0  0  0  0  0  0  0
   -0.8426    5.7821    1.9514 H   0  0  0  0  0  0  0  0  0  0  0  0
   -1.4184    6.6180    0.5009 H   0  0  0  0  0  0  0  0  0  0  0  0
   -1.5926    7.3766    2.0917 H   0  0  0  0  0  0  0  0  0  0  0  0
    1.1478    6.8743    3.3107 H   0  0  0  0  0  0  0  0  0  0  0  0
    0.2816    8.4091    3.2473 H   0  0  0  0  0  0  0  0  0  0  0  0
    1.9366    8.3190    2.6400 H   0  0  0  0  0  0  0  0  0  0  0  0
    2.4118    8.9576   -3.1818 H   0  0  0  0  0  0  0  0  0  0  0  0
    4.4699    5.1720   -3.7787 H   0  0  0  0  0  0  0  0  0  0  0  0
    4.0243    4.0567   -2.5848 H   0  0  0  0  0  0  0  0  0  0  0  0
    1.5177    2.7304    1.1782 H   0  0  0  0  0  0  0  0  0  0  0  0
    2.6613    0.5930    1.5611 H   0  0  0  0  0  0  0  0  0  0  0  0
    4.4951   -0.6154    1.1712 H   0  0  0  0  0  0  0  0  0  0  0  0
  1  2  1  0  0  0  0
  1 23  1  0  0  0  0
  1 24  1  0  0  0  0
  1 25  1  0  0  0  0
  2  3  1  0  0  0  0
  3  4  1  0  0  0  0
  3 21  2  0  0  0  0
  4  5  2  0  0  0  0
  4 26  1  0  0  0  0
  5  6  1  0  0  0  0
  5 19  1  0  0  0  0
  6  7  2  0  0  0  0
  6 18  1  0  0  0  0
  7  8  1  0  0  0  0
  8  9  1  0  0  0  0
  8 12  1  0  0  0  0
  9 10  1  0  0  0  0
  9 11  1  0  0  0  0
  9 27  1  0  0  0  0
 10 28  1  0  0  0  0
 10 29  1  0  0  0  0
 10 30  1  0  0  0  0
 11 31  1  0  0  0  0
 11 32  1  0  0  0  0
 11 33  1  0  0  0  0
 12 13  1  0  0  0  0
 12 18  2  0  0  0  0
 13 14  2  0  0  0  0
 14 15  1  0  0  0  0
 14 34  1  0  0  0  0
 15 16  2  0  0  0  0
 16 17  1  0  0  0  0
 16 18  1  0  0  0  0
 17 35  1  0  0  0  0
 17 36  1  0  0  0  0
 19 20  2  0  0  0  0
 19 37  1  0  0  0  0
 20 21  1  0  0  0  0
 20 38  1  0  0  0  0
 21 22  1  0  0  0  0
 22 39  1  0  0  0  0
M  END
$$$$
