CHEMBL3746595
 OpenBabel04072215373D

 46 49  0  0  0  0  0  0  0  0999 V2000
    2.6758   -1.2044    0.6611 O   0  0  0  0  0  0  0  0  0  0  0  0
    2.5852   -0.1150    0.1220 C   0  0  0  0  0  0  0  0  0  0  0  0
    1.5186    0.4956   -0.4802 N   0  0  0  0  0  0  0  0  0  0  0  0
    0.2458   -0.0597   -0.6462 C   0  0  0  0  0  0  0  0  0  0  0  0
   -0.0287   -1.4202   -0.4830 C   0  0  0  0  0  0  0  0  0  0  0  0
   -1.3353   -1.8784   -0.6362 C   0  0  0  0  0  0  0  0  0  0  0  0
   -2.3615   -0.9942   -0.9298 C   0  0  0  0  0  0  0  0  0  0  0  0
   -2.1010    0.3727   -1.1318 C   0  0  0  0  0  0  0  0  0  0  0  0
   -3.1910    1.3731   -1.3882 C   0  0  0  0  0  0  0  0  0  0  0  0
   -4.4379    0.8291   -1.4019 F   0  0  0  0  0  0  0  0  0  0  0  0
   -3.2366    2.3751   -0.4589 F   0  0  0  0  0  0  0  0  0  0  0  0
   -3.0388    1.9968   -2.5886 F   0  0  0  0  0  0  0  0  0  0  0  0
   -0.7675    0.8296   -1.0083 C   0  0  0  0  0  0  0  0  0  0  0  0
    3.6917    0.7548    0.0998 N   0  0  0  0  0  0  0  0  0  0  0  0
    3.8896    1.7782   -0.8432 C   0  0  0  0  0  0  0  0  0  0  0  0
    4.9453    2.5309   -0.3858 C   0  0  0  0  0  0  0  0  0  0  0  0
    5.7558    1.5401    0.2189 C   0  0  0  0  0  0  0  0  0  0  0  0
    7.1288    1.3264    0.3054 C   0  0  0  0  0  0  0  0  0  0  0  0
    7.5890    0.2620    1.0873 C   0  0  0  0  0  0  0  0  0  0  0  0
    8.8938   -0.1723    1.0729 O   0  0  0  0  0  0  0  0  0  0  0  0
    9.8827    0.7570    0.8006 C   0  0  0  0  0  0  0  0  0  0  0  0
   11.0184    0.2828    0.1970 C   0  0  0  0  0  0  0  0  0  0  0  0
   12.0461    1.1952    0.0811 C   0  0  0  0  0  0  0  0  0  0  0  0
   13.4092    0.7314   -0.3577 C   0  0  0  0  0  0  0  0  0  0  0  0
   13.8948   -0.2618    0.5429 O   0  0  0  0  0  0  0  0  0  0  0  0
   11.9200    2.4886    0.4534 N   0  0  0  0  0  0  0  0  0  0  0  0
   10.7442    2.8480    0.9934 C   0  0  0  0  0  0  0  0  0  0  0  0
    9.7237    2.0237    1.2254 N   0  0  0  0  0  0  0  0  0  0  0  0
    6.7046   -0.5022    1.8491 C   0  0  0  0  0  0  0  0  0  0  0  0
    5.3250   -0.3405    1.7208 C   0  0  0  0  0  0  0  0  0  0  0  0
    4.8927    0.6043    0.7825 C   0  0  0  0  0  0  0  0  0  0  0  0
    1.5967    1.4805   -0.7001 H   0  0  0  0  0  0  0  0  0  0  0  0
    0.7475   -2.1283   -0.2528 H   0  0  0  0  0  0  0  0  0  0  0  0
   -1.5508   -2.9306   -0.4924 H   0  0  0  0  0  0  0  0  0  0  0  0
   -3.3804   -1.3562   -1.0114 H   0  0  0  0  0  0  0  0  0  0  0  0
   -0.5663    1.8911   -1.1177 H   0  0  0  0  0  0  0  0  0  0  0  0
    3.6598    1.5092   -1.8701 H   0  0  0  0  0  0  0  0  0  0  0  0
    4.7797    3.4878    0.1096 H   0  0  0  0  0  0  0  0  0  0  0  0
    7.7865    1.9294   -0.3098 H   0  0  0  0  0  0  0  0  0  0  0  0
   11.1184   -0.7498   -0.1098 H   0  0  0  0  0  0  0  0  0  0  0  0
   14.1175    1.5658   -0.3497 H   0  0  0  0  0  0  0  0  0  0  0  0
   13.3728    0.3128   -1.3672 H   0  0  0  0  0  0  0  0  0  0  0  0
   13.8190    0.1198    1.4367 H   0  0  0  0  0  0  0  0  0  0  0  0
   10.6103    3.8826    1.2666 H   0  0  0  0  0  0  0  0  0  0  0  0
    7.0872   -1.2906    2.4922 H   0  0  0  0  0  0  0  0  0  0  0  0
    4.6352   -1.0071    2.2295 H   0  0  0  0  0  0  0  0  0  0  0  0
  1  2  2  0  0  0  0
  2  3  1  0  0  0  0
  2 14  1  0  0  0  0
  3  4  1  0  0  0  0
  3 32  1  0  0  0  0
  4  5  1  0  0  0  0
  4 13  2  0  0  0  0
  5  6  2  0  0  0  0
  5 33  1  0  0  0  0
  6  7  1  0  0  0  0
  6 34  1  0  0  0  0
  7  8  2  0  0  0  0
  7 35  1  0  0  0  0
  8  9  1  0  0  0  0
  8 13  1  0  0  0  0
  9 10  1  0  0  0  0
  9 11  1  0  0  0  0
  9 12  1  0  0  0  0
 13 36  1  0  0  0  0
 14 15  1  0  0  0  0
 14 31  1  0  0  0  0
 15 16  2  0  0  0  0
 15 37  1  0  0  0  0
 16 17  1  0  0  0  0
 16 38  1  0  0  0  0
 17 18  1  0  0  0  0
 17 31  2  0  0  0  0
 18 19  2  0  0  0  0
 18 39  1  0  0  0  0
 19 20  1  0  0  0  0
 19 29  1  0  0  0  0
 20 21  1  0  0  0  0
 21 22  1  0  0  0  0
 21 28  2  0  0  0  0
 22 23  2  0  0  0  0
 22 40  1  0  0  0  0
 23 24  1  0  0  0  0
 23 26  1  0  0  0  0
 24 25  1  0  0  0  0
 24 41  1  0  0  0  0
 24 42  1  0  0  0  0
 25 43  1  0  0  0  0
 26 27  2  0  0  0  0
 27 28  1  0  0  0  0
 27 44  1  0  0  0  0
 29 30  2  0  0  0  0
 29 45  1  0  0  0  0
 30 31  1  0  0  0  0
 30 46  1  0  0  0  0
M  END
$$$$
