CHEMBL3690580
 OpenBabel04072215373D

 48 51  0  0  0  0  0  0  0  0999 V2000
    2.8107    1.2225    0.6196 O   0  0  0  0  0  0  0  0  0  0  0  0
    2.7623    0.7296   -0.4985 C   0  0  0  0  0  0  0  0  0  0  0  0
    1.7932    1.1133   -1.4005 N   0  0  0  0  0  0  0  0  0  0  0  0
    0.7267    2.0104   -0.9379 C   0  0  0  0  0  0  0  0  0  0  0  0
   -0.4222    1.3207   -0.1838 C   0  0  0  0  0  0  0  0  0  0  0  0
   -0.2765   -0.0254   -0.1642 F   0  0  0  0  0  0  0  0  0  0  0  0
   -0.5352    1.7505    1.0895 F   0  0  0  0  0  0  0  0  0  0  0  0
   -1.6013    1.5745   -0.8043 F   0  0  0  0  0  0  0  0  0  0  0  0
    3.6176   -0.2110   -1.0385 N   0  0  0  0  0  0  0  0  0  0  0  0
    4.7516   -0.7821   -0.4156 C   0  0  0  0  0  0  0  0  0  0  0  0
    5.1758   -0.4217    0.8629 C   0  0  0  0  0  0  0  0  0  0  0  0
    6.3515   -0.9450    1.3900 C   0  0  0  0  0  0  0  0  0  0  0  0
    7.1001   -1.8578    0.6558 C   0  0  0  0  0  0  0  0  0  0  0  0
    6.6463   -2.3320   -0.5818 C   0  0  0  0  0  0  0  0  0  0  0  0
    7.3634   -3.4046   -1.2900 C   0  0  0  0  0  0  0  0  0  0  0  0
    7.5428   -3.6089   -2.6513 C   0  0  0  0  0  0  0  0  0  0  0  0
    8.2950   -4.7220   -2.9170 N   0  0  0  0  0  0  0  0  0  0  0  0
    8.5835   -5.2317   -1.7421 C   0  0  0  0  0  0  0  0  0  0  0  0
    9.3474   -6.3868   -1.3948 C   0  0  0  0  0  0  0  0  0  0  0  0
    9.5004   -6.7467   -0.1005 C   0  0  0  0  0  0  0  0  0  0  0  0
   10.2830   -7.9483    0.2022 C   0  0  0  0  0  0  0  0  0  0  0  0
   11.6444   -7.9193    0.4182 C   0  0  0  0  0  0  0  0  0  0  0  0
   12.3845   -9.0124    0.7059 N   0  0  0  0  0  0  0  0  0  0  0  0
   11.7313  -10.2012    0.7859 C   0  0  0  0  0  0  0  0  0  0  0  0
   12.5406  -11.4743    1.0736 C   0  0  0  0  0  0  0  0  0  0  0  0
   13.8831  -11.2580    1.2189 F   0  0  0  0  0  0  0  0  0  0  0  0
   12.1519  -12.1086    2.2211 F   0  0  0  0  0  0  0  0  0  0  0  0
   12.4330  -12.4102    0.0819 F   0  0  0  0  0  0  0  0  0  0  0  0
   10.3895  -10.3205    0.6108 N   0  0  0  0  0  0  0  0  0  0  0  0
    9.7025   -9.1933    0.3258 C   0  0  0  0  0  0  0  0  0  0  0  0
    8.8627   -5.9640    0.9557 C   0  0  0  0  0  0  0  0  0  0  0  0
    8.1275   -4.8875    0.6321 C   0  0  0  0  0  0  0  0  0  0  0  0
    8.0090   -4.4951   -0.7055 N   0  0  0  0  0  0  0  0  0  0  0  0
    5.4861   -1.7488   -1.1274 C   0  0  0  0  0  0  0  0  0  0  0  0
    1.5265    0.4230   -2.0871 H   0  0  0  0  0  0  0  0  0  0  0  0
    0.3330    2.5050   -1.8312 H   0  0  0  0  0  0  0  0  0  0  0  0
    1.1620    2.7873   -0.3019 H   0  0  0  0  0  0  0  0  0  0  0  0
    3.4510   -0.4702   -1.9986 H   0  0  0  0  0  0  0  0  0  0  0  0
    4.6299    0.2881    1.4740 H   0  0  0  0  0  0  0  0  0  0  0  0
    6.6863   -0.6313    2.3757 H   0  0  0  0  0  0  0  0  0  0  0  0
    8.0429   -2.1941    1.0763 H   0  0  0  0  0  0  0  0  0  0  0  0
    7.1768   -2.9913   -3.4621 H   0  0  0  0  0  0  0  0  0  0  0  0
    9.7856   -6.9530   -2.2115 H   0  0  0  0  0  0  0  0  0  0  0  0
   12.2062   -6.9896    0.3679 H   0  0  0  0  0  0  0  0  0  0  0  0
    8.6318   -9.3325    0.1960 H   0  0  0  0  0  0  0  0  0  0  0  0
    8.9815   -6.2701    1.9897 H   0  0  0  0  0  0  0  0  0  0  0  0
    7.6157   -4.3127    1.3893 H   0  0  0  0  0  0  0  0  0  0  0  0
    5.1428   -2.0655   -2.1094 H   0  0  0  0  0  0  0  0  0  0  0  0
  1  2  2  0  0  0  0
  2  3  1  0  0  0  0
  2  9  1  0  0  0  0
  3  4  1  0  0  0  0
  3 35  1  0  0  0  0
  4  5  1  0  0  0  0
  4 36  1  0  0  0  0
  4 37  1  0  0  0  0
  5  6  1  0  0  0  0
  5  7  1  0  0  0  0
  5  8  1  0  0  0  0
  9 10  1  0  0  0  0
  9 38  1  0  0  0  0
 10 11  1  0  0  0  0
 10 34  2  0  0  0  0
 11 12  2  0  0  0  0
 11 39  1  0  0  0  0
 12 13  1  0  0  0  0
 12 40  1  0  0  0  0
 13 14  2  0  0  0  0
 13 41  1  0  0  0  0
 14 15  1  0  0  0  0
 14 34  1  0  0  0  0
 15 16  2  0  0  0  0
 15 33  1  0  0  0  0
 16 17  1  0  0  0  0
 16 42  1  0  0  0  0
 17 18  2  0  0  0  0
 18 19  1  0  0  0  0
 18 33  1  0  0  0  0
 19 20  2  0  0  0  0
 19 43  1  0  0  0  0
 20 21  1  0  0  0  0
 20 31  1  0  0  0  0
 21 22  1  0  0  0  0
 21 30  2  0  0  0  0
 22 23  2  0  0  0  0
 22 44  1  0  0  0  0
 23 24  1  0  0  0  0
 24 25  1  0  0  0  0
 24 29  2  0  0  0  0
 25 26  1  0  0  0  0
 25 27  1  0  0  0  0
 25 28  1  0  0  0  0
 29 30  1  0  0  0  0
 30 45  1  0  0  0  0
 31 32  2  0  0  0  0
 31 46  1  0  0  0  0
 32 33  1  0  0  0  0
 32 47  1  0  0  0  0
 34 48  1  0  0  0  0
M  END
$$$$
