CHEMBL3128222
 OpenBabel04072215363D

 59 63  0  0  0  0  0  0  0  0999 V2000
    2.2815   -6.0027    1.4611 O   0  0  0  0  0  0  0  0  0  0  0  0
    2.9737   -5.0534    0.6139 S   0  0  0  0  0  0  0  0  0  0  0  0
    4.2297   -5.3946   -0.0186 O   0  0  0  0  0  0  0  0  0  0  0  0
    1.8729   -4.5832   -0.5512 N   0  0  0  0  0  0  0  0  0  0  0  0
    2.2206   -3.6635   -1.5651 C   0  0  0  0  0  0  0  0  0  0  0  0
    1.8951   -2.3205   -1.4033 C   0  0  0  0  0  0  0  0  0  0  0  0
    2.2075   -1.4103   -2.4101 C   0  0  0  0  0  0  0  0  0  0  0  0
    2.8433   -1.8431   -3.5773 C   0  0  0  0  0  0  0  0  0  0  0  0
    3.1873   -3.1933   -3.7484 C   0  0  0  0  0  0  0  0  0  0  0  0
    3.9522   -3.6439   -4.9795 C   0  0  0  0  0  0  0  0  0  0  0  0
    3.1525   -4.5788   -5.7553 N   0  0  0  0  0  0  0  0  0  0  0  0
    3.7621   -5.0870   -6.9052 C   0  0  0  0  0  0  0  0  0  0  0  0
    5.1130   -5.1712   -6.9952 N   0  0  0  0  0  0  0  0  0  0  0  0
    5.6649   -5.6908   -8.1092 C   0  0  0  0  0  0  0  0  0  0  0  0
    5.0414   -6.1385   -9.2134 N   0  0  0  0  0  0  0  0  0  0  0  0
    3.7060   -6.0521   -9.0971 C   0  0  0  0  0  0  0  0  0  0  0  0
    3.0167   -5.5507   -7.9985 C   0  0  0  0  0  0  0  0  0  0  0  0
    1.6612   -5.6736   -8.3588 C   0  0  0  0  0  0  0  0  0  0  0  0
    1.4851   -6.1971   -9.5773 N   0  0  0  0  0  0  0  0  0  0  0  0
    2.7487   -6.4365  -10.0059 N   0  0  0  0  0  0  0  0  0  0  0  0
    2.9334   -6.9774  -11.3445 C   0  0  0  0  0  0  0  0  0  0  0  0
    4.1367   -7.9019  -11.5150 C   0  0  0  0  0  0  0  0  0  0  0  0
    4.2517   -8.4801  -12.9055 C   0  0  0  0  0  0  0  0  0  0  0  0
    4.9513   -7.7849  -13.9035 C   0  0  0  0  0  0  0  0  0  0  0  0
    5.1238   -8.3464  -15.1694 C   0  0  0  0  0  0  0  0  0  0  0  0
    4.5899   -9.6014  -15.4541 C   0  0  0  0  0  0  0  0  0  0  0  0
    3.8703  -10.2884  -14.4779 C   0  0  0  0  0  0  0  0  0  0  0  0
    3.6966   -9.7293  -13.2102 C   0  0  0  0  0  0  0  0  0  0  0  0
    2.8549   -4.1047   -2.7305 C   0  0  0  0  0  0  0  0  0  0  0  0
    3.2404   -3.5855    1.5972 C   0  0  0  0  0  0  0  0  0  0  0  0
    2.4201   -3.3426    2.7087 C   0  0  0  0  0  0  0  0  0  0  0  0
    2.7334   -2.2982    3.5836 C   0  0  0  0  0  0  0  0  0  0  0  0
    3.8590   -1.5163    3.3446 C   0  0  0  0  0  0  0  0  0  0  0  0
    4.1814   -0.5446    4.2085 F   0  0  0  0  0  0  0  0  0  0  0  0
    4.6691   -1.7419    2.2353 C   0  0  0  0  0  0  0  0  0  0  0  0
    4.3626   -2.7836    1.3545 C   0  0  0  0  0  0  0  0  0  0  0  0
    0.9009   -4.8396   -0.3980 H   0  0  0  0  0  0  0  0  0  0  0  0
    1.4088   -1.9731   -0.4962 H   0  0  0  0  0  0  0  0  0  0  0  0
    1.9633   -0.3584   -2.2821 H   0  0  0  0  0  0  0  0  0  0  0  0
    3.0819   -1.1120   -4.3473 H   0  0  0  0  0  0  0  0  0  0  0  0
    4.8975   -4.0897   -4.6467 H   0  0  0  0  0  0  0  0  0  0  0  0
    4.1969   -2.7699   -5.5973 H   0  0  0  0  0  0  0  0  0  0  0  0
    2.2037   -4.2670   -5.9188 H   0  0  0  0  0  0  0  0  0  0  0  0
    6.7496   -5.7589   -8.1195 H   0  0  0  0  0  0  0  0  0  0  0  0
    0.7893   -5.3952   -7.7802 H   0  0  0  0  0  0  0  0  0  0  0  0
    2.9877   -6.1188  -12.0219 H   0  0  0  0  0  0  0  0  0  0  0  0
    2.0141   -7.5296  -11.5893 H   0  0  0  0  0  0  0  0  0  0  0  0
    4.0960   -8.7174  -10.7811 H   0  0  0  0  0  0  0  0  0  0  0  0
    5.0695   -7.3650  -11.3123 H   0  0  0  0  0  0  0  0  0  0  0  0
    5.3893   -6.8112  -13.6927 H   0  0  0  0  0  0  0  0  0  0  0  0
    5.6868   -7.8104  -15.9292 H   0  0  0  0  0  0  0  0  0  0  0  0
    4.7395  -10.0459  -16.4339 H   0  0  0  0  0  0  0  0  0  0  0  0
    3.4554  -11.2681  -14.7004 H   0  0  0  0  0  0  0  0  0  0  0  0
    3.1443  -10.2865  -12.4567 H   0  0  0  0  0  0  0  0  0  0  0  0
    3.1015   -5.1588   -2.8507 H   0  0  0  0  0  0  0  0  0  0  0  0
    1.5645   -3.9797    2.9217 H   0  0  0  0  0  0  0  0  0  0  0  0
    2.1281   -2.1094    4.4651 H   0  0  0  0  0  0  0  0  0  0  0  0
    5.5494   -1.1258    2.0806 H   0  0  0  0  0  0  0  0  0  0  0  0
    5.0155   -2.9826    0.5077 H   0  0  0  0  0  0  0  0  0  0  0  0
  1  2  2  0  0  0  0
  2  3  2  0  0  0  0
  2  4  1  0  0  0  0
  2 30  1  0  0  0  0
  4  5  1  0  0  0  0
  4 37  1  0  0  0  0
  5  6  1  0  0  0  0
  5 29  2  0  0  0  0
  6  7  2  0  0  0  0
  6 38  1  0  0  0  0
  7  8  1  0  0  0  0
  7 39  1  0  0  0  0
  8  9  2  0  0  0  0
  8 40  1  0  0  0  0
  9 10  1  0  0  0  0
  9 29  1  0  0  0  0
 10 11  1  0  0  0  0
 10 41  1  0  0  0  0
 10 42  1  0  0  0  0
 11 12  1  0  0  0  0
 11 43  1  0  0  0  0
 12 13  1  0  0  0  0
 12 17  2  0  0  0  0
 13 14  2  0  0  0  0
 14 15  1  0  0  0  0
 14 44  1  0  0  0  0
 15 16  2  0  0  0  0
 16 17  1  0  0  0  0
 16 20  1  0  0  0  0
 17 18  1  0  0  0  0
 18 19  2  0  0  0  0
 18 45  1  0  0  0  0
 19 20  1  0  0  0  0
 20 21  1  0  0  0  0
 21 22  1  0  0  0  0
 21 46  1  0  0  0  0
 21 47  1  0  0  0  0
 22 23  1  0  0  0  0
 22 48  1  0  0  0  0
 22 49  1  0  0  0  0
 23 24  1  0  0  0  0
 23 28  2  0  0  0  0
 24 25  2  0  0  0  0
 24 50  1  0  0  0  0
 25 26  1  0  0  0  0
 25 51  1  0  0  0  0
 26 27  2  0  0  0  0
 26 52  1  0  0  0  0
 27 28  1  0  0  0  0
 27 53  1  0  0  0  0
 28 54  1  0  0  0  0
 29 55  1  0  0  0  0
 30 31  1  0  0  0  0
 30 36  2  0  0  0  0
 31 32  2  0  0  0  0
 31 56  1  0  0  0  0
 32 33  1  0  0  0  0
 32 57  1  0  0  0  0
 33 34  1  0  0  0  0
 33 35  2  0  0  0  0
 35 36  1  0  0  0  0
 35 58  1  0  0  0  0
 36 59  1  0  0  0  0
M  END
$$$$
