CHEMBL4535795
 OpenBabel04072215383D

 37 40  0  0  0  0  0  0  0  0999 V2000
    1.0750    0.1399    0.4101 N   0  0  0  0  0  0  0  0  0  0  0  0
    2.4084   -0.1674    0.4524 C   0  0  0  0  0  0  0  0  0  0  0  0
    2.7464   -1.2527    0.8875 O   0  0  0  0  0  0  0  0  0  0  0  0
    3.2868    0.9013   -0.0176 C   0  0  0  0  0  0  0  0  0  0  0  0
    4.4941    0.8784   -0.8142 C   0  0  0  0  0  0  0  0  0  0  0  0
    5.1103   -0.2928   -1.4601 C   0  0  0  0  0  0  0  0  0  0  0  0
    4.9749   -1.5551   -0.8821 C   0  0  0  0  0  0  0  0  0  0  0  0
    5.1184   -2.7296   -1.6142 C   0  0  0  0  0  0  0  0  0  0  0  0
    5.7059   -2.6280   -2.8738 C   0  0  0  0  0  0  0  0  0  0  0  0
    6.1250   -3.8959   -3.9589 S   0  0  0  0  0  0  0  0  0  0  0  0
    6.8739   -2.7449   -4.9765 C   0  0  0  0  0  0  0  0  0  0  0  0
    6.7455   -1.4823   -4.6335 N   0  0  0  0  0  0  0  0  0  0  0  0
    6.0719   -1.3974   -3.4226 C   0  0  0  0  0  0  0  0  0  0  0  0
    5.7169   -0.2123   -2.7337 C   0  0  0  0  0  0  0  0  0  0  0  0
    4.9362    2.1271   -1.0341 N   0  0  0  0  0  0  0  0  0  0  0  0
    4.0497    2.9347   -0.4082 N   0  0  0  0  0  0  0  0  0  0  0  0
    3.0642    2.2398    0.2468 C   0  0  0  0  0  0  0  0  0  0  0  0
    2.0769    2.8174    0.9957 N   0  0  0  0  0  0  0  0  0  0  0  0
    2.4740    3.8680    1.9229 C   0  0  0  0  0  0  0  0  0  0  0  0
    2.4910    5.2241    1.2373 C   0  0  0  0  0  0  0  0  0  0  0  0
    2.9439    5.2085   -0.2278 C   0  0  0  0  0  0  0  0  0  0  0  0
    4.2050    4.3773   -0.4953 C   0  0  0  0  0  0  0  0  0  0  0  0
    0.4432   -0.6285    0.5948 H   0  0  0  0  0  0  0  0  0  0  0  0
    0.7568    0.9200   -0.1518 H   0  0  0  0  0  0  0  0  0  0  0  0
    4.7056   -1.6515    0.1624 H   0  0  0  0  0  0  0  0  0  0  0  0
    4.8093   -3.6802   -1.1953 H   0  0  0  0  0  0  0  0  0  0  0  0
    7.4132   -3.0574   -5.8607 H   0  0  0  0  0  0  0  0  0  0  0  0
    5.9044    0.7516   -3.1994 H   0  0  0  0  0  0  0  0  0  0  0  0
    1.4487    2.1593    1.4573 H   0  0  0  0  0  0  0  0  0  0  0  0
    3.4535    3.6387    2.3668 H   0  0  0  0  0  0  0  0  0  0  0  0
    1.7617    3.8911    2.7569 H   0  0  0  0  0  0  0  0  0  0  0  0
    3.1287    5.8982    1.8184 H   0  0  0  0  0  0  0  0  0  0  0  0
    1.4793    5.6550    1.2761 H   0  0  0  0  0  0  0  0  0  0  0  0
    3.1237    6.2471   -0.5325 H   0  0  0  0  0  0  0  0  0  0  0  0
    2.1208    4.8463   -0.8577 H   0  0  0  0  0  0  0  0  0  0  0  0
    5.0086    4.6563    0.1965 H   0  0  0  0  0  0  0  0  0  0  0  0
    4.5440    4.5909   -1.5167 H   0  0  0  0  0  0  0  0  0  0  0  0
  1  2  1  0  0  0  0
  1 23  1  0  0  0  0
  1 24  1  0  0  0  0
  2  3  2  0  0  0  0
  2  4  1  0  0  0  0
  4  5  1  0  0  0  0
  4 17  2  0  0  0  0
  5  6  1  0  0  0  0
  5 15  2  0  0  0  0
  6  7  1  0  0  0  0
  6 14  2  0  0  0  0
  7  8  2  0  0  0  0
  7 25  1  0  0  0  0
  8  9  1  0  0  0  0
  8 26  1  0  0  0  0
  9 10  1  0  0  0  0
  9 13  2  0  0  0  0
 10 11  1  0  0  0  0
 11 12  2  0  0  0  0
 11 27  1  0  0  0  0
 12 13  1  0  0  0  0
 13 14  1  0  0  0  0
 14 28  1  0  0  0  0
 15 16  1  0  0  0  0
 16 17  1  0  0  0  0
 16 22  1  0  0  0  0
 17 18  1  0  0  0  0
 18 19  1  0  0  0  0
 18 29  1  0  0  0  0
 19 20  1  0  0  0  0
 19 30  1  0  0  0  0
 19 31  1  0  0  0  0
 20 21  1  0  0  0  0
 20 32  1  0  0  0  0
 20 33  1  0  0  0  0
 21 22  1  0  0  0  0
 21 34  1  0  0  0  0
 21 35  1  0  0  0  0
 22 36  1  0  0  0  0
 22 37  1  0  0  0  0
M  END
$$$$
