CHEMBL302449
 OpenBabel04072215363D

 47 52  0  0  0  0  0  0  0  0999 V2000
    1.4578    0.0303    0.0495 C   0  0  0  0  0  0  0  0  0  0  0  0
    2.9025   -0.0520    0.1073 N   0  0  0  0  0  0  0  0  0  0  0  0
    3.7060    1.0920    0.0496 C   0  0  0  0  0  0  0  0  0  0  0  0
    3.3480    2.4536    0.0612 C   0  0  0  0  0  0  0  0  0  0  0  0
    4.3542    3.4143    0.0008 C   0  0  0  0  0  0  0  0  0  0  0  0
    5.6853    3.0353   -0.0631 C   0  0  0  0  0  0  0  0  0  0  0  0
    6.0426    1.6844   -0.0976 C   0  0  0  0  0  0  0  0  0  0  0  0
    5.0502    0.6866   -0.0596 C   0  0  0  0  0  0  0  0  0  0  0  0
    4.9584   -0.7023   -0.1253 C   0  0  0  0  0  0  0  0  0  0  0  0
    6.0489   -1.6030   -0.2715 C   0  0  0  0  0  0  0  0  0  0  0  0
    5.7572   -2.9822   -0.4696 C   0  0  0  0  0  0  0  0  0  0  0  0
    4.4097   -3.3999   -0.4556 C   0  0  0  0  0  0  0  0  0  0  0  0
    3.9319   -4.6875   -0.6378 C   0  0  0  0  0  0  0  0  0  0  0  0
    4.0478   -5.7857   -1.4984 C   0  0  0  0  0  0  0  0  0  0  0  0
    3.4398   -6.9795   -1.0979 C   0  0  0  0  0  0  0  0  0  0  0  0
    2.9315   -7.1004    0.1962 C   0  0  0  0  0  0  0  0  0  0  0  0
    2.6770   -5.9639    0.9754 C   0  0  0  0  0  0  0  0  0  0  0  0
    2.9634   -4.7396    0.3668 C   0  0  0  0  0  0  0  0  0  0  0  0
    2.4674   -3.4383    0.4428 N   0  0  0  0  0  0  0  0  0  0  0  0
    1.1014   -3.0298    0.6417 C   0  0  0  0  0  0  0  0  0  0  0  0
   -0.1027   -3.9410    0.4204 C   0  0  0  0  0  0  0  0  0  0  0  0
   -1.3307   -3.0920    0.5481 C   0  0  0  0  0  0  0  0  0  0  0  0
   -2.2432   -2.3735    0.6455 N   0  0  0  0  0  0  0  0  0  0  0  0
    3.4702   -2.5687    0.0448 C   0  0  0  0  0  0  0  0  0  0  0  0
    3.6868   -1.1854    0.0302 C   0  0  0  0  0  0  0  0  0  0  0  0
    6.9795   -3.7978   -0.4180 C   0  0  0  0  0  0  0  0  0  0  0  0
    7.9722   -2.7441   -0.3487 N   0  0  0  0  0  0  0  0  0  0  0  0
    7.4816   -1.4522   -0.2071 C   0  0  0  0  0  0  0  0  0  0  0  0
    8.2402   -0.5082   -0.0381 O   0  0  0  0  0  0  0  0  0  0  0  0
    1.1143    1.0625    0.0050 H   0  0  0  0  0  0  0  0  0  0  0  0
    1.0426   -0.4140    0.9534 H   0  0  0  0  0  0  0  0  0  0  0  0
    1.1210   -0.4564   -0.8704 H   0  0  0  0  0  0  0  0  0  0  0  0
    2.3132    2.7761    0.1122 H   0  0  0  0  0  0  0  0  0  0  0  0
    4.0916    4.4684    0.0058 H   0  0  0  0  0  0  0  0  0  0  0  0
    6.4645    3.7933   -0.0969 H   0  0  0  0  0  0  0  0  0  0  0  0
    7.0931    1.4351   -0.1674 H   0  0  0  0  0  0  0  0  0  0  0  0
    4.4719   -5.6743   -2.4915 H   0  0  0  0  0  0  0  0  0  0  0  0
    3.4001   -7.8239   -1.7814 H   0  0  0  0  0  0  0  0  0  0  0  0
    2.6730   -8.0858    0.5774 H   0  0  0  0  0  0  0  0  0  0  0  0
    2.2807   -6.0400    1.9821 H   0  0  0  0  0  0  0  0  0  0  0  0
    0.9679   -2.2988   -0.1529 H   0  0  0  0  0  0  0  0  0  0  0  0
    1.0551   -2.5347    1.6153 H   0  0  0  0  0  0  0  0  0  0  0  0
   -0.1358   -4.7563    1.1458 H   0  0  0  0  0  0  0  0  0  0  0  0
   -0.0798   -4.3759   -0.5856 H   0  0  0  0  0  0  0  0  0  0  0  0
    7.1499   -4.4195   -1.2938 H   0  0  0  0  0  0  0  0  0  0  0  0
    7.0386   -4.3708    0.5138 H   0  0  0  0  0  0  0  0  0  0  0  0
    8.9651   -2.8982   -0.2520 H   0  0  0  0  0  0  0  0  0  0  0  0
  1  2  1  0  0  0  0
  1 30  1  0  0  0  0
  1 31  1  0  0  0  0
  1 32  1  0  0  0  0
  2  3  1  0  0  0  0
  2 25  1  0  0  0  0
  3  4  1  0  0  0  0
  3  8  2  0  0  0  0
  4  5  2  0  0  0  0
  4 33  1  0  0  0  0
  5  6  1  0  0  0  0
  5 34  1  0  0  0  0
  6  7  2  0  0  0  0
  6 35  1  0  0  0  0
  7  8  1  0  0  0  0
  7 36  1  0  0  0  0
  8  9  1  0  0  0  0
  9 10  1  0  0  0  0
  9 25  2  0  0  0  0
 10 11  2  0  0  0  0
 10 28  1  0  0  0  0
 11 12  1  0  0  0  0
 11 26  1  0  0  0  0
 12 13  1  0  0  0  0
 12 24  2  0  0  0  0
 13 14  1  0  0  0  0
 13 18  2  0  0  0  0
 14 15  2  0  0  0  0
 14 37  1  0  0  0  0
 15 16  1  0  0  0  0
 15 38  1  0  0  0  0
 16 17  2  0  0  0  0
 16 39  1  0  0  0  0
 17 18  1  0  0  0  0
 17 40  1  0  0  0  0
 18 19  1  0  0  0  0
 19 20  1  0  0  0  0
 19 24  1  0  0  0  0
 20 21  1  0  0  0  0
 20 41  1  0  0  0  0
 20 42  1  0  0  0  0
 21 22  1  0  0  0  0
 21 43  1  0  0  0  0
 21 44  1  0  0  0  0
 22 23  3  0  0  0  0
 24 25  1  0  0  0  0
 26 27  1  0  0  0  0
 26 45  1  0  0  0  0
 26 46  1  0  0  0  0
 27 28  1  0  0  0  0
 27 47  1  0  0  0  0
 28 29  2  0  0  0  0
M  END
$$$$
