CHEMBL3741621
 OpenBabel04072215373D

 61 65  0  0  0  0  0  0  0  0999 V2000
    2.6726   -0.9155    8.2866 C   0  0  0  0  0  0  0  0  0  0  0  0
    2.0440   -0.8718    6.9678 N   0  0  0  0  0  0  0  0  0  0  0  0
    2.3473   -2.1581    5.9162 S   0  0  0  0  0  0  0  0  0  0  0  0
    2.1623   -3.3962    6.6376 O   0  0  0  0  0  0  0  0  0  0  0  0
    1.6415   -1.8718    4.6870 O   0  0  0  0  0  0  0  0  0  0  0  0
    4.0788   -1.9429    5.6088 C   0  0  0  0  0  0  0  0  0  0  0  0
    4.4675   -0.8247    4.8495 C   0  0  0  0  0  0  0  0  0  0  0  0
    5.8234   -0.5922    4.6727 C   0  0  0  0  0  0  0  0  0  0  0  0
    6.7658   -1.4574    5.2302 C   0  0  0  0  0  0  0  0  0  0  0  0
    6.3922   -2.6035    5.9484 C   0  0  0  0  0  0  0  0  0  0  0  0
    7.3208   -3.4888    6.5167 N   0  0  0  0  0  0  0  0  0  0  0  0
    8.6980   -3.6264    6.3272 C   0  0  0  0  0  0  0  0  0  0  0  0
    9.2068   -4.8203    6.6655 N   0  0  0  0  0  0  0  0  0  0  0  0
   10.5112   -5.0261    6.4055 C   0  0  0  0  0  0  0  0  0  0  0  0
   11.3296   -4.0855    5.8340 C   0  0  0  0  0  0  0  0  0  0  0  0
   10.7417   -2.8668    5.5875 C   0  0  0  0  0  0  0  0  0  0  0  0
   11.3990   -1.7902    5.0233 O   0  0  0  0  0  0  0  0  0  0  0  0
   12.7576   -1.7045    5.1931 C   0  0  0  0  0  0  0  0  0  0  0  0
   13.5399   -1.5076    4.0577 C   0  0  0  0  0  0  0  0  0  0  0  0
   14.9304   -1.5967    4.1653 C   0  0  0  0  0  0  0  0  0  0  0  0
   15.5356   -1.7761    5.4255 C   0  0  0  0  0  0  0  0  0  0  0  0
   16.9202   -1.8334    5.6386 C   0  0  0  0  0  0  0  0  0  0  0  0
   17.3632   -3.0611    6.5367 C   0  0  0  0  0  0  0  0  0  0  0  0
   16.6211   -4.0268    6.6833 O   0  0  0  0  0  0  0  0  0  0  0  0
   18.6163   -2.9131    7.1458 N   0  0  0  0  0  0  0  0  0  0  0  0
   19.2295   -3.7024    8.1566 C   0  0  0  0  0  0  0  0  0  0  0  0
   18.6402   -4.7943    8.7937 C   0  0  0  0  0  0  0  0  0  0  0  0
   19.3401   -5.5191    9.7732 C   0  0  0  0  0  0  0  0  0  0  0  0
   20.6393   -5.1589   10.1343 C   0  0  0  0  0  0  0  0  0  0  0  0
   21.2309   -4.0574    9.5260 C   0  0  0  0  0  0  0  0  0  0  0  0
   20.5283   -3.3338    8.5530 C   0  0  0  0  0  0  0  0  0  0  0  0
   17.3484   -0.6539    6.2148 C   0  0  0  0  0  0  0  0  0  0  0  0
   16.6214   -0.2102    7.3153 C   0  0  0  0  0  0  0  0  0  0  0  0
   15.3582   -0.7762    7.5749 C   0  0  0  0  0  0  0  0  0  0  0  0
   14.7360   -1.4891    6.5378 C   0  0  0  0  0  0  0  0  0  0  0  0
   13.3473   -1.6509    6.4562 C   0  0  0  0  0  0  0  0  0  0  0  0
    9.4377   -2.6361    5.8133 N   0  0  0  0  0  0  0  0  0  0  0  0
    5.0217   -2.8289    6.1477 C   0  0  0  0  0  0  0  0  0  0  0  0
    2.3478   -0.0418    8.8584 H   0  0  0  0  0  0  0  0  0  0  0  0
    3.7619   -0.8737    8.2114 H   0  0  0  0  0  0  0  0  0  0  0  0
    2.3674   -1.8114    8.8325 H   0  0  0  0  0  0  0  0  0  0  0  0
    2.0823    0.0227    6.4811 H   0  0  0  0  0  0  0  0  0  0  0  0
    3.7213   -0.1637    4.4089 H   0  0  0  0  0  0  0  0  0  0  0  0
    6.1527    0.2755    4.1080 H   0  0  0  0  0  0  0  0  0  0  0  0
    7.8106   -1.2046    5.0779 H   0  0  0  0  0  0  0  0  0  0  0  0
    6.9595   -4.3727    6.8487 H   0  0  0  0  0  0  0  0  0  0  0  0
   10.8885   -6.0095    6.6722 H   0  0  0  0  0  0  0  0  0  0  0  0
   12.3632   -4.3078    5.6082 H   0  0  0  0  0  0  0  0  0  0  0  0
   13.0721   -1.2883    3.1008 H   0  0  0  0  0  0  0  0  0  0  0  0
   15.5419   -1.4484    3.2774 H   0  0  0  0  0  0  0  0  0  0  0  0
   19.1608   -2.1122    6.8622 H   0  0  0  0  0  0  0  0  0  0  0  0
   17.6280   -5.1050    8.5562 H   0  0  0  0  0  0  0  0  0  0  0  0
   18.8714   -6.3731   10.2595 H   0  0  0  0  0  0  0  0  0  0  0  0
   21.1825   -5.7290   10.8861 H   0  0  0  0  0  0  0  0  0  0  0  0
   22.2404   -3.7564    9.8020 H   0  0  0  0  0  0  0  0  0  0  0  0
   21.0224   -2.4772    8.1045 H   0  0  0  0  0  0  0  0  0  0  0  0
   18.2311   -0.1470    5.8463 H   0  0  0  0  0  0  0  0  0  0  0  0
   16.9878    0.6086    7.9222 H   0  0  0  0  0  0  0  0  0  0  0  0
   14.7890   -0.4504    8.4413 H   0  0  0  0  0  0  0  0  0  0  0  0
   12.7265   -1.5976    7.3452 H   0  0  0  0  0  0  0  0  0  0  0  0
    4.6856   -3.6932    6.7189 H   0  0  0  0  0  0  0  0  0  0  0  0
  1  2  1  0  0  0  0
  1 39  1  0  0  0  0
  1 40  1  0  0  0  0
  1 41  1  0  0  0  0
  2  3  1  0  0  0  0
  2 42  1  0  0  0  0
  3  4  2  0  0  0  0
  3  5  2  0  0  0  0
  3  6  1  0  0  0  0
  6  7  1  0  0  0  0
  6 38  2  0  0  0  0
  7  8  2  0  0  0  0
  7 43  1  0  0  0  0
  8  9  1  0  0  0  0
  8 44  1  0  0  0  0
  9 10  2  0  0  0  0
  9 45  1  0  0  0  0
 10 11  1  0  0  0  0
 10 38  1  0  0  0  0
 11 12  1  0  0  0  0
 11 46  1  0  0  0  0
 12 13  1  0  0  0  0
 12 37  2  0  0  0  0
 13 14  2  0  0  0  0
 14 15  1  0  0  0  0
 14 47  1  0  0  0  0
 15 16  2  0  0  0  0
 15 48  1  0  0  0  0
 16 17  1  0  0  0  0
 16 37  1  0  0  0  0
 17 18  1  0  0  0  0
 18 19  1  0  0  0  0
 18 36  2  0  0  0  0
 19 20  2  0  0  0  0
 19 49  1  0  0  0  0
 20 21  1  0  0  0  0
 20 50  1  0  0  0  0
 21 22  1  0  0  0  0
 21 35  2  0  0  0  0
 22 23  1  0  0  0  0
 22 32  2  0  0  0  0
 23 24  2  0  0  0  0
 23 25  1  0  0  0  0
 25 26  1  0  0  0  0
 25 51  1  0  0  0  0
 26 27  1  0  0  0  0
 26 31  2  0  0  0  0
 27 28  2  0  0  0  0
 27 52  1  0  0  0  0
 28 29  1  0  0  0  0
 28 53  1  0  0  0  0
 29 30  2  0  0  0  0
 29 54  1  0  0  0  0
 30 31  1  0  0  0  0
 30 55  1  0  0  0  0
 31 56  1  0  0  0  0
 32 33  1  0  0  0  0
 32 57  1  0  0  0  0
 33 34  2  0  0  0  0
 33 58  1  0  0  0  0
 34 35  1  0  0  0  0
 34 59  1  0  0  0  0
 35 36  1  0  0  0  0
 36 60  1  0  0  0  0
 38 61  1  0  0  0  0
M  END
$$$$
