CHEMBL271170
 OpenBabel04072215363D

 45 48  0  0  0  0  0  0  0  0999 V2000
    2.8649    0.9173   -2.3292 C   0  0  0  0  0  0  0  0  0  0  0  0
    1.4617    0.6049   -1.8922 C   0  0  0  0  0  0  0  0  0  0  0  0
    0.9794   -0.7005   -1.9907 C   0  0  0  0  0  0  0  0  0  0  0  0
   -0.3034   -1.0004   -1.5497 C   0  0  0  0  0  0  0  0  0  0  0  0
   -1.1183    0.0026   -1.0301 C   0  0  0  0  0  0  0  0  0  0  0  0
   -2.2799   -0.4058   -0.5058 F   0  0  0  0  0  0  0  0  0  0  0  0
   -0.6968    1.3411   -0.9825 C   0  0  0  0  0  0  0  0  0  0  0  0
   -1.5008    2.4365   -0.5556 N   0  0  0  0  0  0  0  0  0  0  0  0
   -2.8820    2.4257   -0.4545 C   0  0  0  0  0  0  0  0  0  0  0  0
   -3.6142    1.4860   -0.7337 O   0  0  0  0  0  0  0  0  0  0  0  0
   -3.3901    3.6675   -0.0677 N   0  0  0  0  0  0  0  0  0  0  0  0
   -4.7853    3.8219    0.1338 C   0  0  0  0  0  0  0  0  0  0  0  0
   -5.5206    2.8999    0.8813 C   0  0  0  0  0  0  0  0  0  0  0  0
   -6.9182    2.9904    0.9534 C   0  0  0  0  0  0  0  0  0  0  0  0
   -7.6217    4.0087    0.2888 C   0  0  0  0  0  0  0  0  0  0  0  0
   -9.1025    4.0669    0.3020 C   0  0  0  0  0  0  0  0  0  0  0  0
   -9.8473    3.7425    1.4673 C   0  0  0  0  0  0  0  0  0  0  0  0
  -11.2401    3.8635    1.5341 C   0  0  0  0  0  0  0  0  0  0  0  0
  -11.9657    4.3431    0.4485 C   0  0  0  0  0  0  0  0  0  0  0  0
  -11.2346    4.6201   -0.7020 C   0  0  0  0  0  0  0  0  0  0  0  0
  -11.7683    5.0749   -1.8640 O   0  0  0  0  0  0  0  0  0  0  0  0
  -10.7796    5.1707   -2.8193 N   0  0  0  0  0  0  0  0  0  0  0  0
   -9.6582    4.7593   -2.2242 C   0  0  0  0  0  0  0  0  0  0  0  0
   -8.4978    4.6063   -2.8929 N   0  0  0  0  0  0  0  0  0  0  0  0
   -9.8606    4.4649   -0.8378 C   0  0  0  0  0  0  0  0  0  0  0  0
   -6.8449    4.9829   -0.3679 C   0  0  0  0  0  0  0  0  0  0  0  0
   -5.4475    4.8915   -0.4568 C   0  0  0  0  0  0  0  0  0  0  0  0
    0.6198    1.6221   -1.3924 C   0  0  0  0  0  0  0  0  0  0  0  0
    3.3820    0.0123   -2.6750 H   0  0  0  0  0  0  0  0  0  0  0  0
    3.4411    1.3216   -1.4915 H   0  0  0  0  0  0  0  0  0  0  0  0
    2.8626    1.6335   -3.1557 H   0  0  0  0  0  0  0  0  0  0  0  0
    1.6027   -1.4994   -2.3866 H   0  0  0  0  0  0  0  0  0  0  0  0
   -0.6809   -2.0179   -1.5867 H   0  0  0  0  0  0  0  0  0  0  0  0
   -1.0407    3.3264   -0.4346 H   0  0  0  0  0  0  0  0  0  0  0  0
   -2.9173    4.4548   -0.4861 H   0  0  0  0  0  0  0  0  0  0  0  0
   -5.0178    2.0820    1.3936 H   0  0  0  0  0  0  0  0  0  0  0  0
   -7.4455    2.2242    1.5182 H   0  0  0  0  0  0  0  0  0  0  0  0
   -9.3292    3.3995    2.3624 H   0  0  0  0  0  0  0  0  0  0  0  0
  -11.7619    3.5965    2.4511 H   0  0  0  0  0  0  0  0  0  0  0  0
  -13.0410    4.4733    0.4813 H   0  0  0  0  0  0  0  0  0  0  0  0
   -8.5623    4.6287   -3.9064 H   0  0  0  0  0  0  0  0  0  0  0  0
   -7.8364    3.9071   -2.5649 H   0  0  0  0  0  0  0  0  0  0  0  0
   -7.3287    5.8226   -0.8652 H   0  0  0  0  0  0  0  0  0  0  0  0
   -4.9130    5.6240   -1.0541 H   0  0  0  0  0  0  0  0  0  0  0  0
    1.0026    2.6393   -1.3461 H   0  0  0  0  0  0  0  0  0  0  0  0
  1  2  1  0  0  0  0
  1 29  1  0  0  0  0
  1 30  1  0  0  0  0
  1 31  1  0  0  0  0
  2  3  1  0  0  0  0
  2 28  2  0  0  0  0
  3  4  2  0  0  0  0
  3 32  1  0  0  0  0
  4  5  1  0  0  0  0
  4 33  1  0  0  0  0
  5  6  1  0  0  0  0
  5  7  2  0  0  0  0
  7  8  1  0  0  0  0
  7 28  1  0  0  0  0
  8  9  1  0  0  0  0
  8 34  1  0  0  0  0
  9 10  2  0  0  0  0
  9 11  1  0  0  0  0
 11 12  1  0  0  0  0
 11 35  1  0  0  0  0
 12 13  1  0  0  0  0
 12 27  2  0  0  0  0
 13 14  2  0  0  0  0
 13 36  1  0  0  0  0
 14 15  1  0  0  0  0
 14 37  1  0  0  0  0
 15 16  1  0  0  0  0
 15 26  2  0  0  0  0
 16 17  1  0  0  0  0
 16 25  2  0  0  0  0
 17 18  2  0  0  0  0
 17 38  1  0  0  0  0
 18 19  1  0  0  0  0
 18 39  1  0  0  0  0
 19 20  2  0  0  0  0
 19 40  1  0  0  0  0
 20 21  1  0  0  0  0
 20 25  1  0  0  0  0
 21 22  1  0  0  0  0
 22 23  2  0  0  0  0
 23 24  1  0  0  0  0
 23 25  1  0  0  0  0
 24 41  1  0  0  0  0
 24 42  1  0  0  0  0
 26 27  1  0  0  0  0
 26 43  1  0  0  0  0
 27 44  1  0  0  0  0
 28 45  1  0  0  0  0
M  END
$$$$
