CHEMBL410504
 OpenBabel04072215383D

 42 45  0  0  0  0  0  0  0  0999 V2000
    1.2253    2.0671    3.2101 N   0  0  0  0  0  0  0  0  0  0  0  0
    1.4846    0.9675    2.4813 C   0  0  0  0  0  0  0  0  0  0  0  0
    1.8706   -0.1749    3.0595 N   0  0  0  0  0  0  0  0  0  0  0  0
    2.0538   -1.0752    2.0382 O   0  0  0  0  0  0  0  0  0  0  0  0
    1.7641   -0.4863    0.8523 C   0  0  0  0  0  0  0  0  0  0  0  0
    1.8434   -1.1292   -0.3797 C   0  0  0  0  0  0  0  0  0  0  0  0
    1.4905   -0.3747   -1.4924 C   0  0  0  0  0  0  0  0  0  0  0  0
    1.0815    0.9539   -1.3536 C   0  0  0  0  0  0  0  0  0  0  0  0
    1.0109    1.6074   -0.0927 C   0  0  0  0  0  0  0  0  0  0  0  0
    0.5555    3.0062    0.0032 C   0  0  0  0  0  0  0  0  0  0  0  0
   -0.3482    3.4043    0.9896 C   0  0  0  0  0  0  0  0  0  0  0  0
   -0.7182    4.7403    1.1522 C   0  0  0  0  0  0  0  0  0  0  0  0
   -0.2723    5.7263    0.2723 C   0  0  0  0  0  0  0  0  0  0  0  0
   -0.6517    7.0848    0.3943 N   0  0  0  0  0  0  0  0  0  0  0  0
   -1.2655    7.6390    1.5046 C   0  0  0  0  0  0  0  0  0  0  0  0
   -1.4009    7.0741    2.5844 O   0  0  0  0  0  0  0  0  0  0  0  0
   -1.7560    8.9108    1.2476 N   0  0  0  0  0  0  0  0  0  0  0  0
   -2.4880    9.5973    2.2515 C   0  0  0  0  0  0  0  0  0  0  0  0
   -2.0565    9.6431    3.5855 C   0  0  0  0  0  0  0  0  0  0  0  0
   -2.8592   10.2337    4.5615 C   0  0  0  0  0  0  0  0  0  0  0  0
   -4.0937   10.7849    4.2152 C   0  0  0  0  0  0  0  0  0  0  0  0
   -4.5128   10.7724    2.8834 C   0  0  0  0  0  0  0  0  0  0  0  0
   -3.6956   10.2005    1.9118 C   0  0  0  0  0  0  0  0  0  0  0  0
   -4.1268   10.1597    0.6387 F   0  0  0  0  0  0  0  0  0  0  0  0
    0.5545    5.3383   -0.7836 C   0  0  0  0  0  0  0  0  0  0  0  0
    0.9728    3.9998   -0.9049 C   0  0  0  0  0  0  0  0  0  0  0  0
    1.3775    0.8335    1.0536 C   0  0  0  0  0  0  0  0  0  0  0  0
    1.4333    2.0349    4.2020 H   0  0  0  0  0  0  0  0  0  0  0  0
    1.2729    2.9970    2.8112 H   0  0  0  0  0  0  0  0  0  0  0  0
    2.1570   -2.1633   -0.4567 H   0  0  0  0  0  0  0  0  0  0  0  0
    1.5250   -0.8283   -2.4807 H   0  0  0  0  0  0  0  0  0  0  0  0
    0.7901    1.4928   -2.2532 H   0  0  0  0  0  0  0  0  0  0  0  0
   -0.7739    2.6763    1.6780 H   0  0  0  0  0  0  0  0  0  0  0  0
   -1.3765    4.9637    1.9855 H   0  0  0  0  0  0  0  0  0  0  0  0
   -0.3082    7.7281   -0.3003 H   0  0  0  0  0  0  0  0  0  0  0  0
   -2.1073    9.0382    0.3060 H   0  0  0  0  0  0  0  0  0  0  0  0
   -1.1104    9.1918    3.8758 H   0  0  0  0  0  0  0  0  0  0  0  0
   -2.5291   10.2374    5.5990 H   0  0  0  0  0  0  0  0  0  0  0  0
   -4.7309   11.2115    4.9860 H   0  0  0  0  0  0  0  0  0  0  0  0
   -5.4803   11.1779    2.6072 H   0  0  0  0  0  0  0  0  0  0  0  0
    0.8979    6.0635   -1.5185 H   0  0  0  0  0  0  0  0  0  0  0  0
    1.6396    3.7445   -1.7283 H   0  0  0  0  0  0  0  0  0  0  0  0
  1  2  1  0  0  0  0
  1 28  1  0  0  0  0
  1 29  1  0  0  0  0
  2  3  2  0  0  0  0
  2 27  1  0  0  0  0
  3  4  1  0  0  0  0
  4  5  1  0  0  0  0
  5  6  1  0  0  0  0
  5 27  2  0  0  0  0
  6  7  2  0  0  0  0
  6 30  1  0  0  0  0
  7  8  1  0  0  0  0
  7 31  1  0  0  0  0
  8  9  2  0  0  0  0
  8 32  1  0  0  0  0
  9 10  1  0  0  0  0
  9 27  1  0  0  0  0
 10 11  1  0  0  0  0
 10 26  2  0  0  0  0
 11 12  2  0  0  0  0
 11 33  1  0  0  0  0
 12 13  1  0  0  0  0
 12 34  1  0  0  0  0
 13 14  1  0  0  0  0
 13 25  2  0  0  0  0
 14 15  1  0  0  0  0
 14 35  1  0  0  0  0
 15 16  2  0  0  0  0
 15 17  1  0  0  0  0
 17 18  1  0  0  0  0
 17 36  1  0  0  0  0
 18 19  1  0  0  0  0
 18 23  2  0  0  0  0
 19 20  2  0  0  0  0
 19 37  1  0  0  0  0
 20 21  1  0  0  0  0
 20 38  1  0  0  0  0
 21 22  2  0  0  0  0
 21 39  1  0  0  0  0
 22 23  1  0  0  0  0
 22 40  1  0  0  0  0
 23 24  1  0  0  0  0
 25 26  1  0  0  0  0
 25 41  1  0  0  0  0
 26 42  1  0  0  0  0
M  END
$$$$
