CHEMBL2408610
 OpenBabel04072215363D

 51 56  0  0  1  0  0  0  0  0999 V2000
   17.7308    2.4348   -2.6837 N   0  0  0  0  0  0  0  0  0  0  0  0
   16.6161    1.8732   -2.0870 C   0  0  0  0  0  0  0  0  0  0  0  0
   15.8174    1.0909   -2.8486 N   0  0  0  0  0  0  0  0  0  0  0  0
   14.6953    0.5539   -2.3063 C   0  0  0  0  0  0  0  0  0  0  0  0
   14.2736    0.7271   -0.9891 C   0  0  0  0  0  0  0  0  0  0  0  0
   13.0284    0.2092   -0.4758 C   0  0  0  0  0  0  0  0  0  0  0  0
   12.6400   -0.2253    0.8113 C   0  0  0  0  0  0  0  0  0  0  0  0
   11.3426   -0.5288    0.8846 N   0  0  0  0  0  0  0  0  0  0  0  0
   10.8928   -0.3013   -0.3634 N   0  0  0  0  0  0  0  0  0  0  0  0
    9.4749   -0.4559   -0.6765 C   0  0  1  0  0  0  0  0  0  0  0  0
    9.0086   -1.8996   -0.4381 C   0  0  0  0  0  0  0  0  0  0  0  0
    7.5097   -2.0623   -0.6655 C   0  0  0  0  0  0  0  0  0  0  0  0
    6.7110   -1.0631    0.1696 C   0  0  2  0  0  0  0  0  0  0  0  0
    5.3216   -1.2263   -0.0817 O   0  0  0  0  0  0  0  0  0  0  0  0
    7.1312    0.3700   -0.1481 C   0  0  0  0  0  0  0  0  0  0  0  0
    8.6239    0.5715    0.0888 C   0  0  0  0  0  0  0  0  0  0  0  0
   11.8737    0.1117   -1.2192 C   0  0  0  0  0  0  0  0  0  0  0  0
   15.1114    1.5053   -0.1762 C   0  0  0  0  0  0  0  0  0  0  0  0
   15.1112    1.9491    1.1740 C   0  0  0  0  0  0  0  0  0  0  0  0
   16.2666    2.6729    1.3667 C   0  0  0  0  0  0  0  0  0  0  0  0
   16.8389    3.2903    2.5485 C   0  0  0  0  0  0  0  0  0  0  0  0
   16.0143    3.7707    3.5865 C   0  0  0  0  0  0  0  0  0  0  0  0
   16.5519    4.2463    4.7784 C   0  0  0  0  0  0  0  0  0  0  0  0
   17.9340    4.2511    4.9716 C   0  0  0  0  0  0  0  0  0  0  0  0
   18.7911    3.7906    3.9498 C   0  0  0  0  0  0  0  0  0  0  0  0
   20.1786    3.7356    4.0205 N   0  0  0  0  0  0  0  0  0  0  0  0
   20.7107    3.2392    2.9200 N   0  0  0  0  0  0  0  0  0  0  0  0
   19.5722    2.8205    1.7801 S   0  0  0  0  0  0  0  0  0  0  0  0
   18.2319    3.3212    2.7529 C   0  0  0  0  0  0  0  0  0  0  0  0
   16.9523    2.7676    0.1911 O   0  0  0  0  0  0  0  0  0  0  0  0
   16.2580    2.0523   -0.7460 C   0  0  0  0  0  0  0  0  0  0  0  0
   17.9739    1.9619   -3.5458 H   0  0  0  0  0  0  0  0  0  0  0  0
   18.4811    2.6857   -2.0549 H   0  0  0  0  0  0  0  0  0  0  0  0
   14.1141   -0.0444   -3.0043 H   0  0  0  0  0  0  0  0  0  0  0  0
   13.2371   -0.3186    1.7103 H   0  0  0  0  0  0  0  0  0  0  0  0
    9.3766   -0.2420   -1.7499 H   0  0  0  0  0  0  0  0  0  0  0  0
    9.2446   -2.2108    0.5875 H   0  0  0  0  0  0  0  0  0  0  0  0
    9.5568   -2.5808   -1.1008 H   0  0  0  0  0  0  0  0  0  0  0  0
    7.2013   -3.0842   -0.4202 H   0  0  0  0  0  0  0  0  0  0  0  0
    7.2759   -1.9274   -1.7304 H   0  0  0  0  0  0  0  0  0  0  0  0
    6.8732   -1.2659    1.2347 H   0  0  0  0  0  0  0  0  0  0  0  0
    5.1351   -0.9398   -0.9917 H   0  0  0  0  0  0  0  0  0  0  0  0
    6.5533    1.0718    0.4649 H   0  0  0  0  0  0  0  0  0  0  0  0
    6.8817    0.6103   -1.1899 H   0  0  0  0  0  0  0  0  0  0  0  0
    8.8213    0.5014    1.1663 H   0  0  0  0  0  0  0  0  0  0  0  0
    8.9074    1.5885   -0.2105 H   0  0  0  0  0  0  0  0  0  0  0  0
   11.6562    0.3381   -2.2550 H   0  0  0  0  0  0  0  0  0  0  0  0
   14.3797    1.7333    1.9391 H   0  0  0  0  0  0  0  0  0  0  0  0
   14.9314    3.7632    3.4717 H   0  0  0  0  0  0  0  0  0  0  0  0
   15.8944    4.5985    5.5706 H   0  0  0  0  0  0  0  0  0  0  0  0
   18.3593    4.5991    5.9084 H   0  0  0  0  0  0  0  0  0  0  0  0
  1  2  1  0  0  0  0
  1 32  1  0  0  0  0
  1 33  1  0  0  0  0
  2  3  1  0  0  0  0
  2 31  2  0  0  0  0
  3  4  2  0  0  0  0
  4  5  1  0  0  0  0
  4 34  1  0  0  0  0
  5  6  1  0  0  0  0
  5 18  2  0  0  0  0
  6  7  1  0  0  0  0
  6 17  2  0  0  0  0
  7  8  2  0  0  0  0
  7 35  1  0  0  0  0
  8  9  1  0  0  0  0
  9 17  1  0  0  0  0
 10 11  1  0  0  0  0
 10 16  1  0  0  0  0
 10  9  1  0  0  0  0
 10 36  1  6  0  0  0
 11 12  1  0  0  0  0
 11 37  1  0  0  0  0
 11 38  1  0  0  0  0
 12 13  1  0  0  0  0
 12 39  1  0  0  0  0
 12 40  1  0  0  0  0
 13 14  1  0  0  0  0
 13 15  1  0  0  0  0
 13 41  1  1  0  0  0
 14 42  1  0  0  0  0
 15 16  1  0  0  0  0
 15 43  1  0  0  0  0
 15 44  1  0  0  0  0
 16 45  1  0  0  0  0
 16 46  1  0  0  0  0
 17 47  1  0  0  0  0
 18 19  1  0  0  0  0
 18 31  1  0  0  0  0
 19 20  2  0  0  0  0
 19 48  1  0  0  0  0
 20 21  1  0  0  0  0
 20 30  1  0  0  0  0
 21 22  1  0  0  0  0
 21 29  2  0  0  0  0
 22 23  2  0  0  0  0
 22 49  1  0  0  0  0
 23 24  1  0  0  0  0
 23 50  1  0  0  0  0
 24 25  2  0  0  0  0
 24 51  1  0  0  0  0
 25 26  1  0  0  0  0
 25 29  1  0  0  0  0
 26 27  2  0  0  0  0
 27 28  1  0  0  0  0
 28 29  1  0  0  0  0
 30 31  1  0  0  0  0
M  END
$$$$
