CHEMBL4082186
 OpenBabel04072215383D

 35 38  0  0  0  0  0  0  0  0999 V2000
    2.5630    1.0166   -1.2318 C   0  0  0  0  0  0  0  0  0  0  0  0
    2.2340   -0.1243   -0.4487 O   0  0  0  0  0  0  0  0  0  0  0  0
    3.0480   -1.2145   -0.5857 C   0  0  0  0  0  0  0  0  0  0  0  0
    4.1539   -1.3096   -1.4281 C   0  0  0  0  0  0  0  0  0  0  0  0
    4.8970   -2.4950   -1.4840 C   0  0  0  0  0  0  0  0  0  0  0  0
    4.5411   -3.6051   -0.7090 C   0  0  0  0  0  0  0  0  0  0  0  0
    5.2783   -4.8558   -0.7877 C   0  0  0  0  0  0  0  0  0  0  0  0
    5.5046   -5.8337    0.2047 C   0  0  0  0  0  0  0  0  0  0  0  0
    6.1872   -6.8884   -0.2388 N   0  0  0  0  0  0  0  0  0  0  0  0
    6.4120   -6.6122   -1.5450 N   0  0  0  0  0  0  0  0  0  0  0  0
    7.0690   -7.4186   -2.4642 C   0  0  0  0  0  0  0  0  0  0  0  0
    7.2298   -7.0382   -3.7431 C   0  0  0  0  0  0  0  0  0  0  0  0
    7.8929   -7.8097   -4.7521 C   0  0  0  0  0  0  0  0  0  0  0  0
    8.9552   -8.7395   -4.5061 C   0  0  0  0  0  0  0  0  0  0  0  0
    9.3894   -9.3622   -5.6555 C   0  0  0  0  0  0  0  0  0  0  0  0
    8.5329   -8.8309   -7.0345 S   0  0  0  0  0  0  0  0  0  0  0  0
    7.5718   -7.7682   -6.0947 C   0  0  0  0  0  0  0  0  0  0  0  0
    6.6438   -5.6841   -4.0356 C   0  0  0  0  0  0  0  0  0  0  0  0
    6.0185   -4.9049   -3.2045 N   0  0  0  0  0  0  0  0  0  0  0  0
    5.8883   -5.3707   -1.9203 C   0  0  0  0  0  0  0  0  0  0  0  0
    3.4404   -3.4947    0.1498 C   0  0  0  0  0  0  0  0  0  0  0  0
    2.7003   -2.3096    0.2058 C   0  0  0  0  0  0  0  0  0  0  0  0
    1.8494    1.8088   -0.9862 H   0  0  0  0  0  0  0  0  0  0  0  0
    2.4679    0.8006   -2.3009 H   0  0  0  0  0  0  0  0  0  0  0  0
    3.5653    1.3857   -0.9902 H   0  0  0  0  0  0  0  0  0  0  0  0
    4.4662   -0.4878   -2.0632 H   0  0  0  0  0  0  0  0  0  0  0  0
    5.7561   -2.5375   -2.1499 H   0  0  0  0  0  0  0  0  0  0  0  0
    5.1963   -5.8175    1.2426 H   0  0  0  0  0  0  0  0  0  0  0  0
    7.4160   -8.3648   -2.0705 H   0  0  0  0  0  0  0  0  0  0  0  0
    9.3898   -8.9480   -3.5352 H   0  0  0  0  0  0  0  0  0  0  0  0
   10.1693  -10.1060   -5.7512 H   0  0  0  0  0  0  0  0  0  0  0  0
    6.8100   -7.1836   -6.5928 H   0  0  0  0  0  0  0  0  0  0  0  0
    6.7747   -5.3184   -5.0677 H   0  0  0  0  0  0  0  0  0  0  0  0
    3.1264   -4.3313    0.7687 H   0  0  0  0  0  0  0  0  0  0  0  0
    1.8381   -2.2452    0.8656 H   0  0  0  0  0  0  0  0  0  0  0  0
  1  2  1  0  0  0  0
  1 23  1  0  0  0  0
  1 24  1  0  0  0  0
  1 25  1  0  0  0  0
  2  3  1  0  0  0  0
  3  4  1  0  0  0  0
  3 22  2  0  0  0  0
  4  5  2  0  0  0  0
  4 26  1  0  0  0  0
  5  6  1  0  0  0  0
  5 27  1  0  0  0  0
  6  7  1  0  0  0  0
  6 21  2  0  0  0  0
  7  8  1  0  0  0  0
  7 20  2  0  0  0  0
  8  9  2  0  0  0  0
  8 28  1  0  0  0  0
  9 10  1  0  0  0  0
 10 11  1  0  0  0  0
 10 20  1  0  0  0  0
 11 12  2  0  0  0  0
 11 29  1  0  0  0  0
 12 13  1  0  0  0  0
 12 18  1  0  0  0  0
 13 14  1  0  0  0  0
 13 17  2  0  0  0  0
 14 15  2  0  0  0  0
 14 30  1  0  0  0  0
 15 16  1  0  0  0  0
 15 31  1  0  0  0  0
 16 17  1  0  0  0  0
 17 32  1  0  0  0  0
 18 19  2  0  0  0  0
 18 33  1  0  0  0  0
 19 20  1  0  0  0  0
 21 22  1  0  0  0  0
 21 34  1  0  0  0  0
 22 35  1  0  0  0  0
M  END
$$$$
