CHEMBL3979299
 OpenBabel04072215373D

 58 62  0  0  1  0  0  0  0  0999 V2000
  -11.1499  -14.6913   -9.0582 C   0  0  0  0  0  0  0  0  0  0  0  0
  -11.7406  -13.4315   -8.4953 C   0  0  0  0  0  0  0  0  0  0  0  0
  -12.9018  -13.5267   -7.7186 C   0  0  0  0  0  0  0  0  0  0  0  0
  -13.4942  -12.3825   -7.2139 C   0  0  0  0  0  0  0  0  0  0  0  0
  -12.9228  -11.1376   -7.4653 C   0  0  0  0  0  0  0  0  0  0  0  0
  -11.7199  -11.0020   -8.1853 C   0  0  0  0  0  0  0  0  0  0  0  0
  -11.0939   -9.7236   -8.3660 N   0  0  0  0  0  0  0  0  0  0  0  0
  -11.2912   -8.7005   -7.4528 C   0  0  0  0  0  0  0  0  0  0  0  0
  -11.8626   -8.8877   -6.3830 O   0  0  0  0  0  0  0  0  0  0  0  0
  -10.8427   -7.4432   -7.8618 N   0  0  0  0  0  0  0  0  0  0  0  0
  -11.0848   -6.2456   -7.1137 C   0  0  0  0  0  0  0  0  0  0  0  0
  -11.5469   -6.2626   -5.8049 C   0  0  0  0  0  0  0  0  0  0  0  0
  -11.9265   -5.1061   -5.1358 C   0  0  0  0  0  0  0  0  0  0  0  0
  -11.8148   -3.8380   -5.7128 C   0  0  0  0  0  0  0  0  0  0  0  0
  -12.2990   -2.6130   -4.9159 C   0  0  3  0  0  0  0  0  0  0  0  0
  -13.3511   -2.9451   -3.8162 C   0  0  0  0  0  0  0  0  0  0  0  0
  -12.6774   -3.4368   -2.5855 N   0  0  0  0  0  0  0  0  0  0  0  0
  -11.7649   -2.6199   -2.1797 C   0  0  0  0  0  0  0  0  0  0  0  0
  -10.8724   -2.8588   -1.0647 C   0  0  0  0  0  0  0  0  0  0  0  0
  -10.0597   -3.9852   -1.0647 C   0  0  0  0  0  0  0  0  0  0  0  0
   -9.0356   -4.0616   -0.1293 C   0  0  0  0  0  0  0  0  0  0  0  0
   -8.9132   -3.0693    0.8517 C   0  0  0  0  0  0  0  0  0  0  0  0
   -9.6784   -1.8988    0.7787 C   0  0  0  0  0  0  0  0  0  0  0  0
  -10.5396   -1.7511   -0.3003 C   0  0  0  0  0  0  0  0  0  0  0  0
  -10.7858   -0.4777   -0.8663 N   0  0  0  0  0  0  0  0  0  0  0  0
  -10.8737   -0.3880   -2.2590 C   0  0  0  0  0  0  0  0  0  0  0  0
  -10.4528    0.6045   -2.8480 O   0  0  0  0  0  0  0  0  0  0  0  0
  -11.4169   -1.4979   -2.8897 N   0  0  0  0  0  0  0  0  0  0  0  0
  -11.1168   -1.8670   -4.2601 C   0  0  0  0  0  0  0  0  0  0  0  0
  -11.2299   -3.7750   -6.9982 C   0  0  0  0  0  0  0  0  0  0  0  0
  -10.9296   -2.4675   -7.6919 C   0  0  0  0  0  0  0  0  0  0  0  0
  -10.8789   -4.9820   -7.6901 C   0  0  0  0  0  0  0  0  0  0  0  0
  -11.1504  -12.1659   -8.7249 C   0  0  0  0  0  0  0  0  0  0  0  0
  -11.7623  -15.5644   -8.8074 H   0  0  0  0  0  0  0  0  0  0  0  0
  -10.1490  -14.8613   -8.6671 H   0  0  0  0  0  0  0  0  0  0  0  0
  -11.1161  -14.6335  -10.1580 H   0  0  0  0  0  0  0  0  0  0  0  0
  -13.3581  -14.4902   -7.5068 H   0  0  0  0  0  0  0  0  0  0  0  0
  -14.3938  -12.4447   -6.6077 H   0  0  0  0  0  0  0  0  0  0  0  0
  -13.4434  -10.2702   -7.0695 H   0  0  0  0  0  0  0  0  0  0  0  0
  -10.2509   -9.6907   -8.9162 H   0  0  0  0  0  0  0  0  0  0  0  0
  -10.5357   -7.3391   -8.8172 H   0  0  0  0  0  0  0  0  0  0  0  0
  -11.6676   -7.1801   -5.2345 H   0  0  0  0  0  0  0  0  0  0  0  0
  -12.3388   -5.2541   -4.1367 H   0  0  0  0  0  0  0  0  0  0  0  0
  -12.8099   -1.9388   -5.6152 H   0  0  0  0  0  0  0  0  0  0  0  0
  -13.9490   -2.0547   -3.5715 H   0  0  0  0  0  0  0  0  0  0  0  0
  -14.0724   -3.6984   -4.1555 H   0  0  0  0  0  0  0  0  0  0  0  0
  -10.1459   -4.7148   -1.8667 H   0  0  0  0  0  0  0  0  0  0  0  0
   -8.3162   -4.8749   -0.1852 H   0  0  0  0  0  0  0  0  0  0  0  0
   -8.1501   -3.1718    1.6193 H   0  0  0  0  0  0  0  0  0  0  0  0
   -9.4898   -1.0886    1.4753 H   0  0  0  0  0  0  0  0  0  0  0  0
  -10.3580    0.3280   -0.4272 H   0  0  0  0  0  0  0  0  0  0  0  0
  -10.2704   -2.5707   -4.1745 H   0  0  0  0  0  0  0  0  0  0  0  0
  -10.7391   -1.0271   -4.8455 H   0  0  0  0  0  0  0  0  0  0  0  0
  -11.1881   -1.5950   -7.0880 H   0  0  0  0  0  0  0  0  0  0  0  0
  -11.4953   -2.3980   -8.6374 H   0  0  0  0  0  0  0  0  0  0  0  0
   -9.8582   -2.4030   -7.8974 H   0  0  0  0  0  0  0  0  0  0  0  0
  -10.4692   -4.9034   -8.6894 H   0  0  0  0  0  0  0  0  0  0  0  0
  -10.2338  -12.1111   -9.3084 H   0  0  0  0  0  0  0  0  0  0  0  0
  1  2  1  0  0  0  0
  1 34  1  0  0  0  0
  1 35  1  0  0  0  0
  1 36  1  0  0  0  0
  2  3  1  0  0  0  0
  2 33  2  0  0  0  0
  3  4  2  0  0  0  0
  3 37  1  0  0  0  0
  4  5  1  0  0  0  0
  4 38  1  0  0  0  0
  5  6  2  0  0  0  0
  5 39  1  0  0  0  0
  6  7  1  0  0  0  0
  6 33  1  0  0  0  0
  7  8  1  0  0  0  0
  7 40  1  0  0  0  0
  8  9  2  0  0  0  0
  8 10  1  0  0  0  0
 10 11  1  0  0  0  0
 10 41  1  0  0  0  0
 11 12  1  0  0  0  0
 11 32  2  0  0  0  0
 12 13  2  0  0  0  0
 12 42  1  0  0  0  0
 13 14  1  0  0  0  0
 13 43  1  0  0  0  0
 14 15  1  0  0  0  0
 14 30  2  0  0  0  0
 15 16  1  0  0  0  0
 15 29  1  0  0  0  0
 15 44  1  0  0  0  0
 16 17  1  0  0  0  0
 16 45  1  0  0  0  0
 16 46  1  0  0  0  0
 17 18  2  0  0  0  0
 18 19  1  0  0  0  0
 18 28  1  0  0  0  0
 19 20  1  0  0  0  0
 19 24  2  0  0  0  0
 20 21  2  0  0  0  0
 20 47  1  0  0  0  0
 21 22  1  0  0  0  0
 21 48  1  0  0  0  0
 22 23  2  0  0  0  0
 22 49  1  0  0  0  0
 23 24  1  0  0  0  0
 23 50  1  0  0  0  0
 24 25  1  0  0  0  0
 25 26  1  0  0  0  0
 25 51  1  0  0  0  0
 26 27  2  0  0  0  0
 26 28  1  0  0  0  0
 28 29  1  0  0  0  0
 29 52  1  0  0  0  0
 29 53  1  0  0  0  0
 30 31  1  0  0  0  0
 30 32  1  0  0  0  0
 31 54  1  0  0  0  0
 31 55  1  0  0  0  0
 31 56  1  0  0  0  0
 32 57  1  0  0  0  0
 33 58  1  0  0  0  0
M  END
$$$$
