CHEMBL1242753
 OpenBabel04072215363D

 43 45  0  0  0  0  0  0  0  0999 V2000
    0.8522   -0.5587   -0.6959 C   0  0  0  0  0  0  0  0  0  0  0  0
    2.3585   -0.6637   -0.8474 C   0  0  0  0  0  0  0  0  0  0  0  0
    2.8941    0.6594   -0.9075 O   0  0  0  0  0  0  0  0  0  0  0  0
    4.2137    0.7977   -1.2540 C   0  0  0  0  0  0  0  0  0  0  0  0
    5.1029   -0.2894   -1.2755 C   0  0  0  0  0  0  0  0  0  0  0  0
    6.4386   -0.1430   -1.6813 C   0  0  0  0  0  0  0  0  0  0  0  0
    7.3513   -1.2872   -1.6049 C   0  0  0  0  0  0  0  0  0  0  0  0
    6.8812   -2.5286   -1.8276 N   0  0  0  0  0  0  0  0  0  0  0  0
    7.9558   -3.3306   -1.6580 N   0  0  0  0  0  0  0  0  0  0  0  0
    7.8602   -4.7652   -1.8649 C   0  0  0  0  0  0  0  0  0  0  0  0
    6.4473   -5.2813   -2.1329 C   0  0  0  0  0  0  0  0  0  0  0  0
    5.9087   -4.7398   -3.3374 O   0  0  0  0  0  0  0  0  0  0  0  0
    9.0947   -2.6486   -1.3353 C   0  0  0  0  0  0  0  0  0  0  0  0
   10.3122   -3.1785   -1.1191 N   0  0  0  0  0  0  0  0  0  0  0  0
   11.2108   -2.2278   -0.8222 C   0  0  0  0  0  0  0  0  0  0  0  0
   11.0077   -0.9034   -0.7045 N   0  0  0  0  0  0  0  0  0  0  0  0
    9.7659   -0.4167   -0.9148 C   0  0  0  0  0  0  0  0  0  0  0  0
    9.6190    0.9516   -0.7364 N   0  0  0  0  0  0  0  0  0  0  0  0
    8.7439   -1.3098   -1.2715 C   0  0  0  0  0  0  0  0  0  0  0  0
    6.8635    1.1028   -2.1316 C   0  0  0  0  0  0  0  0  0  0  0  0
    6.0150    2.2058   -2.0408 C   0  0  0  0  0  0  0  0  0  0  0  0
    4.6967    2.0744   -1.5867 C   0  0  0  0  0  0  0  0  0  0  0  0
    4.0519    3.2803   -1.5415 O   0  0  0  0  0  0  0  0  0  0  0  0
    2.7087    3.3244   -1.0896 C   0  0  0  0  0  0  0  0  0  0  0  0
    0.4012   -1.5511   -0.6055 H   0  0  0  0  0  0  0  0  0  0  0  0
    0.4134   -0.0491   -1.5598 H   0  0  0  0  0  0  0  0  0  0  0  0
    0.5935    0.0308    0.1890 H   0  0  0  0  0  0  0  0  0  0  0  0
    2.5819   -1.2191   -1.7672 H   0  0  0  0  0  0  0  0  0  0  0  0
    2.7672   -1.1893    0.0217 H   0  0  0  0  0  0  0  0  0  0  0  0
    4.7795   -1.2779   -0.9608 H   0  0  0  0  0  0  0  0  0  0  0  0
    8.2603   -5.2444   -0.9645 H   0  0  0  0  0  0  0  0  0  0  0  0
    8.5116   -4.9920   -2.7162 H   0  0  0  0  0  0  0  0  0  0  0  0
    5.7629   -5.0457   -1.3110 H   0  0  0  0  0  0  0  0  0  0  0  0
    6.4692   -6.3695   -2.2487 H   0  0  0  0  0  0  0  0  0  0  0  0
    5.8692   -3.7695   -3.1896 H   0  0  0  0  0  0  0  0  0  0  0  0
   12.2283   -2.5651   -0.6504 H   0  0  0  0  0  0  0  0  0  0  0  0
   10.4397    1.3426   -0.2894 H   0  0  0  0  0  0  0  0  0  0  0  0
    8.7333    1.2370   -0.3358 H   0  0  0  0  0  0  0  0  0  0  0  0
    7.8605    1.2477   -2.5395 H   0  0  0  0  0  0  0  0  0  0  0  0
    6.3874    3.1871   -2.3285 H   0  0  0  0  0  0  0  0  0  0  0  0
    2.4187    4.3780   -1.0267 H   0  0  0  0  0  0  0  0  0  0  0  0
    2.5999    2.9050   -0.0846 H   0  0  0  0  0  0  0  0  0  0  0  0
    2.0435    2.8442   -1.8134 H   0  0  0  0  0  0  0  0  0  0  0  0
  1  2  1  0  0  0  0
  1 25  1  0  0  0  0
  1 26  1  0  0  0  0
  1 27  1  0  0  0  0
  2  3  1  0  0  0  0
  2 28  1  0  0  0  0
  2 29  1  0  0  0  0
  3  4  1  0  0  0  0
  4  5  1  0  0  0  0
  4 22  2  0  0  0  0
  5  6  2  0  0  0  0
  5 30  1  0  0  0  0
  6  7  1  0  0  0  0
  6 20  1  0  0  0  0
  7  8  2  0  0  0  0
  7 19  1  0  0  0  0
  8  9  1  0  0  0  0
  9 10  1  0  0  0  0
  9 13  1  0  0  0  0
 10 11  1  0  0  0  0
 10 31  1  0  0  0  0
 10 32  1  0  0  0  0
 11 12  1  0  0  0  0
 11 33  1  0  0  0  0
 11 34  1  0  0  0  0
 12 35  1  0  0  0  0
 13 14  1  0  0  0  0
 13 19  2  0  0  0  0
 14 15  2  0  0  0  0
 15 16  1  0  0  0  0
 15 36  1  0  0  0  0
 16 17  2  0  0  0  0
 17 18  1  0  0  0  0
 17 19  1  0  0  0  0
 18 37  1  0  0  0  0
 18 38  1  0  0  0  0
 20 21  2  0  0  0  0
 20 39  1  0  0  0  0
 21 22  1  0  0  0  0
 21 40  1  0  0  0  0
 22 23  1  0  0  0  0
 23 24  1  0  0  0  0
 24 41  1  0  0  0  0
 24 42  1  0  0  0  0
 24 43  1  0  0  0  0
M  END
$$$$
