CHEMBL443338
 OpenBabel04072215383D

 32 35  0  0  0  0  0  0  0  0999 V2000
   -2.3944    1.1702    0.0631 O   0  0  0  0  0  0  0  0  0  0  0  0
   -1.5830    0.2693   -0.0167 C   0  0  0  0  0  0  0  0  0  0  0  0
   -1.8954   -1.0712   -0.0480 N   0  0  0  0  0  0  0  0  0  0  0  0
   -0.7374   -1.9202   -0.0210 C   0  0  0  0  0  0  0  0  0  0  0  0
    0.3828   -0.9354   -0.0194 C   0  0  0  0  0  0  0  0  0  0  0  0
    1.7427   -1.1919   -0.0001 C   0  0  0  0  0  0  0  0  0  0  0  0
    2.6117   -0.1035   -0.0092 C   0  0  0  0  0  0  0  0  0  0  0  0
    2.1146    1.2134   -0.0423 C   0  0  0  0  0  0  0  0  0  0  0  0
    0.7334    1.4909   -0.0542 C   0  0  0  0  0  0  0  0  0  0  0  0
    0.2886    2.8900   -0.0709 C   0  0  0  0  0  0  0  0  0  0  0  0
    0.9022    4.0267   -0.5779 C   0  0  0  0  0  0  0  0  0  0  0  0
    0.0923    5.1579   -0.2803 C   0  0  0  0  0  0  0  0  0  0  0  0
    0.2070    6.5404   -0.5249 C   0  0  0  0  0  0  0  0  0  0  0  0
   -0.8042    7.3859   -0.0600 C   0  0  0  0  0  0  0  0  0  0  0  0
   -0.7387    8.7353   -0.2602 O   0  0  0  0  0  0  0  0  0  0  0  0
   -1.9114    6.8921    0.6213 C   0  0  0  0  0  0  0  0  0  0  0  0
   -2.0475    5.5245    0.8597 C   0  0  0  0  0  0  0  0  0  0  0  0
   -1.0261    4.6857    0.3989 C   0  0  0  0  0  0  0  0  0  0  0  0
   -0.9003    3.3200    0.4780 N   0  0  0  0  0  0  0  0  0  0  0  0
   -0.1098    0.3807   -0.0341 C   0  0  0  0  0  0  0  0  0  0  0  0
   -2.8567   -1.3831   -0.0093 H   0  0  0  0  0  0  0  0  0  0  0  0
   -0.7383   -2.5513   -0.9131 H   0  0  0  0  0  0  0  0  0  0  0  0
   -0.7610   -2.5200    0.8922 H   0  0  0  0  0  0  0  0  0  0  0  0
    2.1276   -2.2066    0.0264 H   0  0  0  0  0  0  0  0  0  0  0  0
    3.6873   -0.2677    0.0134 H   0  0  0  0  0  0  0  0  0  0  0  0
    2.8349    2.0301   -0.0378 H   0  0  0  0  0  0  0  0  0  0  0  0
    1.8453    4.0492   -1.1075 H   0  0  0  0  0  0  0  0  0  0  0  0
    1.0671    6.9237   -1.0606 H   0  0  0  0  0  0  0  0  0  0  0  0
    0.0847    8.9320   -0.7347 H   0  0  0  0  0  0  0  0  0  0  0  0
   -2.6799    7.5780    0.9678 H   0  0  0  0  0  0  0  0  0  0  0  0
   -2.9110    5.1289    1.3860 H   0  0  0  0  0  0  0  0  0  0  0  0
   -1.6151    2.7050    0.8509 H   0  0  0  0  0  0  0  0  0  0  0  0
  1  2  2  0  0  0  0
  2  3  1  0  0  0  0
  2 20  1  0  0  0  0
  3  4  1  0  0  0  0
  3 21  1  0  0  0  0
  4  5  1  0  0  0  0
  4 22  1  0  0  0  0
  4 23  1  0  0  0  0
  5  6  1  0  0  0  0
  5 20  2  0  0  0  0
  6  7  2  0  0  0  0
  6 24  1  0  0  0  0
  7  8  1  0  0  0  0
  7 25  1  0  0  0  0
  8  9  2  0  0  0  0
  8 26  1  0  0  0  0
  9 10  1  0  0  0  0
  9 20  1  0  0  0  0
 10 11  2  0  0  0  0
 10 19  1  0  0  0  0
 11 12  1  0  0  0  0
 11 27  1  0  0  0  0
 12 13  1  0  0  0  0
 12 18  2  0  0  0  0
 13 14  2  0  0  0  0
 13 28  1  0  0  0  0
 14 15  1  0  0  0  0
 14 16  1  0  0  0  0
 15 29  1  0  0  0  0
 16 17  2  0  0  0  0
 16 30  1  0  0  0  0
 17 18  1  0  0  0  0
 17 31  1  0  0  0  0
 18 19  1  0  0  0  0
 19 32  1  0  0  0  0
M  END
$$$$
