CHEMBL4778145
 OpenBabel04072215383D

 36 38  0  0  0  0  0  0  0  0999 V2000
    2.9783    1.4538   -2.9322 N   0  0  0  0  0  0  0  0  0  0  0  0
    2.4109    0.4795   -2.1852 C   0  0  0  0  0  0  0  0  0  0  0  0
    0.8109    0.0732   -2.3452 S   0  0  0  0  0  0  0  0  0  0  0  0
    3.2413   -0.1580   -1.3099 N   0  0  0  0  0  0  0  0  0  0  0  0
    4.5991    0.0369   -1.3317 N   0  0  0  0  0  0  0  0  0  0  0  0
    5.2899   -0.7936   -0.6147 C   0  0  0  0  0  0  0  0  0  0  0  0
    4.7831   -1.9448    0.2543 C   0  0  0  0  0  0  0  0  0  0  0  0
    3.6086   -2.2111    0.4120 O   0  0  0  0  0  0  0  0  0  0  0  0
    5.9124   -2.5495    0.7707 N   0  0  0  0  0  0  0  0  0  0  0  0
    5.8524   -3.5803    1.7797 C   0  0  0  0  0  0  0  0  0  0  0  0
    5.7871   -2.9968    3.1734 C   0  0  0  0  0  0  0  0  0  0  0  0
    4.5573   -2.5902    3.7179 C   0  0  0  0  0  0  0  0  0  0  0  0
    4.4986   -2.0079    4.9858 C   0  0  0  0  0  0  0  0  0  0  0  0
    5.6657   -1.8214    5.7232 C   0  0  0  0  0  0  0  0  0  0  0  0
    6.8910   -2.2212    5.1948 C   0  0  0  0  0  0  0  0  0  0  0  0
    6.9524   -2.8049    3.9283 C   0  0  0  0  0  0  0  0  0  0  0  0
    7.0734   -1.9060    0.3082 C   0  0  0  0  0  0  0  0  0  0  0  0
    8.3989   -2.2157    0.5504 C   0  0  0  0  0  0  0  0  0  0  0  0
    9.3800   -1.4058   -0.0400 C   0  0  0  0  0  0  0  0  0  0  0  0
    9.0232   -0.3106   -0.8499 C   0  0  0  0  0  0  0  0  0  0  0  0
   10.2600    0.6658   -1.5416 Cl  0  0  0  0  0  0  0  0  0  0  0  0
    7.6872   -0.0088   -1.1055 C   0  0  0  0  0  0  0  0  0  0  0  0
    6.7435   -0.8280   -0.5153 C   0  0  0  0  0  0  0  0  0  0  0  0
    2.4529    1.9423   -3.6416 H   0  0  0  0  0  0  0  0  0  0  0  0
    3.9637    1.6336   -2.7926 H   0  0  0  0  0  0  0  0  0  0  0  0
    2.8433   -0.9148   -0.7455 H   0  0  0  0  0  0  0  0  0  0  0  0
    6.7044   -4.2614    1.6762 H   0  0  0  0  0  0  0  0  0  0  0  0
    4.9527   -4.1853    1.6081 H   0  0  0  0  0  0  0  0  0  0  0  0
    3.6345   -2.7160    3.1535 H   0  0  0  0  0  0  0  0  0  0  0  0
    3.5411   -1.6940    5.3948 H   0  0  0  0  0  0  0  0  0  0  0  0
    5.6207   -1.3616    6.7071 H   0  0  0  0  0  0  0  0  0  0  0  0
    7.8021   -2.0730    5.7690 H   0  0  0  0  0  0  0  0  0  0  0  0
    7.9198   -3.1041    3.5357 H   0  0  0  0  0  0  0  0  0  0  0  0
    8.6943   -3.0633    1.1577 H   0  0  0  0  0  0  0  0  0  0  0  0
   10.4316   -1.6312    0.1286 H   0  0  0  0  0  0  0  0  0  0  0  0
    7.3964    0.8246   -1.7334 H   0  0  0  0  0  0  0  0  0  0  0  0
  1  2  1  0  0  0  0
  1 24  1  0  0  0  0
  1 25  1  0  0  0  0
  2  3  2  0  0  0  0
  2  4  1  0  0  0  0
  4  5  1  0  0  0  0
  4 26  1  0  0  0  0
  5  6  2  0  0  0  0
  6  7  1  0  0  0  0
  6 23  1  0  0  0  0
  7  8  2  0  0  0  0
  7  9  1  0  0  0  0
  9 10  1  0  0  0  0
  9 17  1  0  0  0  0
 10 11  1  0  0  0  0
 10 27  1  0  0  0  0
 10 28  1  0  0  0  0
 11 12  1  0  0  0  0
 11 16  2  0  0  0  0
 12 13  2  0  0  0  0
 12 29  1  0  0  0  0
 13 14  1  0  0  0  0
 13 30  1  0  0  0  0
 14 15  2  0  0  0  0
 14 31  1  0  0  0  0
 15 16  1  0  0  0  0
 15 32  1  0  0  0  0
 16 33  1  0  0  0  0
 17 18  1  0  0  0  0
 17 23  2  0  0  0  0
 18 19  2  0  0  0  0
 18 34  1  0  0  0  0
 19 20  1  0  0  0  0
 19 35  1  0  0  0  0
 20 21  1  0  0  0  0
 20 22  2  0  0  0  0
 22 23  1  0  0  0  0
 22 36  1  0  0  0  0
M  END
$$$$
