CHEMBL201865
 OpenBabel04072215363D

 54 58  0  0  0  0  0  0  0  0999 V2000
    1.4725    0.8542    2.1151 C   0  0  0  0  0  0  0  0  0  0  0  0
    2.8573    0.5129    2.1037 O   0  0  0  0  0  0  0  0  0  0  0  0
    3.2150   -0.3400    1.1105 C   0  0  0  0  0  0  0  0  0  0  0  0
    2.4881   -0.8943    0.3051 O   0  0  0  0  0  0  0  0  0  0  0  0
    4.6826   -0.4174    1.0883 C   0  0  0  0  0  0  0  0  0  0  0  0
    5.4110    0.7639    0.7626 C   0  0  0  0  0  0  0  0  0  0  0  0
    4.6113    1.8581    0.4575 O   0  0  0  0  0  0  0  0  0  0  0  0
    5.1079    2.7570   -0.5312 C   0  0  0  0  0  0  0  0  0  0  0  0
    4.0089    3.4213   -1.3739 C   0  0  0  0  0  0  0  0  0  0  0  0
    4.5971    4.4274   -2.2900 N   0  0  0  0  0  0  0  0  0  0  0  0
    5.5108    3.8242   -3.2651 C   0  0  0  0  0  0  0  0  0  0  0  0
    3.5574    5.1834   -2.9836 C   0  0  0  0  0  0  0  0  0  0  0  0
    6.8413    0.7637    0.7724 C   0  0  0  0  0  0  0  0  0  0  0  0
    7.6931    1.8957    0.6569 C   0  0  0  0  0  0  0  0  0  0  0  0
    9.0859    1.8009    0.5695 C   0  0  0  0  0  0  0  0  0  0  0  0
    9.6998    0.5615    0.6315 C   0  0  0  0  0  0  0  0  0  0  0  0
    8.9209   -0.5728    0.8414 C   0  0  0  0  0  0  0  0  0  0  0  0
    7.5115   -0.4679    0.9389 C   0  0  0  0  0  0  0  0  0  0  0  0
    6.7473   -1.6090    1.2582 C   0  0  0  0  0  0  0  0  0  0  0  0
    7.2670   -2.8343    1.5738 O   0  0  0  0  0  0  0  0  0  0  0  0
    6.2269   -3.6370    1.9111 C   0  0  0  0  0  0  0  0  0  0  0  0
    5.0301   -2.9772    1.7441 C   0  0  0  0  0  0  0  0  0  0  0  0
    5.3490   -1.6347    1.3517 C   0  0  0  0  0  0  0  0  0  0  0  0
    3.7964   -3.6737    2.0292 C   0  0  0  0  0  0  0  0  0  0  0  0
    2.6921   -3.1655    1.9074 O   0  0  0  0  0  0  0  0  0  0  0  0
    3.9114   -5.0779    2.5238 C   0  0  0  0  0  0  0  0  0  0  0  0
    2.7317   -5.7782    2.8136 C   0  0  0  0  0  0  0  0  0  0  0  0
    2.7906   -7.0734    3.3285 C   0  0  0  0  0  0  0  0  0  0  0  0
    4.0254   -7.6768    3.5590 C   0  0  0  0  0  0  0  0  0  0  0  0
    5.2089   -6.9938    3.2635 C   0  0  0  0  0  0  0  0  0  0  0  0
    5.1574   -5.6957    2.7349 C   0  0  0  0  0  0  0  0  0  0  0  0
    6.4290   -4.9738    2.4033 C   0  0  0  0  0  0  0  0  0  0  0  0
    7.5085   -5.5206    2.5736 O   0  0  0  0  0  0  0  0  0  0  0  0
    1.3447    1.7310    2.7578 H   0  0  0  0  0  0  0  0  0  0  0  0
    0.8954    0.0259    2.5319 H   0  0  0  0  0  0  0  0  0  0  0  0
    1.1127    1.1175    1.1144 H   0  0  0  0  0  0  0  0  0  0  0  0
    5.7893    2.2272   -1.2017 H   0  0  0  0  0  0  0  0  0  0  0  0
    5.6118    3.5731   -0.0081 H   0  0  0  0  0  0  0  0  0  0  0  0
    3.3059    3.9123   -0.6861 H   0  0  0  0  0  0  0  0  0  0  0  0
    3.4277    2.6640   -1.9150 H   0  0  0  0  0  0  0  0  0  0  0  0
    6.4083    3.4293   -2.7774 H   0  0  0  0  0  0  0  0  0  0  0  0
    5.8801    4.5751   -3.9720 H   0  0  0  0  0  0  0  0  0  0  0  0
    5.0346    3.0162   -3.8306 H   0  0  0  0  0  0  0  0  0  0  0  0
    2.9210    5.7139   -2.2678 H   0  0  0  0  0  0  0  0  0  0  0  0
    2.9283    4.5436   -3.6113 H   0  0  0  0  0  0  0  0  0  0  0  0
    4.0112    5.9522   -3.6211 H   0  0  0  0  0  0  0  0  0  0  0  0
    7.2937    2.9016    0.6653 H   0  0  0  0  0  0  0  0  0  0  0  0
    9.6791    2.7061    0.4593 H   0  0  0  0  0  0  0  0  0  0  0  0
   10.7809    0.4843    0.5485 H   0  0  0  0  0  0  0  0  0  0  0  0
    9.4148   -1.5404    0.9273 H   0  0  0  0  0  0  0  0  0  0  0  0
    1.7590   -5.3148    2.6430 H   0  0  0  0  0  0  0  0  0  0  0  0
    1.8694   -7.6085    3.5503 H   0  0  0  0  0  0  0  0  0  0  0  0
    4.0655   -8.6853    3.9680 H   0  0  0  0  0  0  0  0  0  0  0  0
    6.1659   -7.4786    3.4530 H   0  0  0  0  0  0  0  0  0  0  0  0
  1  2  1  0  0  0  0
  1 34  1  0  0  0  0
  1 35  1  0  0  0  0
  1 36  1  0  0  0  0
  2  3  1  0  0  0  0
  3  4  2  0  0  0  0
  3  5  1  0  0  0  0
  5  6  1  0  0  0  0
  5 23  2  0  0  0  0
  6  7  1  0  0  0  0
  6 13  2  0  0  0  0
  7  8  1  0  0  0  0
  8  9  1  0  0  0  0
  8 37  1  0  0  0  0
  8 38  1  0  0  0  0
  9 10  1  0  0  0  0
  9 39  1  0  0  0  0
  9 40  1  0  0  0  0
 10 11  1  0  0  0  0
 10 12  1  0  0  0  0
 11 41  1  0  0  0  0
 11 42  1  0  0  0  0
 11 43  1  0  0  0  0
 12 44  1  0  0  0  0
 12 45  1  0  0  0  0
 12 46  1  0  0  0  0
 13 14  1  0  0  0  0
 13 18  1  0  0  0  0
 14 15  2  0  0  0  0
 14 47  1  0  0  0  0
 15 16  1  0  0  0  0
 15 48  1  0  0  0  0
 16 17  2  0  0  0  0
 16 49  1  0  0  0  0
 17 18  1  0  0  0  0
 17 50  1  0  0  0  0
 18 19  2  0  0  0  0
 19 20  1  0  0  0  0
 19 23  1  0  0  0  0
 20 21  1  0  0  0  0
 21 22  2  0  0  0  0
 21 32  1  0  0  0  0
 22 23  1  0  0  0  0
 22 24  1  0  0  0  0
 24 25  2  0  0  0  0
 24 26  1  0  0  0  0
 26 27  1  0  0  0  0
 26 31  2  0  0  0  0
 27 28  2  0  0  0  0
 27 51  1  0  0  0  0
 28 29  1  0  0  0  0
 28 52  1  0  0  0  0
 29 30  2  0  0  0  0
 29 53  1  0  0  0  0
 30 31  1  0  0  0  0
 30 54  1  0  0  0  0
 31 32  1  0  0  0  0
 32 33  2  0  0  0  0
M  END
$$$$
