CHEMBL203063
 OpenBabel04072215363D

 42 45  0  0  0  0  0  0  0  0999 V2000
    1.7714    0.0505    0.8669 O   0  0  0  0  0  0  0  0  0  0  0  0
    2.0190    0.1864   -0.3231 C   0  0  0  0  0  0  0  0  0  0  0  0
    1.5498    1.2229   -1.1250 N   0  0  0  0  0  0  0  0  0  0  0  0
    0.6824    2.2775   -0.7577 C   0  0  0  0  0  0  0  0  0  0  0  0
    0.1672    2.4538    0.5273 C   0  0  0  0  0  0  0  0  0  0  0  0
   -0.6104    3.5766    0.8355 C   0  0  0  0  0  0  0  0  0  0  0  0
   -0.8957    4.5174   -0.1493 C   0  0  0  0  0  0  0  0  0  0  0  0
   -1.8793    6.0702    0.2888 Br  0  0  0  0  0  0  0  0  0  0  0  0
   -0.4412    4.3275   -1.4504 C   0  0  0  0  0  0  0  0  0  0  0  0
    0.3457    3.2101   -1.7518 C   0  0  0  0  0  0  0  0  0  0  0  0
    2.9027   -0.8250   -1.0127 C   0  0  0  0  0  0  0  0  0  0  0  0
    2.7025   -1.0348   -2.3958 C   0  0  0  0  0  0  0  0  0  0  0  0
    3.4879   -1.9306   -3.1194 C   0  0  0  0  0  0  0  0  0  0  0  0
    4.4921   -2.6372   -2.4763 C   0  0  0  0  0  0  0  0  0  0  0  0
    4.6806   -2.4824   -1.1026 C   0  0  0  0  0  0  0  0  0  0  0  0
    3.8721   -1.6098   -0.3349 C   0  0  0  0  0  0  0  0  0  0  0  0
    4.0499   -1.6813    1.1718 C   0  0  0  0  0  0  0  0  0  0  0  0
    5.1675   -0.9009    1.7069 N   0  0  0  0  0  0  0  0  0  0  0  0
    5.1878    0.4738    1.7468 C   0  0  0  0  0  0  0  0  0  0  0  0
    6.2539    0.8684    2.5203 C   0  0  0  0  0  0  0  0  0  0  0  0
    6.9056   -0.3014    2.9907 C   0  0  0  0  0  0  0  0  0  0  0  0
    7.9984   -0.5235    3.8419 C   0  0  0  0  0  0  0  0  0  0  0  0
    8.4029   -1.7829    4.1370 N   0  0  0  0  0  0  0  0  0  0  0  0
    7.7275   -2.8189    3.6019 C   0  0  0  0  0  0  0  0  0  0  0  0
    6.6350   -2.7069    2.7530 C   0  0  0  0  0  0  0  0  0  0  0  0
    6.2231   -1.4017    2.4553 C   0  0  0  0  0  0  0  0  0  0  0  0
    1.9136    1.2886   -2.0655 H   0  0  0  0  0  0  0  0  0  0  0  0
    0.3698    1.7475    1.3257 H   0  0  0  0  0  0  0  0  0  0  0  0
   -0.9709    3.7086    1.8523 H   0  0  0  0  0  0  0  0  0  0  0  0
   -0.6786    5.0467   -2.2301 H   0  0  0  0  0  0  0  0  0  0  0  0
    0.6948    3.0886   -2.7742 H   0  0  0  0  0  0  0  0  0  0  0  0
    1.8969   -0.5408   -2.9336 H   0  0  0  0  0  0  0  0  0  0  0  0
    3.3038   -2.0835   -4.1804 H   0  0  0  0  0  0  0  0  0  0  0  0
    5.1072   -3.3380   -3.0355 H   0  0  0  0  0  0  0  0  0  0  0  0
    5.4500   -3.0817   -0.6180 H   0  0  0  0  0  0  0  0  0  0  0  0
    4.2211   -2.7313    1.4413 H   0  0  0  0  0  0  0  0  0  0  0  0
    3.1640   -1.4062    1.7428 H   0  0  0  0  0  0  0  0  0  0  0  0
    4.4182    1.0571    1.2611 H   0  0  0  0  0  0  0  0  0  0  0  0
    6.5121    1.8913    2.7602 H   0  0  0  0  0  0  0  0  0  0  0  0
    8.5540    0.2831    4.3064 H   0  0  0  0  0  0  0  0  0  0  0  0
    8.1022   -3.7974    3.8919 H   0  0  0  0  0  0  0  0  0  0  0  0
    6.1418   -3.5880    2.3629 H   0  0  0  0  0  0  0  0  0  0  0  0
  1  2  2  0  0  0  0
  2  3  1  0  0  0  0
  2 11  1  0  0  0  0
  3  4  1  0  0  0  0
  3 27  1  0  0  0  0
  4  5  1  0  0  0  0
  4 10  2  0  0  0  0
  5  6  2  0  0  0  0
  5 28  1  0  0  0  0
  6  7  1  0  0  0  0
  6 29  1  0  0  0  0
  7  8  1  0  0  0  0
  7  9  2  0  0  0  0
  9 10  1  0  0  0  0
  9 30  1  0  0  0  0
 10 31  1  0  0  0  0
 11 12  1  0  0  0  0
 11 16  2  0  0  0  0
 12 13  2  0  0  0  0
 12 32  1  0  0  0  0
 13 14  1  0  0  0  0
 13 33  1  0  0  0  0
 14 15  2  0  0  0  0
 14 34  1  0  0  0  0
 15 16  1  0  0  0  0
 15 35  1  0  0  0  0
 16 17  1  0  0  0  0
 17 18  1  0  0  0  0
 17 36  1  0  0  0  0
 17 37  1  0  0  0  0
 18 19  1  0  0  0  0
 18 26  1  0  0  0  0
 19 20  2  0  0  0  0
 19 38  1  0  0  0  0
 20 21  1  0  0  0  0
 20 39  1  0  0  0  0
 21 22  1  0  0  0  0
 21 26  2  0  0  0  0
 22 23  2  0  0  0  0
 22 40  1  0  0  0  0
 23 24  1  0  0  0  0
 24 25  2  0  0  0  0
 24 41  1  0  0  0  0
 25 26  1  0  0  0  0
 25 42  1  0  0  0  0
M  END
$$$$
