CHEMBL171745
 OpenBabel04072215363D

 58 62  0  0  0  0  0  0  0  0999 V2000
    2.7015    1.2240   -0.1834 C   0  0  0  0  0  0  0  0  0  0  0  0
    2.5019   -0.1830   -0.2010 O   0  0  0  0  0  0  0  0  0  0  0  0
    3.2363   -0.9848    0.6216 C   0  0  0  0  0  0  0  0  0  0  0  0
    4.4064   -0.5456    1.2372 C   0  0  0  0  0  0  0  0  0  0  0  0
    5.1297   -1.3739    2.1186 C   0  0  0  0  0  0  0  0  0  0  0  0
    6.2755   -0.9569    2.8053 C   0  0  0  0  0  0  0  0  0  0  0  0
    6.6517    0.4150    2.7595 N   0  0  0  0  0  0  0  0  0  0  0  0
    7.9625    0.8591    3.0277 C   0  0  0  0  0  0  0  0  0  0  0  0
    9.0714    0.2278    2.4355 C   0  0  0  0  0  0  0  0  0  0  0  0
   10.3825    0.5992    2.7302 C   0  0  0  0  0  0  0  0  0  0  0  0
   10.6409    1.6428    3.6262 C   0  0  0  0  0  0  0  0  0  0  0  0
    9.5575    2.3350    4.1944 C   0  0  0  0  0  0  0  0  0  0  0  0
    9.4160    3.4147    5.1039 C   0  0  0  0  0  0  0  0  0  0  0  0
    8.0647    3.6210    5.2571 C   0  0  0  0  0  0  0  0  0  0  0  0
    7.3547    2.7266    4.5174 O   0  0  0  0  0  0  0  0  0  0  0  0
    8.2641    1.9354    3.8710 C   0  0  0  0  0  0  0  0  0  0  0  0
    7.0063   -1.8092    3.5451 N   0  0  0  0  0  0  0  0  0  0  0  0
    6.5636   -3.0642    3.6304 C   0  0  0  0  0  0  0  0  0  0  0  0
    5.4494   -3.5483    3.0706 N   0  0  0  0  0  0  0  0  0  0  0  0
    4.7409   -2.6990    2.3143 C   0  0  0  0  0  0  0  0  0  0  0  0
    3.5865   -3.1378    1.6780 C   0  0  0  0  0  0  0  0  0  0  0  0
    2.8201   -2.3049    0.8386 C   0  0  0  0  0  0  0  0  0  0  0  0
    1.7154   -2.9439    0.3219 O   0  0  0  0  0  0  0  0  0  0  0  0
    0.9015   -2.2187   -0.5987 C   0  0  0  0  0  0  0  0  0  0  0  0
   -0.2130   -3.1082   -1.1375 C   0  0  0  0  0  0  0  0  0  0  0  0
   -1.1429   -3.6122   -0.0287 C   0  0  0  0  0  0  0  0  0  0  0  0
   -2.3319   -4.3050   -0.5583 N   0  0  0  0  0  0  0  0  0  0  0  0
   -3.2294   -4.7365    0.5400 C   0  0  0  0  0  0  0  0  0  0  0  0
   -2.7345   -5.9708    1.3200 C   0  0  0  0  0  0  0  0  0  0  0  0
   -2.4186   -7.0679    0.4528 O   0  0  0  0  0  0  0  0  0  0  0  0
   -1.4696   -6.6721   -0.5452 C   0  0  0  0  0  0  0  0  0  0  0  0
   -2.0148   -5.4996   -1.3720 C   0  0  0  0  0  0  0  0  0  0  0  0
    3.3018    1.5118   -1.0509 H   0  0  0  0  0  0  0  0  0  0  0  0
    3.1469    1.6093    0.7376 H   0  0  0  0  0  0  0  0  0  0  0  0
    1.7179    1.6936   -0.2733 H   0  0  0  0  0  0  0  0  0  0  0  0
    4.8141    0.4355    1.0166 H   0  0  0  0  0  0  0  0  0  0  0  0
    5.9713    0.9701    3.2759 H   0  0  0  0  0  0  0  0  0  0  0  0
    8.9005   -0.5914    1.7397 H   0  0  0  0  0  0  0  0  0  0  0  0
   11.2020    0.0595    2.2700 H   0  0  0  0  0  0  0  0  0  0  0  0
   11.6642    1.9072    3.8716 H   0  0  0  0  0  0  0  0  0  0  0  0
   10.2065    3.9704    5.5876 H   0  0  0  0  0  0  0  0  0  0  0  0
    7.4789    4.3224    5.8351 H   0  0  0  0  0  0  0  0  0  0  0  0
    7.1636   -3.7536    4.2135 H   0  0  0  0  0  0  0  0  0  0  0  0
    3.2669   -4.1667    1.8332 H   0  0  0  0  0  0  0  0  0  0  0  0
    1.5043   -1.9068   -1.4593 H   0  0  0  0  0  0  0  0  0  0  0  0
    0.4478   -1.3554   -0.0988 H   0  0  0  0  0  0  0  0  0  0  0  0
    0.2522   -3.9561   -1.6513 H   0  0  0  0  0  0  0  0  0  0  0  0
   -0.7890   -2.5360   -1.8757 H   0  0  0  0  0  0  0  0  0  0  0  0
   -1.4859   -2.7404    0.5447 H   0  0  0  0  0  0  0  0  0  0  0  0
   -0.5793   -4.2428    0.6680 H   0  0  0  0  0  0  0  0  0  0  0  0
   -4.1989   -4.9824    0.0874 H   0  0  0  0  0  0  0  0  0  0  0  0
   -3.4213   -3.9075    1.2315 H   0  0  0  0  0  0  0  0  0  0  0  0
   -3.5240   -6.3122    1.9974 H   0  0  0  0  0  0  0  0  0  0  0  0
   -1.8570   -5.7358    1.9323 H   0  0  0  0  0  0  0  0  0  0  0  0
   -1.2974   -7.5336   -1.1980 H   0  0  0  0  0  0  0  0  0  0  0  0
   -0.5140   -6.4291   -0.0664 H   0  0  0  0  0  0  0  0  0  0  0  0
   -2.9474   -5.8202   -1.8551 H   0  0  0  0  0  0  0  0  0  0  0  0
   -1.3348   -5.2598   -2.1945 H   0  0  0  0  0  0  0  0  0  0  0  0
  1  2  1  0  0  0  0
  1 33  1  0  0  0  0
  1 34  1  0  0  0  0
  1 35  1  0  0  0  0
  2  3  1  0  0  0  0
  3  4  1  0  0  0  0
  3 22  2  0  0  0  0
  4  5  2  0  0  0  0
  4 36  1  0  0  0  0
  5  6  1  0  0  0  0
  5 20  1  0  0  0  0
  6  7  1  0  0  0  0
  6 17  2  0  0  0  0
  7  8  1  0  0  0  0
  7 37  1  0  0  0  0
  8  9  1  0  0  0  0
  8 16  2  0  0  0  0
  9 10  2  0  0  0  0
  9 38  1  0  0  0  0
 10 11  1  0  0  0  0
 10 39  1  0  0  0  0
 11 12  2  0  0  0  0
 11 40  1  0  0  0  0
 12 13  1  0  0  0  0
 12 16  1  0  0  0  0
 13 14  2  0  0  0  0
 13 41  1  0  0  0  0
 14 15  1  0  0  0  0
 14 42  1  0  0  0  0
 15 16  1  0  0  0  0
 17 18  1  0  0  0  0
 18 19  2  0  0  0  0
 18 43  1  0  0  0  0
 19 20  1  0  0  0  0
 20 21  2  0  0  0  0
 21 22  1  0  0  0  0
 21 44  1  0  0  0  0
 22 23  1  0  0  0  0
 23 24  1  0  0  0  0
 24 25  1  0  0  0  0
 24 45  1  0  0  0  0
 24 46  1  0  0  0  0
 25 26  1  0  0  0  0
 25 47  1  0  0  0  0
 25 48  1  0  0  0  0
 26 27  1  0  0  0  0
 26 49  1  0  0  0  0
 26 50  1  0  0  0  0
 27 28  1  0  0  0  0
 27 32  1  0  0  0  0
 28 29  1  0  0  0  0
 28 51  1  0  0  0  0
 28 52  1  0  0  0  0
 29 30  1  0  0  0  0
 29 53  1  0  0  0  0
 29 54  1  0  0  0  0
 30 31  1  0  0  0  0
 31 32  1  0  0  0  0
 31 55  1  0  0  0  0
 31 56  1  0  0  0  0
 32 57  1  0  0  0  0
 32 58  1  0  0  0  0
M  END
$$$$
