CHEMBL3964096
 OpenBabel04072215373D

 59 61  0  0  0  0  0  0  0  0999 V2000
    0.9425    0.2713    1.7375 C   0  0  0  0  0  0  0  0  0  0  0  0
    2.3091    0.3439    1.5559 O   0  0  0  0  0  0  0  0  0  0  0  0
    2.9839    1.3508    0.9406 C   0  0  0  0  0  0  0  0  0  0  0  0
    2.3304    2.4633    0.3805 C   0  0  0  0  0  0  0  0  0  0  0  0
    3.0685    3.4640   -0.2563 C   0  0  0  0  0  0  0  0  0  0  0  0
    2.4549    4.5283   -0.8161 O   0  0  0  0  0  0  0  0  0  0  0  0
    4.4590    3.3629   -0.3257 C   0  0  0  0  0  0  0  0  0  0  0  0
    5.1569    2.2678    0.2443 C   0  0  0  0  0  0  0  0  0  0  0  0
    6.6051    2.1849    0.1338 N   0  0  0  0  0  0  0  0  0  0  0  0
    7.2790    0.8771    0.0544 C   0  0  0  0  0  0  0  0  0  0  0  0
    8.4722    0.7340    1.0329 C   0  0  0  0  0  0  0  0  0  0  0  0
    8.1000    0.8523    2.4517 N   0  0  0  0  0  0  0  0  0  0  0  0
    9.2857    0.7195    3.3381 C   0  0  0  0  0  0  0  0  0  0  0  0
   10.2701    1.8968    3.1765 C   0  0  0  0  0  0  0  0  0  0  0  0
    8.8436    0.6583    4.8072 C   0  0  0  0  0  0  0  0  0  0  0  0
    7.3929    3.3904    0.0028 C   0  0  0  0  0  0  0  0  0  0  0  0
    8.5967    3.4200   -0.7451 C   0  0  0  0  0  0  0  0  0  0  0  0
    9.3699    4.5811   -0.8193 C   0  0  0  0  0  0  0  0  0  0  0  0
    8.9652    5.7334   -0.1518 C   0  0  0  0  0  0  0  0  0  0  0  0
    9.7085    6.8669   -0.2121 N   0  0  0  0  0  0  0  0  0  0  0  0
    9.3248    7.9970    0.4368 C   0  0  0  0  0  0  0  0  0  0  0  0
    8.1355    7.9991    1.1876 C   0  0  0  0  0  0  0  0  0  0  0  0
    7.6737    9.2068    1.8999 C   0  0  0  0  0  0  0  0  0  0  0  0
    6.5479    9.3218    2.6940 C   0  0  0  0  0  0  0  0  0  0  0  0
    6.4666   10.5845    3.1572 N   0  0  0  0  0  0  0  0  0  0  0  0
    7.4993   11.2608    2.6796 N   0  0  0  0  0  0  0  0  0  0  0  0
    8.2561   10.4587    1.9140 C   0  0  0  0  0  0  0  0  0  0  0  0
    7.3957    6.8585    1.2499 N   0  0  0  0  0  0  0  0  0  0  0  0
    7.7752    5.7300    0.5982 C   0  0  0  0  0  0  0  0  0  0  0  0
    7.0033    4.5703    0.6754 C   0  0  0  0  0  0  0  0  0  0  0  0
    4.3837    1.2603    0.8658 C   0  0  0  0  0  0  0  0  0  0  0  0
    2.0879   -0.2411   -2.5367 Cl  0  0  0  0  0  0  0  0  0  0  0  0
    0.6988   -0.6799    2.2540 H   0  0  0  0  0  0  0  0  0  0  0  0
    0.4183    0.2828    0.7578 H   0  0  0  0  0  0  0  0  0  0  0  0
    0.5925    1.1158    2.3687 H   0  0  0  0  0  0  0  0  0  0  0  0
    1.2520    2.5573    0.4233 H   0  0  0  0  0  0  0  0  0  0  0  0
    1.4937    4.6419   -0.7996 H   0  0  0  0  0  0  0  0  0  0  0  0
    4.9869    4.1463   -0.8530 H   0  0  0  0  0  0  0  0  0  0  0  0
    7.6856    0.7514   -0.9700 H   0  0  0  0  0  0  0  0  0  0  0  0
    6.5874    0.0266    0.1864 H   0  0  0  0  0  0  0  0  0  0  0  0
    9.2063    1.5102    0.7799 H   0  0  0  0  0  0  0  0  0  0  0  0
    8.9617   -0.2477    0.8517 H   0  0  0  0  0  0  0  0  0  0  0  0
    7.4434    0.0629    2.6628 H   0  0  0  0  0  0  0  0  0  0  0  0
    9.8248   -0.2299    3.1172 H   0  0  0  0  0  0  0  0  0  0  0  0
    9.7545    2.8636    3.3588 H   0  0  0  0  0  0  0  0  0  0  0  0
   10.7394    1.9183    2.1741 H   0  0  0  0  0  0  0  0  0  0  0  0
   11.1103    1.7954    3.8960 H   0  0  0  0  0  0  0  0  0  0  0  0
    8.3044    1.5858    5.0947 H   0  0  0  0  0  0  0  0  0  0  0  0
    9.7330    0.5462    5.4672 H   0  0  0  0  0  0  0  0  0  0  0  0
    8.1829   -0.2165    4.9796 H   0  0  0  0  0  0  0  0  0  0  0  0
    8.9494    2.5520   -1.2802 H   0  0  0  0  0  0  0  0  0  0  0  0
   10.2888    4.5783   -1.3937 H   0  0  0  0  0  0  0  0  0  0  0  0
    9.9446    8.8773    0.3628 H   0  0  0  0  0  0  0  0  0  0  0  0
    5.8326    8.5424    2.9222 H   0  0  0  0  0  0  0  0  0  0  0  0
    7.6844   12.2698    2.8778 H   0  0  0  0  0  0  0  0  0  0  0  0
    9.1566   10.7725    1.4045 H   0  0  0  0  0  0  0  0  0  0  0  0
    6.1071    4.5916    1.2836 H   0  0  0  0  0  0  0  0  0  0  0  0
    4.8462    0.3980    1.3194 H   0  0  0  0  0  0  0  0  0  0  0  0
    1.7555    0.9786   -1.9981 H   0  0  0  0  0  0  0  0  0  0  0  0
  1  2  1  0  0  0  0
  1 33  1  0  0  0  0
  1 34  1  0  0  0  0
  1 35  1  0  0  0  0
  2  3  1  0  0  0  0
  3  4  1  0  0  0  0
  3 31  2  0  0  0  0
  4  5  2  0  0  0  0
  4 36  1  0  0  0  0
  5  6  1  0  0  0  0
  5  7  1  0  0  0  0
  6 37  1  0  0  0  0
  7  8  2  0  0  0  0
  7 38  1  0  0  0  0
  8  9  1  0  0  0  0
  8 31  1  0  0  0  0
  9 10  1  0  0  0  0
  9 16  1  0  0  0  0
 10 11  1  0  0  0  0
 10 39  1  0  0  0  0
 10 40  1  0  0  0  0
 11 12  1  0  0  0  0
 11 41  1  0  0  0  0
 11 42  1  0  0  0  0
 12 13  1  0  0  0  0
 12 43  1  0  0  0  0
 13 14  1  0  0  0  0
 13 15  1  0  0  0  0
 13 44  1  0  0  0  0
 14 45  1  0  0  0  0
 14 46  1  0  0  0  0
 14 47  1  0  0  0  0
 15 48  1  0  0  0  0
 15 49  1  0  0  0  0
 15 50  1  0  0  0  0
 16 17  1  0  0  0  0
 16 30  2  0  0  0  0
 17 18  2  0  0  0  0
 17 51  1  0  0  0  0
 18 19  1  0  0  0  0
 18 52  1  0  0  0  0
 19 20  1  0  0  0  0
 19 29  2  0  0  0  0
 20 21  2  0  0  0  0
 21 22  1  0  0  0  0
 21 53  1  0  0  0  0
 22 23  1  0  0  0  0
 22 28  2  0  0  0  0
 23 24  1  0  0  0  0
 23 27  2  0  0  0  0
 24 25  2  0  0  0  0
 24 54  1  0  0  0  0
 25 26  1  0  0  0  0
 26 27  1  0  0  0  0
 26 55  1  0  0  0  0
 27 56  1  0  0  0  0
 28 29  1  0  0  0  0
 29 30  1  0  0  0  0
 30 57  1  0  0  0  0
 31 58  1  0  0  0  0
 32 59  1  0  0  0  0
M  END
$$$$
