CHEMBL238531
 OpenBabel04072215363D

 43 45  0  0  0  0  0  0  0  0999 V2000
   -2.1152   -0.0263   -0.0420 C   0  0  0  0  0  0  0  0  0  0  0  0
   -0.6697   -0.1351   -0.0191 N   0  0  0  0  0  0  0  0  0  0  0  0
    0.0533    0.9976    0.0212 N   0  0  0  0  0  0  0  0  0  0  0  0
    1.3076    0.5608    0.0578 C   0  0  0  0  0  0  0  0  0  0  0  0
    1.3937   -0.8500    0.0447 C   0  0  0  0  0  0  0  0  0  0  0  0
    2.5756   -1.5143    0.0620 N   0  0  0  0  0  0  0  0  0  0  0  0
    2.8331   -2.7689   -0.6295 C   0  0  0  0  0  0  0  0  0  0  0  0
    3.3560   -3.8123    0.3348 C   0  0  0  0  0  0  0  0  0  0  0  0
    3.5949   -3.5428    1.6902 C   0  0  0  0  0  0  0  0  0  0  0  0
    4.0315   -4.5648    2.5144 C   0  0  0  0  0  0  0  0  0  0  0  0
    4.2509   -5.8226    2.0880 N   0  0  0  0  0  0  0  0  0  0  0  0
    4.0363   -6.0680    0.7774 C   0  0  0  0  0  0  0  0  0  0  0  0
    3.5978   -5.1113   -0.1259 C   0  0  0  0  0  0  0  0  0  0  0  0
    0.0828   -1.2979    0.0320 C   0  0  0  0  0  0  0  0  0  0  0  0
   -0.5442   -2.6044    0.0180 C   0  0  0  0  0  0  0  0  0  0  0  0
   -1.6192   -2.7635   -0.5518 O   0  0  0  0  0  0  0  0  0  0  0  0
    0.1017   -3.6048    0.7282 N   0  0  0  0  0  0  0  0  0  0  0  0
   -0.2819   -4.9693    0.7744 C   0  0  0  0  0  0  0  0  0  0  0  0
   -1.2116   -5.5193   -0.1145 C   0  0  0  0  0  0  0  0  0  0  0  0
   -1.6137   -6.8506   -0.0092 C   0  0  0  0  0  0  0  0  0  0  0  0
   -1.0696   -7.6646    0.9755 C   0  0  0  0  0  0  0  0  0  0  0  0
   -0.0947   -7.1608    1.8477 C   0  0  0  0  0  0  0  0  0  0  0  0
    0.5204   -8.0595    2.8944 C   0  0  0  0  0  0  0  0  0  0  0  0
   -0.0121   -9.3162    2.9069 F   0  0  0  0  0  0  0  0  0  0  0  0
    1.8575   -8.2316    2.7180 F   0  0  0  0  0  0  0  0  0  0  0  0
    0.3597   -7.5803    4.1583 F   0  0  0  0  0  0  0  0  0  0  0  0
    0.2977   -5.8089    1.7345 C   0  0  0  0  0  0  0  0  0  0  0  0
   -2.4004    1.0264    0.0396 H   0  0  0  0  0  0  0  0  0  0  0  0
   -2.5222   -0.5786    0.8088 H   0  0  0  0  0  0  0  0  0  0  0  0
   -2.4801   -0.4263   -0.9905 H   0  0  0  0  0  0  0  0  0  0  0  0
    2.1094    1.2865    0.0710 H   0  0  0  0  0  0  0  0  0  0  0  0
    3.4250   -0.9492    0.0935 H   0  0  0  0  0  0  0  0  0  0  0  0
    3.5976   -2.5897   -1.3960 H   0  0  0  0  0  0  0  0  0  0  0  0
    1.9463   -3.1467   -1.1493 H   0  0  0  0  0  0  0  0  0  0  0  0
    3.4278   -2.5585    2.1156 H   0  0  0  0  0  0  0  0  0  0  0  0
    4.2092   -4.3924    3.5716 H   0  0  0  0  0  0  0  0  0  0  0  0
    4.2261   -7.0908    0.4630 H   0  0  0  0  0  0  0  0  0  0  0  0
    3.4380   -5.3845   -1.1647 H   0  0  0  0  0  0  0  0  0  0  0  0
    0.8694   -3.3106    1.3204 H   0  0  0  0  0  0  0  0  0  0  0  0
   -1.6463   -4.9377   -0.9216 H   0  0  0  0  0  0  0  0  0  0  0  0
   -2.3570   -7.2429   -0.6990 H   0  0  0  0  0  0  0  0  0  0  0  0
   -1.4080   -8.6963    1.0562 H   0  0  0  0  0  0  0  0  0  0  0  0
    1.0488   -5.4247    2.4225 H   0  0  0  0  0  0  0  0  0  0  0  0
  1  2  1  0  0  0  0
  1 28  1  0  0  0  0
  1 29  1  0  0  0  0
  1 30  1  0  0  0  0
  2  3  1  0  0  0  0
  2 14  1  0  0  0  0
  3  4  2  0  0  0  0
  4  5  1  0  0  0  0
  4 31  1  0  0  0  0
  5  6  1  0  0  0  0
  5 14  2  0  0  0  0
  6  7  1  0  0  0  0
  6 32  1  0  0  0  0
  7  8  1  0  0  0  0
  7 33  1  0  0  0  0
  7 34  1  0  0  0  0
  8  9  1  0  0  0  0
  8 13  2  0  0  0  0
  9 10  2  0  0  0  0
  9 35  1  0  0  0  0
 10 11  1  0  0  0  0
 10 36  1  0  0  0  0
 11 12  2  0  0  0  0
 12 13  1  0  0  0  0
 12 37  1  0  0  0  0
 13 38  1  0  0  0  0
 14 15  1  0  0  0  0
 15 16  2  0  0  0  0
 15 17  1  0  0  0  0
 17 18  1  0  0  0  0
 17 39  1  0  0  0  0
 18 19  1  0  0  0  0
 18 27  2  0  0  0  0
 19 20  2  0  0  0  0
 19 40  1  0  0  0  0
 20 21  1  0  0  0  0
 20 41  1  0  0  0  0
 21 22  2  0  0  0  0
 21 42  1  0  0  0  0
 22 23  1  0  0  0  0
 22 27  1  0  0  0  0
 23 24  1  0  0  0  0
 23 25  1  0  0  0  0
 23 26  1  0  0  0  0
 27 43  1  0  0  0  0
M  END
$$$$
