CHEMBL3932057
 OpenBabel04072215373D

 62 66  0  0  1  0  0  0  0  0999 V2000
    1.2253    1.6225    2.6053 C   0  0  0  0  0  0  0  0  0  0  0  0
    1.8224    0.7717    1.4768 C   0  0  1  0  0  0  0  0  0  0  0  0
    2.8865    1.4999    0.7706 N   0  0  0  0  0  0  0  0  0  0  0  0
    2.5019    2.6489    0.0736 C   0  0  0  0  0  0  0  0  0  0  0  0
    1.2334    2.8022   -0.3671 N   0  0  0  0  0  0  0  0  0  0  0  0
    0.8991    3.9524   -0.9886 C   0  0  0  0  0  0  0  0  0  0  0  0
    1.6802    5.0156   -1.2455 N   0  0  0  0  0  0  0  0  0  0  0  0
    2.9258    4.8166   -0.8030 C   0  0  0  0  0  0  0  0  0  0  0  0
    3.9381    5.7320   -0.8894 N   0  0  0  0  0  0  0  0  0  0  0  0
    5.0913    5.2420   -0.3055 C   0  0  0  0  0  0  0  0  0  0  0  0
    6.3243    6.0201   -0.1793 C   0  0  0  0  0  0  0  0  0  0  0  0
    6.2987    7.4137   -0.0404 C   0  0  0  0  0  0  0  0  0  0  0  0
    7.4805    8.1372    0.1764 C   0  0  0  0  0  0  0  0  0  0  0  0
    8.7099    7.4834    0.2854 C   0  0  0  0  0  0  0  0  0  0  0  0
    9.9212    8.1327    0.5467 N   0  0  0  0  0  0  0  0  0  0  0  0
    9.8817    9.3269    1.3853 C   0  0  0  0  0  0  0  0  0  0  0  0
   11.1810    9.5039    2.1462 C   0  0  0  0  0  0  0  0  0  0  0  0
   11.6036   10.7921    2.5096 C   0  0  0  0  0  0  0  0  0  0  0  0
   12.7477   10.9771    3.2942 C   0  0  0  0  0  0  0  0  0  0  0  0
   13.4840    9.8701    3.7324 C   0  0  0  0  0  0  0  0  0  0  0  0
   14.6900   10.0198    4.5882 C   0  0  0  0  0  0  0  0  0  0  0  0
   15.0453    9.1309    5.3578 O   0  0  0  0  0  0  0  0  0  0  0  0
   15.4102   11.1845    4.4380 N   0  0  0  0  0  0  0  0  0  0  0  0
   16.6409   11.2233    5.1367 O   0  0  0  0  0  0  0  0  0  0  0  0
   13.0569    8.5814    3.3991 C   0  0  0  0  0  0  0  0  0  0  0  0
   11.9143    8.4015    2.6148 C   0  0  0  0  0  0  0  0  0  0  0  0
    8.7430    6.1063    0.0560 C   0  0  0  0  0  0  0  0  0  0  0  0
    7.5659    5.3781   -0.1524 C   0  0  0  0  0  0  0  0  0  0  0  0
    4.7843    3.9559    0.1261 C   0  0  0  0  0  0  0  0  0  0  0  0
    3.4149    3.6889   -0.1629 C   0  0  0  0  0  0  0  0  0  0  0  0
    2.4427   -0.4968    2.0585 C   0  0  0  0  0  0  0  0  0  0  0  0
    1.9169   -1.7621    1.7560 C   0  0  0  0  0  0  0  0  0  0  0  0
    2.5294   -2.9197    2.2461 C   0  0  0  0  0  0  0  0  0  0  0  0
    3.6683   -2.8274    3.0449 C   0  0  0  0  0  0  0  0  0  0  0  0
    4.1834   -1.5782    3.3780 C   0  0  0  0  0  0  0  0  0  0  0  0
    3.5718   -0.4224    2.8936 C   0  0  0  0  0  0  0  0  0  0  0  0
    0.6835    2.4892    2.2126 H   0  0  0  0  0  0  0  0  0  0  0  0
    2.0011    2.0097    3.2761 H   0  0  0  0  0  0  0  0  0  0  0  0
    0.5185    1.0409    3.2069 H   0  0  0  0  0  0  0  0  0  0  0  0
    1.0295    0.4839    0.7743 H   0  0  0  0  0  0  0  0  0  0  0  0
    3.3382    0.8794    0.1008 H   0  0  0  0  0  0  0  0  0  0  0  0
   -0.1326    4.0302   -1.3156 H   0  0  0  0  0  0  0  0  0  0  0  0
    3.8306    6.6424   -1.3106 H   0  0  0  0  0  0  0  0  0  0  0  0
    5.3600    7.9602   -0.0555 H   0  0  0  0  0  0  0  0  0  0  0  0
    7.4098    9.2163    0.2832 H   0  0  0  0  0  0  0  0  0  0  0  0
   10.4435    8.2854   -0.3119 H   0  0  0  0  0  0  0  0  0  0  0  0
    9.0848    9.2626    2.1370 H   0  0  0  0  0  0  0  0  0  0  0  0
    9.6950   10.2035    0.7528 H   0  0  0  0  0  0  0  0  0  0  0  0
   11.0259   11.6628    2.2053 H   0  0  0  0  0  0  0  0  0  0  0  0
   13.0213   11.9868    3.5883 H   0  0  0  0  0  0  0  0  0  0  0  0
   15.3454   11.7695    3.6127 H   0  0  0  0  0  0  0  0  0  0  0  0
   16.6221   10.3756    5.6351 H   0  0  0  0  0  0  0  0  0  0  0  0
   13.6041    7.7108    3.7567 H   0  0  0  0  0  0  0  0  0  0  0  0
   11.5855    7.3886    2.3840 H   0  0  0  0  0  0  0  0  0  0  0  0
    9.6926    5.5775    0.0973 H   0  0  0  0  0  0  0  0  0  0  0  0
    7.6357    4.3003   -0.2762 H   0  0  0  0  0  0  0  0  0  0  0  0
    5.4566    3.2849    0.6495 H   0  0  0  0  0  0  0  0  0  0  0  0
    1.0324   -1.8594    1.1302 H   0  0  0  0  0  0  0  0  0  0  0  0
    2.1229   -3.8972    1.9979 H   0  0  0  0  0  0  0  0  0  0  0  0
    4.1558   -3.7286    3.4074 H   0  0  0  0  0  0  0  0  0  0  0  0
    5.0667   -1.4991    4.0060 H   0  0  0  0  0  0  0  0  0  0  0  0
    3.9899    0.5488    3.1526 H   0  0  0  0  0  0  0  0  0  0  0  0
  1  2  1  0  0  0  0
  1 37  1  0  0  0  0
  1 38  1  0  0  0  0
  1 39  1  0  0  0  0
  2  3  1  0  0  0  0
  2 31  1  0  0  0  0
  2 40  1  6  0  0  0
  3  4  1  0  0  0  0
  3 41  1  0  0  0  0
  4  5  1  0  0  0  0
  4 30  2  0  0  0  0
  5  6  2  0  0  0  0
  6  7  1  0  0  0  0
  6 42  1  0  0  0  0
  7  8  2  0  0  0  0
  8  9  1  0  0  0  0
  8 30  1  0  0  0  0
  9 10  1  0  0  0  0
  9 43  1  0  0  0  0
 10 11  1  0  0  0  0
 10 29  2  0  0  0  0
 11 12  1  0  0  0  0
 11 28  2  0  0  0  0
 12 13  2  0  0  0  0
 12 44  1  0  0  0  0
 13 14  1  0  0  0  0
 13 45  1  0  0  0  0
 14 15  1  0  0  0  0
 14 27  2  0  0  0  0
 15 16  1  0  0  0  0
 15 46  1  0  0  0  0
 16 17  1  0  0  0  0
 16 47  1  0  0  0  0
 16 48  1  0  0  0  0
 17 18  1  0  0  0  0
 17 26  2  0  0  0  0
 18 19  2  0  0  0  0
 18 49  1  0  0  0  0
 19 20  1  0  0  0  0
 19 50  1  0  0  0  0
 20 21  1  0  0  0  0
 20 25  2  0  0  0  0
 21 22  2  0  0  0  0
 21 23  1  0  0  0  0
 23 24  1  0  0  0  0
 23 51  1  0  0  0  0
 24 52  1  0  0  0  0
 25 26  1  0  0  0  0
 25 53  1  0  0  0  0
 26 54  1  0  0  0  0
 27 28  1  0  0  0  0
 27 55  1  0  0  0  0
 28 56  1  0  0  0  0
 29 30  1  0  0  0  0
 29 57  1  0  0  0  0
 31 32  1  0  0  0  0
 31 36  2  0  0  0  0
 32 33  2  0  0  0  0
 32 58  1  0  0  0  0
 33 34  1  0  0  0  0
 33 59  1  0  0  0  0
 34 35  2  0  0  0  0
 34 60  1  0  0  0  0
 35 36  1  0  0  0  0
 35 61  1  0  0  0  0
 36 62  1  0  0  0  0
M  END
$$$$
