CHEMBL1744349
 OpenBabel04072215363D

 57 59  0  0  0  0  0  0  0  0999 V2000
    1.8530   -1.2220    1.2911 C   0  0  0  0  0  0  0  0  0  0  0  0
    2.5975   -0.2304    0.6775 O   0  0  0  0  0  0  0  0  0  0  0  0
    3.1695    0.8734    1.2367 C   0  0  0  0  0  0  0  0  0  0  0  0
    4.2894    1.4090    0.5619 C   0  0  0  0  0  0  0  0  0  0  0  0
    4.9762    2.5366    1.0636 C   0  0  0  0  0  0  0  0  0  0  0  0
    6.0625    3.1759    0.4111 C   0  0  0  0  0  0  0  0  0  0  0  0
    6.5916    2.7523   -0.8457 N   0  0  0  0  0  0  0  0  0  0  0  0
    7.3431    3.6579   -1.6662 C   0  0  0  0  0  0  0  0  0  0  0  0
    7.0339    5.0394   -1.6799 C   0  0  0  0  0  0  0  0  0  0  0  0
    7.7691    5.9268   -2.4646 C   0  0  0  0  0  0  0  0  0  0  0  0
    8.8318    5.4611   -3.2378 C   0  0  0  0  0  0  0  0  0  0  0  0
    9.7723    6.5926   -4.1931 Cl  0  0  0  0  0  0  0  0  0  0  0  0
    9.1397    4.0957   -3.2488 C   0  0  0  0  0  0  0  0  0  0  0  0
    8.3890    3.1933   -2.4783 C   0  0  0  0  0  0  0  0  0  0  0  0
    8.7168    1.8761   -2.4950 F   0  0  0  0  0  0  0  0  0  0  0  0
    6.6417    4.2538    1.0125 N   0  0  0  0  0  0  0  0  0  0  0  0
    6.2219    4.7407    2.1984 C   0  0  0  0  0  0  0  0  0  0  0  0
    5.1674    4.1760    2.8151 N   0  0  0  0  0  0  0  0  0  0  0  0
    4.5395    3.1015    2.2775 C   0  0  0  0  0  0  0  0  0  0  0  0
    3.4279    2.6070    2.9265 C   0  0  0  0  0  0  0  0  0  0  0  0
    2.6951    1.5173    2.4185 C   0  0  0  0  0  0  0  0  0  0  0  0
    1.5209    1.1620    3.0246 O   0  0  0  0  0  0  0  0  0  0  0  0
    0.8873    2.0002    3.9391 C   0  0  0  0  0  0  0  0  0  0  0  0
   -0.5288    1.6233    4.1997 C   0  0  0  0  0  0  0  0  0  0  0  0
   -0.8834    0.5425    4.9035 C   0  0  0  0  0  0  0  0  0  0  0  0
   -2.3400    0.2652    5.1575 C   0  0  0  0  0  0  0  0  0  0  0  0
   -2.6771    0.3108    6.6036 N   0  0  0  0  0  0  0  0  0  0  0  0
   -4.0968   -0.0198    6.8005 C   0  0  0  0  0  0  0  0  0  0  0  0
   -4.8518    1.2729    6.5276 C   0  0  0  0  0  0  0  0  0  0  0  0
   -3.9941    2.2582    7.2838 C   0  0  0  0  0  0  0  0  0  0  0  0
   -2.5710    1.6858    7.1542 C   0  0  0  0  0  0  0  0  0  0  0  0
    1.0350    0.4936   -2.9991 Cl  0  0  0  0  0  0  0  0  0  0  0  0
    0.8564   -1.2989    0.8108 H   0  0  0  0  0  0  0  0  0  0  0  0
    1.7445   -1.0814    2.3821 H   0  0  0  0  0  0  0  0  0  0  0  0
    2.3795   -2.1904    1.1487 H   0  0  0  0  0  0  0  0  0  0  0  0
    4.6009    0.9372   -0.3609 H   0  0  0  0  0  0  0  0  0  0  0  0
    6.5164    1.7638   -1.1294 H   0  0  0  0  0  0  0  0  0  0  0  0
    6.2077    5.4331   -1.1082 H   0  0  0  0  0  0  0  0  0  0  0  0
    7.5128    6.9793   -2.4601 H   0  0  0  0  0  0  0  0  0  0  0  0
    9.9662    3.7378   -3.8489 H   0  0  0  0  0  0  0  0  0  0  0  0
    6.7201    5.5900    2.6435 H   0  0  0  0  0  0  0  0  0  0  0  0
    3.1297    3.1182    3.8280 H   0  0  0  0  0  0  0  0  0  0  0  0
    0.8339    3.0202    3.4929 H   0  0  0  0  0  0  0  0  0  0  0  0
    1.4498    2.0554    4.8968 H   0  0  0  0  0  0  0  0  0  0  0  0
   -1.2944    2.3067    3.8346 H   0  0  0  0  0  0  0  0  0  0  0  0
   -0.1270   -0.1220    5.3088 H   0  0  0  0  0  0  0  0  0  0  0  0
   -2.5601   -0.7428    4.7453 H   0  0  0  0  0  0  0  0  0  0  0  0
   -2.9538    0.9925    4.5837 H   0  0  0  0  0  0  0  0  0  0  0  0
   -4.2433   -0.3045    7.8685 H   0  0  0  0  0  0  0  0  0  0  0  0
   -4.4465   -0.8721    6.1776 H   0  0  0  0  0  0  0  0  0  0  0  0
   -5.9202    1.2708    6.8295 H   0  0  0  0  0  0  0  0  0  0  0  0
   -4.8134    1.5012    5.4443 H   0  0  0  0  0  0  0  0  0  0  0  0
   -4.2935    2.1872    8.3527 H   0  0  0  0  0  0  0  0  0  0  0  0
   -4.1061    3.3131    6.9510 H   0  0  0  0  0  0  0  0  0  0  0  0
   -2.1257    1.6405    8.1743 H   0  0  0  0  0  0  0  0  0  0  0  0
   -1.9150    2.3456    6.5496 H   0  0  0  0  0  0  0  0  0  0  0  0
    1.9969    0.8700   -2.0910 H   0  0  0  0  0  0  0  0  0  0  0  0
  1  2  1  0  0  0  0
  1 33  1  0  0  0  0
  1 34  1  0  0  0  0
  1 35  1  0  0  0  0
  2  3  1  0  0  0  0
  3  4  1  0  0  0  0
  3 21  2  0  0  0  0
  4  5  2  0  0  0  0
  4 36  1  0  0  0  0
  5  6  1  0  0  0  0
  5 19  1  0  0  0  0
  6  7  1  0  0  0  0
  6 16  2  0  0  0  0
  7  8  1  0  0  0  0
  7 37  1  0  0  0  0
  8  9  1  0  0  0  0
  8 14  2  0  0  0  0
  9 10  2  0  0  0  0
  9 38  1  0  0  0  0
 10 11  1  0  0  0  0
 10 39  1  0  0  0  0
 11 12  1  0  0  0  0
 11 13  2  0  0  0  0
 13 14  1  0  0  0  0
 13 40  1  0  0  0  0
 14 15  1  0  0  0  0
 16 17  1  0  0  0  0
 17 18  2  0  0  0  0
 17 41  1  0  0  0  0
 18 19  1  0  0  0  0
 19 20  2  0  0  0  0
 20 21  1  0  0  0  0
 20 42  1  0  0  0  0
 21 22  1  0  0  0  0
 22 23  1  0  0  0  0
 23 24  1  0  0  0  0
 23 43  1  0  0  0  0
 23 44  1  0  0  0  0
 24 25  2  0  0  0  0
 24 45  1  0  0  0  0
 25 26  1  0  0  0  0
 25 46  1  0  0  0  0
 26 27  1  0  0  0  0
 26 47  1  0  0  0  0
 26 48  1  0  0  0  0
 27 28  1  0  0  0  0
 27 31  1  0  0  0  0
 28 29  1  0  0  0  0
 28 49  1  0  0  0  0
 28 50  1  0  0  0  0
 29 30  1  0  0  0  0
 29 51  1  0  0  0  0
 29 52  1  0  0  0  0
 30 31  1  0  0  0  0
 30 53  1  0  0  0  0
 30 54  1  0  0  0  0
 31 55  1  0  0  0  0
 31 56  1  0  0  0  0
 32 57  1  0  0  0  0
M  END
$$$$
