CHEMBL373845
 OpenBabel04072215373D

 66 70  0  0  0  0  0  0  0  0999 V2000
    2.4091   -0.1789   -0.8028 C   0  0  0  0  0  0  0  0  0  0  0  0
    0.9140   -0.0704   -0.7768 C   0  0  0  0  0  0  0  0  0  0  0  0
    0.3036    1.1731   -0.9619 C   0  0  0  0  0  0  0  0  0  0  0  0
   -1.0861    1.2814   -0.9339 C   0  0  0  0  0  0  0  0  0  0  0  0
   -1.8631    0.1479   -0.7196 C   0  0  0  0  0  0  0  0  0  0  0  0
   -1.2839   -1.1133   -0.5351 C   0  0  0  0  0  0  0  0  0  0  0  0
   -2.0341   -2.2953   -0.3129 N   0  0  0  0  0  0  0  0  0  0  0  0
   -3.4111   -2.3920   -0.3586 C   0  0  0  0  0  0  0  0  0  0  0  0
   -4.1586   -1.4721   -0.6843 O   0  0  0  0  0  0  0  0  0  0  0  0
   -3.8782   -3.6364    0.0430 N   0  0  0  0  0  0  0  0  0  0  0  0
   -5.2758   -3.8696    0.0484 C   0  0  0  0  0  0  0  0  0  0  0  0
   -6.0646   -3.4429   -1.0170 C   0  0  0  0  0  0  0  0  0  0  0  0
   -7.4528   -3.4625   -0.9161 C   0  0  0  0  0  0  0  0  0  0  0  0
   -8.1089   -3.9687    0.2220 C   0  0  0  0  0  0  0  0  0  0  0  0
   -9.5882   -3.9562    0.2626 C   0  0  0  0  0  0  0  0  0  0  0  0
  -10.3009   -4.2779   -0.9158 C   0  0  0  0  0  0  0  0  0  0  0  0
  -11.6851   -4.2013   -1.0049 C   0  0  0  0  0  0  0  0  0  0  0  0
  -12.4788   -3.8490    0.0913 C   0  0  0  0  0  0  0  0  0  0  0  0
  -13.9783   -3.7255   -0.0990 C   0  0  0  0  0  0  0  0  0  0  0  0
  -14.8132   -4.9205   -0.0096 N   0  0  0  0  0  0  0  0  0  0  0  0
  -14.8908   -5.5756    1.2936 C   0  0  0  0  0  0  0  0  0  0  0  0
  -13.8358   -6.6718    1.5481 C   0  0  0  0  0  0  0  0  0  0  0  0
  -13.7036   -7.6671    0.4702 N   0  0  0  0  0  0  0  0  0  0  0  0
  -12.4835   -8.4553    0.6741 C   0  0  0  0  0  0  0  0  0  0  0  0
  -13.6770   -7.0464   -0.8660 C   0  0  0  0  0  0  0  0  0  0  0  0
  -14.7003   -5.9081   -1.0863 C   0  0  0  0  0  0  0  0  0  0  0  0
  -11.7672   -3.5443    1.2736 C   0  0  0  0  0  0  0  0  0  0  0  0
  -12.2236   -3.1417    2.5028 N   0  0  0  0  0  0  0  0  0  0  0  0
  -11.2684   -2.9258    3.4125 N   0  0  0  0  0  0  0  0  0  0  0  0
  -10.1399   -3.1579    2.7504 C   0  0  0  0  0  0  0  0  0  0  0  0
   -8.9477   -2.9904    3.3474 N   0  0  0  0  0  0  0  0  0  0  0  0
  -10.3662   -3.5769    1.3960 C   0  0  0  0  0  0  0  0  0  0  0  0
   -7.2941   -4.5044    1.2331 C   0  0  0  0  0  0  0  0  0  0  0  0
   -5.8894   -4.4498    1.1564 C   0  0  0  0  0  0  0  0  0  0  0  0
    0.1121   -1.2090   -0.5665 C   0  0  0  0  0  0  0  0  0  0  0  0
    2.8775    0.7996   -0.9609 H   0  0  0  0  0  0  0  0  0  0  0  0
    2.7275   -0.8362   -1.6179 H   0  0  0  0  0  0  0  0  0  0  0  0
    2.7756   -0.5718    0.1499 H   0  0  0  0  0  0  0  0  0  0  0  0
    0.8985    2.0685   -1.1257 H   0  0  0  0  0  0  0  0  0  0  0  0
   -1.5621    2.2447   -1.0742 H   0  0  0  0  0  0  0  0  0  0  0  0
   -2.9402    0.2997   -0.6982 H   0  0  0  0  0  0  0  0  0  0  0  0
   -1.5216   -3.1629   -0.2462 H   0  0  0  0  0  0  0  0  0  0  0  0
   -3.3434   -4.0684    0.7812 H   0  0  0  0  0  0  0  0  0  0  0  0
   -5.6117   -3.0380   -1.9196 H   0  0  0  0  0  0  0  0  0  0  0  0
   -8.0183   -3.0436   -1.7465 H   0  0  0  0  0  0  0  0  0  0  0  0
   -9.7575   -4.5805   -1.8096 H   0  0  0  0  0  0  0  0  0  0  0  0
  -12.1525   -4.4184   -1.9646 H   0  0  0  0  0  0  0  0  0  0  0  0
  -14.1532   -3.2528   -1.0755 H   0  0  0  0  0  0  0  0  0  0  0  0
  -14.3587   -2.9834    0.6152 H   0  0  0  0  0  0  0  0  0  0  0  0
  -15.8851   -6.0381    1.3639 H   0  0  0  0  0  0  0  0  0  0  0  0
  -14.8620   -4.8372    2.1035 H   0  0  0  0  0  0  0  0  0  0  0  0
  -14.1311   -7.2036    2.4620 H   0  0  0  0  0  0  0  0  0  0  0  0
  -12.8721   -6.1962    1.7560 H   0  0  0  0  0  0  0  0  0  0  0  0
  -12.4665   -8.8992    1.6754 H   0  0  0  0  0  0  0  0  0  0  0  0
  -11.5785   -7.8439    0.5625 H   0  0  0  0  0  0  0  0  0  0  0  0
  -12.4300   -9.2789   -0.0454 H   0  0  0  0  0  0  0  0  0  0  0  0
  -13.8835   -7.8293   -1.6080 H   0  0  0  0  0  0  0  0  0  0  0  0
  -12.6761   -6.6686   -1.0925 H   0  0  0  0  0  0  0  0  0  0  0  0
  -15.6896   -6.3743   -1.1953 H   0  0  0  0  0  0  0  0  0  0  0  0
  -14.5112   -5.4220   -2.0515 H   0  0  0  0  0  0  0  0  0  0  0  0
  -13.1849   -2.9924    2.7836 H   0  0  0  0  0  0  0  0  0  0  0  0
   -8.9784   -2.5672    4.2682 H   0  0  0  0  0  0  0  0  0  0  0  0
   -8.1718   -2.6496    2.7899 H   0  0  0  0  0  0  0  0  0  0  0  0
   -7.7458   -4.9465    2.1195 H   0  0  0  0  0  0  0  0  0  0  0  0
   -5.3027   -4.7982    2.0013 H   0  0  0  0  0  0  0  0  0  0  0  0
    0.6021   -2.1713   -0.4203 H   0  0  0  0  0  0  0  0  0  0  0  0
  1  2  1  0  0  0  0
  1 36  1  0  0  0  0
  1 37  1  0  0  0  0
  1 38  1  0  0  0  0
  2  3  1  0  0  0  0
  2 35  2  0  0  0  0
  3  4  2  0  0  0  0
  3 39  1  0  0  0  0
  4  5  1  0  0  0  0
  4 40  1  0  0  0  0
  5  6  2  0  0  0  0
  5 41  1  0  0  0  0
  6  7  1  0  0  0  0
  6 35  1  0  0  0  0
  7  8  1  0  0  0  0
  7 42  1  0  0  0  0
  8  9  2  0  0  0  0
  8 10  1  0  0  0  0
 10 11  1  0  0  0  0
 10 43  1  0  0  0  0
 11 12  1  0  0  0  0
 11 34  2  0  0  0  0
 12 13  2  0  0  0  0
 12 44  1  0  0  0  0
 13 14  1  0  0  0  0
 13 45  1  0  0  0  0
 14 15  1  0  0  0  0
 14 33  2  0  0  0  0
 15 16  1  0  0  0  0
 15 32  2  0  0  0  0
 16 17  2  0  0  0  0
 16 46  1  0  0  0  0
 17 18  1  0  0  0  0
 17 47  1  0  0  0  0
 18 19  1  0  0  0  0
 18 27  2  0  0  0  0
 19 20  1  0  0  0  0
 19 48  1  0  0  0  0
 19 49  1  0  0  0  0
 20 21  1  0  0  0  0
 20 26  1  0  0  0  0
 21 22  1  0  0  0  0
 21 50  1  0  0  0  0
 21 51  1  0  0  0  0
 22 23  1  0  0  0  0
 22 52  1  0  0  0  0
 22 53  1  0  0  0  0
 23 24  1  0  0  0  0
 23 25  1  0  0  0  0
 24 54  1  0  0  0  0
 24 55  1  0  0  0  0
 24 56  1  0  0  0  0
 25 26  1  0  0  0  0
 25 57  1  0  0  0  0
 25 58  1  0  0  0  0
 26 59  1  0  0  0  0
 26 60  1  0  0  0  0
 27 28  1  0  0  0  0
 27 32  1  0  0  0  0
 28 29  1  0  0  0  0
 28 61  1  0  0  0  0
 29 30  2  0  0  0  0
 30 31  1  0  0  0  0
 30 32  1  0  0  0  0
 31 62  1  0  0  0  0
 31 63  1  0  0  0  0
 33 34  1  0  0  0  0
 33 64  1  0  0  0  0
 34 65  1  0  0  0  0
 35 66  1  0  0  0  0
M  END
$$$$
