CHEMBL3917670
 OpenBabel04072215373D

 47 50  0  0  1  0  0  0  0  0999 V2000
    1.3440   -2.3672   -2.2564 C   0  0  0  0  0  0  0  0  0  0  0  0
    1.7340   -1.1390   -1.4232 C   0  0  1  0  0  0  0  0  0  0  0  0
    2.8889   -1.4389   -0.5559 N   0  0  0  0  0  0  0  0  0  0  0  0
    2.6314   -2.4014    0.4398 C   0  0  0  0  0  0  0  0  0  0  0  0
    1.3780   -2.5776    0.9295 N   0  0  0  0  0  0  0  0  0  0  0  0
    1.1670   -3.5348    1.8570 C   0  0  0  0  0  0  0  0  0  0  0  0
    2.0640   -4.3655    2.4113 N   0  0  0  0  0  0  0  0  0  0  0  0
    3.2886   -4.1513    1.9126 C   0  0  0  0  0  0  0  0  0  0  0  0
    4.4027   -4.8523    2.2760 N   0  0  0  0  0  0  0  0  0  0  0  0
    5.4990   -4.4367    1.5488 C   0  0  0  0  0  0  0  0  0  0  0  0
    6.8261   -5.0460    1.6753 C   0  0  0  0  0  0  0  0  0  0  0  0
    6.9781   -6.3957    2.0315 C   0  0  0  0  0  0  0  0  0  0  0  0
    8.2480   -6.9841    2.1055 C   0  0  0  0  0  0  0  0  0  0  0  0
    9.3872   -6.2237    1.8227 C   0  0  0  0  0  0  0  0  0  0  0  0
   10.7507   -6.8137    1.8268 C   0  0  0  0  0  0  0  0  0  0  0  0
   11.6470   -6.3495    1.1265 O   0  0  0  0  0  0  0  0  0  0  0  0
   10.9659   -7.8773    2.6734 N   0  0  0  0  0  0  0  0  0  0  0  0
   12.3063   -8.3263    2.7469 O   0  0  0  0  0  0  0  0  0  0  0  0
    9.2460   -4.8790    1.4663 C   0  0  0  0  0  0  0  0  0  0  0  0
    7.9764   -4.2956    1.3995 C   0  0  0  0  0  0  0  0  0  0  0  0
    5.0483   -3.4007    0.7379 C   0  0  0  0  0  0  0  0  0  0  0  0
    3.6526   -3.2194    0.9571 C   0  0  0  0  0  0  0  0  0  0  0  0
    2.0419    0.0257   -2.3685 C   0  0  0  0  0  0  0  0  0  0  0  0
    0.9901    0.8664   -2.7772 C   0  0  0  0  0  0  0  0  0  0  0  0
    1.2008    1.8930   -3.7010 C   0  0  0  0  0  0  0  0  0  0  0  0
    2.4712    2.1025   -4.2303 C   0  0  0  0  0  0  0  0  0  0  0  0
    3.5285    1.2868   -3.8341 C   0  0  0  0  0  0  0  0  0  0  0  0
    3.3163    0.2529   -2.9195 C   0  0  0  0  0  0  0  0  0  0  0  0
    0.9789   -3.1835   -1.6240 H   0  0  0  0  0  0  0  0  0  0  0  0
    2.1978   -2.7539   -2.8246 H   0  0  0  0  0  0  0  0  0  0  0  0
    0.5438   -2.1310   -2.9660 H   0  0  0  0  0  0  0  0  0  0  0  0
    0.8850   -0.8269   -0.8002 H   0  0  0  0  0  0  0  0  0  0  0  0
    3.1445   -0.5886   -0.0560 H   0  0  0  0  0  0  0  0  0  0  0  0
    0.1414   -3.6519    2.1940 H   0  0  0  0  0  0  0  0  0  0  0  0
    4.3928   -5.5800    2.9739 H   0  0  0  0  0  0  0  0  0  0  0  0
    6.1092   -7.0238    2.2145 H   0  0  0  0  0  0  0  0  0  0  0  0
    8.3198   -8.0439    2.3356 H   0  0  0  0  0  0  0  0  0  0  0  0
   10.3735   -8.0957    3.4662 H   0  0  0  0  0  0  0  0  0  0  0  0
   12.7491   -7.7670    2.0697 H   0  0  0  0  0  0  0  0  0  0  0  0
   10.1233   -4.2798    1.2289 H   0  0  0  0  0  0  0  0  0  0  0  0
    7.8993   -3.2468    1.1208 H   0  0  0  0  0  0  0  0  0  0  0  0
    5.6454   -2.8495    0.0226 H   0  0  0  0  0  0  0  0  0  0  0  0
   -0.0134    0.7123   -2.3894 H   0  0  0  0  0  0  0  0  0  0  0  0
    0.3703    2.5211   -4.0157 H   0  0  0  0  0  0  0  0  0  0  0  0
    2.6340    2.8964   -4.9553 H   0  0  0  0  0  0  0  0  0  0  0  0
    4.5191    1.4490   -4.2510 H   0  0  0  0  0  0  0  0  0  0  0  0
    4.1509   -0.3911   -2.6435 H   0  0  0  0  0  0  0  0  0  0  0  0
  1  2  1  0  0  0  0
  1 29  1  0  0  0  0
  1 30  1  0  0  0  0
  1 31  1  0  0  0  0
  2  3  1  0  0  0  0
  2 23  1  0  0  0  0
  2 32  1  1  0  0  0
  3  4  1  0  0  0  0
  3 33  1  0  0  0  0
  4  5  1  0  0  0  0
  4 22  2  0  0  0  0
  5  6  2  0  0  0  0
  6  7  1  0  0  0  0
  6 34  1  0  0  0  0
  7  8  2  0  0  0  0
  8  9  1  0  0  0  0
  8 22  1  0  0  0  0
  9 10  1  0  0  0  0
  9 35  1  0  0  0  0
 10 11  1  0  0  0  0
 10 21  2  0  0  0  0
 11 12  1  0  0  0  0
 11 20  2  0  0  0  0
 12 13  2  0  0  0  0
 12 36  1  0  0  0  0
 13 14  1  0  0  0  0
 13 37  1  0  0  0  0
 14 15  1  0  0  0  0
 14 19  2  0  0  0  0
 15 16  2  0  0  0  0
 15 17  1  0  0  0  0
 17 18  1  0  0  0  0
 17 38  1  0  0  0  0
 18 39  1  0  0  0  0
 19 20  1  0  0  0  0
 19 40  1  0  0  0  0
 20 41  1  0  0  0  0
 21 22  1  0  0  0  0
 21 42  1  0  0  0  0
 23 24  1  0  0  0  0
 23 28  2  0  0  0  0
 24 25  2  0  0  0  0
 24 43  1  0  0  0  0
 25 26  1  0  0  0  0
 25 44  1  0  0  0  0
 26 27  2  0  0  0  0
 26 45  1  0  0  0  0
 27 28  1  0  0  0  0
 27 46  1  0  0  0  0
 28 47  1  0  0  0  0
M  END
$$$$
