CHEMBL92564
 OpenBabel04072215383D

 37 40  0  0  0  0  0  0  0  0999 V2000
    2.7916    1.1123   -0.2671 C   0  0  0  0  0  0  0  0  0  0  0  0
    2.2896   -0.1246    0.2238 O   0  0  0  0  0  0  0  0  0  0  0  0
    3.2002   -0.9951    0.7551 C   0  0  0  0  0  0  0  0  0  0  0  0
    4.5812   -0.8052    0.8120 C   0  0  0  0  0  0  0  0  0  0  0  0
    5.4016   -1.7736    1.4033 C   0  0  0  0  0  0  0  0  0  0  0  0
    4.8475   -2.9414    1.9381 C   0  0  0  0  0  0  0  0  0  0  0  0
    5.7023   -3.9408    2.5712 C   0  0  0  0  0  0  0  0  0  0  0  0
    6.3139   -5.0650    1.7991 C   0  0  0  0  0  0  0  0  0  0  0  0
    7.0873   -5.9941    2.2749 N   0  0  0  0  0  0  0  0  0  0  0  0
    7.3451   -5.9344    3.6226 C   0  0  0  0  0  0  0  0  0  0  0  0
    8.0857   -6.7390    4.4701 C   0  0  0  0  0  0  0  0  0  0  0  0
    8.8325   -7.9233    4.0945 C   0  0  0  0  0  0  0  0  0  0  0  0
    9.3915   -8.0757    2.8287 C   0  0  0  0  0  0  0  0  0  0  0  0
   10.1103   -9.2326    2.5430 C   0  0  0  0  0  0  0  0  0  0  0  0
   10.2493  -10.2050    3.5237 C   0  0  0  0  0  0  0  0  0  0  0  0
    9.6689   -9.9730    4.7598 C   0  0  0  0  0  0  0  0  0  0  0  0
    8.9772   -8.8536    5.0715 N   0  0  0  0  0  0  0  0  0  0  0  0
    7.9107   -6.1648    5.7450 C   0  0  0  0  0  0  0  0  0  0  0  0
    7.1662   -5.0574    5.7272 N   0  0  0  0  0  0  0  0  0  0  0  0
    6.8035   -4.9227    4.4289 N   0  0  0  0  0  0  0  0  0  0  0  0
    5.9932   -3.9337    3.8806 C   0  0  0  0  0  0  0  0  0  0  0  0
    3.4653   -3.1363    1.8708 C   0  0  0  0  0  0  0  0  0  0  0  0
    2.6502   -2.1670    1.2805 C   0  0  0  0  0  0  0  0  0  0  0  0
    1.9372    1.7194   -0.5814 H   0  0  0  0  0  0  0  0  0  0  0  0
    3.4303    0.9534   -1.1420 H   0  0  0  0  0  0  0  0  0  0  0  0
    3.3216    1.6674    0.5142 H   0  0  0  0  0  0  0  0  0  0  0  0
    5.0524    0.0858    0.4103 H   0  0  0  0  0  0  0  0  0  0  0  0
    6.4754   -1.6019    1.4453 H   0  0  0  0  0  0  0  0  0  0  0  0
    6.0744   -5.0850    0.7219 H   0  0  0  0  0  0  0  0  0  0  0  0
    9.2833   -7.3083    2.0693 H   0  0  0  0  0  0  0  0  0  0  0  0
   10.5552   -9.3685    1.5615 H   0  0  0  0  0  0  0  0  0  0  0  0
   10.7975  -11.1199    3.3305 H   0  0  0  0  0  0  0  0  0  0  0  0
    9.7474  -10.7055    5.5582 H   0  0  0  0  0  0  0  0  0  0  0  0
    8.3152   -6.5117    6.6882 H   0  0  0  0  0  0  0  0  0  0  0  0
    5.6277   -3.1897    4.5762 H   0  0  0  0  0  0  0  0  0  0  0  0
    3.0089   -4.0355    2.2790 H   0  0  0  0  0  0  0  0  0  0  0  0
    1.5746   -2.3230    1.2359 H   0  0  0  0  0  0  0  0  0  0  0  0
  1  2  1  0  0  0  0
  1 24  1  0  0  0  0
  1 25  1  0  0  0  0
  1 26  1  0  0  0  0
  2  3  1  0  0  0  0
  3  4  1  0  0  0  0
  3 23  2  0  0  0  0
  4  5  2  0  0  0  0
  4 27  1  0  0  0  0
  5  6  1  0  0  0  0
  5 28  1  0  0  0  0
  6  7  1  0  0  0  0
  6 22  2  0  0  0  0
  7  8  1  0  0  0  0
  7 21  2  0  0  0  0
  8  9  2  0  0  0  0
  8 29  1  0  0  0  0
  9 10  1  0  0  0  0
 10 11  2  0  0  0  0
 10 20  1  0  0  0  0
 11 12  1  0  0  0  0
 11 18  1  0  0  0  0
 12 13  1  0  0  0  0
 12 17  2  0  0  0  0
 13 14  2  0  0  0  0
 13 30  1  0  0  0  0
 14 15  1  0  0  0  0
 14 31  1  0  0  0  0
 15 16  2  0  0  0  0
 15 32  1  0  0  0  0
 16 17  1  0  0  0  0
 16 33  1  0  0  0  0
 18 19  2  0  0  0  0
 18 34  1  0  0  0  0
 19 20  1  0  0  0  0
 20 21  1  0  0  0  0
 21 35  1  0  0  0  0
 22 23  1  0  0  0  0
 22 36  1  0  0  0  0
 23 37  1  0  0  0  0
M  END
$$$$
