CHEMBL1981047
 OpenBabel04072215363D

 65 69  0  0  1  0  0  0  0  0999 V2000
    1.7318    0.8616    2.1538 C   0  0  0  0  0  0  0  0  0  0  0  0
    2.0447    0.3629    0.8699 O   0  0  0  0  0  0  0  0  0  0  0  0
    2.7117   -0.8916    0.8056 C   0  0  3  0  0  0  0  0  0  0  0  0
    2.0586   -2.2341    1.3911 C   0  0  0  0  0  0  0  0  0  0  0  0
    2.7828   -3.1322    1.8298 O   0  0  0  0  0  0  0  0  0  0  0  0
    0.6801   -2.3567    1.4783 N   0  0  0  0  0  0  0  0  0  0  0  0
    0.0649   -3.5165    2.2109 C   0  0  0  0  0  0  0  0  0  0  0  0
   -1.3279   -3.3492    1.7673 C   0  0  0  0  0  0  0  0  0  0  0  0
   -2.5303   -3.8892    2.0429 N   0  0  0  0  0  0  0  0  0  0  0  0
   -3.4918   -3.3101    1.2788 N   0  0  0  0  0  0  0  0  0  0  0  0
   -2.8820   -2.3761    0.5370 C   0  0  0  0  0  0  0  0  0  0  0  0
   -3.5119   -1.5358   -0.3711 N   0  0  0  0  0  0  0  0  0  0  0  0
   -4.8782   -1.5556   -0.5816 C   0  0  0  0  0  0  0  0  0  0  0  0
   -5.6893   -2.2996   -0.0163 O   0  0  0  0  0  0  0  0  0  0  0  0
   -5.4646   -0.5951   -1.5501 C   0  0  0  0  0  0  0  0  0  0  0  0
   -4.7702   -0.0753   -2.6389 C   0  0  0  0  0  0  0  0  0  0  0  0
   -5.4314    0.7875   -3.5247 C   0  0  0  0  0  0  0  0  0  0  0  0
   -6.7759    1.1637   -3.3483 C   0  0  0  0  0  0  0  0  0  0  0  0
   -7.3566    2.0382   -4.2435 N   0  0  0  0  0  0  0  0  0  0  0  0
   -8.8006    2.0397   -4.5137 C   0  0  0  0  0  0  0  0  0  0  0  0
   -9.0185    2.5112   -5.9733 C   0  0  0  0  0  0  0  0  0  0  0  0
   -8.4249    3.8473   -6.2298 N   0  0  0  0  0  0  0  0  0  0  0  0
   -8.6179    4.2368   -7.6231 C   0  0  0  0  0  0  0  0  0  0  0  0
   -6.9811    3.8135   -5.8941 C   0  0  0  0  0  0  0  0  0  0  0  0
   -6.7237    3.3549   -4.4418 C   0  0  0  0  0  0  0  0  0  0  0  0
   -7.4690    0.5928   -2.2826 C   0  0  0  0  0  0  0  0  0  0  0  0
   -6.8215   -0.2657   -1.3906 C   0  0  0  0  0  0  0  0  0  0  0  0
   -1.5084   -2.3821    0.8260 C   0  0  0  0  0  0  0  0  0  0  0  0
   -0.2445   -1.7161    0.5096 C   0  0  0  0  0  0  0  0  0  0  0  0
    3.2051   -0.9923   -0.6528 C   0  0  0  0  0  0  0  0  0  0  0  0
    4.3746   -1.7035   -0.9630 C   0  0  0  0  0  0  0  0  0  0  0  0
    4.8881   -1.7208   -2.2678 C   0  0  0  0  0  0  0  0  0  0  0  0
    4.2411   -1.0350   -3.2952 C   0  0  0  0  0  0  0  0  0  0  0  0
    3.0949   -0.3026   -3.0099 C   0  0  0  0  0  0  0  0  0  0  0  0
    2.5922   -0.2700   -1.7027 C   0  0  0  0  0  0  0  0  0  0  0  0
    1.7554    1.9567    2.1054 H   0  0  0  0  0  0  0  0  0  0  0  0
    2.4229    0.5325    2.9334 H   0  0  0  0  0  0  0  0  0  0  0  0
    0.7074    0.5715    2.3890 H   0  0  0  0  0  0  0  0  0  0  0  0
    3.6290   -0.7821    1.4079 H   0  0  0  0  0  0  0  0  0  0  0  0
    0.2004   -3.3898    3.2896 H   0  0  0  0  0  0  0  0  0  0  0  0
    0.5101   -4.4515    1.8680 H   0  0  0  0  0  0  0  0  0  0  0  0
   -2.8125   -4.6074    2.6902 H   0  0  0  0  0  0  0  0  0  0  0  0
   -2.9356   -0.8598   -0.8417 H   0  0  0  0  0  0  0  0  0  0  0  0
   -3.7451   -0.3508   -2.8532 H   0  0  0  0  0  0  0  0  0  0  0  0
   -4.8981    1.1437   -4.4047 H   0  0  0  0  0  0  0  0  0  0  0  0
   -9.3278    2.7058   -3.8180 H   0  0  0  0  0  0  0  0  0  0  0  0
   -9.2257    1.0346   -4.4102 H   0  0  0  0  0  0  0  0  0  0  0  0
  -10.0949    2.5359   -6.1765 H   0  0  0  0  0  0  0  0  0  0  0  0
   -8.5721    1.7671   -6.6489 H   0  0  0  0  0  0  0  0  0  0  0  0
   -9.6862    4.2966   -7.8569 H   0  0  0  0  0  0  0  0  0  0  0  0
   -8.1489    3.5355   -8.3226 H   0  0  0  0  0  0  0  0  0  0  0  0
   -8.1996    5.2335   -7.8013 H   0  0  0  0  0  0  0  0  0  0  0  0
   -6.5432    4.8091   -6.0294 H   0  0  0  0  0  0  0  0  0  0  0  0
   -6.4530    3.1250   -6.5684 H   0  0  0  0  0  0  0  0  0  0  0  0
   -7.1385    4.0857   -3.7335 H   0  0  0  0  0  0  0  0  0  0  0  0
   -5.6418    3.3281   -4.2701 H   0  0  0  0  0  0  0  0  0  0  0  0
   -8.5175    0.8191   -2.1110 H   0  0  0  0  0  0  0  0  0  0  0  0
   -7.3898   -0.6881   -0.5621 H   0  0  0  0  0  0  0  0  0  0  0  0
   -0.3010   -0.6430    0.6923 H   0  0  0  0  0  0  0  0  0  0  0  0
    0.1095   -1.9510   -0.4950 H   0  0  0  0  0  0  0  0  0  0  0  0
    4.9220   -2.2243   -0.1805 H   0  0  0  0  0  0  0  0  0  0  0  0
    5.8061   -2.2627   -2.4821 H   0  0  0  0  0  0  0  0  0  0  0  0
    4.6397   -1.0570   -4.3061 H   0  0  0  0  0  0  0  0  0  0  0  0
    2.6026    0.2609   -3.7991 H   0  0  0  0  0  0  0  0  0  0  0  0
    1.7376    0.3770   -1.5082 H   0  0  0  0  0  0  0  0  0  0  0  0
  1  2  1  0  0  0  0
  1 36  1  0  0  0  0
  1 37  1  0  0  0  0
  1 38  1  0  0  0  0
  2  3  1  0  0  0  0
  3  4  1  0  0  0  0
  3 30  1  0  0  0  0
  3 39  1  0  0  0  0
  4  5  2  0  0  0  0
  4  6  1  0  0  0  0
  6  7  1  0  0  0  0
  6 29  1  0  0  0  0
  7  8  1  0  0  0  0
  7 40  1  0  0  0  0
  7 41  1  0  0  0  0
  8  9  1  0  0  0  0
  8 28  2  0  0  0  0
  9 10  1  0  0  0  0
  9 42  1  0  0  0  0
 10 11  2  0  0  0  0
 11 12  1  0  0  0  0
 11 28  1  0  0  0  0
 12 13  1  0  0  0  0
 12 43  1  0  0  0  0
 13 14  2  0  0  0  0
 13 15  1  0  0  0  0
 15 16  1  0  0  0  0
 15 27  2  0  0  0  0
 16 17  2  0  0  0  0
 16 44  1  0  0  0  0
 17 18  1  0  0  0  0
 17 45  1  0  0  0  0
 18 19  1  0  0  0  0
 18 26  2  0  0  0  0
 19 20  1  0  0  0  0
 19 25  1  0  0  0  0
 20 21  1  0  0  0  0
 20 46  1  0  0  0  0
 20 47  1  0  0  0  0
 21 22  1  0  0  0  0
 21 48  1  0  0  0  0
 21 49  1  0  0  0  0
 22 23  1  0  0  0  0
 22 24  1  0  0  0  0
 23 50  1  0  0  0  0
 23 51  1  0  0  0  0
 23 52  1  0  0  0  0
 24 25  1  0  0  0  0
 24 53  1  0  0  0  0
 24 54  1  0  0  0  0
 25 55  1  0  0  0  0
 25 56  1  0  0  0  0
 26 27  1  0  0  0  0
 26 57  1  0  0  0  0
 27 58  1  0  0  0  0
 28 29  1  0  0  0  0
 29 59  1  0  0  0  0
 29 60  1  0  0  0  0
 30 31  1  0  0  0  0
 30 35  2  0  0  0  0
 31 32  2  0  0  0  0
 31 61  1  0  0  0  0
 32 33  1  0  0  0  0
 32 62  1  0  0  0  0
 33 34  2  0  0  0  0
 33 63  1  0  0  0  0
 34 35  1  0  0  0  0
 34 64  1  0  0  0  0
 35 65  1  0  0  0  0
M  END
$$$$
