CHEMBL595373
 OpenBabel04072215383D

 65 70  0  0  0  0  0  0  0  0999 V2000
    2.4690   -1.6489   -0.2381 C   0  0  0  0  0  0  0  0  0  0  0  0
    2.4265   -0.2394    0.0087 O   0  0  0  0  0  0  0  0  0  0  0  0
    3.1377    0.5002   -0.9023 C   0  0  0  0  0  0  0  0  0  0  0  0
    4.2944   -0.0127   -1.4990 C   0  0  0  0  0  0  0  0  0  0  0  0
    4.8572    0.6074   -2.6283 C   0  0  0  0  0  0  0  0  0  0  0  0
    5.9177    0.0825   -3.3728 C   0  0  0  0  0  0  0  0  0  0  0  0
    6.4842   -1.1240   -2.9429 O   0  0  0  0  0  0  0  0  0  0  0  0
    7.7413   -1.4608   -3.3979 C   0  0  0  0  0  0  0  0  0  0  0  0
    8.7847   -0.5425   -3.5120 C   0  0  0  0  0  0  0  0  0  0  0  0
   10.0297   -0.9362   -4.0297 C   0  0  0  0  0  0  0  0  0  0  0  0
   10.2798   -2.2705   -4.3952 C   0  0  0  0  0  0  0  0  0  0  0  0
   11.5940   -2.6400   -4.9917 C   0  0  0  0  0  0  0  0  0  0  0  0
   12.6103   -1.8106   -5.1808 N   0  0  0  0  0  0  0  0  0  0  0  0
   13.6723   -2.4674   -5.8037 C   0  0  0  0  0  0  0  0  0  0  0  0
   14.9181   -1.9056   -6.1753 C   0  0  0  0  0  0  0  0  0  0  0  0
   15.8842   -2.7028   -6.8074 C   0  0  0  0  0  0  0  0  0  0  0  0
   15.6325   -4.0456   -7.0718 C   0  0  0  0  0  0  0  0  0  0  0  0
   14.4117   -4.6219   -6.7103 C   0  0  0  0  0  0  0  0  0  0  0  0
   13.4493   -3.8125   -6.0771 C   0  0  0  0  0  0  0  0  0  0  0  0
   11.8857   -4.2496   -5.5363 S   0  0  0  0  0  0  0  0  0  0  0  0
    9.2395   -3.1955   -4.1876 C   0  0  0  0  0  0  0  0  0  0  0  0
    7.9854   -2.7988   -3.6954 C   0  0  0  0  0  0  0  0  0  0  0  0
    6.3588    0.6362   -4.5179 N   0  0  0  0  0  0  0  0  0  0  0  0
    5.7707    1.7781   -4.8696 C   0  0  0  0  0  0  0  0  0  0  0  0
    4.7873    2.4047   -4.2087 N   0  0  0  0  0  0  0  0  0  0  0  0
    4.3220    1.8060   -3.1038 C   0  0  0  0  0  0  0  0  0  0  0  0
    3.2641    2.3843   -2.3972 C   0  0  0  0  0  0  0  0  0  0  0  0
    2.6764    1.7636   -1.2845 C   0  0  0  0  0  0  0  0  0  0  0  0
    1.6450    2.4729   -0.7148 O   0  0  0  0  0  0  0  0  0  0  0  0
    1.4438    2.2675    0.6902 C   0  0  0  0  0  0  0  0  0  0  0  0
    0.9160    3.5556    1.3342 C   0  0  0  0  0  0  0  0  0  0  0  0
    0.7879    3.3806    2.8575 C   0  0  0  0  0  0  0  0  0  0  0  0
    0.2411    4.5518    3.5650 N   0  0  0  0  0  0  0  0  0  0  0  0
    1.1015    5.7429    3.5060 C   0  0  0  0  0  0  0  0  0  0  0  0
    2.0386    5.6241    4.6906 C   0  0  0  0  0  0  0  0  0  0  0  0
    1.1534    5.0308    5.7658 C   0  0  0  0  0  0  0  0  0  0  0  0
    0.0727    4.2644    5.0070 C   0  0  0  0  0  0  0  0  0  0  0  0
    1.5883   -2.1107    0.2143 H   0  0  0  0  0  0  0  0  0  0  0  0
    3.3601   -2.0774    0.2320 H   0  0  0  0  0  0  0  0  0  0  0  0
    2.4493   -1.8874   -1.3101 H   0  0  0  0  0  0  0  0  0  0  0  0
    4.7389   -0.9321   -1.1301 H   0  0  0  0  0  0  0  0  0  0  0  0
    8.6372    0.4957   -3.2343 H   0  0  0  0  0  0  0  0  0  0  0  0
   10.8004   -0.1790   -4.1615 H   0  0  0  0  0  0  0  0  0  0  0  0
   15.1239   -0.8572   -5.9745 H   0  0  0  0  0  0  0  0  0  0  0  0
   16.8402   -2.2691   -7.0969 H   0  0  0  0  0  0  0  0  0  0  0  0
   16.3872   -4.6572   -7.5630 H   0  0  0  0  0  0  0  0  0  0  0  0
   14.2116   -5.6690   -6.9166 H   0  0  0  0  0  0  0  0  0  0  0  0
    9.3717   -4.2504   -4.4196 H   0  0  0  0  0  0  0  0  0  0  0  0
    7.2031   -3.5441   -3.5685 H   0  0  0  0  0  0  0  0  0  0  0  0
    6.1252    2.2461   -5.7822 H   0  0  0  0  0  0  0  0  0  0  0  0
    2.8683    3.3392   -2.7404 H   0  0  0  0  0  0  0  0  0  0  0  0
    2.3829    2.0028    1.1899 H   0  0  0  0  0  0  0  0  0  0  0  0
    0.7090    1.4660    0.8247 H   0  0  0  0  0  0  0  0  0  0  0  0
   -0.0519    3.8242    0.8932 H   0  0  0  0  0  0  0  0  0  0  0  0
    1.6028    4.3704    1.0821 H   0  0  0  0  0  0  0  0  0  0  0  0
    1.7576    3.0877    3.2792 H   0  0  0  0  0  0  0  0  0  0  0  0
    0.1029    2.5381    3.0255 H   0  0  0  0  0  0  0  0  0  0  0  0
    0.4666    6.6298    3.6287 H   0  0  0  0  0  0  0  0  0  0  0  0
    1.6426    5.8760    2.5668 H   0  0  0  0  0  0  0  0  0  0  0  0
    2.4596    6.5891    4.9889 H   0  0  0  0  0  0  0  0  0  0  0  0
    2.8683    4.9446    4.4640 H   0  0  0  0  0  0  0  0  0  0  0  0
    0.6978    5.8316    6.3607 H   0  0  0  0  0  0  0  0  0  0  0  0
    1.7234    4.3888    6.4447 H   0  0  0  0  0  0  0  0  0  0  0  0
   -0.9160    4.6112    5.3295 H   0  0  0  0  0  0  0  0  0  0  0  0
    0.1197    3.1942    5.2420 H   0  0  0  0  0  0  0  0  0  0  0  0
  1  2  1  0  0  0  0
  1 38  1  0  0  0  0
  1 39  1  0  0  0  0
  1 40  1  0  0  0  0
  2  3  1  0  0  0  0
  3  4  1  0  0  0  0
  3 28  2  0  0  0  0
  4  5  2  0  0  0  0
  4 41  1  0  0  0  0
  5  6  1  0  0  0  0
  5 26  1  0  0  0  0
  6  7  1  0  0  0  0
  6 23  2  0  0  0  0
  7  8  1  0  0  0  0
  8  9  1  0  0  0  0
  8 22  2  0  0  0  0
  9 10  2  0  0  0  0
  9 42  1  0  0  0  0
 10 11  1  0  0  0  0
 10 43  1  0  0  0  0
 11 12  1  0  0  0  0
 11 21  2  0  0  0  0
 12 13  2  0  0  0  0
 12 20  1  0  0  0  0
 13 14  1  0  0  0  0
 14 15  1  0  0  0  0
 14 19  2  0  0  0  0
 15 16  2  0  0  0  0
 15 44  1  0  0  0  0
 16 17  1  0  0  0  0
 16 45  1  0  0  0  0
 17 18  2  0  0  0  0
 17 46  1  0  0  0  0
 18 19  1  0  0  0  0
 18 47  1  0  0  0  0
 19 20  1  0  0  0  0
 21 22  1  0  0  0  0
 21 48  1  0  0  0  0
 22 49  1  0  0  0  0
 23 24  1  0  0  0  0
 24 25  2  0  0  0  0
 24 50  1  0  0  0  0
 25 26  1  0  0  0  0
 26 27  2  0  0  0  0
 27 28  1  0  0  0  0
 27 51  1  0  0  0  0
 28 29  1  0  0  0  0
 29 30  1  0  0  0  0
 30 31  1  0  0  0  0
 30 52  1  0  0  0  0
 30 53  1  0  0  0  0
 31 32  1  0  0  0  0
 31 54  1  0  0  0  0
 31 55  1  0  0  0  0
 32 33  1  0  0  0  0
 32 56  1  0  0  0  0
 32 57  1  0  0  0  0
 33 34  1  0  0  0  0
 33 37  1  0  0  0  0
 34 35  1  0  0  0  0
 34 58  1  0  0  0  0
 34 59  1  0  0  0  0
 35 36  1  0  0  0  0
 35 60  1  0  0  0  0
 35 61  1  0  0  0  0
 36 37  1  0  0  0  0
 36 62  1  0  0  0  0
 36 63  1  0  0  0  0
 37 64  1  0  0  0  0
 37 65  1  0  0  0  0
M  END
$$$$
