CHEMBL191189
 OpenBabel04072215363D

 56 59  0  0  0  0  0  0  0  0999 V2000
   -1.4197   -7.0479    0.3530 C   0  0  0  0  0  0  0  0  0  0  0  0
   -0.8919   -5.6912    0.2889 N   0  0  0  0  0  0  0  0  0  0  0  0
   -1.9700   -4.6996    0.1454 C   0  0  0  0  0  0  0  0  0  0  0  0
   -1.3846   -3.2737    0.0508 C   0  0  0  0  0  0  0  0  0  0  0  0
   -0.5740   -2.8674    1.2198 N   0  0  0  0  0  0  0  0  0  0  0  0
   -1.3609   -2.6430    2.4431 C   0  0  0  0  0  0  0  0  0  0  0  0
   -2.4200   -1.5425    2.2849 C   0  0  0  0  0  0  0  0  0  0  0  0
   -3.2159   -1.3377    3.5702 C   0  0  0  0  0  0  0  0  0  0  0  0
   -3.9231   -2.5658    3.9126 N   0  0  0  0  0  0  0  0  0  0  0  0
   -4.1105   -2.8019    5.2639 C   0  0  0  0  0  0  0  0  0  0  0  0
   -4.1615   -4.1045    5.7520 C   0  0  0  0  0  0  0  0  0  0  0  0
   -4.2508   -4.3362    7.0999 C   0  0  0  0  0  0  0  0  0  0  0  0
   -4.2420   -5.5767    7.5862 N   0  0  0  0  0  0  0  0  0  0  0  0
   -4.2447   -5.7303    8.9109 C   0  0  0  0  0  0  0  0  0  0  0  0
   -4.1640   -7.0935    9.2397 N   0  0  0  0  0  0  0  0  0  0  0  0
   -4.3203   -4.7231    9.8543 C   0  0  0  0  0  0  0  0  0  0  0  0
   -4.3142   -4.8976   11.3319 C   0  0  0  0  0  0  0  0  0  0  0  0
   -3.7451   -3.9124   12.1997 C   0  0  0  0  0  0  0  0  0  0  0  0
   -2.8986   -2.4723   11.6783 Cl  0  0  0  0  0  0  0  0  0  0  0  0
   -3.8270   -4.0293   13.5896 C   0  0  0  0  0  0  0  0  0  0  0  0
   -4.4661   -5.1156   14.1669 C   0  0  0  0  0  0  0  0  0  0  0  0
   -5.0049   -6.0941   13.3627 C   0  0  0  0  0  0  0  0  0  0  0  0
   -4.9213   -6.0108   11.9802 C   0  0  0  0  0  0  0  0  0  0  0  0
   -5.7342   -7.3639   11.2577 Cl  0  0  0  0  0  0  0  0  0  0  0  0
   -4.3904   -3.4396    9.3161 C   0  0  0  0  0  0  0  0  0  0  0  0
   -4.3266   -3.2281    7.9459 C   0  0  0  0  0  0  0  0  0  0  0  0
   -4.3355   -1.9587    7.3892 C   0  0  0  0  0  0  0  0  0  0  0  0
   -4.2131   -1.7349    6.0752 N   0  0  0  0  0  0  0  0  0  0  0  0
    0.4608   -3.9079    1.4361 C   0  0  0  0  0  0  0  0  0  0  0  0
   -0.0667   -5.3680    1.4677 C   0  0  0  0  0  0  0  0  0  0  0  0
   -1.9987   -7.2758   -0.5493 H   0  0  0  0  0  0  0  0  0  0  0  0
   -2.0640   -7.2049    1.2248 H   0  0  0  0  0  0  0  0  0  0  0  0
   -0.6006   -7.7743    0.3901 H   0  0  0  0  0  0  0  0  0  0  0  0
   -2.6771   -4.7639    0.9830 H   0  0  0  0  0  0  0  0  0  0  0  0
   -2.5385   -4.8990   -0.7704 H   0  0  0  0  0  0  0  0  0  0  0  0
   -2.1842   -2.5558   -0.1548 H   0  0  0  0  0  0  0  0  0  0  0  0
   -0.7409   -3.2192   -0.8376 H   0  0  0  0  0  0  0  0  0  0  0  0
   -0.6770   -2.3350    3.2463 H   0  0  0  0  0  0  0  0  0  0  0  0
   -1.8354   -3.5694    2.7850 H   0  0  0  0  0  0  0  0  0  0  0  0
   -3.1321   -1.8025    1.4953 H   0  0  0  0  0  0  0  0  0  0  0  0
   -1.9374   -0.6005    1.9954 H   0  0  0  0  0  0  0  0  0  0  0  0
   -3.9406   -0.5275    3.4294 H   0  0  0  0  0  0  0  0  0  0  0  0
   -2.5255   -1.0317    4.3690 H   0  0  0  0  0  0  0  0  0  0  0  0
   -3.8423   -3.3658    3.3017 H   0  0  0  0  0  0  0  0  0  0  0  0
   -4.0786   -4.9495    5.0784 H   0  0  0  0  0  0  0  0  0  0  0  0
   -4.1644   -7.7166    8.5010 H   0  0  0  0  0  0  0  0  0  0  0  0
   -3.6437   -7.3132   10.0780 H   0  0  0  0  0  0  0  0  0  0  0  0
   -3.3926   -3.2618   14.2260 H   0  0  0  0  0  0  0  0  0  0  0  0
   -4.5681   -5.1830   15.2406 H   0  0  0  0  0  0  0  0  0  0  0  0
   -5.5194   -6.9479   13.8050 H   0  0  0  0  0  0  0  0  0  0  0  0
   -4.4578   -2.5672    9.9412 H   0  0  0  0  0  0  0  0  0  0  0  0
   -4.4366   -1.0623    7.9945 H   0  0  0  0  0  0  0  0  0  0  0  0
    1.0256   -3.7000    2.3533 H   0  0  0  0  0  0  0  0  0  0  0  0
    1.1895   -3.8234    0.6188 H   0  0  0  0  0  0  0  0  0  0  0  0
   -0.6379   -5.5279    2.3915 H   0  0  0  0  0  0  0  0  0  0  0  0
    0.7978   -6.0417    1.5017 H   0  0  0  0  0  0  0  0  0  0  0  0
  1  2  1  0  0  0  0
  1 31  1  0  0  0  0
  1 32  1  0  0  0  0
  1 33  1  0  0  0  0
  2  3  1  0  0  0  0
  2 30  1  0  0  0  0
  3  4  1  0  0  0  0
  3 34  1  0  0  0  0
  3 35  1  0  0  0  0
  4  5  1  0  0  0  0
  4 36  1  0  0  0  0
  4 37  1  0  0  0  0
  5  6  1  0  0  0  0
  5 29  1  0  0  0  0
  6  7  1  0  0  0  0
  6 38  1  0  0  0  0
  6 39  1  0  0  0  0
  7  8  1  0  0  0  0
  7 40  1  0  0  0  0
  7 41  1  0  0  0  0
  8  9  1  0  0  0  0
  8 42  1  0  0  0  0
  8 43  1  0  0  0  0
  9 10  1  0  0  0  0
  9 44  1  0  0  0  0
 10 11  1  0  0  0  0
 10 28  2  0  0  0  0
 11 12  2  0  0  0  0
 11 45  1  0  0  0  0
 12 13  1  0  0  0  0
 12 26  1  0  0  0  0
 13 14  2  0  0  0  0
 14 15  1  0  0  0  0
 14 16  1  0  0  0  0
 15 46  1  0  0  0  0
 15 47  1  0  0  0  0
 16 17  1  0  0  0  0
 16 25  2  0  0  0  0
 17 18  1  0  0  0  0
 17 23  2  0  0  0  0
 18 19  1  0  0  0  0
 18 20  2  0  0  0  0
 20 21  1  0  0  0  0
 20 48  1  0  0  0  0
 21 22  2  0  0  0  0
 21 49  1  0  0  0  0
 22 23  1  0  0  0  0
 22 50  1  0  0  0  0
 23 24  1  0  0  0  0
 25 26  1  0  0  0  0
 25 51  1  0  0  0  0
 26 27  2  0  0  0  0
 27 28  1  0  0  0  0
 27 52  1  0  0  0  0
 29 30  1  0  0  0  0
 29 53  1  0  0  0  0
 29 54  1  0  0  0  0
 30 55  1  0  0  0  0
 30 56  1  0  0  0  0
M  END
$$$$
