CHEMBL1290030
 OpenBabel04072215363D

 51 55  0  0  0  0  0  0  0  0999 V2000
    6.8147    0.4075    3.8879 C   0  0  0  0  0  0  0  0  0  0  0  0
    5.9259    0.9976    2.9372 O   0  0  0  0  0  0  0  0  0  0  0  0
    4.7874    0.2783    2.6474 C   0  0  0  0  0  0  0  0  0  0  0  0
    4.3930   -0.8671    3.3683 C   0  0  0  0  0  0  0  0  0  0  0  0
    3.2264   -1.5572    3.0448 C   0  0  0  0  0  0  0  0  0  0  0  0
    2.4480   -1.1157    1.9822 C   0  0  0  0  0  0  0  0  0  0  0  0
    2.8168    0.0226    1.2652 C   0  0  0  0  0  0  0  0  0  0  0  0
    3.9790    0.7430    1.5805 C   0  0  0  0  0  0  0  0  0  0  0  0
    4.3669    1.9221    0.8607 N   0  0  0  0  0  0  0  0  0  0  0  0
    3.5829    2.5988   -0.0710 C   0  0  0  0  0  0  0  0  0  0  0  0
    2.4191    2.3371   -0.3438 O   0  0  0  0  0  0  0  0  0  0  0  0
    4.1530    3.8113   -0.7356 C   0  0  0  0  0  0  0  0  0  0  0  0
    5.4924    3.9510   -1.1073 C   0  0  0  0  0  0  0  0  0  0  0  0
    5.9196    5.1094   -1.8081 C   0  0  0  0  0  0  0  0  0  0  0  0
    5.0165    6.1369   -2.1414 C   0  0  0  0  0  0  0  0  0  0  0  0
    5.4413    7.4455   -2.7961 C   0  0  0  0  0  0  0  0  0  0  0  0
    6.0614    7.2451   -4.4863 S   0  0  0  0  0  0  0  0  0  0  0  0
    6.3121    8.9439   -4.9962 C   0  0  0  0  0  0  0  0  0  0  0  0
    5.7237    9.9793   -4.3343 N   0  0  0  0  0  0  0  0  0  0  0  0
    5.9454   11.2813   -4.6828 N   0  0  0  0  0  0  0  0  0  0  0  0
    6.8803   11.4738   -5.6543 C   0  0  0  0  0  0  0  0  0  0  0  0
    7.4221   10.3616   -6.2836 C   0  0  0  0  0  0  0  0  0  0  0  0
    7.1389    9.0754   -6.0503 N   0  0  0  0  0  0  0  0  0  0  0  0
    8.4176   10.8017   -7.1016 N   0  0  0  0  0  0  0  0  0  0  0  0
    8.7727   12.0620   -6.6799 C   0  0  0  0  0  0  0  0  0  0  0  0
   10.0007   12.7204   -6.7184 C   0  0  0  0  0  0  0  0  0  0  0  0
   10.0169   14.0447   -6.2842 C   0  0  0  0  0  0  0  0  0  0  0  0
    8.8309   14.7059   -5.9621 C   0  0  0  0  0  0  0  0  0  0  0  0
    7.6200   14.0024   -5.8473 C   0  0  0  0  0  0  0  0  0  0  0  0
    7.6330   12.6108   -6.0810 C   0  0  0  0  0  0  0  0  0  0  0  0
    3.6698    5.9624   -1.7982 C   0  0  0  0  0  0  0  0  0  0  0  0
    3.2483    4.8157   -1.1118 C   0  0  0  0  0  0  0  0  0  0  0  0
    7.6781    1.0666    4.0048 H   0  0  0  0  0  0  0  0  0  0  0  0
    7.1800   -0.5632    3.5315 H   0  0  0  0  0  0  0  0  0  0  0  0
    6.3463    0.3101    4.8749 H   0  0  0  0  0  0  0  0  0  0  0  0
    4.9658   -1.2455    4.2092 H   0  0  0  0  0  0  0  0  0  0  0  0
    2.9304   -2.4361    3.6084 H   0  0  0  0  0  0  0  0  0  0  0  0
    1.5425   -1.6487    1.7084 H   0  0  0  0  0  0  0  0  0  0  0  0
    2.1867    0.3075    0.4315 H   0  0  0  0  0  0  0  0  0  0  0  0
    5.2465    2.3213    1.1604 H   0  0  0  0  0  0  0  0  0  0  0  0
    6.2129    3.1635   -0.9054 H   0  0  0  0  0  0  0  0  0  0  0  0
    6.9687    5.1939   -2.0902 H   0  0  0  0  0  0  0  0  0  0  0  0
    6.1934    7.9276   -2.1618 H   0  0  0  0  0  0  0  0  0  0  0  0
    4.5761    8.1157   -2.8416 H   0  0  0  0  0  0  0  0  0  0  0  0
    8.9720   10.1967   -7.6874 H   0  0  0  0  0  0  0  0  0  0  0  0
   10.9134   12.1993   -6.9878 H   0  0  0  0  0  0  0  0  0  0  0  0
   10.9683   14.5662   -6.2051 H   0  0  0  0  0  0  0  0  0  0  0  0
    8.8627   15.7678   -5.7270 H   0  0  0  0  0  0  0  0  0  0  0  0
    6.7240   14.5147   -5.5088 H   0  0  0  0  0  0  0  0  0  0  0  0
    2.9289    6.7167   -2.0510 H   0  0  0  0  0  0  0  0  0  0  0  0
    2.1918    4.7135   -0.8671 H   0  0  0  0  0  0  0  0  0  0  0  0
  1  2  1  0  0  0  0
  1 33  1  0  0  0  0
  1 34  1  0  0  0  0
  1 35  1  0  0  0  0
  2  3  1  0  0  0  0
  3  4  1  0  0  0  0
  3  8  2  0  0  0  0
  4  5  2  0  0  0  0
  4 36  1  0  0  0  0
  5  6  1  0  0  0  0
  5 37  1  0  0  0  0
  6  7  2  0  0  0  0
  6 38  1  0  0  0  0
  7  8  1  0  0  0  0
  7 39  1  0  0  0  0
  8  9  1  0  0  0  0
  9 10  1  0  0  0  0
  9 40  1  0  0  0  0
 10 11  2  0  0  0  0
 10 12  1  0  0  0  0
 12 13  1  0  0  0  0
 12 32  2  0  0  0  0
 13 14  2  0  0  0  0
 13 41  1  0  0  0  0
 14 15  1  0  0  0  0
 14 42  1  0  0  0  0
 15 16  1  0  0  0  0
 15 31  2  0  0  0  0
 16 17  1  0  0  0  0
 16 43  1  0  0  0  0
 16 44  1  0  0  0  0
 17 18  1  0  0  0  0
 18 19  1  0  0  0  0
 18 23  2  0  0  0  0
 19 20  2  0  0  0  0
 20 21  1  0  0  0  0
 21 22  2  0  0  0  0
 21 30  1  0  0  0  0
 22 23  1  0  0  0  0
 22 24  1  0  0  0  0
 24 25  1  0  0  0  0
 24 45  1  0  0  0  0
 25 26  1  0  0  0  0
 25 30  2  0  0  0  0
 26 27  2  0  0  0  0
 26 46  1  0  0  0  0
 27 28  1  0  0  0  0
 27 47  1  0  0  0  0
 28 29  2  0  0  0  0
 28 48  1  0  0  0  0
 29 30  1  0  0  0  0
 29 49  1  0  0  0  0
 31 32  1  0  0  0  0
 31 50  1  0  0  0  0
 32 51  1  0  0  0  0
M  END
$$$$
