CHEMBL3911854
 OpenBabel04072215373D

 50 53  0  0  0  0  0  0  0  0999 V2000
    0.7900    0.6752   -1.1059 C   0  0  0  0  0  0  0  0  0  0  0  0
    2.0995    1.1362   -1.4306 O   0  0  0  0  0  0  0  0  0  0  0  0
    2.8385    1.6483   -0.3949 C   0  0  0  0  0  0  0  0  0  0  0  0
    2.3871    1.7689    0.9208 C   0  0  0  0  0  0  0  0  0  0  0  0
    3.2272    2.2922    1.8958 C   0  0  0  0  0  0  0  0  0  0  0  0
    4.5103    2.7170    1.5541 C   0  0  0  0  0  0  0  0  0  0  0  0
    4.9717    2.6504    0.2323 C   0  0  0  0  0  0  0  0  0  0  0  0
    6.2598    3.1363   -0.1339 N   0  0  0  0  0  0  0  0  0  0  0  0
    6.9098    4.1315    0.5809 C   0  0  0  0  0  0  0  0  0  0  0  0
    6.3617    4.7850    1.4666 O   0  0  0  0  0  0  0  0  0  0  0  0
    8.2398    4.3135    0.2304 N   0  0  0  0  0  0  0  0  0  0  0  0
    9.1586    5.0346    1.0470 C   0  0  0  0  0  0  0  0  0  0  0  0
    8.9447    5.2052    2.4217 C   0  0  0  0  0  0  0  0  0  0  0  0
    9.8974    5.7922    3.2604 C   0  0  0  0  0  0  0  0  0  0  0  0
   11.1433    6.1559    2.7530 C   0  0  0  0  0  0  0  0  0  0  0  0
   12.3563    6.1434    3.6768 C   0  0  0  0  0  0  0  0  0  0  0  0
   13.6312    5.8313    3.1674 C   0  0  0  0  0  0  0  0  0  0  0  0
   13.5721    4.3919    3.1418 C   0  0  0  0  0  0  0  0  0  0  0  0
   14.0712    3.4015    2.2827 C   0  0  0  0  0  0  0  0  0  0  0  0
   13.6624    2.0779    2.4849 C   0  0  0  0  0  0  0  0  0  0  0  0
   12.8489    1.7219    3.5638 C   0  0  0  0  0  0  0  0  0  0  0  0
   12.3798    2.6845    4.4602 C   0  0  0  0  0  0  0  0  0  0  0  0
   12.7121    4.0104    4.1751 C   0  0  0  0  0  0  0  0  0  0  0  0
   12.3535    5.2170    4.7635 N   0  0  0  0  0  0  0  0  0  0  0  0
   11.9851    5.4100    6.1035 C   0  0  0  0  0  0  0  0  0  0  0  0
   12.4285    6.6043    6.5969 N   0  0  0  0  0  0  0  0  0  0  0  0
   11.4762    4.5222    6.7710 O   0  0  0  0  0  0  0  0  0  0  0  0
   11.3144    6.1077    1.3501 C   0  0  0  0  0  0  0  0  0  0  0  0
   10.3455    5.5283    0.5077 C   0  0  0  0  0  0  0  0  0  0  0  0
    4.1350    2.0808   -0.7331 C   0  0  0  0  0  0  0  0  0  0  0  0
    0.3504    0.2381   -2.0071 H   0  0  0  0  0  0  0  0  0  0  0  0
    0.1468    1.5048   -0.7905 H   0  0  0  0  0  0  0  0  0  0  0  0
    0.8205   -0.1107   -0.3425 H   0  0  0  0  0  0  0  0  0  0  0  0
    1.3908    1.4656    1.2249 H   0  0  0  0  0  0  0  0  0  0  0  0
    2.8875    2.3802    2.9245 H   0  0  0  0  0  0  0  0  0  0  0  0
    5.1388    3.0978    2.3543 H   0  0  0  0  0  0  0  0  0  0  0  0
    6.5881    2.9294   -1.0661 H   0  0  0  0  0  0  0  0  0  0  0  0
    8.5260    4.0844   -0.7095 H   0  0  0  0  0  0  0  0  0  0  0  0
    8.0664    4.7881    2.9078 H   0  0  0  0  0  0  0  0  0  0  0  0
    9.6899    5.8154    4.3259 H   0  0  0  0  0  0  0  0  0  0  0  0
   14.1377    6.4084    2.4037 H   0  0  0  0  0  0  0  0  0  0  0  0
   14.6723    3.6733    1.4220 H   0  0  0  0  0  0  0  0  0  0  0  0
   13.9673    1.3148    1.7748 H   0  0  0  0  0  0  0  0  0  0  0  0
   12.5489    0.6870    3.6994 H   0  0  0  0  0  0  0  0  0  0  0  0
   11.7232    2.4220    5.2838 H   0  0  0  0  0  0  0  0  0  0  0  0
   13.1742    7.0939    6.1177 H   0  0  0  0  0  0  0  0  0  0  0  0
   12.4561    6.6434    7.6105 H   0  0  0  0  0  0  0  0  0  0  0  0
   12.2613    6.4013    0.9002 H   0  0  0  0  0  0  0  0  0  0  0  0
   10.5651    5.4267   -0.5517 H   0  0  0  0  0  0  0  0  0  0  0  0
    4.4550    1.9982   -1.7678 H   0  0  0  0  0  0  0  0  0  0  0  0
  1  2  1  0  0  0  0
  1 31  1  0  0  0  0
  1 32  1  0  0  0  0
  1 33  1  0  0  0  0
  2  3  1  0  0  0  0
  3  4  1  0  0  0  0
  3 30  2  0  0  0  0
  4  5  2  0  0  0  0
  4 34  1  0  0  0  0
  5  6  1  0  0  0  0
  5 35  1  0  0  0  0
  6  7  2  0  0  0  0
  6 36  1  0  0  0  0
  7  8  1  0  0  0  0
  7 30  1  0  0  0  0
  8  9  1  0  0  0  0
  8 37  1  0  0  0  0
  9 10  2  0  0  0  0
  9 11  1  0  0  0  0
 11 12  1  0  0  0  0
 11 38  1  0  0  0  0
 12 13  1  0  0  0  0
 12 29  2  0  0  0  0
 13 14  2  0  0  0  0
 13 39  1  0  0  0  0
 14 15  1  0  0  0  0
 14 40  1  0  0  0  0
 15 16  1  0  0  0  0
 15 28  2  0  0  0  0
 16 17  2  0  0  0  0
 16 24  1  0  0  0  0
 17 18  1  0  0  0  0
 17 41  1  0  0  0  0
 18 19  1  0  0  0  0
 18 23  2  0  0  0  0
 19 20  2  0  0  0  0
 19 42  1  0  0  0  0
 20 21  1  0  0  0  0
 20 43  1  0  0  0  0
 21 22  2  0  0  0  0
 21 44  1  0  0  0  0
 22 23  1  0  0  0  0
 22 45  1  0  0  0  0
 23 24  1  0  0  0  0
 24 25  1  0  0  0  0
 25 26  1  0  0  0  0
 25 27  2  0  0  0  0
 26 46  1  0  0  0  0
 26 47  1  0  0  0  0
 28 29  1  0  0  0  0
 28 48  1  0  0  0  0
 29 49  1  0  0  0  0
 30 50  1  0  0  0  0
M  END
$$$$
