CHEMBL4539051
 OpenBabel04072215383D

 63 67  0  0  0  0  0  0  0  0999 V2000
    4.8471    2.6696    6.9282 C   0  0  0  0  0  0  0  0  0  0  0  0
    5.8588    1.7423    6.5426 O   0  0  0  0  0  0  0  0  0  0  0  0
    5.5401    0.9005    5.5084 C   0  0  0  0  0  0  0  0  0  0  0  0
    4.2919    0.8444    4.8868 C   0  0  0  0  0  0  0  0  0  0  0  0
    4.0865   -0.0225    3.8244 C   0  0  0  0  0  0  0  0  0  0  0  0
    5.1238   -0.8385    3.3854 C   0  0  0  0  0  0  0  0  0  0  0  0
    6.3853   -0.8108    3.9915 C   0  0  0  0  0  0  0  0  0  0  0  0
    7.4807   -1.5985    3.5431 N   0  0  0  0  0  0  0  0  0  0  0  0
    7.4475   -2.4790    2.4912 C   0  0  0  0  0  0  0  0  0  0  0  0
    6.4064   -2.7463    1.8853 O   0  0  0  0  0  0  0  0  0  0  0  0
    8.6496   -3.0630    2.0646 N   0  0  0  0  0  0  0  0  0  0  0  0
    8.5393   -3.7301    0.7480 C   0  0  0  0  0  0  0  0  0  0  0  0
    8.8372   -5.2126    0.6590 C   0  0  0  0  0  0  0  0  0  0  0  0
    9.6071   -5.7977    1.8025 C   0  0  0  0  0  0  0  0  0  0  0  0
   10.0633   -4.8413    2.8472 C   0  0  0  0  0  0  0  0  0  0  0  0
   10.9348   -5.4101    3.7740 C   0  0  0  0  0  0  0  0  0  0  0  0
   11.6933   -4.6566    4.6579 C   0  0  0  0  0  0  0  0  0  0  0  0
   12.6522   -5.4213    5.3497 N   0  0  0  0  0  0  0  0  0  0  0  0
   13.7961   -5.1137    6.1167 C   0  0  0  0  0  0  0  0  0  0  0  0
   13.9824   -3.8608    6.5540 N   0  0  0  0  0  0  0  0  0  0  0  0
   15.1037   -3.6424    7.2543 C   0  0  0  0  0  0  0  0  0  0  0  0
   16.0427   -4.5447    7.5395 N   0  0  0  0  0  0  0  0  0  0  0  0
   15.8471   -5.7975    7.1080 C   0  0  0  0  0  0  0  0  0  0  0  0
   16.8206   -6.7507    7.3793 C   0  0  0  0  0  0  0  0  0  0  0  0
   16.7218   -8.0950    6.9807 C   0  0  0  0  0  0  0  0  0  0  0  0
   17.7081   -9.0058    7.2504 O   0  0  0  0  0  0  0  0  0  0  0  0
   18.4957   -8.7679    8.4124 C   0  0  0  0  0  0  0  0  0  0  0  0
   15.5934   -8.4989    6.2660 C   0  0  0  0  0  0  0  0  0  0  0  0
   15.2946   -9.7365    5.7604 O   0  0  0  0  0  0  0  0  0  0  0  0
   16.2662  -10.7725    5.8467 C   0  0  0  0  0  0  0  0  0  0  0  0
   14.5925   -7.5468    6.0010 C   0  0  0  0  0  0  0  0  0  0  0  0
   14.7080   -6.1757    6.4013 C   0  0  0  0  0  0  0  0  0  0  0  0
   11.3929   -3.3033    4.7410 C   0  0  0  0  0  0  0  0  0  0  0  0
   10.3993   -2.7273    3.8897 C   0  0  0  0  0  0  0  0  0  0  0  0
    9.7056   -3.5018    2.9340 C   0  0  0  0  0  0  0  0  0  0  0  0
    6.5793    0.0634    5.0679 C   0  0  0  0  0  0  0  0  0  0  0  0
    5.2809    3.3659    7.6507 H   0  0  0  0  0  0  0  0  0  0  0  0
    4.0141    2.1509    7.4154 H   0  0  0  0  0  0  0  0  0  0  0  0
    4.4948    3.2630    6.0763 H   0  0  0  0  0  0  0  0  0  0  0  0
    3.4577    1.4628    5.1949 H   0  0  0  0  0  0  0  0  0  0  0  0
    3.1248   -0.0660    3.3205 H   0  0  0  0  0  0  0  0  0  0  0  0
    4.8905   -1.4803    2.5451 H   0  0  0  0  0  0  0  0  0  0  0  0
    8.3573   -1.4417    4.0018 H   0  0  0  0  0  0  0  0  0  0  0  0
    9.1773   -3.1726    0.0523 H   0  0  0  0  0  0  0  0  0  0  0  0
    7.5350   -3.6197    0.3193 H   0  0  0  0  0  0  0  0  0  0  0  0
    9.3807   -5.4047   -0.2763 H   0  0  0  0  0  0  0  0  0  0  0  0
    7.9064   -5.7837    0.5540 H   0  0  0  0  0  0  0  0  0  0  0  0
    9.0287   -6.5947    2.2811 H   0  0  0  0  0  0  0  0  0  0  0  0
   10.5130   -6.2613    1.3860 H   0  0  0  0  0  0  0  0  0  0  0  0
   11.0656   -6.4904    3.7505 H   0  0  0  0  0  0  0  0  0  0  0  0
   12.9237   -6.1689    4.7181 H   0  0  0  0  0  0  0  0  0  0  0  0
   15.2677   -2.6407    7.6100 H   0  0  0  0  0  0  0  0  0  0  0  0
   17.7013   -6.3951    7.9025 H   0  0  0  0  0  0  0  0  0  0  0  0
   19.1060   -9.6579    8.5912 H   0  0  0  0  0  0  0  0  0  0  0  0
   17.8618   -8.6101    9.2915 H   0  0  0  0  0  0  0  0  0  0  0  0
   19.1748   -7.9238    8.2606 H   0  0  0  0  0  0  0  0  0  0  0  0
   15.8826  -11.6411    5.3001 H   0  0  0  0  0  0  0  0  0  0  0  0
   16.4134  -11.0854    6.8849 H   0  0  0  0  0  0  0  0  0  0  0  0
   17.2073  -10.4863    5.3658 H   0  0  0  0  0  0  0  0  0  0  0  0
   13.7095   -7.8959    5.4650 H   0  0  0  0  0  0  0  0  0  0  0  0
   11.9372   -2.6644    5.4336 H   0  0  0  0  0  0  0  0  0  0  0  0
   10.2736   -1.6481    3.9489 H   0  0  0  0  0  0  0  0  0  0  0  0
    7.5388    0.1144    5.5750 H   0  0  0  0  0  0  0  0  0  0  0  0
  1  2  1  0  0  0  0
  1 37  1  0  0  0  0
  1 38  1  0  0  0  0
  1 39  1  0  0  0  0
  2  3  1  0  0  0  0
  3  4  1  0  0  0  0
  3 36  2  0  0  0  0
  4  5  2  0  0  0  0
  4 40  1  0  0  0  0
  5  6  1  0  0  0  0
  5 41  1  0  0  0  0
  6  7  2  0  0  0  0
  6 42  1  0  0  0  0
  7  8  1  0  0  0  0
  7 36  1  0  0  0  0
  8  9  1  0  0  0  0
  8 43  1  0  0  0  0
  9 10  2  0  0  0  0
  9 11  1  0  0  0  0
 11 12  1  0  0  0  0
 11 35  1  0  0  0  0
 12 13  1  0  0  0  0
 12 44  1  0  0  0  0
 12 45  1  0  0  0  0
 13 14  1  0  0  0  0
 13 46  1  0  0  0  0
 13 47  1  0  0  0  0
 14 15  1  0  0  0  0
 14 48  1  0  0  0  0
 14 49  1  0  0  0  0
 15 16  1  0  0  0  0
 15 35  2  0  0  0  0
 16 17  2  0  0  0  0
 16 50  1  0  0  0  0
 17 18  1  0  0  0  0
 17 33  1  0  0  0  0
 18 19  1  0  0  0  0
 18 51  1  0  0  0  0
 19 20  1  0  0  0  0
 19 32  2  0  0  0  0
 20 21  2  0  0  0  0
 21 22  1  0  0  0  0
 21 52  1  0  0  0  0
 22 23  2  0  0  0  0
 23 24  1  0  0  0  0
 23 32  1  0  0  0  0
 24 25  2  0  0  0  0
 24 53  1  0  0  0  0
 25 26  1  0  0  0  0
 25 28  1  0  0  0  0
 26 27  1  0  0  0  0
 27 54  1  0  0  0  0
 27 55  1  0  0  0  0
 27 56  1  0  0  0  0
 28 29  1  0  0  0  0
 28 31  2  0  0  0  0
 29 30  1  0  0  0  0
 30 57  1  0  0  0  0
 30 58  1  0  0  0  0
 30 59  1  0  0  0  0
 31 32  1  0  0  0  0
 31 60  1  0  0  0  0
 33 34  2  0  0  0  0
 33 61  1  0  0  0  0
 34 35  1  0  0  0  0
 34 62  1  0  0  0  0
 36 63  1  0  0  0  0
M  END
$$$$
