CHEMBL4580861
 OpenBabel04072215383D

 67 72  0  0  0  0  0  0  0  0999 V2000
   -4.1867   -0.5384   -0.4472 O   0  0  0  0  0  0  0  0  0  0  0  0
   -3.9134   -0.9964    0.6553 C   0  0  0  0  0  0  0  0  0  0  0  0
   -3.1803   -2.1387    0.9039 N   0  0  0  0  0  0  0  0  0  0  0  0
   -2.6623   -2.9157   -0.1348 C   0  0  0  0  0  0  0  0  0  0  0  0
   -1.9388   -2.3304   -1.1576 C   0  0  0  0  0  0  0  0  0  0  0  0
   -1.5841   -3.1082   -2.2590 C   0  0  0  0  0  0  0  0  0  0  0  0
   -0.9524   -2.6088   -3.3805 O   0  0  0  0  0  0  0  0  0  0  0  0
   -1.1301   -1.2714   -3.6550 C   0  0  0  0  0  0  0  0  0  0  0  0
   -2.3869   -0.6525   -3.5975 C   0  0  0  0  0  0  0  0  0  0  0  0
   -2.5041    0.7316   -3.7470 C   0  0  0  0  0  0  0  0  0  0  0  0
   -1.3861    1.5139   -4.0443 C   0  0  0  0  0  0  0  0  0  0  0  0
   -1.5440    2.8897   -4.3373 N   0  0  0  0  0  0  0  0  0  0  0  0
   -0.7553    3.6302   -5.2390 C   0  0  0  0  0  0  0  0  0  0  0  0
    0.1445    2.9414   -5.9868 N   0  0  0  0  0  0  0  0  0  0  0  0
    1.1790    3.5788   -6.5561 C   0  0  0  0  0  0  0  0  0  0  0  0
    1.4249    4.9188   -6.3840 C   0  0  0  0  0  0  0  0  0  0  0  0
    0.4709    5.6552   -5.6955 C   0  0  0  0  0  0  0  0  0  0  0  0
   -0.7056    5.0148   -5.2429 C   0  0  0  0  0  0  0  0  0  0  0  0
   -1.8326    5.9342   -4.8644 C   0  0  0  0  0  0  0  0  0  0  0  0
   -2.8602    5.5113   -4.3436 O   0  0  0  0  0  0  0  0  0  0  0  0
   -1.5874    7.4329   -5.0425 C   0  0  0  0  0  0  0  0  0  0  0  0
   -1.1856    8.1084   -6.3541 C   0  0  0  0  0  0  0  0  0  0  0  0
   -0.7298    7.1499   -7.8435 C   0  0  0  0  0  0  0  0  0  0  0  0
    0.6215    7.6969   -8.9171 C   0  0  0  0  0  0  0  0  0  0  0  0
    1.5841    9.1499   -8.4623 C   0  0  0  0  0  0  0  0  0  0  0  0
    2.7019    9.4415   -9.1382 F   0  0  0  0  0  0  0  0  0  0  0  0
    1.1530   10.1365   -7.0376 C   0  0  0  0  0  0  0  0  0  0  0  0
   -0.2155    9.6193   -5.9916 C   0  0  0  0  0  0  0  0  0  0  0  0
   -0.3762    7.4762   -4.4512 C   0  0  0  0  0  0  0  0  0  0  0  0
    0.6278    7.0619   -5.3832 N   0  0  0  0  0  0  0  0  0  0  0  0
    0.8628    8.0108   -6.8006 C   0  0  0  0  0  0  0  0  0  0  0  0
   -0.5151    9.2184   -7.9965 C   0  0  0  0  0  0  0  0  0  0  0  0
   -1.9968    8.9933   -8.3330 O   0  0  0  0  0  0  0  0  0  0  0  0
   -0.1343    0.8674   -4.1135 C   0  0  0  0  0  0  0  0  0  0  0  0
   -0.0141   -0.5091   -3.9560 C   0  0  0  0  0  0  0  0  0  0  0  0
    1.1949   -1.0805   -4.0809 F   0  0  0  0  0  0  0  0  0  0  0  0
   -1.8865   -4.4611   -2.2603 C   0  0  0  0  0  0  0  0  0  0  0  0
   -2.5460   -4.9710   -1.1549 C   0  0  0  0  0  0  0  0  0  0  0  0
   -2.9168   -4.2354   -0.0795 N   0  0  0  0  0  0  0  0  0  0  0  0
   -4.4410   -0.3527    1.8940 C   0  0  0  0  0  0  0  0  0  0  0  0
   -5.9099   -0.4231    2.2411 C   0  0  0  0  0  0  0  0  0  0  0  0
   -5.3123    0.8820    1.8056 C   0  0  0  0  0  0  0  0  0  0  0  0
   -3.4209   -2.6618    1.7322 H   0  0  0  0  0  0  0  0  0  0  0  0
   -1.6840   -1.2777   -1.0997 H   0  0  0  0  0  0  0  0  0  0  0  0
   -3.2757   -1.2372   -3.3749 H   0  0  0  0  0  0  0  0  0  0  0  0
   -3.4854    1.1832   -3.6310 H   0  0  0  0  0  0  0  0  0  0  0  0
   -2.4623    3.2926   -4.1660 H   0  0  0  0  0  0  0  0  0  0  0  0
    1.8440    2.9409   -7.1285 H   0  0  0  0  0  0  0  0  0  0  0  0
    2.3193    5.3606   -6.7960 H   0  0  0  0  0  0  0  0  0  0  0  0
   -1.2152    6.1988   -8.0502 H   0  0  0  0  0  0  0  0  0  0  0  0
    0.9463    7.0966   -9.7649 H   0  0  0  0  0  0  0  0  0  0  0  0
    1.7814   10.9713   -6.7334 H   0  0  0  0  0  0  0  0  0  0  0  0
   -0.4261   10.1914   -5.0834 H   0  0  0  0  0  0  0  0  0  0  0  0
   -0.0116    8.3714   -3.9557 H   0  0  0  0  0  0  0  0  0  0  0  0
    1.4511    7.2073   -7.3125 H   0  0  0  0  0  0  0  0  0  0  0  0
    1.8024    8.4595   -6.3887 H   0  0  0  0  0  0  0  0  0  0  0  0
   -0.2362    9.5094   -9.0515 H   0  0  0  0  0  0  0  0  0  0  0  0
   -0.6914   10.3083   -7.7478 H   0  0  0  0  0  0  0  0  0  0  0  0
   -2.0284    8.6999   -9.2603 H   0  0  0  0  0  0  0  0  0  0  0  0
    0.7779    1.4256   -4.2967 H   0  0  0  0  0  0  0  0  0  0  0  0
   -1.6290   -5.0936   -3.1014 H   0  0  0  0  0  0  0  0  0  0  0  0
   -2.8297   -6.0187   -1.1151 H   0  0  0  0  0  0  0  0  0  0  0  0
   -3.7460   -0.3757    2.7283 H   0  0  0  0  0  0  0  0  0  0  0  0
   -6.1846   -0.5238    3.2851 H   0  0  0  0  0  0  0  0  0  0  0  0
   -6.5909   -0.9123    1.5533 H   0  0  0  0  0  0  0  0  0  0  0  0
   -5.1659    1.6574    2.5484 H   0  0  0  0  0  0  0  0  0  0  0  0
   -5.5898    1.2595    0.8264 H   0  0  0  0  0  0  0  0  0  0  0  0
  1  2  2  0  0  0  0
  2  3  1  0  0  0  0
  2 40  1  0  0  0  0
  3  4  1  0  0  0  0
  3 43  1  0  0  0  0
  4  5  1  0  0  0  0
  4 39  2  0  0  0  0
  5  6  2  0  0  0  0
  5 44  1  0  0  0  0
  6  7  1  0  0  0  0
  6 37  1  0  0  0  0
  7  8  1  0  0  0  0
  8  9  1  0  0  0  0
  8 35  2  0  0  0  0
  9 10  2  0  0  0  0
  9 45  1  0  0  0  0
 10 11  1  0  0  0  0
 10 46  1  0  0  0  0
 11 12  1  0  0  0  0
 11 34  2  0  0  0  0
 12 13  1  0  0  0  0
 12 47  1  0  0  0  0
 13 14  1  0  0  0  0
 13 18  2  0  0  0  0
 14 15  2  0  0  0  0
 15 16  1  0  0  0  0
 15 48  1  0  0  0  0
 16 17  2  0  0  0  0
 16 49  1  0  0  0  0
 17 18  1  0  0  0  0
 17 30  1  0  0  0  0
 18 19  1  0  0  0  0
 19 20  2  0  0  0  0
 19 21  1  0  0  0  0
 21 22  1  0  0  0  0
 21 29  2  0  0  0  0
 22 23  1  0  0  0  0
 22 28  2  0  0  0  0
 23 24  2  0  0  0  0
 23 50  1  0  0  0  0
 24 25  1  0  0  0  0
 24 51  1  0  0  0  0
 25 26  1  0  0  0  0
 25 27  2  0  0  0  0
 27 28  1  0  0  0  0
 27 52  1  0  0  0  0
 28 53  1  0  0  0  0
 29 30  1  0  0  0  0
 29 54  1  0  0  0  0
 30 31  1  0  0  0  0
 31 32  1  0  0  0  0
 31 55  1  0  0  0  0
 31 56  1  0  0  0  0
 32 33  1  0  0  0  0
 32 57  1  0  0  0  0
 32 58  1  0  0  0  0
 33 59  1  0  0  0  0
 34 35  1  0  0  0  0
 34 60  1  0  0  0  0
 35 36  1  0  0  0  0
 37 38  2  0  0  0  0
 37 61  1  0  0  0  0
 38 39  1  0  0  0  0
 38 62  1  0  0  0  0
 40 41  1  0  0  0  0
 40 42  1  0  0  0  0
 40 63  1  0  0  0  0
 41 42  1  0  0  0  0
 41 64  1  0  0  0  0
 41 65  1  0  0  0  0
 42 66  1  0  0  0  0
 42 67  1  0  0  0  0
M  END
$$$$
