CHEMBL1940855
 OpenBabel04072215363D

 33 35  0  0  0  0  0  0  0  0999 V2000
    0.9890    0.0428    0.0347 C   0  0  0  0  0  0  0  0  0  0  0  0
    2.4873    0.0482    0.1141 C   0  0  0  0  0  0  0  0  0  0  0  0
    3.2129    1.2396    0.1262 C   0  0  0  0  0  0  0  0  0  0  0  0
    4.6078    1.2084    0.1976 C   0  0  0  0  0  0  0  0  0  0  0  0
    5.2910   -0.0198    0.2442 C   0  0  0  0  0  0  0  0  0  0  0  0
    6.6961   -0.1013    0.2834 C   0  0  0  0  0  0  0  0  0  0  0  0
    7.3468   -1.3414    0.2849 C   0  0  0  0  0  0  0  0  0  0  0  0
    8.8226   -1.3295    0.2631 C   0  0  0  0  0  0  0  0  0  0  0  0
    9.6084   -2.2167    0.8918 C   0  0  0  0  0  0  0  0  0  0  0  0
   11.1008   -2.1090    0.8620 C   0  0  0  0  0  0  0  0  0  0  0  0
   11.6334   -1.4262   -0.0155 O   0  0  0  0  0  0  0  0  0  0  0  0
   11.8359   -2.8546    1.8726 C   0  0  0  0  0  0  0  0  0  0  0  0
   13.3742   -3.5021    1.4510 S   0  0  0  0  0  0  0  0  0  0  0  0
   13.5949   -4.1853    3.0003 C   0  0  0  0  0  0  0  0  0  0  0  0
   12.5339   -3.9172    3.8341 C   0  0  0  0  0  0  0  0  0  0  0  0
   11.5250   -3.1412    3.1923 C   0  0  0  0  0  0  0  0  0  0  0  0
   10.1446   -2.6328    4.0709 Cl  0  0  0  0  0  0  0  0  0  0  0  0
    6.5130   -2.4619    0.2457 C   0  0  0  0  0  0  0  0  0  0  0  0
    7.0782   -4.0864    0.1130 Cl  0  0  0  0  0  0  0  0  0  0  0  0
    5.1612   -2.4242    0.2461 N   0  0  0  0  0  0  0  0  0  0  0  0
    4.5646   -1.2258    0.2348 C   0  0  0  0  0  0  0  0  0  0  0  0
    3.1802   -1.1690    0.1847 C   0  0  0  0  0  0  0  0  0  0  0  0
    0.5938    1.0437   -0.1661 H   0  0  0  0  0  0  0  0  0  0  0  0
    0.5646   -0.3122    0.9788 H   0  0  0  0  0  0  0  0  0  0  0  0
    0.6569   -0.6130   -0.7768 H   0  0  0  0  0  0  0  0  0  0  0  0
    2.7011    2.1998    0.0733 H   0  0  0  0  0  0  0  0  0  0  0  0
    5.1553    2.1465    0.2002 H   0  0  0  0  0  0  0  0  0  0  0  0
    7.2774    0.8194    0.2987 H   0  0  0  0  0  0  0  0  0  0  0  0
    9.2815   -0.4987   -0.2751 H   0  0  0  0  0  0  0  0  0  0  0  0
    9.2046   -3.0435    1.4621 H   0  0  0  0  0  0  0  0  0  0  0  0
   14.4940   -4.7398    3.2318 H   0  0  0  0  0  0  0  0  0  0  0  0
   12.4908   -4.2499    4.8643 H   0  0  0  0  0  0  0  0  0  0  0  0
    2.6262   -2.1048    0.1825 H   0  0  0  0  0  0  0  0  0  0  0  0
  1  2  1  0  0  0  0
  1 23  1  0  0  0  0
  1 24  1  0  0  0  0
  1 25  1  0  0  0  0
  2  3  1  0  0  0  0
  2 22  2  0  0  0  0
  3  4  2  0  0  0  0
  3 26  1  0  0  0  0
  4  5  1  0  0  0  0
  4 27  1  0  0  0  0
  5  6  1  0  0  0  0
  5 21  2  0  0  0  0
  6  7  2  0  0  0  0
  6 28  1  0  0  0  0
  7  8  1  0  0  0  0
  7 18  1  0  0  0  0
  8  9  2  0  0  0  0
  8 29  1  0  0  0  0
  9 10  1  0  0  0  0
  9 30  1  0  0  0  0
 10 11  2  0  0  0  0
 10 12  1  0  0  0  0
 12 13  1  0  0  0  0
 12 16  2  0  0  0  0
 13 14  1  0  0  0  0
 14 15  2  0  0  0  0
 14 31  1  0  0  0  0
 15 16  1  0  0  0  0
 15 32  1  0  0  0  0
 16 17  1  0  0  0  0
 18 19  1  0  0  0  0
 18 20  2  0  0  0  0
 20 21  1  0  0  0  0
 21 22  1  0  0  0  0
 22 33  1  0  0  0  0
M  END
$$$$
