CHEMBL188087
 OpenBabel04072215363D

 74 77  0  0  0  0  0  0  0  0999 V2000
    2.3161   -1.2946   -0.7493 C   0  0  0  0  0  0  0  0  0  0  0  0
    2.4259   -2.1066    0.5315 C   0  0  0  0  0  0  0  0  0  0  0  0
    3.0834   -1.3885    1.6102 N   0  0  0  0  0  0  0  0  0  0  0  0
    4.4608   -1.3955    1.7298 C   0  0  0  0  0  0  0  0  0  0  0  0
    5.1947   -1.9789    0.9397 O   0  0  0  0  0  0  0  0  0  0  0  0
    4.8865   -0.6910    2.8401 N   0  0  0  0  0  0  0  0  0  0  0  0
    6.2716   -0.6717    3.1213 C   0  0  0  0  0  0  0  0  0  0  0  0
    6.7123   -1.6428    3.9676 N   0  0  0  0  0  0  0  0  0  0  0  0
    8.0332   -1.7155    4.2509 C   0  0  0  0  0  0  0  0  0  0  0  0
    8.5511   -2.7148    5.0666 C   0  0  0  0  0  0  0  0  0  0  0  0
    9.8996   -2.7367    5.4314 C   0  0  0  0  0  0  0  0  0  0  0  0
   10.3697   -3.7735    6.2689 N   0  0  0  0  0  0  0  0  0  0  0  0
   11.5490   -3.3878    7.0602 C   0  0  0  0  0  0  0  0  0  0  0  0
   11.9874   -4.5717    7.9348 C   0  0  0  0  0  0  0  0  0  0  0  0
   13.1928   -4.2579    8.8451 C   0  0  0  0  0  0  0  0  0  0  0  0
   12.9676   -3.1385    9.7589 N   0  0  0  0  0  0  0  0  0  0  0  0
   11.8659   -3.3420   10.7130 C   0  0  0  0  0  0  0  0  0  0  0  0
   11.5754   -2.0054   11.4281 C   0  0  0  0  0  0  0  0  0  0  0  0
   12.7123   -1.4832   12.2116 N   0  0  0  0  0  0  0  0  0  0  0  0
   12.9141   -2.2660   13.4272 C   0  0  0  0  0  0  0  0  0  0  0  0
   13.9236   -1.4684   11.3592 C   0  0  0  0  0  0  0  0  0  0  0  0
   14.1757   -2.7530   10.5193 C   0  0  0  0  0  0  0  0  0  0  0  0
   10.7672   -1.8367    4.9344 N   0  0  0  0  0  0  0  0  0  0  0  0
   10.2715   -0.8887    4.1048 C   0  0  0  0  0  0  0  0  0  0  0  0
    8.9422   -0.7806    3.7536 C   0  0  0  0  0  0  0  0  0  0  0  0
    8.4552    0.2537    2.9429 C   0  0  0  0  0  0  0  0  0  0  0  0
    7.0932    0.3531    2.6089 C   0  0  0  0  0  0  0  0  0  0  0  0
    6.6149    1.5522    1.8708 C   0  0  0  0  0  0  0  0  0  0  0  0
    7.4580    2.2409    0.9776 C   0  0  0  0  0  0  0  0  0  0  0  0
    7.0607    3.4269    0.3573 C   0  0  0  0  0  0  0  0  0  0  0  0
    7.8391    4.1808   -0.4804 O   0  0  0  0  0  0  0  0  0  0  0  0
    9.1642    3.7199   -0.7129 C   0  0  0  0  0  0  0  0  0  0  0  0
    5.7785    3.9266    0.5833 C   0  0  0  0  0  0  0  0  0  0  0  0
    4.9103    3.2626    1.4402 C   0  0  0  0  0  0  0  0  0  0  0  0
    3.6273    3.6226    1.7480 O   0  0  0  0  0  0  0  0  0  0  0  0
    3.1363    4.8011    1.1239 C   0  0  0  0  0  0  0  0  0  0  0  0
    5.3446    2.1062    2.0913 C   0  0  0  0  0  0  0  0  0  0  0  0
    1.8014   -1.8762   -1.5210 H   0  0  0  0  0  0  0  0  0  0  0  0
    3.3030   -1.0201   -1.1352 H   0  0  0  0  0  0  0  0  0  0  0  0
    1.7488   -0.3722   -0.5866 H   0  0  0  0  0  0  0  0  0  0  0  0
    2.9813   -3.0288    0.3302 H   0  0  0  0  0  0  0  0  0  0  0  0
    1.4271   -2.3861    0.8808 H   0  0  0  0  0  0  0  0  0  0  0  0
    2.5982   -0.5987    2.0170 H   0  0  0  0  0  0  0  0  0  0  0  0
    4.3461   -0.9743    3.6461 H   0  0  0  0  0  0  0  0  0  0  0  0
    7.8732   -3.4707    5.4414 H   0  0  0  0  0  0  0  0  0  0  0  0
    9.6135   -4.0774    6.8757 H   0  0  0  0  0  0  0  0  0  0  0  0
   11.2820   -2.5337    7.6953 H   0  0  0  0  0  0  0  0  0  0  0  0
   12.3852   -3.0932    6.4144 H   0  0  0  0  0  0  0  0  0  0  0  0
   12.2518   -5.4170    7.2880 H   0  0  0  0  0  0  0  0  0  0  0  0
   11.1405   -4.9217    8.5366 H   0  0  0  0  0  0  0  0  0  0  0  0
   14.0417   -4.0142    8.1927 H   0  0  0  0  0  0  0  0  0  0  0  0
   13.4714   -5.1627    9.4000 H   0  0  0  0  0  0  0  0  0  0  0  0
   12.1069   -4.1341   11.4345 H   0  0  0  0  0  0  0  0  0  0  0  0
   10.9439   -3.6447   10.2102 H   0  0  0  0  0  0  0  0  0  0  0  0
   10.6852   -2.1042   12.0604 H   0  0  0  0  0  0  0  0  0  0  0  0
   11.3106   -1.2576   10.6668 H   0  0  0  0  0  0  0  0  0  0  0  0
   11.9950   -2.2840   14.0244 H   0  0  0  0  0  0  0  0  0  0  0  0
   13.6836   -1.8027   14.0535 H   0  0  0  0  0  0  0  0  0  0  0  0
   13.2117   -3.3010   13.2327 H   0  0  0  0  0  0  0  0  0  0  0  0
   14.8094   -1.2380   11.9647 H   0  0  0  0  0  0  0  0  0  0  0  0
   13.8210   -0.6271   10.6602 H   0  0  0  0  0  0  0  0  0  0  0  0
   14.4972   -3.5680   11.1823 H   0  0  0  0  0  0  0  0  0  0  0  0
   15.0059   -2.5509    9.8319 H   0  0  0  0  0  0  0  0  0  0  0  0
   11.0324   -0.1990    3.7284 H   0  0  0  0  0  0  0  0  0  0  0  0
    9.1649    1.0108    2.6165 H   0  0  0  0  0  0  0  0  0  0  0  0
    8.4454    1.8408    0.7775 H   0  0  0  0  0  0  0  0  0  0  0  0
    9.6560    4.4254   -1.3857 H   0  0  0  0  0  0  0  0  0  0  0  0
    9.1606    2.7389   -1.2013 H   0  0  0  0  0  0  0  0  0  0  0  0
    9.7449    3.6903    0.2192 H   0  0  0  0  0  0  0  0  0  0  0  0
    5.4906    4.8418    0.0780 H   0  0  0  0  0  0  0  0  0  0  0  0
    2.1039    4.9461    1.4544 H   0  0  0  0  0  0  0  0  0  0  0  0
    3.1282    4.6950    0.0347 H   0  0  0  0  0  0  0  0  0  0  0  0
    3.7165    5.6739    1.4371 H   0  0  0  0  0  0  0  0  0  0  0  0
    4.6533    1.6610    2.8003 H   0  0  0  0  0  0  0  0  0  0  0  0
  1  2  1  0  0  0  0
  1 38  1  0  0  0  0
  1 39  1  0  0  0  0
  1 40  1  0  0  0  0
  2  3  1  0  0  0  0
  2 41  1  0  0  0  0
  2 42  1  0  0  0  0
  3  4  1  0  0  0  0
  3 43  1  0  0  0  0
  4  5  2  0  0  0  0
  4  6  1  0  0  0  0
  6  7  1  0  0  0  0
  6 44  1  0  0  0  0
  7  8  1  0  0  0  0
  7 27  2  0  0  0  0
  8  9  2  0  0  0  0
  9 10  1  0  0  0  0
  9 25  1  0  0  0  0
 10 11  2  0  0  0  0
 10 45  1  0  0  0  0
 11 12  1  0  0  0  0
 11 23  1  0  0  0  0
 12 13  1  0  0  0  0
 12 46  1  0  0  0  0
 13 14  1  0  0  0  0
 13 47  1  0  0  0  0
 13 48  1  0  0  0  0
 14 15  1  0  0  0  0
 14 49  1  0  0  0  0
 14 50  1  0  0  0  0
 15 16  1  0  0  0  0
 15 51  1  0  0  0  0
 15 52  1  0  0  0  0
 16 17  1  0  0  0  0
 16 22  1  0  0  0  0
 17 18  1  0  0  0  0
 17 53  1  0  0  0  0
 17 54  1  0  0  0  0
 18 19  1  0  0  0  0
 18 55  1  0  0  0  0
 18 56  1  0  0  0  0
 19 20  1  0  0  0  0
 19 21  1  0  0  0  0
 20 57  1  0  0  0  0
 20 58  1  0  0  0  0
 20 59  1  0  0  0  0
 21 22  1  0  0  0  0
 21 60  1  0  0  0  0
 21 61  1  0  0  0  0
 22 62  1  0  0  0  0
 22 63  1  0  0  0  0
 23 24  2  0  0  0  0
 24 25  1  0  0  0  0
 24 64  1  0  0  0  0
 25 26  2  0  0  0  0
 26 27  1  0  0  0  0
 26 65  1  0  0  0  0
 27 28  1  0  0  0  0
 28 29  1  0  0  0  0
 28 37  2  0  0  0  0
 29 30  2  0  0  0  0
 29 66  1  0  0  0  0
 30 31  1  0  0  0  0
 30 33  1  0  0  0  0
 31 32  1  0  0  0  0
 32 67  1  0  0  0  0
 32 68  1  0  0  0  0
 32 69  1  0  0  0  0
 33 34  2  0  0  0  0
 33 70  1  0  0  0  0
 34 35  1  0  0  0  0
 34 37  1  0  0  0  0
 35 36  1  0  0  0  0
 36 71  1  0  0  0  0
 36 72  1  0  0  0  0
 36 73  1  0  0  0  0
 37 74  1  0  0  0  0
M  END
$$$$
