CHEMBL1076330
 OpenBabel04072215353D

 34 37  0  0  0  0  0  0  0  0999 V2000
    2.1427    0.2088   -0.0258 C   0  0  0  0  0  0  0  0  0  0  0  0
    0.7128   -0.0061   -0.0542 N   0  0  0  0  0  0  0  0  0  0  0  0
   -0.1929    1.0156   -0.0643 C   0  0  0  0  0  0  0  0  0  0  0  0
   -1.4233    0.5688   -0.0598 N   0  0  0  0  0  0  0  0  0  0  0  0
   -1.3181   -0.8099   -0.0481 C   0  0  0  0  0  0  0  0  0  0  0  0
   -2.5093   -1.6537   -0.0368 C   0  0  0  0  0  0  0  0  0  0  0  0
   -2.5423   -2.9028   -0.6720 C   0  0  0  0  0  0  0  0  0  0  0  0
   -3.6555   -3.7373   -0.5609 C   0  0  0  0  0  0  0  0  0  0  0  0
   -4.7793   -3.3085    0.1379 C   0  0  0  0  0  0  0  0  0  0  0  0
   -4.7958   -2.0376    0.7092 C   0  0  0  0  0  0  0  0  0  0  0  0
   -3.6673   -1.2149    0.6220 C   0  0  0  0  0  0  0  0  0  0  0  0
    0.0201   -1.2031   -0.0194 C   0  0  0  0  0  0  0  0  0  0  0  0
    0.6059   -2.5185    0.0726 C   0  0  0  0  0  0  0  0  0  0  0  0
    0.0141   -3.4993    0.7259 N   0  0  0  0  0  0  0  0  0  0  0  0
    0.7262   -4.6846    0.5590 C   0  0  0  0  0  0  0  0  0  0  0  0
    0.4229   -5.9849    1.0040 C   0  0  0  0  0  0  0  0  0  0  0  0
   -0.7567   -6.3109    1.6550 N   0  0  0  0  0  0  0  0  0  0  0  0
    1.3112   -6.9772    0.7793 N   0  0  0  0  0  0  0  0  0  0  0  0
    2.4354   -6.6917    0.0960 C   0  0  0  0  0  0  0  0  0  0  0  0
    2.8043   -5.5128   -0.4226 N   0  0  0  0  0  0  0  0  0  0  0  0
    1.9014   -4.5542   -0.1589 C   0  0  0  0  0  0  0  0  0  0  0  0
    2.0617   -2.9662   -0.7345 S   0  0  0  0  0  0  0  0  0  0  0  0
    2.3534    1.2787    0.0544 H   0  0  0  0  0  0  0  0  0  0  0  0
    2.5687   -0.1581   -0.9622 H   0  0  0  0  0  0  0  0  0  0  0  0
    2.5628   -0.3078    0.8403 H   0  0  0  0  0  0  0  0  0  0  0  0
    0.0935    2.0598   -0.0698 H   0  0  0  0  0  0  0  0  0  0  0  0
   -1.6915   -3.2564   -1.2456 H   0  0  0  0  0  0  0  0  0  0  0  0
   -3.6342   -4.7239   -1.0160 H   0  0  0  0  0  0  0  0  0  0  0  0
   -5.6426   -3.9616    0.2298 H   0  0  0  0  0  0  0  0  0  0  0  0
   -5.6822   -1.6891    1.2322 H   0  0  0  0  0  0  0  0  0  0  0  0
   -3.6916   -0.2285    1.0817 H   0  0  0  0  0  0  0  0  0  0  0  0
   -1.2569   -5.5261    2.0571 H   0  0  0  0  0  0  0  0  0  0  0  0
   -0.6992   -7.1713    2.1827 H   0  0  0  0  0  0  0  0  0  0  0  0
    3.1236   -7.5178   -0.0559 H   0  0  0  0  0  0  0  0  0  0  0  0
  1  2  1  0  0  0  0
  1 23  1  0  0  0  0
  1 24  1  0  0  0  0
  1 25  1  0  0  0  0
  2  3  1  0  0  0  0
  2 12  1  0  0  0  0
  3  4  2  0  0  0  0
  3 26  1  0  0  0  0
  4  5  1  0  0  0  0
  5  6  1  0  0  0  0
  5 12  2  0  0  0  0
  6  7  1  0  0  0  0
  6 11  2  0  0  0  0
  7  8  2  0  0  0  0
  7 27  1  0  0  0  0
  8  9  1  0  0  0  0
  8 28  1  0  0  0  0
  9 10  2  0  0  0  0
  9 29  1  0  0  0  0
 10 11  1  0  0  0  0
 10 30  1  0  0  0  0
 11 31  1  0  0  0  0
 12 13  1  0  0  0  0
 13 14  2  0  0  0  0
 13 22  1  0  0  0  0
 14 15  1  0  0  0  0
 15 16  1  0  0  0  0
 15 21  2  0  0  0  0
 16 17  1  0  0  0  0
 16 18  2  0  0  0  0
 17 32  1  0  0  0  0
 17 33  1  0  0  0  0
 18 19  1  0  0  0  0
 19 20  2  0  0  0  0
 19 34  1  0  0  0  0
 20 21  1  0  0  0  0
 21 22  1  0  0  0  0
M  END
$$$$
