CHEMBL3621299
 OpenBabel04072215363D

 49 51  0  0  0  0  0  0  0  0999 V2000
    5.2191   -4.5860    3.4683 C   0  0  0  0  0  0  0  0  0  0  0  0
    4.5372   -5.0223    1.8518 S   0  0  0  0  0  0  0  0  0  0  0  0
    5.3579   -3.7453    0.8448 C   0  0  0  0  0  0  0  0  0  0  0  0
    4.9696   -3.9128   -0.6227 C   0  0  0  0  0  0  0  0  0  0  0  0
    5.5986   -2.8378   -1.5091 C   0  0  0  0  0  0  0  0  0  0  0  0
    7.0498   -2.8977   -1.5260 N   0  0  0  0  0  0  0  0  0  0  0  0
    7.7148   -3.7435   -2.3887 C   0  0  0  0  0  0  0  0  0  0  0  0
    7.1435   -4.4963   -3.1694 O   0  0  0  0  0  0  0  0  0  0  0  0
    9.2037   -3.6744   -2.3854 C   0  0  0  0  0  0  0  0  0  0  0  0
    9.8486   -3.9224   -3.6198 C   0  0  0  0  0  0  0  0  0  0  0  0
   11.2374   -3.8887   -3.7227 C   0  0  0  0  0  0  0  0  0  0  0  0
   11.9452   -3.6176   -2.5706 C   0  0  0  0  0  0  0  0  0  0  0  0
   11.3368   -3.3891   -1.3293 C   0  0  0  0  0  0  0  0  0  0  0  0
    9.9527   -3.4111   -1.2199 C   0  0  0  0  0  0  0  0  0  0  0  0
   12.4476   -3.1756   -0.3788 C   0  0  0  0  0  0  0  0  0  0  0  0
   12.3508   -3.0056    0.9501 C   0  0  0  0  0  0  0  0  0  0  0  0
   13.4891   -2.8945    1.7877 C   0  0  0  0  0  0  0  0  0  0  0  0
   14.0288   -1.6490    2.0061 N   0  0  0  0  0  0  0  0  0  0  0  0
   15.1462   -1.7504    2.8000 C   0  0  0  0  0  0  0  0  0  0  0  0
   15.9803   -0.5767    3.1566 C   0  0  0  0  0  0  0  0  0  0  0  0
   15.3072   -3.0843    3.1094 C   0  0  0  0  0  0  0  0  0  0  0  0
   14.2678   -3.8170    2.4688 C   0  0  0  0  0  0  0  0  0  0  0  0
   14.1019   -5.2931    2.4951 C   0  0  0  0  0  0  0  0  0  0  0  0
   13.7301   -3.2355   -1.1829 C   0  0  0  0  0  0  0  0  0  0  0  0
   14.8766   -3.0418   -0.8319 O   0  0  0  0  0  0  0  0  0  0  0  0
   13.3267   -3.5299   -2.4723 N   0  0  0  0  0  0  0  0  0  0  0  0
    4.8320   -5.2805    4.2188 H   0  0  0  0  0  0  0  0  0  0  0  0
    4.9203   -3.5721    3.7466 H   0  0  0  0  0  0  0  0  0  0  0  0
    6.3096   -4.6600    3.4572 H   0  0  0  0  0  0  0  0  0  0  0  0
    6.4411   -3.8426    0.9689 H   0  0  0  0  0  0  0  0  0  0  0  0
    5.0520   -2.7581    1.2068 H   0  0  0  0  0  0  0  0  0  0  0  0
    3.8790   -3.8447   -0.7272 H   0  0  0  0  0  0  0  0  0  0  0  0
    5.2693   -4.9056   -0.9808 H   0  0  0  0  0  0  0  0  0  0  0  0
    5.3134   -1.8373   -1.1679 H   0  0  0  0  0  0  0  0  0  0  0  0
    5.2283   -2.9552   -2.5349 H   0  0  0  0  0  0  0  0  0  0  0  0
    7.5657   -2.1884   -1.0242 H   0  0  0  0  0  0  0  0  0  0  0  0
    9.2544   -4.1430   -4.5064 H   0  0  0  0  0  0  0  0  0  0  0  0
   11.7313   -4.0759   -4.6692 H   0  0  0  0  0  0  0  0  0  0  0  0
    9.4665   -3.2608   -0.2637 H   0  0  0  0  0  0  0  0  0  0  0  0
   11.3817   -3.0101    1.4395 H   0  0  0  0  0  0  0  0  0  0  0  0
   13.6893   -0.7899    1.5971 H   0  0  0  0  0  0  0  0  0  0  0  0
   15.5574    0.3555    2.7694 H   0  0  0  0  0  0  0  0  0  0  0  0
   16.9880   -0.6886    2.7424 H   0  0  0  0  0  0  0  0  0  0  0  0
   16.0666   -0.4852    4.2440 H   0  0  0  0  0  0  0  0  0  0  0  0
   16.1136   -3.4962    3.7038 H   0  0  0  0  0  0  0  0  0  0  0  0
   14.9103   -5.7711    3.0589 H   0  0  0  0  0  0  0  0  0  0  0  0
   14.1173   -5.6996    1.4788 H   0  0  0  0  0  0  0  0  0  0  0  0
   13.1530   -5.5645    2.9673 H   0  0  0  0  0  0  0  0  0  0  0  0
   13.9863   -3.6367   -3.2271 H   0  0  0  0  0  0  0  0  0  0  0  0
  1  2  1  0  0  0  0
  1 27  1  0  0  0  0
  1 28  1  0  0  0  0
  1 29  1  0  0  0  0
  2  3  1  0  0  0  0
  3  4  1  0  0  0  0
  3 30  1  0  0  0  0
  3 31  1  0  0  0  0
  4  5  1  0  0  0  0
  4 32  1  0  0  0  0
  4 33  1  0  0  0  0
  5  6  1  0  0  0  0
  5 34  1  0  0  0  0
  5 35  1  0  0  0  0
  6  7  1  0  0  0  0
  6 36  1  0  0  0  0
  7  8  2  0  0  0  0
  7  9  1  0  0  0  0
  9 10  1  0  0  0  0
  9 14  2  0  0  0  0
 10 11  2  0  0  0  0
 10 37  1  0  0  0  0
 11 12  1  0  0  0  0
 11 38  1  0  0  0  0
 12 13  2  0  0  0  0
 12 26  1  0  0  0  0
 13 14  1  0  0  0  0
 13 15  1  0  0  0  0
 14 39  1  0  0  0  0
 15 16  2  0  0  0  0
 15 24  1  0  0  0  0
 16 17  1  0  0  0  0
 16 40  1  0  0  0  0
 17 18  1  0  0  0  0
 17 22  2  0  0  0  0
 18 19  1  0  0  0  0
 18 41  1  0  0  0  0
 19 20  1  0  0  0  0
 19 21  2  0  0  0  0
 20 42  1  0  0  0  0
 20 43  1  0  0  0  0
 20 44  1  0  0  0  0
 21 22  1  0  0  0  0
 21 45  1  0  0  0  0
 22 23  1  0  0  0  0
 23 46  1  0  0  0  0
 23 47  1  0  0  0  0
 23 48  1  0  0  0  0
 24 25  2  0  0  0  0
 24 26  1  0  0  0  0
 26 49  1  0  0  0  0
M  END
$$$$
