CHEMBL223998
 OpenBabel04072215363D

 65 70  0  0  0  0  0  0  0  0999 V2000
    1.9352    0.0152   -1.0474 C   0  0  0  0  0  0  0  0  0  0  0  0
    0.4882    0.2042   -1.0773 N   0  0  0  0  0  0  0  0  0  0  0  0
   -0.2140   -1.0388   -0.7204 C   0  0  0  0  0  0  0  0  0  0  0  0
   -1.7452   -0.8325   -0.7198 C   0  0  0  0  0  0  0  0  0  0  0  0
   -2.2161    0.2039    0.2256 N   0  0  0  0  0  0  0  0  0  0  0  0
   -2.0332   -0.1523    1.6453 C   0  0  0  0  0  0  0  0  0  0  0  0
   -2.7529   -1.4166    2.0856 C   0  0  0  0  0  0  0  0  0  0  0  0
   -2.0938   -2.6722    1.9939 C   0  0  0  0  0  0  0  0  0  0  0  0
   -2.7210   -3.8707    2.3408 C   0  0  0  0  0  0  0  0  0  0  0  0
   -4.0001   -3.7787    2.8264 C   0  0  0  0  0  0  0  0  0  0  0  0
   -4.6747   -2.5337    2.9786 C   0  0  0  0  0  0  0  0  0  0  0  0
   -4.0631   -1.3546    2.5906 C   0  0  0  0  0  0  0  0  0  0  0  0
   -6.0678   -2.6859    3.6143 C   0  0  0  0  0  0  0  0  0  0  0  0
   -6.0692   -4.1726    3.7298 C   0  0  0  0  0  0  0  0  0  0  0  0
   -6.8614   -5.2375    4.1675 C   0  0  0  0  0  0  0  0  0  0  0  0
   -8.1879   -5.1051    4.7753 C   0  0  0  0  0  0  0  0  0  0  0  0
   -8.8722   -3.9253    4.9759 C   0  0  0  0  0  0  0  0  0  0  0  0
  -10.3806   -4.1647    5.7377 S   0  0  0  0  0  0  0  0  0  0  0  0
  -10.1335   -5.8500    5.8042 C   0  0  0  0  0  0  0  0  0  0  0  0
  -11.0859   -6.7316    6.3759 C   0  0  0  0  0  0  0  0  0  0  0  0
  -11.9976   -7.4934    6.9130 C   0  0  0  0  0  0  0  0  0  0  0  0
  -13.0604   -8.3815    7.5391 C   0  0  0  0  0  0  0  0  0  0  0  0
  -12.4753   -9.7518    7.8779 C   0  0  0  0  0  0  0  0  0  0  0  0
  -13.5152  -10.6462    8.5032 C   0  0  0  0  0  0  0  0  0  0  0  0
  -14.3206  -11.4657    7.7015 C   0  0  0  0  0  0  0  0  0  0  0  0
  -15.3234  -12.2475    8.2757 C   0  0  0  0  0  0  0  0  0  0  0  0
  -15.5303  -12.2159    9.6537 C   0  0  0  0  0  0  0  0  0  0  0  0
  -14.7296  -11.4091   10.4602 C   0  0  0  0  0  0  0  0  0  0  0  0
  -13.7263  -10.6265    9.8883 C   0  0  0  0  0  0  0  0  0  0  0  0
   -8.9302   -6.2287    5.2523 C   0  0  0  0  0  0  0  0  0  0  0  0
   -6.2383   -6.4201    3.9766 N   0  0  0  0  0  0  0  0  0  0  0  0
   -5.0426   -6.0868    3.4220 N   0  0  0  0  0  0  0  0  0  0  0  0
   -4.9174   -4.7557    3.2869 C   0  0  0  0  0  0  0  0  0  0  0  0
   -1.4784    1.4520   -0.0968 C   0  0  0  0  0  0  0  0  0  0  0  0
    0.0668    1.3035   -0.1880 C   0  0  0  0  0  0  0  0  0  0  0  0
    2.2299   -0.8014   -1.7166 H   0  0  0  0  0  0  0  0  0  0  0  0
    2.3047   -0.2175   -0.0422 H   0  0  0  0  0  0  0  0  0  0  0  0
    2.4458    0.9152   -1.4056 H   0  0  0  0  0  0  0  0  0  0  0  0
    0.1246   -1.3969    0.2588 H   0  0  0  0  0  0  0  0  0  0  0  0
    0.0275   -1.8236   -1.4467 H   0  0  0  0  0  0  0  0  0  0  0  0
   -2.2588   -1.7849   -0.5550 H   0  0  0  0  0  0  0  0  0  0  0  0
   -2.0531   -0.5331   -1.7319 H   0  0  0  0  0  0  0  0  0  0  0  0
   -2.4235    0.6720    2.2592 H   0  0  0  0  0  0  0  0  0  0  0  0
   -0.9765   -0.2410    1.9231 H   0  0  0  0  0  0  0  0  0  0  0  0
   -1.0709   -2.7186    1.6301 H   0  0  0  0  0  0  0  0  0  0  0  0
   -2.2106   -4.8192    2.2394 H   0  0  0  0  0  0  0  0  0  0  0  0
   -4.5812   -0.4049    2.6823 H   0  0  0  0  0  0  0  0  0  0  0  0
   -6.8489   -2.3194    2.9446 H   0  0  0  0  0  0  0  0  0  0  0  0
   -6.1003   -2.2031    4.5953 H   0  0  0  0  0  0  0  0  0  0  0  0
   -8.5745   -2.9199    4.7244 H   0  0  0  0  0  0  0  0  0  0  0  0
  -13.8968   -8.4783    6.8368 H   0  0  0  0  0  0  0  0  0  0  0  0
  -13.4444   -7.8883    8.4400 H   0  0  0  0  0  0  0  0  0  0  0  0
  -11.6221   -9.6463    8.5611 H   0  0  0  0  0  0  0  0  0  0  0  0
  -12.0718  -10.2296    6.9753 H   0  0  0  0  0  0  0  0  0  0  0  0
  -14.1754  -11.4950    6.6239 H   0  0  0  0  0  0  0  0  0  0  0  0
  -15.9474  -12.8772    7.6470 H   0  0  0  0  0  0  0  0  0  0  0  0
  -16.3177  -12.8180   10.0989 H   0  0  0  0  0  0  0  0  0  0  0  0
  -14.8904  -11.3850   11.5348 H   0  0  0  0  0  0  0  0  0  0  0  0
  -13.1140   -9.9957   10.5290 H   0  0  0  0  0  0  0  0  0  0  0  0
   -8.5897   -7.2563    5.1981 H   0  0  0  0  0  0  0  0  0  0  0  0
   -4.3940   -6.8267    3.1745 H   0  0  0  0  0  0  0  0  0  0  0  0
   -1.7300    2.2382    0.6255 H   0  0  0  0  0  0  0  0  0  0  0  0
   -1.8459    1.8172   -1.0655 H   0  0  0  0  0  0  0  0  0  0  0  0
    0.4727    1.1570    0.8212 H   0  0  0  0  0  0  0  0  0  0  0  0
    0.4785    2.2470   -0.5657 H   0  0  0  0  0  0  0  0  0  0  0  0
  1  2  1  0  0  0  0
  1 36  1  0  0  0  0
  1 37  1  0  0  0  0
  1 38  1  0  0  0  0
  2  3  1  0  0  0  0
  2 35  1  0  0  0  0
  3  4  1  0  0  0  0
  3 39  1  0  0  0  0
  3 40  1  0  0  0  0
  4  5  1  0  0  0  0
  4 41  1  0  0  0  0
  4 42  1  0  0  0  0
  5  6  1  0  0  0  0
  5 34  1  0  0  0  0
  6  7  1  0  0  0  0
  6 43  1  0  0  0  0
  6 44  1  0  0  0  0
  7  8  1  0  0  0  0
  7 12  2  0  0  0  0
  8  9  2  0  0  0  0
  8 45  1  0  0  0  0
  9 10  1  0  0  0  0
  9 46  1  0  0  0  0
 10 11  2  0  0  0  0
 10 33  1  0  0  0  0
 11 12  1  0  0  0  0
 11 13  1  0  0  0  0
 12 47  1  0  0  0  0
 13 14  1  0  0  0  0
 13 48  1  0  0  0  0
 13 49  1  0  0  0  0
 14 15  1  0  0  0  0
 14 33  2  0  0  0  0
 15 16  1  0  0  0  0
 15 31  2  0  0  0  0
 16 17  2  0  0  0  0
 16 30  1  0  0  0  0
 17 18  1  0  0  0  0
 17 50  1  0  0  0  0
 18 19  1  0  0  0  0
 19 20  1  0  0  0  0
 19 30  2  0  0  0  0
 20 21  3  0  0  0  0
 21 22  1  0  0  0  0
 22 23  1  0  0  0  0
 22 51  1  0  0  0  0
 22 52  1  0  0  0  0
 23 24  1  0  0  0  0
 23 53  1  0  0  0  0
 23 54  1  0  0  0  0
 24 25  1  0  0  0  0
 24 29  2  0  0  0  0
 25 26  2  0  0  0  0
 25 55  1  0  0  0  0
 26 27  1  0  0  0  0
 26 56  1  0  0  0  0
 27 28  2  0  0  0  0
 27 57  1  0  0  0  0
 28 29  1  0  0  0  0
 28 58  1  0  0  0  0
 29 59  1  0  0  0  0
 30 60  1  0  0  0  0
 31 32  1  0  0  0  0
 32 33  1  0  0  0  0
 32 61  1  0  0  0  0
 34 35  1  0  0  0  0
 34 62  1  0  0  0  0
 34 63  1  0  0  0  0
 35 64  1  0  0  0  0
 35 65  1  0  0  0  0
M  END
$$$$
