CHEMBL3924816
 OpenBabel04072215373D

 52 55  0  0  0  0  0  0  0  0999 V2000
    1.0966    0.9137    0.1133 O   0  0  0  0  0  0  0  0  0  0  0  0
    2.1990    0.3848    0.0511 C   0  0  0  0  0  0  0  0  0  0  0  0
    2.7841   -0.0813   -1.1134 N   0  0  0  0  0  0  0  0  0  0  0  0
    2.1824   -0.0692   -2.3975 C   0  0  0  0  0  0  0  0  0  0  0  0
    1.0348    0.6691   -2.7086 C   0  0  0  0  0  0  0  0  0  0  0  0
    0.4250    0.5641   -3.9645 C   0  0  0  0  0  0  0  0  0  0  0  0
    0.9639   -0.2725   -4.9389 C   0  0  0  0  0  0  0  0  0  0  0  0
    0.2885   -0.3149   -6.1365 O   0  0  0  0  0  0  0  0  0  0  0  0
    0.1505   -1.5043   -6.8195 C   0  0  0  0  0  0  0  0  0  0  0  0
    0.2092   -2.7657   -6.2394 C   0  0  0  0  0  0  0  0  0  0  0  0
    0.1053   -3.8582   -7.0722 C   0  0  0  0  0  0  0  0  0  0  0  0
   -0.1118   -3.7651   -8.3967 N   0  0  0  0  0  0  0  0  0  0  0  0
   -0.2417   -2.5481   -8.9468 C   0  0  0  0  0  0  0  0  0  0  0  0
   -0.5149   -2.4276  -10.3167 N   0  0  0  0  0  0  0  0  0  0  0  0
   -0.6431   -3.5085  -11.1698 C   0  0  0  0  0  0  0  0  0  0  0  0
   -0.5387   -4.6957  -10.8976 O   0  0  0  0  0  0  0  0  0  0  0  0
   -0.9749   -3.1251  -12.5806 C   0  0  0  0  0  0  0  0  0  0  0  0
   -2.2047   -3.7182  -13.2325 C   0  0  0  0  0  0  0  0  0  0  0  0
   -0.8420   -4.1538  -13.6851 C   0  0  0  0  0  0  0  0  0  0  0  0
   -0.1156   -1.3907   -8.1885 C   0  0  0  0  0  0  0  0  0  0  0  0
    2.1655   -0.9279   -4.6632 C   0  0  0  0  0  0  0  0  0  0  0  0
    2.7729   -1.6736   -5.5973 F   0  0  0  0  0  0  0  0  0  0  0  0
    2.7619   -0.8486   -3.4015 C   0  0  0  0  0  0  0  0  0  0  0  0
    2.9924    0.1439    1.1613 N   0  0  0  0  0  0  0  0  0  0  0  0
    2.5597    0.2459    2.5119 C   0  0  0  0  0  0  0  0  0  0  0  0
    1.2044    0.2234    2.8572 C   0  0  0  0  0  0  0  0  0  0  0  0
    0.7982    0.2755    4.1933 C   0  0  0  0  0  0  0  0  0  0  0  0
    1.7411    0.3372    5.2237 C   0  0  0  0  0  0  0  0  0  0  0  0
    1.3033    0.3440    6.6678 C   0  0  0  0  0  0  0  0  0  0  0  0
   -0.0497    0.3382    6.8258 F   0  0  0  0  0  0  0  0  0  0  0  0
    1.7617   -0.7421    7.3486 F   0  0  0  0  0  0  0  0  0  0  0  0
    1.7553    1.4329    7.3465 F   0  0  0  0  0  0  0  0  0  0  0  0
    3.1038    0.3669    4.8864 C   0  0  0  0  0  0  0  0  0  0  0  0
    3.5069    0.3185    3.5446 C   0  0  0  0  0  0  0  0  0  0  0  0
    5.2017    0.3630    3.1979 Cl  0  0  0  0  0  0  0  0  0  0  0  0
    3.5969   -0.6724   -0.9989 H   0  0  0  0  0  0  0  0  0  0  0  0
    0.5761    1.3432   -1.9909 H   0  0  0  0  0  0  0  0  0  0  0  0
   -0.4778    1.1347   -4.1681 H   0  0  0  0  0  0  0  0  0  0  0  0
    0.3578   -2.9211   -5.1790 H   0  0  0  0  0  0  0  0  0  0  0  0
    0.1988   -4.8719   -6.6941 H   0  0  0  0  0  0  0  0  0  0  0  0
   -0.6406   -1.5014  -10.6919 H   0  0  0  0  0  0  0  0  0  0  0  0
   -0.7222   -2.1072  -12.8598 H   0  0  0  0  0  0  0  0  0  0  0  0
   -2.7852   -3.0976  -13.9032 H   0  0  0  0  0  0  0  0  0  0  0  0
   -2.7933   -4.4290  -12.6605 H   0  0  0  0  0  0  0  0  0  0  0  0
   -0.4937   -3.8242  -14.6559 H   0  0  0  0  0  0  0  0  0  0  0  0
   -0.5163   -5.1549  -13.4181 H   0  0  0  0  0  0  0  0  0  0  0  0
   -0.2160   -0.4074   -8.6340 H   0  0  0  0  0  0  0  0  0  0  0  0
    3.6660   -1.4228   -3.2269 H   0  0  0  0  0  0  0  0  0  0  0  0
    3.9926    0.1051    1.0171 H   0  0  0  0  0  0  0  0  0  0  0  0
    0.4240    0.1416    2.1051 H   0  0  0  0  0  0  0  0  0  0  0  0
   -0.2684    0.2550    4.4166 H   0  0  0  0  0  0  0  0  0  0  0  0
    3.8517    0.4213    5.6764 H   0  0  0  0  0  0  0  0  0  0  0  0
  1  2  2  0  0  0  0
  2  3  1  0  0  0  0
  2 24  1  0  0  0  0
  3  4  1  0  0  0  0
  3 36  1  0  0  0  0
  4  5  1  0  0  0  0
  4 23  2  0  0  0  0
  5  6  2  0  0  0  0
  5 37  1  0  0  0  0
  6  7  1  0  0  0  0
  6 38  1  0  0  0  0
  7  8  1  0  0  0  0
  7 21  2  0  0  0  0
  8  9  1  0  0  0  0
  9 10  1  0  0  0  0
  9 20  2  0  0  0  0
 10 11  2  0  0  0  0
 10 39  1  0  0  0  0
 11 12  1  0  0  0  0
 11 40  1  0  0  0  0
 12 13  2  0  0  0  0
 13 14  1  0  0  0  0
 13 20  1  0  0  0  0
 14 15  1  0  0  0  0
 14 41  1  0  0  0  0
 15 16  2  0  0  0  0
 15 17  1  0  0  0  0
 17 18  1  0  0  0  0
 17 19  1  0  0  0  0
 17 42  1  0  0  0  0
 18 19  1  0  0  0  0
 18 43  1  0  0  0  0
 18 44  1  0  0  0  0
 19 45  1  0  0  0  0
 19 46  1  0  0  0  0
 20 47  1  0  0  0  0
 21 22  1  0  0  0  0
 21 23  1  0  0  0  0
 23 48  1  0  0  0  0
 24 25  1  0  0  0  0
 24 49  1  0  0  0  0
 25 26  1  0  0  0  0
 25 34  2  0  0  0  0
 26 27  2  0  0  0  0
 26 50  1  0  0  0  0
 27 28  1  0  0  0  0
 27 51  1  0  0  0  0
 28 29  1  0  0  0  0
 28 33  2  0  0  0  0
 29 30  1  0  0  0  0
 29 31  1  0  0  0  0
 29 32  1  0  0  0  0
 33 34  1  0  0  0  0
 33 52  1  0  0  0  0
 34 35  1  0  0  0  0
M  END
$$$$
