CHEMBL4087656
 OpenBabel04072215383D

 63 67  0  0  0  0  0  0  0  0999 V2000
   -1.5758    2.0990    1.9647 C   0  0  0  0  0  0  0  0  0  0  0  0
   -1.0985    1.0672    0.9883 C   0  0  0  0  0  0  0  0  0  0  0  0
   -0.0509    1.3352    0.1131 C   0  0  0  0  0  0  0  0  0  0  0  0
    0.3827    0.3569   -0.7873 C   0  0  0  0  0  0  0  0  0  0  0  0
   -0.1986   -0.9258   -0.8593 C   0  0  0  0  0  0  0  0  0  0  0  0
    0.2952   -1.7882   -1.8357 N   0  0  0  0  0  0  0  0  0  0  0  0
    0.2307   -3.2506   -1.7040 C   0  0  0  0  0  0  0  0  0  0  0  0
    1.2909   -3.9054   -2.6222 C   0  0  0  0  0  0  0  0  0  0  0  0
    1.1282   -3.5115   -4.0397 N   0  0  0  0  0  0  0  0  0  0  0  0
    2.1538   -4.1367   -4.8691 C   0  0  0  0  0  0  0  0  0  0  0  0
    1.1916   -2.0377   -4.1411 C   0  0  0  0  0  0  0  0  0  0  0  0
    0.1438   -1.3383   -3.2416 C   0  0  0  0  0  0  0  0  0  0  0  0
   -1.2383   -1.1869    0.0581 C   0  0  0  0  0  0  0  0  0  0  0  0
   -1.9439   -2.4025    0.1119 N   0  0  0  0  0  0  0  0  0  0  0  0
   -3.0517   -2.7173   -0.6451 C   0  0  0  0  0  0  0  0  0  0  0  0
   -3.5034   -3.8579   -0.5820 O   0  0  0  0  0  0  0  0  0  0  0  0
   -3.5106   -1.7074   -1.4513 N   0  0  0  0  0  0  0  0  0  0  0  0
   -4.5893   -1.7468   -2.3458 C   0  0  0  0  0  0  0  0  0  0  0  0
   -5.6097   -2.6885   -2.2987 C   0  0  0  0  0  0  0  0  0  0  0  0
   -6.6188   -2.6805   -3.2742 C   0  0  0  0  0  0  0  0  0  0  0  0
   -6.6565   -1.7157   -4.3017 C   0  0  0  0  0  0  0  0  0  0  0  0
   -7.7084   -1.7310   -5.3408 C   0  0  0  0  0  0  0  0  0  0  0  0
   -9.0301   -2.1009   -5.0130 C   0  0  0  0  0  0  0  0  0  0  0  0
  -10.0269   -2.1136   -5.9817 C   0  0  0  0  0  0  0  0  0  0  0  0
   -9.8570   -1.7681   -7.2672 N   0  0  0  0  0  0  0  0  0  0  0  0
   -8.5913   -1.4139   -7.5510 C   0  0  0  0  0  0  0  0  0  0  0  0
   -8.1651   -1.0225   -8.7815 N   0  0  0  0  0  0  0  0  0  0  0  0
   -6.8593   -0.7333   -8.8400 N   0  0  0  0  0  0  0  0  0  0  0  0
   -6.4231   -0.9635   -7.5898 C   0  0  0  0  0  0  0  0  0  0  0  0
   -4.9681   -0.7733   -7.3465 C   0  0  0  0  0  0  0  0  0  0  0  0
   -7.4814   -1.3726   -6.7027 C   0  0  0  0  0  0  0  0  0  0  0  0
   -5.6767   -0.7199   -4.2542 C   0  0  0  0  0  0  0  0  0  0  0  0
   -4.6344   -0.7541   -3.3231 C   0  0  0  0  0  0  0  0  0  0  0  0
   -1.6858   -0.1987    0.9546 C   0  0  0  0  0  0  0  0  0  0  0  0
   -1.0597    3.0542    1.8202 H   0  0  0  0  0  0  0  0  0  0  0  0
   -1.3852    1.7648    2.9895 H   0  0  0  0  0  0  0  0  0  0  0  0
   -2.6484    2.2763    1.8349 H   0  0  0  0  0  0  0  0  0  0  0  0
    0.4447    2.3029    0.1190 H   0  0  0  0  0  0  0  0  0  0  0  0
    1.2182    0.6022   -1.4411 H   0  0  0  0  0  0  0  0  0  0  0  0
   -0.7611   -3.6227   -1.9847 H   0  0  0  0  0  0  0  0  0  0  0  0
    0.4507   -3.5542   -0.6745 H   0  0  0  0  0  0  0  0  0  0  0  0
    1.2018   -4.9933   -2.5284 H   0  0  0  0  0  0  0  0  0  0  0  0
    2.2906   -3.6224   -2.2639 H   0  0  0  0  0  0  0  0  0  0  0  0
    2.0867   -5.2280   -4.7998 H   0  0  0  0  0  0  0  0  0  0  0  0
    3.1666   -3.8346   -4.5798 H   0  0  0  0  0  0  0  0  0  0  0  0
    2.0032   -3.8783   -5.9229 H   0  0  0  0  0  0  0  0  0  0  0  0
    1.0163   -1.7311   -5.1793 H   0  0  0  0  0  0  0  0  0  0  0  0
    2.1916   -1.6804   -3.8582 H   0  0  0  0  0  0  0  0  0  0  0  0
   -0.8688   -1.5730   -3.5957 H   0  0  0  0  0  0  0  0  0  0  0  0
    0.2786   -0.2559   -3.3497 H   0  0  0  0  0  0  0  0  0  0  0  0
   -1.4231   -3.2313    0.3613 H   0  0  0  0  0  0  0  0  0  0  0  0
   -2.8672   -0.9391   -1.5705 H   0  0  0  0  0  0  0  0  0  0  0  0
   -5.6493   -3.4374   -1.5121 H   0  0  0  0  0  0  0  0  0  0  0  0
   -7.3806   -3.4553   -3.2090 H   0  0  0  0  0  0  0  0  0  0  0  0
   -9.3005   -2.3903   -4.0023 H   0  0  0  0  0  0  0  0  0  0  0  0
  -11.0389   -2.4166   -5.7221 H   0  0  0  0  0  0  0  0  0  0  0  0
   -8.7281   -0.9412   -9.6177 H   0  0  0  0  0  0  0  0  0  0  0  0
   -4.4100   -0.7364   -8.2897 H   0  0  0  0  0  0  0  0  0  0  0  0
   -4.5507   -1.5917   -6.7542 H   0  0  0  0  0  0  0  0  0  0  0  0
   -4.7805    0.1807   -6.8457 H   0  0  0  0  0  0  0  0  0  0  0  0
   -5.7092    0.1141   -4.9458 H   0  0  0  0  0  0  0  0  0  0  0  0
   -3.8547    0.0002   -3.3868 H   0  0  0  0  0  0  0  0  0  0  0  0
   -2.5007   -0.4297    1.6396 H   0  0  0  0  0  0  0  0  0  0  0  0
  1  2  1  0  0  0  0
  1 35  1  0  0  0  0
  1 36  1  0  0  0  0
  1 37  1  0  0  0  0
  2  3  1  0  0  0  0
  2 34  2  0  0  0  0
  3  4  2  0  0  0  0
  3 38  1  0  0  0  0
  4  5  1  0  0  0  0
  4 39  1  0  0  0  0
  5  6  1  0  0  0  0
  5 13  2  0  0  0  0
  6  7  1  0  0  0  0
  6 12  1  0  0  0  0
  7  8  1  0  0  0  0
  7 40  1  0  0  0  0
  7 41  1  0  0  0  0
  8  9  1  0  0  0  0
  8 42  1  0  0  0  0
  8 43  1  0  0  0  0
  9 10  1  0  0  0  0
  9 11  1  0  0  0  0
 10 44  1  0  0  0  0
 10 45  1  0  0  0  0
 10 46  1  0  0  0  0
 11 12  1  0  0  0  0
 11 47  1  0  0  0  0
 11 48  1  0  0  0  0
 12 49  1  0  0  0  0
 12 50  1  0  0  0  0
 13 14  1  0  0  0  0
 13 34  1  0  0  0  0
 14 15  1  0  0  0  0
 14 51  1  0  0  0  0
 15 16  2  0  0  0  0
 15 17  1  0  0  0  0
 17 18  1  0  0  0  0
 17 52  1  0  0  0  0
 18 19  1  0  0  0  0
 18 33  2  0  0  0  0
 19 20  2  0  0  0  0
 19 53  1  0  0  0  0
 20 21  1  0  0  0  0
 20 54  1  0  0  0  0
 21 22  1  0  0  0  0
 21 32  2  0  0  0  0
 22 23  1  0  0  0  0
 22 31  2  0  0  0  0
 23 24  2  0  0  0  0
 23 55  1  0  0  0  0
 24 25  1  0  0  0  0
 24 56  1  0  0  0  0
 25 26  2  0  0  0  0
 26 27  1  0  0  0  0
 26 31  1  0  0  0  0
 27 28  1  0  0  0  0
 27 57  1  0  0  0  0
 28 29  2  0  0  0  0
 29 30  1  0  0  0  0
 29 31  1  0  0  0  0
 30 58  1  0  0  0  0
 30 59  1  0  0  0  0
 30 60  1  0  0  0  0
 32 33  1  0  0  0  0
 32 61  1  0  0  0  0
 33 62  1  0  0  0  0
 34 63  1  0  0  0  0
M  END
$$$$
