CHEMBL3889604
 OpenBabel04072215373D

 63 67  0  0  0  0  0  0  0  0999 V2000
    0.7468   -3.4410   -3.1416 C   0  0  0  0  0  0  0  0  0  0  0  0
    2.0909   -3.8068   -2.8433 O   0  0  0  0  0  0  0  0  0  0  0  0
    2.8438   -2.8910   -2.1558 C   0  0  0  0  0  0  0  0  0  0  0  0
    2.4178   -1.6228   -1.7946 C   0  0  0  0  0  0  0  0  0  0  0  0
    3.2529   -0.7982   -1.0437 C   0  0  0  0  0  0  0  0  0  0  0  0
    2.9168    0.4683   -0.6372 O   0  0  0  0  0  0  0  0  0  0  0  0
    1.6064    0.8841   -1.0138 C   0  0  0  0  0  0  0  0  0  0  0  0
    4.5194   -1.2534   -0.6529 C   0  0  0  0  0  0  0  0  0  0  0  0
    4.9890   -2.5346   -0.9957 C   0  0  0  0  0  0  0  0  0  0  0  0
    6.2456   -3.0132   -0.5183 N   0  0  0  0  0  0  0  0  0  0  0  0
    6.6374   -2.5602    0.9136 C   0  0  0  0  0  0  0  0  0  0  0  0
    5.6252   -2.8353    2.0516 C   0  0  0  0  0  0  0  0  0  0  0  0
    6.0787   -2.3352    3.4354 C   0  0  0  0  0  0  0  0  0  0  0  0
    4.9997   -2.5978    4.4628 C   0  0  0  0  0  0  0  0  0  0  0  0
    5.0043   -3.7802    5.1119 N   0  0  0  0  0  0  0  0  0  0  0  0
    4.0509   -3.9490    6.0516 C   0  0  0  0  0  0  0  0  0  0  0  0
    3.1032   -3.0003    6.3534 C   0  0  0  0  0  0  0  0  0  0  0  0
    3.1608   -1.8496    5.6063 C   0  0  0  0  0  0  0  0  0  0  0  0
    4.0904   -1.6232    4.6599 N   0  0  0  0  0  0  0  0  0  0  0  0
    7.2362   -3.8976   -1.1967 C   0  0  0  0  0  0  0  0  0  0  0  0
    7.7067   -4.8592   -0.3378 C   0  0  0  0  0  0  0  0  0  0  0  0
    8.7616   -5.5828   -0.8303 C   0  0  0  0  0  0  0  0  0  0  0  0
    9.3346   -5.3481   -2.0101 C   0  0  0  0  0  0  0  0  0  0  0  0
   10.5924   -5.4953   -1.7052 N   0  0  0  0  0  0  0  0  0  0  0  0
   10.9378   -6.7002   -2.0693 C   0  0  0  0  0  0  0  0  0  0  0  0
   11.1307   -6.8871   -3.3366 C   0  0  0  0  0  0  0  0  0  0  0  0
   12.6188   -7.7998   -3.2433 C   0  0  0  0  0  0  0  0  0  0  0  0
   13.5685   -7.8527   -2.0052 C   0  0  0  0  0  0  0  0  0  0  0  0
   14.4141   -8.8973   -1.9155 N   0  0  0  0  0  0  0  0  0  0  0  0
   14.1183   -9.6533   -2.9804 N   0  0  0  0  0  0  0  0  0  0  0  0
   14.8313  -10.9385   -3.1591 C   0  0  0  0  0  0  0  0  0  0  0  0
   13.0442   -9.0653   -3.7382 C   0  0  0  0  0  0  0  0  0  0  0  0
   10.1917   -5.8886   -4.0437 N   0  0  0  0  0  0  0  0  0  0  0  0
    9.0005   -4.9597   -3.1982 C   0  0  0  0  0  0  0  0  0  0  0  0
    7.7652   -3.8891   -2.5662 C   0  0  0  0  0  0  0  0  0  0  0  0
    4.1354   -3.3122   -1.8026 C   0  0  0  0  0  0  0  0  0  0  0  0
    0.2617   -4.2941   -3.6247 H   0  0  0  0  0  0  0  0  0  0  0  0
    0.7296   -2.6017   -3.8441 H   0  0  0  0  0  0  0  0  0  0  0  0
    0.1786   -3.2074   -2.2331 H   0  0  0  0  0  0  0  0  0  0  0  0
    1.4462   -1.2762   -2.1175 H   0  0  0  0  0  0  0  0  0  0  0  0
    1.4317    1.8848   -0.6171 H   0  0  0  0  0  0  0  0  0  0  0  0
    0.8442    0.2173   -0.5906 H   0  0  0  0  0  0  0  0  0  0  0  0
    1.5186    0.9328   -2.1059 H   0  0  0  0  0  0  0  0  0  0  0  0
    5.1613   -0.5707   -0.1023 H   0  0  0  0  0  0  0  0  0  0  0  0
    6.8962   -1.4974    0.8924 H   0  0  0  0  0  0  0  0  0  0  0  0
    7.5648   -3.0426    1.2410 H   0  0  0  0  0  0  0  0  0  0  0  0
    5.4638   -3.9147    2.1424 H   0  0  0  0  0  0  0  0  0  0  0  0
    4.6697   -2.3507    1.8382 H   0  0  0  0  0  0  0  0  0  0  0  0
    6.2786   -1.2559    3.4130 H   0  0  0  0  0  0  0  0  0  0  0  0
    7.0028   -2.8351    3.7512 H   0  0  0  0  0  0  0  0  0  0  0  0
    4.0771   -4.8959    6.5845 H   0  0  0  0  0  0  0  0  0  0  0  0
    2.3649   -3.1458    7.1288 H   0  0  0  0  0  0  0  0  0  0  0  0
    2.4478   -1.0447    5.7575 H   0  0  0  0  0  0  0  0  0  0  0  0
    7.5361   -4.9874    0.7119 H   0  0  0  0  0  0  0  0  0  0  0  0
    9.2824   -6.2374   -0.1163 H   0  0  0  0  0  0  0  0  0  0  0  0
   11.2874   -7.2948   -1.2495 H   0  0  0  0  0  0  0  0  0  0  0  0
   13.6417   -7.2029   -1.1285 H   0  0  0  0  0  0  0  0  0  0  0  0
   15.6703  -11.0833   -2.4480 H   0  0  0  0  0  0  0  0  0  0  0  0
   15.2612  -10.9959   -4.1640 H   0  0  0  0  0  0  0  0  0  0  0  0
   14.1485  -11.7825   -3.0047 H   0  0  0  0  0  0  0  0  0  0  0  0
   12.7136   -9.6741   -4.5545 H   0  0  0  0  0  0  0  0  0  0  0  0
    7.2810   -3.1083   -3.1881 H   0  0  0  0  0  0  0  0  0  0  0  0
    4.4336   -4.2845   -2.1788 H   0  0  0  0  0  0  0  0  0  0  0  0
  1  2  1  0  0  0  0
  1 37  1  0  0  0  0
  1 38  1  0  0  0  0
  1 39  1  0  0  0  0
  2  3  1  0  0  0  0
  3  4  1  0  0  0  0
  3 36  2  0  0  0  0
  4  5  2  0  0  0  0
  4 40  1  0  0  0  0
  5  6  1  0  0  0  0
  5  8  1  0  0  0  0
  6  7  1  0  0  0  0
  7 41  1  0  0  0  0
  7 42  1  0  0  0  0
  7 43  1  0  0  0  0
  8  9  2  0  0  0  0
  8 44  1  0  0  0  0
  9 10  1  0  0  0  0
  9 36  1  0  0  0  0
 10 11  1  0  0  0  0
 10 20  1  0  0  0  0
 11 12  1  0  0  0  0
 11 45  1  0  0  0  0
 11 46  1  0  0  0  0
 12 13  1  0  0  0  0
 12 47  1  0  0  0  0
 12 48  1  0  0  0  0
 13 14  1  0  0  0  0
 13 49  1  0  0  0  0
 13 50  1  0  0  0  0
 14 15  1  0  0  0  0
 14 19  2  0  0  0  0
 15 16  2  0  0  0  0
 16 17  1  0  0  0  0
 16 51  1  0  0  0  0
 17 18  2  0  0  0  0
 17 52  1  0  0  0  0
 18 19  1  0  0  0  0
 18 53  1  0  0  0  0
 20 21  1  0  0  0  0
 20 35  2  0  0  0  0
 21 22  2  0  0  0  0
 21 54  1  0  0  0  0
 22 23  1  0  0  0  0
 22 55  1  0  0  0  0
 23 24  1  0  0  0  0
 23 34  2  0  0  0  0
 24 25  2  0  0  0  0
 25 26  1  0  0  0  0
 25 56  1  0  0  0  0
 26 27  1  0  0  0  0
 26 33  2  0  0  0  0
 27 28  1  0  0  0  0
 27 32  2  0  0  0  0
 28 29  2  0  0  0  0
 28 57  1  0  0  0  0
 29 30  1  0  0  0  0
 30 31  1  0  0  0  0
 30 32  1  0  0  0  0
 31 58  1  0  0  0  0
 31 59  1  0  0  0  0
 31 60  1  0  0  0  0
 32 61  1  0  0  0  0
 33 34  1  0  0  0  0
 34 35  1  0  0  0  0
 35 62  1  0  0  0  0
 36 63  1  0  0  0  0
M  END
$$$$
