CHEMBL1807473
 OpenBabel04072215363D

 64 67  0  0  0  0  0  0  0  0999 V2000
    3.5650   -0.4863   -7.8421 C   0  0  0  0  0  0  0  0  0  0  0  0
    3.8050   -0.0695   -6.3994 C   0  0  0  0  0  0  0  0  0  0  0  0
    5.2904    0.0671   -6.0761 C   0  0  0  0  0  0  0  0  0  0  0  0
    5.5339    0.5544   -4.3643 S   0  0  0  0  0  0  0  0  0  0  0  0
    4.9016    1.8392   -4.1637 O   0  0  0  0  0  0  0  0  0  0  0  0
    5.2589   -0.5851   -3.5161 O   0  0  0  0  0  0  0  0  0  0  0  0
    7.2258    0.7514   -4.3334 N   0  0  0  0  0  0  0  0  0  0  0  0
    7.7116    1.7020   -3.3741 C   0  0  0  0  0  0  0  0  0  0  0  0
    7.8870    1.3515   -2.0369 C   0  0  0  0  0  0  0  0  0  0  0  0
    8.4115    2.2873   -1.1375 C   0  0  0  0  0  0  0  0  0  0  0  0
    8.7808    3.5605   -1.5802 C   0  0  0  0  0  0  0  0  0  0  0  0
    8.6155    3.9108   -2.9239 C   0  0  0  0  0  0  0  0  0  0  0  0
    9.1712    5.1544   -3.4493 C   0  0  0  0  0  0  0  0  0  0  0  0
    9.5737    5.3587   -4.7939 C   0  0  0  0  0  0  0  0  0  0  0  0
   10.1302    6.6096   -4.8485 C   0  0  0  0  0  0  0  0  0  0  0  0
   10.6959    7.2443   -5.9466 N   0  0  0  0  0  0  0  0  0  0  0  0
   10.7898    6.6162   -7.2432 C   0  0  0  0  0  0  0  0  0  0  0  0
   10.3701    5.4891   -7.4497 O   0  0  0  0  0  0  0  0  0  0  0  0
   11.3715    7.4139   -8.3374 C   0  0  0  0  0  0  0  0  0  0  0  0
   12.3212    8.4017   -8.0956 C   0  0  0  0  0  0  0  0  0  0  0  0
   12.8024    9.1501   -9.1673 C   0  0  0  0  0  0  0  0  0  0  0  0
   12.3660    8.9365  -10.4857 C   0  0  0  0  0  0  0  0  0  0  0  0
   12.8890    9.7262  -11.4917 N   0  0  0  0  0  0  0  0  0  0  0  0
   12.9172    9.2839  -12.8960 C   0  0  0  0  0  0  0  0  0  0  0  0
   14.0366   10.0603  -13.6377 C   0  0  0  0  0  0  0  0  0  0  0  0
   13.8907   11.5330  -13.5320 N   0  0  0  0  0  0  0  0  0  0  0  0
   15.0242   12.2076  -14.1614 C   0  0  0  0  0  0  0  0  0  0  0  0
   13.7946   11.9254  -12.1080 C   0  0  0  0  0  0  0  0  0  0  0  0
   12.6638   11.1814  -11.3703 C   0  0  0  0  0  0  0  0  0  0  0  0
   11.4548    7.8999  -10.7114 C   0  0  0  0  0  0  0  0  0  0  0  0
   10.9574    7.1438   -9.6475 C   0  0  0  0  0  0  0  0  0  0  0  0
   10.0098    7.1024   -3.5777 N   0  0  0  0  0  0  0  0  0  0  0  0
    9.4573    6.2381   -2.7103 N   0  0  0  0  0  0  0  0  0  0  0  0
    8.0264    2.9853   -3.8048 C   0  0  0  0  0  0  0  0  0  0  0  0
    2.4899   -0.5442   -8.0430 H   0  0  0  0  0  0  0  0  0  0  0  0
    3.9997   -1.4696   -8.0474 H   0  0  0  0  0  0  0  0  0  0  0  0
    3.9992    0.2363   -8.5404 H   0  0  0  0  0  0  0  0  0  0  0  0
    3.3419   -0.8044   -5.7308 H   0  0  0  0  0  0  0  0  0  0  0  0
    3.2975    0.8849   -6.2179 H   0  0  0  0  0  0  0  0  0  0  0  0
    5.7506    0.8357   -6.7049 H   0  0  0  0  0  0  0  0  0  0  0  0
    5.8114   -0.8845   -6.2244 H   0  0  0  0  0  0  0  0  0  0  0  0
    7.6404   -0.1697   -4.1746 H   0  0  0  0  0  0  0  0  0  0  0  0
    7.6319    0.3571   -1.6823 H   0  0  0  0  0  0  0  0  0  0  0  0
    8.5606    2.0154   -0.0953 H   0  0  0  0  0  0  0  0  0  0  0  0
    9.2274    4.2636   -0.8793 H   0  0  0  0  0  0  0  0  0  0  0  0
    9.4835    4.6380   -5.5917 H   0  0  0  0  0  0  0  0  0  0  0  0
   11.0161    8.1957   -5.8318 H   0  0  0  0  0  0  0  0  0  0  0  0
   12.7338    8.5885   -7.1100 H   0  0  0  0  0  0  0  0  0  0  0  0
   13.5707    9.8991   -8.9807 H   0  0  0  0  0  0  0  0  0  0  0  0
   11.9470    9.4657  -13.3763 H   0  0  0  0  0  0  0  0  0  0  0  0
   13.1389    8.2122  -12.9668 H   0  0  0  0  0  0  0  0  0  0  0  0
   14.0246    9.7648  -14.6931 H   0  0  0  0  0  0  0  0  0  0  0  0
   15.0041    9.7499  -13.2189 H   0  0  0  0  0  0  0  0  0  0  0  0
   15.0795   11.9530  -15.2248 H   0  0  0  0  0  0  0  0  0  0  0  0
   15.9784   11.9427  -13.6912 H   0  0  0  0  0  0  0  0  0  0  0  0
   14.9022   13.2947  -14.1000 H   0  0  0  0  0  0  0  0  0  0  0  0
   13.6062   13.0025  -12.0325 H   0  0  0  0  0  0  0  0  0  0  0  0
   14.7419   11.7173  -11.5911 H   0  0  0  0  0  0  0  0  0  0  0  0
   11.6893   11.4424  -11.8048 H   0  0  0  0  0  0  0  0  0  0  0  0
   12.6496   11.5191  -10.3280 H   0  0  0  0  0  0  0  0  0  0  0  0
   11.0985    7.6791  -11.7145 H   0  0  0  0  0  0  0  0  0  0  0  0
   10.2393    6.3499   -9.8513 H   0  0  0  0  0  0  0  0  0  0  0  0
   10.3117    7.9990   -3.2167 H   0  0  0  0  0  0  0  0  0  0  0  0
    7.8448    3.2394   -4.8442 H   0  0  0  0  0  0  0  0  0  0  0  0
  1  2  1  0  0  0  0
  1 35  1  0  0  0  0
  1 36  1  0  0  0  0
  1 37  1  0  0  0  0
  2  3  1  0  0  0  0
  2 38  1  0  0  0  0
  2 39  1  0  0  0  0
  3  4  1  0  0  0  0
  3 40  1  0  0  0  0
  3 41  1  0  0  0  0
  4  5  2  0  0  0  0
  4  6  2  0  0  0  0
  4  7  1  0  0  0  0
  7  8  1  0  0  0  0
  7 42  1  0  0  0  0
  8  9  1  0  0  0  0
  8 34  2  0  0  0  0
  9 10  2  0  0  0  0
  9 43  1  0  0  0  0
 10 11  1  0  0  0  0
 10 44  1  0  0  0  0
 11 12  2  0  0  0  0
 11 45  1  0  0  0  0
 12 13  1  0  0  0  0
 12 34  1  0  0  0  0
 13 14  1  0  0  0  0
 13 33  2  0  0  0  0
 14 15  2  0  0  0  0
 14 46  1  0  0  0  0
 15 16  1  0  0  0  0
 15 32  1  0  0  0  0
 16 17  1  0  0  0  0
 16 47  1  0  0  0  0
 17 18  2  0  0  0  0
 17 19  1  0  0  0  0
 19 20  1  0  0  0  0
 19 31  2  0  0  0  0
 20 21  2  0  0  0  0
 20 48  1  0  0  0  0
 21 22  1  0  0  0  0
 21 49  1  0  0  0  0
 22 23  1  0  0  0  0
 22 30  2  0  0  0  0
 23 24  1  0  0  0  0
 23 29  1  0  0  0  0
 24 25  1  0  0  0  0
 24 50  1  0  0  0  0
 24 51  1  0  0  0  0
 25 26  1  0  0  0  0
 25 52  1  0  0  0  0
 25 53  1  0  0  0  0
 26 27  1  0  0  0  0
 26 28  1  0  0  0  0
 27 54  1  0  0  0  0
 27 55  1  0  0  0  0
 27 56  1  0  0  0  0
 28 29  1  0  0  0  0
 28 57  1  0  0  0  0
 28 58  1  0  0  0  0
 29 59  1  0  0  0  0
 29 60  1  0  0  0  0
 30 31  1  0  0  0  0
 30 61  1  0  0  0  0
 31 62  1  0  0  0  0
 32 33  1  0  0  0  0
 32 63  1  0  0  0  0
 34 64  1  0  0  0  0
M  END
$$$$
