CHEMBL191003
 OpenBabel04072215363D

 39 41  0  0  0  0  0  0  0  0999 V2000
    1.1405    0.1074   -0.2425 N   0  0  0  0  0  0  0  0  0  0  0  0
    2.4752   -0.0308   -0.1306 C   0  0  0  0  0  0  0  0  0  0  0  0
    3.1312   -1.1640   -0.0608 N   0  0  0  0  0  0  0  0  0  0  0  0
    4.4390   -0.7795   -0.0129 C   0  0  0  0  0  0  0  0  0  0  0  0
    5.3725   -1.7470    0.0082 N   0  0  0  0  0  0  0  0  0  0  0  0
    6.7720   -1.6183    0.0796 C   0  0  0  0  0  0  0  0  0  0  0  0
    7.3829   -0.5004    0.6690 C   0  0  0  0  0  0  0  0  0  0  0  0
    8.7633   -0.3178    0.6269 C   0  0  0  0  0  0  0  0  0  0  0  0
    9.5545   -1.2664   -0.0148 C   0  0  0  0  0  0  0  0  0  0  0  0
   11.2982   -1.0007   -0.1169 S   0  0  0  0  0  0  0  0  0  0  0  0
   11.8352   -1.7684    1.2717 N   0  0  0  0  0  0  0  0  0  0  0  0
   11.8279   -1.7638   -1.2275 O   0  0  0  0  0  0  0  0  0  0  0  0
   11.5792    0.4027    0.0610 O   0  0  0  0  0  0  0  0  0  0  0  0
    8.9751   -2.3922   -0.6079 C   0  0  0  0  0  0  0  0  0  0  0  0
    7.5886   -2.5666   -0.5537 C   0  0  0  0  0  0  0  0  0  0  0  0
    4.6330    0.5396   -0.0429 N   0  0  0  0  0  0  0  0  0  0  0  0
    3.3771    1.0213   -0.1604 N   0  0  0  0  0  0  0  0  0  0  0  0
    3.1522    2.4025   -0.2751 C   0  0  0  0  0  0  0  0  0  0  0  0
    2.0346    2.8199    0.0274 O   0  0  0  0  0  0  0  0  0  0  0  0
    4.1715    3.3476   -0.7839 C   0  0  0  0  0  0  0  0  0  0  0  0
    4.9815    2.9918   -1.8641 C   0  0  0  0  0  0  0  0  0  0  0  0
    4.8457    1.8004   -2.4624 F   0  0  0  0  0  0  0  0  0  0  0  0
    5.9034    3.8878   -2.4048 C   0  0  0  0  0  0  0  0  0  0  0  0
    6.0011    5.1774   -1.8885 C   0  0  0  0  0  0  0  0  0  0  0  0
    5.1778    5.5564   -0.8279 C   0  0  0  0  0  0  0  0  0  0  0  0
    4.2725    4.6416   -0.2800 C   0  0  0  0  0  0  0  0  0  0  0  0
    3.5082    5.0472    0.7437 F   0  0  0  0  0  0  0  0  0  0  0  0
    0.5646   -0.7075   -0.0572 H   0  0  0  0  0  0  0  0  0  0  0  0
    0.7059    1.0008   -0.0092 H   0  0  0  0  0  0  0  0  0  0  0  0
    5.0347   -2.6896   -0.1339 H   0  0  0  0  0  0  0  0  0  0  0  0
    6.7834    0.2508    1.1776 H   0  0  0  0  0  0  0  0  0  0  0  0
    9.2008    0.5680    1.0820 H   0  0  0  0  0  0  0  0  0  0  0  0
   12.4445   -2.5473    1.0263 H   0  0  0  0  0  0  0  0  0  0  0  0
   12.2566   -1.0876    1.9025 H   0  0  0  0  0  0  0  0  0  0  0  0
    9.5906   -3.1241   -1.1261 H   0  0  0  0  0  0  0  0  0  0  0  0
    7.1468   -3.4302   -1.0452 H   0  0  0  0  0  0  0  0  0  0  0  0
    6.5217    3.5756   -3.2423 H   0  0  0  0  0  0  0  0  0  0  0  0
    6.7041    5.8864   -2.3213 H   0  0  0  0  0  0  0  0  0  0  0  0
    5.2290    6.5661   -0.4283 H   0  0  0  0  0  0  0  0  0  0  0  0
  1  2  1  0  0  0  0
  1 28  1  0  0  0  0
  1 29  1  0  0  0  0
  2  3  2  0  0  0  0
  2 17  1  0  0  0  0
  3  4  1  0  0  0  0
  4  5  1  0  0  0  0
  4 16  2  0  0  0  0
  5  6  1  0  0  0  0
  5 30  1  0  0  0  0
  6  7  1  0  0  0  0
  6 15  2  0  0  0  0
  7  8  2  0  0  0  0
  7 31  1  0  0  0  0
  8  9  1  0  0  0  0
  8 32  1  0  0  0  0
  9 10  1  0  0  0  0
  9 14  2  0  0  0  0
 10 11  1  0  0  0  0
 10 12  2  0  0  0  0
 10 13  2  0  0  0  0
 11 33  1  0  0  0  0
 11 34  1  0  0  0  0
 14 15  1  0  0  0  0
 14 35  1  0  0  0  0
 15 36  1  0  0  0  0
 16 17  1  0  0  0  0
 17 18  1  0  0  0  0
 18 19  2  0  0  0  0
 18 20  1  0  0  0  0
 20 21  1  0  0  0  0
 20 26  2  0  0  0  0
 21 22  1  0  0  0  0
 21 23  2  0  0  0  0
 23 24  1  0  0  0  0
 23 37  1  0  0  0  0
 24 25  2  0  0  0  0
 24 38  1  0  0  0  0
 25 26  1  0  0  0  0
 25 39  1  0  0  0  0
 26 27  1  0  0  0  0
M  END
$$$$
