CHEMBL1083022
 OpenBabel04072215363D

 74 78  0  0  0  0  0  0  0  0999 V2000
    7.4502   -3.1182    0.3186 C   0  0  0  0  0  0  0  0  0  0  0  0
    6.5348   -2.2363    0.9781 O   0  0  0  0  0  0  0  0  0  0  0  0
    5.2130   -2.3459    0.6020 C   0  0  0  0  0  0  0  0  0  0  0  0
    4.7495   -3.3422   -0.2674 C   0  0  0  0  0  0  0  0  0  0  0  0
    3.4079   -3.3972   -0.6469 C   0  0  0  0  0  0  0  0  0  0  0  0
    2.9438   -4.4383   -1.5558 C   0  0  0  0  0  0  0  0  0  0  0  0
    2.8517   -4.1764   -3.0243 C   0  0  0  0  0  0  0  0  0  0  0  0
    2.4211   -4.9955   -3.9332 N   0  0  0  0  0  0  0  0  0  0  0  0
    1.9991   -6.2194   -3.4838 C   0  0  0  0  0  0  0  0  0  0  0  0
    1.4384   -7.3067   -4.1330 C   0  0  0  0  0  0  0  0  0  0  0  0
    1.1446   -7.4116   -5.5563 C   0  0  0  0  0  0  0  0  0  0  0  0
    1.1830   -8.6600   -6.1818 C   0  0  0  0  0  0  0  0  0  0  0  0
    0.8575   -8.7813   -7.5274 C   0  0  0  0  0  0  0  0  0  0  0  0
    0.4709   -7.6542   -8.2573 C   0  0  0  0  0  0  0  0  0  0  0  0
    0.4018   -6.3828   -7.6703 C   0  0  0  0  0  0  0  0  0  0  0  0
   -0.0968   -5.3050   -8.3768 N   0  0  0  0  0  0  0  0  0  0  0  0
   -0.6985   -4.1463   -7.7003 C   0  0  0  0  0  0  0  0  0  0  0  0
   -1.9181   -3.6531   -8.5146 C   0  0  0  0  0  0  0  0  0  0  0  0
   -1.5752   -3.3320   -9.9189 N   0  0  0  0  0  0  0  0  0  0  0  0
   -2.7625   -2.8977  -10.6490 C   0  0  0  0  0  0  0  0  0  0  0  0
   -0.9756   -4.5307  -10.5523 C   0  0  0  0  0  0  0  0  0  0  0  0
    0.2614   -5.0550   -9.7823 C   0  0  0  0  0  0  0  0  0  0  0  0
    0.7688   -6.2891   -6.3166 C   0  0  0  0  0  0  0  0  0  0  0  0
    1.2054   -8.2455   -3.1034 C   0  0  0  0  0  0  0  0  0  0  0  0
    1.5970   -7.8269   -1.9025 N   0  0  0  0  0  0  0  0  0  0  0  0
    2.0934   -6.5781   -2.1325 N   0  0  0  0  0  0  0  0  0  0  0  0
    2.5977   -5.6795   -1.1542 C   0  0  0  0  0  0  0  0  0  0  0  0
    2.6734   -6.1446    0.1610 N   0  0  0  0  0  0  0  0  0  0  0  0
    2.5104   -2.4624   -0.1345 C   0  0  0  0  0  0  0  0  0  0  0  0
    2.9583   -1.4709    0.7384 C   0  0  0  0  0  0  0  0  0  0  0  0
    4.3082   -1.3825    1.1039 C   0  0  0  0  0  0  0  0  0  0  0  0
    4.7947   -0.3283    1.9188 N   0  0  0  0  0  0  0  0  0  0  0  0
    4.1235    0.8206    2.2675 C   0  0  0  0  0  0  0  0  0  0  0  0
    2.9388    1.0726    2.0978 O   0  0  0  0  0  0  0  0  0  0  0  0
    5.0097    1.7473    2.7333 O   0  0  0  0  0  0  0  0  0  0  0  0
    4.7165    3.0864    2.2960 C   0  0  0  0  0  0  0  0  0  0  0  0
    4.0427    3.9929    3.3371 C   0  0  0  0  0  0  0  0  0  0  0  0
    4.8907    4.1592    4.5967 C   0  0  0  0  0  0  0  0  0  0  0  0
    3.7884    5.3668    2.7022 C   0  0  0  0  0  0  0  0  0  0  0  0
    8.4561   -2.9261    0.7019 H   0  0  0  0  0  0  0  0  0  0  0  0
    7.4637   -2.9300   -0.7619 H   0  0  0  0  0  0  0  0  0  0  0  0
    7.2204   -4.1702    0.5277 H   0  0  0  0  0  0  0  0  0  0  0  0
    5.4098   -4.1058   -0.6721 H   0  0  0  0  0  0  0  0  0  0  0  0
    3.2099   -3.1823   -3.3473 H   0  0  0  0  0  0  0  0  0  0  0  0
    1.4594   -9.5552   -5.6275 H   0  0  0  0  0  0  0  0  0  0  0  0
    0.8757   -9.7547   -8.0077 H   0  0  0  0  0  0  0  0  0  0  0  0
    0.1676   -7.7987   -9.2889 H   0  0  0  0  0  0  0  0  0  0  0  0
    0.0432   -3.3444   -7.5979 H   0  0  0  0  0  0  0  0  0  0  0  0
   -1.0639   -4.4010   -6.6990 H   0  0  0  0  0  0  0  0  0  0  0  0
   -2.3286   -2.7656   -8.0193 H   0  0  0  0  0  0  0  0  0  0  0  0
   -2.6933   -4.4323   -8.4865 H   0  0  0  0  0  0  0  0  0  0  0  0
   -3.1868   -1.9997  -10.1863 H   0  0  0  0  0  0  0  0  0  0  0  0
   -3.5403   -3.6691  -10.6803 H   0  0  0  0  0  0  0  0  0  0  0  0
   -2.5008   -2.6281  -11.6778 H   0  0  0  0  0  0  0  0  0  0  0  0
   -0.6693   -4.2890  -11.5767 H   0  0  0  0  0  0  0  0  0  0  0  0
   -1.7187   -5.3381  -10.6125 H   0  0  0  0  0  0  0  0  0  0  0  0
    1.0633   -4.3059   -9.8214 H   0  0  0  0  0  0  0  0  0  0  0  0
    0.6406   -5.9448  -10.2944 H   0  0  0  0  0  0  0  0  0  0  0  0
    0.7591   -5.3156   -5.8353 H   0  0  0  0  0  0  0  0  0  0  0  0
    0.7492   -9.2242   -3.1832 H   0  0  0  0  0  0  0  0  0  0  0  0
    2.0521   -6.9414    0.3151 H   0  0  0  0  0  0  0  0  0  0  0  0
    2.6114   -5.4209    0.8729 H   0  0  0  0  0  0  0  0  0  0  0  0
    1.4559   -2.4909   -0.4028 H   0  0  0  0  0  0  0  0  0  0  0  0
    2.2164   -0.7721    1.1111 H   0  0  0  0  0  0  0  0  0  0  0  0
    5.7930   -0.3255    2.0928 H   0  0  0  0  0  0  0  0  0  0  0  0
    4.1124    3.0636    1.3789 H   0  0  0  0  0  0  0  0  0  0  0  0
    5.6796    3.5203    2.0056 H   0  0  0  0  0  0  0  0  0  0  0  0
    3.0808    3.5575    3.6347 H   0  0  0  0  0  0  0  0  0  0  0  0
    5.8787    4.5678    4.3583 H   0  0  0  0  0  0  0  0  0  0  0  0
    5.0280    3.2029    5.1089 H   0  0  0  0  0  0  0  0  0  0  0  0
    4.4079    4.8487    5.2996 H   0  0  0  0  0  0  0  0  0  0  0  0
    4.7280    5.8305    2.3783 H   0  0  0  0  0  0  0  0  0  0  0  0
    3.3033    6.0504    3.4065 H   0  0  0  0  0  0  0  0  0  0  0  0
    3.1413    5.2772    1.8229 H   0  0  0  0  0  0  0  0  0  0  0  0
  1  2  1  0  0  0  0
  1 40  1  0  0  0  0
  1 41  1  0  0  0  0
  1 42  1  0  0  0  0
  2  3  1  0  0  0  0
  3  4  1  0  0  0  0
  3 31  2  0  0  0  0
  4  5  2  0  0  0  0
  4 43  1  0  0  0  0
  5  6  1  0  0  0  0
  5 29  1  0  0  0  0
  6  7  1  0  0  0  0
  6 27  2  0  0  0  0
  7  8  2  0  0  0  0
  7 44  1  0  0  0  0
  8  9  1  0  0  0  0
  9 10  2  0  0  0  0
  9 26  1  0  0  0  0
 10 11  1  0  0  0  0
 10 24  1  0  0  0  0
 11 12  1  0  0  0  0
 11 23  2  0  0  0  0
 12 13  2  0  0  0  0
 12 45  1  0  0  0  0
 13 14  1  0  0  0  0
 13 46  1  0  0  0  0
 14 15  2  0  0  0  0
 14 47  1  0  0  0  0
 15 16  1  0  0  0  0
 15 23  1  0  0  0  0
 16 17  1  0  0  0  0
 16 22  1  0  0  0  0
 17 18  1  0  0  0  0
 17 48  1  0  0  0  0
 17 49  1  0  0  0  0
 18 19  1  0  0  0  0
 18 50  1  0  0  0  0
 18 51  1  0  0  0  0
 19 20  1  0  0  0  0
 19 21  1  0  0  0  0
 20 52  1  0  0  0  0
 20 53  1  0  0  0  0
 20 54  1  0  0  0  0
 21 22  1  0  0  0  0
 21 55  1  0  0  0  0
 21 56  1  0  0  0  0
 22 57  1  0  0  0  0
 22 58  1  0  0  0  0
 23 59  1  0  0  0  0
 24 25  2  0  0  0  0
 24 60  1  0  0  0  0
 25 26  1  0  0  0  0
 26 27  1  0  0  0  0
 27 28  1  0  0  0  0
 28 61  1  0  0  0  0
 28 62  1  0  0  0  0
 29 30  2  0  0  0  0
 29 63  1  0  0  0  0
 30 31  1  0  0  0  0
 30 64  1  0  0  0  0
 31 32  1  0  0  0  0
 32 33  1  0  0  0  0
 32 65  1  0  0  0  0
 33 34  2  0  0  0  0
 33 35  1  0  0  0  0
 35 36  1  0  0  0  0
 36 37  1  0  0  0  0
 36 66  1  0  0  0  0
 36 67  1  0  0  0  0
 37 38  1  0  0  0  0
 37 39  1  0  0  0  0
 37 68  1  0  0  0  0
 38 69  1  0  0  0  0
 38 70  1  0  0  0  0
 38 71  1  0  0  0  0
 39 72  1  0  0  0  0
 39 73  1  0  0  0  0
 39 74  1  0  0  0  0
M  END
$$$$
