CHEMBL3628803
 OpenBabel04072215373D

 49 51  0  0  0  0  0  0  0  0999 V2000
    1.9708    3.9774   -1.7083 C   0  0  0  0  0  0  0  0  0  0  0  0
    1.7538    2.9756   -2.8280 C   0  0  0  0  0  0  0  0  0  0  0  0
    2.6958    1.8969   -2.6700 O   0  0  0  0  0  0  0  0  0  0  0  0
    3.8964    2.1332   -3.2627 C   0  0  0  0  0  0  0  0  0  0  0  0
    4.0878    3.0438   -4.0522 O   0  0  0  0  0  0  0  0  0  0  0  0
    4.8219    1.2395   -2.7949 N   0  0  0  0  0  0  0  0  0  0  0  0
    6.2102    1.3395   -2.9818 C   0  0  0  0  0  0  0  0  0  0  0  0
    6.8122    2.5047   -3.4962 C   0  0  0  0  0  0  0  0  0  0  0  0
    8.1955    2.6132   -3.6836 C   0  0  0  0  0  0  0  0  0  0  0  0
    9.0227    1.5536   -3.3483 C   0  0  0  0  0  0  0  0  0  0  0  0
   10.3632    1.7369   -3.6250 O   0  0  0  0  0  0  0  0  0  0  0  0
   11.3020    1.1539   -2.7791 C   0  0  0  0  0  0  0  0  0  0  0  0
   11.0112    1.0483   -1.4661 N   0  0  0  0  0  0  0  0  0  0  0  0
   11.9310    0.4334   -0.7306 C   0  0  0  0  0  0  0  0  0  0  0  0
   13.0895   -0.0716   -1.1738 N   0  0  0  0  0  0  0  0  0  0  0  0
   13.3625    0.0670   -2.4785 C   0  0  0  0  0  0  0  0  0  0  0  0
   14.5229   -0.4961   -3.0259 C   0  0  0  0  0  0  0  0  0  0  0  0
   14.8641   -0.4181   -4.4026 C   0  0  0  0  0  0  0  0  0  0  0  0
   15.8350   -1.3113   -4.7694 O   0  0  0  0  0  0  0  0  0  0  0  0
   17.0480   -0.8077   -5.3110 C   0  0  0  0  0  0  0  0  0  0  0  0
   14.0389    0.3207   -5.2537 C   0  0  0  0  0  0  0  0  0  0  0  0
   14.0796    0.5906   -6.5848 O   0  0  0  0  0  0  0  0  0  0  0  0
   15.0747    0.0917   -7.4450 C   0  0  0  0  0  0  0  0  0  0  0  0
   12.8700    0.8824   -4.7071 C   0  0  0  0  0  0  0  0  0  0  0  0
   12.5048    0.7264   -3.3505 C   0  0  0  0  0  0  0  0  0  0  0  0
    8.4580    0.3772   -2.8541 C   0  0  0  0  0  0  0  0  0  0  0  0
    7.0594    0.2494   -2.6768 C   0  0  0  0  0  0  0  0  0  0  0  0
    6.5272   -1.0612   -2.1601 C   0  0  0  0  0  0  0  0  0  0  0  0
    1.3060    4.8392   -1.8155 H   0  0  0  0  0  0  0  0  0  0  0  0
    3.0042    4.3315   -1.6921 H   0  0  0  0  0  0  0  0  0  0  0  0
    1.7847    3.5044   -0.7371 H   0  0  0  0  0  0  0  0  0  0  0  0
    1.8381    3.4589   -3.8091 H   0  0  0  0  0  0  0  0  0  0  0  0
    0.7430    2.5515   -2.7730 H   0  0  0  0  0  0  0  0  0  0  0  0
    4.4532    0.4826   -2.2529 H   0  0  0  0  0  0  0  0  0  0  0  0
    6.2269    3.3880   -3.7348 H   0  0  0  0  0  0  0  0  0  0  0  0
    8.6099    3.5324   -4.0890 H   0  0  0  0  0  0  0  0  0  0  0  0
   11.7178    0.3318    0.3239 H   0  0  0  0  0  0  0  0  0  0  0  0
   15.1602   -1.0799   -2.3622 H   0  0  0  0  0  0  0  0  0  0  0  0
   17.8897   -1.3270   -4.8394 H   0  0  0  0  0  0  0  0  0  0  0  0
   17.1825    0.2705   -5.1884 H   0  0  0  0  0  0  0  0  0  0  0  0
   17.0933   -1.0918   -6.3665 H   0  0  0  0  0  0  0  0  0  0  0  0
   14.7956    0.3838   -8.4634 H   0  0  0  0  0  0  0  0  0  0  0  0
   15.1199   -0.9994   -7.4222 H   0  0  0  0  0  0  0  0  0  0  0  0
   16.0361    0.5714   -7.2496 H   0  0  0  0  0  0  0  0  0  0  0  0
   12.1982    1.4180   -5.3768 H   0  0  0  0  0  0  0  0  0  0  0  0
    9.1051   -0.4687   -2.6152 H   0  0  0  0  0  0  0  0  0  0  0  0
    7.3067   -1.8338   -2.1366 H   0  0  0  0  0  0  0  0  0  0  0  0
    5.7321   -1.4342   -2.8170 H   0  0  0  0  0  0  0  0  0  0  0  0
    6.1384   -0.9435   -1.1447 H   0  0  0  0  0  0  0  0  0  0  0  0
  1  2  1  0  0  0  0
  1 29  1  0  0  0  0
  1 30  1  0  0  0  0
  1 31  1  0  0  0  0
  2  3  1  0  0  0  0
  2 32  1  0  0  0  0
  2 33  1  0  0  0  0
  3  4  1  0  0  0  0
  4  5  2  0  0  0  0
  4  6  1  0  0  0  0
  6  7  1  0  0  0  0
  6 34  1  0  0  0  0
  7  8  1  0  0  0  0
  7 27  2  0  0  0  0
  8  9  2  0  0  0  0
  8 35  1  0  0  0  0
  9 10  1  0  0  0  0
  9 36  1  0  0  0  0
 10 11  1  0  0  0  0
 10 26  2  0  0  0  0
 11 12  1  0  0  0  0
 12 13  1  0  0  0  0
 12 25  2  0  0  0  0
 13 14  2  0  0  0  0
 14 15  1  0  0  0  0
 14 37  1  0  0  0  0
 15 16  2  0  0  0  0
 16 17  1  0  0  0  0
 16 25  1  0  0  0  0
 17 18  2  0  0  0  0
 17 38  1  0  0  0  0
 18 19  1  0  0  0  0
 18 21  1  0  0  0  0
 19 20  1  0  0  0  0
 20 39  1  0  0  0  0
 20 40  1  0  0  0  0
 20 41  1  0  0  0  0
 21 22  1  0  0  0  0
 21 24  2  0  0  0  0
 22 23  1  0  0  0  0
 23 42  1  0  0  0  0
 23 43  1  0  0  0  0
 23 44  1  0  0  0  0
 24 25  1  0  0  0  0
 24 45  1  0  0  0  0
 26 27  1  0  0  0  0
 26 46  1  0  0  0  0
 27 28  1  0  0  0  0
 28 47  1  0  0  0  0
 28 48  1  0  0  0  0
 28 49  1  0  0  0  0
M  END
$$$$
