CHEMBL3589738
 OpenBabel04072215363D

 46 49  0  0  0  0  0  0  0  0999 V2000
    1.1100    0.0558    0.4725 O   0  0  0  0  0  0  0  0  0  0  0  0
    2.3124   -0.1833    0.4149 C   0  0  0  0  0  0  0  0  0  0  0  0
    2.9211   -0.9186   -0.6000 N   0  0  0  0  0  0  0  0  0  0  0  0
    2.2033   -1.3681   -1.7339 C   0  0  0  0  0  0  0  0  0  0  0  0
    0.9910   -0.7825   -2.0389 C   0  0  0  0  0  0  0  0  0  0  0  0
    0.1773   -1.3286   -2.9954 C   0  0  0  0  0  0  0  0  0  0  0  0
    0.6241   -2.2869   -3.8989 C   0  0  0  0  0  0  0  0  0  0  0  0
   -0.2177   -2.6378   -4.9874 N   0  0  0  0  0  0  0  0  0  0  0  0
   -0.8108   -1.6147   -5.5548 C   0  0  0  0  0  0  0  0  0  0  0  0
   -0.1212   -0.2763   -5.9461 C   0  0  0  0  0  0  0  0  0  0  0  0
    0.9758   -0.1582   -6.4453 O   0  0  0  0  0  0  0  0  0  0  0  0
   -0.9794    0.7239   -5.5315 N   0  0  0  0  0  0  0  0  0  0  0  0
   -2.0980    0.1745   -4.9103 C   0  0  0  0  0  0  0  0  0  0  0  0
   -2.8495    0.7914   -3.9240 C   0  0  0  0  0  0  0  0  0  0  0  0
   -3.7035   -0.0189   -3.1629 C   0  0  0  0  0  0  0  0  0  0  0  0
   -3.8494   -1.3923   -3.4457 C   0  0  0  0  0  0  0  0  0  0  0  0
   -3.0778   -2.0046   -4.4374 C   0  0  0  0  0  0  0  0  0  0  0  0
   -2.1774   -1.2085   -5.1262 C   0  0  0  0  0  0  0  0  0  0  0  0
    1.8659   -2.8644   -3.6418 C   0  0  0  0  0  0  0  0  0  0  0  0
    2.6492   -2.4212   -2.5445 C   0  0  0  0  0  0  0  0  0  0  0  0
    3.2014    0.2772    1.3581 N   0  0  0  0  0  0  0  0  0  0  0  0
    2.8332    1.0516    2.4882 C   0  0  0  0  0  0  0  0  0  0  0  0
    1.5130    1.2279    2.9251 C   0  0  0  0  0  0  0  0  0  0  0  0
    1.2116    2.0388    4.0138 C   0  0  0  0  0  0  0  0  0  0  0  0
    2.2340    2.6743    4.7084 C   0  0  0  0  0  0  0  0  0  0  0  0
    3.5643    2.4914    4.3084 C   0  0  0  0  0  0  0  0  0  0  0  0
    4.6987    3.1502    5.0506 C   0  0  0  0  0  0  0  0  0  0  0  0
    4.2913    3.8910    6.1127 F   0  0  0  0  0  0  0  0  0  0  0  0
    5.5850    2.2406    5.5376 F   0  0  0  0  0  0  0  0  0  0  0  0
    5.4186    3.9880    4.2562 F   0  0  0  0  0  0  0  0  0  0  0  0
    3.8526    1.6795    3.1941 C   0  0  0  0  0  0  0  0  0  0  0  0
    3.8001   -1.3672   -0.3965 H   0  0  0  0  0  0  0  0  0  0  0  0
    0.5966    0.0917   -1.5368 H   0  0  0  0  0  0  0  0  0  0  0  0
   -0.8260   -0.9397   -3.0104 H   0  0  0  0  0  0  0  0  0  0  0  0
   -0.6952    1.6919   -5.4958 H   0  0  0  0  0  0  0  0  0  0  0  0
   -2.6634    1.8180   -3.6212 H   0  0  0  0  0  0  0  0  0  0  0  0
   -4.2036    0.3964   -2.2878 H   0  0  0  0  0  0  0  0  0  0  0  0
   -4.4922   -2.0046   -2.8152 H   0  0  0  0  0  0  0  0  0  0  0  0
   -3.0680   -3.0834   -4.5532 H   0  0  0  0  0  0  0  0  0  0  0  0
    2.2204   -3.6726   -4.2756 H   0  0  0  0  0  0  0  0  0  0  0  0
    3.5917   -2.9212   -2.3410 H   0  0  0  0  0  0  0  0  0  0  0  0
    4.1802    0.2355    1.1176 H   0  0  0  0  0  0  0  0  0  0  0  0
    0.6690    0.7443    2.4409 H   0  0  0  0  0  0  0  0  0  0  0  0
    0.1703    2.1748    4.3148 H   0  0  0  0  0  0  0  0  0  0  0  0
    1.9908    3.3110    5.5654 H   0  0  0  0  0  0  0  0  0  0  0  0
    4.8900    1.5633    2.8832 H   0  0  0  0  0  0  0  0  0  0  0  0
  1  2  2  0  0  0  0
  2  3  1  0  0  0  0
  2 21  1  0  0  0  0
  3  4  1  0  0  0  0
  3 32  1  0  0  0  0
  4  5  1  0  0  0  0
  4 20  2  0  0  0  0
  5  6  2  0  0  0  0
  5 33  1  0  0  0  0
  6  7  1  0  0  0  0
  6 34  1  0  0  0  0
  7  8  1  0  0  0  0
  7 19  2  0  0  0  0
  8  9  2  0  0  0  0
  9 10  1  0  0  0  0
  9 18  1  0  0  0  0
 10 11  2  0  0  0  0
 10 12  1  0  0  0  0
 12 13  1  0  0  0  0
 12 35  1  0  0  0  0
 13 14  1  0  0  0  0
 13 18  2  0  0  0  0
 14 15  2  0  0  0  0
 14 36  1  0  0  0  0
 15 16  1  0  0  0  0
 15 37  1  0  0  0  0
 16 17  2  0  0  0  0
 16 38  1  0  0  0  0
 17 18  1  0  0  0  0
 17 39  1  0  0  0  0
 19 20  1  0  0  0  0
 19 40  1  0  0  0  0
 20 41  1  0  0  0  0
 21 22  1  0  0  0  0
 21 42  1  0  0  0  0
 22 23  1  0  0  0  0
 22 31  2  0  0  0  0
 23 24  2  0  0  0  0
 23 43  1  0  0  0  0
 24 25  1  0  0  0  0
 24 44  1  0  0  0  0
 25 26  2  0  0  0  0
 25 45  1  0  0  0  0
 26 27  1  0  0  0  0
 26 31  1  0  0  0  0
 27 28  1  0  0  0  0
 27 29  1  0  0  0  0
 27 30  1  0  0  0  0
 31 46  1  0  0  0  0
M  END
$$$$
