CHEMBL68920
 OpenBabel04072215383D

 42 45  0  0  0  0  0  0  0  0999 V2000
    2.6525    0.7110    0.0926 C   0  0  0  0  0  0  0  0  0  0  0  0
    1.2181    0.3436    0.0302 C   0  0  0  0  0  0  0  0  0  0  0  0
    0.0837    1.1219   -0.0329 C   0  0  0  0  0  0  0  0  0  0  0  0
   -1.0379    0.2524   -0.0687 C   0  0  0  0  0  0  0  0  0  0  0  0
   -2.4693    0.6589   -0.1321 C   0  0  0  0  0  0  0  0  0  0  0  0
   -0.5498   -1.0503   -0.0287 C   0  0  0  0  0  0  0  0  0  0  0  0
   -1.2617   -2.2743   -0.0286 C   0  0  0  0  0  0  0  0  0  0  0  0
   -0.8231   -3.5418    0.0188 C   0  0  0  0  0  0  0  0  0  0  0  0
    0.5744   -4.1009    0.0423 C   0  0  0  0  0  0  0  0  0  0  0  0
    1.6282   -3.4945    0.0259 O   0  0  0  0  0  0  0  0  0  0  0  0
    0.4138   -5.4715    0.0781 N   0  0  0  0  0  0  0  0  0  0  0  0
   -0.9236   -5.8300    0.0816 C   0  0  0  0  0  0  0  0  0  0  0  0
   -1.3408   -7.0941    0.1017 N   0  0  0  0  0  0  0  0  0  0  0  0
   -2.6731   -7.2091    0.0683 C   0  0  0  0  0  0  0  0  0  0  0  0
   -3.5581   -6.1953    0.0028 N   0  0  0  0  0  0  0  0  0  0  0  0
   -3.0786   -4.9321   -0.0162 C   0  0  0  0  0  0  0  0  0  0  0  0
   -3.9959   -3.8639   -0.0706 N   0  0  0  0  0  0  0  0  0  0  0  0
   -5.1968   -3.8494   -0.8096 C   0  0  0  0  0  0  0  0  0  0  0  0
   -6.2519   -3.0100   -0.4238 C   0  0  0  0  0  0  0  0  0  0  0  0
   -7.4288   -2.9562   -1.1771 C   0  0  0  0  0  0  0  0  0  0  0  0
   -7.5443   -3.7168   -2.3354 C   0  0  0  0  0  0  0  0  0  0  0  0
   -8.6850   -3.6571   -3.0369 F   0  0  0  0  0  0  0  0  0  0  0  0
   -6.4883   -4.5153   -2.7618 C   0  0  0  0  0  0  0  0  0  0  0  0
   -6.6039   -5.4346   -4.2126 Cl  0  0  0  0  0  0  0  0  0  0  0  0
   -5.3167   -4.5694   -2.0095 C   0  0  0  0  0  0  0  0  0  0  0  0
   -1.7248   -4.7040    0.0455 C   0  0  0  0  0  0  0  0  0  0  0  0
    0.8181   -0.9708    0.0262 N   0  0  0  0  0  0  0  0  0  0  0  0
    2.7811    1.7979    0.0743 H   0  0  0  0  0  0  0  0  0  0  0  0
    3.1937    0.2898   -0.7608 H   0  0  0  0  0  0  0  0  0  0  0  0
    3.1061    0.3304    1.0136 H   0  0  0  0  0  0  0  0  0  0  0  0
    0.0627    2.2048   -0.0487 H   0  0  0  0  0  0  0  0  0  0  0  0
   -2.5783    1.7476   -0.1483 H   0  0  0  0  0  0  0  0  0  0  0  0
   -3.0122    0.2766    0.7385 H   0  0  0  0  0  0  0  0  0  0  0  0
   -2.9411    0.2559   -1.0344 H   0  0  0  0  0  0  0  0  0  0  0  0
   -2.3334   -2.1226   -0.0774 H   0  0  0  0  0  0  0  0  0  0  0  0
    1.1683   -6.1390    0.0774 H   0  0  0  0  0  0  0  0  0  0  0  0
   -3.0869   -8.2109    0.0981 H   0  0  0  0  0  0  0  0  0  0  0  0
   -4.0752   -3.4280    0.8444 H   0  0  0  0  0  0  0  0  0  0  0  0
   -6.1750   -2.3981    0.4717 H   0  0  0  0  0  0  0  0  0  0  0  0
   -8.2565   -2.3244   -0.8690 H   0  0  0  0  0  0  0  0  0  0  0  0
   -4.4881   -5.1767   -2.3647 H   0  0  0  0  0  0  0  0  0  0  0  0
    1.4538   -1.7636    0.0619 H   0  0  0  0  0  0  0  0  0  0  0  0
  1  2  1  0  0  0  0
  1 28  1  0  0  0  0
  1 29  1  0  0  0  0
  1 30  1  0  0  0  0
  2  3  2  0  0  0  0
  2 27  1  0  0  0  0
  3  4  1  0  0  0  0
  3 31  1  0  0  0  0
  4  5  1  0  0  0  0
  4  6  2  0  0  0  0
  5 32  1  0  0  0  0
  5 33  1  0  0  0  0
  5 34  1  0  0  0  0
  6  7  1  0  0  0  0
  6 27  1  0  0  0  0
  7  8  2  0  0  0  0
  7 35  1  0  0  0  0
  8  9  1  0  0  0  0
  8 26  1  0  0  0  0
  9 10  2  0  0  0  0
  9 11  1  0  0  0  0
 11 12  1  0  0  0  0
 11 36  1  0  0  0  0
 12 13  1  0  0  0  0
 12 26  2  0  0  0  0
 13 14  2  0  0  0  0
 14 15  1  0  0  0  0
 14 37  1  0  0  0  0
 15 16  2  0  0  0  0
 16 17  1  0  0  0  0
 16 26  1  0  0  0  0
 17 18  1  0  0  0  0
 17 38  1  0  0  0  0
 18 19  1  0  0  0  0
 18 25  2  0  0  0  0
 19 20  2  0  0  0  0
 19 39  1  0  0  0  0
 20 21  1  0  0  0  0
 20 40  1  0  0  0  0
 21 22  1  0  0  0  0
 21 23  2  0  0  0  0
 23 24  1  0  0  0  0
 23 25  1  0  0  0  0
 25 41  1  0  0  0  0
 27 42  1  0  0  0  0
M  END
$$$$
