CHEMBL1092013
 OpenBabel04072215363D

 52 56  0  0  0  0  0  0  0  0999 V2000
   -1.8601   -2.1161    1.0886 C   0  0  0  0  0  0  0  0  0  0  0  0
   -1.0723   -1.0167    0.4279 C   0  0  0  0  0  0  0  0  0  0  0  0
   -1.6433    0.2611    0.2981 C   0  0  0  0  0  0  0  0  0  0  0  0
   -0.9279    1.3181   -0.2776 C   0  0  0  0  0  0  0  0  0  0  0  0
    0.3781    1.1133   -0.7290 C   0  0  0  0  0  0  0  0  0  0  0  0
    1.1958    2.1907   -1.3572 C   0  0  0  0  0  0  0  0  0  0  0  0
    2.0746    1.8908   -2.1603 O   0  0  0  0  0  0  0  0  0  0  0  0
    0.9252    3.4931   -0.9742 N   0  0  0  0  0  0  0  0  0  0  0  0
    1.6735    4.5957   -1.4966 C   0  0  0  0  0  0  0  0  0  0  0  0
    2.9532    5.0380   -0.8407 C   0  0  0  0  0  0  0  0  0  0  0  0
    1.7352    5.9100   -0.7667 C   0  0  0  0  0  0  0  0  0  0  0  0
    0.9447   -0.1642   -0.6279 C   0  0  0  0  0  0  0  0  0  0  0  0
    0.2327   -1.2318   -0.0534 C   0  0  0  0  0  0  0  0  0  0  0  0
    0.9063   -2.5393    0.0305 C   0  0  0  0  0  0  0  0  0  0  0  0
    0.7941   -3.4208   -0.9827 C   0  0  0  0  0  0  0  0  0  0  0  0
    1.5155   -4.6333   -0.9461 C   0  0  0  0  0  0  0  0  0  0  0  0
    1.6452   -5.6614   -1.8722 C   0  0  0  0  0  0  0  0  0  0  0  0
    2.5148   -6.5792   -1.4580 N   0  0  0  0  0  0  0  0  0  0  0  0
    2.9085   -6.1786   -0.2103 N   0  0  0  0  0  0  0  0  0  0  0  0
    3.6702   -7.0910    0.5651 C   0  0  0  0  0  0  0  0  0  0  0  0
    3.4865   -7.2006    1.9486 C   0  0  0  0  0  0  0  0  0  0  0  0
    4.2628   -8.0941    2.6939 C   0  0  0  0  0  0  0  0  0  0  0  0
    5.1844   -8.9244    2.0576 C   0  0  0  0  0  0  0  0  0  0  0  0
    5.3351   -8.8576    0.6747 C   0  0  0  0  0  0  0  0  0  0  0  0
    4.5838   -7.9451   -0.0648 C   0  0  0  0  0  0  0  0  0  0  0  0
    4.8249   -7.8773   -1.3824 F   0  0  0  0  0  0  0  0  0  0  0  0
    2.3512   -4.9292    0.1083 C   0  0  0  0  0  0  0  0  0  0  0  0
    2.5672   -4.0401    1.1764 N   0  0  0  0  0  0  0  0  0  0  0  0
    3.5684   -4.1359    2.2199 C   0  0  0  0  0  0  0  0  0  0  0  0
    1.7931   -2.8588    1.2115 C   0  0  0  0  0  0  0  0  0  0  0  0
    1.8351   -2.0736    2.1601 O   0  0  0  0  0  0  0  0  0  0  0  0
   -2.8312   -1.7553    1.4443 H   0  0  0  0  0  0  0  0  0  0  0  0
   -1.3196   -2.5037    1.9584 H   0  0  0  0  0  0  0  0  0  0  0  0
   -2.0484   -2.9306    0.3824 H   0  0  0  0  0  0  0  0  0  0  0  0
   -2.6579    0.4425    0.6492 H   0  0  0  0  0  0  0  0  0  0  0  0
   -1.4184    2.2807   -0.3839 H   0  0  0  0  0  0  0  0  0  0  0  0
    0.2543    3.6762   -0.2408 H   0  0  0  0  0  0  0  0  0  0  0  0
    1.6494    4.6406   -2.5840 H   0  0  0  0  0  0  0  0  0  0  0  0
    3.7667    5.3432   -1.4893 H   0  0  0  0  0  0  0  0  0  0  0  0
    3.2755    4.5271    0.0587 H   0  0  0  0  0  0  0  0  0  0  0  0
    1.7295    6.8181   -1.3592 H   0  0  0  0  0  0  0  0  0  0  0  0
    1.2478    6.0053    0.1955 H   0  0  0  0  0  0  0  0  0  0  0  0
    1.9611   -0.3230   -0.9885 H   0  0  0  0  0  0  0  0  0  0  0  0
    0.1827   -3.1946   -1.8523 H   0  0  0  0  0  0  0  0  0  0  0  0
    1.1754   -5.7824   -2.8400 H   0  0  0  0  0  0  0  0  0  0  0  0
    2.7259   -6.6221    2.4646 H   0  0  0  0  0  0  0  0  0  0  0  0
    4.1386   -8.1510    3.7731 H   0  0  0  0  0  0  0  0  0  0  0  0
    5.7774   -9.6286    2.6359 H   0  0  0  0  0  0  0  0  0  0  0  0
    6.0424   -9.5027    0.1619 H   0  0  0  0  0  0  0  0  0  0  0  0
    4.3680   -4.8278    1.9611 H   0  0  0  0  0  0  0  0  0  0  0  0
    3.0719   -4.4245    3.1521 H   0  0  0  0  0  0  0  0  0  0  0  0
    4.0380   -3.1590    2.3772 H   0  0  0  0  0  0  0  0  0  0  0  0
  1  2  1  0  0  0  0
  1 32  1  0  0  0  0
  1 33  1  0  0  0  0
  1 34  1  0  0  0  0
  2  3  1  0  0  0  0
  2 13  2  0  0  0  0
  3  4  2  0  0  0  0
  3 35  1  0  0  0  0
  4  5  1  0  0  0  0
  4 36  1  0  0  0  0
  5  6  1  0  0  0  0
  5 12  2  0  0  0  0
  6  7  2  0  0  0  0
  6  8  1  0  0  0  0
  8  9  1  0  0  0  0
  8 37  1  0  0  0  0
  9 10  1  0  0  0  0
  9 11  1  0  0  0  0
  9 38  1  0  0  0  0
 10 11  1  0  0  0  0
 10 39  1  0  0  0  0
 10 40  1  0  0  0  0
 11 41  1  0  0  0  0
 11 42  1  0  0  0  0
 12 13  1  0  0  0  0
 12 43  1  0  0  0  0
 13 14  1  0  0  0  0
 14 15  2  0  0  0  0
 14 30  1  0  0  0  0
 15 16  1  0  0  0  0
 15 44  1  0  0  0  0
 16 17  1  0  0  0  0
 16 27  2  0  0  0  0
 17 18  2  0  0  0  0
 17 45  1  0  0  0  0
 18 19  1  0  0  0  0
 19 20  1  0  0  0  0
 19 27  1  0  0  0  0
 20 21  1  0  0  0  0
 20 25  2  0  0  0  0
 21 22  2  0  0  0  0
 21 46  1  0  0  0  0
 22 23  1  0  0  0  0
 22 47  1  0  0  0  0
 23 24  2  0  0  0  0
 23 48  1  0  0  0  0
 24 25  1  0  0  0  0
 24 49  1  0  0  0  0
 25 26  1  0  0  0  0
 27 28  1  0  0  0  0
 28 29  1  0  0  0  0
 28 30  1  0  0  0  0
 29 50  1  0  0  0  0
 29 51  1  0  0  0  0
 29 52  1  0  0  0  0
 30 31  2  0  0  0  0
M  END
$$$$
