CHEMBL1967998
 OpenBabel04072215363D

 57 61  0  0  0  0  0  0  0  0999 V2000
    0.6653   -0.0115   -0.2384 C   0  0  0  0  0  0  0  0  0  0  0  0
    2.1650    0.0230    0.0282 C   0  0  0  0  0  0  0  0  0  0  0  0
    2.8281    1.2566   -0.4280 N   0  0  0  0  0  0  0  0  0  0  0  0
    4.2929    1.1708   -0.1827 C   0  0  0  0  0  0  0  0  0  0  0  0
    4.7002    1.1616    1.3077 C   0  0  0  0  0  0  0  0  0  0  0  0
    4.0817    2.2694    2.0391 N   0  0  0  0  0  0  0  0  0  0  0  0
    4.8377    3.2462    2.6522 C   0  0  0  0  0  0  0  0  0  0  0  0
    6.0559    3.7065    2.1399 C   0  0  0  0  0  0  0  0  0  0  0  0
    6.7823    4.7306    2.7705 C   0  0  0  0  0  0  0  0  0  0  0  0
    6.3205    5.3152    3.9489 C   0  0  0  0  0  0  0  0  0  0  0  0
    6.9910    6.4265    4.4900 N   0  0  0  0  0  0  0  0  0  0  0  0
    6.5457    7.3272    5.4521 C   0  0  0  0  0  0  0  0  0  0  0  0
    7.4537    8.0726    6.0942 N   0  0  0  0  0  0  0  0  0  0  0  0
    6.9875    8.8256    7.1172 C   0  0  0  0  0  0  0  0  0  0  0  0
    5.6726    8.8519    7.5298 C   0  0  0  0  0  0  0  0  0  0  0  0
    5.1897    9.7845    8.8881 Cl  0  0  0  0  0  0  0  0  0  0  0  0
    4.7947    8.1054    6.7697 C   0  0  0  0  0  0  0  0  0  0  0  0
    3.4201    8.0309    7.0742 N   0  0  0  0  0  0  0  0  0  0  0  0
    2.3633    7.7969    6.1605 C   0  0  0  0  0  0  0  0  0  0  0  0
    2.4165    8.3039    4.8518 C   0  0  0  0  0  0  0  0  0  0  0  0
    1.3049    8.2999    4.0000 C   0  0  0  0  0  0  0  0  0  0  0  0
    0.1326    7.7382    4.5026 C   0  0  0  0  0  0  0  0  0  0  0  0
   -1.1345    7.6603    3.9883 N   0  0  0  0  0  0  0  0  0  0  0  0
   -1.9898    6.9492    4.7451 N   0  0  0  0  0  0  0  0  0  0  0  0
   -1.2555    6.6212    5.8125 C   0  0  0  0  0  0  0  0  0  0  0  0
    0.0611    7.1307    5.7493 C   0  0  0  0  0  0  0  0  0  0  0  0
    1.1867    7.1618    6.5969 C   0  0  0  0  0  0  0  0  0  0  0  0
    5.2373    7.3891    5.7290 N   0  0  0  0  0  0  0  0  0  0  0  0
    5.1227    4.8199    4.4793 C   0  0  0  0  0  0  0  0  0  0  0  0
    4.3933    3.8168    3.8427 C   0  0  0  0  0  0  0  0  0  0  0  0
    2.6535    2.5327    1.7828 C   0  0  0  0  0  0  0  0  0  0  0  0
    2.3426    2.4735    0.2682 C   0  0  0  0  0  0  0  0  0  0  0  0
    0.2661   -0.9902    0.0494 H   0  0  0  0  0  0  0  0  0  0  0  0
    0.4451    0.1457   -1.2984 H   0  0  0  0  0  0  0  0  0  0  0  0
    0.1286    0.7394    0.3489 H   0  0  0  0  0  0  0  0  0  0  0  0
    2.6084   -0.8251   -0.5083 H   0  0  0  0  0  0  0  0  0  0  0  0
    2.3242   -0.1660    1.0951 H   0  0  0  0  0  0  0  0  0  0  0  0
    4.7698    2.0320   -0.6701 H   0  0  0  0  0  0  0  0  0  0  0  0
    4.7037    0.2858   -0.6794 H   0  0  0  0  0  0  0  0  0  0  0  0
    5.7926    1.1607    1.3911 H   0  0  0  0  0  0  0  0  0  0  0  0
    4.3773    0.2253    1.7770 H   0  0  0  0  0  0  0  0  0  0  0  0
    6.4396    3.3132    1.2036 H   0  0  0  0  0  0  0  0  0  0  0  0
    7.6978    5.0829    2.3055 H   0  0  0  0  0  0  0  0  0  0  0  0
    7.9770    6.5103    4.3124 H   0  0  0  0  0  0  0  0  0  0  0  0
    7.7437    9.4200    7.6222 H   0  0  0  0  0  0  0  0  0  0  0  0
    3.2708    7.6334    7.9942 H   0  0  0  0  0  0  0  0  0  0  0  0
    3.3335    8.7623    4.4854 H   0  0  0  0  0  0  0  0  0  0  0  0
    1.3582    8.7427    3.0114 H   0  0  0  0  0  0  0  0  0  0  0  0
   -1.4817    8.0849    3.1360 H   0  0  0  0  0  0  0  0  0  0  0  0
   -1.7124    6.0364    6.5997 H   0  0  0  0  0  0  0  0  0  0  0  0
    1.1227    6.7232    7.5871 H   0  0  0  0  0  0  0  0  0  0  0  0
    4.7129    5.1947    5.4127 H   0  0  0  0  0  0  0  0  0  0  0  0
    3.4696    3.4756    4.3053 H   0  0  0  0  0  0  0  0  0  0  0  0
    2.3407    3.5191    2.1487 H   0  0  0  0  0  0  0  0  0  0  0  0
    2.0519    1.7922    2.3220 H   0  0  0  0  0  0  0  0  0  0  0  0
    2.8143    3.3421   -0.2139 H   0  0  0  0  0  0  0  0  0  0  0  0
    1.2694    2.6145    0.1013 H   0  0  0  0  0  0  0  0  0  0  0  0
  1  2  1  0  0  0  0
  1 33  1  0  0  0  0
  1 34  1  0  0  0  0
  1 35  1  0  0  0  0
  2  3  1  0  0  0  0
  2 36  1  0  0  0  0
  2 37  1  0  0  0  0
  3  4  1  0  0  0  0
  3 32  1  0  0  0  0
  4  5  1  0  0  0  0
  4 38  1  0  0  0  0
  4 39  1  0  0  0  0
  5  6  1  0  0  0  0
  5 40  1  0  0  0  0
  5 41  1  0  0  0  0
  6  7  1  0  0  0  0
  6 31  1  0  0  0  0
  7  8  1  0  0  0  0
  7 30  2  0  0  0  0
  8  9  2  0  0  0  0
  8 42  1  0  0  0  0
  9 10  1  0  0  0  0
  9 43  1  0  0  0  0
 10 11  1  0  0  0  0
 10 29  2  0  0  0  0
 11 12  1  0  0  0  0
 11 44  1  0  0  0  0
 12 13  1  0  0  0  0
 12 28  2  0  0  0  0
 13 14  2  0  0  0  0
 14 15  1  0  0  0  0
 14 45  1  0  0  0  0
 15 16  1  0  0  0  0
 15 17  2  0  0  0  0
 17 18  1  0  0  0  0
 17 28  1  0  0  0  0
 18 19  1  0  0  0  0
 18 46  1  0  0  0  0
 19 20  1  0  0  0  0
 19 27  2  0  0  0  0
 20 21  2  0  0  0  0
 20 47  1  0  0  0  0
 21 22  1  0  0  0  0
 21 48  1  0  0  0  0
 22 23  1  0  0  0  0
 22 26  2  0  0  0  0
 23 24  1  0  0  0  0
 23 49  1  0  0  0  0
 24 25  2  0  0  0  0
 25 26  1  0  0  0  0
 25 50  1  0  0  0  0
 26 27  1  0  0  0  0
 27 51  1  0  0  0  0
 29 30  1  0  0  0  0
 29 52  1  0  0  0  0
 30 53  1  0  0  0  0
 31 32  1  0  0  0  0
 31 54  1  0  0  0  0
 31 55  1  0  0  0  0
 32 56  1  0  0  0  0
 32 57  1  0  0  0  0
M  END
$$$$
