CHEMBL606255
 OpenBabel04072215383D

 40 43  0  0  0  0  0  0  0  0999 V2000
    2.9470   -2.3568   -0.2686 C   0  0  0  0  0  0  0  0  0  0  0  0
    4.1446   -1.5962   -0.1514 O   0  0  0  0  0  0  0  0  0  0  0  0
    4.3311   -0.9289    1.0281 C   0  0  0  0  0  0  0  0  0  0  0  0
    3.4534   -0.9289    2.1081 C   0  0  0  0  0  0  0  0  0  0  0  0
    3.7736   -0.2232    3.2720 C   0  0  0  0  0  0  0  0  0  0  0  0
    4.9778    0.4837    3.3906 C   0  0  0  0  0  0  0  0  0  0  0  0
    5.3077    1.2007    4.5591 N   0  0  0  0  0  0  0  0  0  0  0  0
    4.9281    0.8335    5.8571 C   0  0  0  0  0  0  0  0  0  0  0  0
    4.8162   -0.4765    6.1393 N   0  0  0  0  0  0  0  0  0  0  0  0
    4.4644   -0.8224    7.3807 C   0  0  0  0  0  0  0  0  0  0  0  0
    4.2190    0.0964    8.3694 C   0  0  0  0  0  0  0  0  0  0  0  0
    4.3553    1.4292    8.0176 C   0  0  0  0  0  0  0  0  0  0  0  0
    4.7107    1.8037    6.7588 N   0  0  0  0  0  0  0  0  0  0  0  0
    4.1374    2.5020    9.0211 C   0  0  0  0  0  0  0  0  0  0  0  0
    3.3822    3.5564    8.6021 N   0  0  0  0  0  0  0  0  0  0  0  0
    3.1558    4.5638    9.4744 C   0  0  0  0  0  0  0  0  0  0  0  0
    3.6827    4.6098   10.7517 C   0  0  0  0  0  0  0  0  0  0  0  0
    4.4694    3.5470   11.1746 C   0  0  0  0  0  0  0  0  0  0  0  0
    4.6563    2.4473   10.3325 C   0  0  0  0  0  0  0  0  0  0  0  0
    5.3182    1.3420   10.9037 N   0  0  0  0  0  0  0  0  0  0  0  0
    5.0316    0.0206   10.6932 C   0  0  0  0  0  0  0  0  0  0  0  0
    5.6379   -0.8463   11.3210 O   0  0  0  0  0  0  0  0  0  0  0  0
    3.8940   -0.3218    9.7589 C   0  0  0  0  0  0  0  0  0  0  0  0
    5.8309    0.5186    2.2842 C   0  0  0  0  0  0  0  0  0  0  0  0
    5.5172   -0.1960    1.1196 C   0  0  0  0  0  0  0  0  0  0  0  0
    2.9628   -2.8639   -1.2379 H   0  0  0  0  0  0  0  0  0  0  0  0
    2.0669   -1.7051   -0.2465 H   0  0  0  0  0  0  0  0  0  0  0  0
    2.8856   -3.1287    0.5065 H   0  0  0  0  0  0  0  0  0  0  0  0
    2.5149   -1.4713    2.0906 H   0  0  0  0  0  0  0  0  0  0  0  0
    3.0694   -0.2467    4.1002 H   0  0  0  0  0  0  0  0  0  0  0  0
    5.1850    2.2017    4.4714 H   0  0  0  0  0  0  0  0  0  0  0  0
    4.4009   -1.8891    7.5551 H   0  0  0  0  0  0  0  0  0  0  0  0
    2.5113    5.3585    9.1077 H   0  0  0  0  0  0  0  0  0  0  0  0
    3.4633    5.4398   11.4143 H   0  0  0  0  0  0  0  0  0  0  0  0
    4.8661    3.5514   12.1866 H   0  0  0  0  0  0  0  0  0  0  0  0
    5.9179    1.4913   11.7072 H   0  0  0  0  0  0  0  0  0  0  0  0
    2.9697    0.1517   10.1074 H   0  0  0  0  0  0  0  0  0  0  0  0
    3.7143   -1.4045    9.8089 H   0  0  0  0  0  0  0  0  0  0  0  0
    6.7696    1.0645    2.3352 H   0  0  0  0  0  0  0  0  0  0  0  0
    6.2104   -0.1907    0.2821 H   0  0  0  0  0  0  0  0  0  0  0  0
  1  2  1  0  0  0  0
  1 26  1  0  0  0  0
  1 27  1  0  0  0  0
  1 28  1  0  0  0  0
  2  3  1  0  0  0  0
  3  4  1  0  0  0  0
  3 25  2  0  0  0  0
  4  5  2  0  0  0  0
  4 29  1  0  0  0  0
  5  6  1  0  0  0  0
  5 30  1  0  0  0  0
  6  7  1  0  0  0  0
  6 24  2  0  0  0  0
  7  8  1  0  0  0  0
  7 31  1  0  0  0  0
  8  9  1  0  0  0  0
  8 13  2  0  0  0  0
  9 10  2  0  0  0  0
 10 11  1  0  0  0  0
 10 32  1  0  0  0  0
 11 12  2  0  0  0  0
 11 23  1  0  0  0  0
 12 13  1  0  0  0  0
 12 14  1  0  0  0  0
 14 15  1  0  0  0  0
 14 19  2  0  0  0  0
 15 16  2  0  0  0  0
 16 17  1  0  0  0  0
 16 33  1  0  0  0  0
 17 18  2  0  0  0  0
 17 34  1  0  0  0  0
 18 19  1  0  0  0  0
 18 35  1  0  0  0  0
 19 20  1  0  0  0  0
 20 21  1  0  0  0  0
 20 36  1  0  0  0  0
 21 22  2  0  0  0  0
 21 23  1  0  0  0  0
 23 37  1  0  0  0  0
 23 38  1  0  0  0  0
 24 25  1  0  0  0  0
 24 39  1  0  0  0  0
 25 40  1  0  0  0  0
M  END
$$$$
