CHEMBL3694649
 OpenBabel04072215373D

 46 49  0  0  0  0  0  0  0  0999 V2000
    4.1478    1.8394   -3.0846 N   0  0  0  0  0  0  0  0  0  0  0  0
    4.4944    1.2862   -2.1207 C   0  0  0  0  0  0  0  0  0  0  0  0
    4.8900    0.6198   -0.9126 C   0  0  0  0  0  0  0  0  0  0  0  0
    4.6161    1.1966    0.3118 C   0  0  0  0  0  0  0  0  0  0  0  0
    5.0401    0.4782    1.3931 C   0  0  0  0  0  0  0  0  0  0  0  0
    5.6841   -0.6925    1.2920 N   0  0  0  0  0  0  0  0  0  0  0  0
    5.9067   -1.1741    0.0481 C   0  0  0  0  0  0  0  0  0  0  0  0
    6.5333   -2.5106   -0.0858 C   0  0  0  0  0  0  0  0  0  0  0  0
    7.0088   -3.0758   -1.3736 C   0  0  0  0  0  0  0  0  0  0  0  0
    7.7407   -4.2143   -1.3788 C   0  0  0  0  0  0  0  0  0  0  0  0
    7.8445   -4.9460   -0.1774 N   0  0  0  0  0  0  0  0  0  0  0  0
    8.1507   -6.2974    0.0473 C   0  0  0  0  0  0  0  0  0  0  0  0
    9.2099   -6.8421    0.9635 C   0  0  0  0  0  0  0  0  0  0  0  0
    8.9951   -8.1432    1.4647 C   0  0  0  0  0  0  0  0  0  0  0  0
    9.7408   -8.6595    2.5134 C   0  0  0  0  0  0  0  0  0  0  0  0
   10.7692   -7.9056    3.0530 C   0  0  0  0  0  0  0  0  0  0  0  0
   11.0790   -6.6400    2.5426 C   0  0  0  0  0  0  0  0  0  0  0  0
   12.1456   -5.8824    3.0978 N   0  0  0  0  0  0  0  0  0  0  0  0
   13.1648   -6.4087    3.8698 C   0  0  0  0  0  0  0  0  0  0  0  0
   13.3860   -7.5955    4.0863 O   0  0  0  0  0  0  0  0  0  0  0  0
   13.9585   -5.4462    4.4510 N   0  0  0  0  0  0  0  0  0  0  0  0
   15.1292   -5.8948    5.2224 C   0  0  0  0  0  0  0  0  0  0  0  0
   16.3101   -6.4239    4.3917 C   0  0  0  0  0  0  0  0  0  0  0  0
   16.1716   -6.1329    3.0769 F   0  0  0  0  0  0  0  0  0  0  0  0
   17.4614   -5.8325    4.8007 F   0  0  0  0  0  0  0  0  0  0  0  0
   16.4793   -7.7555    4.5158 F   0  0  0  0  0  0  0  0  0  0  0  0
   10.2779   -6.0966    1.5078 C   0  0  0  0  0  0  0  0  0  0  0  0
    6.8138   -6.6880    0.2385 C   0  0  0  0  0  0  0  0  0  0  0  0
    6.1925   -5.7251    1.0109 N   0  0  0  0  0  0  0  0  0  0  0  0
    6.9431   -4.6490    0.8415 C   0  0  0  0  0  0  0  0  0  0  0  0
    6.6030   -3.2881    1.0192 C   0  0  0  0  0  0  0  0  0  0  0  0
    5.5388   -0.5495   -1.0757 N   0  0  0  0  0  0  0  0  0  0  0  0
    4.0951    2.1377    0.4116 H   0  0  0  0  0  0  0  0  0  0  0  0
    4.8705    0.8310    2.4117 H   0  0  0  0  0  0  0  0  0  0  0  0
    6.7163   -2.5798   -2.2949 H   0  0  0  0  0  0  0  0  0  0  0  0
    8.0860   -4.6934   -2.2870 H   0  0  0  0  0  0  0  0  0  0  0  0
    8.1766   -8.7571    1.0962 H   0  0  0  0  0  0  0  0  0  0  0  0
    9.4990   -9.6316    2.9337 H   0  0  0  0  0  0  0  0  0  0  0  0
   11.2947   -8.3284    3.9036 H   0  0  0  0  0  0  0  0  0  0  0  0
   12.2306   -4.9223    2.8037 H   0  0  0  0  0  0  0  0  0  0  0  0
   14.0214   -4.5514    3.9910 H   0  0  0  0  0  0  0  0  0  0  0  0
   14.8069   -6.6759    5.9227 H   0  0  0  0  0  0  0  0  0  0  0  0
   15.4517   -5.0386    5.8227 H   0  0  0  0  0  0  0  0  0  0  0  0
   10.4734   -5.0914    1.1478 H   0  0  0  0  0  0  0  0  0  0  0  0
    6.4016   -7.6886    0.1991 H   0  0  0  0  0  0  0  0  0  0  0  0
    6.2957   -2.9696    2.0086 H   0  0  0  0  0  0  0  0  0  0  0  0
  1  2  3  0  0  0  0
  2  3  1  0  0  0  0
  3  4  1  0  0  0  0
  3 32  2  0  0  0  0
  4  5  2  0  0  0  0
  4 33  1  0  0  0  0
  5  6  1  0  0  0  0
  5 34  1  0  0  0  0
  6  7  2  0  0  0  0
  7  8  1  0  0  0  0
  7 32  1  0  0  0  0
  8  9  1  0  0  0  0
  8 31  2  0  0  0  0
  9 10  2  0  0  0  0
  9 35  1  0  0  0  0
 10 11  1  0  0  0  0
 10 36  1  0  0  0  0
 11 12  1  0  0  0  0
 11 30  1  0  0  0  0
 12 13  1  0  0  0  0
 12 28  2  0  0  0  0
 13 14  1  0  0  0  0
 13 27  2  0  0  0  0
 14 15  2  0  0  0  0
 14 37  1  0  0  0  0
 15 16  1  0  0  0  0
 15 38  1  0  0  0  0
 16 17  2  0  0  0  0
 16 39  1  0  0  0  0
 17 18  1  0  0  0  0
 17 27  1  0  0  0  0
 18 19  1  0  0  0  0
 18 40  1  0  0  0  0
 19 20  2  0  0  0  0
 19 21  1  0  0  0  0
 21 22  1  0  0  0  0
 21 41  1  0  0  0  0
 22 23  1  0  0  0  0
 22 42  1  0  0  0  0
 22 43  1  0  0  0  0
 23 24  1  0  0  0  0
 23 25  1  0  0  0  0
 23 26  1  0  0  0  0
 27 44  1  0  0  0  0
 28 29  1  0  0  0  0
 28 45  1  0  0  0  0
 29 30  2  0  0  0  0
 30 31  1  0  0  0  0
 31 46  1  0  0  0  0
M  END
$$$$
