CHEMBL4543212
 OpenBabel04072215383D

 44 47  0  0  0  0  0  0  0  0999 V2000
   -1.6900   -2.9240    5.5219 C   0  0  0  0  0  0  0  0  0  0  0  0
   -2.2623   -2.2303    4.3216 C   0  0  0  0  0  0  0  0  0  0  0  0
   -2.9780   -2.9465    3.3575 C   0  0  0  0  0  0  0  0  0  0  0  0
   -3.5196   -2.2932    2.2483 C   0  0  0  0  0  0  0  0  0  0  0  0
   -3.3565   -0.9122    2.0824 C   0  0  0  0  0  0  0  0  0  0  0  0
   -3.9615   -0.2202    0.9632 C   0  0  0  0  0  0  0  0  0  0  0  0
   -5.1329   -0.5724    0.3301 C   0  0  0  0  0  0  0  0  0  0  0  0
   -5.3361    0.4340   -0.5669 N   0  0  0  0  0  0  0  0  0  0  0  0
   -6.5293    0.6855   -1.3563 C   0  0  0  0  0  0  0  0  0  0  0  0
   -6.4944   -0.0057   -2.6963 C   0  0  0  0  0  0  0  0  0  0  0  0
   -7.4773   -0.9419   -3.0465 C   0  0  0  0  0  0  0  0  0  0  0  0
   -7.4539   -1.5594   -4.3008 C   0  0  0  0  0  0  0  0  0  0  0  0
   -6.4517   -1.2530   -5.2303 C   0  0  0  0  0  0  0  0  0  0  0  0
   -6.4361   -1.9078   -6.5247 C   0  0  0  0  0  0  0  0  0  0  0  0
   -7.4951   -2.3846   -7.3313 C   0  0  0  0  0  0  0  0  0  0  0  0
   -7.0655   -2.9678   -8.4558 N   0  0  0  0  0  0  0  0  0  0  0  0
   -5.7282   -2.8676   -8.3682 N   0  0  0  0  0  0  0  0  0  0  0  0
   -4.8895   -3.4191   -9.4052 C   0  0  0  0  0  0  0  0  0  0  0  0
   -5.3001   -2.2392   -7.2336 C   0  0  0  0  0  0  0  0  0  0  0  0
   -5.4797   -0.3065   -4.8867 C   0  0  0  0  0  0  0  0  0  0  0  0
   -5.5029    0.3126   -3.6344 C   0  0  0  0  0  0  0  0  0  0  0  0
   -4.3374    1.3362   -0.5254 N   0  0  0  0  0  0  0  0  0  0  0  0
   -3.4884    0.9462    0.4183 N   0  0  0  0  0  0  0  0  0  0  0  0
   -2.6252   -0.1988    3.0388 C   0  0  0  0  0  0  0  0  0  0  0  0
   -2.0890   -0.8507    4.1558 C   0  0  0  0  0  0  0  0  0  0  0  0
   -1.8776   -4.0026    5.4868 H   0  0  0  0  0  0  0  0  0  0  0  0
   -2.1466   -2.5338    6.4369 H   0  0  0  0  0  0  0  0  0  0  0  0
   -0.6068   -2.7751    5.5642 H   0  0  0  0  0  0  0  0  0  0  0  0
   -3.1223   -4.0191    3.4614 H   0  0  0  0  0  0  0  0  0  0  0  0
   -4.0654   -2.8795    1.5134 H   0  0  0  0  0  0  0  0  0  0  0  0
   -5.8337   -1.3812    0.4712 H   0  0  0  0  0  0  0  0  0  0  0  0
   -6.6330    1.7686   -1.4900 H   0  0  0  0  0  0  0  0  0  0  0  0
   -7.3828    0.3458   -0.7578 H   0  0  0  0  0  0  0  0  0  0  0  0
   -8.2727   -1.2008   -2.3534 H   0  0  0  0  0  0  0  0  0  0  0  0
   -8.2211   -2.2927   -4.5388 H   0  0  0  0  0  0  0  0  0  0  0  0
   -8.5600   -2.3304   -7.1484 H   0  0  0  0  0  0  0  0  0  0  0  0
   -5.5144   -3.8364  -10.1979 H   0  0  0  0  0  0  0  0  0  0  0  0
   -4.2722   -4.2043   -8.9626 H   0  0  0  0  0  0  0  0  0  0  0  0
   -4.2642   -2.6174   -9.8036 H   0  0  0  0  0  0  0  0  0  0  0  0
   -4.2481   -2.1048   -7.0266 H   0  0  0  0  0  0  0  0  0  0  0  0
   -4.7000   -0.0274   -5.5914 H   0  0  0  0  0  0  0  0  0  0  0  0
   -4.7350    1.0513   -3.3989 H   0  0  0  0  0  0  0  0  0  0  0  0
   -2.4849    0.8764    2.9342 H   0  0  0  0  0  0  0  0  0  0  0  0
   -1.5392   -0.2740    4.8951 H   0  0  0  0  0  0  0  0  0  0  0  0
  1  2  1  0  0  0  0
  1 26  1  0  0  0  0
  1 27  1  0  0  0  0
  1 28  1  0  0  0  0
  2  3  1  0  0  0  0
  2 25  2  0  0  0  0
  3  4  2  0  0  0  0
  3 29  1  0  0  0  0
  4  5  1  0  0  0  0
  4 30  1  0  0  0  0
  5  6  1  0  0  0  0
  5 24  2  0  0  0  0
  6  7  2  0  0  0  0
  6 23  1  0  0  0  0
  7  8  1  0  0  0  0
  7 31  1  0  0  0  0
  8  9  1  0  0  0  0
  8 22  1  0  0  0  0
  9 10  1  0  0  0  0
  9 32  1  0  0  0  0
  9 33  1  0  0  0  0
 10 11  1  0  0  0  0
 10 21  2  0  0  0  0
 11 12  2  0  0  0  0
 11 34  1  0  0  0  0
 12 13  1  0  0  0  0
 12 35  1  0  0  0  0
 13 14  1  0  0  0  0
 13 20  2  0  0  0  0
 14 15  1  0  0  0  0
 14 19  2  0  0  0  0
 15 16  2  0  0  0  0
 15 36  1  0  0  0  0
 16 17  1  0  0  0  0
 17 18  1  0  0  0  0
 17 19  1  0  0  0  0
 18 37  1  0  0  0  0
 18 38  1  0  0  0  0
 18 39  1  0  0  0  0
 19 40  1  0  0  0  0
 20 21  1  0  0  0  0
 20 41  1  0  0  0  0
 21 42  1  0  0  0  0
 22 23  2  0  0  0  0
 24 25  1  0  0  0  0
 24 43  1  0  0  0  0
 25 44  1  0  0  0  0
M  END
$$$$
