CHEMBL3891894
 OpenBabel04072215373D

 59 64  0  0  0  0  0  0  0  0999 V2000
   -2.4356    4.5989   -7.3197 C   0  0  0  0  0  0  0  0  0  0  0  0
   -1.4945    4.2240   -6.2377 C   0  0  0  0  0  0  0  0  0  0  0  0
   -1.5808    3.1849   -5.4320 N   0  0  0  0  0  0  0  0  0  0  0  0
   -0.4510    3.2261   -4.6444 C   0  0  0  0  0  0  0  0  0  0  0  0
    0.0000    2.3476   -3.6492 C   0  0  0  0  0  0  0  0  0  0  0  0
    1.2493    2.5860   -3.0347 C   0  0  0  0  0  0  0  0  0  0  0  0
    2.0310    3.7014   -3.3917 C   0  0  0  0  0  0  0  0  0  0  0  0
    3.3367    3.9239   -2.8365 N   0  0  0  0  0  0  0  0  0  0  0  0
    3.8163    5.1993   -2.7337 N   0  0  0  0  0  0  0  0  0  0  0  0
    5.0690    5.0631   -2.2943 C   0  0  0  0  0  0  0  0  0  0  0  0
    5.4838    3.7236   -2.1930 C   0  0  0  0  0  0  0  0  0  0  0  0
    6.7927    3.1138   -1.9631 C   0  0  0  0  0  0  0  0  0  0  0  0
    6.9053    1.8999   -2.1486 O   0  0  0  0  0  0  0  0  0  0  0  0
    7.9634    3.8640   -1.5020 C   0  0  0  0  0  0  0  0  0  0  0  0
    9.1992    3.2405   -1.3253 C   0  0  0  0  0  0  0  0  0  0  0  0
    9.9395    3.9860   -0.3877 C   0  0  0  0  0  0  0  0  0  0  0  0
   11.0402    3.6715    0.4350 C   0  0  0  0  0  0  0  0  0  0  0  0
   10.6993    3.9508    1.7637 C   0  0  0  0  0  0  0  0  0  0  0  0
   10.4245    2.7431    2.6747 C   0  0  0  0  0  0  0  0  0  0  0  0
   11.4881    2.4216    3.6353 N   0  0  0  0  0  0  0  0  0  0  0  0
   11.4142    1.0298    4.1606 C   0  0  0  0  0  0  0  0  0  0  0  0
   10.4398    0.7534    5.3344 C   0  0  0  0  0  0  0  0  0  0  0  0
   10.4490    1.7778    6.3363 O   0  0  0  0  0  0  0  0  0  0  0  0
   10.2979    3.0668    5.7365 C   0  0  0  0  0  0  0  0  0  0  0  0
   11.4787    3.3328    4.7922 C   0  0  0  0  0  0  0  0  0  0  0  0
   10.1657    5.2267    2.0176 C   0  0  0  0  0  0  0  0  0  0  0  0
    9.5101    5.9399    0.9853 C   0  0  0  0  0  0  0  0  0  0  0  0
    9.2055    5.1400   -0.1259 C   0  0  0  0  0  0  0  0  0  0  0  0
    8.1847    5.1668   -1.0711 N   0  0  0  0  0  0  0  0  0  0  0  0
    4.3162    2.9900   -2.4542 C   0  0  0  0  0  0  0  0  0  0  0  0
    4.1412    1.6498   -2.4616 N   0  0  0  0  0  0  0  0  0  0  0  0
    1.5572    4.6202   -4.3403 C   0  0  0  0  0  0  0  0  0  0  0  0
    0.3319    4.3266   -4.9666 C   0  0  0  0  0  0  0  0  0  0  0  0
   -0.3598    4.9548   -5.9720 N   0  0  0  0  0  0  0  0  0  0  0  0
   -3.2965    3.9241   -7.3323 H   0  0  0  0  0  0  0  0  0  0  0  0
   -1.9400    4.5376   -8.2937 H   0  0  0  0  0  0  0  0  0  0  0  0
   -2.8034    5.6201   -7.1818 H   0  0  0  0  0  0  0  0  0  0  0  0
   -0.6034    1.4886   -3.3679 H   0  0  0  0  0  0  0  0  0  0  0  0
    1.5631    1.9055   -2.2464 H   0  0  0  0  0  0  0  0  0  0  0  0
    5.6219    5.9692   -2.1163 H   0  0  0  0  0  0  0  0  0  0  0  0
    9.4323    2.2268   -1.6281 H   0  0  0  0  0  0  0  0  0  0  0  0
   11.9201    4.2653    0.1240 H   0  0  0  0  0  0  0  0  0  0  0  0
   10.2964    1.8822    2.0015 H   0  0  0  0  0  0  0  0  0  0  0  0
    9.4382    2.8643    3.1376 H   0  0  0  0  0  0  0  0  0  0  0  0
   12.4212    0.7973    4.5328 H   0  0  0  0  0  0  0  0  0  0  0  0
   11.2336    0.3019    3.3592 H   0  0  0  0  0  0  0  0  0  0  0  0
   10.7378   -0.1744    5.8394 H   0  0  0  0  0  0  0  0  0  0  0  0
    9.4123    0.6156    4.9819 H   0  0  0  0  0  0  0  0  0  0  0  0
   10.2802    3.8147    6.5331 H   0  0  0  0  0  0  0  0  0  0  0  0
    9.3263    3.1139    5.2314 H   0  0  0  0  0  0  0  0  0  0  0  0
   12.4130    3.1664    5.3443 H   0  0  0  0  0  0  0  0  0  0  0  0
   11.4969    4.3757    4.4685 H   0  0  0  0  0  0  0  0  0  0  0  0
   10.0886    5.6069    3.0337 H   0  0  0  0  0  0  0  0  0  0  0  0
    9.0214    6.8887    1.1787 H   0  0  0  0  0  0  0  0  0  0  0  0
    7.5582    5.9500   -1.1825 H   0  0  0  0  0  0  0  0  0  0  0  0
    4.9809    1.0737   -2.3619 H   0  0  0  0  0  0  0  0  0  0  0  0
    3.4533    1.1983   -3.0638 H   0  0  0  0  0  0  0  0  0  0  0  0
    2.1430    5.4854   -4.6417 H   0  0  0  0  0  0  0  0  0  0  0  0
   -0.0699    5.7923   -6.4583 H   0  0  0  0  0  0  0  0  0  0  0  0
  1  2  1  0  0  0  0
  1 35  1  0  0  0  0
  1 36  1  0  0  0  0
  1 37  1  0  0  0  0
  2  3  2  0  0  0  0
  2 34  1  0  0  0  0
  3  4  1  0  0  0  0
  4  5  1  0  0  0  0
  4 33  2  0  0  0  0
  5  6  2  0  0  0  0
  5 38  1  0  0  0  0
  6  7  1  0  0  0  0
  6 39  1  0  0  0  0
  7  8  1  0  0  0  0
  7 32  2  0  0  0  0
  8  9  1  0  0  0  0
  8 30  1  0  0  0  0
  9 10  2  0  0  0  0
 10 11  1  0  0  0  0
 10 40  1  0  0  0  0
 11 12  1  0  0  0  0
 11 30  2  0  0  0  0
 12 13  2  0  0  0  0
 12 14  1  0  0  0  0
 14 15  2  0  0  0  0
 14 29  1  0  0  0  0
 15 16  1  0  0  0  0
 15 41  1  0  0  0  0
 16 17  1  0  0  0  0
 16 28  2  0  0  0  0
 17 18  2  0  0  0  0
 17 42  1  0  0  0  0
 18 19  1  0  0  0  0
 18 26  1  0  0  0  0
 19 20  1  0  0  0  0
 19 43  1  0  0  0  0
 19 44  1  0  0  0  0
 20 21  1  0  0  0  0
 20 25  1  0  0  0  0
 21 22  1  0  0  0  0
 21 45  1  0  0  0  0
 21 46  1  0  0  0  0
 22 23  1  0  0  0  0
 22 47  1  0  0  0  0
 22 48  1  0  0  0  0
 23 24  1  0  0  0  0
 24 25  1  0  0  0  0
 24 49  1  0  0  0  0
 24 50  1  0  0  0  0
 25 51  1  0  0  0  0
 25 52  1  0  0  0  0
 26 27  2  0  0  0  0
 26 53  1  0  0  0  0
 27 28  1  0  0  0  0
 27 54  1  0  0  0  0
 28 29  1  0  0  0  0
 29 55  1  0  0  0  0
 30 31  1  0  0  0  0
 31 56  1  0  0  0  0
 31 57  1  0  0  0  0
 32 33  1  0  0  0  0
 32 58  1  0  0  0  0
 33 34  1  0  0  0  0
 34 59  1  0  0  0  0
M  END
$$$$
