CHEMBL4084878
 OpenBabel04072215383D

 51 54  0  0  0  0  0  0  0  0999 V2000
   -1.0791    2.1950   -3.3762 C   0  0  0  0  0  0  0  0  0  0  0  0
   -1.3362    1.0274   -2.4886 C   0  0  0  0  0  0  0  0  0  0  0  0
   -1.7422   -0.1069   -3.0835 N   0  0  0  0  0  0  0  0  0  0  0  0
   -1.9149   -0.9598   -2.0664 N   0  0  0  0  0  0  0  0  0  0  0  0
   -1.6325   -0.4336   -0.8451 C   0  0  0  0  0  0  0  0  0  0  0  0
   -1.7398   -1.1046    0.3165 N   0  0  0  0  0  0  0  0  0  0  0  0
   -1.3904   -0.3639    1.3808 C   0  0  0  0  0  0  0  0  0  0  0  0
   -0.9659    0.9551    1.3374 C   0  0  0  0  0  0  0  0  0  0  0  0
   -0.8698    1.6348    0.1036 C   0  0  0  0  0  0  0  0  0  0  0  0
   -0.3930    3.0288    0.0433 C   0  0  0  0  0  0  0  0  0  0  0  0
    0.5264    3.4210   -0.9266 C   0  0  0  0  0  0  0  0  0  0  0  0
    0.9274    4.7503   -1.0685 C   0  0  0  0  0  0  0  0  0  0  0  0
    0.5020    5.7342   -0.1776 C   0  0  0  0  0  0  0  0  0  0  0  0
    0.9213    7.0848   -0.2745 N   0  0  0  0  0  0  0  0  0  0  0  0
    1.5510    7.6334   -1.3795 C   0  0  0  0  0  0  0  0  0  0  0  0
    1.6754    7.0639   -2.4600 O   0  0  0  0  0  0  0  0  0  0  0  0
    2.0775    8.8951   -1.1221 N   0  0  0  0  0  0  0  0  0  0  0  0
    2.8236    9.5517   -2.1339 C   0  0  0  0  0  0  0  0  0  0  0  0
    2.3779    9.5921   -3.4545 C   0  0  0  0  0  0  0  0  0  0  0  0
    3.2017   10.0949   -4.4684 C   0  0  0  0  0  0  0  0  0  0  0  0
    4.4945   10.5857   -4.2084 C   0  0  0  0  0  0  0  0  0  0  0  0
    5.3212   11.0017   -5.2383 N   0  0  0  0  0  0  0  0  0  0  0  0
    4.7884   11.6071   -6.4560 C   0  0  0  0  0  0  0  0  0  0  0  0
    6.7704   11.0544   -5.1005 C   0  0  0  0  0  0  0  0  0  0  0  0
    4.8880   10.5800   -2.8596 C   0  0  0  0  0  0  0  0  0  0  0  0
    4.0666   10.0944   -1.8304 C   0  0  0  0  0  0  0  0  0  0  0  0
   -0.3300    5.3456    0.8736 C   0  0  0  0  0  0  0  0  0  0  0  0
   -0.7841    4.0139    0.9704 C   0  0  0  0  0  0  0  0  0  0  0  0
   -1.2283    0.8832   -1.0558 C   0  0  0  0  0  0  0  0  0  0  0  0
   -1.3993    1.9872   -4.4044 H   0  0  0  0  0  0  0  0  0  0  0  0
   -0.0113    2.4171   -3.4401 H   0  0  0  0  0  0  0  0  0  0  0  0
   -1.6211    3.0809   -3.0351 H   0  0  0  0  0  0  0  0  0  0  0  0
   -2.2299   -1.9010   -2.2588 H   0  0  0  0  0  0  0  0  0  0  0  0
   -1.4612   -0.8821    2.3375 H   0  0  0  0  0  0  0  0  0  0  0  0
   -0.6897    1.4486    2.2657 H   0  0  0  0  0  0  0  0  0  0  0  0
    0.9619    2.6894   -1.6007 H   0  0  0  0  0  0  0  0  0  0  0  0
    1.5958    4.9651   -1.8958 H   0  0  0  0  0  0  0  0  0  0  0  0
    0.5777    7.7320    0.4200 H   0  0  0  0  0  0  0  0  0  0  0  0
    2.4025    9.0215   -0.1751 H   0  0  0  0  0  0  0  0  0  0  0  0
    1.4064    9.1879   -3.7261 H   0  0  0  0  0  0  0  0  0  0  0  0
    2.8268   10.0203   -5.4840 H   0  0  0  0  0  0  0  0  0  0  0  0
    3.6981   11.6231   -6.5185 H   0  0  0  0  0  0  0  0  0  0  0  0
    5.1665   11.0718   -7.3345 H   0  0  0  0  0  0  0  0  0  0  0  0
    5.1208   12.6478   -6.5233 H   0  0  0  0  0  0  0  0  0  0  0  0
    7.1572   10.4925   -4.2444 H   0  0  0  0  0  0  0  0  0  0  0  0
    7.1075   12.0933   -5.0214 H   0  0  0  0  0  0  0  0  0  0  0  0
    7.2393   10.6135   -5.9884 H   0  0  0  0  0  0  0  0  0  0  0  0
    5.8703   10.9502   -2.5791 H   0  0  0  0  0  0  0  0  0  0  0  0
    4.4538   10.0732   -0.8165 H   0  0  0  0  0  0  0  0  0  0  0  0
   -0.6529    6.0630    1.6237 H   0  0  0  0  0  0  0  0  0  0  0  0
   -1.4549    3.7598    1.7894 H   0  0  0  0  0  0  0  0  0  0  0  0
  1  2  1  0  0  0  0
  1 30  1  0  0  0  0
  1 31  1  0  0  0  0
  1 32  1  0  0  0  0
  2  3  2  0  0  0  0
  2 29  1  0  0  0  0
  3  4  1  0  0  0  0
  4  5  1  0  0  0  0
  4 33  1  0  0  0  0
  5  6  1  0  0  0  0
  5 29  2  0  0  0  0
  6  7  2  0  0  0  0
  7  8  1  0  0  0  0
  7 34  1  0  0  0  0
  8  9  2  0  0  0  0
  8 35  1  0  0  0  0
  9 10  1  0  0  0  0
  9 29  1  0  0  0  0
 10 11  1  0  0  0  0
 10 28  2  0  0  0  0
 11 12  2  0  0  0  0
 11 36  1  0  0  0  0
 12 13  1  0  0  0  0
 12 37  1  0  0  0  0
 13 14  1  0  0  0  0
 13 27  2  0  0  0  0
 14 15  1  0  0  0  0
 14 38  1  0  0  0  0
 15 16  2  0  0  0  0
 15 17  1  0  0  0  0
 17 18  1  0  0  0  0
 17 39  1  0  0  0  0
 18 19  1  0  0  0  0
 18 26  2  0  0  0  0
 19 20  2  0  0  0  0
 19 40  1  0  0  0  0
 20 21  1  0  0  0  0
 20 41  1  0  0  0  0
 21 22  1  0  0  0  0
 21 25  2  0  0  0  0
 22 23  1  0  0  0  0
 22 24  1  0  0  0  0
 23 42  1  0  0  0  0
 23 43  1  0  0  0  0
 23 44  1  0  0  0  0
 24 45  1  0  0  0  0
 24 46  1  0  0  0  0
 24 47  1  0  0  0  0
 25 26  1  0  0  0  0
 25 48  1  0  0  0  0
 26 49  1  0  0  0  0
 27 28  1  0  0  0  0
 27 50  1  0  0  0  0
 28 51  1  0  0  0  0
M  END
$$$$
