CHEMBL1794073
 OpenBabel04072215363D

 53 55  0  0  0  0  0  0  0  0999 V2000
    1.3723   -0.0366   -1.0111 C   0  0  0  0  0  0  0  0  0  0  0  0
    2.7063   -0.1367   -0.3538 C   0  0  0  0  0  0  0  0  0  0  0  0
    3.3306    0.8627    0.3139 N   0  0  0  0  0  0  0  0  0  0  0  0
    4.5116    0.4044    0.7241 N   0  0  0  0  0  0  0  0  0  0  0  0
    5.4648    1.2045    1.4852 C   0  0  0  0  0  0  0  0  0  0  0  0
    4.6475   -0.8777    0.3185 C   0  0  0  0  0  0  0  0  0  0  0  0
    5.7200   -1.7610    0.4792 C   0  0  0  0  0  0  0  0  0  0  0  0
    5.5972   -3.0770   -0.0692 C   0  0  0  0  0  0  0  0  0  0  0  0
    6.6764   -4.0342   -0.0260 N   0  0  0  0  0  0  0  0  0  0  0  0
    8.0661   -3.5871    0.0327 C   0  0  0  0  0  0  0  0  0  0  0  0
    6.4116   -5.4525   -0.0389 C   0  0  0  0  0  0  0  0  0  0  0  0
    7.3732   -6.3766   -0.4949 C   0  0  0  0  0  0  0  0  0  0  0  0
    7.0992   -7.7349   -0.4088 C   0  0  0  0  0  0  0  0  0  0  0  0
    5.9434   -8.1537    0.1540 N   0  0  0  0  0  0  0  0  0  0  0  0
    5.0106   -7.2697    0.5912 C   0  0  0  0  0  0  0  0  0  0  0  0
    3.8211   -7.7571    1.1978 N   0  0  0  0  0  0  0  0  0  0  0  0
    3.8329   -8.9276    2.0122 C   0  0  0  0  0  0  0  0  0  0  0  0
    2.6697   -9.6920    2.1818 C   0  0  0  0  0  0  0  0  0  0  0  0
    2.6854  -10.8229    3.0099 C   0  0  0  0  0  0  0  0  0  0  0  0
    3.8452  -11.1699    3.7062 C   0  0  0  0  0  0  0  0  0  0  0  0
    5.0003  -10.3942    3.5710 C   0  0  0  0  0  0  0  0  0  0  0  0
    6.4445  -10.7627    4.5638 S   0  0  0  0  0  0  0  0  0  0  0  0
    6.1871  -10.6108    6.3020 N   0  0  0  0  0  0  0  0  0  0  0  0
    7.0323  -12.1658    4.3565 O   0  0  0  0  0  0  0  0  0  0  0  0
    7.6452   -9.8463    4.2758 O   0  0  0  0  0  0  0  0  0  0  0  0
    4.9986   -9.2915    2.7166 C   0  0  0  0  0  0  0  0  0  0  0  0
    5.2341   -5.9324    0.4660 N   0  0  0  0  0  0  0  0  0  0  0  0
    4.3830   -3.4264   -0.7314 C   0  0  0  0  0  0  0  0  0  0  0  0
    3.3390   -2.5093   -0.8775 C   0  0  0  0  0  0  0  0  0  0  0  0
    3.5157   -1.2449   -0.3464 C   0  0  0  0  0  0  0  0  0  0  0  0
   -0.8395    0.8556    1.6636 Cl  0  0  0  0  0  0  0  0  0  0  0  0
    0.9494    0.9789   -0.8795 H   0  0  0  0  0  0  0  0  0  0  0  0
    0.6809   -0.7892   -0.5762 H   0  0  0  0  0  0  0  0  0  0  0  0
    1.4901   -0.2393   -2.0974 H   0  0  0  0  0  0  0  0  0  0  0  0
    5.0536    2.2229    1.6616 H   0  0  0  0  0  0  0  0  0  0  0  0
    6.4177    1.2972    0.9234 H   0  0  0  0  0  0  0  0  0  0  0  0
    5.6570    0.7278    2.4688 H   0  0  0  0  0  0  0  0  0  0  0  0
    6.6009   -1.4263    1.0077 H   0  0  0  0  0  0  0  0  0  0  0  0
    8.1776   -2.4889    0.0377 H   0  0  0  0  0  0  0  0  0  0  0  0
    8.6188   -3.9267   -0.8654 H   0  0  0  0  0  0  0  0  0  0  0  0
    8.5530   -3.9956    0.9449 H   0  0  0  0  0  0  0  0  0  0  0  0
    8.3161   -6.0744   -0.9214 H   0  0  0  0  0  0  0  0  0  0  0  0
    7.8127   -8.4617   -0.7721 H   0  0  0  0  0  0  0  0  0  0  0  0
    2.9495   -7.2125    1.1073 H   0  0  0  0  0  0  0  0  0  0  0  0
    1.7581   -9.4235    1.6647 H   0  0  0  0  0  0  0  0  0  0  0  0
    1.7928  -11.4215    3.1280 H   0  0  0  0  0  0  0  0  0  0  0  0
    3.8456  -12.0282    4.3662 H   0  0  0  0  0  0  0  0  0  0  0  0
    5.4193  -11.2709    6.5589 H   0  0  0  0  0  0  0  0  0  0  0  0
    5.8338   -9.6425    6.4769 H   0  0  0  0  0  0  0  0  0  0  0  0
    5.8952   -8.6894    2.6471 H   0  0  0  0  0  0  0  0  0  0  0  0
    4.2484   -4.3994   -1.1809 H   0  0  0  0  0  0  0  0  0  0  0  0
    2.4308   -2.7782   -1.4004 H   0  0  0  0  0  0  0  0  0  0  0  0
    0.5328    0.9291    1.7290 H   0  0  0  0  0  0  0  0  0  0  0  0
  1  2  1  0  0  0  0
  1 32  1  0  0  0  0
  1 33  1  0  0  0  0
  1 34  1  0  0  0  0
  2  3  2  0  0  0  0
  2 30  1  0  0  0  0
  3  4  1  0  0  0  0
  4  5  1  0  0  0  0
  4  6  1  0  0  0  0
  5 35  1  0  0  0  0
  5 36  1  0  0  0  0
  5 37  1  0  0  0  0
  6  7  1  0  0  0  0
  6 30  2  0  0  0  0
  7  8  2  0  0  0  0
  7 38  1  0  0  0  0
  8  9  1  0  0  0  0
  8 28  1  0  0  0  0
  9 10  1  0  0  0  0
  9 11  1  0  0  0  0
 10 39  1  0  0  0  0
 10 40  1  0  0  0  0
 10 41  1  0  0  0  0
 11 12  1  0  0  0  0
 11 27  2  0  0  0  0
 12 13  2  0  0  0  0
 12 42  1  0  0  0  0
 13 14  1  0  0  0  0
 13 43  1  0  0  0  0
 14 15  2  0  0  0  0
 15 16  1  0  0  0  0
 15 27  1  0  0  0  0
 16 17  1  0  0  0  0
 16 44  1  0  0  0  0
 17 18  1  0  0  0  0
 17 26  2  0  0  0  0
 18 19  2  0  0  0  0
 18 45  1  0  0  0  0
 19 20  1  0  0  0  0
 19 46  1  0  0  0  0
 20 21  2  0  0  0  0
 20 47  1  0  0  0  0
 21 22  1  0  0  0  0
 21 26  1  0  0  0  0
 22 23  1  0  0  0  0
 22 24  2  0  0  0  0
 22 25  2  0  0  0  0
 23 48  1  0  0  0  0
 23 49  1  0  0  0  0
 26 50  1  0  0  0  0
 28 29  2  0  0  0  0
 28 51  1  0  0  0  0
 29 30  1  0  0  0  0
 29 52  1  0  0  0  0
 31 53  1  0  0  0  0
M  END
$$$$
