CHEMBL3902261
 OpenBabel04072215373D

 72 76  0  0  0  0  0  0  0  0999 V2000
    1.9481   -1.2797    6.7191 C   0  0  0  0  0  0  0  0  0  0  0  0
    1.2510   -0.5000    5.7010 N   0  0  0  0  0  0  0  0  0  0  0  0
    0.7907   -1.3614    4.5995 C   0  0  0  0  0  0  0  0  0  0  0  0
    0.0067   -0.5547    3.5383 C   0  0  0  0  0  0  0  0  0  0  0  0
   -1.1846    0.1522    4.0619 N   0  0  0  0  0  0  0  0  0  0  0  0
   -2.2835   -0.7306    4.4964 C   0  0  0  0  0  0  0  0  0  0  0  0
   -2.8364   -1.6634    3.4339 C   0  0  0  0  0  0  0  0  0  0  0  0
   -2.2011   -2.8870    3.1809 C   0  0  0  0  0  0  0  0  0  0  0  0
   -2.6554   -3.7236    2.1691 C   0  0  0  0  0  0  0  0  0  0  0  0
   -1.9871   -4.9089    1.8770 N   0  0  0  0  0  0  0  0  0  0  0  0
   -0.7996   -4.9455    1.1905 C   0  0  0  0  0  0  0  0  0  0  0  0
   -0.2666   -3.9708    0.6654 O   0  0  0  0  0  0  0  0  0  0  0  0
   -0.1431   -6.1527    1.1742 N   0  0  0  0  0  0  0  0  0  0  0  0
   -0.5645   -7.3503    1.7709 C   0  0  0  0  0  0  0  0  0  0  0  0
    0.3119   -8.0000    2.6371 C   0  0  0  0  0  0  0  0  0  0  0  0
   -0.1175   -9.1287    3.3428 C   0  0  0  0  0  0  0  0  0  0  0  0
   -1.4282   -9.6024    3.1931 C   0  0  0  0  0  0  0  0  0  0  0  0
   -1.9402  -10.6779    3.8865 O   0  0  0  0  0  0  0  0  0  0  0  0
   -1.5919  -10.8727    5.2113 C   0  0  0  0  0  0  0  0  0  0  0  0
   -1.2552   -9.8415    6.0801 C   0  0  0  0  0  0  0  0  0  0  0  0
   -0.8649  -10.1876    7.3569 C   0  0  0  0  0  0  0  0  0  0  0  0
   -0.8629  -11.4514    7.8110 N   0  0  0  0  0  0  0  0  0  0  0  0
   -1.2692  -12.4344    7.0043 C   0  0  0  0  0  0  0  0  0  0  0  0
   -1.3106  -13.7543    7.4856 N   0  0  0  0  0  0  0  0  0  0  0  0
   -0.9662  -14.1072    8.7797 C   0  0  0  0  0  0  0  0  0  0  0  0
   -0.6107  -13.3747    9.6878 O   0  0  0  0  0  0  0  0  0  0  0  0
   -1.0062  -15.5849    9.0258 C   0  0  0  0  0  0  0  0  0  0  0  0
   -0.7715  -16.1458   10.4140 C   0  0  0  0  0  0  0  0  0  0  0  0
    0.2887  -16.2902    9.3636 C   0  0  0  0  0  0  0  0  0  0  0  0
   -1.6416  -12.1862    5.6824 C   0  0  0  0  0  0  0  0  0  0  0  0
   -2.2585   -8.9955    2.2503 C   0  0  0  0  0  0  0  0  0  0  0  0
   -3.4981   -9.4613    2.0385 F   0  0  0  0  0  0  0  0  0  0  0  0
   -1.8342   -7.8799    1.5342 C   0  0  0  0  0  0  0  0  0  0  0  0
   -3.8369   -3.4494    1.4976 C   0  0  0  0  0  0  0  0  0  0  0  0
   -4.5391   -2.2758    1.7836 C   0  0  0  0  0  0  0  0  0  0  0  0
   -5.8815   -2.0301    1.1447 C   0  0  0  0  0  0  0  0  0  0  0  0
   -6.3061   -3.0663    0.3646 F   0  0  0  0  0  0  0  0  0  0  0  0
   -6.8613   -1.8536    2.0756 F   0  0  0  0  0  0  0  0  0  0  0  0
   -5.9082   -0.9277    0.3522 F   0  0  0  0  0  0  0  0  0  0  0  0
   -4.0007   -1.3583    2.7100 C   0  0  0  0  0  0  0  0  0  0  0  0
   -0.7196    0.9946    5.1945 C   0  0  0  0  0  0  0  0  0  0  0  0
    0.1155    0.2477    6.2730 C   0  0  0  0  0  0  0  0  0  0  0  0
    2.7914   -1.8231    6.2775 H   0  0  0  0  0  0  0  0  0  0  0  0
    1.2915   -2.0085    7.2078 H   0  0  0  0  0  0  0  0  0  0  0  0
    2.3664   -0.6202    7.4869 H   0  0  0  0  0  0  0  0  0  0  0  0
    0.1715   -2.1747    4.9951 H   0  0  0  0  0  0  0  0  0  0  0  0
    1.6542   -1.8269    4.1095 H   0  0  0  0  0  0  0  0  0  0  0  0
   -0.2477   -1.1910    2.6854 H   0  0  0  0  0  0  0  0  0  0  0  0
    0.6851    0.1990    3.1135 H   0  0  0  0  0  0  0  0  0  0  0  0
   -3.1142   -0.0952    4.8353 H   0  0  0  0  0  0  0  0  0  0  0  0
   -2.0100   -1.3353    5.3688 H   0  0  0  0  0  0  0  0  0  0  0  0
   -1.3406   -3.1861    3.7701 H   0  0  0  0  0  0  0  0  0  0  0  0
   -2.3251   -5.7311    2.3479 H   0  0  0  0  0  0  0  0  0  0  0  0
    0.8436   -6.0231    0.9843 H   0  0  0  0  0  0  0  0  0  0  0  0
    1.3036   -7.5988    2.8305 H   0  0  0  0  0  0  0  0  0  0  0  0
    0.5724   -9.6037    4.0347 H   0  0  0  0  0  0  0  0  0  0  0  0
   -1.2646   -8.8009    5.7938 H   0  0  0  0  0  0  0  0  0  0  0  0
   -0.5296   -9.4409    8.0701 H   0  0  0  0  0  0  0  0  0  0  0  0
   -1.5971  -14.4839    6.8519 H   0  0  0  0  0  0  0  0  0  0  0  0
   -1.7275  -16.1327    8.4277 H   0  0  0  0  0  0  0  0  0  0  0  0
   -1.3157  -17.0346   10.7115 H   0  0  0  0  0  0  0  0  0  0  0  0
   -0.5842  -15.4551   11.2307 H   0  0  0  0  0  0  0  0  0  0  0  0
    0.4616  -17.2725    8.9402 H   0  0  0  0  0  0  0  0  0  0  0  0
    1.1863  -15.6913    9.4831 H   0  0  0  0  0  0  0  0  0  0  0  0
   -1.9628  -12.9862    5.0244 H   0  0  0  0  0  0  0  0  0  0  0  0
   -2.5021   -7.4398    0.7998 H   0  0  0  0  0  0  0  0  0  0  0  0
   -4.2007   -4.1478    0.7471 H   0  0  0  0  0  0  0  0  0  0  0  0
   -4.5176   -0.4156    2.8884 H   0  0  0  0  0  0  0  0  0  0  0  0
   -1.5724    1.4936    5.6707 H   0  0  0  0  0  0  0  0  0  0  0  0
   -0.1016    1.8032    4.7806 H   0  0  0  0  0  0  0  0  0  0  0  0
   -0.5427   -0.4269    6.8354 H   0  0  0  0  0  0  0  0  0  0  0  0
    0.4966    0.9894    6.9851 H   0  0  0  0  0  0  0  0  0  0  0  0
  1  2  1  0  0  0  0
  1 43  1  0  0  0  0
  1 44  1  0  0  0  0
  1 45  1  0  0  0  0
  2  3  1  0  0  0  0
  2 42  1  0  0  0  0
  3  4  1  0  0  0  0
  3 46  1  0  0  0  0
  3 47  1  0  0  0  0
  4  5  1  0  0  0  0
  4 48  1  0  0  0  0
  4 49  1  0  0  0  0
  5  6  1  0  0  0  0
  5 41  1  0  0  0  0
  6  7  1  0  0  0  0
  6 50  1  0  0  0  0
  6 51  1  0  0  0  0
  7  8  1  0  0  0  0
  7 40  2  0  0  0  0
  8  9  2  0  0  0  0
  8 52  1  0  0  0  0
  9 10  1  0  0  0  0
  9 34  1  0  0  0  0
 10 11  1  0  0  0  0
 10 53  1  0  0  0  0
 11 12  2  0  0  0  0
 11 13  1  0  0  0  0
 13 14  1  0  0  0  0
 13 54  1  0  0  0  0
 14 15  1  0  0  0  0
 14 33  2  0  0  0  0
 15 16  2  0  0  0  0
 15 55  1  0  0  0  0
 16 17  1  0  0  0  0
 16 56  1  0  0  0  0
 17 18  1  0  0  0  0
 17 31  2  0  0  0  0
 18 19  1  0  0  0  0
 19 20  1  0  0  0  0
 19 30  2  0  0  0  0
 20 21  2  0  0  0  0
 20 57  1  0  0  0  0
 21 22  1  0  0  0  0
 21 58  1  0  0  0  0
 22 23  2  0  0  0  0
 23 24  1  0  0  0  0
 23 30  1  0  0  0  0
 24 25  1  0  0  0  0
 24 59  1  0  0  0  0
 25 26  2  0  0  0  0
 25 27  1  0  0  0  0
 27 28  1  0  0  0  0
 27 29  1  0  0  0  0
 27 60  1  0  0  0  0
 28 29  1  0  0  0  0
 28 61  1  0  0  0  0
 28 62  1  0  0  0  0
 29 63  1  0  0  0  0
 29 64  1  0  0  0  0
 30 65  1  0  0  0  0
 31 32  1  0  0  0  0
 31 33  1  0  0  0  0
 33 66  1  0  0  0  0
 34 35  2  0  0  0  0
 34 67  1  0  0  0  0
 35 36  1  0  0  0  0
 35 40  1  0  0  0  0
 36 37  1  0  0  0  0
 36 38  1  0  0  0  0
 36 39  1  0  0  0  0
 40 68  1  0  0  0  0
 41 42  1  0  0  0  0
 41 69  1  0  0  0  0
 41 70  1  0  0  0  0
 42 71  1  0  0  0  0
 42 72  1  0  0  0  0
M  END
$$$$
