CHEMBL2007151
 OpenBabel04072215363D

 71 76  0  0  1  0  0  0  0  0999 V2000
    1.0538   -0.1382   -0.0515 C   0  0  0  0  0  0  0  0  0  0  0  0
    2.5367   -0.0029   -0.0502 C   0  0  0  0  0  0  0  0  0  0  0  0
    3.3366    1.1475   -0.0418 C   0  0  0  0  0  0  0  0  0  0  0  0
    2.8015    2.4789   -0.0569 C   0  0  0  0  0  0  0  0  0  0  0  0
    3.4703    3.5439   -0.6912 C   0  0  0  0  0  0  0  0  0  0  0  0
    2.9602    4.8185   -0.6707 C   0  0  0  0  0  0  0  0  0  0  0  0
    1.6951    5.0619   -0.1430 C   0  0  0  0  0  0  0  0  0  0  0  0
    0.9867    3.9928    0.4400 C   0  0  0  0  0  0  0  0  0  0  0  0
   -0.2853    4.1709    0.9363 O   0  0  0  0  0  0  0  0  0  0  0  0
   -0.6185    3.2541    1.9869 C   0  0  0  0  0  0  0  0  0  0  0  0
   -1.6469    3.8362    2.9187 C   0  0  0  0  0  0  0  0  0  0  0  0
   -2.6183    4.7303    2.4610 C   0  0  0  0  0  0  0  0  0  0  0  0
   -3.5947    5.2065    3.3282 C   0  0  0  0  0  0  0  0  0  0  0  0
   -3.6161    4.7850    4.6568 C   0  0  0  0  0  0  0  0  0  0  0  0
   -2.6516    3.8936    5.1218 C   0  0  0  0  0  0  0  0  0  0  0  0
   -1.6712    3.4170    4.2591 C   0  0  0  0  0  0  0  0  0  0  0  0
    1.5776    2.7817    0.5037 C   0  0  0  0  0  0  0  0  0  0  0  0
    4.6961    0.7292   -0.0294 C   0  0  0  0  0  0  0  0  0  0  0  0
    5.9457    1.3716    0.0200 C   0  0  0  0  0  0  0  0  0  0  0  0
    6.1347    2.7321    0.1287 N   0  0  0  0  0  0  0  0  0  0  0  0
    7.0650    0.6397   -0.0084 N   0  0  0  0  0  0  0  0  0  0  0  0
    6.9261   -0.7005   -0.0452 C   0  0  0  0  0  0  0  0  0  0  0  0
    5.8005   -1.4312   -0.0736 N   0  0  0  0  0  0  0  0  0  0  0  0
    4.6970   -0.6505   -0.0662 C   0  0  0  0  0  0  0  0  0  0  0  0
    3.3887   -1.0971   -0.0589 N   0  0  0  0  0  0  0  0  0  0  0  0
    2.9424   -2.4971    0.0330 C   0  0  3  0  0  0  0  0  0  0  0  0
    3.4143   -3.1849    1.3220 C   0  0  0  0  0  0  0  0  0  0  0  0
    2.8145   -4.5924    1.4696 C   0  0  0  0  0  0  0  0  0  0  0  0
    3.1007   -5.4808    0.2409 C   0  0  3  0  0  0  0  0  0  0  0  0
    2.4794   -6.8101    0.2500 N   0  0  0  0  0  0  0  0  0  0  0  0
    1.0279   -6.9179    0.3196 C   0  0  0  0  0  0  0  0  0  0  0  0
    0.7485   -7.6604    1.6109 C   0  0  0  0  0  0  0  0  0  0  0  0
    1.9194   -8.6155    1.7103 C   0  0  0  0  0  0  0  0  0  0  0  0
    3.0820   -7.8500    1.0832 C   0  0  0  0  0  0  0  0  0  0  0  0
    2.6685   -4.7597   -1.0559 C   0  0  0  0  0  0  0  0  0  0  0  0
    3.2625   -3.3525   -1.1986 C   0  0  0  0  0  0  0  0  0  0  0  0
    0.5083    0.8034   -0.1539 H   0  0  0  0  0  0  0  0  0  0  0  0
    0.6967   -0.6042    0.8740 H   0  0  0  0  0  0  0  0  0  0  0  0
    0.6884   -0.6704   -0.9358 H   0  0  0  0  0  0  0  0  0  0  0  0
    4.3820    3.3651   -1.2154 H   0  0  0  0  0  0  0  0  0  0  0  0
    3.5347    5.6310   -1.1338 H   0  0  0  0  0  0  0  0  0  0  0  0
    1.2954    6.0535   -0.1952 H   0  0  0  0  0  0  0  0  0  0  0  0
    0.2699    3.0238    2.5987 H   0  0  0  0  0  0  0  0  0  0  0  0
   -1.0316    2.3134    1.5834 H   0  0  0  0  0  0  0  0  0  0  0  0
   -2.6190    5.0602    1.4220 H   0  0  0  0  0  0  0  0  0  0  0  0
   -4.3464    5.9023    2.9649 H   0  0  0  0  0  0  0  0  0  0  0  0
   -4.3884    5.1475    5.3289 H   0  0  0  0  0  0  0  0  0  0  0  0
   -2.6670    3.5628    6.1561 H   0  0  0  0  0  0  0  0  0  0  0  0
   -0.9268    2.7166    4.6282 H   0  0  0  0  0  0  0  0  0  0  0  0
    1.0344    1.9893    1.0147 H   0  0  0  0  0  0  0  0  0  0  0  0
    5.3694    3.3860    0.2459 H   0  0  0  0  0  0  0  0  0  0  0  0
    7.0435    3.1343    0.0079 H   0  0  0  0  0  0  0  0  0  0  0  0
    7.8599   -1.2481   -0.0339 H   0  0  0  0  0  0  0  0  0  0  0  0
    1.8474   -2.4551    0.0924 H   0  0  0  0  0  0  0  0  0  0  0  0
    3.1292   -2.5746    2.1891 H   0  0  0  0  0  0  0  0  0  0  0  0
    4.5082   -3.2596    1.3373 H   0  0  0  0  0  0  0  0  0  0  0  0
    1.7343   -4.4832    1.6273 H   0  0  0  0  0  0  0  0  0  0  0  0
    3.2215   -5.0541    2.3780 H   0  0  0  0  0  0  0  0  0  0  0  0
    4.1891   -5.6142    0.1762 H   0  0  0  0  0  0  0  0  0  0  0  0
    0.7007   -7.5278   -0.5311 H   0  0  0  0  0  0  0  0  0  0  0  0
    0.4791   -5.9741    0.2682 H   0  0  0  0  0  0  0  0  0  0  0  0
   -0.2129   -8.1826    1.5914 H   0  0  0  0  0  0  0  0  0  0  0  0
    0.7511   -6.9695    2.4617 H   0  0  0  0  0  0  0  0  0  0  0  0
    1.7047   -9.5240    1.1333 H   0  0  0  0  0  0  0  0  0  0  0  0
    2.1187   -8.9130    2.7444 H   0  0  0  0  0  0  0  0  0  0  0  0
    3.6710   -8.5281    0.4548 H   0  0  0  0  0  0  0  0  0  0  0  0
    3.7409   -7.4545    1.8626 H   0  0  0  0  0  0  0  0  0  0  0  0
    1.5762   -4.6729   -1.0892 H   0  0  0  0  0  0  0  0  0  0  0  0
    2.9591   -5.3638   -1.9243 H   0  0  0  0  0  0  0  0  0  0  0  0
    2.8468   -2.8876   -2.1012 H   0  0  0  0  0  0  0  0  0  0  0  0
    4.3439   -3.4295   -1.3519 H   0  0  0  0  0  0  0  0  0  0  0  0
  1  2  1  0  0  0  0
  1 37  1  0  0  0  0
  1 38  1  0  0  0  0
  1 39  1  0  0  0  0
  2  3  2  0  0  0  0
  2 25  1  0  0  0  0
  3  4  1  0  0  0  0
  3 18  1  0  0  0  0
  4  5  1  0  0  0  0
  4 17  2  0  0  0  0
  5  6  2  0  0  0  0
  5 40  1  0  0  0  0
  6  7  1  0  0  0  0
  6 41  1  0  0  0  0
  7  8  2  0  0  0  0
  7 42  1  0  0  0  0
  8  9  1  0  0  0  0
  8 17  1  0  0  0  0
  9 10  1  0  0  0  0
 10 11  1  0  0  0  0
 10 43  1  0  0  0  0
 10 44  1  0  0  0  0
 11 12  1  0  0  0  0
 11 16  2  0  0  0  0
 12 13  2  0  0  0  0
 12 45  1  0  0  0  0
 13 14  1  0  0  0  0
 13 46  1  0  0  0  0
 14 15  2  0  0  0  0
 14 47  1  0  0  0  0
 15 16  1  0  0  0  0
 15 48  1  0  0  0  0
 16 49  1  0  0  0  0
 17 50  1  0  0  0  0
 18 19  1  0  0  0  0
 18 24  2  0  0  0  0
 19 20  1  0  0  0  0
 19 21  2  0  0  0  0
 20 51  1  0  0  0  0
 20 52  1  0  0  0  0
 21 22  1  0  0  0  0
 22 23  2  0  0  0  0
 22 53  1  0  0  0  0
 23 24  1  0  0  0  0
 24 25  1  0  0  0  0
 25 26  1  0  0  0  0
 26 27  1  0  0  0  0
 26 36  1  0  0  0  0
 26 54  1  0  0  0  0
 27 28  1  0  0  0  0
 27 55  1  0  0  0  0
 27 56  1  0  0  0  0
 28 29  1  0  0  0  0
 28 57  1  0  0  0  0
 28 58  1  0  0  0  0
 29 30  1  0  0  0  0
 29 35  1  0  0  0  0
 29 59  1  0  0  0  0
 30 31  1  0  0  0  0
 30 34  1  0  0  0  0
 31 32  1  0  0  0  0
 31 60  1  0  0  0  0
 31 61  1  0  0  0  0
 32 33  1  0  0  0  0
 32 62  1  0  0  0  0
 32 63  1  0  0  0  0
 33 34  1  0  0  0  0
 33 64  1  0  0  0  0
 33 65  1  0  0  0  0
 34 66  1  0  0  0  0
 34 67  1  0  0  0  0
 35 36  1  0  0  0  0
 35 68  1  0  0  0  0
 35 69  1  0  0  0  0
 36 70  1  0  0  0  0
 36 71  1  0  0  0  0
M  END
$$$$
