CHEMBL3397934
 OpenBabel04072215363D

 58 60  0  0  0  0  0  0  0  0999 V2000
    6.8403    4.2070    0.2171 C   0  0  0  0  0  0  0  0  0  0  0  0
    6.3077    2.7797    0.3130 C   0  0  0  0  0  0  0  0  0  0  0  0
    6.9390    1.9583    1.3563 N   0  0  0  0  0  0  0  0  0  0  0  0
    6.9291    2.5724    2.6958 C   0  0  0  0  0  0  0  0  0  0  0  0
    5.5683    2.6848    3.3730 C   0  0  0  0  0  0  0  0  0  0  0  0
    6.3969    0.5774    1.3042 C   0  0  0  0  0  0  0  0  0  0  0  0
    7.1058   -0.3721    2.2702 C   0  0  0  0  0  0  0  0  0  0  0  0
    6.6529   -1.7304    2.1654 O   0  0  0  0  0  0  0  0  0  0  0  0
    7.2094   -2.5575    3.1189 C   0  0  0  0  0  0  0  0  0  0  0  0
    8.1994   -2.1443    4.0104 C   0  0  0  0  0  0  0  0  0  0  0  0
    8.6738   -3.0000    4.9945 C   0  0  0  0  0  0  0  0  0  0  0  0
    8.1848   -4.2945    5.1222 C   0  0  0  0  0  0  0  0  0  0  0  0
    8.6458   -5.1461    6.1503 N   0  0  0  0  0  0  0  0  0  0  0  0
    9.3170   -4.6991    7.2808 C   0  0  0  0  0  0  0  0  0  0  0  0
    9.4425   -3.5339    7.6455 O   0  0  0  0  0  0  0  0  0  0  0  0
    9.9735   -5.7292    8.1065 C   0  0  0  0  0  0  0  0  0  0  0  0
    9.3706   -6.9457    8.4124 C   0  0  0  0  0  0  0  0  0  0  0  0
   10.0608   -7.8566    9.2062 C   0  0  0  0  0  0  0  0  0  0  0  0
   11.3449   -7.5511    9.6780 C   0  0  0  0  0  0  0  0  0  0  0  0
   11.9776   -6.3315    9.3737 C   0  0  0  0  0  0  0  0  0  0  0  0
   13.3582   -6.0317    9.8137 C   0  0  0  0  0  0  0  0  0  0  0  0
   13.7670   -4.7235   10.1492 C   0  0  0  0  0  0  0  0  0  0  0  0
   15.0884   -4.4426   10.5181 C   0  0  0  0  0  0  0  0  0  0  0  0
   16.0284   -5.4670   10.5828 C   0  0  0  0  0  0  0  0  0  0  0  0
   15.6371   -6.7618   10.2704 C   0  0  0  0  0  0  0  0  0  0  0  0
   16.5127   -7.8054   10.3344 O   0  0  0  0  0  0  0  0  0  0  0  0
   14.3311   -7.0419    9.8771 C   0  0  0  0  0  0  0  0  0  0  0  0
   11.2538   -5.4215    8.5943 C   0  0  0  0  0  0  0  0  0  0  0  0
    7.2497   -4.7530    4.1920 C   0  0  0  0  0  0  0  0  0  0  0  0
    6.7586   -3.8796    3.2092 C   0  0  0  0  0  0  0  0  0  0  0  0
    5.8242   -4.3337    2.3600 F   0  0  0  0  0  0  0  0  0  0  0  0
    6.4906    4.6734   -0.7099 H   0  0  0  0  0  0  0  0  0  0  0  0
    7.9350    4.2292    0.2115 H   0  0  0  0  0  0  0  0  0  0  0  0
    6.4835    4.8267    1.0458 H   0  0  0  0  0  0  0  0  0  0  0  0
    6.4948    2.3050   -0.6581 H   0  0  0  0  0  0  0  0  0  0  0  0
    5.2202    2.8132    0.4449 H   0  0  0  0  0  0  0  0  0  0  0  0
    7.3884    3.5670    2.6541 H   0  0  0  0  0  0  0  0  0  0  0  0
    7.6075    2.0193    3.3577 H   0  0  0  0  0  0  0  0  0  0  0  0
    4.8210    3.1413    2.7183 H   0  0  0  0  0  0  0  0  0  0  0  0
    5.6507    3.3128    4.2667 H   0  0  0  0  0  0  0  0  0  0  0  0
    5.1990    1.7054    3.6923 H   0  0  0  0  0  0  0  0  0  0  0  0
    6.5311    0.1751    0.2919 H   0  0  0  0  0  0  0  0  0  0  0  0
    5.3152    0.5620    1.4963 H   0  0  0  0  0  0  0  0  0  0  0  0
    6.9100   -0.0245    3.2908 H   0  0  0  0  0  0  0  0  0  0  0  0
    8.1802   -0.3379    2.0459 H   0  0  0  0  0  0  0  0  0  0  0  0
    8.6363   -1.1520    3.9941 H   0  0  0  0  0  0  0  0  0  0  0  0
    9.4548   -2.6090    5.6414 H   0  0  0  0  0  0  0  0  0  0  0  0
    8.4688   -6.1358    6.0452 H   0  0  0  0  0  0  0  0  0  0  0  0
    8.3669   -7.1814    8.0729 H   0  0  0  0  0  0  0  0  0  0  0  0
    9.6044   -8.8084    9.4670 H   0  0  0  0  0  0  0  0  0  0  0  0
   11.8493   -8.2876   10.3018 H   0  0  0  0  0  0  0  0  0  0  0  0
   13.0571   -3.8982   10.1277 H   0  0  0  0  0  0  0  0  0  0  0  0
   15.3783   -3.4212   10.7531 H   0  0  0  0  0  0  0  0  0  0  0  0
   17.0499   -5.2383   10.8682 H   0  0  0  0  0  0  0  0  0  0  0  0
   17.3381   -7.4892   10.7360 H   0  0  0  0  0  0  0  0  0  0  0  0
   14.0867   -8.0650    9.6029 H   0  0  0  0  0  0  0  0  0  0  0  0
   11.6897   -4.4585    8.3284 H   0  0  0  0  0  0  0  0  0  0  0  0
    6.8593   -5.7650    4.2290 H   0  0  0  0  0  0  0  0  0  0  0  0
  1  2  1  0  0  0  0
  1 32  1  0  0  0  0
  1 33  1  0  0  0  0
  1 34  1  0  0  0  0
  2  3  1  0  0  0  0
  2 35  1  0  0  0  0
  2 36  1  0  0  0  0
  3  4  1  0  0  0  0
  3  6  1  0  0  0  0
  4  5  1  0  0  0  0
  4 37  1  0  0  0  0
  4 38  1  0  0  0  0
  5 39  1  0  0  0  0
  5 40  1  0  0  0  0
  5 41  1  0  0  0  0
  6  7  1  0  0  0  0
  6 42  1  0  0  0  0
  6 43  1  0  0  0  0
  7  8  1  0  0  0  0
  7 44  1  0  0  0  0
  7 45  1  0  0  0  0
  8  9  1  0  0  0  0
  9 10  1  0  0  0  0
  9 30  2  0  0  0  0
 10 11  2  0  0  0  0
 10 46  1  0  0  0  0
 11 12  1  0  0  0  0
 11 47  1  0  0  0  0
 12 13  1  0  0  0  0
 12 29  2  0  0  0  0
 13 14  1  0  0  0  0
 13 48  1  0  0  0  0
 14 15  2  0  0  0  0
 14 16  1  0  0  0  0
 16 17  1  0  0  0  0
 16 28  2  0  0  0  0
 17 18  2  0  0  0  0
 17 49  1  0  0  0  0
 18 19  1  0  0  0  0
 18 50  1  0  0  0  0
 19 20  2  0  0  0  0
 19 51  1  0  0  0  0
 20 21  1  0  0  0  0
 20 28  1  0  0  0  0
 21 22  1  0  0  0  0
 21 27  2  0  0  0  0
 22 23  2  0  0  0  0
 22 52  1  0  0  0  0
 23 24  1  0  0  0  0
 23 53  1  0  0  0  0
 24 25  2  0  0  0  0
 24 54  1  0  0  0  0
 25 26  1  0  0  0  0
 25 27  1  0  0  0  0
 26 55  1  0  0  0  0
 27 56  1  0  0  0  0
 28 57  1  0  0  0  0
 29 30  1  0  0  0  0
 29 58  1  0  0  0  0
 30 31  1  0  0  0  0
M  END
$$$$
