CHEMBL379733
 OpenBabel04072215373D

 83 87  0  0  0  0  0  0  0  0999 V2000
    2.8287    0.7529   -0.9424 C   0  0  0  0  0  0  0  0  0  0  0  0
    2.2430   -0.4959   -0.5959 O   0  0  0  0  0  0  0  0  0  0  0  0
    3.0654   -1.4810   -0.1276 C   0  0  0  0  0  0  0  0  0  0  0  0
    4.4597   -1.4503   -0.0806 C   0  0  0  0  0  0  0  0  0  0  0  0
    5.1963   -2.5624    0.3788 C   0  0  0  0  0  0  0  0  0  0  0  0
    4.5388   -3.7259    0.7904 C   0  0  0  0  0  0  0  0  0  0  0  0
    5.2760   -4.9414    0.9982 N   0  0  0  0  0  0  0  0  0  0  0  0
    6.2071   -5.0892    2.0285 C   0  0  0  0  0  0  0  0  0  0  0  0
    6.4646   -4.2407    2.8760 O   0  0  0  0  0  0  0  0  0  0  0  0
    6.8921   -6.3313    1.9515 O   0  0  0  0  0  0  0  0  0  0  0  0
    8.1875   -6.8181    2.3572 C   0  0  0  0  0  0  0  0  0  0  0  0
    9.3629   -6.0955    2.0995 C   0  0  0  0  0  0  0  0  0  0  0  0
    9.4367   -4.6369    1.7705 C   0  0  0  0  0  0  0  0  0  0  0  0
   10.5830   -6.7946    2.1073 C   0  0  0  0  0  0  0  0  0  0  0  0
   10.6456   -8.1481    2.4316 C   0  0  0  0  0  0  0  0  0  0  0  0
    9.4857   -8.8243    2.7861 C   0  0  0  0  0  0  0  0  0  0  0  0
    8.2402   -8.1767    2.7469 C   0  0  0  0  0  0  0  0  0  0  0  0
    7.0201   -8.9506    3.1572 C   0  0  0  0  0  0  0  0  0  0  0  0
    4.8588   -6.0528    0.2192 C   0  0  0  0  0  0  0  0  0  0  0  0
    4.8008   -5.8994   -1.1544 C   0  0  0  0  0  0  0  0  0  0  0  0
    4.3851   -6.9935   -1.8596 C   0  0  0  0  0  0  0  0  0  0  0  0
    3.9755   -8.1203   -1.2702 N   0  0  0  0  0  0  0  0  0  0  0  0
    4.0220   -8.1767    0.0707 C   0  0  0  0  0  0  0  0  0  0  0  0
    3.4824   -9.2940    0.7016 N   0  0  0  0  0  0  0  0  0  0  0  0
    2.3154   -9.9716    0.3145 C   0  0  0  0  0  0  0  0  0  0  0  0
    2.1472  -11.3042    0.6873 C   0  0  0  0  0  0  0  0  0  0  0  0
    1.0844  -12.0559    0.1772 C   0  0  0  0  0  0  0  0  0  0  0  0
    0.1606  -11.4810   -0.7020 C   0  0  0  0  0  0  0  0  0  0  0  0
   -0.8868  -12.1300   -1.3026 O   0  0  0  0  0  0  0  0  0  0  0  0
   -0.8616  -13.5492   -1.1555 C   0  0  0  0  0  0  0  0  0  0  0  0
   -1.9364  -14.1949   -2.0367 C   0  0  0  0  0  0  0  0  0  0  0  0
   -2.0222  -15.6590   -1.8523 N   0  0  0  0  0  0  0  0  0  0  0  0
   -3.1413  -16.1984   -2.6404 C   0  0  0  0  0  0  0  0  0  0  0  0
   -3.3039  -17.7025   -2.4148 C   0  0  0  0  0  0  0  0  0  0  0  0
   -2.0149  -18.4542   -2.7242 C   0  0  0  0  0  0  0  0  0  0  0  0
   -0.8516  -17.8426   -1.9596 C   0  0  0  0  0  0  0  0  0  0  0  0
   -0.7626  -16.3372   -2.1997 C   0  0  0  0  0  0  0  0  0  0  0  0
    0.2847  -10.1373   -1.0318 C   0  0  0  0  0  0  0  0  0  0  0  0
    1.3528   -9.3934   -0.5301 C   0  0  0  0  0  0  0  0  0  0  0  0
    4.5262   -7.2074    0.8373 N   0  0  0  0  0  0  0  0  0  0  0  0
    3.1310   -3.6997    0.8490 C   0  0  0  0  0  0  0  0  0  0  0  0
    2.3827   -4.6935    1.4333 O   0  0  0  0  0  0  0  0  0  0  0  0
    2.7657   -4.8939    2.7994 C   0  0  0  0  0  0  0  0  0  0  0  0
    2.4068   -2.6122    0.3472 C   0  0  0  0  0  0  0  0  0  0  0  0
    2.0167    1.4413   -1.2026 H   0  0  0  0  0  0  0  0  0  0  0  0
    3.4754    0.6570   -1.8203 H   0  0  0  0  0  0  0  0  0  0  0  0
    3.3696    1.1863   -0.0956 H   0  0  0  0  0  0  0  0  0  0  0  0
    5.0141   -0.5777   -0.4190 H   0  0  0  0  0  0  0  0  0  0  0  0
    6.2817   -2.5248    0.3550 H   0  0  0  0  0  0  0  0  0  0  0  0
    8.5604   -4.0763    2.0748 H   0  0  0  0  0  0  0  0  0  0  0  0
    9.5975   -4.4878    0.7001 H   0  0  0  0  0  0  0  0  0  0  0  0
   10.2697   -4.1857    2.3237 H   0  0  0  0  0  0  0  0  0  0  0  0
   11.5045   -6.2795    1.8426 H   0  0  0  0  0  0  0  0  0  0  0  0
   11.6007   -8.6687    2.4121 H   0  0  0  0  0  0  0  0  0  0  0  0
    9.5573   -9.8734    3.0698 H   0  0  0  0  0  0  0  0  0  0  0  0
    7.2584  -10.0093    3.3257 H   0  0  0  0  0  0  0  0  0  0  0  0
    6.2464   -8.9117    2.3909 H   0  0  0  0  0  0  0  0  0  0  0  0
    6.6336   -8.5514    4.0996 H   0  0  0  0  0  0  0  0  0  0  0  0
    5.1156   -5.0015   -1.6638 H   0  0  0  0  0  0  0  0  0  0  0  0
    4.3610   -7.0076   -2.9443 H   0  0  0  0  0  0  0  0  0  0  0  0
    3.7266   -9.3421    1.6793 H   0  0  0  0  0  0  0  0  0  0  0  0
    2.8755  -11.7880    1.3322 H   0  0  0  0  0  0  0  0  0  0  0  0
    1.0268  -13.0989    0.4691 H   0  0  0  0  0  0  0  0  0  0  0  0
   -1.0545  -13.8078   -0.1075 H   0  0  0  0  0  0  0  0  0  0  0  0
    0.1229  -13.9147   -1.4666 H   0  0  0  0  0  0  0  0  0  0  0  0
   -1.7549  -13.9350   -3.0882 H   0  0  0  0  0  0  0  0  0  0  0  0
   -2.8990  -13.7352   -1.7750 H   0  0  0  0  0  0  0  0  0  0  0  0
   -2.9938  -15.9997   -3.7101 H   0  0  0  0  0  0  0  0  0  0  0  0
   -4.0763  -15.7076   -2.3436 H   0  0  0  0  0  0  0  0  0  0  0  0
   -4.1137  -18.0855   -3.0452 H   0  0  0  0  0  0  0  0  0  0  0  0
   -3.5934  -17.8872   -1.3724 H   0  0  0  0  0  0  0  0  0  0  0  0
   -1.8097  -18.4052   -3.8004 H   0  0  0  0  0  0  0  0  0  0  0  0
   -2.1208  -19.5119   -2.4612 H   0  0  0  0  0  0  0  0  0  0  0  0
    0.0875  -18.3190   -2.2631 H   0  0  0  0  0  0  0  0  0  0  0  0
   -0.9737  -18.0345   -0.8857 H   0  0  0  0  0  0  0  0  0  0  0  0
   -0.4886  -16.1372   -3.2435 H   0  0  0  0  0  0  0  0  0  0  0  0
    0.0579  -15.9786   -1.5704 H   0  0  0  0  0  0  0  0  0  0  0  0
   -0.4277   -9.6698   -1.7062 H   0  0  0  0  0  0  0  0  0  0  0  0
    1.4286   -8.3484   -0.8210 H   0  0  0  0  0  0  0  0  0  0  0  0
    1.8756   -5.1510    3.3750 H   0  0  0  0  0  0  0  0  0  0  0  0
    3.2180   -4.0044    3.2596 H   0  0  0  0  0  0  0  0  0  0  0  0
    3.4591   -5.7388    2.8724 H   0  0  0  0  0  0  0  0  0  0  0  0
    1.3190   -2.6378    0.3529 H   0  0  0  0  0  0  0  0  0  0  0  0
  1  2  1  0  0  0  0
  1 45  1  0  0  0  0
  1 46  1  0  0  0  0
  1 47  1  0  0  0  0
  2  3  1  0  0  0  0
  3  4  1  0  0  0  0
  3 44  2  0  0  0  0
  4  5  2  0  0  0  0
  4 48  1  0  0  0  0
  5  6  1  0  0  0  0
  5 49  1  0  0  0  0
  6  7  1  0  0  0  0
  6 41  2  0  0  0  0
  7  8  1  0  0  0  0
  7 19  1  0  0  0  0
  8  9  2  0  0  0  0
  8 10  1  0  0  0  0
 10 11  1  0  0  0  0
 11 12  1  0  0  0  0
 11 17  2  0  0  0  0
 12 13  1  0  0  0  0
 12 14  2  0  0  0  0
 13 50  1  0  0  0  0
 13 51  1  0  0  0  0
 13 52  1  0  0  0  0
 14 15  1  0  0  0  0
 14 53  1  0  0  0  0
 15 16  2  0  0  0  0
 15 54  1  0  0  0  0
 16 17  1  0  0  0  0
 16 55  1  0  0  0  0
 17 18  1  0  0  0  0
 18 56  1  0  0  0  0
 18 57  1  0  0  0  0
 18 58  1  0  0  0  0
 19 20  1  0  0  0  0
 19 40  2  0  0  0  0
 20 21  2  0  0  0  0
 20 59  1  0  0  0  0
 21 22  1  0  0  0  0
 21 60  1  0  0  0  0
 22 23  2  0  0  0  0
 23 24  1  0  0  0  0
 23 40  1  0  0  0  0
 24 25  1  0  0  0  0
 24 61  1  0  0  0  0
 25 26  1  0  0  0  0
 25 39  2  0  0  0  0
 26 27  2  0  0  0  0
 26 62  1  0  0  0  0
 27 28  1  0  0  0  0
 27 63  1  0  0  0  0
 28 29  1  0  0  0  0
 28 38  2  0  0  0  0
 29 30  1  0  0  0  0
 30 31  1  0  0  0  0
 30 64  1  0  0  0  0
 30 65  1  0  0  0  0
 31 32  1  0  0  0  0
 31 66  1  0  0  0  0
 31 67  1  0  0  0  0
 32 33  1  0  0  0  0
 32 37  1  0  0  0  0
 33 34  1  0  0  0  0
 33 68  1  0  0  0  0
 33 69  1  0  0  0  0
 34 35  1  0  0  0  0
 34 70  1  0  0  0  0
 34 71  1  0  0  0  0
 35 36  1  0  0  0  0
 35 72  1  0  0  0  0
 35 73  1  0  0  0  0
 36 37  1  0  0  0  0
 36 74  1  0  0  0  0
 36 75  1  0  0  0  0
 37 76  1  0  0  0  0
 37 77  1  0  0  0  0
 38 39  1  0  0  0  0
 38 78  1  0  0  0  0
 39 79  1  0  0  0  0
 41 42  1  0  0  0  0
 41 44  1  0  0  0  0
 42 43  1  0  0  0  0
 43 80  1  0  0  0  0
 43 81  1  0  0  0  0
 43 82  1  0  0  0  0
 44 83  1  0  0  0  0
M  END
$$$$
