CHEMBL3403517
 OpenBabel04072215363D

 42 45  0  0  0  0  0  0  0  0999 V2000
    1.0658   -0.1065    0.1811 C   0  0  0  0  0  0  0  0  0  0  0  0
    2.4285    0.0237   -0.2127 O   0  0  0  0  0  0  0  0  0  0  0  0
    3.0336    1.1876    0.1690 C   0  0  0  0  0  0  0  0  0  0  0  0
    2.6679    1.9552    1.2662 C   0  0  0  0  0  0  0  0  0  0  0  0
    3.3695    3.1245    1.5694 C   0  0  0  0  0  0  0  0  0  0  0  0
    4.4581    3.5596    0.8013 C   0  0  0  0  0  0  0  0  0  0  0  0
    4.8273    2.7670   -0.3099 C   0  0  0  0  0  0  0  0  0  0  0  0
    4.1168    1.5904   -0.6102 C   0  0  0  0  0  0  0  0  0  0  0  0
    5.9747    3.1545   -1.2091 C   0  0  0  0  0  0  0  0  0  0  0  0
    6.8520    4.2307   -0.5881 C   0  0  0  0  0  0  0  0  0  0  0  0
    5.9636    5.2950    0.0400 C   0  0  0  0  0  0  0  0  0  0  0  0
    5.2045    4.7165    1.1502 N   0  0  0  0  0  0  0  0  0  0  0  0
    5.5014    5.1242    2.4679 C   0  0  0  0  0  0  0  0  0  0  0  0
    4.5084    5.1245    3.4054 N   0  0  0  0  0  0  0  0  0  0  0  0
    4.7569    5.4059    4.6999 C   0  0  0  0  0  0  0  0  0  0  0  0
    3.5976    5.2949    5.6443 C   0  0  0  0  0  0  0  0  0  0  0  0
    5.9441    5.7274    5.2218 N   0  0  0  0  0  0  0  0  0  0  0  0
    6.9101    5.7331    4.2947 C   0  0  0  0  0  0  0  0  0  0  0  0
    8.2148    5.9986    4.6046 O   0  0  0  0  0  0  0  0  0  0  0  0
    8.9324    5.8842    3.4563 C   0  0  0  0  0  0  0  0  0  0  0  0
   10.3903    6.0952    3.5288 C   0  0  0  0  0  0  0  0  0  0  0  0
    8.1021    5.5569    2.4129 C   0  0  0  0  0  0  0  0  0  0  0  0
    6.7860    5.4607    2.9383 C   0  0  0  0  0  0  0  0  0  0  0  0
    0.6728   -1.0216   -0.2691 H   0  0  0  0  0  0  0  0  0  0  0  0
    0.4700    0.7346   -0.1915 H   0  0  0  0  0  0  0  0  0  0  0  0
    0.9652   -0.2074    1.2668 H   0  0  0  0  0  0  0  0  0  0  0  0
    1.8555    1.6719    1.9246 H   0  0  0  0  0  0  0  0  0  0  0  0
    3.0248    3.6980    2.4239 H   0  0  0  0  0  0  0  0  0  0  0  0
    4.4111    0.9789   -1.4585 H   0  0  0  0  0  0  0  0  0  0  0  0
    5.5630    3.5210   -2.1570 H   0  0  0  0  0  0  0  0  0  0  0  0
    6.5951    2.2774   -1.4293 H   0  0  0  0  0  0  0  0  0  0  0  0
    7.5050    4.6706   -1.3496 H   0  0  0  0  0  0  0  0  0  0  0  0
    7.4980    3.7705    0.1689 H   0  0  0  0  0  0  0  0  0  0  0  0
    5.2621    5.6849   -0.7110 H   0  0  0  0  0  0  0  0  0  0  0  0
    6.5508    6.1702    0.3385 H   0  0  0  0  0  0  0  0  0  0  0  0
    2.6726    5.0641    5.1051 H   0  0  0  0  0  0  0  0  0  0  0  0
    3.4561    6.2355    6.1839 H   0  0  0  0  0  0  0  0  0  0  0  0
    3.7803    4.4927    6.3660 H   0  0  0  0  0  0  0  0  0  0  0  0
   10.7263    6.2780    4.5520 H   0  0  0  0  0  0  0  0  0  0  0  0
   10.6735    6.9522    2.9095 H   0  0  0  0  0  0  0  0  0  0  0  0
   10.9168    5.2142    3.1449 H   0  0  0  0  0  0  0  0  0  0  0  0
    8.4388    5.3976    1.3997 H   0  0  0  0  0  0  0  0  0  0  0  0
  1  2  1  0  0  0  0
  1 24  1  0  0  0  0
  1 25  1  0  0  0  0
  1 26  1  0  0  0  0
  2  3  1  0  0  0  0
  3  4  1  0  0  0  0
  3  8  2  0  0  0  0
  4  5  2  0  0  0  0
  4 27  1  0  0  0  0
  5  6  1  0  0  0  0
  5 28  1  0  0  0  0
  6  7  2  0  0  0  0
  6 12  1  0  0  0  0
  7  8  1  0  0  0  0
  7  9  1  0  0  0  0
  8 29  1  0  0  0  0
  9 10  1  0  0  0  0
  9 30  1  0  0  0  0
  9 31  1  0  0  0  0
 10 11  1  0  0  0  0
 10 32  1  0  0  0  0
 10 33  1  0  0  0  0
 11 12  1  0  0  0  0
 11 34  1  0  0  0  0
 11 35  1  0  0  0  0
 12 13  1  0  0  0  0
 13 14  1  0  0  0  0
 13 23  2  0  0  0  0
 14 15  2  0  0  0  0
 15 16  1  0  0  0  0
 15 17  1  0  0  0  0
 16 36  1  0  0  0  0
 16 37  1  0  0  0  0
 16 38  1  0  0  0  0
 17 18  2  0  0  0  0
 18 19  1  0  0  0  0
 18 23  1  0  0  0  0
 19 20  1  0  0  0  0
 20 21  1  0  0  0  0
 20 22  2  0  0  0  0
 21 39  1  0  0  0  0
 21 40  1  0  0  0  0
 21 41  1  0  0  0  0
 22 23  1  0  0  0  0
 22 42  1  0  0  0  0
M  END
$$$$
