CHEMBL179227
 OpenBabel04072215363D

 52 55  0  0  0  0  0  0  0  0999 V2000
    5.2055   -0.0956   -2.1656 C   0  0  0  0  0  0  0  0  0  0  0  0
    4.1069   -0.4895   -1.3388 O   0  0  0  0  0  0  0  0  0  0  0  0
    4.4383   -1.1000   -0.1579 C   0  0  0  0  0  0  0  0  0  0  0  0
    5.6569   -0.8439    0.4938 C   0  0  0  0  0  0  0  0  0  0  0  0
    6.0868   -1.5708    1.5978 C   0  0  0  0  0  0  0  0  0  0  0  0
    7.3222   -1.3314    2.0700 N   0  0  0  0  0  0  0  0  0  0  0  0
    7.7836   -2.1015    3.0764 C   0  0  0  0  0  0  0  0  0  0  0  0
    7.0691   -3.1411    3.6315 C   0  0  0  0  0  0  0  0  0  0  0  0
    5.7856   -3.3899    3.1490 C   0  0  0  0  0  0  0  0  0  0  0  0
    5.1741   -4.4781    3.7541 O   0  0  0  0  0  0  0  0  0  0  0  0
    4.3216   -5.2970    3.0490 C   0  0  0  0  0  0  0  0  0  0  0  0
    4.4557   -5.5974    1.6966 C   0  0  0  0  0  0  0  0  0  0  0  0
    3.3931   -6.1962    1.0118 C   0  0  0  0  0  0  0  0  0  0  0  0
    2.2281   -6.5888    1.6784 C   0  0  0  0  0  0  0  0  0  0  0  0
    1.0738   -7.0775    1.0067 N   0  0  0  0  0  0  0  0  0  0  0  0
    0.9401   -7.2324   -0.3581 C   0  0  0  0  0  0  0  0  0  0  0  0
    1.8418   -7.0995   -1.1775 O   0  0  0  0  0  0  0  0  0  0  0  0
   -0.3679   -7.5295   -0.7332 N   0  0  0  0  0  0  0  0  0  0  0  0
   -0.6738   -7.7326   -2.1070 C   0  0  0  0  0  0  0  0  0  0  0  0
    0.1436   -8.5142   -2.9314 C   0  0  0  0  0  0  0  0  0  0  0  0
   -0.1157   -8.6061   -4.3026 C   0  0  0  0  0  0  0  0  0  0  0  0
   -1.1926   -7.9140   -4.8553 C   0  0  0  0  0  0  0  0  0  0  0  0
   -2.0314   -7.1590   -4.0336 C   0  0  0  0  0  0  0  0  0  0  0  0
   -1.7812   -7.0921   -2.6650 C   0  0  0  0  0  0  0  0  0  0  0  0
   -2.5742   -6.3351   -1.8897 F   0  0  0  0  0  0  0  0  0  0  0  0
    2.1786   -6.4432    3.0669 C   0  0  0  0  0  0  0  0  0  0  0  0
    3.2212   -5.7985    3.7484 C   0  0  0  0  0  0  0  0  0  0  0  0
    5.2352   -2.5468    2.1441 C   0  0  0  0  0  0  0  0  0  0  0  0
    3.9243   -2.6209    1.6237 C   0  0  0  0  0  0  0  0  0  0  0  0
    3.5396   -1.9789    0.4423 C   0  0  0  0  0  0  0  0  0  0  0  0
    2.2947   -2.3759    0.0488 O   0  0  0  0  0  0  0  0  0  0  0  0
    1.8365   -2.0977   -1.2613 C   0  0  0  0  0  0  0  0  0  0  0  0
    4.8901   -0.1850   -3.2123 H   0  0  0  0  0  0  0  0  0  0  0  0
    6.0916   -0.7282   -2.0494 H   0  0  0  0  0  0  0  0  0  0  0  0
    5.4521    0.9516   -1.9711 H   0  0  0  0  0  0  0  0  0  0  0  0
    6.3340   -0.0807    0.1195 H   0  0  0  0  0  0  0  0  0  0  0  0
    8.7860   -1.8611    3.4192 H   0  0  0  0  0  0  0  0  0  0  0  0
    7.5026   -3.7545    4.4142 H   0  0  0  0  0  0  0  0  0  0  0  0
    5.3212   -5.2684    1.1274 H   0  0  0  0  0  0  0  0  0  0  0  0
    3.5018   -6.2816   -0.0643 H   0  0  0  0  0  0  0  0  0  0  0  0
    0.2787   -7.3403    1.5851 H   0  0  0  0  0  0  0  0  0  0  0  0
   -1.0822   -7.0401   -0.2075 H   0  0  0  0  0  0  0  0  0  0  0  0
    0.9995   -9.0431   -2.5203 H   0  0  0  0  0  0  0  0  0  0  0  0
    0.5419   -9.1967   -4.9343 H   0  0  0  0  0  0  0  0  0  0  0  0
   -1.3681   -7.9572   -5.9270 H   0  0  0  0  0  0  0  0  0  0  0  0
   -2.8610   -6.6028   -4.4578 H   0  0  0  0  0  0  0  0  0  0  0  0
    1.3152   -6.7781    3.6358 H   0  0  0  0  0  0  0  0  0  0  0  0
    3.1461   -5.6347    4.8203 H   0  0  0  0  0  0  0  0  0  0  0  0
    3.1829   -3.2622    2.0942 H   0  0  0  0  0  0  0  0  0  0  0  0
    1.0322   -2.8110   -1.4767 H   0  0  0  0  0  0  0  0  0  0  0  0
    2.5988   -2.2456   -2.0307 H   0  0  0  0  0  0  0  0  0  0  0  0
    1.4067   -1.0937   -1.2960 H   0  0  0  0  0  0  0  0  0  0  0  0
  1  2  1  0  0  0  0
  1 33  1  0  0  0  0
  1 34  1  0  0  0  0
  1 35  1  0  0  0  0
  2  3  1  0  0  0  0
  3  4  1  0  0  0  0
  3 30  2  0  0  0  0
  4  5  2  0  0  0  0
  4 36  1  0  0  0  0
  5  6  1  0  0  0  0
  5 28  1  0  0  0  0
  6  7  2  0  0  0  0
  7  8  1  0  0  0  0
  7 37  1  0  0  0  0
  8  9  2  0  0  0  0
  8 38  1  0  0  0  0
  9 10  1  0  0  0  0
  9 28  1  0  0  0  0
 10 11  1  0  0  0  0
 11 12  1  0  0  0  0
 11 27  2  0  0  0  0
 12 13  2  0  0  0  0
 12 39  1  0  0  0  0
 13 14  1  0  0  0  0
 13 40  1  0  0  0  0
 14 15  1  0  0  0  0
 14 26  2  0  0  0  0
 15 16  1  0  0  0  0
 15 41  1  0  0  0  0
 16 17  2  0  0  0  0
 16 18  1  0  0  0  0
 18 19  1  0  0  0  0
 18 42  1  0  0  0  0
 19 20  1  0  0  0  0
 19 24  2  0  0  0  0
 20 21  2  0  0  0  0
 20 43  1  0  0  0  0
 21 22  1  0  0  0  0
 21 44  1  0  0  0  0
 22 23  2  0  0  0  0
 22 45  1  0  0  0  0
 23 24  1  0  0  0  0
 23 46  1  0  0  0  0
 24 25  1  0  0  0  0
 26 27  1  0  0  0  0
 26 47  1  0  0  0  0
 27 48  1  0  0  0  0
 28 29  2  0  0  0  0
 29 30  1  0  0  0  0
 29 49  1  0  0  0  0
 30 31  1  0  0  0  0
 31 32  1  0  0  0  0
 32 50  1  0  0  0  0
 32 51  1  0  0  0  0
 32 52  1  0  0  0  0
M  END
$$$$
