CHEMBL223534
 OpenBabel04072215363D

 37 39  0  0  0  0  0  0  0  0999 V2000
   10.9828   -3.7877   -2.6868 C   0  0  0  0  0  0  0  0  0  0  0  0
   10.3036   -3.4896   -1.4686 O   0  0  0  0  0  0  0  0  0  0  0  0
    8.9269   -3.6025   -1.7001 N   0  0  0  0  0  0  0  0  0  0  0  0
    8.2685   -3.3772   -0.6031 C   0  0  0  0  0  0  0  0  0  0  0  0
    6.7962   -3.4556   -0.5705 C   0  0  0  0  0  0  0  0  0  0  0  0
    6.0794   -4.1810   -1.5137 C   0  0  0  0  0  0  0  0  0  0  0  0
    6.6882   -5.0007   -2.4629 N   0  0  0  0  0  0  0  0  0  0  0  0
    4.7370   -4.2416   -1.5173 N   0  0  0  0  0  0  0  0  0  0  0  0
    4.1040   -3.5828   -0.5411 C   0  0  0  0  0  0  0  0  0  0  0  0
    4.6857   -2.8624    0.4192 N   0  0  0  0  0  0  0  0  0  0  0  0
    6.0339   -2.7805    0.3663 C   0  0  0  0  0  0  0  0  0  0  0  0
    6.6642   -1.9777    1.3105 O   0  0  0  0  0  0  0  0  0  0  0  0
    5.9863   -0.8546    1.7590 C   0  0  0  0  0  0  0  0  0  0  0  0
    6.1551   -0.5081    3.1007 C   0  0  0  0  0  0  0  0  0  0  0  0
    5.5674    0.6492    3.6326 C   0  0  0  0  0  0  0  0  0  0  0  0
    4.8246    1.4601    2.7648 C   0  0  0  0  0  0  0  0  0  0  0  0
    4.1716    2.6499    2.9935 N   0  0  0  0  0  0  0  0  0  0  0  0
    3.5888    3.1015    1.8394 C   0  0  0  0  0  0  0  0  0  0  0  0
    3.8419    2.1845    0.8385 C   0  0  0  0  0  0  0  0  0  0  0  0
    3.3886    2.2608   -0.5744 C   0  0  0  0  0  0  0  0  0  0  0  0
    4.6396    1.1473    1.4189 C   0  0  0  0  0  0  0  0  0  0  0  0
    5.2353   -0.0264    0.9105 C   0  0  0  0  0  0  0  0  0  0  0  0
   12.0471   -3.5757   -2.5564 H   0  0  0  0  0  0  0  0  0  0  0  0
   10.5987   -3.1650   -3.5017 H   0  0  0  0  0  0  0  0  0  0  0  0
   10.8619   -4.8464   -2.9395 H   0  0  0  0  0  0  0  0  0  0  0  0
    8.7941   -3.1163    0.3330 H   0  0  0  0  0  0  0  0  0  0  0  0
    7.5203   -4.5661   -2.8629 H   0  0  0  0  0  0  0  0  0  0  0  0
    6.0076   -5.3205   -3.1374 H   0  0  0  0  0  0  0  0  0  0  0  0
    3.0211   -3.6317   -0.5334 H   0  0  0  0  0  0  0  0  0  0  0  0
    6.7510   -1.1430    3.7519 H   0  0  0  0  0  0  0  0  0  0  0  0
    5.6980    0.9107    4.6781 H   0  0  0  0  0  0  0  0  0  0  0  0
    4.1450    3.1291    3.8826 H   0  0  0  0  0  0  0  0  0  0  0  0
    3.0460    4.0378    1.8251 H   0  0  0  0  0  0  0  0  0  0  0  0
    3.0163    3.2605   -0.8193 H   0  0  0  0  0  0  0  0  0  0  0  0
    2.5825    1.5419   -0.7538 H   0  0  0  0  0  0  0  0  0  0  0  0
    4.2134    2.0327   -1.2573 H   0  0  0  0  0  0  0  0  0  0  0  0
    5.1037   -0.2698   -0.1377 H   0  0  0  0  0  0  0  0  0  0  0  0
  1  2  1  0  0  0  0
  1 23  1  0  0  0  0
  1 24  1  0  0  0  0
  1 25  1  0  0  0  0
  2  3  1  0  0  0  0
  3  4  2  0  0  0  0
  4  5  1  0  0  0  0
  4 26  1  0  0  0  0
  5  6  1  0  0  0  0
  5 11  2  0  0  0  0
  6  7  1  0  0  0  0
  6  8  2  0  0  0  0
  7 27  1  0  0  0  0
  7 28  1  0  0  0  0
  8  9  1  0  0  0  0
  9 10  2  0  0  0  0
  9 29  1  0  0  0  0
 10 11  1  0  0  0  0
 11 12  1  0  0  0  0
 12 13  1  0  0  0  0
 13 14  1  0  0  0  0
 13 22  2  0  0  0  0
 14 15  2  0  0  0  0
 14 30  1  0  0  0  0
 15 16  1  0  0  0  0
 15 31  1  0  0  0  0
 16 17  1  0  0  0  0
 16 21  2  0  0  0  0
 17 18  1  0  0  0  0
 17 32  1  0  0  0  0
 18 19  2  0  0  0  0
 18 33  1  0  0  0  0
 19 20  1  0  0  0  0
 19 21  1  0  0  0  0
 20 34  1  0  0  0  0
 20 35  1  0  0  0  0
 20 36  1  0  0  0  0
 21 22  1  0  0  0  0
 22 37  1  0  0  0  0
M  END
$$$$
