CHEMBL2430267
 OpenBabel04072215363D

 64 67  0  0  0  0  0  0  0  0999 V2000
    4.7549    1.1197    2.3024 C   0  0  0  0  0  0  0  0  0  0  0  0
    4.3357    1.3947    0.8619 C   0  0  0  0  0  0  0  0  0  0  0  0
    4.7060    0.3453   -0.1058 N   0  0  0  0  0  0  0  0  0  0  0  0
    4.2315   -1.0014    0.2628 C   0  0  0  0  0  0  0  0  0  0  0  0
    2.7186   -1.2146    0.2582 C   0  0  0  0  0  0  0  0  0  0  0  0
    4.2701    0.6968   -1.4784 C   0  0  0  0  0  0  0  0  0  0  0  0
    4.8565    2.0041   -2.0263 C   0  0  0  0  0  0  0  0  0  0  0  0
    6.3013    2.0008   -2.0611 N   0  0  0  0  0  0  0  0  0  0  0  0
    6.9535    3.1120   -2.5368 C   0  0  0  0  0  0  0  0  0  0  0  0
    6.3363    4.0842   -2.9681 O   0  0  0  0  0  0  0  0  0  0  0  0
    8.4126    3.1026   -2.4343 C   0  0  0  0  0  0  0  0  0  0  0  0
    9.3126    2.0471   -2.5480 C   0  0  0  0  0  0  0  0  0  0  0  0
    9.1065    0.5991   -2.8187 C   0  0  0  0  0  0  0  0  0  0  0  0
   10.5965    2.5672   -2.4328 N   0  0  0  0  0  0  0  0  0  0  0  0
   10.5446    3.9231   -2.2712 C   0  0  0  0  0  0  0  0  0  0  0  0
    9.2081    4.2711   -2.2582 C   0  0  0  0  0  0  0  0  0  0  0  0
    8.6837    5.6578   -2.1082 C   0  0  0  0  0  0  0  0  0  0  0  0
    9.7399    6.7237   -1.9036 C   0  0  0  0  0  0  0  0  0  0  0  0
   11.2085    6.3074   -1.9665 C   0  0  0  0  0  0  0  0  0  0  0  0
   11.6277    4.8458   -2.1475 C   0  0  0  0  0  0  0  0  0  0  0  0
   12.9607    4.5661   -2.1881 C   0  0  0  0  0  0  0  0  0  0  0  0
   13.6776    3.2371   -2.3638 C   0  0  0  0  0  0  0  0  0  0  0  0
   13.1965    2.1297   -2.5063 O   0  0  0  0  0  0  0  0  0  0  0  0
   15.0397    3.5304   -2.3252 N   0  0  0  0  0  0  0  0  0  0  0  0
   15.2721    4.8892   -2.1466 C   0  0  0  0  0  0  0  0  0  0  0  0
   16.4981    5.5387   -2.0572 C   0  0  0  0  0  0  0  0  0  0  0  0
   16.5126    6.9354   -1.8696 C   0  0  0  0  0  0  0  0  0  0  0  0
   15.3124    7.6375   -1.7820 C   0  0  0  0  0  0  0  0  0  0  0  0
   15.1095    8.9733   -1.6040 O   0  0  0  0  0  0  0  0  0  0  0  0
   16.2239    9.8272   -1.4495 C   0  0  0  0  0  0  0  0  0  0  0  0
   14.1061    6.9475   -1.8794 C   0  0  0  0  0  0  0  0  0  0  0  0
   14.0633    5.5719   -2.0590 C   0  0  0  0  0  0  0  0  0  0  0  0
    4.6598    2.0373    2.8936 H   0  0  0  0  0  0  0  0  0  0  0  0
    5.7991    0.7959    2.3589 H   0  0  0  0  0  0  0  0  0  0  0  0
    4.1214    0.3607    2.7706 H   0  0  0  0  0  0  0  0  0  0  0  0
    4.8442    2.3247    0.5871 H   0  0  0  0  0  0  0  0  0  0  0  0
    3.2594    1.6015    0.8315 H   0  0  0  0  0  0  0  0  0  0  0  0
    4.6281   -1.2761    1.2465 H   0  0  0  0  0  0  0  0  0  0  0  0
    4.6827   -1.7305   -0.4234 H   0  0  0  0  0  0  0  0  0  0  0  0
    2.1851   -0.4221    0.7901 H   0  0  0  0  0  0  0  0  0  0  0  0
    2.4751   -2.1619    0.7504 H   0  0  0  0  0  0  0  0  0  0  0  0
    2.3292   -1.2679   -0.7639 H   0  0  0  0  0  0  0  0  0  0  0  0
    3.1775    0.7706   -1.5325 H   0  0  0  0  0  0  0  0  0  0  0  0
    4.5779   -0.1082   -2.1586 H   0  0  0  0  0  0  0  0  0  0  0  0
    4.5232    2.8711   -1.4443 H   0  0  0  0  0  0  0  0  0  0  0  0
    4.4978    2.1666   -3.0496 H   0  0  0  0  0  0  0  0  0  0  0  0
    6.7982    1.3949   -1.4193 H   0  0  0  0  0  0  0  0  0  0  0  0
    8.0550    0.3591   -2.9982 H   0  0  0  0  0  0  0  0  0  0  0  0
    9.4474   -0.0028   -1.9710 H   0  0  0  0  0  0  0  0  0  0  0  0
    9.6584    0.2921   -3.7124 H   0  0  0  0  0  0  0  0  0  0  0  0
   11.4517    2.0198   -2.5060 H   0  0  0  0  0  0  0  0  0  0  0  0
    7.9927    5.6868   -1.2564 H   0  0  0  0  0  0  0  0  0  0  0  0
    8.1002    5.9209   -2.9975 H   0  0  0  0  0  0  0  0  0  0  0  0
    9.5631    7.2203   -0.9411 H   0  0  0  0  0  0  0  0  0  0  0  0
    9.5807    7.5212   -2.6428 H   0  0  0  0  0  0  0  0  0  0  0  0
   11.6341    6.6479   -1.0148 H   0  0  0  0  0  0  0  0  0  0  0  0
   11.6273    6.8705   -2.8098 H   0  0  0  0  0  0  0  0  0  0  0  0
   15.7509    2.8201   -2.4191 H   0  0  0  0  0  0  0  0  0  0  0  0
   17.4327    4.9912   -2.1265 H   0  0  0  0  0  0  0  0  0  0  0  0
   17.4650    7.4508   -1.7967 H   0  0  0  0  0  0  0  0  0  0  0  0
   15.8300   10.8376   -1.2918 H   0  0  0  0  0  0  0  0  0  0  0  0
   16.8329    9.8426   -2.3564 H   0  0  0  0  0  0  0  0  0  0  0  0
   16.8095    9.5554   -0.5681 H   0  0  0  0  0  0  0  0  0  0  0  0
   13.2265    7.5681   -1.8025 H   0  0  0  0  0  0  0  0  0  0  0  0
  1  2  1  0  0  0  0
  1 33  1  0  0  0  0
  1 34  1  0  0  0  0
  1 35  1  0  0  0  0
  2  3  1  0  0  0  0
  2 36  1  0  0  0  0
  2 37  1  0  0  0  0
  3  4  1  0  0  0  0
  3  6  1  0  0  0  0
  4  5  1  0  0  0  0
  4 38  1  0  0  0  0
  4 39  1  0  0  0  0
  5 40  1  0  0  0  0
  5 41  1  0  0  0  0
  5 42  1  0  0  0  0
  6  7  1  0  0  0  0
  6 43  1  0  0  0  0
  6 44  1  0  0  0  0
  7  8  1  0  0  0  0
  7 45  1  0  0  0  0
  7 46  1  0  0  0  0
  8  9  1  0  0  0  0
  8 47  1  0  0  0  0
  9 10  2  0  0  0  0
  9 11  1  0  0  0  0
 11 12  2  0  0  0  0
 11 16  1  0  0  0  0
 12 13  1  0  0  0  0
 12 14  1  0  0  0  0
 13 48  1  0  0  0  0
 13 49  1  0  0  0  0
 13 50  1  0  0  0  0
 14 15  1  0  0  0  0
 14 51  1  0  0  0  0
 15 16  2  0  0  0  0
 15 20  1  0  0  0  0
 16 17  1  0  0  0  0
 17 18  1  0  0  0  0
 17 52  1  0  0  0  0
 17 53  1  0  0  0  0
 18 19  1  0  0  0  0
 18 54  1  0  0  0  0
 18 55  1  0  0  0  0
 19 20  1  0  0  0  0
 19 56  1  0  0  0  0
 19 57  1  0  0  0  0
 20 21  2  0  0  0  0
 21 22  1  0  0  0  0
 21 32  1  0  0  0  0
 22 23  2  0  0  0  0
 22 24  1  0  0  0  0
 24 25  1  0  0  0  0
 24 58  1  0  0  0  0
 25 26  1  0  0  0  0
 25 32  2  0  0  0  0
 26 27  2  0  0  0  0
 26 59  1  0  0  0  0
 27 28  1  0  0  0  0
 27 60  1  0  0  0  0
 28 29  1  0  0  0  0
 28 31  2  0  0  0  0
 29 30  1  0  0  0  0
 30 61  1  0  0  0  0
 30 62  1  0  0  0  0
 30 63  1  0  0  0  0
 31 32  1  0  0  0  0
 31 64  1  0  0  0  0
M  END
$$$$
