CHEMBL233209
 OpenBabel04072215363D

 62 65  0  0  0  0  0  0  0  0999 V2000
    2.2555    0.1989   -0.9020 C   0  0  0  0  0  0  0  0  0  0  0  0
    3.5195    0.3319   -0.0418 C   0  0  0  0  0  0  0  0  0  0  0  0
    4.7762    0.2591   -0.9317 C   0  0  0  0  0  0  0  0  0  0  0  0
    3.5186    1.6781    0.5649 N   0  0  0  0  0  0  0  0  0  0  0  0
    3.5089   -0.7545    1.0363 C   0  0  0  0  0  0  0  0  0  0  0  0
    3.9890   -2.0502    0.7959 C   0  0  0  0  0  0  0  0  0  0  0  0
    4.0211   -3.0103    1.8163 C   0  0  0  0  0  0  0  0  0  0  0  0
    3.5736   -2.7218    3.1166 C   0  0  0  0  0  0  0  0  0  0  0  0
    3.7128   -3.7239    4.1976 C   0  0  0  0  0  0  0  0  0  0  0  0
    4.8332   -4.4957    4.0658 N   0  0  0  0  0  0  0  0  0  0  0  0
    5.0942   -5.4100    5.0045 C   0  0  0  0  0  0  0  0  0  0  0  0
    6.2298   -6.1987    4.8297 N   0  0  0  0  0  0  0  0  0  0  0  0
    6.7077   -7.2174    5.6597 C   0  0  0  0  0  0  0  0  0  0  0  0
    5.8377   -7.9997    6.4259 C   0  0  0  0  0  0  0  0  0  0  0  0
    6.3060   -8.8721    7.4036 C   0  0  0  0  0  0  0  0  0  0  0  0
    7.6753   -9.0192    7.6225 C   0  0  0  0  0  0  0  0  0  0  0  0
    8.2191   -9.9022    8.7254 C   0  0  0  0  0  0  0  0  0  0  0  0
    7.3457  -11.1332    9.0424 C   0  0  0  0  0  0  0  0  0  0  0  0
    7.8786  -12.0296   10.0841 N   0  0  0  0  0  0  0  0  0  0  0  0
    9.2010  -12.6040    9.7596 C   0  0  0  0  0  0  0  0  0  0  0  0
    9.1595  -13.6044    8.5953 C   0  0  0  0  0  0  0  0  0  0  0  0
    8.2712  -14.6900    8.8888 O   0  0  0  0  0  0  0  0  0  0  0  0
    6.9500  -14.2124    9.1756 C   0  0  0  0  0  0  0  0  0  0  0  0
    6.9479  -13.1665   10.3083 C   0  0  0  0  0  0  0  0  0  0  0  0
    8.5595   -8.2679    6.8327 C   0  0  0  0  0  0  0  0  0  0  0  0
    8.0803   -7.3802    5.8595 C   0  0  0  0  0  0  0  0  0  0  0  0
    4.3322   -5.5607    6.0965 N   0  0  0  0  0  0  0  0  0  0  0  0
    3.2302   -4.8045    6.2065 C   0  0  0  0  0  0  0  0  0  0  0  0
    2.8447   -3.8799    5.2702 C   0  0  0  0  0  0  0  0  0  0  0  0
    1.3392   -3.0838    5.5013 Cl  0  0  0  0  0  0  0  0  0  0  0  0
    3.0681   -1.4358    3.3394 C   0  0  0  0  0  0  0  0  0  0  0  0
    3.0064   -0.4857    2.3167 C   0  0  0  0  0  0  0  0  0  0  0  0
    2.2155    0.9724   -1.6776 H   0  0  0  0  0  0  0  0  0  0  0  0
    1.3446    0.2863   -0.2969 H   0  0  0  0  0  0  0  0  0  0  0  0
    2.2182   -0.7744   -1.4056 H   0  0  0  0  0  0  0  0  0  0  0  0
    4.8164    1.0984   -1.6360 H   0  0  0  0  0  0  0  0  0  0  0  0
    4.8011   -0.6543   -1.5355 H   0  0  0  0  0  0  0  0  0  0  0  0
    5.6931    0.2861   -0.3290 H   0  0  0  0  0  0  0  0  0  0  0  0
    3.5697    2.3858   -0.1676 H   0  0  0  0  0  0  0  0  0  0  0  0
    4.3648    1.7814    1.1248 H   0  0  0  0  0  0  0  0  0  0  0  0
    4.3657   -2.3378   -0.1814 H   0  0  0  0  0  0  0  0  0  0  0  0
    4.4277   -3.9933    1.5858 H   0  0  0  0  0  0  0  0  0  0  0  0
    6.8234   -5.8481    4.0945 H   0  0  0  0  0  0  0  0  0  0  0  0
    4.7620   -7.9206    6.2906 H   0  0  0  0  0  0  0  0  0  0  0  0
    5.5654   -9.3992    7.9962 H   0  0  0  0  0  0  0  0  0  0  0  0
    8.3430   -9.2920    9.6283 H   0  0  0  0  0  0  0  0  0  0  0  0
    9.2137  -10.2336    8.4094 H   0  0  0  0  0  0  0  0  0  0  0  0
    7.1445  -11.6703    8.1089 H   0  0  0  0  0  0  0  0  0  0  0  0
    6.3762  -10.7758    9.4106 H   0  0  0  0  0  0  0  0  0  0  0  0
    9.5570  -13.1293   10.6559 H   0  0  0  0  0  0  0  0  0  0  0  0
    9.9420  -11.8218    9.5723 H   0  0  0  0  0  0  0  0  0  0  0  0
   10.1569  -14.0262    8.4386 H   0  0  0  0  0  0  0  0  0  0  0  0
    8.8563  -13.1276    7.6560 H   0  0  0  0  0  0  0  0  0  0  0  0
    6.3489  -15.0768    9.4751 H   0  0  0  0  0  0  0  0  0  0  0  0
    6.5072  -13.8145    8.2555 H   0  0  0  0  0  0  0  0  0  0  0  0
    7.2541  -13.6623   11.2392 H   0  0  0  0  0  0  0  0  0  0  0  0
    5.9278  -12.8018   10.4829 H   0  0  0  0  0  0  0  0  0  0  0  0
    9.6331   -8.3438    6.9896 H   0  0  0  0  0  0  0  0  0  0  0  0
    8.7925   -6.7815    5.2980 H   0  0  0  0  0  0  0  0  0  0  0  0
    2.6484   -4.9871    7.1051 H   0  0  0  0  0  0  0  0  0  0  0  0
    2.7355   -1.1200    4.3241 H   0  0  0  0  0  0  0  0  0  0  0  0
    2.5771    0.4882    2.5472 H   0  0  0  0  0  0  0  0  0  0  0  0
  1  2  1  0  0  0  0
  1 33  1  0  0  0  0
  1 34  1  0  0  0  0
  1 35  1  0  0  0  0
  2  3  1  0  0  0  0
  2  4  1  0  0  0  0
  2  5  1  0  0  0  0
  3 36  1  0  0  0  0
  3 37  1  0  0  0  0
  3 38  1  0  0  0  0
  4 39  1  0  0  0  0
  4 40  1  0  0  0  0
  5  6  1  0  0  0  0
  5 32  2  0  0  0  0
  6  7  2  0  0  0  0
  6 41  1  0  0  0  0
  7  8  1  0  0  0  0
  7 42  1  0  0  0  0
  8  9  1  0  0  0  0
  8 31  2  0  0  0  0
  9 10  1  0  0  0  0
  9 29  2  0  0  0  0
 10 11  2  0  0  0  0
 11 12  1  0  0  0  0
 11 27  1  0  0  0  0
 12 13  1  0  0  0  0
 12 43  1  0  0  0  0
 13 14  1  0  0  0  0
 13 26  2  0  0  0  0
 14 15  2  0  0  0  0
 14 44  1  0  0  0  0
 15 16  1  0  0  0  0
 15 45  1  0  0  0  0
 16 17  1  0  0  0  0
 16 25  2  0  0  0  0
 17 18  1  0  0  0  0
 17 46  1  0  0  0  0
 17 47  1  0  0  0  0
 18 19  1  0  0  0  0
 18 48  1  0  0  0  0
 18 49  1  0  0  0  0
 19 20  1  0  0  0  0
 19 24  1  0  0  0  0
 20 21  1  0  0  0  0
 20 50  1  0  0  0  0
 20 51  1  0  0  0  0
 21 22  1  0  0  0  0
 21 52  1  0  0  0  0
 21 53  1  0  0  0  0
 22 23  1  0  0  0  0
 23 24  1  0  0  0  0
 23 54  1  0  0  0  0
 23 55  1  0  0  0  0
 24 56  1  0  0  0  0
 24 57  1  0  0  0  0
 25 26  1  0  0  0  0
 25 58  1  0  0  0  0
 26 59  1  0  0  0  0
 27 28  2  0  0  0  0
 28 29  1  0  0  0  0
 28 60  1  0  0  0  0
 29 30  1  0  0  0  0
 31 32  1  0  0  0  0
 31 61  1  0  0  0  0
 32 62  1  0  0  0  0
M  END
$$$$
