CHEMBL378058
 OpenBabel04072215373D

 50 54  0  0  0  0  0  0  0  0999 V2000
    2.1530   -0.5958   -1.3365 C   0  0  0  0  0  0  0  0  0  0  0  0
    0.9370   -0.1656   -0.5926 C   0  0  0  0  0  0  0  0  0  0  0  0
    0.3273   -0.8904    0.4128 C   0  0  0  0  0  0  0  0  0  0  0  0
   -0.9917   -0.0639    1.1102 S   0  0  0  0  0  0  0  0  0  0  0  0
   -0.8047    1.2650    0.0538 C   0  0  0  0  0  0  0  0  0  0  0  0
   -1.6645    2.4909    0.0795 C   0  0  0  0  0  0  0  0  0  0  0  0
   -1.5697    3.4738   -0.8443 N   0  0  0  0  0  0  0  0  0  0  0  0
   -2.4987    4.3911   -0.4673 N   0  0  0  0  0  0  0  0  0  0  0  0
   -3.1463    4.0130    0.6515 C   0  0  0  0  0  0  0  0  0  0  0  0
   -2.6348    2.8060    1.0360 C   0  0  0  0  0  0  0  0  0  0  0  0
   -3.2222    2.2864    2.3028 C   0  0  0  0  0  0  0  0  0  0  0  0
   -4.1739    3.4646    2.5725 C   0  0  0  0  0  0  0  0  0  0  0  0
   -5.0230    3.6017    3.6568 C   0  0  0  0  0  0  0  0  0  0  0  0
   -5.8284    4.7515    3.7372 C   0  0  0  0  0  0  0  0  0  0  0  0
   -6.7724    4.9323    4.9113 C   0  0  0  0  0  0  0  0  0  0  0  0
   -6.0964    4.8966    6.2153 N   0  0  0  0  0  0  0  0  0  0  0  0
   -5.1172    5.9894    6.3744 C   0  0  0  0  0  0  0  0  0  0  0  0
   -4.4291    5.9341    7.7579 C   0  0  0  0  0  0  0  0  0  0  0  0
   -5.3515    5.9584    8.9108 N   0  0  0  0  0  0  0  0  0  0  0  0
   -5.9173    7.2884    9.1163 C   0  0  0  0  0  0  0  0  0  0  0  0
   -6.4023    4.9395    8.7083 C   0  0  0  0  0  0  0  0  0  0  0  0
   -7.0788    4.9564    7.3149 C   0  0  0  0  0  0  0  0  0  0  0  0
   -5.7599    5.7380    2.7203 C   0  0  0  0  0  0  0  0  0  0  0  0
   -4.8966    5.6067    1.6265 C   0  0  0  0  0  0  0  0  0  0  0  0
   -4.1197    4.4736    1.5735 C   0  0  0  0  0  0  0  0  0  0  0  0
    0.2450    1.0707   -0.8205 C   0  0  0  0  0  0  0  0  0  0  0  0
    2.4603   -1.6062   -1.0477 H   0  0  0  0  0  0  0  0  0  0  0  0
    2.9828    0.0848   -1.1184 H   0  0  0  0  0  0  0  0  0  0  0  0
    1.9688   -0.5884   -2.4145 H   0  0  0  0  0  0  0  0  0  0  0  0
    0.6061   -1.8646    0.7903 H   0  0  0  0  0  0  0  0  0  0  0  0
   -2.6035    5.2370   -1.0186 H   0  0  0  0  0  0  0  0  0  0  0  0
   -2.4770    2.1983    3.0973 H   0  0  0  0  0  0  0  0  0  0  0  0
   -3.7849    1.3619    2.1531 H   0  0  0  0  0  0  0  0  0  0  0  0
   -5.0549    2.8475    4.4384 H   0  0  0  0  0  0  0  0  0  0  0  0
   -7.4982    4.1095    4.8544 H   0  0  0  0  0  0  0  0  0  0  0  0
   -7.3454    5.8611    4.7963 H   0  0  0  0  0  0  0  0  0  0  0  0
   -5.6004    6.9653    6.2352 H   0  0  0  0  0  0  0  0  0  0  0  0
   -4.3281    5.9108    5.6183 H   0  0  0  0  0  0  0  0  0  0  0  0
   -3.7002    6.7499    7.8391 H   0  0  0  0  0  0  0  0  0  0  0  0
   -3.8400    5.0087    7.8158 H   0  0  0  0  0  0  0  0  0  0  0  0
   -5.1183    8.0219    9.2730 H   0  0  0  0  0  0  0  0  0  0  0  0
   -6.5323    7.3023   10.0229 H   0  0  0  0  0  0  0  0  0  0  0  0
   -6.5350    7.6332    8.2811 H   0  0  0  0  0  0  0  0  0  0  0  0
   -7.1678    5.0261    9.4895 H   0  0  0  0  0  0  0  0  0  0  0  0
   -5.9435    3.9525    8.8554 H   0  0  0  0  0  0  0  0  0  0  0  0
   -7.7030    5.8555    7.2247 H   0  0  0  0  0  0  0  0  0  0  0  0
   -7.7502    4.0915    7.2539 H   0  0  0  0  0  0  0  0  0  0  0  0
   -6.3850    6.6259    2.7894 H   0  0  0  0  0  0  0  0  0  0  0  0
   -4.8499    6.3701    0.8599 H   0  0  0  0  0  0  0  0  0  0  0  0
    0.5273    1.8023   -1.5689 H   0  0  0  0  0  0  0  0  0  0  0  0
  1  2  1  0  0  0  0
  1 27  1  0  0  0  0
  1 28  1  0  0  0  0
  1 29  1  0  0  0  0
  2  3  2  0  0  0  0
  2 26  1  0  0  0  0
  3  4  1  0  0  0  0
  3 30  1  0  0  0  0
  4  5  1  0  0  0  0
  5  6  1  0  0  0  0
  5 26  2  0  0  0  0
  6  7  2  0  0  0  0
  6 10  1  0  0  0  0
  7  8  1  0  0  0  0
  8  9  1  0  0  0  0
  8 31  1  0  0  0  0
  9 10  2  0  0  0  0
  9 25  1  0  0  0  0
 10 11  1  0  0  0  0
 11 12  1  0  0  0  0
 11 32  1  0  0  0  0
 11 33  1  0  0  0  0
 12 13  1  0  0  0  0
 12 25  2  0  0  0  0
 13 14  2  0  0  0  0
 13 34  1  0  0  0  0
 14 15  1  0  0  0  0
 14 23  1  0  0  0  0
 15 16  1  0  0  0  0
 15 35  1  0  0  0  0
 15 36  1  0  0  0  0
 16 17  1  0  0  0  0
 16 22  1  0  0  0  0
 17 18  1  0  0  0  0
 17 37  1  0  0  0  0
 17 38  1  0  0  0  0
 18 19  1  0  0  0  0
 18 39  1  0  0  0  0
 18 40  1  0  0  0  0
 19 20  1  0  0  0  0
 19 21  1  0  0  0  0
 20 41  1  0  0  0  0
 20 42  1  0  0  0  0
 20 43  1  0  0  0  0
 21 22  1  0  0  0  0
 21 44  1  0  0  0  0
 21 45  1  0  0  0  0
 22 46  1  0  0  0  0
 22 47  1  0  0  0  0
 23 24  2  0  0  0  0
 23 48  1  0  0  0  0
 24 25  1  0  0  0  0
 24 49  1  0  0  0  0
 26 50  1  0  0  0  0
M  END
$$$$
