CHEMBL211464
 OpenBabel04072215363D

 69 74  0  0  0  0  0  0  0  0999 V2000
    1.9850   -0.1922   -1.0031 C   0  0  0  0  0  0  0  0  0  0  0  0
    0.5517    0.0682   -1.0443 N   0  0  0  0  0  0  0  0  0  0  0  0
   -0.2212   -1.1258   -0.6666 C   0  0  0  0  0  0  0  0  0  0  0  0
   -1.7348   -0.8266   -0.7329 C   0  0  0  0  0  0  0  0  0  0  0  0
   -2.1726    0.2494    0.1846 N   0  0  0  0  0  0  0  0  0  0  0  0
   -2.0411   -0.0786    1.6170 C   0  0  0  0  0  0  0  0  0  0  0  0
   -2.8306   -1.2913    2.0638 C   0  0  0  0  0  0  0  0  0  0  0  0
   -2.2296   -2.5796    1.9923 C   0  0  0  0  0  0  0  0  0  0  0  0
   -2.9302   -3.7432    2.2972 C   0  0  0  0  0  0  0  0  0  0  0  0
   -4.2119   -3.5973    2.7774 C   0  0  0  0  0  0  0  0  0  0  0  0
   -4.7772   -2.3045    2.9449 C   0  0  0  0  0  0  0  0  0  0  0  0
   -4.1340   -1.1540    2.5571 C   0  0  0  0  0  0  0  0  0  0  0  0
   -6.0182   -2.5196    3.6013 C   0  0  0  0  0  0  0  0  0  0  0  0
   -7.0092   -1.7883    4.0932 N   0  0  0  0  0  0  0  0  0  0  0  0
   -7.8468   -2.7471    4.5675 N   0  0  0  0  0  0  0  0  0  0  0  0
   -7.4066   -4.0405    4.3695 C   0  0  0  0  0  0  0  0  0  0  0  0
   -8.1429   -5.2081    4.6934 C   0  0  0  0  0  0  0  0  0  0  0  0
   -7.9390   -6.4990    4.2468 C   0  0  0  0  0  0  0  0  0  0  0  0
   -8.7950   -7.4195    4.9189 C   0  0  0  0  0  0  0  0  0  0  0  0
   -9.5503   -6.7938    5.9004 C   0  0  0  0  0  0  0  0  0  0  0  0
  -10.4926   -7.3902    6.8905 C   0  0  0  0  0  0  0  0  0  0  0  0
  -10.2454   -7.1645    8.3270 N   0  0  0  0  0  0  0  0  0  0  0  0
   -9.1181   -6.4215    8.8831 C   0  0  0  0  0  0  0  0  0  0  0  0
  -11.2928   -7.6062    9.1396 C   0  0  0  0  0  0  0  0  0  0  0  0
  -12.2728   -8.1697    8.6475 O   0  0  0  0  0  0  0  0  0  0  0  0
  -11.1424   -7.3605   10.5007 N   0  0  0  0  0  0  0  0  0  0  0  0
  -12.0253   -7.7147   11.5083 C   0  0  0  0  0  0  0  0  0  0  0  0
  -13.0537   -8.6482   11.3357 C   0  0  0  0  0  0  0  0  0  0  0  0
  -13.9988   -8.8424   12.3258 C   0  0  0  0  0  0  0  0  0  0  0  0
  -13.9160   -8.1288   13.5222 C   0  0  0  0  0  0  0  0  0  0  0  0
  -15.2837   -8.3050   14.8162 Br  0  0  0  0  0  0  0  0  0  0  0  0
  -12.8466   -7.2639   13.7445 C   0  0  0  0  0  0  0  0  0  0  0  0
  -11.8958   -7.0681   12.7511 C   0  0  0  0  0  0  0  0  0  0  0  0
   -9.5172   -5.1018    5.6960 S   0  0  0  0  0  0  0  0  0  0  0  0
   -6.1901   -3.8996    3.7755 C   0  0  0  0  0  0  0  0  0  0  0  0
   -5.1184   -4.7396    3.2138 C   0  0  0  0  0  0  0  0  0  0  0  0
   -1.3605    1.4478   -0.1417 C   0  0  0  0  0  0  0  0  0  0  0  0
    0.1757    1.2077   -0.1845 C   0  0  0  0  0  0  0  0  0  0  0  0
    2.2404   -1.0333   -1.6580 H   0  0  0  0  0  0  0  0  0  0  0  0
    2.3400   -0.4243    0.0070 H   0  0  0  0  0  0  0  0  0  0  0  0
    2.5387    0.6752   -1.3771 H   0  0  0  0  0  0  0  0  0  0  0  0
    0.0658   -1.4616    0.3367 H   0  0  0  0  0  0  0  0  0  0  0  0
    0.0015   -1.9524   -1.3517 H   0  0  0  0  0  0  0  0  0  0  0  0
   -2.3200   -1.7411   -0.5907 H   0  0  0  0  0  0  0  0  0  0  0  0
   -1.9754   -0.5134   -1.7601 H   0  0  0  0  0  0  0  0  0  0  0  0
   -2.4042    0.7777    2.2012 H   0  0  0  0  0  0  0  0  0  0  0  0
   -0.9988   -0.2166    1.9267 H   0  0  0  0  0  0  0  0  0  0  0  0
   -1.1941   -2.6810    1.6865 H   0  0  0  0  0  0  0  0  0  0  0  0
   -2.4754   -4.7214    2.1920 H   0  0  0  0  0  0  0  0  0  0  0  0
   -4.6151   -0.1827    2.6597 H   0  0  0  0  0  0  0  0  0  0  0  0
   -8.7413   -2.4719    4.9577 H   0  0  0  0  0  0  0  0  0  0  0  0
   -7.2122   -6.7848    3.4945 H   0  0  0  0  0  0  0  0  0  0  0  0
   -8.8164   -8.4830    4.7213 H   0  0  0  0  0  0  0  0  0  0  0  0
  -10.4977   -8.4799    6.7435 H   0  0  0  0  0  0  0  0  0  0  0  0
  -11.5018   -7.0391    6.6521 H   0  0  0  0  0  0  0  0  0  0  0  0
   -8.2361   -6.4190    8.2351 H   0  0  0  0  0  0  0  0  0  0  0  0
   -8.8033   -6.8816    9.8235 H   0  0  0  0  0  0  0  0  0  0  0  0
   -9.4544   -5.4065    9.1032 H   0  0  0  0  0  0  0  0  0  0  0  0
  -10.4687   -6.6474   10.7516 H   0  0  0  0  0  0  0  0  0  0  0  0
  -13.1441   -9.2140   10.4125 H   0  0  0  0  0  0  0  0  0  0  0  0
  -14.8216   -9.5301   12.1431 H   0  0  0  0  0  0  0  0  0  0  0  0
  -12.7652   -6.7104   14.6855 H   0  0  0  0  0  0  0  0  0  0  0  0
  -11.0767   -6.3784   12.9281 H   0  0  0  0  0  0  0  0  0  0  0  0
   -5.4827   -5.3030    2.3504 H   0  0  0  0  0  0  0  0  0  0  0  0
   -4.6350   -5.3831    3.9517 H   0  0  0  0  0  0  0  0  0  0  0  0
   -1.5895    2.2626    0.5558 H   0  0  0  0  0  0  0  0  0  0  0  0
   -1.6800    1.8090   -1.1287 H   0  0  0  0  0  0  0  0  0  0  0  0
    0.5445    1.0532    0.8380 H   0  0  0  0  0  0  0  0  0  0  0  0
    0.6521    2.1184   -0.5640 H   0  0  0  0  0  0  0  0  0  0  0  0
  1  2  1  0  0  0  0
  1 39  1  0  0  0  0
  1 40  1  0  0  0  0
  1 41  1  0  0  0  0
  2  3  1  0  0  0  0
  2 38  1  0  0  0  0
  3  4  1  0  0  0  0
  3 42  1  0  0  0  0
  3 43  1  0  0  0  0
  4  5  1  0  0  0  0
  4 44  1  0  0  0  0
  4 45  1  0  0  0  0
  5  6  1  0  0  0  0
  5 37  1  0  0  0  0
  6  7  1  0  0  0  0
  6 46  1  0  0  0  0
  6 47  1  0  0  0  0
  7  8  1  0  0  0  0
  7 12  2  0  0  0  0
  8  9  2  0  0  0  0
  8 48  1  0  0  0  0
  9 10  1  0  0  0  0
  9 49  1  0  0  0  0
 10 11  2  0  0  0  0
 10 36  1  0  0  0  0
 11 12  1  0  0  0  0
 11 13  1  0  0  0  0
 12 50  1  0  0  0  0
 13 14  2  0  0  0  0
 13 35  1  0  0  0  0
 14 15  1  0  0  0  0
 15 16  1  0  0  0  0
 15 51  1  0  0  0  0
 16 17  1  0  0  0  0
 16 35  2  0  0  0  0
 17 18  2  0  0  0  0
 17 34  1  0  0  0  0
 18 19  1  0  0  0  0
 18 52  1  0  0  0  0
 19 20  2  0  0  0  0
 19 53  1  0  0  0  0
 20 21  1  0  0  0  0
 20 34  1  0  0  0  0
 21 22  1  0  0  0  0
 21 54  1  0  0  0  0
 21 55  1  0  0  0  0
 22 23  1  0  0  0  0
 22 24  1  0  0  0  0
 23 56  1  0  0  0  0
 23 57  1  0  0  0  0
 23 58  1  0  0  0  0
 24 25  2  0  0  0  0
 24 26  1  0  0  0  0
 26 27  1  0  0  0  0
 26 59  1  0  0  0  0
 27 28  1  0  0  0  0
 27 33  2  0  0  0  0
 28 29  2  0  0  0  0
 28 60  1  0  0  0  0
 29 30  1  0  0  0  0
 29 61  1  0  0  0  0
 30 31  1  0  0  0  0
 30 32  2  0  0  0  0
 32 33  1  0  0  0  0
 32 62  1  0  0  0  0
 33 63  1  0  0  0  0
 35 36  1  0  0  0  0
 36 64  1  0  0  0  0
 36 65  1  0  0  0  0
 37 38  1  0  0  0  0
 37 66  1  0  0  0  0
 37 67  1  0  0  0  0
 38 68  1  0  0  0  0
 38 69  1  0  0  0  0
M  END
$$$$
