CHEMBL13608
 OpenBabel04072215363D

 54 57  0  0  0  0  0  0  0  0999 V2000
    2.6233    0.5474   -0.0130 C   0  0  0  0  0  0  0  0  0  0  0  0
    1.1630    0.2804   -0.0509 C   0  0  0  0  0  0  0  0  0  0  0  0
    0.7324   -1.0259   -0.0205 N   0  0  0  0  0  0  0  0  0  0  0  0
   -0.6308   -1.1013   -0.0035 C   0  0  0  0  0  0  0  0  0  0  0  0
   -1.3233   -2.3376    0.0210 C   0  0  0  0  0  0  0  0  0  0  0  0
   -0.8480   -3.5937    0.0430 C   0  0  0  0  0  0  0  0  0  0  0  0
    0.5635   -4.1315    0.0601 C   0  0  0  0  0  0  0  0  0  0  0  0
    1.6114   -3.5083    0.0544 O   0  0  0  0  0  0  0  0  0  0  0  0
    0.4294   -5.5119    0.0819 N   0  0  0  0  0  0  0  0  0  0  0  0
   -0.9059   -5.8911    0.0770 C   0  0  0  0  0  0  0  0  0  0  0  0
   -1.4043   -7.1809    0.0901 C   0  0  0  0  0  0  0  0  0  0  0  0
   -2.7939   -7.3290    0.0759 C   0  0  0  0  0  0  0  0  0  0  0  0
   -3.6290   -6.2037    0.0524 C   0  0  0  0  0  0  0  0  0  0  0  0
   -4.9564   -6.3751    0.0377 F   0  0  0  0  0  0  0  0  0  0  0  0
   -3.1128   -4.9091    0.0403 C   0  0  0  0  0  0  0  0  0  0  0  0
   -1.7373   -4.7663    0.0543 C   0  0  0  0  0  0  0  0  0  0  0  0
   -1.1039    0.2055   -0.0172 C   0  0  0  0  0  0  0  0  0  0  0  0
   -2.5346    0.6450   -0.0104 C   0  0  0  0  0  0  0  0  0  0  0  0
    0.0337    1.0954   -0.0600 C   0  0  0  0  0  0  0  0  0  0  0  0
   -0.0629    2.5618   -0.0845 C   0  0  0  0  0  0  0  0  0  0  0  0
   -1.0413    3.1579    0.3587 O   0  0  0  0  0  0  0  0  0  0  0  0
    0.9734    3.2259   -0.6947 N   0  0  0  0  0  0  0  0  0  0  0  0
    0.9554    4.6620   -0.8674 C   0  0  0  0  0  0  0  0  0  0  0  0
    1.6496    5.4308    0.2736 C   0  0  0  0  0  0  0  0  0  0  0  0
    3.0819    5.2228    0.4905 N   0  0  0  0  0  0  0  0  0  0  0  0
    3.9704    5.2481   -0.6607 C   0  0  0  0  0  0  0  0  0  0  0  0
    4.7539    3.9491   -0.6020 C   0  0  0  0  0  0  0  0  0  0  0  0
    4.7601    3.5910    0.8702 C   0  0  0  0  0  0  0  0  0  0  0  0
    3.4441    4.1413    1.3975 C   0  0  0  0  0  0  0  0  0  0  0  0
    3.2016   -0.3816    0.0414 H   0  0  0  0  0  0  0  0  0  0  0  0
    2.8749    1.1371    0.8708 H   0  0  0  0  0  0  0  0  0  0  0  0
    2.9546    1.0723   -0.9118 H   0  0  0  0  0  0  0  0  0  0  0  0
    1.3602   -1.8252    0.0064 H   0  0  0  0  0  0  0  0  0  0  0  0
   -2.4057   -2.2311    0.0173 H   0  0  0  0  0  0  0  0  0  0  0  0
    1.2212   -6.1355    0.0964 H   0  0  0  0  0  0  0  0  0  0  0  0
   -0.7530   -8.0461    0.1068 H   0  0  0  0  0  0  0  0  0  0  0  0
   -3.2443   -8.3181    0.0840 H   0  0  0  0  0  0  0  0  0  0  0  0
   -3.7882   -4.0636    0.0200 H   0  0  0  0  0  0  0  0  0  0  0  0
   -3.2299   -0.1973   -0.0017 H   0  0  0  0  0  0  0  0  0  0  0  0
   -2.7510    1.2393   -0.9042 H   0  0  0  0  0  0  0  0  0  0  0  0
   -2.7456    1.2491    0.8770 H   0  0  0  0  0  0  0  0  0  0  0  0
    1.7640    2.7089   -1.0378 H   0  0  0  0  0  0  0  0  0  0  0  0
   -0.0861    5.0016   -0.9333 H   0  0  0  0  0  0  0  0  0  0  0  0
    1.4084    4.8801   -1.8386 H   0  0  0  0  0  0  0  0  0  0  0  0
    1.1103    5.2375    1.2107 H   0  0  0  0  0  0  0  0  0  0  0  0
    1.5070    6.4999    0.0745 H   0  0  0  0  0  0  0  0  0  0  0  0
    4.6549    6.0953   -0.5388 H   0  0  0  0  0  0  0  0  0  0  0  0
    3.4841    5.3727   -1.6318 H   0  0  0  0  0  0  0  0  0  0  0  0
    5.7677    4.0577   -0.9999 H   0  0  0  0  0  0  0  0  0  0  0  0
    4.2431    3.1698   -1.1784 H   0  0  0  0  0  0  0  0  0  0  0  0
    5.6047    4.0791    1.3701 H   0  0  0  0  0  0  0  0  0  0  0  0
    4.8550    2.5122    1.0266 H   0  0  0  0  0  0  0  0  0  0  0  0
    3.5729    4.5283    2.4142 H   0  0  0  0  0  0  0  0  0  0  0  0
    2.6902    3.3504    1.4382 H   0  0  0  0  0  0  0  0  0  0  0  0
  1  2  1  0  0  0  0
  1 30  1  0  0  0  0
  1 31  1  0  0  0  0
  1 32  1  0  0  0  0
  2  3  1  0  0  0  0
  2 19  2  0  0  0  0
  3  4  1  0  0  0  0
  3 33  1  0  0  0  0
  4  5  1  0  0  0  0
  4 17  2  0  0  0  0
  5  6  2  0  0  0  0
  5 34  1  0  0  0  0
  6  7  1  0  0  0  0
  6 16  1  0  0  0  0
  7  8  2  0  0  0  0
  7  9  1  0  0  0  0
  9 10  1  0  0  0  0
  9 35  1  0  0  0  0
 10 11  1  0  0  0  0
 10 16  2  0  0  0  0
 11 12  2  0  0  0  0
 11 36  1  0  0  0  0
 12 13  1  0  0  0  0
 12 37  1  0  0  0  0
 13 14  1  0  0  0  0
 13 15  2  0  0  0  0
 15 16  1  0  0  0  0
 15 38  1  0  0  0  0
 17 18  1  0  0  0  0
 17 19  1  0  0  0  0
 18 39  1  0  0  0  0
 18 40  1  0  0  0  0
 18 41  1  0  0  0  0
 19 20  1  0  0  0  0
 20 21  2  0  0  0  0
 20 22  1  0  0  0  0
 22 23  1  0  0  0  0
 22 42  1  0  0  0  0
 23 24  1  0  0  0  0
 23 43  1  0  0  0  0
 23 44  1  0  0  0  0
 24 25  1  0  0  0  0
 24 45  1  0  0  0  0
 24 46  1  0  0  0  0
 25 26  1  0  0  0  0
 25 29  1  0  0  0  0
 26 27  1  0  0  0  0
 26 47  1  0  0  0  0
 26 48  1  0  0  0  0
 27 28  1  0  0  0  0
 27 49  1  0  0  0  0
 27 50  1  0  0  0  0
 28 29  1  0  0  0  0
 28 51  1  0  0  0  0
 28 52  1  0  0  0  0
 29 53  1  0  0  0  0
 29 54  1  0  0  0  0
M  END
$$$$
