CHEMBL3930819
 OpenBabel04072215373D

 53 56  0  0  0  0  0  0  0  0999 V2000
    1.1882    0.9878    2.6278 C   0  0  0  0  0  0  0  0  0  0  0  0
    2.5874    0.9039    2.0433 C   0  0  0  0  0  0  0  0  0  0  0  0
    3.1702   -0.3591    2.3733 O   0  0  0  0  0  0  0  0  0  0  0  0
    4.4344   -0.5981    1.8911 C   0  0  0  0  0  0  0  0  0  0  0  0
    5.1841    0.3034    1.1438 C   0  0  0  0  0  0  0  0  0  0  0  0
    6.4520   -0.0688    0.7108 C   0  0  0  0  0  0  0  0  0  0  0  0
    7.1660    0.8007   -0.0157 F   0  0  0  0  0  0  0  0  0  0  0  0
    6.9888   -1.3215    0.9975 C   0  0  0  0  0  0  0  0  0  0  0  0
    6.2657   -2.2580    1.7464 C   0  0  0  0  0  0  0  0  0  0  0  0
    6.7706   -3.5563    2.0236 N   0  0  0  0  0  0  0  0  0  0  0  0
    8.2326   -3.6967    2.2884 C   0  0  0  0  0  0  0  0  0  0  0  0
    8.9234   -4.8143    1.4577 C   0  0  0  0  0  0  0  0  0  0  0  0
    8.9005   -4.5976    0.0076 N   0  0  0  0  0  0  0  0  0  0  0  0
    5.9920   -4.7319    2.1624 C   0  0  0  0  0  0  0  0  0  0  0  0
    6.2941   -5.7249    3.1012 C   0  0  0  0  0  0  0  0  0  0  0  0
    5.6081   -6.9391    3.1053 C   0  0  0  0  0  0  0  0  0  0  0  0
    4.5830   -7.1811    2.2111 C   0  0  0  0  0  0  0  0  0  0  0  0
    3.9739   -8.3770    2.2331 N   0  0  0  0  0  0  0  0  0  0  0  0
    2.9687   -8.5453    1.3439 C   0  0  0  0  0  0  0  0  0  0  0  0
    2.5679   -7.5573    0.4568 C   0  0  0  0  0  0  0  0  0  0  0  0
    1.4560   -7.7572   -0.4474 C   0  0  0  0  0  0  0  0  0  0  0  0
    0.5786   -8.8534   -0.6048 C   0  0  0  0  0  0  0  0  0  0  0  0
   -0.3471   -8.6489   -1.5435 N   0  0  0  0  0  0  0  0  0  0  0  0
   -0.0686   -7.4106   -1.9921 N   0  0  0  0  0  0  0  0  0  0  0  0
   -0.8892   -6.8182   -3.0202 C   0  0  0  0  0  0  0  0  0  0  0  0
    0.9997   -6.8368   -1.3708 C   0  0  0  0  0  0  0  0  0  0  0  0
    3.1967   -6.3562    0.4212 N   0  0  0  0  0  0  0  0  0  0  0  0
    4.2063   -6.1693    1.2967 C   0  0  0  0  0  0  0  0  0  0  0  0
    4.9150   -4.9732    1.2925 C   0  0  0  0  0  0  0  0  0  0  0  0
    4.9803   -1.8592    2.1881 C   0  0  0  0  0  0  0  0  0  0  0  0
    0.7305    1.9528    2.3921 H   0  0  0  0  0  0  0  0  0  0  0  0
    1.2118    0.8658    3.7153 H   0  0  0  0  0  0  0  0  0  0  0  0
    0.5515    0.1915    2.2270 H   0  0  0  0  0  0  0  0  0  0  0  0
    3.1908    1.7160    2.4656 H   0  0  0  0  0  0  0  0  0  0  0  0
    2.5173    1.0147    0.9546 H   0  0  0  0  0  0  0  0  0  0  0  0
    4.8298    1.2881    0.8740 H   0  0  0  0  0  0  0  0  0  0  0  0
    7.9652   -1.5517    0.5839 H   0  0  0  0  0  0  0  0  0  0  0  0
    8.3868   -3.9006    3.3557 H   0  0  0  0  0  0  0  0  0  0  0  0
    8.7823   -2.7651    2.1149 H   0  0  0  0  0  0  0  0  0  0  0  0
    8.4819   -5.7951    1.6595 H   0  0  0  0  0  0  0  0  0  0  0  0
    9.9689   -4.8848    1.7770 H   0  0  0  0  0  0  0  0  0  0  0  0
    7.9246   -4.6117   -0.2988 H   0  0  0  0  0  0  0  0  0  0  0  0
    9.3471   -5.3910   -0.4516 H   0  0  0  0  0  0  0  0  0  0  0  0
    7.0832   -5.5877    3.8350 H   0  0  0  0  0  0  0  0  0  0  0  0
    5.8908   -7.7154    3.8115 H   0  0  0  0  0  0  0  0  0  0  0  0
    2.4934   -9.5184    1.3828 H   0  0  0  0  0  0  0  0  0  0  0  0
    0.5642   -9.7964   -0.0719 H   0  0  0  0  0  0  0  0  0  0  0  0
   -1.6149   -7.5519   -3.3759 H   0  0  0  0  0  0  0  0  0  0  0  0
   -0.2401   -6.5058   -3.8433 H   0  0  0  0  0  0  0  0  0  0  0  0
   -1.4064   -5.9578   -2.5903 H   0  0  0  0  0  0  0  0  0  0  0  0
    1.3406   -5.8378   -1.6195 H   0  0  0  0  0  0  0  0  0  0  0  0
    4.6431   -4.2269    0.5492 H   0  0  0  0  0  0  0  0  0  0  0  0
    4.3832   -2.5413    2.7916 H   0  0  0  0  0  0  0  0  0  0  0  0
  1  2  1  0  0  0  0
  1 31  1  0  0  0  0
  1 32  1  0  0  0  0
  1 33  1  0  0  0  0
  2  3  1  0  0  0  0
  2 34  1  0  0  0  0
  2 35  1  0  0  0  0
  3  4  1  0  0  0  0
  4  5  1  0  0  0  0
  4 30  2  0  0  0  0
  5  6  2  0  0  0  0
  5 36  1  0  0  0  0
  6  7  1  0  0  0  0
  6  8  1  0  0  0  0
  8  9  2  0  0  0  0
  8 37  1  0  0  0  0
  9 10  1  0  0  0  0
  9 30  1  0  0  0  0
 10 11  1  0  0  0  0
 10 14  1  0  0  0  0
 11 12  1  0  0  0  0
 11 38  1  0  0  0  0
 11 39  1  0  0  0  0
 12 13  1  0  0  0  0
 12 40  1  0  0  0  0
 12 41  1  0  0  0  0
 13 42  1  0  0  0  0
 13 43  1  0  0  0  0
 14 15  1  0  0  0  0
 14 29  2  0  0  0  0
 15 16  2  0  0  0  0
 15 44  1  0  0  0  0
 16 17  1  0  0  0  0
 16 45  1  0  0  0  0
 17 18  1  0  0  0  0
 17 28  2  0  0  0  0
 18 19  2  0  0  0  0
 19 20  1  0  0  0  0
 19 46  1  0  0  0  0
 20 21  1  0  0  0  0
 20 27  2  0  0  0  0
 21 22  1  0  0  0  0
 21 26  2  0  0  0  0
 22 23  2  0  0  0  0
 22 47  1  0  0  0  0
 23 24  1  0  0  0  0
 24 25  1  0  0  0  0
 24 26  1  0  0  0  0
 25 48  1  0  0  0  0
 25 49  1  0  0  0  0
 25 50  1  0  0  0  0
 26 51  1  0  0  0  0
 27 28  1  0  0  0  0
 28 29  1  0  0  0  0
 29 52  1  0  0  0  0
 30 53  1  0  0  0  0
M  END
$$$$
