CHEMBL432196
 OpenBabel04072215383D

 41 44  0  0  0  0  0  0  0  0999 V2000
    1.2300   -2.1178    0.7197 C   0  0  0  0  0  0  0  0  0  0  0  0
    2.7331   -2.1209    0.7814 C   0  0  0  0  0  0  0  0  0  0  0  0
    3.3609   -3.1642    0.6156 O   0  0  0  0  0  0  0  0  0  0  0  0
    3.2610   -0.8599    0.9780 N   0  0  0  0  0  0  0  0  0  0  0  0
    4.6203   -0.6420    0.9704 C   0  0  0  0  0  0  0  0  0  0  0  0
    5.4509   -1.6962    1.1818 O   0  0  0  0  0  0  0  0  0  0  0  0
    6.7035   -1.1620    1.2043 C   0  0  0  0  0  0  0  0  0  0  0  0
    7.7775   -2.0919    1.4948 C   0  0  0  0  0  0  0  0  0  0  0  0
    9.1016   -1.6795    1.4325 C   0  0  0  0  0  0  0  0  0  0  0  0
   10.1596   -2.4725    1.7248 N   0  0  0  0  0  0  0  0  0  0  0  0
    9.8772   -3.7446    2.0970 C   0  0  0  0  0  0  0  0  0  0  0  0
    8.5923   -4.2742    2.1932 C   0  0  0  0  0  0  0  0  0  0  0  0
    8.3395   -5.6557    2.5942 C   0  0  0  0  0  0  0  0  0  0  0  0
    7.2454   -6.4895    2.1829 C   0  0  0  0  0  0  0  0  0  0  0  0
    7.2924   -7.7464    2.7445 C   0  0  0  0  0  0  0  0  0  0  0  0
    8.6369   -7.9353    3.7789 S   0  0  0  0  0  0  0  0  0  0  0  0
    9.1589   -6.3321    3.4799 C   0  0  0  0  0  0  0  0  0  0  0  0
    7.5325   -3.4180    1.8782 C   0  0  0  0  0  0  0  0  0  0  0  0
    6.7421    0.1402    0.9975 N   0  0  0  0  0  0  0  0  0  0  0  0
    5.4144    0.4829    0.8403 C   0  0  0  0  0  0  0  0  0  0  0  0
    4.9659    1.8409    0.6042 C   0  0  0  0  0  0  0  0  0  0  0  0
    3.8285    2.1081   -0.1691 C   0  0  0  0  0  0  0  0  0  0  0  0
    3.3415    3.4115   -0.2842 C   0  0  0  0  0  0  0  0  0  0  0  0
    4.0088    4.4588    0.3458 C   0  0  0  0  0  0  0  0  0  0  0  0
    5.1809    4.2137    1.0586 C   0  0  0  0  0  0  0  0  0  0  0  0
    5.6648    2.9093    1.1794 C   0  0  0  0  0  0  0  0  0  0  0  0
    0.8782   -3.1409    0.5520 H   0  0  0  0  0  0  0  0  0  0  0  0
    0.8901   -1.4940   -0.1118 H   0  0  0  0  0  0  0  0  0  0  0  0
    0.8145   -1.7529    1.6614 H   0  0  0  0  0  0  0  0  0  0  0  0
    2.6517   -0.0549    1.0328 H   0  0  0  0  0  0  0  0  0  0  0  0
    9.3589   -0.6644    1.1384 H   0  0  0  0  0  0  0  0  0  0  0  0
   10.7570   -4.3445    2.3140 H   0  0  0  0  0  0  0  0  0  0  0  0
    6.4609   -6.1880    1.4978 H   0  0  0  0  0  0  0  0  0  0  0  0
    6.5993   -8.5626    2.5955 H   0  0  0  0  0  0  0  0  0  0  0  0
   10.0461   -5.9747    3.9848 H   0  0  0  0  0  0  0  0  0  0  0  0
    6.5061   -3.7746    1.9466 H   0  0  0  0  0  0  0  0  0  0  0  0
    3.3112    1.3136   -0.6990 H   0  0  0  0  0  0  0  0  0  0  0  0
    2.4408    3.6047   -0.8589 H   0  0  0  0  0  0  0  0  0  0  0  0
    3.6195    5.4713    0.2722 H   0  0  0  0  0  0  0  0  0  0  0  0
    5.7135    5.0346    1.5318 H   0  0  0  0  0  0  0  0  0  0  0  0
    6.5793    2.7289    1.7419 H   0  0  0  0  0  0  0  0  0  0  0  0
  1  2  1  0  0  0  0
  1 27  1  0  0  0  0
  1 28  1  0  0  0  0
  1 29  1  0  0  0  0
  2  3  2  0  0  0  0
  2  4  1  0  0  0  0
  4  5  1  0  0  0  0
  4 30  1  0  0  0  0
  5  6  1  0  0  0  0
  5 20  2  0  0  0  0
  6  7  1  0  0  0  0
  7  8  1  0  0  0  0
  7 19  2  0  0  0  0
  8  9  1  0  0  0  0
  8 18  2  0  0  0  0
  9 10  2  0  0  0  0
  9 31  1  0  0  0  0
 10 11  1  0  0  0  0
 11 12  2  0  0  0  0
 11 32  1  0  0  0  0
 12 13  1  0  0  0  0
 12 18  1  0  0  0  0
 13 14  1  0  0  0  0
 13 17  2  0  0  0  0
 14 15  2  0  0  0  0
 14 33  1  0  0  0  0
 15 16  1  0  0  0  0
 15 34  1  0  0  0  0
 16 17  1  0  0  0  0
 17 35  1  0  0  0  0
 18 36  1  0  0  0  0
 19 20  1  0  0  0  0
 20 21  1  0  0  0  0
 21 22  1  0  0  0  0
 21 26  2  0  0  0  0
 22 23  2  0  0  0  0
 22 37  1  0  0  0  0
 23 24  1  0  0  0  0
 23 38  1  0  0  0  0
 24 25  2  0  0  0  0
 24 39  1  0  0  0  0
 25 26  1  0  0  0  0
 25 40  1  0  0  0  0
 26 41  1  0  0  0  0
M  END
$$$$
