CHEMBL272824
 OpenBabel04072215363D

 56 60  0  0  0  0  0  0  0  0999 V2000
    5.1091    1.2914   -1.1795 C   0  0  0  0  0  0  0  0  0  0  0  0
    3.9098    0.5046   -0.9965 O   0  0  0  0  0  0  0  0  0  0  0  0
    4.1367   -0.7959   -0.6267 C   0  0  0  0  0  0  0  0  0  0  0  0
    5.2823   -1.1339    0.1250 C   0  0  0  0  0  0  0  0  0  0  0  0
    5.6710   -2.4394    0.3807 C   0  0  0  0  0  0  0  0  0  0  0  0
    6.8710   -2.6427    0.9488 N   0  0  0  0  0  0  0  0  0  0  0  0
    7.2754   -3.9122    1.1477 C   0  0  0  0  0  0  0  0  0  0  0  0
    6.5450   -5.0170    0.7679 C   0  0  0  0  0  0  0  0  0  0  0  0
    5.3055   -4.8120    0.1673 C   0  0  0  0  0  0  0  0  0  0  0  0
    4.6869   -5.9982   -0.2179 O   0  0  0  0  0  0  0  0  0  0  0  0
    3.8617   -6.0411   -1.3083 C   0  0  0  0  0  0  0  0  0  0  0  0
    4.0092   -5.2366   -2.4299 C   0  0  0  0  0  0  0  0  0  0  0  0
    2.9248   -5.0538   -3.2830 C   0  0  0  0  0  0  0  0  0  0  0  0
    1.7374   -5.8388   -3.2123 C   0  0  0  0  0  0  0  0  0  0  0  0
    0.5990   -5.7281   -4.0646 C   0  0  0  0  0  0  0  0  0  0  0  0
    0.3896   -4.7317   -5.1735 C   0  0  0  0  0  0  0  0  0  0  0  0
   -0.7694   -4.3809   -5.3912 O   0  0  0  0  0  0  0  0  0  0  0  0
    1.4861   -4.3140   -5.9059 N   0  0  0  0  0  0  0  0  0  0  0  0
    1.4822   -3.4017   -6.9893 C   0  0  0  0  0  0  0  0  0  0  0  0
    0.3246   -2.8260   -7.5259 C   0  0  0  0  0  0  0  0  0  0  0  0
    0.3917   -1.9907   -8.6452 C   0  0  0  0  0  0  0  0  0  0  0  0
    1.6207   -1.7044   -9.2303 C   0  0  0  0  0  0  0  0  0  0  0  0
    2.7851   -2.2369   -8.6831 C   0  0  0  0  0  0  0  0  0  0  0  0
    2.7155   -3.0802   -7.5690 C   0  0  0  0  0  0  0  0  0  0  0  0
   -0.5153   -6.5705   -3.8542 C   0  0  0  0  0  0  0  0  0  0  0  0
   -0.5290   -7.4995   -2.8242 C   0  0  0  0  0  0  0  0  0  0  0  0
    0.5645   -7.6023   -1.9783 C   0  0  0  0  0  0  0  0  0  0  0  0
    1.6921   -6.7892   -2.1459 C   0  0  0  0  0  0  0  0  0  0  0  0
    2.7315   -6.8757   -1.2117 C   0  0  0  0  0  0  0  0  0  0  0  0
    4.8135   -3.4824    0.0114 C   0  0  0  0  0  0  0  0  0  0  0  0
    3.5590   -3.1080   -0.5200 C   0  0  0  0  0  0  0  0  0  0  0  0
    3.2591   -1.8167   -0.9676 C   0  0  0  0  0  0  0  0  0  0  0  0
    2.1460   -1.8630   -1.7523 O   0  0  0  0  0  0  0  0  0  0  0  0
    1.6577   -0.7412   -2.4546 C   0  0  0  0  0  0  0  0  0  0  0  0
    5.0092    1.8453   -2.1070 H   0  0  0  0  0  0  0  0  0  0  0  0
    6.0179    0.6894   -1.2870 H   0  0  0  0  0  0  0  0  0  0  0  0
    5.2332    1.9882   -0.3444 H   0  0  0  0  0  0  0  0  0  0  0  0
    5.9564   -0.3569    0.4761 H   0  0  0  0  0  0  0  0  0  0  0  0
    8.2408   -4.0185    1.6338 H   0  0  0  0  0  0  0  0  0  0  0  0
    6.9327   -6.0165    0.9272 H   0  0  0  0  0  0  0  0  0  0  0  0
    4.8782   -4.5864   -2.5260 H   0  0  0  0  0  0  0  0  0  0  0  0
    2.9969   -4.1925   -3.9416 H   0  0  0  0  0  0  0  0  0  0  0  0
    2.3760   -4.7487   -5.7108 H   0  0  0  0  0  0  0  0  0  0  0  0
   -0.6585   -3.0171   -7.1095 H   0  0  0  0  0  0  0  0  0  0  0  0
   -0.5236   -1.5723   -9.0573 H   0  0  0  0  0  0  0  0  0  0  0  0
    1.6683   -1.0651  -10.1076 H   0  0  0  0  0  0  0  0  0  0  0  0
    3.7484   -1.9996   -9.1266 H   0  0  0  0  0  0  0  0  0  0  0  0
    3.6414   -3.4758   -7.1607 H   0  0  0  0  0  0  0  0  0  0  0  0
   -1.3987   -6.4847   -4.4865 H   0  0  0  0  0  0  0  0  0  0  0  0
   -1.4079   -8.1275   -2.6699 H   0  0  0  0  0  0  0  0  0  0  0  0
    0.5171   -8.3142   -1.1541 H   0  0  0  0  0  0  0  0  0  0  0  0
    2.6570   -7.5414   -0.3548 H   0  0  0  0  0  0  0  0  0  0  0  0
    2.8003   -3.8623   -0.7028 H   0  0  0  0  0  0  0  0  0  0  0  0
    0.9634   -1.1118   -3.2182 H   0  0  0  0  0  0  0  0  0  0  0  0
    2.4366   -0.1829   -2.9767 H   0  0  0  0  0  0  0  0  0  0  0  0
    1.0791   -0.1162   -1.7706 H   0  0  0  0  0  0  0  0  0  0  0  0
  1  2  1  0  0  0  0
  1 35  1  0  0  0  0
  1 36  1  0  0  0  0
  1 37  1  0  0  0  0
  2  3  1  0  0  0  0
  3  4  1  0  0  0  0
  3 32  2  0  0  0  0
  4  5  2  0  0  0  0
  4 38  1  0  0  0  0
  5  6  1  0  0  0  0
  5 30  1  0  0  0  0
  6  7  2  0  0  0  0
  7  8  1  0  0  0  0
  7 39  1  0  0  0  0
  8  9  2  0  0  0  0
  8 40  1  0  0  0  0
  9 10  1  0  0  0  0
  9 30  1  0  0  0  0
 10 11  1  0  0  0  0
 11 12  1  0  0  0  0
 11 29  2  0  0  0  0
 12 13  2  0  0  0  0
 12 41  1  0  0  0  0
 13 14  1  0  0  0  0
 13 42  1  0  0  0  0
 14 15  1  0  0  0  0
 14 28  2  0  0  0  0
 15 16  1  0  0  0  0
 15 25  2  0  0  0  0
 16 17  2  0  0  0  0
 16 18  1  0  0  0  0
 18 19  1  0  0  0  0
 18 43  1  0  0  0  0
 19 20  1  0  0  0  0
 19 24  2  0  0  0  0
 20 21  2  0  0  0  0
 20 44  1  0  0  0  0
 21 22  1  0  0  0  0
 21 45  1  0  0  0  0
 22 23  2  0  0  0  0
 22 46  1  0  0  0  0
 23 24  1  0  0  0  0
 23 47  1  0  0  0  0
 24 48  1  0  0  0  0
 25 26  1  0  0  0  0
 25 49  1  0  0  0  0
 26 27  2  0  0  0  0
 26 50  1  0  0  0  0
 27 28  1  0  0  0  0
 27 51  1  0  0  0  0
 28 29  1  0  0  0  0
 29 52  1  0  0  0  0
 30 31  2  0  0  0  0
 31 32  1  0  0  0  0
 31 53  1  0  0  0  0
 32 33  1  0  0  0  0
 33 34  1  0  0  0  0
 34 54  1  0  0  0  0
 34 55  1  0  0  0  0
 34 56  1  0  0  0  0
M  END
$$$$
