CHEMBL2325087
 OpenBabel04072215363D

 41 44  0  0  1  0  0  0  0  0999 V2000
    1.2568   -0.3156   -0.1032 N   0  0  0  0  0  0  0  0  0  0  0  0
    2.5864   -0.0462    0.0413 C   0  0  0  0  0  0  0  0  0  0  0  0
    3.1539    1.4164   -0.5358 S   0  0  0  0  0  0  0  0  0  0  0  0
    3.3442   -1.0353    0.6334 N   0  0  0  0  0  0  0  0  0  0  0  0
    4.5248   -0.7218    1.2692 N   0  0  0  0  0  0  0  0  0  0  0  0
    4.9745   -1.8088    1.8152 C   0  0  0  0  0  0  0  0  0  0  0  0
    6.2049   -1.8439    2.6404 C   0  0  0  0  0  0  0  0  0  0  0  0
    6.8886   -0.6490    2.8946 C   0  0  0  0  0  0  0  0  0  0  0  0
    8.0363   -0.6504    3.6925 C   0  0  0  0  0  0  0  0  0  0  0  0
    8.5092   -1.8460    4.2397 C   0  0  0  0  0  0  0  0  0  0  0  0
    9.9275   -1.7790    5.2219 Cl  0  0  0  0  0  0  0  0  0  0  0  0
    7.8288   -3.0418    3.9830 C   0  0  0  0  0  0  0  0  0  0  0  0
    8.3517   -4.5600    4.6239 Cl  0  0  0  0  0  0  0  0  0  0  0  0
    6.6786   -3.0405    3.1849 C   0  0  0  0  0  0  0  0  0  0  0  0
    4.1527   -3.0445    1.5678 C   0  0  0  0  0  0  0  0  0  0  0  0
    2.9990   -2.4571    0.7639 C   0  0  3  0  0  0  0  0  0  0  0  0
    2.8466   -3.1438   -0.5817 C   0  0  0  0  0  0  0  0  0  0  0  0
    3.8687   -3.0849   -1.5423 C   0  0  0  0  0  0  0  0  0  0  0  0
    3.7389   -3.7512   -2.7631 C   0  0  0  0  0  0  0  0  0  0  0  0
    2.5825   -4.4789   -3.0594 C   0  0  0  0  0  0  0  0  0  0  0  0
    2.4456   -5.1612   -4.2796 C   0  0  0  0  0  0  0  0  0  0  0  0
    1.2821   -5.8747   -4.5710 C   0  0  0  0  0  0  0  0  0  0  0  0
    0.2394   -5.9103   -3.6500 C   0  0  0  0  0  0  0  0  0  0  0  0
    0.3625   -5.2401   -2.4305 C   0  0  0  0  0  0  0  0  0  0  0  0
    1.5305   -4.5286   -2.1165 C   0  0  0  0  0  0  0  0  0  0  0  0
    1.6791   -3.8630   -0.8849 C   0  0  0  0  0  0  0  0  0  0  0  0
    0.7130    0.4525   -0.4815 H   0  0  0  0  0  0  0  0  0  0  0  0
    0.7989   -0.8181    0.6424 H   0  0  0  0  0  0  0  0  0  0  0  0
    6.5304    0.2935    2.4797 H   0  0  0  0  0  0  0  0  0  0  0  0
    8.5542    0.2872    3.8844 H   0  0  0  0  0  0  0  0  0  0  0  0
    6.1671   -3.9815    3.0041 H   0  0  0  0  0  0  0  0  0  0  0  0
    3.8087   -3.4756    2.5129 H   0  0  0  0  0  0  0  0  0  0  0  0
    4.7493   -3.7841    1.0243 H   0  0  0  0  0  0  0  0  0  0  0  0
    2.0654   -2.5295    1.3373 H   0  0  0  0  0  0  0  0  0  0  0  0
    4.7707   -2.5101   -1.3491 H   0  0  0  0  0  0  0  0  0  0  0  0
    4.5528   -3.6851   -3.4826 H   0  0  0  0  0  0  0  0  0  0  0  0
    3.2470   -5.1386   -5.0137 H   0  0  0  0  0  0  0  0  0  0  0  0
    1.1903   -6.3978   -5.5191 H   0  0  0  0  0  0  0  0  0  0  0  0
   -0.6700   -6.4579   -3.8792 H   0  0  0  0  0  0  0  0  0  0  0  0
   -0.4663   -5.2785   -1.7266 H   0  0  0  0  0  0  0  0  0  0  0  0
    0.8679   -3.9033   -0.1604 H   0  0  0  0  0  0  0  0  0  0  0  0
  1  2  1  0  0  0  0
  1 27  1  0  0  0  0
  1 28  1  0  0  0  0
  2  3  2  0  0  0  0
  2  4  1  0  0  0  0
  4  5  1  0  0  0  0
  4 16  1  0  0  0  0
  5  6  2  0  0  0  0
  6  7  1  0  0  0  0
  6 15  1  0  0  0  0
  7  8  1  0  0  0  0
  7 14  2  0  0  0  0
  8  9  2  0  0  0  0
  8 29  1  0  0  0  0
  9 10  1  0  0  0  0
  9 30  1  0  0  0  0
 10 11  1  0  0  0  0
 10 12  2  0  0  0  0
 12 13  1  0  0  0  0
 12 14  1  0  0  0  0
 14 31  1  0  0  0  0
 15 16  1  0  0  0  0
 15 32  1  0  0  0  0
 15 33  1  0  0  0  0
 16 17  1  0  0  0  0
 16 34  1  0  0  0  0
 17 18  1  0  0  0  0
 17 26  2  0  0  0  0
 18 19  2  0  0  0  0
 18 35  1  0  0  0  0
 19 20  1  0  0  0  0
 19 36  1  0  0  0  0
 20 21  1  0  0  0  0
 20 25  2  0  0  0  0
 21 22  2  0  0  0  0
 21 37  1  0  0  0  0
 22 23  1  0  0  0  0
 22 38  1  0  0  0  0
 23 24  2  0  0  0  0
 23 39  1  0  0  0  0
 24 25  1  0  0  0  0
 24 40  1  0  0  0  0
 25 26  1  0  0  0  0
 26 41  1  0  0  0  0
M  END
$$$$
