CHEMBL3628799
 OpenBabel04072215373D

 51 55  0  0  0  0  0  0  0  0999 V2000
    1.2085    0.5144    0.2804 O   0  0  0  0  0  0  0  0  0  0  0  0
    2.3226    0.0327    0.1228 C   0  0  0  0  0  0  0  0  0  0  0  0
    2.8760   -0.2740   -1.1146 N   0  0  0  0  0  0  0  0  0  0  0  0
    2.2278   -0.0792   -2.3541 C   0  0  0  0  0  0  0  0  0  0  0  0
    1.0981    0.7267   -2.4930 C   0  0  0  0  0  0  0  0  0  0  0  0
    0.4558    0.8496   -3.7189 C   0  0  0  0  0  0  0  0  0  0  0  0
    0.9573    0.2094   -4.8503 C   0  0  0  0  0  0  0  0  0  0  0  0
    0.3075    0.3232   -6.0945 N   0  0  0  0  0  0  0  0  0  0  0  0
   -0.2564    1.5187   -6.5819 C   0  0  0  0  0  0  0  0  0  0  0  0
    0.2359    2.6975   -6.1210 N   0  0  0  0  0  0  0  0  0  0  0  0
   -0.2445    3.8504   -6.5885 C   0  0  0  0  0  0  0  0  0  0  0  0
   -1.1712    4.0062   -7.5257 N   0  0  0  0  0  0  0  0  0  0  0  0
   -1.6470    2.8348   -7.9798 C   0  0  0  0  0  0  0  0  0  0  0  0
   -2.8249    2.8185   -9.2073 S   0  0  0  0  0  0  0  0  0  0  0  0
   -2.9221    1.1261   -9.1700 C   0  0  0  0  0  0  0  0  0  0  0  0
   -2.0654    0.5553   -8.2450 C   0  0  0  0  0  0  0  0  0  0  0  0
   -1.2760    1.5613   -7.5605 C   0  0  0  0  0  0  0  0  0  0  0  0
   -2.0606   -0.9301   -8.0129 C   0  0  0  0  0  0  0  0  0  0  0  0
   -2.7483   -1.7041   -9.1450 C   0  0  0  0  0  0  0  0  0  0  0  0
   -4.0690   -1.0481   -9.5607 C   0  0  0  0  0  0  0  0  0  0  0  0
   -3.8429    0.3762  -10.0827 C   0  0  0  0  0  0  0  0  0  0  0  0
    2.0745   -0.6190   -4.7161 C   0  0  0  0  0  0  0  0  0  0  0  0
    2.7247   -0.7422   -3.4816 C   0  0  0  0  0  0  0  0  0  0  0  0
    3.1730   -0.3257    1.1545 N   0  0  0  0  0  0  0  0  0  0  0  0
    2.8587   -0.2773    2.5355 C   0  0  0  0  0  0  0  0  0  0  0  0
    1.6180    0.1220    3.0474 C   0  0  0  0  0  0  0  0  0  0  0  0
    1.3761    0.1283    4.4216 C   0  0  0  0  0  0  0  0  0  0  0  0
    2.3723   -0.2782    5.3069 C   0  0  0  0  0  0  0  0  0  0  0  0
    3.6045   -0.6829    4.8044 C   0  0  0  0  0  0  0  0  0  0  0  0
    4.9570   -1.2493    5.9993 Br  0  0  0  0  0  0  0  0  0  0  0  0
    3.8536   -0.6854    3.4297 C   0  0  0  0  0  0  0  0  0  0  0  0
    3.7083   -0.8451   -1.1301 H   0  0  0  0  0  0  0  0  0  0  0  0
    0.6823    1.2987   -1.6685 H   0  0  0  0  0  0  0  0  0  0  0  0
   -0.4341    1.4710   -3.7802 H   0  0  0  0  0  0  0  0  0  0  0  0
   -0.2689   -0.4861   -6.2715 H   0  0  0  0  0  0  0  0  0  0  0  0
    0.1734    4.7537   -6.1559 H   0  0  0  0  0  0  0  0  0  0  0  0
   -2.5841   -1.1299   -7.0685 H   0  0  0  0  0  0  0  0  0  0  0  0
   -1.0398   -1.3103   -7.9181 H   0  0  0  0  0  0  0  0  0  0  0  0
   -2.9246   -2.7371   -8.8248 H   0  0  0  0  0  0  0  0  0  0  0  0
   -2.0776   -1.7470  -10.0127 H   0  0  0  0  0  0  0  0  0  0  0  0
   -4.7455   -1.0216   -8.6969 H   0  0  0  0  0  0  0  0  0  0  0  0
   -4.5575   -1.6493  -10.3351 H   0  0  0  0  0  0  0  0  0  0  0  0
   -4.8070    0.8867  -10.1811 H   0  0  0  0  0  0  0  0  0  0  0  0
   -3.3874    0.3297  -11.0798 H   0  0  0  0  0  0  0  0  0  0  0  0
    2.4657   -1.1449   -5.5834 H   0  0  0  0  0  0  0  0  0  0  0  0
    3.6062   -1.3707   -3.4172 H   0  0  0  0  0  0  0  0  0  0  0  0
    4.1073   -0.5977    0.9088 H   0  0  0  0  0  0  0  0  0  0  0  0
    0.8047    0.4441    2.4042 H   0  0  0  0  0  0  0  0  0  0  0  0
    0.4067    0.4480    4.7939 H   0  0  0  0  0  0  0  0  0  0  0  0
    2.1739   -0.2745    6.3744 H   0  0  0  0  0  0  0  0  0  0  0  0
    4.8240   -1.0086    3.0640 H   0  0  0  0  0  0  0  0  0  0  0  0
  1  2  2  0  0  0  0
  2  3  1  0  0  0  0
  2 24  1  0  0  0  0
  3  4  1  0  0  0  0
  3 32  1  0  0  0  0
  4  5  1  0  0  0  0
  4 23  2  0  0  0  0
  5  6  2  0  0  0  0
  5 33  1  0  0  0  0
  6  7  1  0  0  0  0
  6 34  1  0  0  0  0
  7  8  1  0  0  0  0
  7 22  2  0  0  0  0
  8  9  1  0  0  0  0
  8 35  1  0  0  0  0
  9 10  1  0  0  0  0
  9 17  2  0  0  0  0
 10 11  2  0  0  0  0
 11 12  1  0  0  0  0
 11 36  1  0  0  0  0
 12 13  2  0  0  0  0
 13 14  1  0  0  0  0
 13 17  1  0  0  0  0
 14 15  1  0  0  0  0
 15 16  2  0  0  0  0
 15 21  1  0  0  0  0
 16 17  1  0  0  0  0
 16 18  1  0  0  0  0
 18 19  1  0  0  0  0
 18 37  1  0  0  0  0
 18 38  1  0  0  0  0
 19 20  1  0  0  0  0
 19 39  1  0  0  0  0
 19 40  1  0  0  0  0
 20 21  1  0  0  0  0
 20 41  1  0  0  0  0
 20 42  1  0  0  0  0
 21 43  1  0  0  0  0
 21 44  1  0  0  0  0
 22 23  1  0  0  0  0
 22 45  1  0  0  0  0
 23 46  1  0  0  0  0
 24 25  1  0  0  0  0
 24 47  1  0  0  0  0
 25 26  1  0  0  0  0
 25 31  2  0  0  0  0
 26 27  2  0  0  0  0
 26 48  1  0  0  0  0
 27 28  1  0  0  0  0
 27 49  1  0  0  0  0
 28 29  2  0  0  0  0
 28 50  1  0  0  0  0
 29 30  1  0  0  0  0
 29 31  1  0  0  0  0
 31 51  1  0  0  0  0
M  END
$$$$
