CHEMBL361196
 OpenBabel04072215363D

 33 36  0  0  0  0  0  0  0  0999 V2000
    1.4278   -1.0015    0.8960 O   0  0  0  0  0  0  0  0  0  0  0  0
    2.3832   -0.4218    0.4057 C   0  0  0  0  0  0  0  0  0  0  0  0
    2.8562    0.8303    0.7124 N   0  0  0  0  0  0  0  0  0  0  0  0
    2.3241    1.6790    1.6909 C   0  0  0  0  0  0  0  0  0  0  0  0
    1.2680    1.3377    2.4520 N   0  0  0  0  0  0  0  0  0  0  0  0
    0.8168    2.2133    3.3695 C   0  0  0  0  0  0  0  0  0  0  0  0
    1.2980    3.4329    3.6483 N   0  0  0  0  0  0  0  0  0  0  0  0
    2.3446    3.7313    2.8684 C   0  0  0  0  0  0  0  0  0  0  0  0
    3.0175    4.9165    2.9384 O   0  0  0  0  0  0  0  0  0  0  0  0
    4.0138    4.8822    2.0030 C   0  0  0  0  0  0  0  0  0  0  0  0
    4.8720    6.0540    1.9035 C   0  0  0  0  0  0  0  0  0  0  0  0
    4.6810    7.1997    2.6793 C   0  0  0  0  0  0  0  0  0  0  0  0
    5.5598    8.2772    2.5593 C   0  0  0  0  0  0  0  0  0  0  0  0
    6.6063    8.1802    1.6578 C   0  0  0  0  0  0  0  0  0  0  0  0
    6.8192    7.1031    0.8758 N   0  0  0  0  0  0  0  0  0  0  0  0
    5.9488    6.0751    1.0171 C   0  0  0  0  0  0  0  0  0  0  0  0
    3.9842    3.6723    1.3389 C   0  0  0  0  0  0  0  0  0  0  0  0
    2.9086    2.9310    1.8878 C   0  0  0  0  0  0  0  0  0  0  0  0
    3.1754   -1.0770   -0.6848 C   0  0  0  0  0  0  0  0  0  0  0  0
    2.4800   -1.5097   -1.9545 C   0  0  0  0  0  0  0  0  0  0  0  0
    2.9847   -2.5441   -0.9905 C   0  0  0  0  0  0  0  0  0  0  0  0
    3.6398    1.1786    0.1841 H   0  0  0  0  0  0  0  0  0  0  0  0
   -0.0433    1.8898    3.9493 H   0  0  0  0  0  0  0  0  0  0  0  0
    3.8546    7.2639    3.3838 H   0  0  0  0  0  0  0  0  0  0  0  0
    5.4319    9.1699    3.1615 H   0  0  0  0  0  0  0  0  0  0  0  0
    7.3245    8.9868    1.5395 H   0  0  0  0  0  0  0  0  0  0  0  0
    6.1648    5.2339    0.3642 H   0  0  0  0  0  0  0  0  0  0  0  0
    4.6560    3.3628    0.5522 H   0  0  0  0  0  0  0  0  0  0  0  0
    4.1924   -0.7118   -0.7981 H   0  0  0  0  0  0  0  0  0  0  0  0
    3.0067   -1.3951   -2.8944 H   0  0  0  0  0  0  0  0  0  0  0  0
    1.4059   -1.3724   -2.0255 H   0  0  0  0  0  0  0  0  0  0  0  0
    3.8586   -3.1219   -1.2663 H   0  0  0  0  0  0  0  0  0  0  0  0
    2.2536   -3.0981   -0.4105 H   0  0  0  0  0  0  0  0  0  0  0  0
  1  2  2  0  0  0  0
  2  3  1  0  0  0  0
  2 19  1  0  0  0  0
  3  4  1  0  0  0  0
  3 22  1  0  0  0  0
  4  5  1  0  0  0  0
  4 18  2  0  0  0  0
  5  6  2  0  0  0  0
  6  7  1  0  0  0  0
  6 23  1  0  0  0  0
  7  8  2  0  0  0  0
  8  9  1  0  0  0  0
  8 18  1  0  0  0  0
  9 10  1  0  0  0  0
 10 11  1  0  0  0  0
 10 17  2  0  0  0  0
 11 12  1  0  0  0  0
 11 16  2  0  0  0  0
 12 13  2  0  0  0  0
 12 24  1  0  0  0  0
 13 14  1  0  0  0  0
 13 25  1  0  0  0  0
 14 15  2  0  0  0  0
 14 26  1  0  0  0  0
 15 16  1  0  0  0  0
 16 27  1  0  0  0  0
 17 18  1  0  0  0  0
 17 28  1  0  0  0  0
 19 20  1  0  0  0  0
 19 21  1  0  0  0  0
 19 29  1  0  0  0  0
 20 21  1  0  0  0  0
 20 30  1  0  0  0  0
 20 31  1  0  0  0  0
 21 32  1  0  0  0  0
 21 33  1  0  0  0  0
M  END
$$$$
