CHEMBL3099462
 OpenBabel04072215363D

 78 81  0  0  0  0  0  0  0  0999 V2000
   -1.6257    8.5907    5.4476 C   0  0  0  0  0  0  0  0  0  0  0  0
   -2.1845    8.1621    4.2109 O   0  0  0  0  0  0  0  0  0  0  0  0
   -1.3117    7.7307    3.2442 C   0  0  0  0  0  0  0  0  0  0  0  0
   -0.0844    7.1313    3.5510 C   0  0  0  0  0  0  0  0  0  0  0  0
    0.7276    6.4982    2.5783 C   0  0  0  0  0  0  0  0  0  0  0  0
    1.9811    5.7716    2.9608 C   0  0  0  0  0  0  0  0  0  0  0  0
    2.0528    5.2292    4.2736 C   0  0  0  0  0  0  0  0  0  0  0  0
    3.0715    4.3666    4.6772 C   0  0  0  0  0  0  0  0  0  0  0  0
    3.0716    3.8378    5.9860 N   0  0  0  0  0  0  0  0  0  0  0  0
    3.0704    2.4647    6.2031 C   0  0  0  0  0  0  0  0  0  0  0  0
    3.1232    1.6526    5.3024 O   0  0  0  0  0  0  0  0  0  0  0  0
    2.9996    2.1212    7.5534 N   0  0  0  0  0  0  0  0  0  0  0  0
    2.9920    0.7415    7.8966 C   0  0  0  0  0  0  0  0  0  0  0  0
    4.0287   -0.0966    7.4710 C   0  0  0  0  0  0  0  0  0  0  0  0
    3.9973   -1.4704    7.7385 C   0  0  0  0  0  0  0  0  0  0  0  0
    2.9266   -2.0187    8.4368 C   0  0  0  0  0  0  0  0  0  0  0  0
    2.7814   -3.3447    8.7252 O   0  0  0  0  0  0  0  0  0  0  0  0
    3.9915   -4.0944    8.8770 C   0  0  0  0  0  0  0  0  0  0  0  0
    3.7250   -5.2365    9.8534 C   0  0  0  0  0  0  0  0  0  0  0  0
    2.6367   -6.1857    9.3343 C   0  0  0  0  0  0  0  0  0  0  0  0
    2.3470   -7.2960   10.2618 N   0  0  0  0  0  0  0  0  0  0  0  0
    1.3014   -8.1918    9.7055 C   0  0  0  0  0  0  0  0  0  0  0  0
   -0.1140   -7.5794    9.7037 C   0  0  0  0  0  0  0  0  0  0  0  0
   -0.4990   -7.1154   11.0051 O   0  0  0  0  0  0  0  0  0  0  0  0
    0.4665   -6.1968   11.5326 C   0  0  0  0  0  0  0  0  0  0  0  0
    1.8613   -6.8385   11.5841 C   0  0  0  0  0  0  0  0  0  0  0  0
    1.8857   -1.1852    8.8600 C   0  0  0  0  0  0  0  0  0  0  0  0
    1.9281    0.1958    8.6216 C   0  0  0  0  0  0  0  0  0  0  0  0
    4.0617    4.0278    3.7678 C   0  0  0  0  0  0  0  0  0  0  0  0
    4.0770    4.5951    2.4950 C   0  0  0  0  0  0  0  0  0  0  0  0
    5.1419    4.3833    1.6617 O   0  0  0  0  0  0  0  0  0  0  0  0
    5.5984    3.0347    1.5834 C   0  0  0  0  0  0  0  0  0  0  0  0
    3.0515    5.4802    2.0619 C   0  0  0  0  0  0  0  0  0  0  0  0
    3.0638    6.0788    0.8277 O   0  0  0  0  0  0  0  0  0  0  0  0
    3.7705    5.4020   -0.2263 C   0  0  0  0  0  0  0  0  0  0  0  0
    0.2250    6.4708    1.2757 C   0  0  0  0  0  0  0  0  0  0  0  0
   -0.9757    7.1097    0.9357 C   0  0  0  0  0  0  0  0  0  0  0  0
   -1.7268    7.7792    1.9163 C   0  0  0  0  0  0  0  0  0  0  0  0
   -2.9295    8.5335    1.4783 C   0  0  0  0  0  0  0  0  0  0  0  0
   -3.3482    9.7873    2.2239 C   0  0  0  0  0  0  0  0  0  0  0  0
   -3.5382    8.1697    0.4734 O   0  0  0  0  0  0  0  0  0  0  0  0
   -2.4455    8.9555    6.0723 H   0  0  0  0  0  0  0  0  0  0  0  0
   -0.9240    9.4164    5.2872 H   0  0  0  0  0  0  0  0  0  0  0  0
   -1.1527    7.7677    5.9916 H   0  0  0  0  0  0  0  0  0  0  0  0
    0.2295    7.1091    4.5846 H   0  0  0  0  0  0  0  0  0  0  0  0
    1.2389    5.3841    4.9781 H   0  0  0  0  0  0  0  0  0  0  0  0
    2.9005    4.4602    6.7538 H   0  0  0  0  0  0  0  0  0  0  0  0
    2.4141    2.7182    8.1125 H   0  0  0  0  0  0  0  0  0  0  0  0
    4.8682    0.3141    6.9188 H   0  0  0  0  0  0  0  0  0  0  0  0
    4.8082   -2.0866    7.3644 H   0  0  0  0  0  0  0  0  0  0  0  0
    4.7924   -3.4754    9.2989 H   0  0  0  0  0  0  0  0  0  0  0  0
    4.3070   -4.4915    7.9055 H   0  0  0  0  0  0  0  0  0  0  0  0
    3.4146   -4.7804   10.7997 H   0  0  0  0  0  0  0  0  0  0  0  0
    4.6511   -5.7932   10.0389 H   0  0  0  0  0  0  0  0  0  0  0  0
    2.9924   -6.6103    8.3860 H   0  0  0  0  0  0  0  0  0  0  0  0
    1.7335   -5.6147    9.0953 H   0  0  0  0  0  0  0  0  0  0  0  0
    1.2825   -9.0954   10.3295 H   0  0  0  0  0  0  0  0  0  0  0  0
    1.5727   -8.5264    8.6974 H   0  0  0  0  0  0  0  0  0  0  0  0
   -0.8412   -8.3408    9.4035 H   0  0  0  0  0  0  0  0  0  0  0  0
   -0.1972   -6.7531    8.9890 H   0  0  0  0  0  0  0  0  0  0  0  0
    0.1502   -5.9305   12.5457 H   0  0  0  0  0  0  0  0  0  0  0  0
    0.4576   -5.2759   10.9380 H   0  0  0  0  0  0  0  0  0  0  0  0
    1.8177   -7.7188   12.2384 H   0  0  0  0  0  0  0  0  0  0  0  0
    2.5762   -6.1653   12.0649 H   0  0  0  0  0  0  0  0  0  0  0  0
    1.0314   -1.6214    9.3728 H   0  0  0  0  0  0  0  0  0  0  0  0
    1.0908    0.8071    8.9410 H   0  0  0  0  0  0  0  0  0  0  0  0
    4.8560    3.3685    4.0806 H   0  0  0  0  0  0  0  0  0  0  0  0
    6.0442    2.8994    0.5939 H   0  0  0  0  0  0  0  0  0  0  0  0
    4.7930    2.2987    1.6887 H   0  0  0  0  0  0  0  0  0  0  0  0
    6.3743    2.8917    2.3348 H   0  0  0  0  0  0  0  0  0  0  0  0
    3.3796    5.7193   -1.1962 H   0  0  0  0  0  0  0  0  0  0  0  0
    3.6248    4.3150   -0.1778 H   0  0  0  0  0  0  0  0  0  0  0  0
    4.8366    5.6671   -0.2203 H   0  0  0  0  0  0  0  0  0  0  0  0
    0.7465    5.9206    0.4950 H   0  0  0  0  0  0  0  0  0  0  0  0
   -1.3137    7.0637   -0.0966 H   0  0  0  0  0  0  0  0  0  0  0  0
   -2.6594   10.0806    3.0130 H   0  0  0  0  0  0  0  0  0  0  0  0
   -4.3421    9.6321    2.6525 H   0  0  0  0  0  0  0  0  0  0  0  0
   -3.3740   10.6245    1.5197 H   0  0  0  0  0  0  0  0  0  0  0  0
  1  2  1  0  0  0  0
  1 42  1  0  0  0  0
  1 43  1  0  0  0  0
  1 44  1  0  0  0  0
  2  3  1  0  0  0  0
  3  4  1  0  0  0  0
  3 38  2  0  0  0  0
  4  5  2  0  0  0  0
  4 45  1  0  0  0  0
  5  6  1  0  0  0  0
  5 36  1  0  0  0  0
  6  7  1  0  0  0  0
  6 33  2  0  0  0  0
  7  8  2  0  0  0  0
  7 46  1  0  0  0  0
  8  9  1  0  0  0  0
  8 29  1  0  0  0  0
  9 10  1  0  0  0  0
  9 47  1  0  0  0  0
 10 11  2  0  0  0  0
 10 12  1  0  0  0  0
 12 13  1  0  0  0  0
 12 48  1  0  0  0  0
 13 14  1  0  0  0  0
 13 28  2  0  0  0  0
 14 15  2  0  0  0  0
 14 49  1  0  0  0  0
 15 16  1  0  0  0  0
 15 50  1  0  0  0  0
 16 17  1  0  0  0  0
 16 27  2  0  0  0  0
 17 18  1  0  0  0  0
 18 19  1  0  0  0  0
 18 51  1  0  0  0  0
 18 52  1  0  0  0  0
 19 20  1  0  0  0  0
 19 53  1  0  0  0  0
 19 54  1  0  0  0  0
 20 21  1  0  0  0  0
 20 55  1  0  0  0  0
 20 56  1  0  0  0  0
 21 22  1  0  0  0  0
 21 26  1  0  0  0  0
 22 23  1  0  0  0  0
 22 57  1  0  0  0  0
 22 58  1  0  0  0  0
 23 24  1  0  0  0  0
 23 59  1  0  0  0  0
 23 60  1  0  0  0  0
 24 25  1  0  0  0  0
 25 26  1  0  0  0  0
 25 61  1  0  0  0  0
 25 62  1  0  0  0  0
 26 63  1  0  0  0  0
 26 64  1  0  0  0  0
 27 28  1  0  0  0  0
 27 65  1  0  0  0  0
 28 66  1  0  0  0  0
 29 30  2  0  0  0  0
 29 67  1  0  0  0  0
 30 31  1  0  0  0  0
 30 33  1  0  0  0  0
 31 32  1  0  0  0  0
 32 68  1  0  0  0  0
 32 69  1  0  0  0  0
 32 70  1  0  0  0  0
 33 34  1  0  0  0  0
 34 35  1  0  0  0  0
 35 71  1  0  0  0  0
 35 72  1  0  0  0  0
 35 73  1  0  0  0  0
 36 37  2  0  0  0  0
 36 74  1  0  0  0  0
 37 38  1  0  0  0  0
 37 75  1  0  0  0  0
 38 39  1  0  0  0  0
 39 40  1  0  0  0  0
 39 41  2  0  0  0  0
 40 76  1  0  0  0  0
 40 77  1  0  0  0  0
 40 78  1  0  0  0  0
M  END
$$$$
