CHEMBL256786
 OpenBabel04072215363D

 54 58  0  0  0  0  0  0  0  0999 V2000
    5.0808   -2.2298    6.6108 O   0  0  0  0  0  0  0  0  0  0  0  0
    4.4259   -2.4274    5.5811 C   0  0  0  0  0  0  0  0  0  0  0  0
    3.1700   -3.2600    5.5858 C   0  0  0  0  0  0  0  0  0  0  0  0
    1.8984   -2.4621    5.7412 C   0  0  0  0  0  0  0  0  0  0  0  0
    0.7195   -2.9347    5.1466 C   0  0  0  0  0  0  0  0  0  0  0  0
   -0.4769   -2.2294    5.2792 C   0  0  0  0  0  0  0  0  0  0  0  0
   -0.5128   -1.0497    6.0194 C   0  0  0  0  0  0  0  0  0  0  0  0
    0.6450   -0.5807    6.6337 C   0  0  0  0  0  0  0  0  0  0  0  0
    1.8429   -1.2863    6.5041 C   0  0  0  0  0  0  0  0  0  0  0  0
    4.8789   -1.8252    4.4140 N   0  0  0  0  0  0  0  0  0  0  0  0
    4.4618   -1.6388    3.0933 C   0  0  0  0  0  0  0  0  0  0  0  0
    3.0475   -2.1182    2.3641 S   0  0  0  0  0  0  0  0  0  0  0  0
    5.3359   -0.8755    2.3465 N   0  0  0  0  0  0  0  0  0  0  0  0
    6.7392   -0.8467    2.4384 C   0  0  0  0  0  0  0  0  0  0  0  0
    7.4122    0.2615    1.9244 C   0  0  0  0  0  0  0  0  0  0  0  0
    8.8043    0.3384    2.0189 C   0  0  0  0  0  0  0  0  0  0  0  0
    9.5216   -0.6836    2.6495 C   0  0  0  0  0  0  0  0  0  0  0  0
   10.8821   -0.6812    2.8293 O   0  0  0  0  0  0  0  0  0  0  0  0
   11.5400    0.5004    3.0748 C   0  0  0  0  0  0  0  0  0  0  0  0
   11.0019    1.5641    3.7980 C   0  0  0  0  0  0  0  0  0  0  0  0
   11.7503    2.7153    3.9499 C   0  0  0  0  0  0  0  0  0  0  0  0
   13.0046    2.8887    3.4976 N   0  0  0  0  0  0  0  0  0  0  0  0
   13.5575    1.8192    2.8666 C   0  0  0  0  0  0  0  0  0  0  0  0
   14.8883    1.7701    2.3569 C   0  0  0  0  0  0  0  0  0  0  0  0
   15.2006    0.5645    1.7558 C   0  0  0  0  0  0  0  0  0  0  0  0
   16.4608    0.1448    1.1356 C   0  0  0  0  0  0  0  0  0  0  0  0
   17.6890    0.6253    1.5569 C   0  0  0  0  0  0  0  0  0  0  0  0
   18.8772    0.2836    1.0086 N   0  0  0  0  0  0  0  0  0  0  0  0
   18.8170   -0.5843   -0.0113 C   0  0  0  0  0  0  0  0  0  0  0  0
   17.7008   -1.1244   -0.5175 N   0  0  0  0  0  0  0  0  0  0  0  0
   16.5452   -0.7425    0.0744 C   0  0  0  0  0  0  0  0  0  0  0  0
   13.8618   -0.5061    1.8239 S   0  0  0  0  0  0  0  0  0  0  0  0
   12.8697    0.6314    2.6424 C   0  0  0  0  0  0  0  0  0  0  0  0
    8.8467   -1.8217    3.0824 C   0  0  0  0  0  0  0  0  0  0  0  0
    9.5218   -2.8515    3.6119 F   0  0  0  0  0  0  0  0  0  0  0  0
    7.4657   -1.9116    2.9785 C   0  0  0  0  0  0  0  0  0  0  0  0
    3.2433   -3.9584    6.4290 H   0  0  0  0  0  0  0  0  0  0  0  0
    3.1551   -3.8875    4.6874 H   0  0  0  0  0  0  0  0  0  0  0  0
    0.7292   -3.8507    4.5584 H   0  0  0  0  0  0  0  0  0  0  0  0
   -1.3778   -2.5990    4.7979 H   0  0  0  0  0  0  0  0  0  0  0  0
   -1.4445   -0.4997    6.1198 H   0  0  0  0  0  0  0  0  0  0  0  0
    0.6167    0.3364    7.2173 H   0  0  0  0  0  0  0  0  0  0  0  0
    2.7264   -0.9025    7.0086 H   0  0  0  0  0  0  0  0  0  0  0  0
    5.6875   -1.2673    4.6546 H   0  0  0  0  0  0  0  0  0  0  0  0
    4.9135   -0.3786    1.5671 H   0  0  0  0  0  0  0  0  0  0  0  0
    6.8653    1.0926    1.4856 H   0  0  0  0  0  0  0  0  0  0  0  0
    9.3104    1.2100    1.6134 H   0  0  0  0  0  0  0  0  0  0  0  0
   10.0078    1.5155    4.2302 H   0  0  0  0  0  0  0  0  0  0  0  0
   11.3303    3.5737    4.4671 H   0  0  0  0  0  0  0  0  0  0  0  0
   15.5708    2.6056    2.4339 H   0  0  0  0  0  0  0  0  0  0  0  0
   17.7715    1.3224    2.3872 H   0  0  0  0  0  0  0  0  0  0  0  0
   19.7563   -0.8748   -0.4690 H   0  0  0  0  0  0  0  0  0  0  0  0
   15.6591   -1.1900   -0.3686 H   0  0  0  0  0  0  0  0  0  0  0  0
    6.9924   -2.8349    3.2964 H   0  0  0  0  0  0  0  0  0  0  0  0
  1  2  2  0  0  0  0
  2  3  1  0  0  0  0
  2 10  1  0  0  0  0
  3  4  1  0  0  0  0
  3 37  1  0  0  0  0
  3 38  1  0  0  0  0
  4  5  1  0  0  0  0
  4  9  2  0  0  0  0
  5  6  2  0  0  0  0
  5 39  1  0  0  0  0
  6  7  1  0  0  0  0
  6 40  1  0  0  0  0
  7  8  2  0  0  0  0
  7 41  1  0  0  0  0
  8  9  1  0  0  0  0
  8 42  1  0  0  0  0
  9 43  1  0  0  0  0
 10 11  1  0  0  0  0
 10 44  1  0  0  0  0
 11 12  2  0  0  0  0
 11 13  1  0  0  0  0
 13 14  1  0  0  0  0
 13 45  1  0  0  0  0
 14 15  1  0  0  0  0
 14 36  2  0  0  0  0
 15 16  2  0  0  0  0
 15 46  1  0  0  0  0
 16 17  1  0  0  0  0
 16 47  1  0  0  0  0
 17 18  1  0  0  0  0
 17 34  2  0  0  0  0
 18 19  1  0  0  0  0
 19 20  1  0  0  0  0
 19 33  2  0  0  0  0
 20 21  2  0  0  0  0
 20 48  1  0  0  0  0
 21 22  1  0  0  0  0
 21 49  1  0  0  0  0
 22 23  2  0  0  0  0
 23 24  1  0  0  0  0
 23 33  1  0  0  0  0
 24 25  2  0  0  0  0
 24 50  1  0  0  0  0
 25 26  1  0  0  0  0
 25 32  1  0  0  0  0
 26 27  1  0  0  0  0
 26 31  2  0  0  0  0
 27 28  2  0  0  0  0
 27 51  1  0  0  0  0
 28 29  1  0  0  0  0
 29 30  2  0  0  0  0
 29 52  1  0  0  0  0
 30 31  1  0  0  0  0
 31 53  1  0  0  0  0
 32 33  1  0  0  0  0
 34 35  1  0  0  0  0
 34 36  1  0  0  0  0
 36 54  1  0  0  0  0
M  END
$$$$
