CHEMBL1966411
 OpenBabel04072215363D

 41 43  0  0  0  0  0  0  0  0999 V2000
    0.3290   -1.8194    0.3531 C   0  0  0  0  0  0  0  0  0  0  0  0
    1.5989   -2.1807   -0.4090 C   0  0  0  0  0  0  0  0  0  0  0  0
    2.7825   -2.3608    0.5430 C   0  0  0  0  0  0  0  0  0  0  0  0
    4.0841   -2.7222   -0.1781 C   0  0  0  0  0  0  0  0  0  0  0  0
    5.4204   -2.9326    1.0146 S   0  0  0  0  0  0  0  0  0  0  0  0
    5.6405   -1.6564    1.6629 O   0  0  0  0  0  0  0  0  0  0  0  0
    5.1743   -4.1387    1.7712 O   0  0  0  0  0  0  0  0  0  0  0  0
    6.7695   -3.1412    0.0021 N   0  0  0  0  0  0  0  0  0  0  0  0
    7.5225   -4.3519    0.1640 C   0  0  0  0  0  0  0  0  0  0  0  0
    7.1409   -5.4767   -0.5824 C   0  0  0  0  0  0  0  0  0  0  0  0
    7.8415   -6.6818   -0.4720 C   0  0  0  0  0  0  0  0  0  0  0  0
    8.9162   -6.7463    0.4023 C   0  0  0  0  0  0  0  0  0  0  0  0
    9.2829   -5.6208    1.1695 C   0  0  0  0  0  0  0  0  0  0  0  0
    8.5918   -4.4191    1.0687 C   0  0  0  0  0  0  0  0  0  0  0  0
   10.4633   -6.0303    1.9891 C   0  0  0  0  0  0  0  0  0  0  0  0
   11.1874   -5.3860    2.8458 N   0  0  0  0  0  0  0  0  0  0  0  0
   10.7730   -4.0698    3.0300 O   0  0  0  0  0  0  0  0  0  0  0  0
   10.7447   -7.4470    1.6464 C   0  0  0  0  0  0  0  0  0  0  0  0
   11.7364   -8.2898    2.1219 C   0  0  0  0  0  0  0  0  0  0  0  0
   11.7764   -9.5894    1.6120 C   0  0  0  0  0  0  0  0  0  0  0  0
   10.8382  -10.0113    0.6527 C   0  0  0  0  0  0  0  0  0  0  0  0
    9.8437   -9.1415    0.1867 C   0  0  0  0  0  0  0  0  0  0  0  0
    9.8036   -7.8509    0.6918 C   0  0  0  0  0  0  0  0  0  0  0  0
   -0.5114   -1.6947   -0.3374 H   0  0  0  0  0  0  0  0  0  0  0  0
    0.4541   -0.8818    0.9050 H   0  0  0  0  0  0  0  0  0  0  0  0
    0.0634   -2.6038    1.0696 H   0  0  0  0  0  0  0  0  0  0  0  0
    1.8166   -1.3892   -1.1354 H   0  0  0  0  0  0  0  0  0  0  0  0
    1.4265   -3.1041   -0.9735 H   0  0  0  0  0  0  0  0  0  0  0  0
    2.5421   -3.1419    1.2743 H   0  0  0  0  0  0  0  0  0  0  0  0
    2.9273   -1.4348    1.1132 H   0  0  0  0  0  0  0  0  0  0  0  0
    4.3766   -1.9244   -0.8685 H   0  0  0  0  0  0  0  0  0  0  0  0
    3.9806   -3.6635   -0.7264 H   0  0  0  0  0  0  0  0  0  0  0  0
    7.3447   -2.2979    0.0797 H   0  0  0  0  0  0  0  0  0  0  0  0
    6.2999   -5.4123   -1.2681 H   0  0  0  0  0  0  0  0  0  0  0  0
    7.5448   -7.5407   -1.0644 H   0  0  0  0  0  0  0  0  0  0  0  0
    8.8712   -3.5622    1.6692 H   0  0  0  0  0  0  0  0  0  0  0  0
   11.3866   -3.7559    3.7212 H   0  0  0  0  0  0  0  0  0  0  0  0
   12.4546   -7.9509    2.8604 H   0  0  0  0  0  0  0  0  0  0  0  0
   12.5398  -10.2844    1.9569 H   0  0  0  0  0  0  0  0  0  0  0  0
   10.8865  -11.0277    0.2665 H   0  0  0  0  0  0  0  0  0  0  0  0
    9.1287   -9.4809   -0.5547 H   0  0  0  0  0  0  0  0  0  0  0  0
  1  2  1  0  0  0  0
  1 24  1  0  0  0  0
  1 25  1  0  0  0  0
  1 26  1  0  0  0  0
  2  3  1  0  0  0  0
  2 27  1  0  0  0  0
  2 28  1  0  0  0  0
  3  4  1  0  0  0  0
  3 29  1  0  0  0  0
  3 30  1  0  0  0  0
  4  5  1  0  0  0  0
  4 31  1  0  0  0  0
  4 32  1  0  0  0  0
  5  6  2  0  0  0  0
  5  7  2  0  0  0  0
  5  8  1  0  0  0  0
  8  9  1  0  0  0  0
  8 33  1  0  0  0  0
  9 10  1  0  0  0  0
  9 14  2  0  0  0  0
 10 11  2  0  0  0  0
 10 34  1  0  0  0  0
 11 12  1  0  0  0  0
 11 35  1  0  0  0  0
 12 13  2  0  0  0  0
 12 23  1  0  0  0  0
 13 14  1  0  0  0  0
 13 15  1  0  0  0  0
 14 36  1  0  0  0  0
 15 16  2  3  0  0  0
 15 18  1  0  0  0  0
 16 17  1  0  0  0  0
 17 37  1  0  0  0  0
 18 19  1  0  0  0  0
 18 23  2  0  0  0  0
 19 20  2  0  0  0  0
 19 38  1  0  0  0  0
 20 21  1  0  0  0  0
 20 39  1  0  0  0  0
 21 22  2  0  0  0  0
 21 40  1  0  0  0  0
 22 23  1  0  0  0  0
 22 41  1  0  0  0  0
M  END
$$$$
