CHEMBL3808728
 OpenBabel04072215373D

 53 56  0  0  0  0  0  0  0  0999 V2000
    2.9803    2.3082    8.0262 C   0  0  0  0  0  0  0  0  0  0  0  0
    4.2820    1.5186    8.2477 C   0  0  0  0  0  0  0  0  0  0  0  0
    5.4899    2.3948    7.8743 C   0  0  0  0  0  0  0  0  0  0  0  0
    4.3900    1.1419    9.7355 C   0  0  0  0  0  0  0  0  0  0  0  0
    4.2676    0.3074    7.3623 C   0  0  0  0  0  0  0  0  0  0  0  0
    4.2438    0.1441    5.9975 C   0  0  0  0  0  0  0  0  0  0  0  0
    4.2592   -1.2501    5.8039 C   0  0  0  0  0  0  0  0  0  0  0  0
    4.2710   -1.8442    4.5663 N   0  0  0  0  0  0  0  0  0  0  0  0
    4.3234   -3.1698    4.2598 C   0  0  0  0  0  0  0  0  0  0  0  0
    4.3986   -3.4606    3.0643 O   0  0  0  0  0  0  0  0  0  0  0  0
    4.2738   -4.0530    5.3066 N   0  0  0  0  0  0  0  0  0  0  0  0
    4.3778   -5.4513    5.2305 C   0  0  0  0  0  0  0  0  0  0  0  0
    4.8781   -6.0968    4.1021 C   0  0  0  0  0  0  0  0  0  0  0  0
    4.9303   -7.4861    4.0449 C   0  0  0  0  0  0  0  0  0  0  0  0
    4.4914   -8.2647    5.1207 C   0  0  0  0  0  0  0  0  0  0  0  0
    4.5456   -9.7186    5.0102 C   0  0  0  0  0  0  0  0  0  0  0  0
    5.4822  -10.4970    4.2693 C   0  0  0  0  0  0  0  0  0  0  0  0
    5.0686  -11.7952    4.4212 C   0  0  0  0  0  0  0  0  0  0  0  0
    5.5751  -12.9711    3.9063 N   0  0  0  0  0  0  0  0  0  0  0  0
    4.9977  -14.1843    4.2036 C   0  0  0  0  0  0  0  0  0  0  0  0
    4.0458  -14.3712    4.9466 O   0  0  0  0  0  0  0  0  0  0  0  0
    5.5945  -15.4037    3.5743 C   0  0  0  0  0  0  0  0  0  0  0  0
    6.9895  -15.8337    3.9678 C   0  0  0  0  0  0  0  0  0  0  0  0
    6.6858  -15.4818    2.5408 C   0  0  0  0  0  0  0  0  0  0  0  0
    3.9668  -11.8051    5.2201 O   0  0  0  0  0  0  0  0  0  0  0  0
    3.6438  -10.5144    5.6000 N   0  0  0  0  0  0  0  0  0  0  0  0
    4.0040   -7.6188    6.2655 C   0  0  0  0  0  0  0  0  0  0  0  0
    3.9662   -6.2172    6.3274 C   0  0  0  0  0  0  0  0  0  0  0  0
    4.2636   -1.8953    6.9749 N   0  0  0  0  0  0  0  0  0  0  0  0
    4.2764   -0.9191    7.9494 O   0  0  0  0  0  0  0  0  0  0  0  0
    2.9682    3.2305    8.6162 H   0  0  0  0  0  0  0  0  0  0  0  0
    2.1048    1.7125    8.3125 H   0  0  0  0  0  0  0  0  0  0  0  0
    2.8513    2.5859    6.9730 H   0  0  0  0  0  0  0  0  0  0  0  0
    5.5360    3.2967    8.4945 H   0  0  0  0  0  0  0  0  0  0  0  0
    5.4476    2.7180    6.8265 H   0  0  0  0  0  0  0  0  0  0  0  0
    6.4319    1.8481    8.0059 H   0  0  0  0  0  0  0  0  0  0  0  0
    4.4163    2.0363   10.3679 H   0  0  0  0  0  0  0  0  0  0  0  0
    5.3015    0.5661    9.9379 H   0  0  0  0  0  0  0  0  0  0  0  0
    3.5374    0.5330   10.0590 H   0  0  0  0  0  0  0  0  0  0  0  0
    4.2277    0.9253    5.2530 H   0  0  0  0  0  0  0  0  0  0  0  0
    4.2916   -1.2450    3.7539 H   0  0  0  0  0  0  0  0  0  0  0  0
    4.0305   -3.6513    6.2077 H   0  0  0  0  0  0  0  0  0  0  0  0
    5.2499   -5.5417    3.2474 H   0  0  0  0  0  0  0  0  0  0  0  0
    5.2995   -7.9440    3.1320 H   0  0  0  0  0  0  0  0  0  0  0  0
    6.3250  -10.1395    3.6999 H   0  0  0  0  0  0  0  0  0  0  0  0
    6.3840  -12.9262    3.3073 H   0  0  0  0  0  0  0  0  0  0  0  0
    4.8539  -16.2012    3.5056 H   0  0  0  0  0  0  0  0  0  0  0  0
    7.1156  -16.8765    4.2415 H   0  0  0  0  0  0  0  0  0  0  0  0
    7.6153  -15.1542    4.5352 H   0  0  0  0  0  0  0  0  0  0  0  0
    6.6283  -16.3022    1.8282 H   0  0  0  0  0  0  0  0  0  0  0  0
    7.1303  -14.5893    2.1254 H   0  0  0  0  0  0  0  0  0  0  0  0
    3.6460   -8.1990    7.1155 H   0  0  0  0  0  0  0  0  0  0  0  0
    3.5831   -5.7403    7.2270 H   0  0  0  0  0  0  0  0  0  0  0  0
  1  2  1  0  0  0  0
  1 31  1  0  0  0  0
  1 32  1  0  0  0  0
  1 33  1  0  0  0  0
  2  3  1  0  0  0  0
  2  4  1  0  0  0  0
  2  5  1  0  0  0  0
  3 34  1  0  0  0  0
  3 35  1  0  0  0  0
  3 36  1  0  0  0  0
  4 37  1  0  0  0  0
  4 38  1  0  0  0  0
  4 39  1  0  0  0  0
  5  6  2  0  0  0  0
  5 30  1  0  0  0  0
  6  7  1  0  0  0  0
  6 40  1  0  0  0  0
  7  8  1  0  0  0  0
  7 29  2  0  0  0  0
  8  9  1  0  0  0  0
  8 41  1  0  0  0  0
  9 10  2  0  0  0  0
  9 11  1  0  0  0  0
 11 12  1  0  0  0  0
 11 42  1  0  0  0  0
 12 13  1  0  0  0  0
 12 28  2  0  0  0  0
 13 14  2  0  0  0  0
 13 43  1  0  0  0  0
 14 15  1  0  0  0  0
 14 44  1  0  0  0  0
 15 16  1  0  0  0  0
 15 27  2  0  0  0  0
 16 17  1  0  0  0  0
 16 26  2  0  0  0  0
 17 18  2  0  0  0  0
 17 45  1  0  0  0  0
 18 19  1  0  0  0  0
 18 25  1  0  0  0  0
 19 20  1  0  0  0  0
 19 46  1  0  0  0  0
 20 21  2  0  0  0  0
 20 22  1  0  0  0  0
 22 23  1  0  0  0  0
 22 24  1  0  0  0  0
 22 47  1  0  0  0  0
 23 24  1  0  0  0  0
 23 48  1  0  0  0  0
 23 49  1  0  0  0  0
 24 50  1  0  0  0  0
 24 51  1  0  0  0  0
 25 26  1  0  0  0  0
 27 28  1  0  0  0  0
 27 52  1  0  0  0  0
 28 53  1  0  0  0  0
 29 30  1  0  0  0  0
M  END
$$$$
