CHEMBL2023221
 OpenBabel04072215363D

 52 55  0  0  0  0  0  0  0  0999 V2000
    1.4129   -0.0001   -1.1645 C   0  0  0  0  0  0  0  0  0  0  0  0
    2.5418    0.8886   -1.2279 N   0  0  0  0  0  0  0  0  0  0  0  0
    2.4108    2.1855   -1.6677 C   0  0  0  0  0  0  0  0  0  0  0  0
    1.3291    2.6994   -1.9322 O   0  0  0  0  0  0  0  0  0  0  0  0
    3.6438    2.9856   -1.7725 C   0  0  0  0  0  0  0  0  0  0  0  0
    3.5561    4.3437   -1.5567 C   0  0  0  0  0  0  0  0  0  0  0  0
    4.5992    5.1864   -1.6175 N   0  0  0  0  0  0  0  0  0  0  0  0
    5.8293    4.7243   -1.9191 C   0  0  0  0  0  0  0  0  0  0  0  0
    6.7865    5.7250   -1.9679 N   0  0  0  0  0  0  0  0  0  0  0  0
    6.0487    3.3314   -2.1683 C   0  0  0  0  0  0  0  0  0  0  0  0
    7.2657    2.5530   -2.4833 C   0  0  0  0  0  0  0  0  0  0  0  0
    8.6582    2.9987   -2.5978 C   0  0  0  0  0  0  0  0  0  0  0  0
    9.1502    3.9754   -1.7408 C   0  0  0  0  0  0  0  0  0  0  0  0
   10.4299    4.4953   -1.9127 C   0  0  0  0  0  0  0  0  0  0  0  0
   11.3078    3.9550   -2.8528 C   0  0  0  0  0  0  0  0  0  0  0  0
   12.6280    4.4343   -3.0002 N   0  0  0  0  0  0  0  0  0  0  0  0
   13.2945    5.1657   -2.0345 C   0  0  0  0  0  0  0  0  0  0  0  0
   12.8841    5.3572   -0.8950 O   0  0  0  0  0  0  0  0  0  0  0  0
   14.4828    5.6854   -2.5144 N   0  0  0  0  0  0  0  0  0  0  0  0
   15.3680    6.3863   -1.6603 C   0  0  0  0  0  0  0  0  0  0  0  0
   15.6014    5.9673   -0.3491 C   0  0  0  0  0  0  0  0  0  0  0  0
   16.4487    6.7002    0.4813 C   0  0  0  0  0  0  0  0  0  0  0  0
   17.0538    7.8632    0.0087 C   0  0  0  0  0  0  0  0  0  0  0  0
   16.8241    8.2949   -1.3038 C   0  0  0  0  0  0  0  0  0  0  0  0
   17.4044    9.5887   -1.7949 C   0  0  0  0  0  0  0  0  0  0  0  0
   15.9993    7.5332   -2.1468 C   0  0  0  0  0  0  0  0  0  0  0  0
   10.8537    2.9226   -3.6757 C   0  0  0  0  0  0  0  0  0  0  0  0
    9.5360    2.4570   -3.5546 C   0  0  0  0  0  0  0  0  0  0  0  0
    6.9787    1.2162   -2.6547 C   0  0  0  0  0  0  0  0  0  0  0  0
    5.3386    0.8580   -2.5077 S   0  0  0  0  0  0  0  0  0  0  0  0
    4.9216    2.4848   -2.1032 C   0  0  0  0  0  0  0  0  0  0  0  0
    1.7734   -0.9997   -0.9109 H   0  0  0  0  0  0  0  0  0  0  0  0
    0.9120   -0.0191   -2.1361 H   0  0  0  0  0  0  0  0  0  0  0  0
    0.7180    0.3561   -0.4006 H   0  0  0  0  0  0  0  0  0  0  0  0
    3.4594    0.5263   -0.9991 H   0  0  0  0  0  0  0  0  0  0  0  0
    2.6061    4.8120   -1.3112 H   0  0  0  0  0  0  0  0  0  0  0  0
    6.3362    6.6328   -1.9179 H   0  0  0  0  0  0  0  0  0  0  0  0
    7.4783    5.6214   -2.6975 H   0  0  0  0  0  0  0  0  0  0  0  0
    8.5464    4.3791   -0.9320 H   0  0  0  0  0  0  0  0  0  0  0  0
   10.7038    5.3401   -1.2876 H   0  0  0  0  0  0  0  0  0  0  0  0
   13.2068    4.0090   -3.7137 H   0  0  0  0  0  0  0  0  0  0  0  0
   14.4557    5.9752   -3.4823 H   0  0  0  0  0  0  0  0  0  0  0  0
   15.1234    5.0752    0.0461 H   0  0  0  0  0  0  0  0  0  0  0  0
   16.6153    6.3706    1.5035 H   0  0  0  0  0  0  0  0  0  0  0  0
   17.6908    8.4345    0.6766 H   0  0  0  0  0  0  0  0  0  0  0  0
   18.0695   10.0382   -1.0504 H   0  0  0  0  0  0  0  0  0  0  0  0
   16.6005   10.3034   -2.0019 H   0  0  0  0  0  0  0  0  0  0  0  0
   17.9830    9.4225   -2.7083 H   0  0  0  0  0  0  0  0  0  0  0  0
   15.8034    7.8871   -3.1566 H   0  0  0  0  0  0  0  0  0  0  0  0
   11.5129    2.4597   -4.4052 H   0  0  0  0  0  0  0  0  0  0  0  0
    9.2135    1.6593   -4.2194 H   0  0  0  0  0  0  0  0  0  0  0  0
    7.6693    0.4105   -2.8711 H   0  0  0  0  0  0  0  0  0  0  0  0
  1  2  1  0  0  0  0
  1 32  1  0  0  0  0
  1 33  1  0  0  0  0
  1 34  1  0  0  0  0
  2  3  1  0  0  0  0
  2 35  1  0  0  0  0
  3  4  2  0  0  0  0
  3  5  1  0  0  0  0
  5  6  1  0  0  0  0
  5 31  2  0  0  0  0
  6  7  2  0  0  0  0
  6 36  1  0  0  0  0
  7  8  1  0  0  0  0
  8  9  1  0  0  0  0
  8 10  2  0  0  0  0
  9 37  1  0  0  0  0
  9 38  1  0  0  0  0
 10 11  1  0  0  0  0
 10 31  1  0  0  0  0
 11 12  1  0  0  0  0
 11 29  2  0  0  0  0
 12 13  1  0  0  0  0
 12 28  2  0  0  0  0
 13 14  2  0  0  0  0
 13 39  1  0  0  0  0
 14 15  1  0  0  0  0
 14 40  1  0  0  0  0
 15 16  1  0  0  0  0
 15 27  2  0  0  0  0
 16 17  1  0  0  0  0
 16 41  1  0  0  0  0
 17 18  2  0  0  0  0
 17 19  1  0  0  0  0
 19 20  1  0  0  0  0
 19 42  1  0  0  0  0
 20 21  1  0  0  0  0
 20 26  2  0  0  0  0
 21 22  2  0  0  0  0
 21 43  1  0  0  0  0
 22 23  1  0  0  0  0
 22 44  1  0  0  0  0
 23 24  2  0  0  0  0
 23 45  1  0  0  0  0
 24 25  1  0  0  0  0
 24 26  1  0  0  0  0
 25 46  1  0  0  0  0
 25 47  1  0  0  0  0
 25 48  1  0  0  0  0
 26 49  1  0  0  0  0
 27 28  1  0  0  0  0
 27 50  1  0  0  0  0
 28 51  1  0  0  0  0
 29 30  1  0  0  0  0
 29 52  1  0  0  0  0
 30 31  1  0  0  0  0
M  END
$$$$
