CHEMBL3656025
 OpenBabel04072215373D

 57 60  0  0  0  0  0  0  0  0999 V2000
   -3.7843    8.2557   -2.2265 C   0  0  0  0  0  0  0  0  0  0  0  0
   -2.9270    7.2938   -1.4487 C   0  0  0  0  0  0  0  0  0  0  0  0
   -1.5741    7.5874   -1.2475 C   0  0  0  0  0  0  0  0  0  0  0  0
   -0.7529    6.6680   -0.6092 C   0  0  0  0  0  0  0  0  0  0  0  0
   -1.2850    5.4682   -0.1310 C   0  0  0  0  0  0  0  0  0  0  0  0
   -0.4033    4.5721    0.3315 F   0  0  0  0  0  0  0  0  0  0  0  0
   -2.6574    5.1813   -0.2216 C   0  0  0  0  0  0  0  0  0  0  0  0
   -3.2649    4.0045    0.3147 N   0  0  0  0  0  0  0  0  0  0  0  0
   -2.7404    3.1939    1.3265 C   0  0  0  0  0  0  0  0  0  0  0  0
   -1.7151    3.3979    1.9461 O   0  0  0  0  0  0  0  0  0  0  0  0
   -3.5282    1.9724    1.7069 C   0  0  0  0  0  0  0  0  0  0  0  0
   -2.8235    0.8594    2.2033 C   0  0  0  0  0  0  0  0  0  0  0  0
   -3.4662   -0.3672    2.3822 C   0  0  0  0  0  0  0  0  0  0  0  0
   -4.8316   -0.4646    2.1616 C   0  0  0  0  0  0  0  0  0  0  0  0
   -5.3916   -1.6776    2.2829 F   0  0  0  0  0  0  0  0  0  0  0  0
   -5.5878    0.6757    1.8635 C   0  0  0  0  0  0  0  0  0  0  0  0
   -6.9690    0.7054    1.7728 O   0  0  0  0  0  0  0  0  0  0  0  0
   -7.7183   -0.1390    2.5672 C   0  0  0  0  0  0  0  0  0  0  0  0
   -7.3168   -0.5963    3.8148 C   0  0  0  0  0  0  0  0  0  0  0  0
   -8.1047   -1.5339    4.4585 C   0  0  0  0  0  0  0  0  0  0  0  0
   -9.2800   -1.9918    3.9746 N   0  0  0  0  0  0  0  0  0  0  0  0
   -9.6710   -1.4931    2.7777 C   0  0  0  0  0  0  0  0  0  0  0  0
  -10.9006   -2.0537    2.2310 C   0  0  0  0  0  0  0  0  0  0  0  0
  -11.5547   -1.7838    1.0370 C   0  0  0  0  0  0  0  0  0  0  0  0
  -12.7595   -2.5403    0.9810 C   0  0  0  0  0  0  0  0  0  0  0  0
  -13.7852   -2.5391   -0.0547 C   0  0  0  0  0  0  0  0  0  0  0  0
  -13.7178   -1.8230   -1.0624 O   0  0  0  0  0  0  0  0  0  0  0  0
  -14.8437   -3.3806    0.1735 N   0  0  0  0  0  0  0  0  0  0  0  0
  -15.9432   -3.5030   -0.7503 C   0  0  0  0  0  0  0  0  0  0  0  0
  -16.9619   -4.5120   -0.2432 C   0  0  0  0  0  0  0  0  0  0  0  0
  -16.8547   -5.1297    0.8117 O   0  0  0  0  0  0  0  0  0  0  0  0
  -18.0203   -4.6715   -1.0704 O   0  0  0  0  0  0  0  0  0  0  0  0
  -12.7713   -3.2909    2.1440 C   0  0  0  0  0  0  0  0  0  0  0  0
  -11.6303   -3.0312    2.8608 N   0  0  0  0  0  0  0  0  0  0  0  0
   -8.9406   -0.5519    2.0615 C   0  0  0  0  0  0  0  0  0  0  0  0
   -4.9246    1.8862    1.5896 C   0  0  0  0  0  0  0  0  0  0  0  0
   -3.4619    6.0937   -0.9305 C   0  0  0  0  0  0  0  0  0  0  0  0
   -3.2050    9.1249   -2.5608 H   0  0  0  0  0  0  0  0  0  0  0  0
   -4.6127    8.6239   -1.6141 H   0  0  0  0  0  0  0  0  0  0  0  0
   -4.1793    7.7651   -3.1219 H   0  0  0  0  0  0  0  0  0  0  0  0
   -1.1451    8.5221   -1.6035 H   0  0  0  0  0  0  0  0  0  0  0  0
    0.3068    6.8623   -0.4793 H   0  0  0  0  0  0  0  0  0  0  0  0
   -4.1405    3.7324   -0.1027 H   0  0  0  0  0  0  0  0  0  0  0  0
   -1.7565    0.9170    2.4071 H   0  0  0  0  0  0  0  0  0  0  0  0
   -2.9128   -1.2561    2.6721 H   0  0  0  0  0  0  0  0  0  0  0  0
   -6.3709   -0.2973    4.2520 H   0  0  0  0  0  0  0  0  0  0  0  0
   -7.7714   -1.9789    5.3927 H   0  0  0  0  0  0  0  0  0  0  0  0
  -11.2023   -1.0793    0.2931 H   0  0  0  0  0  0  0  0  0  0  0  0
  -14.8858   -3.9403    1.0188 H   0  0  0  0  0  0  0  0  0  0  0  0
  -15.5464   -3.8370   -1.7133 H   0  0  0  0  0  0  0  0  0  0  0  0
  -16.4185   -2.5223   -0.8505 H   0  0  0  0  0  0  0  0  0  0  0  0
  -17.9871   -4.1208   -1.8765 H   0  0  0  0  0  0  0  0  0  0  0  0
  -13.4961   -3.9951    2.5277 H   0  0  0  0  0  0  0  0  0  0  0  0
  -11.3702   -3.4597    3.7426 H   0  0  0  0  0  0  0  0  0  0  0  0
   -9.2952   -0.1843    1.1067 H   0  0  0  0  0  0  0  0  0  0  0  0
   -5.5103    2.7537    1.3005 H   0  0  0  0  0  0  0  0  0  0  0  0
   -4.5250    5.9006   -1.0565 H   0  0  0  0  0  0  0  0  0  0  0  0
  1  2  1  0  0  0  0
  1 38  1  0  0  0  0
  1 39  1  0  0  0  0
  1 40  1  0  0  0  0
  2  3  1  0  0  0  0
  2 37  2  0  0  0  0
  3  4  2  0  0  0  0
  3 41  1  0  0  0  0
  4  5  1  0  0  0  0
  4 42  1  0  0  0  0
  5  6  1  0  0  0  0
  5  7  2  0  0  0  0
  7  8  1  0  0  0  0
  7 37  1  0  0  0  0
  8  9  1  0  0  0  0
  8 43  1  0  0  0  0
  9 10  2  0  0  0  0
  9 11  1  0  0  0  0
 11 12  1  0  0  0  0
 11 36  2  0  0  0  0
 12 13  2  0  0  0  0
 12 44  1  0  0  0  0
 13 14  1  0  0  0  0
 13 45  1  0  0  0  0
 14 15  1  0  0  0  0
 14 16  2  0  0  0  0
 16 17  1  0  0  0  0
 16 36  1  0  0  0  0
 17 18  1  0  0  0  0
 18 19  1  0  0  0  0
 18 35  2  0  0  0  0
 19 20  2  0  0  0  0
 19 46  1  0  0  0  0
 20 21  1  0  0  0  0
 20 47  1  0  0  0  0
 21 22  2  0  0  0  0
 22 23  1  0  0  0  0
 22 35  1  0  0  0  0
 23 24  2  0  0  0  0
 23 34  1  0  0  0  0
 24 25  1  0  0  0  0
 24 48  1  0  0  0  0
 25 26  1  0  0  0  0
 25 33  2  0  0  0  0
 26 27  2  0  0  0  0
 26 28  1  0  0  0  0
 28 29  1  0  0  0  0
 28 49  1  0  0  0  0
 29 30  1  0  0  0  0
 29 50  1  0  0  0  0
 29 51  1  0  0  0  0
 30 31  2  0  0  0  0
 30 32  1  0  0  0  0
 32 52  1  0  0  0  0
 33 34  1  0  0  0  0
 33 53  1  0  0  0  0
 34 54  1  0  0  0  0
 35 55  1  0  0  0  0
 36 56  1  0  0  0  0
 37 57  1  0  0  0  0
M  END
$$$$
