CHEMBL4520209
 OpenBabel04072215383D

 72 78  0  0  1  0  0  0  0  0999 V2000
    2.6577   -1.0830   -0.4481 C   0  0  0  0  0  0  0  0  0  0  0  0
    2.2177    0.2994   -0.3020 N   0  0  0  0  0  0  0  0  0  0  0  0
    0.7788    0.5438   -0.4040 C   0  0  0  0  0  0  0  0  0  0  0  0
    3.0874    1.3614   -0.5541 C   0  0  0  0  0  0  0  0  0  0  0  0
    4.4084    1.1900   -0.9989 C   0  0  0  0  0  0  0  0  0  0  0  0
    5.2643    2.2812   -1.2706 C   0  0  0  0  0  0  0  0  0  0  0  0
    4.8410    3.6026   -1.0819 C   0  0  0  0  0  0  0  0  0  0  0  0
    5.7918    4.7737   -1.3418 C   0  0  3  0  0  0  0  0  0  0  0  0
    5.2882    5.8063   -2.3610 C   0  0  0  0  0  0  0  0  0  0  0  0
    4.6093    6.7488   -1.4093 C   0  0  0  0  0  0  0  0  0  0  0  0
    3.4564    7.6168   -1.8169 C   0  0  0  0  0  0  0  0  0  0  0  0
    3.3007    8.6877   -1.0058 C   0  0  0  0  0  0  0  0  0  0  0  0
    2.5201    8.2731    0.1861 C   0  0  0  0  0  0  0  0  0  0  0  0
    3.0570    8.4877    1.4572 C   0  0  0  0  0  0  0  0  0  0  0  0
    2.6959    7.6382    2.5028 C   0  0  0  0  0  0  0  0  0  0  0  0
    1.7152    6.6594    2.3124 C   0  0  0  0  0  0  0  0  0  0  0  0
    1.0878    6.5183    1.0764 C   0  0  0  0  0  0  0  0  0  0  0  0
    1.5363    7.2966    0.0142 C   0  0  0  0  0  0  0  0  0  0  0  0
    1.1813    6.8953   -1.2866 O   0  0  0  0  0  0  0  0  0  0  0  0
    2.2016    6.9299   -2.2278 C   0  0  0  0  0  0  0  0  0  0  0  0
    2.0979    6.4203   -3.3359 O   0  0  0  0  0  0  0  0  0  0  0  0
    5.0697    6.6784   -0.1935 N   0  0  0  0  0  0  0  0  0  0  0  0
    5.9458    5.6298   -0.1546 N   0  0  0  0  0  0  0  0  0  0  0  0
    6.5400    5.1681    0.9689 C   0  0  0  0  0  0  0  0  0  0  0  0
    6.0148    5.0888    2.1649 N   0  0  0  0  0  0  0  0  0  0  0  0
    6.9482    4.6504    3.1024 C   0  0  0  0  0  0  0  0  0  0  0  0
    6.5236    4.3238    4.4598 C   0  0  0  0  0  0  0  0  0  0  0  0
    5.2796    3.6975    4.6387 C   0  0  0  0  0  0  0  0  0  0  0  0
    4.8538    3.3006    5.9133 C   0  0  0  0  0  0  0  0  0  0  0  0
    5.6672    3.5387    7.0185 C   0  0  0  0  0  0  0  0  0  0  0  0
    6.8894    4.1888    6.8551 C   0  0  0  0  0  0  0  0  0  0  0  0
    7.3146    4.5833    5.5823 C   0  0  0  0  0  0  0  0  0  0  0  0
    8.2511    4.5315    2.6167 C   0  0  0  0  0  0  0  0  0  0  0  0
    9.4392    4.2493    3.2323 N   0  0  0  0  0  0  0  0  0  0  0  0
   10.3889    4.9337    2.7860 N   0  0  0  0  0  0  0  0  0  0  0  0
   11.6516    4.6071    3.3006 C   0  0  0  0  0  0  0  0  0  0  0  0
   11.9819    3.3675    3.8600 C   0  0  0  0  0  0  0  0  0  0  0  0
   13.2786    3.1203    4.3245 C   0  0  0  0  0  0  0  0  0  0  0  0
   14.2583    4.1081    4.2095 C   0  0  0  0  0  0  0  0  0  0  0  0
   15.8505    3.8021    4.7792 Cl  0  0  0  0  0  0  0  0  0  0  0  0
   13.9532    5.3352    3.6300 C   0  0  0  0  0  0  0  0  0  0  0  0
   12.6560    5.5762    3.1739 C   0  0  0  0  0  0  0  0  0  0  0  0
    8.1897    4.6746    0.8969 S   0  0  0  0  0  0  0  0  0  0  0  0
    3.5440    3.7788   -0.5901 C   0  0  0  0  0  0  0  0  0  0  0  0
    2.6941    2.6893   -0.3418 C   0  0  0  0  0  0  0  0  0  0  0  0
    1.8374   -1.7868   -0.2646 H   0  0  0  0  0  0  0  0  0  0  0  0
    3.4353   -1.3181    0.2871 H   0  0  0  0  0  0  0  0  0  0  0  0
    3.0323   -1.2834   -1.4571 H   0  0  0  0  0  0  0  0  0  0  0  0
    0.2020   -0.3866   -0.3609 H   0  0  0  0  0  0  0  0  0  0  0  0
    0.5290    1.0340   -1.3519 H   0  0  0  0  0  0  0  0  0  0  0  0
    0.4270    1.1607    0.4298 H   0  0  0  0  0  0  0  0  0  0  0  0
    4.8106    0.1934   -1.1569 H   0  0  0  0  0  0  0  0  0  0  0  0
    6.2729    2.0684   -1.6159 H   0  0  0  0  0  0  0  0  0  0  0  0
    6.7605    4.3911   -1.6844 H   0  0  0  0  0  0  0  0  0  0  0  0
    4.6538    5.4202   -3.1590 H   0  0  0  0  0  0  0  0  0  0  0  0
    6.1320    6.3630   -2.7810 H   0  0  0  0  0  0  0  0  0  0  0  0
    4.1787    9.2679   -0.7256 H   0  0  0  0  0  0  0  0  0  0  0  0
    3.8984    9.1648    1.5992 H   0  0  0  0  0  0  0  0  0  0  0  0
    3.2490    7.6798    3.4370 H   0  0  0  0  0  0  0  0  0  0  0  0
    1.5007    5.9580    3.1158 H   0  0  0  0  0  0  0  0  0  0  0  0
    0.3660    5.7237    0.9152 H   0  0  0  0  0  0  0  0  0  0  0  0
    4.6353    3.4992    3.7840 H   0  0  0  0  0  0  0  0  0  0  0  0
    3.8961    2.8041    6.0348 H   0  0  0  0  0  0  0  0  0  0  0  0
    5.3454    3.2224    8.0074 H   0  0  0  0  0  0  0  0  0  0  0  0
    7.5172    4.3872    7.7205 H   0  0  0  0  0  0  0  0  0  0  0  0
    8.2661    5.1001    5.4871 H   0  0  0  0  0  0  0  0  0  0  0  0
   11.2377    2.5810    3.9324 H   0  0  0  0  0  0  0  0  0  0  0  0
   13.5194    2.1528    4.7602 H   0  0  0  0  0  0  0  0  0  0  0  0
   14.7142    6.1008    3.5222 H   0  0  0  0  0  0  0  0  0  0  0  0
   12.4209    6.5309    2.7065 H   0  0  0  0  0  0  0  0  0  0  0  0
    3.1698    4.7650   -0.3398 H   0  0  0  0  0  0  0  0  0  0  0  0
    1.7120    2.9181    0.0626 H   0  0  0  0  0  0  0  0  0  0  0  0
  1  2  1  0  0  0  0
  1 46  1  0  0  0  0
  1 47  1  0  0  0  0
  1 48  1  0  0  0  0
  2  3  1  0  0  0  0
  2  4  1  0  0  0  0
  3 49  1  0  0  0  0
  3 50  1  0  0  0  0
  3 51  1  0  0  0  0
  4  5  1  0  0  0  0
  4 45  2  0  0  0  0
  5  6  2  0  0  0  0
  5 52  1  0  0  0  0
  6  7  1  0  0  0  0
  6 53  1  0  0  0  0
  7  8  1  0  0  0  0
  7 44  2  0  0  0  0
  8  9  1  0  0  0  0
  8 23  1  0  0  0  0
  8 54  1  0  0  0  0
  9 10  1  0  0  0  0
  9 55  1  0  0  0  0
  9 56  1  0  0  0  0
 10 11  1  0  0  0  0
 10 22  2  0  0  0  0
 11 12  2  0  0  0  0
 11 20  1  0  0  0  0
 12 13  1  0  0  0  0
 12 57  1  0  0  0  0
 13 14  1  0  0  0  0
 13 18  2  0  0  0  0
 14 15  2  0  0  0  0
 14 58  1  0  0  0  0
 15 16  1  0  0  0  0
 15 59  1  0  0  0  0
 16 17  2  0  0  0  0
 16 60  1  0  0  0  0
 17 18  1  0  0  0  0
 17 61  1  0  0  0  0
 18 19  1  0  0  0  0
 19 20  1  0  0  0  0
 20 21  2  0  0  0  0
 22 23  1  0  0  0  0
 23 24  1  0  0  0  0
 24 25  2  0  0  0  0
 24 43  1  0  0  0  0
 25 26  1  0  0  0  0
 26 27  1  0  0  0  0
 26 33  2  0  0  0  0
 27 28  1  0  0  0  0
 27 32  2  0  0  0  0
 28 29  2  0  0  0  0
 28 62  1  0  0  0  0
 29 30  1  0  0  0  0
 29 63  1  0  0  0  0
 30 31  2  0  0  0  0
 30 64  1  0  0  0  0
 31 32  1  0  0  0  0
 31 65  1  0  0  0  0
 32 66  1  0  0  0  0
 33 34  1  0  0  0  0
 33 43  1  0  0  0  0
 34 35  2  0  0  0  0
 35 36  1  0  0  0  0
 36 37  1  0  0  0  0
 36 42  2  0  0  0  0
 37 38  2  0  0  0  0
 37 67  1  0  0  0  0
 38 39  1  0  0  0  0
 38 68  1  0  0  0  0
 39 40  1  0  0  0  0
 39 41  2  0  0  0  0
 41 42  1  0  0  0  0
 41 69  1  0  0  0  0
 42 70  1  0  0  0  0
 44 45  1  0  0  0  0
 44 71  1  0  0  0  0
 45 72  1  0  0  0  0
M  END
$$$$
