CHEMBL577742
 OpenBabel04072215383D

 62 66  0  0  0  0  0  0  0  0999 V2000
   11.7859    2.7743    6.8698 C   0  0  0  0  0  0  0  0  0  0  0  0
   11.7498    1.2689    7.0085 C   0  0  0  0  0  0  0  0  0  0  0  0
   10.5779    0.7452    6.3586 N   0  0  0  0  0  0  0  0  0  0  0  0
   10.4750    0.3495    5.0576 C   0  0  0  0  0  0  0  0  0  0  0  0
    9.3361   -0.2584    4.8339 N   0  0  0  0  0  0  0  0  0  0  0  0
    8.6862   -0.1688    6.0258 C   0  0  0  0  0  0  0  0  0  0  0  0
    7.3420   -0.6210    6.2565 C   0  0  0  0  0  0  0  0  0  0  0  0
    6.6756   -1.1688    5.2223 C   0  0  0  0  0  0  0  0  0  0  0  0
    5.5256   -1.5369    5.7745 C   0  0  0  0  0  0  0  0  0  0  0  0
    4.6047   -2.1977    5.2617 N   0  0  0  0  0  0  0  0  0  0  0  0
    3.7612   -2.8077    4.7356 C   0  0  0  0  0  0  0  0  0  0  0  0
    3.2847   -2.5921    6.0849 C   0  0  0  0  0  0  0  0  0  0  0  0
    3.9077   -1.6809    7.4848 C   0  0  0  0  0  0  0  0  0  0  0  0
    3.8877   -1.0381    8.7161 O   0  0  0  0  0  0  0  0  0  0  0  0
    3.2116   -0.6002    9.8596 C   0  0  0  0  0  0  0  0  0  0  0  0
    1.8357   -0.7348   10.2939 C   0  0  0  0  0  0  0  0  0  0  0  0
    1.4578   -0.7644   11.7185 C   0  0  0  0  0  0  0  0  0  0  0  0
    2.3222   -0.2571   12.6871 C   0  0  0  0  0  0  0  0  0  0  0  0
    2.0406   -0.2177   14.1258 N   0  0  0  0  0  0  0  0  0  0  0  0
    0.8471   -0.7034   14.6781 C   0  0  0  0  0  0  0  0  0  0  0  0
   -0.0287   -1.1851   13.9576 O   0  0  0  0  0  0  0  0  0  0  0  0
    0.5809   -0.6679   16.2022 C   0  0  0  0  0  0  0  0  0  0  0  0
    1.7710   -0.0530   16.9819 C   0  0  0  0  0  0  0  0  0  0  0  0
    2.9359   -0.1447   16.5790 O   0  0  0  0  0  0  0  0  0  0  0  0
    1.5329    0.6379   18.1694 N   0  0  0  0  0  0  0  0  0  0  0  0
    2.6405    1.2108   18.8827 C   0  0  0  0  0  0  0  0  0  0  0  0
    3.4454    2.1772   18.2648 C   0  0  0  0  0  0  0  0  0  0  0  0
    4.2481    3.0155   19.0528 C   0  0  0  0  0  0  0  0  0  0  0  0
    4.5990    2.6341   20.3402 C   0  0  0  0  0  0  0  0  0  0  0  0
    3.9663    1.5352   20.9019 C   0  0  0  0  0  0  0  0  0  0  0  0
    2.9002    0.8978   20.2290 C   0  0  0  0  0  0  0  0  0  0  0  0
    2.1086   -0.1278   20.9978 C   0  0  0  0  0  0  0  0  0  0  0  0
    1.1324   -0.6808   20.2254 F   0  0  0  0  0  0  0  0  0  0  0  0
    2.8803   -1.1657   21.4208 F   0  0  0  0  0  0  0  0  0  0  0  0
    1.4233    0.3290   22.0881 F   0  0  0  0  0  0  0  0  0  0  0  0
    3.5156    0.2441   12.1430 C   0  0  0  0  0  0  0  0  0  0  0  0
    3.9611    0.0648   10.8066 C   0  0  0  0  0  0  0  0  0  0  0  0
    5.1630    0.5551   10.4895 F   0  0  0  0  0  0  0  0  0  0  0  0
    5.1519   -1.3015    7.0506 C   0  0  0  0  0  0  0  0  0  0  0  0
    6.5075   -0.5496    7.7487 S   0  0  0  0  0  0  0  0  0  0  0  0
    9.4140    0.4684    6.9872 C   0  0  0  0  0  0  0  0  0  0  0  0
   12.6707    3.1787    7.3640 H   0  0  0  0  0  0  0  0  0  0  0  0
   10.8941    3.2254    7.3172 H   0  0  0  0  0  0  0  0  0  0  0  0
   11.8090    3.0702    5.8137 H   0  0  0  0  0  0  0  0  0  0  0  0
   11.7187    0.9517    8.0565 H   0  0  0  0  0  0  0  0  0  0  0  0
   12.6299    0.8190    6.5376 H   0  0  0  0  0  0  0  0  0  0  0  0
   11.2526    0.4983    4.3238 H   0  0  0  0  0  0  0  0  0  0  0  0
    6.9270   -1.4084    4.1984 H   0  0  0  0  0  0  0  0  0  0  0  0
    4.3790   -2.7766    3.7925 H   0  0  0  0  0  0  0  0  0  0  0  0
    2.3492   -3.1261    5.9775 H   0  0  0  0  0  0  0  0  0  0  0  0
    0.9431   -0.6650    9.6367 H   0  0  0  0  0  0  0  0  0  0  0  0
    0.5251   -1.2600   12.0258 H   0  0  0  0  0  0  0  0  0  0  0  0
    2.7572    0.1556   14.7552 H   0  0  0  0  0  0  0  0  0  0  0  0
    0.4357   -1.6934   16.5709 H   0  0  0  0  0  0  0  0  0  0  0  0
   -0.3320   -0.0810   16.3842 H   0  0  0  0  0  0  0  0  0  0  0  0
    0.6508    0.5273   18.6609 H   0  0  0  0  0  0  0  0  0  0  0  0
    3.4081    2.3565   17.1951 H   0  0  0  0  0  0  0  0  0  0  0  0
    4.5852    3.9787   18.6734 H   0  0  0  0  0  0  0  0  0  0  0  0
    5.3525    3.1823   20.9024 H   0  0  0  0  0  0  0  0  0  0  0  0
    4.2565    1.2064   21.8992 H   0  0  0  0  0  0  0  0  0  0  0  0
    4.2573    0.7325   12.7457 H   0  0  0  0  0  0  0  0  0  0  0  0
    9.2043    0.6789    8.0291 H   0  0  0  0  0  0  0  0  0  0  0  0
  1  2  1  0  0  0  0
  1 42  1  0  0  0  0
  1 43  1  0  0  0  0
  1 44  1  0  0  0  0
  2  3  1  0  0  0  0
  2 45  1  0  0  0  0
  2 46  1  0  0  0  0
  3  4  1  0  0  0  0
  3 41  1  0  0  0  0
  4  5  2  0  0  0  0
  4 47  1  0  0  0  0
  5  6  1  0  0  0  0
  6  7  1  0  0  0  0
  6 41  2  0  0  0  0
  7  8  2  0  0  0  0
  7 40  1  0  0  0  0
  8  9  1  0  0  0  0
  8 48  1  0  0  0  0
  9 10  1  0  0  0  0
  9 39  2  0  0  0  0
 10 11  2  0  0  0  0
 11 12  1  0  0  0  0
 11 49  1  0  0  0  0
 12 13  2  0  0  0  0
 12 50  1  0  0  0  0
 13 14  1  0  0  0  0
 13 39  1  0  0  0  0
 14 15  1  0  0  0  0
 15 16  1  0  0  0  0
 15 37  2  0  0  0  0
 16 17  2  0  0  0  0
 16 51  1  0  0  0  0
 17 18  1  0  0  0  0
 17 52  1  0  0  0  0
 18 19  1  0  0  0  0
 18 36  2  0  0  0  0
 19 20  1  0  0  0  0
 19 53  1  0  0  0  0
 20 21  2  0  0  0  0
 20 22  1  0  0  0  0
 22 23  1  0  0  0  0
 22 54  1  0  0  0  0
 22 55  1  0  0  0  0
 23 24  2  0  0  0  0
 23 25  1  0  0  0  0
 25 26  1  0  0  0  0
 25 56  1  0  0  0  0
 26 27  1  0  0  0  0
 26 31  2  0  0  0  0
 27 28  2  0  0  0  0
 27 57  1  0  0  0  0
 28 29  1  0  0  0  0
 28 58  1  0  0  0  0
 29 30  2  0  0  0  0
 29 59  1  0  0  0  0
 30 31  1  0  0  0  0
 30 60  1  0  0  0  0
 31 32  1  0  0  0  0
 32 33  1  0  0  0  0
 32 34  1  0  0  0  0
 32 35  1  0  0  0  0
 36 37  1  0  0  0  0
 36 61  1  0  0  0  0
 37 38  1  0  0  0  0
 39 40  1  0  0  0  0
 41 62  1  0  0  0  0
M  END
$$$$
