CHEMBL240643
 OpenBabel04072215363D

 49 51  0  0  0  0  0  0  0  0999 V2000
    6.3437   -2.6547   -8.2364 C   0  0  0  0  0  0  0  0  0  0  0  0
    5.8647   -1.3905   -8.9579 C   0  0  0  0  0  0  0  0  0  0  0  0
    4.9671   -1.7547  -10.1414 C   0  0  0  0  0  0  0  0  0  0  0  0
    5.2548   -0.4516   -7.9300 C   0  0  0  0  0  0  0  0  0  0  0  0
    6.0768    0.5302   -7.3491 C   0  0  0  0  0  0  0  0  0  0  0  0
    5.5659    1.4401   -6.4240 C   0  0  0  0  0  0  0  0  0  0  0  0
    4.2271    1.3639   -6.0463 C   0  0  0  0  0  0  0  0  0  0  0  0
    3.6238    2.3891   -5.3080 N   0  0  0  0  0  0  0  0  0  0  0  0
    3.7763    3.7576   -5.4474 C   0  0  0  0  0  0  0  0  0  0  0  0
    3.3969    4.4608   -4.5083 O   0  0  0  0  0  0  0  0  0  0  0  0
    4.2717    4.3336   -6.6885 C   0  0  0  0  0  0  0  0  0  0  0  0
    4.9642    5.5342   -6.8580 C   0  0  0  0  0  0  0  0  0  0  0  0
    5.3811    6.3931   -5.9023 N   0  0  0  0  0  0  0  0  0  0  0  0
    5.4964    7.8290   -6.1685 C   0  0  0  0  0  0  0  0  0  0  0  0
    4.6347    8.6612   -5.2451 C   0  0  0  0  0  0  0  0  0  0  0  0
    4.9858    9.9923   -4.9863 C   0  0  0  0  0  0  0  0  0  0  0  0
    4.1774   10.7501   -4.1516 C   0  0  0  0  0  0  0  0  0  0  0  0
    3.0497   10.2865   -3.5757 N   0  0  0  0  0  0  0  0  0  0  0  0
    2.7070    9.0126   -3.8621 C   0  0  0  0  0  0  0  0  0  0  0  0
    3.4446    8.1808   -4.6894 C   0  0  0  0  0  0  0  0  0  0  0  0
    5.1694    5.6636   -8.2507 C   0  0  0  0  0  0  0  0  0  0  0  0
    4.6195    4.6746   -8.9362 N   0  0  0  0  0  0  0  0  0  0  0  0
    4.0274    3.9145   -7.9975 N   0  0  0  0  0  0  0  0  0  0  0  0
    3.2328    2.8232   -8.4936 C   0  0  0  0  0  0  0  0  0  0  0  0
    3.4249    0.3188   -6.5167 C   0  0  0  0  0  0  0  0  0  0  0  0
    3.9246   -0.5544   -7.4931 C   0  0  0  0  0  0  0  0  0  0  0  0
    6.8503   -3.3298   -8.9305 H   0  0  0  0  0  0  0  0  0  0  0  0
    5.5054   -3.1909   -7.7809 H   0  0  0  0  0  0  0  0  0  0  0  0
    7.0499   -2.3987   -7.4382 H   0  0  0  0  0  0  0  0  0  0  0  0
    6.7437   -0.8931   -9.3894 H   0  0  0  0  0  0  0  0  0  0  0  0
    4.0756   -2.3125   -9.8382 H   0  0  0  0  0  0  0  0  0  0  0  0
    5.5175   -2.3842  -10.8523 H   0  0  0  0  0  0  0  0  0  0  0  0
    4.6404   -0.8587  -10.6837 H   0  0  0  0  0  0  0  0  0  0  0  0
    7.1219    0.6154   -7.6426 H   0  0  0  0  0  0  0  0  0  0  0  0
    6.2176    2.2123   -6.0231 H   0  0  0  0  0  0  0  0  0  0  0  0
    2.9451    2.1283   -4.5983 H   0  0  0  0  0  0  0  0  0  0  0  0
    5.2330    6.1684   -4.9215 H   0  0  0  0  0  0  0  0  0  0  0  0
    5.2169    8.0905   -7.1948 H   0  0  0  0  0  0  0  0  0  0  0  0
    6.5473    8.1111   -6.0358 H   0  0  0  0  0  0  0  0  0  0  0  0
    5.8716   10.4403   -5.4256 H   0  0  0  0  0  0  0  0  0  0  0  0
    4.4231   11.7828   -3.9201 H   0  0  0  0  0  0  0  0  0  0  0  0
    1.7909    8.6613   -3.3954 H   0  0  0  0  0  0  0  0  0  0  0  0
    3.0891    7.1740   -4.8870 H   0  0  0  0  0  0  0  0  0  0  0  0
    5.6897    6.4439   -8.7812 H   0  0  0  0  0  0  0  0  0  0  0  0
    2.8753    3.0588   -9.4993 H   0  0  0  0  0  0  0  0  0  0  0  0
    2.3839    2.6436   -7.8393 H   0  0  0  0  0  0  0  0  0  0  0  0
    3.8905    1.9644   -8.5994 H   0  0  0  0  0  0  0  0  0  0  0  0
    2.3714    0.2658   -6.2529 H   0  0  0  0  0  0  0  0  0  0  0  0
    3.2495   -1.2813   -7.9383 H   0  0  0  0  0  0  0  0  0  0  0  0
  1  2  1  0  0  0  0
  1 27  1  0  0  0  0
  1 28  1  0  0  0  0
  1 29  1  0  0  0  0
  2  3  1  0  0  0  0
  2  4  1  0  0  0  0
  2 30  1  0  0  0  0
  3 31  1  0  0  0  0
  3 32  1  0  0  0  0
  3 33  1  0  0  0  0
  4  5  1  0  0  0  0
  4 26  2  0  0  0  0
  5  6  2  0  0  0  0
  5 34  1  0  0  0  0
  6  7  1  0  0  0  0
  6 35  1  0  0  0  0
  7  8  1  0  0  0  0
  7 25  2  0  0  0  0
  8  9  1  0  0  0  0
  8 36  1  0  0  0  0
  9 10  2  0  0  0  0
  9 11  1  0  0  0  0
 11 12  2  0  0  0  0
 11 23  1  0  0  0  0
 12 13  1  0  0  0  0
 12 21  1  0  0  0  0
 13 14  1  0  0  0  0
 13 37  1  0  0  0  0
 14 15  1  0  0  0  0
 14 38  1  0  0  0  0
 14 39  1  0  0  0  0
 15 16  1  0  0  0  0
 15 20  2  0  0  0  0
 16 17  2  0  0  0  0
 16 40  1  0  0  0  0
 17 18  1  0  0  0  0
 17 41  1  0  0  0  0
 18 19  2  0  0  0  0
 19 20  1  0  0  0  0
 19 42  1  0  0  0  0
 20 43  1  0  0  0  0
 21 22  2  0  0  0  0
 21 44  1  0  0  0  0
 22 23  1  0  0  0  0
 23 24  1  0  0  0  0
 24 45  1  0  0  0  0
 24 46  1  0  0  0  0
 24 47  1  0  0  0  0
 25 26  1  0  0  0  0
 25 48  1  0  0  0  0
 26 49  1  0  0  0  0
M  END
$$$$
