CHEMBL179422
 OpenBabel04072215363D

 52 55  0  0  0  0  0  0  0  0999 V2000
    5.3648    0.6017   -2.0048 C   0  0  0  0  0  0  0  0  0  0  0  0
    4.2307   -0.0789   -1.4643 O   0  0  0  0  0  0  0  0  0  0  0  0
    4.5013   -1.0966   -0.5913 C   0  0  0  0  0  0  0  0  0  0  0  0
    5.6735   -1.1286    0.1806 C   0  0  0  0  0  0  0  0  0  0  0  0
    6.0434   -2.2259    0.9544 C   0  0  0  0  0  0  0  0  0  0  0  0
    7.2440   -2.1900    1.5500 N   0  0  0  0  0  0  0  0  0  0  0  0
    7.6536   -3.2878    2.2149 C   0  0  0  0  0  0  0  0  0  0  0  0
    6.9121   -4.4520    2.3005 C   0  0  0  0  0  0  0  0  0  0  0  0
    5.6578   -4.4821    1.6902 C   0  0  0  0  0  0  0  0  0  0  0  0
    5.0226   -5.7098    1.8189 O   0  0  0  0  0  0  0  0  0  0  0  0
    4.1985   -6.1925    0.8285 C   0  0  0  0  0  0  0  0  0  0  0  0
    4.3963   -5.9800   -0.5315 C   0  0  0  0  0  0  0  0  0  0  0  0
    3.3670   -6.2726   -1.4336 C   0  0  0  0  0  0  0  0  0  0  0  0
    2.1742   -6.8699   -1.0113 C   0  0  0  0  0  0  0  0  0  0  0  0
    1.0589   -7.0718   -1.8607 N   0  0  0  0  0  0  0  0  0  0  0  0
    0.9871   -6.7300   -3.1978 C   0  0  0  0  0  0  0  0  0  0  0  0
    1.9251   -6.3061   -3.8680 O   0  0  0  0  0  0  0  0  0  0  0  0
   -0.2918   -6.8747   -3.7219 N   0  0  0  0  0  0  0  0  0  0  0  0
   -0.5196   -6.5519   -5.0923 C   0  0  0  0  0  0  0  0  0  0  0  0
    0.3527   -7.0224   -6.0840 C   0  0  0  0  0  0  0  0  0  0  0  0
    0.2030   -6.6189   -7.4117 C   0  0  0  0  0  0  0  0  0  0  0  0
   -0.8226   -5.7424   -7.7534 C   0  0  0  0  0  0  0  0  0  0  0  0
   -0.9708   -5.2011   -9.3799 Cl  0  0  0  0  0  0  0  0  0  0  0  0
   -1.7213   -5.2920   -6.7872 C   0  0  0  0  0  0  0  0  0  0  0  0
   -1.5801   -5.7121   -5.4612 C   0  0  0  0  0  0  0  0  0  0  0  0
   -2.6801   -5.0965   -4.2789 Cl  0  0  0  0  0  0  0  0  0  0  0  0
    2.0607   -7.2387    0.3334 C   0  0  0  0  0  0  0  0  0  0  0  0
    3.0686   -6.8988    1.2488 C   0  0  0  0  0  0  0  0  0  0  0  0
    5.1663   -3.3181    1.0401 C   0  0  0  0  0  0  0  0  0  0  0  0
    3.8897   -3.1668    0.4514 C   0  0  0  0  0  0  0  0  0  0  0  0
    3.5789   -2.1262   -0.4264 C   0  0  0  0  0  0  0  0  0  0  0  0
    2.3645   -2.3269   -1.0209 O   0  0  0  0  0  0  0  0  0  0  0  0
    2.0119   -1.5917   -2.1798 C   0  0  0  0  0  0  0  0  0  0  0  0
    5.1201    0.9168   -3.0233 H   0  0  0  0  0  0  0  0  0  0  0  0
    6.2600   -0.0283   -2.0771 H   0  0  0  0  0  0  0  0  0  0  0  0
    5.5749    1.4952   -1.4088 H   0  0  0  0  0  0  0  0  0  0  0  0
    6.3655   -0.2863    0.1634 H   0  0  0  0  0  0  0  0  0  0  0  0
    8.6305   -3.2120    2.6812 H   0  0  0  0  0  0  0  0  0  0  0  0
    7.3042   -5.3156    2.8241 H   0  0  0  0  0  0  0  0  0  0  0  0
    5.2859   -5.4797   -0.9032 H   0  0  0  0  0  0  0  0  0  0  0  0
    3.5253   -5.9610   -2.4603 H   0  0  0  0  0  0  0  0  0  0  0  0
    0.2448   -7.5201   -1.4697 H   0  0  0  0  0  0  0  0  0  0  0  0
   -1.0349   -6.5978   -3.0908 H   0  0  0  0  0  0  0  0  0  0  0  0
    1.1728   -7.6912   -5.8277 H   0  0  0  0  0  0  0  0  0  0  0  0
    0.9066   -6.9722   -8.1619 H   0  0  0  0  0  0  0  0  0  0  0  0
   -2.5101   -4.5975   -7.0628 H   0  0  0  0  0  0  0  0  0  0  0  0
    1.1739   -7.7469    0.7026 H   0  0  0  0  0  0  0  0  0  0  0  0
    2.9437   -7.1372    2.3022 H   0  0  0  0  0  0  0  0  0  0  0  0
    3.1260   -3.9261    0.6022 H   0  0  0  0  0  0  0  0  0  0  0  0
    1.2340   -2.1635   -2.6998 H   0  0  0  0  0  0  0  0  0  0  0  0
    2.8368   -1.4711   -2.8876 H   0  0  0  0  0  0  0  0  0  0  0  0
    1.5777   -0.6320   -1.8890 H   0  0  0  0  0  0  0  0  0  0  0  0
  1  2  1  0  0  0  0
  1 34  1  0  0  0  0
  1 35  1  0  0  0  0
  1 36  1  0  0  0  0
  2  3  1  0  0  0  0
  3  4  1  0  0  0  0
  3 31  2  0  0  0  0
  4  5  2  0  0  0  0
  4 37  1  0  0  0  0
  5  6  1  0  0  0  0
  5 29  1  0  0  0  0
  6  7  2  0  0  0  0
  7  8  1  0  0  0  0
  7 38  1  0  0  0  0
  8  9  2  0  0  0  0
  8 39  1  0  0  0  0
  9 10  1  0  0  0  0
  9 29  1  0  0  0  0
 10 11  1  0  0  0  0
 11 12  1  0  0  0  0
 11 28  2  0  0  0  0
 12 13  2  0  0  0  0
 12 40  1  0  0  0  0
 13 14  1  0  0  0  0
 13 41  1  0  0  0  0
 14 15  1  0  0  0  0
 14 27  2  0  0  0  0
 15 16  1  0  0  0  0
 15 42  1  0  0  0  0
 16 17  2  0  0  0  0
 16 18  1  0  0  0  0
 18 19  1  0  0  0  0
 18 43  1  0  0  0  0
 19 20  1  0  0  0  0
 19 25  2  0  0  0  0
 20 21  2  0  0  0  0
 20 44  1  0  0  0  0
 21 22  1  0  0  0  0
 21 45  1  0  0  0  0
 22 23  1  0  0  0  0
 22 24  2  0  0  0  0
 24 25  1  0  0  0  0
 24 46  1  0  0  0  0
 25 26  1  0  0  0  0
 27 28  1  0  0  0  0
 27 47  1  0  0  0  0
 28 48  1  0  0  0  0
 29 30  2  0  0  0  0
 30 31  1  0  0  0  0
 30 49  1  0  0  0  0
 31 32  1  0  0  0  0
 32 33  1  0  0  0  0
 33 50  1  0  0  0  0
 33 51  1  0  0  0  0
 33 52  1  0  0  0  0
M  END
$$$$
