CHEMBL3612228
 OpenBabel04072215363D

 45 48  0  0  0  0  0  0  0  0999 V2000
    0.4392   -1.4637   -0.6208 C   0  0  0  0  0  0  0  0  0  0  0  0
    1.7968   -1.8987   -0.6589 O   0  0  0  0  0  0  0  0  0  0  0  0
    2.5137   -1.5305   -1.7651 C   0  0  0  0  0  0  0  0  0  0  0  0
    2.0159   -0.7713   -2.8195 C   0  0  0  0  0  0  0  0  0  0  0  0
    2.8311   -0.4525   -3.9006 C   0  0  0  0  0  0  0  0  0  0  0  0
    4.1574   -0.8759   -3.9750 C   0  0  0  0  0  0  0  0  0  0  0  0
    4.9973   -0.5882   -5.0864 N   0  0  0  0  0  0  0  0  0  0  0  0
    4.6268    0.1699   -6.1881 C   0  0  0  0  0  0  0  0  0  0  0  0
    3.5491    0.7473   -6.3182 O   0  0  0  0  0  0  0  0  0  0  0  0
    5.5903    0.1796   -7.1940 N   0  0  0  0  0  0  0  0  0  0  0  0
    5.2885    0.8815   -8.3923 C   0  0  0  0  0  0  0  0  0  0  0  0
    4.8422    2.2088   -8.3470 C   0  0  0  0  0  0  0  0  0  0  0  0
    4.3944    2.8431   -9.5042 C   0  0  0  0  0  0  0  0  0  0  0  0
    4.3958    2.1542  -10.7155 C   0  0  0  0  0  0  0  0  0  0  0  0
    4.8780    0.8402  -10.7791 C   0  0  0  0  0  0  0  0  0  0  0  0
    4.9390   -0.0110  -12.3407 S   0  0  0  0  0  0  0  0  0  0  0  0
    3.3836   -0.8648  -12.5030 C   0  0  0  0  0  0  0  0  0  0  0  0
    2.3668   -0.8480  -11.5453 C   0  0  0  0  0  0  0  0  0  0  0  0
    1.1964   -1.5496  -11.7817 C   0  0  0  0  0  0  0  0  0  0  0  0
    0.9290   -2.2672  -12.8831 N   0  0  0  0  0  0  0  0  0  0  0  0
    1.9091   -2.2895  -13.8244 C   0  0  0  0  0  0  0  0  0  0  0  0
    1.8078   -2.9833  -15.0670 C   0  0  0  0  0  0  0  0  0  0  0  0
    2.9373   -2.8502  -15.8374 C   0  0  0  0  0  0  0  0  0  0  0  0
    4.1226   -1.8959  -15.0683 S   0  0  0  0  0  0  0  0  0  0  0  0
    3.1290   -1.6210  -13.6743 C   0  0  0  0  0  0  0  0  0  0  0  0
    5.3520    0.2146   -9.6167 C   0  0  0  0  0  0  0  0  0  0  0  0
    4.6633   -1.6331   -2.9163 C   0  0  0  0  0  0  0  0  0  0  0  0
    3.8431   -1.9579   -1.8186 C   0  0  0  0  0  0  0  0  0  0  0  0
    0.0029   -1.7800    0.3301 H   0  0  0  0  0  0  0  0  0  0  0  0
   -0.1439   -1.9260   -1.4268 H   0  0  0  0  0  0  0  0  0  0  0  0
    0.3679   -0.3702   -0.6663 H   0  0  0  0  0  0  0  0  0  0  0  0
    0.9953   -0.4075   -2.8360 H   0  0  0  0  0  0  0  0  0  0  0  0
    2.3601    0.1463   -4.6765 H   0  0  0  0  0  0  0  0  0  0  0  0
    5.9575   -0.8919   -5.0343 H   0  0  0  0  0  0  0  0  0  0  0  0
    6.0773   -0.6988   -7.3016 H   0  0  0  0  0  0  0  0  0  0  0  0
    4.8125    2.7482   -7.4018 H   0  0  0  0  0  0  0  0  0  0  0  0
    4.0270    3.8659   -9.4526 H   0  0  0  0  0  0  0  0  0  0  0  0
    4.0200    2.6517  -11.6067 H   0  0  0  0  0  0  0  0  0  0  0  0
    2.4591   -0.3005  -10.6158 H   0  0  0  0  0  0  0  0  0  0  0  0
    0.3988   -1.5449  -11.0409 H   0  0  0  0  0  0  0  0  0  0  0  0
    0.9367   -3.5490  -15.3704 H   0  0  0  0  0  0  0  0  0  0  0  0
    3.1233   -3.2691  -16.8173 H   0  0  0  0  0  0  0  0  0  0  0  0
    5.6984   -0.8135   -9.6643 H   0  0  0  0  0  0  0  0  0  0  0  0
    5.6907   -1.9894   -2.9172 H   0  0  0  0  0  0  0  0  0  0  0  0
    4.2462   -2.5495   -1.0029 H   0  0  0  0  0  0  0  0  0  0  0  0
  1  2  1  0  0  0  0
  1 29  1  0  0  0  0
  1 30  1  0  0  0  0
  1 31  1  0  0  0  0
  2  3  1  0  0  0  0
  3  4  1  0  0  0  0
  3 28  2  0  0  0  0
  4  5  2  0  0  0  0
  4 32  1  0  0  0  0
  5  6  1  0  0  0  0
  5 33  1  0  0  0  0
  6  7  1  0  0  0  0
  6 27  2  0  0  0  0
  7  8  1  0  0  0  0
  7 34  1  0  0  0  0
  8  9  2  0  0  0  0
  8 10  1  0  0  0  0
 10 11  1  0  0  0  0
 10 35  1  0  0  0  0
 11 12  1  0  0  0  0
 11 26  2  0  0  0  0
 12 13  2  0  0  0  0
 12 36  1  0  0  0  0
 13 14  1  0  0  0  0
 13 37  1  0  0  0  0
 14 15  2  0  0  0  0
 14 38  1  0  0  0  0
 15 16  1  0  0  0  0
 15 26  1  0  0  0  0
 16 17  1  0  0  0  0
 17 18  1  0  0  0  0
 17 25  2  0  0  0  0
 18 19  2  0  0  0  0
 18 39  1  0  0  0  0
 19 20  1  0  0  0  0
 19 40  1  0  0  0  0
 20 21  2  0  0  0  0
 21 22  1  0  0  0  0
 21 25  1  0  0  0  0
 22 23  2  0  0  0  0
 22 41  1  0  0  0  0
 23 24  1  0  0  0  0
 23 42  1  0  0  0  0
 24 25  1  0  0  0  0
 26 43  1  0  0  0  0
 27 28  1  0  0  0  0
 27 44  1  0  0  0  0
 28 45  1  0  0  0  0
M  END
$$$$
