CHEMBL1681938
 OpenBabel04072215363D

 50 51  0  0  0  0  0  0  0  0999 V2000
    6.1037    3.2590    6.3768 C   0  0  0  0  0  0  0  0  0  0  0  0
    6.6425    2.9399    5.0952 O   0  0  0  0  0  0  0  0  0  0  0  0
    6.0537    3.7923    4.1515 N   0  0  0  0  0  0  0  0  0  0  0  0
    6.5634    3.5760    2.9775 C   0  0  0  0  0  0  0  0  0  0  0  0
    6.1797    4.3953    1.8156 C   0  0  0  0  0  0  0  0  0  0  0  0
    5.6670    5.6806    1.9618 C   0  0  0  0  0  0  0  0  0  0  0  0
    5.5480    6.3163    3.1956 N   0  0  0  0  0  0  0  0  0  0  0  0
    5.3438    6.4587    0.9146 N   0  0  0  0  0  0  0  0  0  0  0  0
    5.5694    5.9531   -0.3009 C   0  0  0  0  0  0  0  0  0  0  0  0
    6.0462    4.7347   -0.5609 N   0  0  0  0  0  0  0  0  0  0  0  0
    6.2914    3.9452    0.5105 C   0  0  0  0  0  0  0  0  0  0  0  0
    6.6036    2.6083    0.2507 O   0  0  0  0  0  0  0  0  0  0  0  0
    5.9692    2.0263   -0.8400 C   0  0  0  0  0  0  0  0  0  0  0  0
    4.6568    2.3325   -1.1940 C   0  0  0  0  0  0  0  0  0  0  0  0
    4.0667    1.7656   -2.3240 C   0  0  0  0  0  0  0  0  0  0  0  0
    4.7277    0.8018   -3.0866 C   0  0  0  0  0  0  0  0  0  0  0  0
    4.0793    0.1811   -4.1983 N   0  0  0  0  0  0  0  0  0  0  0  0
    2.7102    0.1320   -4.3513 C   0  0  0  0  0  0  0  0  0  0  0  0
    1.8876    0.5273   -3.5303 O   0  0  0  0  0  0  0  0  0  0  0  0
    2.2989   -0.4727   -5.5177 N   0  0  0  0  0  0  0  0  0  0  0  0
    0.8638   -0.5764   -5.7633 C   0  0  0  0  0  0  0  0  0  0  0  0
    0.2803    0.6323   -6.5281 C   0  0  0  0  0  0  0  0  0  0  0  0
    0.7508    0.7633   -7.9278 N   0  0  0  0  0  0  0  0  0  0  0  0
    0.3780   -0.4035   -8.7336 C   0  0  0  0  0  0  0  0  0  0  0  0
    0.1590    1.9667   -8.5297 C   0  0  0  0  0  0  0  0  0  0  0  0
    6.0454    0.4715   -2.7132 C   0  0  0  0  0  0  0  0  0  0  0  0
    6.9461   -0.7086   -3.6027 Cl  0  0  0  0  0  0  0  0  0  0  0  0
    6.6624    1.0718   -1.5937 C   0  0  0  0  0  0  0  0  0  0  0  0
    6.5586    2.6024    7.1230 H   0  0  0  0  0  0  0  0  0  0  0  0
    5.0210    3.0987    6.3786 H   0  0  0  0  0  0  0  0  0  0  0  0
    6.3268    4.2985    6.6413 H   0  0  0  0  0  0  0  0  0  0  0  0
    7.3158    2.7828    2.8193 H   0  0  0  0  0  0  0  0  0  0  0  0
    5.2134    5.6842    3.9232 H   0  0  0  0  0  0  0  0  0  0  0  0
    5.0135    7.1721    3.0953 H   0  0  0  0  0  0  0  0  0  0  0  0
    5.3321    6.5818   -1.1514 H   0  0  0  0  0  0  0  0  0  0  0  0
    4.0644    3.0446   -0.6250 H   0  0  0  0  0  0  0  0  0  0  0  0
    3.0746    2.1187   -2.5881 H   0  0  0  0  0  0  0  0  0  0  0  0
    4.6245   -0.4865   -4.7297 H   0  0  0  0  0  0  0  0  0  0  0  0
    2.8790   -0.3423   -6.3346 H   0  0  0  0  0  0  0  0  0  0  0  0
    0.3360   -0.6582   -4.8048 H   0  0  0  0  0  0  0  0  0  0  0  0
    0.6827   -1.5184   -6.2853 H   0  0  0  0  0  0  0  0  0  0  0  0
    0.5487    1.5465   -5.9814 H   0  0  0  0  0  0  0  0  0  0  0  0
   -0.8158    0.5609   -6.5069 H   0  0  0  0  0  0  0  0  0  0  0  0
    0.9084   -1.2996   -8.3988 H   0  0  0  0  0  0  0  0  0  0  0  0
    0.6710   -0.2604   -9.7795 H   0  0  0  0  0  0  0  0  0  0  0  0
   -0.6998   -0.6014   -8.7019 H   0  0  0  0  0  0  0  0  0  0  0  0
    0.4492    2.8651   -7.9743 H   0  0  0  0  0  0  0  0  0  0  0  0
   -0.9367    1.9188   -8.5603 H   0  0  0  0  0  0  0  0  0  0  0  0
    0.5219    2.1012   -9.5552 H   0  0  0  0  0  0  0  0  0  0  0  0
    7.6768    0.8016   -1.3159 H   0  0  0  0  0  0  0  0  0  0  0  0
  1  2  1  0  0  0  0
  1 29  1  0  0  0  0
  1 30  1  0  0  0  0
  1 31  1  0  0  0  0
  2  3  1  0  0  0  0
  3  4  2  0  0  0  0
  4  5  1  0  0  0  0
  4 32  1  0  0  0  0
  5  6  1  0  0  0  0
  5 11  2  0  0  0  0
  6  7  1  0  0  0  0
  6  8  2  0  0  0  0
  7 33  1  0  0  0  0
  7 34  1  0  0  0  0
  8  9  1  0  0  0  0
  9 10  2  0  0  0  0
  9 35  1  0  0  0  0
 10 11  1  0  0  0  0
 11 12  1  0  0  0  0
 12 13  1  0  0  0  0
 13 14  1  0  0  0  0
 13 28  2  0  0  0  0
 14 15  2  0  0  0  0
 14 36  1  0  0  0  0
 15 16  1  0  0  0  0
 15 37  1  0  0  0  0
 16 17  1  0  0  0  0
 16 26  2  0  0  0  0
 17 18  1  0  0  0  0
 17 38  1  0  0  0  0
 18 19  2  0  0  0  0
 18 20  1  0  0  0  0
 20 21  1  0  0  0  0
 20 39  1  0  0  0  0
 21 22  1  0  0  0  0
 21 40  1  0  0  0  0
 21 41  1  0  0  0  0
 22 23  1  0  0  0  0
 22 42  1  0  0  0  0
 22 43  1  0  0  0  0
 23 24  1  0  0  0  0
 23 25  1  0  0  0  0
 24 44  1  0  0  0  0
 24 45  1  0  0  0  0
 24 46  1  0  0  0  0
 25 47  1  0  0  0  0
 25 48  1  0  0  0  0
 25 49  1  0  0  0  0
 26 27  1  0  0  0  0
 26 28  1  0  0  0  0
 28 50  1  0  0  0  0
M  END
$$$$
