CHEMBL225192
 OpenBabel04072215363D

 60 64  0  0  0  0  0  0  0  0999 V2000
   -3.2964    4.4168    2.9118 C   0  0  0  0  0  0  0  0  0  0  0  0
   -2.3827    3.3053    3.1186 N   0  0  0  0  0  0  0  0  0  0  0  0
   -3.0926    2.0921    3.5517 C   0  0  0  0  0  0  0  0  0  0  0  0
   -2.0480    0.9959    3.8681 C   0  0  0  0  0  0  0  0  0  0  0  0
   -1.2701    0.5781    2.6769 N   0  0  0  0  0  0  0  0  0  0  0  0
   -2.0921   -0.0871    1.6496 C   0  0  0  0  0  0  0  0  0  0  0  0
   -2.7901   -1.3611    2.1037 C   0  0  0  0  0  0  0  0  0  0  0  0
   -2.1499   -2.6151    1.9432 C   0  0  0  0  0  0  0  0  0  0  0  0
   -2.7970   -3.8239    2.1870 C   0  0  0  0  0  0  0  0  0  0  0  0
   -4.0571   -3.7581    2.7201 C   0  0  0  0  0  0  0  0  0  0  0  0
   -4.7022   -2.5196    2.9864 C   0  0  0  0  0  0  0  0  0  0  0  0
   -4.0908   -1.3196    2.6480 C   0  0  0  0  0  0  0  0  0  0  0  0
   -6.0667   -2.7006    3.6755 C   0  0  0  0  0  0  0  0  0  0  0  0
   -6.0549   -4.1937    3.7266 C   0  0  0  0  0  0  0  0  0  0  0  0
   -6.8115   -5.2793    4.1887 C   0  0  0  0  0  0  0  0  0  0  0  0
   -8.1255   -5.1564    4.8062 C   0  0  0  0  0  0  0  0  0  0  0  0
   -9.0248   -4.1522    4.5094 C   0  0  0  0  0  0  0  0  0  0  0  0
  -10.4689   -4.2768    5.3965 S   0  0  0  0  0  0  0  0  0  0  0  0
   -9.9079   -5.6761    6.1933 C   0  0  0  0  0  0  0  0  0  0  0  0
  -10.7085   -6.3313    7.1626 C   0  0  0  0  0  0  0  0  0  0  0  0
  -11.4533   -6.9280    8.0510 C   0  0  0  0  0  0  0  0  0  0  0  0
  -12.3216   -7.6237    9.0866 C   0  0  0  0  0  0  0  0  0  0  0  0
  -13.6285   -7.8025    8.5471 O   0  0  0  0  0  0  0  0  0  0  0  0
  -14.4778   -8.4534    9.4888 C   0  0  0  0  0  0  0  0  0  0  0  0
  -15.8960   -8.6709    8.9552 C   0  0  0  0  0  0  0  0  0  0  0  0
  -16.1280   -8.2215    7.6963 N   0  0  0  0  0  0  0  0  0  0  0  0
  -16.7810   -9.2175    9.6164 O   0  0  0  0  0  0  0  0  0  0  0  0
   -8.6445   -6.0543    5.7860 C   0  0  0  0  0  0  0  0  0  0  0  0
   -6.1815   -6.4503    3.9615 N   0  0  0  0  0  0  0  0  0  0  0  0
   -5.0355   -6.0961    3.3137 N   0  0  0  0  0  0  0  0  0  0  0  0
   -4.9467   -4.7511    3.1801 C   0  0  0  0  0  0  0  0  0  0  0  0
   -0.6379    1.8056    2.1206 C   0  0  0  0  0  0  0  0  0  0  0  0
   -1.6118    2.9964    1.8987 C   0  0  0  0  0  0  0  0  0  0  0  0
   -3.8415    4.6378    3.8361 H   0  0  0  0  0  0  0  0  0  0  0  0
   -4.0232    4.2141    2.1183 H   0  0  0  0  0  0  0  0  0  0  0  0
   -2.7336    5.3198    2.6531 H   0  0  0  0  0  0  0  0  0  0  0  0
   -3.7926    1.7750    2.7676 H   0  0  0  0  0  0  0  0  0  0  0  0
   -3.6978    2.2806    4.4445 H   0  0  0  0  0  0  0  0  0  0  0  0
   -2.5016    0.1350    4.3659 H   0  0  0  0  0  0  0  0  0  0  0  0
   -1.3519    1.3881    4.6249 H   0  0  0  0  0  0  0  0  0  0  0  0
   -1.4369   -0.3501    0.8036 H   0  0  0  0  0  0  0  0  0  0  0  0
   -2.8463    0.5765    1.2049 H   0  0  0  0  0  0  0  0  0  0  0  0
   -1.1130   -2.6596    1.6163 H   0  0  0  0  0  0  0  0  0  0  0  0
   -2.3072   -4.7661    1.9655 H   0  0  0  0  0  0  0  0  0  0  0  0
   -4.5952   -0.3748    2.8235 H   0  0  0  0  0  0  0  0  0  0  0  0
   -6.8720   -2.3062    3.0538 H   0  0  0  0  0  0  0  0  0  0  0  0
   -6.0493   -2.2580    4.6744 H   0  0  0  0  0  0  0  0  0  0  0  0
   -8.9200   -3.3485    3.7953 H   0  0  0  0  0  0  0  0  0  0  0  0
  -12.3679   -7.0039    9.9889 H   0  0  0  0  0  0  0  0  0  0  0  0
  -11.8782   -8.5954    9.3307 H   0  0  0  0  0  0  0  0  0  0  0  0
  -14.5565   -7.8411   10.3940 H   0  0  0  0  0  0  0  0  0  0  0  0
  -14.0632   -9.4373    9.7355 H   0  0  0  0  0  0  0  0  0  0  0  0
  -15.3850   -7.7824    7.1626 H   0  0  0  0  0  0  0  0  0  0  0  0
  -17.0474   -8.3432    7.2826 H   0  0  0  0  0  0  0  0  0  0  0  0
   -8.1109   -6.9160    6.1669 H   0  0  0  0  0  0  0  0  0  0  0  0
   -4.3922   -6.8185    3.0178 H   0  0  0  0  0  0  0  0  0  0  0  0
   -0.1136    1.5775    1.1840 H   0  0  0  0  0  0  0  0  0  0  0  0
    0.1425    2.1281    2.8237 H   0  0  0  0  0  0  0  0  0  0  0  0
   -2.2924    2.7590    1.0706 H   0  0  0  0  0  0  0  0  0  0  0  0
   -1.0297    3.8737    1.5944 H   0  0  0  0  0  0  0  0  0  0  0  0
  1  2  1  0  0  0  0
  1 34  1  0  0  0  0
  1 35  1  0  0  0  0
  1 36  1  0  0  0  0
  2  3  1  0  0  0  0
  2 33  1  0  0  0  0
  3  4  1  0  0  0  0
  3 37  1  0  0  0  0
  3 38  1  0  0  0  0
  4  5  1  0  0  0  0
  4 39  1  0  0  0  0
  4 40  1  0  0  0  0
  5  6  1  0  0  0  0
  5 32  1  0  0  0  0
  6  7  1  0  0  0  0
  6 41  1  0  0  0  0
  6 42  1  0  0  0  0
  7  8  1  0  0  0  0
  7 12  2  0  0  0  0
  8  9  2  0  0  0  0
  8 43  1  0  0  0  0
  9 10  1  0  0  0  0
  9 44  1  0  0  0  0
 10 11  2  0  0  0  0
 10 31  1  0  0  0  0
 11 12  1  0  0  0  0
 11 13  1  0  0  0  0
 12 45  1  0  0  0  0
 13 14  1  0  0  0  0
 13 46  1  0  0  0  0
 13 47  1  0  0  0  0
 14 15  1  0  0  0  0
 14 31  2  0  0  0  0
 15 16  1  0  0  0  0
 15 29  2  0  0  0  0
 16 17  2  0  0  0  0
 16 28  1  0  0  0  0
 17 18  1  0  0  0  0
 17 48  1  0  0  0  0
 18 19  1  0  0  0  0
 19 20  1  0  0  0  0
 19 28  2  0  0  0  0
 20 21  3  0  0  0  0
 21 22  1  0  0  0  0
 22 23  1  0  0  0  0
 22 49  1  0  0  0  0
 22 50  1  0  0  0  0
 23 24  1  0  0  0  0
 24 25  1  0  0  0  0
 24 51  1  0  0  0  0
 24 52  1  0  0  0  0
 25 26  1  0  0  0  0
 25 27  2  0  0  0  0
 26 53  1  0  0  0  0
 26 54  1  0  0  0  0
 28 55  1  0  0  0  0
 29 30  1  0  0  0  0
 30 31  1  0  0  0  0
 30 56  1  0  0  0  0
 32 33  1  0  0  0  0
 32 57  1  0  0  0  0
 32 58  1  0  0  0  0
 33 59  1  0  0  0  0
 33 60  1  0  0  0  0
M  END
$$$$
