CHEMBL4245874
 OpenBabel04072215383D

 32 34  0  0  0  0  0  0  0  0999 V2000
    0.9665    0.0701   -0.0220 C   0  0  0  0  0  0  0  0  0  0  0  0
    2.3841   -0.0085    0.0855 O   0  0  0  0  0  0  0  0  0  0  0  0
    3.0005   -0.9428   -0.7009 C   0  0  0  0  0  0  0  0  0  0  0  0
    2.3548   -1.8371   -1.5500 C   0  0  0  0  0  0  0  0  0  0  0  0
    3.0992   -2.7327   -2.3201 C   0  0  0  0  0  0  0  0  0  0  0  0
    4.4978   -2.7509   -2.2644 C   0  0  0  0  0  0  0  0  0  0  0  0
    5.2573   -3.6583   -3.0348 N   0  0  0  0  0  0  0  0  0  0  0  0
    4.8766   -4.1550   -4.2951 C   0  0  0  0  0  0  0  0  0  0  0  0
    4.1545   -3.3545   -5.1250 N   0  0  0  0  0  0  0  0  0  0  0  0
    3.7597   -3.8144   -6.3224 C   0  0  0  0  0  0  0  0  0  0  0  0
    3.9852   -5.0178   -6.8426 N   0  0  0  0  0  0  0  0  0  0  0  0
    4.7098   -5.7790   -6.0146 C   0  0  0  0  0  0  0  0  0  0  0  0
    5.0652   -7.0547   -6.3261 O   0  0  0  0  0  0  0  0  0  0  0  0
    5.7836   -7.5383   -5.2866 C   0  0  0  0  0  0  0  0  0  0  0  0
    5.9086   -6.5985   -4.2854 C   0  0  0  0  0  0  0  0  0  0  0  0
    6.6344   -6.7736   -3.0055 C   0  0  0  0  0  0  0  0  0  0  0  0
    5.1989   -5.4426   -4.7576 C   0  0  0  0  0  0  0  0  0  0  0  0
    5.1391   -1.8792   -1.3815 C   0  0  0  0  0  0  0  0  0  0  0  0
    4.3948   -0.9728   -0.6159 C   0  0  0  0  0  0  0  0  0  0  0  0
    0.6217    0.8705    0.6387 H   0  0  0  0  0  0  0  0  0  0  0  0
    0.4956   -0.8617    0.3098 H   0  0  0  0  0  0  0  0  0  0  0  0
    0.6591    0.3252   -1.0424 H   0  0  0  0  0  0  0  0  0  0  0  0
    1.2756   -1.8664   -1.6484 H   0  0  0  0  0  0  0  0  0  0  0  0
    2.5667   -3.4190   -2.9737 H   0  0  0  0  0  0  0  0  0  0  0  0
    5.7167   -4.3440   -2.4519 H   0  0  0  0  0  0  0  0  0  0  0  0
    3.1834   -3.1213   -6.9280 H   0  0  0  0  0  0  0  0  0  0  0  0
    6.1314   -8.5567   -5.4017 H   0  0  0  0  0  0  0  0  0  0  0  0
    7.0733   -7.7746   -2.9330 H   0  0  0  0  0  0  0  0  0  0  0  0
    5.9574   -6.6431   -2.1561 H   0  0  0  0  0  0  0  0  0  0  0  0
    7.4476   -6.0451   -2.9218 H   0  0  0  0  0  0  0  0  0  0  0  0
    6.2235   -1.8684   -1.3118 H   0  0  0  0  0  0  0  0  0  0  0  0
    4.9079   -0.2756    0.0421 H   0  0  0  0  0  0  0  0  0  0  0  0
  1  2  1  0  0  0  0
  1 20  1  0  0  0  0
  1 21  1  0  0  0  0
  1 22  1  0  0  0  0
  2  3  1  0  0  0  0
  3  4  1  0  0  0  0
  3 19  2  0  0  0  0
  4  5  2  0  0  0  0
  4 23  1  0  0  0  0
  5  6  1  0  0  0  0
  5 24  1  0  0  0  0
  6  7  1  0  0  0  0
  6 18  2  0  0  0  0
  7  8  1  0  0  0  0
  7 25  1  0  0  0  0
  8  9  1  0  0  0  0
  8 17  2  0  0  0  0
  9 10  2  0  0  0  0
 10 11  1  0  0  0  0
 10 26  1  0  0  0  0
 11 12  2  0  0  0  0
 12 13  1  0  0  0  0
 12 17  1  0  0  0  0
 13 14  1  0  0  0  0
 14 15  2  0  0  0  0
 14 27  1  0  0  0  0
 15 16  1  0  0  0  0
 15 17  1  0  0  0  0
 16 28  1  0  0  0  0
 16 29  1  0  0  0  0
 16 30  1  0  0  0  0
 18 19  1  0  0  0  0
 18 31  1  0  0  0  0
 19 32  1  0  0  0  0
M  END
$$$$
