CHEMBL213478
 OpenBabel04072215363D

 52 56  0  0  0  0  0  0  0  0999 V2000
    0.5558   -0.6590   -0.0738 C   0  0  0  0  0  0  0  0  0  0  0  0
    0.1412   -0.7309   -1.4543 N   0  0  0  0  0  0  0  0  0  0  0  0
    1.1011   -1.1729   -2.3495 C   0  0  0  0  0  0  0  0  0  0  0  0
    0.9835   -0.6949   -3.5906 N   0  0  0  0  0  0  0  0  0  0  0  0
    1.8397   -1.1777   -4.5080 C   0  0  0  0  0  0  0  0  0  0  0  0
    2.8160   -2.1236   -4.2371 C   0  0  0  0  0  0  0  0  0  0  0  0
    3.6745   -2.6808   -5.2208 C   0  0  0  0  0  0  0  0  0  0  0  0
    4.6953   -3.5945   -4.9076 C   0  0  0  0  0  0  0  0  0  0  0  0
    5.6040   -4.2014   -5.9469 C   0  0  0  0  0  0  0  0  0  0  0  0
    6.0505   -5.5455   -5.7913 C   0  0  0  0  0  0  0  0  0  0  0  0
    6.8967   -6.2243   -6.7104 C   0  0  0  0  0  0  0  0  0  0  0  0
    7.3276   -7.5329   -6.3944 N   0  0  0  0  0  0  0  0  0  0  0  0
    8.1397   -8.3880   -7.0666 C   0  0  0  0  0  0  0  0  0  0  0  0
    8.7886   -8.3296   -8.2141 N   0  0  0  0  0  0  0  0  0  0  0  0
    9.3527   -9.5837   -8.4052 C   0  0  0  0  0  0  0  0  0  0  0  0
   10.1108  -10.1142   -9.4685 C   0  0  0  0  0  0  0  0  0  0  0  0
   10.5007  -11.4759   -9.4283 C   0  0  0  0  0  0  0  0  0  0  0  0
   11.2859  -12.1163  -10.5495 C   0  0  0  0  0  0  0  0  0  0  0  0
   11.5918  -11.2720  -11.5713 F   0  0  0  0  0  0  0  0  0  0  0  0
   12.4736  -12.6309  -10.1201 F   0  0  0  0  0  0  0  0  0  0  0  0
   10.6188  -13.1628  -11.1147 F   0  0  0  0  0  0  0  0  0  0  0  0
   10.1454  -12.2730   -8.3256 C   0  0  0  0  0  0  0  0  0  0  0  0
    9.4329  -11.7526   -7.2444 C   0  0  0  0  0  0  0  0  0  0  0  0
    9.0592  -10.4110   -7.3312 C   0  0  0  0  0  0  0  0  0  0  0  0
    8.3660   -9.6070   -6.4727 N   0  0  0  0  0  0  0  0  0  0  0  0
    7.2876   -5.5367   -7.8464 C   0  0  0  0  0  0  0  0  0  0  0  0
    6.8738   -4.2170   -8.0429 C   0  0  0  0  0  0  0  0  0  0  0  0
    6.0726   -3.5283   -7.1023 C   0  0  0  0  0  0  0  0  0  0  0  0
    5.7884   -2.0803   -7.4135 C   0  0  0  0  0  0  0  0  0  0  0  0
    4.7830   -3.9374   -3.5448 C   0  0  0  0  0  0  0  0  0  0  0  0
    3.8940   -3.4187   -2.5787 C   0  0  0  0  0  0  0  0  0  0  0  0
    2.8953   -2.5089   -2.9049 C   0  0  0  0  0  0  0  0  0  0  0  0
    2.0510   -2.0461   -1.9704 N   0  0  0  0  0  0  0  0  0  0  0  0
   -0.2728   -0.2746    0.5296 H   0  0  0  0  0  0  0  0  0  0  0  0
    1.4088    0.0192    0.0555 H   0  0  0  0  0  0  0  0  0  0  0  0
    0.8119   -1.6474    0.3213 H   0  0  0  0  0  0  0  0  0  0  0  0
   -0.2495    0.1166   -1.8491 H   0  0  0  0  0  0  0  0  0  0  0  0
    1.7115   -0.7676   -5.5055 H   0  0  0  0  0  0  0  0  0  0  0  0
    3.4912   -2.3947   -6.2504 H   0  0  0  0  0  0  0  0  0  0  0  0
    5.7214   -6.0998   -4.9143 H   0  0  0  0  0  0  0  0  0  0  0  0
    6.8428   -7.8837   -5.5775 H   0  0  0  0  0  0  0  0  0  0  0  0
   10.3735   -9.4814  -10.3122 H   0  0  0  0  0  0  0  0  0  0  0  0
   10.4289  -13.3262   -8.3082 H   0  0  0  0  0  0  0  0  0  0  0  0
    9.1682  -12.3718   -6.3936 H   0  0  0  0  0  0  0  0  0  0  0  0
    8.0299   -9.8767   -5.5637 H   0  0  0  0  0  0  0  0  0  0  0  0
    7.9226   -6.0062   -8.5930 H   0  0  0  0  0  0  0  0  0  0  0  0
    7.2062   -3.7110   -8.9486 H   0  0  0  0  0  0  0  0  0  0  0  0
    6.4523   -1.7035   -8.1997 H   0  0  0  0  0  0  0  0  0  0  0  0
    5.9588   -1.4513   -6.5347 H   0  0  0  0  0  0  0  0  0  0  0  0
    4.7697   -1.9542   -7.7885 H   0  0  0  0  0  0  0  0  0  0  0  0
    5.5469   -4.6282   -3.1940 H   0  0  0  0  0  0  0  0  0  0  0  0
    3.9844   -3.7377   -1.5424 H   0  0  0  0  0  0  0  0  0  0  0  0
  1  2  1  0  0  0  0
  1 34  1  0  0  0  0
  1 35  1  0  0  0  0
  1 36  1  0  0  0  0
  2  3  1  0  0  0  0
  2 37  1  0  0  0  0
  3  4  1  0  0  0  0
  3 33  2  0  0  0  0
  4  5  2  0  0  0  0
  5  6  1  0  0  0  0
  5 38  1  0  0  0  0
  6  7  1  0  0  0  0
  6 32  2  0  0  0  0
  7  8  2  0  0  0  0
  7 39  1  0  0  0  0
  8  9  1  0  0  0  0
  8 30  1  0  0  0  0
  9 10  1  0  0  0  0
  9 28  2  0  0  0  0
 10 11  2  0  0  0  0
 10 40  1  0  0  0  0
 11 12  1  0  0  0  0
 11 26  1  0  0  0  0
 12 13  1  0  0  0  0
 12 41  1  0  0  0  0
 13 14  2  0  0  0  0
 13 25  1  0  0  0  0
 14 15  1  0  0  0  0
 15 16  1  0  0  0  0
 15 24  2  0  0  0  0
 16 17  2  0  0  0  0
 16 42  1  0  0  0  0
 17 18  1  0  0  0  0
 17 22  1  0  0  0  0
 18 19  1  0  0  0  0
 18 20  1  0  0  0  0
 18 21  1  0  0  0  0
 22 23  2  0  0  0  0
 22 43  1  0  0  0  0
 23 24  1  0  0  0  0
 23 44  1  0  0  0  0
 24 25  1  0  0  0  0
 25 45  1  0  0  0  0
 26 27  2  0  0  0  0
 26 46  1  0  0  0  0
 27 28  1  0  0  0  0
 27 47  1  0  0  0  0
 28 29  1  0  0  0  0
 29 48  1  0  0  0  0
 29 49  1  0  0  0  0
 29 50  1  0  0  0  0
 30 31  2  0  0  0  0
 30 51  1  0  0  0  0
 31 32  1  0  0  0  0
 31 52  1  0  0  0  0
 32 33  1  0  0  0  0
M  END
$$$$
