CHEMBL4074745
 OpenBabel04072215383D

 55 58  0  0  0  0  0  0  0  0999 V2000
   -0.7410    2.1336   -3.3976 C   0  0  0  0  0  0  0  0  0  0  0  0
   -1.0644    0.9712   -2.5249 C   0  0  0  0  0  0  0  0  0  0  0  0
   -1.3956   -0.1760   -3.1414 N   0  0  0  0  0  0  0  0  0  0  0  0
   -1.6574   -1.0182   -2.1335 N   0  0  0  0  0  0  0  0  0  0  0  0
   -1.4999   -0.4734   -0.8982 C   0  0  0  0  0  0  0  0  0  0  0  0
   -1.7092   -1.1292    0.2572 N   0  0  0  0  0  0  0  0  0  0  0  0
   -1.4736   -0.3682    1.3414 C   0  0  0  0  0  0  0  0  0  0  0  0
   -1.0573    0.9568    1.3167 C   0  0  0  0  0  0  0  0  0  0  0  0
   -0.8497    1.6151    0.0881 C   0  0  0  0  0  0  0  0  0  0  0  0
   -0.3829    3.0096    0.0450 C   0  0  0  0  0  0  0  0  0  0  0  0
    0.6240    3.3885   -0.8404 C   0  0  0  0  0  0  0  0  0  0  0  0
    1.0110    4.7183   -0.9894 C   0  0  0  0  0  0  0  0  0  0  0  0
    0.4848    5.7169   -0.1740 C   0  0  0  0  0  0  0  0  0  0  0  0
    0.8792    7.0712   -0.2725 N   0  0  0  0  0  0  0  0  0  0  0  0
    1.6781    7.5897   -1.2766 C   0  0  0  0  0  0  0  0  0  0  0  0
    2.0714    7.0013   -2.2773 O   0  0  0  0  0  0  0  0  0  0  0  0
    2.0479    8.8911   -1.0350 N   0  0  0  0  0  0  0  0  0  0  0  0
    2.9088    9.5835   -1.9765 C   0  0  0  0  0  0  0  0  0  0  0  0
    2.1544   10.0960   -3.2051 C   0  0  0  0  0  0  0  0  0  0  0  0
    1.1663   11.2083   -2.8480 C   0  0  0  0  0  0  0  0  0  0  0  0
    0.4696   11.7477   -4.0975 C   0  0  0  0  0  0  0  0  0  0  0  0
   -0.4770   12.8755   -3.7717 C   0  0  0  0  0  0  0  0  0  0  0  0
   -0.0131   14.1968   -3.7143 C   0  0  0  0  0  0  0  0  0  0  0  0
   -0.8920   15.2437   -3.4327 C   0  0  0  0  0  0  0  0  0  0  0  0
   -2.2400   14.9793   -3.1984 C   0  0  0  0  0  0  0  0  0  0  0  0
   -2.7077   13.6668   -3.2341 C   0  0  0  0  0  0  0  0  0  0  0  0
   -1.8300   12.6183   -3.5152 C   0  0  0  0  0  0  0  0  0  0  0  0
   -0.4375    5.3450    0.8073 C   0  0  0  0  0  0  0  0  0  0  0  0
   -0.8781    4.0108    0.9023 C   0  0  0  0  0  0  0  0  0  0  0  0
   -1.0924    0.8446   -1.0887 C   0  0  0  0  0  0  0  0  0  0  0  0
   -0.9776    1.9181   -4.4464 H   0  0  0  0  0  0  0  0  0  0  0  0
    0.3277    2.3614   -3.3767 H   0  0  0  0  0  0  0  0  0  0  0  0
   -1.3129    3.0186   -3.1067 H   0  0  0  0  0  0  0  0  0  0  0  0
   -1.9442   -1.9646   -2.3439 H   0  0  0  0  0  0  0  0  0  0  0  0
   -1.6281   -0.8756    2.2910 H   0  0  0  0  0  0  0  0  0  0  0  0
   -0.8756    1.4621    2.2608 H   0  0  0  0  0  0  0  0  0  0  0  0
    1.1328    2.6451   -1.4472 H   0  0  0  0  0  0  0  0  0  0  0  0
    1.7464    4.9242   -1.7580 H   0  0  0  0  0  0  0  0  0  0  0  0
    0.4962    7.7161    0.3963 H   0  0  0  0  0  0  0  0  0  0  0  0
    1.6211    9.4146   -0.2867 H   0  0  0  0  0  0  0  0  0  0  0  0
    3.6922    8.8880   -2.3054 H   0  0  0  0  0  0  0  0  0  0  0  0
    3.3998   10.4044   -1.4454 H   0  0  0  0  0  0  0  0  0  0  0  0
    1.6206    9.2746   -3.6961 H   0  0  0  0  0  0  0  0  0  0  0  0
    2.8849   10.4780   -3.9294 H   0  0  0  0  0  0  0  0  0  0  0  0
    1.7019   12.0181   -2.3375 H   0  0  0  0  0  0  0  0  0  0  0  0
    0.4169   10.8284   -2.1428 H   0  0  0  0  0  0  0  0  0  0  0  0
   -0.0800   10.9420   -4.6000 H   0  0  0  0  0  0  0  0  0  0  0  0
    1.2131   12.1022   -4.8227 H   0  0  0  0  0  0  0  0  0  0  0  0
    1.0357   14.4184   -3.8982 H   0  0  0  0  0  0  0  0  0  0  0  0
   -0.5257   16.2664   -3.4021 H   0  0  0  0  0  0  0  0  0  0  0  0
   -2.9260   15.7958   -2.9896 H   0  0  0  0  0  0  0  0  0  0  0  0
   -3.7585   13.4599   -3.0491 H   0  0  0  0  0  0  0  0  0  0  0  0
   -2.2102   11.5996   -3.5427 H   0  0  0  0  0  0  0  0  0  0  0  0
   -0.8430    6.0790    1.4988 H   0  0  0  0  0  0  0  0  0  0  0  0
   -1.6222    3.7671    1.6587 H   0  0  0  0  0  0  0  0  0  0  0  0
  1  2  1  0  0  0  0
  1 31  1  0  0  0  0
  1 32  1  0  0  0  0
  1 33  1  0  0  0  0
  2  3  2  0  0  0  0
  2 30  1  0  0  0  0
  3  4  1  0  0  0  0
  4  5  1  0  0  0  0
  4 34  1  0  0  0  0
  5  6  1  0  0  0  0
  5 30  2  0  0  0  0
  6  7  2  0  0  0  0
  7  8  1  0  0  0  0
  7 35  1  0  0  0  0
  8  9  2  0  0  0  0
  8 36  1  0  0  0  0
  9 10  1  0  0  0  0
  9 30  1  0  0  0  0
 10 11  1  0  0  0  0
 10 29  2  0  0  0  0
 11 12  2  0  0  0  0
 11 37  1  0  0  0  0
 12 13  1  0  0  0  0
 12 38  1  0  0  0  0
 13 14  1  0  0  0  0
 13 28  2  0  0  0  0
 14 15  1  0  0  0  0
 14 39  1  0  0  0  0
 15 16  2  0  0  0  0
 15 17  1  0  0  0  0
 17 18  1  0  0  0  0
 17 40  1  0  0  0  0
 18 19  1  0  0  0  0
 18 41  1  0  0  0  0
 18 42  1  0  0  0  0
 19 20  1  0  0  0  0
 19 43  1  0  0  0  0
 19 44  1  0  0  0  0
 20 21  1  0  0  0  0
 20 45  1  0  0  0  0
 20 46  1  0  0  0  0
 21 22  1  0  0  0  0
 21 47  1  0  0  0  0
 21 48  1  0  0  0  0
 22 23  1  0  0  0  0
 22 27  2  0  0  0  0
 23 24  2  0  0  0  0
 23 49  1  0  0  0  0
 24 25  1  0  0  0  0
 24 50  1  0  0  0  0
 25 26  2  0  0  0  0
 25 51  1  0  0  0  0
 26 27  1  0  0  0  0
 26 52  1  0  0  0  0
 27 53  1  0  0  0  0
 28 29  1  0  0  0  0
 28 54  1  0  0  0  0
 29 55  1  0  0  0  0
M  END
$$$$
