CHEMBL4166319
 OpenBabel04072215383D

 65 69  0  0  0  0  0  0  0  0999 V2000
    1.1256   -0.4068    0.6842 C   0  0  0  0  0  0  0  0  0  0  0  0
    2.5538   -0.3945    0.6714 O   0  0  0  0  0  0  0  0  0  0  0  0
    3.1004   -1.0056   -0.4134 C   0  0  0  0  0  0  0  0  0  0  0  0
    2.4756   -1.5073   -1.3330 O   0  0  0  0  0  0  0  0  0  0  0  0
    4.5811   -1.0334   -0.3290 C   0  0  0  0  0  0  0  0  0  0  0  0
    5.3050   -0.4511    0.7361 C   0  0  0  0  0  0  0  0  0  0  0  0
    6.7082   -0.5474    0.8022 C   0  0  0  0  0  0  0  0  0  0  0  0
    7.3749   -1.2401   -0.1946 C   0  0  0  0  0  0  0  0  0  0  0  0
    6.6385   -1.8004   -1.2473 C   0  0  0  0  0  0  0  0  0  0  0  0
    5.2653   -1.7041   -1.3503 C   0  0  0  0  0  0  0  0  0  0  0  0
    7.4697   -2.4757   -2.1334 N   0  0  0  0  0  0  0  0  0  0  0  0
    8.7870   -2.4178   -1.7189 C   0  0  0  0  0  0  0  0  0  0  0  0
    9.7350   -3.0160   -2.2014 O   0  0  0  0  0  0  0  0  0  0  0  0
    8.7864   -1.5372   -0.4936 C   0  0  0  0  0  0  0  0  0  0  0  0
    9.9559   -1.1566    0.0635 C   0  0  0  0  0  0  0  0  0  0  0  0
   11.2238   -1.4015   -0.4840 N   0  0  0  0  0  0  0  0  0  0  0  0
   11.9458   -0.4086   -1.2310 C   0  0  0  0  0  0  0  0  0  0  0  0
   13.2346   -0.7216   -1.6983 C   0  0  0  0  0  0  0  0  0  0  0  0
   14.0408    0.2532   -2.2959 C   0  0  0  0  0  0  0  0  0  0  0  0
   13.5535    1.5497   -2.4003 C   0  0  0  0  0  0  0  0  0  0  0  0
   12.2573    1.8767   -1.9997 C   0  0  0  0  0  0  0  0  0  0  0  0
   11.4501    0.8911   -1.4488 C   0  0  0  0  0  0  0  0  0  0  0  0
   12.0296    3.2555   -2.2095 N   0  0  0  0  0  0  0  0  0  0  0  0
   10.9321    4.0803   -1.9761 C   0  0  0  0  0  0  0  0  0  0  0  0
   11.0339    5.3015   -2.1348 O   0  0  0  0  0  0  0  0  0  0  0  0
    9.6296    3.4146   -1.5299 C   0  0  0  0  0  0  0  0  0  0  0  0
    8.4652    4.3074   -1.3044 N   0  0  0  0  0  0  0  0  0  0  0  0
    8.0313    4.9637   -2.5374 C   0  0  0  0  0  0  0  0  0  0  0  0
    7.3574    3.5147   -0.7580 C   0  0  0  0  0  0  0  0  0  0  0  0
   13.2953    3.8713   -2.6326 C   0  0  0  0  0  0  0  0  0  0  0  0
   14.2840    2.7427   -2.9296 C   0  0  0  0  0  0  0  0  0  0  0  0
    9.9878   -0.5666    1.4254 C   0  0  0  0  0  0  0  0  0  0  0  0
   10.0974   -1.4297    2.5251 C   0  0  0  0  0  0  0  0  0  0  0  0
   10.1685   -0.9260    3.8261 C   0  0  0  0  0  0  0  0  0  0  0  0
   10.1361    0.4469    4.0469 C   0  0  0  0  0  0  0  0  0  0  0  0
   10.0239    1.3182    2.9674 C   0  0  0  0  0  0  0  0  0  0  0  0
    9.9392    0.8093    1.6688 C   0  0  0  0  0  0  0  0  0  0  0  0
    0.7871    0.2574    1.4849 H   0  0  0  0  0  0  0  0  0  0  0  0
    0.7667   -1.4189    0.8961 H   0  0  0  0  0  0  0  0  0  0  0  0
    0.7129   -0.0416   -0.2623 H   0  0  0  0  0  0  0  0  0  0  0  0
    4.7818    0.0740    1.5328 H   0  0  0  0  0  0  0  0  0  0  0  0
    7.2330   -0.0927    1.6360 H   0  0  0  0  0  0  0  0  0  0  0  0
    4.7320   -2.1482   -2.1858 H   0  0  0  0  0  0  0  0  0  0  0  0
    7.1695   -3.0241   -2.9231 H   0  0  0  0  0  0  0  0  0  0  0  0
   11.2170   -2.2513   -1.0649 H   0  0  0  0  0  0  0  0  0  0  0  0
   13.6284   -1.7271   -1.5697 H   0  0  0  0  0  0  0  0  0  0  0  0
   15.0410    0.0041   -2.6373 H   0  0  0  0  0  0  0  0  0  0  0  0
   10.4348    1.0901   -1.1630 H   0  0  0  0  0  0  0  0  0  0  0  0
    9.8651    2.9905   -0.5542 H   0  0  0  0  0  0  0  0  0  0  0  0
    9.3645    2.6333   -2.2508 H   0  0  0  0  0  0  0  0  0  0  0  0
    8.7915    5.6433   -2.9289 H   0  0  0  0  0  0  0  0  0  0  0  0
    7.1489    5.5855   -2.3410 H   0  0  0  0  0  0  0  0  0  0  0  0
    7.7735    4.2438   -3.3222 H   0  0  0  0  0  0  0  0  0  0  0  0
    7.6507    3.0303    0.1845 H   0  0  0  0  0  0  0  0  0  0  0  0
    7.0290    2.7303   -1.4513 H   0  0  0  0  0  0  0  0  0  0  0  0
    6.4996    4.1519   -0.5253 H   0  0  0  0  0  0  0  0  0  0  0  0
   13.6538    4.5044   -1.8106 H   0  0  0  0  0  0  0  0  0  0  0  0
   13.1322    4.5156   -3.5039 H   0  0  0  0  0  0  0  0  0  0  0  0
   15.2334    2.9051   -2.4100 H   0  0  0  0  0  0  0  0  0  0  0  0
   14.4621    2.6474   -4.0049 H   0  0  0  0  0  0  0  0  0  0  0  0
   10.1460   -2.5076    2.3690 H   0  0  0  0  0  0  0  0  0  0  0  0
   10.2606   -1.6102    4.6677 H   0  0  0  0  0  0  0  0  0  0  0  0
   10.2109    0.8422    5.0563 H   0  0  0  0  0  0  0  0  0  0  0  0
   10.0138    2.3940    3.1294 H   0  0  0  0  0  0  0  0  0  0  0  0
    9.8462    1.5122    0.8568 H   0  0  0  0  0  0  0  0  0  0  0  0
  1  2  1  0  0  0  0
  1 38  1  0  0  0  0
  1 39  1  0  0  0  0
  1 40  1  0  0  0  0
  2  3  1  0  0  0  0
  3  4  2  0  0  0  0
  3  5  1  0  0  0  0
  5  6  1  0  0  0  0
  5 10  2  0  0  0  0
  6  7  2  0  0  0  0
  6 41  1  0  0  0  0
  7  8  1  0  0  0  0
  7 42  1  0  0  0  0
  8  9  2  0  0  0  0
  8 14  1  0  0  0  0
  9 10  1  0  0  0  0
  9 11  1  0  0  0  0
 10 43  1  0  0  0  0
 11 12  1  0  0  0  0
 11 44  1  0  0  0  0
 12 13  2  0  0  0  0
 12 14  1  0  0  0  0
 14 15  2  0  0  0  0
 15 16  1  0  0  0  0
 15 32  1  0  0  0  0
 16 17  1  0  0  0  0
 16 45  1  0  0  0  0
 17 18  1  0  0  0  0
 17 22  2  0  0  0  0
 18 19  2  0  0  0  0
 18 46  1  0  0  0  0
 19 20  1  0  0  0  0
 19 47  1  0  0  0  0
 20 21  2  0  0  0  0
 20 31  1  0  0  0  0
 21 22  1  0  0  0  0
 21 23  1  0  0  0  0
 22 48  1  0  0  0  0
 23 24  1  0  0  0  0
 23 30  1  0  0  0  0
 24 25  2  0  0  0  0
 24 26  1  0  0  0  0
 26 27  1  0  0  0  0
 26 49  1  0  0  0  0
 26 50  1  0  0  0  0
 27 28  1  0  0  0  0
 27 29  1  0  0  0  0
 28 51  1  0  0  0  0
 28 52  1  0  0  0  0
 28 53  1  0  0  0  0
 29 54  1  0  0  0  0
 29 55  1  0  0  0  0
 29 56  1  0  0  0  0
 30 31  1  0  0  0  0
 30 57  1  0  0  0  0
 30 58  1  0  0  0  0
 31 59  1  0  0  0  0
 31 60  1  0  0  0  0
 32 33  1  0  0  0  0
 32 37  2  0  0  0  0
 33 34  2  0  0  0  0
 33 61  1  0  0  0  0
 34 35  1  0  0  0  0
 34 62  1  0  0  0  0
 35 36  2  0  0  0  0
 35 63  1  0  0  0  0
 36 37  1  0  0  0  0
 36 64  1  0  0  0  0
 37 65  1  0  0  0  0
M  END
$$$$
