CHEMBL4086643
 OpenBabel04072215383D

 66 70  0  0  0  0  0  0  0  0999 V2000
    2.0308   -0.1272   -0.9073 C   0  0  0  0  0  0  0  0  0  0  0  0
    0.5893    0.0955   -1.0057 N   0  0  0  0  0  0  0  0  0  0  0  0
   -0.1503   -1.1274   -0.6572 C   0  0  0  0  0  0  0  0  0  0  0  0
   -1.6805   -0.8997   -0.6803 C   0  0  0  0  0  0  0  0  0  0  0  0
   -2.1615    0.1584    0.2384 N   0  0  0  0  0  0  0  0  0  0  0  0
   -2.0160   -0.1703    1.6710 C   0  0  0  0  0  0  0  0  0  0  0  0
   -2.7403   -1.4364    2.1296 C   0  0  0  0  0  0  0  0  0  0  0  0
   -1.9993   -2.6273    2.0808 C   0  0  0  0  0  0  0  0  0  0  0  0
   -2.5354   -3.8611    2.4543 C   0  0  0  0  0  0  0  0  0  0  0  0
   -3.8256   -3.9721    2.9601 C   0  0  0  0  0  0  0  0  0  0  0  0
   -4.3492   -5.2356    3.3895 N   0  0  0  0  0  0  0  0  0  0  0  0
   -3.5519   -6.3611    3.6595 C   0  0  0  0  0  0  0  0  0  0  0  0
   -2.3275   -6.3461    3.7150 O   0  0  0  0  0  0  0  0  0  0  0  0
   -4.1895   -7.6929    3.9268 C   0  0  0  0  0  0  0  0  0  0  0  0
   -5.4723   -8.0299    3.4829 C   0  0  0  0  0  0  0  0  0  0  0  0
   -5.9409   -9.3432    3.6636 C   0  0  0  0  0  0  0  0  0  0  0  0
   -5.1377  -10.3090    4.2653 C   0  0  0  0  0  0  0  0  0  0  0  0
   -5.6185  -11.5512    4.3834 F   0  0  0  0  0  0  0  0  0  0  0  0
   -3.8490  -10.0065    4.7092 C   0  0  0  0  0  0  0  0  0  0  0  0
   -3.0270  -11.0601    5.2534 C   0  0  0  0  0  0  0  0  0  0  0  0
   -2.4581  -12.0628    5.5924 C   0  0  0  0  0  0  0  0  0  0  0  0
   -1.9383  -13.3827    5.8621 C   0  0  0  0  0  0  0  0  0  0  0  0
   -1.3385  -13.6821    7.0810 C   0  0  0  0  0  0  0  0  0  0  0  0
   -0.9414  -14.9240    7.4545 N   0  0  0  0  0  0  0  0  0  0  0  0
   -1.0918  -15.9060    6.5362 C   0  0  0  0  0  0  0  0  0  0  0  0
   -1.5704  -15.7096    5.2402 C   0  0  0  0  0  0  0  0  0  0  0  0
   -1.5699  -16.7412    4.2817 C   0  0  0  0  0  0  0  0  0  0  0  0
   -2.0488  -16.5114    2.9926 C   0  0  0  0  0  0  0  0  0  0  0  0
   -2.5888  -15.2738    2.6684 C   0  0  0  0  0  0  0  0  0  0  0  0
   -2.5982  -14.2466    3.6138 C   0  0  0  0  0  0  0  0  0  0  0  0
   -2.0467  -14.4226    4.9044 C   0  0  0  0  0  0  0  0  0  0  0  0
   -3.3853   -8.6968    4.5423 C   0  0  0  0  0  0  0  0  0  0  0  0
   -4.5908   -2.7945    3.0104 C   0  0  0  0  0  0  0  0  0  0  0  0
   -4.0696   -1.5165    2.5955 C   0  0  0  0  0  0  0  0  0  0  0  0
   -4.9871   -0.3113    2.7268 C   0  0  0  0  0  0  0  0  0  0  0  0
   -4.4793    0.8819    2.3185 F   0  0  0  0  0  0  0  0  0  0  0  0
   -6.1506   -0.4697    2.0334 F   0  0  0  0  0  0  0  0  0  0  0  0
   -5.3657   -0.1104    4.0233 F   0  0  0  0  0  0  0  0  0  0  0  0
   -1.3901    1.3881   -0.0993 C   0  0  0  0  0  0  0  0  0  0  0  0
    0.1571    1.2166   -0.1489 C   0  0  0  0  0  0  0  0  0  0  0  0
    2.3359   -0.9655   -1.5446 H   0  0  0  0  0  0  0  0  0  0  0  0
    2.3492   -0.3483    0.1183 H   0  0  0  0  0  0  0  0  0  0  0  0
    2.5812    0.7519   -1.2585 H   0  0  0  0  0  0  0  0  0  0  0  0
    0.1684   -1.4833    0.3280 H   0  0  0  0  0  0  0  0  0  0  0  0
    0.0897   -1.9213   -1.3742 H   0  0  0  0  0  0  0  0  0  0  0  0
   -2.2083   -1.8423   -0.5065 H   0  0  0  0  0  0  0  0  0  0  0  0
   -1.9677   -0.6148   -1.7029 H   0  0  0  0  0  0  0  0  0  0  0  0
   -2.3543    0.6745    2.2804 H   0  0  0  0  0  0  0  0  0  0  0  0
   -0.9582   -0.2726    1.9456 H   0  0  0  0  0  0  0  0  0  0  0  0
   -0.9729   -2.6246    1.7341 H   0  0  0  0  0  0  0  0  0  0  0  0
   -1.8954   -4.7248    2.3152 H   0  0  0  0  0  0  0  0  0  0  0  0
   -5.3356   -5.2692    3.6192 H   0  0  0  0  0  0  0  0  0  0  0  0
   -6.0977   -7.3215    2.9525 H   0  0  0  0  0  0  0  0  0  0  0  0
   -6.9293   -9.6304    3.3058 H   0  0  0  0  0  0  0  0  0  0  0  0
   -1.1529  -12.9132    7.8266 H   0  0  0  0  0  0  0  0  0  0  0  0
   -0.8035  -16.8967    6.8835 H   0  0  0  0  0  0  0  0  0  0  0  0
   -1.1646  -17.7213    4.5241 H   0  0  0  0  0  0  0  0  0  0  0  0
   -2.0019  -17.2978    2.2428 H   0  0  0  0  0  0  0  0  0  0  0  0
   -2.9925  -15.0950    1.6749 H   0  0  0  0  0  0  0  0  0  0  0  0
   -3.0286  -13.2912    3.3229 H   0  0  0  0  0  0  0  0  0  0  0  0
   -2.3728   -8.4498    4.8585 H   0  0  0  0  0  0  0  0  0  0  0  0
   -5.6087   -2.8290    3.4013 H   0  0  0  0  0  0  0  0  0  0  0  0
   -1.6466    2.2002    0.5918 H   0  0  0  0  0  0  0  0  0  0  0  0
   -1.7237    1.7317   -1.0887 H   0  0  0  0  0  0  0  0  0  0  0  0
    0.5352    1.0865    0.8731 H   0  0  0  0  0  0  0  0  0  0  0  0
    0.5939    2.1459   -0.5353 H   0  0  0  0  0  0  0  0  0  0  0  0
  1  2  1  0  0  0  0
  1 41  1  0  0  0  0
  1 42  1  0  0  0  0
  1 43  1  0  0  0  0
  2  3  1  0  0  0  0
  2 40  1  0  0  0  0
  3  4  1  0  0  0  0
  3 44  1  0  0  0  0
  3 45  1  0  0  0  0
  4  5  1  0  0  0  0
  4 46  1  0  0  0  0
  4 47  1  0  0  0  0
  5  6  1  0  0  0  0
  5 39  1  0  0  0  0
  6  7  1  0  0  0  0
  6 48  1  0  0  0  0
  6 49  1  0  0  0  0
  7  8  1  0  0  0  0
  7 34  2  0  0  0  0
  8  9  2  0  0  0  0
  8 50  1  0  0  0  0
  9 10  1  0  0  0  0
  9 51  1  0  0  0  0
 10 11  1  0  0  0  0
 10 33  2  0  0  0  0
 11 12  1  0  0  0  0
 11 52  1  0  0  0  0
 12 13  2  0  0  0  0
 12 14  1  0  0  0  0
 14 15  1  0  0  0  0
 14 32  2  0  0  0  0
 15 16  2  0  0  0  0
 15 53  1  0  0  0  0
 16 17  1  0  0  0  0
 16 54  1  0  0  0  0
 17 18  1  0  0  0  0
 17 19  2  0  0  0  0
 19 20  1  0  0  0  0
 19 32  1  0  0  0  0
 20 21  3  0  0  0  0
 21 22  1  0  0  0  0
 22 23  1  0  0  0  0
 22 31  2  0  0  0  0
 23 24  2  0  0  0  0
 23 55  1  0  0  0  0
 24 25  1  0  0  0  0
 25 26  2  0  0  0  0
 25 56  1  0  0  0  0
 26 27  1  0  0  0  0
 26 31  1  0  0  0  0
 27 28  2  0  0  0  0
 27 57  1  0  0  0  0
 28 29  1  0  0  0  0
 28 58  1  0  0  0  0
 29 30  2  0  0  0  0
 29 59  1  0  0  0  0
 30 31  1  0  0  0  0
 30 60  1  0  0  0  0
 32 61  1  0  0  0  0
 33 34  1  0  0  0  0
 33 62  1  0  0  0  0
 34 35  1  0  0  0  0
 35 36  1  0  0  0  0
 35 37  1  0  0  0  0
 35 38  1  0  0  0  0
 39 40  1  0  0  0  0
 39 63  1  0  0  0  0
 39 64  1  0  0  0  0
 40 65  1  0  0  0  0
 40 66  1  0  0  0  0
M  END
$$$$
