CHEMBL3657553
 OpenBabel04072215373D

 61 65  0  0  1  0  0  0  0  0999 V2000
    2.4047   -1.4935   -1.8313 C   0  0  0  0  0  0  0  0  0  0  0  0
    2.8909   -0.2722   -1.1363 C   0  0  0  0  0  0  0  0  0  0  0  0
    4.1947    0.0296   -1.1586 N   0  0  0  0  0  0  0  0  0  0  0  0
    4.3112    1.1369   -0.3716 N   0  0  0  0  0  0  0  0  0  0  0  0
    5.5244    1.8889   -0.2848 C   0  0  0  0  0  0  0  0  0  0  0  0
    6.5546    1.5474   -1.1358 C   0  0  0  0  0  0  0  0  0  0  0  0
    7.6662    2.3406   -1.0605 C   0  0  0  0  0  0  0  0  0  0  0  0
    7.7865    3.3604   -0.1979 N   0  0  0  0  0  0  0  0  0  0  0  0
    6.7539    3.6243    0.6178 C   0  0  0  0  0  0  0  0  0  0  0  0
    6.8430    4.6600    1.5522 N   0  0  0  0  0  0  0  0  0  0  0  0
    7.9510    5.1622    2.2661 C   0  0  0  0  0  0  0  0  0  0  0  0
    9.2623    4.7195    2.0732 C   0  0  0  0  0  0  0  0  0  0  0  0
   10.3420    5.2121    2.8216 C   0  0  0  0  0  0  0  0  0  0  0  0
   10.0847    6.1883    3.7915 C   0  0  0  0  0  0  0  0  0  0  0  0
    8.8040    6.7046    3.9826 C   0  0  0  0  0  0  0  0  0  0  0  0
    7.7414    6.2039    3.1896 C   0  0  0  0  0  0  0  0  0  0  0  0
    8.9028    7.6711    5.0225 C   0  0  0  0  0  0  0  0  0  0  0  0
    7.5946    8.5913    5.6132 Cl  0  0  0  0  0  0  0  0  0  0  0  0
   10.2069    7.6938    5.4831 C   0  0  0  0  0  0  0  0  0  0  0  0
   10.8098    8.4688    6.6023 C   0  0  0  0  0  0  0  0  0  0  0  0
   10.9235    6.8123    4.6998 N   0  0  0  0  0  0  0  0  0  0  0  0
   12.3410    6.5332    4.8010 C   0  0  0  0  0  0  0  0  0  0  0  0
    5.5994    2.9340    0.5843 N   0  0  0  0  0  0  0  0  0  0  0  0
    3.1058    1.4424    0.2220 C   0  0  0  0  0  0  0  0  0  0  0  0
    2.1331    0.6954   -0.4187 C   0  0  0  0  0  0  0  0  0  0  0  0
    0.6442    0.8029   -0.3516 C   0  0  0  0  0  0  0  0  0  0  0  0
    0.0867    2.1085   -0.7578 N   0  0  0  0  0  0  0  0  0  0  0  0
    0.4445    2.5811   -2.1022 C   0  0  0  0  0  0  0  0  0  0  0  0
    1.4454    3.7288   -1.9429 C   0  0  2  0  0  0  0  0  0  0  0  0
    2.8051    3.3163   -2.0532 O   0  0  0  0  0  0  0  0  0  0  0  0
    1.1885    4.2844   -0.5499 C   0  0  0  0  0  0  0  0  0  0  0  0
    0.3725    3.2214    0.1922 C   0  0  1  0  0  0  0  0  0  0  0  0
   -0.9597    3.8200    0.6750 C   0  0  0  0  0  0  0  0  0  0  0  0
   -1.0589    4.7479    1.4631 O   0  0  0  0  0  0  0  0  0  0  0  0
   -2.0363    3.2064    0.1209 O   0  0  0  0  0  0  0  0  0  0  0  0
    3.2350   -2.1325   -2.1526 H   0  0  0  0  0  0  0  0  0  0  0  0
    1.8099   -1.2330   -2.7102 H   0  0  0  0  0  0  0  0  0  0  0  0
    1.7801   -2.0878   -1.1537 H   0  0  0  0  0  0  0  0  0  0  0  0
    6.4938    0.7373   -1.8507 H   0  0  0  0  0  0  0  0  0  0  0  0
    8.5198    2.1814   -1.7112 H   0  0  0  0  0  0  0  0  0  0  0  0
    5.9564    4.7459    2.0313 H   0  0  0  0  0  0  0  0  0  0  0  0
    9.4803    3.9427    1.3435 H   0  0  0  0  0  0  0  0  0  0  0  0
   11.3403    4.8201    2.6542 H   0  0  0  0  0  0  0  0  0  0  0  0
    6.7464    6.6181    3.3301 H   0  0  0  0  0  0  0  0  0  0  0  0
   10.0630    9.0751    7.1238 H   0  0  0  0  0  0  0  0  0  0  0  0
   11.5887    9.1438    6.2344 H   0  0  0  0  0  0  0  0  0  0  0  0
   11.2513    7.7913    7.3410 H   0  0  0  0  0  0  0  0  0  0  0  0
   12.7868    7.0950    5.6229 H   0  0  0  0  0  0  0  0  0  0  0  0
   12.8168    6.8249    3.8608 H   0  0  0  0  0  0  0  0  0  0  0  0
   12.4697    5.4631    4.9837 H   0  0  0  0  0  0  0  0  0  0  0  0
    3.0526    2.2610    0.9239 H   0  0  0  0  0  0  0  0  0  0  0  0
    0.2961    0.5509    0.6556 H   0  0  0  0  0  0  0  0  0  0  0  0
    0.1951    0.0483   -1.0115 H   0  0  0  0  0  0  0  0  0  0  0  0
   -0.4650    2.9958   -2.5495 H   0  0  0  0  0  0  0  0  0  0  0  0
    0.7953    1.7866   -2.7717 H   0  0  0  0  0  0  0  0  0  0  0  0
    1.2965    4.4995   -2.7025 H   0  0  0  0  0  0  0  0  0  0  0  0
    2.8339    2.4011   -2.3809 H   0  0  0  0  0  0  0  0  0  0  0  0
    0.6287    5.2212   -0.6321 H   0  0  0  0  0  0  0  0  0  0  0  0
    2.1206    4.4945   -0.0147 H   0  0  0  0  0  0  0  0  0  0  0  0
    0.8732    2.8680    1.0994 H   0  0  0  0  0  0  0  0  0  0  0  0
   -1.6813    2.4959   -0.4630 H   0  0  0  0  0  0  0  0  0  0  0  0
  1  2  1  0  0  0  0
  1 36  1  0  0  0  0
  1 37  1  0  0  0  0
  1 38  1  0  0  0  0
  2  3  2  0  0  0  0
  2 25  1  0  0  0  0
  3  4  1  0  0  0  0
  4  5  1  0  0  0  0
  4 24  1  0  0  0  0
  5  6  1  0  0  0  0
  5 23  2  0  0  0  0
  6  7  2  0  0  0  0
  6 39  1  0  0  0  0
  7  8  1  0  0  0  0
  7 40  1  0  0  0  0
  8  9  2  0  0  0  0
  9 10  1  0  0  0  0
  9 23  1  0  0  0  0
 10 11  1  0  0  0  0
 10 41  1  0  0  0  0
 11 12  1  0  0  0  0
 11 16  2  0  0  0  0
 12 13  2  0  0  0  0
 12 42  1  0  0  0  0
 13 14  1  0  0  0  0
 13 43  1  0  0  0  0
 14 15  2  0  0  0  0
 14 21  1  0  0  0  0
 15 16  1  0  0  0  0
 15 17  1  0  0  0  0
 16 44  1  0  0  0  0
 17 18  1  0  0  0  0
 17 19  2  0  0  0  0
 19 20  1  0  0  0  0
 19 21  1  0  0  0  0
 20 45  1  0  0  0  0
 20 46  1  0  0  0  0
 20 47  1  0  0  0  0
 21 22  1  0  0  0  0
 22 48  1  0  0  0  0
 22 49  1  0  0  0  0
 22 50  1  0  0  0  0
 24 25  2  0  0  0  0
 24 51  1  0  0  0  0
 25 26  1  0  0  0  0
 26 27  1  0  0  0  0
 26 52  1  0  0  0  0
 26 53  1  0  0  0  0
 27 28  1  0  0  0  0
 27 32  1  0  0  0  0
 28 29  1  0  0  0  0
 28 54  1  0  0  0  0
 28 55  1  0  0  0  0
 29 30  1  0  0  0  0
 29 31  1  0  0  0  0
 29 56  1  6  0  0  0
 30 57  1  0  0  0  0
 31 32  1  0  0  0  0
 31 58  1  0  0  0  0
 31 59  1  0  0  0  0
 32 33  1  0  0  0  0
 32 60  1  1  0  0  0
 33 34  2  0  0  0  0
 33 35  1  0  0  0  0
 35 61  1  0  0  0  0
M  END
$$$$
