CHEMBL3752391
 OpenBabel04072215373D

 61 65  0  0  0  0  0  0  0  0999 V2000
    9.8844   -6.0015   -8.9661 C   0  0  0  0  0  0  0  0  0  0  0  0
   11.0880   -5.5375   -8.1711 C   0  0  0  0  0  0  0  0  0  0  0  0
   12.1688   -5.3897   -8.7428 O   0  0  0  0  0  0  0  0  0  0  0  0
   10.9155   -5.2864   -6.7486 C   0  0  0  0  0  0  0  0  0  0  0  0
    9.4223   -5.5660   -5.9739 S   0  0  0  0  0  0  0  0  0  0  0  0
   10.0470   -4.9787   -4.5105 C   0  0  0  0  0  0  0  0  0  0  0  0
    9.2636   -4.9056   -3.3899 N   0  0  0  0  0  0  0  0  0  0  0  0
    7.8924   -5.0264   -3.3607 C   0  0  0  0  0  0  0  0  0  0  0  0
    7.1313   -5.0610   -4.3274 O   0  0  0  0  0  0  0  0  0  0  0  0
    7.3055   -5.0332   -1.9560 C   0  0  0  0  0  0  0  0  0  0  0  0
    8.2088   -5.6549   -0.9590 N   0  0  0  0  0  0  0  0  0  0  0  0
    8.3591   -7.1221   -1.1660 C   0  0  0  0  0  0  0  0  0  0  0  0
    7.0999   -7.9963   -0.9329 C   0  0  0  0  0  0  0  0  0  0  0  0
    6.3833   -7.6306    0.2975 N   0  0  0  0  0  0  0  0  0  0  0  0
    5.8583   -8.6371    1.0989 C   0  0  0  0  0  0  0  0  0  0  0  0
    6.5213   -9.8130    1.1269 N   0  0  0  0  0  0  0  0  0  0  0  0
    6.1403  -10.8529    1.9499 N   0  0  0  0  0  0  0  0  0  0  0  0
    5.1135  -10.7095    2.8156 C   0  0  0  0  0  0  0  0  0  0  0  0
    4.7816  -11.9541    3.5691 C   0  0  0  0  0  0  0  0  0  0  0  0
    5.7823  -12.8694    3.9477 C   0  0  0  0  0  0  0  0  0  0  0  0
    5.4806  -14.0332    4.6698 C   0  0  0  0  0  0  0  0  0  0  0  0
    4.1693  -14.3028    5.0473 C   0  0  0  0  0  0  0  0  0  0  0  0
    3.1534  -13.4407    4.6559 C   0  0  0  0  0  0  0  0  0  0  0  0
    3.4557  -12.3068    3.8949 C   0  0  0  0  0  0  0  0  0  0  0  0
    4.4109   -9.4864    2.8866 C   0  0  0  0  0  0  0  0  0  0  0  0
    3.4079   -9.1969    3.8532 C   0  0  0  0  0  0  0  0  0  0  0  0
    2.6138   -8.0536    3.7996 C   0  0  0  0  0  0  0  0  0  0  0  0
    2.7974   -7.1569    2.7680 C   0  0  0  0  0  0  0  0  0  0  0  0
    3.8240   -7.3777    1.8531 C   0  0  0  0  0  0  0  0  0  0  0  0
    4.7191   -8.4801    1.9339 C   0  0  0  0  0  0  0  0  0  0  0  0
    6.3125   -6.2110    0.6499 C   0  0  0  0  0  0  0  0  0  0  0  0
    7.6434   -5.4728    0.3981 C   0  0  0  0  0  0  0  0  0  0  0  0
   11.3210   -4.6751   -4.5212 N   0  0  0  0  0  0  0  0  0  0  0  0
   11.8284   -4.8124   -5.8149 C   0  0  0  0  0  0  0  0  0  0  0  0
   13.2462   -4.4329   -6.0642 C   0  0  0  0  0  0  0  0  0  0  0  0
   10.1494   -6.0804  -10.0234 H   0  0  0  0  0  0  0  0  0  0  0  0
    9.0667   -5.2805   -8.8782 H   0  0  0  0  0  0  0  0  0  0  0  0
    9.5592   -6.9891   -8.6203 H   0  0  0  0  0  0  0  0  0  0  0  0
    9.7465   -4.7333   -2.5159 H   0  0  0  0  0  0  0  0  0  0  0  0
    6.3345   -5.5370   -2.0115 H   0  0  0  0  0  0  0  0  0  0  0  0
    7.1276   -3.9817   -1.6971 H   0  0  0  0  0  0  0  0  0  0  0  0
    9.1438   -7.4632   -0.4770 H   0  0  0  0  0  0  0  0  0  0  0  0
    8.7550   -7.3261   -2.1677 H   0  0  0  0  0  0  0  0  0  0  0  0
    7.4214   -9.0445   -0.9469 H   0  0  0  0  0  0  0  0  0  0  0  0
    6.4120   -7.8746   -1.7780 H   0  0  0  0  0  0  0  0  0  0  0  0
    6.8206  -12.6885    3.6706 H   0  0  0  0  0  0  0  0  0  0  0  0
    6.2740  -14.7280    4.9351 H   0  0  0  0  0  0  0  0  0  0  0  0
    3.9358  -15.1920    5.6272 H   0  0  0  0  0  0  0  0  0  0  0  0
    2.1226  -13.6487    4.9305 H   0  0  0  0  0  0  0  0  0  0  0  0
    2.6203  -11.7010    3.5515 H   0  0  0  0  0  0  0  0  0  0  0  0
    3.2317   -9.8719    4.6887 H   0  0  0  0  0  0  0  0  0  0  0  0
    1.8400   -7.8855    4.5427 H   0  0  0  0  0  0  0  0  0  0  0  0
    2.1622   -6.2810    2.6743 H   0  0  0  0  0  0  0  0  0  0  0  0
    3.9017   -6.6679    1.0361 H   0  0  0  0  0  0  0  0  0  0  0  0
    6.0697   -6.0612    1.7069 H   0  0  0  0  0  0  0  0  0  0  0  0
    5.5253   -5.7383    0.0512 H   0  0  0  0  0  0  0  0  0  0  0  0
    8.3827   -5.8182    1.1317 H   0  0  0  0  0  0  0  0  0  0  0  0
    7.5027   -4.4033    0.6003 H   0  0  0  0  0  0  0  0  0  0  0  0
   13.7078   -4.0269   -5.1582 H   0  0  0  0  0  0  0  0  0  0  0  0
   13.3071   -3.6649   -6.8420 H   0  0  0  0  0  0  0  0  0  0  0  0
   13.8297   -5.3025   -6.3813 H   0  0  0  0  0  0  0  0  0  0  0  0
  1  2  1  0  0  0  0
  1 36  1  0  0  0  0
  1 37  1  0  0  0  0
  1 38  1  0  0  0  0
  2  3  2  0  0  0  0
  2  4  1  0  0  0  0
  4  5  1  0  0  0  0
  4 34  2  0  0  0  0
  5  6  1  0  0  0  0
  6  7  1  0  0  0  0
  6 33  2  0  0  0  0
  7  8  1  0  0  0  0
  7 39  1  0  0  0  0
  8  9  2  0  0  0  0
  8 10  1  0  0  0  0
 10 11  1  0  0  0  0
 10 40  1  0  0  0  0
 10 41  1  0  0  0  0
 11 12  1  0  0  0  0
 11 32  1  0  0  0  0
 12 13  1  0  0  0  0
 12 42  1  0  0  0  0
 12 43  1  0  0  0  0
 13 14  1  0  0  0  0
 13 44  1  0  0  0  0
 13 45  1  0  0  0  0
 14 15  1  0  0  0  0
 14 31  1  0  0  0  0
 15 16  1  0  0  0  0
 15 30  2  0  0  0  0
 16 17  2  0  0  0  0
 17 18  1  0  0  0  0
 18 19  1  0  0  0  0
 18 25  2  0  0  0  0
 19 20  1  0  0  0  0
 19 24  2  0  0  0  0
 20 21  2  0  0  0  0
 20 46  1  0  0  0  0
 21 22  1  0  0  0  0
 21 47  1  0  0  0  0
 22 23  2  0  0  0  0
 22 48  1  0  0  0  0
 23 24  1  0  0  0  0
 23 49  1  0  0  0  0
 24 50  1  0  0  0  0
 25 26  1  0  0  0  0
 25 30  1  0  0  0  0
 26 27  2  0  0  0  0
 26 51  1  0  0  0  0
 27 28  1  0  0  0  0
 27 52  1  0  0  0  0
 28 29  2  0  0  0  0
 28 53  1  0  0  0  0
 29 30  1  0  0  0  0
 29 54  1  0  0  0  0
 31 32  1  0  0  0  0
 31 55  1  0  0  0  0
 31 56  1  0  0  0  0
 32 57  1  0  0  0  0
 32 58  1  0  0  0  0
 33 34  1  0  0  0  0
 34 35  1  0  0  0  0
 35 59  1  0  0  0  0
 35 60  1  0  0  0  0
 35 61  1  0  0  0  0
M  END
$$$$
