CHEMBL3690470
 OpenBabel04072215373D

 54 57  0  0  0  0  0  0  0  0999 V2000
    3.8617   -1.4980    2.9724 O   0  0  0  0  0  0  0  0  0  0  0  0
    4.0031   -2.6127    2.4869 C   0  0  0  0  0  0  0  0  0  0  0  0
    3.5144   -3.7367    3.1226 N   0  0  0  0  0  0  0  0  0  0  0  0
    2.9052   -3.5862    4.4488 C   0  0  0  0  0  0  0  0  0  0  0  0
    3.8949   -3.5320    5.6207 C   0  0  0  0  0  0  0  0  0  0  0  0
    5.1706   -3.7320    5.2134 F   0  0  0  0  0  0  0  0  0  0  0  0
    3.8431   -2.3614    6.2868 F   0  0  0  0  0  0  0  0  0  0  0  0
    3.6124   -4.5181    6.5088 F   0  0  0  0  0  0  0  0  0  0  0  0
    4.6075   -2.9376    1.2949 N   0  0  0  0  0  0  0  0  0  0  0  0
    5.2231   -2.0591    0.3774 C   0  0  0  0  0  0  0  0  0  0  0  0
    5.2887   -0.6775    0.5463 C   0  0  0  0  0  0  0  0  0  0  0  0
    5.9295    0.1191   -0.4041 C   0  0  0  0  0  0  0  0  0  0  0  0
    6.5574   -0.4649   -1.5043 C   0  0  0  0  0  0  0  0  0  0  0  0
    6.5407   -1.8534   -1.6808 C   0  0  0  0  0  0  0  0  0  0  0  0
    7.2810   -2.4540   -2.7994 C   0  0  0  0  0  0  0  0  0  0  0  0
    7.4965   -1.9620   -4.0790 C   0  0  0  0  0  0  0  0  0  0  0  0
    8.2711   -2.7978   -4.8365 N   0  0  0  0  0  0  0  0  0  0  0  0
    8.5595   -3.8068   -4.0463 C   0  0  0  0  0  0  0  0  0  0  0  0
    9.3268   -4.9838   -4.2911 C   0  0  0  0  0  0  0  0  0  0  0  0
    9.4950   -5.9044   -3.3153 C   0  0  0  0  0  0  0  0  0  0  0  0
   10.2551   -7.1261   -3.6154 C   0  0  0  0  0  0  0  0  0  0  0  0
   11.6387   -7.1756   -3.4191 C   0  0  0  0  0  0  0  0  0  0  0  0
   12.3329   -8.3660   -3.6370 C   0  0  0  0  0  0  0  0  0  0  0  0
   11.6470   -9.5155   -4.0368 C   0  0  0  0  0  0  0  0  0  0  0  0
   10.2607   -9.4827   -4.2295 C   0  0  0  0  0  0  0  0  0  0  0  0
    9.4915  -10.7297   -4.5972 C   0  0  0  0  0  0  0  0  0  0  0  0
    9.0250  -11.5154   -3.3700 C   0  0  0  0  0  0  0  0  0  0  0  0
    8.1073  -10.7619   -2.5771 O   0  0  0  0  0  0  0  0  0  0  0  0
    9.5746   -8.2773   -4.0260 C   0  0  0  0  0  0  0  0  0  0  0  0
    8.9203   -5.6839   -1.9909 C   0  0  0  0  0  0  0  0  0  0  0  0
    8.2156   -4.5688   -1.7500 C   0  0  0  0  0  0  0  0  0  0  0  0
    8.0042   -3.6437   -2.7763 N   0  0  0  0  0  0  0  0  0  0  0  0
    5.8153   -2.6287   -0.7604 C   0  0  0  0  0  0  0  0  0  0  0  0
    4.0381   -4.5875    2.9721 H   0  0  0  0  0  0  0  0  0  0  0  0
    2.2337   -4.4417    4.5728 H   0  0  0  0  0  0  0  0  0  0  0  0
    2.2844   -2.6829    4.4532 H   0  0  0  0  0  0  0  0  0  0  0  0
    4.5840   -3.9125    1.0391 H   0  0  0  0  0  0  0  0  0  0  0  0
    4.8431   -0.1830    1.4036 H   0  0  0  0  0  0  0  0  0  0  0  0
    5.9531    1.1982   -0.2733 H   0  0  0  0  0  0  0  0  0  0  0  0
    7.0744    0.1814   -2.2103 H   0  0  0  0  0  0  0  0  0  0  0  0
    7.1221   -1.0352   -4.4959 H   0  0  0  0  0  0  0  0  0  0  0  0
    9.7516   -5.1092   -5.2818 H   0  0  0  0  0  0  0  0  0  0  0  0
   12.1768   -6.2915   -3.0836 H   0  0  0  0  0  0  0  0  0  0  0  0
   13.4077   -8.3997   -3.4822 H   0  0  0  0  0  0  0  0  0  0  0  0
   12.2039  -10.4383   -4.1882 H   0  0  0  0  0  0  0  0  0  0  0  0
   10.1194  -11.3719   -5.2257 H   0  0  0  0  0  0  0  0  0  0  0  0
    8.6253  -10.4447   -5.2071 H   0  0  0  0  0  0  0  0  0  0  0  0
    9.8637  -11.8164   -2.7348 H   0  0  0  0  0  0  0  0  0  0  0  0
    8.5029  -12.4216   -3.6932 H   0  0  0  0  0  0  0  0  0  0  0  0
    8.6161  -10.0311   -2.1812 H   0  0  0  0  0  0  0  0  0  0  0  0
    8.4939   -8.2430   -4.1645 H   0  0  0  0  0  0  0  0  0  0  0  0
    9.0864   -6.4273   -1.2176 H   0  0  0  0  0  0  0  0  0  0  0  0
    7.8082   -4.3629   -0.7721 H   0  0  0  0  0  0  0  0  0  0  0  0
    5.7163   -3.6977   -0.9240 H   0  0  0  0  0  0  0  0  0  0  0  0
  1  2  2  0  0  0  0
  2  3  1  0  0  0  0
  2  9  1  0  0  0  0
  3  4  1  0  0  0  0
  3 34  1  0  0  0  0
  4  5  1  0  0  0  0
  4 35  1  0  0  0  0
  4 36  1  0  0  0  0
  5  6  1  0  0  0  0
  5  7  1  0  0  0  0
  5  8  1  0  0  0  0
  9 10  1  0  0  0  0
  9 37  1  0  0  0  0
 10 11  1  0  0  0  0
 10 33  2  0  0  0  0
 11 12  2  0  0  0  0
 11 38  1  0  0  0  0
 12 13  1  0  0  0  0
 12 39  1  0  0  0  0
 13 14  2  0  0  0  0
 13 40  1  0  0  0  0
 14 15  1  0  0  0  0
 14 33  1  0  0  0  0
 15 16  2  0  0  0  0
 15 32  1  0  0  0  0
 16 17  1  0  0  0  0
 16 41  1  0  0  0  0
 17 18  2  0  0  0  0
 18 19  1  0  0  0  0
 18 32  1  0  0  0  0
 19 20  2  0  0  0  0
 19 42  1  0  0  0  0
 20 21  1  0  0  0  0
 20 30  1  0  0  0  0
 21 22  1  0  0  0  0
 21 29  2  0  0  0  0
 22 23  2  0  0  0  0
 22 43  1  0  0  0  0
 23 24  1  0  0  0  0
 23 44  1  0  0  0  0
 24 25  2  0  0  0  0
 24 45  1  0  0  0  0
 25 26  1  0  0  0  0
 25 29  1  0  0  0  0
 26 27  1  0  0  0  0
 26 46  1  0  0  0  0
 26 47  1  0  0  0  0
 27 28  1  0  0  0  0
 27 48  1  0  0  0  0
 27 49  1  0  0  0  0
 28 50  1  0  0  0  0
 29 51  1  0  0  0  0
 30 31  2  0  0  0  0
 30 52  1  0  0  0  0
 31 32  1  0  0  0  0
 31 53  1  0  0  0  0
 33 54  1  0  0  0  0
M  END
$$$$
