CHEMBL1242033
 OpenBabel04072215363D

 56 59  0  0  0  0  0  0  0  0999 V2000
    0.7920    0.0825    1.2084 C   0  0  0  0  0  0  0  0  0  0  0  0
    2.0243   -0.4138    0.4425 C   0  0  0  0  0  0  0  0  0  0  0  0
    2.7274    0.7538   -0.2470 C   0  0  0  0  0  0  0  0  0  0  0  0
    2.9321   -1.2103    1.2712 N   0  0  0  0  0  0  0  0  0  0  0  0
    3.4924   -0.6997    2.3877 N   0  0  0  0  0  0  0  0  0  0  0  0
    4.0560   -1.7603    3.0237 C   0  0  0  0  0  0  0  0  0  0  0  0
    4.4432   -1.6037    4.4525 C   0  0  0  0  0  0  0  0  0  0  0  0
    3.5760   -0.7852    5.1819 C   0  0  0  0  0  0  0  0  0  0  0  0
    3.7484   -0.5742    6.5372 C   0  0  0  0  0  0  0  0  0  0  0  0
    4.7806   -1.1501    7.2382 C   0  0  0  0  0  0  0  0  0  0  0  0
    4.7677   -0.8229    8.5322 N   0  0  0  0  0  0  0  0  0  0  0  0
    5.7280   -1.3012    9.3224 C   0  0  0  0  0  0  0  0  0  0  0  0
    6.7176   -2.1326    8.8632 C   0  0  0  0  0  0  0  0  0  0  0  0
    6.7238   -2.5309    7.5005 C   0  0  0  0  0  0  0  0  0  0  0  0
    7.7042   -3.4942    7.1058 N   0  0  0  0  0  0  0  0  0  0  0  0
    8.7962   -4.2880    7.2247 C   0  0  0  0  0  0  0  0  0  0  0  0
    9.3243   -4.4304    8.3183 O   0  0  0  0  0  0  0  0  0  0  0  0
    9.1510   -4.9147    6.0836 O   0  0  0  0  0  0  0  0  0  0  0  0
   10.2659   -5.8575    6.0813 C   0  0  0  0  0  0  0  0  0  0  0  0
    9.9957   -7.0922    6.9561 C   0  0  0  0  0  0  0  0  0  0  0  0
   10.3769   -6.3147    4.6194 C   0  0  0  0  0  0  0  0  0  0  0  0
   11.5897   -5.1902    6.4805 C   0  0  0  0  0  0  0  0  0  0  0  0
    5.7207   -2.0017    6.5962 C   0  0  0  0  0  0  0  0  0  0  0  0
    5.5217   -2.2074    5.1592 C   0  0  0  0  0  0  0  0  0  0  0  0
    3.9498   -2.9319    2.2122 C   0  0  0  0  0  0  0  0  0  0  0  0
    4.2636   -4.2953    2.2778 C   0  0  0  0  0  0  0  0  0  0  0  0
    4.9127   -4.9101    3.3420 N   0  0  0  0  0  0  0  0  0  0  0  0
    3.8871   -5.1044    1.2632 N   0  0  0  0  0  0  0  0  0  0  0  0
    3.1995   -4.5788    0.2331 C   0  0  0  0  0  0  0  0  0  0  0  0
    2.8139   -3.3070    0.0725 N   0  0  0  0  0  0  0  0  0  0  0  0
    3.2227   -2.5342    1.0947 C   0  0  0  0  0  0  0  0  0  0  0  0
    0.1098    0.6156    0.5342 H   0  0  0  0  0  0  0  0  0  0  0  0
    1.0629    0.7712    2.0158 H   0  0  0  0  0  0  0  0  0  0  0  0
    0.2349   -0.7517    1.6477 H   0  0  0  0  0  0  0  0  0  0  0  0
    1.6558   -1.0810   -0.3472 H   0  0  0  0  0  0  0  0  0  0  0  0
    3.0901    1.4911    0.4764 H   0  0  0  0  0  0  0  0  0  0  0  0
    2.0378    1.2665   -0.9288 H   0  0  0  0  0  0  0  0  0  0  0  0
    3.5806    0.4051   -0.8372 H   0  0  0  0  0  0  0  0  0  0  0  0
    2.7330   -0.2957    4.6964 H   0  0  0  0  0  0  0  0  0  0  0  0
    3.0421    0.0653    7.0589 H   0  0  0  0  0  0  0  0  0  0  0  0
    5.6693   -0.9958   10.3619 H   0  0  0  0  0  0  0  0  0  0  0  0
    7.4533   -2.4738    9.5890 H   0  0  0  0  0  0  0  0  0  0  0  0
    7.8716   -3.6341    8.1100 H   0  0  0  0  0  0  0  0  0  0  0  0
    9.0447   -7.5665    6.6904 H   0  0  0  0  0  0  0  0  0  0  0  0
    9.9392   -6.8410    8.0194 H   0  0  0  0  0  0  0  0  0  0  0  0
   10.7932   -7.8378    6.8428 H   0  0  0  0  0  0  0  0  0  0  0  0
    9.4429   -6.7817    4.2866 H   0  0  0  0  0  0  0  0  0  0  0  0
   11.1929   -7.0311    4.4756 H   0  0  0  0  0  0  0  0  0  0  0  0
   10.5484   -5.4564    3.9601 H   0  0  0  0  0  0  0  0  0  0  0  0
   11.5982   -4.8860    7.5312 H   0  0  0  0  0  0  0  0  0  0  0  0
   11.7670   -4.2875    5.8863 H   0  0  0  0  0  0  0  0  0  0  0  0
   12.4361   -5.8725    6.3369 H   0  0  0  0  0  0  0  0  0  0  0  0
    6.2427   -2.8288    4.6271 H   0  0  0  0  0  0  0  0  0  0  0  0
    4.6963   -4.5128    4.2448 H   0  0  0  0  0  0  0  0  0  0  0  0
    4.7934   -5.9138    3.2748 H   0  0  0  0  0  0  0  0  0  0  0  0
    2.9101   -5.2700   -0.5523 H   0  0  0  0  0  0  0  0  0  0  0  0
  1  2  1  0  0  0  0
  1 32  1  0  0  0  0
  1 33  1  0  0  0  0
  1 34  1  0  0  0  0
  2  3  1  0  0  0  0
  2  4  1  0  0  0  0
  2 35  1  0  0  0  0
  3 36  1  0  0  0  0
  3 37  1  0  0  0  0
  3 38  1  0  0  0  0
  4  5  1  0  0  0  0
  4 31  1  0  0  0  0
  5  6  2  0  0  0  0
  6  7  1  0  0  0  0
  6 25  1  0  0  0  0
  7  8  1  0  0  0  0
  7 24  2  0  0  0  0
  8  9  2  0  0  0  0
  8 39  1  0  0  0  0
  9 10  1  0  0  0  0
  9 40  1  0  0  0  0
 10 11  1  0  0  0  0
 10 23  2  0  0  0  0
 11 12  2  0  0  0  0
 12 13  1  0  0  0  0
 12 41  1  0  0  0  0
 13 14  2  0  0  0  0
 13 42  1  0  0  0  0
 14 15  1  0  0  0  0
 14 23  1  0  0  0  0
 15 16  1  0  0  0  0
 15 43  1  0  0  0  0
 16 17  2  0  0  0  0
 16 18  1  0  0  0  0
 18 19  1  0  0  0  0
 19 20  1  0  0  0  0
 19 21  1  0  0  0  0
 19 22  1  0  0  0  0
 20 44  1  0  0  0  0
 20 45  1  0  0  0  0
 20 46  1  0  0  0  0
 21 47  1  0  0  0  0
 21 48  1  0  0  0  0
 21 49  1  0  0  0  0
 22 50  1  0  0  0  0
 22 51  1  0  0  0  0
 22 52  1  0  0  0  0
 23 24  1  0  0  0  0
 24 53  1  0  0  0  0
 25 26  1  0  0  0  0
 25 31  2  0  0  0  0
 26 27  1  0  0  0  0
 26 28  2  0  0  0  0
 27 54  1  0  0  0  0
 27 55  1  0  0  0  0
 28 29  1  0  0  0  0
 29 30  2  0  0  0  0
 29 56  1  0  0  0  0
 30 31  1  0  0  0  0
M  END
$$$$
