CHEMBL1940275
 OpenBabel04072215363D

 59 62  0  0  0  0  0  0  0  0999 V2000
    5.8532   -0.8980    9.8509 C   0  0  0  0  0  0  0  0  0  0  0  0
    6.3251   -2.1811    9.4354 O   0  0  0  0  0  0  0  0  0  0  0  0
    5.6589   -2.7135    8.3622 C   0  0  0  0  0  0  0  0  0  0  0  0
    4.3013   -2.4461    8.1361 C   0  0  0  0  0  0  0  0  0  0  0  0
    3.6449   -2.8603    6.9925 C   0  0  0  0  0  0  0  0  0  0  0  0
    2.3690   -2.4939    6.8523 N   0  0  0  0  0  0  0  0  0  0  0  0
    1.7624   -2.8767    5.7312 C   0  0  0  0  0  0  0  0  0  0  0  0
    2.3142   -3.6058    4.7625 N   0  0  0  0  0  0  0  0  0  0  0  0
    3.5978   -3.9920    4.9196 C   0  0  0  0  0  0  0  0  0  0  0  0
    4.1806   -4.8214    3.9161 N   0  0  0  0  0  0  0  0  0  0  0  0
    3.4187   -5.5266    2.9539 C   0  0  0  0  0  0  0  0  0  0  0  0
    3.8408   -5.6294    1.6256 C   0  0  0  0  0  0  0  0  0  0  0  0
    2.9926   -6.1815    0.6560 C   0  0  0  0  0  0  0  0  0  0  0  0
    1.7218   -6.6561    1.0114 C   0  0  0  0  0  0  0  0  0  0  0  0
    0.6817   -6.9863   -0.0265 C   0  0  0  0  0  0  0  0  0  0  0  0
    1.0315   -8.0489   -1.0378 C   0  0  0  0  0  0  0  0  0  0  0  0
    0.7083   -7.8856   -2.2164 O   0  0  0  0  0  0  0  0  0  0  0  0
    1.5910   -9.1996   -0.5210 N   0  0  0  0  0  0  0  0  0  0  0  0
    1.8860  -10.2920   -1.3244 C   0  0  0  0  0  0  0  0  0  0  0  0
    1.9207  -10.4054   -2.7329 C   0  0  0  0  0  0  0  0  0  0  0  0
    2.1944  -11.6454   -3.1439 N   0  0  0  0  0  0  0  0  0  0  0  0
    2.2776  -12.3410   -1.9943 N   0  0  0  0  0  0  0  0  0  0  0  0
    2.3221  -13.7992   -2.0509 C   0  0  0  0  0  0  0  0  0  0  0  0
    1.0394  -14.3486   -2.6823 C   0  0  0  0  0  0  0  0  0  0  0  0
    3.5599  -14.2964   -2.7957 C   0  0  0  0  0  0  0  0  0  0  0  0
    2.1912  -11.5553   -0.8706 C   0  0  0  0  0  0  0  0  0  0  0  0
    1.3594   -6.6770    2.3588 C   0  0  0  0  0  0  0  0  0  0  0  0
    2.2105   -6.1370    3.3166 C   0  0  0  0  0  0  0  0  0  0  0  0
    4.3455   -3.6170    6.0469 C   0  0  0  0  0  0  0  0  0  0  0  0
    5.6955   -3.9595    6.2988 C   0  0  0  0  0  0  0  0  0  0  0  0
    6.3468   -3.5311    7.4611 C   0  0  0  0  0  0  0  0  0  0  0  0
    7.6537   -3.9298    7.5409 O   0  0  0  0  0  0  0  0  0  0  0  0
    8.1585   -4.1807    8.8491 C   0  0  0  0  0  0  0  0  0  0  0  0
    6.6431   -0.4167   10.4330 H   0  0  0  0  0  0  0  0  0  0  0  0
    4.9757   -1.0045   10.4973 H   0  0  0  0  0  0  0  0  0  0  0  0
    5.6283   -0.2474    8.9965 H   0  0  0  0  0  0  0  0  0  0  0  0
    3.7185   -1.8803    8.8582 H   0  0  0  0  0  0  0  0  0  0  0  0
    0.7318   -2.5725    5.5925 H   0  0  0  0  0  0  0  0  0  0  0  0
    4.9833   -4.3491    3.5136 H   0  0  0  0  0  0  0  0  0  0  0  0
    4.7979   -5.2198    1.3138 H   0  0  0  0  0  0  0  0  0  0  0  0
    3.3079   -6.1744   -0.3864 H   0  0  0  0  0  0  0  0  0  0  0  0
    0.4707   -6.0596   -0.5749 H   0  0  0  0  0  0  0  0  0  0  0  0
   -0.2609   -7.2870    0.4483 H   0  0  0  0  0  0  0  0  0  0  0  0
    1.7044   -9.3051    0.4793 H   0  0  0  0  0  0  0  0  0  0  0  0
    1.7612   -9.6364   -3.4787 H   0  0  0  0  0  0  0  0  0  0  0  0
    2.3760  -14.1532   -1.0143 H   0  0  0  0  0  0  0  0  0  0  0  0
    0.8990  -13.9766   -3.7041 H   0  0  0  0  0  0  0  0  0  0  0  0
    0.1611  -14.0457   -2.1011 H   0  0  0  0  0  0  0  0  0  0  0  0
    1.0580  -15.4420   -2.7239 H   0  0  0  0  0  0  0  0  0  0  0  0
    3.5769  -13.9461   -3.8339 H   0  0  0  0  0  0  0  0  0  0  0  0
    3.5888  -15.3910   -2.8113 H   0  0  0  0  0  0  0  0  0  0  0  0
    4.4747  -13.9401   -2.3103 H   0  0  0  0  0  0  0  0  0  0  0  0
    2.2776  -11.9764    0.1196 H   0  0  0  0  0  0  0  0  0  0  0  0
    0.3857   -7.0418    2.6760 H   0  0  0  0  0  0  0  0  0  0  0  0
    1.8840   -6.1220    4.3538 H   0  0  0  0  0  0  0  0  0  0  0  0
    6.2478   -4.5713    5.5887 H   0  0  0  0  0  0  0  0  0  0  0  0
    8.9462   -4.9359    8.7571 H   0  0  0  0  0  0  0  0  0  0  0  0
    7.4002   -4.5844    9.5287 H   0  0  0  0  0  0  0  0  0  0  0  0
    8.6167   -3.2750    9.2564 H   0  0  0  0  0  0  0  0  0  0  0  0
  1  2  1  0  0  0  0
  1 34  1  0  0  0  0
  1 35  1  0  0  0  0
  1 36  1  0  0  0  0
  2  3  1  0  0  0  0
  3  4  1  0  0  0  0
  3 31  2  0  0  0  0
  4  5  2  0  0  0  0
  4 37  1  0  0  0  0
  5  6  1  0  0  0  0
  5 29  1  0  0  0  0
  6  7  2  0  0  0  0
  7  8  1  0  0  0  0
  7 38  1  0  0  0  0
  8  9  2  0  0  0  0
  9 10  1  0  0  0  0
  9 29  1  0  0  0  0
 10 11  1  0  0  0  0
 10 39  1  0  0  0  0
 11 12  1  0  0  0  0
 11 28  2  0  0  0  0
 12 13  2  0  0  0  0
 12 40  1  0  0  0  0
 13 14  1  0  0  0  0
 13 41  1  0  0  0  0
 14 15  1  0  0  0  0
 14 27  2  0  0  0  0
 15 16  1  0  0  0  0
 15 42  1  0  0  0  0
 15 43  1  0  0  0  0
 16 17  2  0  0  0  0
 16 18  1  0  0  0  0
 18 19  1  0  0  0  0
 18 44  1  0  0  0  0
 19 20  1  0  0  0  0
 19 26  2  0  0  0  0
 20 21  2  0  0  0  0
 20 45  1  0  0  0  0
 21 22  1  0  0  0  0
 22 23  1  0  0  0  0
 22 26  1  0  0  0  0
 23 24  1  0  0  0  0
 23 25  1  0  0  0  0
 23 46  1  0  0  0  0
 24 47  1  0  0  0  0
 24 48  1  0  0  0  0
 24 49  1  0  0  0  0
 25 50  1  0  0  0  0
 25 51  1  0  0  0  0
 25 52  1  0  0  0  0
 26 53  1  0  0  0  0
 27 28  1  0  0  0  0
 27 54  1  0  0  0  0
 28 55  1  0  0  0  0
 29 30  2  0  0  0  0
 30 31  1  0  0  0  0
 30 56  1  0  0  0  0
 31 32  1  0  0  0  0
 32 33  1  0  0  0  0
 33 57  1  0  0  0  0
 33 58  1  0  0  0  0
 33 59  1  0  0  0  0
M  END
$$$$
