CHEMBL2348993
 OpenBabel04072215363D

 56 60  0  0  0  0  0  0  0  0999 V2000
   -1.9066    0.9684   -0.7046 C   0  0  0  0  0  0  0  0  0  0  0  0
   -1.7758   -0.4857   -0.4489 C   0  0  0  0  0  0  0  0  0  0  0  0
   -0.6283   -1.3011   -0.5454 C   0  0  0  0  0  0  0  0  0  0  0  0
   -1.0283   -2.5755   -0.1675 C   0  0  0  0  0  0  0  0  0  0  0  0
   -0.2711   -3.8069   -0.0509 C   0  0  0  0  0  0  0  0  0  0  0  0
   -0.8066   -4.8912    0.1602 O   0  0  0  0  0  0  0  0  0  0  0  0
    1.1091   -3.6608   -0.1258 N   0  0  0  0  0  0  0  0  0  0  0  0
    1.9883   -4.7691   -0.0681 C   0  0  0  0  0  0  0  0  0  0  0  0
    1.6893   -5.9079   -0.8354 C   0  0  0  0  0  0  0  0  0  0  0  0
    2.4936   -7.0413   -0.7839 C   0  0  0  0  0  0  0  0  0  0  0  0
    3.5977   -7.0573    0.0536 C   0  0  0  0  0  0  0  0  0  0  0  0
    3.9222   -5.9192    0.8031 C   0  0  0  0  0  0  0  0  0  0  0  0
    4.9523   -6.0188    1.7749 O   0  0  0  0  0  0  0  0  0  0  0  0
    6.1401   -6.6719    1.4641 C   0  0  0  0  0  0  0  0  0  0  0  0
    6.7465   -7.1644    2.7239 C   0  0  0  0  0  0  0  0  0  0  0  0
    7.9216   -7.8001    2.6127 C   0  0  0  0  0  0  0  0  0  0  0  0
    8.5135   -7.9399    1.3348 C   0  0  0  0  0  0  0  0  0  0  0  0
    9.6638   -8.4451    0.9560 N   0  0  0  0  0  0  0  0  0  0  0  0
    9.6921   -8.3184   -0.4029 C   0  0  0  0  0  0  0  0  0  0  0  0
   10.7372   -8.7004   -1.2091 N   0  0  0  0  0  0  0  0  0  0  0  0
   11.9385   -9.1965   -0.7602 C   0  0  0  0  0  0  0  0  0  0  0  0
   12.2880   -9.4067    0.3916 O   0  0  0  0  0  0  0  0  0  0  0  0
   12.8817   -9.5091   -1.8866 C   0  0  0  0  0  0  0  0  0  0  0  0
   13.3352  -10.9358   -2.0910 C   0  0  0  0  0  0  0  0  0  0  0  0
   14.3169   -9.9041   -1.6177 C   0  0  0  0  0  0  0  0  0  0  0  0
    8.5283   -7.7524   -0.8680 C   0  0  0  0  0  0  0  0  0  0  0  0
    7.7952   -7.4649    0.2504 N   0  0  0  0  0  0  0  0  0  0  0  0
    6.6012   -6.8089    0.2627 N   0  0  0  0  0  0  0  0  0  0  0  0
    3.1404   -4.7451    0.7456 C   0  0  0  0  0  0  0  0  0  0  0  0
    3.4271   -3.5878    1.6633 C   0  0  0  0  0  0  0  0  0  0  0  0
   -2.3829   -2.4546    0.0622 N   0  0  0  0  0  0  0  0  0  0  0  0
   -3.3504   -3.4612    0.4366 C   0  0  0  0  0  0  0  0  0  0  0  0
   -2.8386   -1.1903   -0.0620 N   0  0  0  0  0  0  0  0  0  0  0  0
   -0.9676    1.3924   -1.0735 H   0  0  0  0  0  0  0  0  0  0  0  0
   -2.1773    1.4933    0.2176 H   0  0  0  0  0  0  0  0  0  0  0  0
   -2.6835    1.1621   -1.4515 H   0  0  0  0  0  0  0  0  0  0  0  0
    0.3590   -0.9864   -0.8529 H   0  0  0  0  0  0  0  0  0  0  0  0
    1.4751   -2.7482    0.0967 H   0  0  0  0  0  0  0  0  0  0  0  0
    0.8174   -5.9226   -1.4863 H   0  0  0  0  0  0  0  0  0  0  0  0
    2.2408   -7.9174   -1.3738 H   0  0  0  0  0  0  0  0  0  0  0  0
    4.1836   -7.9676    0.1334 H   0  0  0  0  0  0  0  0  0  0  0  0
    6.2248   -7.0451    3.6610 H   0  0  0  0  0  0  0  0  0  0  0  0
    8.4362   -8.2216    3.4687 H   0  0  0  0  0  0  0  0  0  0  0  0
   10.6033   -8.5757   -2.2006 H   0  0  0  0  0  0  0  0  0  0  0  0
   12.7335   -8.9139   -2.7831 H   0  0  0  0  0  0  0  0  0  0  0  0
   13.4314  -11.3021   -3.1057 H   0  0  0  0  0  0  0  0  0  0  0  0
   13.0171  -11.6853   -1.3738 H   0  0  0  0  0  0  0  0  0  0  0  0
   15.0772   -9.5663   -2.3123 H   0  0  0  0  0  0  0  0  0  0  0  0
   14.6553   -9.9583   -0.5880 H   0  0  0  0  0  0  0  0  0  0  0  0
    8.1676   -7.5027   -1.8533 H   0  0  0  0  0  0  0  0  0  0  0  0
    4.4867   -3.5305    1.9281 H   0  0  0  0  0  0  0  0  0  0  0  0
    2.8382   -3.6902    2.5812 H   0  0  0  0  0  0  0  0  0  0  0  0
    3.1823   -2.6285    1.1967 H   0  0  0  0  0  0  0  0  0  0  0  0
   -2.9826   -4.4683    0.2605 H   0  0  0  0  0  0  0  0  0  0  0  0
   -4.2460   -3.3182   -0.1750 H   0  0  0  0  0  0  0  0  0  0  0  0
   -3.5907   -3.3239    1.4937 H   0  0  0  0  0  0  0  0  0  0  0  0
  1  2  1  0  0  0  0
  1 34  1  0  0  0  0
  1 35  1  0  0  0  0
  1 36  1  0  0  0  0
  2  3  1  0  0  0  0
  2 33  2  0  0  0  0
  3  4  2  0  0  0  0
  3 37  1  0  0  0  0
  4  5  1  0  0  0  0
  4 31  1  0  0  0  0
  5  6  2  0  0  0  0
  5  7  1  0  0  0  0
  7  8  1  0  0  0  0
  7 38  1  0  0  0  0
  8  9  1  0  0  0  0
  8 29  2  0  0  0  0
  9 10  2  0  0  0  0
  9 39  1  0  0  0  0
 10 11  1  0  0  0  0
 10 40  1  0  0  0  0
 11 12  2  0  0  0  0
 11 41  1  0  0  0  0
 12 13  1  0  0  0  0
 12 29  1  0  0  0  0
 13 14  1  0  0  0  0
 14 15  1  0  0  0  0
 14 28  2  0  0  0  0
 15 16  2  0  0  0  0
 15 42  1  0  0  0  0
 16 17  1  0  0  0  0
 16 43  1  0  0  0  0
 17 18  2  0  0  0  0
 17 27  1  0  0  0  0
 18 19  1  0  0  0  0
 19 20  1  0  0  0  0
 19 26  2  0  0  0  0
 20 21  1  0  0  0  0
 20 44  1  0  0  0  0
 21 22  2  0  0  0  0
 21 23  1  0  0  0  0
 23 24  1  0  0  0  0
 23 25  1  0  0  0  0
 23 45  1  0  0  0  0
 24 25  1  0  0  0  0
 24 46  1  0  0  0  0
 24 47  1  0  0  0  0
 25 48  1  0  0  0  0
 25 49  1  0  0  0  0
 26 27  1  0  0  0  0
 26 50  1  0  0  0  0
 27 28  1  0  0  0  0
 29 30  1  0  0  0  0
 30 51  1  0  0  0  0
 30 52  1  0  0  0  0
 30 53  1  0  0  0  0
 31 32  1  0  0  0  0
 31 33  1  0  0  0  0
 32 54  1  0  0  0  0
 32 55  1  0  0  0  0
 32 56  1  0  0  0  0
M  END
$$$$
