CHEMBL2322134
 OpenBabel04072215363D

 34 37  0  0  0  0  0  0  0  0999 V2000
   -2.9643   -0.7660   -0.0212 C   0  0  0  0  0  0  0  0  0  0  0  0
   -1.7844   -1.4869   -0.0560 C   0  0  0  0  0  0  0  0  0  0  0  0
   -0.7525   -0.5369   -0.0475 C   0  0  0  0  0  0  0  0  0  0  0  0
   -1.2984    0.7291   -0.0219 C   0  0  0  0  0  0  0  0  0  0  0  0
   -0.6685    1.9365   -0.0102 N   0  0  0  0  0  0  0  0  0  0  0  0
    0.6393    1.8542   -0.0303 C   0  0  0  0  0  0  0  0  0  0  0  0
    1.3480    0.5942   -0.0597 C   0  0  0  0  0  0  0  0  0  0  0  0
    2.6724    0.2426   -0.0834 C   0  0  0  0  0  0  0  0  0  0  0  0
    2.8058   -1.1262   -0.0924 N   0  0  0  0  0  0  0  0  0  0  0  0
    1.5757   -1.6185   -0.0495 C   0  0  0  0  0  0  0  0  0  0  0  0
    1.2045   -3.0624    0.0796 C   0  0  0  0  0  0  0  0  0  0  0  0
    2.2678   -3.8604    0.8461 C   0  0  0  0  0  0  0  0  0  0  0  0
    1.7960   -5.2977    1.0568 C   0  0  0  0  0  0  0  0  0  0  0  0
    1.4551   -5.9747   -0.2686 C   0  0  0  0  0  0  0  0  0  0  0  0
    0.4613   -5.1589   -1.0929 C   0  0  0  0  0  0  0  0  0  0  0  0
    0.9271   -3.7143   -1.2815 C   0  0  0  0  0  0  0  0  0  0  0  0
    0.6530   -0.5967   -0.0613 N   0  0  0  0  0  0  0  0  0  0  0  0
   -2.6564    0.5791   -0.0035 N   0  0  0  0  0  0  0  0  0  0  0  0
   -3.9959   -1.0909   -0.0097 H   0  0  0  0  0  0  0  0  0  0  0  0
   -1.7234   -2.5662   -0.0832 H   0  0  0  0  0  0  0  0  0  0  0  0
    1.2255    2.7873   -0.0204 H   0  0  0  0  0  0  0  0  0  0  0  0
    3.5405    0.8894   -0.0837 H   0  0  0  0  0  0  0  0  0  0  0  0
    0.2937   -3.1220    0.6859 H   0  0  0  0  0  0  0  0  0  0  0  0
    2.4608   -3.3950    1.8206 H   0  0  0  0  0  0  0  0  0  0  0  0
    3.2209   -3.8611    0.3013 H   0  0  0  0  0  0  0  0  0  0  0  0
    0.9082   -5.2946    1.7024 H   0  0  0  0  0  0  0  0  0  0  0  0
    2.5690   -5.8695    1.5809 H   0  0  0  0  0  0  0  0  0  0  0  0
    1.0414   -6.9708   -0.0751 H   0  0  0  0  0  0  0  0  0  0  0  0
    2.3752   -6.1168   -0.8487 H   0  0  0  0  0  0  0  0  0  0  0  0
   -0.5137   -5.1583   -0.5881 H   0  0  0  0  0  0  0  0  0  0  0  0
    0.3114   -5.6331   -2.0693 H   0  0  0  0  0  0  0  0  0  0  0  0
    0.1588   -3.1575   -1.8313 H   0  0  0  0  0  0  0  0  0  0  0  0
    1.8289   -3.6966   -1.9081 H   0  0  0  0  0  0  0  0  0  0  0  0
   -3.3158    1.3429    0.0222 H   0  0  0  0  0  0  0  0  0  0  0  0
  1  2  2  0  0  0  0
  1 18  1  0  0  0  0
  1 19  1  0  0  0  0
  2  3  1  0  0  0  0
  2 20  1  0  0  0  0
  3  4  2  0  0  0  0
  3 17  1  0  0  0  0
  4  5  1  0  0  0  0
  4 18  1  0  0  0  0
  5  6  2  0  0  0  0
  6  7  1  0  0  0  0
  6 21  1  0  0  0  0
  7  8  2  0  0  0  0
  7 17  1  0  0  0  0
  8  9  1  0  0  0  0
  8 22  1  0  0  0  0
  9 10  2  0  0  0  0
 10 11  1  0  0  0  0
 10 17  1  0  0  0  0
 11 12  1  0  0  0  0
 11 16  1  0  0  0  0
 11 23  1  0  0  0  0
 12 13  1  0  0  0  0
 12 24  1  0  0  0  0
 12 25  1  0  0  0  0
 13 14  1  0  0  0  0
 13 26  1  0  0  0  0
 13 27  1  0  0  0  0
 14 15  1  0  0  0  0
 14 28  1  0  0  0  0
 14 29  1  0  0  0  0
 15 16  1  0  0  0  0
 15 30  1  0  0  0  0
 15 31  1  0  0  0  0
 16 32  1  0  0  0  0
 16 33  1  0  0  0  0
 18 34  1  0  0  0  0
M  END
$$$$
