CHEMBL465793
 OpenBabel04072215383D

 56 61  0  0  0  0  0  0  0  0999 V2000
    2.9880   11.3587   -2.0989 C   0  0  0  0  0  0  0  0  0  0  0  0
    2.6680   11.0374   -0.7312 N   0  0  0  0  0  0  0  0  0  0  0  0
    3.0499    9.7991   -0.2467 C   0  0  0  0  0  0  0  0  0  0  0  0
    3.2842    9.7628    1.0635 N   0  0  0  0  0  0  0  0  0  0  0  0
    3.6819    8.5879    1.5807 C   0  0  0  0  0  0  0  0  0  0  0  0
    3.8681    7.4485    0.8329 C   0  0  0  0  0  0  0  0  0  0  0  0
    3.6116    7.5566   -0.5161 C   0  0  0  0  0  0  0  0  0  0  0  0
    3.8455    6.4672   -1.4946 C   0  0  0  0  0  0  0  0  0  0  0  0
    4.2068    6.8227   -2.8162 C   0  0  0  0  0  0  0  0  0  0  0  0
    4.4714    5.8669   -3.7927 C   0  0  0  0  0  0  0  0  0  0  0  0
    4.3283    4.5447   -3.4480 C   0  0  0  0  0  0  0  0  0  0  0  0
    3.9646    4.1429   -2.2177 N   0  0  0  0  0  0  0  0  0  0  0  0
    3.7768    5.0835   -1.2480 C   0  0  0  0  0  0  0  0  0  0  0  0
    3.5115    4.6110    0.0435 O   0  0  0  0  0  0  0  0  0  0  0  0
    3.9143    3.3121    0.3549 C   0  0  0  0  0  0  0  0  0  0  0  0
    5.1580    2.8329   -0.0608 C   0  0  0  0  0  0  0  0  0  0  0  0
    5.4885    1.4931    0.1044 C   0  0  0  0  0  0  0  0  0  0  0  0
    4.6195    0.6013    0.7412 C   0  0  0  0  0  0  0  0  0  0  0  0
    4.9047   -0.7988    0.7538 N   0  0  0  0  0  0  0  0  0  0  0  0
    5.6101   -1.4663   -0.1955 C   0  0  0  0  0  0  0  0  0  0  0  0
    6.2205   -1.0394   -1.2786 N   0  0  0  0  0  0  0  0  0  0  0  0
    6.7178   -2.1537   -1.9048 C   0  0  0  0  0  0  0  0  0  0  0  0
    7.4302   -2.2668   -3.1070 C   0  0  0  0  0  0  0  0  0  0  0  0
    7.8437   -3.5383   -3.5244 C   0  0  0  0  0  0  0  0  0  0  0  0
    7.5521   -4.6721   -2.7609 C   0  0  0  0  0  0  0  0  0  0  0  0
    6.8321   -4.5791   -1.5635 C   0  0  0  0  0  0  0  0  0  0  0  0
    6.4312   -3.2993   -1.1746 C   0  0  0  0  0  0  0  0  0  0  0  0
    5.7236   -2.8334   -0.0970 N   0  0  0  0  0  0  0  0  0  0  0  0
    3.4475    1.1260    1.3774 C   0  0  0  0  0  0  0  0  0  0  0  0
    2.6146    0.3512    2.2282 C   0  0  0  0  0  0  0  0  0  0  0  0
    1.4601    0.8668    2.8150 C   0  0  0  0  0  0  0  0  0  0  0  0
    1.0933    2.1794    2.5634 C   0  0  0  0  0  0  0  0  0  0  0  0
    1.8923    2.9794    1.7411 C   0  0  0  0  0  0  0  0  0  0  0  0
    3.0807    2.4902    1.1528 C   0  0  0  0  0  0  0  0  0  0  0  0
    3.1991    8.7387   -1.0540 N   0  0  0  0  0  0  0  0  0  0  0  0
    3.1291   12.4429   -2.1887 H   0  0  0  0  0  0  0  0  0  0  0  0
    2.1573   11.0852   -2.7572 H   0  0  0  0  0  0  0  0  0  0  0  0
    3.9067   10.8830   -2.4559 H   0  0  0  0  0  0  0  0  0  0  0  0
    2.9516   11.7166   -0.0309 H   0  0  0  0  0  0  0  0  0  0  0  0
    3.8685    8.5923    2.6484 H   0  0  0  0  0  0  0  0  0  0  0  0
    4.2317    6.5476    1.3037 H   0  0  0  0  0  0  0  0  0  0  0  0
    4.3043    7.8733   -3.0875 H   0  0  0  0  0  0  0  0  0  0  0  0
    4.7766    6.1545   -4.7920 H   0  0  0  0  0  0  0  0  0  0  0  0
    4.5193    3.7470   -4.1599 H   0  0  0  0  0  0  0  0  0  0  0  0
    5.8550    3.4730   -0.5947 H   0  0  0  0  0  0  0  0  0  0  0  0
    6.4317    1.1471   -0.3104 H   0  0  0  0  0  0  0  0  0  0  0  0
    4.1962   -1.3279    1.2373 H   0  0  0  0  0  0  0  0  0  0  0  0
    7.6506   -1.3820   -3.6932 H   0  0  0  0  0  0  0  0  0  0  0  0
    8.3999   -3.6405   -4.4531 H   0  0  0  0  0  0  0  0  0  0  0  0
    7.8908   -5.6474   -3.1053 H   0  0  0  0  0  0  0  0  0  0  0  0
    6.6041   -5.4601   -0.9742 H   0  0  0  0  0  0  0  0  0  0  0  0
    5.3528   -3.3950    0.6511 H   0  0  0  0  0  0  0  0  0  0  0  0
    2.8649   -0.6728    2.4851 H   0  0  0  0  0  0  0  0  0  0  0  0
    0.8554    0.2444    3.4683 H   0  0  0  0  0  0  0  0  0  0  0  0
    0.1918    2.5877    3.0127 H   0  0  0  0  0  0  0  0  0  0  0  0
    1.5833    4.0091    1.5746 H   0  0  0  0  0  0  0  0  0  0  0  0
  1  2  1  0  0  0  0
  1 36  1  0  0  0  0
  1 37  1  0  0  0  0
  1 38  1  0  0  0  0
  2  3  1  0  0  0  0
  2 39  1  0  0  0  0
  3  4  1  0  0  0  0
  3 35  2  0  0  0  0
  4  5  2  0  0  0  0
  5  6  1  0  0  0  0
  5 40  1  0  0  0  0
  6  7  2  0  0  0  0
  6 41  1  0  0  0  0
  7  8  1  0  0  0  0
  7 35  1  0  0  0  0
  8  9  1  0  0  0  0
  8 13  2  0  0  0  0
  9 10  2  0  0  0  0
  9 42  1  0  0  0  0
 10 11  1  0  0  0  0
 10 43  1  0  0  0  0
 11 12  2  0  0  0  0
 11 44  1  0  0  0  0
 12 13  1  0  0  0  0
 13 14  1  0  0  0  0
 14 15  1  0  0  0  0
 15 16  1  0  0  0  0
 15 34  2  0  0  0  0
 16 17  2  0  0  0  0
 16 45  1  0  0  0  0
 17 18  1  0  0  0  0
 17 46  1  0  0  0  0
 18 19  1  0  0  0  0
 18 29  2  0  0  0  0
 19 20  1  0  0  0  0
 19 47  1  0  0  0  0
 20 21  2  0  0  0  0
 20 28  1  0  0  0  0
 21 22  1  0  0  0  0
 22 23  1  0  0  0  0
 22 27  2  0  0  0  0
 23 24  2  0  0  0  0
 23 48  1  0  0  0  0
 24 25  1  0  0  0  0
 24 49  1  0  0  0  0
 25 26  2  0  0  0  0
 25 50  1  0  0  0  0
 26 27  1  0  0  0  0
 26 51  1  0  0  0  0
 27 28  1  0  0  0  0
 28 52  1  0  0  0  0
 29 30  1  0  0  0  0
 29 34  1  0  0  0  0
 30 31  2  0  0  0  0
 30 53  1  0  0  0  0
 31 32  1  0  0  0  0
 31 54  1  0  0  0  0
 32 33  2  0  0  0  0
 32 55  1  0  0  0  0
 33 34  1  0  0  0  0
 33 56  1  0  0  0  0
M  END
$$$$
