CHEMBL526658
 OpenBabel04072215383D

 53 57  0  0  0  0  0  0  0  0999 V2000
    0.9412   -0.3362   -0.2388 N   0  0  0  0  0  0  0  0  0  0  0  0
    2.3319   -0.3683   -0.2848 C   0  0  0  0  0  0  0  0  0  0  0  0
    3.0712   -1.5048   -0.3503 C   0  0  0  0  0  0  0  0  0  0  0  0
    2.5002   -2.8372   -0.3808 C   0  0  0  0  0  0  0  0  0  0  0  0
    1.3646   -3.3927   -0.7970 N   0  0  0  0  0  0  0  0  0  0  0  0
    1.4280   -4.7515   -0.4348 C   0  0  0  0  0  0  0  0  0  0  0  0
    0.5330   -5.8393   -0.5951 C   0  0  0  0  0  0  0  0  0  0  0  0
    0.8524   -7.0692    0.0258 C   0  0  0  0  0  0  0  0  0  0  0  0
    0.0600   -8.1856    0.0908 O   0  0  0  0  0  0  0  0  0  0  0  0
   -0.7837   -8.4691   -1.0241 C   0  0  0  0  0  0  0  0  0  0  0  0
   -0.9687  -10.0069   -1.0933 C   0  0  0  0  0  0  0  0  0  0  0  0
   -1.8604  -10.4936   -2.1649 N   0  0  0  0  0  0  0  0  0  0  0  0
   -1.9638  -11.9774   -2.1537 C   0  0  0  0  0  0  0  0  0  0  0  0
   -0.7177  -12.7046   -2.6990 C   0  0  0  0  0  0  0  0  0  0  0  0
   -0.3615  -12.2403   -4.0075 O   0  0  0  0  0  0  0  0  0  0  0  0
   -0.1655  -10.8212   -4.0070 C   0  0  0  0  0  0  0  0  0  0  0  0
   -1.4290  -10.0945   -3.5216 C   0  0  0  0  0  0  0  0  0  0  0  0
    2.0439   -7.2235    0.7399 C   0  0  0  0  0  0  0  0  0  0  0  0
    2.9755   -6.1981    0.8249 C   0  0  0  0  0  0  0  0  0  0  0  0
    2.6151   -4.9938    0.2359 C   0  0  0  0  0  0  0  0  0  0  0  0
    3.2911   -3.8179    0.1777 N   0  0  0  0  0  0  0  0  0  0  0  0
    4.5803   -1.4063   -0.2562 C   0  0  0  0  0  0  0  0  0  0  0  0
    5.3137   -2.3965   -0.2613 O   0  0  0  0  0  0  0  0  0  0  0  0
    5.1517   -0.1904   -0.0989 N   0  0  0  0  0  0  0  0  0  0  0  0
    4.4406    0.9980   -0.0964 C   0  0  0  0  0  0  0  0  0  0  0  0
    5.1764    2.1871   -0.0163 C   0  0  0  0  0  0  0  0  0  0  0  0
    4.5155    3.4031   -0.0559 C   0  0  0  0  0  0  0  0  0  0  0  0
    3.1322    3.4187   -0.1336 C   0  0  0  0  0  0  0  0  0  0  0  0
    2.3964    2.2165   -0.1856 C   0  0  0  0  0  0  0  0  0  0  0  0
    3.0400    0.9666   -0.1939 C   0  0  0  0  0  0  0  0  0  0  0  0
    0.5256   -1.2307   -0.5230 H   0  0  0  0  0  0  0  0  0  0  0  0
    0.5190    0.4400   -0.7336 H   0  0  0  0  0  0  0  0  0  0  0  0
   -0.3937   -5.6998   -1.1397 H   0  0  0  0  0  0  0  0  0  0  0  0
   -0.3223   -8.1058   -1.9470 H   0  0  0  0  0  0  0  0  0  0  0  0
   -1.7502   -7.9794   -0.8679 H   0  0  0  0  0  0  0  0  0  0  0  0
   -1.3817  -10.3299   -0.1276 H   0  0  0  0  0  0  0  0  0  0  0  0
    0.0231  -10.4731   -1.1455 H   0  0  0  0  0  0  0  0  0  0  0  0
   -2.8182  -12.2459   -2.7889 H   0  0  0  0  0  0  0  0  0  0  0  0
   -2.2070  -12.3444   -1.1493 H   0  0  0  0  0  0  0  0  0  0  0  0
   -0.9243  -13.7778   -2.7806 H   0  0  0  0  0  0  0  0  0  0  0  0
    0.1434  -12.5891   -2.0327 H   0  0  0  0  0  0  0  0  0  0  0  0
    0.0596  -10.5184   -5.0341 H   0  0  0  0  0  0  0  0  0  0  0  0
    0.7089  -10.5756   -3.3932 H   0  0  0  0  0  0  0  0  0  0  0  0
   -2.2518  -10.3379   -4.2073 H   0  0  0  0  0  0  0  0  0  0  0  0
   -1.3032   -9.0108   -3.5971 H   0  0  0  0  0  0  0  0  0  0  0  0
    2.2539   -8.1676    1.2385 H   0  0  0  0  0  0  0  0  0  0  0  0
    3.9107   -6.3209    1.3593 H   0  0  0  0  0  0  0  0  0  0  0  0
    4.2441   -3.6843    0.4851 H   0  0  0  0  0  0  0  0  0  0  0  0
    6.1590   -0.1876   -0.0014 H   0  0  0  0  0  0  0  0  0  0  0  0
    6.2622    2.1677    0.0576 H   0  0  0  0  0  0  0  0  0  0  0  0
    5.0840    4.3342   -0.0214 H   0  0  0  0  0  0  0  0  0  0  0  0
    2.6057    4.3722   -0.1557 H   0  0  0  0  0  0  0  0  0  0  0  0
    1.3142    2.2937   -0.2192 H   0  0  0  0  0  0  0  0  0  0  0  0
  1  2  1  0  0  0  0
  1 31  1  0  0  0  0
  1 32  1  0  0  0  0
  2  3  2  0  0  0  0
  2 30  1  0  0  0  0
  3  4  1  0  0  0  0
  3 22  1  0  0  0  0
  4  5  2  0  0  0  0
  4 21  1  0  0  0  0
  5  6  1  0  0  0  0
  6  7  1  0  0  0  0
  6 20  2  0  0  0  0
  7  8  2  0  0  0  0
  7 33  1  0  0  0  0
  8  9  1  0  0  0  0
  8 18  1  0  0  0  0
  9 10  1  0  0  0  0
 10 11  1  0  0  0  0
 10 34  1  0  0  0  0
 10 35  1  0  0  0  0
 11 12  1  0  0  0  0
 11 36  1  0  0  0  0
 11 37  1  0  0  0  0
 12 13  1  0  0  0  0
 12 17  1  0  0  0  0
 13 14  1  0  0  0  0
 13 38  1  0  0  0  0
 13 39  1  0  0  0  0
 14 15  1  0  0  0  0
 14 40  1  0  0  0  0
 14 41  1  0  0  0  0
 15 16  1  0  0  0  0
 16 17  1  0  0  0  0
 16 42  1  0  0  0  0
 16 43  1  0  0  0  0
 17 44  1  0  0  0  0
 17 45  1  0  0  0  0
 18 19  2  0  0  0  0
 18 46  1  0  0  0  0
 19 20  1  0  0  0  0
 19 47  1  0  0  0  0
 20 21  1  0  0  0  0
 21 48  1  0  0  0  0
 22 23  2  0  0  0  0
 22 24  1  0  0  0  0
 24 25  1  0  0  0  0
 24 49  1  0  0  0  0
 25 26  1  0  0  0  0
 25 30  2  0  0  0  0
 26 27  2  0  0  0  0
 26 50  1  0  0  0  0
 27 28  1  0  0  0  0
 27 51  1  0  0  0  0
 28 29  2  0  0  0  0
 28 52  1  0  0  0  0
 29 30  1  0  0  0  0
 29 53  1  0  0  0  0
M  END
$$$$
