CHEMBL202153
 OpenBabel04072215363D

 40 42  0  0  0  0  0  0  0  0999 V2000
    4.4114   -2.6374    1.5394 C   0  0  0  0  0  0  0  0  0  0  0  0
    2.9511   -2.9682    1.4526 C   0  0  0  0  0  0  0  0  0  0  0  0
    2.1079   -2.2505    0.5983 C   0  0  0  0  0  0  0  0  0  0  0  0
    0.7516   -2.5791    0.4841 C   0  0  0  0  0  0  0  0  0  0  0  0
    0.2123   -3.6344    1.2197 C   0  0  0  0  0  0  0  0  0  0  0  0
   -1.1335   -4.0602    1.1326 N   0  0  0  0  0  0  0  0  0  0  0  0
   -2.1317   -3.5545    0.3142 C   0  0  0  0  0  0  0  0  0  0  0  0
   -1.9665   -2.5989   -0.4384 O   0  0  0  0  0  0  0  0  0  0  0  0
   -3.4155   -4.2459    0.3866 C   0  0  0  0  0  0  0  0  0  0  0  0
   -3.6887   -5.5735    1.4480 S   0  0  0  0  0  0  0  0  0  0  0  0
   -5.2772   -5.7290    0.8397 C   0  0  0  0  0  0  0  0  0  0  0  0
   -5.6281   -4.8629   -0.0811 N   0  0  0  0  0  0  0  0  0  0  0  0
   -4.5735   -3.9956   -0.3482 C   0  0  0  0  0  0  0  0  0  0  0  0
   -4.7629   -2.9477   -1.4137 C   0  0  0  0  0  0  0  0  0  0  0  0
   -6.2195   -2.5171   -1.6151 C   0  0  0  0  0  0  0  0  0  0  0  0
   -6.3551   -1.4936   -2.7178 C   0  0  0  0  0  0  0  0  0  0  0  0
   -6.5517   -1.8949   -4.0418 C   0  0  0  0  0  0  0  0  0  0  0  0
   -6.6592   -0.9219   -5.0246 C   0  0  0  0  0  0  0  0  0  0  0  0
   -6.5795    0.4037   -4.7834 N   0  0  0  0  0  0  0  0  0  0  0  0
   -6.3801    0.7703   -3.4995 C   0  0  0  0  0  0  0  0  0  0  0  0
   -6.2605   -0.1264   -2.4472 C   0  0  0  0  0  0  0  0  0  0  0  0
    1.0593   -4.3319    2.0890 C   0  0  0  0  0  0  0  0  0  0  0  0
    0.5656   -5.3470    2.8188 F   0  0  0  0  0  0  0  0  0  0  0  0
    2.4111   -4.0113    2.2116 C   0  0  0  0  0  0  0  0  0  0  0  0
    4.6695   -1.7958    0.8874 H   0  0  0  0  0  0  0  0  0  0  0  0
    5.0103   -3.4978    1.2239 H   0  0  0  0  0  0  0  0  0  0  0  0
    4.6807   -2.3629    2.5637 H   0  0  0  0  0  0  0  0  0  0  0  0
    2.4975   -1.4287   -0.0002 H   0  0  0  0  0  0  0  0  0  0  0  0
    0.1531   -1.9872   -0.2006 H   0  0  0  0  0  0  0  0  0  0  0  0
   -1.3754   -4.8553    1.7158 H   0  0  0  0  0  0  0  0  0  0  0  0
   -5.9503   -6.4996    1.1934 H   0  0  0  0  0  0  0  0  0  0  0  0
   -4.3563   -3.3436   -2.3532 H   0  0  0  0  0  0  0  0  0  0  0  0
   -4.1802   -2.0543   -1.1642 H   0  0  0  0  0  0  0  0  0  0  0  0
   -6.6222   -2.1018   -0.6818 H   0  0  0  0  0  0  0  0  0  0  0  0
   -6.8529   -3.3809   -1.8540 H   0  0  0  0  0  0  0  0  0  0  0  0
   -6.6220   -2.9442   -4.3085 H   0  0  0  0  0  0  0  0  0  0  0  0
   -6.8167   -1.1938   -6.0643 H   0  0  0  0  0  0  0  0  0  0  0  0
   -6.3158    1.8413   -3.3303 H   0  0  0  0  0  0  0  0  0  0  0  0
   -6.0963    0.2413   -1.4398 H   0  0  0  0  0  0  0  0  0  0  0  0
    3.0329   -4.5865    2.8913 H   0  0  0  0  0  0  0  0  0  0  0  0
  1  2  1  0  0  0  0
  1 25  1  0  0  0  0
  1 26  1  0  0  0  0
  1 27  1  0  0  0  0
  2  3  1  0  0  0  0
  2 24  2  0  0  0  0
  3  4  2  0  0  0  0
  3 28  1  0  0  0  0
  4  5  1  0  0  0  0
  4 29  1  0  0  0  0
  5  6  1  0  0  0  0
  5 22  2  0  0  0  0
  6  7  1  0  0  0  0
  6 30  1  0  0  0  0
  7  8  2  0  0  0  0
  7  9  1  0  0  0  0
  9 10  1  0  0  0  0
  9 13  2  0  0  0  0
 10 11  1  0  0  0  0
 11 12  2  0  0  0  0
 11 31  1  0  0  0  0
 12 13  1  0  0  0  0
 13 14  1  0  0  0  0
 14 15  1  0  0  0  0
 14 32  1  0  0  0  0
 14 33  1  0  0  0  0
 15 16  1  0  0  0  0
 15 34  1  0  0  0  0
 15 35  1  0  0  0  0
 16 17  1  0  0  0  0
 16 21  2  0  0  0  0
 17 18  2  0  0  0  0
 17 36  1  0  0  0  0
 18 19  1  0  0  0  0
 18 37  1  0  0  0  0
 19 20  2  0  0  0  0
 20 21  1  0  0  0  0
 20 38  1  0  0  0  0
 21 39  1  0  0  0  0
 22 23  1  0  0  0  0
 22 24  1  0  0  0  0
 24 40  1  0  0  0  0
M  END
$$$$
