CHEMBL3954050
 OpenBabel04072215373D

 61 65  0  0  0  0  0  0  0  0999 V2000
    2.3009   -0.6467    2.7882 N   0  0  0  0  0  0  0  0  0  0  0  0
    2.2858    0.5235    2.1070 C   0  0  0  0  0  0  0  0  0  0  0  0
    1.2557    1.0718    1.7388 O   0  0  0  0  0  0  0  0  0  0  0  0
    3.6427    1.1468    1.8587 C   0  0  0  0  0  0  0  0  0  0  0  0
    4.2341    0.9711    0.4512 C   0  0  0  0  0  0  0  0  0  0  0  0
    3.7601    1.8190   -0.5748 C   0  0  0  0  0  0  0  0  0  0  0  0
    4.3797    1.8925   -1.8206 C   0  0  0  0  0  0  0  0  0  0  0  0
    5.4954    1.1102   -2.0766 C   0  0  0  0  0  0  0  0  0  0  0  0
    5.9221    0.1851   -1.1264 C   0  0  0  0  0  0  0  0  0  0  0  0
    5.2785    0.0655    0.1227 C   0  0  0  0  0  0  0  0  0  0  0  0
    5.7137   -1.0977    1.0114 C   0  0  0  0  0  0  0  0  0  0  0  0
    5.0133   -2.3978    0.5715 C   0  0  0  0  0  0  0  0  0  0  0  0
    5.3847   -3.6726    1.3047 C   0  0  0  0  0  0  0  0  0  0  0  0
    5.8475   -3.5548    2.5753 N   0  0  0  0  0  0  0  0  0  0  0  0
    5.9792   -4.6813    3.3043 C   0  0  0  0  0  0  0  0  0  0  0  0
    6.3337   -4.5096    4.6499 N   0  0  0  0  0  0  0  0  0  0  0  0
    6.0812   -5.3399    5.6717 C   0  0  0  0  0  0  0  0  0  0  0  0
    5.8001   -6.7209    5.6616 C   0  0  0  0  0  0  0  0  0  0  0  0
    5.5038   -7.1730    6.8786 N   0  0  0  0  0  0  0  0  0  0  0  0
    5.5991   -6.0883    7.6661 N   0  0  0  0  0  0  0  0  0  0  0  0
    5.2930   -6.1844    9.0912 C   0  0  0  0  0  0  0  0  0  0  0  0
    6.2093   -7.1788    9.8126 C   0  0  0  0  0  0  0  0  0  0  0  0
    5.7945   -8.6303    9.5730 C   0  0  0  0  0  0  0  0  0  0  0  0
    4.3874   -8.8632    9.9047 N   0  0  0  0  0  0  0  0  0  0  0  0
    3.4945   -7.9857    9.1450 C   0  0  0  0  0  0  0  0  0  0  0  0
    3.8180   -6.5063    9.3552 C   0  0  0  0  0  0  0  0  0  0  0  0
    5.9813   -4.9627    6.9874 C   0  0  0  0  0  0  0  0  0  0  0  0
    5.6890   -5.9057    2.8418 N   0  0  0  0  0  0  0  0  0  0  0  0
    5.2566   -6.0036    1.5756 C   0  0  0  0  0  0  0  0  0  0  0  0
    5.0939   -4.9166    0.7472 C   0  0  0  0  0  0  0  0  0  0  0  0
    4.5186   -5.1579   -0.8525 Cl  0  0  0  0  0  0  0  0  0  0  0  0
    4.6522    1.3749    2.9880 C   0  0  0  0  0  0  0  0  0  0  0  0
    3.8156    2.5222    2.5395 C   0  0  0  0  0  0  0  0  0  0  0  0
    1.4078   -1.0733    2.9992 H   0  0  0  0  0  0  0  0  0  0  0  0
    3.1525   -1.0894    3.1060 H   0  0  0  0  0  0  0  0  0  0  0  0
    2.8978    2.4585   -0.3806 H   0  0  0  0  0  0  0  0  0  0  0  0
    4.0050    2.5797   -2.5746 H   0  0  0  0  0  0  0  0  0  0  0  0
    6.0204    1.2019   -3.0233 H   0  0  0  0  0  0  0  0  0  0  0  0
    6.7696   -0.4544   -1.3669 H   0  0  0  0  0  0  0  0  0  0  0  0
    5.5190   -0.8941    2.0667 H   0  0  0  0  0  0  0  0  0  0  0  0
    6.8027   -1.2172    0.9299 H   0  0  0  0  0  0  0  0  0  0  0  0
    5.2024   -2.5365   -0.4988 H   0  0  0  0  0  0  0  0  0  0  0  0
    3.9297   -2.2741    0.6954 H   0  0  0  0  0  0  0  0  0  0  0  0
    6.4923   -3.5182    4.8030 H   0  0  0  0  0  0  0  0  0  0  0  0
    5.7791   -7.4148    4.8356 H   0  0  0  0  0  0  0  0  0  0  0  0
    5.4966   -5.1833    9.4947 H   0  0  0  0  0  0  0  0  0  0  0  0
    6.1633   -6.9754   10.8909 H   0  0  0  0  0  0  0  0  0  0  0  0
    7.2530   -7.0330    9.5091 H   0  0  0  0  0  0  0  0  0  0  0  0
    6.4107   -9.2795   10.2058 H   0  0  0  0  0  0  0  0  0  0  0  0
    6.0050   -8.9469    8.5462 H   0  0  0  0  0  0  0  0  0  0  0  0
    4.2417   -8.7277   10.9008 H   0  0  0  0  0  0  0  0  0  0  0  0
    2.4674   -8.1708    9.4802 H   0  0  0  0  0  0  0  0  0  0  0  0
    3.5064   -8.2488    8.0818 H   0  0  0  0  0  0  0  0  0  0  0  0
    3.5851   -6.2442   10.3960 H   0  0  0  0  0  0  0  0  0  0  0  0
    3.1656   -5.8904    8.7241 H   0  0  0  0  0  0  0  0  0  0  0  0
    6.0989   -4.0120    7.4832 H   0  0  0  0  0  0  0  0  0  0  0  0
    5.0040   -7.0071    1.2539 H   0  0  0  0  0  0  0  0  0  0  0  0
    5.7088    1.4394    2.7358 H   0  0  0  0  0  0  0  0  0  0  0  0
    4.4609    0.9388    3.9554 H   0  0  0  0  0  0  0  0  0  0  0  0
    4.2928    3.3273    1.9930 H   0  0  0  0  0  0  0  0  0  0  0  0
    3.0466    2.8643    3.2255 H   0  0  0  0  0  0  0  0  0  0  0  0
  1  2  1  0  0  0  0
  1 34  1  0  0  0  0
  1 35  1  0  0  0  0
  2  3  2  0  0  0  0
  2  4  1  0  0  0  0
  4  5  1  0  0  0  0
  4 32  1  0  0  0  0
  4 33  1  0  0  0  0
  5  6  1  0  0  0  0
  5 10  2  0  0  0  0
  6  7  2  0  0  0  0
  6 36  1  0  0  0  0
  7  8  1  0  0  0  0
  7 37  1  0  0  0  0
  8  9  2  0  0  0  0
  8 38  1  0  0  0  0
  9 10  1  0  0  0  0
  9 39  1  0  0  0  0
 10 11  1  0  0  0  0
 11 12  1  0  0  0  0
 11 40  1  0  0  0  0
 11 41  1  0  0  0  0
 12 13  1  0  0  0  0
 12 42  1  0  0  0  0
 12 43  1  0  0  0  0
 13 14  1  0  0  0  0
 13 30  2  0  0  0  0
 14 15  2  0  0  0  0
 15 16  1  0  0  0  0
 15 28  1  0  0  0  0
 16 17  1  0  0  0  0
 16 44  1  0  0  0  0
 17 18  1  0  0  0  0
 17 27  2  0  0  0  0
 18 19  2  0  0  0  0
 18 45  1  0  0  0  0
 19 20  1  0  0  0  0
 20 21  1  0  0  0  0
 20 27  1  0  0  0  0
 21 22  1  0  0  0  0
 21 26  1  0  0  0  0
 21 46  1  0  0  0  0
 22 23  1  0  0  0  0
 22 47  1  0  0  0  0
 22 48  1  0  0  0  0
 23 24  1  0  0  0  0
 23 49  1  0  0  0  0
 23 50  1  0  0  0  0
 24 25  1  0  0  0  0
 24 51  1  0  0  0  0
 25 26  1  0  0  0  0
 25 52  1  0  0  0  0
 25 53  1  0  0  0  0
 26 54  1  0  0  0  0
 26 55  1  0  0  0  0
 27 56  1  0  0  0  0
 28 29  2  0  0  0  0
 29 30  1  0  0  0  0
 29 57  1  0  0  0  0
 30 31  1  0  0  0  0
 32 33  1  0  0  0  0
 32 58  1  0  0  0  0
 32 59  1  0  0  0  0
 33 60  1  0  0  0  0
 33 61  1  0  0  0  0
M  END
$$$$
