CHEMBL3904192
 OpenBabel04072215373D

 52 55  0  0  1  0  0  0  0  0999 V2000
    2.7687    0.6359    1.0207 C   0  0  0  0  0  0  0  0  0  0  0  0
    2.3849    0.2936   -0.3176 O   0  0  0  0  0  0  0  0  0  0  0  0
    3.0356   -0.7487   -0.9274 C   0  0  0  0  0  0  0  0  0  0  0  0
    4.0059   -1.5287   -0.2991 C   0  0  0  0  0  0  0  0  0  0  0  0
    4.7106   -2.5469   -0.9875 C   0  0  0  0  0  0  0  0  0  0  0  0
    5.6931   -3.3613   -0.4194 C   0  0  0  0  0  0  0  0  0  0  0  0
    6.0078   -3.2018    0.9553 N   0  0  0  0  0  0  0  0  0  0  0  0
    7.2057   -3.6587    1.5514 C   0  0  0  0  0  0  0  0  0  0  0  0
    8.4359   -3.4173    0.9202 C   0  0  0  0  0  0  0  0  0  0  0  0
    9.6241   -3.8996    1.4619 C   0  0  0  0  0  0  0  0  0  0  0  0
    9.5952   -4.6174    2.6556 C   0  0  0  0  0  0  0  0  0  0  0  0
   11.0563   -5.2584    3.2935 Cl  0  0  0  0  0  0  0  0  0  0  0  0
    8.3908   -4.8245    3.3300 C   0  0  0  0  0  0  0  0  0  0  0  0
    7.2060   -4.3358    2.7831 C   0  0  0  0  0  0  0  0  0  0  0  0
    5.7257   -4.6075    3.6358 Cl  0  0  0  0  0  0  0  0  0  0  0  0
    6.3490   -4.2970   -1.1323 N   0  0  0  0  0  0  0  0  0  0  0  0
    6.0107   -4.4206   -2.4173 C   0  0  0  0  0  0  0  0  0  0  0  0
    5.0917   -3.6936   -3.0579 N   0  0  0  0  0  0  0  0  0  0  0  0
    4.4580   -2.7689   -2.3338 C   0  0  0  0  0  0  0  0  0  0  0  0
    3.4912   -2.0031   -2.9522 C   0  0  0  0  0  0  0  0  0  0  0  0
    2.7123   -1.0430   -2.2714 C   0  0  0  0  0  0  0  0  0  0  0  0
    1.6392   -0.4088   -2.8801 O   0  0  0  0  0  0  0  0  0  0  0  0
    1.1441   -1.1527   -4.0120 C   0  0  0  0  0  0  0  0  0  0  0  0
   -0.2612   -0.7901   -4.5137 C   0  0  3  0  0  0  0  0  0  0  0  0
   -1.3554   -0.8578   -3.4378 C   0  0  0  0  0  0  0  0  0  0  0  0
   -1.5989   -2.2428   -2.9818 N   0  0  0  0  0  0  0  0  0  0  0  0
   -2.6626   -2.2646   -1.9813 C   0  0  0  0  0  0  0  0  0  0  0  0
   -1.9524   -3.0797   -4.1452 C   0  0  0  0  0  0  0  0  0  0  0  0
   -0.8853   -2.9967   -5.2468 C   0  0  0  0  0  0  0  0  0  0  0  0
   -0.6198   -1.6387   -5.6408 O   0  0  0  0  0  0  0  0  0  0  0  0
    2.5975    1.7083    1.1636 H   0  0  0  0  0  0  0  0  0  0  0  0
    3.8267    0.4803    1.2529 H   0  0  0  0  0  0  0  0  0  0  0  0
    2.1412    0.0893    1.7319 H   0  0  0  0  0  0  0  0  0  0  0  0
    4.2671   -1.3695    0.7403 H   0  0  0  0  0  0  0  0  0  0  0  0
    5.1939   -3.4501    1.5141 H   0  0  0  0  0  0  0  0  0  0  0  0
    8.4653   -2.8601   -0.0143 H   0  0  0  0  0  0  0  0  0  0  0  0
   10.5602   -3.7227    0.9398 H   0  0  0  0  0  0  0  0  0  0  0  0
    8.3796   -5.3757    4.2652 H   0  0  0  0  0  0  0  0  0  0  0  0
    6.5239   -5.1837   -2.9927 H   0  0  0  0  0  0  0  0  0  0  0  0
    3.3382   -2.2040   -4.0079 H   0  0  0  0  0  0  0  0  0  0  0  0
    1.1412   -2.2170   -3.7620 H   0  0  0  0  0  0  0  0  0  0  0  0
    1.8256   -0.9954   -4.8592 H   0  0  0  0  0  0  0  0  0  0  0  0
   -0.2343    0.2347   -4.9015 H   0  0  0  0  0  0  0  0  0  0  0  0
   -2.2826   -0.4508   -3.8664 H   0  0  0  0  0  0  0  0  0  0  0  0
   -1.0751   -0.2200   -2.5925 H   0  0  0  0  0  0  0  0  0  0  0  0
   -2.3826   -1.6558   -1.1146 H   0  0  0  0  0  0  0  0  0  0  0  0
   -2.8228   -3.2840   -1.6144 H   0  0  0  0  0  0  0  0  0  0  0  0
   -3.6120   -1.8849   -2.3758 H   0  0  0  0  0  0  0  0  0  0  0  0
   -2.9133   -2.7552   -4.5657 H   0  0  0  0  0  0  0  0  0  0  0  0
   -2.0592   -4.1255   -3.8344 H   0  0  0  0  0  0  0  0  0  0  0  0
   -1.2310   -3.5377   -6.1342 H   0  0  0  0  0  0  0  0  0  0  0  0
    0.0442   -3.4904   -4.9366 H   0  0  0  0  0  0  0  0  0  0  0  0
  1  2  1  0  0  0  0
  1 31  1  0  0  0  0
  1 32  1  0  0  0  0
  1 33  1  0  0  0  0
  2  3  1  0  0  0  0
  3  4  1  0  0  0  0
  3 21  2  0  0  0  0
  4  5  2  0  0  0  0
  4 34  1  0  0  0  0
  5  6  1  0  0  0  0
  5 19  1  0  0  0  0
  6  7  1  0  0  0  0
  6 16  2  0  0  0  0
  7  8  1  0  0  0  0
  7 35  1  0  0  0  0
  8  9  1  0  0  0  0
  8 14  2  0  0  0  0
  9 10  2  0  0  0  0
  9 36  1  0  0  0  0
 10 11  1  0  0  0  0
 10 37  1  0  0  0  0
 11 12  1  0  0  0  0
 11 13  2  0  0  0  0
 13 14  1  0  0  0  0
 13 38  1  0  0  0  0
 14 15  1  0  0  0  0
 16 17  1  0  0  0  0
 17 18  2  0  0  0  0
 17 39  1  0  0  0  0
 18 19  1  0  0  0  0
 19 20  2  0  0  0  0
 20 21  1  0  0  0  0
 20 40  1  0  0  0  0
 21 22  1  0  0  0  0
 22 23  1  0  0  0  0
 23 24  1  0  0  0  0
 23 41  1  0  0  0  0
 23 42  1  0  0  0  0
 24 25  1  0  0  0  0
 24 30  1  0  0  0  0
 24 43  1  0  0  0  0
 25 26  1  0  0  0  0
 25 44  1  0  0  0  0
 25 45  1  0  0  0  0
 26 27  1  0  0  0  0
 26 28  1  0  0  0  0
 27 46  1  0  0  0  0
 27 47  1  0  0  0  0
 27 48  1  0  0  0  0
 28 29  1  0  0  0  0
 28 49  1  0  0  0  0
 28 50  1  0  0  0  0
 29 30  1  0  0  0  0
 29 51  1  0  0  0  0
 29 52  1  0  0  0  0
M  END
$$$$
