CHEMBL1242385
 OpenBabel04072215363D

 45 49  0  0  0  0  0  0  0  0999 V2000
    2.6585    0.1125   -0.4083 C   0  0  0  0  0  0  0  0  0  0  0  0
    1.4380    0.8088   -0.7486 N   0  0  0  0  0  0  0  0  0  0  0  0
    1.3769    2.0285   -1.3677 C   0  0  0  0  0  0  0  0  0  0  0  0
    0.0489    2.3705   -1.4930 C   0  0  0  0  0  0  0  0  0  0  0  0
   -0.7270    1.3098   -0.9483 C   0  0  0  0  0  0  0  0  0  0  0  0
   -2.1124    1.0873   -0.7993 C   0  0  0  0  0  0  0  0  0  0  0  0
   -2.5782   -0.1200   -0.2476 C   0  0  0  0  0  0  0  0  0  0  0  0
   -4.0198   -0.3547   -0.1011 C   0  0  0  0  0  0  0  0  0  0  0  0
   -4.8723    0.1300   -1.0224 N   0  0  0  0  0  0  0  0  0  0  0  0
   -6.0861   -0.3143   -0.6327 N   0  0  0  0  0  0  0  0  0  0  0  0
   -7.2560   -0.0465   -1.4420 C   0  0  0  0  0  0  0  0  0  0  0  0
   -7.1601   -0.5893   -2.8694 C   0  0  0  0  0  0  0  0  0  0  0  0
   -8.1610    0.2320   -3.6784 C   0  0  0  0  0  0  0  0  0  0  0  0
   -8.5062    1.4578   -2.8344 C   0  0  0  0  0  0  0  0  0  0  0  0
   -7.5466    1.4394   -1.6513 C   0  0  0  0  0  0  0  0  0  0  0  0
   -6.0521   -1.0220    0.5363 C   0  0  0  0  0  0  0  0  0  0  0  0
   -7.1005   -1.5716    1.1775 N   0  0  0  0  0  0  0  0  0  0  0  0
   -6.7177   -2.1984    2.2958 C   0  0  0  0  0  0  0  0  0  0  0  0
   -5.4768   -2.3028    2.8023 N   0  0  0  0  0  0  0  0  0  0  0  0
   -4.4526   -1.7320    2.1305 C   0  0  0  0  0  0  0  0  0  0  0  0
   -3.2030   -1.8544    2.7260 N   0  0  0  0  0  0  0  0  0  0  0  0
   -4.7228   -1.0606    0.9309 C   0  0  0  0  0  0  0  0  0  0  0  0
   -1.6493   -1.0992    0.1243 C   0  0  0  0  0  0  0  0  0  0  0  0
   -0.2700   -0.8818    0.0375 C   0  0  0  0  0  0  0  0  0  0  0  0
    0.1665    0.3309   -0.5092 C   0  0  0  0  0  0  0  0  0  0  0  0
    3.5203    0.7031   -0.7285 H   0  0  0  0  0  0  0  0  0  0  0  0
    2.6607   -0.8539   -0.9191 H   0  0  0  0  0  0  0  0  0  0  0  0
    2.6856   -0.0237    0.6761 H   0  0  0  0  0  0  0  0  0  0  0  0
    2.2729    2.5547   -1.6693 H   0  0  0  0  0  0  0  0  0  0  0  0
   -0.3276    3.2797   -1.9428 H   0  0  0  0  0  0  0  0  0  0  0  0
   -2.8164    1.8454   -1.1307 H   0  0  0  0  0  0  0  0  0  0  0  0
   -8.1213   -0.5076   -0.9490 H   0  0  0  0  0  0  0  0  0  0  0  0
   -7.3833   -1.6606   -2.9127 H   0  0  0  0  0  0  0  0  0  0  0  0
   -6.1563   -0.4531   -3.2896 H   0  0  0  0  0  0  0  0  0  0  0  0
   -9.0655   -0.3496   -3.8886 H   0  0  0  0  0  0  0  0  0  0  0  0
   -7.7305    0.5218   -4.6431 H   0  0  0  0  0  0  0  0  0  0  0  0
   -9.5416    1.3822   -2.4821 H   0  0  0  0  0  0  0  0  0  0  0  0
   -8.4227    2.3859   -3.4088 H   0  0  0  0  0  0  0  0  0  0  0  0
   -7.9866    1.9035   -0.7627 H   0  0  0  0  0  0  0  0  0  0  0  0
   -6.6378    1.9992   -1.9021 H   0  0  0  0  0  0  0  0  0  0  0  0
   -7.5051   -2.6772    2.8716 H   0  0  0  0  0  0  0  0  0  0  0  0
   -3.2984   -2.1677    3.6831 H   0  0  0  0  0  0  0  0  0  0  0  0
   -2.5893   -1.0612    2.5844 H   0  0  0  0  0  0  0  0  0  0  0  0
   -1.9853   -2.0711    0.4822 H   0  0  0  0  0  0  0  0  0  0  0  0
    0.4279   -1.6472    0.3601 H   0  0  0  0  0  0  0  0  0  0  0  0
  1  2  1  0  0  0  0
  1 26  1  0  0  0  0
  1 27  1  0  0  0  0
  1 28  1  0  0  0  0
  2  3  1  0  0  0  0
  2 25  1  0  0  0  0
  3  4  2  0  0  0  0
  3 29  1  0  0  0  0
  4  5  1  0  0  0  0
  4 30  1  0  0  0  0
  5  6  1  0  0  0  0
  5 25  2  0  0  0  0
  6  7  2  0  0  0  0
  6 31  1  0  0  0  0
  7  8  1  0  0  0  0
  7 23  1  0  0  0  0
  8  9  2  0  0  0  0
  8 22  1  0  0  0  0
  9 10  1  0  0  0  0
 10 11  1  0  0  0  0
 10 16  1  0  0  0  0
 11 12  1  0  0  0  0
 11 15  1  0  0  0  0
 11 32  1  0  0  0  0
 12 13  1  0  0  0  0
 12 33  1  0  0  0  0
 12 34  1  0  0  0  0
 13 14  1  0  0  0  0
 13 35  1  0  0  0  0
 13 36  1  0  0  0  0
 14 15  1  0  0  0  0
 14 37  1  0  0  0  0
 14 38  1  0  0  0  0
 15 39  1  0  0  0  0
 15 40  1  0  0  0  0
 16 17  1  0  0  0  0
 16 22  2  0  0  0  0
 17 18  2  0  0  0  0
 18 19  1  0  0  0  0
 18 41  1  0  0  0  0
 19 20  2  0  0  0  0
 20 21  1  0  0  0  0
 20 22  1  0  0  0  0
 21 42  1  0  0  0  0
 21 43  1  0  0  0  0
 23 24  2  0  0  0  0
 23 44  1  0  0  0  0
 24 25  1  0  0  0  0
 24 45  1  0  0  0  0
M  END
$$$$
