CHEMBL257794
 OpenBabel04072215363D

 60 65  0  0  0  0  0  0  0  0999 V2000
    0.8337    2.8850   -0.1614 C   0  0  0  0  0  0  0  0  0  0  0  0
    2.3408    2.9738   -0.0723 C   0  0  0  0  0  0  0  0  0  0  0  0
    2.7666    2.2037    1.0508 O   0  0  0  0  0  0  0  0  0  0  0  0
    4.1455    2.3655    1.1786 N   0  0  0  0  0  0  0  0  0  0  0  0
    4.6499    1.6944    2.1747 C   0  0  0  0  0  0  0  0  0  0  0  0
    6.1244    1.8241    2.3531 C   0  0  0  0  0  0  0  0  0  0  0  0
    6.8919    1.9076    1.1846 C   0  0  0  0  0  0  0  0  0  0  0  0
    8.2731    1.8979    1.2332 C   0  0  0  0  0  0  0  0  0  0  0  0
    8.8416    1.8593    2.4846 C   0  0  0  0  0  0  0  0  0  0  0  0
   10.1636    1.6062    2.7946 N   0  0  0  0  0  0  0  0  0  0  0  0
   10.3326    1.7829    4.1252 C   0  0  0  0  0  0  0  0  0  0  0  0
   11.3008    1.4020    4.9967 C   0  0  0  0  0  0  0  0  0  0  0  0
   11.6519    2.3799    5.9233 C   0  0  0  0  0  0  0  0  0  0  0  0
   10.4167    2.5441    6.6786 C   0  0  0  0  0  0  0  0  0  0  0  0
    9.1056    2.3510    6.0237 C   0  0  0  0  0  0  0  0  0  0  0  0
    9.1361    2.1753    4.6236 C   0  0  0  0  0  0  0  0  0  0  0  0
    8.1222    1.9988    3.6944 C   0  0  0  0  0  0  0  0  0  0  0  0
    6.7259    1.9163    3.6251 C   0  0  0  0  0  0  0  0  0  0  0  0
    7.9943    2.1129    6.9442 C   0  0  0  0  0  0  0  0  0  0  0  0
    8.7285    2.2816    8.1924 N   0  0  0  0  0  0  0  0  0  0  0  0
   10.1151    2.5165    8.0982 C   0  0  0  0  0  0  0  0  0  0  0  0
   10.8296    2.5630    9.0973 O   0  0  0  0  0  0  0  0  0  0  0  0
   13.1666    2.3683    6.0848 C   0  0  0  0  0  0  0  0  0  0  0  0
   14.1971    3.3513    6.0016 C   0  0  0  0  0  0  0  0  0  0  0  0
   15.4130    2.6687    5.8362 N   0  0  0  0  0  0  0  0  0  0  0  0
   16.8047    3.0687    5.7656 C   0  0  0  0  0  0  0  0  0  0  0  0
   15.2294    1.4469    5.3464 N   0  0  0  0  0  0  0  0  0  0  0  0
   13.9187    1.3754    5.2954 C   0  0  0  0  0  0  0  0  0  0  0  0
   13.2979    0.4416    4.3226 C   0  0  0  0  0  0  0  0  0  0  0  0
   12.0347    0.0840    5.0030 C   0  0  0  0  0  0  0  0  0  0  0  0
    3.8140    0.7954    3.1091 C   0  0  0  0  0  0  0  0  0  0  0  0
    4.5226   -0.4523    3.6396 C   0  0  0  0  0  0  0  0  0  0  0  0
    3.1913    1.6098    4.2394 C   0  0  0  0  0  0  0  0  0  0  0  0
    0.4545    3.4897   -0.9894 H   0  0  0  0  0  0  0  0  0  0  0  0
    0.3748    3.2292    0.7712 H   0  0  0  0  0  0  0  0  0  0  0  0
    0.5202    1.8463   -0.3075 H   0  0  0  0  0  0  0  0  0  0  0  0
    2.6500    4.0177    0.0566 H   0  0  0  0  0  0  0  0  0  0  0  0
    2.8000    2.5759   -0.9849 H   0  0  0  0  0  0  0  0  0  0  0  0
    6.4156    1.9364    0.2060 H   0  0  0  0  0  0  0  0  0  0  0  0
    8.8872    1.9093    0.3215 H   0  0  0  0  0  0  0  0  0  0  0  0
   10.8931    1.3641    2.1485 H   0  0  0  0  0  0  0  0  0  0  0  0
    6.1386    1.9063    4.5306 H   0  0  0  0  0  0  0  0  0  0  0  0
    7.6484    1.0770    6.8887 H   0  0  0  0  0  0  0  0  0  0  0  0
    7.1726    2.8104    6.8812 H   0  0  0  0  0  0  0  0  0  0  0  0
    8.3501    2.0196    9.0687 H   0  0  0  0  0  0  0  0  0  0  0  0
   14.1817    4.4280    5.8926 H   0  0  0  0  0  0  0  0  0  0  0  0
   17.0370    3.3761    4.7405 H   0  0  0  0  0  0  0  0  0  0  0  0
   17.4135    2.1715    5.9755 H   0  0  0  0  0  0  0  0  0  0  0  0
   17.0470    3.8277    6.5037 H   0  0  0  0  0  0  0  0  0  0  0  0
   13.9234   -0.4109    4.0862 H   0  0  0  0  0  0  0  0  0  0  0  0
   13.1128    0.9975    3.3863 H   0  0  0  0  0  0  0  0  0  0  0  0
   12.1804   -0.2348    6.0144 H   0  0  0  0  0  0  0  0  0  0  0  0
   11.4350   -0.7141    4.4945 H   0  0  0  0  0  0  0  0  0  0  0  0
    2.9870    0.4026    2.5029 H   0  0  0  0  0  0  0  0  0  0  0  0
    5.3691   -0.2264    4.2918 H   0  0  0  0  0  0  0  0  0  0  0  0
    4.8935   -1.0684    2.8139 H   0  0  0  0  0  0  0  0  0  0  0  0
    3.8292   -1.0618    4.2301 H   0  0  0  0  0  0  0  0  0  0  0  0
    3.9265    1.8825    5.0016 H   0  0  0  0  0  0  0  0  0  0  0  0
    2.4023    1.0312    4.7323 H   0  0  0  0  0  0  0  0  0  0  0  0
    2.7422    2.5354    3.8647 H   0  0  0  0  0  0  0  0  0  0  0  0
  1  2  1  0  0  0  0
  1 34  1  0  0  0  0
  1 35  1  0  0  0  0
  1 36  1  0  0  0  0
  2  3  1  0  0  0  0
  2 37  1  0  0  0  0
  2 38  1  0  0  0  0
  3  4  1  0  0  0  0
  4  5  2  0  0  0  0
  5  6  1  0  0  0  0
  5 31  1  0  0  0  0
  6  7  1  0  0  0  0
  6 18  2  0  0  0  0
  7  8  2  0  0  0  0
  7 39  1  0  0  0  0
  8  9  1  0  0  0  0
  8 40  1  0  0  0  0
  9 10  1  0  0  0  0
  9 17  2  0  0  0  0
 10 11  1  0  0  0  0
 10 41  1  0  0  0  0
 11 12  1  0  0  0  0
 11 16  2  0  0  0  0
 12 13  2  0  0  0  0
 12 30  1  0  0  0  0
 13 14  1  0  0  0  0
 13 23  1  0  0  0  0
 14 15  2  0  0  0  0
 14 21  1  0  0  0  0
 15 16  1  0  0  0  0
 15 19  1  0  0  0  0
 16 17  1  0  0  0  0
 17 18  1  0  0  0  0
 18 42  1  0  0  0  0
 19 20  1  0  0  0  0
 19 43  1  0  0  0  0
 19 44  1  0  0  0  0
 20 21  1  0  0  0  0
 20 45  1  0  0  0  0
 21 22  2  0  0  0  0
 23 24  2  0  0  0  0
 23 28  1  0  0  0  0
 24 25  1  0  0  0  0
 24 46  1  0  0  0  0
 25 26  1  0  0  0  0
 25 27  1  0  0  0  0
 26 47  1  0  0  0  0
 26 48  1  0  0  0  0
 26 49  1  0  0  0  0
 27 28  2  0  0  0  0
 28 29  1  0  0  0  0
 29 30  1  0  0  0  0
 29 50  1  0  0  0  0
 29 51  1  0  0  0  0
 30 52  1  0  0  0  0
 30 53  1  0  0  0  0
 31 32  1  0  0  0  0
 31 33  1  0  0  0  0
 31 54  1  0  0  0  0
 32 55  1  0  0  0  0
 32 56  1  0  0  0  0
 32 57  1  0  0  0  0
 33 58  1  0  0  0  0
 33 59  1  0  0  0  0
 33 60  1  0  0  0  0
M  END
$$$$
