CHEMBL218201
 OpenBabel04072215363D

 70 76  0  0  0  0  0  0  0  0999 V2000
    3.9888   -0.7732   -3.4948 C   0  0  0  0  0  0  0  0  0  0  0  0
    3.3976    0.1128   -2.4087 C   0  0  0  0  0  0  0  0  0  0  0  0
    3.8558   -0.2551   -0.9847 C   0  0  0  0  0  0  0  0  0  0  0  0
    5.2890   -0.1138   -0.7478 N   0  0  0  0  0  0  0  0  0  0  0  0
    5.9735    1.1163   -0.8579 C   0  0  0  0  0  0  0  0  0  0  0  0
    5.5102    2.4323   -1.0228 C   0  0  0  0  0  0  0  0  0  0  0  0
    6.4555    3.4603   -1.2189 C   0  0  0  0  0  0  0  0  0  0  0  0
    7.8208    3.2210   -1.2173 C   0  0  0  0  0  0  0  0  0  0  0  0
    8.8193    4.2380   -1.3525 N   0  0  0  0  0  0  0  0  0  0  0  0
    8.5946    5.5913   -1.2700 C   0  0  0  0  0  0  0  0  0  0  0  0
    7.4928    6.1046   -1.1032 O   0  0  0  0  0  0  0  0  0  0  0  0
    9.7690    6.3372   -1.3535 N   0  0  0  0  0  0  0  0  0  0  0  0
    9.8199    7.7364   -1.1101 C   0  0  0  0  0  0  0  0  0  0  0  0
    8.8517    8.3843   -0.3377 C   0  0  0  0  0  0  0  0  0  0  0  0
    8.8354    9.7746   -0.2224 C   0  0  0  0  0  0  0  0  0  0  0  0
    9.8172   10.5479   -0.8291 C   0  0  0  0  0  0  0  0  0  0  0  0
    9.5987   11.8922   -0.7408 O   0  0  0  0  0  0  0  0  0  0  0  0
   10.7349   12.7406   -0.7435 C   0  0  0  0  0  0  0  0  0  0  0  0
   10.8481    9.9124   -1.5201 C   0  0  0  0  0  0  0  0  0  0  0  0
   10.8531    8.5093   -1.6578 C   0  0  0  0  0  0  0  0  0  0  0  0
    8.2695    1.9075   -1.0747 C   0  0  0  0  0  0  0  0  0  0  0  0
    7.3475    0.8498   -0.9173 C   0  0  0  0  0  0  0  0  0  0  0  0
    7.3708   -0.5311   -0.8935 C   0  0  0  0  0  0  0  0  0  0  0  0
    8.4573   -1.2653   -1.3896 C   0  0  0  0  0  0  0  0  0  0  0  0
    8.1652   -2.5700   -1.8246 C   0  0  0  0  0  0  0  0  0  0  0  0
    6.9034   -3.1786   -1.6863 C   0  0  0  0  0  0  0  0  0  0  0  0
    6.1220   -2.5871   -0.6397 C   0  0  0  0  0  0  0  0  0  0  0  0
    6.1957   -1.1706   -0.6245 C   0  0  0  0  0  0  0  0  0  0  0  0
    6.1556   -3.4808    0.6794 C   0  0  0  0  0  0  0  0  0  0  0  0
    7.1991   -4.6785    0.6379 C   0  0  0  0  0  0  0  0  0  0  0  0
    6.9630   -5.3960   -0.6439 C   0  0  0  0  0  0  0  0  0  0  0  0
    6.5558   -6.6536   -0.8092 N   0  0  0  0  0  0  0  0  0  0  0  0
    6.0545   -6.6354   -2.0703 N   0  0  0  0  0  0  0  0  0  0  0  0
    5.3679   -7.7971   -2.5818 C   0  0  0  0  0  0  0  0  0  0  0  0
    6.0624   -5.3869   -2.6464 C   0  0  0  0  0  0  0  0  0  0  0  0
    6.8129   -4.6128   -1.7992 C   0  0  0  0  0  0  0  0  0  0  0  0
    9.4086   -3.1639   -2.2580 C   0  0  0  0  0  0  0  0  0  0  0  0
    9.7187   -4.2768   -2.6589 O   0  0  0  0  0  0  0  0  0  0  0  0
   10.3534   -2.1642   -2.0704 N   0  0  0  0  0  0  0  0  0  0  0  0
    9.8555   -0.9008   -1.5809 C   0  0  0  0  0  0  0  0  0  0  0  0
    3.5730   -0.4984   -4.4705 H   0  0  0  0  0  0  0  0  0  0  0  0
    3.7564   -1.8262   -3.3127 H   0  0  0  0  0  0  0  0  0  0  0  0
    5.0750   -0.6583   -3.5567 H   0  0  0  0  0  0  0  0  0  0  0  0
    2.3040    0.0406   -2.4562 H   0  0  0  0  0  0  0  0  0  0  0  0
    3.6399    1.1546   -2.6455 H   0  0  0  0  0  0  0  0  0  0  0  0
    3.5656   -1.2848   -0.7514 H   0  0  0  0  0  0  0  0  0  0  0  0
    3.3537    0.3974   -0.2601 H   0  0  0  0  0  0  0  0  0  0  0  0
    4.4502    2.6678   -1.0452 H   0  0  0  0  0  0  0  0  0  0  0  0
    6.0515    4.4516   -1.4137 H   0  0  0  0  0  0  0  0  0  0  0  0
    9.7852    3.9344   -1.3102 H   0  0  0  0  0  0  0  0  0  0  0  0
   10.5114    5.9478   -1.9046 H   0  0  0  0  0  0  0  0  0  0  0  0
    8.0726    7.8347    0.1759 H   0  0  0  0  0  0  0  0  0  0  0  0
    8.0315   10.2499    0.3327 H   0  0  0  0  0  0  0  0  0  0  0  0
   10.3669   13.7724   -0.7359 H   0  0  0  0  0  0  0  0  0  0  0  0
   11.3480   12.6217   -1.6399 H   0  0  0  0  0  0  0  0  0  0  0  0
   11.3243   12.5890    0.1657 H   0  0  0  0  0  0  0  0  0  0  0  0
   11.6304   10.4811   -2.0125 H   0  0  0  0  0  0  0  0  0  0  0  0
   11.6472    8.0459   -2.2335 H   0  0  0  0  0  0  0  0  0  0  0  0
    9.3322    1.6943   -1.0860 H   0  0  0  0  0  0  0  0  0  0  0  0
    5.1554   -3.9071    0.8162 H   0  0  0  0  0  0  0  0  0  0  0  0
    6.3928   -2.8514    1.5443 H   0  0  0  0  0  0  0  0  0  0  0  0
    7.1140   -5.3407    1.5030 H   0  0  0  0  0  0  0  0  0  0  0  0
    8.2251   -4.2779    0.6339 H   0  0  0  0  0  0  0  0  0  0  0  0
    5.5785   -8.6566   -1.9404 H   0  0  0  0  0  0  0  0  0  0  0  0
    5.7219   -7.9922   -3.5966 H   0  0  0  0  0  0  0  0  0  0  0  0
    4.2954   -7.5849   -2.5830 H   0  0  0  0  0  0  0  0  0  0  0  0
    5.4994   -5.1675   -3.5428 H   0  0  0  0  0  0  0  0  0  0  0  0
   11.3294   -2.3797   -2.2035 H   0  0  0  0  0  0  0  0  0  0  0  0
    9.9905   -0.1433   -2.3550 H   0  0  0  0  0  0  0  0  0  0  0  0
   10.3537   -0.6377   -0.6442 H   0  0  0  0  0  0  0  0  0  0  0  0
  1  2  1  0  0  0  0
  1 41  1  0  0  0  0
  1 42  1  0  0  0  0
  1 43  1  0  0  0  0
  2  3  1  0  0  0  0
  2 44  1  0  0  0  0
  2 45  1  0  0  0  0
  3  4  1  0  0  0  0
  3 46  1  0  0  0  0
  3 47  1  0  0  0  0
  4  5  1  0  0  0  0
  4 28  1  0  0  0  0
  5  6  1  0  0  0  0
  5 22  2  0  0  0  0
  6  7  2  0  0  0  0
  6 48  1  0  0  0  0
  7  8  1  0  0  0  0
  7 49  1  0  0  0  0
  8  9  1  0  0  0  0
  8 21  2  0  0  0  0
  9 10  1  0  0  0  0
  9 50  1  0  0  0  0
 10 11  2  0  0  0  0
 10 12  1  0  0  0  0
 12 13  1  0  0  0  0
 12 51  1  0  0  0  0
 13 14  1  0  0  0  0
 13 20  2  0  0  0  0
 14 15  2  0  0  0  0
 14 52  1  0  0  0  0
 15 16  1  0  0  0  0
 15 53  1  0  0  0  0
 16 17  1  0  0  0  0
 16 19  2  0  0  0  0
 17 18  1  0  0  0  0
 18 54  1  0  0  0  0
 18 55  1  0  0  0  0
 18 56  1  0  0  0  0
 19 20  1  0  0  0  0
 19 57  1  0  0  0  0
 20 58  1  0  0  0  0
 21 22  1  0  0  0  0
 21 59  1  0  0  0  0
 22 23  1  0  0  0  0
 23 24  1  0  0  0  0
 23 28  2  0  0  0  0
 24 25  2  0  0  0  0
 24 40  1  0  0  0  0
 25 26  1  0  0  0  0
 25 37  1  0  0  0  0
 26 27  2  0  0  0  0
 26 36  1  0  0  0  0
 27 28  1  0  0  0  0
 27 29  1  0  0  0  0
 29 30  1  0  0  0  0
 29 60  1  0  0  0  0
 29 61  1  0  0  0  0
 30 31  1  0  0  0  0
 30 62  1  0  0  0  0
 30 63  1  0  0  0  0
 31 32  2  0  0  0  0
 31 36  1  0  0  0  0
 32 33  1  0  0  0  0
 33 34  1  0  0  0  0
 33 35  1  0  0  0  0
 34 64  1  0  0  0  0
 34 65  1  0  0  0  0
 34 66  1  0  0  0  0
 35 36  2  0  0  0  0
 35 67  1  0  0  0  0
 37 38  2  0  0  0  0
 37 39  1  0  0  0  0
 39 40  1  0  0  0  0
 39 68  1  0  0  0  0
 40 69  1  0  0  0  0
 40 70  1  0  0  0  0
M  END
$$$$
