CHEMBL493046
 OpenBabel04072215383D

 61 65  0  0  0  0  0  0  0  0999 V2000
   12.1603   -4.1072   -4.0651 C   0  0  0  0  0  0  0  0  0  0  0  0
   11.2139   -4.1235   -2.9928 O   0  0  0  0  0  0  0  0  0  0  0  0
    9.9122   -4.3463   -3.3679 C   0  0  0  0  0  0  0  0  0  0  0  0
    9.5841   -5.1055   -4.4973 C   0  0  0  0  0  0  0  0  0  0  0  0
    8.2777   -5.3193   -4.9015 C   0  0  0  0  0  0  0  0  0  0  0  0
    8.1038   -6.0546   -6.0108 N   0  0  0  0  0  0  0  0  0  0  0  0
    6.8491   -6.2551   -6.4458 C   0  0  0  0  0  0  0  0  0  0  0  0
    5.7347   -5.7261   -5.8260 C   0  0  0  0  0  0  0  0  0  0  0  0
    5.8964   -4.9434   -4.6721 C   0  0  0  0  0  0  0  0  0  0  0  0
    4.6377   -4.3345   -4.0679 C   0  0  0  0  0  0  0  0  0  0  0  0
    3.8756   -3.5620   -5.0565 N   0  0  0  0  0  0  0  0  0  0  0  0
    4.4281   -2.2610   -5.4128 C   0  0  0  0  0  0  0  0  0  0  0  0
    3.8160   -1.0608   -4.6797 C   0  0  0  0  0  0  0  0  0  0  0  0
    2.3043   -1.0665   -4.6881 C   0  0  0  0  0  0  0  0  0  0  0  0
    1.6617   -2.3124   -4.8266 C   0  0  0  0  0  0  0  0  0  0  0  0
    0.2566   -2.3634   -4.8223 C   0  0  0  0  0  0  0  0  0  0  0  0
   -0.5045   -1.2077   -4.6695 C   0  0  0  0  0  0  0  0  0  0  0  0
    0.1265    0.0244   -4.4993 C   0  0  0  0  0  0  0  0  0  0  0  0
    1.5270    0.1117   -4.5000 C   0  0  0  0  0  0  0  0  0  0  0  0
    2.1720    1.4209   -4.1628 C   0  0  0  0  0  0  0  0  0  0  0  0
    3.2029    1.3915   -3.4930 O   0  0  0  0  0  0  0  0  0  0  0  0
    1.5410    2.5803   -4.6037 N   0  0  0  0  0  0  0  0  0  0  0  0
    1.9641    3.9143   -4.3630 C   0  0  0  0  0  0  0  0  0  0  0  0
    3.1435    4.2442   -3.6884 C   0  0  0  0  0  0  0  0  0  0  0  0
    3.5150    5.5798   -3.4924 C   0  0  0  0  0  0  0  0  0  0  0  0
    2.7010    6.6007   -3.9651 C   0  0  0  0  0  0  0  0  0  0  0  0
    3.1619    8.2418   -3.7253 Cl  0  0  0  0  0  0  0  0  0  0  0  0
    1.5188    6.2972   -4.6317 C   0  0  0  0  0  0  0  0  0  0  0  0
    1.1528    4.9564   -4.8324 C   0  0  0  0  0  0  0  0  0  0  0  0
    2.4220   -3.6209   -4.9295 C   0  0  0  0  0  0  0  0  0  0  0  0
    7.2109   -4.7629   -4.1580 C   0  0  0  0  0  0  0  0  0  0  0  0
    7.5416   -4.0772   -2.9654 C   0  0  0  0  0  0  0  0  0  0  0  0
    8.8719   -3.8588   -2.5719 C   0  0  0  0  0  0  0  0  0  0  0  0
    8.9828   -3.2263   -1.3637 O   0  0  0  0  0  0  0  0  0  0  0  0
   10.0156   -2.2622   -1.2113 C   0  0  0  0  0  0  0  0  0  0  0  0
   13.0551   -3.5819   -3.7217 H   0  0  0  0  0  0  0  0  0  0  0  0
   11.7815   -3.5689   -4.9427 H   0  0  0  0  0  0  0  0  0  0  0  0
   12.4517   -5.1281   -4.3319 H   0  0  0  0  0  0  0  0  0  0  0  0
   10.3606   -5.5687   -5.0993 H   0  0  0  0  0  0  0  0  0  0  0  0
    6.7598   -6.8607   -7.3423 H   0  0  0  0  0  0  0  0  0  0  0  0
    4.7523   -5.9038   -6.2503 H   0  0  0  0  0  0  0  0  0  0  0  0
    4.8317   -3.7250   -3.1778 H   0  0  0  0  0  0  0  0  0  0  0  0
    4.0466   -5.1935   -3.7154 H   0  0  0  0  0  0  0  0  0  0  0  0
    4.2704   -2.1273   -6.4911 H   0  0  0  0  0  0  0  0  0  0  0  0
    5.5169   -2.2361   -5.2785 H   0  0  0  0  0  0  0  0  0  0  0  0
    4.1849   -0.1608   -5.1857 H   0  0  0  0  0  0  0  0  0  0  0  0
    4.1619   -1.0454   -3.6397 H   0  0  0  0  0  0  0  0  0  0  0  0
   -0.2524   -3.3219   -4.9156 H   0  0  0  0  0  0  0  0  0  0  0  0
   -1.5895   -1.2739   -4.6422 H   0  0  0  0  0  0  0  0  0  0  0  0
   -0.4960    0.8941   -4.3064 H   0  0  0  0  0  0  0  0  0  0  0  0
    0.7054    2.4764   -5.1640 H   0  0  0  0  0  0  0  0  0  0  0  0
    3.8164    3.4855   -3.3027 H   0  0  0  0  0  0  0  0  0  0  0  0
    4.4431    5.8032   -2.9721 H   0  0  0  0  0  0  0  0  0  0  0  0
    0.8781    7.0952   -4.9976 H   0  0  0  0  0  0  0  0  0  0  0  0
    0.2218    4.7515   -5.3542 H   0  0  0  0  0  0  0  0  0  0  0  0
    2.0547   -4.1423   -5.8219 H   0  0  0  0  0  0  0  0  0  0  0  0
    2.1285   -4.2319   -4.0665 H   0  0  0  0  0  0  0  0  0  0  0  0
    6.7625   -3.6985   -2.3098 H   0  0  0  0  0  0  0  0  0  0  0  0
    9.5517   -1.3466   -0.8296 H   0  0  0  0  0  0  0  0  0  0  0  0
   10.5375   -1.9949   -2.1337 H   0  0  0  0  0  0  0  0  0  0  0  0
   10.7255   -2.6152   -0.4572 H   0  0  0  0  0  0  0  0  0  0  0  0
  1  2  1  0  0  0  0
  1 36  1  0  0  0  0
  1 37  1  0  0  0  0
  1 38  1  0  0  0  0
  2  3  1  0  0  0  0
  3  4  1  0  0  0  0
  3 33  2  0  0  0  0
  4  5  2  0  0  0  0
  4 39  1  0  0  0  0
  5  6  1  0  0  0  0
  5 31  1  0  0  0  0
  6  7  2  0  0  0  0
  7  8  1  0  0  0  0
  7 40  1  0  0  0  0
  8  9  2  0  0  0  0
  8 41  1  0  0  0  0
  9 10  1  0  0  0  0
  9 31  1  0  0  0  0
 10 11  1  0  0  0  0
 10 42  1  0  0  0  0
 10 43  1  0  0  0  0
 11 12  1  0  0  0  0
 11 30  1  0  0  0  0
 12 13  1  0  0  0  0
 12 44  1  0  0  0  0
 12 45  1  0  0  0  0
 13 14  1  0  0  0  0
 13 46  1  0  0  0  0
 13 47  1  0  0  0  0
 14 15  1  0  0  0  0
 14 19  2  0  0  0  0
 15 16  2  0  0  0  0
 15 30  1  0  0  0  0
 16 17  1  0  0  0  0
 16 48  1  0  0  0  0
 17 18  2  0  0  0  0
 17 49  1  0  0  0  0
 18 19  1  0  0  0  0
 18 50  1  0  0  0  0
 19 20  1  0  0  0  0
 20 21  2  0  0  0  0
 20 22  1  0  0  0  0
 22 23  1  0  0  0  0
 22 51  1  0  0  0  0
 23 24  1  0  0  0  0
 23 29  2  0  0  0  0
 24 25  2  0  0  0  0
 24 52  1  0  0  0  0
 25 26  1  0  0  0  0
 25 53  1  0  0  0  0
 26 27  1  0  0  0  0
 26 28  2  0  0  0  0
 28 29  1  0  0  0  0
 28 54  1  0  0  0  0
 29 55  1  0  0  0  0
 30 56  1  0  0  0  0
 30 57  1  0  0  0  0
 31 32  2  0  0  0  0
 32 33  1  0  0  0  0
 32 58  1  0  0  0  0
 33 34  1  0  0  0  0
 34 35  1  0  0  0  0
 35 59  1  0  0  0  0
 35 60  1  0  0  0  0
 35 61  1  0  0  0  0
M  END
$$$$
