CHEMBL374079
 OpenBabel04072215373D

 58 61  0  0  1  0  0  0  0  0999 V2000
   13.9982    7.6524    5.6039 N   0  0  0  0  0  0  0  0  0  0  0  0
   13.5579    6.5647    4.8799 C   0  0  0  0  0  0  0  0  0  0  0  0
   14.4254    5.5658    4.6777 N   0  0  0  0  0  0  0  0  0  0  0  0
   13.9676    4.5055    3.9751 C   0  0  0  0  0  0  0  0  0  0  0  0
   12.6968    4.4239    3.4598 C   0  0  0  0  0  0  0  0  0  0  0  0
   12.2291    3.2868    2.7484 C   0  0  0  0  0  0  0  0  0  0  0  0
   11.7989    2.3086    2.1953 C   0  0  0  0  0  0  0  0  0  0  0  0
   11.2362    1.1464    1.5946 C   0  0  0  0  0  0  0  0  0  0  0  0
    9.8865    1.1577    1.2284 C   0  0  0  0  0  0  0  0  0  0  0  0
    9.3035    0.0067    0.7122 C   0  0  0  0  0  0  0  0  0  0  0  0
   10.0749   -1.1392    0.5771 C   0  0  0  0  0  0  0  0  0  0  0  0
    9.4400   -2.2421    0.1766 F   0  0  0  0  0  0  0  0  0  0  0  0
   11.4314   -1.1610    0.8998 C   0  0  0  0  0  0  0  0  0  0  0  0
   12.2686   -2.3854    0.7964 C   0  0  0  0  0  0  0  0  0  0  0  0
   13.1091   -2.5661    1.6712 O   0  0  0  0  0  0  0  0  0  0  0  0
   12.0097   -3.2144   -0.2765 N   0  0  0  0  0  0  0  0  0  0  0  0
   12.5966   -4.4773   -0.5398 C   0  0  0  0  0  0  0  0  0  0  0  0
   13.8929   -4.7517   -0.0759 C   0  0  0  0  0  0  0  0  0  0  0  0
   14.5676   -5.9277   -0.4254 C   0  0  0  0  0  0  0  0  0  0  0  0
   15.9961   -6.1440    0.0063 C   0  0  0  0  0  0  0  0  0  0  0  0
   16.5218   -5.1029    0.7106 F   0  0  0  0  0  0  0  0  0  0  0  0
   16.1531   -7.2447    0.7914 F   0  0  0  0  0  0  0  0  0  0  0  0
   16.8301   -6.3228   -1.0576 F   0  0  0  0  0  0  0  0  0  0  0  0
   13.9043   -6.8669   -1.2164 C   0  0  0  0  0  0  0  0  0  0  0  0
   12.6016   -6.6158   -1.6627 C   0  0  0  0  0  0  0  0  0  0  0  0
   11.9105   -5.4251   -1.3475 C   0  0  0  0  0  0  0  0  0  0  0  0
   10.5791   -5.3248   -1.7565 N   0  0  0  0  0  0  0  0  0  0  0  0
    9.5822   -4.5936   -0.9789 C   0  0  0  0  0  0  0  0  0  0  0  0
    8.2072   -5.2343   -1.0686 C   0  0  0  0  0  0  0  0  0  0  0  0
    7.8058   -5.4772   -2.5232 C   0  0  0  0  0  0  0  0  0  0  0  0
    8.9093   -6.1898   -3.3272 C   0  0  2  0  0  0  0  0  0  0  0  0
    9.0620   -7.5652   -2.8143 N   0  0  0  0  0  0  0  0  0  0  0  0
   10.2529   -5.4220   -3.1912 C   0  0  0  0  0  0  0  0  0  0  0  0
   12.0126   -0.0039    1.4247 C   0  0  0  0  0  0  0  0  0  0  0  0
   11.9002    5.5208    3.7062 C   0  0  0  0  0  0  0  0  0  0  0  0
   12.3113    6.6004    4.4038 N   0  0  0  0  0  0  0  0  0  0  0  0
   15.0053    7.7150    5.5567 H   0  0  0  0  0  0  0  0  0  0  0  0
   13.4639    8.4726    5.3603 H   0  0  0  0  0  0  0  0  0  0  0  0
   14.6857    3.7005    3.8466 H   0  0  0  0  0  0  0  0  0  0  0  0
    9.2798    2.0484    1.3660 H   0  0  0  0  0  0  0  0  0  0  0  0
    8.2507   -0.0161    0.4500 H   0  0  0  0  0  0  0  0  0  0  0  0
   11.2623   -2.9607   -0.9032 H   0  0  0  0  0  0  0  0  0  0  0  0
   14.4262   -4.0198    0.5263 H   0  0  0  0  0  0  0  0  0  0  0  0
   14.3930   -7.8018   -1.4875 H   0  0  0  0  0  0  0  0  0  0  0  0
   12.1026   -7.3948   -2.2357 H   0  0  0  0  0  0  0  0  0  0  0  0
    9.4949   -3.5936   -1.4143 H   0  0  0  0  0  0  0  0  0  0  0  0
    9.8546   -4.5355    0.0799 H   0  0  0  0  0  0  0  0  0  0  0  0
    7.4753   -4.5719   -0.5894 H   0  0  0  0  0  0  0  0  0  0  0  0
    8.2003   -6.1732   -0.5047 H   0  0  0  0  0  0  0  0  0  0  0  0
    7.5900   -4.5096   -2.9954 H   0  0  0  0  0  0  0  0  0  0  0  0
    6.8717   -6.0507   -2.5471 H   0  0  0  0  0  0  0  0  0  0  0  0
    8.6124   -6.2362   -4.3800 H   0  0  0  0  0  0  0  0  0  0  0  0
    9.5236   -7.4744   -1.9003 H   0  0  0  0  0  0  0  0  0  0  0  0
    9.7506   -8.0518   -3.3863 H   0  0  0  0  0  0  0  0  0  0  0  0
   10.1536   -4.4126   -3.6123 H   0  0  0  0  0  0  0  0  0  0  0  0
   11.0322   -5.9314   -3.7698 H   0  0  0  0  0  0  0  0  0  0  0  0
   13.0587   -0.0121    1.7227 H   0  0  0  0  0  0  0  0  0  0  0  0
   10.8753    5.5667    3.3531 H   0  0  0  0  0  0  0  0  0  0  0  0
  1  2  1  0  0  0  0
  1 37  1  0  0  0  0
  1 38  1  0  0  0  0
  2  3  1  0  0  0  0
  2 36  2  0  0  0  0
  3  4  2  0  0  0  0
  4  5  1  0  0  0  0
  4 39  1  0  0  0  0
  5  6  1  0  0  0  0
  5 35  2  0  0  0  0
  6  7  3  0  0  0  0
  7  8  1  0  0  0  0
  8  9  1  0  0  0  0
  8 34  2  0  0  0  0
  9 10  2  0  0  0  0
  9 40  1  0  0  0  0
 10 11  1  0  0  0  0
 10 41  1  0  0  0  0
 11 12  1  0  0  0  0
 11 13  2  0  0  0  0
 13 14  1  0  0  0  0
 13 34  1  0  0  0  0
 14 15  2  0  0  0  0
 14 16  1  0  0  0  0
 16 17  1  0  0  0  0
 16 42  1  0  0  0  0
 17 18  1  0  0  0  0
 17 26  2  0  0  0  0
 18 19  2  0  0  0  0
 18 43  1  0  0  0  0
 19 20  1  0  0  0  0
 19 24  1  0  0  0  0
 20 21  1  0  0  0  0
 20 22  1  0  0  0  0
 20 23  1  0  0  0  0
 24 25  2  0  0  0  0
 24 44  1  0  0  0  0
 25 26  1  0  0  0  0
 25 45  1  0  0  0  0
 26 27  1  0  0  0  0
 27 28  1  0  0  0  0
 27 33  1  0  0  0  0
 28 29  1  0  0  0  0
 28 46  1  0  0  0  0
 28 47  1  0  0  0  0
 29 30  1  0  0  0  0
 29 48  1  0  0  0  0
 29 49  1  0  0  0  0
 30 31  1  0  0  0  0
 30 50  1  0  0  0  0
 30 51  1  0  0  0  0
 31 33  1  0  0  0  0
 31 32  1  0  0  0  0
 31 52  1  6  0  0  0
 32 53  1  0  0  0  0
 32 54  1  0  0  0  0
 33 55  1  0  0  0  0
 33 56  1  0  0  0  0
 34 57  1  0  0  0  0
 35 36  1  0  0  0  0
 35 58  1  0  0  0  0
M  END
$$$$
