CHEMBL249303
 OpenBabel04072215363D

 59 64  0  0  0  0  0  0  0  0999 V2000
    5.3854   -0.8373   -3.4567 C   0  0  0  0  0  0  0  0  0  0  0  0
    4.7498   -1.5213   -2.2469 C   0  0  0  0  0  0  0  0  0  0  0  0
    4.9657   -0.8027   -0.9771 N   0  0  0  0  0  0  0  0  0  0  0  0
    4.4720    0.5872   -1.0020 C   0  0  0  0  0  0  0  0  0  0  0  0
    2.9696    0.7849   -1.2105 C   0  0  0  0  0  0  0  0  0  0  0  0
    4.3974   -1.5399    0.1743 C   0  0  0  0  0  0  0  0  0  0  0  0
    4.9758   -2.9247    0.3751 C   0  0  0  0  0  0  0  0  0  0  0  0
    6.3413   -3.1188    0.6642 C   0  0  0  0  0  0  0  0  0  0  0  0
    6.8886   -4.4016    0.7945 C   0  0  0  0  0  0  0  0  0  0  0  0
    6.1063   -5.5520    0.6409 C   0  0  0  0  0  0  0  0  0  0  0  0
    4.7566   -5.3492    0.3603 C   0  0  0  0  0  0  0  0  0  0  0  0
    3.7166   -6.2137    0.1141 N   0  0  0  0  0  0  0  0  0  0  0  0
    2.6074   -5.4657   -0.1717 C   0  0  0  0  0  0  0  0  0  0  0  0
    1.3053   -6.0039   -0.6477 C   0  0  0  0  0  0  0  0  0  0  0  0
    1.0634   -7.3084   -0.8560 N   0  0  0  0  0  0  0  0  0  0  0  0
   -0.1786   -7.2975   -1.4040 N   0  0  0  0  0  0  0  0  0  0  0  0
   -0.7044   -6.0468   -1.5667 C   0  0  0  0  0  0  0  0  0  0  0  0
   -1.8673   -5.7233   -2.1588 N   0  0  0  0  0  0  0  0  0  0  0  0
   -2.0867   -4.3752   -2.1596 C   0  0  0  0  0  0  0  0  0  0  0  0
   -1.2998   -3.3762   -1.5632 C   0  0  0  0  0  0  0  0  0  0  0  0
   -1.6709   -1.9391   -1.5380 C   0  0  0  0  0  0  0  0  0  0  0  0
   -0.6811   -0.9697   -1.7635 C   0  0  0  0  0  0  0  0  0  0  0  0
   -0.8690    0.3684   -1.7658 N   0  0  0  0  0  0  0  0  0  0  0  0
   -2.1310    0.7878   -1.5537 C   0  0  0  0  0  0  0  0  0  0  0  0
   -3.2168   -0.0525   -1.3266 C   0  0  0  0  0  0  0  0  0  0  0  0
   -4.5090    0.4714   -1.1391 C   0  0  0  0  0  0  0  0  0  0  0  0
   -5.5932   -0.3679   -0.9003 C   0  0  0  0  0  0  0  0  0  0  0  0
   -5.3919   -1.7354   -0.7973 C   0  0  0  0  0  0  0  0  0  0  0  0
   -4.1068   -2.2610   -0.9571 C   0  0  0  0  0  0  0  0  0  0  0  0
   -2.9890   -1.4506   -1.2796 C   0  0  0  0  0  0  0  0  0  0  0  0
   -0.0955   -3.8115   -0.9937 C   0  0  0  0  0  0  0  0  0  0  0  0
    0.2156   -5.1802   -1.0149 C   0  0  0  0  0  0  0  0  0  0  0  0
    2.8575   -4.1790   -0.0552 N   0  0  0  0  0  0  0  0  0  0  0  0
    4.1899   -4.0844    0.2386 C   0  0  0  0  0  0  0  0  0  0  0  0
    5.3316   -1.4976   -4.3269 H   0  0  0  0  0  0  0  0  0  0  0  0
    6.4397   -0.6108   -3.2726 H   0  0  0  0  0  0  0  0  0  0  0  0
    4.8677    0.0906   -3.7206 H   0  0  0  0  0  0  0  0  0  0  0  0
    5.2162   -2.5110   -2.1882 H   0  0  0  0  0  0  0  0  0  0  0  0
    3.6849   -1.6925   -2.4413 H   0  0  0  0  0  0  0  0  0  0  0  0
    5.0145    1.1462   -1.7729 H   0  0  0  0  0  0  0  0  0  0  0  0
    4.7605    1.0829   -0.0660 H   0  0  0  0  0  0  0  0  0  0  0  0
    2.5414    0.0794   -1.9275 H   0  0  0  0  0  0  0  0  0  0  0  0
    2.7734    1.7903   -1.5991 H   0  0  0  0  0  0  0  0  0  0  0  0
    2.4250    0.6806   -0.2665 H   0  0  0  0  0  0  0  0  0  0  0  0
    3.3062   -1.6092    0.0812 H   0  0  0  0  0  0  0  0  0  0  0  0
    4.5921   -0.9789    1.0980 H   0  0  0  0  0  0  0  0  0  0  0  0
    6.9896   -2.2501    0.7631 H   0  0  0  0  0  0  0  0  0  0  0  0
    7.9515   -4.5048    1.0040 H   0  0  0  0  0  0  0  0  0  0  0  0
    6.5370   -6.5437    0.7219 H   0  0  0  0  0  0  0  0  0  0  0  0
    3.7555   -7.2212    0.0653 H   0  0  0  0  0  0  0  0  0  0  0  0
   -0.6121   -8.1722   -1.6721 H   0  0  0  0  0  0  0  0  0  0  0  0
   -2.9948   -4.1029   -2.6964 H   0  0  0  0  0  0  0  0  0  0  0  0
    0.3508   -1.2542   -1.9637 H   0  0  0  0  0  0  0  0  0  0  0  0
   -2.2490    1.8687   -1.5689 H   0  0  0  0  0  0  0  0  0  0  0  0
   -4.6783    1.5450   -1.1871 H   0  0  0  0  0  0  0  0  0  0  0  0
   -6.5901    0.0459   -0.7793 H   0  0  0  0  0  0  0  0  0  0  0  0
   -6.2253   -2.4000   -0.5905 H   0  0  0  0  0  0  0  0  0  0  0  0
   -4.0023   -3.3339   -0.8086 H   0  0  0  0  0  0  0  0  0  0  0  0
    0.6066   -3.1179   -0.5384 H   0  0  0  0  0  0  0  0  0  0  0  0
  1  2  1  0  0  0  0
  1 35  1  0  0  0  0
  1 36  1  0  0  0  0
  1 37  1  0  0  0  0
  2  3  1  0  0  0  0
  2 38  1  0  0  0  0
  2 39  1  0  0  0  0
  3  4  1  0  0  0  0
  3  6  1  0  0  0  0
  4  5  1  0  0  0  0
  4 40  1  0  0  0  0
  4 41  1  0  0  0  0
  5 42  1  0  0  0  0
  5 43  1  0  0  0  0
  5 44  1  0  0  0  0
  6  7  1  0  0  0  0
  6 45  1  0  0  0  0
  6 46  1  0  0  0  0
  7  8  1  0  0  0  0
  7 34  2  0  0  0  0
  8  9  2  0  0  0  0
  8 47  1  0  0  0  0
  9 10  1  0  0  0  0
  9 48  1  0  0  0  0
 10 11  2  0  0  0  0
 10 49  1  0  0  0  0
 11 12  1  0  0  0  0
 11 34  1  0  0  0  0
 12 13  1  0  0  0  0
 12 50  1  0  0  0  0
 13 14  1  0  0  0  0
 13 33  2  0  0  0  0
 14 15  2  0  0  0  0
 14 32  1  0  0  0  0
 15 16  1  0  0  0  0
 16 17  1  0  0  0  0
 16 51  1  0  0  0  0
 17 18  1  0  0  0  0
 17 32  2  0  0  0  0
 18 19  2  0  0  0  0
 19 20  1  0  0  0  0
 19 52  1  0  0  0  0
 20 21  1  0  0  0  0
 20 31  2  0  0  0  0
 21 22  1  0  0  0  0
 21 30  2  0  0  0  0
 22 23  2  0  0  0  0
 22 53  1  0  0  0  0
 23 24  1  0  0  0  0
 24 25  2  0  0  0  0
 24 54  1  0  0  0  0
 25 26  1  0  0  0  0
 25 30  1  0  0  0  0
 26 27  2  0  0  0  0
 26 55  1  0  0  0  0
 27 28  1  0  0  0  0
 27 56  1  0  0  0  0
 28 29  2  0  0  0  0
 28 57  1  0  0  0  0
 29 30  1  0  0  0  0
 29 58  1  0  0  0  0
 31 32  1  0  0  0  0
 31 59  1  0  0  0  0
 33 34  1  0  0  0  0
M  END
$$$$
