CHEMBL2180878
 OpenBabel04072215363D

 45 48  0  0  0  0  0  0  0  0999 V2000
    1.0560   -0.3027   -0.3288 C   0  0  0  0  0  0  0  0  0  0  0  0
    2.4200   -0.0337   -0.0346 O   0  0  0  0  0  0  0  0  0  0  0  0
    3.1438   -1.0166    0.5906 C   0  0  0  0  0  0  0  0  0  0  0  0
    2.7912   -2.3691    0.5120 C   0  0  0  0  0  0  0  0  0  0  0  0
    3.6284   -3.3618    1.0327 C   0  0  0  0  0  0  0  0  0  0  0  0
    3.3003   -4.7627    0.8150 C   0  0  0  0  0  0  0  0  0  0  0  0
    3.6910   -5.5098   -0.2286 C   0  0  0  0  0  0  0  0  0  0  0  0
    4.5252   -5.1425   -1.3129 C   0  0  0  0  0  0  0  0  0  0  0  0
    5.8978   -5.3002   -1.3186 C   0  0  0  0  0  0  0  0  0  0  0  0
    6.3660   -4.8156   -2.5141 N   0  0  0  0  0  0  0  0  0  0  0  0
    5.3259   -4.3339   -3.2598 C   0  0  0  0  0  0  0  0  0  0  0  0
    5.4642   -3.7834   -4.4797 N   0  0  0  0  0  0  0  0  0  0  0  0
    4.2899   -3.3657   -5.0030 C   0  0  0  0  0  0  0  0  0  0  0  0
    3.0483   -3.4646   -4.3877 C   0  0  0  0  0  0  0  0  0  0  0  0
    2.9612   -4.0507   -3.1233 C   0  0  0  0  0  0  0  0  0  0  0  0
    4.1518   -4.5104   -2.5333 C   0  0  0  0  0  0  0  0  0  0  0  0
    3.0889   -6.8490   -0.0525 C   0  0  0  0  0  0  0  0  0  0  0  0
    3.1874   -7.7957   -0.8106 O   0  0  0  0  0  0  0  0  0  0  0  0
    2.3932   -6.8216    1.1055 N   0  0  0  0  0  0  0  0  0  0  0  0
    2.4726   -5.6082    1.6933 C   0  0  0  0  0  0  0  0  0  0  0  0
    1.9657   -5.2722    2.7440 O   0  0  0  0  0  0  0  0  0  0  0  0
    4.8351   -3.0056    1.6336 C   0  0  0  0  0  0  0  0  0  0  0  0
    5.2116   -1.6610    1.7093 C   0  0  0  0  0  0  0  0  0  0  0  0
    6.4083   -1.2657    2.2624 O   0  0  0  0  0  0  0  0  0  0  0  0
    7.4943   -2.1704    2.0726 C   0  0  0  0  0  0  0  0  0  0  0  0
    4.3461   -0.6544    1.2296 C   0  0  0  0  0  0  0  0  0  0  0  0
    4.8038    0.6376    1.3874 O   0  0  0  0  0  0  0  0  0  0  0  0
    3.8206    1.6479    1.5799 C   0  0  0  0  0  0  0  0  0  0  0  0
    0.6294    0.5955   -0.7850 H   0  0  0  0  0  0  0  0  0  0  0  0
    0.5017   -0.5133    0.5912 H   0  0  0  0  0  0  0  0  0  0  0  0
    0.9438   -1.1127   -1.0561 H   0  0  0  0  0  0  0  0  0  0  0  0
    1.8906   -2.6826   -0.0057 H   0  0  0  0  0  0  0  0  0  0  0  0
    6.5819   -5.7091   -0.5872 H   0  0  0  0  0  0  0  0  0  0  0  0
    7.3273   -4.7927   -2.8217 H   0  0  0  0  0  0  0  0  0  0  0  0
    4.3733   -2.9196   -5.9918 H   0  0  0  0  0  0  0  0  0  0  0  0
    2.1608   -3.0917   -4.8876 H   0  0  0  0  0  0  0  0  0  0  0  0
    2.0058   -4.1439   -2.6198 H   0  0  0  0  0  0  0  0  0  0  0  0
    1.8864   -7.6055    1.4813 H   0  0  0  0  0  0  0  0  0  0  0  0
    5.4770   -3.7861    2.0270 H   0  0  0  0  0  0  0  0  0  0  0  0
    8.4223   -1.6390    2.3038 H   0  0  0  0  0  0  0  0  0  0  0  0
    7.5588   -2.5187    1.0348 H   0  0  0  0  0  0  0  0  0  0  0  0
    7.4201   -3.0174    2.7623 H   0  0  0  0  0  0  0  0  0  0  0  0
    4.3093    2.5078    2.0490 H   0  0  0  0  0  0  0  0  0  0  0  0
    3.0115    1.3260    2.2464 H   0  0  0  0  0  0  0  0  0  0  0  0
    3.4310    1.9962    0.6187 H   0  0  0  0  0  0  0  0  0  0  0  0
  1  2  1  0  0  0  0
  1 29  1  0  0  0  0
  1 30  1  0  0  0  0
  1 31  1  0  0  0  0
  2  3  1  0  0  0  0
  3  4  1  0  0  0  0
  3 26  2  0  0  0  0
  4  5  2  0  0  0  0
  4 32  1  0  0  0  0
  5  6  1  0  0  0  0
  5 22  1  0  0  0  0
  6  7  2  0  0  0  0
  6 20  1  0  0  0  0
  7  8  1  0  0  0  0
  7 17  1  0  0  0  0
  8  9  2  0  0  0  0
  8 16  1  0  0  0  0
  9 10  1  0  0  0  0
  9 33  1  0  0  0  0
 10 11  1  0  0  0  0
 10 34  1  0  0  0  0
 11 12  1  0  0  0  0
 11 16  2  0  0  0  0
 12 13  2  0  0  0  0
 13 14  1  0  0  0  0
 13 35  1  0  0  0  0
 14 15  2  0  0  0  0
 14 36  1  0  0  0  0
 15 16  1  0  0  0  0
 15 37  1  0  0  0  0
 17 18  2  0  0  0  0
 17 19  1  0  0  0  0
 19 20  1  0  0  0  0
 19 38  1  0  0  0  0
 20 21  2  0  0  0  0
 22 23  2  0  0  0  0
 22 39  1  0  0  0  0
 23 24  1  0  0  0  0
 23 26  1  0  0  0  0
 24 25  1  0  0  0  0
 25 40  1  0  0  0  0
 25 41  1  0  0  0  0
 25 42  1  0  0  0  0
 26 27  1  0  0  0  0
 27 28  1  0  0  0  0
 28 43  1  0  0  0  0
 28 44  1  0  0  0  0
 28 45  1  0  0  0  0
M  END
$$$$
