CHEMBL1977652
 OpenBabel04072215363D

 35 37  0  0  0  0  0  0  0  0999 V2000
    0.7981   -0.8217    1.7467 C   0  0  0  0  0  0  0  0  0  0  0  0
    2.1714   -1.4372    1.5468 C   0  0  0  0  0  0  0  0  0  0  0  0
    3.4606   -0.2037    1.7247 S   0  0  0  0  0  0  0  0  0  0  0  0
    3.2908    0.7698    0.6658 O   0  0  0  0  0  0  0  0  0  0  0  0
    3.5469    0.2012    3.1091 O   0  0  0  0  0  0  0  0  0  0  0  0
    4.8536   -1.0737    1.2969 N   0  0  0  0  0  0  0  0  0  0  0  0
    5.5643   -1.7254    2.3509 C   0  0  0  0  0  0  0  0  0  0  0  0
    5.1811   -3.0304    2.7003 C   0  0  0  0  0  0  0  0  0  0  0  0
    5.7935   -3.6925    3.7662 C   0  0  0  0  0  0  0  0  0  0  0  0
    6.7868   -3.0305    4.4690 C   0  0  0  0  0  0  0  0  0  0  0  0
    7.1767   -1.7240    4.1082 C   0  0  0  0  0  0  0  0  0  0  0  0
    6.5683   -1.0530    3.0572 C   0  0  0  0  0  0  0  0  0  0  0  0
    8.2629   -1.3268    5.0504 C   0  0  0  0  0  0  0  0  0  0  0  0
    8.9787   -0.2508    5.1454 N   0  0  0  0  0  0  0  0  0  0  0  0
    8.6628    0.6995    4.1759 O   0  0  0  0  0  0  0  0  0  0  0  0
    8.4554   -2.4692    5.9788 C   0  0  0  0  0  0  0  0  0  0  0  0
    9.3309   -2.6078    7.0410 C   0  0  0  0  0  0  0  0  0  0  0  0
    9.2914   -3.8077    7.7558 C   0  0  0  0  0  0  0  0  0  0  0  0
    8.3909   -4.8268    7.3973 C   0  0  0  0  0  0  0  0  0  0  0  0
    7.5166   -4.6659    6.3166 C   0  0  0  0  0  0  0  0  0  0  0  0
    7.5570   -3.4765    5.6061 C   0  0  0  0  0  0  0  0  0  0  0  0
    0.0179   -1.5832    1.6506 H   0  0  0  0  0  0  0  0  0  0  0  0
    0.6042   -0.0400    1.0053 H   0  0  0  0  0  0  0  0  0  0  0  0
    0.7117   -0.3683    2.7394 H   0  0  0  0  0  0  0  0  0  0  0  0
    2.2523   -1.8703    0.5457 H   0  0  0  0  0  0  0  0  0  0  0  0
    2.3421   -2.2122    2.2985 H   0  0  0  0  0  0  0  0  0  0  0  0
    5.4276   -0.4815    0.6918 H   0  0  0  0  0  0  0  0  0  0  0  0
    4.4097   -3.5437    2.1336 H   0  0  0  0  0  0  0  0  0  0  0  0
    5.4898   -4.6997    4.0307 H   0  0  0  0  0  0  0  0  0  0  0  0
    6.8457   -0.0381    2.8023 H   0  0  0  0  0  0  0  0  0  0  0  0
    9.2528    1.4386    4.4117 H   0  0  0  0  0  0  0  0  0  0  0  0
   10.0194   -1.8135    7.3083 H   0  0  0  0  0  0  0  0  0  0  0  0
    9.9610   -3.9579    8.6004 H   0  0  0  0  0  0  0  0  0  0  0  0
    8.3722   -5.7527    7.9691 H   0  0  0  0  0  0  0  0  0  0  0  0
    6.8248   -5.4588    6.0527 H   0  0  0  0  0  0  0  0  0  0  0  0
  1  2  1  0  0  0  0
  1 22  1  0  0  0  0
  1 23  1  0  0  0  0
  1 24  1  0  0  0  0
  2  3  1  0  0  0  0
  2 25  1  0  0  0  0
  2 26  1  0  0  0  0
  3  4  2  0  0  0  0
  3  5  2  0  0  0  0
  3  6  1  0  0  0  0
  6  7  1  0  0  0  0
  6 27  1  0  0  0  0
  7  8  1  0  0  0  0
  7 12  2  0  0  0  0
  8  9  2  0  0  0  0
  8 28  1  0  0  0  0
  9 10  1  0  0  0  0
  9 29  1  0  0  0  0
 10 11  2  0  0  0  0
 10 21  1  0  0  0  0
 11 12  1  0  0  0  0
 11 13  1  0  0  0  0
 12 30  1  0  0  0  0
 13 14  2  3  0  0  0
 13 16  1  0  0  0  0
 14 15  1  0  0  0  0
 15 31  1  0  0  0  0
 16 17  1  0  0  0  0
 16 21  2  0  0  0  0
 17 18  2  0  0  0  0
 17 32  1  0  0  0  0
 18 19  1  0  0  0  0
 18 33  1  0  0  0  0
 19 20  2  0  0  0  0
 19 34  1  0  0  0  0
 20 21  1  0  0  0  0
 20 35  1  0  0  0  0
M  END
$$$$
