CHEMBL215691
 OpenBabel04072215363D

 69 73  0  0  0  0  0  0  0  0999 V2000
    0.8088   -0.5159   -2.7749 C   0  0  0  0  0  0  0  0  0  0  0  0
    0.1699   -0.1734   -1.4513 C   0  0  0  0  0  0  0  0  0  0  0  0
   -0.3500    1.1333   -1.3029 C   0  0  0  0  0  0  0  0  0  0  0  0
   -0.8399    1.5950   -0.0772 C   0  0  0  0  0  0  0  0  0  0  0  0
   -0.8472    0.7305    1.0092 C   0  0  0  0  0  0  0  0  0  0  0  0
   -1.1940    1.1439    2.3907 C   0  0  0  0  0  0  0  0  0  0  0  0
   -0.5401    0.6476    3.3015 O   0  0  0  0  0  0  0  0  0  0  0  0
   -2.2728    1.9965    2.5147 N   0  0  0  0  0  0  0  0  0  0  0  0
   -2.8469    2.4237    3.7408 C   0  0  0  0  0  0  0  0  0  0  0  0
   -2.1521    2.3067    4.9524 C   0  0  0  0  0  0  0  0  0  0  0  0
   -2.7386    2.6675    6.1607 C   0  0  0  0  0  0  0  0  0  0  0  0
   -4.0341    3.1628    6.1750 C   0  0  0  0  0  0  0  0  0  0  0  0
   -4.7598    3.3193    4.9795 C   0  0  0  0  0  0  0  0  0  0  0  0
   -6.1739    3.8529    5.0682 C   0  0  0  0  0  0  0  0  0  0  0  0
   -6.5858    4.1073    6.3432 F   0  0  0  0  0  0  0  0  0  0  0  0
   -6.3365    5.0242    4.3917 F   0  0  0  0  0  0  0  0  0  0  0  0
   -7.0936    2.9877    4.5559 F   0  0  0  0  0  0  0  0  0  0  0  0
   -4.1580    2.9602    3.7425 C   0  0  0  0  0  0  0  0  0  0  0  0
   -4.9131    3.1061    2.4422 C   0  0  0  0  0  0  0  0  0  0  0  0
   -0.4002   -0.5840    0.8526 C   0  0  0  0  0  0  0  0  0  0  0  0
    0.1594   -1.0649   -0.3478 C   0  0  0  0  0  0  0  0  0  0  0  0
    0.7832   -2.4144   -0.3064 C   0  0  0  0  0  0  0  0  0  0  0  0
    1.5406   -2.7850    0.8228 C   0  0  0  0  0  0  0  0  0  0  0  0
    2.1305   -4.0459    0.9421 C   0  0  0  0  0  0  0  0  0  0  0  0
    2.0446   -4.9755   -0.0727 C   0  0  0  0  0  0  0  0  0  0  0  0
    2.6830   -6.1423    0.0600 N   0  0  0  0  0  0  0  0  0  0  0  0
    2.6224   -7.0152   -0.9501 C   0  0  0  0  0  0  0  0  0  0  0  0
    3.2924   -8.2062   -0.8654 N   0  0  0  0  0  0  0  0  0  0  0  0
    4.2238   -8.5082    0.2108 C   0  0  0  0  0  0  0  0  0  0  0  0
    5.3446   -9.4277   -0.2782 C   0  0  0  0  0  0  0  0  0  0  0  0
    4.8536  -10.8433   -0.5837 C   0  0  0  0  0  0  0  0  0  0  0  0
    4.1044  -11.4485    0.5237 N   0  0  0  0  0  0  0  0  0  0  0  0
    3.5379  -12.7352    0.0997 C   0  0  0  0  0  0  0  0  0  0  0  0
    3.0225  -10.5806    1.0172 C   0  0  0  0  0  0  0  0  0  0  0  0
    3.5026   -9.1770    1.3802 C   0  0  0  0  0  0  0  0  0  0  0  0
    1.9289   -6.8030   -2.0760 N   0  0  0  0  0  0  0  0  0  0  0  0
    1.2715   -5.6276   -2.1732 C   0  0  0  0  0  0  0  0  0  0  0  0
    1.2970   -4.6406   -1.1994 C   0  0  0  0  0  0  0  0  0  0  0  0
    0.6415   -3.3870   -1.3064 C   0  0  0  0  0  0  0  0  0  0  0  0
    0.6930    0.3010   -3.4962 H   0  0  0  0  0  0  0  0  0  0  0  0
    0.3384   -1.3875   -3.2331 H   0  0  0  0  0  0  0  0  0  0  0  0
    1.8811   -0.6892   -2.6445 H   0  0  0  0  0  0  0  0  0  0  0  0
   -0.3187    1.8289   -2.1422 H   0  0  0  0  0  0  0  0  0  0  0  0
   -1.1467    2.6325    0.0197 H   0  0  0  0  0  0  0  0  0  0  0  0
   -2.7974    2.1788    1.6714 H   0  0  0  0  0  0  0  0  0  0  0  0
   -1.1315    1.9372    4.9927 H   0  0  0  0  0  0  0  0  0  0  0  0
   -2.1811    2.5501    7.0869 H   0  0  0  0  0  0  0  0  0  0  0  0
   -4.4806    3.4262    7.1332 H   0  0  0  0  0  0  0  0  0  0  0  0
   -5.9143    3.5228    2.5617 H   0  0  0  0  0  0  0  0  0  0  0  0
   -5.0305    2.1273    1.9648 H   0  0  0  0  0  0  0  0  0  0  0  0
   -4.3705    3.7784    1.7690 H   0  0  0  0  0  0  0  0  0  0  0  0
   -0.4414   -1.2360    1.7274 H   0  0  0  0  0  0  0  0  0  0  0  0
    1.6833   -2.0876    1.6485 H   0  0  0  0  0  0  0  0  0  0  0  0
    2.6818   -4.2934    1.8451 H   0  0  0  0  0  0  0  0  0  0  0  0
    3.2840   -8.7310   -1.7251 H   0  0  0  0  0  0  0  0  0  0  0  0
    4.6979   -7.5837    0.5646 H   0  0  0  0  0  0  0  0  0  0  0  0
    6.1197   -9.4832    0.4985 H   0  0  0  0  0  0  0  0  0  0  0  0
    5.8241   -9.0081   -1.1703 H   0  0  0  0  0  0  0  0  0  0  0  0
    5.7379  -11.4622   -0.7857 H   0  0  0  0  0  0  0  0  0  0  0  0
    4.2563  -10.8331   -1.5036 H   0  0  0  0  0  0  0  0  0  0  0  0
    4.2812  -13.3475   -0.4231 H   0  0  0  0  0  0  0  0  0  0  0  0
    2.6815  -12.6049   -0.5741 H   0  0  0  0  0  0  0  0  0  0  0  0
    3.2058  -13.3092    0.9710 H   0  0  0  0  0  0  0  0  0  0  0  0
    2.5883  -11.0327    1.9178 H   0  0  0  0  0  0  0  0  0  0  0  0
    2.2156  -10.5029    0.2771 H   0  0  0  0  0  0  0  0  0  0  0  0
    4.1858   -9.2404    2.2375 H   0  0  0  0  0  0  0  0  0  0  0  0
    2.6465   -8.5734    1.7047 H   0  0  0  0  0  0  0  0  0  0  0  0
    0.7243   -5.4933   -3.1012 H   0  0  0  0  0  0  0  0  0  0  0  0
    0.0184   -3.1921   -2.1744 H   0  0  0  0  0  0  0  0  0  0  0  0
  1  2  1  0  0  0  0
  1 40  1  0  0  0  0
  1 41  1  0  0  0  0
  1 42  1  0  0  0  0
  2  3  1  0  0  0  0
  2 21  2  0  0  0  0
  3  4  2  0  0  0  0
  3 43  1  0  0  0  0
  4  5  1  0  0  0  0
  4 44  1  0  0  0  0
  5  6  1  0  0  0  0
  5 20  2  0  0  0  0
  6  7  2  0  0  0  0
  6  8  1  0  0  0  0
  8  9  1  0  0  0  0
  8 45  1  0  0  0  0
  9 10  1  0  0  0  0
  9 18  2  0  0  0  0
 10 11  2  0  0  0  0
 10 46  1  0  0  0  0
 11 12  1  0  0  0  0
 11 47  1  0  0  0  0
 12 13  2  0  0  0  0
 12 48  1  0  0  0  0
 13 14  1  0  0  0  0
 13 18  1  0  0  0  0
 14 15  1  0  0  0  0
 14 16  1  0  0  0  0
 14 17  1  0  0  0  0
 18 19  1  0  0  0  0
 19 49  1  0  0  0  0
 19 50  1  0  0  0  0
 19 51  1  0  0  0  0
 20 21  1  0  0  0  0
 20 52  1  0  0  0  0
 21 22  1  0  0  0  0
 22 23  1  0  0  0  0
 22 39  2  0  0  0  0
 23 24  2  0  0  0  0
 23 53  1  0  0  0  0
 24 25  1  0  0  0  0
 24 54  1  0  0  0  0
 25 26  1  0  0  0  0
 25 38  2  0  0  0  0
 26 27  2  0  0  0  0
 27 28  1  0  0  0  0
 27 36  1  0  0  0  0
 28 29  1  0  0  0  0
 28 55  1  0  0  0  0
 29 30  1  0  0  0  0
 29 35  1  0  0  0  0
 29 56  1  0  0  0  0
 30 31  1  0  0  0  0
 30 57  1  0  0  0  0
 30 58  1  0  0  0  0
 31 32  1  0  0  0  0
 31 59  1  0  0  0  0
 31 60  1  0  0  0  0
 32 33  1  0  0  0  0
 32 34  1  0  0  0  0
 33 61  1  0  0  0  0
 33 62  1  0  0  0  0
 33 63  1  0  0  0  0
 34 35  1  0  0  0  0
 34 64  1  0  0  0  0
 34 65  1  0  0  0  0
 35 66  1  0  0  0  0
 35 67  1  0  0  0  0
 36 37  2  0  0  0  0
 37 38  1  0  0  0  0
 37 68  1  0  0  0  0
 38 39  1  0  0  0  0
 39 69  1  0  0  0  0
M  END
$$$$
