CHEMBL1614709
 OpenBabel04072215363D

 63 67  0  0  1  0  0  0  0  0999 V2000
   -7.2729   11.2283    6.6108 C   0  0  0  0  0  0  0  0  0  0  0  0
   -5.9770   11.6430    7.2628 C   0  0  0  0  0  0  0  0  0  0  0  0
   -4.8444   11.6702    6.4297 C   0  0  0  0  0  0  0  0  0  0  0  0
   -3.5419   11.8608    6.8916 C   0  0  0  0  0  0  0  0  0  0  0  0
   -2.4193   11.8132    6.0428 N   0  0  0  0  0  0  0  0  0  0  0  0
   -2.2950   11.3350    4.7332 C   0  0  0  0  0  0  0  0  0  0  0  0
   -1.0505   11.0774    4.2930 N   0  0  0  0  0  0  0  0  0  0  0  0
   -0.9549   10.5559    3.0471 C   0  0  0  0  0  0  0  0  0  0  0  0
   -2.0308   10.2914    2.2289 C   0  0  0  0  0  0  0  0  0  0  0  0
   -1.8599    9.7884    0.9996 F   0  0  0  0  0  0  0  0  0  0  0  0
   -3.2717   10.6282    2.7229 C   0  0  0  0  0  0  0  0  0  0  0  0
   -4.4567   10.4043    1.9540 N   0  0  0  0  0  0  0  0  0  0  0  0
   -5.5870   11.1943    2.4694 C   0  0  1  0  0  0  0  0  0  0  0  0
   -5.4554   12.7422    2.2756 C   0  0  1  0  0  0  0  0  0  0  0  0
   -4.4459   13.1743    1.2185 C   0  0  0  0  0  0  0  0  0  0  0  0
   -3.8965   14.4100    1.3981 N   0  0  0  0  0  0  0  0  0  0  0  0
   -4.1443   12.5156    0.2265 O   0  0  0  0  0  0  0  0  0  0  0  0
   -6.8802   13.1309    1.8089 C   0  0  2  0  0  0  0  0  0  0  0  0
   -7.8772   12.7587    2.8896 C   0  0  0  0  0  0  0  0  0  0  0  0
   -7.9886   11.4189    2.8817 C   0  0  0  0  0  0  0  0  0  0  0  0
   -6.9900   10.8914    1.8567 C   0  0  1  0  0  0  0  0  0  0  0  0
   -7.1958   11.9958    0.8219 C   0  0  0  0  0  0  0  0  0  0  0  0
   -3.3749   11.1450    3.9614 N   0  0  0  0  0  0  0  0  0  0  0  0
   -3.4103   12.1224    8.2532 C   0  0  0  0  0  0  0  0  0  0  0  0
   -4.5329   12.1302    9.1062 C   0  0  0  0  0  0  0  0  0  0  0  0
   -5.8388   11.8933    8.6376 C   0  0  0  0  0  0  0  0  0  0  0  0
   -6.9363   11.8364    9.4838 N   0  0  0  0  0  0  0  0  0  0  0  0
   -6.7905   11.5044   10.9114 C   0  0  0  0  0  0  0  0  0  0  0  0
   -8.1342   10.9264   11.4365 C   0  0  0  0  0  0  0  0  0  0  0  0
   -9.3008   11.8089   11.1776 N   0  0  0  0  0  0  0  0  0  0  0  0
  -10.5423   11.1620   11.5924 C   0  0  0  0  0  0  0  0  0  0  0  0
   -9.3490   12.1510    9.7362 C   0  0  0  0  0  0  0  0  0  0  0  0
   -8.0284   12.8066    9.2710 C   0  0  0  0  0  0  0  0  0  0  0  0
   -7.1124   10.9480    5.5660 H   0  0  0  0  0  0  0  0  0  0  0  0
   -8.0044   12.0363    6.5882 H   0  0  0  0  0  0  0  0  0  0  0  0
   -7.6909   10.3483    7.1084 H   0  0  0  0  0  0  0  0  0  0  0  0
   -5.0149   11.4858    5.3848 H   0  0  0  0  0  0  0  0  0  0  0  0
   -1.5169   11.8070    6.4945 H   0  0  0  0  0  0  0  0  0  0  0  0
    0.0541   10.3488    2.7061 H   0  0  0  0  0  0  0  0  0  0  0  0
   -4.2488   10.6398    0.9758 H   0  0  0  0  0  0  0  0  0  0  0  0
   -5.6933   10.9492    3.5306 H   0  0  0  0  0  0  0  0  0  0  0  0
   -5.2018   13.2198    3.2304 H   0  0  0  0  0  0  0  0  0  0  0  0
   -3.8248   14.8004    2.3280 H   0  0  0  0  0  0  0  0  0  0  0  0
   -3.1558   14.6476    0.7492 H   0  0  0  0  0  0  0  0  0  0  0  0
   -7.0061   14.1339    1.3986 H   0  0  0  0  0  0  0  0  0  0  0  0
   -8.3667   13.4427    3.5680 H   0  0  0  0  0  0  0  0  0  0  0  0
   -8.5784   10.8127    3.5535 H   0  0  0  0  0  0  0  0  0  0  0  0
   -7.1814    9.8741    1.5140 H   0  0  0  0  0  0  0  0  0  0  0  0
   -8.2244   12.0458    0.4347 H   0  0  0  0  0  0  0  0  0  0  0  0
   -6.5178   11.9284   -0.0311 H   0  0  0  0  0  0  0  0  0  0  0  0
   -2.4275   12.3025    8.6859 H   0  0  0  0  0  0  0  0  0  0  0  0
   -4.3620   12.3237   10.1625 H   0  0  0  0  0  0  0  0  0  0  0  0
   -6.5234   12.4028   11.4820 H   0  0  0  0  0  0  0  0  0  0  0  0
   -6.0089   10.7527   11.0683 H   0  0  0  0  0  0  0  0  0  0  0  0
   -8.0394   10.7581   12.5157 H   0  0  0  0  0  0  0  0  0  0  0  0
   -8.2945    9.9477   10.9632 H   0  0  0  0  0  0  0  0  0  0  0  0
  -10.5259   10.9616   12.6689 H   0  0  0  0  0  0  0  0  0  0  0  0
  -10.7187   10.2168   11.0664 H   0  0  0  0  0  0  0  0  0  0  0  0
  -11.3973   11.8219   11.4076 H   0  0  0  0  0  0  0  0  0  0  0  0
  -10.1727   12.8483    9.5464 H   0  0  0  0  0  0  0  0  0  0  0  0
   -9.5338   11.2486    9.1360 H   0  0  0  0  0  0  0  0  0  0  0  0
   -7.8346   13.7159    9.8544 H   0  0  0  0  0  0  0  0  0  0  0  0
   -8.1311   13.1376    8.2376 H   0  0  0  0  0  0  0  0  0  0  0  0
  1  2  1  0  0  0  0
  1 34  1  0  0  0  0
  1 35  1  0  0  0  0
  1 36  1  0  0  0  0
  2  3  1  0  0  0  0
  2 26  2  0  0  0  0
  3  4  2  0  0  0  0
  3 37  1  0  0  0  0
  4  5  1  0  0  0  0
  4 24  1  0  0  0  0
  5  6  1  0  0  0  0
  5 38  1  0  0  0  0
  6  7  1  0  0  0  0
  6 23  2  0  0  0  0
  7  8  2  0  0  0  0
  8  9  1  0  0  0  0
  8 39  1  0  0  0  0
  9 10  1  0  0  0  0
  9 11  2  0  0  0  0
 11 12  1  0  0  0  0
 11 23  1  0  0  0  0
 12 40  1  0  0  0  0
 13 14  1  0  0  0  0
 13 21  1  0  0  0  0
 13 12  1  0  0  0  0
 13 41  1  1  0  0  0
 14 15  1  0  0  0  0
 14 18  1  0  0  0  0
 14 42  1  1  0  0  0
 15 16  1  0  0  0  0
 15 17  2  0  0  0  0
 16 43  1  0  0  0  0
 16 44  1  0  0  0  0
 18 19  1  0  0  0  0
 18 22  1  0  0  0  0
 18 45  1  6  0  0  0
 19 20  2  0  0  0  0
 19 46  1  0  0  0  0
 20 21  1  0  0  0  0
 20 47  1  0  0  0  0
 21 22  1  0  0  0  0
 21 48  1  6  0  0  0
 22 49  1  0  0  0  0
 22 50  1  0  0  0  0
 24 25  2  0  0  0  0
 24 51  1  0  0  0  0
 25 26  1  0  0  0  0
 25 52  1  0  0  0  0
 26 27  1  0  0  0  0
 27 28  1  0  0  0  0
 27 33  1  0  0  0  0
 28 29  1  0  0  0  0
 28 53  1  0  0  0  0
 28 54  1  0  0  0  0
 29 30  1  0  0  0  0
 29 55  1  0  0  0  0
 29 56  1  0  0  0  0
 30 31  1  0  0  0  0
 30 32  1  0  0  0  0
 31 57  1  0  0  0  0
 31 58  1  0  0  0  0
 31 59  1  0  0  0  0
 32 33  1  0  0  0  0
 32 60  1  0  0  0  0
 32 61  1  0  0  0  0
 33 62  1  0  0  0  0
 33 63  1  0  0  0  0
M  END
$$$$
