CHEMBL467805
 OpenBabel04072215383D

 47 51  0  0  0  0  0  0  0  0999 V2000
    3.2008    0.8704    0.5177 O   0  0  0  0  0  0  0  0  0  0  0  0
    2.5423    0.0419   -0.1097 C   0  0  0  0  0  0  0  0  0  0  0  0
    3.1472   -1.2904   -0.3993 C   0  0  0  0  0  0  0  0  0  0  0  0
    2.8976   -1.8569   -1.6657 C   0  0  0  0  0  0  0  0  0  0  0  0
    3.6186   -2.9636   -2.1034 C   0  0  0  0  0  0  0  0  0  0  0  0
    4.6029   -3.5043   -1.2890 C   0  0  0  0  0  0  0  0  0  0  0  0
    4.8290   -2.9777   -0.0136 C   0  0  0  0  0  0  0  0  0  0  0  0
    4.1089   -1.8699    0.4728 C   0  0  0  0  0  0  0  0  0  0  0  0
    4.3078   -1.3899    1.7837 N   0  0  0  0  0  0  0  0  0  0  0  0
    5.5521   -1.6998    2.4815 C   0  0  0  0  0  0  0  0  0  0  0  0
    5.7493   -0.8873    3.7461 C   0  0  0  0  0  0  0  0  0  0  0  0
    6.3951   -1.4889    4.8381 C   0  0  0  0  0  0  0  0  0  0  0  0
    6.5936   -0.7920    6.0348 C   0  0  0  0  0  0  0  0  0  0  0  0
    6.2240    0.5570    6.1326 C   0  0  0  0  0  0  0  0  0  0  0  0
    6.3775    1.2777    7.3218 C   0  0  0  0  0  0  0  0  0  0  0  0
    6.1840    2.6088    7.4267 N   0  0  0  0  0  0  0  0  0  0  0  0
    5.8041    3.2473    6.3002 C   0  0  0  0  0  0  0  0  0  0  0  0
    5.5235    2.6101    5.0999 C   0  0  0  0  0  0  0  0  0  0  0  0
    5.7098    1.2218    5.0114 C   0  0  0  0  0  0  0  0  0  0  0  0
    5.4329    0.4810    3.8355 C   0  0  0  0  0  0  0  0  0  0  0  0
    1.1999    0.3790   -0.6136 C   0  0  0  0  0  0  0  0  0  0  0  0
    0.9512    1.6286   -1.0565 N   0  0  0  0  0  0  0  0  0  0  0  0
   -0.3820    1.7022   -1.1030 N   0  0  0  0  0  0  0  0  0  0  0  0
   -1.0124    0.5661   -0.6834 C   0  0  0  0  0  0  0  0  0  0  0  0
   -2.3489    0.3128   -0.3675 C   0  0  0  0  0  0  0  0  0  0  0  0
   -2.6780   -0.9990   -0.0202 C   0  0  0  0  0  0  0  0  0  0  0  0
   -1.7239   -2.0150   -0.0643 C   0  0  0  0  0  0  0  0  0  0  0  0
   -0.3779   -1.7258   -0.3262 C   0  0  0  0  0  0  0  0  0  0  0  0
   -0.0060   -0.3902   -0.5743 C   0  0  0  0  0  0  0  0  0  0  0  0
    2.1775   -1.4131   -2.3496 H   0  0  0  0  0  0  0  0  0  0  0  0
    3.4403   -3.3749   -3.0937 H   0  0  0  0  0  0  0  0  0  0  0  0
    5.2074   -4.3352   -1.6444 H   0  0  0  0  0  0  0  0  0  0  0  0
    5.5974   -3.4556    0.5872 H   0  0  0  0  0  0  0  0  0  0  0  0
    3.4878   -1.5392    2.3692 H   0  0  0  0  0  0  0  0  0  0  0  0
    6.4146   -1.5054    1.8338 H   0  0  0  0  0  0  0  0  0  0  0  0
    5.5487   -2.7634    2.7533 H   0  0  0  0  0  0  0  0  0  0  0  0
    6.7659   -2.5108    4.7597 H   0  0  0  0  0  0  0  0  0  0  0  0
    7.0826   -1.2956    6.8621 H   0  0  0  0  0  0  0  0  0  0  0  0
    6.6644    0.7834    8.2447 H   0  0  0  0  0  0  0  0  0  0  0  0
    5.7397    4.3290    6.3895 H   0  0  0  0  0  0  0  0  0  0  0  0
    5.2124    3.1936    4.2392 H   0  0  0  0  0  0  0  0  0  0  0  0
    4.9805    0.9767    2.9730 H   0  0  0  0  0  0  0  0  0  0  0  0
   -0.8030    2.5779   -1.3918 H   0  0  0  0  0  0  0  0  0  0  0  0
   -3.0895    1.1056   -0.3411 H   0  0  0  0  0  0  0  0  0  0  0  0
   -3.6956   -1.2302    0.2875 H   0  0  0  0  0  0  0  0  0  0  0  0
   -2.0200   -3.0392    0.1513 H   0  0  0  0  0  0  0  0  0  0  0  0
    0.3543   -2.5274   -0.3111 H   0  0  0  0  0  0  0  0  0  0  0  0
  1  2  2  0  0  0  0
  2  3  1  0  0  0  0
  2 21  1  0  0  0  0
  3  4  1  0  0  0  0
  3  8  2  0  0  0  0
  4  5  2  0  0  0  0
  4 30  1  0  0  0  0
  5  6  1  0  0  0  0
  5 31  1  0  0  0  0
  6  7  2  0  0  0  0
  6 32  1  0  0  0  0
  7  8  1  0  0  0  0
  7 33  1  0  0  0  0
  8  9  1  0  0  0  0
  9 10  1  0  0  0  0
  9 34  1  0  0  0  0
 10 11  1  0  0  0  0
 10 35  1  0  0  0  0
 10 36  1  0  0  0  0
 11 12  1  0  0  0  0
 11 20  2  0  0  0  0
 12 13  2  0  0  0  0
 12 37  1  0  0  0  0
 13 14  1  0  0  0  0
 13 38  1  0  0  0  0
 14 15  1  0  0  0  0
 14 19  2  0  0  0  0
 15 16  2  0  0  0  0
 15 39  1  0  0  0  0
 16 17  1  0  0  0  0
 17 18  2  0  0  0  0
 17 40  1  0  0  0  0
 18 19  1  0  0  0  0
 18 41  1  0  0  0  0
 19 20  1  0  0  0  0
 20 42  1  0  0  0  0
 21 22  2  0  0  0  0
 21 29  1  0  0  0  0
 22 23  1  0  0  0  0
 23 24  1  0  0  0  0
 23 43  1  0  0  0  0
 24 25  1  0  0  0  0
 24 29  2  0  0  0  0
 25 26  2  0  0  0  0
 25 44  1  0  0  0  0
 26 27  1  0  0  0  0
 26 45  1  0  0  0  0
 27 28  2  0  0  0  0
 27 46  1  0  0  0  0
 28 29  1  0  0  0  0
 28 47  1  0  0  0  0
M  END
$$$$
