CHEMBL473825
 OpenBabel04072215383D

 61 65  0  0  0  0  0  0  0  0999 V2000
    2.5127    0.1564   -0.0451 C   0  0  0  0  0  0  0  0  0  0  0  0
    1.0101    0.1187    0.0101 C   0  0  0  0  0  0  0  0  0  0  0  0
    0.3415    1.3548   -0.0141 C   0  0  0  0  0  0  0  0  0  0  0  0
   -1.0475    1.4319   -0.0068 C   0  0  0  0  0  0  0  0  0  0  0  0
   -1.8040    0.2733   -0.0188 C   0  0  0  0  0  0  0  0  0  0  0  0
   -3.2124    0.2522   -0.0556 N   0  0  0  0  0  0  0  0  0  0  0  0
   -4.0687    1.3386   -0.0750 C   0  0  0  0  0  0  0  0  0  0  0  0
   -3.7115    2.5156   -0.0442 O   0  0  0  0  0  0  0  0  0  0  0  0
   -5.4878    1.0038   -0.1344 C   0  0  0  0  0  0  0  0  0  0  0  0
   -6.5360    1.9033   -0.1232 C   0  0  0  0  0  0  0  0  0  0  0  0
   -7.8031    1.2640   -0.2050 C   0  0  0  0  0  0  0  0  0  0  0  0
   -7.6941   -0.1107   -0.3040 C   0  0  0  0  0  0  0  0  0  0  0  0
   -8.7942   -1.0603   -0.4470 C   0  0  0  0  0  0  0  0  0  0  0  0
   -9.9619   -0.6857   -0.3773 O   0  0  0  0  0  0  0  0  0  0  0  0
   -8.4001   -2.3575   -0.7222 N   0  0  0  0  0  0  0  0  0  0  0  0
   -9.2231   -3.4835   -0.9400 C   0  0  0  0  0  0  0  0  0  0  0  0
  -10.5727   -3.5045   -0.5776 C   0  0  0  0  0  0  0  0  0  0  0  0
  -11.3367   -4.6584   -0.7526 C   0  0  0  0  0  0  0  0  0  0  0  0
  -10.7550   -5.8034   -1.2837 C   0  0  0  0  0  0  0  0  0  0  0  0
   -9.4089   -5.7941   -1.6510 C   0  0  0  0  0  0  0  0  0  0  0  0
   -8.6379   -4.6293   -1.5286 C   0  0  0  0  0  0  0  0  0  0  0  0
   -7.2568   -4.6924   -1.8314 N   0  0  0  0  0  0  0  0  0  0  0  0
   -6.0560   -0.6054   -0.2483 S   0  0  0  0  0  0  0  0  0  0  0  0
   -1.1427   -0.9592    0.0199 C   0  0  0  0  0  0  0  0  0  0  0  0
    0.2595   -1.0716    0.1081 C   0  0  0  0  0  0  0  0  0  0  0  0
    0.8872   -2.3229    0.2815 N   0  0  0  0  0  0  0  0  0  0  0  0
    0.3700   -3.5517    0.7124 C   0  0  0  0  0  0  0  0  0  0  0  0
   -0.9518   -3.7638    0.7782 N   0  0  0  0  0  0  0  0  0  0  0  0
   -1.3936   -4.9702    1.1877 C   0  0  0  0  0  0  0  0  0  0  0  0
   -0.5821   -6.0263    1.5385 C   0  0  0  0  0  0  0  0  0  0  0  0
   -1.0999   -7.3508    1.9164 C   0  0  0  0  0  0  0  0  0  0  0  0
   -2.2977   -7.8655    1.3889 C   0  0  0  0  0  0  0  0  0  0  0  0
   -2.7470   -9.1386    1.7409 C   0  0  0  0  0  0  0  0  0  0  0  0
   -1.9840   -9.8820    2.6204 C   0  0  0  0  0  0  0  0  0  0  0  0
   -0.8349   -9.4361    3.1642 N   0  0  0  0  0  0  0  0  0  0  0  0
   -0.4281   -8.1931    2.8059 C   0  0  0  0  0  0  0  0  0  0  0  0
    0.7612   -5.6949    1.4675 C   0  0  0  0  0  0  0  0  0  0  0  0
    1.2557   -4.4933    1.0653 N   0  0  0  0  0  0  0  0  0  0  0  0
    2.8658    1.1558   -0.3299 H   0  0  0  0  0  0  0  0  0  0  0  0
    2.8927   -0.5326   -0.8055 H   0  0  0  0  0  0  0  0  0  0  0  0
    2.9421   -0.0828    0.9311 H   0  0  0  0  0  0  0  0  0  0  0  0
    0.9044    2.2871   -0.0314 H   0  0  0  0  0  0  0  0  0  0  0  0
   -1.4958    2.4183   -0.0087 H   0  0  0  0  0  0  0  0  0  0  0  0
   -3.6481   -0.6604   -0.0623 H   0  0  0  0  0  0  0  0  0  0  0  0
   -6.3893    2.9773   -0.0630 H   0  0  0  0  0  0  0  0  0  0  0  0
   -8.7551    1.7842   -0.2151 H   0  0  0  0  0  0  0  0  0  0  0  0
   -7.4070   -2.5228   -0.8091 H   0  0  0  0  0  0  0  0  0  0  0  0
  -11.0542   -2.6470   -0.1173 H   0  0  0  0  0  0  0  0  0  0  0  0
  -12.3793   -4.6632   -0.4465 H   0  0  0  0  0  0  0  0  0  0  0  0
  -11.3468   -6.7069   -1.4028 H   0  0  0  0  0  0  0  0  0  0  0  0
   -8.9717   -6.7029   -2.0549 H   0  0  0  0  0  0  0  0  0  0  0  0
   -7.0489   -5.4486   -2.4807 H   0  0  0  0  0  0  0  0  0  0  0  0
   -6.8966   -3.8174   -2.1944 H   0  0  0  0  0  0  0  0  0  0  0  0
   -1.7527   -1.8542   -0.0131 H   0  0  0  0  0  0  0  0  0  0  0  0
    1.8869   -2.3211    0.4223 H   0  0  0  0  0  0  0  0  0  0  0  0
   -2.4775   -5.0430    1.2209 H   0  0  0  0  0  0  0  0  0  0  0  0
   -2.8939   -7.2942    0.6806 H   0  0  0  0  0  0  0  0  0  0  0  0
   -3.6665   -9.5415    1.3300 H   0  0  0  0  0  0  0  0  0  0  0  0
   -2.2832  -10.8829    2.9179 H   0  0  0  0  0  0  0  0  0  0  0  0
    0.4958   -7.8878    3.2900 H   0  0  0  0  0  0  0  0  0  0  0  0
    1.5344   -6.4163    1.7224 H   0  0  0  0  0  0  0  0  0  0  0  0
  1  2  1  0  0  0  0
  1 39  1  0  0  0  0
  1 40  1  0  0  0  0
  1 41  1  0  0  0  0
  2  3  1  0  0  0  0
  2 25  2  0  0  0  0
  3  4  2  0  0  0  0
  3 42  1  0  0  0  0
  4  5  1  0  0  0  0
  4 43  1  0  0  0  0
  5  6  1  0  0  0  0
  5 24  2  0  0  0  0
  6  7  1  0  0  0  0
  6 44  1  0  0  0  0
  7  8  2  0  0  0  0
  7  9  1  0  0  0  0
  9 10  2  0  0  0  0
  9 23  1  0  0  0  0
 10 11  1  0  0  0  0
 10 45  1  0  0  0  0
 11 12  2  0  0  0  0
 11 46  1  0  0  0  0
 12 13  1  0  0  0  0
 12 23  1  0  0  0  0
 13 14  2  0  0  0  0
 13 15  1  0  0  0  0
 15 16  1  0  0  0  0
 15 47  1  0  0  0  0
 16 17  1  0  0  0  0
 16 21  2  0  0  0  0
 17 18  2  0  0  0  0
 17 48  1  0  0  0  0
 18 19  1  0  0  0  0
 18 49  1  0  0  0  0
 19 20  2  0  0  0  0
 19 50  1  0  0  0  0
 20 21  1  0  0  0  0
 20 51  1  0  0  0  0
 21 22  1  0  0  0  0
 22 52  1  0  0  0  0
 22 53  1  0  0  0  0
 24 25  1  0  0  0  0
 24 54  1  0  0  0  0
 25 26  1  0  0  0  0
 26 27  1  0  0  0  0
 26 55  1  0  0  0  0
 27 28  1  0  0  0  0
 27 38  2  0  0  0  0
 28 29  2  0  0  0  0
 29 30  1  0  0  0  0
 29 56  1  0  0  0  0
 30 31  1  0  0  0  0
 30 37  2  0  0  0  0
 31 32  1  0  0  0  0
 31 36  2  0  0  0  0
 32 33  2  0  0  0  0
 32 57  1  0  0  0  0
 33 34  1  0  0  0  0
 33 58  1  0  0  0  0
 34 35  2  0  0  0  0
 34 59  1  0  0  0  0
 35 36  1  0  0  0  0
 36 60  1  0  0  0  0
 37 38  1  0  0  0  0
 37 61  1  0  0  0  0
M  END
$$$$
