CHEMBL425587
 OpenBabel04072215383D

 45 49  0  0  0  0  0  0  0  0999 V2000
    2.7467    0.3398   -0.9703 O   0  0  0  0  0  0  0  0  0  0  0  0
    2.1653   -0.2071   -0.0422 C   0  0  0  0  0  0  0  0  0  0  0  0
    0.8086   -0.4820    0.0331 N   0  0  0  0  0  0  0  0  0  0  0  0
   -0.1790   -0.1813   -0.9351 C   0  0  0  0  0  0  0  0  0  0  0  0
    0.0809    0.5594   -2.1043 C   0  0  0  0  0  0  0  0  0  0  0  0
   -0.9356    0.8440   -3.0259 C   0  0  0  0  0  0  0  0  0  0  0  0
   -2.1995    0.3778   -2.7512 C   0  0  0  0  0  0  0  0  0  0  0  0
   -2.4645   -0.3529   -1.6168 C   0  0  0  0  0  0  0  0  0  0  0  0
   -1.4798   -0.6479   -0.6942 C   0  0  0  0  0  0  0  0  0  0  0  0
   -3.7738   -0.7150   -1.5339 O   0  0  0  0  0  0  0  0  0  0  0  0
   -4.3145   -0.0385   -2.6897 C   0  0  0  0  0  0  0  0  0  0  0  0
   -3.3030    0.5683   -3.5186 O   0  0  0  0  0  0  0  0  0  0  0  0
    2.9815   -0.6697    1.1177 C   0  0  0  0  0  0  0  0  0  0  0  0
    2.7372   -1.9661    1.6097 C   0  0  0  0  0  0  0  0  0  0  0  0
    3.5385   -2.5114    2.6110 C   0  0  0  0  0  0  0  0  0  0  0  0
    4.6101   -1.7821    3.1105 C   0  0  0  0  0  0  0  0  0  0  0  0
    4.8622   -0.4954    2.6326 C   0  0  0  0  0  0  0  0  0  0  0  0
    4.0486    0.0952    1.6416 C   0  0  0  0  0  0  0  0  0  0  0  0
    4.3673    1.5165    1.2256 C   0  0  0  0  0  0  0  0  0  0  0  0
    3.7227    2.5116    2.0866 N   0  0  0  0  0  0  0  0  0  0  0  0
    4.2569    2.9683    3.2711 C   0  0  0  0  0  0  0  0  0  0  0  0
    3.4575    3.9858    3.7405 C   0  0  0  0  0  0  0  0  0  0  0  0
    2.4005    4.1702    2.8096 C   0  0  0  0  0  0  0  0  0  0  0  0
    1.3164    5.0554    2.7344 C   0  0  0  0  0  0  0  0  0  0  0  0
    0.4454    5.0005    1.6981 N   0  0  0  0  0  0  0  0  0  0  0  0
    0.6526    4.0856    0.7289 C   0  0  0  0  0  0  0  0  0  0  0  0
    1.7027    3.1819    0.7021 C   0  0  0  0  0  0  0  0  0  0  0  0
    2.5838    3.2352    1.7846 C   0  0  0  0  0  0  0  0  0  0  0  0
    0.4738   -0.9434    0.8699 H   0  0  0  0  0  0  0  0  0  0  0  0
    1.0709    0.9455   -2.3253 H   0  0  0  0  0  0  0  0  0  0  0  0
   -0.7327    1.4225   -3.9213 H   0  0  0  0  0  0  0  0  0  0  0  0
   -1.7320   -1.2333    0.1842 H   0  0  0  0  0  0  0  0  0  0  0  0
   -4.9976    0.7468   -2.3441 H   0  0  0  0  0  0  0  0  0  0  0  0
   -4.8825   -0.7576   -3.2906 H   0  0  0  0  0  0  0  0  0  0  0  0
    1.9485   -2.5856    1.1886 H   0  0  0  0  0  0  0  0  0  0  0  0
    3.3427   -3.5147    2.9810 H   0  0  0  0  0  0  0  0  0  0  0  0
    5.2571   -2.2164    3.8692 H   0  0  0  0  0  0  0  0  0  0  0  0
    5.7141    0.0485    3.0386 H   0  0  0  0  0  0  0  0  0  0  0  0
    4.1241    1.7496    0.1888 H   0  0  0  0  0  0  0  0  0  0  0  0
    5.4486    1.6916    1.3076 H   0  0  0  0  0  0  0  0  0  0  0  0
    5.1675    2.5473    3.6761 H   0  0  0  0  0  0  0  0  0  0  0  0
    3.6243    4.5526    4.6471 H   0  0  0  0  0  0  0  0  0  0  0  0
    1.1261    5.8176    3.4808 H   0  0  0  0  0  0  0  0  0  0  0  0
   -0.0780    4.0957   -0.0762 H   0  0  0  0  0  0  0  0  0  0  0  0
    1.8186    2.4942   -0.1222 H   0  0  0  0  0  0  0  0  0  0  0  0
  1  2  2  0  0  0  0
  2  3  1  0  0  0  0
  2 13  1  0  0  0  0
  3  4  1  0  0  0  0
  3 29  1  0  0  0  0
  4  5  1  0  0  0  0
  4  9  2  0  0  0  0
  5  6  2  0  0  0  0
  5 30  1  0  0  0  0
  6  7  1  0  0  0  0
  6 31  1  0  0  0  0
  7  8  2  0  0  0  0
  7 12  1  0  0  0  0
  8  9  1  0  0  0  0
  8 10  1  0  0  0  0
  9 32  1  0  0  0  0
 10 11  1  0  0  0  0
 11 12  1  0  0  0  0
 11 33  1  0  0  0  0
 11 34  1  0  0  0  0
 13 14  1  0  0  0  0
 13 18  2  0  0  0  0
 14 15  2  0  0  0  0
 14 35  1  0  0  0  0
 15 16  1  0  0  0  0
 15 36  1  0  0  0  0
 16 17  2  0  0  0  0
 16 37  1  0  0  0  0
 17 18  1  0  0  0  0
 17 38  1  0  0  0  0
 18 19  1  0  0  0  0
 19 20  1  0  0  0  0
 19 39  1  0  0  0  0
 19 40  1  0  0  0  0
 20 21  1  0  0  0  0
 20 28  1  0  0  0  0
 21 22  2  0  0  0  0
 21 41  1  0  0  0  0
 22 23  1  0  0  0  0
 22 42  1  0  0  0  0
 23 24  1  0  0  0  0
 23 28  2  0  0  0  0
 24 25  2  0  0  0  0
 24 43  1  0  0  0  0
 25 26  1  0  0  0  0
 26 27  2  0  0  0  0
 26 44  1  0  0  0  0
 27 28  1  0  0  0  0
 27 45  1  0  0  0  0
M  END
$$$$
