CHEMBL1241676
 OpenBabel04072215363D

 39 42  0  0  0  0  0  0  0  0999 V2000
    1.1189    0.2174   -0.0132 N   0  0  0  0  0  0  0  0  0  0  0  0
    2.4974    0.0385   -0.0478 C   0  0  0  0  0  0  0  0  0  0  0  0
    3.2277    1.1745   -0.0411 N   0  0  0  0  0  0  0  0  0  0  0  0
    4.5696    1.0792   -0.0462 C   0  0  0  0  0  0  0  0  0  0  0  0
    5.3144   -0.0340   -0.0401 N   0  0  0  0  0  0  0  0  0  0  0  0
    4.5501   -1.1392   -0.0559 C   0  0  0  0  0  0  0  0  0  0  0  0
    3.1632   -1.1966   -0.0765 C   0  0  0  0  0  0  0  0  0  0  0  0
    2.8568   -2.5973   -0.1376 C   0  0  0  0  0  0  0  0  0  0  0  0
    1.5571   -3.2699   -0.2574 C   0  0  0  0  0  0  0  0  0  0  0  0
    0.5031   -2.6899   -0.9780 C   0  0  0  0  0  0  0  0  0  0  0  0
   -0.7451   -3.3143   -1.0657 C   0  0  0  0  0  0  0  0  0  0  0  0
   -0.9317   -4.5632   -0.4819 C   0  0  0  0  0  0  0  0  0  0  0  0
   -2.4630   -5.3414   -0.6143 Cl  0  0  0  0  0  0  0  0  0  0  0  0
    0.1242   -5.1811    0.1874 C   0  0  0  0  0  0  0  0  0  0  0  0
    0.0020   -6.4277    0.7365 O   0  0  0  0  0  0  0  0  0  0  0  0
    1.3562   -4.5376    0.3138 C   0  0  0  0  0  0  0  0  0  0  0  0
    3.9829   -3.3371   -0.0859 N   0  0  0  0  0  0  0  0  0  0  0  0
    4.9854   -2.4359   -0.0605 N   0  0  0  0  0  0  0  0  0  0  0  0
    6.3653   -2.8755   -0.0537 C   0  0  0  0  0  0  0  0  0  0  0  0
    6.7467   -3.7605   -1.2426 C   0  0  0  0  0  0  0  0  0  0  0  0
    7.9831   -4.5319   -0.7849 C   0  0  0  0  0  0  0  0  0  0  0  0
    8.0491   -4.3931    0.7349 C   0  0  0  0  0  0  0  0  0  0  0  0
    6.7414   -3.7331    1.1537 C   0  0  0  0  0  0  0  0  0  0  0  0
    0.8971    1.1809    0.2158 H   0  0  0  0  0  0  0  0  0  0  0  0
    0.6137   -0.4795    0.5193 H   0  0  0  0  0  0  0  0  0  0  0  0
    5.1124    2.0197   -0.0545 H   0  0  0  0  0  0  0  0  0  0  0  0
    0.6402   -1.7464   -1.5028 H   0  0  0  0  0  0  0  0  0  0  0  0
   -1.5535   -2.8246   -1.6010 H   0  0  0  0  0  0  0  0  0  0  0  0
   -0.8816   -6.7618    0.4926 H   0  0  0  0  0  0  0  0  0  0  0  0
    2.1630   -5.0355    0.8478 H   0  0  0  0  0  0  0  0  0  0  0  0
    7.0052   -1.9833   -0.0635 H   0  0  0  0  0  0  0  0  0  0  0  0
    6.9456   -3.1699   -2.1430 H   0  0  0  0  0  0  0  0  0  0  0  0
    5.9492   -4.4706   -1.4928 H   0  0  0  0  0  0  0  0  0  0  0  0
    8.8911   -4.1225   -1.2419 H   0  0  0  0  0  0  0  0  0  0  0  0
    7.9144   -5.5832   -1.0853 H   0  0  0  0  0  0  0  0  0  0  0  0
    8.8978   -3.7556    1.0098 H   0  0  0  0  0  0  0  0  0  0  0  0
    8.1920   -5.3593    1.2288 H   0  0  0  0  0  0  0  0  0  0  0  0
    6.8586   -3.1367    2.0644 H   0  0  0  0  0  0  0  0  0  0  0  0
    5.9859   -4.5017    1.3552 H   0  0  0  0  0  0  0  0  0  0  0  0
  1  2  1  0  0  0  0
  1 24  1  0  0  0  0
  1 25  1  0  0  0  0
  2  3  1  0  0  0  0
  2  7  2  0  0  0  0
  3  4  2  0  0  0  0
  4  5  1  0  0  0  0
  4 26  1  0  0  0  0
  5  6  2  0  0  0  0
  6  7  1  0  0  0  0
  6 18  1  0  0  0  0
  7  8  1  0  0  0  0
  8  9  1  0  0  0  0
  8 17  2  0  0  0  0
  9 10  1  0  0  0  0
  9 16  2  0  0  0  0
 10 11  2  0  0  0  0
 10 27  1  0  0  0  0
 11 12  1  0  0  0  0
 11 28  1  0  0  0  0
 12 13  1  0  0  0  0
 12 14  2  0  0  0  0
 14 15  1  0  0  0  0
 14 16  1  0  0  0  0
 15 29  1  0  0  0  0
 16 30  1  0  0  0  0
 17 18  1  0  0  0  0
 18 19  1  0  0  0  0
 19 20  1  0  0  0  0
 19 23  1  0  0  0  0
 19 31  1  0  0  0  0
 20 21  1  0  0  0  0
 20 32  1  0  0  0  0
 20 33  1  0  0  0  0
 21 22  1  0  0  0  0
 21 34  1  0  0  0  0
 21 35  1  0  0  0  0
 22 23  1  0  0  0  0
 22 36  1  0  0  0  0
 22 37  1  0  0  0  0
 23 38  1  0  0  0  0
 23 39  1  0  0  0  0
M  END
$$$$
