CHEMBL3942288
 OpenBabel04072215373D

 57 61  0  0  0  0  0  0  0  0999 V2000
    1.8819    0.6081   -0.0758 C   0  0  0  0  0  0  0  0  0  0  0  0
    0.4223    0.5123    0.2529 C   0  0  0  0  0  0  0  0  0  0  0  0
   -0.3408    1.6384    0.5716 C   0  0  0  0  0  0  0  0  0  0  0  0
   -1.6954    1.5061    0.8976 C   0  0  0  0  0  0  0  0  0  0  0  0
   -2.3041    0.2465    0.9126 C   0  0  0  0  0  0  0  0  0  0  0  0
   -1.5495   -0.8835    0.5946 C   0  0  0  0  0  0  0  0  0  0  0  0
   -2.0719   -2.2638    0.6995 C   0  0  0  0  0  0  0  0  0  0  0  0
   -1.2618   -3.1331    1.0154 O   0  0  0  0  0  0  0  0  0  0  0  0
   -3.4029   -2.4763    0.3742 N   0  0  0  0  0  0  0  0  0  0  0  0
   -4.0287   -3.7499    0.3454 C   0  0  0  0  0  0  0  0  0  0  0  0
   -3.4473   -4.8875    0.9190 C   0  0  0  0  0  0  0  0  0  0  0  0
   -3.9933   -6.1514    0.7311 C   0  0  0  0  0  0  0  0  0  0  0  0
   -5.1599   -6.2912   -0.0053 C   0  0  0  0  0  0  0  0  0  0  0  0
   -5.8489   -5.1572   -0.4356 C   0  0  0  0  0  0  0  0  0  0  0  0
   -7.0684   -5.2023   -1.0688 O   0  0  0  0  0  0  0  0  0  0  0  0
   -8.0239   -6.1395   -0.7234 C   0  0  0  0  0  0  0  0  0  0  0  0
   -8.0710   -6.8824    0.4662 C   0  0  0  0  0  0  0  0  0  0  0  0
   -9.0359   -7.8929    0.6701 C   0  0  0  0  0  0  0  0  0  0  0  0
  -10.0955   -7.9805   -0.2495 C   0  0  0  0  0  0  0  0  0  0  0  0
  -11.2821   -8.7521   -0.4980 C   0  0  0  0  0  0  0  0  0  0  0  0
  -11.3981   -9.9978   -1.2542 C   0  0  0  0  0  0  0  0  0  0  0  0
  -10.4805  -10.3810   -2.1660 C   0  0  0  0  0  0  0  0  0  0  0  0
  -10.8109  -10.8773   -3.5285 C   0  0  0  0  0  0  0  0  0  0  0  0
  -12.0543  -10.6477   -4.1463 C   0  0  0  0  0  0  0  0  0  0  0  0
  -12.2473  -10.9069   -5.5111 C   0  0  0  0  0  0  0  0  0  0  0  0
  -11.1970  -11.3898   -6.2851 C   0  0  0  0  0  0  0  0  0  0  0  0
   -9.9576  -11.6186   -5.6940 C   0  0  0  0  0  0  0  0  0  0  0  0
   -9.7673  -11.3641   -4.3294 C   0  0  0  0  0  0  0  0  0  0  0  0
  -12.2223   -7.8524   -0.8684 N   0  0  0  0  0  0  0  0  0  0  0  0
  -11.4789   -6.9965   -1.6030 N   0  0  0  0  0  0  0  0  0  0  0  0
  -10.1598   -7.0080   -1.2442 C   0  0  0  0  0  0  0  0  0  0  0  0
   -9.0856   -6.2117   -1.6265 C   0  0  0  0  0  0  0  0  0  0  0  0
   -5.2633   -3.8891   -0.3007 C   0  0  0  0  0  0  0  0  0  0  0  0
   -0.1930   -0.7423    0.2647 C   0  0  0  0  0  0  0  0  0  0  0  0
    2.2425    1.6391   -0.0165 H   0  0  0  0  0  0  0  0  0  0  0  0
    2.0649    0.2406   -1.0911 H   0  0  0  0  0  0  0  0  0  0  0  0
    2.4644    0.0062    0.6303 H   0  0  0  0  0  0  0  0  0  0  0  0
    0.1178    2.6252    0.5853 H   0  0  0  0  0  0  0  0  0  0  0  0
   -2.2704    2.3902    1.1654 H   0  0  0  0  0  0  0  0  0  0  0  0
   -3.3405    0.1626    1.2227 H   0  0  0  0  0  0  0  0  0  0  0  0
   -3.9181   -1.7136   -0.0461 H   0  0  0  0  0  0  0  0  0  0  0  0
   -2.5397   -4.8274    1.5116 H   0  0  0  0  0  0  0  0  0  0  0  0
   -3.5014   -7.0216    1.1520 H   0  0  0  0  0  0  0  0  0  0  0  0
   -5.5447   -7.2884   -0.1896 H   0  0  0  0  0  0  0  0  0  0  0  0
   -7.3625   -6.6878    1.2681 H   0  0  0  0  0  0  0  0  0  0  0  0
   -9.0222   -8.4839    1.5818 H   0  0  0  0  0  0  0  0  0  0  0  0
  -12.4342  -10.3042   -1.3916 H   0  0  0  0  0  0  0  0  0  0  0  0
   -9.4503  -10.0483   -2.0618 H   0  0  0  0  0  0  0  0  0  0  0  0
  -12.8843  -10.2071   -3.5987 H   0  0  0  0  0  0  0  0  0  0  0  0
  -13.2094  -10.6993   -5.9745 H   0  0  0  0  0  0  0  0  0  0  0  0
  -11.3380  -11.5686   -7.3484 H   0  0  0  0  0  0  0  0  0  0  0  0
   -9.1261  -11.9685   -6.3007 H   0  0  0  0  0  0  0  0  0  0  0  0
   -8.7746  -11.5061   -3.9094 H   0  0  0  0  0  0  0  0  0  0  0  0
  -11.9561   -6.3497   -2.2314 H   0  0  0  0  0  0  0  0  0  0  0  0
   -9.1232   -5.5837   -2.5090 H   0  0  0  0  0  0  0  0  0  0  0  0
   -5.7723   -3.0285   -0.7278 H   0  0  0  0  0  0  0  0  0  0  0  0
    0.3985   -1.6296    0.0390 H   0  0  0  0  0  0  0  0  0  0  0  0
  1  2  1  0  0  0  0
  1 35  1  0  0  0  0
  1 36  1  0  0  0  0
  1 37  1  0  0  0  0
  2  3  1  0  0  0  0
  2 34  2  0  0  0  0
  3  4  2  0  0  0  0
  3 38  1  0  0  0  0
  4  5  1  0  0  0  0
  4 39  1  0  0  0  0
  5  6  2  0  0  0  0
  5 40  1  0  0  0  0
  6  7  1  0  0  0  0
  6 34  1  0  0  0  0
  7  8  2  0  0  0  0
  7  9  1  0  0  0  0
  9 10  1  0  0  0  0
  9 41  1  0  0  0  0
 10 11  1  0  0  0  0
 10 33  2  0  0  0  0
 11 12  2  0  0  0  0
 11 42  1  0  0  0  0
 12 13  1  0  0  0  0
 12 43  1  0  0  0  0
 13 14  2  0  0  0  0
 13 44  1  0  0  0  0
 14 15  1  0  0  0  0
 14 33  1  0  0  0  0
 15 16  1  0  0  0  0
 16 17  1  0  0  0  0
 16 32  2  0  0  0  0
 17 18  2  0  0  0  0
 17 45  1  0  0  0  0
 18 19  1  0  0  0  0
 18 46  1  0  0  0  0
 19 20  1  0  0  0  0
 19 31  2  0  0  0  0
 20 21  1  0  0  0  0
 20 29  2  0  0  0  0
 21 22  2  0  0  0  0
 21 47  1  0  0  0  0
 22 23  1  0  0  0  0
 22 48  1  0  0  0  0
 23 24  1  0  0  0  0
 23 28  2  0  0  0  0
 24 25  2  0  0  0  0
 24 49  1  0  0  0  0
 25 26  1  0  0  0  0
 25 50  1  0  0  0  0
 26 27  2  0  0  0  0
 26 51  1  0  0  0  0
 27 28  1  0  0  0  0
 27 52  1  0  0  0  0
 28 53  1  0  0  0  0
 29 30  1  0  0  0  0
 30 31  1  0  0  0  0
 30 54  1  0  0  0  0
 31 32  1  0  0  0  0
 32 55  1  0  0  0  0
 33 56  1  0  0  0  0
 34 57  1  0  0  0  0
M  END
$$$$
