CHEMBL3690557
 OpenBabel04072215373D

 50 53  0  0  0  0  0  0  0  0999 V2000
    1.0475    0.3943    1.2071 N   0  0  0  0  0  0  0  0  0  0  0  0
    1.7494   -0.4542    0.3999 C   0  0  0  0  0  0  0  0  0  0  0  0
    1.5347   -0.5148   -0.8036 O   0  0  0  0  0  0  0  0  0  0  0  0
    2.7939   -1.2785    1.0365 C   0  0  0  0  0  0  0  0  0  0  0  0
    2.7455   -1.6655    2.3750 C   0  0  0  0  0  0  0  0  0  0  0  0
    3.7377   -2.5058    2.8814 C   0  0  0  0  0  0  0  0  0  0  0  0
    4.7587   -2.9382    2.0368 C   0  0  0  0  0  0  0  0  0  0  0  0
    5.7423   -3.9780    2.4373 C   0  0  0  0  0  0  0  0  0  0  0  0
    6.2865   -4.8964    1.4273 C   0  0  0  0  0  0  0  0  0  0  0  0
    7.0935   -5.9020    1.7876 C   0  0  0  0  0  0  0  0  0  0  0  0
    7.4657   -6.0402    3.1222 N   0  0  0  0  0  0  0  0  0  0  0  0
    8.3140   -6.9503    3.7360 C   0  0  0  0  0  0  0  0  0  0  0  0
    9.1257   -7.9797    3.0769 C   0  0  0  0  0  0  0  0  0  0  0  0
    9.3244   -9.2067    3.7194 C   0  0  0  0  0  0  0  0  0  0  0  0
   10.1549  -10.1700    3.1566 C   0  0  0  0  0  0  0  0  0  0  0  0
   10.7635   -9.9374    1.9240 C   0  0  0  0  0  0  0  0  0  0  0  0
   10.5466   -8.7476    1.2303 C   0  0  0  0  0  0  0  0  0  0  0  0
   11.0783   -8.4881   -0.0565 N   0  0  0  0  0  0  0  0  0  0  0  0
   11.8540   -9.3469   -0.8025 C   0  0  0  0  0  0  0  0  0  0  0  0
   12.2123  -10.4732   -0.4932 O   0  0  0  0  0  0  0  0  0  0  0  0
   12.2721   -8.7872   -1.9902 N   0  0  0  0  0  0  0  0  0  0  0  0
   13.1189   -9.6081   -2.8680 C   0  0  0  0  0  0  0  0  0  0  0  0
   12.3968  -10.6817   -3.6968 C   0  0  0  0  0  0  0  0  0  0  0  0
   11.0511  -10.5652   -3.6198 F   0  0  0  0  0  0  0  0  0  0  0  0
   12.7250  -10.5452   -5.0070 F   0  0  0  0  0  0  0  0  0  0  0  0
   12.7352  -11.9345   -3.3293 F   0  0  0  0  0  0  0  0  0  0  0  0
    9.7610   -7.7574    1.8383 C   0  0  0  0  0  0  0  0  0  0  0  0
    8.1967   -6.6517    5.0865 C   0  0  0  0  0  0  0  0  0  0  0  0
    7.3921   -5.5671    5.3115 N   0  0  0  0  0  0  0  0  0  0  0  0
    6.9815   -5.1971    4.1197 C   0  0  0  0  0  0  0  0  0  0  0  0
    6.1168   -4.1324    3.7306 C   0  0  0  0  0  0  0  0  0  0  0  0
    4.8249   -2.5500    0.7368 N   0  0  0  0  0  0  0  0  0  0  0  0
    3.8441   -1.7434    0.2629 C   0  0  0  0  0  0  0  0  0  0  0  0
    0.3910    1.0137    0.7496 H   0  0  0  0  0  0  0  0  0  0  0  0
    1.3439    0.6333    2.1427 H   0  0  0  0  0  0  0  0  0  0  0  0
    1.9186   -1.3764    3.0155 H   0  0  0  0  0  0  0  0  0  0  0  0
    3.6589   -2.8578    3.9044 H   0  0  0  0  0  0  0  0  0  0  0  0
    6.0035   -4.7541    0.3883 H   0  0  0  0  0  0  0  0  0  0  0  0
    7.4611   -6.6175    1.0673 H   0  0  0  0  0  0  0  0  0  0  0  0
    8.8439   -9.4260    4.6701 H   0  0  0  0  0  0  0  0  0  0  0  0
   10.3351  -11.1085    3.6741 H   0  0  0  0  0  0  0  0  0  0  0  0
   11.4089  -10.7183    1.5371 H   0  0  0  0  0  0  0  0  0  0  0  0
   10.8650   -7.5931   -0.4687 H   0  0  0  0  0  0  0  0  0  0  0  0
   11.6429   -8.1353   -2.4370 H   0  0  0  0  0  0  0  0  0  0  0  0
   13.8852  -10.0938   -2.2510 H   0  0  0  0  0  0  0  0  0  0  0  0
   13.6386   -8.9121   -3.5329 H   0  0  0  0  0  0  0  0  0  0  0  0
    9.6597   -6.7935    1.3480 H   0  0  0  0  0  0  0  0  0  0  0  0
    8.6824   -7.1552    5.9135 H   0  0  0  0  0  0  0  0  0  0  0  0
    5.7685   -3.4878    4.5285 H   0  0  0  0  0  0  0  0  0  0  0  0
    3.9279   -1.4900   -0.7918 H   0  0  0  0  0  0  0  0  0  0  0  0
  1  2  1  0  0  0  0
  1 34  1  0  0  0  0
  1 35  1  0  0  0  0
  2  3  2  0  0  0  0
  2  4  1  0  0  0  0
  4  5  1  0  0  0  0
  4 33  2  0  0  0  0
  5  6  2  0  0  0  0
  5 36  1  0  0  0  0
  6  7  1  0  0  0  0
  6 37  1  0  0  0  0
  7  8  1  0  0  0  0
  7 32  2  0  0  0  0
  8  9  1  0  0  0  0
  8 31  2  0  0  0  0
  9 10  2  0  0  0  0
  9 38  1  0  0  0  0
 10 11  1  0  0  0  0
 10 39  1  0  0  0  0
 11 12  1  0  0  0  0
 11 30  1  0  0  0  0
 12 13  1  0  0  0  0
 12 28  2  0  0  0  0
 13 14  1  0  0  0  0
 13 27  2  0  0  0  0
 14 15  2  0  0  0  0
 14 40  1  0  0  0  0
 15 16  1  0  0  0  0
 15 41  1  0  0  0  0
 16 17  2  0  0  0  0
 16 42  1  0  0  0  0
 17 18  1  0  0  0  0
 17 27  1  0  0  0  0
 18 19  1  0  0  0  0
 18 43  1  0  0  0  0
 19 20  2  0  0  0  0
 19 21  1  0  0  0  0
 21 22  1  0  0  0  0
 21 44  1  0  0  0  0
 22 23  1  0  0  0  0
 22 45  1  0  0  0  0
 22 46  1  0  0  0  0
 23 24  1  0  0  0  0
 23 25  1  0  0  0  0
 23 26  1  0  0  0  0
 27 47  1  0  0  0  0
 28 29  1  0  0  0  0
 28 48  1  0  0  0  0
 29 30  2  0  0  0  0
 30 31  1  0  0  0  0
 31 49  1  0  0  0  0
 32 33  1  0  0  0  0
 33 50  1  0  0  0  0
M  END
$$$$
