CHEMBL1762549
 OpenBabel04072215363D

 77 81  0  0  0  0  0  0  0  0999 V2000
    2.1703   -0.8009    0.5811 C   0  0  0  0  0  0  0  0  0  0  0  0
    3.4308   -0.3306    1.0597 O   0  0  0  0  0  0  0  0  0  0  0  0
    3.6229    1.0477    0.7147 C   0  0  0  0  0  0  0  0  0  0  0  0
    4.8601    1.6296    1.4362 C   0  0  0  0  0  0  0  0  0  0  0  0
    5.1494    3.0568    1.1109 N   0  0  0  0  0  0  0  0  0  0  0  0
    4.0560    3.9652    1.1246 C   0  0  0  0  0  0  0  0  0  0  0  0
    2.9882    3.7831    1.9877 C   0  0  0  0  0  0  0  0  0  0  0  0
    1.9234    4.6327    1.8523 C   0  0  0  0  0  0  0  0  0  0  0  0
    1.9329    5.6739    1.0241 N   0  0  0  0  0  0  0  0  0  0  0  0
    3.0445    5.8776    0.3043 C   0  0  0  0  0  0  0  0  0  0  0  0
    3.1895    7.0754   -0.3959 N   0  0  0  0  0  0  0  0  0  0  0  0
    2.6344    8.3281   -0.0519 C   0  0  0  0  0  0  0  0  0  0  0  0
    2.2308    8.6438    1.2568 C   0  0  0  0  0  0  0  0  0  0  0  0
    1.5695    9.8343    1.5712 C   0  0  0  0  0  0  0  0  0  0  0  0
    1.1213   10.1008    2.8472 N   0  0  0  0  0  0  0  0  0  0  0  0
    1.8877    9.7566    4.0507 C   0  0  0  0  0  0  0  0  0  0  0  0
    0.9852    8.9922    5.0298 C   0  0  0  0  0  0  0  0  0  0  0  0
   -0.2064    9.7381    5.3406 O   0  0  0  0  0  0  0  0  0  0  0  0
   -0.9565   10.0008    4.1407 C   0  0  0  0  0  0  0  0  0  0  0  0
   -0.1378   10.8071    3.1153 C   0  0  0  0  0  0  0  0  0  0  0  0
    1.3554   10.7285    0.5154 C   0  0  0  0  0  0  0  0  0  0  0  0
    1.8033   10.5010   -0.7990 C   0  0  0  0  0  0  0  0  0  0  0  0
    1.6180   11.4420   -1.7894 N   0  0  0  0  0  0  0  0  0  0  0  0
    1.6378   12.8843   -1.5192 C   0  0  0  0  0  0  0  0  0  0  0  0
    0.3190   13.5106   -1.9869 C   0  0  0  0  0  0  0  0  0  0  0  0
    0.0857   13.2403   -3.3807 O   0  0  0  0  0  0  0  0  0  0  0  0
    0.0091   11.8210   -3.6072 C   0  0  0  0  0  0  0  0  0  0  0  0
    1.2951   11.0873   -3.1772 C   0  0  0  0  0  0  0  0  0  0  0  0
    2.4422    9.2819   -1.0542 C   0  0  0  0  0  0  0  0  0  0  0  0
    4.0653    5.0092    0.2709 N   0  0  0  0  0  0  0  0  0  0  0  0
    6.4859    3.4171    0.7703 C   0  0  0  0  0  0  0  0  0  0  0  0
    7.2966    2.5536   -0.0053 C   0  0  0  0  0  0  0  0  0  0  0  0
    8.6132    2.8811   -0.3928 C   0  0  0  0  0  0  0  0  0  0  0  0
    9.4639    1.9401   -1.2067 C   0  0  0  0  0  0  0  0  0  0  0  0
    9.2591    0.5850   -0.8280 O   0  0  0  0  0  0  0  0  0  0  0  0
    9.1099    4.1430   -0.0750 C   0  0  0  0  0  0  0  0  0  0  0  0
    8.3482    5.0162    0.6912 C   0  0  0  0  0  0  0  0  0  0  0  0
    7.0694    4.6545    1.1631 C   0  0  0  0  0  0  0  0  0  0  0  0
    6.4274    5.6230    2.1265 C   0  0  0  0  0  0  0  0  0  0  0  0
    2.0570   -1.8513    0.8572 H   0  0  0  0  0  0  0  0  0  0  0  0
    2.1158   -0.7117   -0.5076 H   0  0  0  0  0  0  0  0  0  0  0  0
    1.3510   -0.2348    1.0419 H   0  0  0  0  0  0  0  0  0  0  0  0
    2.7096    1.5694    1.0111 H   0  0  0  0  0  0  0  0  0  0  0  0
    3.7258    1.1430   -0.3709 H   0  0  0  0  0  0  0  0  0  0  0  0
    5.7041    0.9665    1.2188 H   0  0  0  0  0  0  0  0  0  0  0  0
    4.7363    1.5286    2.5231 H   0  0  0  0  0  0  0  0  0  0  0  0
    2.9518    2.9971    2.7287 H   0  0  0  0  0  0  0  0  0  0  0  0
    1.0145    4.5061    2.4322 H   0  0  0  0  0  0  0  0  0  0  0  0
    4.1079    7.1154   -0.8184 H   0  0  0  0  0  0  0  0  0  0  0  0
    2.3944    7.9160    2.0440 H   0  0  0  0  0  0  0  0  0  0  0  0
    2.2112   10.6943    4.5202 H   0  0  0  0  0  0  0  0  0  0  0  0
    2.7923    9.1780    3.8398 H   0  0  0  0  0  0  0  0  0  0  0  0
    1.5190    8.8187    5.9694 H   0  0  0  0  0  0  0  0  0  0  0  0
    0.6981    8.0165    4.6202 H   0  0  0  0  0  0  0  0  0  0  0  0
   -1.8524   10.5613    4.4254 H   0  0  0  0  0  0  0  0  0  0  0  0
   -1.2829    9.0448    3.7130 H   0  0  0  0  0  0  0  0  0  0  0  0
    0.0954   11.7976    3.5236 H   0  0  0  0  0  0  0  0  0  0  0  0
   -0.7487   10.9413    2.2163 H   0  0  0  0  0  0  0  0  0  0  0  0
    0.8166   11.6453    0.7285 H   0  0  0  0  0  0  0  0  0  0  0  0
    2.4678   13.3175   -2.0903 H   0  0  0  0  0  0  0  0  0  0  0  0
    1.8233   13.1296   -0.4685 H   0  0  0  0  0  0  0  0  0  0  0  0
    0.3602   14.5970   -1.8612 H   0  0  0  0  0  0  0  0  0  0  0  0
   -0.5300   13.1357   -1.4027 H   0  0  0  0  0  0  0  0  0  0  0  0
   -0.1634   11.6672   -4.6775 H   0  0  0  0  0  0  0  0  0  0  0  0
   -0.8615   11.4269   -3.0695 H   0  0  0  0  0  0  0  0  0  0  0  0
    2.1293   11.4005   -3.8153 H   0  0  0  0  0  0  0  0  0  0  0  0
    1.1446   10.0113   -3.3184 H   0  0  0  0  0  0  0  0  0  0  0  0
    2.7934    9.0590   -2.0582 H   0  0  0  0  0  0  0  0  0  0  0  0
    6.9011    1.6036   -0.3594 H   0  0  0  0  0  0  0  0  0  0  0  0
   10.5278    2.1561   -1.0533 H   0  0  0  0  0  0  0  0  0  0  0  0
    9.2397    2.0515   -2.2712 H   0  0  0  0  0  0  0  0  0  0  0  0
    9.3722    0.5478    0.1373 H   0  0  0  0  0  0  0  0  0  0  0  0
   10.0962    4.4557   -0.4099 H   0  0  0  0  0  0  0  0  0  0  0  0
    8.7680    5.9885    0.9427 H   0  0  0  0  0  0  0  0  0  0  0  0
    7.1501    6.3708    2.4742 H   0  0  0  0  0  0  0  0  0  0  0  0
    6.0716    5.0979    3.0180 H   0  0  0  0  0  0  0  0  0  0  0  0
    5.6185    6.1896    1.6671 H   0  0  0  0  0  0  0  0  0  0  0  0
  1  2  1  0  0  0  0
  1 40  1  0  0  0  0
  1 41  1  0  0  0  0
  1 42  1  0  0  0  0
  2  3  1  0  0  0  0
  3  4  1  0  0  0  0
  3 43  1  0  0  0  0
  3 44  1  0  0  0  0
  4  5  1  0  0  0  0
  4 45  1  0  0  0  0
  4 46  1  0  0  0  0
  5  6  1  0  0  0  0
  5 31  1  0  0  0  0
  6  7  1  0  0  0  0
  6 30  2  0  0  0  0
  7  8  2  0  0  0  0
  7 47  1  0  0  0  0
  8  9  1  0  0  0  0
  8 48  1  0  0  0  0
  9 10  2  0  0  0  0
 10 11  1  0  0  0  0
 10 30  1  0  0  0  0
 11 12  1  0  0  0  0
 11 49  1  0  0  0  0
 12 13  1  0  0  0  0
 12 29  2  0  0  0  0
 13 14  2  0  0  0  0
 13 50  1  0  0  0  0
 14 15  1  0  0  0  0
 14 21  1  0  0  0  0
 15 16  1  0  0  0  0
 15 20  1  0  0  0  0
 16 17  1  0  0  0  0
 16 51  1  0  0  0  0
 16 52  1  0  0  0  0
 17 18  1  0  0  0  0
 17 53  1  0  0  0  0
 17 54  1  0  0  0  0
 18 19  1  0  0  0  0
 19 20  1  0  0  0  0
 19 55  1  0  0  0  0
 19 56  1  0  0  0  0
 20 57  1  0  0  0  0
 20 58  1  0  0  0  0
 21 22  2  0  0  0  0
 21 59  1  0  0  0  0
 22 23  1  0  0  0  0
 22 29  1  0  0  0  0
 23 24  1  0  0  0  0
 23 28  1  0  0  0  0
 24 25  1  0  0  0  0
 24 60  1  0  0  0  0
 24 61  1  0  0  0  0
 25 26  1  0  0  0  0
 25 62  1  0  0  0  0
 25 63  1  0  0  0  0
 26 27  1  0  0  0  0
 27 28  1  0  0  0  0
 27 64  1  0  0  0  0
 27 65  1  0  0  0  0
 28 66  1  0  0  0  0
 28 67  1  0  0  0  0
 29 68  1  0  0  0  0
 31 32  1  0  0  0  0
 31 38  2  0  0  0  0
 32 33  2  0  0  0  0
 32 69  1  0  0  0  0
 33 34  1  0  0  0  0
 33 36  1  0  0  0  0
 34 35  1  0  0  0  0
 34 70  1  0  0  0  0
 34 71  1  0  0  0  0
 35 72  1  0  0  0  0
 36 37  2  0  0  0  0
 36 73  1  0  0  0  0
 37 38  1  0  0  0  0
 37 74  1  0  0  0  0
 38 39  1  0  0  0  0
 39 75  1  0  0  0  0
 39 76  1  0  0  0  0
 39 77  1  0  0  0  0
M  END
$$$$
