CHEMBL2087875
 OpenBabel04072215363D

 67 72  0  0  0  0  0  0  0  0999 V2000
    1.3738   -0.4197    0.1982 C   0  0  0  0  0  0  0  0  0  0  0  0
    0.6124   -0.1109    1.3213 C   0  0  0  0  0  0  0  0  0  0  0  0
   -0.7481    0.1760    1.1872 C   0  0  0  0  0  0  0  0  0  0  0  0
   -1.3827    0.0793   -0.0565 C   0  0  0  0  0  0  0  0  0  0  0  0
   -2.8140    0.3757   -0.1817 C   0  0  0  0  0  0  0  0  0  0  0  0
   -3.3511    1.1956   -1.1842 C   0  0  0  0  0  0  0  0  0  0  0  0
   -2.7653    1.9234   -2.3202 C   0  0  0  0  0  0  0  0  0  0  0  0
   -3.4181    1.9296   -3.5547 C   0  0  0  0  0  0  0  0  0  0  0  0
   -2.8617    2.5857   -4.6555 C   0  0  0  0  0  0  0  0  0  0  0  0
   -1.6375    3.2576   -4.5441 C   0  0  0  0  0  0  0  0  0  0  0  0
   -1.0350    3.9481   -5.5760 O   0  0  0  0  0  0  0  0  0  0  0  0
   -1.9958    4.5401   -6.4508 C   0  0  0  0  0  0  0  0  0  0  0  0
   -1.3792    5.3444   -7.6031 C   0  0  0  0  0  0  0  0  0  0  0  0
   -2.4444    6.0361   -8.3580 N   0  0  0  0  0  0  0  0  0  0  0  0
   -3.3760    5.1380   -9.0579 C   0  0  0  0  0  0  0  0  0  0  0  0
   -2.8027    4.9688  -10.4451 C   0  0  0  0  0  0  0  0  0  0  0  0
   -2.2280    6.3365  -10.7454 C   0  0  0  0  0  0  0  0  0  0  0  0
   -1.9140    6.9467   -9.3827 C   0  0  0  0  0  0  0  0  0  0  0  0
   -0.9657    3.2330   -3.3271 C   0  0  0  0  0  0  0  0  0  0  0  0
   -1.5391    2.6004   -2.2166 C   0  0  0  0  0  0  0  0  0  0  0  0
   -4.7093    1.2560   -0.9471 N   0  0  0  0  0  0  0  0  0  0  0  0
   -5.0434    0.5746    0.1736 C   0  0  0  0  0  0  0  0  0  0  0  0
   -6.2922    0.5209    0.6652 N   0  0  0  0  0  0  0  0  0  0  0  0
   -6.3408   -0.2165    1.7805 C   0  0  0  0  0  0  0  0  0  0  0  0
   -5.3351   -0.8707    2.3813 N   0  0  0  0  0  0  0  0  0  0  0  0
   -4.0956   -0.8432    1.8265 C   0  0  0  0  0  0  0  0  0  0  0  0
   -3.1113   -1.6506    2.3755 N   0  0  0  0  0  0  0  0  0  0  0  0
   -3.0598   -1.7488    3.8340 C   0  0  0  0  0  0  0  0  0  0  0  0
   -2.2185   -2.9548    4.3108 C   0  0  0  0  0  0  0  0  0  0  0  0
   -0.4681   -2.8188    3.7787 S   0  0  0  0  0  0  0  0  0  0  0  0
   -0.2554   -4.5565    3.3199 C   0  0  0  0  0  0  0  0  0  0  0  0
   -1.5340   -5.0106    2.6481 C   0  0  0  0  0  0  0  0  0  0  0  0
   -2.9029   -4.5594    3.7432 S   0  0  0  0  0  0  0  0  0  0  0  0
   -3.9061   -0.0361    0.6778 C   0  0  0  0  0  0  0  0  0  0  0  0
   -0.6071   -0.2616   -1.1752 C   0  0  0  0  0  0  0  0  0  0  0  0
    0.7688   -0.4730   -1.0540 C   0  0  0  0  0  0  0  0  0  0  0  0
    2.4388   -0.6116    0.2985 H   0  0  0  0  0  0  0  0  0  0  0  0
    1.0764   -0.0861    2.3042 H   0  0  0  0  0  0  0  0  0  0  0  0
   -1.3071    0.4663    2.0741 H   0  0  0  0  0  0  0  0  0  0  0  0
   -4.3620    1.4051   -3.6962 H   0  0  0  0  0  0  0  0  0  0  0  0
   -3.4111    2.5301   -5.5861 H   0  0  0  0  0  0  0  0  0  0  0  0
   -2.6482    5.2005   -5.8638 H   0  0  0  0  0  0  0  0  0  0  0  0
   -2.5792    3.7400   -6.9060 H   0  0  0  0  0  0  0  0  0  0  0  0
   -0.7749    4.6904   -8.2453 H   0  0  0  0  0  0  0  0  0  0  0  0
   -0.6855    6.0797   -7.1742 H   0  0  0  0  0  0  0  0  0  0  0  0
   -4.3525    5.6332   -9.1096 H   0  0  0  0  0  0  0  0  0  0  0  0
   -3.5528    4.1698   -8.5829 H   0  0  0  0  0  0  0  0  0  0  0  0
   -3.5646    4.6684  -11.1706 H   0  0  0  0  0  0  0  0  0  0  0  0
   -2.0091    4.2126  -10.4475 H   0  0  0  0  0  0  0  0  0  0  0  0
   -2.9754    6.9474  -11.2656 H   0  0  0  0  0  0  0  0  0  0  0  0
   -1.3426    6.2655  -11.3835 H   0  0  0  0  0  0  0  0  0  0  0  0
   -2.4277    7.9113   -9.2916 H   0  0  0  0  0  0  0  0  0  0  0  0
   -0.8427    7.1486   -9.2733 H   0  0  0  0  0  0  0  0  0  0  0  0
    0.0023    3.7173   -3.2269 H   0  0  0  0  0  0  0  0  0  0  0  0
   -1.0052    2.6239   -1.2703 H   0  0  0  0  0  0  0  0  0  0  0  0
   -5.3788    1.7668   -1.5040 H   0  0  0  0  0  0  0  0  0  0  0  0
   -7.3157   -0.3003    2.2572 H   0  0  0  0  0  0  0  0  0  0  0  0
   -2.2089   -1.5992    1.9207 H   0  0  0  0  0  0  0  0  0  0  0  0
   -4.0617   -1.8385    4.2722 H   0  0  0  0  0  0  0  0  0  0  0  0
   -2.6272   -0.8221    4.2391 H   0  0  0  0  0  0  0  0  0  0  0  0
   -2.2207   -2.9752    5.4050 H   0  0  0  0  0  0  0  0  0  0  0  0
   -0.0489   -5.1402    4.2241 H   0  0  0  0  0  0  0  0  0  0  0  0
    0.6028   -4.6651    2.6504 H   0  0  0  0  0  0  0  0  0  0  0  0
   -1.5301   -6.0944    2.4983 H   0  0  0  0  0  0  0  0  0  0  0  0
   -1.6660   -4.5390    1.6676 H   0  0  0  0  0  0  0  0  0  0  0  0
   -1.0565   -0.3277   -2.1637 H   0  0  0  0  0  0  0  0  0  0  0  0
    1.3646   -0.6750   -1.9403 H   0  0  0  0  0  0  0  0  0  0  0  0
  1  2  1  0  0  0  0
  1 36  2  0  0  0  0
  1 37  1  0  0  0  0
  2  3  2  0  0  0  0
  2 38  1  0  0  0  0
  3  4  1  0  0  0  0
  3 39  1  0  0  0  0
  4  5  1  0  0  0  0
  4 35  2  0  0  0  0
  5  6  2  0  0  0  0
  5 34  1  0  0  0  0
  6  7  1  0  0  0  0
  6 21  1  0  0  0  0
  7  8  1  0  0  0  0
  7 20  2  0  0  0  0
  8  9  2  0  0  0  0
  8 40  1  0  0  0  0
  9 10  1  0  0  0  0
  9 41  1  0  0  0  0
 10 11  1  0  0  0  0
 10 19  2  0  0  0  0
 11 12  1  0  0  0  0
 12 13  1  0  0  0  0
 12 42  1  0  0  0  0
 12 43  1  0  0  0  0
 13 14  1  0  0  0  0
 13 44  1  0  0  0  0
 13 45  1  0  0  0  0
 14 15  1  0  0  0  0
 14 18  1  0  0  0  0
 15 16  1  0  0  0  0
 15 46  1  0  0  0  0
 15 47  1  0  0  0  0
 16 17  1  0  0  0  0
 16 48  1  0  0  0  0
 16 49  1  0  0  0  0
 17 18  1  0  0  0  0
 17 50  1  0  0  0  0
 17 51  1  0  0  0  0
 18 52  1  0  0  0  0
 18 53  1  0  0  0  0
 19 20  1  0  0  0  0
 19 54  1  0  0  0  0
 20 55  1  0  0  0  0
 21 22  1  0  0  0  0
 21 56  1  0  0  0  0
 22 23  1  0  0  0  0
 22 34  2  0  0  0  0
 23 24  2  0  0  0  0
 24 25  1  0  0  0  0
 24 57  1  0  0  0  0
 25 26  2  0  0  0  0
 26 27  1  0  0  0  0
 26 34  1  0  0  0  0
 27 28  1  0  0  0  0
 27 58  1  0  0  0  0
 28 29  1  0  0  0  0
 28 59  1  0  0  0  0
 28 60  1  0  0  0  0
 29 30  1  0  0  0  0
 29 33  1  0  0  0  0
 29 61  1  0  0  0  0
 30 31  1  0  0  0  0
 31 32  1  0  0  0  0
 31 62  1  0  0  0  0
 31 63  1  0  0  0  0
 32 33  1  0  0  0  0
 32 64  1  0  0  0  0
 32 65  1  0  0  0  0
 35 36  1  0  0  0  0
 35 66  1  0  0  0  0
 36 67  1  0  0  0  0
M  END
$$$$
