CHEMBL189168
 OpenBabel04072215363D

 42 43  0  0  0  0  0  0  0  0999 V2000
    0.9838   -0.0603    0.0524 C   0  0  0  0  0  0  0  0  0  0  0  0
    2.5035   -0.0576    0.0690 C   0  0  0  0  0  0  0  0  0  0  0  0
    3.0390   -0.4315    1.4486 C   0  0  0  0  0  0  0  0  0  0  0  0
    4.5655   -0.4286    1.4692 C   0  0  0  0  0  0  0  0  0  0  0  0
    5.0936   -0.8043    2.8515 C   0  0  0  0  0  0  0  0  0  0  0  0
    6.6162   -0.8037    2.8667 C   0  0  0  0  0  0  0  0  0  0  0  0
    7.1654   -1.1710    4.2442 C   0  0  0  0  0  0  0  0  0  0  0  0
    8.6934   -1.1630    4.2502 C   0  0  0  0  0  0  0  0  0  0  0  0
    9.2442    0.2153    3.8951 C   0  0  0  0  0  0  0  0  0  0  0  0
   10.6899    0.2375    3.8841 N   0  0  0  0  0  0  0  0  0  0  0  0
   11.4920   -0.0274    2.8054 C   0  0  0  0  0  0  0  0  0  0  0  0
   12.7662    0.1330    3.2839 C   0  0  0  0  0  0  0  0  0  0  0  0
   13.9658   -0.0061    2.5990 C   0  0  0  0  0  0  0  0  0  0  0  0
   14.1262   -0.3095    1.2655 N   0  0  0  0  0  0  0  0  0  0  0  0
   15.0527    0.2183    3.3795 N   0  0  0  0  0  0  0  0  0  0  0  0
   14.8669    0.5656    4.6979 C   0  0  0  0  0  0  0  0  0  0  0  0
   13.7264    0.7280    5.4220 N   0  0  0  0  0  0  0  0  0  0  0  0
   12.6375    0.4894    4.6492 C   0  0  0  0  0  0  0  0  0  0  0  0
   11.3590    0.5501    5.0150 N   0  0  0  0  0  0  0  0  0  0  0  0
    0.6142    0.2088   -0.9418 H   0  0  0  0  0  0  0  0  0  0  0  0
    0.5840    0.6610    0.7718 H   0  0  0  0  0  0  0  0  0  0  0  0
    0.5923   -1.0508    0.3052 H   0  0  0  0  0  0  0  0  0  0  0  0
    2.8667    0.9368   -0.2159 H   0  0  0  0  0  0  0  0  0  0  0  0
    2.8751   -0.7663   -0.6804 H   0  0  0  0  0  0  0  0  0  0  0  0
    2.6702   -1.4252    1.7306 H   0  0  0  0  0  0  0  0  0  0  0  0
    2.6602    0.2773    2.1956 H   0  0  0  0  0  0  0  0  0  0  0  0
    4.9363    0.5656    1.1896 H   0  0  0  0  0  0  0  0  0  0  0  0
    4.9459   -1.1371    0.7230 H   0  0  0  0  0  0  0  0  0  0  0  0
    4.7270   -1.7973    3.1331 H   0  0  0  0  0  0  0  0  0  0  0  0
    4.7189   -0.0934    3.5978 H   0  0  0  0  0  0  0  0  0  0  0  0
    6.9636    0.1928    2.5760 H   0  0  0  0  0  0  0  0  0  0  0  0
    6.9997   -1.5088    2.1203 H   0  0  0  0  0  0  0  0  0  0  0  0
    6.8043   -2.1664    4.5313 H   0  0  0  0  0  0  0  0  0  0  0  0
    6.7914   -0.4645    4.9955 H   0  0  0  0  0  0  0  0  0  0  0  0
    9.0679   -1.9121    3.5412 H   0  0  0  0  0  0  0  0  0  0  0  0
    9.0566   -1.4633    5.2416 H   0  0  0  0  0  0  0  0  0  0  0  0
    8.8980    0.9689    4.6116 H   0  0  0  0  0  0  0  0  0  0  0  0
    8.9247    0.5341    2.8996 H   0  0  0  0  0  0  0  0  0  0  0  0
   11.0890   -0.2926    1.8377 H   0  0  0  0  0  0  0  0  0  0  0  0
   13.3490   -0.7039    0.7591 H   0  0  0  0  0  0  0  0  0  0  0  0
   15.0677   -0.5657    0.9998 H   0  0  0  0  0  0  0  0  0  0  0  0
   15.7872    0.7421    5.2520 H   0  0  0  0  0  0  0  0  0  0  0  0
  1  2  1  0  0  0  0
  1 20  1  0  0  0  0
  1 21  1  0  0  0  0
  1 22  1  0  0  0  0
  2  3  1  0  0  0  0
  2 23  1  0  0  0  0
  2 24  1  0  0  0  0
  3  4  1  0  0  0  0
  3 25  1  0  0  0  0
  3 26  1  0  0  0  0
  4  5  1  0  0  0  0
  4 27  1  0  0  0  0
  4 28  1  0  0  0  0
  5  6  1  0  0  0  0
  5 29  1  0  0  0  0
  5 30  1  0  0  0  0
  6  7  1  0  0  0  0
  6 31  1  0  0  0  0
  6 32  1  0  0  0  0
  7  8  1  0  0  0  0
  7 33  1  0  0  0  0
  7 34  1  0  0  0  0
  8  9  1  0  0  0  0
  8 35  1  0  0  0  0
  8 36  1  0  0  0  0
  9 10  1  0  0  0  0
  9 37  1  0  0  0  0
  9 38  1  0  0  0  0
 10 11  1  0  0  0  0
 10 19  1  0  0  0  0
 11 12  2  0  0  0  0
 11 39  1  0  0  0  0
 12 13  1  0  0  0  0
 12 18  1  0  0  0  0
 13 14  1  0  0  0  0
 13 15  2  0  0  0  0
 14 40  1  0  0  0  0
 14 41  1  0  0  0  0
 15 16  1  0  0  0  0
 16 17  2  0  0  0  0
 16 42  1  0  0  0  0
 17 18  1  0  0  0  0
 18 19  2  0  0  0  0
M  END
$$$$
