CHEMBL3099482
 OpenBabel04072215363D

 80 83  0  0  0  0  0  0  0  0999 V2000
    0.1537    1.7908    1.1927 C   0  0  0  0  0  0  0  0  0  0  0  0
    0.9687    0.7755    0.6196 O   0  0  0  0  0  0  0  0  0  0  0  0
    1.4752    1.0005   -0.6344 C   0  0  0  0  0  0  0  0  0  0  0  0
    1.6461    2.2861   -1.1737 C   0  0  0  0  0  0  0  0  0  0  0  0
    2.3458    2.5381   -2.3817 C   0  0  0  0  0  0  0  0  0  0  0  0
    2.5741    3.9464   -2.8413 C   0  0  0  0  0  0  0  0  0  0  0  0
    2.7346    4.9404   -1.8513 C   0  0  0  0  0  0  0  0  0  0  0  0
    2.8966    6.2991   -2.1202 C   0  0  0  0  0  0  0  0  0  0  0  0
    2.9873    7.2583   -1.0828 N   0  0  0  0  0  0  0  0  0  0  0  0
    3.3370    6.9579    0.2238 C   0  0  0  0  0  0  0  0  0  0  0  0
    3.7754    5.8756    0.5948 O   0  0  0  0  0  0  0  0  0  0  0  0
    3.0913    8.0152    1.0891 N   0  0  0  0  0  0  0  0  0  0  0  0
    3.3825    7.8718    2.4708 C   0  0  0  0  0  0  0  0  0  0  0  0
    4.6125    7.3263    2.8650 C   0  0  0  0  0  0  0  0  0  0  0  0
    4.8997    7.0943    4.2098 C   0  0  0  0  0  0  0  0  0  0  0  0
    3.9727    7.4419    5.1864 C   0  0  0  0  0  0  0  0  0  0  0  0
    4.1471    7.2700    6.5340 O   0  0  0  0  0  0  0  0  0  0  0  0
    5.5066    7.1173    6.9658 C   0  0  0  0  0  0  0  0  0  0  0  0
    5.5919    7.5000    8.4515 C   0  0  0  0  0  0  0  0  0  0  0  0
    6.9397    7.4127    9.0491 N   0  0  0  0  0  0  0  0  0  0  0  0
    6.9049    7.8095   10.4777 C   0  0  0  0  0  0  0  0  0  0  0  0
    6.7080    9.3223   10.6883 C   0  0  0  0  0  0  0  0  0  0  0  0
    7.7366   10.0740   10.0335 O   0  0  0  0  0  0  0  0  0  0  0  0
    7.7991    9.7658    8.6351 C   0  0  0  0  0  0  0  0  0  0  0  0
    7.9593    8.2560    8.3867 C   0  0  0  0  0  0  0  0  0  0  0  0
    2.7453    7.9901    4.8005 C   0  0  0  0  0  0  0  0  0  0  0  0
    2.4352    8.2208    3.4458 C   0  0  0  0  0  0  0  0  0  0  0  0
    1.0563    8.6967    3.0870 C   0  0  0  0  0  0  0  0  0  0  0  0
    2.9144    6.7088   -3.4459 C   0  0  0  0  0  0  0  0  0  0  0  0
    2.8228    5.7594   -4.4790 C   0  0  0  0  0  0  0  0  0  0  0  0
    2.8116    6.1873   -5.7857 O   0  0  0  0  0  0  0  0  0  0  0  0
    3.8847    7.0685   -6.1157 C   0  0  0  0  0  0  0  0  0  0  0  0
    2.6409    4.3828   -4.1928 C   0  0  0  0  0  0  0  0  0  0  0  0
    2.4449    3.4144   -5.1527 O   0  0  0  0  0  0  0  0  0  0  0  0
    3.1137    3.5738   -6.3960 C   0  0  0  0  0  0  0  0  0  0  0  0
    2.8572    1.4155   -3.0437 C   0  0  0  0  0  0  0  0  0  0  0  0
    2.6377    0.1161   -2.5571 C   0  0  0  0  0  0  0  0  0  0  0  0
    1.9291   -0.1020   -1.3641 C   0  0  0  0  0  0  0  0  0  0  0  0
    1.6593   -1.5196   -0.9586 C   0  0  0  0  0  0  0  0  0  0  0  0
    0.3570   -1.8495   -0.2473 C   0  0  0  0  0  0  0  0  0  0  0  0
    2.5213   -2.4436   -1.2840 N   0  0  0  0  0  0  0  0  0  0  0  0
    2.0935   -3.7108   -0.8699 O   0  0  0  0  0  0  0  0  0  0  0  0
   -0.2582    1.3976    2.1272 H   0  0  0  0  0  0  0  0  0  0  0  0
   -0.6850    2.0332    0.5322 H   0  0  0  0  0  0  0  0  0  0  0  0
    0.7361    2.6830    1.4426 H   0  0  0  0  0  0  0  0  0  0  0  0
    1.2496    3.1329   -0.6231 H   0  0  0  0  0  0  0  0  0  0  0  0
    2.7088    4.6167   -0.8158 H   0  0  0  0  0  0  0  0  0  0  0  0
    3.0334    8.2319   -1.3424 H   0  0  0  0  0  0  0  0  0  0  0  0
    2.2793    8.5615    0.8474 H   0  0  0  0  0  0  0  0  0  0  0  0
    5.3561    7.0457    2.1219 H   0  0  0  0  0  0  0  0  0  0  0  0
    5.8439    6.6184    4.4534 H   0  0  0  0  0  0  0  0  0  0  0  0
    6.1504    7.7901    6.3910 H   0  0  0  0  0  0  0  0  0  0  0  0
    5.8213    6.0776    6.8212 H   0  0  0  0  0  0  0  0  0  0  0  0
    4.9224    6.8241    9.0007 H   0  0  0  0  0  0  0  0  0  0  0  0
    5.1548    8.4987    8.5671 H   0  0  0  0  0  0  0  0  0  0  0  0
    7.8685    7.5240   10.9214 H   0  0  0  0  0  0  0  0  0  0  0  0
    6.1391    7.2427   11.0185 H   0  0  0  0  0  0  0  0  0  0  0  0
    6.7613    9.5548   11.7568 H   0  0  0  0  0  0  0  0  0  0  0  0
    5.7291    9.6638   10.3341 H   0  0  0  0  0  0  0  0  0  0  0  0
    8.6699   10.2906    8.2303 H   0  0  0  0  0  0  0  0  0  0  0  0
    6.9104   10.1661    8.1341 H   0  0  0  0  0  0  0  0  0  0  0  0
    8.9355    7.9483    8.7854 H   0  0  0  0  0  0  0  0  0  0  0  0
    8.0183    8.0521    7.3130 H   0  0  0  0  0  0  0  0  0  0  0  0
    2.0139    8.2180    5.5736 H   0  0  0  0  0  0  0  0  0  0  0  0
    0.4802    8.9729    3.9760 H   0  0  0  0  0  0  0  0  0  0  0  0
    0.5126    7.8955    2.5743 H   0  0  0  0  0  0  0  0  0  0  0  0
    1.1034    9.5775    2.4399 H   0  0  0  0  0  0  0  0  0  0  0  0
    2.9937    7.7644   -3.6857 H   0  0  0  0  0  0  0  0  0  0  0  0
    4.1163    6.9320   -7.1772 H   0  0  0  0  0  0  0  0  0  0  0  0
    4.7965    6.8585   -5.5474 H   0  0  0  0  0  0  0  0  0  0  0  0
    3.5716    8.1120   -5.9693 H   0  0  0  0  0  0  0  0  0  0  0  0
    3.2121    2.5829   -6.8526 H   0  0  0  0  0  0  0  0  0  0  0  0
    4.1245    3.9790   -6.2816 H   0  0  0  0  0  0  0  0  0  0  0  0
    2.5105    4.1798   -7.0775 H   0  0  0  0  0  0  0  0  0  0  0  0
    3.4441    1.5260   -3.9513 H   0  0  0  0  0  0  0  0  0  0  0  0
    3.0283   -0.7282   -3.1200 H   0  0  0  0  0  0  0  0  0  0  0  0
   -0.3184   -0.9981   -0.1595 H   0  0  0  0  0  0  0  0  0  0  0  0
    0.5765   -2.2390    0.7513 H   0  0  0  0  0  0  0  0  0  0  0  0
   -0.1835   -2.6098   -0.8194 H   0  0  0  0  0  0  0  0  0  0  0  0
    2.8117   -4.2879   -1.1866 H   0  0  0  0  0  0  0  0  0  0  0  0
  1  2  1  0  0  0  0
  1 43  1  0  0  0  0
  1 44  1  0  0  0  0
  1 45  1  0  0  0  0
  2  3  1  0  0  0  0
  3  4  1  0  0  0  0
  3 38  2  0  0  0  0
  4  5  2  0  0  0  0
  4 46  1  0  0  0  0
  5  6  1  0  0  0  0
  5 36  1  0  0  0  0
  6  7  1  0  0  0  0
  6 33  2  0  0  0  0
  7  8  2  0  0  0  0
  7 47  1  0  0  0  0
  8  9  1  0  0  0  0
  8 29  1  0  0  0  0
  9 10  1  0  0  0  0
  9 48  1  0  0  0  0
 10 11  2  0  0  0  0
 10 12  1  0  0  0  0
 12 13  1  0  0  0  0
 12 49  1  0  0  0  0
 13 14  1  0  0  0  0
 13 27  2  0  0  0  0
 14 15  2  0  0  0  0
 14 50  1  0  0  0  0
 15 16  1  0  0  0  0
 15 51  1  0  0  0  0
 16 17  1  0  0  0  0
 16 26  2  0  0  0  0
 17 18  1  0  0  0  0
 18 19  1  0  0  0  0
 18 52  1  0  0  0  0
 18 53  1  0  0  0  0
 19 20  1  0  0  0  0
 19 54  1  0  0  0  0
 19 55  1  0  0  0  0
 20 21  1  0  0  0  0
 20 25  1  0  0  0  0
 21 22  1  0  0  0  0
 21 56  1  0  0  0  0
 21 57  1  0  0  0  0
 22 23  1  0  0  0  0
 22 58  1  0  0  0  0
 22 59  1  0  0  0  0
 23 24  1  0  0  0  0
 24 25  1  0  0  0  0
 24 60  1  0  0  0  0
 24 61  1  0  0  0  0
 25 62  1  0  0  0  0
 25 63  1  0  0  0  0
 26 27  1  0  0  0  0
 26 64  1  0  0  0  0
 27 28  1  0  0  0  0
 28 65  1  0  0  0  0
 28 66  1  0  0  0  0
 28 67  1  0  0  0  0
 29 30  2  0  0  0  0
 29 68  1  0  0  0  0
 30 31  1  0  0  0  0
 30 33  1  0  0  0  0
 31 32  1  0  0  0  0
 32 69  1  0  0  0  0
 32 70  1  0  0  0  0
 32 71  1  0  0  0  0
 33 34  1  0  0  0  0
 34 35  1  0  0  0  0
 35 72  1  0  0  0  0
 35 73  1  0  0  0  0
 35 74  1  0  0  0  0
 36 37  2  0  0  0  0
 36 75  1  0  0  0  0
 37 38  1  0  0  0  0
 37 76  1  0  0  0  0
 38 39  1  0  0  0  0
 39 40  1  0  0  0  0
 39 41  2  0  0  0  0
 40 77  1  0  0  0  0
 40 78  1  0  0  0  0
 40 79  1  0  0  0  0
 41 42  1  0  0  0  0
 42 80  1  0  0  0  0
M  END
$$$$
