CHEMBL3907764
 OpenBabel04072215373D

 54 57  0  0  0  0  0  0  0  0999 V2000
    2.5122    0.5720   -1.1346 C   0  0  0  0  0  0  0  0  0  0  0  0
    2.3587   -0.1445    0.0871 O   0  0  0  0  0  0  0  0  0  0  0  0
    3.0839    0.2479    1.1777 C   0  0  0  0  0  0  0  0  0  0  0  0
    4.2637    0.9757    1.0463 C   0  0  0  0  0  0  0  0  0  0  0  0
    4.9272    1.5055    2.1684 C   0  0  0  0  0  0  0  0  0  0  0  0
    6.0667    2.3200    2.0770 C   0  0  0  0  0  0  0  0  0  0  0  0
    6.5158    2.7344    0.7867 N   0  0  0  0  0  0  0  0  0  0  0  0
    7.7907    3.2722    0.5201 C   0  0  0  0  0  0  0  0  0  0  0  0
    8.9400    2.6454    1.0169 C   0  0  0  0  0  0  0  0  0  0  0  0
   10.2036    3.1988    0.8131 C   0  0  0  0  0  0  0  0  0  0  0  0
   10.3361    4.3866    0.0963 C   0  0  0  0  0  0  0  0  0  0  0  0
   11.9221    5.0505   -0.0681 Cl  0  0  0  0  0  0  0  0  0  0  0  0
    9.2016    5.0001   -0.4464 C   0  0  0  0  0  0  0  0  0  0  0  0
    9.2917    6.4664   -1.3562 Cl  0  0  0  0  0  0  0  0  0  0  0  0
    7.9346    4.4340   -0.2466 C   0  0  0  0  0  0  0  0  0  0  0  0
    6.7101    2.7657    3.1703 N   0  0  0  0  0  0  0  0  0  0  0  0
    6.1877    2.4157    4.3502 C   0  0  0  0  0  0  0  0  0  0  0  0
    5.0913    1.6804    4.5459 N   0  0  0  0  0  0  0  0  0  0  0  0
    4.4632    1.2178    3.4544 C   0  0  0  0  0  0  0  0  0  0  0  0
    3.3274    0.4151    3.5795 C   0  0  0  0  0  0  0  0  0  0  0  0
    2.6487   -0.1032    2.4686 C   0  0  0  0  0  0  0  0  0  0  0  0
    1.5955   -0.9441    2.7871 O   0  0  0  0  0  0  0  0  0  0  0  0
    1.2828   -1.9214    1.7815 C   0  0  0  0  0  0  0  0  0  0  0  0
    0.6591   -3.2134    2.3564 C   0  0  0  0  0  0  0  0  0  0  0  0
    0.4126   -4.2479    1.3150 N   0  0  0  0  0  0  0  0  0  0  0  0
    1.6570   -4.6695    0.6484 C   0  0  0  0  0  0  0  0  0  0  0  0
    1.3910   -5.6706   -0.4735 C   0  0  0  0  0  0  0  0  0  0  0  0
    0.6563   -6.8940    0.0472 C   0  0  0  0  0  0  0  0  0  0  0  0
   -0.5957   -6.4676    0.8059 C   0  0  0  0  0  0  0  0  0  0  0  0
   -0.2822   -5.4164    1.8828 C   0  0  0  0  0  0  0  0  0  0  0  0
    3.0080   -0.0757   -1.8634 H   0  0  0  0  0  0  0  0  0  0  0  0
    3.0536    1.5195   -1.0567 H   0  0  0  0  0  0  0  0  0  0  0  0
    1.5142    0.8168   -1.5072 H   0  0  0  0  0  0  0  0  0  0  0  0
    4.7116    1.1200    0.0696 H   0  0  0  0  0  0  0  0  0  0  0  0
    5.7681    3.2562    0.3380 H   0  0  0  0  0  0  0  0  0  0  0  0
    8.8484    1.7211    1.5838 H   0  0  0  0  0  0  0  0  0  0  0  0
   11.0749    2.6987    1.2290 H   0  0  0  0  0  0  0  0  0  0  0  0
    7.0614    4.9273   -0.6656 H   0  0  0  0  0  0  0  0  0  0  0  0
    6.6944    2.7812    5.2351 H   0  0  0  0  0  0  0  0  0  0  0  0
    2.9722    0.1755    4.5795 H   0  0  0  0  0  0  0  0  0  0  0  0
    2.2110   -2.2022    1.2805 H   0  0  0  0  0  0  0  0  0  0  0  0
    0.5741   -1.4794    1.0725 H   0  0  0  0  0  0  0  0  0  0  0  0
   -0.2936   -2.9415    2.8324 H   0  0  0  0  0  0  0  0  0  0  0  0
    1.2958   -3.6071    3.1591 H   0  0  0  0  0  0  0  0  0  0  0  0
    2.3596   -5.0951    1.3761 H   0  0  0  0  0  0  0  0  0  0  0  0
    2.1533   -3.8225    0.1678 H   0  0  0  0  0  0  0  0  0  0  0  0
    2.3414   -5.9712   -0.9291 H   0  0  0  0  0  0  0  0  0  0  0  0
    0.7979   -5.1895   -1.2616 H   0  0  0  0  0  0  0  0  0  0  0  0
    1.3168   -7.4627    0.7115 H   0  0  0  0  0  0  0  0  0  0  0  0
    0.3914   -7.5525   -0.7866 H   0  0  0  0  0  0  0  0  0  0  0  0
   -1.0576   -7.3488    1.2671 H   0  0  0  0  0  0  0  0  0  0  0  0
   -1.3264   -6.0590    0.0961 H   0  0  0  0  0  0  0  0  0  0  0  0
    0.3202   -5.8810    2.6740 H   0  0  0  0  0  0  0  0  0  0  0  0
   -1.2320   -5.1068    2.3332 H   0  0  0  0  0  0  0  0  0  0  0  0
  1  2  1  0  0  0  0
  1 31  1  0  0  0  0
  1 32  1  0  0  0  0
  1 33  1  0  0  0  0
  2  3  1  0  0  0  0
  3  4  1  0  0  0  0
  3 21  2  0  0  0  0
  4  5  2  0  0  0  0
  4 34  1  0  0  0  0
  5  6  1  0  0  0  0
  5 19  1  0  0  0  0
  6  7  1  0  0  0  0
  6 16  2  0  0  0  0
  7  8  1  0  0  0  0
  7 35  1  0  0  0  0
  8  9  1  0  0  0  0
  8 15  2  0  0  0  0
  9 10  2  0  0  0  0
  9 36  1  0  0  0  0
 10 11  1  0  0  0  0
 10 37  1  0  0  0  0
 11 12  1  0  0  0  0
 11 13  2  0  0  0  0
 13 14  1  0  0  0  0
 13 15  1  0  0  0  0
 15 38  1  0  0  0  0
 16 17  1  0  0  0  0
 17 18  2  0  0  0  0
 17 39  1  0  0  0  0
 18 19  1  0  0  0  0
 19 20  2  0  0  0  0
 20 21  1  0  0  0  0
 20 40  1  0  0  0  0
 21 22  1  0  0  0  0
 22 23  1  0  0  0  0
 23 24  1  0  0  0  0
 23 41  1  0  0  0  0
 23 42  1  0  0  0  0
 24 25  1  0  0  0  0
 24 43  1  0  0  0  0
 24 44  1  0  0  0  0
 25 26  1  0  0  0  0
 25 30  1  0  0  0  0
 26 27  1  0  0  0  0
 26 45  1  0  0  0  0
 26 46  1  0  0  0  0
 27 28  1  0  0  0  0
 27 47  1  0  0  0  0
 27 48  1  0  0  0  0
 28 29  1  0  0  0  0
 28 49  1  0  0  0  0
 28 50  1  0  0  0  0
 29 30  1  0  0  0  0
 29 51  1  0  0  0  0
 29 52  1  0  0  0  0
 30 53  1  0  0  0  0
 30 54  1  0  0  0  0
M  END
$$$$
