CHEMBL4103890
 OpenBabel04072215383D

 42 45  0  0  0  0  0  0  0  0999 V2000
   -1.0601    2.2137   -3.3748 C   0  0  0  0  0  0  0  0  0  0  0  0
   -1.3168    1.0399   -2.4956 C   0  0  0  0  0  0  0  0  0  0  0  0
   -1.7157   -0.0908   -3.1020 N   0  0  0  0  0  0  0  0  0  0  0  0
   -1.8922   -0.9532   -2.0941 N   0  0  0  0  0  0  0  0  0  0  0  0
   -1.6122   -0.4334   -0.8661 C   0  0  0  0  0  0  0  0  0  0  0  0
   -1.7160   -1.1130    0.2910 N   0  0  0  0  0  0  0  0  0  0  0  0
   -1.3710   -0.3767    1.3655 C   0  0  0  0  0  0  0  0  0  0  0  0
   -0.9549    0.9459    1.3323 C   0  0  0  0  0  0  0  0  0  0  0  0
   -0.8579    1.6300    0.1028 C   0  0  0  0  0  0  0  0  0  0  0  0
   -0.3872    3.0227    0.0457 C   0  0  0  0  0  0  0  0  0  0  0  0
    0.5378    3.4142   -0.9194 C   0  0  0  0  0  0  0  0  0  0  0  0
    0.9291    4.7462   -1.0711 C   0  0  0  0  0  0  0  0  0  0  0  0
    0.4917    5.7328   -0.1861 C   0  0  0  0  0  0  0  0  0  0  0  0
    0.8957    7.0796   -0.2932 N   0  0  0  0  0  0  0  0  0  0  0  0
    1.5402    7.6334   -1.3931 C   0  0  0  0  0  0  0  0  0  0  0  0
    1.6910    7.0751   -2.4726 O   0  0  0  0  0  0  0  0  0  0  0  0
    2.0462    8.8940   -1.1215 N   0  0  0  0  0  0  0  0  0  0  0  0
    2.7520    9.5959   -2.1289 C   0  0  0  0  0  0  0  0  0  0  0  0
    3.9535   10.2253   -1.8124 C   0  0  0  0  0  0  0  0  0  0  0  0
    4.6889   10.8392   -2.8257 C   0  0  0  0  0  0  0  0  0  0  0  0
    4.1716   10.8463   -4.1126 C   0  0  0  0  0  0  0  0  0  0  0  0
    2.9924   10.2846   -4.4486 N   0  0  0  0  0  0  0  0  0  0  0  0
    2.3182    9.6554   -3.4569 C   0  0  0  0  0  0  0  0  0  0  0  0
   -0.3421    5.3421    0.8628 C   0  0  0  0  0  0  0  0  0  0  0  0
   -0.7893    4.0090    0.9654 C   0  0  0  0  0  0  0  0  0  0  0  0
   -1.2144    0.8863   -1.0645 C   0  0  0  0  0  0  0  0  0  0  0  0
   -1.3700    2.0091   -4.4068 H   0  0  0  0  0  0  0  0  0  0  0  0
    0.0061    2.4457   -3.4298 H   0  0  0  0  0  0  0  0  0  0  0  0
   -1.6130    3.0918   -3.0320 H   0  0  0  0  0  0  0  0  0  0  0  0
   -2.2014   -1.8959   -2.2929 H   0  0  0  0  0  0  0  0  0  0  0  0
   -1.4413   -0.9066    2.3114 H   0  0  0  0  0  0  0  0  0  0  0  0
   -0.6835    1.4312    2.2667 H   0  0  0  0  0  0  0  0  0  0  0  0
    0.9810    2.6829   -1.5878 H   0  0  0  0  0  0  0  0  0  0  0  0
    1.5971    4.9638   -1.8988 H   0  0  0  0  0  0  0  0  0  0  0  0
    0.5466    7.7281    0.3979 H   0  0  0  0  0  0  0  0  0  0  0  0
    2.3623    9.0253   -0.1723 H   0  0  0  0  0  0  0  0  0  0  0  0
    4.3617   10.1836   -0.8082 H   0  0  0  0  0  0  0  0  0  0  0  0
    5.6577   11.2824   -2.6224 H   0  0  0  0  0  0  0  0  0  0  0  0
    4.7117   11.3115   -4.9323 H   0  0  0  0  0  0  0  0  0  0  0  0
    1.3837    9.1994   -3.7688 H   0  0  0  0  0  0  0  0  0  0  0  0
   -0.6720    6.0615    1.6080 H   0  0  0  0  0  0  0  0  0  0  0  0
   -1.4611    3.7544    1.7834 H   0  0  0  0  0  0  0  0  0  0  0  0
  1  2  1  0  0  0  0
  1 27  1  0  0  0  0
  1 28  1  0  0  0  0
  1 29  1  0  0  0  0
  2  3  2  0  0  0  0
  2 26  1  0  0  0  0
  3  4  1  0  0  0  0
  4  5  1  0  0  0  0
  4 30  1  0  0  0  0
  5  6  1  0  0  0  0
  5 26  2  0  0  0  0
  6  7  2  0  0  0  0
  7  8  1  0  0  0  0
  7 31  1  0  0  0  0
  8  9  2  0  0  0  0
  8 32  1  0  0  0  0
  9 10  1  0  0  0  0
  9 26  1  0  0  0  0
 10 11  1  0  0  0  0
 10 25  2  0  0  0  0
 11 12  2  0  0  0  0
 11 33  1  0  0  0  0
 12 13  1  0  0  0  0
 12 34  1  0  0  0  0
 13 14  1  0  0  0  0
 13 24  2  0  0  0  0
 14 15  1  0  0  0  0
 14 35  1  0  0  0  0
 15 16  2  0  0  0  0
 15 17  1  0  0  0  0
 17 18  1  0  0  0  0
 17 36  1  0  0  0  0
 18 19  1  0  0  0  0
 18 23  2  0  0  0  0
 19 20  2  0  0  0  0
 19 37  1  0  0  0  0
 20 21  1  0  0  0  0
 20 38  1  0  0  0  0
 21 22  2  0  0  0  0
 21 39  1  0  0  0  0
 22 23  1  0  0  0  0
 23 40  1  0  0  0  0
 24 25  1  0  0  0  0
 24 41  1  0  0  0  0
 25 42  1  0  0  0  0
M  END
$$$$
