CHEMBL404402
 OpenBabel04072215373D

 67 72  0  0  1  0  0  0  0  0999 V2000
    1.4443    0.9646    0.8051 C   0  0  0  0  0  0  0  0  0  0  0  0
    2.3501   -0.0203    0.0672 C   0  0  0  0  0  0  0  0  0  0  0  0
    3.4149    0.6705   -0.7814 C   0  0  0  0  0  0  0  0  0  0  0  0
    2.8722   -1.1392    0.9532 C   0  0  0  0  0  0  0  0  0  0  0  0
    2.5788   -2.5369    0.7309 C   0  0  0  0  0  0  0  0  0  0  0  0
    1.8379   -3.2124   -0.3769 C   0  0  0  0  0  0  0  0  0  0  0  0
    1.4145   -2.6243   -1.4802 N   0  0  0  0  0  0  0  0  0  0  0  0
    0.7640   -3.5790   -2.2293 N   0  0  0  0  0  0  0  0  0  0  0  0
    0.8288   -4.6934   -1.5328 C   0  0  0  0  0  0  0  0  0  0  0  0
    0.2432   -6.0276   -1.8434 C   0  0  0  0  0  0  0  0  0  0  0  0
   -1.0799   -6.2600   -1.2225 N   0  0  0  0  0  0  0  0  0  0  0  0
   -1.6181   -7.5760   -1.5987 C   0  0  0  0  0  0  0  0  0  0  0  0
   -3.1070   -7.3893   -1.8791 C   0  0  0  0  0  0  0  0  0  0  0  0
   -3.4109   -5.9651   -1.4552 C   0  0  3  0  0  0  0  0  0  0  0  0
   -3.8303   -5.9485   -0.0942 O   0  0  0  0  0  0  0  0  0  0  0  0
   -2.0756   -5.2499   -1.6316 C   0  0  0  0  0  0  0  0  0  0  0  0
    1.5172   -4.5517   -0.3617 O   0  0  0  0  0  0  0  0  0  0  0  0
    3.0826   -3.2541    1.7856 C   0  0  0  0  0  0  0  0  0  0  0  0
    3.7022   -2.3881    2.6280 N   0  0  0  0  0  0  0  0  0  0  0  0
    4.2704   -2.7665    3.7764 N   0  0  0  0  0  0  0  0  0  0  0  0
    4.7827   -1.7920    4.4513 C   0  0  0  0  0  0  0  0  0  0  0  0
    4.8024   -0.4792    4.0798 N   0  0  0  0  0  0  0  0  0  0  0  0
    4.2498   -0.0899    2.9608 C   0  0  0  0  0  0  0  0  0  0  0  0
    4.3273    1.2456    2.6405 N   0  0  0  0  0  0  0  0  0  0  0  0
    4.4371    2.3053    3.5631 C   0  0  0  0  0  0  0  0  0  0  0  0
    3.8669    2.2187    4.8397 C   0  0  0  0  0  0  0  0  0  0  0  0
    4.0028    3.2478    5.7840 C   0  0  0  0  0  0  0  0  0  0  0  0
    3.3321    3.0611    7.0978 C   0  0  0  0  0  0  0  0  0  0  0  0
    2.7235    2.0166    7.3186 O   0  0  0  0  0  0  0  0  0  0  0  0
    3.4193    4.0803    8.0217 N   0  0  0  0  0  0  0  0  0  0  0  0
    2.8068    3.9626    9.3069 C   0  0  0  0  0  0  0  0  0  0  0  0
    1.4196    4.5002    9.5323 C   0  0  0  0  0  0  0  0  0  0  0  0
    2.5956    5.1543   10.1931 C   0  0  0  0  0  0  0  0  0  0  0  0
    4.7480    4.3747    5.4382 C   0  0  0  0  0  0  0  0  0  0  0  0
    4.9092    5.3867    6.3041 F   0  0  0  0  0  0  0  0  0  0  0  0
    5.3454    4.4794    4.1839 C   0  0  0  0  0  0  0  0  0  0  0  0
    5.1847    3.4500    3.2596 C   0  0  0  0  0  0  0  0  0  0  0  0
    5.7732    3.5585    2.0597 F   0  0  0  0  0  0  0  0  0  0  0  0
    3.6251   -1.1046    2.1395 C   0  0  0  0  0  0  0  0  0  0  0  0
    1.0614    1.7258    0.1162 H   0  0  0  0  0  0  0  0  0  0  0  0
    1.9479    1.4789    1.6237 H   0  0  0  0  0  0  0  0  0  0  0  0
    0.5790    0.4407    1.2286 H   0  0  0  0  0  0  0  0  0  0  0  0
    1.6797   -0.4732   -0.6692 H   0  0  0  0  0  0  0  0  0  0  0  0
    4.0842    1.3072   -0.2044 H   0  0  0  0  0  0  0  0  0  0  0  0
    2.9359    1.3104   -1.5326 H   0  0  0  0  0  0  0  0  0  0  0  0
    4.0294   -0.0607   -1.3170 H   0  0  0  0  0  0  0  0  0  0  0  0
    0.9405   -6.8012   -1.5004 H   0  0  0  0  0  0  0  0  0  0  0  0
    0.1733   -6.1236   -2.9356 H   0  0  0  0  0  0  0  0  0  0  0  0
   -1.4679   -8.2738   -0.7676 H   0  0  0  0  0  0  0  0  0  0  0  0
   -1.1327   -8.0087   -2.4821 H   0  0  0  0  0  0  0  0  0  0  0  0
   -3.7120   -8.1279   -1.3443 H   0  0  0  0  0  0  0  0  0  0  0  0
   -3.2838   -7.4996   -2.9554 H   0  0  0  0  0  0  0  0  0  0  0  0
   -4.2047   -5.5153   -2.0580 H   0  0  0  0  0  0  0  0  0  0  0  0
   -3.0343   -6.1521    0.4372 H   0  0  0  0  0  0  0  0  0  0  0  0
   -2.0059   -4.3655   -0.9887 H   0  0  0  0  0  0  0  0  0  0  0  0
   -1.9474   -4.9582   -2.6804 H   0  0  0  0  0  0  0  0  0  0  0  0
    3.0456   -4.3098    2.0219 H   0  0  0  0  0  0  0  0  0  0  0  0
    5.2591   -2.0221    5.4186 H   0  0  0  0  0  0  0  0  0  0  0  0
    4.2342    1.5311    1.6783 H   0  0  0  0  0  0  0  0  0  0  0  0
    3.2829    1.3368    5.1061 H   0  0  0  0  0  0  0  0  0  0  0  0
    3.9377    4.9236    7.8005 H   0  0  0  0  0  0  0  0  0  0  0  0
    3.0505    3.0247    9.8052 H   0  0  0  0  0  0  0  0  0  0  0  0
    0.7495    3.9005   10.1387 H   0  0  0  0  0  0  0  0  0  0  0  0
    0.9320    5.0198    8.7165 H   0  0  0  0  0  0  0  0  0  0  0  0
    2.7183    5.0145   11.2606 H   0  0  0  0  0  0  0  0  0  0  0  0
    2.8963    6.1323    9.8352 H   0  0  0  0  0  0  0  0  0  0  0  0
    5.9371    5.3527    3.9300 H   0  0  0  0  0  0  0  0  0  0  0  0
  1  2  1  0  0  0  0
  1 40  1  0  0  0  0
  1 41  1  0  0  0  0
  1 42  1  0  0  0  0
  2  3  1  0  0  0  0
  2  4  1  0  0  0  0
  2 43  1  0  0  0  0
  3 44  1  0  0  0  0
  3 45  1  0  0  0  0
  3 46  1  0  0  0  0
  4  5  1  0  0  0  0
  4 39  2  0  0  0  0
  5  6  1  0  0  0  0
  5 18  2  0  0  0  0
  6  7  2  0  0  0  0
  6 17  1  0  0  0  0
  7  8  1  0  0  0  0
  8  9  2  0  0  0  0
  9 10  1  0  0  0  0
  9 17  1  0  0  0  0
 10 11  1  0  0  0  0
 10 47  1  0  0  0  0
 10 48  1  0  0  0  0
 11 12  1  0  0  0  0
 11 16  1  0  0  0  0
 12 13  1  0  0  0  0
 12 49  1  0  0  0  0
 12 50  1  0  0  0  0
 13 14  1  0  0  0  0
 13 51  1  0  0  0  0
 13 52  1  0  0  0  0
 14 15  1  0  0  0  0
 14 16  1  0  0  0  0
 14 53  1  0  0  0  0
 15 54  1  0  0  0  0
 16 55  1  0  0  0  0
 16 56  1  0  0  0  0
 18 19  1  0  0  0  0
 18 57  1  0  0  0  0
 19 20  1  0  0  0  0
 19 39  1  0  0  0  0
 20 21  2  0  0  0  0
 21 22  1  0  0  0  0
 21 58  1  0  0  0  0
 22 23  2  0  0  0  0
 23 24  1  0  0  0  0
 23 39  1  0  0  0  0
 24 25  1  0  0  0  0
 24 59  1  0  0  0  0
 25 26  1  0  0  0  0
 25 37  2  0  0  0  0
 26 27  2  0  0  0  0
 26 60  1  0  0  0  0
 27 28  1  0  0  0  0
 27 34  1  0  0  0  0
 28 29  2  0  0  0  0
 28 30  1  0  0  0  0
 30 31  1  0  0  0  0
 30 61  1  0  0  0  0
 31 32  1  0  0  0  0
 31 33  1  0  0  0  0
 31 62  1  0  0  0  0
 32 33  1  0  0  0  0
 32 63  1  0  0  0  0
 32 64  1  0  0  0  0
 33 65  1  0  0  0  0
 33 66  1  0  0  0  0
 34 35  1  0  0  0  0
 34 36  2  0  0  0  0
 36 37  1  0  0  0  0
 36 67  1  0  0  0  0
 37 38  1  0  0  0  0
M  END
$$$$
