CHEMBL224547
 OpenBabel04072215363D

 60 65  0  0  0  0  0  0  0  0999 V2000
    1.8906   -1.4118   -1.2880 C   0  0  0  0  0  0  0  0  0  0  0  0
    0.7892   -0.5420   -0.8828 N   0  0  0  0  0  0  0  0  0  0  0  0
   -0.4475   -0.8742   -1.6290 C   0  0  0  0  0  0  0  0  0  0  0  0
   -1.6549    0.0046   -1.2066 C   0  0  0  0  0  0  0  0  0  0  0  0
   -1.8669   -0.1318    0.2439 N   0  0  0  0  0  0  0  0  0  0  0  0
   -3.1245   -0.0380    0.8234 C   0  0  0  0  0  0  0  0  0  0  0  0
   -3.3542   -0.6430    2.0882 C   0  0  0  0  0  0  0  0  0  0  0  0
   -4.6075   -0.6596    2.7176 C   0  0  0  0  0  0  0  0  0  0  0  0
   -5.6462   -0.0570    2.0565 C   0  0  0  0  0  0  0  0  0  0  0  0
   -5.4734    0.5587    0.7920 C   0  0  0  0  0  0  0  0  0  0  0  0
   -4.2206    0.5662    0.1802 C   0  0  0  0  0  0  0  0  0  0  0  0
   -6.7804    1.1583    0.2332 C   0  0  0  0  0  0  0  0  0  0  0  0
   -7.6767    0.7819    1.3675 C   0  0  0  0  0  0  0  0  0  0  0  0
   -9.0075    0.8766    1.8074 C   0  0  0  0  0  0  0  0  0  0  0  0
  -10.1152    1.5260    1.0828 C   0  0  0  0  0  0  0  0  0  0  0  0
  -10.0406    2.0724   -0.1805 C   0  0  0  0  0  0  0  0  0  0  0  0
  -11.5206    2.7578   -0.6911 S   0  0  0  0  0  0  0  0  0  0  0  0
  -12.2922    2.3458    0.7785 C   0  0  0  0  0  0  0  0  0  0  0  0
  -13.6575    2.6817    1.0401 C   0  0  0  0  0  0  0  0  0  0  0  0
  -14.8126    2.9767    1.2054 C   0  0  0  0  0  0  0  0  0  0  0  0
  -16.2389    3.2928    1.3731 C   0  0  0  0  0  0  0  0  0  0  0  0
  -16.3860    4.5440    2.0506 O   0  0  0  0  0  0  0  0  0  0  0  0
  -17.6744    4.9718    2.2431 C   0  0  0  0  0  0  0  0  0  0  0  0
  -18.7899    4.1410    2.3754 C   0  0  0  0  0  0  0  0  0  0  0  0
  -20.0578    4.6905    2.5809 C   0  0  0  0  0  0  0  0  0  0  0  0
  -20.2182    6.0746    2.6657 C   0  0  0  0  0  0  0  0  0  0  0  0
  -19.1087    6.9032    2.5622 C   0  0  0  0  0  0  0  0  0  0  0  0
  -17.8401    6.3556    2.3574 C   0  0  0  0  0  0  0  0  0  0  0  0
  -11.4367    1.6730    1.6295 C   0  0  0  0  0  0  0  0  0  0  0  0
   -9.1566    0.2920    3.0158 N   0  0  0  0  0  0  0  0  0  0  0  0
   -7.9164   -0.1695    3.3307 N   0  0  0  0  0  0  0  0  0  0  0  0
   -7.0231    0.1105    2.3637 C   0  0  0  0  0  0  0  0  0  0  0  0
   -0.6646    0.2014    1.0345 C   0  0  0  0  0  0  0  0  0  0  0  0
    0.5237   -0.6749    0.5688 C   0  0  0  0  0  0  0  0  0  0  0  0
    2.1024   -1.2886   -2.3558 H   0  0  0  0  0  0  0  0  0  0  0  0
    1.6814   -2.4706   -1.0978 H   0  0  0  0  0  0  0  0  0  0  0  0
    2.8078   -1.1409   -0.7531 H   0  0  0  0  0  0  0  0  0  0  0  0
   -0.7108   -1.9290   -1.4661 H   0  0  0  0  0  0  0  0  0  0  0  0
   -0.2780   -0.7410   -2.7037 H   0  0  0  0  0  0  0  0  0  0  0  0
   -2.5278   -0.3350   -1.7751 H   0  0  0  0  0  0  0  0  0  0  0  0
   -1.4651    1.0543   -1.4654 H   0  0  0  0  0  0  0  0  0  0  0  0
   -2.5379   -1.1657    2.5831 H   0  0  0  0  0  0  0  0  0  0  0  0
   -4.7364   -1.1500    3.6735 H   0  0  0  0  0  0  0  0  0  0  0  0
   -4.1056    1.0513   -0.7834 H   0  0  0  0  0  0  0  0  0  0  0  0
   -7.0666    0.6614   -0.6971 H   0  0  0  0  0  0  0  0  0  0  0  0
   -6.6942    2.2413    0.1187 H   0  0  0  0  0  0  0  0  0  0  0  0
   -9.1915    2.1136   -0.8462 H   0  0  0  0  0  0  0  0  0  0  0  0
  -16.6958    2.4840    1.9528 H   0  0  0  0  0  0  0  0  0  0  0  0
  -16.7205    3.3521    0.3889 H   0  0  0  0  0  0  0  0  0  0  0  0
  -18.7078    3.0603    2.3486 H   0  0  0  0  0  0  0  0  0  0  0  0
  -20.9224    4.0386    2.6825 H   0  0  0  0  0  0  0  0  0  0  0  0
  -21.2071    6.4982    2.8245 H   0  0  0  0  0  0  0  0  0  0  0  0
  -19.2267    7.9838    2.6423 H   0  0  0  0  0  0  0  0  0  0  0  0
  -16.9757    7.0101    2.2785 H   0  0  0  0  0  0  0  0  0  0  0  0
  -11.7306    1.3129    2.6092 H   0  0  0  0  0  0  0  0  0  0  0  0
   -7.7828   -0.6511    4.2129 H   0  0  0  0  0  0  0  0  0  0  0  0
   -0.8032    0.0508    2.1098 H   0  0  0  0  0  0  0  0  0  0  0  0
   -0.4183    1.2623    0.8935 H   0  0  0  0  0  0  0  0  0  0  0  0
    0.3067   -1.7227    0.8195 H   0  0  0  0  0  0  0  0  0  0  0  0
    1.4156   -0.3800    1.1341 H   0  0  0  0  0  0  0  0  0  0  0  0
  1  2  1  0  0  0  0
  1 35  1  0  0  0  0
  1 36  1  0  0  0  0
  1 37  1  0  0  0  0
  2  3  1  0  0  0  0
  2 34  1  0  0  0  0
  3  4  1  0  0  0  0
  3 38  1  0  0  0  0
  3 39  1  0  0  0  0
  4  5  1  0  0  0  0
  4 40  1  0  0  0  0
  4 41  1  0  0  0  0
  5  6  1  0  0  0  0
  5 33  1  0  0  0  0
  6  7  1  0  0  0  0
  6 11  2  0  0  0  0
  7  8  2  0  0  0  0
  7 42  1  0  0  0  0
  8  9  1  0  0  0  0
  8 43  1  0  0  0  0
  9 10  2  0  0  0  0
  9 32  1  0  0  0  0
 10 11  1  0  0  0  0
 10 12  1  0  0  0  0
 11 44  1  0  0  0  0
 12 13  1  0  0  0  0
 12 45  1  0  0  0  0
 12 46  1  0  0  0  0
 13 14  1  0  0  0  0
 13 32  2  0  0  0  0
 14 15  1  0  0  0  0
 14 30  2  0  0  0  0
 15 16  2  0  0  0  0
 15 29  1  0  0  0  0
 16 17  1  0  0  0  0
 16 47  1  0  0  0  0
 17 18  1  0  0  0  0
 18 19  1  0  0  0  0
 18 29  2  0  0  0  0
 19 20  3  0  0  0  0
 20 21  1  0  0  0  0
 21 22  1  0  0  0  0
 21 48  1  0  0  0  0
 21 49  1  0  0  0  0
 22 23  1  0  0  0  0
 23 24  1  0  0  0  0
 23 28  2  0  0  0  0
 24 25  2  0  0  0  0
 24 50  1  0  0  0  0
 25 26  1  0  0  0  0
 25 51  1  0  0  0  0
 26 27  2  0  0  0  0
 26 52  1  0  0  0  0
 27 28  1  0  0  0  0
 27 53  1  0  0  0  0
 28 54  1  0  0  0  0
 29 55  1  0  0  0  0
 30 31  1  0  0  0  0
 31 32  1  0  0  0  0
 31 56  1  0  0  0  0
 33 34  1  0  0  0  0
 33 57  1  0  0  0  0
 33 58  1  0  0  0  0
 34 59  1  0  0  0  0
 34 60  1  0  0  0  0
M  END
$$$$
