CHEMBL402792
 OpenBabel04072215373D

 56 60  0  0  0  0  0  0  0  0999 V2000
   -1.1400    2.8104   -4.4941 C   0  0  0  0  0  0  0  0  0  0  0  0
   -0.3745    1.6561   -4.0925 N   0  0  0  0  0  0  0  0  0  0  0  0
    0.9514    1.4293   -4.3260 C   0  0  0  0  0  0  0  0  0  0  0  0
    1.2376    0.2229   -3.7288 C   0  0  0  0  0  0  0  0  0  0  0  0
    2.5610   -0.4547   -3.6930 C   0  0  0  0  0  0  0  0  0  0  0  0
    3.7383    0.1010   -4.1424 C   0  0  0  0  0  0  0  0  0  0  0  0
    4.8569   -0.7585   -3.9406 C   0  0  0  0  0  0  0  0  0  0  0  0
    6.1425   -0.4426   -4.2549 N   0  0  0  0  0  0  0  0  0  0  0  0
    7.0611   -1.3795   -3.9634 C   0  0  0  0  0  0  0  0  0  0  0  0
    6.7870   -2.6202   -3.4245 C   0  0  0  0  0  0  0  0  0  0  0  0
    5.4568   -2.9771   -3.1929 C   0  0  0  0  0  0  0  0  0  0  0  0
    5.0792   -4.2322   -2.7555 O   0  0  0  0  0  0  0  0  0  0  0  0
    5.7163   -5.3262   -3.2994 C   0  0  0  0  0  0  0  0  0  0  0  0
    6.2294   -5.3542   -4.5977 C   0  0  0  0  0  0  0  0  0  0  0  0
    6.9882   -6.4418   -5.0261 C   0  0  0  0  0  0  0  0  0  0  0  0
    7.1763   -7.5467   -4.1946 C   0  0  0  0  0  0  0  0  0  0  0  0
    7.8965   -8.6762   -4.6148 N   0  0  0  0  0  0  0  0  0  0  0  0
    8.9095   -8.7742   -5.5409 C   0  0  0  0  0  0  0  0  0  0  0  0
   10.0279   -7.5975   -5.9569 S   0  0  0  0  0  0  0  0  0  0  0  0
    9.0301  -10.0024   -6.1545 N   0  0  0  0  0  0  0  0  0  0  0  0
    8.2258  -11.1227   -5.9902 C   0  0  0  0  0  0  0  0  0  0  0  0
    7.3009  -11.1853   -5.1859 O   0  0  0  0  0  0  0  0  0  0  0  0
    8.6316  -12.3076   -6.8457 C   0  0  0  0  0  0  0  0  0  0  0  0
    8.0051  -12.3436   -8.2186 C   0  0  0  0  0  0  0  0  0  0  0  0
    8.8120  -12.4370   -9.3617 C   0  0  0  0  0  0  0  0  0  0  0  0
    8.2393  -12.5714  -10.6282 C   0  0  0  0  0  0  0  0  0  0  0  0
    6.8536  -12.6140  -10.7670 C   0  0  0  0  0  0  0  0  0  0  0  0
    6.0394  -12.5152   -9.6407 C   0  0  0  0  0  0  0  0  0  0  0  0
    6.6108  -12.3812   -8.3725 C   0  0  0  0  0  0  0  0  0  0  0  0
    6.5396   -7.5833   -2.9521 C   0  0  0  0  0  0  0  0  0  0  0  0
    5.8326   -6.4673   -2.5059 C   0  0  0  0  0  0  0  0  0  0  0  0
    5.2736   -6.4989   -1.2871 F   0  0  0  0  0  0  0  0  0  0  0  0
    4.4846   -1.9874   -3.3972 C   0  0  0  0  0  0  0  0  0  0  0  0
    2.7967   -2.0286   -3.0792 S   0  0  0  0  0  0  0  0  0  0  0  0
    0.0129   -0.1986   -3.1712 C   0  0  0  0  0  0  0  0  0  0  0  0
   -0.9731    0.6766   -3.3902 N   0  0  0  0  0  0  0  0  0  0  0  0
   -0.5557    3.4059   -5.1998 H   0  0  0  0  0  0  0  0  0  0  0  0
   -1.3622    3.3976   -3.5997 H   0  0  0  0  0  0  0  0  0  0  0  0
   -2.0627    2.4699   -4.9704 H   0  0  0  0  0  0  0  0  0  0  0  0
    1.5560    2.1274   -4.8871 H   0  0  0  0  0  0  0  0  0  0  0  0
    3.8265    1.0875   -4.5742 H   0  0  0  0  0  0  0  0  0  0  0  0
    8.0859   -1.1029   -4.2008 H   0  0  0  0  0  0  0  0  0  0  0  0
    7.6008   -3.3112   -3.2296 H   0  0  0  0  0  0  0  0  0  0  0  0
    6.0740   -4.5286   -5.2873 H   0  0  0  0  0  0  0  0  0  0  0  0
    7.3824   -6.4213   -6.0381 H   0  0  0  0  0  0  0  0  0  0  0  0
    7.6050   -9.5630   -4.2044 H   0  0  0  0  0  0  0  0  0  0  0  0
    9.7592  -10.0363   -6.8588 H   0  0  0  0  0  0  0  0  0  0  0  0
    8.3516  -13.2191   -6.3053 H   0  0  0  0  0  0  0  0  0  0  0  0
    9.7257  -12.3256   -6.9182 H   0  0  0  0  0  0  0  0  0  0  0  0
    9.8963  -12.4331   -9.2771 H   0  0  0  0  0  0  0  0  0  0  0  0
    8.8749  -12.6605  -11.5046 H   0  0  0  0  0  0  0  0  0  0  0  0
    6.4099  -12.7362  -11.7523 H   0  0  0  0  0  0  0  0  0  0  0  0
    4.9586  -12.5604   -9.7487 H   0  0  0  0  0  0  0  0  0  0  0  0
    5.9570  -12.3296   -7.5040 H   0  0  0  0  0  0  0  0  0  0  0  0
    6.6209   -8.4449   -2.2965 H   0  0  0  0  0  0  0  0  0  0  0  0
   -0.2024   -1.0945   -2.6032 H   0  0  0  0  0  0  0  0  0  0  0  0
  1  2  1  0  0  0  0
  1 37  1  0  0  0  0
  1 38  1  0  0  0  0
  1 39  1  0  0  0  0
  2  3  1  0  0  0  0
  2 36  1  0  0  0  0
  3  4  2  0  0  0  0
  3 40  1  0  0  0  0
  4  5  1  0  0  0  0
  4 35  1  0  0  0  0
  5  6  2  0  0  0  0
  5 34  1  0  0  0  0
  6  7  1  0  0  0  0
  6 41  1  0  0  0  0
  7  8  1  0  0  0  0
  7 33  2  0  0  0  0
  8  9  2  0  0  0  0
  9 10  1  0  0  0  0
  9 42  1  0  0  0  0
 10 11  2  0  0  0  0
 10 43  1  0  0  0  0
 11 12  1  0  0  0  0
 11 33  1  0  0  0  0
 12 13  1  0  0  0  0
 13 14  1  0  0  0  0
 13 31  2  0  0  0  0
 14 15  2  0  0  0  0
 14 44  1  0  0  0  0
 15 16  1  0  0  0  0
 15 45  1  0  0  0  0
 16 17  1  0  0  0  0
 16 30  2  0  0  0  0
 17 18  1  0  0  0  0
 17 46  1  0  0  0  0
 18 19  2  0  0  0  0
 18 20  1  0  0  0  0
 20 21  1  0  0  0  0
 20 47  1  0  0  0  0
 21 22  2  0  0  0  0
 21 23  1  0  0  0  0
 23 24  1  0  0  0  0
 23 48  1  0  0  0  0
 23 49  1  0  0  0  0
 24 25  1  0  0  0  0
 24 29  2  0  0  0  0
 25 26  2  0  0  0  0
 25 50  1  0  0  0  0
 26 27  1  0  0  0  0
 26 51  1  0  0  0  0
 27 28  2  0  0  0  0
 27 52  1  0  0  0  0
 28 29  1  0  0  0  0
 28 53  1  0  0  0  0
 29 54  1  0  0  0  0
 30 31  1  0  0  0  0
 30 55  1  0  0  0  0
 31 32  1  0  0  0  0
 33 34  1  0  0  0  0
 35 36  2  0  0  0  0
 35 56  1  0  0  0  0
M  END
$$$$
