CHEMBL3690569
 OpenBabel04072215373D

 52 55  0  0  0  0  0  0  0  0999 V2000
    7.2357    1.6646   -5.2025 C   0  0  0  0  0  0  0  0  0  0  0  0
    7.0213    1.7135   -3.7796 N   0  0  0  0  0  0  0  0  0  0  0  0
    6.1176    0.8755   -3.1639 C   0  0  0  0  0  0  0  0  0  0  0  0
    5.4488    0.0408   -3.7614 O   0  0  0  0  0  0  0  0  0  0  0  0
    5.9983    1.0459   -1.6821 C   0  0  0  0  0  0  0  0  0  0  0  0
    5.1468    0.2097   -0.9911 C   0  0  0  0  0  0  0  0  0  0  0  0
    5.0937    0.4180    0.3562 C   0  0  0  0  0  0  0  0  0  0  0  0
    5.8140    1.3656    0.9801 N   0  0  0  0  0  0  0  0  0  0  0  0
    6.6208    2.1386    0.2220 C   0  0  0  0  0  0  0  0  0  0  0  0
    7.4373    3.1759    0.9122 C   0  0  0  0  0  0  0  0  0  0  0  0
    8.3386    4.0941    0.1970 C   0  0  0  0  0  0  0  0  0  0  0  0
    9.0760    4.9924    0.8740 C   0  0  0  0  0  0  0  0  0  0  0  0
    9.0038    5.0422    2.2679 N   0  0  0  0  0  0  0  0  0  0  0  0
    9.6743    5.8256    3.2037 C   0  0  0  0  0  0  0  0  0  0  0  0
   10.6874    6.8689    2.9751 C   0  0  0  0  0  0  0  0  0  0  0  0
   10.7048    7.9706    3.8450 C   0  0  0  0  0  0  0  0  0  0  0  0
   11.6557    8.9755    3.7127 C   0  0  0  0  0  0  0  0  0  0  0  0
   12.6112    8.8979    2.7042 C   0  0  0  0  0  0  0  0  0  0  0  0
   12.6474    7.8071    1.8333 C   0  0  0  0  0  0  0  0  0  0  0  0
   13.6220    7.6759    0.8119 N   0  0  0  0  0  0  0  0  0  0  0  0
   14.6946    8.5173    0.5970 C   0  0  0  0  0  0  0  0  0  0  0  0
   15.0079    9.4932    1.2670 O   0  0  0  0  0  0  0  0  0  0  0  0
   15.4199    8.1808   -0.5235 N   0  0  0  0  0  0  0  0  0  0  0  0
   16.6137    8.9801   -0.8328 C   0  0  0  0  0  0  0  0  0  0  0  0
   17.8626    8.6827    0.0122 C   0  0  0  0  0  0  0  0  0  0  0  0
   17.7036    7.5827    0.7839 F   0  0  0  0  0  0  0  0  0  0  0  0
   18.9205    8.4366   -0.8024 F   0  0  0  0  0  0  0  0  0  0  0  0
   18.2054    9.7143    0.8105 F   0  0  0  0  0  0  0  0  0  0  0  0
   11.6797    6.7947    1.9781 C   0  0  0  0  0  0  0  0  0  0  0  0
    9.1243    5.4273    4.4173 C   0  0  0  0  0  0  0  0  0  0  0  0
    8.1865    4.4486    4.2741 N   0  0  0  0  0  0  0  0  0  0  0  0
    8.1341    4.2196    2.9834 C   0  0  0  0  0  0  0  0  0  0  0  0
    7.3458    3.2830    2.2601 C   0  0  0  0  0  0  0  0  0  0  0  0
    6.7526    2.0187   -1.1110 N   0  0  0  0  0  0  0  0  0  0  0  0
    7.9962    2.3998   -5.4734 H   0  0  0  0  0  0  0  0  0  0  0  0
    6.2954    1.8900   -5.7127 H   0  0  0  0  0  0  0  0  0  0  0  0
    7.5652    0.6608   -5.4832 H   0  0  0  0  0  0  0  0  0  0  0  0
    7.5289    2.3689   -3.1960 H   0  0  0  0  0  0  0  0  0  0  0  0
    4.5637   -0.5590   -1.4813 H   0  0  0  0  0  0  0  0  0  0  0  0
    4.4605   -0.1873    1.0002 H   0  0  0  0  0  0  0  0  0  0  0  0
    8.3840    4.0366   -0.8855 H   0  0  0  0  0  0  0  0  0  0  0  0
    9.7250    5.6928    0.3697 H   0  0  0  0  0  0  0  0  0  0  0  0
    9.9752    8.0626    4.6470 H   0  0  0  0  0  0  0  0  0  0  0  0
   11.6595    9.8205    4.3963 H   0  0  0  0  0  0  0  0  0  0  0  0
   13.3175    9.7184    2.6353 H   0  0  0  0  0  0  0  0  0  0  0  0
   13.5295    6.8888    0.1883 H   0  0  0  0  0  0  0  0  0  0  0  0
   15.4495    7.2013   -0.7700 H   0  0  0  0  0  0  0  0  0  0  0  0
   16.3584   10.0410   -0.7288 H   0  0  0  0  0  0  0  0  0  0  0  0
   16.8346    8.8064   -1.8923 H   0  0  0  0  0  0  0  0  0  0  0  0
   11.7282    5.9241    1.3319 H   0  0  0  0  0  0  0  0  0  0  0  0
    9.3687    5.8065    5.4022 H   0  0  0  0  0  0  0  0  0  0  0  0
    6.6868    2.6542    2.8517 H   0  0  0  0  0  0  0  0  0  0  0  0
  1  2  1  0  0  0  0
  1 35  1  0  0  0  0
  1 36  1  0  0  0  0
  1 37  1  0  0  0  0
  2  3  1  0  0  0  0
  2 38  1  0  0  0  0
  3  4  2  0  0  0  0
  3  5  1  0  0  0  0
  5  6  1  0  0  0  0
  5 34  2  0  0  0  0
  6  7  2  0  0  0  0
  6 39  1  0  0  0  0
  7  8  1  0  0  0  0
  7 40  1  0  0  0  0
  8  9  2  0  0  0  0
  9 10  1  0  0  0  0
  9 34  1  0  0  0  0
 10 11  1  0  0  0  0
 10 33  2  0  0  0  0
 11 12  2  0  0  0  0
 11 41  1  0  0  0  0
 12 13  1  0  0  0  0
 12 42  1  0  0  0  0
 13 14  1  0  0  0  0
 13 32  1  0  0  0  0
 14 15  1  0  0  0  0
 14 30  2  0  0  0  0
 15 16  1  0  0  0  0
 15 29  2  0  0  0  0
 16 17  2  0  0  0  0
 16 43  1  0  0  0  0
 17 18  1  0  0  0  0
 17 44  1  0  0  0  0
 18 19  2  0  0  0  0
 18 45  1  0  0  0  0
 19 20  1  0  0  0  0
 19 29  1  0  0  0  0
 20 21  1  0  0  0  0
 20 46  1  0  0  0  0
 21 22  2  0  0  0  0
 21 23  1  0  0  0  0
 23 24  1  0  0  0  0
 23 47  1  0  0  0  0
 24 25  1  0  0  0  0
 24 48  1  0  0  0  0
 24 49  1  0  0  0  0
 25 26  1  0  0  0  0
 25 27  1  0  0  0  0
 25 28  1  0  0  0  0
 29 50  1  0  0  0  0
 30 31  1  0  0  0  0
 30 51  1  0  0  0  0
 31 32  2  0  0  0  0
 32 33  1  0  0  0  0
 33 52  1  0  0  0  0
M  END
$$$$
