CHEMBL1907764
 OpenBabel04072215363D

 54 57  0  0  1  0  0  0  0  0999 V2000
    3.2311   -1.2059    0.2417 C   0  0  0  0  0  0  0  0  0  0  0  0
    2.5352    0.0275    0.0552 O   0  0  0  0  0  0  0  0  0  0  0  0
    3.1577    1.0367   -0.6326 C   0  0  0  0  0  0  0  0  0  0  0  0
    4.2132    0.8212   -1.5213 C   0  0  0  0  0  0  0  0  0  0  0  0
    4.7663    1.8754   -2.2878 C   0  0  0  0  0  0  0  0  0  0  0  0
    5.7905    1.7098   -3.2307 C   0  0  0  0  0  0  0  0  0  0  0  0
    6.2172    0.4011   -3.5450 N   0  0  0  0  0  0  0  0  0  0  0  0
    7.4992   -0.0416   -3.9168 C   0  0  0  0  0  0  0  0  0  0  0  0
    8.6575    0.6280   -3.5088 C   0  0  0  0  0  0  0  0  0  0  0  0
    9.9176    0.0578   -3.7052 C   0  0  0  0  0  0  0  0  0  0  0  0
   10.0268   -1.1880   -4.3211 C   0  0  0  0  0  0  0  0  0  0  0  0
   11.7230   -2.0049   -4.4799 Br  0  0  0  0  0  0  0  0  0  0  0  0
    8.8939   -1.8526   -4.7788 C   0  0  0  0  0  0  0  0  0  0  0  0
    7.6455   -1.2781   -4.5649 C   0  0  0  0  0  0  0  0  0  0  0  0
    6.5484   -1.9423   -4.9645 F   0  0  0  0  0  0  0  0  0  0  0  0
    6.3404    2.7509   -3.8788 N   0  0  0  0  0  0  0  0  0  0  0  0
    5.8308    3.9532   -3.6093 C   0  0  0  0  0  0  0  0  0  0  0  0
    4.8324    4.2231   -2.7602 N   0  0  0  0  0  0  0  0  0  0  0  0
    4.3193    3.1823   -2.1022 C   0  0  0  0  0  0  0  0  0  0  0  0
    3.2778    3.3903   -1.2093 C   0  0  0  0  0  0  0  0  0  0  0  0
    2.6676    2.3458   -0.4864 C   0  0  0  0  0  0  0  0  0  0  0  0
    1.5987    2.5473    0.3714 O   0  0  0  0  0  0  0  0  0  0  0  0
    1.1667    3.9067    0.5190 C   0  0  0  0  0  0  0  0  0  0  0  0
   -0.0730    4.0558    1.4077 C   0  0  2  0  0  0  0  0  0  0  0  0
    0.1639    3.5705    2.8391 C   0  0  0  0  0  0  0  0  0  0  0  0
   -1.1107    3.7461    3.6607 C   0  0  0  0  0  0  0  0  0  0  0  0
   -2.3085    3.0779    2.9816 C   0  0  0  0  0  0  0  0  0  0  0  0
   -2.4932    3.5650    1.6068 N   0  0  0  0  0  0  0  0  0  0  0  0
   -3.6401    2.9037    0.9819 C   0  0  0  0  0  0  0  0  0  0  0  0
   -1.2848    3.3414    0.7954 C   0  0  0  0  0  0  0  0  0  0  0  0
    2.4886   -1.9894    0.4217 H   0  0  0  0  0  0  0  0  0  0  0  0
    3.8778   -1.1349    1.1215 H   0  0  0  0  0  0  0  0  0  0  0  0
    3.8111   -1.5493   -0.6182 H   0  0  0  0  0  0  0  0  0  0  0  0
    4.6445   -0.1621   -1.6586 H   0  0  0  0  0  0  0  0  0  0  0  0
    5.4690   -0.1393   -3.9721 H   0  0  0  0  0  0  0  0  0  0  0  0
    8.5861    1.5815   -2.9909 H   0  0  0  0  0  0  0  0  0  0  0  0
   10.7985    0.5823   -3.3442 H   0  0  0  0  0  0  0  0  0  0  0  0
    8.9595   -2.8181   -5.2679 H   0  0  0  0  0  0  0  0  0  0  0  0
    6.2508    4.7970   -4.1458 H   0  0  0  0  0  0  0  0  0  0  0  0
    2.9504    4.4196   -1.1047 H   0  0  0  0  0  0  0  0  0  0  0  0
    0.9079    4.3201   -0.4644 H   0  0  0  0  0  0  0  0  0  0  0  0
    1.9799    4.4963    0.9609 H   0  0  0  0  0  0  0  0  0  0  0  0
   -0.2996    5.1318    1.4513 H   0  0  0  0  0  0  0  0  0  0  0  0
    0.9809    4.1353    3.3023 H   0  0  0  0  0  0  0  0  0  0  0  0
    0.4580    2.5146    2.8413 H   0  0  0  0  0  0  0  0  0  0  0  0
   -1.3145    4.8166    3.7964 H   0  0  0  0  0  0  0  0  0  0  0  0
   -0.9679    3.3214    4.6606 H   0  0  0  0  0  0  0  0  0  0  0  0
   -3.2045    3.3020    3.5739 H   0  0  0  0  0  0  0  0  0  0  0  0
   -2.1718    1.9878    2.9943 H   0  0  0  0  0  0  0  0  0  0  0  0
   -4.5570    3.1007    1.5476 H   0  0  0  0  0  0  0  0  0  0  0  0
   -3.5016    1.8186    0.9129 H   0  0  0  0  0  0  0  0  0  0  0  0
   -3.8041    3.2934   -0.0292 H   0  0  0  0  0  0  0  0  0  0  0  0
   -1.4529    3.7457   -0.2113 H   0  0  0  0  0  0  0  0  0  0  0  0
   -1.0823    2.2680    0.6881 H   0  0  0  0  0  0  0  0  0  0  0  0
  1  2  1  0  0  0  0
  1 31  1  0  0  0  0
  1 32  1  0  0  0  0
  1 33  1  0  0  0  0
  2  3  1  0  0  0  0
  3  4  1  0  0  0  0
  3 21  2  0  0  0  0
  4  5  2  0  0  0  0
  4 34  1  0  0  0  0
  5  6  1  0  0  0  0
  5 19  1  0  0  0  0
  6  7  1  0  0  0  0
  6 16  2  0  0  0  0
  7  8  1  0  0  0  0
  7 35  1  0  0  0  0
  8  9  1  0  0  0  0
  8 14  2  0  0  0  0
  9 10  2  0  0  0  0
  9 36  1  0  0  0  0
 10 11  1  0  0  0  0
 10 37  1  0  0  0  0
 11 12  1  0  0  0  0
 11 13  2  0  0  0  0
 13 14  1  0  0  0  0
 13 38  1  0  0  0  0
 14 15  1  0  0  0  0
 16 17  1  0  0  0  0
 17 18  2  0  0  0  0
 17 39  1  0  0  0  0
 18 19  1  0  0  0  0
 19 20  2  0  0  0  0
 20 21  1  0  0  0  0
 20 40  1  0  0  0  0
 21 22  1  0  0  0  0
 22 23  1  0  0  0  0
 23 24  1  0  0  0  0
 23 41  1  0  0  0  0
 23 42  1  0  0  0  0
 24 25  1  0  0  0  0
 24 30  1  0  0  0  0
 24 43  1  1  0  0  0
 25 26  1  0  0  0  0
 25 44  1  0  0  0  0
 25 45  1  0  0  0  0
 26 27  1  0  0  0  0
 26 46  1  0  0  0  0
 26 47  1  0  0  0  0
 27 28  1  0  0  0  0
 27 48  1  0  0  0  0
 27 49  1  0  0  0  0
 28 29  1  0  0  0  0
 28 30  1  0  0  0  0
 29 50  1  0  0  0  0
 29 51  1  0  0  0  0
 29 52  1  0  0  0  0
 30 53  1  0  0  0  0
 30 54  1  0  0  0  0
M  END
$$$$
