CHEMBL474015
 OpenBabel04072215383D

 59 63  0  0  0  0  0  0  0  0999 V2000
    8.0380  -12.7035    6.5195 N   0  0  0  0  0  0  0  0  0  0  0  0
    7.8426  -11.6797    7.4696 C   0  0  0  0  0  0  0  0  0  0  0  0
    8.2647  -11.9314    8.7907 C   0  0  0  0  0  0  0  0  0  0  0  0
    8.2396  -10.9343    9.7658 C   0  0  0  0  0  0  0  0  0  0  0  0
    7.8242   -9.6578    9.4279 C   0  0  0  0  0  0  0  0  0  0  0  0
    7.4462   -9.3772    8.1134 C   0  0  0  0  0  0  0  0  0  0  0  0
    7.4782  -10.3601    7.1098 C   0  0  0  0  0  0  0  0  0  0  0  0
    7.1375  -10.0571    5.7549 N   0  0  0  0  0  0  0  0  0  0  0  0
    7.0502   -8.7783    5.2234 C   0  0  0  0  0  0  0  0  0  0  0  0
    7.3307   -7.7395    5.8161 O   0  0  0  0  0  0  0  0  0  0  0  0
    6.6299   -8.6320    3.7959 C   0  0  0  0  0  0  0  0  0  0  0  0
    5.7455   -9.4968    3.1349 C   0  0  0  0  0  0  0  0  0  0  0  0
    5.3015   -9.1936    1.8286 C   0  0  0  0  0  0  0  0  0  0  0  0
    5.7322   -8.0197    1.1896 C   0  0  0  0  0  0  0  0  0  0  0  0
    5.2199   -7.5591   -0.1363 C   0  0  0  0  0  0  0  0  0  0  0  0
    5.0140   -6.3595   -0.2744 O   0  0  0  0  0  0  0  0  0  0  0  0
    5.0959   -8.5273   -1.1101 N   0  0  0  0  0  0  0  0  0  0  0  0
    4.6631   -8.3190   -2.4423 C   0  0  0  0  0  0  0  0  0  0  0  0
    4.0577   -7.1532   -2.9048 C   0  0  0  0  0  0  0  0  0  0  0  0
    3.6393   -7.0536   -4.2362 C   0  0  0  0  0  0  0  0  0  0  0  0
    3.8206   -8.1220   -5.1172 C   0  0  0  0  0  0  0  0  0  0  0  0
    4.4334   -9.3033   -4.6854 C   0  0  0  0  0  0  0  0  0  0  0  0
    4.5287  -10.3955   -5.5733 N   0  0  0  0  0  0  0  0  0  0  0  0
    4.7574  -11.6860   -5.2332 C   0  0  0  0  0  0  0  0  0  0  0  0
    4.7013  -12.1776   -4.0159 N   0  0  0  0  0  0  0  0  0  0  0  0
    5.0421  -13.5040   -4.0045 C   0  0  0  0  0  0  0  0  0  0  0  0
    5.3386  -14.0636   -5.2295 C   0  0  0  0  0  0  0  0  0  0  0  0
    5.7396  -15.4383   -5.5226 C   0  0  0  0  0  0  0  0  0  0  0  0
    5.3021  -16.4915   -4.7076 C   0  0  0  0  0  0  0  0  0  0  0  0
    5.7336  -17.7932   -4.9481 C   0  0  0  0  0  0  0  0  0  0  0  0
    6.5949  -18.0100   -6.0082 C   0  0  0  0  0  0  0  0  0  0  0  0
    7.0407  -17.0304   -6.8217 N   0  0  0  0  0  0  0  0  0  0  0  0
    6.6058  -15.7725   -6.5600 C   0  0  0  0  0  0  0  0  0  0  0  0
    5.1458  -12.8589   -6.4410 S   0  0  0  0  0  0  0  0  0  0  0  0
    4.8449   -9.3739   -3.3418 C   0  0  0  0  0  0  0  0  0  0  0  0
    6.6205   -7.1661    1.8505 C   0  0  0  0  0  0  0  0  0  0  0  0
    7.0668   -7.4725    3.1352 C   0  0  0  0  0  0  0  0  0  0  0  0
    8.0547  -13.6291    6.9358 H   0  0  0  0  0  0  0  0  0  0  0  0
    7.4222  -12.6722    5.7192 H   0  0  0  0  0  0  0  0  0  0  0  0
    8.6225  -12.9182    9.0743 H   0  0  0  0  0  0  0  0  0  0  0  0
    8.5577  -11.1514   10.7838 H   0  0  0  0  0  0  0  0  0  0  0  0
    7.8080   -8.8657   10.1724 H   0  0  0  0  0  0  0  0  0  0  0  0
    7.1300   -8.3603    7.9058 H   0  0  0  0  0  0  0  0  0  0  0  0
    7.1291  -10.8355    5.1162 H   0  0  0  0  0  0  0  0  0  0  0  0
    5.3351  -10.3666    3.6414 H   0  0  0  0  0  0  0  0  0  0  0  0
    4.5671   -9.8398    1.3518 H   0  0  0  0  0  0  0  0  0  0  0  0
    5.4432   -9.4534   -0.8973 H   0  0  0  0  0  0  0  0  0  0  0  0
    3.8747   -6.3100   -2.2467 H   0  0  0  0  0  0  0  0  0  0  0  0
    3.1535   -6.1434   -4.5797 H   0  0  0  0  0  0  0  0  0  0  0  0
    3.4584   -8.0270   -6.1376 H   0  0  0  0  0  0  0  0  0  0  0  0
    4.4948  -10.1544   -6.5551 H   0  0  0  0  0  0  0  0  0  0  0  0
    5.0732  -14.0186   -3.0525 H   0  0  0  0  0  0  0  0  0  0  0  0
    4.6224  -16.3123   -3.8774 H   0  0  0  0  0  0  0  0  0  0  0  0
    5.4068  -18.6144   -4.3199 H   0  0  0  0  0  0  0  0  0  0  0  0
    6.9637  -19.0069   -6.2345 H   0  0  0  0  0  0  0  0  0  0  0  0
    7.0173  -15.0202   -7.2277 H   0  0  0  0  0  0  0  0  0  0  0  0
    5.3515  -10.2647   -2.9857 H   0  0  0  0  0  0  0  0  0  0  0  0
    6.9439   -6.2386    1.3802 H   0  0  0  0  0  0  0  0  0  0  0  0
    7.7307   -6.7708    3.6399 H   0  0  0  0  0  0  0  0  0  0  0  0
  1  2  1  0  0  0  0
  1 38  1  0  0  0  0
  1 39  1  0  0  0  0
  2  3  1  0  0  0  0
  2  7  2  0  0  0  0
  3  4  2  0  0  0  0
  3 40  1  0  0  0  0
  4  5  1  0  0  0  0
  4 41  1  0  0  0  0
  5  6  2  0  0  0  0
  5 42  1  0  0  0  0
  6  7  1  0  0  0  0
  6 43  1  0  0  0  0
  7  8  1  0  0  0  0
  8  9  1  0  0  0  0
  8 44  1  0  0  0  0
  9 10  2  0  0  0  0
  9 11  1  0  0  0  0
 11 12  1  0  0  0  0
 11 37  2  0  0  0  0
 12 13  2  0  0  0  0
 12 45  1  0  0  0  0
 13 14  1  0  0  0  0
 13 46  1  0  0  0  0
 14 15  1  0  0  0  0
 14 36  2  0  0  0  0
 15 16  2  0  0  0  0
 15 17  1  0  0  0  0
 17 18  1  0  0  0  0
 17 47  1  0  0  0  0
 18 19  1  0  0  0  0
 18 35  2  0  0  0  0
 19 20  2  0  0  0  0
 19 48  1  0  0  0  0
 20 21  1  0  0  0  0
 20 49  1  0  0  0  0
 21 22  2  0  0  0  0
 21 50  1  0  0  0  0
 22 23  1  0  0  0  0
 22 35  1  0  0  0  0
 23 24  1  0  0  0  0
 23 51  1  0  0  0  0
 24 25  2  0  0  0  0
 24 34  1  0  0  0  0
 25 26  1  0  0  0  0
 26 27  2  0  0  0  0
 26 52  1  0  0  0  0
 27 28  1  0  0  0  0
 27 34  1  0  0  0  0
 28 29  1  0  0  0  0
 28 33  2  0  0  0  0
 29 30  2  0  0  0  0
 29 53  1  0  0  0  0
 30 31  1  0  0  0  0
 30 54  1  0  0  0  0
 31 32  2  0  0  0  0
 31 55  1  0  0  0  0
 32 33  1  0  0  0  0
 33 56  1  0  0  0  0
 35 57  1  0  0  0  0
 36 37  1  0  0  0  0
 36 58  1  0  0  0  0
 37 59  1  0  0  0  0
M  END
$$$$
