CHEMBL4455321
 OpenBabel04072215383D

 41 43  0  0  0  0  0  0  0  0999 V2000
   -2.0353    0.0441   -0.4071 C   0  0  0  0  0  0  0  0  0  0  0  0
   -0.6184   -0.0747   -0.1648 N   0  0  0  0  0  0  0  0  0  0  0  0
    0.1187   -1.2179   -0.2275 C   0  0  0  0  0  0  0  0  0  0  0  0
    1.4242   -0.8594    0.0032 C   0  0  0  0  0  0  0  0  0  0  0  0
    2.5477   -1.6735    0.0086 N   0  0  0  0  0  0  0  0  0  0  0  0
    2.5166   -3.0383   -0.2309 C   0  0  0  0  0  0  0  0  0  0  0  0
    1.5165   -3.7017   -0.4888 O   0  0  0  0  0  0  0  0  0  0  0  0
    3.8221   -3.7572   -0.1698 C   0  0  0  0  0  0  0  0  0  0  0  0
    4.8849   -3.3280    0.6351 C   0  0  0  0  0  0  0  0  0  0  0  0
    6.0580   -4.0868    0.7064 C   0  0  0  0  0  0  0  0  0  0  0  0
    6.1684   -5.2840   -0.0043 C   0  0  0  0  0  0  0  0  0  0  0  0
    5.1091   -5.7167   -0.7971 C   0  0  0  0  0  0  0  0  0  0  0  0
    5.1942   -6.9439   -1.5028 N   0  0  0  0  0  0  0  0  0  0  0  0
    5.6416   -6.9547   -3.1247 S   0  0  0  0  0  0  0  0  0  0  0  0
    5.5383   -8.3283   -3.5685 O   0  0  0  0  0  0  0  0  0  0  0  0
    4.9708   -5.8791   -3.8257 O   0  0  0  0  0  0  0  0  0  0  0  0
    7.3818   -6.5597   -3.0675 C   0  0  0  0  0  0  0  0  0  0  0  0
    8.3087   -7.6065   -2.9878 C   0  0  0  0  0  0  0  0  0  0  0  0
    9.6759   -7.3254   -3.0020 C   0  0  0  0  0  0  0  0  0  0  0  0
   10.1098   -6.0041   -3.1060 C   0  0  0  0  0  0  0  0  0  0  0  0
   11.7961   -5.6631   -3.1212 Cl  0  0  0  0  0  0  0  0  0  0  0  0
    9.1875   -4.9599   -3.2037 C   0  0  0  0  0  0  0  0  0  0  0  0
    7.8157   -5.2351   -3.1917 C   0  0  0  0  0  0  0  0  0  0  0  0
    3.9458   -4.9543   -0.8918 C   0  0  0  0  0  0  0  0  0  0  0  0
    1.3575    0.5351    0.2284 C   0  0  0  0  0  0  0  0  0  0  0  0
    0.1129    1.0175    0.1297 N   0  0  0  0  0  0  0  0  0  0  0  0
   -2.4583   -0.9505   -0.5732 H   0  0  0  0  0  0  0  0  0  0  0  0
   -2.1803    0.6614   -1.2970 H   0  0  0  0  0  0  0  0  0  0  0  0
   -2.5021    0.5047    0.4664 H   0  0  0  0  0  0  0  0  0  0  0  0
   -0.3413   -2.1708   -0.4485 H   0  0  0  0  0  0  0  0  0  0  0  0
    3.4319   -1.2045    0.1442 H   0  0  0  0  0  0  0  0  0  0  0  0
    4.8082   -2.4347    1.2478 H   0  0  0  0  0  0  0  0  0  0  0  0
    6.8798   -3.7559    1.3374 H   0  0  0  0  0  0  0  0  0  0  0  0
    7.0786   -5.8715    0.0770 H   0  0  0  0  0  0  0  0  0  0  0  0
    5.4609   -7.7830   -0.9922 H   0  0  0  0  0  0  0  0  0  0  0  0
    7.9769   -8.6417   -2.9354 H   0  0  0  0  0  0  0  0  0  0  0  0
   10.3945   -8.1396   -2.9469 H   0  0  0  0  0  0  0  0  0  0  0  0
    9.5335   -3.9336   -3.3030 H   0  0  0  0  0  0  0  0  0  0  0  0
    7.1008   -4.4202   -3.2879 H   0  0  0  0  0  0  0  0  0  0  0  0
    3.1174   -5.3059   -1.5062 H   0  0  0  0  0  0  0  0  0  0  0  0
    2.1583    1.2250    0.4594 H   0  0  0  0  0  0  0  0  0  0  0  0
  1  2  1  0  0  0  0
  1 27  1  0  0  0  0
  1 28  1  0  0  0  0
  1 29  1  0  0  0  0
  2  3  1  0  0  0  0
  2 26  1  0  0  0  0
  3  4  2  0  0  0  0
  3 30  1  0  0  0  0
  4  5  1  0  0  0  0
  4 25  1  0  0  0  0
  5  6  1  0  0  0  0
  5 31  1  0  0  0  0
  6  7  2  0  0  0  0
  6  8  1  0  0  0  0
  8  9  1  0  0  0  0
  8 24  2  0  0  0  0
  9 10  2  0  0  0  0
  9 32  1  0  0  0  0
 10 11  1  0  0  0  0
 10 33  1  0  0  0  0
 11 12  2  0  0  0  0
 11 34  1  0  0  0  0
 12 13  1  0  0  0  0
 12 24  1  0  0  0  0
 13 14  1  0  0  0  0
 13 35  1  0  0  0  0
 14 15  2  0  0  0  0
 14 16  2  0  0  0  0
 14 17  1  0  0  0  0
 17 18  1  0  0  0  0
 17 23  2  0  0  0  0
 18 19  2  0  0  0  0
 18 36  1  0  0  0  0
 19 20  1  0  0  0  0
 19 37  1  0  0  0  0
 20 21  1  0  0  0  0
 20 22  2  0  0  0  0
 22 23  1  0  0  0  0
 22 38  1  0  0  0  0
 23 39  1  0  0  0  0
 24 40  1  0  0  0  0
 25 26  2  0  0  0  0
 25 41  1  0  0  0  0
M  END
$$$$
