CHEMBL2010875
 OpenBabel04072215363D

 67 73  0  0  0  0  0  0  0  0999 V2000
    3.6830    0.5769   -2.2192 C   0  0  0  0  0  0  0  0  0  0  0  0
    4.5164    1.4376   -2.9895 O   0  0  0  0  0  0  0  0  0  0  0  0
    5.3434    2.2277   -2.2137 C   0  0  0  0  0  0  0  0  0  0  0  0
    6.1190    3.1357   -2.8896 C   0  0  0  0  0  0  0  0  0  0  0  0
    6.9244    3.9164   -2.1080 C   0  0  0  0  0  0  0  0  0  0  0  0
    6.9583    3.8156   -0.7727 N   0  0  0  0  0  0  0  0  0  0  0  0
    6.1729    2.8896   -0.1975 C   0  0  0  0  0  0  0  0  0  0  0  0
    6.2031    2.6930    1.1744 N   0  0  0  0  0  0  0  0  0  0  0  0
    6.7766    3.4428    2.2069 C   0  0  0  0  0  0  0  0  0  0  0  0
    7.0268    2.7865    3.4149 C   0  0  0  0  0  0  0  0  0  0  0  0
    7.5980    3.4392    4.5019 C   0  0  0  0  0  0  0  0  0  0  0  0
    7.9436    4.7841    4.3534 C   0  0  0  0  0  0  0  0  0  0  0  0
    7.7759    5.4826    3.1272 C   0  0  0  0  0  0  0  0  0  0  0  0
    7.1839    4.7864    2.0562 C   0  0  0  0  0  0  0  0  0  0  0  0
    8.2866    6.7515    3.3958 C   0  0  0  0  0  0  0  0  0  0  0  0
    8.4204    7.9288    2.6441 C   0  0  0  0  0  0  0  0  0  0  0  0
    9.0952    9.0726    3.3120 C   0  0  0  0  0  0  0  0  0  0  0  0
    9.4520    9.0403    4.6966 C   0  0  0  0  0  0  0  0  0  0  0  0
    8.5570    8.1419    5.3042 C   0  0  0  0  0  0  0  0  0  0  0  0
    8.4615    6.9063    4.7137 C   0  0  0  0  0  0  0  0  0  0  0  0
    8.4843    5.6567    5.2572 N   0  0  0  0  0  0  0  0  0  0  0  0
    9.0994    5.4966    6.5574 C   0  0  0  0  0  0  0  0  0  0  0  0
    9.9157    4.2397    6.8378 C   0  0  0  0  0  0  0  0  0  0  0  0
   10.9864    3.9596    5.7803 C   0  0  0  0  0  0  0  0  0  0  0  0
   10.5791    4.4191    8.2071 C   0  0  0  0  0  0  0  0  0  0  0  0
    7.3793    8.8043    6.0143 C   0  0  0  0  0  0  0  0  0  0  0  0
    7.9730    9.2798    7.3058 C   0  0  0  0  0  0  0  0  0  0  0  0
    9.0940   10.1993    6.9452 C   0  0  0  0  0  0  0  0  0  0  0  0
    9.6796   10.8852    7.9127 N   0  0  0  0  0  0  0  0  0  0  0  0
   10.9709   10.7302    7.6103 N   0  0  0  0  0  0  0  0  0  0  0  0
   11.8594   10.9438    8.7338 C   0  0  0  0  0  0  0  0  0  0  0  0
   11.1548   10.1191    6.3691 C   0  0  0  0  0  0  0  0  0  0  0  0
    9.8965   10.0441    5.7336 C   0  0  0  0  0  0  0  0  0  0  0  0
    9.0116   10.1686    2.3745 C   0  0  0  0  0  0  0  0  0  0  0  0
    9.3662   11.3383    2.4281 O   0  0  0  0  0  0  0  0  0  0  0  0
    8.2898    9.6670    1.2786 N   0  0  0  0  0  0  0  0  0  0  0  0
    7.8502    8.2847    1.3438 C   0  0  0  0  0  0  0  0  0  0  0  0
    5.3594    2.0730   -0.8807 N   0  0  0  0  0  0  0  0  0  0  0  0
    3.0474    0.0222   -2.9156 H   0  0  0  0  0  0  0  0  0  0  0  0
    3.0281    1.1494   -1.5527 H   0  0  0  0  0  0  0  0  0  0  0  0
    4.2780   -0.1509   -1.6565 H   0  0  0  0  0  0  0  0  0  0  0  0
    6.0933    3.2275   -3.9636 H   0  0  0  0  0  0  0  0  0  0  0  0
    7.5815    4.6673   -2.5350 H   0  0  0  0  0  0  0  0  0  0  0  0
    5.6528    1.8863    1.4302 H   0  0  0  0  0  0  0  0  0  0  0  0
    6.7805    1.7331    3.5249 H   0  0  0  0  0  0  0  0  0  0  0  0
    7.7528    2.9050    5.4309 H   0  0  0  0  0  0  0  0  0  0  0  0
    7.0125    5.3119    1.1254 H   0  0  0  0  0  0  0  0  0  0  0  0
    8.3013    5.6391    7.2942 H   0  0  0  0  0  0  0  0  0  0  0  0
    9.7944    6.3428    6.6807 H   0  0  0  0  0  0  0  0  0  0  0  0
    9.2378    3.3851    6.8985 H   0  0  0  0  0  0  0  0  0  0  0  0
   11.8042    4.6867    5.8303 H   0  0  0  0  0  0  0  0  0  0  0  0
   10.5901    3.9818    4.7615 H   0  0  0  0  0  0  0  0  0  0  0  0
   11.4118    2.9633    5.9387 H   0  0  0  0  0  0  0  0  0  0  0  0
   11.3620    5.1865    8.1693 H   0  0  0  0  0  0  0  0  0  0  0  0
   11.0324    3.4839    8.5434 H   0  0  0  0  0  0  0  0  0  0  0  0
    9.8460    4.7353    8.9576 H   0  0  0  0  0  0  0  0  0  0  0  0
    6.5386    8.1305    6.1371 H   0  0  0  0  0  0  0  0  0  0  0  0
    7.0290    9.6722    5.4198 H   0  0  0  0  0  0  0  0  0  0  0  0
    8.4063    8.4090    7.8307 H   0  0  0  0  0  0  0  0  0  0  0  0
    7.2465    9.7366    7.9764 H   0  0  0  0  0  0  0  0  0  0  0  0
   11.7726   11.9952    9.0321 H   0  0  0  0  0  0  0  0  0  0  0  0
   12.8878   10.6869    8.4940 H   0  0  0  0  0  0  0  0  0  0  0  0
   11.5034   10.3277    9.5733 H   0  0  0  0  0  0  0  0  0  0  0  0
   12.1189    9.6839    6.1329 H   0  0  0  0  0  0  0  0  0  0  0  0
    7.9534   10.3103    0.5749 H   0  0  0  0  0  0  0  0  0  0  0  0
    8.2430    7.7147    0.5010 H   0  0  0  0  0  0  0  0  0  0  0  0
    6.7540    8.2558    1.3697 H   0  0  0  0  0  0  0  0  0  0  0  0
  1  2  1  0  0  0  0
  1 39  1  0  0  0  0
  1 40  1  0  0  0  0
  1 41  1  0  0  0  0
  2  3  1  0  0  0  0
  3  4  1  0  0  0  0
  3 38  2  0  0  0  0
  4  5  2  0  0  0  0
  4 42  1  0  0  0  0
  5  6  1  0  0  0  0
  5 43  1  0  0  0  0
  6  7  2  0  0  0  0
  7  8  1  0  0  0  0
  7 38  1  0  0  0  0
  8  9  1  0  0  0  0
  8 44  1  0  0  0  0
  9 10  1  0  0  0  0
  9 14  2  0  0  0  0
 10 11  2  0  0  0  0
 10 45  1  0  0  0  0
 11 12  1  0  0  0  0
 11 46  1  0  0  0  0
 12 13  2  0  0  0  0
 12 21  1  0  0  0  0
 13 14  1  0  0  0  0
 13 15  1  0  0  0  0
 14 47  1  0  0  0  0
 15 16  1  0  0  0  0
 15 20  2  0  0  0  0
 16 17  2  0  0  0  0
 16 37  1  0  0  0  0
 17 18  1  0  0  0  0
 17 34  1  0  0  0  0
 18 19  2  0  0  0  0
 18 33  1  0  0  0  0
 19 20  1  0  0  0  0
 19 26  1  0  0  0  0
 20 21  1  0  0  0  0
 21 22  1  0  0  0  0
 22 23  1  0  0  0  0
 22 48  1  0  0  0  0
 22 49  1  0  0  0  0
 23 24  1  0  0  0  0
 23 25  1  0  0  0  0
 23 50  1  0  0  0  0
 24 51  1  0  0  0  0
 24 52  1  0  0  0  0
 24 53  1  0  0  0  0
 25 54  1  0  0  0  0
 25 55  1  0  0  0  0
 25 56  1  0  0  0  0
 26 27  1  0  0  0  0
 26 57  1  0  0  0  0
 26 58  1  0  0  0  0
 27 28  1  0  0  0  0
 27 59  1  0  0  0  0
 27 60  1  0  0  0  0
 28 29  2  0  0  0  0
 28 33  1  0  0  0  0
 29 30  1  0  0  0  0
 30 31  1  0  0  0  0
 30 32  1  0  0  0  0
 31 61  1  0  0  0  0
 31 62  1  0  0  0  0
 31 63  1  0  0  0  0
 32 33  2  0  0  0  0
 32 64  1  0  0  0  0
 34 35  2  0  0  0  0
 34 36  1  0  0  0  0
 36 37  1  0  0  0  0
 36 65  1  0  0  0  0
 37 66  1  0  0  0  0
 37 67  1  0  0  0  0
M  END
$$$$
