CHEMBL98896
 OpenBabel04072215383D

 28 30  0  0  0  0  0  0  0  0999 V2000
    1.3803   -0.2036    0.0092 C   0  0  0  0  0  0  0  0  0  0  0  0
    0.4828   -1.1419    0.5057 C   0  0  0  0  0  0  0  0  0  0  0  0
   -0.8892   -0.9019    0.4264 C   0  0  0  0  0  0  0  0  0  0  0  0
   -1.3865    0.2802   -0.1497 C   0  0  0  0  0  0  0  0  0  0  0  0
   -2.8326    0.5187   -0.1851 C   0  0  0  0  0  0  0  0  0  0  0  0
   -3.7947    0.1054    0.7131 C   0  0  0  0  0  0  0  0  0  0  0  0
   -5.0900    0.4396    0.4073 N   0  0  0  0  0  0  0  0  0  0  0  0
   -5.1526    1.0840   -0.7336 C   0  0  0  0  0  0  0  0  0  0  0  0
   -6.2889    1.4759   -1.3505 N   0  0  0  0  0  0  0  0  0  0  0  0
   -7.5498    0.9146   -1.1290 C   0  0  0  0  0  0  0  0  0  0  0  0
   -7.9400    0.2785    0.0547 C   0  0  0  0  0  0  0  0  0  0  0  0
   -9.1385   -0.3391    0.2319 N   0  0  0  0  0  0  0  0  0  0  0  0
   -9.9614   -0.2875   -0.8298 C   0  0  0  0  0  0  0  0  0  0  0  0
   -9.6156    0.3750   -1.9936 C   0  0  0  0  0  0  0  0  0  0  0  0
   -8.4182    0.9892   -2.1653 N   0  0  0  0  0  0  0  0  0  0  0  0
   -3.6108    1.3819   -1.4550 S   0  0  0  0  0  0  0  0  0  0  0  0
   -0.4666    1.2159   -0.6425 C   0  0  0  0  0  0  0  0  0  0  0  0
    0.9073    0.9736   -0.5651 C   0  0  0  0  0  0  0  0  0  0  0  0
    2.4495   -0.3875    0.0711 H   0  0  0  0  0  0  0  0  0  0  0  0
    0.8468   -2.0618    0.9581 H   0  0  0  0  0  0  0  0  0  0  0  0
   -1.5688   -1.6583    0.8172 H   0  0  0  0  0  0  0  0  0  0  0  0
   -3.6084   -0.4567    1.6197 H   0  0  0  0  0  0  0  0  0  0  0  0
   -6.2371    1.8413   -2.2932 H   0  0  0  0  0  0  0  0  0  0  0  0
   -7.2961    0.2362    0.9256 H   0  0  0  0  0  0  0  0  0  0  0  0
  -10.9102   -0.7979   -0.7187 H   0  0  0  0  0  0  0  0  0  0  0  0
  -10.2972    0.4217   -2.8348 H   0  0  0  0  0  0  0  0  0  0  0  0
   -0.8041    2.1530   -1.0774 H   0  0  0  0  0  0  0  0  0  0  0  0
    1.6071    1.7110   -0.9490 H   0  0  0  0  0  0  0  0  0  0  0  0
  1  2  1  0  0  0  0
  1 18  2  0  0  0  0
  1 19  1  0  0  0  0
  2  3  2  0  0  0  0
  2 20  1  0  0  0  0
  3  4  1  0  0  0  0
  3 21  1  0  0  0  0
  4  5  1  0  0  0  0
  4 17  2  0  0  0  0
  5  6  2  0  0  0  0
  5 16  1  0  0  0  0
  6  7  1  0  0  0  0
  6 22  1  0  0  0  0
  7  8  2  0  0  0  0
  8  9  1  0  0  0  0
  8 16  1  0  0  0  0
  9 10  1  0  0  0  0
  9 23  1  0  0  0  0
 10 11  1  0  0  0  0
 10 15  2  0  0  0  0
 11 12  2  0  0  0  0
 11 24  1  0  0  0  0
 12 13  1  0  0  0  0
 13 14  2  0  0  0  0
 13 25  1  0  0  0  0
 14 15  1  0  0  0  0
 14 26  1  0  0  0  0
 17 18  1  0  0  0  0
 17 27  1  0  0  0  0
 18 28  1  0  0  0  0
M  END
$$$$
