CHEMBL3287603
 OpenBabel04072215363D

 68 72  0  0  0  0  0  0  0  0999 V2000
    1.3888   -5.0599    0.9251 C   0  0  0  0  0  0  0  0  0  0  0  0
    2.8439   -4.9722    1.9425 S   0  0  0  0  0  0  0  0  0  0  0  0
    2.7319   -3.7587    2.7292 O   0  0  0  0  0  0  0  0  0  0  0  0
    2.9845   -6.2709    2.5747 O   0  0  0  0  0  0  0  0  0  0  0  0
    4.1336   -4.7624    0.7182 C   0  0  0  0  0  0  0  0  0  0  0  0
    5.4912   -4.6932    1.3681 C   0  0  0  0  0  0  0  0  0  0  0  0
    6.2006   -5.8750    1.6187 C   0  0  0  0  0  0  0  0  0  0  0  0
    7.4750   -5.8263    2.1704 C   0  0  0  0  0  0  0  0  0  0  0  0
    8.0546   -4.5992    2.4725 C   0  0  0  0  0  0  0  0  0  0  0  0
    7.3817   -3.3972    2.2396 C   0  0  0  0  0  0  0  0  0  0  0  0
    7.9882   -2.1439    2.4612 N   0  0  0  0  0  0  0  0  0  0  0  0
    9.3405   -1.8465    2.7301 C   0  0  0  0  0  0  0  0  0  0  0  0
    9.6458   -0.6457    3.3595 C   0  0  0  0  0  0  0  0  0  0  0  0
   10.9697   -0.3669    3.7100 C   0  0  0  0  0  0  0  0  0  0  0  0
   11.3824    0.7772    4.3643 O   0  0  0  0  0  0  0  0  0  0  0  0
   10.5371    1.3993    5.2552 C   0  0  0  0  0  0  0  0  0  0  0  0
    9.6219    0.7167    6.0523 C   0  0  0  0  0  0  0  0  0  0  0  0
    8.7478    1.4192    6.8811 C   0  0  0  0  0  0  0  0  0  0  0  0
    8.8150    2.8075    6.9891 C   0  0  0  0  0  0  0  0  0  0  0  0
    7.9388    3.5354    7.8189 N   0  0  0  0  0  0  0  0  0  0  0  0
    7.1340    2.9969    8.8172 C   0  0  0  0  0  0  0  0  0  0  0  0
    7.0742    1.8306    9.1843 O   0  0  0  0  0  0  0  0  0  0  0  0
    6.2811    3.9940    9.5314 C   0  0  0  0  0  0  0  0  0  0  0  0
    4.9328    4.2126    8.9171 C   0  0  0  0  0  0  0  0  0  0  0  0
    4.8530    5.0988    8.0637 O   0  0  0  0  0  0  0  0  0  0  0  0
    3.8986    3.4002    9.3583 N   0  0  0  0  0  0  0  0  0  0  0  0
    2.5801    3.4063    8.8265 C   0  0  0  0  0  0  0  0  0  0  0  0
    2.2912    3.9635    7.5730 C   0  0  0  0  0  0  0  0  0  0  0  0
    0.9827    4.0339    7.0926 C   0  0  0  0  0  0  0  0  0  0  0  0
   -0.0533    3.5304    7.8586 C   0  0  0  0  0  0  0  0  0  0  0  0
   -1.3127    3.6246    7.4111 F   0  0  0  0  0  0  0  0  0  0  0  0
    0.2056    2.9278    9.0851 C   0  0  0  0  0  0  0  0  0  0  0  0
    1.5216    2.8477    9.5649 C   0  0  0  0  0  0  0  0  0  0  0  0
    7.0224    5.2040   10.1213 C   0  0  0  0  0  0  0  0  0  0  0  0
    6.4414    4.1758   11.0390 C   0  0  0  0  0  0  0  0  0  0  0  0
    9.7815    3.4936    6.2451 C   0  0  0  0  0  0  0  0  0  0  0  0
   10.6393    2.7847    5.3946 C   0  0  0  0  0  0  0  0  0  0  0  0
   11.5730    3.4623    4.7089 F   0  0  0  0  0  0  0  0  0  0  0  0
   11.9721   -1.2548    3.3463 C   0  0  0  0  0  0  0  0  0  0  0  0
   11.5976   -2.4093    2.6919 C   0  0  0  0  0  0  0  0  0  0  0  0
   10.3192   -2.7128    2.3901 N   0  0  0  0  0  0  0  0  0  0  0  0
    6.0937   -3.4590    1.6810 C   0  0  0  0  0  0  0  0  0  0  0  0
    0.5183   -5.1723    1.5758 H   0  0  0  0  0  0  0  0  0  0  0  0
    1.4697   -5.9241    0.2626 H   0  0  0  0  0  0  0  0  0  0  0  0
    1.3037   -4.1381    0.3470 H   0  0  0  0  0  0  0  0  0  0  0  0
    3.9184   -3.8510    0.1530 H   0  0  0  0  0  0  0  0  0  0  0  0
    4.0817   -5.6174    0.0356 H   0  0  0  0  0  0  0  0  0  0  0  0
    5.7734   -6.8459    1.3804 H   0  0  0  0  0  0  0  0  0  0  0  0
    8.0332   -6.7389    2.3607 H   0  0  0  0  0  0  0  0  0  0  0  0
    9.0468   -4.6035    2.9138 H   0  0  0  0  0  0  0  0  0  0  0  0
    7.3355   -1.4153    2.7116 H   0  0  0  0  0  0  0  0  0  0  0  0
    8.8467    0.0443    3.5999 H   0  0  0  0  0  0  0  0  0  0  0  0
    9.5439   -0.3667    6.0287 H   0  0  0  0  0  0  0  0  0  0  0  0
    7.9980    0.8399    7.4105 H   0  0  0  0  0  0  0  0  0  0  0  0
    7.9048    4.5412    7.6901 H   0  0  0  0  0  0  0  0  0  0  0  0
    4.0723    2.8022   10.1603 H   0  0  0  0  0  0  0  0  0  0  0  0
    3.0774    4.3424    6.9284 H   0  0  0  0  0  0  0  0  0  0  0  0
    0.7777    4.4876    6.1279 H   0  0  0  0  0  0  0  0  0  0  0  0
   -0.6290    2.5382    9.6649 H   0  0  0  0  0  0  0  0  0  0  0  0
    1.6909    2.3848   10.5318 H   0  0  0  0  0  0  0  0  0  0  0  0
    6.5480    6.1752   10.0574 H   0  0  0  0  0  0  0  0  0  0  0  0
    8.1036    5.2404   10.0413 H   0  0  0  0  0  0  0  0  0  0  0  0
    5.5945    4.4890   11.6386 H   0  0  0  0  0  0  0  0  0  0  0  0
    7.1259    3.5112   11.5575 H   0  0  0  0  0  0  0  0  0  0  0  0
    9.9105    4.5692    6.3240 H   0  0  0  0  0  0  0  0  0  0  0  0
   13.0139   -1.0564    3.5626 H   0  0  0  0  0  0  0  0  0  0  0  0
   12.3295   -3.1509    2.3845 H   0  0  0  0  0  0  0  0  0  0  0  0
    5.5623   -2.5341    1.4642 H   0  0  0  0  0  0  0  0  0  0  0  0
  1  2  1  0  0  0  0
  1 43  1  0  0  0  0
  1 44  1  0  0  0  0
  1 45  1  0  0  0  0
  2  3  2  0  0  0  0
  2  4  2  0  0  0  0
  2  5  1  0  0  0  0
  5  6  1  0  0  0  0
  5 46  1  0  0  0  0
  5 47  1  0  0  0  0
  6  7  1  0  0  0  0
  6 42  2  0  0  0  0
  7  8  2  0  0  0  0
  7 48  1  0  0  0  0
  8  9  1  0  0  0  0
  8 49  1  0  0  0  0
  9 10  2  0  0  0  0
  9 50  1  0  0  0  0
 10 11  1  0  0  0  0
 10 42  1  0  0  0  0
 11 12  1  0  0  0  0
 11 51  1  0  0  0  0
 12 13  1  0  0  0  0
 12 41  2  0  0  0  0
 13 14  2  0  0  0  0
 13 52  1  0  0  0  0
 14 15  1  0  0  0  0
 14 39  1  0  0  0  0
 15 16  1  0  0  0  0
 16 17  1  0  0  0  0
 16 37  2  0  0  0  0
 17 18  2  0  0  0  0
 17 53  1  0  0  0  0
 18 19  1  0  0  0  0
 18 54  1  0  0  0  0
 19 20  1  0  0  0  0
 19 36  2  0  0  0  0
 20 21  1  0  0  0  0
 20 55  1  0  0  0  0
 21 22  2  0  0  0  0
 21 23  1  0  0  0  0
 23 24  1  0  0  0  0
 23 34  1  0  0  0  0
 23 35  1  0  0  0  0
 24 25  2  0  0  0  0
 24 26  1  0  0  0  0
 26 27  1  0  0  0  0
 26 56  1  0  0  0  0
 27 28  1  0  0  0  0
 27 33  2  0  0  0  0
 28 29  2  0  0  0  0
 28 57  1  0  0  0  0
 29 30  1  0  0  0  0
 29 58  1  0  0  0  0
 30 31  1  0  0  0  0
 30 32  2  0  0  0  0
 32 33  1  0  0  0  0
 32 59  1  0  0  0  0
 33 60  1  0  0  0  0
 34 35  1  0  0  0  0
 34 61  1  0  0  0  0
 34 62  1  0  0  0  0
 35 63  1  0  0  0  0
 35 64  1  0  0  0  0
 36 37  1  0  0  0  0
 36 65  1  0  0  0  0
 37 38  1  0  0  0  0
 39 40  2  0  0  0  0
 39 66  1  0  0  0  0
 40 41  1  0  0  0  0
 40 67  1  0  0  0  0
 42 68  1  0  0  0  0
M  END
$$$$
