CHEMBL402504
 OpenBabel04072215373D

 62 65  0  0  0  0  0  0  0  0999 V2000
    3.0348   -1.9814   -2.5856 C   0  0  0  0  0  0  0  0  0  0  0  0
    4.1410   -1.5270   -1.6481 C   0  0  0  0  0  0  0  0  0  0  0  0
    4.3463   -2.4457   -0.5237 N   0  0  0  0  0  0  0  0  0  0  0  0
    3.7124   -2.1694    0.7713 C   0  0  0  0  0  0  0  0  0  0  0  0
    2.7833   -0.9757    0.9261 C   0  0  0  0  0  0  0  0  0  0  0  0
    5.2392   -3.5311   -0.7430 C   0  0  0  0  0  0  0  0  0  0  0  0
    5.7611   -3.6800   -1.8501 O   0  0  0  0  0  0  0  0  0  0  0  0
    5.6257   -4.4108    0.3565 C   0  0  0  0  0  0  0  0  0  0  0  0
    6.8843   -4.9557    0.5808 C   0  0  0  0  0  0  0  0  0  0  0  0
    6.9852   -5.6019    1.8492 C   0  0  0  0  0  0  0  0  0  0  0  0
    8.1216   -6.1114    2.3976 N   0  0  0  0  0  0  0  0  0  0  0  0
    8.0166   -6.5119    3.6790 C   0  0  0  0  0  0  0  0  0  0  0  0
    6.8735   -6.4246    4.4555 C   0  0  0  0  0  0  0  0  0  0  0  0
    5.6883   -5.9925    3.8595 C   0  0  0  0  0  0  0  0  0  0  0  0
    4.4845   -5.8604    4.5193 O   0  0  0  0  0  0  0  0  0  0  0  0
    4.1696   -6.7693    5.4934 C   0  0  0  0  0  0  0  0  0  0  0  0
    4.4788   -8.1258    5.3811 C   0  0  0  0  0  0  0  0  0  0  0  0
    4.2335   -8.9772    6.4512 C   0  0  0  0  0  0  0  0  0  0  0  0
    3.6457   -8.4905    7.6280 C   0  0  0  0  0  0  0  0  0  0  0  0
    3.4425   -9.4193    8.6519 N   0  0  0  0  0  0  0  0  0  0  0  0
    3.2652   -9.2530   10.0052 C   0  0  0  0  0  0  0  0  0  0  0  0
    3.7298   -7.9558   10.9494 S   0  0  0  0  0  0  0  0  0  0  0  0
    2.6714  -10.3270   10.6428 N   0  0  0  0  0  0  0  0  0  0  0  0
    2.2234  -11.5057   10.0586 C   0  0  0  0  0  0  0  0  0  0  0  0
    2.3709  -11.7792    8.8677 O   0  0  0  0  0  0  0  0  0  0  0  0
    1.5899  -12.4794   11.0258 C   0  0  0  0  0  0  0  0  0  0  0  0
    0.1313  -12.2164   11.2972 C   0  0  0  0  0  0  0  0  0  0  0  0
   -0.8016  -12.1740   10.2497 C   0  0  0  0  0  0  0  0  0  0  0  0
   -2.1614  -12.0027   10.5203 C   0  0  0  0  0  0  0  0  0  0  0  0
   -2.6016  -11.8741   11.8354 C   0  0  0  0  0  0  0  0  0  0  0  0
   -1.6848  -11.9116   12.8827 C   0  0  0  0  0  0  0  0  0  0  0  0
   -0.3249  -12.0821   12.6150 C   0  0  0  0  0  0  0  0  0  0  0  0
    3.2259   -7.1625    7.6854 C   0  0  0  0  0  0  0  0  0  0  0  0
    3.4850   -6.3144    6.6182 C   0  0  0  0  0  0  0  0  0  0  0  0
    3.0601   -5.0379    6.6824 F   0  0  0  0  0  0  0  0  0  0  0  0
    5.7692   -5.5899    2.5223 C   0  0  0  0  0  0  0  0  0  0  0  0
    4.5193   -5.0819    1.4741 S   0  0  0  0  0  0  0  0  0  0  0  0
    2.9447   -1.2818   -3.4240 H   0  0  0  0  0  0  0  0  0  0  0  0
    2.0701   -2.0247   -2.0723 H   0  0  0  0  0  0  0  0  0  0  0  0
    3.2437   -2.9742   -2.9965 H   0  0  0  0  0  0  0  0  0  0  0  0
    3.9426   -0.5174   -1.2817 H   0  0  0  0  0  0  0  0  0  0  0  0
    5.0740   -1.4492   -2.2191 H   0  0  0  0  0  0  0  0  0  0  0  0
    4.5118   -2.0877    1.5173 H   0  0  0  0  0  0  0  0  0  0  0  0
    3.0849   -3.0285    1.0111 H   0  0  0  0  0  0  0  0  0  0  0  0
    3.2880   -0.0249    0.7125 H   0  0  0  0  0  0  0  0  0  0  0  0
    2.4232   -0.9322    1.9566 H   0  0  0  0  0  0  0  0  0  0  0  0
    1.9080   -1.0704    0.2752 H   0  0  0  0  0  0  0  0  0  0  0  0
    7.7255   -4.7999   -0.0824 H   0  0  0  0  0  0  0  0  0  0  0  0
    8.9304   -6.9233    4.1031 H   0  0  0  0  0  0  0  0  0  0  0  0
    6.9139   -6.7168    5.4990 H   0  0  0  0  0  0  0  0  0  0  0  0
    4.9401   -8.5219    4.4839 H   0  0  0  0  0  0  0  0  0  0  0  0
    4.5352  -10.0183    6.3693 H   0  0  0  0  0  0  0  0  0  0  0  0
    3.4357  -10.3954    8.3532 H   0  0  0  0  0  0  0  0  0  0  0  0
    2.5066  -10.1822   11.6275 H   0  0  0  0  0  0  0  0  0  0  0  0
    2.1710  -12.4690   11.9557 H   0  0  0  0  0  0  0  0  0  0  0  0
    1.6980  -13.4882   10.6092 H   0  0  0  0  0  0  0  0  0  0  0  0
   -0.4824  -12.2945    9.2154 H   0  0  0  0  0  0  0  0  0  0  0  0
   -2.8787  -11.9832    9.7034 H   0  0  0  0  0  0  0  0  0  0  0  0
   -3.6621  -11.7517   12.0449 H   0  0  0  0  0  0  0  0  0  0  0  0
   -2.0289  -11.8227   13.9092 H   0  0  0  0  0  0  0  0  0  0  0  0
    0.3699  -12.1283   13.4512 H   0  0  0  0  0  0  0  0  0  0  0  0
    2.6616   -6.7745    8.5254 H   0  0  0  0  0  0  0  0  0  0  0  0
  1  2  1  0  0  0  0
  1 38  1  0  0  0  0
  1 39  1  0  0  0  0
  1 40  1  0  0  0  0
  2  3  1  0  0  0  0
  2 41  1  0  0  0  0
  2 42  1  0  0  0  0
  3  4  1  0  0  0  0
  3  6  1  0  0  0  0
  4  5  1  0  0  0  0
  4 43  1  0  0  0  0
  4 44  1  0  0  0  0
  5 45  1  0  0  0  0
  5 46  1  0  0  0  0
  5 47  1  0  0  0  0
  6  7  2  0  0  0  0
  6  8  1  0  0  0  0
  8  9  2  0  0  0  0
  8 37  1  0  0  0  0
  9 10  1  0  0  0  0
  9 48  1  0  0  0  0
 10 11  1  0  0  0  0
 10 36  2  0  0  0  0
 11 12  2  0  0  0  0
 12 13  1  0  0  0  0
 12 49  1  0  0  0  0
 13 14  2  0  0  0  0
 13 50  1  0  0  0  0
 14 15  1  0  0  0  0
 14 36  1  0  0  0  0
 15 16  1  0  0  0  0
 16 17  1  0  0  0  0
 16 34  2  0  0  0  0
 17 18  2  0  0  0  0
 17 51  1  0  0  0  0
 18 19  1  0  0  0  0
 18 52  1  0  0  0  0
 19 20  1  0  0  0  0
 19 33  2  0  0  0  0
 20 21  1  0  0  0  0
 20 53  1  0  0  0  0
 21 22  2  0  0  0  0
 21 23  1  0  0  0  0
 23 24  1  0  0  0  0
 23 54  1  0  0  0  0
 24 25  2  0  0  0  0
 24 26  1  0  0  0  0
 26 27  1  0  0  0  0
 26 55  1  0  0  0  0
 26 56  1  0  0  0  0
 27 28  1  0  0  0  0
 27 32  2  0  0  0  0
 28 29  2  0  0  0  0
 28 57  1  0  0  0  0
 29 30  1  0  0  0  0
 29 58  1  0  0  0  0
 30 31  2  0  0  0  0
 30 59  1  0  0  0  0
 31 32  1  0  0  0  0
 31 60  1  0  0  0  0
 32 61  1  0  0  0  0
 33 34  1  0  0  0  0
 33 62  1  0  0  0  0
 34 35  1  0  0  0  0
 36 37  1  0  0  0  0
M  END
$$$$
