CHEMBL401251
 OpenBabel04072215373D

 52 55  0  0  1  0  0  0  0  0999 V2000
    0.5412    4.1907    0.6027 C   0  0  0  0  0  0  0  0  0  0  0  0
    1.9457    4.3809    0.6204 O   0  0  0  0  0  0  0  0  0  0  0  0
    2.6425    3.3490   -0.0855 C   0  0  0  0  0  0  0  0  0  0  0  0
    4.1221    3.6857   -0.0156 C   0  0  0  0  0  0  0  0  0  0  0  0
    4.9354    2.7558   -0.7401 O   0  0  0  0  0  0  0  0  0  0  0  0
    6.2930    3.0172   -0.6825 C   0  0  0  0  0  0  0  0  0  0  0  0
    6.8178    4.1159   -0.0023 C   0  0  0  0  0  0  0  0  0  0  0  0
    8.1679    4.3430    0.1180 C   0  0  0  0  0  0  0  0  0  0  0  0
    8.4943    5.4026    0.8555 N   0  0  0  0  0  0  0  0  0  0  0  0
    9.7896    5.5772    1.1496 C   0  0  0  0  0  0  0  0  0  0  0  0
   10.8102    4.7699    0.6801 C   0  0  0  0  0  0  0  0  0  0  0  0
   12.0816    5.0042    1.2809 C   0  0  0  0  0  0  0  0  0  0  0  0
   13.0327    5.2801    1.8820 N   0  0  0  0  0  0  0  0  0  0  0  0
   10.4952    3.7611   -0.2460 C   0  0  0  0  0  0  0  0  0  0  0  0
   11.4664    2.9345   -0.8769 N   0  0  0  0  0  0  0  0  0  0  0  0
   12.9076    3.2470   -0.9935 C   0  0  2  0  0  0  0  0  0  0  0  0
   13.7251    2.1834   -1.6708 C   0  0  0  0  0  0  0  0  0  0  0  0
   13.9208    2.4646   -0.1982 C   0  0  1  0  0  0  0  0  0  0  0  0
   15.3392    2.7980    0.1989 C   0  0  0  0  0  0  0  0  0  0  0  0
   15.7833    4.0337    0.6841 C   0  0  0  0  0  0  0  0  0  0  0  0
   17.0676    4.1829    1.2277 C   0  0  0  0  0  0  0  0  0  0  0  0
   17.9465    3.1035    1.2650 C   0  0  0  0  0  0  0  0  0  0  0  0
   17.5568    1.8849    0.7270 C   0  0  0  0  0  0  0  0  0  0  0  0
   16.2743    1.7435    0.1993 C   0  0  0  0  0  0  0  0  0  0  0  0
    9.0986    3.4697   -0.4743 C   0  0  0  0  0  0  0  0  0  0  0  0
    8.5642    2.3613   -1.2081 C   0  0  0  0  0  0  0  0  0  0  0  0
    7.1769    2.1330   -1.3150 C   0  0  0  0  0  0  0  0  0  0  0  0
    6.6126    1.0749   -1.9808 O   0  0  0  0  0  0  0  0  0  0  0  0
    7.4630    0.2278   -2.7431 C   0  0  0  0  0  0  0  0  0  0  0  0
    0.0781    5.0133    1.1553 H   0  0  0  0  0  0  0  0  0  0  0  0
    0.2793    3.2488    1.0919 H   0  0  0  0  0  0  0  0  0  0  0  0
    0.1683    4.2064   -0.4249 H   0  0  0  0  0  0  0  0  0  0  0  0
    2.3101    3.3095   -1.1282 H   0  0  0  0  0  0  0  0  0  0  0  0
    2.4505    2.3769    0.3814 H   0  0  0  0  0  0  0  0  0  0  0  0
    4.4087    3.6964    1.0455 H   0  0  0  0  0  0  0  0  0  0  0  0
    4.2512    4.6947   -0.4296 H   0  0  0  0  0  0  0  0  0  0  0  0
    6.1808    4.8361    0.5015 H   0  0  0  0  0  0  0  0  0  0  0  0
    9.9801    6.4055    1.8288 H   0  0  0  0  0  0  0  0  0  0  0  0
   11.0907    2.4817   -1.7066 H   0  0  0  0  0  0  0  0  0  0  0  0
   13.1195    4.2642   -1.3116 H   0  0  0  0  0  0  0  0  0  0  0  0
   14.4732    2.5192   -2.3808 H   0  0  0  0  0  0  0  0  0  0  0  0
   13.2759    1.2305   -1.9211 H   0  0  0  0  0  0  0  0  0  0  0  0
   13.4451    1.7913    0.5145 H   0  0  0  0  0  0  0  0  0  0  0  0
   15.1243    4.8954    0.6911 H   0  0  0  0  0  0  0  0  0  0  0  0
   17.3682    5.1383    1.6520 H   0  0  0  0  0  0  0  0  0  0  0  0
   18.9272    3.2084    1.7203 H   0  0  0  0  0  0  0  0  0  0  0  0
   18.2295    1.0327    0.7442 H   0  0  0  0  0  0  0  0  0  0  0  0
   15.9701    0.7728   -0.1880 H   0  0  0  0  0  0  0  0  0  0  0  0
    9.2461    1.6511   -1.6528 H   0  0  0  0  0  0  0  0  0  0  0  0
    6.8362   -0.5172   -3.2440 H   0  0  0  0  0  0  0  0  0  0  0  0
    8.1633   -0.3109   -2.0975 H   0  0  0  0  0  0  0  0  0  0  0  0
    7.9907    0.7924   -3.5183 H   0  0  0  0  0  0  0  0  0  0  0  0
  1  2  1  0  0  0  0
  1 30  1  0  0  0  0
  1 31  1  0  0  0  0
  1 32  1  0  0  0  0
  2  3  1  0  0  0  0
  3  4  1  0  0  0  0
  3 33  1  0  0  0  0
  3 34  1  0  0  0  0
  4  5  1  0  0  0  0
  4 35  1  0  0  0  0
  4 36  1  0  0  0  0
  5  6  1  0  0  0  0
  6  7  1  0  0  0  0
  6 27  2  0  0  0  0
  7  8  2  0  0  0  0
  7 37  1  0  0  0  0
  8  9  1  0  0  0  0
  8 25  1  0  0  0  0
  9 10  2  0  0  0  0
 10 11  1  0  0  0  0
 10 38  1  0  0  0  0
 11 12  1  0  0  0  0
 11 14  2  0  0  0  0
 12 13  3  0  0  0  0
 14 15  1  0  0  0  0
 14 25  1  0  0  0  0
 15 16  1  0  0  0  0
 15 39  1  0  0  0  0
 16 17  1  0  0  0  0
 16 18  1  0  0  0  0
 16 40  1  6  0  0  0
 17 18  1  0  0  0  0
 17 41  1  0  0  0  0
 17 42  1  0  0  0  0
 18 19  1  0  0  0  0
 18 43  1  1  0  0  0
 19 20  1  0  0  0  0
 19 24  2  0  0  0  0
 20 21  2  0  0  0  0
 20 44  1  0  0  0  0
 21 22  1  0  0  0  0
 21 45  1  0  0  0  0
 22 23  2  0  0  0  0
 22 46  1  0  0  0  0
 23 24  1  0  0  0  0
 23 47  1  0  0  0  0
 24 48  1  0  0  0  0
 25 26  2  0  0  0  0
 26 27  1  0  0  0  0
 26 49  1  0  0  0  0
 27 28  1  0  0  0  0
 28 29  1  0  0  0  0
 29 50  1  0  0  0  0
 29 51  1  0  0  0  0
 29 52  1  0  0  0  0
M  END
$$$$
