CHEMBL2022373
 OpenBabel04072215363D

 67 72  0  0  0  0  0  0  0  0999 V2000
    0.9657   -0.0735   -0.0617 C   0  0  0  0  0  0  0  0  0  0  0  0
    2.4608    0.0426    0.0066 C   0  0  0  0  0  0  0  0  0  0  0  0
    3.0782    1.2373    0.0185 C   0  0  0  0  0  0  0  0  0  0  0  0
    4.4614    1.2733    0.0405 N   0  0  0  0  0  0  0  0  0  0  0  0
    5.3876    2.2898    0.0291 C   0  0  0  0  0  0  0  0  0  0  0  0
    5.1703    3.7534    0.0068 C   0  0  0  0  0  0  0  0  0  0  0  0
    3.9906    4.5208    0.0318 C   0  0  0  0  0  0  0  0  0  0  0  0
    4.2268    5.8309   -0.0799 N   0  0  0  0  0  0  0  0  0  0  0  0
    5.5666    5.9014   -0.1519 N   0  0  0  0  0  0  0  0  0  0  0  0
    6.2089    7.1814   -0.3324 C   0  0  0  0  0  0  0  0  0  0  0  0
    7.1234    7.1476   -1.5282 C   0  0  0  0  0  0  0  0  0  0  0  0
    8.3495    7.1475   -1.3796 O   0  0  0  0  0  0  0  0  0  0  0  0
    6.4835    7.1495   -2.7603 N   0  0  0  0  0  0  0  0  0  0  0  0
    7.2317    7.2118   -3.9576 C   0  0  0  0  0  0  0  0  0  0  0  0
    8.3211    6.3617   -4.1824 C   0  0  0  0  0  0  0  0  0  0  0  0
    9.1120    6.5249   -5.3223 C   0  0  0  0  0  0  0  0  0  0  0  0
    8.8264    7.5447   -6.2282 C   0  0  0  0  0  0  0  0  0  0  0  0
    7.7195    8.3645   -6.0155 C   0  0  0  0  0  0  0  0  0  0  0  0
    7.4687    9.3620   -6.8735 F   0  0  0  0  0  0  0  0  0  0  0  0
    6.9067    8.1797   -4.9040 C   0  0  0  0  0  0  0  0  0  0  0  0
    5.8618    8.9962   -4.6890 F   0  0  0  0  0  0  0  0  0  0  0  0
    6.1798    4.6834   -0.0586 C   0  0  0  0  0  0  0  0  0  0  0  0
    6.6126    1.6393    0.0116 C   0  0  0  0  0  0  0  0  0  0  0  0
    6.4705    0.2734    0.0306 N   0  0  0  0  0  0  0  0  0  0  0  0
    5.1681    0.0953    0.0514 C   0  0  0  0  0  0  0  0  0  0  0  0
    4.4591   -1.1701    0.1052 C   0  0  0  0  0  0  0  0  0  0  0  0
    5.1820   -2.3447    0.2075 N   0  0  0  0  0  0  0  0  0  0  0  0
    4.7670   -3.5547    0.6682 C   0  0  0  0  0  0  0  0  0  0  0  0
    5.5178   -4.7123    0.7416 C   0  0  0  0  0  0  0  0  0  0  0  0
    4.7598   -5.7945    1.2994 C   0  0  0  0  0  0  0  0  0  0  0  0
    5.2341   -7.2051    1.4652 C   0  0  0  0  0  0  0  0  0  0  0  0
    6.4253   -7.3039    2.3455 N   0  0  0  0  0  0  0  0  0  0  0  0
    6.0698   -6.9238    3.7284 C   0  0  0  0  0  0  0  0  0  0  0  0
    7.1683   -7.2341    4.7473 C   0  0  0  0  0  0  0  0  0  0  0  0
    7.5959   -8.6930    4.6643 C   0  0  0  0  0  0  0  0  0  0  0  0
    8.0445   -8.9985    3.2467 C   0  0  0  0  0  0  0  0  0  0  0  0
    6.9335   -8.6829    2.2494 C   0  0  0  0  0  0  0  0  0  0  0  0
    3.5122   -5.5012    1.6668 N   0  0  0  0  0  0  0  0  0  0  0  0
    3.2162   -3.9174    1.3240 S   0  0  0  0  0  0  0  0  0  0  0  0
    3.1475   -1.1580    0.0608 N   0  0  0  0  0  0  0  0  0  0  0  0
    0.4793    0.9071   -0.0793 H   0  0  0  0  0  0  0  0  0  0  0  0
    0.5861   -0.6229    0.8056 H   0  0  0  0  0  0  0  0  0  0  0  0
    0.6718   -0.6094   -0.9691 H   0  0  0  0  0  0  0  0  0  0  0  0
    2.5303    2.1637   -0.0047 H   0  0  0  0  0  0  0  0  0  0  0  0
    2.9584    4.2109    0.1123 H   0  0  0  0  0  0  0  0  0  0  0  0
    6.7891    7.3859    0.5724 H   0  0  0  0  0  0  0  0  0  0  0  0
    5.4506    7.9603   -0.4486 H   0  0  0  0  0  0  0  0  0  0  0  0
    5.5541    7.5654   -2.7912 H   0  0  0  0  0  0  0  0  0  0  0  0
    8.5643    5.5733   -3.4741 H   0  0  0  0  0  0  0  0  0  0  0  0
    9.9653    5.8682   -5.4875 H   0  0  0  0  0  0  0  0  0  0  0  0
    9.4618    7.7132   -7.0924 H   0  0  0  0  0  0  0  0  0  0  0  0
    7.2618    4.5919   -0.0864 H   0  0  0  0  0  0  0  0  0  0  0  0
    7.5988    2.0877   -0.0171 H   0  0  0  0  0  0  0  0  0  0  0  0
    6.1806   -2.1999    0.0746 H   0  0  0  0  0  0  0  0  0  0  0  0
    6.5444   -4.8012    0.4124 H   0  0  0  0  0  0  0  0  0  0  0  0
    5.4828   -7.5771    0.4625 H   0  0  0  0  0  0  0  0  0  0  0  0
    4.4197   -7.8385    1.8436 H   0  0  0  0  0  0  0  0  0  0  0  0
    5.1468   -7.4259    4.0459 H   0  0  0  0  0  0  0  0  0  0  0  0
    5.8841   -5.8436    3.7735 H   0  0  0  0  0  0  0  0  0  0  0  0
    6.8056   -7.0115    5.7573 H   0  0  0  0  0  0  0  0  0  0  0  0
    8.0360   -6.5861    4.5689 H   0  0  0  0  0  0  0  0  0  0  0  0
    6.7536   -9.3412    4.9393 H   0  0  0  0  0  0  0  0  0  0  0  0
    8.4049   -8.8927    5.3736 H   0  0  0  0  0  0  0  0  0  0  0  0
    8.3209  -10.0561    3.1649 H   0  0  0  0  0  0  0  0  0  0  0  0
    8.9399   -8.4122    3.0051 H   0  0  0  0  0  0  0  0  0  0  0  0
    6.1201   -9.4072    2.3909 H   0  0  0  0  0  0  0  0  0  0  0  0
    7.3332   -8.8406    1.2403 H   0  0  0  0  0  0  0  0  0  0  0  0
  1  2  1  0  0  0  0
  1 41  1  0  0  0  0
  1 42  1  0  0  0  0
  1 43  1  0  0  0  0
  2  3  2  0  0  0  0
  2 40  1  0  0  0  0
  3  4  1  0  0  0  0
  3 44  1  0  0  0  0
  4  5  1  0  0  0  0
  4 25  1  0  0  0  0
  5  6  1  0  0  0  0
  5 23  2  0  0  0  0
  6  7  1  0  0  0  0
  6 22  2  0  0  0  0
  7  8  2  0  0  0  0
  7 45  1  0  0  0  0
  8  9  1  0  0  0  0
  9 10  1  0  0  0  0
  9 22  1  0  0  0  0
 10 11  1  0  0  0  0
 10 46  1  0  0  0  0
 10 47  1  0  0  0  0
 11 12  2  0  0  0  0
 11 13  1  0  0  0  0
 13 14  1  0  0  0  0
 13 48  1  0  0  0  0
 14 15  1  0  0  0  0
 14 20  2  0  0  0  0
 15 16  2  0  0  0  0
 15 49  1  0  0  0  0
 16 17  1  0  0  0  0
 16 50  1  0  0  0  0
 17 18  2  0  0  0  0
 17 51  1  0  0  0  0
 18 19  1  0  0  0  0
 18 20  1  0  0  0  0
 20 21  1  0  0  0  0
 22 52  1  0  0  0  0
 23 24  1  0  0  0  0
 23 53  1  0  0  0  0
 24 25  2  0  0  0  0
 25 26  1  0  0  0  0
 26 27  1  0  0  0  0
 26 40  2  0  0  0  0
 27 28  1  0  0  0  0
 27 54  1  0  0  0  0
 28 29  2  0  0  0  0
 28 39  1  0  0  0  0
 29 30  1  0  0  0  0
 29 55  1  0  0  0  0
 30 31  1  0  0  0  0
 30 38  2  0  0  0  0
 31 32  1  0  0  0  0
 31 56  1  0  0  0  0
 31 57  1  0  0  0  0
 32 33  1  0  0  0  0
 32 37  1  0  0  0  0
 33 34  1  0  0  0  0
 33 58  1  0  0  0  0
 33 59  1  0  0  0  0
 34 35  1  0  0  0  0
 34 60  1  0  0  0  0
 34 61  1  0  0  0  0
 35 36  1  0  0  0  0
 35 62  1  0  0  0  0
 35 63  1  0  0  0  0
 36 37  1  0  0  0  0
 36 64  1  0  0  0  0
 36 65  1  0  0  0  0
 37 66  1  0  0  0  0
 37 67  1  0  0  0  0
 38 39  1  0  0  0  0
M  END
$$$$
