CHEMBL4536441
 OpenBabel04072215383D

 57 60  0  0  0  0  0  0  0  0999 V2000
    2.8058   -5.6252   -1.4626 C   0  0  0  0  0  0  0  0  0  0  0  0
    4.0596   -4.7645   -1.4250 C   0  0  0  0  0  0  0  0  0  0  0  0
    3.7191   -3.2712   -1.4177 C   0  0  0  0  0  0  0  0  0  0  0  0
    4.9051   -2.4436   -1.3399 N   0  0  0  0  0  0  0  0  0  0  0  0
    5.3918   -1.9077   -0.1575 C   0  0  0  0  0  0  0  0  0  0  0  0
    4.8502   -1.9105    0.9259 O   0  0  0  0  0  0  0  0  0  0  0  0
    6.7613   -1.2716   -0.5247 C   0  0  0  0  0  0  0  0  0  0  0  0
    7.7324   -0.8306    0.2243 N   0  0  0  0  0  0  0  0  0  0  0  0
    7.6826   -0.9706    1.6242 C   0  0  0  0  0  0  0  0  0  0  0  0
    7.3012   -2.1682    2.2159 C   0  0  0  0  0  0  0  0  0  0  0  0
    7.1329   -2.2688    3.5914 C   0  0  0  0  0  0  0  0  0  0  0  0
    7.4719   -1.2233    4.4505 C   0  0  0  0  0  0  0  0  0  0  0  0
    7.2721   -1.3019    5.8546 N   0  0  0  0  0  0  0  0  0  0  0  0
    6.7121   -2.3897    6.5051 C   0  0  0  0  0  0  0  0  0  0  0  0
    6.3776   -3.4383    5.9633 O   0  0  0  0  0  0  0  0  0  0  0  0
    6.5112   -2.1810    7.8659 N   0  0  0  0  0  0  0  0  0  0  0  0
    5.9266   -3.2446    8.6077 C   0  0  0  0  0  0  0  0  0  0  0  0
    6.4221   -4.5533    8.4817 C   0  0  0  0  0  0  0  0  0  0  0  0
    5.7308   -5.6291    9.0337 C   0  0  0  0  0  0  0  0  0  0  0  0
    4.5521   -5.3861    9.7370 C   0  0  0  0  0  0  0  0  0  0  0  0
    3.6150   -6.7578   10.3483 S   0  0  0  0  0  0  0  0  0  0  0  0
    4.2427   -6.9179   11.8944 N   0  0  0  0  0  0  0  0  0  0  0  0
    2.2408   -6.3501   10.5178 O   0  0  0  0  0  0  0  0  0  0  0  0
    3.9921   -7.9523    9.6346 O   0  0  0  0  0  0  0  0  0  0  0  0
    4.0728   -4.0831    9.9074 C   0  0  0  0  0  0  0  0  0  0  0  0
    4.7792   -3.0049    9.3644 C   0  0  0  0  0  0  0  0  0  0  0  0
    8.0131   -0.0690    3.8795 C   0  0  0  0  0  0  0  0  0  0  0  0
    8.1041    0.0586    2.4740 C   0  0  0  0  0  0  0  0  0  0  0  0
    6.8281   -1.3488   -1.9876 C   0  0  0  0  0  0  0  0  0  0  0  0
    7.7923   -0.8740   -2.8584 C   0  0  0  0  0  0  0  0  0  0  0  0
    7.5963   -1.1365   -4.2141 C   0  0  0  0  0  0  0  0  0  0  0  0
    8.7398   -0.5590   -5.3639 Cl  0  0  0  0  0  0  0  0  0  0  0  0
    6.4798   -1.8661   -4.6669 C   0  0  0  0  0  0  0  0  0  0  0  0
    5.5316   -2.3567   -3.7618 C   0  0  0  0  0  0  0  0  0  0  0  0
    5.7210   -2.0847   -2.4197 C   0  0  0  0  0  0  0  0  0  0  0  0
    3.0727   -6.6868   -1.4889 H   0  0  0  0  0  0  0  0  0  0  0  0
    2.2048   -5.4052   -2.3506 H   0  0  0  0  0  0  0  0  0  0  0  0
    2.1860   -5.4548   -0.5765 H   0  0  0  0  0  0  0  0  0  0  0  0
    4.6859   -5.0061   -2.2918 H   0  0  0  0  0  0  0  0  0  0  0  0
    4.6457   -5.0209   -0.5339 H   0  0  0  0  0  0  0  0  0  0  0  0
    3.0914   -3.0561   -0.5446 H   0  0  0  0  0  0  0  0  0  0  0  0
    3.1409   -2.9937   -2.3055 H   0  0  0  0  0  0  0  0  0  0  0  0
    7.0458   -3.0331    1.6149 H   0  0  0  0  0  0  0  0  0  0  0  0
    6.7018   -3.2021    3.9293 H   0  0  0  0  0  0  0  0  0  0  0  0
    7.5968   -0.5303    6.4175 H   0  0  0  0  0  0  0  0  0  0  0  0
    6.1958   -1.2495    8.0942 H   0  0  0  0  0  0  0  0  0  0  0  0
    7.3171   -4.7498    7.8964 H   0  0  0  0  0  0  0  0  0  0  0  0
    6.0975   -6.6404    8.8764 H   0  0  0  0  0  0  0  0  0  0  0  0
    3.5077   -6.7668   12.5821 H   0  0  0  0  0  0  0  0  0  0  0  0
    4.7159   -7.8194   11.9804 H   0  0  0  0  0  0  0  0  0  0  0  0
    3.1334   -3.9064   10.4274 H   0  0  0  0  0  0  0  0  0  0  0  0
    4.3687   -2.0049    9.4578 H   0  0  0  0  0  0  0  0  0  0  0  0
    8.3505    0.7563    4.5004 H   0  0  0  0  0  0  0  0  0  0  0  0
    8.5087    0.9714    2.0438 H   0  0  0  0  0  0  0  0  0  0  0  0
    8.6543   -0.3287   -2.4946 H   0  0  0  0  0  0  0  0  0  0  0  0
    6.3467   -2.0524   -5.7305 H   0  0  0  0  0  0  0  0  0  0  0  0
    4.6755   -2.9179   -4.1212 H   0  0  0  0  0  0  0  0  0  0  0  0
  1  2  1  0  0  0  0
  1 36  1  0  0  0  0
  1 37  1  0  0  0  0
  1 38  1  0  0  0  0
  2  3  1  0  0  0  0
  2 39  1  0  0  0  0
  2 40  1  0  0  0  0
  3  4  1  0  0  0  0
  3 41  1  0  0  0  0
  3 42  1  0  0  0  0
  4  5  1  0  0  0  0
  4 35  1  0  0  0  0
  5  6  2  0  0  0  0
  5  7  1  0  0  0  0
  7  8  2  0  0  0  0
  7 29  1  0  0  0  0
  8  9  1  0  0  0  0
  9 10  1  0  0  0  0
  9 28  2  0  0  0  0
 10 11  2  0  0  0  0
 10 43  1  0  0  0  0
 11 12  1  0  0  0  0
 11 44  1  0  0  0  0
 12 13  1  0  0  0  0
 12 27  2  0  0  0  0
 13 14  1  0  0  0  0
 13 45  1  0  0  0  0
 14 15  2  0  0  0  0
 14 16  1  0  0  0  0
 16 17  1  0  0  0  0
 16 46  1  0  0  0  0
 17 18  1  0  0  0  0
 17 26  2  0  0  0  0
 18 19  2  0  0  0  0
 18 47  1  0  0  0  0
 19 20  1  0  0  0  0
 19 48  1  0  0  0  0
 20 21  1  0  0  0  0
 20 25  2  0  0  0  0
 21 22  1  0  0  0  0
 21 23  2  0  0  0  0
 21 24  2  0  0  0  0
 22 49  1  0  0  0  0
 22 50  1  0  0  0  0
 25 26  1  0  0  0  0
 25 51  1  0  0  0  0
 26 52  1  0  0  0  0
 27 28  1  0  0  0  0
 27 53  1  0  0  0  0
 28 54  1  0  0  0  0
 29 30  1  0  0  0  0
 29 35  2  0  0  0  0
 30 31  2  0  0  0  0
 30 55  1  0  0  0  0
 31 32  1  0  0  0  0
 31 33  1  0  0  0  0
 33 34  2  0  0  0  0
 33 56  1  0  0  0  0
 34 35  1  0  0  0  0
 34 57  1  0  0  0  0
M  END
$$$$
