CHEMBL3927158
 OpenBabel04072215373D

 60 64  0  0  0  0  0  0  0  0999 V2000
    0.7364   -4.4104   -0.5894 C   0  0  0  0  0  0  0  0  0  0  0  0
    2.0415   -4.5885   -0.0423 O   0  0  0  0  0  0  0  0  0  0  0  0
    2.8770   -3.5263   -0.1343 C   0  0  0  0  0  0  0  0  0  0  0  0
    2.5751   -2.3453   -0.6898 C   0  0  0  0  0  0  0  0  0  0  0  0
    3.4921   -1.2975   -0.6194 C   0  0  0  0  0  0  0  0  0  0  0  0
    3.2099   -0.0610   -1.1240 O   0  0  0  0  0  0  0  0  0  0  0  0
    1.9144    0.0244   -1.7059 C   0  0  0  0  0  0  0  0  0  0  0  0
    4.7358   -1.4236    0.0222 C   0  0  0  0  0  0  0  0  0  0  0  0
    5.0846   -2.5817    0.6700 C   0  0  0  0  0  0  0  0  0  0  0  0
    6.3230   -2.7157    1.4107 N   0  0  0  0  0  0  0  0  0  0  0  0
    6.8948   -1.4329    2.0640 C   0  0  0  0  0  0  0  0  0  0  0  0
    7.8320   -0.7212    1.1019 C   0  0  0  0  0  0  0  0  0  0  0  0
    8.6359   -0.1108    0.2766 C   0  0  0  0  0  0  0  0  0  0  0  0
    9.5389    0.6094   -0.6167 C   0  0  0  0  0  0  0  0  0  0  0  0
    9.4659    0.4510   -1.9960 C   0  0  0  0  0  0  0  0  0  0  0  0
   10.3907    1.0475   -2.8605 C   0  0  0  0  0  0  0  0  0  0  0  0
   11.4482    1.7304   -2.3038 C   0  0  0  0  0  0  0  0  0  0  0  0
   11.5103    2.0057   -0.9854 N   0  0  0  0  0  0  0  0  0  0  0  0
   10.5189    1.4921   -0.1912 C   0  0  0  0  0  0  0  0  0  0  0  0
    7.3417   -3.7041    1.0689 C   0  0  0  0  0  0  0  0  0  0  0  0
    8.0977   -4.1745    2.1136 C   0  0  0  0  0  0  0  0  0  0  0  0
    9.1148   -5.0056    1.8224 C   0  0  0  0  0  0  0  0  0  0  0  0
    9.5135   -5.3417    0.5584 C   0  0  0  0  0  0  0  0  0  0  0  0
   10.8037   -5.2750    0.6577 N   0  0  0  0  0  0  0  0  0  0  0  0
   11.2937   -6.4502    0.8965 C   0  0  0  0  0  0  0  0  0  0  0  0
   11.5326   -7.2553   -0.1401 C   0  0  0  0  0  0  0  0  0  0  0  0
   12.9817   -7.7204    0.8659 C   0  0  0  0  0  0  0  0  0  0  0  0
   13.9250   -7.0520    1.9292 C   0  0  0  0  0  0  0  0  0  0  0  0
   14.8597   -7.8324    2.5569 N   0  0  0  0  0  0  0  0  0  0  0  0
   14.6736   -9.0735    2.0853 N   0  0  0  0  0  0  0  0  0  0  0  0
   15.4645  -10.2280    2.6395 C   0  0  0  0  0  0  0  0  0  0  0  0
   13.6201   -9.0280    1.0838 C   0  0  0  0  0  0  0  0  0  0  0  0
   10.2309   -6.6789   -0.8855 N   0  0  0  0  0  0  0  0  0  0  0  0
    9.0194   -5.4702   -0.5750 C   0  0  0  0  0  0  0  0  0  0  0  0
    7.7775   -4.2320   -0.2601 C   0  0  0  0  0  0  0  0  0  0  0  0
    4.1567   -3.5938    0.3741 C   0  0  0  0  0  0  0  0  0  0  0  0
    0.1470   -5.3131   -0.3935 H   0  0  0  0  0  0  0  0  0  0  0  0
    0.7972   -4.2781   -1.6755 H   0  0  0  0  0  0  0  0  0  0  0  0
    0.2118   -3.5762   -0.1289 H   0  0  0  0  0  0  0  0  0  0  0  0
    1.6312   -2.2818   -1.1881 H   0  0  0  0  0  0  0  0  0  0  0  0
    1.7819    1.0446   -2.0484 H   0  0  0  0  0  0  0  0  0  0  0  0
    1.1219   -0.1990   -0.9759 H   0  0  0  0  0  0  0  0  0  0  0  0
    1.8377   -0.6459   -2.5721 H   0  0  0  0  0  0  0  0  0  0  0  0
    5.4474   -0.6131   -0.0167 H   0  0  0  0  0  0  0  0  0  0  0  0
    7.3878   -1.5971    3.0277 H   0  0  0  0  0  0  0  0  0  0  0  0
    6.0129   -0.8002    2.2171 H   0  0  0  0  0  0  0  0  0  0  0  0
    8.7107   -0.2013   -2.4152 H   0  0  0  0  0  0  0  0  0  0  0  0
   10.2919    0.9510   -3.9358 H   0  0  0  0  0  0  0  0  0  0  0  0
   12.2679    2.0933   -2.9209 H   0  0  0  0  0  0  0  0  0  0  0  0
   10.5243    1.8736    0.8232 H   0  0  0  0  0  0  0  0  0  0  0  0
    8.0867   -3.8050    3.1347 H   0  0  0  0  0  0  0  0  0  0  0  0
    9.8048   -5.2508    2.6396 H   0  0  0  0  0  0  0  0  0  0  0  0
   11.6347   -6.4503    1.9161 H   0  0  0  0  0  0  0  0  0  0  0  0
   14.0133   -6.0334    2.3095 H   0  0  0  0  0  0  0  0  0  0  0  0
   16.2629   -9.9416    3.3612 H   0  0  0  0  0  0  0  0  0  0  0  0
   15.9718  -10.7995    1.8469 H   0  0  0  0  0  0  0  0  0  0  0  0
   14.8053  -10.9153    3.1904 H   0  0  0  0  0  0  0  0  0  0  0  0
   13.4471   -9.9952    0.6645 H   0  0  0  0  0  0  0  0  0  0  0  0
    7.1642   -3.7266   -1.0424 H   0  0  0  0  0  0  0  0  0  0  0  0
    4.5221   -4.5728    0.1905 H   0  0  0  0  0  0  0  0  0  0  0  0
  1  2  1  0  0  0  0
  1 37  1  0  0  0  0
  1 38  1  0  0  0  0
  1 39  1  0  0  0  0
  2  3  1  0  0  0  0
  3  4  1  0  0  0  0
  3 36  2  0  0  0  0
  4  5  2  0  0  0  0
  4 40  1  0  0  0  0
  5  6  1  0  0  0  0
  5  8  1  0  0  0  0
  6  7  1  0  0  0  0
  7 41  1  0  0  0  0
  7 42  1  0  0  0  0
  7 43  1  0  0  0  0
  8  9  2  0  0  0  0
  8 44  1  0  0  0  0
  9 10  1  0  0  0  0
  9 36  1  0  0  0  0
 10 11  1  0  0  0  0
 10 20  1  0  0  0  0
 11 12  1  0  0  0  0
 11 45  1  0  0  0  0
 11 46  1  0  0  0  0
 12 13  3  0  0  0  0
 13 14  1  0  0  0  0
 14 15  1  0  0  0  0
 14 19  2  0  0  0  0
 15 16  2  0  0  0  0
 15 47  1  0  0  0  0
 16 17  1  0  0  0  0
 16 48  1  0  0  0  0
 17 18  2  0  0  0  0
 17 49  1  0  0  0  0
 18 19  1  0  0  0  0
 19 50  1  0  0  0  0
 20 21  1  0  0  0  0
 20 35  2  0  0  0  0
 21 22  2  0  0  0  0
 21 51  1  0  0  0  0
 22 23  1  0  0  0  0
 22 52  1  0  0  0  0
 23 24  1  0  0  0  0
 23 34  2  0  0  0  0
 24 25  2  0  0  0  0
 25 26  1  0  0  0  0
 25 53  1  0  0  0  0
 26 27  1  0  0  0  0
 26 33  2  0  0  0  0
 27 28  1  0  0  0  0
 27 32  2  0  0  0  0
 28 29  2  0  0  0  0
 28 54  1  0  0  0  0
 29 30  1  0  0  0  0
 30 31  1  0  0  0  0
 30 32  1  0  0  0  0
 31 55  1  0  0  0  0
 31 56  1  0  0  0  0
 31 57  1  0  0  0  0
 32 58  1  0  0  0  0
 33 34  1  0  0  0  0
 34 35  1  0  0  0  0
 35 59  1  0  0  0  0
 36 60  1  0  0  0  0
M  END
$$$$
