CHEMBL3969393
 OpenBabel04072215373D

 40 43  0  0  0  0  0  0  0  0999 V2000
    2.2401   -0.7582   -1.9134 N   0  0  0  0  0  0  0  0  0  0  0  0
    0.9714   -0.5003   -1.3789 C   0  0  0  0  0  0  0  0  0  0  0  0
    0.3903    0.7616   -1.5355 C   0  0  0  0  0  0  0  0  0  0  0  0
   -0.9124    1.0063   -1.1017 C   0  0  0  0  0  0  0  0  0  0  0  0
   -1.6661   -0.0263   -0.5481 C   0  0  0  0  0  0  0  0  0  0  0  0
   -1.1341   -1.3200   -0.4782 C   0  0  0  0  0  0  0  0  0  0  0  0
   -1.9236   -2.4702    0.0482 C   0  0  0  0  0  0  0  0  0  0  0  0
   -1.3446   -3.3959    0.6111 O   0  0  0  0  0  0  0  0  0  0  0  0
   -3.4057   -2.5113   -0.0711 C   0  0  0  0  0  0  0  0  0  0  0  0
   -4.0509   -1.9671   -1.1867 C   0  0  0  0  0  0  0  0  0  0  0  0
   -5.4457   -1.9219   -1.2513 C   0  0  0  0  0  0  0  0  0  0  0  0
   -6.2022   -2.4678   -0.1978 C   0  0  0  0  0  0  0  0  0  0  0  0
   -7.5891   -2.5841    0.1135 C   0  0  0  0  0  0  0  0  0  0  0  0
   -8.7257   -2.0913   -0.6475 C   0  0  0  0  0  0  0  0  0  0  0  0
   -8.5008   -1.5235   -1.7878 N   0  0  0  0  0  0  0  0  0  0  0  0
   -9.5610   -1.0236   -2.4549 N   0  0  0  0  0  0  0  0  0  0  0  0
  -10.7857   -0.5983   -1.9951 C   0  0  0  0  0  0  0  0  0  0  0  0
  -11.5275   -0.1437   -3.0662 C   0  0  0  0  0  0  0  0  0  0  0  0
  -10.7201   -0.2653   -4.2179 C   0  0  0  0  0  0  0  0  0  0  0  0
   -9.5124   -0.7781   -3.8072 C   0  0  0  0  0  0  0  0  0  0  0  0
   -7.7763   -3.2259    1.2808 N   0  0  0  0  0  0  0  0  0  0  0  0
   -6.5292   -3.5177    1.6953 N   0  0  0  0  0  0  0  0  0  0  0  0
   -5.5378   -3.0622    0.8683 C   0  0  0  0  0  0  0  0  0  0  0  0
   -4.1413   -3.1126    0.9645 C   0  0  0  0  0  0  0  0  0  0  0  0
    0.1837   -1.5494   -0.8962 C   0  0  0  0  0  0  0  0  0  0  0  0
    2.8476    0.0548   -1.9366 H   0  0  0  0  0  0  0  0  0  0  0  0
    2.6994   -1.5643   -1.4978 H   0  0  0  0  0  0  0  0  0  0  0  0
    0.9564    1.5707   -1.9902 H   0  0  0  0  0  0  0  0  0  0  0  0
   -1.3406    2.0003   -1.2031 H   0  0  0  0  0  0  0  0  0  0  0  0
   -2.6692    0.1944   -0.1929 H   0  0  0  0  0  0  0  0  0  0  0  0
   -3.4842   -1.5570   -2.0204 H   0  0  0  0  0  0  0  0  0  0  0  0
   -5.9347   -1.4626   -2.1070 H   0  0  0  0  0  0  0  0  0  0  0  0
   -9.7233   -2.2473   -0.2044 H   0  0  0  0  0  0  0  0  0  0  0  0
  -11.0353   -0.6233   -0.9448 H   0  0  0  0  0  0  0  0  0  0  0  0
  -12.5343    0.2509   -3.0165 H   0  0  0  0  0  0  0  0  0  0  0  0
  -10.9790    0.0053   -5.2335 H   0  0  0  0  0  0  0  0  0  0  0  0
   -8.6139   -1.0145   -4.3596 H   0  0  0  0  0  0  0  0  0  0  0  0
   -6.4185   -4.0224    2.5684 H   0  0  0  0  0  0  0  0  0  0  0  0
   -3.6427   -3.5734    1.8128 H   0  0  0  0  0  0  0  0  0  0  0  0
    0.5925   -2.5560   -0.8432 H   0  0  0  0  0  0  0  0  0  0  0  0
  1  2  1  0  0  0  0
  1 26  1  0  0  0  0
  1 27  1  0  0  0  0
  2  3  1  0  0  0  0
  2 25  2  0  0  0  0
  3  4  2  0  0  0  0
  3 28  1  0  0  0  0
  4  5  1  0  0  0  0
  4 29  1  0  0  0  0
  5  6  2  0  0  0  0
  5 30  1  0  0  0  0
  6  7  1  0  0  0  0
  6 25  1  0  0  0  0
  7  8  2  0  0  0  0
  7  9  1  0  0  0  0
  9 10  1  0  0  0  0
  9 24  2  0  0  0  0
 10 11  2  0  0  0  0
 10 31  1  0  0  0  0
 11 12  1  0  0  0  0
 11 32  1  0  0  0  0
 12 13  1  0  0  0  0
 12 23  2  0  0  0  0
 13 14  1  0  0  0  0
 13 21  2  0  0  0  0
 14 15  2  0  0  0  0
 14 33  1  0  0  0  0
 15 16  1  0  0  0  0
 16 17  1  0  0  0  0
 16 20  1  0  0  0  0
 17 18  2  0  0  0  0
 17 34  1  0  0  0  0
 18 19  1  0  0  0  0
 18 35  1  0  0  0  0
 19 20  2  0  0  0  0
 19 36  1  0  0  0  0
 20 37  1  0  0  0  0
 21 22  1  0  0  0  0
 22 23  1  0  0  0  0
 22 38  1  0  0  0  0
 23 24  1  0  0  0  0
 24 39  1  0  0  0  0
 25 40  1  0  0  0  0
M  END
$$$$
