CHEMBL238526
 OpenBabel04072215363D

 45 48  0  0  0  0  0  0  0  0999 V2000
    2.0976    0.0585   -0.0433 C   0  0  0  0  0  0  0  0  0  0  0  0
    0.6573   -0.0515   -0.0562 N   0  0  0  0  0  0  0  0  0  0  0  0
   -0.2133    1.0016   -0.0544 C   0  0  0  0  0  0  0  0  0  0  0  0
   -1.4601    0.5952   -0.1414 N   0  0  0  0  0  0  0  0  0  0  0  0
   -1.3860   -0.7634   -0.1547 C   0  0  0  0  0  0  0  0  0  0  0  0
   -2.4752   -1.5472   -0.1724 N   0  0  0  0  0  0  0  0  0  0  0  0
   -3.7604   -1.0728   -0.6324 C   0  0  0  0  0  0  0  0  0  0  0  0
   -4.7989   -1.1313    0.4552 C   0  0  0  0  0  0  0  0  0  0  0  0
   -4.6987   -0.3056    1.5784 C   0  0  0  0  0  0  0  0  0  0  0  0
   -5.7162   -0.3351    2.5185 C   0  0  0  0  0  0  0  0  0  0  0  0
   -6.8096   -1.1222    2.4194 N   0  0  0  0  0  0  0  0  0  0  0  0
   -6.8846   -1.9185    1.3330 C   0  0  0  0  0  0  0  0  0  0  0  0
   -5.9187   -1.9614    0.3393 C   0  0  0  0  0  0  0  0  0  0  0  0
   -0.0827   -1.2118   -0.1474 C   0  0  0  0  0  0  0  0  0  0  0  0
    0.4505   -2.5477   -0.2208 C   0  0  0  0  0  0  0  0  0  0  0  0
    1.5587   -2.8211    0.2273 O   0  0  0  0  0  0  0  0  0  0  0  0
   -0.3648   -3.4479   -0.8962 N   0  0  0  0  0  0  0  0  0  0  0  0
   -0.1000   -4.8314   -1.0380 C   0  0  0  0  0  0  0  0  0  0  0  0
    0.7912   -5.5175   -0.2270 C   0  0  0  0  0  0  0  0  0  0  0  0
    1.1290   -6.8156   -0.3866 N   0  0  0  0  0  0  0  0  0  0  0  0
    0.5726   -7.4848   -1.4010 C   0  0  0  0  0  0  0  0  0  0  0  0
    0.9981   -8.7819   -1.6339 C   0  0  0  0  0  0  0  0  0  0  0  0
    0.4864   -9.5425   -2.6861 C   0  0  0  0  0  0  0  0  0  0  0  0
   -0.5028   -9.0066   -3.5004 C   0  0  0  0  0  0  0  0  0  0  0  0
   -0.9566   -7.7026   -3.2805 C   0  0  0  0  0  0  0  0  0  0  0  0
   -0.4037   -6.9163   -2.2480 C   0  0  0  0  0  0  0  0  0  0  0  0
   -0.7488   -5.5649   -2.0334 C   0  0  0  0  0  0  0  0  0  0  0  0
    2.3839    1.1135   -0.0753 H   0  0  0  0  0  0  0  0  0  0  0  0
    2.4966   -0.4499   -0.9255 H   0  0  0  0  0  0  0  0  0  0  0  0
    2.4768   -0.3954    0.8750 H   0  0  0  0  0  0  0  0  0  0  0  0
    0.1112    2.0331    0.0060 H   0  0  0  0  0  0  0  0  0  0  0  0
   -2.4785   -2.4544    0.2842 H   0  0  0  0  0  0  0  0  0  0  0  0
   -4.0609   -1.7280   -1.4588 H   0  0  0  0  0  0  0  0  0  0  0  0
   -3.7233   -0.0601   -1.0503 H   0  0  0  0  0  0  0  0  0  0  0  0
   -3.8480    0.3576    1.7081 H   0  0  0  0  0  0  0  0  0  0  0  0
   -5.6812    0.3000    3.3989 H   0  0  0  0  0  0  0  0  0  0  0  0
   -7.7761   -2.5366    1.2738 H   0  0  0  0  0  0  0  0  0  0  0  0
   -6.0533   -2.6191   -0.5128 H   0  0  0  0  0  0  0  0  0  0  0  0
   -1.1235   -3.0463   -1.4358 H   0  0  0  0  0  0  0  0  0  0  0  0
    1.2761   -5.0501    0.6229 H   0  0  0  0  0  0  0  0  0  0  0  0
    1.7682   -9.2044   -0.9890 H   0  0  0  0  0  0  0  0  0  0  0  0
    0.8715  -10.5421   -2.8621 H   0  0  0  0  0  0  0  0  0  0  0  0
   -0.9101   -9.6011   -4.3147 H   0  0  0  0  0  0  0  0  0  0  0  0
   -1.7279   -7.2997   -3.9327 H   0  0  0  0  0  0  0  0  0  0  0  0
   -1.4742   -5.0897   -2.6870 H   0  0  0  0  0  0  0  0  0  0  0  0
  1  2  1  0  0  0  0
  1 28  1  0  0  0  0
  1 29  1  0  0  0  0
  1 30  1  0  0  0  0
  2  3  1  0  0  0  0
  2 14  1  0  0  0  0
  3  4  2  0  0  0  0
  3 31  1  0  0  0  0
  4  5  1  0  0  0  0
  5  6  1  0  0  0  0
  5 14  2  0  0  0  0
  6  7  1  0  0  0  0
  6 32  1  0  0  0  0
  7  8  1  0  0  0  0
  7 33  1  0  0  0  0
  7 34  1  0  0  0  0
  8  9  1  0  0  0  0
  8 13  2  0  0  0  0
  9 10  2  0  0  0  0
  9 35  1  0  0  0  0
 10 11  1  0  0  0  0
 10 36  1  0  0  0  0
 11 12  2  0  0  0  0
 12 13  1  0  0  0  0
 12 37  1  0  0  0  0
 13 38  1  0  0  0  0
 14 15  1  0  0  0  0
 15 16  2  0  0  0  0
 15 17  1  0  0  0  0
 17 18  1  0  0  0  0
 17 39  1  0  0  0  0
 18 19  1  0  0  0  0
 18 27  2  0  0  0  0
 19 20  2  0  0  0  0
 19 40  1  0  0  0  0
 20 21  1  0  0  0  0
 21 22  1  0  0  0  0
 21 26  2  0  0  0  0
 22 23  2  0  0  0  0
 22 41  1  0  0  0  0
 23 24  1  0  0  0  0
 23 42  1  0  0  0  0
 24 25  2  0  0  0  0
 24 43  1  0  0  0  0
 25 26  1  0  0  0  0
 25 44  1  0  0  0  0
 26 27  1  0  0  0  0
 27 45  1  0  0  0  0
M  END
$$$$
