CHEMBL3690523
 OpenBabel04072215373D

 50 53  0  0  0  0  0  0  0  0999 V2000
    2.6592   -0.7934    2.4244 C   0  0  0  0  0  0  0  0  0  0  0  0
    3.1649   -0.3227    1.0955 C   0  0  0  0  0  0  0  0  0  0  0  0
    2.9177   -1.0283   -0.0598 C   0  0  0  0  0  0  0  0  0  0  0  0
    3.4364   -0.5086   -1.2256 C   0  0  0  0  0  0  0  0  0  0  0  0
    3.2088   -1.1545   -2.4408 N   0  0  0  0  0  0  0  0  0  0  0  0
    4.1250    0.6375   -1.2743 N   0  0  0  0  0  0  0  0  0  0  0  0
    4.3199    1.2666   -0.1019 C   0  0  0  0  0  0  0  0  0  0  0  0
    5.1495    2.4986   -0.1120 C   0  0  0  0  0  0  0  0  0  0  0  0
    5.4961    3.2597   -1.3376 C   0  0  0  0  0  0  0  0  0  0  0  0
    6.0894    4.4727   -1.2337 C   0  0  0  0  0  0  0  0  0  0  0  0
    6.5491    4.8846    0.0348 N   0  0  0  0  0  0  0  0  0  0  0  0
    7.5163    5.8378    0.3988 C   0  0  0  0  0  0  0  0  0  0  0  0
    7.3439    6.9582    1.3917 C   0  0  0  0  0  0  0  0  0  0  0  0
    8.5159    7.4035    2.0394 C   0  0  0  0  0  0  0  0  0  0  0  0
    8.4718    8.2210    3.1594 C   0  0  0  0  0  0  0  0  0  0  0  0
    7.2459    8.6430    3.6488 C   0  0  0  0  0  0  0  0  0  0  0  0
    6.0503    8.2449    3.0429 C   0  0  0  0  0  0  0  0  0  0  0  0
    4.7912    8.6195    3.5995 N   0  0  0  0  0  0  0  0  0  0  0  0
    4.6053    9.0378    4.9077 C   0  0  0  0  0  0  0  0  0  0  0  0
    5.4407    9.0925    5.7909 O   0  0  0  0  0  0  0  0  0  0  0  0
    3.2898    9.3751    5.1696 N   0  0  0  0  0  0  0  0  0  0  0  0
    2.9832    9.8746    6.5206 C   0  0  0  0  0  0  0  0  0  0  0  0
    3.3406   11.3445    6.7905 C   0  0  0  0  0  0  0  0  0  0  0  0
    3.6196   12.0136    5.6475 F   0  0  0  0  0  0  0  0  0  0  0  0
    2.2798   11.9711    7.3590 F   0  0  0  0  0  0  0  0  0  0  0  0
    4.3855   11.4864    7.6297 F   0  0  0  0  0  0  0  0  0  0  0  0
    6.1038    7.4254    1.8829 C   0  0  0  0  0  0  0  0  0  0  0  0
    8.5270    4.8844    0.6260 C   0  0  0  0  0  0  0  0  0  0  0  0
    7.9641    3.8193    1.3042 N   0  0  0  0  0  0  0  0  0  0  0  0
    6.6742    3.9110    1.0222 C   0  0  0  0  0  0  0  0  0  0  0  0
    5.6776    2.9100    1.0663 C   0  0  0  0  0  0  0  0  0  0  0  0
    3.8660    0.8248    1.0888 N   0  0  0  0  0  0  0  0  0  0  0  0
    2.1304   -1.7486    2.3453 H   0  0  0  0  0  0  0  0  0  0  0  0
    1.9693   -0.0522    2.8404 H   0  0  0  0  0  0  0  0  0  0  0  0
    3.4981   -0.9239    3.1166 H   0  0  0  0  0  0  0  0  0  0  0  0
    2.3382   -1.9433   -0.0583 H   0  0  0  0  0  0  0  0  0  0  0  0
    3.4585   -2.1361   -2.4062 H   0  0  0  0  0  0  0  0  0  0  0  0
    3.7298   -0.6547   -3.1571 H   0  0  0  0  0  0  0  0  0  0  0  0
    5.2992    2.7947   -2.2998 H   0  0  0  0  0  0  0  0  0  0  0  0
    6.3961    5.0572   -2.0929 H   0  0  0  0  0  0  0  0  0  0  0  0
    9.4960    7.0488    1.7298 H   0  0  0  0  0  0  0  0  0  0  0  0
    9.3873    8.4871    3.6803 H   0  0  0  0  0  0  0  0  0  0  0  0
    7.2614    9.2803    4.5275 H   0  0  0  0  0  0  0  0  0  0  0  0
    3.9686    8.3277    3.0991 H   0  0  0  0  0  0  0  0  0  0  0  0
    2.7989    9.8094    4.4015 H   0  0  0  0  0  0  0  0  0  0  0  0
    3.4941    9.2434    7.2576 H   0  0  0  0  0  0  0  0  0  0  0  0
    1.9093    9.7244    6.6586 H   0  0  0  0  0  0  0  0  0  0  0  0
    5.1812    7.0891    1.4194 H   0  0  0  0  0  0  0  0  0  0  0  0
    9.5939    5.0485    0.6897 H   0  0  0  0  0  0  0  0  0  0  0  0
    5.4776    2.4346    2.0188 H   0  0  0  0  0  0  0  0  0  0  0  0
  1  2  1  0  0  0  0
  1 33  1  0  0  0  0
  1 34  1  0  0  0  0
  1 35  1  0  0  0  0
  2  3  1  0  0  0  0
  2 32  2  0  0  0  0
  3  4  2  0  0  0  0
  3 36  1  0  0  0  0
  4  5  1  0  0  0  0
  4  6  1  0  0  0  0
  5 37  1  0  0  0  0
  5 38  1  0  0  0  0
  6  7  2  0  0  0  0
  7  8  1  0  0  0  0
  7 32  1  0  0  0  0
  8  9  1  0  0  0  0
  8 31  2  0  0  0  0
  9 10  2  0  0  0  0
  9 39  1  0  0  0  0
 10 11  1  0  0  0  0
 10 40  1  0  0  0  0
 11 12  1  0  0  0  0
 11 30  1  0  0  0  0
 12 13  1  0  0  0  0
 12 28  2  0  0  0  0
 13 14  1  0  0  0  0
 13 27  2  0  0  0  0
 14 15  2  0  0  0  0
 14 41  1  0  0  0  0
 15 16  1  0  0  0  0
 15 42  1  0  0  0  0
 16 17  2  0  0  0  0
 16 43  1  0  0  0  0
 17 18  1  0  0  0  0
 17 27  1  0  0  0  0
 18 19  1  0  0  0  0
 18 44  1  0  0  0  0
 19 20  2  0  0  0  0
 19 21  1  0  0  0  0
 21 22  1  0  0  0  0
 21 45  1  0  0  0  0
 22 23  1  0  0  0  0
 22 46  1  0  0  0  0
 22 47  1  0  0  0  0
 23 24  1  0  0  0  0
 23 25  1  0  0  0  0
 23 26  1  0  0  0  0
 27 48  1  0  0  0  0
 28 29  1  0  0  0  0
 28 49  1  0  0  0  0
 29 30  2  0  0  0  0
 30 31  1  0  0  0  0
 31 50  1  0  0  0  0
M  END
$$$$
