CHEMBL1082437
 OpenBabel04072215353D

 58 64  0  0  1  0  0  0  0  0999 V2000
    0.7167    0.9614   -0.1734 C   0  0  0  0  0  0  0  0  0  0  0  0
    1.6739   -0.0526   -0.5589 N   0  0  0  0  0  0  0  0  0  0  0  0
    2.0727   -0.1503   -1.8475 N   0  0  0  0  0  0  0  0  0  0  0  0
    1.8948   -1.4628   -2.1005 C   0  0  0  0  0  0  0  0  0  0  0  0
    1.2435   -2.1373   -1.0196 C   0  0  0  0  0  0  0  0  0  0  0  0
    1.6779   -1.2900    0.0039 C   0  0  0  0  0  0  0  0  0  0  0  0
    2.1830   -1.6653    1.3574 C   0  0  0  0  0  0  0  0  0  0  0  0
    1.5602   -3.0039    1.6926 C   0  0  0  0  0  0  0  0  0  0  0  0
    1.7761   -3.8895    0.4966 C   0  0  0  0  0  0  0  0  0  0  0  0
    1.1360   -3.5420   -0.6798 C   0  0  0  0  0  0  0  0  0  0  0  0
    0.1932   -4.5439   -1.0036 C   0  0  0  0  0  0  0  0  0  0  0  0
    0.4306   -5.9231   -0.6449 C   0  0  0  0  0  0  0  0  0  0  0  0
    1.7397   -6.1663   -0.1553 C   0  0  0  0  0  0  0  0  0  0  0  0
    2.4949   -7.3178   -0.0609 C   0  0  0  0  0  0  0  0  0  0  0  0
    2.3339   -8.7058   -0.1459 C   0  0  0  0  0  0  0  0  0  0  0  0
    3.4687   -9.5603   -0.0420 C   0  0  0  0  0  0  0  0  0  0  0  0
    3.1979  -11.0557    0.0870 C   0  0  3  0  0  0  0  0  0  0  0  0
    4.3494  -12.0572    0.2917 C   0  0  0  0  0  0  0  0  0  0  0  0
    4.8935  -12.7330   -0.9717 C   0  0  0  0  0  0  0  0  0  0  0  0
    3.8651  -12.8629   -2.0890 C   0  0  0  0  0  0  0  0  0  0  0  0
    3.0599  -11.5890   -2.2060 C   0  0  0  0  0  0  0  0  0  0  0  0
    2.3370  -11.4305   -0.9886 O   0  0  0  0  0  0  0  0  0  0  0  0
    4.7491   -9.0109   -0.0553 C   0  0  0  0  0  0  0  0  0  0  0  0
    4.9342   -7.6293    0.0049 C   0  0  0  0  0  0  0  0  0  0  0  0
    3.8087   -6.8180    0.1223 C   0  0  0  0  0  0  0  0  0  0  0  0
    3.7080   -5.4539    0.3342 N   0  0  0  0  0  0  0  0  0  0  0  0
    4.7679   -4.4685    0.2852 C   0  0  0  0  0  0  0  0  0  0  0  0
    2.3918   -5.1024    0.3826 C   0  0  0  0  0  0  0  0  0  0  0  0
   -0.7563   -6.7530   -0.8030 C   0  0  0  0  0  0  0  0  0  0  0  0
   -1.6927   -5.7242   -1.2497 N   0  0  0  0  0  0  0  0  0  0  0  0
   -1.1859   -4.4264   -1.3957 C   0  0  0  0  0  0  0  0  0  0  0  0
   -1.8981   -3.4725   -1.6789 O   0  0  0  0  0  0  0  0  0  0  0  0
    1.2155    1.9265   -0.1192 H   0  0  0  0  0  0  0  0  0  0  0  0
    0.2926    0.6898    0.7995 H   0  0  0  0  0  0  0  0  0  0  0  0
   -0.0827    0.9570   -0.9205 H   0  0  0  0  0  0  0  0  0  0  0  0
    2.3185   -1.8692   -3.0109 H   0  0  0  0  0  0  0  0  0  0  0  0
    1.9840   -0.9144    2.1227 H   0  0  0  0  0  0  0  0  0  0  0  0
    3.2717   -1.8100    1.2969 H   0  0  0  0  0  0  0  0  0  0  0  0
    0.4689   -2.8699    1.8119 H   0  0  0  0  0  0  0  0  0  0  0  0
    1.9173   -3.4619    2.6147 H   0  0  0  0  0  0  0  0  0  0  0  0
    1.3369   -9.1358   -0.1965 H   0  0  0  0  0  0  0  0  0  0  0  0
    2.5957  -11.1271    1.0079 H   0  0  0  0  0  0  0  0  0  0  0  0
    3.9464  -12.8679    0.9146 H   0  0  0  0  0  0  0  0  0  0  0  0
    5.1744  -11.6364    0.8802 H   0  0  0  0  0  0  0  0  0  0  0  0
    5.2678  -13.7330   -0.7145 H   0  0  0  0  0  0  0  0  0  0  0  0
    5.7570  -12.1689   -1.3418 H   0  0  0  0  0  0  0  0  0  0  0  0
    3.1854  -13.6908   -1.8525 H   0  0  0  0  0  0  0  0  0  0  0  0
    4.3604  -13.0954   -3.0365 H   0  0  0  0  0  0  0  0  0  0  0  0
    2.3324  -11.6546   -3.0186 H   0  0  0  0  0  0  0  0  0  0  0  0
    3.7027  -10.7230   -2.4100 H   0  0  0  0  0  0  0  0  0  0  0  0
    5.6283   -9.6401   -0.1151 H   0  0  0  0  0  0  0  0  0  0  0  0
    5.9379   -7.2164    0.0065 H   0  0  0  0  0  0  0  0  0  0  0  0
    5.7320   -4.9481    0.1198 H   0  0  0  0  0  0  0  0  0  0  0  0
    4.7724   -3.9138    1.2264 H   0  0  0  0  0  0  0  0  0  0  0  0
    4.5597   -3.7879   -0.5496 H   0  0  0  0  0  0  0  0  0  0  0  0
   -1.0989   -7.1497    0.1571 H   0  0  0  0  0  0  0  0  0  0  0  0
   -0.6772   -7.5290   -1.5641 H   0  0  0  0  0  0  0  0  0  0  0  0
   -2.6968   -5.8420   -1.2234 H   0  0  0  0  0  0  0  0  0  0  0  0
  1  2  1  0  0  0  0
  1 33  1  0  0  0  0
  1 34  1  0  0  0  0
  1 35  1  0  0  0  0
  2  3  1  0  0  0  0
  2  6  1  0  0  0  0
  3  4  2  0  0  0  0
  4  5  1  0  0  0  0
  4 36  1  0  0  0  0
  5  6  2  0  0  0  0
  5 10  1  0  0  0  0
  6  7  1  0  0  0  0
  7  8  1  0  0  0  0
  7 37  1  0  0  0  0
  7 38  1  0  0  0  0
  8  9  1  0  0  0  0
  8 39  1  0  0  0  0
  8 40  1  0  0  0  0
  9 10  1  0  0  0  0
  9 28  2  0  0  0  0
 10 11  2  0  0  0  0
 11 12  1  0  0  0  0
 11 31  1  0  0  0  0
 12 13  2  0  0  0  0
 12 29  1  0  0  0  0
 13 14  1  0  0  0  0
 13 28  1  0  0  0  0
 14 15  1  0  0  0  0
 14 25  2  0  0  0  0
 15 16  2  0  0  0  0
 15 41  1  0  0  0  0
 16 17  1  0  0  0  0
 16 23  1  0  0  0  0
 17 18  1  0  0  0  0
 17 22  1  0  0  0  0
 17 42  1  0  0  0  0
 18 19  1  0  0  0  0
 18 43  1  0  0  0  0
 18 44  1  0  0  0  0
 19 20  1  0  0  0  0
 19 45  1  0  0  0  0
 19 46  1  0  0  0  0
 20 21  1  0  0  0  0
 20 47  1  0  0  0  0
 20 48  1  0  0  0  0
 21 22  1  0  0  0  0
 21 49  1  0  0  0  0
 21 50  1  0  0  0  0
 23 24  2  0  0  0  0
 23 51  1  0  0  0  0
 24 25  1  0  0  0  0
 24 52  1  0  0  0  0
 25 26  1  0  0  0  0
 26 27  1  0  0  0  0
 26 28  1  0  0  0  0
 27 53  1  0  0  0  0
 27 54  1  0  0  0  0
 27 55  1  0  0  0  0
 29 30  1  0  0  0  0
 29 56  1  0  0  0  0
 29 57  1  0  0  0  0
 30 31  1  0  0  0  0
 30 58  1  0  0  0  0
 31 32  2  0  0  0  0
M  END
$$$$
