CHEMBL3740487
 OpenBabel04072215373D

 62 66  0  0  0  0  0  0  0  0999 V2000
    6.7108   -6.1445    2.4398 C   0  0  0  0  0  0  0  0  0  0  0  0
    5.1136   -5.4093    2.2101 S   0  0  0  0  0  0  0  0  0  0  0  0
    4.1439   -6.4713    1.9751 O   0  0  0  0  0  0  0  0  0  0  0  0
    4.9238   -4.5167    3.3365 O   0  0  0  0  0  0  0  0  0  0  0  0
    5.2688   -4.3887    0.7529 C   0  0  0  0  0  0  0  0  0  0  0  0
    5.6700   -5.1611   -0.4797 C   0  0  0  0  0  0  0  0  0  0  0  0
    4.8748   -6.1828   -1.0138 C   0  0  0  0  0  0  0  0  0  0  0  0
    5.2311   -6.8134   -2.2069 C   0  0  0  0  0  0  0  0  0  0  0  0
    6.3708   -6.4088   -2.9007 C   0  0  0  0  0  0  0  0  0  0  0  0
    7.1897   -5.3970   -2.3932 C   0  0  0  0  0  0  0  0  0  0  0  0
    8.2781   -4.9512   -3.1683 N   0  0  0  0  0  0  0  0  0  0  0  0
    9.4412   -4.3428   -2.6836 C   0  0  0  0  0  0  0  0  0  0  0  0
    9.9632   -3.3737   -3.4493 N   0  0  0  0  0  0  0  0  0  0  0  0
   11.0706   -2.7667   -2.9868 C   0  0  0  0  0  0  0  0  0  0  0  0
   11.6790   -3.0983   -1.8023 C   0  0  0  0  0  0  0  0  0  0  0  0
   11.1054   -4.1421   -1.1107 C   0  0  0  0  0  0  0  0  0  0  0  0
   11.5890   -4.6357    0.0867 O   0  0  0  0  0  0  0  0  0  0  0  0
   12.9221   -4.4733    0.3709 C   0  0  0  0  0  0  0  0  0  0  0  0
   13.2574   -3.9890    1.6329 C   0  0  0  0  0  0  0  0  0  0  0  0
   14.5776   -3.6070    1.8860 C   0  0  0  0  0  0  0  0  0  0  0  0
   15.5801   -3.8076    0.9138 C   0  0  0  0  0  0  0  0  0  0  0  0
   16.9397   -3.5058    1.0838 C   0  0  0  0  0  0  0  0  0  0  0  0
   17.6153   -2.8640   -0.2032 C   0  0  0  0  0  0  0  0  0  0  0  0
   16.9233   -2.3068   -1.0495 O   0  0  0  0  0  0  0  0  0  0  0  0
   19.0104   -3.0136   -0.2895 N   0  0  0  0  0  0  0  0  0  0  0  0
   19.8873   -2.7039   -1.3678 C   0  0  0  0  0  0  0  0  0  0  0  0
   19.4787   -2.2085   -2.6102 C   0  0  0  0  0  0  0  0  0  0  0  0
   20.4199   -1.9128   -3.6152 C   0  0  0  0  0  0  0  0  0  0  0  0
   21.7803   -2.1124   -3.3937 C   0  0  0  0  0  0  0  0  0  0  0  0
   22.1881   -2.6259   -2.1718 C   0  0  0  0  0  0  0  0  0  0  0  0
   23.4939   -2.8362   -1.9507 F   0  0  0  0  0  0  0  0  0  0  0  0
   21.2607   -2.9271   -1.1705 C   0  0  0  0  0  0  0  0  0  0  0  0
   17.6044   -4.6660    1.4240 C   0  0  0  0  0  0  0  0  0  0  0  0
   17.3812   -5.7418    0.5864 C   0  0  0  0  0  0  0  0  0  0  0  0
   16.2818   -5.7036   -0.3083 C   0  0  0  0  0  0  0  0  0  0  0  0
   15.2710   -4.7570   -0.0590 C   0  0  0  0  0  0  0  0  0  0  0  0
   13.9402   -4.9230   -0.4711 C   0  0  0  0  0  0  0  0  0  0  0  0
    9.9752   -4.7442   -1.5203 N   0  0  0  0  0  0  0  0  0  0  0  0
    6.8207   -4.7746   -1.1902 C   0  0  0  0  0  0  0  0  0  0  0  0
    6.6537   -6.7999    3.3154 H   0  0  0  0  0  0  0  0  0  0  0  0
    7.4455   -5.3764    2.5809 H   0  0  0  0  0  0  0  0  0  0  0  0
    6.9474   -6.7687    1.5545 H   0  0  0  0  0  0  0  0  0  0  0  0
    6.0065   -3.6197    0.9983 H   0  0  0  0  0  0  0  0  0  0  0  0
    4.3060   -3.8928    0.5866 H   0  0  0  0  0  0  0  0  0  0  0  0
    3.9559   -6.4947   -0.5192 H   0  0  0  0  0  0  0  0  0  0  0  0
    4.6097   -7.6124   -2.6040 H   0  0  0  0  0  0  0  0  0  0  0  0
    6.6278   -6.8984   -3.8375 H   0  0  0  0  0  0  0  0  0  0  0  0
    7.9801   -4.3959   -3.9633 H   0  0  0  0  0  0  0  0  0  0  0  0
   11.4690   -1.9797   -3.6215 H   0  0  0  0  0  0  0  0  0  0  0  0
   12.5575   -2.5679   -1.4625 H   0  0  0  0  0  0  0  0  0  0  0  0
   12.4999   -3.9147    2.4105 H   0  0  0  0  0  0  0  0  0  0  0  0
   14.8400   -3.2319    2.8751 H   0  0  0  0  0  0  0  0  0  0  0  0
   19.4644   -3.4310    0.5091 H   0  0  0  0  0  0  0  0  0  0  0  0
   18.4293   -2.0459   -2.8346 H   0  0  0  0  0  0  0  0  0  0  0  0
   20.0821   -1.5239   -4.5738 H   0  0  0  0  0  0  0  0  0  0  0  0
   22.5157   -1.8807   -4.1597 H   0  0  0  0  0  0  0  0  0  0  0  0
   21.6436   -3.3331   -0.2394 H   0  0  0  0  0  0  0  0  0  0  0  0
   18.2577   -4.6947    2.2875 H   0  0  0  0  0  0  0  0  0  0  0  0
   17.9939   -6.6344    0.6584 H   0  0  0  0  0  0  0  0  0  0  0  0
   16.1072   -6.5406   -0.9807 H   0  0  0  0  0  0  0  0  0  0  0  0
   13.6959   -5.5110   -1.3516 H   0  0  0  0  0  0  0  0  0  0  0  0
    7.4284   -3.9526   -0.8164 H   0  0  0  0  0  0  0  0  0  0  0  0
  1  2  1  0  0  0  0
  1 40  1  0  0  0  0
  1 41  1  0  0  0  0
  1 42  1  0  0  0  0
  2  3  2  0  0  0  0
  2  4  2  0  0  0  0
  2  5  1  0  0  0  0
  5  6  1  0  0  0  0
  5 43  1  0  0  0  0
  5 44  1  0  0  0  0
  6  7  1  0  0  0  0
  6 39  2  0  0  0  0
  7  8  2  0  0  0  0
  7 45  1  0  0  0  0
  8  9  1  0  0  0  0
  8 46  1  0  0  0  0
  9 10  2  0  0  0  0
  9 47  1  0  0  0  0
 10 11  1  0  0  0  0
 10 39  1  0  0  0  0
 11 12  1  0  0  0  0
 11 48  1  0  0  0  0
 12 13  1  0  0  0  0
 12 38  2  0  0  0  0
 13 14  2  0  0  0  0
 14 15  1  0  0  0  0
 14 49  1  0  0  0  0
 15 16  2  0  0  0  0
 15 50  1  0  0  0  0
 16 17  1  0  0  0  0
 16 38  1  0  0  0  0
 17 18  1  0  0  0  0
 18 19  1  0  0  0  0
 18 37  2  0  0  0  0
 19 20  2  0  0  0  0
 19 51  1  0  0  0  0
 20 21  1  0  0  0  0
 20 52  1  0  0  0  0
 21 22  1  0  0  0  0
 21 36  2  0  0  0  0
 22 23  1  0  0  0  0
 22 33  2  0  0  0  0
 23 24  2  0  0  0  0
 23 25  1  0  0  0  0
 25 26  1  0  0  0  0
 25 53  1  0  0  0  0
 26 27  1  0  0  0  0
 26 32  2  0  0  0  0
 27 28  2  0  0  0  0
 27 54  1  0  0  0  0
 28 29  1  0  0  0  0
 28 55  1  0  0  0  0
 29 30  2  0  0  0  0
 29 56  1  0  0  0  0
 30 31  1  0  0  0  0
 30 32  1  0  0  0  0
 32 57  1  0  0  0  0
 33 34  1  0  0  0  0
 33 58  1  0  0  0  0
 34 35  2  0  0  0  0
 34 59  1  0  0  0  0
 35 36  1  0  0  0  0
 35 60  1  0  0  0  0
 36 37  1  0  0  0  0
 37 61  1  0  0  0  0
 39 62  1  0  0  0  0
M  END
$$$$
