CHEMBL100174
 OpenBabel04072215353D

 42 43  0  0  0  0  0  0  0  0999 V2000
    2.2409   -3.7918   -5.7158 C   0  0  0  0  0  0  0  0  0  0  0  0
    2.7889   -2.4881   -5.1558 C   0  0  0  0  0  0  0  0  0  0  0  0
    3.6952   -2.7237   -3.9434 C   0  0  0  0  0  0  0  0  0  0  0  0
    4.2090   -1.3999   -3.3671 C   0  0  0  0  0  0  0  0  0  0  0  0
    5.1538   -1.6242   -2.2646 N   0  0  0  0  0  0  0  0  0  0  0  0
    4.5992   -1.6762   -0.9150 C   0  0  0  0  0  0  0  0  0  0  0  0
    6.5148   -1.8159   -2.4687 C   0  0  0  0  0  0  0  0  0  0  0  0
    7.4046   -2.0502   -1.4113 C   0  0  0  0  0  0  0  0  0  0  0  0
    8.7758   -2.2605   -1.6212 C   0  0  0  0  0  0  0  0  0  0  0  0
    9.3402   -2.2275   -2.9048 C   0  0  0  0  0  0  0  0  0  0  0  0
   10.7131   -2.4867   -3.1410 N   0  0  0  0  0  0  0  0  0  0  0  0
   11.4190   -2.2774   -2.1328 N   0  0  0  0  0  0  0  0  0  0  0  0
   12.7379   -2.5911   -2.2462 C   0  0  0  0  0  0  0  0  0  0  0  0
   13.3953   -3.0967   -3.2783 N   0  0  0  0  0  0  0  0  0  0  0  0
   14.7293   -3.2798   -2.9653 C   0  0  0  0  0  0  0  0  0  0  0  0
   15.0735   -2.9085   -1.6920 C   0  0  0  0  0  0  0  0  0  0  0  0
   16.3699   -2.9842   -1.0926 N   0  3  0  0  0  0  0  0  0  0  0  0
   17.2704   -3.4489   -1.8028 O   0  0  0  0  0  0  0  0  0  0  0  0
   16.4974   -2.5902    0.0717 O   0  5  0  0  0  0  0  0  0  0  0  0
   13.7301   -2.3180   -0.8447 S   0  0  0  0  0  0  0  0  0  0  0  0
    8.4770   -1.9770   -3.9796 C   0  0  0  0  0  0  0  0  0  0  0  0
    8.9448   -1.8806   -5.4053 C   0  0  0  0  0  0  0  0  0  0  0  0
    7.0959   -1.7823   -3.7453 C   0  0  0  0  0  0  0  0  0  0  0  0
    1.5949   -3.5930   -6.5777 H   0  0  0  0  0  0  0  0  0  0  0  0
    1.6480   -4.3239   -4.9654 H   0  0  0  0  0  0  0  0  0  0  0  0
    3.0506   -4.4503   -6.0457 H   0  0  0  0  0  0  0  0  0  0  0  0
    1.9511   -1.8394   -4.8749 H   0  0  0  0  0  0  0  0  0  0  0  0
    3.3497   -1.9702   -5.9427 H   0  0  0  0  0  0  0  0  0  0  0  0
    4.5345   -3.3649   -4.2390 H   0  0  0  0  0  0  0  0  0  0  0  0
    3.1413   -3.2696   -3.1696 H   0  0  0  0  0  0  0  0  0  0  0  0
    3.3546   -0.8128   -3.0046 H   0  0  0  0  0  0  0  0  0  0  0  0
    4.6501   -0.7751   -4.1512 H   0  0  0  0  0  0  0  0  0  0  0  0
    3.5168   -1.5139   -0.9117 H   0  0  0  0  0  0  0  0  0  0  0  0
    5.0410   -0.8937   -0.2871 H   0  0  0  0  0  0  0  0  0  0  0  0
    4.7771   -2.6543   -0.4537 H   0  0  0  0  0  0  0  0  0  0  0  0
    7.0586   -2.0849   -0.3836 H   0  0  0  0  0  0  0  0  0  0  0  0
    9.3967   -2.4586   -0.7512 H   0  0  0  0  0  0  0  0  0  0  0  0
   15.3997   -3.6891   -3.7131 H   0  0  0  0  0  0  0  0  0  0  0  0
   10.0043   -2.1059   -5.5302 H   0  0  0  0  0  0  0  0  0  0  0  0
    8.7694   -0.8628   -5.7792 H   0  0  0  0  0  0  0  0  0  0  0  0
    8.3774   -2.5806   -6.0304 H   0  0  0  0  0  0  0  0  0  0  0  0
    6.4777   -1.6066   -4.6202 H   0  0  0  0  0  0  0  0  0  0  0  0
  1  2  1  0  0  0  0
  1 24  1  0  0  0  0
  1 25  1  0  0  0  0
  1 26  1  0  0  0  0
  2  3  1  0  0  0  0
  2 27  1  0  0  0  0
  2 28  1  0  0  0  0
  3  4  1  0  0  0  0
  3 29  1  0  0  0  0
  3 30  1  0  0  0  0
  4  5  1  0  0  0  0
  4 31  1  0  0  0  0
  4 32  1  0  0  0  0
  5  6  1  0  0  0  0
  5  7  1  0  0  0  0
  6 33  1  0  0  0  0
  6 34  1  0  0  0  0
  6 35  1  0  0  0  0
  7  8  1  0  0  0  0
  7 23  2  0  0  0  0
  8  9  2  0  0  0  0
  8 36  1  0  0  0  0
  9 10  1  0  0  0  0
  9 37  1  0  0  0  0
 10 11  1  0  0  0  0
 10 21  2  0  0  0  0
 11 12  2  0  0  0  0
 12 13  1  0  0  0  0
 13 14  2  0  0  0  0
 13 20  1  0  0  0  0
 14 15  1  0  0  0  0
 15 16  2  0  0  0  0
 15 38  1  0  0  0  0
 16 17  1  0  0  0  0
 16 20  1  0  0  0  0
 17 18  2  0  0  0  0
 17 19  1  0  0  0  0
 21 22  1  0  0  0  0
 21 23  1  0  0  0  0
 22 39  1  0  0  0  0
 22 40  1  0  0  0  0
 22 41  1  0  0  0  0
 23 42  1  0  0  0  0
M  CHG  2  17   1  19  -1
M  END
$$$$
