CHEMBL1940869
 OpenBabel04072215363D

 33 35  0  0  0  0  0  0  0  0999 V2000
   -1.4782    2.6927    0.0028 C   0  0  0  0  0  0  0  0  0  0  0  0
   -1.7236    1.2058   -0.0034 C   0  0  0  0  0  0  0  0  0  0  0  0
   -3.0392    0.7169   -0.0039 C   0  0  0  0  0  0  0  0  0  0  0  0
   -3.2771   -0.6539   -0.0055 C   0  0  0  0  0  0  0  0  0  0  0  0
   -2.2039   -1.5416   -0.0093 C   0  0  0  0  0  0  0  0  0  0  0  0
   -0.8815   -1.0640   -0.0057 C   0  0  0  0  0  0  0  0  0  0  0  0
    0.2238   -1.9359   -0.0038 C   0  0  0  0  0  0  0  0  0  0  0  0
    1.5353   -1.4426    0.0121 C   0  0  0  0  0  0  0  0  0  0  0  0
    2.6414   -2.4240    0.0230 C   0  0  0  0  0  0  0  0  0  0  0  0
    3.7878   -2.2533   -0.6522 C   0  0  0  0  0  0  0  0  0  0  0  0
    4.8958   -3.2706   -0.6750 C   0  0  0  0  0  0  0  0  0  0  0  0
    4.9064   -4.1738    0.1637 O   0  0  0  0  0  0  0  0  0  0  0  0
    5.9169   -3.0927   -1.7049 C   0  0  0  0  0  0  0  0  0  0  0  0
    5.4817   -2.5017   -3.2666 S   0  0  0  0  0  0  0  0  0  0  0  0
    7.0939   -2.5259   -3.8161 C   0  0  0  0  0  0  0  0  0  0  0  0
    7.9534   -3.0280   -2.8666 C   0  0  0  0  0  0  0  0  0  0  0  0
    7.2682   -3.3688   -1.6652 C   0  0  0  0  0  0  0  0  0  0  0  0
    8.2383   -4.0636   -0.1976 Br  0  0  0  0  0  0  0  0  0  0  0  0
    1.6510   -0.0517    0.0519 C   0  0  0  0  0  0  0  0  0  0  0  0
    3.1456    0.7978    0.1907 Cl  0  0  0  0  0  0  0  0  0  0  0  0
    0.6125    0.8146    0.0284 N   0  0  0  0  0  0  0  0  0  0  0  0
   -0.6360    0.3254    0.0047 C   0  0  0  0  0  0  0  0  0  0  0  0
   -2.4162    3.2564   -0.0032 H   0  0  0  0  0  0  0  0  0  0  0  0
   -0.9092    2.9845   -0.8855 H   0  0  0  0  0  0  0  0  0  0  0  0
   -0.9224    2.9807    0.9011 H   0  0  0  0  0  0  0  0  0  0  0  0
   -3.8807    1.4046    0.0001 H   0  0  0  0  0  0  0  0  0  0  0  0
   -4.2984   -1.0275   -0.0011 H   0  0  0  0  0  0  0  0  0  0  0  0
   -2.4062   -2.6097   -0.0087 H   0  0  0  0  0  0  0  0  0  0  0  0
    0.0510   -3.0105   -0.0161 H   0  0  0  0  0  0  0  0  0  0  0  0
    2.4659   -3.3492    0.5702 H   0  0  0  0  0  0  0  0  0  0  0  0
    3.9731   -1.3577   -1.2296 H   0  0  0  0  0  0  0  0  0  0  0  0
    7.3302   -2.1811   -4.8138 H   0  0  0  0  0  0  0  0  0  0  0  0
    9.0180   -3.1358   -3.0348 H   0  0  0  0  0  0  0  0  0  0  0  0
  1  2  1  0  0  0  0
  1 23  1  0  0  0  0
  1 24  1  0  0  0  0
  1 25  1  0  0  0  0
  2  3  1  0  0  0  0
  2 22  2  0  0  0  0
  3  4  2  0  0  0  0
  3 26  1  0  0  0  0
  4  5  1  0  0  0  0
  4 27  1  0  0  0  0
  5  6  2  0  0  0  0
  5 28  1  0  0  0  0
  6  7  1  0  0  0  0
  6 22  1  0  0  0  0
  7  8  2  0  0  0  0
  7 29  1  0  0  0  0
  8  9  1  0  0  0  0
  8 19  1  0  0  0  0
  9 10  2  0  0  0  0
  9 30  1  0  0  0  0
 10 11  1  0  0  0  0
 10 31  1  0  0  0  0
 11 12  2  0  0  0  0
 11 13  1  0  0  0  0
 13 14  1  0  0  0  0
 13 17  2  0  0  0  0
 14 15  1  0  0  0  0
 15 16  2  0  0  0  0
 15 32  1  0  0  0  0
 16 17  1  0  0  0  0
 16 33  1  0  0  0  0
 17 18  1  0  0  0  0
 19 20  1  0  0  0  0
 19 21  2  0  0  0  0
 21 22  1  0  0  0  0
M  END
$$$$
