CHEMBL1289705
 OpenBabel04072215363D

 65 69  0  0  1  0  0  0  0  0999 V2000
   14.9542  -19.8189   -1.1731 C   0  0  0  0  0  0  0  0  0  0  0  0
   13.6914  -19.1360   -1.6794 C   0  0  0  0  0  0  0  0  0  0  0  0
   12.8114  -18.5970   -0.6355 N   0  0  0  0  0  0  0  0  0  0  0  0
   11.6056  -18.0111   -1.2651 C   0  0  0  0  0  0  0  0  0  0  0  0
   11.8503  -16.6244   -1.9069 C   0  0  0  0  0  0  0  0  0  0  0  0
   12.3514  -15.6104   -0.9560 N   0  0  0  0  0  0  0  0  0  0  0  0
   11.3694  -15.2506    0.0883 C   0  0  0  0  0  0  0  0  0  0  0  0
   10.0699  -14.6886   -0.4502 C   0  0  0  0  0  0  0  0  0  0  0  0
    8.9944  -15.5341   -0.7704 C   0  0  0  0  0  0  0  0  0  0  0  0
    7.8377  -15.0305   -1.3627 C   0  0  0  0  0  0  0  0  0  0  0  0
    7.7180  -13.6612   -1.6048 C   0  0  0  0  0  0  0  0  0  0  0  0
    6.5463  -13.1123   -2.2713 C   0  0  0  0  0  0  0  0  0  0  0  0
    5.8787  -11.9249   -2.0419 C   0  0  0  0  0  0  0  0  0  0  0  0
    4.8748  -11.7804   -3.0285 C   0  0  0  0  0  0  0  0  0  0  0  0
    3.9137  -10.8031   -3.3607 C   0  0  0  0  0  0  0  0  0  0  0  0
    3.7224   -9.4964   -2.5638 C   0  0  2  0  0  0  0  0  0  0  0  0
    2.6763   -8.5803   -3.2453 C   0  0  0  0  0  0  0  0  0  0  0  0
    4.9941   -8.7230   -2.5871 N   0  0  0  0  0  0  0  0  0  0  0  0
    3.2540   -9.7897   -1.1219 C   0  0  0  0  0  0  0  0  0  0  0  0
    3.9553   -9.3361    0.0116 C   0  0  0  0  0  0  0  0  0  0  0  0
    3.5081   -9.6250    1.3065 C   0  0  0  0  0  0  0  0  0  0  0  0
    2.3562  -10.3807    1.4950 C   0  0  0  0  0  0  0  0  0  0  0  0
    1.6464  -10.8467    0.3933 C   0  0  0  0  0  0  0  0  0  0  0  0
    2.0902  -10.5557   -0.9003 C   0  0  0  0  0  0  0  0  0  0  0  0
    3.1451  -11.0377   -4.4740 N   0  0  0  0  0  0  0  0  0  0  0  0
    3.3373  -12.1759   -5.1738 C   0  0  0  0  0  0  0  0  0  0  0  0
    4.2115  -13.1659   -4.9279 N   0  0  0  0  0  0  0  0  0  0  0  0
    4.9536  -12.8999   -3.8408 C   0  0  0  0  0  0  0  0  0  0  0  0
    5.9446  -13.7062   -3.3597 N   0  0  0  0  0  0  0  0  0  0  0  0
    8.7599  -12.8060   -1.2204 C   0  0  0  0  0  0  0  0  0  0  0  0
    9.9321  -13.3139   -0.6660 C   0  0  0  0  0  0  0  0  0  0  0  0
   13.5807  -16.1583   -0.3336 C   0  0  0  0  0  0  0  0  0  0  0  0
   13.4346  -17.5902    0.2512 C   0  0  0  0  0  0  0  0  0  0  0  0
   15.4508  -20.3272   -2.0071 H   0  0  0  0  0  0  0  0  0  0  0  0
   14.7262  -20.5702   -0.4105 H   0  0  0  0  0  0  0  0  0  0  0  0
   15.6657  -19.0980   -0.7620 H   0  0  0  0  0  0  0  0  0  0  0  0
   13.1248  -19.9016   -2.2281 H   0  0  0  0  0  0  0  0  0  0  0  0
   13.9802  -18.3731   -2.4107 H   0  0  0  0  0  0  0  0  0  0  0  0
   10.8325  -17.9418   -0.4936 H   0  0  0  0  0  0  0  0  0  0  0  0
   11.1919  -18.6952   -2.0161 H   0  0  0  0  0  0  0  0  0  0  0  0
   10.9491  -16.2789   -2.4240 H   0  0  0  0  0  0  0  0  0  0  0  0
   12.5869  -16.7196   -2.7177 H   0  0  0  0  0  0  0  0  0  0  0  0
   11.8155  -14.4821    0.7324 H   0  0  0  0  0  0  0  0  0  0  0  0
   11.1328  -16.0863    0.7563 H   0  0  0  0  0  0  0  0  0  0  0  0
    9.0602  -16.6029   -0.5907 H   0  0  0  0  0  0  0  0  0  0  0  0
    7.0365  -15.7164   -1.6229 H   0  0  0  0  0  0  0  0  0  0  0  0
    6.1138  -11.2122   -1.2622 H   0  0  0  0  0  0  0  0  0  0  0  0
    2.5777   -7.6225   -2.7183 H   0  0  0  0  0  0  0  0  0  0  0  0
    1.6797   -9.0353   -3.2685 H   0  0  0  0  0  0  0  0  0  0  0  0
    2.9522   -8.3566   -4.2841 H   0  0  0  0  0  0  0  0  0  0  0  0
    4.8042   -7.7836   -2.2437 H   0  0  0  0  0  0  0  0  0  0  0  0
    5.2734   -8.6103   -3.5611 H   0  0  0  0  0  0  0  0  0  0  0  0
    4.8689   -8.7602   -0.0929 H   0  0  0  0  0  0  0  0  0  0  0  0
    4.0702   -9.2659    2.1648 H   0  0  0  0  0  0  0  0  0  0  0  0
    2.0125  -10.6096    2.5014 H   0  0  0  0  0  0  0  0  0  0  0  0
    0.7511  -11.4464    0.5363 H   0  0  0  0  0  0  0  0  0  0  0  0
    1.5208  -10.9463   -1.7430 H   0  0  0  0  0  0  0  0  0  0  0  0
    2.7081  -12.3061   -6.0497 H   0  0  0  0  0  0  0  0  0  0  0  0
    6.2241  -14.5718   -3.7930 H   0  0  0  0  0  0  0  0  0  0  0  0
    8.6772  -11.7327   -1.3813 H   0  0  0  0  0  0  0  0  0  0  0  0
   10.7427  -12.6339   -0.4153 H   0  0  0  0  0  0  0  0  0  0  0  0
   13.9361  -15.4780    0.4509 H   0  0  0  0  0  0  0  0  0  0  0  0
   14.3741  -16.1682   -1.0925 H   0  0  0  0  0  0  0  0  0  0  0  0
   12.8104  -17.5266    1.1527 H   0  0  0  0  0  0  0  0  0  0  0  0
   14.4052  -17.9324    0.6223 H   0  0  0  0  0  0  0  0  0  0  0  0
  1  2  1  0  0  0  0
  1 34  1  0  0  0  0
  1 35  1  0  0  0  0
  1 36  1  0  0  0  0
  2  3  1  0  0  0  0
  2 37  1  0  0  0  0
  2 38  1  0  0  0  0
  3  4  1  0  0  0  0
  3 33  1  0  0  0  0
  4  5  1  0  0  0  0
  4 39  1  0  0  0  0
  4 40  1  0  0  0  0
  5  6  1  0  0  0  0
  5 41  1  0  0  0  0
  5 42  1  0  0  0  0
  6  7  1  0  0  0  0
  6 32  1  0  0  0  0
  7  8  1  0  0  0  0
  7 43  1  0  0  0  0
  7 44  1  0  0  0  0
  8  9  1  0  0  0  0
  8 31  2  0  0  0  0
  9 10  2  0  0  0  0
  9 45  1  0  0  0  0
 10 11  1  0  0  0  0
 10 46  1  0  0  0  0
 11 12  1  0  0  0  0
 11 30  2  0  0  0  0
 12 13  2  0  0  0  0
 12 29  1  0  0  0  0
 13 14  1  0  0  0  0
 13 47  1  0  0  0  0
 14 15  1  0  0  0  0
 14 28  2  0  0  0  0
 15 25  2  0  0  0  0
 16 18  1  1  0  0  0
 16 19  1  0  0  0  0
 16 17  1  0  0  0  0
 16 15  1  0  0  0  0
 17 48  1  0  0  0  0
 17 49  1  0  0  0  0
 17 50  1  0  0  0  0
 18 51  1  0  0  0  0
 18 52  1  0  0  0  0
 19 20  1  0  0  0  0
 19 24  2  0  0  0  0
 20 21  2  0  0  0  0
 20 53  1  0  0  0  0
 21 22  1  0  0  0  0
 21 54  1  0  0  0  0
 22 23  2  0  0  0  0
 22 55  1  0  0  0  0
 23 24  1  0  0  0  0
 23 56  1  0  0  0  0
 24 57  1  0  0  0  0
 25 26  1  0  0  0  0
 26 27  2  0  0  0  0
 26 58  1  0  0  0  0
 27 28  1  0  0  0  0
 28 29  1  0  0  0  0
 29 59  1  0  0  0  0
 30 31  1  0  0  0  0
 30 60  1  0  0  0  0
 31 61  1  0  0  0  0
 32 33  1  0  0  0  0
 32 62  1  0  0  0  0
 32 63  1  0  0  0  0
 33 64  1  0  0  0  0
 33 65  1  0  0  0  0
M  END
$$$$
