CHEMBL148471
 OpenBabel04072215363D

 38 43  0  0  0  0  0  0  0  0999 V2000
    1.2344    0.4915   -0.7760 O   0  0  0  0  0  0  0  0  0  0  0  0
    2.3255    0.2960   -0.2558 C   0  0  0  0  0  0  0  0  0  0  0  0
    3.1285    1.3404    0.1935 N   0  0  0  0  0  0  0  0  0  0  0  0
    4.4328    0.9739    0.7056 C   0  0  0  0  0  0  0  0  0  0  0  0
    4.3530   -0.4862    0.5602 C   0  0  0  0  0  0  0  0  0  0  0  0
    5.3946   -1.3663    0.7473 C   0  0  0  0  0  0  0  0  0  0  0  0
    5.3770   -2.5610    0.0253 C   0  0  0  0  0  0  0  0  0  0  0  0
    4.1322   -3.0512   -0.3100 C   0  0  0  0  0  0  0  0  0  0  0  0
    3.6633   -4.2938   -0.6239 N   0  0  0  0  0  0  0  0  0  0  0  0
    2.2598   -4.2559   -0.7041 C   0  0  0  0  0  0  0  0  0  0  0  0
    1.3288   -5.3025   -0.8426 C   0  0  0  0  0  0  0  0  0  0  0  0
   -0.0309   -4.9677   -0.9177 C   0  0  0  0  0  0  0  0  0  0  0  0
   -0.4554   -3.6443   -0.8579 C   0  0  0  0  0  0  0  0  0  0  0  0
    0.4714   -2.6151   -0.6866 C   0  0  0  0  0  0  0  0  0  0  0  0
    1.8422   -2.9164   -0.5934 C   0  0  0  0  0  0  0  0  0  0  0  0
    3.0185   -2.2506   -0.3107 C   0  0  0  0  0  0  0  0  0  0  0  0
    3.1252   -0.8633   -0.0236 C   0  0  0  0  0  0  0  0  0  0  0  0
    6.7841   -2.9214   -0.3768 C   0  0  0  0  0  0  0  0  0  0  0  0
    7.6014   -1.9058    0.4261 C   0  0  0  0  0  0  0  0  0  0  0  0
    8.9668   -1.7008    0.5198 C   0  0  0  0  0  0  0  0  0  0  0  0
    9.4379   -0.7936    1.4824 C   0  0  0  0  0  0  0  0  0  0  0  0
    8.5538   -0.1242    2.3465 C   0  0  0  0  0  0  0  0  0  0  0  0
    7.1813   -0.2660    2.1822 C   0  0  0  0  0  0  0  0  0  0  0  0
    6.7280   -1.0959    1.1692 C   0  0  0  0  0  0  0  0  0  0  0  0
    2.8522    2.2889   -0.0057 H   0  0  0  0  0  0  0  0  0  0  0  0
    4.5314    1.3046    1.7391 H   0  0  0  0  0  0  0  0  0  0  0  0
    5.2075    1.3953    0.0580 H   0  0  0  0  0  0  0  0  0  0  0  0
    4.2029   -5.1438   -0.6284 H   0  0  0  0  0  0  0  0  0  0  0  0
    1.6353   -6.3418   -0.8761 H   0  0  0  0  0  0  0  0  0  0  0  0
   -0.7786   -5.7542   -1.0140 H   0  0  0  0  0  0  0  0  0  0  0  0
   -1.5129   -3.3998   -0.9229 H   0  0  0  0  0  0  0  0  0  0  0  0
    0.1177   -1.5919   -0.6033 H   0  0  0  0  0  0  0  0  0  0  0  0
    6.9038   -2.7128   -1.4475 H   0  0  0  0  0  0  0  0  0  0  0  0
    7.0438   -3.9519   -0.1358 H   0  0  0  0  0  0  0  0  0  0  0  0
    9.6672   -2.2227   -0.1229 H   0  0  0  0  0  0  0  0  0  0  0  0
   10.5052   -0.6146    1.5881 H   0  0  0  0  0  0  0  0  0  0  0  0
    8.9362    0.5090    3.1437 H   0  0  0  0  0  0  0  0  0  0  0  0
    6.4868    0.2281    2.8552 H   0  0  0  0  0  0  0  0  0  0  0  0
  1  2  2  0  0  0  0
  2  3  1  0  0  0  0
  2 17  1  0  0  0  0
  3  4  1  0  0  0  0
  3 25  1  0  0  0  0
  4  5  1  0  0  0  0
  4 26  1  0  0  0  0
  4 27  1  0  0  0  0
  5  6  1  0  0  0  0
  5 17  2  0  0  0  0
  6  7  2  0  0  0  0
  6 24  1  0  0  0  0
  7  8  1  0  0  0  0
  7 18  1  0  0  0  0
  8  9  1  0  0  0  0
  8 16  2  0  0  0  0
  9 10  1  0  0  0  0
  9 28  1  0  0  0  0
 10 11  1  0  0  0  0
 10 15  2  0  0  0  0
 11 12  2  0  0  0  0
 11 29  1  0  0  0  0
 12 13  1  0  0  0  0
 12 30  1  0  0  0  0
 13 14  2  0  0  0  0
 13 31  1  0  0  0  0
 14 15  1  0  0  0  0
 14 32  1  0  0  0  0
 15 16  1  0  0  0  0
 16 17  1  0  0  0  0
 18 19  1  0  0  0  0
 18 33  1  0  0  0  0
 18 34  1  0  0  0  0
 19 20  1  0  0  0  0
 19 24  2  0  0  0  0
 20 21  2  0  0  0  0
 20 35  1  0  0  0  0
 21 22  1  0  0  0  0
 21 36  1  0  0  0  0
 22 23  2  0  0  0  0
 22 37  1  0  0  0  0
 23 24  1  0  0  0  0
 23 38  1  0  0  0  0
M  END
$$$$
