CHEMBL240429
 OpenBabel04072215363D

 50 54  0  0  1  0  0  0  0  0999 V2000
    1.3841   -0.1792   -0.6596 C   0  0  0  0  0  0  0  0  0  0  0  0
    0.7905    1.0205   -1.0423 C   0  0  0  0  0  0  0  0  0  0  0  0
   -0.5894    1.1988   -0.8920 C   0  0  0  0  0  0  0  0  0  0  0  0
   -1.3935    0.1740   -0.3693 C   0  0  0  0  0  0  0  0  0  0  0  0
   -2.8289    0.3819   -0.1706 C   0  0  0  0  0  0  0  0  0  0  0  0
   -3.4250    1.0894   -1.1708 O   0  0  0  0  0  0  0  0  0  0  0  0
   -4.7571    1.1232   -0.9276 C   0  0  0  0  0  0  0  0  0  0  0  0
   -5.6164    1.6922   -1.7910 N   0  0  0  0  0  0  0  0  0  0  0  0
   -6.8955    1.6078   -1.3928 C   0  0  0  0  0  0  0  0  0  0  0  0
   -7.3304    1.0418   -0.2049 C   0  0  0  0  0  0  0  0  0  0  0  0
   -6.4091    0.4910    0.7000 C   0  0  0  0  0  0  0  0  0  0  0  0
   -6.8113    0.0678    1.9612 N   0  0  0  0  0  0  0  0  0  0  0  0
   -8.0363   -0.7072    2.1739 C   0  0  0  0  0  0  0  0  0  0  0  0
   -8.4205   -0.6540    3.6617 C   0  0  2  0  0  0  0  0  0  0  0  0
   -8.6323    0.7618    4.1845 C   0  0  0  0  0  0  0  0  0  0  0  0
   -8.2056    0.6422    5.6247 C   0  0  0  0  0  0  0  0  0  0  0  0
   -7.0685   -0.3513    5.5401 C   0  0  0  0  0  0  0  0  0  0  0  0
   -7.3828   -1.2526    4.4703 O   0  0  0  0  0  0  0  0  0  0  0  0
   -5.0488    0.4980    0.2850 C   0  0  0  0  0  0  0  0  0  0  0  0
   -3.7821   -0.0024    0.7737 C   0  0  0  0  0  0  0  0  0  0  0  0
   -3.4823   -0.8481    1.9305 C   0  0  0  0  0  0  0  0  0  0  0  0
   -4.3057   -1.9413    2.2334 C   0  0  0  0  0  0  0  0  0  0  0  0
   -4.0039   -2.7972    3.2951 C   0  0  0  0  0  0  0  0  0  0  0  0
   -2.8336   -2.6142    4.0252 C   0  0  0  0  0  0  0  0  0  0  0  0
   -1.9936   -1.5444    3.7281 C   0  0  0  0  0  0  0  0  0  0  0  0
   -2.3366   -0.6440    2.7145 C   0  0  0  0  0  0  0  0  0  0  0  0
   -0.7815   -1.0415   -0.0342 C   0  0  0  0  0  0  0  0  0  0  0  0
    0.5983   -1.2115   -0.1554 C   0  0  0  0  0  0  0  0  0  0  0  0
    2.4577   -0.3143   -0.7608 H   0  0  0  0  0  0  0  0  0  0  0  0
    1.3987    1.8225   -1.4507 H   0  0  0  0  0  0  0  0  0  0  0  0
   -1.0353    2.1465   -1.1820 H   0  0  0  0  0  0  0  0  0  0  0  0
   -7.6138    2.0509   -2.0796 H   0  0  0  0  0  0  0  0  0  0  0  0
   -8.3885    1.0844    0.0271 H   0  0  0  0  0  0  0  0  0  0  0  0
   -6.0555   -0.2538    2.5632 H   0  0  0  0  0  0  0  0  0  0  0  0
   -7.8446   -1.7461    1.8819 H   0  0  0  0  0  0  0  0  0  0  0  0
   -8.8769   -0.3326    1.5817 H   0  0  0  0  0  0  0  0  0  0  0  0
   -9.3261   -1.2543    3.8215 H   0  0  0  0  0  0  0  0  0  0  0  0
   -9.6634    1.1033    4.0608 H   0  0  0  0  0  0  0  0  0  0  0  0
   -7.9859    1.4891    3.6808 H   0  0  0  0  0  0  0  0  0  0  0  0
   -9.0258    0.2253    6.2186 H   0  0  0  0  0  0  0  0  0  0  0  0
   -7.9060    1.5931    6.0681 H   0  0  0  0  0  0  0  0  0  0  0  0
   -6.9377   -0.9146    6.4688 H   0  0  0  0  0  0  0  0  0  0  0  0
   -6.1245    0.1463    5.2939 H   0  0  0  0  0  0  0  0  0  0  0  0
   -5.1943   -2.1478    1.6412 H   0  0  0  0  0  0  0  0  0  0  0  0
   -4.6763   -3.6166    3.5365 H   0  0  0  0  0  0  0  0  0  0  0  0
   -2.5742   -3.3085    4.8201 H   0  0  0  0  0  0  0  0  0  0  0  0
   -1.0636   -1.4145    4.2760 H   0  0  0  0  0  0  0  0  0  0  0  0
   -1.6647    0.1883    2.5138 H   0  0  0  0  0  0  0  0  0  0  0  0
   -1.3747   -1.8718    0.3417 H   0  0  0  0  0  0  0  0  0  0  0  0
    1.0539   -2.1513    0.1448 H   0  0  0  0  0  0  0  0  0  0  0  0
  1  2  1  0  0  0  0
  1 28  2  0  0  0  0
  1 29  1  0  0  0  0
  2  3  2  0  0  0  0
  2 30  1  0  0  0  0
  3  4  1  0  0  0  0
  3 31  1  0  0  0  0
  4  5  1  0  0  0  0
  4 27  2  0  0  0  0
  5  6  1  0  0  0  0
  5 20  2  0  0  0  0
  6  7  1  0  0  0  0
  7  8  1  0  0  0  0
  7 19  2  0  0  0  0
  8  9  2  0  0  0  0
  9 10  1  0  0  0  0
  9 32  1  0  0  0  0
 10 11  2  0  0  0  0
 10 33  1  0  0  0  0
 11 12  1  0  0  0  0
 11 19  1  0  0  0  0
 12 13  1  0  0  0  0
 12 34  1  0  0  0  0
 13 14  1  0  0  0  0
 13 35  1  0  0  0  0
 13 36  1  0  0  0  0
 14 15  1  0  0  0  0
 14 18  1  0  0  0  0
 14 37  1  1  0  0  0
 15 16  1  0  0  0  0
 15 38  1  0  0  0  0
 15 39  1  0  0  0  0
 16 17  1  0  0  0  0
 16 40  1  0  0  0  0
 16 41  1  0  0  0  0
 17 18  1  0  0  0  0
 17 42  1  0  0  0  0
 17 43  1  0  0  0  0
 19 20  1  0  0  0  0
 20 21  1  0  0  0  0
 21 22  1  0  0  0  0
 21 26  2  0  0  0  0
 22 23  2  0  0  0  0
 22 44  1  0  0  0  0
 23 24  1  0  0  0  0
 23 45  1  0  0  0  0
 24 25  2  0  0  0  0
 24 46  1  0  0  0  0
 25 26  1  0  0  0  0
 25 47  1  0  0  0  0
 26 48  1  0  0  0  0
 27 28  1  0  0  0  0
 27 49  1  0  0  0  0
 28 50  1  0  0  0  0
M  END
$$$$
