CHEMBL3911476
 OpenBabel04072215373D

 52 55  0  0  0  0  0  0  0  0999 V2000
    0.5313    0.5231    0.2179 C   0  0  0  0  0  0  0  0  0  0  0  0
    1.9606    0.1211    0.4407 C   0  0  0  0  0  0  0  0  0  0  0  0
    2.9506    1.1652    0.3265 C   0  0  0  0  0  0  0  0  0  0  0  0
    4.2512    0.8793    0.3923 C   0  0  0  0  0  0  0  0  0  0  0  0
    4.7502   -0.4068    0.5745 N   0  0  0  0  0  0  0  0  0  0  0  0
    6.1860   -0.6527    0.4682 C   0  0  0  0  0  0  0  0  0  0  0  0
    6.8050   -1.7536    1.0609 C   0  0  0  0  0  0  0  0  0  0  0  0
    8.1666   -1.9838    0.8753 C   0  0  0  0  0  0  0  0  0  0  0  0
    8.9369   -1.1108    0.0990 C   0  0  0  0  0  0  0  0  0  0  0  0
    8.3950    0.0342   -0.5003 C   0  0  0  0  0  0  0  0  0  0  0  0
    9.1516    0.8657   -1.3298 N   0  0  0  0  0  0  0  0  0  0  0  0
   10.6061    0.9610   -1.1679 C   0  0  0  0  0  0  0  0  0  0  0  0
    8.5726    2.0687   -1.9324 C   0  0  0  0  0  0  0  0  0  0  0  0
    7.0119    0.2185   -0.2901 C   0  0  0  0  0  0  0  0  0  0  0  0
    3.8473   -1.4780    0.8088 C   0  0  0  0  0  0  0  0  0  0  0  0
    4.1464   -2.6537    1.0368 O   0  0  0  0  0  0  0  0  0  0  0  0
    2.3446   -1.1406    0.7129 C   0  0  0  0  0  0  0  0  0  0  0  0
    1.4249   -2.1876    0.8701 N   0  0  0  0  0  0  0  0  0  0  0  0
    1.2378   -3.2113   -0.1938 C   0  0  0  0  0  0  0  0  0  0  0  0
    0.6496   -4.5195    0.3642 C   0  0  0  0  0  0  0  0  0  0  0  0
   -0.6393   -4.1142    1.0493 C   0  0  0  0  0  0  0  0  0  0  0  0
   -1.8193   -4.6055    0.6205 N   0  0  0  0  0  0  0  0  0  0  0  0
   -2.9107   -3.9567    1.0481 C   0  0  0  0  0  0  0  0  0  0  0  0
   -4.1433   -4.3804    0.5978 N   0  0  0  0  0  0  0  0  0  0  0  0
   -2.9122   -2.9116    1.8866 N   0  0  0  0  0  0  0  0  0  0  0  0
   -1.7134   -2.4693    2.3073 C   0  0  0  0  0  0  0  0  0  0  0  0
   -0.5313   -3.0433    1.9231 C   0  0  0  0  0  0  0  0  0  0  0  0
    0.8300   -2.4815    2.1777 C   0  0  0  0  0  0  0  0  0  0  0  0
    0.3919    1.6069    0.2960 H   0  0  0  0  0  0  0  0  0  0  0  0
   -0.1377    0.0679    0.9530 H   0  0  0  0  0  0  0  0  0  0  0  0
    0.2078    0.2204   -0.7842 H   0  0  0  0  0  0  0  0  0  0  0  0
    2.6291    2.1881    0.1922 H   0  0  0  0  0  0  0  0  0  0  0  0
    4.9643    1.6972    0.3267 H   0  0  0  0  0  0  0  0  0  0  0  0
    6.2636   -2.4528    1.6869 H   0  0  0  0  0  0  0  0  0  0  0  0
    8.6282   -2.8633    1.3158 H   0  0  0  0  0  0  0  0  0  0  0  0
    9.9710   -1.3957   -0.0531 H   0  0  0  0  0  0  0  0  0  0  0  0
   11.0945    0.0598   -0.7951 H   0  0  0  0  0  0  0  0  0  0  0  0
   10.8577    1.7876   -0.4937 H   0  0  0  0  0  0  0  0  0  0  0  0
   11.0664    1.1696   -2.1410 H   0  0  0  0  0  0  0  0  0  0  0  0
    7.5452    1.9378   -2.2811 H   0  0  0  0  0  0  0  0  0  0  0  0
    9.1455    2.3477   -2.8248 H   0  0  0  0  0  0  0  0  0  0  0  0
    8.6153    2.9089   -1.2302 H   0  0  0  0  0  0  0  0  0  0  0  0
    6.5367    1.0507   -0.7877 H   0  0  0  0  0  0  0  0  0  0  0  0
    2.1784   -3.4109   -0.7227 H   0  0  0  0  0  0  0  0  0  0  0  0
    0.5371   -2.7925   -0.9246 H   0  0  0  0  0  0  0  0  0  0  0  0
    0.4766   -5.2550   -0.4229 H   0  0  0  0  0  0  0  0  0  0  0  0
    1.3322   -4.9663    1.1017 H   0  0  0  0  0  0  0  0  0  0  0  0
   -4.1313   -5.3772    0.4430 H   0  0  0  0  0  0  0  0  0  0  0  0
   -4.8557   -4.0115    1.2126 H   0  0  0  0  0  0  0  0  0  0  0  0
   -1.7403   -1.5755    2.9222 H   0  0  0  0  0  0  0  0  0  0  0  0
    1.4453   -3.2160    2.7194 H   0  0  0  0  0  0  0  0  0  0  0  0
    0.7715   -1.5879    2.8102 H   0  0  0  0  0  0  0  0  0  0  0  0
  1  2  1  0  0  0  0
  1 29  1  0  0  0  0
  1 30  1  0  0  0  0
  1 31  1  0  0  0  0
  2  3  1  0  0  0  0
  2 17  2  0  0  0  0
  3  4  2  0  0  0  0
  3 32  1  0  0  0  0
  4  5  1  0  0  0  0
  4 33  1  0  0  0  0
  5  6  1  0  0  0  0
  5 15  1  0  0  0  0
  6  7  1  0  0  0  0
  6 14  2  0  0  0  0
  7  8  2  0  0  0  0
  7 34  1  0  0  0  0
  8  9  1  0  0  0  0
  8 35  1  0  0  0  0
  9 10  2  0  0  0  0
  9 36  1  0  0  0  0
 10 11  1  0  0  0  0
 10 14  1  0  0  0  0
 11 12  1  0  0  0  0
 11 13  1  0  0  0  0
 12 37  1  0  0  0  0
 12 38  1  0  0  0  0
 12 39  1  0  0  0  0
 13 40  1  0  0  0  0
 13 41  1  0  0  0  0
 13 42  1  0  0  0  0
 14 43  1  0  0  0  0
 15 16  2  0  0  0  0
 15 17  1  0  0  0  0
 17 18  1  0  0  0  0
 18 19  1  0  0  0  0
 18 28  1  0  0  0  0
 19 20  1  0  0  0  0
 19 44  1  0  0  0  0
 19 45  1  0  0  0  0
 20 21  1  0  0  0  0
 20 46  1  0  0  0  0
 20 47  1  0  0  0  0
 21 22  1  0  0  0  0
 21 27  2  0  0  0  0
 22 23  2  0  0  0  0
 23 24  1  0  0  0  0
 23 25  1  0  0  0  0
 24 48  1  0  0  0  0
 24 49  1  0  0  0  0
 25 26  2  0  0  0  0
 26 27  1  0  0  0  0
 26 50  1  0  0  0  0
 27 28  1  0  0  0  0
 28 51  1  0  0  0  0
 28 52  1  0  0  0  0
M  END
$$$$
