CHEMBL1082438
 OpenBabel04072215353D

 61 67  0  0  1  0  0  0  0  0999 V2000
    3.7192   -0.1495    0.9076 C   0  0  0  0  0  0  0  0  0  0  0  0
    2.9968    0.2691   -0.3580 C   0  0  0  0  0  0  0  0  0  0  0  0
    3.4141    1.5701   -0.9041 N   0  0  0  0  0  0  0  0  0  0  0  0
    2.7988    2.7772   -0.5244 C   0  0  0  0  0  0  0  0  0  0  0  0
    1.9136    3.1155    0.5082 C   0  0  0  0  0  0  0  0  0  0  0  0
    1.6175    4.4760    0.7079 C   0  0  0  0  0  0  0  0  0  0  0  0
    2.1766    5.4768   -0.1002 C   0  0  0  0  0  0  0  0  0  0  0  0
    2.1872    6.9295    0.3430 C   0  0  3  0  0  0  0  0  0  0  0  0
    0.9530    7.7157   -0.0831 C   0  0  0  0  0  0  0  0  0  0  0  0
    1.1895    8.5447   -1.3289 C   0  0  0  0  0  0  0  0  0  0  0  0
    2.3691    9.4544   -1.0580 C   0  0  0  0  0  0  0  0  0  0  0  0
    3.6149    8.6345   -0.7876 C   0  0  0  0  0  0  0  0  0  0  0  0
    3.4688    7.5178    0.0763 O   0  0  0  0  0  0  0  0  0  0  0  0
    2.8481    5.1098   -1.2659 C   0  0  0  0  0  0  0  0  0  0  0  0
    3.2123    3.7606   -1.4425 C   0  0  0  0  0  0  0  0  0  0  0  0
    3.9295    3.0399   -2.3546 C   0  0  0  0  0  0  0  0  0  0  0  0
    4.3835    3.5330   -3.5893 C   0  0  0  0  0  0  0  0  0  0  0  0
    4.8399    2.5531   -4.4905 C   0  0  0  0  0  0  0  0  0  0  0  0
    4.9791    1.1938   -4.1342 C   0  0  0  0  0  0  0  0  0  0  0  0
    5.2187    1.0426   -2.7212 C   0  0  0  0  0  0  0  0  0  0  0  0
    4.2620    1.7656   -1.9791 C   0  0  0  0  0  0  0  0  0  0  0  0
    6.7847    1.3461   -2.5056 C   0  0  0  0  0  0  0  0  0  0  0  0
    7.7870    0.8003   -3.5952 C   0  0  0  0  0  0  0  0  0  0  0  0
    7.0585    0.1466   -4.7132 C   0  0  0  0  0  0  0  0  0  0  0  0
    5.7229    0.3119   -4.9820 C   0  0  0  0  0  0  0  0  0  0  0  0
    5.4143   -0.6487   -5.9483 C   0  0  0  0  0  0  0  0  0  0  0  0
    6.5135   -1.2757   -6.3863 N   0  0  0  0  0  0  0  0  0  0  0  0
    7.5160   -0.7029   -5.6787 N   0  0  0  0  0  0  0  0  0  0  0  0
    8.8831   -1.0126   -6.0157 C   0  0  0  0  0  0  0  0  0  0  0  0
    5.3140    3.2420   -5.6741 C   0  0  0  0  0  0  0  0  0  0  0  0
    5.8736    2.8853   -6.6928 O   0  0  0  0  0  0  0  0  0  0  0  0
    5.0925    4.5916   -5.3862 N   0  0  0  0  0  0  0  0  0  0  0  0
    4.5047    4.8944   -4.0982 C   0  0  0  0  0  0  0  0  0  0  0  0
    3.2914   -1.0842    1.2844 H   0  0  0  0  0  0  0  0  0  0  0  0
    3.6209    0.6039    1.6961 H   0  0  0  0  0  0  0  0  0  0  0  0
    4.7845   -0.3148    0.7236 H   0  0  0  0  0  0  0  0  0  0  0  0
    1.9244    0.3274   -0.1732 H   0  0  0  0  0  0  0  0  0  0  0  0
    3.1394   -0.4793   -1.1497 H   0  0  0  0  0  0  0  0  0  0  0  0
    1.5123    2.3659    1.1830 H   0  0  0  0  0  0  0  0  0  0  0  0
    0.9946    4.7526    1.5566 H   0  0  0  0  0  0  0  0  0  0  0  0
    2.1739    6.8841    1.4383 H   0  0  0  0  0  0  0  0  0  0  0  0
    0.7108    8.4100    0.7338 H   0  0  0  0  0  0  0  0  0  0  0  0
    0.0763    7.0701   -0.2011 H   0  0  0  0  0  0  0  0  0  0  0  0
    0.2992    9.1419   -1.5538 H   0  0  0  0  0  0  0  0  0  0  0  0
    1.3849    7.9021   -2.1948 H   0  0  0  0  0  0  0  0  0  0  0  0
    2.1527   10.0787   -0.1820 H   0  0  0  0  0  0  0  0  0  0  0  0
    2.5400   10.1361   -1.8982 H   0  0  0  0  0  0  0  0  0  0  0  0
    4.3696    9.2800   -0.3231 H   0  0  0  0  0  0  0  0  0  0  0  0
    4.0536    8.2979   -1.7346 H   0  0  0  0  0  0  0  0  0  0  0  0
    3.2123    5.8695   -1.9380 H   0  0  0  0  0  0  0  0  0  0  0  0
    7.0962    1.0459   -1.5008 H   0  0  0  0  0  0  0  0  0  0  0  0
    6.8939    2.4450   -2.5274 H   0  0  0  0  0  0  0  0  0  0  0  0
    8.4932    0.1076   -3.1296 H   0  0  0  0  0  0  0  0  0  0  0  0
    8.3796    1.6367   -3.9964 H   0  0  0  0  0  0  0  0  0  0  0  0
    4.4481   -0.9402   -6.3366 H   0  0  0  0  0  0  0  0  0  0  0  0
    8.9018   -1.8270   -6.7460 H   0  0  0  0  0  0  0  0  0  0  0  0
    9.4124   -1.3136   -5.1106 H   0  0  0  0  0  0  0  0  0  0  0  0
    9.3360   -0.1186   -6.4528 H   0  0  0  0  0  0  0  0  0  0  0  0
    5.4817    5.2909   -6.0022 H   0  0  0  0  0  0  0  0  0  0  0  0
    3.5507    5.3983   -4.2397 H   0  0  0  0  0  0  0  0  0  0  0  0
    5.2082    5.4813   -3.5073 H   0  0  0  0  0  0  0  0  0  0  0  0
  1  2  1  0  0  0  0
  1 34  1  0  0  0  0
  1 35  1  0  0  0  0
  1 36  1  0  0  0  0
  2  3  1  0  0  0  0
  2 37  1  0  0  0  0
  2 38  1  0  0  0  0
  3  4  1  0  0  0  0
  3 21  1  0  0  0  0
  4  5  1  0  0  0  0
  4 15  2  0  0  0  0
  5  6  2  0  0  0  0
  5 39  1  0  0  0  0
  6  7  1  0  0  0  0
  6 40  1  0  0  0  0
  7  8  1  0  0  0  0
  7 14  2  0  0  0  0
  8  9  1  0  0  0  0
  8 13  1  0  0  0  0
  8 41  1  0  0  0  0
  9 10  1  0  0  0  0
  9 42  1  0  0  0  0
  9 43  1  0  0  0  0
 10 11  1  0  0  0  0
 10 44  1  0  0  0  0
 10 45  1  0  0  0  0
 11 12  1  0  0  0  0
 11 46  1  0  0  0  0
 11 47  1  0  0  0  0
 12 13  1  0  0  0  0
 12 48  1  0  0  0  0
 12 49  1  0  0  0  0
 14 15  1  0  0  0  0
 14 50  1  0  0  0  0
 15 16  1  0  0  0  0
 16 17  1  0  0  0  0
 16 21  2  0  0  0  0
 17 18  2  0  0  0  0
 17 33  1  0  0  0  0
 18 19  1  0  0  0  0
 18 30  1  0  0  0  0
 19 20  2  0  0  0  0
 19 25  1  0  0  0  0
 20 21  1  0  0  0  0
 20 22  1  0  0  0  0
 22 23  1  0  0  0  0
 22 51  1  0  0  0  0
 22 52  1  0  0  0  0
 23 24  1  0  0  0  0
 23 53  1  0  0  0  0
 23 54  1  0  0  0  0
 24 25  2  0  0  0  0
 24 28  1  0  0  0  0
 25 26  1  0  0  0  0
 26 27  2  0  0  0  0
 26 55  1  0  0  0  0
 27 28  1  0  0  0  0
 28 29  1  0  0  0  0
 29 56  1  0  0  0  0
 29 57  1  0  0  0  0
 29 58  1  0  0  0  0
 30 31  2  0  0  0  0
 30 32  1  0  0  0  0
 32 33  1  0  0  0  0
 32 59  1  0  0  0  0
 33 60  1  0  0  0  0
 33 61  1  0  0  0  0
M  END
$$$$
