CHEMBL2016923
 OpenBabel04072215363D

 48 52  0  0  0  0  0  0  0  0999 V2000
    1.0958   -0.1169   -0.3527 O   0  0  0  0  0  0  0  0  0  0  0  0
    2.2658    0.0563   -0.0242 C   0  0  0  0  0  0  0  0  0  0  0  0
    2.8619    1.4492   -0.0580 C   0  0  0  0  0  0  0  0  0  0  0  0
    2.8210    2.1843    1.2552 C   0  0  0  0  0  0  0  0  0  0  0  0
    1.6145    2.4719    1.8871 C   0  0  0  0  0  0  0  0  0  0  0  0
    1.6303    3.1975    3.0760 C   0  0  0  0  0  0  0  0  0  0  0  0
    2.8453    3.6140    3.6060 C   0  0  0  0  0  0  0  0  0  0  0  0
    4.0033    3.2778    2.9250 C   0  0  0  0  0  0  0  0  0  0  0  0
    4.0178    2.5751    1.7692 N   0  0  0  0  0  0  0  0  0  0  0  0
    3.0868   -1.0204    0.3821 N   0  0  0  0  0  0  0  0  0  0  0  0
    2.4515   -2.3459    0.3588 C   0  0  0  0  0  0  0  0  0  0  0  0
    3.3813   -3.5750    0.4479 C   0  0  0  0  0  0  0  0  0  0  0  0
    4.5932   -3.2584    1.2252 C   0  0  0  0  0  0  0  0  0  0  0  0
    5.5308   -4.1599    1.6398 N   0  0  0  0  0  0  0  0  0  0  0  0
    6.4084   -3.4639    2.3539 C   0  0  0  0  0  0  0  0  0  0  0  0
    7.4987   -3.9272    3.1476 C   0  0  0  0  0  0  0  0  0  0  0  0
    7.9457   -5.1781    2.9388 C   0  0  0  0  0  0  0  0  0  0  0  0
    8.6977   -5.8756    3.9800 C   0  0  0  0  0  0  0  0  0  0  0  0
    8.9816   -7.2315    3.8381 C   0  0  0  0  0  0  0  0  0  0  0  0
    9.0985   -8.0106    4.9846 C   0  0  0  0  0  0  0  0  0  0  0  0
    9.1730   -7.4026    6.2399 C   0  0  0  0  0  0  0  0  0  0  0  0
    9.1712   -6.0097    6.3485 C   0  0  0  0  0  0  0  0  0  0  0  0
    8.8617   -5.2534    5.2222 C   0  0  0  0  0  0  0  0  0  0  0  0
    8.6245   -3.8759    5.3245 N   0  0  0  0  0  0  0  0  0  0  0  0
    8.0024   -3.1532    4.3320 C   0  0  0  0  0  0  0  0  0  0  0  0
    7.8120   -1.9404    4.4418 O   0  0  0  0  0  0  0  0  0  0  0  0
    6.0703   -2.1228    2.3507 N   0  0  0  0  0  0  0  0  0  0  0  0
    4.9222   -1.9894    1.6174 C   0  0  0  0  0  0  0  0  0  0  0  0
    4.1743   -0.7488    1.3538 C   0  0  0  0  0  0  0  0  0  0  0  0
    2.3001    2.0329   -0.7969 H   0  0  0  0  0  0  0  0  0  0  0  0
    3.8830    1.3989   -0.4441 H   0  0  0  0  0  0  0  0  0  0  0  0
    0.6673    2.1554    1.4592 H   0  0  0  0  0  0  0  0  0  0  0  0
    0.6980    3.4406    3.5782 H   0  0  0  0  0  0  0  0  0  0  0  0
    2.8951    4.1849    4.5267 H   0  0  0  0  0  0  0  0  0  0  0  0
    4.9838    3.5904    3.2934 H   0  0  0  0  0  0  0  0  0  0  0  0
    1.8708   -2.4322   -0.5695 H   0  0  0  0  0  0  0  0  0  0  0  0
    1.7267   -2.3652    1.1808 H   0  0  0  0  0  0  0  0  0  0  0  0
    3.6735   -3.9008   -0.5564 H   0  0  0  0  0  0  0  0  0  0  0  0
    2.8334   -4.4036    0.9142 H   0  0  0  0  0  0  0  0  0  0  0  0
    7.5421   -5.7849    2.1319 H   0  0  0  0  0  0  0  0  0  0  0  0
    9.0081   -7.6963    2.8564 H   0  0  0  0  0  0  0  0  0  0  0  0
    9.0836   -9.0944    4.8982 H   0  0  0  0  0  0  0  0  0  0  0  0
    9.2227   -8.0202    7.1336 H   0  0  0  0  0  0  0  0  0  0  0  0
    9.3003   -5.5479    7.3218 H   0  0  0  0  0  0  0  0  0  0  0  0
    8.8469   -3.3800    6.1768 H   0  0  0  0  0  0  0  0  0  0  0  0
    6.5662   -1.4012    2.8683 H   0  0  0  0  0  0  0  0  0  0  0  0
    4.8498    0.0095    0.9499 H   0  0  0  0  0  0  0  0  0  0  0  0
    3.7209   -0.3765    2.2790 H   0  0  0  0  0  0  0  0  0  0  0  0
  1  2  2  0  0  0  0
  2  3  1  0  0  0  0
  2 10  1  0  0  0  0
  3  4  1  0  0  0  0
  3 30  1  0  0  0  0
  3 31  1  0  0  0  0
  4  5  1  0  0  0  0
  4  9  2  0  0  0  0
  5  6  2  0  0  0  0
  5 32  1  0  0  0  0
  6  7  1  0  0  0  0
  6 33  1  0  0  0  0
  7  8  2  0  0  0  0
  7 34  1  0  0  0  0
  8  9  1  0  0  0  0
  8 35  1  0  0  0  0
 10 11  1  0  0  0  0
 10 29  1  0  0  0  0
 11 12  1  0  0  0  0
 11 36  1  0  0  0  0
 11 37  1  0  0  0  0
 12 13  1  0  0  0  0
 12 38  1  0  0  0  0
 12 39  1  0  0  0  0
 13 14  1  0  0  0  0
 13 28  2  0  0  0  0
 14 15  2  0  0  0  0
 15 16  1  0  0  0  0
 15 27  1  0  0  0  0
 16 17  2  0  0  0  0
 16 25  1  0  0  0  0
 17 18  1  0  0  0  0
 17 40  1  0  0  0  0
 18 19  1  0  0  0  0
 18 23  2  0  0  0  0
 19 20  2  0  0  0  0
 19 41  1  0  0  0  0
 20 21  1  0  0  0  0
 20 42  1  0  0  0  0
 21 22  2  0  0  0  0
 21 43  1  0  0  0  0
 22 23  1  0  0  0  0
 22 44  1  0  0  0  0
 23 24  1  0  0  0  0
 24 25  1  0  0  0  0
 24 45  1  0  0  0  0
 25 26  2  0  0  0  0
 27 28  1  0  0  0  0
 27 46  1  0  0  0  0
 28 29  1  0  0  0  0
 29 47  1  0  0  0  0
 29 48  1  0  0  0  0
M  END
$$$$
