CHEMBL4641667
 OpenBabel04072215383D

 80 84  0  0  0  0  0  0  0  0999 V2000
    7.2874   -3.5471    7.2464 C   0  0  0  0  0  0  0  0  0  0  0  0
    6.7548   -3.1285    5.8890 C   0  0  0  0  0  0  0  0  0  0  0  0
    5.2868   -2.9700    5.9732 N   0  0  0  0  0  0  0  0  0  0  0  0
    4.5326   -2.4596    4.5181 S   0  0  0  0  0  0  0  0  0  0  0  0
    5.3789   -2.9659    3.4636 O   0  0  0  0  0  0  0  0  0  0  0  0
    3.1362   -2.8350    4.6376 O   0  0  0  0  0  0  0  0  0  0  0  0
    4.6097   -0.6832    4.6814 C   0  0  0  0  0  0  0  0  0  0  0  0
    3.9469   -0.1727    5.8194 C   0  0  0  0  0  0  0  0  0  0  0  0
    4.0881    1.1595    6.1986 C   0  0  0  0  0  0  0  0  0  0  0  0
    4.8973    1.9974    5.4479 C   0  0  0  0  0  0  0  0  0  0  0  0
    5.4976    1.5149    4.2846 C   0  0  0  0  0  0  0  0  0  0  0  0
    5.3193    0.1860    3.8399 C   0  0  0  0  0  0  0  0  0  0  0  0
    5.9063   -0.0938    2.6017 N   0  0  0  0  0  0  0  0  0  0  0  0
    5.4809   -0.9475    1.5884 C   0  0  0  0  0  0  0  0  0  0  0  0
    4.1971   -1.2576    1.4441 N   0  0  0  0  0  0  0  0  0  0  0  0
    3.9741   -2.2314    0.5702 C   0  0  0  0  0  0  0  0  0  0  0  0
    4.8943   -2.8706   -0.1460 N   0  0  0  0  0  0  0  0  0  0  0  0
    6.1389   -2.4445    0.0479 C   0  0  0  0  0  0  0  0  0  0  0  0
    7.1477   -3.1731   -0.5822 N   0  0  0  0  0  0  0  0  0  0  0  0
    8.5375   -3.0723   -0.4284 C   0  0  0  0  0  0  0  0  0  0  0  0
    9.2016   -1.8552   -0.3034 C   0  0  0  0  0  0  0  0  0  0  0  0
   10.5974   -1.8017   -0.2027 C   0  0  0  0  0  0  0  0  0  0  0  0
   11.3942   -2.9598   -0.2363 C   0  0  0  0  0  0  0  0  0  0  0  0
   12.7883   -2.8664   -0.3956 N   0  0  0  0  0  0  0  0  0  0  0  0
   13.2893   -1.7384   -1.1853 C   0  0  0  0  0  0  0  0  0  0  0  0
   14.5954   -2.1750   -1.8357 C   0  0  0  0  0  0  0  0  0  0  0  0
   15.6936   -2.5302   -0.8003 C   0  0  0  0  0  0  0  0  0  0  0  0
   16.3755   -1.3132   -0.2586 N   0  0  0  0  0  0  0  0  0  0  0  0
   17.0925   -0.5336   -1.3139 C   0  0  0  0  0  0  0  0  0  0  0  0
   18.3464   -1.2236   -1.9112 C   0  0  0  0  0  0  0  0  0  0  0  0
   19.3468   -1.5842   -0.8952 N   0  0  0  0  0  0  0  0  0  0  0  0
   20.3995   -2.4178   -1.4782 C   0  0  0  0  0  0  0  0  0  0  0  0
   18.7242   -2.2558    0.2619 C   0  0  0  0  0  0  0  0  0  0  0  0
   17.4133   -1.5918    0.7697 C   0  0  0  0  0  0  0  0  0  0  0  0
   15.0608   -3.5166    0.2362 C   0  0  0  0  0  0  0  0  0  0  0  0
   13.6518   -3.1595    0.7523 C   0  0  0  0  0  0  0  0  0  0  0  0
   10.7126   -4.2036   -0.2651 C   0  0  0  0  0  0  0  0  0  0  0  0
   11.4710   -5.3555   -0.2331 O   0  0  0  0  0  0  0  0  0  0  0  0
   10.8232   -6.5447   -0.6817 C   0  0  0  0  0  0  0  0  0  0  0  0
    9.3050   -4.2372   -0.3583 C   0  0  0  0  0  0  0  0  0  0  0  0
    6.4634   -1.4498    0.8609 N   0  0  0  0  0  0  0  0  0  0  0  0
    8.3627   -3.7410    7.1883 H   0  0  0  0  0  0  0  0  0  0  0  0
    6.7920   -4.4575    7.6001 H   0  0  0  0  0  0  0  0  0  0  0  0
    7.1188   -2.7620    7.9905 H   0  0  0  0  0  0  0  0  0  0  0  0
    6.9970   -3.9105    5.1618 H   0  0  0  0  0  0  0  0  0  0  0  0
    7.2231   -2.1888    5.5816 H   0  0  0  0  0  0  0  0  0  0  0  0
    4.9953   -2.3885    6.7566 H   0  0  0  0  0  0  0  0  0  0  0  0
    3.3133   -0.8225    6.4220 H   0  0  0  0  0  0  0  0  0  0  0  0
    3.5785    1.5360    7.0818 H   0  0  0  0  0  0  0  0  0  0  0  0
    5.0395    3.0340    5.7424 H   0  0  0  0  0  0  0  0  0  0  0  0
    6.0878    2.2058    3.6820 H   0  0  0  0  0  0  0  0  0  0  0  0
    6.9191   -0.1014    2.5967 H   0  0  0  0  0  0  0  0  0  0  0  0
    2.9455   -2.5542    0.4500 H   0  0  0  0  0  0  0  0  0  0  0  0
    6.7740   -4.0682   -0.8631 H   0  0  0  0  0  0  0  0  0  0  0  0
    8.6481   -0.9208   -0.3328 H   0  0  0  0  0  0  0  0  0  0  0  0
   11.0599   -0.8210   -0.1401 H   0  0  0  0  0  0  0  0  0  0  0  0
   13.4324   -0.8494   -0.5572 H   0  0  0  0  0  0  0  0  0  0  0  0
   12.5877   -1.4761   -1.9867 H   0  0  0  0  0  0  0  0  0  0  0  0
   14.9057   -1.4075   -2.5468 H   0  0  0  0  0  0  0  0  0  0  0  0
   14.4015   -3.0664   -2.4473 H   0  0  0  0  0  0  0  0  0  0  0  0
   16.4513   -3.1174   -1.3332 H   0  0  0  0  0  0  0  0  0  0  0  0
   17.4053    0.4235   -0.8726 H   0  0  0  0  0  0  0  0  0  0  0  0
   16.4288   -0.2378   -2.1295 H   0  0  0  0  0  0  0  0  0  0  0  0
   18.8099   -0.5265   -2.6214 H   0  0  0  0  0  0  0  0  0  0  0  0
   18.0433   -2.1052   -2.4886 H   0  0  0  0  0  0  0  0  0  0  0  0
   20.8181   -1.9540   -2.3792 H   0  0  0  0  0  0  0  0  0  0  0  0
   20.0293   -3.4122   -1.7563 H   0  0  0  0  0  0  0  0  0  0  0  0
   21.2286   -2.5450   -0.7736 H   0  0  0  0  0  0  0  0  0  0  0  0
   19.4482   -2.2440    1.0873 H   0  0  0  0  0  0  0  0  0  0  0  0
   18.5148   -3.3069    0.0305 H   0  0  0  0  0  0  0  0  0  0  0  0
   17.6842   -0.6285    1.2262 H   0  0  0  0  0  0  0  0  0  0  0  0
   17.0065   -2.1729    1.6016 H   0  0  0  0  0  0  0  0  0  0  0  0
   15.7265   -3.7023    1.0834 H   0  0  0  0  0  0  0  0  0  0  0  0
   14.9769   -4.4888   -0.2711 H   0  0  0  0  0  0  0  0  0  0  0  0
   13.7045   -2.2921    1.4225 H   0  0  0  0  0  0  0  0  0  0  0  0
   13.2682   -4.0029    1.3391 H   0  0  0  0  0  0  0  0  0  0  0  0
   11.5479   -7.3628   -0.6563 H   0  0  0  0  0  0  0  0  0  0  0  0
   10.4760   -6.4327   -1.7154 H   0  0  0  0  0  0  0  0  0  0  0  0
    9.9975   -6.8351   -0.0216 H   0  0  0  0  0  0  0  0  0  0  0  0
    8.7692   -5.1791   -0.3840 H   0  0  0  0  0  0  0  0  0  0  0  0
  1  2  1  0  0  0  0
  1 42  1  0  0  0  0
  1 43  1  0  0  0  0
  1 44  1  0  0  0  0
  2  3  1  0  0  0  0
  2 45  1  0  0  0  0
  2 46  1  0  0  0  0
  3  4  1  0  0  0  0
  3 47  1  0  0  0  0
  4  5  2  0  0  0  0
  4  6  2  0  0  0  0
  4  7  1  0  0  0  0
  7  8  1  0  0  0  0
  7 12  2  0  0  0  0
  8  9  2  0  0  0  0
  8 48  1  0  0  0  0
  9 10  1  0  0  0  0
  9 49  1  0  0  0  0
 10 11  2  0  0  0  0
 10 50  1  0  0  0  0
 11 12  1  0  0  0  0
 11 51  1  0  0  0  0
 12 13  1  0  0  0  0
 13 14  1  0  0  0  0
 13 52  1  0  0  0  0
 14 15  1  0  0  0  0
 14 41  2  0  0  0  0
 15 16  2  0  0  0  0
 16 17  1  0  0  0  0
 16 53  1  0  0  0  0
 17 18  2  0  0  0  0
 18 19  1  0  0  0  0
 18 41  1  0  0  0  0
 19 20  1  0  0  0  0
 19 54  1  0  0  0  0
 20 21  1  0  0  0  0
 20 40  2  0  0  0  0
 21 22  2  0  0  0  0
 21 55  1  0  0  0  0
 22 23  1  0  0  0  0
 22 56  1  0  0  0  0
 23 24  1  0  0  0  0
 23 37  2  0  0  0  0
 24 25  1  0  0  0  0
 24 36  1  0  0  0  0
 25 26  1  0  0  0  0
 25 57  1  0  0  0  0
 25 58  1  0  0  0  0
 26 27  1  0  0  0  0
 26 59  1  0  0  0  0
 26 60  1  0  0  0  0
 27 28  1  0  0  0  0
 27 35  1  0  0  0  0
 27 61  1  0  0  0  0
 28 29  1  0  0  0  0
 28 34  1  0  0  0  0
 29 30  1  0  0  0  0
 29 62  1  0  0  0  0
 29 63  1  0  0  0  0
 30 31  1  0  0  0  0
 30 64  1  0  0  0  0
 30 65  1  0  0  0  0
 31 32  1  0  0  0  0
 31 33  1  0  0  0  0
 32 66  1  0  0  0  0
 32 67  1  0  0  0  0
 32 68  1  0  0  0  0
 33 34  1  0  0  0  0
 33 69  1  0  0  0  0
 33 70  1  0  0  0  0
 34 71  1  0  0  0  0
 34 72  1  0  0  0  0
 35 36  1  0  0  0  0
 35 73  1  0  0  0  0
 35 74  1  0  0  0  0
 36 75  1  0  0  0  0
 36 76  1  0  0  0  0
 37 38  1  0  0  0  0
 37 40  1  0  0  0  0
 38 39  1  0  0  0  0
 39 77  1  0  0  0  0
 39 78  1  0  0  0  0
 39 79  1  0  0  0  0
 40 80  1  0  0  0  0
M  END
$$$$
