CHEMBL3969348
 OpenBabel04072215373D

 56 60  0  0  0  0  0  0  0  0999 V2000
    2.9203    3.0279    0.4427 O   0  0  0  0  0  0  0  0  0  0  0  0
    2.4138    1.9947    0.0156 C   0  0  0  0  0  0  0  0  0  0  0  0
    1.0715    1.6794    0.1446 N   0  0  0  0  0  0  0  0  0  0  0  0
    0.1145    2.5067    0.7863 C   0  0  0  0  0  0  0  0  0  0  0  0
    0.3125    3.8749    1.0010 C   0  0  0  0  0  0  0  0  0  0  0  0
   -0.6333    4.6309    1.6901 C   0  0  0  0  0  0  0  0  0  0  0  0
   -1.7811    4.0180    2.1668 C   0  0  0  0  0  0  0  0  0  0  0  0
   -2.6737    4.7698    2.8318 F   0  0  0  0  0  0  0  0  0  0  0  0
   -2.0336    2.6507    1.9732 C   0  0  0  0  0  0  0  0  0  0  0  0
   -3.2871    2.0039    2.5172 C   0  0  0  0  0  0  0  0  0  0  0  0
   -3.5189    1.9744    4.0133 C   0  0  0  0  0  0  0  0  0  0  0  0
   -3.2196    0.7020    3.2830 C   0  0  0  0  0  0  0  0  0  0  0  0
   -1.0751    1.9175    1.2420 C   0  0  0  0  0  0  0  0  0  0  0  0
    3.1428    0.9861   -0.5947 N   0  0  0  0  0  0  0  0  0  0  0  0
    4.5518    1.0005   -0.7587 C   0  0  0  0  0  0  0  0  0  0  0  0
    5.3271    2.1640   -0.6842 C   0  0  0  0  0  0  0  0  0  0  0  0
    6.7209    2.1023   -0.7583 C   0  0  0  0  0  0  0  0  0  0  0  0
    7.3638    0.8758   -0.9192 C   0  0  0  0  0  0  0  0  0  0  0  0
    8.7411    0.9106   -0.9753 O   0  0  0  0  0  0  0  0  0  0  0  0
    9.4665   -0.1154   -0.4046 C   0  0  0  0  0  0  0  0  0  0  0  0
    9.0367   -0.8313    0.7052 C   0  0  0  0  0  0  0  0  0  0  0  0
    9.8370   -1.8595    1.1482 C   0  0  0  0  0  0  0  0  0  0  0  0
   11.0193   -2.1592    0.5944 N   0  0  0  0  0  0  0  0  0  0  0  0
   11.4754   -1.4248   -0.4355 C   0  0  0  0  0  0  0  0  0  0  0  0
   12.7387   -1.7168   -0.9809 N   0  0  0  0  0  0  0  0  0  0  0  0
   13.5495   -2.7320   -0.5069 C   0  0  0  0  0  0  0  0  0  0  0  0
   13.3157   -3.5042    0.4090 O   0  0  0  0  0  0  0  0  0  0  0  0
   14.8747   -2.9087   -1.1718 C   0  0  0  0  0  0  0  0  0  0  0  0
   15.8915   -1.7935   -1.1091 C   0  0  0  0  0  0  0  0  0  0  0  0
   15.3588   -2.2551   -2.4358 C   0  0  0  0  0  0  0  0  0  0  0  0
   10.7228   -0.3815   -0.9656 C   0  0  0  0  0  0  0  0  0  0  0  0
    6.5993   -0.2830   -1.0749 C   0  0  0  0  0  0  0  0  0  0  0  0
    5.2091   -0.2117   -0.9835 C   0  0  0  0  0  0  0  0  0  0  0  0
    4.4962   -1.3468   -1.0682 F   0  0  0  0  0  0  0  0  0  0  0  0
    0.7997    0.7268   -0.0341 H   0  0  0  0  0  0  0  0  0  0  0  0
    1.1965    4.3914    0.6391 H   0  0  0  0  0  0  0  0  0  0  0  0
   -0.4681    5.6892    1.8608 H   0  0  0  0  0  0  0  0  0  0  0  0
   -4.1768    2.1542    1.9083 H   0  0  0  0  0  0  0  0  0  0  0  0
   -4.5295    2.1317    4.3729 H   0  0  0  0  0  0  0  0  0  0  0  0
   -2.7543    2.3711    4.6724 H   0  0  0  0  0  0  0  0  0  0  0  0
   -4.0308   -0.0049    3.1502 H   0  0  0  0  0  0  0  0  0  0  0  0
   -2.2579    0.2393    3.4713 H   0  0  0  0  0  0  0  0  0  0  0  0
   -1.2585    0.8597    1.0707 H   0  0  0  0  0  0  0  0  0  0  0  0
    2.6924    0.0939   -0.7515 H   0  0  0  0  0  0  0  0  0  0  0  0
    4.8737    3.1439   -0.5711 H   0  0  0  0  0  0  0  0  0  0  0  0
    7.2970    3.0213   -0.6752 H   0  0  0  0  0  0  0  0  0  0  0  0
    8.1018   -0.6278    1.2117 H   0  0  0  0  0  0  0  0  0  0  0  0
    9.5423   -2.4922    1.9788 H   0  0  0  0  0  0  0  0  0  0  0  0
   13.0684   -1.1454   -1.7387 H   0  0  0  0  0  0  0  0  0  0  0  0
   15.2628   -3.9124   -1.0017 H   0  0  0  0  0  0  0  0  0  0  0  0
   16.9009   -2.0694   -0.8238 H   0  0  0  0  0  0  0  0  0  0  0  0
   15.5790   -0.8252   -0.7364 H   0  0  0  0  0  0  0  0  0  0  0  0
   16.0247   -2.8395   -3.0649 H   0  0  0  0  0  0  0  0  0  0  0  0
   14.7146   -1.5933   -2.9969 H   0  0  0  0  0  0  0  0  0  0  0  0
   11.0791    0.2106   -1.7970 H   0  0  0  0  0  0  0  0  0  0  0  0
    7.0635   -1.2499   -1.2369 H   0  0  0  0  0  0  0  0  0  0  0  0
  1  2  2  0  0  0  0
  2  3  1  0  0  0  0
  2 14  1  0  0  0  0
  3  4  1  0  0  0  0
  3 35  1  0  0  0  0
  4  5  1  0  0  0  0
  4 13  2  0  0  0  0
  5  6  2  0  0  0  0
  5 36  1  0  0  0  0
  6  7  1  0  0  0  0
  6 37  1  0  0  0  0
  7  8  1  0  0  0  0
  7  9  2  0  0  0  0
  9 10  1  0  0  0  0
  9 13  1  0  0  0  0
 10 11  1  0  0  0  0
 10 12  1  0  0  0  0
 10 38  1  0  0  0  0
 11 12  1  0  0  0  0
 11 39  1  0  0  0  0
 11 40  1  0  0  0  0
 12 41  1  0  0  0  0
 12 42  1  0  0  0  0
 13 43  1  0  0  0  0
 14 15  1  0  0  0  0
 14 44  1  0  0  0  0
 15 16  1  0  0  0  0
 15 33  2  0  0  0  0
 16 17  2  0  0  0  0
 16 45  1  0  0  0  0
 17 18  1  0  0  0  0
 17 46  1  0  0  0  0
 18 19  1  0  0  0  0
 18 32  2  0  0  0  0
 19 20  1  0  0  0  0
 20 21  1  0  0  0  0
 20 31  2  0  0  0  0
 21 22  2  0  0  0  0
 21 47  1  0  0  0  0
 22 23  1  0  0  0  0
 22 48  1  0  0  0  0
 23 24  2  0  0  0  0
 24 25  1  0  0  0  0
 24 31  1  0  0  0  0
 25 26  1  0  0  0  0
 25 49  1  0  0  0  0
 26 27  2  0  0  0  0
 26 28  1  0  0  0  0
 28 29  1  0  0  0  0
 28 30  1  0  0  0  0
 28 50  1  0  0  0  0
 29 30  1  0  0  0  0
 29 51  1  0  0  0  0
 29 52  1  0  0  0  0
 30 53  1  0  0  0  0
 30 54  1  0  0  0  0
 31 55  1  0  0  0  0
 32 33  1  0  0  0  0
 32 56  1  0  0  0  0
 33 34  1  0  0  0  0
M  END
$$$$
