CHEMBL3702601
 OpenBabel04072215373D

 45 48  0  0  0  0  0  0  0  0999 V2000
    4.7049    3.4201   -2.9978 N   0  0  0  0  0  0  0  0  0  0  0  0
    5.4360    2.3715   -2.4809 C   0  0  0  0  0  0  0  0  0  0  0  0
    6.5166    1.9810   -3.1600 N   0  0  0  0  0  0  0  0  0  0  0  0
    7.2057    0.9458   -2.6433 C   0  0  0  0  0  0  0  0  0  0  0  0
    6.8668    0.3014   -1.4727 C   0  0  0  0  0  0  0  0  0  0  0  0
    5.7423    0.7981   -0.8373 C   0  0  0  0  0  0  0  0  0  0  0  0
    5.0290    1.8408   -1.3243 N   0  0  0  0  0  0  0  0  0  0  0  0
    5.2822    0.2172    0.4737 C   0  0  0  0  0  0  0  0  0  0  0  0
    5.8120   -1.2005    0.6673 C   0  0  0  0  0  0  0  0  0  0  0  0
    7.2523   -1.2497    0.3867 N   0  0  0  0  0  0  0  0  0  0  0  0
    8.2002   -1.3907    1.3844 C   0  0  0  0  0  0  0  0  0  0  0  0
    9.4450   -1.9901    1.1390 C   0  0  0  0  0  0  0  0  0  0  0  0
   10.4039   -2.1576    2.1503 C   0  0  0  0  0  0  0  0  0  0  0  0
   10.1429   -1.7256    3.4497 C   0  0  0  0  0  0  0  0  0  0  0  0
    8.9136   -1.1329    3.7256 C   0  0  0  0  0  0  0  0  0  0  0  0
    8.4946   -0.7339    5.0942 C   0  0  0  0  0  0  0  0  0  0  0  0
    7.2960   -0.8324    5.3511 O   0  0  0  0  0  0  0  0  0  0  0  0
    9.4696   -0.2290    5.9371 N   0  0  0  0  0  0  0  0  0  0  0  0
    9.2288    0.2489    7.2518 C   0  0  0  0  0  0  0  0  0  0  0  0
    8.0591   -0.0439    7.9617 C   0  0  0  0  0  0  0  0  0  0  0  0
    7.8176    0.5194    9.2163 C   0  0  0  0  0  0  0  0  0  0  0  0
    8.7548    1.3717    9.7864 C   0  0  0  0  0  0  0  0  0  0  0  0
    9.9482    1.6344    9.1145 C   0  0  0  0  0  0  0  0  0  0  0  0
   10.1902    1.0664    7.8552 C   0  0  0  0  0  0  0  0  0  0  0  0
    7.9632   -0.9733    2.6983 C   0  0  0  0  0  0  0  0  0  0  0  0
    7.6432   -0.8844   -0.9770 C   0  0  0  0  0  0  0  0  0  0  0  0
    5.2916    3.9790   -3.6003 H   0  0  0  0  0  0  0  0  0  0  0  0
    4.2129    3.8927   -2.2533 H   0  0  0  0  0  0  0  0  0  0  0  0
    8.0683    0.6403   -3.2291 H   0  0  0  0  0  0  0  0  0  0  0  0
    4.1866    0.2046    0.5085 H   0  0  0  0  0  0  0  0  0  0  0  0
    5.6354    0.8690    1.2810 H   0  0  0  0  0  0  0  0  0  0  0  0
    5.3059   -1.8782   -0.0335 H   0  0  0  0  0  0  0  0  0  0  0  0
    5.5585   -1.5749    1.6660 H   0  0  0  0  0  0  0  0  0  0  0  0
    9.6701   -2.3896    0.1524 H   0  0  0  0  0  0  0  0  0  0  0  0
   11.3408   -2.6598    1.9192 H   0  0  0  0  0  0  0  0  0  0  0  0
   10.8749   -1.9068    4.2308 H   0  0  0  0  0  0  0  0  0  0  0  0
   10.3743   -0.0128    5.5388 H   0  0  0  0  0  0  0  0  0  0  0  0
    7.3051   -0.7173    7.5654 H   0  0  0  0  0  0  0  0  0  0  0  0
    6.8896    0.2932    9.7346 H   0  0  0  0  0  0  0  0  0  0  0  0
    8.5545    1.8274   10.7527 H   0  0  0  0  0  0  0  0  0  0  0  0
   10.6820    2.2973    9.5653 H   0  0  0  0  0  0  0  0  0  0  0  0
   11.1222    1.3044    7.3513 H   0  0  0  0  0  0  0  0  0  0  0  0
    7.0201   -0.4951    2.9534 H   0  0  0  0  0  0  0  0  0  0  0  0
    7.4457   -1.7373   -1.6375 H   0  0  0  0  0  0  0  0  0  0  0  0
    8.7105   -0.6436   -1.0439 H   0  0  0  0  0  0  0  0  0  0  0  0
  1  2  1  0  0  0  0
  1 27  1  0  0  0  0
  1 28  1  0  0  0  0
  2  3  1  0  0  0  0
  2  7  2  0  0  0  0
  3  4  2  0  0  0  0
  4  5  1  0  0  0  0
  4 29  1  0  0  0  0
  5  6  2  0  0  0  0
  5 26  1  0  0  0  0
  6  7  1  0  0  0  0
  6  8  1  0  0  0  0
  8  9  1  0  0  0  0
  8 30  1  0  0  0  0
  8 31  1  0  0  0  0
  9 10  1  0  0  0  0
  9 32  1  0  0  0  0
  9 33  1  0  0  0  0
 10 11  1  0  0  0  0
 10 26  1  0  0  0  0
 11 12  1  0  0  0  0
 11 25  2  0  0  0  0
 12 13  2  0  0  0  0
 12 34  1  0  0  0  0
 13 14  1  0  0  0  0
 13 35  1  0  0  0  0
 14 15  2  0  0  0  0
 14 36  1  0  0  0  0
 15 16  1  0  0  0  0
 15 25  1  0  0  0  0
 16 17  2  0  0  0  0
 16 18  1  0  0  0  0
 18 19  1  0  0  0  0
 18 37  1  0  0  0  0
 19 20  1  0  0  0  0
 19 24  2  0  0  0  0
 20 21  2  0  0  0  0
 20 38  1  0  0  0  0
 21 22  1  0  0  0  0
 21 39  1  0  0  0  0
 22 23  2  0  0  0  0
 22 40  1  0  0  0  0
 23 24  1  0  0  0  0
 23 41  1  0  0  0  0
 24 42  1  0  0  0  0
 25 43  1  0  0  0  0
 26 44  1  0  0  0  0
 26 45  1  0  0  0  0
M  END
$$$$
