CHEMBL400216
 OpenBabel04072215373D

 46 48  0  0  0  0  0  0  0  0999 V2000
    1.9013    0.9048    3.3795 C   0  0  0  0  0  0  0  0  0  0  0  0
    0.4713    0.8915    2.9039 C   0  0  0  0  0  0  0  0  0  0  0  0
    0.1988    1.3751    1.6200 C   0  0  0  0  0  0  0  0  0  0  0  0
   -1.1031    1.3879    1.1098 C   0  0  0  0  0  0  0  0  0  0  0  0
   -2.1724    0.9367    1.8772 C   0  0  0  0  0  0  0  0  0  0  0  0
   -3.5193    0.9632    1.4437 N   0  0  0  0  0  0  0  0  0  0  0  0
   -3.9709    1.1927    0.1500 C   0  0  0  0  0  0  0  0  0  0  0  0
   -3.2049    1.3404   -0.7972 O   0  0  0  0  0  0  0  0  0  0  0  0
   -5.4182    1.2481   -0.0184 C   0  0  0  0  0  0  0  0  0  0  0  0
   -6.1776    2.0460   -0.8720 C   0  0  0  0  0  0  0  0  0  0  0  0
   -5.8165    3.0022   -1.7681 N   0  0  0  0  0  0  0  0  0  0  0  0
   -4.6157    2.9238   -2.5886 C   0  0  0  0  0  0  0  0  0  0  0  0
   -4.8296    3.5982   -3.9261 C   0  0  0  0  0  0  0  0  0  0  0  0
   -4.0629    4.7037   -4.3054 C   0  0  0  0  0  0  0  0  0  0  0  0
   -4.2601    5.2526   -5.5645 C   0  0  0  0  0  0  0  0  0  0  0  0
   -5.1573    4.7830   -6.4569 N   0  0  0  0  0  0  0  0  0  0  0  0
   -5.8854    3.7123   -6.0767 C   0  0  0  0  0  0  0  0  0  0  0  0
   -5.7597    3.0938   -4.8429 C   0  0  0  0  0  0  0  0  0  0  0  0
   -7.5208    1.7176   -0.5934 C   0  0  0  0  0  0  0  0  0  0  0  0
   -7.6325    0.7614    0.3230 N   0  0  0  0  0  0  0  0  0  0  0  0
   -6.3555    0.4536    0.6191 N   0  0  0  0  0  0  0  0  0  0  0  0
   -6.1478   -0.6878    1.4825 C   0  0  0  0  0  0  0  0  0  0  0  0
   -1.9073    0.4541    3.1647 C   0  0  0  0  0  0  0  0  0  0  0  0
   -0.5924    0.4097    3.6906 C   0  0  0  0  0  0  0  0  0  0  0  0
   -0.4233   -0.1663    5.0829 C   0  0  0  0  0  0  0  0  0  0  0  0
    0.8486   -0.1773    5.5622 F   0  0  0  0  0  0  0  0  0  0  0  0
   -1.1588    0.5162    6.0058 F   0  0  0  0  0  0  0  0  0  0  0  0
   -0.8547   -1.4581    5.1561 F   0  0  0  0  0  0  0  0  0  0  0  0
    2.5654    1.3416    2.6255 H   0  0  0  0  0  0  0  0  0  0  0  0
    2.2485   -0.1131    3.5705 H   0  0  0  0  0  0  0  0  0  0  0  0
    1.9927    1.5138    4.2827 H   0  0  0  0  0  0  0  0  0  0  0  0
    0.9998    1.7539    0.9866 H   0  0  0  0  0  0  0  0  0  0  0  0
   -1.2399    1.7973    0.1137 H   0  0  0  0  0  0  0  0  0  0  0  0
   -4.2055    0.8561    2.1723 H   0  0  0  0  0  0  0  0  0  0  0  0
   -6.5398    3.5838   -2.1879 H   0  0  0  0  0  0  0  0  0  0  0  0
   -4.3344    1.8861   -2.8032 H   0  0  0  0  0  0  0  0  0  0  0  0
   -3.7926    3.4153   -2.0592 H   0  0  0  0  0  0  0  0  0  0  0  0
   -3.3134    5.1255   -3.6444 H   0  0  0  0  0  0  0  0  0  0  0  0
   -3.6794    6.1078   -5.8979 H   0  0  0  0  0  0  0  0  0  0  0  0
   -6.5901    3.3453   -6.8184 H   0  0  0  0  0  0  0  0  0  0  0  0
   -6.3636    2.2235   -4.6049 H   0  0  0  0  0  0  0  0  0  0  0  0
   -8.4200    2.1270   -1.0339 H   0  0  0  0  0  0  0  0  0  0  0  0
   -7.1124   -1.1612    1.6996 H   0  0  0  0  0  0  0  0  0  0  0  0
   -5.7230   -0.3526    2.4304 H   0  0  0  0  0  0  0  0  0  0  0  0
   -5.4960   -1.4023    0.9784 H   0  0  0  0  0  0  0  0  0  0  0  0
   -2.7235    0.0767    3.7814 H   0  0  0  0  0  0  0  0  0  0  0  0
  1  2  1  0  0  0  0
  1 29  1  0  0  0  0
  1 30  1  0  0  0  0
  1 31  1  0  0  0  0
  2  3  1  0  0  0  0
  2 24  2  0  0  0  0
  3  4  2  0  0  0  0
  3 32  1  0  0  0  0
  4  5  1  0  0  0  0
  4 33  1  0  0  0  0
  5  6  1  0  0  0  0
  5 23  2  0  0  0  0
  6  7  1  0  0  0  0
  6 34  1  0  0  0  0
  7  8  2  0  0  0  0
  7  9  1  0  0  0  0
  9 10  2  0  0  0  0
  9 21  1  0  0  0  0
 10 11  1  0  0  0  0
 10 19  1  0  0  0  0
 11 12  1  0  0  0  0
 11 35  1  0  0  0  0
 12 13  1  0  0  0  0
 12 36  1  0  0  0  0
 12 37  1  0  0  0  0
 13 14  1  0  0  0  0
 13 18  2  0  0  0  0
 14 15  2  0  0  0  0
 14 38  1  0  0  0  0
 15 16  1  0  0  0  0
 15 39  1  0  0  0  0
 16 17  2  0  0  0  0
 17 18  1  0  0  0  0
 17 40  1  0  0  0  0
 18 41  1  0  0  0  0
 19 20  2  0  0  0  0
 19 42  1  0  0  0  0
 20 21  1  0  0  0  0
 21 22  1  0  0  0  0
 22 43  1  0  0  0  0
 22 44  1  0  0  0  0
 22 45  1  0  0  0  0
 23 24  1  0  0  0  0
 23 46  1  0  0  0  0
 24 25  1  0  0  0  0
 25 26  1  0  0  0  0
 25 27  1  0  0  0  0
 25 28  1  0  0  0  0
M  END
$$$$
