CHEMBL3622959
 OpenBabel04072215363D

 51 55  0  0  0  0  0  0  0  0999 V2000
    2.2458   -0.9130   -1.5912 C   0  0  0  0  0  0  0  0  0  0  0  0
    2.7919    0.1860   -0.7447 C   0  0  0  0  0  0  0  0  0  0  0  0
    4.0897    0.4958   -0.7998 N   0  0  0  0  0  0  0  0  0  0  0  0
    4.2746    1.4061    0.1934 N   0  0  0  0  0  0  0  0  0  0  0  0
    5.5336    2.0526    0.4191 C   0  0  0  0  0  0  0  0  0  0  0  0
    6.4899    1.9445   -0.5674 C   0  0  0  0  0  0  0  0  0  0  0  0
    7.6493    2.6327   -0.3367 C   0  0  0  0  0  0  0  0  0  0  0  0
    7.8820    3.3468    0.7756 N   0  0  0  0  0  0  0  0  0  0  0  0
    6.9197    3.3959    1.7049 C   0  0  0  0  0  0  0  0  0  0  0  0
    7.1019    4.1192    2.8873 N   0  0  0  0  0  0  0  0  0  0  0  0
    8.0348    5.1080    3.2724 C   0  0  0  0  0  0  0  0  0  0  0  0
    9.2374    5.3609    2.5977 C   0  0  0  0  0  0  0  0  0  0  0  0
   10.0958    6.4252    2.9390 C   0  0  0  0  0  0  0  0  0  0  0  0
    9.7002    7.2610    3.9890 C   0  0  0  0  0  0  0  0  0  0  0  0
    8.5440    7.0199    4.7223 C   0  0  0  0  0  0  0  0  0  0  0  0
    8.4891    8.0622    5.6661 C   0  0  0  0  0  0  0  0  0  0  0  0
    9.5138    8.9106    5.5577 N   0  0  0  0  0  0  0  0  0  0  0  0
   10.2375    8.4008    4.5389 N   0  0  0  0  0  0  0  0  0  0  0  0
   11.4436    9.0838    4.1348 C   0  0  0  0  0  0  0  0  0  0  0  0
    7.7333    5.9084    4.3922 C   0  0  0  0  0  0  0  0  0  0  0  0
    5.7264    2.7811    1.5580 N   0  0  0  0  0  0  0  0  0  0  0  0
    3.1136    1.5962    0.9092 C   0  0  0  0  0  0  0  0  0  0  0  0
    2.0919    0.9596    0.2232 C   0  0  0  0  0  0  0  0  0  0  0  0
    0.6203    0.9305    0.4951 C   0  0  0  0  0  0  0  0  0  0  0  0
   -0.0297    2.2497    0.3322 N   0  0  0  0  0  0  0  0  0  0  0  0
    0.3176    3.2678    1.3586 C   0  0  0  0  0  0  0  0  0  0  0  0
   -0.7723    2.7021    2.2915 C   0  0  0  0  0  0  0  0  0  0  0  0
   -0.3616    1.7160    3.2741 O   0  0  0  0  0  0  0  0  0  0  0  0
   -1.3895    2.1827    0.9647 C   0  0  0  0  0  0  0  0  0  0  0  0
    3.0436   -1.4829   -2.0791 H   0  0  0  0  0  0  0  0  0  0  0  0
    1.5769   -0.5182   -2.3597 H   0  0  0  0  0  0  0  0  0  0  0  0
    1.6792   -1.6186   -0.9705 H   0  0  0  0  0  0  0  0  0  0  0  0
    6.3347    1.3914   -1.4849 H   0  0  0  0  0  0  0  0  0  0  0  0
    8.4499    2.6412   -1.0693 H   0  0  0  0  0  0  0  0  0  0  0  0
    6.2483    4.0899    3.4248 H   0  0  0  0  0  0  0  0  0  0  0  0
    9.5396    4.7330    1.7639 H   0  0  0  0  0  0  0  0  0  0  0  0
   11.0110    6.5944    2.3840 H   0  0  0  0  0  0  0  0  0  0  0  0
    7.7328    8.2501    6.4163 H   0  0  0  0  0  0  0  0  0  0  0  0
   11.4287   10.1044    4.5266 H   0  0  0  0  0  0  0  0  0  0  0  0
   11.4907    9.1224    3.0440 H   0  0  0  0  0  0  0  0  0  0  0  0
   12.2991    8.5422    4.5459 H   0  0  0  0  0  0  0  0  0  0  0  0
    6.8448    5.7163    4.9859 H   0  0  0  0  0  0  0  0  0  0  0  0
    3.1268    2.2149    1.7901 H   0  0  0  0  0  0  0  0  0  0  0  0
    0.4436    0.4386    1.4530 H   0  0  0  0  0  0  0  0  0  0  0  0
    0.1457    0.2782   -0.2541 H   0  0  0  0  0  0  0  0  0  0  0  0
    0.1025    4.2925    1.0239 H   0  0  0  0  0  0  0  0  0  0  0  0
    1.3297    3.2855    1.7534 H   0  0  0  0  0  0  0  0  0  0  0  0
   -1.3662    3.4715    2.7922 H   0  0  0  0  0  0  0  0  0  0  0  0
    0.6137    1.7279    3.2627 H   0  0  0  0  0  0  0  0  0  0  0  0
   -2.1070    2.8894    0.5208 H   0  0  0  0  0  0  0  0  0  0  0  0
   -1.8670    1.1981    1.0005 H   0  0  0  0  0  0  0  0  0  0  0  0
  1  2  1  0  0  0  0
  1 30  1  0  0  0  0
  1 31  1  0  0  0  0
  1 32  1  0  0  0  0
  2  3  2  0  0  0  0
  2 23  1  0  0  0  0
  3  4  1  0  0  0  0
  4  5  1  0  0  0  0
  4 22  1  0  0  0  0
  5  6  1  0  0  0  0
  5 21  2  0  0  0  0
  6  7  2  0  0  0  0
  6 33  1  0  0  0  0
  7  8  1  0  0  0  0
  7 34  1  0  0  0  0
  8  9  2  0  0  0  0
  9 10  1  0  0  0  0
  9 21  1  0  0  0  0
 10 11  1  0  0  0  0
 10 35  1  0  0  0  0
 11 12  1  0  0  0  0
 11 20  2  0  0  0  0
 12 13  2  0  0  0  0
 12 36  1  0  0  0  0
 13 14  1  0  0  0  0
 13 37  1  0  0  0  0
 14 15  2  0  0  0  0
 14 18  1  0  0  0  0
 15 16  1  0  0  0  0
 15 20  1  0  0  0  0
 16 17  2  0  0  0  0
 16 38  1  0  0  0  0
 17 18  1  0  0  0  0
 18 19  1  0  0  0  0
 19 39  1  0  0  0  0
 19 40  1  0  0  0  0
 19 41  1  0  0  0  0
 20 42  1  0  0  0  0
 22 23  2  0  0  0  0
 22 43  1  0  0  0  0
 23 24  1  0  0  0  0
 24 25  1  0  0  0  0
 24 44  1  0  0  0  0
 24 45  1  0  0  0  0
 25 26  1  0  0  0  0
 25 29  1  0  0  0  0
 26 27  1  0  0  0  0
 26 46  1  0  0  0  0
 26 47  1  0  0  0  0
 27 28  1  0  0  0  0
 27 29  1  0  0  0  0
 27 48  1  0  0  0  0
 28 49  1  0  0  0  0
 29 50  1  0  0  0  0
 29 51  1  0  0  0  0
M  END
$$$$
