CHEMBL1979690
 OpenBabel04072215363D

 54 58  0  0  0  0  0  0  0  0999 V2000
    1.8294   -1.5569   -1.3755 C   0  0  0  0  0  0  0  0  0  0  0  0
    0.8089   -0.6101   -0.9335 N   0  0  0  0  0  0  0  0  0  0  0  0
   -0.4582   -0.8397   -1.6688 C   0  0  0  0  0  0  0  0  0  0  0  0
   -1.6212    0.0516   -1.1732 C   0  0  0  0  0  0  0  0  0  0  0  0
   -1.7921   -0.1664    0.2705 N   0  0  0  0  0  0  0  0  0  0  0  0
   -3.0228   -0.0499    0.8872 C   0  0  0  0  0  0  0  0  0  0  0  0
   -3.2616   -0.6677    2.1233 C   0  0  0  0  0  0  0  0  0  0  0  0
   -4.5001   -0.5920    2.7730 C   0  0  0  0  0  0  0  0  0  0  0  0
   -5.5601    0.1083    2.2003 C   0  0  0  0  0  0  0  0  0  0  0  0
   -6.7431    0.2950    2.9285 N   0  0  0  0  0  0  0  0  0  0  0  0
   -7.7601    1.2228    2.7297 C   0  0  0  0  0  0  0  0  0  0  0  0
   -8.9226    1.0294    3.3619 N   0  0  0  0  0  0  0  0  0  0  0  0
   -9.9192    1.8903    3.0520 C   0  0  0  0  0  0  0  0  0  0  0  0
   -9.8025    2.9160    2.1394 C   0  0  0  0  0  0  0  0  0  0  0  0
  -11.1437    3.9194    1.7649 Cl  0  0  0  0  0  0  0  0  0  0  0  0
   -8.5476    3.0813    1.5828 C   0  0  0  0  0  0  0  0  0  0  0  0
   -8.2878    4.0915    0.6318 N   0  0  0  0  0  0  0  0  0  0  0  0
   -7.0447    4.7123    0.3662 C   0  0  0  0  0  0  0  0  0  0  0  0
   -6.1270    4.9682    1.3984 C   0  0  0  0  0  0  0  0  0  0  0  0
   -4.9977    5.7771    1.2131 C   0  0  0  0  0  0  0  0  0  0  0  0
   -4.7997    6.2968   -0.0653 C   0  0  0  0  0  0  0  0  0  0  0  0
   -3.8712    7.1736   -0.5609 N   0  0  0  0  0  0  0  0  0  0  0  0
   -3.9520    7.3634   -1.8906 N   0  0  0  0  0  0  0  0  0  0  0  0
   -5.0111    6.6281   -2.2416 C   0  0  0  0  0  0  0  0  0  0  0  0
   -5.6206    5.9845   -1.1410 C   0  0  0  0  0  0  0  0  0  0  0  0
   -6.7643    5.1900   -0.9266 C   0  0  0  0  0  0  0  0  0  0  0  0
   -7.5451    2.2575    1.9066 N   0  0  0  0  0  0  0  0  0  0  0  0
   -5.3374    0.6878    0.9442 C   0  0  0  0  0  0  0  0  0  0  0  0
   -4.0975    0.6160    0.3021 C   0  0  0  0  0  0  0  0  0  0  0  0
   -0.5738    0.1454    1.0354 C   0  0  0  0  0  0  0  0  0  0  0  0
    0.5714   -0.7563    0.5238 C   0  0  0  0  0  0  0  0  0  0  0  0
    2.0296   -1.4315   -2.4450 H   0  0  0  0  0  0  0  0  0  0  0  0
    1.5358   -2.5984   -1.1994 H   0  0  0  0  0  0  0  0  0  0  0  0
    2.7736   -1.3726   -0.8516 H   0  0  0  0  0  0  0  0  0  0  0  0
   -0.7664   -1.8906   -1.5626 H   0  0  0  0  0  0  0  0  0  0  0  0
   -0.3048   -0.6495   -2.7374 H   0  0  0  0  0  0  0  0  0  0  0  0
   -2.5195   -0.2353   -1.7346 H   0  0  0  0  0  0  0  0  0  0  0  0
   -1.4149    1.1102   -1.3783 H   0  0  0  0  0  0  0  0  0  0  0  0
   -2.4696   -1.2484    2.5986 H   0  0  0  0  0  0  0  0  0  0  0  0
   -4.6170   -1.0776    3.7368 H   0  0  0  0  0  0  0  0  0  0  0  0
   -6.9735   -0.3762    3.6418 H   0  0  0  0  0  0  0  0  0  0  0  0
  -10.8534    1.7093    3.5762 H   0  0  0  0  0  0  0  0  0  0  0  0
   -8.8843    3.9874   -0.1816 H   0  0  0  0  0  0  0  0  0  0  0  0
   -6.3076    4.5697    2.3951 H   0  0  0  0  0  0  0  0  0  0  0  0
   -4.3302    6.0008    2.0383 H   0  0  0  0  0  0  0  0  0  0  0  0
   -3.1669    7.6859   -0.0422 H   0  0  0  0  0  0  0  0  0  0  0  0
   -5.3038    6.5999   -3.2828 H   0  0  0  0  0  0  0  0  0  0  0  0
   -7.4304    4.9783   -1.7562 H   0  0  0  0  0  0  0  0  0  0  0  0
   -6.1263    1.2197    0.4209 H   0  0  0  0  0  0  0  0  0  0  0  0
   -3.9971    1.1228   -0.6529 H   0  0  0  0  0  0  0  0  0  0  0  0
   -0.6918   -0.0146    2.1118 H   0  0  0  0  0  0  0  0  0  0  0  0
   -0.3096    1.2029    0.8976 H   0  0  0  0  0  0  0  0  0  0  0  0
    0.3207   -1.7987    0.7627 H   0  0  0  0  0  0  0  0  0  0  0  0
    1.4855   -0.5011    1.0723 H   0  0  0  0  0  0  0  0  0  0  0  0
  1  2  1  0  0  0  0
  1 32  1  0  0  0  0
  1 33  1  0  0  0  0
  1 34  1  0  0  0  0
  2  3  1  0  0  0  0
  2 31  1  0  0  0  0
  3  4  1  0  0  0  0
  3 35  1  0  0  0  0
  3 36  1  0  0  0  0
  4  5  1  0  0  0  0
  4 37  1  0  0  0  0
  4 38  1  0  0  0  0
  5  6  1  0  0  0  0
  5 30  1  0  0  0  0
  6  7  1  0  0  0  0
  6 29  2  0  0  0  0
  7  8  2  0  0  0  0
  7 39  1  0  0  0  0
  8  9  1  0  0  0  0
  8 40  1  0  0  0  0
  9 10  1  0  0  0  0
  9 28  2  0  0  0  0
 10 11  1  0  0  0  0
 10 41  1  0  0  0  0
 11 12  1  0  0  0  0
 11 27  2  0  0  0  0
 12 13  2  0  0  0  0
 13 14  1  0  0  0  0
 13 42  1  0  0  0  0
 14 15  1  0  0  0  0
 14 16  2  0  0  0  0
 16 17  1  0  0  0  0
 16 27  1  0  0  0  0
 17 18  1  0  0  0  0
 17 43  1  0  0  0  0
 18 19  1  0  0  0  0
 18 26  2  0  0  0  0
 19 20  2  0  0  0  0
 19 44  1  0  0  0  0
 20 21  1  0  0  0  0
 20 45  1  0  0  0  0
 21 22  1  0  0  0  0
 21 25  2  0  0  0  0
 22 23  1  0  0  0  0
 22 46  1  0  0  0  0
 23 24  2  0  0  0  0
 24 25  1  0  0  0  0
 24 47  1  0  0  0  0
 25 26  1  0  0  0  0
 26 48  1  0  0  0  0
 28 29  1  0  0  0  0
 28 49  1  0  0  0  0
 29 50  1  0  0  0  0
 30 31  1  0  0  0  0
 30 51  1  0  0  0  0
 30 52  1  0  0  0  0
 31 53  1  0  0  0  0
 31 54  1  0  0  0  0
M  END
$$$$
