CHEMBL1615182
 OpenBabel04072215363D

 41 44  0  0  0  0  0  0  0  0999 V2000
    1.8903   -2.1000   -0.3279 N   0  0  0  0  0  0  0  0  0  0  0  0
    3.0220   -1.5457   -0.2813 C   0  0  0  0  0  0  0  0  0  0  0  0
    4.3861   -0.8775   -0.2252 C   0  0  0  0  0  0  0  0  0  0  0  0
    4.6422   -0.2788    1.0694 N   0  0  0  0  0  0  0  0  0  0  0  0
    5.8293    0.4183    1.1921 C   0  0  0  0  0  0  0  0  0  0  0  0
    6.3816    1.0136    0.1454 N   0  0  0  0  0  0  0  0  0  0  0  0
    7.4265    1.7909    0.4238 C   0  0  0  0  0  0  0  0  0  0  0  0
    7.9296    2.0306    1.6324 N   0  0  0  0  0  0  0  0  0  0  0  0
    7.3720    1.2968    2.6016 C   0  0  0  0  0  0  0  0  0  0  0  0
    7.9309    1.3626    3.9102 N   0  0  0  0  0  0  0  0  0  0  0  0
    8.6227    2.4325    4.4896 C   0  0  0  0  0  0  0  0  0  0  0  0
    8.7236    3.6579    3.8899 N   0  0  0  0  0  0  0  0  0  0  0  0
    8.8216    4.8831    4.5974 C   0  0  0  0  0  0  0  0  0  0  0  0
    9.3956    4.9907    5.8745 C   0  0  0  0  0  0  0  0  0  0  0  0
    9.3362    6.1784    6.6108 C   0  0  0  0  0  0  0  0  0  0  0  0
    8.7056    7.2959    6.0781 C   0  0  0  0  0  0  0  0  0  0  0  0
    8.1685    7.2184    4.7993 C   0  0  0  0  0  0  0  0  0  0  0  0
    7.5289    8.2875    4.2411 O   0  0  0  0  0  0  0  0  0  0  0  0
    8.2353    6.0372    4.0551 C   0  0  0  0  0  0  0  0  0  0  0  0
    9.0264    2.1079    5.7012 N   0  0  0  0  0  0  0  0  0  0  0  0
    8.5679    0.8541    5.9497 C   0  0  0  0  0  0  0  0  0  0  0  0
    8.7288    0.0757    7.1052 C   0  0  0  0  0  0  0  0  0  0  0  0
    8.1875   -1.2123    7.1332 C   0  0  0  0  0  0  0  0  0  0  0  0
    7.4953   -1.7137    6.0331 C   0  0  0  0  0  0  0  0  0  0  0  0
    7.3170   -0.9442    4.8781 C   0  0  0  0  0  0  0  0  0  0  0  0
    7.8616    0.3508    4.8650 C   0  0  0  0  0  0  0  0  0  0  0  0
    6.3333    0.4726    2.4128 N   0  0  0  0  0  0  0  0  0  0  0  0
    4.4059   -0.1224   -1.0207 H   0  0  0  0  0  0  0  0  0  0  0  0
    5.1474   -1.6338   -0.4523 H   0  0  0  0  0  0  0  0  0  0  0  0
    4.5220   -0.8765    1.8784 H   0  0  0  0  0  0  0  0  0  0  0  0
    7.9161    2.2708   -0.4180 H   0  0  0  0  0  0  0  0  0  0  0  0
    8.3759    3.7650    2.9406 H   0  0  0  0  0  0  0  0  0  0  0  0
    9.8961    4.1407    6.3302 H   0  0  0  0  0  0  0  0  0  0  0  0
    9.7675    6.2116    7.6084 H   0  0  0  0  0  0  0  0  0  0  0  0
    8.6436    8.2037    6.6694 H   0  0  0  0  0  0  0  0  0  0  0  0
    7.4527    8.9819    4.9170 H   0  0  0  0  0  0  0  0  0  0  0  0
    7.7845    6.0207    3.0676 H   0  0  0  0  0  0  0  0  0  0  0  0
    9.2725    0.4753    7.9540 H   0  0  0  0  0  0  0  0  0  0  0  0
    8.3170   -1.8276    8.0195 H   0  0  0  0  0  0  0  0  0  0  0  0
    7.0919   -2.7237    6.0692 H   0  0  0  0  0  0  0  0  0  0  0  0
    6.7856   -1.3573    4.0274 H   0  0  0  0  0  0  0  0  0  0  0  0
  1  2  3  0  0  0  0
  2  3  1  0  0  0  0
  3  4  1  0  0  0  0
  3 28  1  0  0  0  0
  3 29  1  0  0  0  0
  4  5  1  0  0  0  0
  4 30  1  0  0  0  0
  5  6  1  0  0  0  0
  5 27  2  0  0  0  0
  6  7  2  0  0  0  0
  7  8  1  0  0  0  0
  7 31  1  0  0  0  0
  8  9  2  0  0  0  0
  9 10  1  0  0  0  0
  9 27  1  0  0  0  0
 10 11  1  0  0  0  0
 10 26  1  0  0  0  0
 11 12  1  0  0  0  0
 11 20  2  0  0  0  0
 12 13  1  0  0  0  0
 12 32  1  0  0  0  0
 13 14  1  0  0  0  0
 13 19  2  0  0  0  0
 14 15  2  0  0  0  0
 14 33  1  0  0  0  0
 15 16  1  0  0  0  0
 15 34  1  0  0  0  0
 16 17  2  0  0  0  0
 16 35  1  0  0  0  0
 17 18  1  0  0  0  0
 17 19  1  0  0  0  0
 18 36  1  0  0  0  0
 19 37  1  0  0  0  0
 20 21  1  0  0  0  0
 21 22  1  0  0  0  0
 21 26  2  0  0  0  0
 22 23  2  0  0  0  0
 22 38  1  0  0  0  0
 23 24  1  0  0  0  0
 23 39  1  0  0  0  0
 24 25  2  0  0  0  0
 24 40  1  0  0  0  0
 25 26  1  0  0  0  0
 25 41  1  0  0  0  0
M  END
$$$$
