CHEMBL3894696
 OpenBabel04072215373D

 55 58  0  0  0  0  0  0  0  0999 V2000
    2.5410    0.2280    0.0752 C   0  0  0  0  0  0  0  0  0  0  0  0
    1.0427    0.0906    0.1095 C   0  0  0  0  0  0  0  0  0  0  0  0
    0.3116    1.2966    0.1922 C   0  0  0  0  0  0  0  0  0  0  0  0
   -1.0849    1.2953    0.1845 C   0  0  0  0  0  0  0  0  0  0  0  0
   -1.7705    0.1018    0.0078 C   0  0  0  0  0  0  0  0  0  0  0  0
   -3.1482    0.0174   -0.1010 O   0  0  0  0  0  0  0  0  0  0  0  0
   -3.8321    1.0189   -0.7648 C   0  0  0  0  0  0  0  0  0  0  0  0
   -3.2979    1.7246   -1.8360 C   0  0  0  0  0  0  0  0  0  0  0  0
   -4.0355    2.7703   -2.3446 C   0  0  0  0  0  0  0  0  0  0  0  0
   -5.2664    3.0873   -1.9080 N   0  0  0  0  0  0  0  0  0  0  0  0
   -5.8280    2.3449   -0.9355 C   0  0  0  0  0  0  0  0  0  0  0  0
   -7.1359    2.6408   -0.5138 N   0  0  0  0  0  0  0  0  0  0  0  0
   -7.8831    3.6909   -1.0147 C   0  0  0  0  0  0  0  0  0  0  0  0
   -7.5429    4.5075   -1.8586 O   0  0  0  0  0  0  0  0  0  0  0  0
   -9.2544    3.8747   -0.4469 C   0  0  0  0  0  0  0  0  0  0  0  0
   -9.4040    4.2251    1.0159 C   0  0  0  0  0  0  0  0  0  0  0  0
   -9.9983    2.9537    0.4821 C   0  0  0  0  0  0  0  0  0  0  0  0
   -5.1357    1.2951   -0.3359 C   0  0  0  0  0  0  0  0  0  0  0  0
   -1.0586   -1.1034   -0.0218 C   0  0  0  0  0  0  0  0  0  0  0  0
    0.3459   -1.1419    0.0336 C   0  0  0  0  0  0  0  0  0  0  0  0
    1.0640   -2.3799    0.0459 N   0  0  0  0  0  0  0  0  0  0  0  0
    0.5114   -3.6520   -0.0917 C   0  0  0  0  0  0  0  0  0  0  0  0
   -0.6522   -3.8910   -0.3892 O   0  0  0  0  0  0  0  0  0  0  0  0
    1.4203   -4.6672    0.2099 N   0  0  0  0  0  0  0  0  0  0  0  0
    1.0171   -6.0333    0.1753 C   0  0  0  0  0  0  0  0  0  0  0  0
    1.3473   -6.8618    1.2507 C   0  0  0  0  0  0  0  0  0  0  0  0
    0.8833   -8.1799    1.2870 C   0  0  0  0  0  0  0  0  0  0  0  0
    0.1413   -8.6901    0.2250 C   0  0  0  0  0  0  0  0  0  0  0  0
   -0.2837   -9.9595    0.3015 F   0  0  0  0  0  0  0  0  0  0  0  0
   -0.1540   -7.9080   -0.8865 C   0  0  0  0  0  0  0  0  0  0  0  0
   -0.9118   -8.4823   -2.0497 C   0  0  0  0  0  0  0  0  0  0  0  0
   -1.2280   -9.8034   -1.9397 F   0  0  0  0  0  0  0  0  0  0  0  0
   -2.0934   -7.8428   -2.2752 F   0  0  0  0  0  0  0  0  0  0  0  0
   -0.2092   -8.3745   -3.2138 F   0  0  0  0  0  0  0  0  0  0  0  0
    0.2805   -6.5617   -0.8893 C   0  0  0  0  0  0  0  0  0  0  0  0
    2.8450    1.2669    0.2640 H   0  0  0  0  0  0  0  0  0  0  0  0
    2.9255   -0.0411   -0.9132 H   0  0  0  0  0  0  0  0  0  0  0  0
    3.0143   -0.3820    0.8476 H   0  0  0  0  0  0  0  0  0  0  0  0
    0.8199    2.2535    0.2535 H   0  0  0  0  0  0  0  0  0  0  0  0
   -1.6078    2.2415    0.2807 H   0  0  0  0  0  0  0  0  0  0  0  0
   -2.3207    1.5099   -2.2496 H   0  0  0  0  0  0  0  0  0  0  0  0
   -3.6493    3.4097   -3.1316 H   0  0  0  0  0  0  0  0  0  0  0  0
   -7.5352    2.0598    0.2013 H   0  0  0  0  0  0  0  0  0  0  0  0
   -9.8869    4.4346   -1.1353 H   0  0  0  0  0  0  0  0  0  0  0  0
  -10.0644    5.0505    1.2594 H   0  0  0  0  0  0  0  0  0  0  0  0
   -8.5352    4.1529    1.6597 H   0  0  0  0  0  0  0  0  0  0  0  0
  -11.0808    2.9197    0.3773 H   0  0  0  0  0  0  0  0  0  0  0  0
   -9.5712    2.0131    0.7927 H   0  0  0  0  0  0  0  0  0  0  0  0
   -5.5782    0.7008    0.4539 H   0  0  0  0  0  0  0  0  0  0  0  0
   -1.6529   -2.0063   -0.0951 H   0  0  0  0  0  0  0  0  0  0  0  0
    2.0727   -2.3262    0.0650 H   0  0  0  0  0  0  0  0  0  0  0  0
    2.0916   -4.4238    0.9245 H   0  0  0  0  0  0  0  0  0  0  0  0
    1.9049   -6.4817    2.1018 H   0  0  0  0  0  0  0  0  0  0  0  0
    1.0795   -8.8149    2.1466 H   0  0  0  0  0  0  0  0  0  0  0  0
    0.0330   -5.9391   -1.7515 H   0  0  0  0  0  0  0  0  0  0  0  0
  1  2  1  0  0  0  0
  1 36  1  0  0  0  0
  1 37  1  0  0  0  0
  1 38  1  0  0  0  0
  2  3  1  0  0  0  0
  2 20  2  0  0  0  0
  3  4  2  0  0  0  0
  3 39  1  0  0  0  0
  4  5  1  0  0  0  0
  4 40  1  0  0  0  0
  5  6  1  0  0  0  0
  5 19  2  0  0  0  0
  6  7  1  0  0  0  0
  7  8  1  0  0  0  0
  7 18  2  0  0  0  0
  8  9  2  0  0  0  0
  8 41  1  0  0  0  0
  9 10  1  0  0  0  0
  9 42  1  0  0  0  0
 10 11  2  0  0  0  0
 11 12  1  0  0  0  0
 11 18  1  0  0  0  0
 12 13  1  0  0  0  0
 12 43  1  0  0  0  0
 13 14  2  0  0  0  0
 13 15  1  0  0  0  0
 15 16  1  0  0  0  0
 15 17  1  0  0  0  0
 15 44  1  0  0  0  0
 16 17  1  0  0  0  0
 16 45  1  0  0  0  0
 16 46  1  0  0  0  0
 17 47  1  0  0  0  0
 17 48  1  0  0  0  0
 18 49  1  0  0  0  0
 19 20  1  0  0  0  0
 19 50  1  0  0  0  0
 20 21  1  0  0  0  0
 21 22  1  0  0  0  0
 21 51  1  0  0  0  0
 22 23  2  0  0  0  0
 22 24  1  0  0  0  0
 24 25  1  0  0  0  0
 24 52  1  0  0  0  0
 25 26  1  0  0  0  0
 25 35  2  0  0  0  0
 26 27  2  0  0  0  0
 26 53  1  0  0  0  0
 27 28  1  0  0  0  0
 27 54  1  0  0  0  0
 28 29  1  0  0  0  0
 28 30  2  0  0  0  0
 30 31  1  0  0  0  0
 30 35  1  0  0  0  0
 31 32  1  0  0  0  0
 31 33  1  0  0  0  0
 31 34  1  0  0  0  0
 35 55  1  0  0  0  0
M  END
$$$$
