CHEMBL2018746
 OpenBabel04072215363D

 52 54  0  0  0  0  0  0  0  0999 V2000
    2.8350    3.9822   -2.7777 C   0  0  0  0  0  0  0  0  0  0  0  0
    2.5080    2.5808   -2.2783 C   0  0  0  0  0  0  0  0  0  0  0  0
    2.9538    1.4974   -3.2553 C   0  0  0  0  0  0  0  0  0  0  0  0
    4.4445    1.5652   -3.5160 C   0  0  0  0  0  0  0  0  0  0  0  0
    4.8822    1.9866   -4.5815 O   0  0  0  0  0  0  0  0  0  0  0  0
    5.2057    1.1141   -2.4529 N   0  0  0  0  0  0  0  0  0  0  0  0
    6.6144    1.1448   -2.4541 C   0  0  0  0  0  0  0  0  0  0  0  0
    7.3077    2.2827   -2.8826 C   0  0  0  0  0  0  0  0  0  0  0  0
    8.7084    2.3228   -2.8438 C   0  0  0  0  0  0  0  0  0  0  0  0
    9.4397    1.2350   -2.3657 C   0  0  0  0  0  0  0  0  0  0  0  0
   10.8513    1.2497   -2.3991 N   0  0  0  0  0  0  0  0  0  0  0  0
   11.7134    0.5056   -1.5576 C   0  0  0  0  0  0  0  0  0  0  0  0
   11.2952    0.2356   -0.3054 N   0  0  0  0  0  0  0  0  0  0  0  0
   12.0883   -0.5256    0.4424 C   0  0  0  0  0  0  0  0  0  0  0  0
   13.2526   -1.0647    0.0581 N   0  0  0  0  0  0  0  0  0  0  0  0
   13.6586   -0.8070   -1.1948 C   0  0  0  0  0  0  0  0  0  0  0  0
   14.8023   -1.4374   -1.6961 C   0  0  0  0  0  0  0  0  0  0  0  0
   15.2719   -1.2542   -3.0177 C   0  0  0  0  0  0  0  0  0  0  0  0
   16.1928   -2.1996   -3.3958 O   0  0  0  0  0  0  0  0  0  0  0  0
   17.4936   -1.7533   -3.7523 C   0  0  0  0  0  0  0  0  0  0  0  0
   14.6037   -0.3667   -3.8543 C   0  0  0  0  0  0  0  0  0  0  0  0
   14.7862    0.0143   -5.1445 O   0  0  0  0  0  0  0  0  0  0  0  0
   15.8202   -0.4877   -5.9558 C   0  0  0  0  0  0  0  0  0  0  0  0
   13.4474    0.2629   -3.3494 C   0  0  0  0  0  0  0  0  0  0  0  0
   12.9403    0.0241   -2.0496 C   0  0  0  0  0  0  0  0  0  0  0  0
    8.7322    0.0914   -1.9747 C   0  0  0  0  0  0  0  0  0  0  0  0
    7.3285    0.0273   -2.0079 C   0  0  0  0  0  0  0  0  0  0  0  0
    6.6482   -1.2672   -1.6555 C   0  0  0  0  0  0  0  0  0  0  0  0
    2.4846    4.7308   -2.0614 H   0  0  0  0  0  0  0  0  0  0  0  0
    2.3536    4.1761   -3.7414 H   0  0  0  0  0  0  0  0  0  0  0  0
    3.9139    4.1229   -2.9001 H   0  0  0  0  0  0  0  0  0  0  0  0
    1.4254    2.4996   -2.1277 H   0  0  0  0  0  0  0  0  0  0  0  0
    2.9806    2.4285   -1.3011 H   0  0  0  0  0  0  0  0  0  0  0  0
    2.4310    1.6026   -4.2130 H   0  0  0  0  0  0  0  0  0  0  0  0
    2.6992    0.5048   -2.8638 H   0  0  0  0  0  0  0  0  0  0  0  0
    4.7610    0.4518   -1.8314 H   0  0  0  0  0  0  0  0  0  0  0  0
    6.7626    3.1609   -3.2268 H   0  0  0  0  0  0  0  0  0  0  0  0
    9.2111    3.2270   -3.1985 H   0  0  0  0  0  0  0  0  0  0  0  0
   11.2626    2.1453   -2.6326 H   0  0  0  0  0  0  0  0  0  0  0  0
   11.7579   -0.7290    1.4562 H   0  0  0  0  0  0  0  0  0  0  0  0
   15.3138   -2.1467   -1.0430 H   0  0  0  0  0  0  0  0  0  0  0  0
   18.2379   -2.3729   -3.2408 H   0  0  0  0  0  0  0  0  0  0  0  0
   17.6869   -0.7023   -3.5240 H   0  0  0  0  0  0  0  0  0  0  0  0
   17.6391   -1.9522   -4.8195 H   0  0  0  0  0  0  0  0  0  0  0  0
   15.6700   -0.0731   -6.9584 H   0  0  0  0  0  0  0  0  0  0  0  0
   15.7754   -1.5751   -6.0435 H   0  0  0  0  0  0  0  0  0  0  0  0
   16.7927   -0.1184   -5.6228 H   0  0  0  0  0  0  0  0  0  0  0  0
   12.8851    0.9058   -4.0264 H   0  0  0  0  0  0  0  0  0  0  0  0
    9.2865   -0.7933   -1.6699 H   0  0  0  0  0  0  0  0  0  0  0  0
    7.3665   -2.0892   -1.5739 H   0  0  0  0  0  0  0  0  0  0  0  0
    5.9394   -1.5475   -2.4436 H   0  0  0  0  0  0  0  0  0  0  0  0
    6.1175   -1.1757   -0.7040 H   0  0  0  0  0  0  0  0  0  0  0  0
  1  2  1  0  0  0  0
  1 29  1  0  0  0  0
  1 30  1  0  0  0  0
  1 31  1  0  0  0  0
  2  3  1  0  0  0  0
  2 32  1  0  0  0  0
  2 33  1  0  0  0  0
  3  4  1  0  0  0  0
  3 34  1  0  0  0  0
  3 35  1  0  0  0  0
  4  5  2  0  0  0  0
  4  6  1  0  0  0  0
  6  7  1  0  0  0  0
  6 36  1  0  0  0  0
  7  8  1  0  0  0  0
  7 27  2  0  0  0  0
  8  9  2  0  0  0  0
  8 37  1  0  0  0  0
  9 10  1  0  0  0  0
  9 38  1  0  0  0  0
 10 11  1  0  0  0  0
 10 26  2  0  0  0  0
 11 12  1  0  0  0  0
 11 39  1  0  0  0  0
 12 13  1  0  0  0  0
 12 25  2  0  0  0  0
 13 14  2  0  0  0  0
 14 15  1  0  0  0  0
 14 40  1  0  0  0  0
 15 16  2  0  0  0  0
 16 17  1  0  0  0  0
 16 25  1  0  0  0  0
 17 18  2  0  0  0  0
 17 41  1  0  0  0  0
 18 19  1  0  0  0  0
 18 21  1  0  0  0  0
 19 20  1  0  0  0  0
 20 42  1  0  0  0  0
 20 43  1  0  0  0  0
 20 44  1  0  0  0  0
 21 22  1  0  0  0  0
 21 24  2  0  0  0  0
 22 23  1  0  0  0  0
 23 45  1  0  0  0  0
 23 46  1  0  0  0  0
 23 47  1  0  0  0  0
 24 25  1  0  0  0  0
 24 48  1  0  0  0  0
 26 27  1  0  0  0  0
 26 49  1  0  0  0  0
 27 28  1  0  0  0  0
 28 50  1  0  0  0  0
 28 51  1  0  0  0  0
 28 52  1  0  0  0  0
M  END
$$$$
