CHEMBL397757
 OpenBabel04072215373D

 53 56  0  0  0  0  0  0  0  0999 V2000
    8.4163    7.8508    7.8516 C   0  0  0  0  0  0  0  0  0  0  0  0
    7.5545    7.6606    6.7253 O   0  0  0  0  0  0  0  0  0  0  0  0
    8.2197    7.4915    5.5474 C   0  0  0  0  0  0  0  0  0  0  0  0
    9.4399    7.4736    5.4655 O   0  0  0  0  0  0  0  0  0  0  0  0
    7.2947    7.4123    4.5435 N   0  0  0  0  0  0  0  0  0  0  0  0
    7.6677    7.2117    3.2378 C   0  0  0  0  0  0  0  0  0  0  0  0
    8.8382    6.8328    2.7943 N   0  0  0  0  0  0  0  0  0  0  0  0
    8.7349    6.7914    1.4334 C   0  0  0  0  0  0  0  0  0  0  0  0
    9.6968    6.4296    0.4855 C   0  0  0  0  0  0  0  0  0  0  0  0
    9.3604    6.5041   -0.8698 C   0  0  0  0  0  0  0  0  0  0  0  0
    8.1186    7.0149   -1.2772 C   0  0  0  0  0  0  0  0  0  0  0  0
    7.8043    7.2464   -2.6074 O   0  0  0  0  0  0  0  0  0  0  0  0
    8.8113    7.7306   -3.4436 C   0  0  0  0  0  0  0  0  0  0  0  0
    9.7938    8.5995   -2.9526 C   0  0  0  0  0  0  0  0  0  0  0  0
   10.8725    8.9643   -3.7447 C   0  0  0  0  0  0  0  0  0  0  0  0
   10.9601    8.5712   -5.0758 C   0  0  0  0  0  0  0  0  0  0  0  0
   12.0435    8.9492   -5.9100 N   0  0  0  0  0  0  0  0  0  0  0  0
   13.0177    9.8746   -5.5701 C   0  0  0  0  0  0  0  0  0  0  0  0
   13.0742   10.4799   -4.5036 O   0  0  0  0  0  0  0  0  0  0  0  0
   13.9258   10.1011   -6.5897 N   0  0  0  0  0  0  0  0  0  0  0  0
   14.9637   11.0519   -6.3915 C   0  0  0  0  0  0  0  0  0  0  0  0
   15.7560   11.0566   -5.2352 C   0  0  0  0  0  0  0  0  0  0  0  0
   16.7308   12.0497   -5.0383 C   0  0  0  0  0  0  0  0  0  0  0  0
   17.6070   12.0521   -3.8063 C   0  0  0  0  0  0  0  0  0  0  0  0
   17.3504   11.0304   -2.9435 F   0  0  0  0  0  0  0  0  0  0  0  0
   18.9287   11.9473   -4.1215 F   0  0  0  0  0  0  0  0  0  0  0  0
   17.4885   13.1976   -3.0808 F   0  0  0  0  0  0  0  0  0  0  0  0
   16.8848   13.0526   -6.0106 C   0  0  0  0  0  0  0  0  0  0  0  0
   16.1003   13.0470   -7.1668 C   0  0  0  0  0  0  0  0  0  0  0  0
   15.1632   12.0372   -7.3581 C   0  0  0  0  0  0  0  0  0  0  0  0
   14.3919   12.0547   -8.4567 F   0  0  0  0  0  0  0  0  0  0  0  0
    9.9297    7.7836   -5.5843 C   0  0  0  0  0  0  0  0  0  0  0  0
    8.8518    7.3663   -4.7928 N   0  3  0  0  0  0  0  0  0  0  0  0
    7.9379    6.6528   -5.3265 O   0  5  0  0  0  0  0  0  0  0  0  0
    7.1202    7.3240   -0.3353 C   0  0  0  0  0  0  0  0  0  0  0  0
    7.4708    7.1883    1.0169 C   0  0  0  0  0  0  0  0  0  0  0  0
    6.7883    7.3874    2.1945 N   0  0  0  0  0  0  0  0  0  0  0  0
    7.8249    7.7187    8.7608 H   0  0  0  0  0  0  0  0  0  0  0  0
    8.8129    8.8706    7.8370 H   0  0  0  0  0  0  0  0  0  0  0  0
    9.2335    7.1206    7.8699 H   0  0  0  0  0  0  0  0  0  0  0  0
    6.3385    7.5696    4.8022 H   0  0  0  0  0  0  0  0  0  0  0  0
   10.6828    6.1125    0.8075 H   0  0  0  0  0  0  0  0  0  0  0  0
   10.1101    6.2068   -1.5971 H   0  0  0  0  0  0  0  0  0  0  0  0
    9.7700    8.9602   -1.9274 H   0  0  0  0  0  0  0  0  0  0  0  0
   11.6441    9.5477   -3.2524 H   0  0  0  0  0  0  0  0  0  0  0  0
   12.1032    8.5282   -6.8267 H   0  0  0  0  0  0  0  0  0  0  0  0
   13.5231   10.1063   -7.5190 H   0  0  0  0  0  0  0  0  0  0  0  0
   15.6121   10.2891   -4.4755 H   0  0  0  0  0  0  0  0  0  0  0  0
   17.6185   13.8451   -5.8646 H   0  0  0  0  0  0  0  0  0  0  0  0
   16.2030   13.8323   -7.9091 H   0  0  0  0  0  0  0  0  0  0  0  0
    9.8506    7.4315   -6.6010 H   0  0  0  0  0  0  0  0  0  0  0  0
    6.1438    7.6671   -0.6451 H   0  0  0  0  0  0  0  0  0  0  0  0
    5.8267    7.6775    2.2748 H   0  0  0  0  0  0  0  0  0  0  0  0
  1  2  1  0  0  0  0
  1 38  1  0  0  0  0
  1 39  1  0  0  0  0
  1 40  1  0  0  0  0
  2  3  1  0  0  0  0
  3  4  2  0  0  0  0
  3  5  1  0  0  0  0
  5  6  1  0  0  0  0
  5 41  1  0  0  0  0
  6  7  2  0  0  0  0
  6 37  1  0  0  0  0
  7  8  1  0  0  0  0
  8  9  1  0  0  0  0
  8 36  2  0  0  0  0
  9 10  2  0  0  0  0
  9 42  1  0  0  0  0
 10 11  1  0  0  0  0
 10 43  1  0  0  0  0
 11 12  1  0  0  0  0
 11 35  2  0  0  0  0
 12 13  1  0  0  0  0
 13 14  1  0  0  0  0
 13 33  2  0  0  0  0
 14 15  2  0  0  0  0
 14 44  1  0  0  0  0
 15 16  1  0  0  0  0
 15 45  1  0  0  0  0
 16 17  1  0  0  0  0
 16 32  2  0  0  0  0
 17 18  1  0  0  0  0
 17 46  1  0  0  0  0
 18 19  2  0  0  0  0
 18 20  1  0  0  0  0
 20 21  1  0  0  0  0
 20 47  1  0  0  0  0
 21 22  1  0  0  0  0
 21 30  2  0  0  0  0
 22 23  2  0  0  0  0
 22 48  1  0  0  0  0
 23 24  1  0  0  0  0
 23 28  1  0  0  0  0
 24 25  1  0  0  0  0
 24 26  1  0  0  0  0
 24 27  1  0  0  0  0
 28 29  2  0  0  0  0
 28 49  1  0  0  0  0
 29 30  1  0  0  0  0
 29 50  1  0  0  0  0
 30 31  1  0  0  0  0
 32 33  1  0  0  0  0
 32 51  1  0  0  0  0
 33 34  1  0  0  0  0
 35 36  1  0  0  0  0
 35 52  1  0  0  0  0
 36 37  1  0  0  0  0
 37 53  1  0  0  0  0
M  CHG  2  33   1  34  -1
M  END
$$$$
