CHEMBL4784644
 OpenBabel04072215383D

 80 86  0  0  0  0  0  0  0  0999 V2000
    2.6802    0.9577   -0.6687 C   0  0  0  0  0  0  0  0  0  0  0  0
    2.4868   -0.3240   -0.0783 O   0  0  0  0  0  0  0  0  0  0  0  0
    3.2418   -0.6705    1.0063 C   0  0  0  0  0  0  0  0  0  0  0  0
    4.3940    0.0223    1.3941 C   0  0  0  0  0  0  0  0  0  0  0  0
    5.0586   -0.2829    2.6117 C   0  0  0  0  0  0  0  0  0  0  0  0
    6.1593    0.4068    3.1333 C   0  0  0  0  0  0  0  0  0  0  0  0
    6.6484    1.5039    2.4329 O   0  0  0  0  0  0  0  0  0  0  0  0
    8.0140    1.7039    2.4480 C   0  0  0  0  0  0  0  0  0  0  0  0
    8.9333    0.6508    2.4889 C   0  0  0  0  0  0  0  0  0  0  0  0
   10.3049    0.9007    2.4415 C   0  0  0  0  0  0  0  0  0  0  0  0
   10.7963    2.2008    2.2797 C   0  0  0  0  0  0  0  0  0  0  0  0
   12.1807    2.3828    2.1022 N   0  0  0  0  0  0  0  0  0  0  0  0
   12.8274    3.2711    1.2129 C   0  0  0  0  0  0  0  0  0  0  0  0
   12.0779    4.1972    0.5638 N   0  0  0  0  0  0  0  0  0  0  0  0
   12.6794    5.0803   -0.2539 C   0  0  0  0  0  0  0  0  0  0  0  0
   14.0369    5.1012   -0.4862 C   0  0  0  0  0  0  0  0  0  0  0  0
   14.8242    4.1495    0.1525 C   0  0  0  0  0  0  0  0  0  0  0  0
   16.2165    4.1534   -0.0226 N   0  0  0  0  0  0  0  0  0  0  0  0
   16.9966    3.1886    0.5538 C   0  0  0  0  0  0  0  0  0  0  0  0
   16.5486    2.2290    1.3780 C   0  0  0  0  0  0  0  0  0  0  0  0
   17.4656    1.2059    1.8905 C   0  0  0  0  0  0  0  0  0  0  0  0
   18.1856    1.4126    3.0756 C   0  0  0  0  0  0  0  0  0  0  0  0
   19.0729    0.4356    3.5345 C   0  0  0  0  0  0  0  0  0  0  0  0
   19.2379   -0.7390    2.8086 C   0  0  0  0  0  0  0  0  0  0  0  0
   20.0916   -1.6727    3.2481 F   0  0  0  0  0  0  0  0  0  0  0  0
   18.5320   -0.9587    1.6319 C   0  0  0  0  0  0  0  0  0  0  0  0
   17.6452    0.0150    1.1708 C   0  0  0  0  0  0  0  0  0  0  0  0
   15.0777    2.1948    1.6668 C   0  0  0  0  0  0  0  0  0  0  0  0
   14.5877    1.3069    2.3608 O   0  0  0  0  0  0  0  0  0  0  0  0
   14.2169    3.2314    1.0295 C   0  0  0  0  0  0  0  0  0  0  0  0
    9.8721    3.2529    2.2587 C   0  0  0  0  0  0  0  0  0  0  0  0
    8.4982    3.0061    2.3343 C   0  0  0  0  0  0  0  0  0  0  0  0
    7.6511    4.0454    2.2914 F   0  0  0  0  0  0  0  0  0  0  0  0
    6.7686    0.0846    4.2907 N   0  0  0  0  0  0  0  0  0  0  0  0
    6.2947   -0.9994    4.9017 C   0  0  0  0  0  0  0  0  0  0  0  0
    5.2384   -1.7263    4.5143 N   0  0  0  0  0  0  0  0  0  0  0  0
    4.6170   -1.3500    3.3904 C   0  0  0  0  0  0  0  0  0  0  0  0
    3.5080   -2.0669    2.9694 C   0  0  0  0  0  0  0  0  0  0  0  0
    2.8290   -1.7655    1.7810 C   0  0  0  0  0  0  0  0  0  0  0  0
    1.7776   -2.6134    1.5276 O   0  0  0  0  0  0  0  0  0  0  0  0
    1.4915   -2.8781    0.1502 C   0  0  0  0  0  0  0  0  0  0  0  0
    0.9355   -4.2998   -0.0128 C   0  0  0  0  0  0  0  0  0  0  0  0
   -0.3704   -4.4695    0.7683 C   0  0  0  0  0  0  0  0  0  0  0  0
   -1.0675   -5.7580    0.5661 N   0  0  0  0  0  0  0  0  0  0  0  0
   -2.3260   -5.7610    1.3444 C   0  0  0  0  0  0  0  0  0  0  0  0
   -1.8898   -6.0911    2.7615 C   0  0  0  0  0  0  0  0  0  0  0  0
   -0.7901   -7.1173    2.5479 C   0  0  0  0  0  0  0  0  0  0  0  0
   -0.3344   -6.9192    1.1022 C   0  0  0  0  0  0  0  0  0  0  0  0
    3.2474    0.8396   -1.5963 H   0  0  0  0  0  0  0  0  0  0  0  0
    3.1644    1.6954   -0.0229 H   0  0  0  0  0  0  0  0  0  0  0  0
    1.6958    1.3666   -0.9136 H   0  0  0  0  0  0  0  0  0  0  0  0
    4.8140    0.8053    0.7701 H   0  0  0  0  0  0  0  0  0  0  0  0
    8.5999   -0.3766    2.5705 H   0  0  0  0  0  0  0  0  0  0  0  0
   10.9856    0.0548    2.4982 H   0  0  0  0  0  0  0  0  0  0  0  0
   12.7258    1.5237    2.2103 H   0  0  0  0  0  0  0  0  0  0  0  0
   12.0120    5.7964   -0.7259 H   0  0  0  0  0  0  0  0  0  0  0  0
   14.4606    5.8421   -1.1527 H   0  0  0  0  0  0  0  0  0  0  0  0
   16.6084    4.6884   -0.7904 H   0  0  0  0  0  0  0  0  0  0  0  0
   18.0445    3.2518    0.2676 H   0  0  0  0  0  0  0  0  0  0  0  0
   18.0555    2.3265    3.6510 H   0  0  0  0  0  0  0  0  0  0  0  0
   19.6323    0.5802    4.4534 H   0  0  0  0  0  0  0  0  0  0  0  0
   18.6731   -1.8848    1.0841 H   0  0  0  0  0  0  0  0  0  0  0  0
   17.0907   -0.1621    0.2518 H   0  0  0  0  0  0  0  0  0  0  0  0
   10.2064    4.2845    2.1719 H   0  0  0  0  0  0  0  0  0  0  0  0
    6.8274   -1.3330    5.7834 H   0  0  0  0  0  0  0  0  0  0  0  0
    3.1610   -2.8957    3.5836 H   0  0  0  0  0  0  0  0  0  0  0  0
    2.3949   -2.8065   -0.4649 H   0  0  0  0  0  0  0  0  0  0  0  0
    0.7451   -2.1539   -0.1944 H   0  0  0  0  0  0  0  0  0  0  0  0
    1.6865   -5.0118    0.3462 H   0  0  0  0  0  0  0  0  0  0  0  0
    0.7681   -4.4956   -1.0783 H   0  0  0  0  0  0  0  0  0  0  0  0
   -1.0508   -3.6771    0.4302 H   0  0  0  0  0  0  0  0  0  0  0  0
   -0.1675   -4.2856    1.8280 H   0  0  0  0  0  0  0  0  0  0  0  0
   -2.9848   -6.5512    0.9618 H   0  0  0  0  0  0  0  0  0  0  0  0
   -2.8799   -4.8185    1.2781 H   0  0  0  0  0  0  0  0  0  0  0  0
   -2.7058   -6.4685    3.3825 H   0  0  0  0  0  0  0  0  0  0  0  0
   -1.4819   -5.2050    3.2635 H   0  0  0  0  0  0  0  0  0  0  0  0
   -1.1894   -8.1292    2.6832 H   0  0  0  0  0  0  0  0  0  0  0  0
    0.0295   -6.9746    3.2583 H   0  0  0  0  0  0  0  0  0  0  0  0
   -0.6227   -7.8036    0.5180 H   0  0  0  0  0  0  0  0  0  0  0  0
    0.7532   -6.8490    1.0189 H   0  0  0  0  0  0  0  0  0  0  0  0
  1  2  1  0  0  0  0
  1 49  1  0  0  0  0
  1 50  1  0  0  0  0
  1 51  1  0  0  0  0
  2  3  1  0  0  0  0
  3  4  1  0  0  0  0
  3 39  2  0  0  0  0
  4  5  2  0  0  0  0
  4 52  1  0  0  0  0
  5  6  1  0  0  0  0
  5 37  1  0  0  0  0
  6  7  1  0  0  0  0
  6 34  2  0  0  0  0
  7  8  1  0  0  0  0
  8  9  1  0  0  0  0
  8 32  2  0  0  0  0
  9 10  2  0  0  0  0
  9 53  1  0  0  0  0
 10 11  1  0  0  0  0
 10 54  1  0  0  0  0
 11 12  1  0  0  0  0
 11 31  2  0  0  0  0
 12 13  1  0  0  0  0
 12 55  1  0  0  0  0
 13 14  1  0  0  0  0
 13 30  2  0  0  0  0
 14 15  2  0  0  0  0
 15 16  1  0  0  0  0
 15 56  1  0  0  0  0
 16 17  2  0  0  0  0
 16 57  1  0  0  0  0
 17 18  1  0  0  0  0
 17 30  1  0  0  0  0
 18 19  1  0  0  0  0
 18 58  1  0  0  0  0
 19 20  2  0  0  0  0
 19 59  1  0  0  0  0
 20 21  1  0  0  0  0
 20 28  1  0  0  0  0
 21 22  1  0  0  0  0
 21 27  2  0  0  0  0
 22 23  2  0  0  0  0
 22 60  1  0  0  0  0
 23 24  1  0  0  0  0
 23 61  1  0  0  0  0
 24 25  1  0  0  0  0
 24 26  2  0  0  0  0
 26 27  1  0  0  0  0
 26 62  1  0  0  0  0
 27 63  1  0  0  0  0
 28 29  2  0  0  0  0
 28 30  1  0  0  0  0
 31 32  1  0  0  0  0
 31 64  1  0  0  0  0
 32 33  1  0  0  0  0
 34 35  1  0  0  0  0
 35 36  2  0  0  0  0
 35 65  1  0  0  0  0
 36 37  1  0  0  0  0
 37 38  2  0  0  0  0
 38 39  1  0  0  0  0
 38 66  1  0  0  0  0
 39 40  1  0  0  0  0
 40 41  1  0  0  0  0
 41 42  1  0  0  0  0
 41 67  1  0  0  0  0
 41 68  1  0  0  0  0
 42 43  1  0  0  0  0
 42 69  1  0  0  0  0
 42 70  1  0  0  0  0
 43 44  1  0  0  0  0
 43 71  1  0  0  0  0
 43 72  1  0  0  0  0
 44 45  1  0  0  0  0
 44 48  1  0  0  0  0
 45 46  1  0  0  0  0
 45 73  1  0  0  0  0
 45 74  1  0  0  0  0
 46 47  1  0  0  0  0
 46 75  1  0  0  0  0
 46 76  1  0  0  0  0
 47 48  1  0  0  0  0
 47 77  1  0  0  0  0
 47 78  1  0  0  0  0
 48 79  1  0  0  0  0
 48 80  1  0  0  0  0
M  END
$$$$
