CHEMBL196615
 OpenBabel04072215363D

 44 47  0  0  0  0  0  0  0  0999 V2000
    2.8417   -6.1374   -0.5630 C   0  0  0  0  0  0  0  0  0  0  0  0
    1.3802   -6.4473   -0.7058 C   0  0  0  0  0  0  0  0  0  0  0  0
    0.9812   -7.7334   -1.0837 C   0  0  0  0  0  0  0  0  0  0  0  0
   -0.3688   -8.0295   -1.2214 C   0  0  0  0  0  0  0  0  0  0  0  0
   -1.3247   -7.0478   -0.9823 C   0  0  0  0  0  0  0  0  0  0  0  0
   -0.9552   -5.7556   -0.5956 C   0  0  0  0  0  0  0  0  0  0  0  0
   -1.9106   -4.7250   -0.3551 N   0  0  0  0  0  0  0  0  0  0  0  0
   -3.2776   -4.8991   -0.3199 C   0  0  0  0  0  0  0  0  0  0  0  0
   -3.8542   -5.9815   -0.3928 O   0  0  0  0  0  0  0  0  0  0  0  0
   -3.9695   -3.7008   -0.2223 N   0  0  0  0  0  0  0  0  0  0  0  0
   -5.3906   -3.7015   -0.1589 C   0  0  0  0  0  0  0  0  0  0  0  0
   -6.0723   -4.6382    0.6261 C   0  0  0  0  0  0  0  0  0  0  0  0
   -7.4695   -4.6836    0.6372 C   0  0  0  0  0  0  0  0  0  0  0  0
   -8.2242   -3.7342   -0.0534 C   0  0  0  0  0  0  0  0  0  0  0  0
   -9.6907   -3.7054    0.0619 C   0  0  0  0  0  0  0  0  0  0  0  0
  -10.4580   -3.4041   -1.0530 C   0  0  0  0  0  0  0  0  0  0  0  0
  -12.1294   -3.3634   -0.7307 S   0  0  0  0  0  0  0  0  0  0  0  0
  -11.8792   -3.7793    0.8977 C   0  0  0  0  0  0  0  0  0  0  0  0
  -12.9422   -3.9078    1.7089 N   0  0  0  0  0  0  0  0  0  0  0  0
  -12.5982   -4.2402    2.9500 C   0  0  0  0  0  0  0  0  0  0  0  0
  -11.3614   -4.4265    3.4237 N   0  0  0  0  0  0  0  0  0  0  0  0
  -10.3156   -4.2728    2.5898 C   0  0  0  0  0  0  0  0  0  0  0  0
   -9.0761   -4.4505    3.1892 N   0  0  0  0  0  0  0  0  0  0  0  0
  -10.5384   -3.9409    1.2327 C   0  0  0  0  0  0  0  0  0  0  0  0
   -7.5394   -2.8006   -0.8517 C   0  0  0  0  0  0  0  0  0  0  0  0
   -6.1388   -2.7879   -0.9064 C   0  0  0  0  0  0  0  0  0  0  0  0
   -5.3631   -1.6748   -1.9791 Cl  0  0  0  0  0  0  0  0  0  0  0  0
    0.4038   -5.4608   -0.4614 C   0  0  0  0  0  0  0  0  0  0  0  0
    3.4576   -7.0083   -0.8155 H   0  0  0  0  0  0  0  0  0  0  0  0
    3.0711   -5.8568    0.4688 H   0  0  0  0  0  0  0  0  0  0  0  0
    3.1265   -5.3253   -1.2385 H   0  0  0  0  0  0  0  0  0  0  0  0
    1.7149   -8.5118   -1.2781 H   0  0  0  0  0  0  0  0  0  0  0  0
   -0.6836   -9.0286   -1.5137 H   0  0  0  0  0  0  0  0  0  0  0  0
   -2.3594   -7.3439   -1.1190 H   0  0  0  0  0  0  0  0  0  0  0  0
   -1.5525   -3.8303   -0.0594 H   0  0  0  0  0  0  0  0  0  0  0  0
   -3.5547   -2.9256   -0.7251 H   0  0  0  0  0  0  0  0  0  0  0  0
   -5.5273   -5.3622    1.2295 H   0  0  0  0  0  0  0  0  0  0  0  0
   -7.9477   -5.4794    1.2061 H   0  0  0  0  0  0  0  0  0  0  0  0
  -10.1263   -3.1958   -2.0614 H   0  0  0  0  0  0  0  0  0  0  0  0
  -13.4086   -4.3680    3.6605 H   0  0  0  0  0  0  0  0  0  0  0  0
   -9.1824   -4.4929    4.1972 H   0  0  0  0  0  0  0  0  0  0  0  0
   -8.3549   -3.8241    2.8581 H   0  0  0  0  0  0  0  0  0  0  0  0
   -8.0886   -2.0778   -1.4501 H   0  0  0  0  0  0  0  0  0  0  0  0
    0.7243   -4.4650   -0.1676 H   0  0  0  0  0  0  0  0  0  0  0  0
  1  2  1  0  0  0  0
  1 29  1  0  0  0  0
  1 30  1  0  0  0  0
  1 31  1  0  0  0  0
  2  3  1  0  0  0  0
  2 28  2  0  0  0  0
  3  4  2  0  0  0  0
  3 32  1  0  0  0  0
  4  5  1  0  0  0  0
  4 33  1  0  0  0  0
  5  6  2  0  0  0  0
  5 34  1  0  0  0  0
  6  7  1  0  0  0  0
  6 28  1  0  0  0  0
  7  8  1  0  0  0  0
  7 35  1  0  0  0  0
  8  9  2  0  0  0  0
  8 10  1  0  0  0  0
 10 11  1  0  0  0  0
 10 36  1  0  0  0  0
 11 12  1  0  0  0  0
 11 26  2  0  0  0  0
 12 13  2  0  0  0  0
 12 37  1  0  0  0  0
 13 14  1  0  0  0  0
 13 38  1  0  0  0  0
 14 15  1  0  0  0  0
 14 25  2  0  0  0  0
 15 16  2  0  0  0  0
 15 24  1  0  0  0  0
 16 17  1  0  0  0  0
 16 39  1  0  0  0  0
 17 18  1  0  0  0  0
 18 19  1  0  0  0  0
 18 24  2  0  0  0  0
 19 20  2  0  0  0  0
 20 21  1  0  0  0  0
 20 40  1  0  0  0  0
 21 22  2  0  0  0  0
 22 23  1  0  0  0  0
 22 24  1  0  0  0  0
 23 41  1  0  0  0  0
 23 42  1  0  0  0  0
 25 26  1  0  0  0  0
 25 43  1  0  0  0  0
 26 27  1  0  0  0  0
 28 44  1  0  0  0  0
M  END
$$$$
