CHEMBL501256
 OpenBabel04072215383D

 29 31  0  0  0  0  0  0  0  0999 V2000
    0.3883   -1.5799   -0.5542 N   0  0  0  0  0  0  0  0  0  0  0  0
    1.6140   -2.0666   -0.9903 C   0  0  0  0  0  0  0  0  0  0  0  0
    1.6499   -2.7532   -2.1565 N   0  0  0  0  0  0  0  0  0  0  0  0
    2.8360   -3.2490   -2.5697 C   0  0  0  0  0  0  0  0  0  0  0  0
    4.0435   -3.1524   -1.9756 N   0  0  0  0  0  0  0  0  0  0  0  0
    3.9566   -2.4409   -0.8382 C   0  0  0  0  0  0  0  0  0  0  0  0
    2.8158   -1.8757   -0.2896 C   0  0  0  0  0  0  0  0  0  0  0  0
    3.1111   -1.2236    0.8919 N   0  0  0  0  0  0  0  0  0  0  0  0
    4.4059   -1.3993    1.0578 C   0  0  0  0  0  0  0  0  0  0  0  0
    4.9590   -2.1352    0.0425 N   0  0  0  0  0  0  0  0  0  0  0  0
    6.3197   -2.6411   -0.0113 C   0  0  0  0  0  0  0  0  0  0  0  0
    7.3810   -1.5639   -0.0334 C   0  0  0  0  0  0  0  0  0  0  0  0
    7.1332   -0.3680    0.1051 O   0  0  0  0  0  0  0  0  0  0  0  0
    8.7996   -1.9809   -0.2153 C   0  0  0  0  0  0  0  0  0  0  0  0
    9.2165   -3.3150   -0.2310 C   0  0  0  0  0  0  0  0  0  0  0  0
   10.5630   -3.6116   -0.4478 C   0  0  0  0  0  0  0  0  0  0  0  0
   11.4506   -2.5647   -0.6342 C   0  0  0  0  0  0  0  0  0  0  0  0
   11.0857   -1.2663   -0.6013 N   0  0  0  0  0  0  0  0  0  0  0  0
    9.7720   -1.0015   -0.3901 C   0  0  0  0  0  0  0  0  0  0  0  0
   -0.2745   -1.4819   -1.3125 H   0  0  0  0  0  0  0  0  0  0  0  0
    0.4751   -0.8086    0.0988 H   0  0  0  0  0  0  0  0  0  0  0  0
    2.8108   -3.8007   -3.5071 H   0  0  0  0  0  0  0  0  0  0  0  0
    4.9888   -1.0201    1.8890 H   0  0  0  0  0  0  0  0  0  0  0  0
    6.4138   -3.2560   -0.9115 H   0  0  0  0  0  0  0  0  0  0  0  0
    6.4502   -3.2658    0.8790 H   0  0  0  0  0  0  0  0  0  0  0  0
    8.5275   -4.1401   -0.0812 H   0  0  0  0  0  0  0  0  0  0  0  0
   10.9134   -4.6385   -0.4766 H   0  0  0  0  0  0  0  0  0  0  0  0
   12.5056   -2.7470   -0.8208 H   0  0  0  0  0  0  0  0  0  0  0  0
    9.5236    0.0578   -0.3738 H   0  0  0  0  0  0  0  0  0  0  0  0
  1  2  1  0  0  0  0
  1 20  1  0  0  0  0
  1 21  1  0  0  0  0
  2  3  1  0  0  0  0
  2  7  2  0  0  0  0
  3  4  2  0  0  0  0
  4  5  1  0  0  0  0
  4 22  1  0  0  0  0
  5  6  2  0  0  0  0
  6  7  1  0  0  0  0
  6 10  1  0  0  0  0
  7  8  1  0  0  0  0
  8  9  2  0  0  0  0
  9 10  1  0  0  0  0
  9 23  1  0  0  0  0
 10 11  1  0  0  0  0
 11 12  1  0  0  0  0
 11 24  1  0  0  0  0
 11 25  1  0  0  0  0
 12 13  2  0  0  0  0
 12 14  1  0  0  0  0
 14 15  1  0  0  0  0
 14 19  2  0  0  0  0
 15 16  2  0  0  0  0
 15 26  1  0  0  0  0
 16 17  1  0  0  0  0
 16 27  1  0  0  0  0
 17 18  2  0  0  0  0
 17 28  1  0  0  0  0
 18 19  1  0  0  0  0
 19 29  1  0  0  0  0
M  END
$$$$
