CHEMBL3962549
 OpenBabel04072215373D

 52 55  0  0  0  0  0  0  0  0999 V2000
    1.0827   -0.1081    2.8973 C   0  0  0  0  0  0  0  0  0  0  0  0
    2.4781    0.0574    2.3200 C   0  0  0  0  0  0  0  0  0  0  0  0
    3.0651   -1.2322    2.1164 O   0  0  0  0  0  0  0  0  0  0  0  0
    4.3247   -1.2524    1.5728 C   0  0  0  0  0  0  0  0  0  0  0  0
    5.0734   -0.1307    1.2394 C   0  0  0  0  0  0  0  0  0  0  0  0
    6.3335   -0.2978    0.6806 C   0  0  0  0  0  0  0  0  0  0  0  0
    7.0472    0.7889    0.3563 F   0  0  0  0  0  0  0  0  0  0  0  0
    6.8664   -1.5618    0.4347 C   0  0  0  0  0  0  0  0  0  0  0  0
    6.1470   -2.7187    0.7595 C   0  0  0  0  0  0  0  0  0  0  0  0
    6.6468   -4.0232    0.4846 N   0  0  0  0  0  0  0  0  0  0  0  0
    8.1051   -4.2553    0.6852 C   0  0  0  0  0  0  0  0  0  0  0  0
    8.7924   -4.9167   -0.5275 C   0  0  0  0  0  0  0  0  0  0  0  0
    8.7715   -4.0817   -1.6820 O   0  0  0  0  0  0  0  0  0  0  0  0
    5.8472   -5.1568    0.1906 C   0  0  0  0  0  0  0  0  0  0  0  0
    4.7303   -5.0213   -0.6389 C   0  0  0  0  0  0  0  0  0  0  0  0
    3.9579   -6.1278   -0.9999 C   0  0  0  0  0  0  0  0  0  0  0  0
    4.2879   -7.3992   -0.5628 C   0  0  0  0  0  0  0  0  0  0  0  0
    3.5402   -8.4420   -0.9627 N   0  0  0  0  0  0  0  0  0  0  0  0
    3.9419   -9.6603   -0.5324 C   0  0  0  0  0  0  0  0  0  0  0  0
    5.0539   -9.8507    0.2760 C   0  0  0  0  0  0  0  0  0  0  0  0
    5.4818  -11.1773    0.6783 C   0  0  0  0  0  0  0  0  0  0  0  0
    4.9528  -12.4538    0.3751 C   0  0  0  0  0  0  0  0  0  0  0  0
    5.6508  -13.4501    0.9243 N   0  0  0  0  0  0  0  0  0  0  0  0
    6.6377  -12.8166    1.5819 N   0  0  0  0  0  0  0  0  0  0  0  0
    7.6271  -13.5794    2.3032 C   0  0  0  0  0  0  0  0  0  0  0  0
    6.5804  -11.4576    1.4674 C   0  0  0  0  0  0  0  0  0  0  0  0
    5.7948   -8.7946    0.6960 N   0  0  0  0  0  0  0  0  0  0  0  0
    5.4123   -7.5709    0.2729 C   0  0  0  0  0  0  0  0  0  0  0  0
    6.1516   -6.4494    0.6483 C   0  0  0  0  0  0  0  0  0  0  0  0
    4.8702   -2.5286    1.3415 C   0  0  0  0  0  0  0  0  0  0  0  0
    0.6217    0.8692    3.0741 H   0  0  0  0  0  0  0  0  0  0  0  0
    1.1142   -0.6572    3.8432 H   0  0  0  0  0  0  0  0  0  0  0  0
    0.4434   -0.6763    2.2139 H   0  0  0  0  0  0  0  0  0  0  0  0
    3.0830    0.6367    3.0273 H   0  0  0  0  0  0  0  0  0  0  0  0
    2.3994    0.5927    1.3663 H   0  0  0  0  0  0  0  0  0  0  0  0
    4.7170    0.8808    1.3900 H   0  0  0  0  0  0  0  0  0  0  0  0
    7.8363   -1.6082   -0.0490 H   0  0  0  0  0  0  0  0  0  0  0  0
    8.2578   -4.8748    1.5771 H   0  0  0  0  0  0  0  0  0  0  0  0
    8.6415   -3.3251    0.8987 H   0  0  0  0  0  0  0  0  0  0  0  0
    8.3535   -5.8816   -0.7977 H   0  0  0  0  0  0  0  0  0  0  0  0
    9.8428   -5.1057   -0.2835 H   0  0  0  0  0  0  0  0  0  0  0  0
    7.8905   -4.1940   -2.0839 H   0  0  0  0  0  0  0  0  0  0  0  0
    4.4542   -4.0487   -1.0453 H   0  0  0  0  0  0  0  0  0  0  0  0
    3.0971   -5.9956   -1.6490 H   0  0  0  0  0  0  0  0  0  0  0  0
    3.3273  -10.4831   -0.8799 H   0  0  0  0  0  0  0  0  0  0  0  0
    4.0894  -12.7069   -0.2261 H   0  0  0  0  0  0  0  0  0  0  0  0
    7.3596  -14.6395    2.2790 H   0  0  0  0  0  0  0  0  0  0  0  0
    7.6507  -13.2264    3.3366 H   0  0  0  0  0  0  0  0  0  0  0  0
    8.5956  -13.4283    1.8205 H   0  0  0  0  0  0  0  0  0  0  0  0
    7.3098  -10.8138    1.9402 H   0  0  0  0  0  0  0  0  0  0  0  0
    6.9901   -6.6222    1.3149 H   0  0  0  0  0  0  0  0  0  0  0  0
    4.2746   -3.3917    1.6346 H   0  0  0  0  0  0  0  0  0  0  0  0
  1  2  1  0  0  0  0
  1 31  1  0  0  0  0
  1 32  1  0  0  0  0
  1 33  1  0  0  0  0
  2  3  1  0  0  0  0
  2 34  1  0  0  0  0
  2 35  1  0  0  0  0
  3  4  1  0  0  0  0
  4  5  1  0  0  0  0
  4 30  2  0  0  0  0
  5  6  2  0  0  0  0
  5 36  1  0  0  0  0
  6  7  1  0  0  0  0
  6  8  1  0  0  0  0
  8  9  2  0  0  0  0
  8 37  1  0  0  0  0
  9 10  1  0  0  0  0
  9 30  1  0  0  0  0
 10 11  1  0  0  0  0
 10 14  1  0  0  0  0
 11 12  1  0  0  0  0
 11 38  1  0  0  0  0
 11 39  1  0  0  0  0
 12 13  1  0  0  0  0
 12 40  1  0  0  0  0
 12 41  1  0  0  0  0
 13 42  1  0  0  0  0
 14 15  1  0  0  0  0
 14 29  2  0  0  0  0
 15 16  2  0  0  0  0
 15 43  1  0  0  0  0
 16 17  1  0  0  0  0
 16 44  1  0  0  0  0
 17 18  1  0  0  0  0
 17 28  2  0  0  0  0
 18 19  2  0  0  0  0
 19 20  1  0  0  0  0
 19 45  1  0  0  0  0
 20 21  1  0  0  0  0
 20 27  2  0  0  0  0
 21 22  1  0  0  0  0
 21 26  2  0  0  0  0
 22 23  2  0  0  0  0
 22 46  1  0  0  0  0
 23 24  1  0  0  0  0
 24 25  1  0  0  0  0
 24 26  1  0  0  0  0
 25 47  1  0  0  0  0
 25 48  1  0  0  0  0
 25 49  1  0  0  0  0
 26 50  1  0  0  0  0
 27 28  1  0  0  0  0
 28 29  1  0  0  0  0
 29 51  1  0  0  0  0
 30 52  1  0  0  0  0
M  END
$$$$
