CHEMBL3959516
 OpenBabel04072215373D

 57 61  0  0  1  0  0  0  0  0999 V2000
    2.7240    0.3158   -1.3459 C   0  0  0  0  0  0  0  0  0  0  0  0
    2.5093   -0.2389   -0.0549 O   0  0  0  0  0  0  0  0  0  0  0  0
    3.1952    0.2213    1.0246 C   0  0  0  0  0  0  0  0  0  0  0  0
    4.3242    1.0202    0.8863 C   0  0  0  0  0  0  0  0  0  0  0  0
    4.9638    1.5819    2.0015 C   0  0  0  0  0  0  0  0  0  0  0  0
    6.0738    2.4241    1.9065 C   0  0  0  0  0  0  0  0  0  0  0  0
    6.5190    2.8414    0.6200 N   0  0  0  0  0  0  0  0  0  0  0  0
    7.8032    3.3942    0.4035 C   0  0  0  0  0  0  0  0  0  0  0  0
    8.9373    2.7284    0.8796 C   0  0  0  0  0  0  0  0  0  0  0  0
   10.1967    3.3205    0.7902 C   0  0  0  0  0  0  0  0  0  0  0  0
   11.5280    2.4478    1.4575 Cl  0  0  0  0  0  0  0  0  0  0  0  0
   10.3288    4.5801    0.1945 C   0  0  0  0  0  0  0  0  0  0  0  0
   11.9855    5.5035    0.1280 Br  0  0  0  0  0  0  0  0  0  0  0  0
    9.2118    5.2166   -0.3552 C   0  0  0  0  0  0  0  0  0  0  0  0
    7.9626    4.6139   -0.2548 C   0  0  0  0  0  0  0  0  0  0  0  0
    6.8894    5.2397   -0.7624 F   0  0  0  0  0  0  0  0  0  0  0  0
    6.7153    2.8775    2.9953 N   0  0  0  0  0  0  0  0  0  0  0  0
    6.2154    2.5129    4.1759 C   0  0  0  0  0  0  0  0  0  0  0  0
    5.1321    1.7533    4.3789 N   0  0  0  0  0  0  0  0  0  0  0  0
    4.5168    1.2847    3.2882 C   0  0  0  0  0  0  0  0  0  0  0  0
    3.4128    0.4510    3.4214 C   0  0  0  0  0  0  0  0  0  0  0  0
    2.7593   -0.1127    2.3164 C   0  0  0  0  0  0  0  0  0  0  0  0
    1.7207   -0.9529    2.6685 O   0  0  0  0  0  0  0  0  0  0  0  0
    1.4853   -2.0093    1.7381 C   0  0  0  0  0  0  0  0  0  0  0  0
    0.3731   -2.9815    2.1620 C   0  0  1  0  0  0  0  0  0  0  0  0
   -0.9995   -2.3002    2.2077 C   0  0  0  0  0  0  0  0  0  0  0  0
   -1.2886   -1.7469    0.8835 N   0  0  3  0  0  0  0  0  0  0  0  0
   -2.3801   -0.7848    0.8342 C   0  0  0  0  0  0  0  0  0  0  0  0
   -2.9182   -0.4644   -0.5799 C   0  0  0  0  0  0  0  0  0  0  0  0
   -2.8526   -1.5478   -1.5166 O   0  0  0  0  0  0  0  0  0  0  0  0
   -1.5623   -2.1697   -1.4921 C   0  0  0  0  0  0  0  0  0  0  0  0
   -1.3561   -2.8233   -0.1228 C   0  0  1  0  0  0  0  0  0  0  0  0
   -0.0629   -3.6712   -0.1047 C   0  0  0  0  0  0  0  0  0  0  0  0
    0.2990   -4.1007    1.2257 O   0  0  0  0  0  0  0  0  0  0  0  0
    3.4065   -0.3245   -1.9155 H   0  0  0  0  0  0  0  0  0  0  0  0
    3.0890    1.3470   -1.3323 H   0  0  0  0  0  0  0  0  0  0  0  0
    1.7609    0.3335   -1.8650 H   0  0  0  0  0  0  0  0  0  0  0  0
    4.7516    1.1923   -0.0996 H   0  0  0  0  0  0  0  0  0  0  0  0
    5.7911    3.4186    0.1991 H   0  0  0  0  0  0  0  0  0  0  0  0
    8.8241    1.7560    1.3548 H   0  0  0  0  0  0  0  0  0  0  0  0
    9.2916    6.1857   -0.8363 H   0  0  0  0  0  0  0  0  0  0  0  0
    6.7376    2.8687    5.0610 H   0  0  0  0  0  0  0  0  0  0  0  0
    3.0628    0.2137    4.4250 H   0  0  0  0  0  0  0  0  0  0  0  0
    2.4099   -2.5705    1.5541 H   0  0  0  0  0  0  0  0  0  0  0  0
    1.1487   -1.5677    0.8054 H   0  0  0  0  0  0  0  0  0  0  0  0
    0.5996   -3.4054    3.1466 H   0  0  0  0  0  0  0  0  0  0  0  0
   -0.9902   -1.5019    2.9697 H   0  0  0  0  0  0  0  0  0  0  0  0
   -1.7789   -3.0210    2.5020 H   0  0  0  0  0  0  0  0  0  0  0  0
   -2.0028    0.1583    1.2532 H   0  0  0  0  0  0  0  0  0  0  0  0
   -3.2135   -1.0935    1.4741 H   0  0  0  0  0  0  0  0  0  0  0  0
   -2.3833    0.3899   -1.0101 H   0  0  0  0  0  0  0  0  0  0  0  0
   -3.9726   -0.1785   -0.4986 H   0  0  0  0  0  0  0  0  0  0  0  0
   -0.7860   -1.4208   -1.7063 H   0  0  0  0  0  0  0  0  0  0  0  0
   -1.5295   -2.9128   -2.2946 H   0  0  0  0  0  0  0  0  0  0  0  0
   -2.2100   -3.4767    0.1043 H   0  0  0  0  0  0  0  0  0  0  0  0
    0.7821   -3.1312   -0.5490 H   0  0  0  0  0  0  0  0  0  0  0  0
   -0.1931   -4.5733   -0.7120 H   0  0  0  0  0  0  0  0  0  0  0  0
  1  2  1  0  0  0  0
  1 35  1  0  0  0  0
  1 36  1  0  0  0  0
  1 37  1  0  0  0  0
  2  3  1  0  0  0  0
  3  4  1  0  0  0  0
  3 22  2  0  0  0  0
  4  5  2  0  0  0  0
  4 38  1  0  0  0  0
  5  6  1  0  0  0  0
  5 20  1  0  0  0  0
  6  7  1  0  0  0  0
  6 17  2  0  0  0  0
  7  8  1  0  0  0  0
  7 39  1  0  0  0  0
  8  9  1  0  0  0  0
  8 15  2  0  0  0  0
  9 10  2  0  0  0  0
  9 40  1  0  0  0  0
 10 11  1  0  0  0  0
 10 12  1  0  0  0  0
 12 13  1  0  0  0  0
 12 14  2  0  0  0  0
 14 15  1  0  0  0  0
 14 41  1  0  0  0  0
 15 16  1  0  0  0  0
 17 18  1  0  0  0  0
 18 19  2  0  0  0  0
 18 42  1  0  0  0  0
 19 20  1  0  0  0  0
 20 21  2  0  0  0  0
 21 22  1  0  0  0  0
 21 43  1  0  0  0  0
 22 23  1  0  0  0  0
 23 24  1  0  0  0  0
 24 25  1  0  0  0  0
 24 44  1  0  0  0  0
 24 45  1  0  0  0  0
 25 26  1  0  0  0  0
 25 34  1  0  0  0  0
 25 46  1  1  0  0  0
 26 27  1  0  0  0  0
 26 47  1  0  0  0  0
 26 48  1  0  0  0  0
 27 28  1  0  0  0  0
 27 32  1  0  0  0  0
 28 29  1  0  0  0  0
 28 49  1  0  0  0  0
 28 50  1  0  0  0  0
 29 30  1  0  0  0  0
 29 51  1  0  0  0  0
 29 52  1  0  0  0  0
 30 31  1  0  0  0  0
 31 32  1  0  0  0  0
 31 53  1  0  0  0  0
 31 54  1  0  0  0  0
 32 33  1  0  0  0  0
 32 55  1  1  0  0  0
 33 34  1  0  0  0  0
 33 56  1  0  0  0  0
 33 57  1  0  0  0  0
M  END
$$$$
