CHEMBL1254511
 OpenBabel04072215363D

 44 47  0  0  0  0  0  0  0  0999 V2000
    0.5855   -0.3877    0.4304 C   0  0  0  0  0  0  0  0  0  0  0  0
    1.9521   -0.2645    0.8858 N   0  0  0  0  0  0  0  0  0  0  0  0
    2.4879    0.8720    1.4416 C   0  0  0  0  0  0  0  0  0  0  0  0
    3.7927    0.5982    1.7908 C   0  0  0  0  0  0  0  0  0  0  0  0
    4.0549   -0.7409    1.4209 C   0  0  0  0  0  0  0  0  0  0  0  0
    5.1916   -1.4505    1.5710 N   0  0  0  0  0  0  0  0  0  0  0  0
    5.1107   -2.6923    1.0782 C   0  0  0  0  0  0  0  0  0  0  0  0
    4.0595   -3.2725    0.4765 N   0  0  0  0  0  0  0  0  0  0  0  0
    2.9083   -2.5681    0.3799 C   0  0  0  0  0  0  0  0  0  0  0  0
    1.7836   -3.1355   -0.2167 O   0  0  0  0  0  0  0  0  0  0  0  0
    1.5842   -4.4911   -0.0738 C   0  0  0  0  0  0  0  0  0  0  0  0
    1.9906   -5.2109    1.0455 C   0  0  0  0  0  0  0  0  0  0  0  0
    1.7742   -6.5830    1.1169 C   0  0  0  0  0  0  0  0  0  0  0  0
    1.0970   -7.2707    0.1043 C   0  0  0  0  0  0  0  0  0  0  0  0
    0.8765   -8.6703    0.1407 N   0  0  0  0  0  0  0  0  0  0  0  0
    1.1723   -9.4847    1.2218 C   0  0  0  0  0  0  0  0  0  0  0  0
    1.5416   -9.0779    2.3204 O   0  0  0  0  0  0  0  0  0  0  0  0
    1.0510  -10.8400    0.9264 N   0  0  0  0  0  0  0  0  0  0  0  0
    1.4179  -11.7797    1.9260 C   0  0  0  0  0  0  0  0  0  0  0  0
    0.9881  -11.6219    3.2508 C   0  0  0  0  0  0  0  0  0  0  0  0
    1.5236  -12.4122    4.2664 C   0  0  0  0  0  0  0  0  0  0  0  0
    2.4804  -13.3738    3.9570 C   0  0  0  0  0  0  0  0  0  0  0  0
    2.8633  -13.5763    2.6293 C   0  0  0  0  0  0  0  0  0  0  0  0
    2.3135  -12.7977    1.6070 C   0  0  0  0  0  0  0  0  0  0  0  0
    0.6404   -6.5386   -0.9953 C   0  0  0  0  0  0  0  0  0  0  0  0
    0.8841   -5.1527   -1.0791 C   0  0  0  0  0  0  0  0  0  0  0  0
    2.9017   -1.2586    0.8416 C   0  0  0  0  0  0  0  0  0  0  0  0
    0.0678    0.5648    0.5699 H   0  0  0  0  0  0  0  0  0  0  0  0
    0.0937   -1.1636    1.0226 H   0  0  0  0  0  0  0  0  0  0  0  0
    0.5942   -0.6493   -0.6305 H   0  0  0  0  0  0  0  0  0  0  0  0
    1.9038    1.7773    1.5517 H   0  0  0  0  0  0  0  0  0  0  0  0
    4.4870    1.2809    2.2593 H   0  0  0  0  0  0  0  0  0  0  0  0
    5.9993   -3.3072    1.1829 H   0  0  0  0  0  0  0  0  0  0  0  0
    2.5046   -4.7327    1.8754 H   0  0  0  0  0  0  0  0  0  0  0  0
    2.1775   -7.0777    1.9900 H   0  0  0  0  0  0  0  0  0  0  0  0
    0.3599   -9.0867   -0.6146 H   0  0  0  0  0  0  0  0  0  0  0  0
    1.2991  -11.0793   -0.0232 H   0  0  0  0  0  0  0  0  0  0  0  0
    0.2744  -10.8454    3.5125 H   0  0  0  0  0  0  0  0  0  0  0  0
    1.2255  -12.2412    5.2963 H   0  0  0  0  0  0  0  0  0  0  0  0
    2.9416  -13.9504    4.7528 H   0  0  0  0  0  0  0  0  0  0  0  0
    3.6257  -14.3160    2.3975 H   0  0  0  0  0  0  0  0  0  0  0  0
    2.6650  -12.9373    0.5902 H   0  0  0  0  0  0  0  0  0  0  0  0
    0.0975   -7.0225   -1.8029 H   0  0  0  0  0  0  0  0  0  0  0  0
    0.5282   -4.5986   -1.9474 H   0  0  0  0  0  0  0  0  0  0  0  0
  1  2  1  0  0  0  0
  1 28  1  0  0  0  0
  1 29  1  0  0  0  0
  1 30  1  0  0  0  0
  2  3  1  0  0  0  0
  2 27  1  0  0  0  0
  3  4  2  0  0  0  0
  3 31  1  0  0  0  0
  4  5  1  0  0  0  0
  4 32  1  0  0  0  0
  5  6  1  0  0  0  0
  5 27  2  0  0  0  0
  6  7  2  0  0  0  0
  7  8  1  0  0  0  0
  7 33  1  0  0  0  0
  8  9  2  0  0  0  0
  9 10  1  0  0  0  0
  9 27  1  0  0  0  0
 10 11  1  0  0  0  0
 11 12  1  0  0  0  0
 11 26  2  0  0  0  0
 12 13  2  0  0  0  0
 12 34  1  0  0  0  0
 13 14  1  0  0  0  0
 13 35  1  0  0  0  0
 14 15  1  0  0  0  0
 14 25  2  0  0  0  0
 15 16  1  0  0  0  0
 15 36  1  0  0  0  0
 16 17  2  0  0  0  0
 16 18  1  0  0  0  0
 18 19  1  0  0  0  0
 18 37  1  0  0  0  0
 19 20  1  0  0  0  0
 19 24  2  0  0  0  0
 20 21  2  0  0  0  0
 20 38  1  0  0  0  0
 21 22  1  0  0  0  0
 21 39  1  0  0  0  0
 22 23  2  0  0  0  0
 22 40  1  0  0  0  0
 23 24  1  0  0  0  0
 23 41  1  0  0  0  0
 24 42  1  0  0  0  0
 25 26  1  0  0  0  0
 25 43  1  0  0  0  0
 26 44  1  0  0  0  0
M  END
$$$$
