CHEMBL3109404
 OpenBabel04072215373D

 59 61  0  0  1  0  0  0  0  0999 V2000
    4.1886    6.1761    2.3511 C   0  0  0  0  0  0  0  0  0  0  0  0
    3.6256    4.8967    2.6196 O   0  0  0  0  0  0  0  0  0  0  0  0
    2.5069    4.9500    3.3818 C   0  0  0  0  0  0  0  0  0  0  0  0
    1.9863    5.9535    3.8409 O   0  0  0  0  0  0  0  0  0  0  0  0
    1.9559    3.5947    3.6048 C   0  0  0  0  0  0  0  0  0  0  0  0
    1.1834    3.3814    4.7507 C   0  0  0  0  0  0  0  0  0  0  0  0
    0.5480    2.1645    4.9238 C   0  0  0  0  0  0  0  0  0  0  0  0
   -0.3152    1.9794    5.9561 O   0  0  0  0  0  0  0  0  0  0  0  0
    0.6142    1.1819    3.9345 C   0  0  0  0  0  0  0  0  0  0  0  0
   -0.0156   -0.0108    4.1369 O   0  0  0  0  0  0  0  0  0  0  0  0
    1.1767    1.4885    2.6919 C   0  0  0  0  0  0  0  0  0  0  0  0
    0.6362    0.8190    1.4255 C   0  0  0  0  0  0  0  0  0  0  0  0
   -0.5772    1.6116    0.7030 C   0  0  2  0  0  0  0  0  0  0  0  0
    0.0347    2.9301    0.1326 C   0  0  0  0  0  0  0  0  0  0  0  0
   -1.7453    1.8881    1.7347 C   0  0  1  0  0  0  0  0  0  0  0  0
   -2.2529    3.3241    1.8358 C   0  0  0  0  0  0  0  0  0  0  0  0
   -2.9295    0.9208    1.6219 C   0  0  0  0  0  0  0  0  0  0  0  0
   -2.4614   -0.4926    1.3060 C   0  0  0  0  0  0  0  0  0  0  0  0
   -1.8718   -0.6079   -0.1257 C   0  0  1  0  0  0  0  0  0  0  0  0
   -0.8411   -1.7740   -0.1770 C   0  0  0  0  0  0  0  0  0  0  0  0
   -3.0427   -0.9993   -1.0491 C   0  0  0  0  0  0  0  0  0  0  0  0
   -3.6100   -2.3986   -0.9718 C   0  0  0  0  0  0  0  0  0  0  0  0
   -3.6611   -0.1259   -1.8570 C   0  0  0  0  0  0  0  0  0  0  0  0
   -3.2923    1.3027   -1.9536 C   0  0  0  0  0  0  0  0  0  0  0  0
   -1.8359    1.5770   -1.6386 C   0  0  0  0  0  0  0  0  0  0  0  0
   -1.1242    0.7359   -0.5330 C   0  0  1  0  0  0  0  0  0  0  0  0
    1.9926    2.6208    2.5926 C   0  0  0  0  0  0  0  0  0  0  0  0
    4.7283    6.5397    3.2356 H   0  0  0  0  0  0  0  0  0  0  0  0
    3.4213    6.9026    2.0528 H   0  0  0  0  0  0  0  0  0  0  0  0
    4.8964    6.0768    1.5279 H   0  0  0  0  0  0  0  0  0  0  0  0
    1.0553    4.1787    5.4837 H   0  0  0  0  0  0  0  0  0  0  0  0
   -1.0906    2.5352    5.7350 H   0  0  0  0  0  0  0  0  0  0  0  0
   -0.1126   -0.0853    5.1062 H   0  0  0  0  0  0  0  0  0  0  0  0
    0.3269   -0.1908    1.6982 H   0  0  0  0  0  0  0  0  0  0  0  0
    1.4647    0.6913    0.7146 H   0  0  0  0  0  0  0  0  0  0  0  0
    0.7080    2.7147   -0.7057 H   0  0  0  0  0  0  0  0  0  0  0  0
   -0.7142    3.6422   -0.2196 H   0  0  0  0  0  0  0  0  0  0  0  0
    0.5936    3.5056    0.8637 H   0  0  0  0  0  0  0  0  0  0  0  0
   -1.3716    1.6981    2.7356 H   0  0  0  0  0  0  0  0  0  0  0  0
   -1.4446    4.0159    2.0993 H   0  0  0  0  0  0  0  0  0  0  0  0
   -3.0023    3.4112    2.6342 H   0  0  0  0  0  0  0  0  0  0  0  0
   -2.7219    3.6516    0.9018 H   0  0  0  0  0  0  0  0  0  0  0  0
   -3.4681    0.9081    2.5782 H   0  0  0  0  0  0  0  0  0  0  0  0
   -3.6521    1.2698    0.8791 H   0  0  0  0  0  0  0  0  0  0  0  0
   -3.3143   -1.1704    1.4420 H   0  0  0  0  0  0  0  0  0  0  0  0
   -1.7335   -0.8085    2.0612 H   0  0  0  0  0  0  0  0  0  0  0  0
    0.1779   -1.4574    0.0567 H   0  0  0  0  0  0  0  0  0  0  0  0
   -1.0894   -2.5680    0.5365 H   0  0  0  0  0  0  0  0  0  0  0  0
   -0.7889   -2.2225   -1.1764 H   0  0  0  0  0  0  0  0  0  0  0  0
   -3.1962   -2.9764   -0.1415 H   0  0  0  0  0  0  0  0  0  0  0  0
   -4.6939   -2.3630   -0.8128 H   0  0  0  0  0  0  0  0  0  0  0  0
   -3.4054   -2.9449   -1.8980 H   0  0  0  0  0  0  0  0  0  0  0  0
   -4.5169   -0.4431   -2.4489 H   0  0  0  0  0  0  0  0  0  0  0  0
   -3.4945    1.6554   -2.9727 H   0  0  0  0  0  0  0  0  0  0  0  0
   -3.9464    1.8874   -1.2972 H   0  0  0  0  0  0  0  0  0  0  0  0
   -1.2672    1.4195   -2.5670 H   0  0  0  0  0  0  0  0  0  0  0  0
   -1.7738    2.6510   -1.4712 H   0  0  0  0  0  0  0  0  0  0  0  0
   -0.2011    0.4221   -1.0468 H   0  0  0  0  0  0  0  0  0  0  0  0
    2.5143    2.8321    1.6596 H   0  0  0  0  0  0  0  0  0  0  0  0
  1  2  1  0  0  0  0
  1 28  1  0  0  0  0
  1 29  1  0  0  0  0
  1 30  1  0  0  0  0
  2  3  1  0  0  0  0
  3  4  2  0  0  0  0
  3  5  1  0  0  0  0
  5  6  1  0  0  0  0
  5 27  2  0  0  0  0
  6  7  2  0  0  0  0
  6 31  1  0  0  0  0
  7  8  1  0  0  0  0
  7  9  1  0  0  0  0
  8 32  1  0  0  0  0
  9 10  1  0  0  0  0
  9 11  2  0  0  0  0
 10 33  1  0  0  0  0
 11 12  1  0  0  0  0
 11 27  1  0  0  0  0
 12 34  1  0  0  0  0
 12 35  1  0  0  0  0
 13 12  1  1  0  0  0
 13 14  1  0  0  0  0
 13 15  1  0  0  0  0
 13 26  1  0  0  0  0
 14 36  1  0  0  0  0
 14 37  1  0  0  0  0
 14 38  1  0  0  0  0
 15 16  1  0  0  0  0
 15 17  1  0  0  0  0
 15 39  1  1  0  0  0
 16 40  1  0  0  0  0
 16 41  1  0  0  0  0
 16 42  1  0  0  0  0
 17 18  1  0  0  0  0
 17 43  1  0  0  0  0
 17 44  1  0  0  0  0
 18 19  1  0  0  0  0
 18 45  1  0  0  0  0
 18 46  1  0  0  0  0
 19 20  1  6  0  0  0
 19 21  1  0  0  0  0
 19 26  1  0  0  0  0
 20 47  1  0  0  0  0
 20 48  1  0  0  0  0
 20 49  1  0  0  0  0
 21 22  1  0  0  0  0
 21 23  2  0  0  0  0
 22 50  1  0  0  0  0
 22 51  1  0  0  0  0
 22 52  1  0  0  0  0
 23 24  1  0  0  0  0
 23 53  1  0  0  0  0
 24 25  1  0  0  0  0
 24 54  1  0  0  0  0
 24 55  1  0  0  0  0
 25 26  1  0  0  0  0
 25 56  1  0  0  0  0
 25 57  1  0  0  0  0
 26 58  1  6  0  0  0
 27 59  1  0  0  0  0
M  END
$$$$
