CHEMBL2016895
 OpenBabel04072215363D

 47 51  0  0  0  0  0  0  0  0999 V2000
   -2.7896    0.1599   -1.8332 O   0  0  0  0  0  0  0  0  0  0  0  0
   -1.8695    0.0016   -1.0306 C   0  0  0  0  0  0  0  0  0  0  0  0
   -0.8642    0.9267   -0.9091 N   0  0  0  0  0  0  0  0  0  0  0  0
    0.2295    0.7750   -0.0501 C   0  0  0  0  0  0  0  0  0  0  0  0
    1.2307    1.7419    0.0006 C   0  0  0  0  0  0  0  0  0  0  0  0
    2.3298    1.5637    0.8440 C   0  0  0  0  0  0  0  0  0  0  0  0
    2.4265    0.4153    1.6396 C   0  0  0  0  0  0  0  0  0  0  0  0
    1.4152   -0.5502    1.5957 C   0  0  0  0  0  0  0  0  0  0  0  0
    0.3209   -0.3683    0.7521 C   0  0  0  0  0  0  0  0  0  0  0  0
   -0.7530   -1.3546    0.6930 C   0  0  0  0  0  0  0  0  0  0  0  0
   -1.7981   -1.2043   -0.1403 C   0  0  0  0  0  0  0  0  0  0  0  0
   -2.7967   -2.2091   -0.1132 C   0  0  0  0  0  0  0  0  0  0  0  0
   -2.8966   -3.2461    0.7038 N   0  0  0  0  0  0  0  0  0  0  0  0
   -4.0180   -3.9030    0.3205 C   0  0  0  0  0  0  0  0  0  0  0  0
   -4.6257   -3.2918   -0.7399 C   0  0  0  0  0  0  0  0  0  0  0  0
   -3.8474   -2.2032   -1.0141 N   0  0  0  0  0  0  0  0  0  0  0  0
   -5.8673   -3.7167   -1.4175 C   0  0  0  0  0  0  0  0  0  0  0  0
   -6.5504   -4.8571   -0.7535 N   0  0  0  0  0  0  0  0  0  0  0  0
   -7.9974   -4.5766   -0.5674 C   0  0  0  0  0  0  0  0  0  0  0  0
   -8.8513   -4.3228   -1.7933 C   0  0  0  0  0  0  0  0  0  0  0  0
   -8.5836   -4.8850   -3.0457 C   0  0  0  0  0  0  0  0  0  0  0  0
   -9.4238   -4.6290   -4.1334 C   0  0  0  0  0  0  0  0  0  0  0  0
  -10.5667   -3.8411   -3.9735 C   0  0  0  0  0  0  0  0  0  0  0  0
  -10.8728   -3.3163   -2.7237 C   0  0  0  0  0  0  0  0  0  0  0  0
  -10.0225   -3.5543   -1.6430 C   0  0  0  0  0  0  0  0  0  0  0  0
   -6.0226   -5.2950    0.5782 C   0  0  0  0  0  0  0  0  0  0  0  0
   -4.5416   -5.1059    0.9636 C   0  0  0  0  0  0  0  0  0  0  0  0
   -0.9318    1.7407   -1.5060 H   0  0  0  0  0  0  0  0  0  0  0  0
    1.1707    2.6403   -0.6131 H   0  0  0  0  0  0  0  0  0  0  0  0
    3.1122    2.3090    0.8843 H   0  0  0  0  0  0  0  0  0  0  0  0
    3.2800    0.2761    2.2914 H   0  0  0  0  0  0  0  0  0  0  0  0
    1.4998   -1.4374    2.2193 H   0  0  0  0  0  0  0  0  0  0  0  0
   -0.6839   -2.2158    1.3534 H   0  0  0  0  0  0  0  0  0  0  0  0
   -3.9893   -1.4982   -1.7304 H   0  0  0  0  0  0  0  0  0  0  0  0
   -5.6053   -4.0454   -2.4319 H   0  0  0  0  0  0  0  0  0  0  0  0
   -6.5221   -2.8450   -1.5278 H   0  0  0  0  0  0  0  0  0  0  0  0
   -8.0909   -3.7047    0.0964 H   0  0  0  0  0  0  0  0  0  0  0  0
   -8.4601   -5.4279   -0.0501 H   0  0  0  0  0  0  0  0  0  0  0  0
   -7.7163   -5.5269   -3.1834 H   0  0  0  0  0  0  0  0  0  0  0  0
   -9.1932   -5.0484   -5.1085 H   0  0  0  0  0  0  0  0  0  0  0  0
  -11.2198   -3.6488   -4.8202 H   0  0  0  0  0  0  0  0  0  0  0  0
  -11.7753   -2.7249   -2.5864 H   0  0  0  0  0  0  0  0  0  0  0  0
  -10.2841   -3.1394   -0.6711 H   0  0  0  0  0  0  0  0  0  0  0  0
   -6.2512   -6.3637    0.6874 H   0  0  0  0  0  0  0  0  0  0  0  0
   -6.5925   -4.7879    1.3698 H   0  0  0  0  0  0  0  0  0  0  0  0
   -3.9375   -5.9749    0.6848 H   0  0  0  0  0  0  0  0  0  0  0  0
   -4.4715   -4.9893    2.0535 H   0  0  0  0  0  0  0  0  0  0  0  0
  1  2  2  0  0  0  0
  2  3  1  0  0  0  0
  2 11  1  0  0  0  0
  3  4  1  0  0  0  0
  3 28  1  0  0  0  0
  4  5  1  0  0  0  0
  4  9  2  0  0  0  0
  5  6  2  0  0  0  0
  5 29  1  0  0  0  0
  6  7  1  0  0  0  0
  6 30  1  0  0  0  0
  7  8  2  0  0  0  0
  7 31  1  0  0  0  0
  8  9  1  0  0  0  0
  8 32  1  0  0  0  0
  9 10  1  0  0  0  0
 10 11  2  0  0  0  0
 10 33  1  0  0  0  0
 11 12  1  0  0  0  0
 12 13  2  0  0  0  0
 12 16  1  0  0  0  0
 13 14  1  0  0  0  0
 14 15  2  0  0  0  0
 14 27  1  0  0  0  0
 15 16  1  0  0  0  0
 15 17  1  0  0  0  0
 16 34  1  0  0  0  0
 17 18  1  0  0  0  0
 17 35  1  0  0  0  0
 17 36  1  0  0  0  0
 18 19  1  0  0  0  0
 18 26  1  0  0  0  0
 19 20  1  0  0  0  0
 19 37  1  0  0  0  0
 19 38  1  0  0  0  0
 20 21  1  0  0  0  0
 20 25  2  0  0  0  0
 21 22  2  0  0  0  0
 21 39  1  0  0  0  0
 22 23  1  0  0  0  0
 22 40  1  0  0  0  0
 23 24  2  0  0  0  0
 23 41  1  0  0  0  0
 24 25  1  0  0  0  0
 24 42  1  0  0  0  0
 25 43  1  0  0  0  0
 26 27  1  0  0  0  0
 26 44  1  0  0  0  0
 26 45  1  0  0  0  0
 27 46  1  0  0  0  0
 27 47  1  0  0  0  0
M  END
$$$$
