CHEMBL3690484
 OpenBabel04072215373D

 53 56  0  0  0  0  0  0  0  0999 V2000
    5.3587    1.4357   -2.8950 O   0  0  0  0  0  0  0  0  0  0  0  0
    6.3201    2.0680   -2.4812 C   0  0  0  0  0  0  0  0  0  0  0  0
    7.0658    2.8759   -3.3256 N   0  0  0  0  0  0  0  0  0  0  0  0
    6.7793    2.8516   -4.7643 C   0  0  0  0  0  0  0  0  0  0  0  0
    7.5138    1.7492   -5.5466 C   0  0  0  0  0  0  0  0  0  0  0  0
    8.3076    1.0143   -4.7356 F   0  0  0  0  0  0  0  0  0  0  0  0
    6.6611    0.9138   -6.1740 F   0  0  0  0  0  0  0  0  0  0  0  0
    8.3197    2.2948   -6.4916 F   0  0  0  0  0  0  0  0  0  0  0  0
    6.7981    2.1051   -1.1884 N   0  0  0  0  0  0  0  0  0  0  0  0
    6.2813    1.3836   -0.0886 C   0  0  0  0  0  0  0  0  0  0  0  0
    5.1895    0.5241   -0.1664 C   0  0  0  0  0  0  0  0  0  0  0  0
    4.6856   -0.1111    0.9718 C   0  0  0  0  0  0  0  0  0  0  0  0
    5.3047    0.0721    2.2046 C   0  0  0  0  0  0  0  0  0  0  0  0
    6.4493    0.8652    2.3008 C   0  0  0  0  0  0  0  0  0  0  0  0
    7.1606    0.9605    3.5842 C   0  0  0  0  0  0  0  0  0  0  0  0
    7.2915    0.0449    4.6039 C   0  0  0  0  0  0  0  0  0  0  0  0
    8.0548    0.5139    5.6420 N   0  0  0  0  0  0  0  0  0  0  0  0
    8.3945    1.7345    5.2750 C   0  0  0  0  0  0  0  0  0  0  0  0
    9.1375    2.7426    5.9628 C   0  0  0  0  0  0  0  0  0  0  0  0
    9.3261    3.9608    5.4045 C   0  0  0  0  0  0  0  0  0  0  0  0
    9.9324    5.0214    6.2213 C   0  0  0  0  0  0  0  0  0  0  0  0
    9.1085    5.8513    6.9735 C   0  0  0  0  0  0  0  0  0  0  0  0
    9.6864    6.8691    7.7279 C   0  0  0  0  0  0  0  0  0  0  0  0
   11.0709    7.0421    7.7051 C   0  0  0  0  0  0  0  0  0  0  0  0
   11.7577    8.1258    8.4998 C   0  0  0  0  0  0  0  0  0  0  0  0
   12.1704    7.7016    9.9100 C   0  0  0  0  0  0  0  0  0  0  0  0
   13.0933    6.6206    9.8768 O   0  0  0  0  0  0  0  0  0  0  0  0
   11.8083    6.1631    6.9111 C   0  0  0  0  0  0  0  0  0  0  0  0
   11.2737    5.1618    6.1714 N   0  0  0  0  0  0  0  0  0  0  0  0
    8.7965    4.2446    4.0728 C   0  0  0  0  0  0  0  0  0  0  0  0
    8.0685    3.3159    3.4494 C   0  0  0  0  0  0  0  0  0  0  0  0
    7.8702    2.0636    4.0326 N   0  0  0  0  0  0  0  0  0  0  0  0
    6.9141    1.5207    1.1431 C   0  0  0  0  0  0  0  0  0  0  0  0
    8.0385    2.9520   -3.0825 H   0  0  0  0  0  0  0  0  0  0  0  0
    7.0592    3.8341   -5.1580 H   0  0  0  0  0  0  0  0  0  0  0  0
    5.6989    2.7374   -4.9217 H   0  0  0  0  0  0  0  0  0  0  0  0
    7.5408    2.7603   -1.0043 H   0  0  0  0  0  0  0  0  0  0  0  0
    4.6971    0.3100   -1.1110 H   0  0  0  0  0  0  0  0  0  0  0  0
    3.8185   -0.7576    0.8849 H   0  0  0  0  0  0  0  0  0  0  0  0
    4.8888   -0.4256    3.0778 H   0  0  0  0  0  0  0  0  0  0  0  0
    6.8901   -0.9750    4.6402 H   0  0  0  0  0  0  0  0  0  0  0  0
    9.4955    2.5101    6.9603 H   0  0  0  0  0  0  0  0  0  0  0  0
    8.0318    5.7082    6.9739 H   0  0  0  0  0  0  0  0  0  0  0  0
    9.0425    7.5157    8.3167 H   0  0  0  0  0  0  0  0  0  0  0  0
   11.0967    8.9992    8.5673 H   0  0  0  0  0  0  0  0  0  0  0  0
   12.6468    8.4537    7.9474 H   0  0  0  0  0  0  0  0  0  0  0  0
   11.3092    7.4145   10.5225 H   0  0  0  0  0  0  0  0  0  0  0  0
   12.6717    8.5396   10.4128 H   0  0  0  0  0  0  0  0  0  0  0  0
   12.5989    5.8312    9.5924 H   0  0  0  0  0  0  0  0  0  0  0  0
   12.8918    6.2419    6.8487 H   0  0  0  0  0  0  0  0  0  0  0  0
    8.9761    5.2147    3.6166 H   0  0  0  0  0  0  0  0  0  0  0  0
    7.6200    3.5368    2.4948 H   0  0  0  0  0  0  0  0  0  0  0  0
    7.8158    2.1135    1.1745 H   0  0  0  0  0  0  0  0  0  0  0  0
  1  2  2  0  0  0  0
  2  3  1  0  0  0  0
  2  9  1  0  0  0  0
  3  4  1  0  0  0  0
  3 34  1  0  0  0  0
  4  5  1  0  0  0  0
  4 35  1  0  0  0  0
  4 36  1  0  0  0  0
  5  6  1  0  0  0  0
  5  7  1  0  0  0  0
  5  8  1  0  0  0  0
  9 10  1  0  0  0  0
  9 37  1  0  0  0  0
 10 11  1  0  0  0  0
 10 33  2  0  0  0  0
 11 12  2  0  0  0  0
 11 38  1  0  0  0  0
 12 13  1  0  0  0  0
 12 39  1  0  0  0  0
 13 14  2  0  0  0  0
 13 40  1  0  0  0  0
 14 15  1  0  0  0  0
 14 33  1  0  0  0  0
 15 16  2  0  0  0  0
 15 32  1  0  0  0  0
 16 17  1  0  0  0  0
 16 41  1  0  0  0  0
 17 18  2  0  0  0  0
 18 19  1  0  0  0  0
 18 32  1  0  0  0  0
 19 20  2  0  0  0  0
 19 42  1  0  0  0  0
 20 21  1  0  0  0  0
 20 30  1  0  0  0  0
 21 22  1  0  0  0  0
 21 29  2  0  0  0  0
 22 23  2  0  0  0  0
 22 43  1  0  0  0  0
 23 24  1  0  0  0  0
 23 44  1  0  0  0  0
 24 25  1  0  0  0  0
 24 28  2  0  0  0  0
 25 26  1  0  0  0  0
 25 45  1  0  0  0  0
 25 46  1  0  0  0  0
 26 27  1  0  0  0  0
 26 47  1  0  0  0  0
 26 48  1  0  0  0  0
 27 49  1  0  0  0  0
 28 29  1  0  0  0  0
 28 50  1  0  0  0  0
 30 31  2  0  0  0  0
 30 51  1  0  0  0  0
 31 32  1  0  0  0  0
 31 52  1  0  0  0  0
 33 53  1  0  0  0  0
M  END
$$$$
