CHEMBL219543
 OpenBabel04072215363D

 55 60  0  0  0  0  0  0  0  0999 V2000
    2.3620   -2.3088   -2.3003 C   0  0  0  0  0  0  0  0  0  0  0  0
    2.5526   -0.8512   -2.6962 C   0  0  0  0  0  0  0  0  0  0  0  0
    3.5795   -0.1184   -1.8397 C   0  0  0  0  0  0  0  0  0  0  0  0
    5.0408   -0.6312   -1.9178 C   0  0  0  0  0  0  0  0  0  0  0  0
    5.6914   -0.5424   -3.2221 N   0  0  0  0  0  0  0  0  0  0  0  0
    5.8584    0.6717   -3.9276 C   0  0  0  0  0  0  0  0  0  0  0  0
    5.5951    2.0079   -3.5738 C   0  0  0  0  0  0  0  0  0  0  0  0
    5.7253    3.0030   -4.5606 C   0  0  0  0  0  0  0  0  0  0  0  0
    6.2016    2.7189   -5.8362 C   0  0  0  0  0  0  0  0  0  0  0  0
    6.1910    3.6889   -6.8483 N   0  0  0  0  0  0  0  0  0  0  0  0
    6.4380    1.3915   -6.1793 C   0  0  0  0  0  0  0  0  0  0  0  0
    6.2571    0.3642   -5.2360 C   0  0  0  0  0  0  0  0  0  0  0  0
    6.2409   -1.0133   -5.2380 C   0  0  0  0  0  0  0  0  0  0  0  0
    6.1748   -1.7690   -6.4158 C   0  0  0  0  0  0  0  0  0  0  0  0
    5.6543   -3.0695   -6.2662 C   0  0  0  0  0  0  0  0  0  0  0  0
    5.3735   -3.6636   -5.0255 C   0  0  0  0  0  0  0  0  0  0  0  0
    6.0644   -3.0345   -3.9344 C   0  0  0  0  0  0  0  0  0  0  0  0
    6.0700   -1.6232   -4.0256 C   0  0  0  0  0  0  0  0  0  0  0  0
    7.3368   -3.8754   -3.4829 C   0  0  0  0  0  0  0  0  0  0  0  0
    7.6955   -5.0942   -4.4347 C   0  0  0  0  0  0  0  0  0  0  0  0
    6.4313   -5.8457   -4.6565 C   0  0  0  0  0  0  0  0  0  0  0  0
    6.1591   -7.1038   -4.3127 N   0  0  0  0  0  0  0  0  0  0  0  0
    4.8014   -7.1206   -4.3163 N   0  0  0  0  0  0  0  0  0  0  0  0
    4.0989   -8.2862   -3.8372 C   0  0  0  0  0  0  0  0  0  0  0  0
    4.2357   -5.8947   -4.5715 C   0  0  0  0  0  0  0  0  0  0  0  0
    5.2817   -5.0988   -4.9557 C   0  0  0  0  0  0  0  0  0  0  0  0
    5.6252   -3.6714   -7.5783 C   0  0  0  0  0  0  0  0  0  0  0  0
    5.2800   -4.7669   -7.9983 O   0  0  0  0  0  0  0  0  0  0  0  0
    6.1649   -2.6995   -8.4132 N   0  0  0  0  0  0  0  0  0  0  0  0
    6.5004   -1.4394   -7.7979 C   0  0  0  0  0  0  0  0  0  0  0  0
    1.5745   -2.7684   -2.9064 H   0  0  0  0  0  0  0  0  0  0  0  0
    2.0668   -2.3865   -1.2482 H   0  0  0  0  0  0  0  0  0  0  0  0
    3.2743   -2.8906   -2.4454 H   0  0  0  0  0  0  0  0  0  0  0  0
    1.5872   -0.3380   -2.6016 H   0  0  0  0  0  0  0  0  0  0  0  0
    2.8270   -0.7948   -3.7606 H   0  0  0  0  0  0  0  0  0  0  0  0
    3.2572   -0.1649   -0.7934 H   0  0  0  0  0  0  0  0  0  0  0  0
    3.5339    0.9399   -2.1121 H   0  0  0  0  0  0  0  0  0  0  0  0
    5.1004   -1.6681   -1.5702 H   0  0  0  0  0  0  0  0  0  0  0  0
    5.6562   -0.0319   -1.2348 H   0  0  0  0  0  0  0  0  0  0  0  0
    5.2294    2.2794   -2.5898 H   0  0  0  0  0  0  0  0  0  0  0  0
    5.4262    4.0207   -4.3146 H   0  0  0  0  0  0  0  0  0  0  0  0
    6.3141    4.6373   -6.5140 H   0  0  0  0  0  0  0  0  0  0  0  0
    6.8029    3.4720   -7.6292 H   0  0  0  0  0  0  0  0  0  0  0  0
    6.7426    1.1553   -7.1904 H   0  0  0  0  0  0  0  0  0  0  0  0
    7.1382   -4.2699   -2.4806 H   0  0  0  0  0  0  0  0  0  0  0  0
    8.2114   -3.2164   -3.4360 H   0  0  0  0  0  0  0  0  0  0  0  0
    8.4877   -5.7261   -4.0249 H   0  0  0  0  0  0  0  0  0  0  0  0
    8.0525   -4.7146   -5.4049 H   0  0  0  0  0  0  0  0  0  0  0  0
    4.7877   -9.1332   -3.7887 H   0  0  0  0  0  0  0  0  0  0  0  0
    3.2810   -8.5071   -4.5268 H   0  0  0  0  0  0  0  0  0  0  0  0
    3.7100   -8.0610   -2.8406 H   0  0  0  0  0  0  0  0  0  0  0  0
    3.1868   -5.6999   -4.3993 H   0  0  0  0  0  0  0  0  0  0  0  0
    6.2903   -2.9063   -9.3921 H   0  0  0  0  0  0  0  0  0  0  0  0
    5.8510   -0.6663   -8.2163 H   0  0  0  0  0  0  0  0  0  0  0  0
    7.5585   -1.2217   -7.9413 H   0  0  0  0  0  0  0  0  0  0  0  0
  1  2  1  0  0  0  0
  1 31  1  0  0  0  0
  1 32  1  0  0  0  0
  1 33  1  0  0  0  0
  2  3  1  0  0  0  0
  2 34  1  0  0  0  0
  2 35  1  0  0  0  0
  3  4  1  0  0  0  0
  3 36  1  0  0  0  0
  3 37  1  0  0  0  0
  4  5  1  0  0  0  0
  4 38  1  0  0  0  0
  4 39  1  0  0  0  0
  5  6  1  0  0  0  0
  5 18  1  0  0  0  0
  6  7  1  0  0  0  0
  6 12  2  0  0  0  0
  7  8  2  0  0  0  0
  7 40  1  0  0  0  0
  8  9  1  0  0  0  0
  8 41  1  0  0  0  0
  9 10  1  0  0  0  0
  9 11  2  0  0  0  0
 10 42  1  0  0  0  0
 10 43  1  0  0  0  0
 11 12  1  0  0  0  0
 11 44  1  0  0  0  0
 12 13  1  0  0  0  0
 13 14  1  0  0  0  0
 13 18  2  0  0  0  0
 14 15  2  0  0  0  0
 14 30  1  0  0  0  0
 15 16  1  0  0  0  0
 15 27  1  0  0  0  0
 16 17  2  0  0  0  0
 16 26  1  0  0  0  0
 17 18  1  0  0  0  0
 17 19  1  0  0  0  0
 19 20  1  0  0  0  0
 19 45  1  0  0  0  0
 19 46  1  0  0  0  0
 20 21  1  0  0  0  0
 20 47  1  0  0  0  0
 20 48  1  0  0  0  0
 21 22  2  0  0  0  0
 21 26  1  0  0  0  0
 22 23  1  0  0  0  0
 23 24  1  0  0  0  0
 23 25  1  0  0  0  0
 24 49  1  0  0  0  0
 24 50  1  0  0  0  0
 24 51  1  0  0  0  0
 25 26  2  0  0  0  0
 25 52  1  0  0  0  0
 27 28  2  0  0  0  0
 27 29  1  0  0  0  0
 29 30  1  0  0  0  0
 29 53  1  0  0  0  0
 30 54  1  0  0  0  0
 30 55  1  0  0  0  0
M  END
$$$$
