CHEMBL4165455
 OpenBabel04072215383D

 68 73  0  0  0  0  0  0  0  0999 V2000
    1.7279   -2.2938   -3.8276 C   0  0  0  0  0  0  0  0  0  0  0  0
    2.9552   -1.8040   -3.2778 O   0  0  0  0  0  0  0  0  0  0  0  0
    3.8844   -1.4969   -4.2151 C   0  0  0  0  0  0  0  0  0  0  0  0
    3.7328   -1.5741   -5.4240 O   0  0  0  0  0  0  0  0  0  0  0  0
    5.1666   -1.0860   -3.5815 C   0  0  0  0  0  0  0  0  0  0  0  0
    5.3337   -0.9891   -2.1817 C   0  0  0  0  0  0  0  0  0  0  0  0
    6.5812   -0.6625   -1.6206 C   0  0  0  0  0  0  0  0  0  0  0  0
    7.6546   -0.4498   -2.4686 C   0  0  0  0  0  0  0  0  0  0  0  0
    7.4636   -0.5342   -3.8544 C   0  0  0  0  0  0  0  0  0  0  0  0
    6.2474   -0.8325   -4.4339 C   0  0  0  0  0  0  0  0  0  0  0  0
    8.6533   -0.3059   -4.5367 N   0  0  0  0  0  0  0  0  0  0  0  0
    9.6929   -0.0669   -3.6598 C   0  0  0  0  0  0  0  0  0  0  0  0
   10.8743    0.0500   -3.9309 O   0  0  0  0  0  0  0  0  0  0  0  0
    9.0678   -0.0777   -2.2884 C   0  0  0  0  0  0  0  0  0  0  0  0
    9.7986    0.2743   -1.2100 C   0  0  0  0  0  0  0  0  0  0  0  0
   11.0982    0.8005   -1.2415 N   0  0  0  0  0  0  0  0  0  0  0  0
   11.2911    2.2165   -1.0943 C   0  0  0  0  0  0  0  0  0  0  0  0
   12.5252    2.6565   -0.5795 C   0  0  0  0  0  0  0  0  0  0  0  0
   12.7680    4.0115   -0.3595 C   0  0  0  0  0  0  0  0  0  0  0  0
   11.7766    4.9222   -0.6808 C   0  0  0  0  0  0  0  0  0  0  0  0
   10.5827    4.5178   -1.2821 C   0  0  0  0  0  0  0  0  0  0  0  0
   10.3407    3.1709   -1.5168 C   0  0  0  0  0  0  0  0  0  0  0  0
    9.7664    5.6420   -1.5330 N   0  0  0  0  0  0  0  0  0  0  0  0
    8.5428    5.6419   -2.1862 C   0  0  0  0  0  0  0  0  0  0  0  0
    8.0420    4.6570   -2.7356 O   0  0  0  0  0  0  0  0  0  0  0  0
    7.8237    7.0004   -2.2779 C   0  0  0  0  0  0  0  0  0  0  0  0
    8.2114    7.7614   -3.4590 N   0  0  0  0  0  0  0  0  0  0  0  0
    7.8428    7.3498   -4.7908 C   0  0  0  0  0  0  0  0  0  0  0  0
    8.5873    8.3302   -5.6780 C   0  0  0  0  0  0  0  0  0  0  0  0
    8.6662    9.5983   -4.8367 C   0  0  0  0  0  0  0  0  0  0  0  0
    8.6739    9.0676   -3.4238 C   0  0  0  0  0  0  0  0  0  0  0  0
    8.9800    9.7017   -2.4276 O   0  0  0  0  0  0  0  0  0  0  0  0
   10.4102    6.8208   -0.9295 C   0  0  0  0  0  0  0  0  0  0  0  0
   11.8120    6.4045   -0.4798 C   0  0  0  0  0  0  0  0  0  0  0  0
    9.3033    0.0132    0.1596 C   0  0  0  0  0  0  0  0  0  0  0  0
    9.5901   -1.2342    0.7396 C   0  0  0  0  0  0  0  0  0  0  0  0
    9.1865   -1.5232    2.0430 C   0  0  0  0  0  0  0  0  0  0  0  0
    8.4917   -0.5672    2.7793 C   0  0  0  0  0  0  0  0  0  0  0  0
    8.2026    0.6756    2.2136 C   0  0  0  0  0  0  0  0  0  0  0  0
    8.6087    0.9688    0.9079 C   0  0  0  0  0  0  0  0  0  0  0  0
    1.0048   -2.3961   -3.0132 H   0  0  0  0  0  0  0  0  0  0  0  0
    1.8853   -3.2792   -4.2751 H   0  0  0  0  0  0  0  0  0  0  0  0
    1.3195   -1.5977   -4.5670 H   0  0  0  0  0  0  0  0  0  0  0  0
    4.4955   -1.1746   -1.5122 H   0  0  0  0  0  0  0  0  0  0  0  0
    6.6783   -0.5921   -0.5425 H   0  0  0  0  0  0  0  0  0  0  0  0
    6.1374   -0.8842   -5.5124 H   0  0  0  0  0  0  0  0  0  0  0  0
    8.7844   -0.3708   -5.5345 H   0  0  0  0  0  0  0  0  0  0  0  0
   11.5493    0.5569   -2.1347 H   0  0  0  0  0  0  0  0  0  0  0  0
   13.2848    1.9259   -0.3108 H   0  0  0  0  0  0  0  0  0  0  0  0
   13.7104    4.3385    0.0721 H   0  0  0  0  0  0  0  0  0  0  0  0
    9.4166    2.8570   -1.9870 H   0  0  0  0  0  0  0  0  0  0  0  0
    7.9987    7.5894   -1.3725 H   0  0  0  0  0  0  0  0  0  0  0  0
    6.7466    6.8238   -2.3269 H   0  0  0  0  0  0  0  0  0  0  0  0
    6.7576    7.4494   -4.8998 H   0  0  0  0  0  0  0  0  0  0  0  0
    8.1450    6.3166   -4.9790 H   0  0  0  0  0  0  0  0  0  0  0  0
    8.0976    8.4878   -6.6432 H   0  0  0  0  0  0  0  0  0  0  0  0
    9.6015    7.9591   -5.8716 H   0  0  0  0  0  0  0  0  0  0  0  0
    7.7776   10.2231   -4.9713 H   0  0  0  0  0  0  0  0  0  0  0  0
    9.5695   10.1736   -5.0530 H   0  0  0  0  0  0  0  0  0  0  0  0
    9.8048    7.1361   -0.0713 H   0  0  0  0  0  0  0  0  0  0  0  0
   10.4550    7.6432   -1.6468 H   0  0  0  0  0  0  0  0  0  0  0  0
   11.9830    6.6631    0.5707 H   0  0  0  0  0  0  0  0  0  0  0  0
   12.5810    6.8677   -1.1044 H   0  0  0  0  0  0  0  0  0  0  0  0
   10.1531   -1.9779    0.1793 H   0  0  0  0  0  0  0  0  0  0  0  0
    9.4301   -2.4860    2.4851 H   0  0  0  0  0  0  0  0  0  0  0  0
    8.1885   -0.7857    3.8000 H   0  0  0  0  0  0  0  0  0  0  0  0
    7.6732    1.4250    2.7966 H   0  0  0  0  0  0  0  0  0  0  0  0
    8.3945    1.9468    0.4856 H   0  0  0  0  0  0  0  0  0  0  0  0
  1  2  1  0  0  0  0
  1 41  1  0  0  0  0
  1 42  1  0  0  0  0
  1 43  1  0  0  0  0
  2  3  1  0  0  0  0
  3  4  2  0  0  0  0
  3  5  1  0  0  0  0
  5  6  1  0  0  0  0
  5 10  2  0  0  0  0
  6  7  2  0  0  0  0
  6 44  1  0  0  0  0
  7  8  1  0  0  0  0
  7 45  1  0  0  0  0
  8  9  2  0  0  0  0
  8 14  1  0  0  0  0
  9 10  1  0  0  0  0
  9 11  1  0  0  0  0
 10 46  1  0  0  0  0
 11 12  1  0  0  0  0
 11 47  1  0  0  0  0
 12 13  2  0  0  0  0
 12 14  1  0  0  0  0
 14 15  2  0  0  0  0
 15 16  1  0  0  0  0
 15 35  1  0  0  0  0
 16 17  1  0  0  0  0
 16 48  1  0  0  0  0
 17 18  1  0  0  0  0
 17 22  2  0  0  0  0
 18 19  2  0  0  0  0
 18 49  1  0  0  0  0
 19 20  1  0  0  0  0
 19 50  1  0  0  0  0
 20 21  2  0  0  0  0
 20 34  1  0  0  0  0
 21 22  1  0  0  0  0
 21 23  1  0  0  0  0
 22 51  1  0  0  0  0
 23 24  1  0  0  0  0
 23 33  1  0  0  0  0
 24 25  2  0  0  0  0
 24 26  1  0  0  0  0
 26 27  1  0  0  0  0
 26 52  1  0  0  0  0
 26 53  1  0  0  0  0
 27 28  1  0  0  0  0
 27 31  1  0  0  0  0
 28 29  1  0  0  0  0
 28 54  1  0  0  0  0
 28 55  1  0  0  0  0
 29 30  1  0  0  0  0
 29 56  1  0  0  0  0
 29 57  1  0  0  0  0
 30 31  1  0  0  0  0
 30 58  1  0  0  0  0
 30 59  1  0  0  0  0
 31 32  2  0  0  0  0
 33 34  1  0  0  0  0
 33 60  1  0  0  0  0
 33 61  1  0  0  0  0
 34 62  1  0  0  0  0
 34 63  1  0  0  0  0
 35 36  1  0  0  0  0
 35 40  2  0  0  0  0
 36 37  2  0  0  0  0
 36 64  1  0  0  0  0
 37 38  1  0  0  0  0
 37 65  1  0  0  0  0
 38 39  2  0  0  0  0
 38 66  1  0  0  0  0
 39 40  1  0  0  0  0
 39 67  1  0  0  0  0
 40 68  1  0  0  0  0
M  END
$$$$
