CHEMBL3906533
 OpenBabel04072215373D

 37 39  0  0  0  0  0  0  0  0999 V2000
    1.5268    0.7425    0.1537 C   0  0  0  0  0  0  0  0  0  0  0  0
    2.8857    0.2653    0.6291 C   0  0  0  0  0  0  0  0  0  0  0  0
    3.7767    1.3842    0.5775 O   0  0  0  0  0  0  0  0  0  0  0  0
    4.4177    1.5764   -0.6000 C   0  0  0  0  0  0  0  0  0  0  0  0
    4.5825    0.7583   -1.4884 O   0  0  0  0  0  0  0  0  0  0  0  0
    4.8332    2.9941   -0.6924 C   0  0  0  0  0  0  0  0  0  0  0  0
    4.1560    3.9859    0.0205 C   0  0  0  0  0  0  0  0  0  0  0  0
    4.5285    5.3231   -0.1130 C   0  0  0  0  0  0  0  0  0  0  0  0
    5.5516    5.7097   -0.9843 C   0  0  0  0  0  0  0  0  0  0  0  0
    6.0407    7.0283   -1.0649 N   0  0  0  0  0  0  0  0  0  0  0  0
    5.5493    8.2208   -0.4748 C   0  0  0  0  0  0  0  0  0  0  0  0
    4.2832    8.2807    0.0001 N   0  0  0  0  0  0  0  0  0  0  0  0
    3.8121    9.3814    0.6521 N   0  0  0  0  0  0  0  0  0  0  0  0
    4.6233   10.4391    0.8065 C   0  0  0  0  0  0  0  0  0  0  0  0
    5.9207   10.4741    0.3135 C   0  0  0  0  0  0  0  0  0  0  0  0
    6.7282   11.6143    0.4682 C   0  0  0  0  0  0  0  0  0  0  0  0
    8.0372   11.6274   -0.0074 C   0  0  0  0  0  0  0  0  0  0  0  0
    8.5601   10.4950   -0.6179 C   0  0  0  0  0  0  0  0  0  0  0  0
    7.7659    9.3563   -0.7740 C   0  0  0  0  0  0  0  0  0  0  0  0
    6.4176    9.3281   -0.3347 C   0  0  0  0  0  0  0  0  0  0  0  0
    6.2306    4.6983   -1.6865 C   0  0  0  0  0  0  0  0  0  0  0  0
    5.8711    3.3516   -1.5531 C   0  0  0  0  0  0  0  0  0  0  0  0
    0.7809   -0.0502    0.2381 H   0  0  0  0  0  0  0  0  0  0  0  0
    1.5780    1.0701   -0.8931 H   0  0  0  0  0  0  0  0  0  0  0  0
    1.2026    1.6112    0.7341 H   0  0  0  0  0  0  0  0  0  0  0  0
    3.2516   -0.5831    0.0375 H   0  0  0  0  0  0  0  0  0  0  0  0
    2.8256   -0.0590    1.6725 H   0  0  0  0  0  0  0  0  0  0  0  0
    3.3290    3.7410    0.6825 H   0  0  0  0  0  0  0  0  0  0  0  0
    3.9831    6.0479    0.4830 H   0  0  0  0  0  0  0  0  0  0  0  0
    6.4995    7.2243   -1.9466 H   0  0  0  0  0  0  0  0  0  0  0  0
    4.1874   11.2660    1.3569 H   0  0  0  0  0  0  0  0  0  0  0  0
    6.3401   12.5030    0.9619 H   0  0  0  0  0  0  0  0  0  0  0  0
    8.6485   12.5184    0.1087 H   0  0  0  0  0  0  0  0  0  0  0  0
    9.5885   10.4925   -0.9684 H   0  0  0  0  0  0  0  0  0  0  0  0
    8.2174    8.4802   -1.2346 H   0  0  0  0  0  0  0  0  0  0  0  0
    7.0636    4.9489   -2.3391 H   0  0  0  0  0  0  0  0  0  0  0  0
    6.4064    2.5881   -2.1130 H   0  0  0  0  0  0  0  0  0  0  0  0
  1  2  1  0  0  0  0
  1 23  1  0  0  0  0
  1 24  1  0  0  0  0
  1 25  1  0  0  0  0
  2  3  1  0  0  0  0
  2 26  1  0  0  0  0
  2 27  1  0  0  0  0
  3  4  1  0  0  0  0
  4  5  2  0  0  0  0
  4  6  1  0  0  0  0
  6  7  1  0  0  0  0
  6 22  2  0  0  0  0
  7  8  2  0  0  0  0
  7 28  1  0  0  0  0
  8  9  1  0  0  0  0
  8 29  1  0  0  0  0
  9 10  1  0  0  0  0
  9 21  2  0  0  0  0
 10 11  1  0  0  0  0
 10 30  1  0  0  0  0
 11 12  1  0  0  0  0
 11 20  2  0  0  0  0
 12 13  2  0  0  0  0
 13 14  1  0  0  0  0
 14 15  2  0  0  0  0
 14 31  1  0  0  0  0
 15 16  1  0  0  0  0
 15 20  1  0  0  0  0
 16 17  2  0  0  0  0
 16 32  1  0  0  0  0
 17 18  1  0  0  0  0
 17 33  1  0  0  0  0
 18 19  2  0  0  0  0
 18 34  1  0  0  0  0
 19 20  1  0  0  0  0
 19 35  1  0  0  0  0
 21 22  1  0  0  0  0
 21 36  1  0  0  0  0
 22 37  1  0  0  0  0
M  END
$$$$
