CHEMBL1997119
 OpenBabel04072215363D

 27 29  0  0  0  0  0  0  0  0999 V2000
    1.2191    0.0629   -0.0817 N   0  0  0  0  0  0  0  0  0  0  0  0
    2.5634    0.0744   -0.0454 C   0  0  0  0  0  0  0  0  0  0  0  0
    3.2792    1.1772   -0.0401 N   0  0  0  0  0  0  0  0  0  0  0  0
    4.5873    0.7802   -0.0344 C   0  0  0  0  0  0  0  0  0  0  0  0
    4.6816   -0.5906   -0.0223 C   0  0  0  0  0  0  0  0  0  0  0  0
    5.7516   -1.5235   -0.0257 C   0  0  0  0  0  0  0  0  0  0  0  0
    5.4755   -2.8381   -0.0216 C   0  0  0  0  0  0  0  0  0  0  0  0
    4.1085   -3.3280   -0.0215 C   0  0  0  0  0  0  0  0  0  0  0  0
    3.0769   -2.4525   -0.0225 C   0  0  0  0  0  0  0  0  0  0  0  0
    1.7207   -3.0199   -0.0371 C   0  0  0  0  0  0  0  0  0  0  0  0
    1.0688   -3.3467    1.1606 C   0  0  0  0  0  0  0  0  0  0  0  0
   -0.1960   -3.9386    1.1335 C   0  0  0  0  0  0  0  0  0  0  0  0
   -0.8199   -4.2008   -0.0847 C   0  0  0  0  0  0  0  0  0  0  0  0
   -0.1798   -3.8756   -1.2796 C   0  0  0  0  0  0  0  0  0  0  0  0
    1.0888   -3.2937   -1.2568 C   0  0  0  0  0  0  0  0  0  0  0  0
    3.3681   -1.0698   -0.0251 N   0  0  0  0  0  0  0  0  0  0  0  0
    0.7610    0.9559    0.0708 H   0  0  0  0  0  0  0  0  0  0  0  0
    0.6761   -0.7414    0.2096 H   0  0  0  0  0  0  0  0  0  0  0  0
    5.3923    1.5020   -0.0387 H   0  0  0  0  0  0  0  0  0  0  0  0
    6.7769   -1.1673   -0.0298 H   0  0  0  0  0  0  0  0  0  0  0  0
    6.2758   -3.5739   -0.0273 H   0  0  0  0  0  0  0  0  0  0  0  0
    3.9572   -4.4030   -0.0302 H   0  0  0  0  0  0  0  0  0  0  0  0
    1.5471   -3.1532    2.1173 H   0  0  0  0  0  0  0  0  0  0  0  0
   -0.6931   -4.2020    2.0652 H   0  0  0  0  0  0  0  0  0  0  0  0
   -1.8040   -4.6656   -0.1047 H   0  0  0  0  0  0  0  0  0  0  0  0
   -0.6650   -4.0827   -2.2311 H   0  0  0  0  0  0  0  0  0  0  0  0
    1.5848   -3.0589   -2.1984 H   0  0  0  0  0  0  0  0  0  0  0  0
  1  2  1  0  0  0  0
  1 17  1  0  0  0  0
  1 18  1  0  0  0  0
  2  3  2  0  0  0  0
  2 16  1  0  0  0  0
  3  4  1  0  0  0  0
  4  5  2  0  0  0  0
  4 19  1  0  0  0  0
  5  6  1  0  0  0  0
  5 16  1  0  0  0  0
  6  7  2  0  0  0  0
  6 20  1  0  0  0  0
  7  8  1  0  0  0  0
  7 21  1  0  0  0  0
  8  9  2  0  0  0  0
  8 22  1  0  0  0  0
  9 10  1  0  0  0  0
  9 16  1  0  0  0  0
 10 11  1  0  0  0  0
 10 15  2  0  0  0  0
 11 12  2  0  0  0  0
 11 23  1  0  0  0  0
 12 13  1  0  0  0  0
 12 24  1  0  0  0  0
 13 14  2  0  0  0  0
 13 25  1  0  0  0  0
 14 15  1  0  0  0  0
 14 26  1  0  0  0  0
 15 27  1  0  0  0  0
M  END
$$$$
