CHEMBL231801
 OpenBabel04072215363D

 63 66  0  0  0  0  0  0  0  0999 V2000
    5.8342   -1.7000   -1.2211 C   0  0  0  0  0  0  0  0  0  0  0  0
    4.4529   -1.0555   -1.0121 C   0  0  0  0  0  0  0  0  0  0  0  0
    3.3452   -1.9660   -1.5740 C   0  0  0  0  0  0  0  0  0  0  0  0
    4.2412   -0.9627    0.4444 N   0  0  0  0  0  0  0  0  0  0  0  0
    4.4011    0.3133   -1.6974 C   0  0  0  0  0  0  0  0  0  0  0  0
    4.6097    0.4335   -3.0811 C   0  0  0  0  0  0  0  0  0  0  0  0
    4.5613    1.6807   -3.7192 C   0  0  0  0  0  0  0  0  0  0  0  0
    4.2847    2.8618   -3.0091 C   0  0  0  0  0  0  0  0  0  0  0  0
    4.2160    4.1676   -3.7068 C   0  0  0  0  0  0  0  0  0  0  0  0
    3.7647    4.0778   -4.9907 N   0  0  0  0  0  0  0  0  0  0  0  0
    3.6977    5.2015   -5.7179 C   0  0  0  0  0  0  0  0  0  0  0  0
    3.3311    5.0909   -7.0494 N   0  0  0  0  0  0  0  0  0  0  0  0
    3.5919    6.0116   -8.0717 C   0  0  0  0  0  0  0  0  0  0  0  0
    4.7566    6.7852   -8.0873 C   0  0  0  0  0  0  0  0  0  0  0  0
    4.9432    7.7851   -9.0370 C   0  0  0  0  0  0  0  0  0  0  0  0
    3.9470    8.0454   -9.9722 C   0  0  0  0  0  0  0  0  0  0  0  0
    2.7607    7.2976   -9.9747 C   0  0  0  0  0  0  0  0  0  0  0  0
    1.7056    7.5925  -11.0221 C   0  0  0  0  0  0  0  0  0  0  0  0
    0.2661    7.2934  -10.5633 C   0  0  0  0  0  0  0  0  0  0  0  0
   -0.7845    7.4644  -11.5852 N   0  0  0  0  0  0  0  0  0  0  0  0
   -2.1118    7.1524  -10.9898 C   0  0  0  0  0  0  0  0  0  0  0  0
   -2.3299    5.6535  -10.6927 C   0  0  0  0  0  0  0  0  0  0  0  0
   -2.1145    4.8434  -11.8554 O   0  0  0  0  0  0  0  0  0  0  0  0
   -0.8174    5.0753  -12.4194 C   0  0  0  0  0  0  0  0  0  0  0  0
   -0.6119    6.5638  -12.7497 C   0  0  0  0  0  0  0  0  0  0  0  0
    2.6169    6.2594   -9.0370 C   0  0  0  0  0  0  0  0  0  0  0  0
    3.9715    6.4151   -5.2212 N   0  0  0  0  0  0  0  0  0  0  0  0
    4.3958    6.4906   -3.9554 C   0  0  0  0  0  0  0  0  0  0  0  0
    4.5777    5.3907   -3.1527 C   0  0  0  0  0  0  0  0  0  0  0  0
    5.1397    5.5857   -1.8628 C   0  0  0  0  0  0  0  0  0  0  0  0
    5.5929    5.7896   -0.8158 N   0  0  0  0  0  0  0  0  0  0  0  0
    4.0510    2.7281   -1.6332 C   0  0  0  0  0  0  0  0  0  0  0  0
    4.1337    1.4895   -0.9878 C   0  0  0  0  0  0  0  0  0  0  0  0
    5.9083   -2.6671   -0.7096 H   0  0  0  0  0  0  0  0  0  0  0  0
    6.6360   -1.0564   -0.8379 H   0  0  0  0  0  0  0  0  0  0  0  0
    6.0433   -1.8846   -2.2808 H   0  0  0  0  0  0  0  0  0  0  0  0
    3.3535   -2.9508   -1.0922 H   0  0  0  0  0  0  0  0  0  0  0  0
    3.4584   -2.1332   -2.6508 H   0  0  0  0  0  0  0  0  0  0  0  0
    2.3518   -1.5264   -1.4173 H   0  0  0  0  0  0  0  0  0  0  0  0
    4.3270   -1.8877    0.8615 H   0  0  0  0  0  0  0  0  0  0  0  0
    3.2817   -0.6674    0.6207 H   0  0  0  0  0  0  0  0  0  0  0  0
    4.8142   -0.4447   -3.6893 H   0  0  0  0  0  0  0  0  0  0  0  0
    4.7378    1.7174   -4.7940 H   0  0  0  0  0  0  0  0  0  0  0  0
    2.9287    4.1983   -7.2875 H   0  0  0  0  0  0  0  0  0  0  0  0
    5.5380    6.6079   -7.3524 H   0  0  0  0  0  0  0  0  0  0  0  0
    5.8600    8.3679   -9.0311 H   0  0  0  0  0  0  0  0  0  0  0  0
    4.0980    8.8433  -10.6954 H   0  0  0  0  0  0  0  0  0  0  0  0
    1.9745    6.9976  -11.9001 H   0  0  0  0  0  0  0  0  0  0  0  0
    1.7622    8.6504  -11.3105 H   0  0  0  0  0  0  0  0  0  0  0  0
    0.0445    7.9590   -9.7175 H   0  0  0  0  0  0  0  0  0  0  0  0
    0.2162    6.2773  -10.1714 H   0  0  0  0  0  0  0  0  0  0  0  0
   -2.8784    7.4796  -11.7034 H   0  0  0  0  0  0  0  0  0  0  0  0
   -2.2699    7.7426  -10.0792 H   0  0  0  0  0  0  0  0  0  0  0  0
   -3.3617    5.4909  -10.3660 H   0  0  0  0  0  0  0  0  0  0  0  0
   -1.6818    5.2969   -9.8838 H   0  0  0  0  0  0  0  0  0  0  0  0
   -0.7482    4.4835  -13.3376 H   0  0  0  0  0  0  0  0  0  0  0  0
   -0.0495    4.6971  -11.7346 H   0  0  0  0  0  0  0  0  0  0  0  0
   -1.3574    6.8564  -13.5007 H   0  0  0  0  0  0  0  0  0  0  0  0
    0.3583    6.7175  -13.2313 H   0  0  0  0  0  0  0  0  0  0  0  0
    1.7191    5.6524   -9.0023 H   0  0  0  0  0  0  0  0  0  0  0  0
    4.6099    7.4979   -3.6103 H   0  0  0  0  0  0  0  0  0  0  0  0
    3.7833    3.5788   -1.0125 H   0  0  0  0  0  0  0  0  0  0  0  0
    3.9821    1.4705    0.0891 H   0  0  0  0  0  0  0  0  0  0  0  0
  1  2  1  0  0  0  0
  1 34  1  0  0  0  0
  1 35  1  0  0  0  0
  1 36  1  0  0  0  0
  2  3  1  0  0  0  0
  2  4  1  0  0  0  0
  2  5  1  0  0  0  0
  3 37  1  0  0  0  0
  3 38  1  0  0  0  0
  3 39  1  0  0  0  0
  4 40  1  0  0  0  0
  4 41  1  0  0  0  0
  5  6  1  0  0  0  0
  5 33  2  0  0  0  0
  6  7  2  0  0  0  0
  6 42  1  0  0  0  0
  7  8  1  0  0  0  0
  7 43  1  0  0  0  0
  8  9  1  0  0  0  0
  8 32  2  0  0  0  0
  9 10  1  0  0  0  0
  9 29  2  0  0  0  0
 10 11  2  0  0  0  0
 11 12  1  0  0  0  0
 11 27  1  0  0  0  0
 12 13  1  0  0  0  0
 12 44  1  0  0  0  0
 13 14  1  0  0  0  0
 13 26  2  0  0  0  0
 14 15  2  0  0  0  0
 14 45  1  0  0  0  0
 15 16  1  0  0  0  0
 15 46  1  0  0  0  0
 16 17  2  0  0  0  0
 16 47  1  0  0  0  0
 17 18  1  0  0  0  0
 17 26  1  0  0  0  0
 18 19  1  0  0  0  0
 18 48  1  0  0  0  0
 18 49  1  0  0  0  0
 19 20  1  0  0  0  0
 19 50  1  0  0  0  0
 19 51  1  0  0  0  0
 20 21  1  0  0  0  0
 20 25  1  0  0  0  0
 21 22  1  0  0  0  0
 21 52  1  0  0  0  0
 21 53  1  0  0  0  0
 22 23  1  0  0  0  0
 22 54  1  0  0  0  0
 22 55  1  0  0  0  0
 23 24  1  0  0  0  0
 24 25  1  0  0  0  0
 24 56  1  0  0  0  0
 24 57  1  0  0  0  0
 25 58  1  0  0  0  0
 25 59  1  0  0  0  0
 26 60  1  0  0  0  0
 27 28  2  0  0  0  0
 28 29  1  0  0  0  0
 28 61  1  0  0  0  0
 29 30  1  0  0  0  0
 30 31  3  0  0  0  0
 32 33  1  0  0  0  0
 32 62  1  0  0  0  0
 33 63  1  0  0  0  0
M  END
$$$$
