CHEMBL221193
 OpenBabel04072215363D

 64 67  0  0  0  0  0  0  0  0999 V2000
    0.9316    0.9485    0.6574 C   0  0  0  0  0  0  0  0  0  0  0  0
    1.8792    0.0390   -0.0129 N   0  0  0  0  0  0  0  0  0  0  0  0
    2.6433    0.8434   -0.9806 C   0  0  0  0  0  0  0  0  0  0  0  0
    2.7715   -0.6357    0.9783 C   0  0  0  0  0  0  0  0  0  0  0  0
    3.8615   -1.5429    0.3590 C   0  0  0  0  0  0  0  0  0  0  0  0
    3.3543   -2.8968   -0.1376 C   0  0  0  0  0  0  0  0  0  0  0  0
    2.5858   -3.5730    0.9052 N   0  0  0  0  0  0  0  0  0  0  0  0
    2.7411   -4.9065    1.2687 C   0  0  0  0  0  0  0  0  0  0  0  0
    2.5206   -5.2712    2.6175 C   0  0  0  0  0  0  0  0  0  0  0  0
    2.6686   -6.5824    3.0948 C   0  0  0  0  0  0  0  0  0  0  0  0
    3.0535   -7.6045    2.2317 C   0  0  0  0  0  0  0  0  0  0  0  0
    3.1707   -9.0355    2.6845 C   0  0  0  0  0  0  0  0  0  0  0  0
    2.9937   -9.1987    4.0272 F   0  0  0  0  0  0  0  0  0  0  0  0
    2.2474   -9.8439    2.0918 F   0  0  0  0  0  0  0  0  0  0  0  0
    4.3834   -9.5861    2.4017 F   0  0  0  0  0  0  0  0  0  0  0  0
    3.3255   -7.2706    0.9027 C   0  0  0  0  0  0  0  0  0  0  0  0
    3.1954   -5.9491    0.4263 C   0  0  0  0  0  0  0  0  0  0  0  0
    3.4849   -5.7442   -0.9441 N   0  0  0  0  0  0  0  0  0  0  0  0
    4.7312   -6.0892   -1.4565 C   0  0  0  0  0  0  0  0  0  0  0  0
    5.6233   -6.6383   -0.8128 O   0  0  0  0  0  0  0  0  0  0  0  0
    5.0241   -5.7371   -2.8685 C   0  0  0  0  0  0  0  0  0  0  0  0
    6.0510   -6.4359   -3.5282 C   0  0  0  0  0  0  0  0  0  0  0  0
    6.3853   -6.1257   -4.8506 C   0  0  0  0  0  0  0  0  0  0  0  0
    7.4423   -6.8313   -5.5170 C   0  0  0  0  0  0  0  0  0  0  0  0
    8.3370   -7.4035   -6.0746 C   0  0  0  0  0  0  0  0  0  0  0  0
    9.4338   -8.0647   -6.6929 C   0  0  0  0  0  0  0  0  0  0  0  0
    9.3731   -8.6102   -7.9573 C   0  0  0  0  0  0  0  0  0  0  0  0
   10.4104   -9.2300   -8.5534 N   0  0  0  0  0  0  0  0  0  0  0  0
   11.5463   -9.3185   -7.8494 C   0  0  0  0  0  0  0  0  0  0  0  0
   12.6199   -9.9481   -8.4339 N   0  0  0  0  0  0  0  0  0  0  0  0
   11.7237   -8.7998   -6.6293 N   0  0  0  0  0  0  0  0  0  0  0  0
   10.6579   -8.1896   -6.0736 C   0  0  0  0  0  0  0  0  0  0  0  0
    5.7031   -5.1053   -5.5159 C   0  0  0  0  0  0  0  0  0  0  0  0
    4.6911   -4.4000   -4.8619 C   0  0  0  0  0  0  0  0  0  0  0  0
    4.3565   -4.7217   -3.5481 C   0  0  0  0  0  0  0  0  0  0  0  0
    3.3934   -4.0070   -2.9511 F   0  0  0  0  0  0  0  0  0  0  0  0
    1.4632   -2.7820    1.4250 C   0  0  0  0  0  0  0  0  0  0  0  0
    2.0054   -1.4851    2.0226 C   0  0  0  0  0  0  0  0  0  0  0  0
    0.3634    1.5367   -0.0737 H   0  0  0  0  0  0  0  0  0  0  0  0
    1.4412    1.6509    1.3284 H   0  0  0  0  0  0  0  0  0  0  0  0
    0.1793    0.3957    1.2262 H   0  0  0  0  0  0  0  0  0  0  0  0
    1.9694    1.4090   -1.6365 H   0  0  0  0  0  0  0  0  0  0  0  0
    3.2316    0.2134   -1.6531 H   0  0  0  0  0  0  0  0  0  0  0  0
    3.3095    1.5604   -0.4861 H   0  0  0  0  0  0  0  0  0  0  0  0
    3.3000    0.1553    1.5293 H   0  0  0  0  0  0  0  0  0  0  0  0
    4.6201   -1.7280    1.1321 H   0  0  0  0  0  0  0  0  0  0  0  0
    4.4025   -1.0438   -0.4509 H   0  0  0  0  0  0  0  0  0  0  0  0
    4.2445   -3.4639   -0.4227 H   0  0  0  0  0  0  0  0  0  0  0  0
    2.7245   -2.7660   -1.0240 H   0  0  0  0  0  0  0  0  0  0  0  0
    2.2729   -4.5060    3.3504 H   0  0  0  0  0  0  0  0  0  0  0  0
    2.4893   -6.7877    4.1488 H   0  0  0  0  0  0  0  0  0  0  0  0
    3.6240   -8.0607    0.2134 H   0  0  0  0  0  0  0  0  0  0  0  0
    2.9531   -5.0186   -1.4099 H   0  0  0  0  0  0  0  0  0  0  0  0
    6.5916   -7.2218   -3.0015 H   0  0  0  0  0  0  0  0  0  0  0  0
    8.4615   -8.5663   -8.5496 H   0  0  0  0  0  0  0  0  0  0  0  0
   12.5357   -9.9142   -9.4390 H   0  0  0  0  0  0  0  0  0  0  0  0
   13.4785   -9.6115   -8.0236 H   0  0  0  0  0  0  0  0  0  0  0  0
   10.8310   -7.7868   -5.0791 H   0  0  0  0  0  0  0  0  0  0  0  0
    5.9604   -4.8443   -6.5408 H   0  0  0  0  0  0  0  0  0  0  0  0
    4.1698   -3.5924   -5.3663 H   0  0  0  0  0  0  0  0  0  0  0  0
    0.8791   -3.3113    2.1857 H   0  0  0  0  0  0  0  0  0  0  0  0
    0.7637   -2.5706    0.6070 H   0  0  0  0  0  0  0  0  0  0  0  0
    2.6963   -1.7293    2.8413 H   0  0  0  0  0  0  0  0  0  0  0  0
    1.1916   -0.9245    2.4911 H   0  0  0  0  0  0  0  0  0  0  0  0
  1  2  1  0  0  0  0
  1 39  1  0  0  0  0
  1 40  1  0  0  0  0
  1 41  1  0  0  0  0
  2  3  1  0  0  0  0
  2  4  1  0  0  0  0
  3 42  1  0  0  0  0
  3 43  1  0  0  0  0
  3 44  1  0  0  0  0
  4  5  1  0  0  0  0
  4 38  1  0  0  0  0
  4 45  1  0  0  0  0
  5  6  1  0  0  0  0
  5 46  1  0  0  0  0
  5 47  1  0  0  0  0
  6  7  1  0  0  0  0
  6 48  1  0  0  0  0
  6 49  1  0  0  0  0
  7  8  1  0  0  0  0
  7 37  1  0  0  0  0
  8  9  1  0  0  0  0
  8 17  2  0  0  0  0
  9 10  2  0  0  0  0
  9 50  1  0  0  0  0
 10 11  1  0  0  0  0
 10 51  1  0  0  0  0
 11 12  1  0  0  0  0
 11 16  2  0  0  0  0
 12 13  1  0  0  0  0
 12 14  1  0  0  0  0
 12 15  1  0  0  0  0
 16 17  1  0  0  0  0
 16 52  1  0  0  0  0
 17 18  1  0  0  0  0
 18 19  1  0  0  0  0
 18 53  1  0  0  0  0
 19 20  2  0  0  0  0
 19 21  1  0  0  0  0
 21 22  1  0  0  0  0
 21 35  2  0  0  0  0
 22 23  2  0  0  0  0
 22 54  1  0  0  0  0
 23 24  1  0  0  0  0
 23 33  1  0  0  0  0
 24 25  3  0  0  0  0
 25 26  1  0  0  0  0
 26 27  1  0  0  0  0
 26 32  2  0  0  0  0
 27 28  2  0  0  0  0
 27 55  1  0  0  0  0
 28 29  1  0  0  0  0
 29 30  1  0  0  0  0
 29 31  2  0  0  0  0
 30 56  1  0  0  0  0
 30 57  1  0  0  0  0
 31 32  1  0  0  0  0
 32 58  1  0  0  0  0
 33 34  2  0  0  0  0
 33 59  1  0  0  0  0
 34 35  1  0  0  0  0
 34 60  1  0  0  0  0
 35 36  1  0  0  0  0
 37 38  1  0  0  0  0
 37 61  1  0  0  0  0
 37 62  1  0  0  0  0
 38 63  1  0  0  0  0
 38 64  1  0  0  0  0
M  END
$$$$
