CHEMBL3942716
 OpenBabel04072215373D

 58 61  0  0  0  0  0  0  0  0999 V2000
    0.6034    3.9971   -0.6379 C   0  0  0  0  0  0  0  0  0  0  0  0
    1.9097    4.1485   -1.2092 O   0  0  0  0  0  0  0  0  0  0  0  0
    2.8457    3.1989   -0.8710 C   0  0  0  0  0  0  0  0  0  0  0  0
    2.5807    2.1424   -0.0029 C   0  0  0  0  0  0  0  0  0  0  0  0
    3.5424    1.1705    0.2365 C   0  0  0  0  0  0  0  0  0  0  0  0
    3.3707    0.0779    1.0439 O   0  0  0  0  0  0  0  0  0  0  0  0
    2.1124   -0.0205    1.7046 C   0  0  0  0  0  0  0  0  0  0  0  0
    4.7922    1.2743   -0.3780 C   0  0  0  0  0  0  0  0  0  0  0  0
    5.1293    2.3500   -1.2210 C   0  0  0  0  0  0  0  0  0  0  0  0
    6.3912    2.3881   -1.8639 N   0  0  0  0  0  0  0  0  0  0  0  0
    6.9288    1.0001   -2.3592 C   0  0  0  0  0  0  0  0  0  0  0  0
    5.9654    0.1249   -3.2036 C   0  0  0  0  0  0  0  0  0  0  0  0
    6.6781   -1.4944   -3.5948 S   0  0  0  0  0  0  0  0  0  0  0  0
    5.3899   -2.3289   -4.5142 C   0  0  0  0  0  0  0  0  0  0  0  0
    7.7896   -1.3052   -4.5069 O   0  0  0  0  0  0  0  0  0  0  0  0
    6.8573   -2.2332   -2.3599 O   0  0  0  0  0  0  0  0  0  0  0  0
    7.3046    3.4966   -2.0860 C   0  0  0  0  0  0  0  0  0  0  0  0
    7.8091    3.5272   -3.3544 C   0  0  0  0  0  0  0  0  0  0  0  0
    9.0030    4.1331   -3.5389 C   0  0  0  0  0  0  0  0  0  0  0  0
    9.6633    4.7844   -2.5538 C   0  0  0  0  0  0  0  0  0  0  0  0
   10.9153    4.7351   -2.8865 N   0  0  0  0  0  0  0  0  0  0  0  0
   11.5217    5.9143   -2.8575 C   0  0  0  0  0  0  0  0  0  0  0  0
   11.0929    7.0333   -2.2191 C   0  0  0  0  0  0  0  0  0  0  0  0
   11.9051    8.2493   -2.8512 C   0  0  0  0  0  0  0  0  0  0  0  0
   12.6318    8.1328   -4.1218 C   0  0  0  0  0  0  0  0  0  0  0  0
   13.4078    9.1544   -4.4550 N   0  0  0  0  0  0  0  0  0  0  0  0
   13.2133   10.0201   -3.4628 N   0  0  0  0  0  0  0  0  0  0  0  0
   13.8463   11.3175   -3.6335 C   0  0  0  0  0  0  0  0  0  0  0  0
   12.3847    9.5030   -2.4490 C   0  0  0  0  0  0  0  0  0  0  0  0
    9.9038    6.8820   -1.4766 N   0  0  0  0  0  0  0  0  0  0  0  0
    9.0378    5.5453   -1.6195 C   0  0  0  0  0  0  0  0  0  0  0  0
    7.8013    4.5808   -1.2268 C   0  0  0  0  0  0  0  0  0  0  0  0
    4.1249    3.3110   -1.4589 C   0  0  0  0  0  0  0  0  0  0  0  0
   -0.0590    4.7537   -1.0687 H   0  0  0  0  0  0  0  0  0  0  0  0
    0.6298    4.1583    0.4467 H   0  0  0  0  0  0  0  0  0  0  0  0
    0.1645    3.0184   -0.8714 H   0  0  0  0  0  0  0  0  0  0  0  0
    1.6204    2.0733    0.4876 H   0  0  0  0  0  0  0  0  0  0  0  0
    2.1172   -0.9246    2.3180 H   0  0  0  0  0  0  0  0  0  0  0  0
    1.2963   -0.1136    0.9788 H   0  0  0  0  0  0  0  0  0  0  0  0
    1.9498    0.8350    2.3703 H   0  0  0  0  0  0  0  0  0  0  0  0
    5.5141    0.4883   -0.1720 H   0  0  0  0  0  0  0  0  0  0  0  0
    7.2789    0.4422   -1.4839 H   0  0  0  0  0  0  0  0  0  0  0  0
    7.8349    1.1241   -2.9667 H   0  0  0  0  0  0  0  0  0  0  0  0
    5.7365    0.5869   -4.1689 H   0  0  0  0  0  0  0  0  0  0  0  0
    5.0329   -0.1054   -2.6848 H   0  0  0  0  0  0  0  0  0  0  0  0
    5.1564   -1.7483   -5.4082 H   0  0  0  0  0  0  0  0  0  0  0  0
    4.5086   -2.4345   -3.8791 H   0  0  0  0  0  0  0  0  0  0  0  0
    5.7439   -3.3224   -4.8101 H   0  0  0  0  0  0  0  0  0  0  0  0
    7.4348    2.9280   -4.1749 H   0  0  0  0  0  0  0  0  0  0  0  0
    9.5225    4.0305   -4.4885 H   0  0  0  0  0  0  0  0  0  0  0  0
   12.3475    5.8414   -3.5657 H   0  0  0  0  0  0  0  0  0  0  0  0
   12.6666    7.3114   -4.8265 H   0  0  0  0  0  0  0  0  0  0  0  0
   14.4582   11.3167   -4.5530 H   0  0  0  0  0  0  0  0  0  0  0  0
   14.5045   11.5381   -2.7929 H   0  0  0  0  0  0  0  0  0  0  0  0
   13.0689   12.0731   -3.7579 H   0  0  0  0  0  0  0  0  0  0  0  0
   12.2669   10.0959   -1.5566 H   0  0  0  0  0  0  0  0  0  0  0  0
    7.3268    4.7187   -0.2480 H   0  0  0  0  0  0  0  0  0  0  0  0
    4.3087    4.1311   -2.1495 H   0  0  0  0  0  0  0  0  0  0  0  0
  1  2  1  0  0  0  0
  1 34  1  0  0  0  0
  1 35  1  0  0  0  0
  1 36  1  0  0  0  0
  2  3  1  0  0  0  0
  3  4  1  0  0  0  0
  3 33  2  0  0  0  0
  4  5  2  0  0  0  0
  4 37  1  0  0  0  0
  5  6  1  0  0  0  0
  5  8  1  0  0  0  0
  6  7  1  0  0  0  0
  7 38  1  0  0  0  0
  7 39  1  0  0  0  0
  7 40  1  0  0  0  0
  8  9  2  0  0  0  0
  8 41  1  0  0  0  0
  9 10  1  0  0  0  0
  9 33  1  0  0  0  0
 10 11  1  0  0  0  0
 10 17  1  0  0  0  0
 11 12  1  0  0  0  0
 11 42  1  0  0  0  0
 11 43  1  0  0  0  0
 12 13  1  0  0  0  0
 12 44  1  0  0  0  0
 12 45  1  0  0  0  0
 13 14  1  0  0  0  0
 13 15  2  0  0  0  0
 13 16  2  0  0  0  0
 14 46  1  0  0  0  0
 14 47  1  0  0  0  0
 14 48  1  0  0  0  0
 17 18  1  0  0  0  0
 17 32  2  0  0  0  0
 18 19  2  0  0  0  0
 18 49  1  0  0  0  0
 19 20  1  0  0  0  0
 19 50  1  0  0  0  0
 20 21  1  0  0  0  0
 20 31  2  0  0  0  0
 21 22  2  0  0  0  0
 22 23  1  0  0  0  0
 22 51  1  0  0  0  0
 23 24  1  0  0  0  0
 23 30  2  0  0  0  0
 24 25  1  0  0  0  0
 24 29  2  0  0  0  0
 25 26  2  0  0  0  0
 25 52  1  0  0  0  0
 26 27  1  0  0  0  0
 27 28  1  0  0  0  0
 27 29  1  0  0  0  0
 28 53  1  0  0  0  0
 28 54  1  0  0  0  0
 28 55  1  0  0  0  0
 29 56  1  0  0  0  0
 30 31  1  0  0  0  0
 31 32  1  0  0  0  0
 32 57  1  0  0  0  0
 33 58  1  0  0  0  0
M  END
$$$$
