CHEMBL4792804
 OpenBabel04072215383D

 88 93  0  0  0  0  0  0  0  0999 V2000
    1.7793   -0.6163   -1.7607 C   0  0  0  0  0  0  0  0  0  0  0  0
    1.6385    0.5964   -1.0046 O   0  0  0  0  0  0  0  0  0  0  0  0
    2.5509    1.5935   -1.2295 C   0  0  0  0  0  0  0  0  0  0  0  0
    3.7663    1.3337   -1.8489 C   0  0  0  0  0  0  0  0  0  0  0  0
    4.5728    2.3547   -2.3480 C   0  0  0  0  0  0  0  0  0  0  0  0
    5.6423    2.1473   -3.2206 C   0  0  0  0  0  0  0  0  0  0  0  0
    6.0805    0.9080   -3.6443 O   0  0  0  0  0  0  0  0  0  0  0  0
    5.2552   -0.0738   -4.1553 C   0  0  0  0  0  0  0  0  0  0  0  0
    3.9909    0.0984   -4.7221 C   0  0  0  0  0  0  0  0  0  0  0  0
    3.2805   -1.0109   -5.2402 C   0  0  0  0  0  0  0  0  0  0  0  0
    3.8342   -2.3021   -5.2529 C   0  0  0  0  0  0  0  0  0  0  0  0
    3.1907   -3.3583   -5.9482 N   0  0  0  0  0  0  0  0  0  0  0  0
    3.8123   -4.3038   -6.8099 C   0  0  0  0  0  0  0  0  0  0  0  0
    5.1696   -4.3728   -6.7906 N   0  0  0  0  0  0  0  0  0  0  0  0
    5.8130   -5.2503   -7.5823 C   0  0  0  0  0  0  0  0  0  0  0  0
    5.1716   -6.0978   -8.4534 C   0  0  0  0  0  0  0  0  0  0  0  0
    3.7851   -6.0408   -8.5116 C   0  0  0  0  0  0  0  0  0  0  0  0
    3.0943   -6.8997   -9.3819 N   0  0  0  0  0  0  0  0  0  0  0  0
    1.7379   -6.8136   -9.5190 C   0  0  0  0  0  0  0  0  0  0  0  0
    0.9425   -6.0226   -8.7840 C   0  0  0  0  0  0  0  0  0  0  0  0
   -0.5015   -5.9882   -9.0447 C   0  0  0  0  0  0  0  0  0  0  0  0
   -1.3666   -6.9121   -8.4392 C   0  0  0  0  0  0  0  0  0  0  0  0
   -2.7384   -6.8657   -8.7016 C   0  0  0  0  0  0  0  0  0  0  0  0
   -3.2398   -5.9046   -9.5723 C   0  0  0  0  0  0  0  0  0  0  0  0
   -4.5558   -5.8560   -9.8144 F   0  0  0  0  0  0  0  0  0  0  0  0
   -2.3946   -4.9965  -10.1990 C   0  0  0  0  0  0  0  0  0  0  0  0
   -1.0236   -5.0401   -9.9372 C   0  0  0  0  0  0  0  0  0  0  0  0
    1.5988   -5.1401   -7.7575 C   0  0  0  0  0  0  0  0  0  0  0  0
    0.9380   -4.3908   -7.0431 O   0  0  0  0  0  0  0  0  0  0  0  0
    3.0848   -5.1559   -7.6577 C   0  0  0  0  0  0  0  0  0  0  0  0
    5.0813   -2.4627   -4.6412 C   0  0  0  0  0  0  0  0  0  0  0  0
    5.7758   -1.3706   -4.1152 C   0  0  0  0  0  0  0  0  0  0  0  0
    6.9816   -1.5915   -3.5697 F   0  0  0  0  0  0  0  0  0  0  0  0
    6.4514    3.1491   -3.6059 N   0  0  0  0  0  0  0  0  0  0  0  0
    6.1339    4.3690   -3.1537 C   0  0  0  0  0  0  0  0  0  0  0  0
    5.0978    4.6794   -2.3591 N   0  0  0  0  0  0  0  0  0  0  0  0
    4.3116    3.6700   -1.9682 C   0  0  0  0  0  0  0  0  0  0  0  0
    3.2042    3.9155   -1.1532 C   0  0  0  0  0  0  0  0  0  0  0  0
    2.2819    2.9064   -0.8103 C   0  0  0  0  0  0  0  0  0  0  0  0
    1.1399    3.1305   -0.0619 O   0  0  0  0  0  0  0  0  0  0  0  0
    0.8193    4.5039    0.1987 C   0  0  0  0  0  0  0  0  0  0  0  0
   -0.5365    4.6853    0.8828 C   0  0  0  0  0  0  0  0  0  0  0  0
   -1.6807    4.0163    0.1389 C   0  0  0  0  0  0  0  0  0  0  0  0
   -2.9240    4.4405    0.6916 O   0  0  0  0  0  0  0  0  0  0  0  0
    1.5605   -0.7799    1.7160 C   0  0  0  0  0  0  0  0  0  0  0  0
    3.0273   -0.5512    1.4734 C   0  0  0  0  0  0  0  0  0  0  0  0
    3.5950    0.7044    1.7377 C   0  0  0  0  0  0  0  0  0  0  0  0
    4.9286    0.9627    1.4162 C   0  0  0  0  0  0  0  0  0  0  0  0
    5.7017   -0.0488    0.8491 C   0  0  0  0  0  0  0  0  0  0  0  0
    7.3689    0.2740    0.3672 S   0  0  0  0  0  0  0  0  0  0  0  0
    7.6363    1.6901    0.5169 O   0  0  0  0  0  0  0  0  0  0  0  0
    8.2123   -0.7269    0.9836 O   0  0  0  0  0  0  0  0  0  0  0  0
    7.3777    0.0054   -1.2183 O   0  0  0  0  0  0  0  0  0  0  0  0
    5.1646   -1.3172    0.6121 C   0  0  0  0  0  0  0  0  0  0  0  0
    3.8280   -1.5658    0.9294 C   0  0  0  0  0  0  0  0  0  0  0  0
    1.2389   -1.4109   -1.2408 H   0  0  0  0  0  0  0  0  0  0  0  0
    2.8005   -0.9964   -1.8541 H   0  0  0  0  0  0  0  0  0  0  0  0
    1.3425   -0.4893   -2.7546 H   0  0  0  0  0  0  0  0  0  0  0  0
    4.1210    0.3219   -1.9667 H   0  0  0  0  0  0  0  0  0  0  0  0
    3.5275    1.0794   -4.7761 H   0  0  0  0  0  0  0  0  0  0  0  0
    2.2956   -0.8412   -5.6717 H   0  0  0  0  0  0  0  0  0  0  0  0
    2.2303   -3.1676   -6.2402 H   0  0  0  0  0  0  0  0  0  0  0  0
    6.8948   -5.2453   -7.4905 H   0  0  0  0  0  0  0  0  0  0  0  0
    5.7428   -6.7777   -9.0724 H   0  0  0  0  0  0  0  0  0  0  0  0
    3.6174   -7.3670  -10.1160 H   0  0  0  0  0  0  0  0  0  0  0  0
    1.3416   -7.4472  -10.3102 H   0  0  0  0  0  0  0  0  0  0  0  0
   -0.9807   -7.6668   -7.7572 H   0  0  0  0  0  0  0  0  0  0  0  0
   -3.4186   -7.5675   -8.2282 H   0  0  0  0  0  0  0  0  0  0  0  0
   -2.8081   -4.2613  -10.8772 H   0  0  0  0  0  0  0  0  0  0  0  0
   -0.3654   -4.3282  -10.4308 H   0  0  0  0  0  0  0  0  0  0  0  0
    5.5529   -3.4395   -4.5854 H   0  0  0  0  0  0  0  0  0  0  0  0
    6.7766    5.1879   -3.4606 H   0  0  0  0  0  0  0  0  0  0  0  0
    3.0721    4.9399   -0.8171 H   0  0  0  0  0  0  0  0  0  0  0  0
    0.7917    5.0575   -0.7473 H   0  0  0  0  0  0  0  0  0  0  0  0
    1.5811    4.9400    0.8575 H   0  0  0  0  0  0  0  0  0  0  0  0
   -0.7423    5.7610    0.9720 H   0  0  0  0  0  0  0  0  0  0  0  0
   -0.5061    4.3041    1.9107 H   0  0  0  0  0  0  0  0  0  0  0  0
   -1.6234    2.9261    0.2070 H   0  0  0  0  0  0  0  0  0  0  0  0
   -1.6780    4.3019   -0.9167 H   0  0  0  0  0  0  0  0  0  0  0  0
   -3.0240    4.0106    1.5582 H   0  0  0  0  0  0  0  0  0  0  0  0
    0.9686    0.0658    1.3477 H   0  0  0  0  0  0  0  0  0  0  0  0
    1.3585   -0.9088    2.7809 H   0  0  0  0  0  0  0  0  0  0  0  0
    1.2085   -1.6692    1.1813 H   0  0  0  0  0  0  0  0  0  0  0  0
    2.9758    1.5108    2.1275 H   0  0  0  0  0  0  0  0  0  0  0  0
    5.3358    1.9594    1.5684 H   0  0  0  0  0  0  0  0  0  0  0  0
    7.8296    0.7535   -1.6522 H   0  0  0  0  0  0  0  0  0  0  0  0
    5.7709   -2.1037    0.1649 H   0  0  0  0  0  0  0  0  0  0  0  0
    3.4005   -2.5425    0.7113 H   0  0  0  0  0  0  0  0  0  0  0  0
  1  2  1  0  0  0  0
  1 56  1  0  0  0  0
  1 57  1  0  0  0  0
  1 58  1  0  0  0  0
  2  3  1  0  0  0  0
  3  4  1  0  0  0  0
  3 39  2  0  0  0  0
  4  5  2  0  0  0  0
  4 59  1  0  0  0  0
  5  6  1  0  0  0  0
  5 37  1  0  0  0  0
  6  7  1  0  0  0  0
  6 34  2  0  0  0  0
  7  8  1  0  0  0  0
  8  9  1  0  0  0  0
  8 32  2  0  0  0  0
  9 10  2  0  0  0  0
  9 60  1  0  0  0  0
 10 11  1  0  0  0  0
 10 61  1  0  0  0  0
 11 12  1  0  0  0  0
 11 31  2  0  0  0  0
 12 13  1  0  0  0  0
 12 62  1  0  0  0  0
 13 14  1  0  0  0  0
 13 30  2  0  0  0  0
 14 15  2  0  0  0  0
 15 16  1  0  0  0  0
 15 63  1  0  0  0  0
 16 17  2  0  0  0  0
 16 64  1  0  0  0  0
 17 18  1  0  0  0  0
 17 30  1  0  0  0  0
 18 19  1  0  0  0  0
 18 65  1  0  0  0  0
 19 20  2  0  0  0  0
 19 66  1  0  0  0  0
 20 21  1  0  0  0  0
 20 28  1  0  0  0  0
 21 22  1  0  0  0  0
 21 27  2  0  0  0  0
 22 23  2  0  0  0  0
 22 67  1  0  0  0  0
 23 24  1  0  0  0  0
 23 68  1  0  0  0  0
 24 25  1  0  0  0  0
 24 26  2  0  0  0  0
 26 27  1  0  0  0  0
 26 69  1  0  0  0  0
 27 70  1  0  0  0  0
 28 29  2  0  0  0  0
 28 30  1  0  0  0  0
 31 32  1  0  0  0  0
 31 71  1  0  0  0  0
 32 33  1  0  0  0  0
 34 35  1  0  0  0  0
 35 36  2  0  0  0  0
 35 72  1  0  0  0  0
 36 37  1  0  0  0  0
 37 38  2  0  0  0  0
 38 39  1  0  0  0  0
 38 73  1  0  0  0  0
 39 40  1  0  0  0  0
 40 41  1  0  0  0  0
 41 42  1  0  0  0  0
 41 74  1  0  0  0  0
 41 75  1  0  0  0  0
 42 43  1  0  0  0  0
 42 76  1  0  0  0  0
 42 77  1  0  0  0  0
 43 44  1  0  0  0  0
 43 78  1  0  0  0  0
 43 79  1  0  0  0  0
 44 80  1  0  0  0  0
 45 46  1  0  0  0  0
 45 81  1  0  0  0  0
 45 82  1  0  0  0  0
 45 83  1  0  0  0  0
 46 47  1  0  0  0  0
 46 55  2  0  0  0  0
 47 48  2  0  0  0  0
 47 84  1  0  0  0  0
 48 49  1  0  0  0  0
 48 85  1  0  0  0  0
 49 50  1  0  0  0  0
 49 54  2  0  0  0  0
 50 51  2  0  0  0  0
 50 52  2  0  0  0  0
 50 53  1  0  0  0  0
 53 86  1  0  0  0  0
 54 55  1  0  0  0  0
 54 87  1  0  0  0  0
 55 88  1  0  0  0  0
M  END
$$$$
