CHEMBL234944
 OpenBabel04072215363D

 64 67  0  0  0  0  0  0  0  0999 V2000
    2.5737    1.1943   -0.1273 C   0  0  0  0  0  0  0  0  0  0  0  0
    2.6252   -0.2977    0.2539 C   0  0  0  0  0  0  0  0  0  0  0  0
    3.6052   -0.4490    1.4373 C   0  0  0  0  0  0  0  0  0  0  0  0
    1.2933   -0.7051    0.7253 N   0  0  0  0  0  0  0  0  0  0  0  0
    2.9968   -1.1373   -0.9693 C   0  0  0  0  0  0  0  0  0  0  0  0
    4.1310   -1.9547   -0.9971 C   0  0  0  0  0  0  0  0  0  0  0  0
    4.4587   -2.6975   -2.1330 C   0  0  0  0  0  0  0  0  0  0  0  0
    3.7062   -2.6170   -3.3144 C   0  0  0  0  0  0  0  0  0  0  0  0
    4.1231   -3.2882   -4.5677 C   0  0  0  0  0  0  0  0  0  0  0  0
    3.0902   -3.7062   -5.3574 N   0  0  0  0  0  0  0  0  0  0  0  0
    3.3866   -4.3024   -6.5220 C   0  0  0  0  0  0  0  0  0  0  0  0
    2.3373   -4.6775   -7.3622 N   0  0  0  0  0  0  0  0  0  0  0  0
    2.4183   -5.3356   -8.5990 C   0  0  0  0  0  0  0  0  0  0  0  0
    3.4788   -6.1960   -8.8978 C   0  0  0  0  0  0  0  0  0  0  0  0
    3.6375   -6.7556  -10.1647 C   0  0  0  0  0  0  0  0  0  0  0  0
    2.7016   -6.5169  -11.1669 C   0  0  0  0  0  0  0  0  0  0  0  0
    2.7238   -7.1200  -12.4073 O   0  0  0  0  0  0  0  0  0  0  0  0
    3.5313   -8.3099  -12.4459 C   0  0  0  0  0  0  0  0  0  0  0  0
    3.1816   -9.2485  -13.6183 C   0  0  0  0  0  0  0  0  0  0  0  0
    3.8421  -10.5601  -13.4592 N   0  0  0  0  0  0  0  0  0  0  0  0
    5.3141  -10.5523  -13.5924 C   0  0  0  0  0  0  0  0  0  0  0  0
    5.8776  -10.6915  -15.0221 C   0  0  0  0  0  0  0  0  0  0  0  0
    5.2357  -11.7245  -15.7767 O   0  0  0  0  0  0  0  0  0  0  0  0
    3.8167  -11.5353  -15.7720 C   0  0  0  0  0  0  0  0  0  0  0  0
    3.2896  -11.6102  -14.3349 C   0  0  0  0  0  0  0  0  0  0  0  0
    1.6546   -5.6352  -10.8996 C   0  0  0  0  0  0  0  0  0  0  0  0
    1.5116   -5.0525   -9.6253 C   0  0  0  0  0  0  0  0  0  0  0  0
    4.6461   -4.4943   -6.9318 N   0  0  0  0  0  0  0  0  0  0  0  0
    5.6475   -4.0673   -6.1577 C   0  0  0  0  0  0  0  0  0  0  0  0
    5.4471   -3.4399   -4.9586 C   0  0  0  0  0  0  0  0  0  0  0  0
    6.5889   -2.9740   -4.2550 C   0  0  0  0  0  0  0  0  0  0  0  0
    7.5485   -2.6251   -3.6966 N   0  0  0  0  0  0  0  0  0  0  0  0
    2.5376   -1.8409   -3.2686 C   0  0  0  0  0  0  0  0  0  0  0  0
    2.1882   -1.1225   -2.1185 C   0  0  0  0  0  0  0  0  0  0  0  0
    2.3266    1.8206    0.7384 H   0  0  0  0  0  0  0  0  0  0  0  0
    1.8249    1.4028   -0.9001 H   0  0  0  0  0  0  0  0  0  0  0  0
    3.5423    1.5326   -0.5150 H   0  0  0  0  0  0  0  0  0  0  0  0
    3.3004    0.1623    2.2944 H   0  0  0  0  0  0  0  0  0  0  0  0
    4.6171   -0.1278    1.1596 H   0  0  0  0  0  0  0  0  0  0  0  0
    3.6673   -1.4879    1.7858 H   0  0  0  0  0  0  0  0  0  0  0  0
    1.0592   -0.1955    1.5749 H   0  0  0  0  0  0  0  0  0  0  0  0
    1.3271   -1.6909    0.9832 H   0  0  0  0  0  0  0  0  0  0  0  0
    4.7998   -2.0346   -0.1448 H   0  0  0  0  0  0  0  0  0  0  0  0
    5.3373   -3.3326   -2.0573 H   0  0  0  0  0  0  0  0  0  0  0  0
    1.4509   -4.3009   -7.0687 H   0  0  0  0  0  0  0  0  0  0  0  0
    4.2135   -6.4590   -8.1415 H   0  0  0  0  0  0  0  0  0  0  0  0
    4.5113   -7.3782  -10.3202 H   0  0  0  0  0  0  0  0  0  0  0  0
    3.3724   -8.8880  -11.5264 H   0  0  0  0  0  0  0  0  0  0  0  0
    4.5798   -8.0021  -12.5204 H   0  0  0  0  0  0  0  0  0  0  0  0
    3.4073   -8.7734  -14.5796 H   0  0  0  0  0  0  0  0  0  0  0  0
    2.0919   -9.3889  -13.5964 H   0  0  0  0  0  0  0  0  0  0  0  0
    5.6716  -11.4151  -13.0157 H   0  0  0  0  0  0  0  0  0  0  0  0
    5.7685   -9.6810  -13.1113 H   0  0  0  0  0  0  0  0  0  0  0  0
    6.9396  -10.9560  -14.9619 H   0  0  0  0  0  0  0  0  0  0  0  0
    5.8010   -9.7510  -15.5770 H   0  0  0  0  0  0  0  0  0  0  0  0
    3.3743  -12.3337  -16.3759 H   0  0  0  0  0  0  0  0  0  0  0  0
    3.5731  -10.5802  -16.2510 H   0  0  0  0  0  0  0  0  0  0  0  0
    3.6010  -12.5747  -13.9099 H   0  0  0  0  0  0  0  0  0  0  0  0
    2.1947  -11.6081  -14.3169 H   0  0  0  0  0  0  0  0  0  0  0  0
    0.9358   -5.3986  -11.6797 H   0  0  0  0  0  0  0  0  0  0  0  0
    0.6900   -4.3613   -9.4543 H   0  0  0  0  0  0  0  0  0  0  0  0
    6.6412   -4.2417   -6.5622 H   0  0  0  0  0  0  0  0  0  0  0  0
    1.8866   -1.7758   -4.1387 H   0  0  0  0  0  0  0  0  0  0  0  0
    1.2683   -0.5375   -2.1305 H   0  0  0  0  0  0  0  0  0  0  0  0
  1  2  1  0  0  0  0
  1 35  1  0  0  0  0
  1 36  1  0  0  0  0
  1 37  1  0  0  0  0
  2  3  1  0  0  0  0
  2  4  1  0  0  0  0
  2  5  1  0  0  0  0
  3 38  1  0  0  0  0
  3 39  1  0  0  0  0
  3 40  1  0  0  0  0
  4 41  1  0  0  0  0
  4 42  1  0  0  0  0
  5  6  1  0  0  0  0
  5 34  2  0  0  0  0
  6  7  2  0  0  0  0
  6 43  1  0  0  0  0
  7  8  1  0  0  0  0
  7 44  1  0  0  0  0
  8  9  1  0  0  0  0
  8 33  2  0  0  0  0
  9 10  1  0  0  0  0
  9 30  2  0  0  0  0
 10 11  2  0  0  0  0
 11 12  1  0  0  0  0
 11 28  1  0  0  0  0
 12 13  1  0  0  0  0
 12 45  1  0  0  0  0
 13 14  1  0  0  0  0
 13 27  2  0  0  0  0
 14 15  2  0  0  0  0
 14 46  1  0  0  0  0
 15 16  1  0  0  0  0
 15 47  1  0  0  0  0
 16 17  1  0  0  0  0
 16 26  2  0  0  0  0
 17 18  1  0  0  0  0
 18 19  1  0  0  0  0
 18 48  1  0  0  0  0
 18 49  1  0  0  0  0
 19 20  1  0  0  0  0
 19 50  1  0  0  0  0
 19 51  1  0  0  0  0
 20 21  1  0  0  0  0
 20 25  1  0  0  0  0
 21 22  1  0  0  0  0
 21 52  1  0  0  0  0
 21 53  1  0  0  0  0
 22 23  1  0  0  0  0
 22 54  1  0  0  0  0
 22 55  1  0  0  0  0
 23 24  1  0  0  0  0
 24 25  1  0  0  0  0
 24 56  1  0  0  0  0
 24 57  1  0  0  0  0
 25 58  1  0  0  0  0
 25 59  1  0  0  0  0
 26 27  1  0  0  0  0
 26 60  1  0  0  0  0
 27 61  1  0  0  0  0
 28 29  2  0  0  0  0
 29 30  1  0  0  0  0
 29 62  1  0  0  0  0
 30 31  1  0  0  0  0
 31 32  3  0  0  0  0
 33 34  1  0  0  0  0
 33 63  1  0  0  0  0
 34 64  1  0  0  0  0
M  END
$$$$
