CHEMBL3919479
 OpenBabel04072215373D

 70 73  0  0  0  0  0  0  0  0999 V2000
    0.7866    2.8017    3.7548 C   0  0  0  0  0  0  0  0  0  0  0  0
    2.1524    3.0236    3.6574 O   0  0  0  0  0  0  0  0  0  0  0  0
    3.0174    2.2910    2.9093 C   0  0  0  0  0  0  0  0  0  0  0  0
    2.5749    1.1866    2.1521 C   0  0  0  0  0  0  0  0  0  0  0  0
    3.4489    0.4830    1.3332 C   0  0  0  0  0  0  0  0  0  0  0  0
    2.9574   -0.5679    0.6203 O   0  0  0  0  0  0  0  0  0  0  0  0
    3.6810   -1.3802   -0.2300 C   0  0  0  0  0  0  0  0  0  0  0  0
    4.7873    0.8943    1.2489 C   0  0  0  0  0  0  0  0  0  0  0  0
    5.2897    1.9870    1.9981 C   0  0  0  0  0  0  0  0  0  0  0  0
    6.6318    2.4746    1.7471 N   0  0  0  0  0  0  0  0  0  0  0  0
    7.1560    2.3409    0.3434 C   0  0  0  0  0  0  0  0  0  0  0  0
    6.3487    3.0031   -0.8146 C   0  0  0  0  0  0  0  0  0  0  0  0
    6.1326    4.5480   -0.8975 C   0  0  0  0  0  0  0  0  0  0  0  0
    5.3920    4.9164   -2.1479 N   0  0  0  0  0  0  0  0  0  0  0  0
    4.0784    4.2148   -2.2062 C   0  0  0  0  0  0  0  0  0  0  0  0
    3.0327    4.8491   -3.0867 C   0  0  0  0  0  0  0  0  0  0  0  0
    3.2256    5.9993   -3.7332 C   0  0  0  0  0  0  0  0  0  0  0  0
    4.5179    6.7408   -3.6128 C   0  0  0  0  0  0  0  0  0  0  0  0
    5.2460    6.3802   -2.3006 C   0  0  0  0  0  0  0  0  0  0  0  0
    7.6638    2.8779    2.7158 C   0  0  0  0  0  0  0  0  0  0  0  0
    8.4937    3.8817    2.2188 C   0  0  0  0  0  0  0  0  0  0  0  0
    9.7604    4.0359    2.6547 C   0  0  0  0  0  0  0  0  0  0  0  0
   10.2359    3.2941    3.6789 C   0  0  0  0  0  0  0  0  0  0  0  0
   11.5546    3.3370    3.8576 N   0  0  0  0  0  0  0  0  0  0  0  0
   12.1406    2.7760    4.8993 C   0  0  0  0  0  0  0  0  0  0  0  0
   11.3501    2.3569    5.9663 C   0  0  0  0  0  0  0  0  0  0  0  0
   12.0276    2.7098    7.2986 C   0  0  0  0  0  0  0  0  0  0  0  0
   13.1633    3.5543    7.3360 C   0  0  0  0  0  0  0  0  0  0  0  0
   13.4415    3.9441    8.5730 N   0  0  0  0  0  0  0  0  0  0  0  0
   12.5447    3.3887    9.3672 N   0  0  0  0  0  0  0  0  0  0  0  0
   12.5100    3.7346   10.7769 C   0  0  0  0  0  0  0  0  0  0  0  0
   11.6801    2.5984    8.6502 C   0  0  0  0  0  0  0  0  0  0  0  0
    9.9877    2.0937    5.7192 N   0  0  0  0  0  0  0  0  0  0  0  0
    9.4121    2.4999    4.5007 C   0  0  0  0  0  0  0  0  0  0  0  0
    8.0667    2.2197    3.9688 C   0  0  0  0  0  0  0  0  0  0  0  0
    4.3873    2.6713    2.8431 C   0  0  0  0  0  0  0  0  0  0  0  0
   -0.7371    0.9074   -1.7694 Cl  0  0  0  0  0  0  0  0  0  0  0  0
    0.3223    3.5889    4.3825 H   0  0  0  0  0  0  0  0  0  0  0  0
    0.5864    1.8124    4.2190 H   0  0  0  0  0  0  0  0  0  0  0  0
    0.3045    2.8419    2.7498 H   0  0  0  0  0  0  0  0  0  0  0  0
    1.5379    0.8720    2.1743 H   0  0  0  0  0  0  0  0  0  0  0  0
    3.0105   -2.1610   -0.6430 H   0  0  0  0  0  0  0  0  0  0  0  0
    4.5023   -1.8808    0.3269 H   0  0  0  0  0  0  0  0  0  0  0  0
    4.0954   -0.7879   -1.0744 H   0  0  0  0  0  0  0  0  0  0  0  0
    5.4293    0.3549    0.5791 H   0  0  0  0  0  0  0  0  0  0  0  0
    7.2496    1.2668    0.1000 H   0  0  0  0  0  0  0  0  0  0  0  0
    8.2065    2.6673    0.2209 H   0  0  0  0  0  0  0  0  0  0  0  0
    5.3748    2.4949   -0.8369 H   0  0  0  0  0  0  0  0  0  0  0  0
    6.8982    2.7423   -1.7451 H   0  0  0  0  0  0  0  0  0  0  0  0
    7.1221    5.0604   -0.8984 H   0  0  0  0  0  0  0  0  0  0  0  0
    5.5703    4.9024   -0.0050 H   0  0  0  0  0  0  0  0  0  0  0  0
    3.6346    4.1266   -1.1926 H   0  0  0  0  0  0  0  0  0  0  0  0
    4.2566    3.2003   -2.6249 H   0  0  0  0  0  0  0  0  0  0  0  0
    2.0836    4.3324   -3.1998 H   0  0  0  0  0  0  0  0  0  0  0  0
    2.4393    6.3811   -4.3806 H   0  0  0  0  0  0  0  0  0  0  0  0
    4.3124    7.8338   -3.6193 H   0  0  0  0  0  0  0  0  0  0  0  0
    5.1241    6.5042   -4.5136 H   0  0  0  0  0  0  0  0  0  0  0  0
    4.6646    6.7899   -1.4459 H   0  0  0  0  0  0  0  0  0  0  0  0
    6.2414    6.8771   -2.3254 H   0  0  0  0  0  0  0  0  0  0  0  0
    8.2075    4.4672    1.3664 H   0  0  0  0  0  0  0  0  0  0  0  0
   10.4114    4.7196    2.1361 H   0  0  0  0  0  0  0  0  0  0  0  0
   13.2039    2.8996    4.9415 H   0  0  0  0  0  0  0  0  0  0  0  0
   13.7251    3.9949    6.5266 H   0  0  0  0  0  0  0  0  0  0  0  0
   13.2534    4.5503   10.9696 H   0  0  0  0  0  0  0  0  0  0  0  0
   12.7621    2.8687   11.4085 H   0  0  0  0  0  0  0  0  0  0  0  0
   11.5129    4.1526   11.0210 H   0  0  0  0  0  0  0  0  0  0  0  0
   10.8412    2.0748    9.0769 H   0  0  0  0  0  0  0  0  0  0  0  0
    7.4436    1.4628    4.4423 H   0  0  0  0  0  0  0  0  0  0  0  0
    4.7138    3.5443    3.3919 H   0  0  0  0  0  0  0  0  0  0  0  0
    0.6339    0.9932   -1.8384 H   0  0  0  0  0  0  0  0  0  0  0  0
  1  2  1  0  0  0  0
  1 38  1  0  0  0  0
  1 39  1  0  0  0  0
  1 40  1  0  0  0  0
  2  3  1  0  0  0  0
  3  4  1  0  0  0  0
  3 36  2  0  0  0  0
  4  5  2  0  0  0  0
  4 41  1  0  0  0  0
  5  6  1  0  0  0  0
  5  8  1  0  0  0  0
  6  7  1  0  0  0  0
  7 42  1  0  0  0  0
  7 43  1  0  0  0  0
  7 44  1  0  0  0  0
  8  9  2  0  0  0  0
  8 45  1  0  0  0  0
  9 10  1  0  0  0  0
  9 36  1  0  0  0  0
 10 11  1  0  0  0  0
 10 20  1  0  0  0  0
 11 12  1  0  0  0  0
 11 46  1  0  0  0  0
 11 47  1  0  0  0  0
 12 13  1  0  0  0  0
 12 48  1  0  0  0  0
 12 49  1  0  0  0  0
 13 14  1  0  0  0  0
 13 50  1  0  0  0  0
 13 51  1  0  0  0  0
 14 15  1  0  0  0  0
 14 19  1  0  0  0  0
 15 16  1  0  0  0  0
 15 52  1  0  0  0  0
 15 53  1  0  0  0  0
 16 17  2  0  0  0  0
 16 54  1  0  0  0  0
 17 18  1  0  0  0  0
 17 55  1  0  0  0  0
 18 19  1  0  0  0  0
 18 56  1  0  0  0  0
 18 57  1  0  0  0  0
 19 58  1  0  0  0  0
 19 59  1  0  0  0  0
 20 21  1  0  0  0  0
 20 35  2  0  0  0  0
 21 22  2  0  0  0  0
 21 60  1  0  0  0  0
 22 23  1  0  0  0  0
 22 61  1  0  0  0  0
 23 24  1  0  0  0  0
 23 34  2  0  0  0  0
 24 25  2  0  0  0  0
 25 26  1  0  0  0  0
 25 62  1  0  0  0  0
 26 27  1  0  0  0  0
 26 33  2  0  0  0  0
 27 28  1  0  0  0  0
 27 32  2  0  0  0  0
 28 29  2  0  0  0  0
 28 63  1  0  0  0  0
 29 30  1  0  0  0  0
 30 31  1  0  0  0  0
 30 32  1  0  0  0  0
 31 64  1  0  0  0  0
 31 65  1  0  0  0  0
 31 66  1  0  0  0  0
 32 67  1  0  0  0  0
 33 34  1  0  0  0  0
 34 35  1  0  0  0  0
 35 68  1  0  0  0  0
 36 69  1  0  0  0  0
 37 70  1  0  0  0  0
M  END
$$$$
