CHEMBL1242289
 OpenBabel04072215363D

 46 49  0  0  0  0  0  0  0  0999 V2000
    4.1598    0.5511   -1.0454 C   0  0  0  0  0  0  0  0  0  0  0  0
    4.2557    1.1119    0.3630 C   0  0  0  0  0  0  0  0  0  0  0  0
    2.9634    1.3372    0.9142 O   0  0  0  0  0  0  0  0  0  0  0  0
    2.2719    2.4800    0.6335 C   0  0  0  0  0  0  0  0  0  0  0  0
    2.7907    3.6269    0.0354 C   0  0  0  0  0  0  0  0  0  0  0  0
    1.9711    4.7495   -0.1726 C   0  0  0  0  0  0  0  0  0  0  0  0
    0.6091    4.7283    0.1597 C   0  0  0  0  0  0  0  0  0  0  0  0
   -0.2773    5.8675   -0.1145 C   0  0  0  0  0  0  0  0  0  0  0  0
   -1.2892    6.1412    0.7322 N   0  0  0  0  0  0  0  0  0  0  0  0
   -1.8815    7.2410    0.2181 N   0  0  0  0  0  0  0  0  0  0  0  0
   -3.0202    7.8392    0.8825 C   0  0  0  0  0  0  0  0  0  0  0  0
   -2.7286    8.3092    2.3090 C   0  0  0  0  0  0  0  0  0  0  0  0
   -4.0872    8.3561    3.0056 C   0  0  0  0  0  0  0  0  0  0  0  0
   -5.0590    7.5707    2.1275 C   0  0  0  0  0  0  0  0  0  0  0  0
   -4.2077    6.8927    1.0621 C   0  0  0  0  0  0  0  0  0  0  0  0
   -1.3036    7.6687   -0.9453 C   0  0  0  0  0  0  0  0  0  0  0  0
   -1.6690    8.7304   -1.6859 N   0  0  0  0  0  0  0  0  0  0  0  0
   -0.8994    8.8591   -2.7769 C   0  0  0  0  0  0  0  0  0  0  0  0
    0.1086    8.0616   -3.1745 N   0  0  0  0  0  0  0  0  0  0  0  0
    0.4362    7.0017   -2.4076 C   0  0  0  0  0  0  0  0  0  0  0  0
    1.4513    6.1897   -2.8996 N   0  0  0  0  0  0  0  0  0  0  0  0
   -0.2701    6.7830   -1.2156 C   0  0  0  0  0  0  0  0  0  0  0  0
    0.0981    3.5835    0.7830 C   0  0  0  0  0  0  0  0  0  0  0  0
    0.9256    2.4842    1.0235 C   0  0  0  0  0  0  0  0  0  0  0  0
    0.4120    1.3768    1.6484 O   0  0  0  0  0  0  0  0  0  0  0  0
    5.1295    0.1646   -1.3739 H   0  0  0  0  0  0  0  0  0  0  0  0
    3.8378    1.3198   -1.7541 H   0  0  0  0  0  0  0  0  0  0  0  0
    3.4247   -0.2596   -1.0925 H   0  0  0  0  0  0  0  0  0  0  0  0
    4.9063    1.9898    0.4219 H   0  0  0  0  0  0  0  0  0  0  0  0
    4.7222    0.3496    0.9979 H   0  0  0  0  0  0  0  0  0  0  0  0
    3.8300    3.6965   -0.2663 H   0  0  0  0  0  0  0  0  0  0  0  0
    2.4247    5.6460   -0.5910 H   0  0  0  0  0  0  0  0  0  0  0  0
   -3.3467    8.7030    0.2879 H   0  0  0  0  0  0  0  0  0  0  0  0
   -2.2321    9.2854    2.3215 H   0  0  0  0  0  0  0  0  0  0  0  0
   -2.0735    7.6086    2.8403 H   0  0  0  0  0  0  0  0  0  0  0  0
   -4.4332    9.3890    3.1235 H   0  0  0  0  0  0  0  0  0  0  0  0
   -4.0193    7.9210    4.0088 H   0  0  0  0  0  0  0  0  0  0  0  0
   -5.7734    8.2589    1.6605 H   0  0  0  0  0  0  0  0  0  0  0  0
   -5.6368    6.8434    2.7072 H   0  0  0  0  0  0  0  0  0  0  0  0
   -4.7636    6.7446    0.1304 H   0  0  0  0  0  0  0  0  0  0  0  0
   -3.8885    5.9060    1.4179 H   0  0  0  0  0  0  0  0  0  0  0  0
   -1.1183    9.7032   -3.4241 H   0  0  0  0  0  0  0  0  0  0  0  0
    1.6398    6.4197   -3.8696 H   0  0  0  0  0  0  0  0  0  0  0  0
    1.3242    5.2029   -2.7103 H   0  0  0  0  0  0  0  0  0  0  0  0
   -0.9479    3.5563    1.0782 H   0  0  0  0  0  0  0  0  0  0  0  0
   -0.4770    1.5856    1.9751 H   0  0  0  0  0  0  0  0  0  0  0  0
  1  2  1  0  0  0  0
  1 26  1  0  0  0  0
  1 27  1  0  0  0  0
  1 28  1  0  0  0  0
  2  3  1  0  0  0  0
  2 29  1  0  0  0  0
  2 30  1  0  0  0  0
  3  4  1  0  0  0  0
  4  5  1  0  0  0  0
  4 24  2  0  0  0  0
  5  6  2  0  0  0  0
  5 31  1  0  0  0  0
  6  7  1  0  0  0  0
  6 32  1  0  0  0  0
  7  8  1  0  0  0  0
  7 23  2  0  0  0  0
  8  9  2  0  0  0  0
  8 22  1  0  0  0  0
  9 10  1  0  0  0  0
 10 11  1  0  0  0  0
 10 16  1  0  0  0  0
 11 12  1  0  0  0  0
 11 15  1  0  0  0  0
 11 33  1  0  0  0  0
 12 13  1  0  0  0  0
 12 34  1  0  0  0  0
 12 35  1  0  0  0  0
 13 14  1  0  0  0  0
 13 36  1  0  0  0  0
 13 37  1  0  0  0  0
 14 15  1  0  0  0  0
 14 38  1  0  0  0  0
 14 39  1  0  0  0  0
 15 40  1  0  0  0  0
 15 41  1  0  0  0  0
 16 17  1  0  0  0  0
 16 22  2  0  0  0  0
 17 18  2  0  0  0  0
 18 19  1  0  0  0  0
 18 42  1  0  0  0  0
 19 20  2  0  0  0  0
 20 21  1  0  0  0  0
 20 22  1  0  0  0  0
 21 43  1  0  0  0  0
 21 44  1  0  0  0  0
 23 24  1  0  0  0  0
 23 45  1  0  0  0  0
 24 25  1  0  0  0  0
 25 46  1  0  0  0  0
M  END
$$$$
