CHEMBL3910444
 OpenBabel04072215373D

 74 78  0  0  1  0  0  0  0  0999 V2000
    0.4562    4.0111   -0.8151 C   0  0  0  0  0  0  0  0  0  0  0  0
    1.7851    4.2241   -1.2954 O   0  0  0  0  0  0  0  0  0  0  0  0
    2.7482    3.3207   -0.8950 C   0  0  0  0  0  0  0  0  0  0  0  0
    2.4984    2.2503   -0.0375 C   0  0  0  0  0  0  0  0  0  0  0  0
    3.5177    1.3549    0.2727 C   0  0  0  0  0  0  0  0  0  0  0  0
    3.3945    0.2454    1.0668 O   0  0  0  0  0  0  0  0  0  0  0  0
    2.1320    0.0342    1.6877 C   0  0  0  0  0  0  0  0  0  0  0  0
    4.7917    1.5427   -0.2765 C   0  0  0  0  0  0  0  0  0  0  0  0
    5.0924    2.5920   -1.1596 C   0  0  0  0  0  0  0  0  0  0  0  0
    6.3149    2.6331   -1.8813 N   0  0  0  0  0  0  0  0  0  0  0  0
    6.9052    1.2777   -2.2668 C   0  0  0  0  0  0  0  0  0  0  0  0
    6.0137    0.4186   -3.1872 C   0  0  0  0  0  0  0  0  0  0  0  0
    6.6267   -0.9715   -3.5305 C   0  0  0  0  0  0  0  0  0  0  0  0
    6.9507   -1.8665   -2.3939 N   0  0  0  0  0  0  0  0  0  0  0  0
    5.7726   -2.1218   -1.5526 C   0  0  0  0  0  0  0  0  0  0  0  0
    6.1397   -2.9807   -0.3457 C   0  0  0  0  0  0  0  0  0  0  0  0
    6.7162   -4.3224   -0.7735 C   0  0  0  0  0  0  0  0  0  0  0  0
    7.8865   -4.1249   -1.7431 C   0  0  3  0  0  0  0  0  0  0  0  0
    8.3592   -5.4685   -2.2950 C   0  0  0  0  0  0  0  0  0  0  0  0
    8.7915   -6.3707   -1.3637 N   0  0  0  0  0  0  0  0  0  0  0  0
    8.3818   -5.7592   -3.4846 O   0  0  0  0  0  0  0  0  0  0  0  0
    7.4904   -3.1651   -2.8895 C   0  0  0  0  0  0  0  0  0  0  0  0
    7.3839    3.6088   -1.8522 C   0  0  0  0  0  0  0  0  0  0  0  0
    8.0202    3.7958   -3.0745 C   0  0  0  0  0  0  0  0  0  0  0  0
    9.3590    4.1312   -3.1073 C   0  0  0  0  0  0  0  0  0  0  0  0
   10.0369    4.4753   -1.9683 C   0  0  0  0  0  0  0  0  0  0  0  0
   11.3588    4.5558   -2.1260 N   0  0  0  0  0  0  0  0  0  0  0  0
   12.0507    5.1113   -1.1227 C   0  0  0  0  0  0  0  0  0  0  0  0
   11.4322    5.6728   -0.0265 C   0  0  0  0  0  0  0  0  0  0  0  0
   12.2401    6.6483    0.7060 C   0  0  0  0  0  0  0  0  0  0  0  0
   12.2239    8.0632    0.5949 C   0  0  0  0  0  0  0  0  0  0  0  0
   13.2832    8.6483    1.1654 N   0  0  0  0  0  0  0  0  0  0  0  0
   13.9991    7.6131    1.6349 N   0  0  0  0  0  0  0  0  0  0  0  0
   15.1239    7.8395    2.5139 C   0  0  0  0  0  0  0  0  0  0  0  0
   13.4928    6.3996    1.2513 C   0  0  0  0  0  0  0  0  0  0  0  0
   10.0838    5.4491    0.2185 N   0  0  0  0  0  0  0  0  0  0  0  0
    9.3569    4.7406   -0.7616 C   0  0  0  0  0  0  0  0  0  0  0  0
    7.9976    4.2087   -0.7172 C   0  0  0  0  0  0  0  0  0  0  0  0
    4.0426    3.4951   -1.4361 C   0  0  0  0  0  0  0  0  0  0  0  0
   -0.1977    4.7670   -1.2621 H   0  0  0  0  0  0  0  0  0  0  0  0
    0.4044    4.1343    0.2732 H   0  0  0  0  0  0  0  0  0  0  0  0
    0.0660    3.0300   -1.1135 H   0  0  0  0  0  0  0  0  0  0  0  0
    1.5114    2.1012    0.3803 H   0  0  0  0  0  0  0  0  0  0  0  0
    2.2143   -0.8551    2.3194 H   0  0  0  0  0  0  0  0  0  0  0  0
    1.3518   -0.1576    0.9430 H   0  0  0  0  0  0  0  0  0  0  0  0
    1.8635    0.8772    2.3331 H   0  0  0  0  0  0  0  0  0  0  0  0
    5.5546    0.8142   -0.0196 H   0  0  0  0  0  0  0  0  0  0  0  0
    7.2002    0.7359   -1.3627 H   0  0  0  0  0  0  0  0  0  0  0  0
    7.8397    1.4021   -2.8284 H   0  0  0  0  0  0  0  0  0  0  0  0
    5.8619    0.9542   -4.1342 H   0  0  0  0  0  0  0  0  0  0  0  0
    5.0113    0.2795   -2.7710 H   0  0  0  0  0  0  0  0  0  0  0  0
    7.5472   -0.7975   -4.1042 H   0  0  0  0  0  0  0  0  0  0  0  0
    5.9333   -1.4839   -4.2126 H   0  0  0  0  0  0  0  0  0  0  0  0
    4.9743   -2.6034   -2.1319 H   0  0  0  0  0  0  0  0  0  0  0  0
    5.3723   -1.1840   -1.1635 H   0  0  0  0  0  0  0  0  0  0  0  0
    5.2508   -3.1411    0.2743 H   0  0  0  0  0  0  0  0  0  0  0  0
    6.8712   -2.4488    0.2767 H   0  0  0  0  0  0  0  0  0  0  0  0
    5.9312   -4.9238   -1.2501 H   0  0  0  0  0  0  0  0  0  0  0  0
    7.0342   -4.8776    0.1169 H   0  0  0  0  0  0  0  0  0  0  0  0
    8.7340   -3.6862   -1.1998 H   0  0  0  0  0  0  0  0  0  0  0  0
    8.8952   -6.1522   -0.3833 H   0  0  0  0  0  0  0  0  0  0  0  0
    9.1365   -7.2621   -1.6980 H   0  0  0  0  0  0  0  0  0  0  0  0
    6.7533   -3.6552   -3.5419 H   0  0  0  0  0  0  0  0  0  0  0  0
    8.3806   -2.9799   -3.5043 H   0  0  0  0  0  0  0  0  0  0  0  0
    7.5410    3.4754   -3.9931 H   0  0  0  0  0  0  0  0  0  0  0  0
    9.9045    4.0676   -4.0454 H   0  0  0  0  0  0  0  0  0  0  0  0
   13.1228    5.1534   -1.2792 H   0  0  0  0  0  0  0  0  0  0  0  0
   11.5114    8.6917    0.0750 H   0  0  0  0  0  0  0  0  0  0  0  0
   15.2710    8.9127    2.6673 H   0  0  0  0  0  0  0  0  0  0  0  0
   16.0239    7.3958    2.0809 H   0  0  0  0  0  0  0  0  0  0  0  0
   14.8887    7.3648    3.4704 H   0  0  0  0  0  0  0  0  0  0  0  0
   14.0582    5.4914    1.4059 H   0  0  0  0  0  0  0  0  0  0  0  0
    7.4808    4.2069    0.2422 H   0  0  0  0  0  0  0  0  0  0  0  0
    4.2019    4.3022   -2.1512 H   0  0  0  0  0  0  0  0  0  0  0  0
  1  2  1  0  0  0  0
  1 40  1  0  0  0  0
  1 41  1  0  0  0  0
  1 42  1  0  0  0  0
  2  3  1  0  0  0  0
  3  4  1  0  0  0  0
  3 39  2  0  0  0  0
  4  5  2  0  0  0  0
  4 43  1  0  0  0  0
  5  6  1  0  0  0  0
  5  8  1  0  0  0  0
  6  7  1  0  0  0  0
  7 44  1  0  0  0  0
  7 45  1  0  0  0  0
  7 46  1  0  0  0  0
  8  9  2  0  0  0  0
  8 47  1  0  0  0  0
  9 10  1  0  0  0  0
  9 39  1  0  0  0  0
 10 11  1  0  0  0  0
 10 23  1  0  0  0  0
 11 12  1  0  0  0  0
 11 48  1  0  0  0  0
 11 49  1  0  0  0  0
 12 13  1  0  0  0  0
 12 50  1  0  0  0  0
 12 51  1  0  0  0  0
 13 14  1  0  0  0  0
 13 52  1  0  0  0  0
 13 53  1  0  0  0  0
 14 15  1  0  0  0  0
 14 22  1  0  0  0  0
 15 16  1  0  0  0  0
 15 54  1  0  0  0  0
 15 55  1  0  0  0  0
 16 17  1  0  0  0  0
 16 56  1  0  0  0  0
 16 57  1  0  0  0  0
 17 18  1  0  0  0  0
 17 58  1  0  0  0  0
 17 59  1  0  0  0  0
 18 19  1  0  0  0  0
 18 22  1  0  0  0  0
 18 60  1  0  0  0  0
 19 20  1  0  0  0  0
 19 21  2  0  0  0  0
 20 61  1  0  0  0  0
 20 62  1  0  0  0  0
 22 63  1  0  0  0  0
 22 64  1  0  0  0  0
 23 24  1  0  0  0  0
 23 38  2  0  0  0  0
 24 25  2  0  0  0  0
 24 65  1  0  0  0  0
 25 26  1  0  0  0  0
 25 66  1  0  0  0  0
 26 27  1  0  0  0  0
 26 37  2  0  0  0  0
 27 28  2  0  0  0  0
 28 29  1  0  0  0  0
 28 67  1  0  0  0  0
 29 30  1  0  0  0  0
 29 36  2  0  0  0  0
 30 31  1  0  0  0  0
 30 35  2  0  0  0  0
 31 32  2  0  0  0  0
 31 68  1  0  0  0  0
 32 33  1  0  0  0  0
 33 34  1  0  0  0  0
 33 35  1  0  0  0  0
 34 69  1  0  0  0  0
 34 70  1  0  0  0  0
 34 71  1  0  0  0  0
 35 72  1  0  0  0  0
 36 37  1  0  0  0  0
 37 38  1  0  0  0  0
 38 73  1  0  0  0  0
 39 74  1  0  0  0  0
M  END
$$$$
