CHEMBL3918092
 OpenBabel04072215373D

 69 72  0  0  0  0  0  0  0  0999 V2000
    1.5353   -1.1682   -4.9473 C   0  0  0  0  0  0  0  0  0  0  0  0
    2.5168   -1.9270   -4.3406 O   0  0  0  0  0  0  0  0  0  0  0  0
    3.1529   -1.6373   -3.1775 C   0  0  0  0  0  0  0  0  0  0  0  0
    2.6491   -0.6943   -2.2609 C   0  0  0  0  0  0  0  0  0  0  0  0
    3.3197   -0.4627   -1.0534 C   0  0  0  0  0  0  0  0  0  0  0  0
    2.8577    0.4158   -0.1136 O   0  0  0  0  0  0  0  0  0  0  0  0
    1.7261    1.2101   -0.2119 C   0  0  0  0  0  0  0  0  0  0  0  0
    4.5038   -1.1470   -0.7917 C   0  0  0  0  0  0  0  0  0  0  0  0
    5.0851   -2.0683   -1.7214 C   0  0  0  0  0  0  0  0  0  0  0  0
    6.3378   -2.7524   -1.4198 N   0  0  0  0  0  0  0  0  0  0  0  0
    6.8071   -2.6674    0.0045 C   0  0  0  0  0  0  0  0  0  0  0  0
    8.2063   -3.2569    0.4103 C   0  0  0  0  0  0  0  0  0  0  0  0
    9.3788   -2.6317   -0.3677 C   0  0  0  0  0  0  0  0  0  0  0  0
   10.6879   -3.2951   -0.1155 N   0  0  0  0  0  0  0  0  0  0  0  0
   11.1333   -3.2128    1.2847 C   0  0  0  0  0  0  0  0  0  0  0  0
   11.7740   -1.8485    1.4079 C   0  0  0  0  0  0  0  0  0  0  0  0
   12.6324   -1.8578    0.1659 C   0  0  0  0  0  0  0  0  0  0  0  0
   11.7510   -2.5738   -0.8647 C   0  0  0  0  0  0  0  0  0  0  0  0
    7.0421   -3.6938   -2.2926 C   0  0  0  0  0  0  0  0  0  0  0  0
    7.2023   -4.9305   -1.6896 C   0  0  0  0  0  0  0  0  0  0  0  0
    8.1825   -5.7759   -2.0633 C   0  0  0  0  0  0  0  0  0  0  0  0
    8.9815   -5.4922   -3.1235 C   0  0  0  0  0  0  0  0  0  0  0  0
   10.0273   -6.2952   -3.2562 N   0  0  0  0  0  0  0  0  0  0  0  0
   10.8572   -6.2024   -4.2831 C   0  0  0  0  0  0  0  0  0  0  0  0
   10.5937   -5.3539   -5.3396 C   0  0  0  0  0  0  0  0  0  0  0  0
   11.3601   -5.8065   -6.6156 C   0  0  0  0  0  0  0  0  0  0  0  0
   12.0617   -7.0391   -6.6501 C   0  0  0  0  0  0  0  0  0  0  0  0
   12.4969   -7.3167   -7.8693 N   0  0  0  0  0  0  0  0  0  0  0  0
   12.1314   -6.3343   -8.6590 N   0  0  0  0  0  0  0  0  0  0  0  0
   12.3891   -6.4378  -10.0915 C   0  0  0  0  0  0  0  0  0  0  0  0
   11.4642   -5.3675   -7.9502 C   0  0  0  0  0  0  0  0  0  0  0  0
    9.5786   -4.3874   -5.1623 N   0  0  0  0  0  0  0  0  0  0  0  0
    8.7757   -4.4128   -3.9992 C   0  0  0  0  0  0  0  0  0  0  0  0
    7.7645   -3.4325   -3.5553 C   0  0  0  0  0  0  0  0  0  0  0  0
    4.3655   -2.3094   -2.9033 C   0  0  0  0  0  0  0  0  0  0  0  0
   -0.3237   -2.0087   -1.4509 Cl  0  0  0  0  0  0  0  0  0  0  0  0
    1.1475   -1.7244   -5.8247 H   0  0  0  0  0  0  0  0  0  0  0  0
    1.9777   -0.2138   -5.3004 H   0  0  0  0  0  0  0  0  0  0  0  0
    0.6792   -0.9662   -4.2683 H   0  0  0  0  0  0  0  0  0  0  0  0
    1.7305   -0.1662   -2.4612 H   0  0  0  0  0  0  0  0  0  0  0  0
    1.6546    1.8447    0.6982 H   0  0  0  0  0  0  0  0  0  0  0  0
    0.8117    0.5908   -0.2682 H   0  0  0  0  0  0  0  0  0  0  0  0
    1.7997    1.8775   -1.0960 H   0  0  0  0  0  0  0  0  0  0  0  0
    4.9510   -0.9171    0.1665 H   0  0  0  0  0  0  0  0  0  0  0  0
    6.0423   -3.1553    0.6570 H   0  0  0  0  0  0  0  0  0  0  0  0
    6.9057   -1.6070    0.2963 H   0  0  0  0  0  0  0  0  0  0  0  0
    8.2809   -4.3558    0.3574 H   0  0  0  0  0  0  0  0  0  0  0  0
    8.3249   -3.0439    1.4906 H   0  0  0  0  0  0  0  0  0  0  0  0
    9.4077   -1.5407   -0.1642 H   0  0  0  0  0  0  0  0  0  0  0  0
    9.1872   -2.7381   -1.4469 H   0  0  0  0  0  0  0  0  0  0  0  0
   11.9115   -3.9978    1.4422 H   0  0  0  0  0  0  0  0  0  0  0  0
   10.3502   -3.4124    2.0379 H   0  0  0  0  0  0  0  0  0  0  0  0
   12.3407   -1.6907    2.3489 H   0  0  0  0  0  0  0  0  0  0  0  0
   10.9841   -1.0725    1.3286 H   0  0  0  0  0  0  0  0  0  0  0  0
   13.5014   -2.5165    0.3875 H   0  0  0  0  0  0  0  0  0  0  0  0
   13.0137   -0.8648   -0.1549 H   0  0  0  0  0  0  0  0  0  0  0  0
   12.3702   -3.2805   -1.4607 H   0  0  0  0  0  0  0  0  0  0  0  0
   11.3287   -1.8337   -1.5825 H   0  0  0  0  0  0  0  0  0  0  0  0
    6.6523   -5.1908   -0.7975 H   0  0  0  0  0  0  0  0  0  0  0  0
    8.3770   -6.6555   -1.4703 H   0  0  0  0  0  0  0  0  0  0  0  0
   11.6541   -6.9069   -4.2227 H   0  0  0  0  0  0  0  0  0  0  0  0
   12.2209   -7.7816   -5.8873 H   0  0  0  0  0  0  0  0  0  0  0  0
   12.8417   -7.4377  -10.3172 H   0  0  0  0  0  0  0  0  0  0  0  0
   13.0963   -5.6616  -10.4322 H   0  0  0  0  0  0  0  0  0  0  0  0
   11.4303   -6.3929  -10.6441 H   0  0  0  0  0  0  0  0  0  0  0  0
   11.0499   -4.4764   -8.3952 H   0  0  0  0  0  0  0  0  0  0  0  0
    7.6325   -2.4835   -4.0710 H   0  0  0  0  0  0  0  0  0  0  0  0
    4.7343   -3.0271   -3.6177 H   0  0  0  0  0  0  0  0  0  0  0  0
    0.8221   -2.1022   -0.6933 H   0  0  0  0  0  0  0  0  0  0  0  0
  1  2  1  0  0  0  0
  1 37  1  0  0  0  0
  1 38  1  0  0  0  0
  1 39  1  0  0  0  0
  2  3  1  0  0  0  0
  3  4  1  0  0  0  0
  3 35  2  0  0  0  0
  4  5  2  0  0  0  0
  4 40  1  0  0  0  0
  5  6  1  0  0  0  0
  5  8  1  0  0  0  0
  6  7  1  0  0  0  0
  7 41  1  0  0  0  0
  7 42  1  0  0  0  0
  7 43  1  0  0  0  0
  8  9  2  0  0  0  0
  8 44  1  0  0  0  0
  9 10  1  0  0  0  0
  9 35  1  0  0  0  0
 10 11  1  0  0  0  0
 10 19  1  0  0  0  0
 11 12  1  0  0  0  0
 11 45  1  0  0  0  0
 11 46  1  0  0  0  0
 12 13  1  0  0  0  0
 12 47  1  0  0  0  0
 12 48  1  0  0  0  0
 13 14  1  0  0  0  0
 13 49  1  0  0  0  0
 13 50  1  0  0  0  0
 14 15  1  0  0  0  0
 14 18  1  0  0  0  0
 15 16  1  0  0  0  0
 15 51  1  0  0  0  0
 15 52  1  0  0  0  0
 16 17  1  0  0  0  0
 16 53  1  0  0  0  0
 16 54  1  0  0  0  0
 17 18  1  0  0  0  0
 17 55  1  0  0  0  0
 17 56  1  0  0  0  0
 18 57  1  0  0  0  0
 18 58  1  0  0  0  0
 19 20  1  0  0  0  0
 19 34  2  0  0  0  0
 20 21  2  0  0  0  0
 20 59  1  0  0  0  0
 21 22  1  0  0  0  0
 21 60  1  0  0  0  0
 22 23  1  0  0  0  0
 22 33  2  0  0  0  0
 23 24  2  0  0  0  0
 24 25  1  0  0  0  0
 24 61  1  0  0  0  0
 25 26  1  0  0  0  0
 25 32  2  0  0  0  0
 26 27  1  0  0  0  0
 26 31  2  0  0  0  0
 27 28  2  0  0  0  0
 27 62  1  0  0  0  0
 28 29  1  0  0  0  0
 29 30  1  0  0  0  0
 29 31  1  0  0  0  0
 30 63  1  0  0  0  0
 30 64  1  0  0  0  0
 30 65  1  0  0  0  0
 31 66  1  0  0  0  0
 32 33  1  0  0  0  0
 33 34  1  0  0  0  0
 34 67  1  0  0  0  0
 35 68  1  0  0  0  0
 36 69  1  0  0  0  0
M  END
$$$$
