CHEMBL3323594
 OpenBabel04072215363D

 45 49  0  0  0  0  0  0  0  0999 V2000
    2.2418    0.1684    1.0925 C   0  0  0  0  0  0  0  0  0  0  0  0
    0.8610    0.1071    0.5112 C   0  0  0  0  0  0  0  0  0  0  0  0
    0.2518    1.2383   -0.0368 C   0  0  0  0  0  0  0  0  0  0  0  0
   -1.0344    1.1637   -0.5717 C   0  0  0  0  0  0  0  0  0  0  0  0
   -1.7210   -0.0499   -0.5757 C   0  0  0  0  0  0  0  0  0  0  0  0
   -1.1278   -1.1930   -0.0333 C   0  0  0  0  0  0  0  0  0  0  0  0
   -1.8333   -2.4669    0.0020 C   0  0  0  0  0  0  0  0  0  0  0  0
   -1.6733   -3.4098    0.9087 N   0  0  0  0  0  0  0  0  0  0  0  0
   -2.5269   -4.4159    0.5565 C   0  0  0  0  0  0  0  0  0  0  0  0
   -2.7626   -5.6324    1.1941 C   0  0  0  0  0  0  0  0  0  0  0  0
   -3.6918   -6.5033    0.6232 C   0  0  0  0  0  0  0  0  0  0  0  0
   -4.3858   -6.1915   -0.5623 C   0  0  0  0  0  0  0  0  0  0  0  0
   -5.3946   -7.0515   -1.0730 N   0  0  0  0  0  0  0  0  0  0  0  0
   -5.4507   -8.4551   -0.8549 C   0  0  0  0  0  0  0  0  0  0  0  0
   -4.2620   -9.1807   -0.7819 C   0  0  0  0  0  0  0  0  0  0  0  0
   -4.3096  -10.4975   -0.4124 C   0  0  0  0  0  0  0  0  0  0  0  0
   -5.4538  -11.1616   -0.1356 N   0  0  0  0  0  0  0  0  0  0  0  0
   -6.6132  -10.4947   -0.2597 C   0  0  0  0  0  0  0  0  0  0  0  0
   -7.7941  -11.1592    0.0565 C   0  0  0  0  0  0  0  0  0  0  0  0
   -9.0400  -10.5250   -0.0086 C   0  0  0  0  0  0  0  0  0  0  0  0
   -9.1181   -9.1982   -0.4136 C   0  0  0  0  0  0  0  0  0  0  0  0
   -7.9478   -8.5143   -0.7395 C   0  0  0  0  0  0  0  0  0  0  0  0
   -6.6823   -9.1309   -0.6502 C   0  0  0  0  0  0  0  0  0  0  0  0
   -4.1584   -4.9583   -1.1938 C   0  0  0  0  0  0  0  0  0  0  0  0
   -3.2177   -4.1052   -0.6077 C   0  0  0  0  0  0  0  0  0  0  0  0
   -2.7566   -2.8610   -0.9396 N   0  0  0  0  0  0  0  0  0  0  0  0
    0.1590   -1.1060    0.5166 C   0  0  0  0  0  0  0  0  0  0  0  0
    2.6478    1.1845    1.0524 H   0  0  0  0  0  0  0  0  0  0  0  0
    2.9157   -0.4861    0.5304 H   0  0  0  0  0  0  0  0  0  0  0  0
    2.2265   -0.1455    2.1411 H   0  0  0  0  0  0  0  0  0  0  0  0
    0.7713    2.1951   -0.0390 H   0  0  0  0  0  0  0  0  0  0  0  0
   -1.5094    2.0560   -0.9713 H   0  0  0  0  0  0  0  0  0  0  0  0
   -2.7321   -0.0802   -0.9699 H   0  0  0  0  0  0  0  0  0  0  0  0
   -2.2473   -5.8811    2.1146 H   0  0  0  0  0  0  0  0  0  0  0  0
   -3.8625   -7.4458    1.1403 H   0  0  0  0  0  0  0  0  0  0  0  0
   -5.7240   -6.7826   -1.9939 H   0  0  0  0  0  0  0  0  0  0  0  0
   -3.3008   -8.6940   -0.9324 H   0  0  0  0  0  0  0  0  0  0  0  0
   -3.3971  -11.0786   -0.2883 H   0  0  0  0  0  0  0  0  0  0  0  0
   -7.7421  -12.1952    0.3769 H   0  0  0  0  0  0  0  0  0  0  0  0
   -9.9419  -11.0694    0.2616 H   0  0  0  0  0  0  0  0  0  0  0  0
  -10.0798   -8.6958   -0.4653 H   0  0  0  0  0  0  0  0  0  0  0  0
   -8.0255   -7.4707   -1.0484 H   0  0  0  0  0  0  0  0  0  0  0  0
   -4.6927   -4.6769   -2.0933 H   0  0  0  0  0  0  0  0  0  0  0  0
   -3.0227   -2.3213   -1.7509 H   0  0  0  0  0  0  0  0  0  0  0  0
    0.6117   -1.9917    0.9573 H   0  0  0  0  0  0  0  0  0  0  0  0
  1  2  1  0  0  0  0
  1 28  1  0  0  0  0
  1 29  1  0  0  0  0
  1 30  1  0  0  0  0
  2  3  1  0  0  0  0
  2 27  2  0  0  0  0
  3  4  2  0  0  0  0
  3 31  1  0  0  0  0
  4  5  1  0  0  0  0
  4 32  1  0  0  0  0
  5  6  2  0  0  0  0
  5 33  1  0  0  0  0
  6  7  1  0  0  0  0
  6 27  1  0  0  0  0
  7  8  2  0  0  0  0
  7 26  1  0  0  0  0
  8  9  1  0  0  0  0
  9 10  1  0  0  0  0
  9 25  2  0  0  0  0
 10 11  2  0  0  0  0
 10 34  1  0  0  0  0
 11 12  1  0  0  0  0
 11 35  1  0  0  0  0
 12 13  1  0  0  0  0
 12 24  2  0  0  0  0
 13 14  1  0  0  0  0
 13 36  1  0  0  0  0
 14 15  1  0  0  0  0
 14 23  2  0  0  0  0
 15 16  2  0  0  0  0
 15 37  1  0  0  0  0
 16 17  1  0  0  0  0
 16 38  1  0  0  0  0
 17 18  2  0  0  0  0
 18 19  1  0  0  0  0
 18 23  1  0  0  0  0
 19 20  2  0  0  0  0
 19 39  1  0  0  0  0
 20 21  1  0  0  0  0
 20 40  1  0  0  0  0
 21 22  2  0  0  0  0
 21 41  1  0  0  0  0
 22 23  1  0  0  0  0
 22 42  1  0  0  0  0
 24 25  1  0  0  0  0
 24 43  1  0  0  0  0
 25 26  1  0  0  0  0
 26 44  1  0  0  0  0
 27 45  1  0  0  0  0
M  END
$$$$
