CHEMBL305748
 OpenBabel04072215363D

 53 57  0  0  0  0  0  0  0  0999 V2000
    1.1283    0.3306    0.1783 N   0  0  0  0  0  0  0  0  0  0  0  0
    2.4979    0.1080    0.1186 C   0  0  0  0  0  0  0  0  0  0  0  0
    3.2464    1.2267    0.1097 N   0  0  0  0  0  0  0  0  0  0  0  0
    4.5793    1.1028    0.0785 C   0  0  0  0  0  0  0  0  0  0  0  0
    5.2931   -0.0279    0.0567 N   0  0  0  0  0  0  0  0  0  0  0  0
    4.5164   -1.1281    0.0440 C   0  0  0  0  0  0  0  0  0  0  0  0
    3.1343   -1.1548    0.0623 C   0  0  0  0  0  0  0  0  0  0  0  0
    2.7570   -2.5473    0.0071 C   0  0  0  0  0  0  0  0  0  0  0  0
    1.4001   -3.1043    0.0096 C   0  0  0  0  0  0  0  0  0  0  0  0
    0.3833   -2.4368   -0.6767 C   0  0  0  0  0  0  0  0  0  0  0  0
   -0.9319   -2.8841   -0.6257 C   0  0  0  0  0  0  0  0  0  0  0  0
   -1.2234   -4.1302   -0.0783 C   0  0  0  0  0  0  0  0  0  0  0  0
   -2.4583   -4.7360   -0.1562 O   0  0  0  0  0  0  0  0  0  0  0  0
   -3.3002   -4.4024   -1.1978 C   0  0  0  0  0  0  0  0  0  0  0  0
   -2.8644   -4.1164   -2.4979 C   0  0  0  0  0  0  0  0  0  0  0  0
   -3.7660   -3.6606   -3.4573 C   0  0  0  0  0  0  0  0  0  0  0  0
   -5.1226   -3.5826   -3.1488 C   0  0  0  0  0  0  0  0  0  0  0  0
   -5.5738   -3.9650   -1.8852 C   0  0  0  0  0  0  0  0  0  0  0  0
   -4.6634   -4.3703   -0.9072 C   0  0  0  0  0  0  0  0  0  0  0  0
   -0.2211   -4.8245    0.5982 C   0  0  0  0  0  0  0  0  0  0  0  0
    1.0721   -4.2917    0.6808 C   0  0  0  0  0  0  0  0  0  0  0  0
    3.9319   -3.3177   -0.0934 C   0  0  0  0  0  0  0  0  0  0  0  0
    4.0927   -4.7526   -0.2520 C   0  0  0  0  0  0  0  0  0  0  0  0
    4.9069   -5.4561    0.3188 O   0  0  0  0  0  0  0  0  0  0  0  0
    3.2446   -5.2714   -1.1736 O   0  0  0  0  0  0  0  0  0  0  0  0
    4.9978   -2.4207    0.0056 N   0  0  0  0  0  0  0  0  0  0  0  0
    6.4248   -2.6908   -0.0259 C   0  0  0  0  0  0  0  0  0  0  0  0
    6.9574   -3.4699   -1.2269 C   0  0  0  0  0  0  0  0  0  0  0  0
    8.3537   -3.9199   -0.7978 C   0  0  0  0  0  0  0  0  0  0  0  0
    8.4366   -3.7355    0.7199 C   0  0  0  0  0  0  0  0  0  0  0  0
    7.0276   -3.3898    1.1897 C   0  0  0  0  0  0  0  0  0  0  0  0
    0.9475    1.3063    0.3885 H   0  0  0  0  0  0  0  0  0  0  0  0
    0.6259   -0.3320    0.7556 H   0  0  0  0  0  0  0  0  0  0  0  0
    5.1438    2.0296    0.0736 H   0  0  0  0  0  0  0  0  0  0  0  0
    0.5856   -1.5419   -1.2606 H   0  0  0  0  0  0  0  0  0  0  0  0
   -1.7040   -2.2658   -1.0759 H   0  0  0  0  0  0  0  0  0  0  0  0
   -1.8130   -4.1930   -2.7648 H   0  0  0  0  0  0  0  0  0  0  0  0
   -3.4080   -3.3614   -4.4382 H   0  0  0  0  0  0  0  0  0  0  0  0
   -5.8273   -3.2311   -3.8971 H   0  0  0  0  0  0  0  0  0  0  0  0
   -6.6364   -3.9334   -1.6569 H   0  0  0  0  0  0  0  0  0  0  0  0
   -5.0155   -4.6429    0.0836 H   0  0  0  0  0  0  0  0  0  0  0  0
   -0.4400   -5.7854    1.0577 H   0  0  0  0  0  0  0  0  0  0  0  0
    1.8177   -4.8441    1.2501 H   0  0  0  0  0  0  0  0  0  0  0  0
    2.6423   -4.6226   -1.5633 H   0  0  0  0  0  0  0  0  0  0  0  0
    6.9252   -1.7110   -0.0752 H   0  0  0  0  0  0  0  0  0  0  0  0
    6.9909   -2.8462   -2.1271 H   0  0  0  0  0  0  0  0  0  0  0  0
    6.3533   -4.3454   -1.4740 H   0  0  0  0  0  0  0  0  0  0  0  0
    9.1227   -3.3155   -1.2924 H   0  0  0  0  0  0  0  0  0  0  0  0
    8.5259   -4.9623   -1.0825 H   0  0  0  0  0  0  0  0  0  0  0  0
    9.1177   -2.9078    0.9508 H   0  0  0  0  0  0  0  0  0  0  0  0
    8.8257   -4.6281    1.2190 H   0  0  0  0  0  0  0  0  0  0  0  0
    7.0414   -2.7437    2.0739 H   0  0  0  0  0  0  0  0  0  0  0  0
    6.4980   -4.2993    1.4720 H   0  0  0  0  0  0  0  0  0  0  0  0
  1  2  1  0  0  0  0
  1 32  1  0  0  0  0
  1 33  1  0  0  0  0
  2  3  1  0  0  0  0
  2  7  2  0  0  0  0
  3  4  2  0  0  0  0
  4  5  1  0  0  0  0
  4 34  1  0  0  0  0
  5  6  2  0  0  0  0
  6  7  1  0  0  0  0
  6 26  1  0  0  0  0
  7  8  1  0  0  0  0
  8  9  1  0  0  0  0
  8 22  2  0  0  0  0
  9 10  1  0  0  0  0
  9 21  2  0  0  0  0
 10 11  2  0  0  0  0
 10 35  1  0  0  0  0
 11 12  1  0  0  0  0
 11 36  1  0  0  0  0
 12 13  1  0  0  0  0
 12 20  2  0  0  0  0
 13 14  1  0  0  0  0
 14 15  1  0  0  0  0
 14 19  2  0  0  0  0
 15 16  2  0  0  0  0
 15 37  1  0  0  0  0
 16 17  1  0  0  0  0
 16 38  1  0  0  0  0
 17 18  2  0  0  0  0
 17 39  1  0  0  0  0
 18 19  1  0  0  0  0
 18 40  1  0  0  0  0
 19 41  1  0  0  0  0
 20 21  1  0  0  0  0
 20 42  1  0  0  0  0
 21 43  1  0  0  0  0
 22 23  1  0  0  0  0
 22 26  1  0  0  0  0
 23 24  2  0  0  0  0
 23 25  1  0  0  0  0
 25 44  1  0  0  0  0
 26 27  1  0  0  0  0
 27 28  1  0  0  0  0
 27 31  1  0  0  0  0
 27 45  1  0  0  0  0
 28 29  1  0  0  0  0
 28 46  1  0  0  0  0
 28 47  1  0  0  0  0
 29 30  1  0  0  0  0
 29 48  1  0  0  0  0
 29 49  1  0  0  0  0
 30 31  1  0  0  0  0
 30 50  1  0  0  0  0
 30 51  1  0  0  0  0
 31 52  1  0  0  0  0
 31 53  1  0  0  0  0
M  END
$$$$
