CHEMBL3963403
 OpenBabel04072215373D

 45 48  0  0  0  0  0  0  0  0999 V2000
    2.1110    0.0474    0.8142 F   0  0  0  0  0  0  0  0  0  0  0  0
    0.7740    0.1099    0.7714 C   0  0  0  0  0  0  0  0  0  0  0  0
    0.1465    1.3489    0.7614 C   0  0  0  0  0  0  0  0  0  0  0  0
   -1.2495    1.4150    0.7165 C   0  0  0  0  0  0  0  0  0  0  0  0
   -2.0198    0.2450    0.6614 C   0  0  0  0  0  0  0  0  0  0  0  0
   -3.4957    0.2607    0.6137 C   0  0  0  0  0  0  0  0  0  0  0  0
   -4.2129    1.2389    0.0377 C   0  0  0  0  0  0  0  0  0  0  0  0
   -5.7178    1.2069   -0.0091 C   0  0  0  0  0  0  0  0  0  0  0  0
   -6.2978    0.0358   -0.0306 N   0  0  0  0  0  0  0  0  0  0  0  0
   -7.6478   -0.0225   -0.0912 N   0  0  0  0  0  0  0  0  0  0  0  0
   -8.3592   -1.0720    0.5267 C   0  0  0  0  0  0  0  0  0  0  0  0
   -9.5500   -1.3741   -0.0521 N   0  0  0  0  0  0  0  0  0  0  0  0
  -10.3429   -2.3627    0.4437 N   0  0  0  0  0  0  0  0  0  0  0  0
   -9.9224   -3.0561    1.5178 C   0  0  0  0  0  0  0  0  0  0  0  0
   -8.7311   -2.7913    2.1802 C   0  0  0  0  0  0  0  0  0  0  0  0
   -8.3329   -3.5444    3.3023 C   0  0  0  0  0  0  0  0  0  0  0  0
   -7.1481   -3.2524    3.9764 C   0  0  0  0  0  0  0  0  0  0  0  0
   -6.3679   -2.1859    3.5608 C   0  0  0  0  0  0  0  0  0  0  0  0
   -6.7616   -1.4336    2.4537 C   0  0  0  0  0  0  0  0  0  0  0  0
   -7.9279   -1.7378    1.7026 C   0  0  0  0  0  0  0  0  0  0  0  0
   -6.4124    2.5538   -0.0370 C   0  0  0  0  0  0  0  0  0  0  0  0
   -5.8143    3.6720   -0.6368 C   0  0  0  0  0  0  0  0  0  0  0  0
   -6.4900    4.8947   -0.7150 C   0  0  0  0  0  0  0  0  0  0  0  0
   -7.7862    5.0127   -0.2244 C   0  0  0  0  0  0  0  0  0  0  0  0
   -8.3869    3.9257    0.3977 C   0  0  0  0  0  0  0  0  0  0  0  0
   -7.6892    2.7211    0.5243 C   0  0  0  0  0  0  0  0  0  0  0  0
   -1.3638   -0.9962    0.6953 C   0  0  0  0  0  0  0  0  0  0  0  0
    0.0322   -1.0629    0.7430 C   0  0  0  0  0  0  0  0  0  0  0  0
    0.7443    2.2526    0.7927 H   0  0  0  0  0  0  0  0  0  0  0  0
   -1.7182    2.3959    0.7287 H   0  0  0  0  0  0  0  0  0  0  0  0
   -3.9954   -0.5969    1.0595 H   0  0  0  0  0  0  0  0  0  0  0  0
   -3.7076    2.0699   -0.4300 H   0  0  0  0  0  0  0  0  0  0  0  0
   -8.1011    0.2091   -0.9760 H   0  0  0  0  0  0  0  0  0  0  0  0
  -10.5970   -3.8424    1.8384 H   0  0  0  0  0  0  0  0  0  0  0  0
   -8.9461   -4.3706    3.6572 H   0  0  0  0  0  0  0  0  0  0  0  0
   -6.8421   -3.8485    4.8319 H   0  0  0  0  0  0  0  0  0  0  0  0
   -5.4493   -1.9324    4.0833 H   0  0  0  0  0  0  0  0  0  0  0  0
   -6.1386   -0.5885    2.1838 H   0  0  0  0  0  0  0  0  0  0  0  0
   -4.8264    3.6295   -1.0807 H   0  0  0  0  0  0  0  0  0  0  0  0
   -6.0072    5.7492   -1.1820 H   0  0  0  0  0  0  0  0  0  0  0  0
   -8.3263    5.9502   -0.3252 H   0  0  0  0  0  0  0  0  0  0  0  0
   -9.4006    4.0055    0.7834 H   0  0  0  0  0  0  0  0  0  0  0  0
   -8.1788    1.9182    1.0677 H   0  0  0  0  0  0  0  0  0  0  0  0
   -1.9334   -1.9229    0.6662 H   0  0  0  0  0  0  0  0  0  0  0  0
    0.5402   -2.0216    0.7562 H   0  0  0  0  0  0  0  0  0  0  0  0
  1  2  1  0  0  0  0
  2  3  1  0  0  0  0
  2 28  2  0  0  0  0
  3  4  2  0  0  0  0
  3 29  1  0  0  0  0
  4  5  1  0  0  0  0
  4 30  1  0  0  0  0
  5  6  1  0  0  0  0
  5 27  2  0  0  0  0
  6  7  2  0  0  0  0
  6 31  1  0  0  0  0
  7  8  1  0  0  0  0
  7 32  1  0  0  0  0
  8  9  2  0  0  0  0
  8 21  1  0  0  0  0
  9 10  1  0  0  0  0
 10 11  1  0  0  0  0
 10 33  1  0  0  0  0
 11 12  1  0  0  0  0
 11 20  2  0  0  0  0
 12 13  2  0  0  0  0
 13 14  1  0  0  0  0
 14 15  2  0  0  0  0
 14 34  1  0  0  0  0
 15 16  1  0  0  0  0
 15 20  1  0  0  0  0
 16 17  2  0  0  0  0
 16 35  1  0  0  0  0
 17 18  1  0  0  0  0
 17 36  1  0  0  0  0
 18 19  2  0  0  0  0
 18 37  1  0  0  0  0
 19 20  1  0  0  0  0
 19 38  1  0  0  0  0
 21 22  1  0  0  0  0
 21 26  2  0  0  0  0
 22 23  2  0  0  0  0
 22 39  1  0  0  0  0
 23 24  1  0  0  0  0
 23 40  1  0  0  0  0
 24 25  2  0  0  0  0
 24 41  1  0  0  0  0
 25 26  1  0  0  0  0
 25 42  1  0  0  0  0
 26 43  1  0  0  0  0
 27 28  1  0  0  0  0
 27 44  1  0  0  0  0
 28 45  1  0  0  0  0
M  END
$$$$
