CHEMBL1242294
 OpenBabel04072215363D

 38 41  0  0  0  0  0  0  0  0999 V2000
    1.4838    0.9326    0.8414 C   0  0  0  0  0  0  0  0  0  0  0  0
    2.4301    0.0202    0.0612 C   0  0  0  0  0  0  0  0  0  0  0  0
    3.6216    0.8012   -0.4921 C   0  0  0  0  0  0  0  0  0  0  0  0
    2.8558   -1.1203    0.8659 N   0  0  0  0  0  0  0  0  0  0  0  0
    3.5679   -0.9293    1.9973 N   0  0  0  0  0  0  0  0  0  0  0  0
    3.7731   -2.1684    2.4843 C   0  0  0  0  0  0  0  0  0  0  0  0
    4.5783   -2.3478    3.7015 C   0  0  0  0  0  0  0  0  0  0  0  0
    5.3893   -3.4752    3.8714 C   0  0  0  0  0  0  0  0  0  0  0  0
    6.1477   -3.6782    5.0308 C   0  0  0  0  0  0  0  0  0  0  0  0
    6.1334   -2.6670    5.9926 C   0  0  0  0  0  0  0  0  0  0  0  0
    6.8135   -2.5681    7.1851 N   0  0  0  0  0  0  0  0  0  0  0  0
    6.5543   -1.3609    7.7770 C   0  0  0  0  0  0  0  0  0  0  0  0
    5.6552   -0.6871    6.9815 C   0  0  0  0  0  0  0  0  0  0  0  0
    5.3811   -1.5024    5.8480 C   0  0  0  0  0  0  0  0  0  0  0  0
    4.5777   -1.3519    4.6977 C   0  0  0  0  0  0  0  0  0  0  0  0
    3.1267   -3.1542    1.6667 C   0  0  0  0  0  0  0  0  0  0  0  0
    2.9097   -4.5407    1.6405 C   0  0  0  0  0  0  0  0  0  0  0  0
    3.2946   -5.4348    2.6310 N   0  0  0  0  0  0  0  0  0  0  0  0
    2.2477   -5.0782    0.5946 N   0  0  0  0  0  0  0  0  0  0  0  0
    1.7999   -4.2614   -0.3757 C   0  0  0  0  0  0  0  0  0  0  0  0
    1.9059   -2.9272   -0.4397 N   0  0  0  0  0  0  0  0  0  0  0  0
    2.5817   -2.4357    0.6139 C   0  0  0  0  0  0  0  0  0  0  0  0
    1.1298    1.7550    0.2106 H   0  0  0  0  0  0  0  0  0  0  0  0
    1.9739    1.3686    1.7189 H   0  0  0  0  0  0  0  0  0  0  0  0
    0.6076    0.3760    1.1920 H   0  0  0  0  0  0  0  0  0  0  0  0
    1.8736   -0.3833   -0.7936 H   0  0  0  0  0  0  0  0  0  0  0  0
    4.2213    1.2468    0.3094 H   0  0  0  0  0  0  0  0  0  0  0  0
    3.2824    1.6104   -1.1474 H   0  0  0  0  0  0  0  0  0  0  0  0
    4.2788    0.1484   -1.0773 H   0  0  0  0  0  0  0  0  0  0  0  0
    5.4673   -4.2222    3.0848 H   0  0  0  0  0  0  0  0  0  0  0  0
    6.7500   -4.5729    5.1498 H   0  0  0  0  0  0  0  0  0  0  0  0
    7.4425   -3.2724    7.5456 H   0  0  0  0  0  0  0  0  0  0  0  0
    7.0338   -1.0851    8.7065 H   0  0  0  0  0  0  0  0  0  0  0  0
    5.2556    0.2991    7.1777 H   0  0  0  0  0  0  0  0  0  0  0  0
    3.9837   -0.4490    4.5743 H   0  0  0  0  0  0  0  0  0  0  0  0
    3.2651   -5.0566    3.5701 H   0  0  0  0  0  0  0  0  0  0  0  0
    2.8155   -6.3198    2.5045 H   0  0  0  0  0  0  0  0  0  0  0  0
    1.2846   -4.7431   -1.2007 H   0  0  0  0  0  0  0  0  0  0  0  0
  1  2  1  0  0  0  0
  1 23  1  0  0  0  0
  1 24  1  0  0  0  0
  1 25  1  0  0  0  0
  2  3  1  0  0  0  0
  2  4  1  0  0  0  0
  2 26  1  0  0  0  0
  3 27  1  0  0  0  0
  3 28  1  0  0  0  0
  3 29  1  0  0  0  0
  4  5  1  0  0  0  0
  4 22  1  0  0  0  0
  5  6  2  0  0  0  0
  6  7  1  0  0  0  0
  6 16  1  0  0  0  0
  7  8  1  0  0  0  0
  7 15  2  0  0  0  0
  8  9  2  0  0  0  0
  8 30  1  0  0  0  0
  9 10  1  0  0  0  0
  9 31  1  0  0  0  0
 10 11  1  0  0  0  0
 10 14  2  0  0  0  0
 11 12  1  0  0  0  0
 11 32  1  0  0  0  0
 12 13  2  0  0  0  0
 12 33  1  0  0  0  0
 13 14  1  0  0  0  0
 13 34  1  0  0  0  0
 14 15  1  0  0  0  0
 15 35  1  0  0  0  0
 16 17  1  0  0  0  0
 16 22  2  0  0  0  0
 17 18  1  0  0  0  0
 17 19  2  0  0  0  0
 18 36  1  0  0  0  0
 18 37  1  0  0  0  0
 19 20  1  0  0  0  0
 20 21  2  0  0  0  0
 20 38  1  0  0  0  0
 21 22  1  0  0  0  0
M  END
$$$$
