CHEMBL3739586
 OpenBabel04072215373D

 55 60  0  0  0  0  0  0  0  0999 V2000
  -14.5168   -3.5173   -2.5285 C   0  0  0  0  0  0  0  0  0  0  0  0
  -13.1602   -3.0092   -2.1399 C   0  0  0  0  0  0  0  0  0  0  0  0
  -12.7534   -3.0116   -0.8052 C   0  0  0  0  0  0  0  0  0  0  0  0
  -11.4914   -2.5407   -0.4465 C   0  0  0  0  0  0  0  0  0  0  0  0
  -10.6119   -2.0536   -1.4225 C   0  0  0  0  0  0  0  0  0  0  0  0
   -9.3224   -1.5639   -1.0673 N   0  0  0  0  0  0  0  0  0  0  0  0
   -8.7455   -1.6053    0.1802 C   0  0  0  0  0  0  0  0  0  0  0  0
   -7.4828   -1.0988    0.0386 C   0  0  0  0  0  0  0  0  0  0  0  0
   -6.4859   -0.9765    1.0174 C   0  0  0  0  0  0  0  0  0  0  0  0
   -6.5436   -1.4996    2.3661 C   0  0  0  0  0  0  0  0  0  0  0  0
   -7.1066   -2.7267    2.6575 C   0  0  0  0  0  0  0  0  0  0  0  0
   -6.9921   -2.9461    3.9969 N   0  0  0  0  0  0  0  0  0  0  0  0
   -6.3083   -1.9173    4.6080 C   0  0  0  0  0  0  0  0  0  0  0  0
   -6.0499   -1.9764    6.0566 C   0  0  0  0  0  0  0  0  0  0  0  0
   -5.6874   -3.1900    6.6648 C   0  0  0  0  0  0  0  0  0  0  0  0
   -5.4051   -3.2514    8.0320 C   0  0  0  0  0  0  0  0  0  0  0  0
   -5.4575   -2.0955    8.8057 C   0  0  0  0  0  0  0  0  0  0  0  0
   -5.8197   -0.8860    8.2192 C   0  0  0  0  0  0  0  0  0  0  0  0
   -6.1402   -0.8339    6.8604 C   0  0  0  0  0  0  0  0  0  0  0  0
   -6.0054   -0.9855    3.6030 C   0  0  0  0  0  0  0  0  0  0  0  0
   -5.2916    0.2789    3.8280 C   0  0  0  0  0  0  0  0  0  0  0  0
   -4.1802    0.3488    4.6796 C   0  0  0  0  0  0  0  0  0  0  0  0
   -3.5767    1.5745    4.9731 C   0  0  0  0  0  0  0  0  0  0  0  0
   -4.0306    2.7396    4.3619 C   0  0  0  0  0  0  0  0  0  0  0  0
   -5.0919    2.6795    3.4630 C   0  0  0  0  0  0  0  0  0  0  0  0
   -5.7298    1.4607    3.2125 C   0  0  0  0  0  0  0  0  0  0  0  0
   -5.3726   -0.3353    0.5566 N   0  0  0  0  0  0  0  0  0  0  0  0
   -5.2365    0.1588   -0.8051 N   0  0  0  0  0  0  0  0  0  0  0  0
   -6.1989    0.0016   -1.7490 C   0  0  0  0  0  0  0  0  0  0  0  0
   -5.9498    0.5014   -2.9957 O   0  0  0  0  0  0  0  0  0  0  0  0
   -7.3764   -0.6535   -1.3290 C   0  0  0  0  0  0  0  0  0  0  0  0
   -8.5071   -0.9822   -1.9878 N   0  0  0  0  0  0  0  0  0  0  0  0
  -11.0127   -2.0552   -2.7649 C   0  0  0  0  0  0  0  0  0  0  0  0
  -12.2773   -2.5362   -3.1190 C   0  0  0  0  0  0  0  0  0  0  0  0
  -15.1226   -3.7602   -1.6484 H   0  0  0  0  0  0  0  0  0  0  0  0
  -14.4214   -4.4238   -3.1339 H   0  0  0  0  0  0  0  0  0  0  0  0
  -15.0559   -2.7555   -3.1004 H   0  0  0  0  0  0  0  0  0  0  0  0
  -13.4247   -3.3782   -0.0283 H   0  0  0  0  0  0  0  0  0  0  0  0
  -11.2384   -2.5575    0.6110 H   0  0  0  0  0  0  0  0  0  0  0  0
   -9.2616   -2.0010    1.0393 H   0  0  0  0  0  0  0  0  0  0  0  0
   -7.5790   -3.4700    2.0291 H   0  0  0  0  0  0  0  0  0  0  0  0
   -7.3461   -3.7598    4.4811 H   0  0  0  0  0  0  0  0  0  0  0  0
   -5.5955   -4.1015    6.0792 H   0  0  0  0  0  0  0  0  0  0  0  0
   -5.1284   -4.1985    8.4876 H   0  0  0  0  0  0  0  0  0  0  0  0
   -5.2116   -2.1352    9.8634 H   0  0  0  0  0  0  0  0  0  0  0  0
   -5.8467    0.0234    8.8133 H   0  0  0  0  0  0  0  0  0  0  0  0
   -6.4326    0.1214    6.4301 H   0  0  0  0  0  0  0  0  0  0  0  0
   -3.7920   -0.5486    5.1542 H   0  0  0  0  0  0  0  0  0  0  0  0
   -2.7550    1.6138    5.6830 H   0  0  0  0  0  0  0  0  0  0  0  0
   -3.5544    3.6911    4.5811 H   0  0  0  0  0  0  0  0  0  0  0  0
   -5.4315    3.5813    2.9603 H   0  0  0  0  0  0  0  0  0  0  0  0
   -6.5738    1.4533    2.5277 H   0  0  0  0  0  0  0  0  0  0  0  0
   -5.0638    0.8861   -2.8783 H   0  0  0  0  0  0  0  0  0  0  0  0
  -10.3480   -1.6972   -3.5492 H   0  0  0  0  0  0  0  0  0  0  0  0
  -12.5693   -2.5375   -4.1676 H   0  0  0  0  0  0  0  0  0  0  0  0
  1  2  1  0  0  0  0
  1 35  1  0  0  0  0
  1 36  1  0  0  0  0
  1 37  1  0  0  0  0
  2  3  1  0  0  0  0
  2 34  2  0  0  0  0
  3  4  2  0  0  0  0
  3 38  1  0  0  0  0
  4  5  1  0  0  0  0
  4 39  1  0  0  0  0
  5  6  1  0  0  0  0
  5 33  2  0  0  0  0
  6  7  1  0  0  0  0
  6 32  1  0  0  0  0
  7  8  2  0  0  0  0
  7 40  1  0  0  0  0
  8  9  1  0  0  0  0
  8 31  1  0  0  0  0
  9 10  1  0  0  0  0
  9 27  2  0  0  0  0
 10 11  2  0  0  0  0
 10 20  1  0  0  0  0
 11 12  1  0  0  0  0
 11 41  1  0  0  0  0
 12 13  1  0  0  0  0
 12 42  1  0  0  0  0
 13 14  1  0  0  0  0
 13 20  2  0  0  0  0
 14 15  1  0  0  0  0
 14 19  2  0  0  0  0
 15 16  2  0  0  0  0
 15 43  1  0  0  0  0
 16 17  1  0  0  0  0
 16 44  1  0  0  0  0
 17 18  2  0  0  0  0
 17 45  1  0  0  0  0
 18 19  1  0  0  0  0
 18 46  1  0  0  0  0
 19 47  1  0  0  0  0
 20 21  1  0  0  0  0
 21 22  1  0  0  0  0
 21 26  2  0  0  0  0
 22 23  2  0  0  0  0
 22 48  1  0  0  0  0
 23 24  1  0  0  0  0
 23 49  1  0  0  0  0
 24 25  2  0  0  0  0
 24 50  1  0  0  0  0
 25 26  1  0  0  0  0
 25 51  1  0  0  0  0
 26 52  1  0  0  0  0
 27 28  1  0  0  0  0
 28 29  2  0  0  0  0
 29 30  1  0  0  0  0
 29 31  1  0  0  0  0
 30 53  1  0  0  0  0
 31 32  2  0  0  0  0
 33 34  1  0  0  0  0
 33 54  1  0  0  0  0
 34 55  1  0  0  0  0
M  END
$$$$
