CHEMBL3656071
 OpenBabel04072215373D

 80 84  0  0  1  0  0  0  0  0999 V2000
   -2.5390    3.4291   -1.4326 C   0  0  0  0  0  0  0  0  0  0  0  0
   -1.1211    3.3112   -1.2971 O   0  0  0  0  0  0  0  0  0  0  0  0
   -0.4478    4.4836   -1.4939 C   0  0  0  0  0  0  0  0  0  0  0  0
   -0.9862    5.5588   -1.7322 O   0  0  0  0  0  0  0  0  0  0  0  0
    1.0602    4.2840   -1.3484 C   0  0  3  0  0  0  0  0  0  0  0  0
    1.8336    5.5881   -1.4574 C   0  0  0  0  0  0  0  0  0  0  0  0
    3.2590    5.1232   -1.6547 C   0  0  0  0  0  0  0  0  0  0  0  0
    3.1376    3.7733   -2.3483 C   0  0  0  0  0  0  0  0  0  0  0  0
    1.7089    3.3867   -2.3547 N   0  0  0  0  0  0  0  0  0  0  0  0
    1.1239    3.4719   -3.7056 C   0  0  0  0  0  0  0  0  0  0  0  0
    1.7384    2.4835   -4.7128 C   0  0  0  0  0  0  0  0  0  0  0  0
    1.7249    1.0318   -4.2374 C   0  0  0  0  0  0  0  0  0  0  0  0
    0.3862    0.5010   -4.1129 N   0  0  0  0  0  0  0  0  0  0  0  0
   -0.2777    0.0040   -5.2003 C   0  0  0  0  0  0  0  0  0  0  0  0
    0.2217   -0.0262   -6.3226 O   0  0  0  0  0  0  0  0  0  0  0  0
   -1.6243   -0.5010   -4.9542 C   0  0  0  0  0  0  0  0  0  0  0  0
   -2.3839   -0.5326   -3.7952 C   0  0  0  0  0  0  0  0  0  0  0  0
   -3.5896   -1.1359   -4.0804 N   0  0  0  0  0  0  0  0  0  0  0  0
   -3.6396   -1.4972   -5.4082 C   0  0  0  0  0  0  0  0  0  0  0  0
   -4.7673   -2.1873   -6.0244 C   0  0  0  0  0  0  0  0  0  0  0  0
   -4.7234   -2.5533   -7.3638 C   0  0  0  0  0  0  0  0  0  0  0  0
   -5.7517   -3.3269   -7.8912 C   0  0  0  0  0  0  0  0  0  0  0  0
   -5.7564   -3.8121   -9.1867 O   0  0  0  0  0  0  0  0  0  0  0  0
   -4.5494   -4.1275   -9.7813 C   0  0  0  0  0  0  0  0  0  0  0  0
   -3.4869   -4.6971   -9.0863 C   0  0  0  0  0  0  0  0  0  0  0  0
   -2.2547   -4.8836   -9.7145 C   0  0  0  0  0  0  0  0  0  0  0  0
   -2.0732   -4.5816  -11.0686 C   0  0  0  0  0  0  0  0  0  0  0  0
   -0.8229   -4.7109  -11.7236 N   0  0  0  0  0  0  0  0  0  0  0  0
    0.3420   -5.1873  -11.1471 C   0  0  0  0  0  0  0  0  0  0  0  0
    0.4284   -5.6603  -10.0190 O   0  0  0  0  0  0  0  0  0  0  0  0
    1.4455   -5.0418  -11.9792 N   0  0  0  0  0  0  0  0  0  0  0  0
    2.7194   -5.4701  -11.5123 C   0  0  0  0  0  0  0  0  0  0  0  0
    2.8938   -6.7165  -10.8961 C   0  0  0  0  0  0  0  0  0  0  0  0
    4.1284   -7.0744  -10.3365 C   0  0  0  0  0  0  0  0  0  0  0  0
    4.3035   -8.4028   -9.6598 C   0  0  0  0  0  0  0  0  0  0  0  0
    5.1925   -6.1652  -10.3964 C   0  0  0  0  0  0  0  0  0  0  0  0
    5.0340   -4.9338  -11.0374 C   0  0  0  0  0  0  0  0  0  0  0  0
    3.8085   -4.6053  -11.6105 C   0  0  0  0  0  0  0  0  0  0  0  0
    3.6578   -3.4080  -12.1980 F   0  0  0  0  0  0  0  0  0  0  0  0
   -3.1749   -4.1087  -11.7893 C   0  0  0  0  0  0  0  0  0  0  0  0
   -4.4065   -3.8797  -11.1481 C   0  0  0  0  0  0  0  0  0  0  0  0
   -6.8513   -3.6080   -7.0921 C   0  0  0  0  0  0  0  0  0  0  0  0
   -6.8330   -3.1634   -5.7757 C   0  0  0  0  0  0  0  0  0  0  0  0
   -5.8086   -2.4775   -5.2126 N   0  0  0  0  0  0  0  0  0  0  0  0
   -2.4323   -1.1111   -5.9565 C   0  0  0  0  0  0  0  0  0  0  0  0
   -2.9971    2.5243   -1.0248 H   0  0  0  0  0  0  0  0  0  0  0  0
   -2.8030    3.5086   -2.4915 H   0  0  0  0  0  0  0  0  0  0  0  0
   -2.9274    4.2874   -0.8737 H   0  0  0  0  0  0  0  0  0  0  0  0
    1.2299    3.8578   -0.3499 H   0  0  0  0  0  0  0  0  0  0  0  0
    1.7279    6.2126   -0.5643 H   0  0  0  0  0  0  0  0  0  0  0  0
    1.5059    6.1813   -2.3198 H   0  0  0  0  0  0  0  0  0  0  0  0
    3.7562    5.0020   -0.6858 H   0  0  0  0  0  0  0  0  0  0  0  0
    3.8348    5.8410   -2.2466 H   0  0  0  0  0  0  0  0  0  0  0  0
    3.7091    3.0162   -1.7996 H   0  0  0  0  0  0  0  0  0  0  0  0
    3.5843    3.8374   -3.3446 H   0  0  0  0  0  0  0  0  0  0  0  0
    1.2073    4.4888   -4.1079 H   0  0  0  0  0  0  0  0  0  0  0  0
    0.0540    3.2386   -3.6595 H   0  0  0  0  0  0  0  0  0  0  0  0
    2.7712    2.7640   -4.9458 H   0  0  0  0  0  0  0  0  0  0  0  0
    1.1872    2.5706   -5.6580 H   0  0  0  0  0  0  0  0  0  0  0  0
    2.2226    0.9134   -3.2707 H   0  0  0  0  0  0  0  0  0  0  0  0
    2.2749    0.4168   -4.9597 H   0  0  0  0  0  0  0  0  0  0  0  0
   -0.0848    0.5820   -3.2220 H   0  0  0  0  0  0  0  0  0  0  0  0
   -2.1816   -0.1931   -2.7882 H   0  0  0  0  0  0  0  0  0  0  0  0
   -4.3427   -1.3190   -3.4280 H   0  0  0  0  0  0  0  0  0  0  0  0
   -3.8747   -2.2739   -7.9755 H   0  0  0  0  0  0  0  0  0  0  0  0
   -3.5692   -4.9604   -8.0356 H   0  0  0  0  0  0  0  0  0  0  0  0
   -1.4522   -5.2563   -9.0897 H   0  0  0  0  0  0  0  0  0  0  0  0
   -0.7898   -4.4975  -12.7092 H   0  0  0  0  0  0  0  0  0  0  0  0
    1.4608   -4.1775  -12.5064 H   0  0  0  0  0  0  0  0  0  0  0  0
    2.0542   -7.4059  -10.8271 H   0  0  0  0  0  0  0  0  0  0  0  0
    3.3801   -8.9917   -9.6879 H   0  0  0  0  0  0  0  0  0  0  0  0
    4.5813   -8.2614   -8.6102 H   0  0  0  0  0  0  0  0  0  0  0  0
    5.0865   -8.9787  -10.1641 H   0  0  0  0  0  0  0  0  0  0  0  0
    6.1467   -6.4102   -9.9343 H   0  0  0  0  0  0  0  0  0  0  0  0
    5.8508   -4.2202  -11.0699 H   0  0  0  0  0  0  0  0  0  0  0  0
   -3.0951   -3.8934  -12.8526 H   0  0  0  0  0  0  0  0  0  0  0  0
   -5.2472   -3.4880  -11.7156 H   0  0  0  0  0  0  0  0  0  0  0  0
   -7.6958   -4.1666   -7.4780 H   0  0  0  0  0  0  0  0  0  0  0  0
   -7.6724   -3.3629   -5.1138 H   0  0  0  0  0  0  0  0  0  0  0  0
   -2.1191   -1.2572   -6.9826 H   0  0  0  0  0  0  0  0  0  0  0  0
  1  2  1  0  0  0  0
  1 46  1  0  0  0  0
  1 47  1  0  0  0  0
  1 48  1  0  0  0  0
  2  3  1  0  0  0  0
  3  4  2  0  0  0  0
  3  5  1  0  0  0  0
  5  6  1  0  0  0  0
  5  9  1  0  0  0  0
  5 49  1  0  0  0  0
  6  7  1  0  0  0  0
  6 50  1  0  0  0  0
  6 51  1  0  0  0  0
  7  8  1  0  0  0  0
  7 52  1  0  0  0  0
  7 53  1  0  0  0  0
  8  9  1  0  0  0  0
  8 54  1  0  0  0  0
  8 55  1  0  0  0  0
  9 10  1  0  0  0  0
 10 11  1  0  0  0  0
 10 56  1  0  0  0  0
 10 57  1  0  0  0  0
 11 12  1  0  0  0  0
 11 58  1  0  0  0  0
 11 59  1  0  0  0  0
 12 13  1  0  0  0  0
 12 60  1  0  0  0  0
 12 61  1  0  0  0  0
 13 14  1  0  0  0  0
 13 62  1  0  0  0  0
 14 15  2  0  0  0  0
 14 16  1  0  0  0  0
 16 17  2  0  0  0  0
 16 45  1  0  0  0  0
 17 18  1  0  0  0  0
 17 63  1  0  0  0  0
 18 19  1  0  0  0  0
 18 64  1  0  0  0  0
 19 20  1  0  0  0  0
 19 45  2  0  0  0  0
 20 21  1  0  0  0  0
 20 44  2  0  0  0  0
 21 22  2  0  0  0  0
 21 65  1  0  0  0  0
 22 23  1  0  0  0  0
 22 42  1  0  0  0  0
 23 24  1  0  0  0  0
 24 25  1  0  0  0  0
 24 41  2  0  0  0  0
 25 26  2  0  0  0  0
 25 66  1  0  0  0  0
 26 27  1  0  0  0  0
 26 67  1  0  0  0  0
 27 28  1  0  0  0  0
 27 40  2  0  0  0  0
 28 29  1  0  0  0  0
 28 68  1  0  0  0  0
 29 30  2  0  0  0  0
 29 31  1  0  0  0  0
 31 32  1  0  0  0  0
 31 69  1  0  0  0  0
 32 33  1  0  0  0  0
 32 38  2  0  0  0  0
 33 34  2  0  0  0  0
 33 70  1  0  0  0  0
 34 35  1  0  0  0  0
 34 36  1  0  0  0  0
 35 71  1  0  0  0  0
 35 72  1  0  0  0  0
 35 73  1  0  0  0  0
 36 37  2  0  0  0  0
 36 74  1  0  0  0  0
 37 38  1  0  0  0  0
 37 75  1  0  0  0  0
 38 39  1  0  0  0  0
 40 41  1  0  0  0  0
 40 76  1  0  0  0  0
 41 77  1  0  0  0  0
 42 43  2  0  0  0  0
 42 78  1  0  0  0  0
 43 44  1  0  0  0  0
 43 79  1  0  0  0  0
 45 80  1  0  0  0  0
M  END
$$$$
