CHEMBL1096416
 OpenBabel04072215363D

 42 45  0  0  0  0  0  0  0  0999 V2000
   -1.4041   -3.2702   -1.1243 F   0  0  0  0  0  0  0  0  0  0  0  0
   -1.0709   -1.9695   -1.1508 C   0  0  0  0  0  0  0  0  0  0  0  0
    0.1701   -1.6119   -1.6754 C   0  0  0  0  0  0  0  0  0  0  0  0
    0.5306   -0.2666   -1.7105 C   0  0  0  0  0  0  0  0  0  0  0  0
    2.0585    0.1983   -2.3514 Cl  0  0  0  0  0  0  0  0  0  0  0  0
   -0.3338    0.7066   -1.2206 C   0  0  0  0  0  0  0  0  0  0  0  0
   -1.5746    0.3343   -0.7019 C   0  0  0  0  0  0  0  0  0  0  0  0
   -1.9725   -1.0089   -0.6655 C   0  0  0  0  0  0  0  0  0  0  0  0
   -3.2263   -1.3829   -0.1270 N   0  0  0  0  0  0  0  0  0  0  0  0
   -4.3487   -0.5385   -0.0854 C   0  0  0  0  0  0  0  0  0  0  0  0
   -4.5431    0.3515   -1.0971 N   0  0  0  0  0  0  0  0  0  0  0  0
   -5.5538    1.2336   -1.0172 C   0  0  0  0  0  0  0  0  0  0  0  0
   -6.4472    1.3683   -0.0302 N   0  0  0  0  0  0  0  0  0  0  0  0
   -6.2544    0.4510    0.9250 C   0  0  0  0  0  0  0  0  0  0  0  0
   -7.0171    0.3573    2.0601 N   0  0  0  0  0  0  0  0  0  0  0  0
   -6.5906   -0.7033    2.8298 C   0  0  0  0  0  0  0  0  0  0  0  0
   -7.2152   -1.0897    4.1399 C   0  0  0  0  0  0  0  0  0  0  0  0
   -8.7157   -0.7876    4.2357 C   0  0  0  0  0  0  0  0  0  0  0  0
   -9.3143   -1.2354    5.5477 C   0  0  0  0  0  0  0  0  0  0  0  0
   -9.3626   -0.3636    6.6442 C   0  0  0  0  0  0  0  0  0  0  0  0
   -9.9682   -0.7607    7.8382 C   0  0  0  0  0  0  0  0  0  0  0  0
  -10.5178   -2.0361    7.9522 C   0  0  0  0  0  0  0  0  0  0  0  0
  -10.4433   -2.9229    6.8798 C   0  0  0  0  0  0  0  0  0  0  0  0
   -9.8408   -2.5269    5.6842 C   0  0  0  0  0  0  0  0  0  0  0  0
   -5.4974   -1.2572    2.1756 C   0  0  0  0  0  0  0  0  0  0  0  0
   -5.2774   -0.5312    0.9710 C   0  0  0  0  0  0  0  0  0  0  0  0
    0.8338   -2.3786   -2.0564 H   0  0  0  0  0  0  0  0  0  0  0  0
   -0.0560    1.7573   -1.2457 H   0  0  0  0  0  0  0  0  0  0  0  0
   -2.2221    1.1150   -0.3123 H   0  0  0  0  0  0  0  0  0  0  0  0
   -3.1213   -1.9480    0.7088 H   0  0  0  0  0  0  0  0  0  0  0  0
   -5.6407    1.9236   -1.8497 H   0  0  0  0  0  0  0  0  0  0  0  0
   -7.7733    0.9908    2.2667 H   0  0  0  0  0  0  0  0  0  0  0  0
   -6.6792   -0.5812    4.9477 H   0  0  0  0  0  0  0  0  0  0  0  0
   -7.0601   -2.1673    4.2887 H   0  0  0  0  0  0  0  0  0  0  0  0
   -9.2565   -1.2688    3.4096 H   0  0  0  0  0  0  0  0  0  0  0  0
   -8.8997    0.2882    4.1186 H   0  0  0  0  0  0  0  0  0  0  0  0
   -8.9416    0.6368    6.5731 H   0  0  0  0  0  0  0  0  0  0  0  0
  -10.0193   -0.0717    8.6774 H   0  0  0  0  0  0  0  0  0  0  0  0
  -11.0041   -2.3388    8.8760 H   0  0  0  0  0  0  0  0  0  0  0  0
  -10.8634   -3.9212    6.9717 H   0  0  0  0  0  0  0  0  0  0  0  0
   -9.7974   -3.2295    4.8550 H   0  0  0  0  0  0  0  0  0  0  0  0
   -4.9215   -2.0990    2.5374 H   0  0  0  0  0  0  0  0  0  0  0  0
  1  2  1  0  0  0  0
  2  3  1  0  0  0  0
  2  8  2  0  0  0  0
  3  4  2  0  0  0  0
  3 27  1  0  0  0  0
  4  5  1  0  0  0  0
  4  6  1  0  0  0  0
  6  7  2  0  0  0  0
  6 28  1  0  0  0  0
  7  8  1  0  0  0  0
  7 29  1  0  0  0  0
  8  9  1  0  0  0  0
  9 10  1  0  0  0  0
  9 30  1  0  0  0  0
 10 11  1  0  0  0  0
 10 26  2  0  0  0  0
 11 12  2  0  0  0  0
 12 13  1  0  0  0  0
 12 31  1  0  0  0  0
 13 14  2  0  0  0  0
 14 15  1  0  0  0  0
 14 26  1  0  0  0  0
 15 16  1  0  0  0  0
 15 32  1  0  0  0  0
 16 17  1  0  0  0  0
 16 25  2  0  0  0  0
 17 18  1  0  0  0  0
 17 33  1  0  0  0  0
 17 34  1  0  0  0  0
 18 19  1  0  0  0  0
 18 35  1  0  0  0  0
 18 36  1  0  0  0  0
 19 20  1  0  0  0  0
 19 24  2  0  0  0  0
 20 21  2  0  0  0  0
 20 37  1  0  0  0  0
 21 22  1  0  0  0  0
 21 38  1  0  0  0  0
 22 23  2  0  0  0  0
 22 39  1  0  0  0  0
 23 24  1  0  0  0  0
 23 40  1  0  0  0  0
 24 41  1  0  0  0  0
 25 26  1  0  0  0  0
 25 42  1  0  0  0  0
M  END
$$$$
