CHEMBL3656080
 OpenBabel04072215373D

 71 74  0  0  1  0  0  0  0  0999 V2000
    4.1651   -3.3345    4.5096 C   0  0  0  0  0  0  0  0  0  0  0  0
    4.4724   -2.0327    4.0022 O   0  0  0  0  0  0  0  0  0  0  0  0
    3.6401   -1.6272    2.9952 C   0  0  0  0  0  0  0  0  0  0  0  0
    2.7145   -2.3032    2.5608 O   0  0  0  0  0  0  0  0  0  0  0  0
    3.9993   -0.2187    2.4778 C   0  0  2  0  0  0  0  0  0  0  0  0
    4.3230   -0.2232    0.9710 C   0  0  0  0  0  0  0  0  0  0  0  0
    3.2012   -0.7593    0.0804 C   0  0  0  0  0  0  0  0  0  0  0  0
    3.5399   -0.6507   -1.3896 C   0  0  0  0  0  0  0  0  0  0  0  0
    4.5739   -0.1965   -1.8472 O   0  0  0  0  0  0  0  0  0  0  0  0
    2.5554   -1.1479   -2.1734 O   0  0  0  0  0  0  0  0  0  0  0  0
    5.1133    0.3475    3.2455 N   0  0  0  0  0  0  0  0  0  0  0  0
    5.4691    1.6695    3.1530 C   0  0  0  0  0  0  0  0  0  0  0  0
    4.8955    2.4511    2.3997 O   0  0  0  0  0  0  0  0  0  0  0  0
    6.5726    2.0962    4.0080 C   0  0  0  0  0  0  0  0  0  0  0  0
    7.2692    1.4020    4.9830 C   0  0  0  0  0  0  0  0  0  0  0  0
    8.1978    2.2588    5.5461 N   0  0  0  0  0  0  0  0  0  0  0  0
    8.1257    3.4987    4.9481 C   0  0  0  0  0  0  0  0  0  0  0  0
    8.9354    4.6434    5.3526 C   0  0  0  0  0  0  0  0  0  0  0  0
    8.8151    5.8625    4.6970 C   0  0  0  0  0  0  0  0  0  0  0  0
    9.4655    6.9817    5.2086 C   0  0  0  0  0  0  0  0  0  0  0  0
    9.3306    8.2556    4.6842 O   0  0  0  0  0  0  0  0  0  0  0  0
    8.1321    8.6125    4.0964 C   0  0  0  0  0  0  0  0  0  0  0  0
    6.8987    8.1615    4.5558 C   0  0  0  0  0  0  0  0  0  0  0  0
    5.7333    8.4499    3.8443 C   0  0  0  0  0  0  0  0  0  0  0  0
    5.7473    9.2650    2.7107 C   0  0  0  0  0  0  0  0  0  0  0  0
    4.5844    9.5244    1.9384 N   0  0  0  0  0  0  0  0  0  0  0  0
    3.3132    9.0477    2.2205 C   0  0  0  0  0  0  0  0  0  0  0  0
    3.0110    8.3901    3.2104 O   0  0  0  0  0  0  0  0  0  0  0  0
    2.3825    9.3721    1.2412 N   0  0  0  0  0  0  0  0  0  0  0  0
    1.0403    8.9284    1.4173 C   0  0  0  0  0  0  0  0  0  0  0  0
    0.3431    9.1626    2.6110 C   0  0  0  0  0  0  0  0  0  0  0  0
   -0.9428    8.6368    2.8068 C   0  0  0  0  0  0  0  0  0  0  0  0
   -1.6873    8.8867    4.0870 C   0  0  0  0  0  0  0  0  0  0  0  0
   -1.5221    7.8582    1.7962 C   0  0  0  0  0  0  0  0  0  0  0  0
   -0.8384    7.6351    0.5982 C   0  0  0  0  0  0  0  0  0  0  0  0
    0.4248    8.1896    0.4081 C   0  0  0  0  0  0  0  0  0  0  0  0
    1.0845    7.9433   -0.7345 F   0  0  0  0  0  0  0  0  0  0  0  0
    6.9758    9.8150    2.3198 C   0  0  0  0  0  0  0  0  0  0  0  0
    8.1615    9.4876    3.0087 C   0  0  0  0  0  0  0  0  0  0  0  0
   10.3191    6.8172    6.2911 C   0  0  0  0  0  0  0  0  0  0  0  0
   10.4216    5.5522    6.8562 C   0  0  0  0  0  0  0  0  0  0  0  0
    9.7344    4.4628    6.4292 N   0  0  0  0  0  0  0  0  0  0  0  0
    7.1379    3.4053    3.9844 C   0  0  0  0  0  0  0  0  0  0  0  0
    4.8934   -3.5789    5.2876 H   0  0  0  0  0  0  0  0  0  0  0  0
    4.2436   -4.0839    3.7153 H   0  0  0  0  0  0  0  0  0  0  0  0
    3.1650   -3.3457    4.9547 H   0  0  0  0  0  0  0  0  0  0  0  0
    3.1290    0.4191    2.6761 H   0  0  0  0  0  0  0  0  0  0  0  0
    4.5423    0.8004    0.6424 H   0  0  0  0  0  0  0  0  0  0  0  0
    5.2428   -0.7936    0.7898 H   0  0  0  0  0  0  0  0  0  0  0  0
    2.2782   -0.1993    0.2638 H   0  0  0  0  0  0  0  0  0  0  0  0
    3.0339   -1.8221    0.2759 H   0  0  0  0  0  0  0  0  0  0  0  0
    1.7951   -1.4959   -1.6698 H   0  0  0  0  0  0  0  0  0  0  0  0
    5.5504   -0.2349    3.9486 H   0  0  0  0  0  0  0  0  0  0  0  0
    7.1838    0.3926    5.3505 H   0  0  0  0  0  0  0  0  0  0  0  0
    8.8379    2.0391    6.2909 H   0  0  0  0  0  0  0  0  0  0  0  0
    8.1774    5.9460    3.8255 H   0  0  0  0  0  0  0  0  0  0  0  0
    6.8131    7.5306    5.4359 H   0  0  0  0  0  0  0  0  0  0  0  0
    4.8276    7.9836    4.2172 H   0  0  0  0  0  0  0  0  0  0  0  0
    4.6780   10.1435    1.1465 H   0  0  0  0  0  0  0  0  0  0  0  0
    2.7307    9.2899    0.2941 H   0  0  0  0  0  0  0  0  0  0  0  0
    0.8135    9.7412    3.4039 H   0  0  0  0  0  0  0  0  0  0  0  0
   -1.1029    9.5022    4.7793 H   0  0  0  0  0  0  0  0  0  0  0  0
   -1.9131    7.9405    4.5891 H   0  0  0  0  0  0  0  0  0  0  0  0
   -2.6229    9.4160    3.8793 H   0  0  0  0  0  0  0  0  0  0  0  0
   -2.5048    7.4148    1.9434 H   0  0  0  0  0  0  0  0  0  0  0  0
   -1.2744    7.0135   -0.1770 H   0  0  0  0  0  0  0  0  0  0  0  0
    7.0387   10.4871    1.4660 H   0  0  0  0  0  0  0  0  0  0  0  0
    9.1102    9.9037    2.6773 H   0  0  0  0  0  0  0  0  0  0  0  0
   10.8810    7.6527    6.6941 H   0  0  0  0  0  0  0  0  0  0  0  0
   11.0716    5.3792    7.7101 H   0  0  0  0  0  0  0  0  0  0  0  0
    6.8077    4.2010    3.3260 H   0  0  0  0  0  0  0  0  0  0  0  0
  1  2  1  0  0  0  0
  1 44  1  0  0  0  0
  1 45  1  0  0  0  0
  1 46  1  0  0  0  0
  2  3  1  0  0  0  0
  3  4  2  0  0  0  0
  5 11  1  0  0  0  0
  5  6  1  0  0  0  0
  5  3  1  0  0  0  0
  5 47  1  1  0  0  0
  6  7  1  0  0  0  0
  6 48  1  0  0  0  0
  6 49  1  0  0  0  0
  7  8  1  0  0  0  0
  7 50  1  0  0  0  0
  7 51  1  0  0  0  0
  8  9  2  0  0  0  0
  8 10  1  0  0  0  0
 10 52  1  0  0  0  0
 11 12  1  0  0  0  0
 11 53  1  0  0  0  0
 12 13  2  0  0  0  0
 12 14  1  0  0  0  0
 14 15  2  0  0  0  0
 14 43  1  0  0  0  0
 15 16  1  0  0  0  0
 15 54  1  0  0  0  0
 16 17  1  0  0  0  0
 16 55  1  0  0  0  0
 17 18  1  0  0  0  0
 17 43  2  0  0  0  0
 18 19  1  0  0  0  0
 18 42  2  0  0  0  0
 19 20  2  0  0  0  0
 19 56  1  0  0  0  0
 20 21  1  0  0  0  0
 20 40  1  0  0  0  0
 21 22  1  0  0  0  0
 22 23  1  0  0  0  0
 22 39  2  0  0  0  0
 23 24  2  0  0  0  0
 23 57  1  0  0  0  0
 24 25  1  0  0  0  0
 24 58  1  0  0  0  0
 25 26  1  0  0  0  0
 25 38  2  0  0  0  0
 26 27  1  0  0  0  0
 26 59  1  0  0  0  0
 27 28  2  0  0  0  0
 27 29  1  0  0  0  0
 29 30  1  0  0  0  0
 29 60  1  0  0  0  0
 30 31  1  0  0  0  0
 30 36  2  0  0  0  0
 31 32  2  0  0  0  0
 31 61  1  0  0  0  0
 32 33  1  0  0  0  0
 32 34  1  0  0  0  0
 33 62  1  0  0  0  0
 33 63  1  0  0  0  0
 33 64  1  0  0  0  0
 34 35  2  0  0  0  0
 34 65  1  0  0  0  0
 35 36  1  0  0  0  0
 35 66  1  0  0  0  0
 36 37  1  0  0  0  0
 38 39  1  0  0  0  0
 38 67  1  0  0  0  0
 39 68  1  0  0  0  0
 40 41  2  0  0  0  0
 40 69  1  0  0  0  0
 41 42  1  0  0  0  0
 41 70  1  0  0  0  0
 43 71  1  0  0  0  0
M  END
$$$$
