CHEMBL184021
 OpenBabel04072215363D

 53 56  0  0  0  0  0  0  0  0999 V2000
    1.1271   -1.4774   -0.8753 C   0  0  0  0  0  0  0  0  0  0  0  0
    2.6246   -1.4703   -0.9795 C   0  0  0  0  0  0  0  0  0  0  0  0
    3.1636   -1.6801   -2.0624 O   0  0  0  0  0  0  0  0  0  0  0  0
    3.2654   -1.2453    0.2261 N   0  0  0  0  0  0  0  0  0  0  0  0
    4.6680   -1.1492    0.3959 C   0  0  0  0  0  0  0  0  0  0  0  0
    5.5425   -0.9399   -0.6675 C   0  0  0  0  0  0  0  0  0  0  0  0
    6.9378   -0.9064   -0.4812 C   0  0  0  0  0  0  0  0  0  0  0  0
    7.5298   -1.0675    0.7854 C   0  0  0  0  0  0  0  0  0  0  0  0
    8.9995   -1.0615    0.9282 C   0  0  0  0  0  0  0  0  0  0  0  0
    9.6006   -0.4325    2.0181 C   0  0  0  0  0  0  0  0  0  0  0  0
   10.9797   -0.4578    2.2044 C   0  0  0  0  0  0  0  0  0  0  0  0
   11.8355   -1.0494    1.2820 C   0  0  0  0  0  0  0  0  0  0  0  0
   13.2445   -1.0402    1.4350 N   0  0  0  0  0  0  0  0  0  0  0  0
   13.9168   -0.5492    2.5446 C   0  0  0  0  0  0  0  0  0  0  0  0
   13.3818   -0.1356    3.5671 O   0  0  0  0  0  0  0  0  0  0  0  0
   15.2927   -0.5393    2.3716 N   0  0  0  0  0  0  0  0  0  0  0  0
   16.1149   -0.0637    3.4246 C   0  0  0  0  0  0  0  0  0  0  0  0
   15.9392   -0.5153    4.7385 C   0  0  0  0  0  0  0  0  0  0  0  0
   16.7050    0.0121    5.7759 C   0  0  0  0  0  0  0  0  0  0  0  0
   17.6520    0.9978    5.5074 C   0  0  0  0  0  0  0  0  0  0  0  0
   17.8542    1.4479    4.1964 C   0  0  0  0  0  0  0  0  0  0  0  0
   18.8492    2.5345    3.9136 C   0  0  0  0  0  0  0  0  0  0  0  0
   17.0888    0.9012    3.1527 C   0  0  0  0  0  0  0  0  0  0  0  0
   11.2636   -1.6471    0.1538 C   0  0  0  0  0  0  0  0  0  0  0  0
    9.8593   -1.6583   -0.0075 C   0  0  0  0  0  0  0  0  0  0  0  0
    6.6380   -1.2302    1.8542 C   0  0  0  0  0  0  0  0  0  0  0  0
    5.2502   -1.2640    1.6476 C   0  0  0  0  0  0  0  0  0  0  0  0
    4.6116   -1.5135    2.9409 C   0  0  0  0  0  0  0  0  0  0  0  0
    3.4059   -1.6211    3.1271 O   0  0  0  0  0  0  0  0  0  0  0  0
    5.6077   -1.6098    3.8819 N   0  0  0  0  0  0  0  0  0  0  0  0
    6.9160   -1.4326    3.3168 C   0  0  0  0  0  0  0  0  0  0  0  0
    0.7031   -1.5163   -1.8897 H   0  0  0  0  0  0  0  0  0  0  0  0
    0.7725   -0.5639   -0.3894 H   0  0  0  0  0  0  0  0  0  0  0  0
    0.7953   -2.3560   -0.3221 H   0  0  0  0  0  0  0  0  0  0  0  0
    2.7180   -1.3070    1.0850 H   0  0  0  0  0  0  0  0  0  0  0  0
    5.1804   -0.7884   -1.6852 H   0  0  0  0  0  0  0  0  0  0  0  0
    7.5540   -0.7436   -1.3638 H   0  0  0  0  0  0  0  0  0  0  0  0
    9.0185    0.1174    2.7518 H   0  0  0  0  0  0  0  0  0  0  0  0
   11.3338    0.0298    3.1088 H   0  0  0  0  0  0  0  0  0  0  0  0
   13.7915   -1.5164    0.7283 H   0  0  0  0  0  0  0  0  0  0  0  0
   15.5952   -0.3199    1.4326 H   0  0  0  0  0  0  0  0  0  0  0  0
   15.1921   -1.2713    4.9672 H   0  0  0  0  0  0  0  0  0  0  0  0
   16.5500   -0.3340    6.7941 H   0  0  0  0  0  0  0  0  0  0  0  0
   18.2256    1.4175    6.3308 H   0  0  0  0  0  0  0  0  0  0  0  0
   19.4355    2.7787    4.8057 H   0  0  0  0  0  0  0  0  0  0  0  0
   18.3345    3.4450    3.5890 H   0  0  0  0  0  0  0  0  0  0  0  0
   19.5460    2.2127    3.1352 H   0  0  0  0  0  0  0  0  0  0  0  0
   17.2112    1.2862    2.1439 H   0  0  0  0  0  0  0  0  0  0  0  0
   11.8819   -2.1113   -0.6132 H   0  0  0  0  0  0  0  0  0  0  0  0
    9.4572   -2.1545   -0.8873 H   0  0  0  0  0  0  0  0  0  0  0  0
    5.4115   -1.7802    4.8596 H   0  0  0  0  0  0  0  0  0  0  0  0
    7.5116   -2.3291    3.5075 H   0  0  0  0  0  0  0  0  0  0  0  0
    7.3502   -0.5541    3.7990 H   0  0  0  0  0  0  0  0  0  0  0  0
  1  2  1  0  0  0  0
  1 32  1  0  0  0  0
  1 33  1  0  0  0  0
  1 34  1  0  0  0  0
  2  3  2  0  0  0  0
  2  4  1  0  0  0  0
  4  5  1  0  0  0  0
  4 35  1  0  0  0  0
  5  6  1  0  0  0  0
  5 27  2  0  0  0  0
  6  7  2  0  0  0  0
  6 36  1  0  0  0  0
  7  8  1  0  0  0  0
  7 37  1  0  0  0  0
  8  9  1  0  0  0  0
  8 26  2  0  0  0  0
  9 10  1  0  0  0  0
  9 25  2  0  0  0  0
 10 11  2  0  0  0  0
 10 38  1  0  0  0  0
 11 12  1  0  0  0  0
 11 39  1  0  0  0  0
 12 13  1  0  0  0  0
 12 24  2  0  0  0  0
 13 14  1  0  0  0  0
 13 40  1  0  0  0  0
 14 15  2  0  0  0  0
 14 16  1  0  0  0  0
 16 17  1  0  0  0  0
 16 41  1  0  0  0  0
 17 18  1  0  0  0  0
 17 23  2  0  0  0  0
 18 19  2  0  0  0  0
 18 42  1  0  0  0  0
 19 20  1  0  0  0  0
 19 43  1  0  0  0  0
 20 21  2  0  0  0  0
 20 44  1  0  0  0  0
 21 22  1  0  0  0  0
 21 23  1  0  0  0  0
 22 45  1  0  0  0  0
 22 46  1  0  0  0  0
 22 47  1  0  0  0  0
 23 48  1  0  0  0  0
 24 25  1  0  0  0  0
 24 49  1  0  0  0  0
 25 50  1  0  0  0  0
 26 27  1  0  0  0  0
 26 31  1  0  0  0  0
 27 28  1  0  0  0  0
 28 29  2  0  0  0  0
 28 30  1  0  0  0  0
 30 31  1  0  0  0  0
 30 51  1  0  0  0  0
 31 52  1  0  0  0  0
 31 53  1  0  0  0  0
M  END
$$$$
