CHEMBL1290247
 OpenBabel04072215363D

 43 45  0  0  0  0  0  0  0  0999 V2000
    0.8749    0.8311   -2.5285 O   0  0  0  0  0  0  0  0  0  0  0  0
    1.3211    0.0519   -1.6883 C   0  0  0  0  0  0  0  0  0  0  0  0
    1.3825   -1.4386   -2.0198 C   0  0  0  0  0  0  0  0  0  0  0  0
    2.0499   -2.2456   -1.0573 O   0  0  0  0  0  0  0  0  0  0  0  0
    2.4111   -3.4870   -1.5259 C   0  0  0  0  0  0  0  0  0  0  0  0
    3.4860   -4.0831   -0.8709 C   0  0  0  0  0  0  0  0  0  0  0  0
    3.9783   -5.3070   -1.3168 C   0  0  0  0  0  0  0  0  0  0  0  0
    3.3790   -5.9545   -2.4004 C   0  0  0  0  0  0  0  0  0  0  0  0
    2.2602   -5.4051   -3.0292 C   0  0  0  0  0  0  0  0  0  0  0  0
    1.5599   -6.0335   -4.0902 N   0  0  0  0  0  0  0  0  0  0  0  0
    1.8392   -7.2790   -4.6305 C   0  0  0  0  0  0  0  0  0  0  0  0
    2.7525   -8.0248   -4.2993 O   0  0  0  0  0  0  0  0  0  0  0  0
    0.9191   -7.7661   -5.6887 C   0  0  0  0  0  0  0  0  0  0  0  0
    0.2106   -6.9419   -6.5652 C   0  0  0  0  0  0  0  0  0  0  0  0
   -0.5954   -7.5257   -7.5449 C   0  0  0  0  0  0  0  0  0  0  0  0
   -0.6643   -8.9095   -7.6138 C   0  0  0  0  0  0  0  0  0  0  0  0
    0.0053   -9.7324   -6.7824 N   0  0  0  0  0  0  0  0  0  0  0  0
    0.7890   -9.1434   -5.8458 C   0  0  0  0  0  0  0  0  0  0  0  0
    1.7836   -4.1635   -2.5835 C   0  0  0  0  0  0  0  0  0  0  0  0
    1.7688    0.3765   -0.4225 N   0  0  0  0  0  0  0  0  0  0  0  0
    1.8143    1.6627    0.1566 C   0  0  0  0  0  0  0  0  0  0  0  0
    1.4065    2.8253   -0.5063 C   0  0  0  0  0  0  0  0  0  0  0  0
    1.4931    4.0753    0.1152 C   0  0  0  0  0  0  0  0  0  0  0  0
    1.9837    4.1685    1.4115 C   0  0  0  0  0  0  0  0  0  0  0  0
    2.1165    5.8592    2.2435 Br  0  0  0  0  0  0  0  0  0  0  0  0
    2.3840    3.0220    2.0916 C   0  0  0  0  0  0  0  0  0  0  0  0
    2.2989    1.7727    1.4665 C   0  0  0  0  0  0  0  0  0  0  0  0
    1.8964   -1.5010   -2.9882 H   0  0  0  0  0  0  0  0  0  0  0  0
    0.3429   -1.7734   -2.1136 H   0  0  0  0  0  0  0  0  0  0  0  0
    3.9604   -3.5887   -0.0278 H   0  0  0  0  0  0  0  0  0  0  0  0
    4.8348   -5.7643   -0.8272 H   0  0  0  0  0  0  0  0  0  0  0  0
    3.8117   -6.8977   -2.7177 H   0  0  0  0  0  0  0  0  0  0  0  0
    0.7327   -5.5528   -4.4159 H   0  0  0  0  0  0  0  0  0  0  0  0
    0.2976   -5.8611   -6.5324 H   0  0  0  0  0  0  0  0  0  0  0  0
   -1.1484   -6.9173   -8.2530 H   0  0  0  0  0  0  0  0  0  0  0  0
   -1.2696   -9.4078   -8.3662 H   0  0  0  0  0  0  0  0  0  0  0  0
    1.3271   -9.8368   -5.2023 H   0  0  0  0  0  0  0  0  0  0  0  0
    0.9146   -3.7335   -3.0697 H   0  0  0  0  0  0  0  0  0  0  0  0
    2.1113   -0.4014    0.1342 H   0  0  0  0  0  0  0  0  0  0  0  0
    1.0185    2.8021   -1.5190 H   0  0  0  0  0  0  0  0  0  0  0  0
    1.1767    4.9614   -0.4293 H   0  0  0  0  0  0  0  0  0  0  0  0
    2.7594    3.0882    3.1107 H   0  0  0  0  0  0  0  0  0  0  0  0
    2.6168    0.8914    2.0167 H   0  0  0  0  0  0  0  0  0  0  0  0
  1  2  2  0  0  0  0
  2  3  1  0  0  0  0
  2 20  1  0  0  0  0
  3  4  1  0  0  0  0
  3 28  1  0  0  0  0
  3 29  1  0  0  0  0
  4  5  1  0  0  0  0
  5  6  1  0  0  0  0
  5 19  2  0  0  0  0
  6  7  2  0  0  0  0
  6 30  1  0  0  0  0
  7  8  1  0  0  0  0
  7 31  1  0  0  0  0
  8  9  2  0  0  0  0
  8 32  1  0  0  0  0
  9 10  1  0  0  0  0
  9 19  1  0  0  0  0
 10 11  1  0  0  0  0
 10 33  1  0  0  0  0
 11 12  2  0  0  0  0
 11 13  1  0  0  0  0
 13 14  1  0  0  0  0
 13 18  2  0  0  0  0
 14 15  2  0  0  0  0
 14 34  1  0  0  0  0
 15 16  1  0  0  0  0
 15 35  1  0  0  0  0
 16 17  2  0  0  0  0
 16 36  1  0  0  0  0
 17 18  1  0  0  0  0
 18 37  1  0  0  0  0
 19 38  1  0  0  0  0
 20 21  1  0  0  0  0
 20 39  1  0  0  0  0
 21 22  1  0  0  0  0
 21 27  2  0  0  0  0
 22 23  2  0  0  0  0
 22 40  1  0  0  0  0
 23 24  1  0  0  0  0
 23 41  1  0  0  0  0
 24 25  1  0  0  0  0
 24 26  2  0  0  0  0
 26 27  1  0  0  0  0
 26 42  1  0  0  0  0
 27 43  1  0  0  0  0
M  END
$$$$
