CHEMBL497949
 OpenBabel04072215383D

 62 66  0  0  0  0  0  0  0  0999 V2000
    0.9679    0.2281   -0.3418 N   0  0  0  0  0  0  0  0  0  0  0  0
    2.2486    0.0252    0.0391 C   0  0  0  0  0  0  0  0  0  0  0  0
    2.7975    0.7814    0.8369 O   0  0  0  0  0  0  0  0  0  0  0  0
    2.9684   -1.1501   -0.4988 C   0  0  0  0  0  0  0  0  0  0  0  0
    2.6725   -1.7023   -1.7727 C   0  0  0  0  0  0  0  0  0  0  0  0
    3.4330   -2.7640   -2.3093 C   0  0  0  0  0  0  0  0  0  0  0  0
    4.5123   -3.2421   -1.5903 C   0  0  0  0  0  0  0  0  0  0  0  0
    4.7632   -2.6905   -0.3203 C   0  0  0  0  0  0  0  0  0  0  0  0
    4.0218   -1.6720    0.2429 C   0  0  0  0  0  0  0  0  0  0  0  0
    5.9216   -3.2248    0.2321 N   0  0  0  0  0  0  0  0  0  0  0  0
    6.5751   -4.0374   -0.6771 C   0  0  0  0  0  0  0  0  0  0  0  0
    7.7505   -4.3502   -0.6063 O   0  0  0  0  0  0  0  0  0  0  0  0
    5.5953   -4.2240   -1.8244 C   0  0  0  0  0  0  0  0  0  0  0  0
    5.8381   -5.1172   -2.8127 C   0  0  0  0  0  0  0  0  0  0  0  0
    6.8136   -6.1124   -2.8018 N   0  0  0  0  0  0  0  0  0  0  0  0
    6.9124   -7.1243   -1.8218 C   0  0  0  0  0  0  0  0  0  0  0  0
    5.7773   -7.5917   -1.1472 C   0  0  0  0  0  0  0  0  0  0  0  0
    5.8866   -8.3364    0.0269 C   0  0  0  0  0  0  0  0  0  0  0  0
    7.1420   -8.6623    0.5439 C   0  0  0  0  0  0  0  0  0  0  0  0
    7.2739   -9.2678    1.9293 C   0  0  0  0  0  0  0  0  0  0  0  0
    6.5599  -10.5500    2.1375 N   0  0  0  0  0  0  0  0  0  0  0  0
    7.1518  -11.6070    1.3037 C   0  0  0  0  0  0  0  0  0  0  0  0
    6.6249  -13.0063    1.6227 C   0  0  0  0  0  0  0  0  0  0  0  0
    6.7927  -13.3307    3.0976 C   0  0  0  0  0  0  0  0  0  0  0  0
    6.0687  -12.2802    3.9232 C   0  0  0  0  0  0  0  0  0  0  0  0
    6.5464  -10.8667    3.5786 C   0  0  0  0  0  0  0  0  0  0  0  0
    8.2820   -8.3037   -0.1963 C   0  0  0  0  0  0  0  0  0  0  0  0
    8.1661   -7.5459   -1.3716 C   0  0  0  0  0  0  0  0  0  0  0  0
    5.0864   -5.0728   -4.0828 C   0  0  0  0  0  0  0  0  0  0  0  0
    5.5903   -4.2946   -5.1329 C   0  0  0  0  0  0  0  0  0  0  0  0
    4.9426   -4.2736   -6.3684 C   0  0  0  0  0  0  0  0  0  0  0  0
    3.7944   -5.0339   -6.5656 C   0  0  0  0  0  0  0  0  0  0  0  0
    3.2871   -5.8174   -5.5271 C   0  0  0  0  0  0  0  0  0  0  0  0
    3.9302   -5.8383   -4.2871 C   0  0  0  0  0  0  0  0  0  0  0  0
    0.4664    0.9506    0.1348 H   0  0  0  0  0  0  0  0  0  0  0  0
    0.4201   -0.5082   -0.7706 H   0  0  0  0  0  0  0  0  0  0  0  0
    1.8688   -1.2827   -2.3870 H   0  0  0  0  0  0  0  0  0  0  0  0
    3.1965   -3.1494   -3.3044 H   0  0  0  0  0  0  0  0  0  0  0  0
    4.2763   -1.2580    1.2085 H   0  0  0  0  0  0  0  0  0  0  0  0
    6.3769   -2.8816    1.0665 H   0  0  0  0  0  0  0  0  0  0  0  0
    7.4249   -6.1760   -3.5973 H   0  0  0  0  0  0  0  0  0  0  0  0
    4.7896   -7.3474   -1.5214 H   0  0  0  0  0  0  0  0  0  0  0  0
    4.9842   -8.6069    0.5719 H   0  0  0  0  0  0  0  0  0  0  0  0
    6.8770   -8.5140    2.6243 H   0  0  0  0  0  0  0  0  0  0  0  0
    8.3371   -9.3783    2.1868 H   0  0  0  0  0  0  0  0  0  0  0  0
    8.2463  -11.6146    1.3892 H   0  0  0  0  0  0  0  0  0  0  0  0
    6.9102  -11.4051    0.2529 H   0  0  0  0  0  0  0  0  0  0  0  0
    7.1605  -13.7471    1.0183 H   0  0  0  0  0  0  0  0  0  0  0  0
    5.5648  -13.0754    1.3483 H   0  0  0  0  0  0  0  0  0  0  0  0
    7.8578  -13.3479    3.3603 H   0  0  0  0  0  0  0  0  0  0  0  0
    6.3895  -14.3261    3.3144 H   0  0  0  0  0  0  0  0  0  0  0  0
    6.2340  -12.4757    4.9898 H   0  0  0  0  0  0  0  0  0  0  0  0
    4.9885  -12.3598    3.7510 H   0  0  0  0  0  0  0  0  0  0  0  0
    7.5370  -10.7170    4.0279 H   0  0  0  0  0  0  0  0  0  0  0  0
    5.8641  -10.1645    4.0767 H   0  0  0  0  0  0  0  0  0  0  0  0
    9.2757   -8.5406    0.1765 H   0  0  0  0  0  0  0  0  0  0  0  0
    9.0708   -7.2003   -1.8668 H   0  0  0  0  0  0  0  0  0  0  0  0
    6.5009   -3.7165   -4.9929 H   0  0  0  0  0  0  0  0  0  0  0  0
    5.3490   -3.6716   -7.1785 H   0  0  0  0  0  0  0  0  0  0  0  0
    3.3003   -5.0272   -7.5337 H   0  0  0  0  0  0  0  0  0  0  0  0
    2.3995   -6.4231   -5.6915 H   0  0  0  0  0  0  0  0  0  0  0  0
    3.5341   -6.4650   -3.4927 H   0  0  0  0  0  0  0  0  0  0  0  0
  1  2  1  0  0  0  0
  1 35  1  0  0  0  0
  1 36  1  0  0  0  0
  2  3  2  0  0  0  0
  2  4  1  0  0  0  0
  4  5  1  0  0  0  0
  4  9  2  0  0  0  0
  5  6  2  0  0  0  0
  5 37  1  0  0  0  0
  6  7  1  0  0  0  0
  6 38  1  0  0  0  0
  7  8  2  0  0  0  0
  7 13  1  0  0  0  0
  8  9  1  0  0  0  0
  8 10  1  0  0  0  0
  9 39  1  0  0  0  0
 10 11  1  0  0  0  0
 10 40  1  0  0  0  0
 11 12  2  0  0  0  0
 11 13  1  0  0  0  0
 13 14  2  0  0  0  0
 14 15  1  0  0  0  0
 14 29  1  0  0  0  0
 15 16  1  0  0  0  0
 15 41  1  0  0  0  0
 16 17  1  0  0  0  0
 16 28  2  0  0  0  0
 17 18  2  0  0  0  0
 17 42  1  0  0  0  0
 18 19  1  0  0  0  0
 18 43  1  0  0  0  0
 19 20  1  0  0  0  0
 19 27  2  0  0  0  0
 20 21  1  0  0  0  0
 20 44  1  0  0  0  0
 20 45  1  0  0  0  0
 21 22  1  0  0  0  0
 21 26  1  0  0  0  0
 22 23  1  0  0  0  0
 22 46  1  0  0  0  0
 22 47  1  0  0  0  0
 23 24  1  0  0  0  0
 23 48  1  0  0  0  0
 23 49  1  0  0  0  0
 24 25  1  0  0  0  0
 24 50  1  0  0  0  0
 24 51  1  0  0  0  0
 25 26  1  0  0  0  0
 25 52  1  0  0  0  0
 25 53  1  0  0  0  0
 26 54  1  0  0  0  0
 26 55  1  0  0  0  0
 27 28  1  0  0  0  0
 27 56  1  0  0  0  0
 28 57  1  0  0  0  0
 29 30  1  0  0  0  0
 29 34  2  0  0  0  0
 30 31  2  0  0  0  0
 30 58  1  0  0  0  0
 31 32  1  0  0  0  0
 31 59  1  0  0  0  0
 32 33  2  0  0  0  0
 32 60  1  0  0  0  0
 33 34  1  0  0  0  0
 33 61  1  0  0  0  0
 34 62  1  0  0  0  0
M  END
$$$$
