CHEMBL1929552
 OpenBabel04072215363D

 44 47  0  0  0  0  0  0  0  0999 V2000
    0.1493   -1.9565   -2.7199 C   0  0  0  0  0  0  0  0  0  0  0  0
   -0.0412   -0.9877   -1.5858 C   0  0  0  0  0  0  0  0  0  0  0  0
   -0.7121    0.2191   -1.8540 C   0  0  0  0  0  0  0  0  0  0  0  0
   -0.9119    1.1737   -0.8576 C   0  0  0  0  0  0  0  0  0  0  0  0
   -0.4335    0.9374    0.4244 C   0  0  0  0  0  0  0  0  0  0  0  0
    0.2449   -0.2490    0.7068 C   0  0  0  0  0  0  0  0  0  0  0  0
    0.4547   -1.2298   -0.2844 C   0  0  0  0  0  0  0  0  0  0  0  0
    1.2348   -2.4817    0.0911 C   0  0  0  0  0  0  0  0  0  0  0  0
    2.7105   -2.2971   -0.0748 C   0  0  0  0  0  0  0  0  0  0  0  0
    3.5601   -2.6419   -1.1133 C   0  0  0  0  0  0  0  0  0  0  0  0
    4.7891   -1.9484   -0.9107 C   0  0  0  0  0  0  0  0  0  0  0  0
    5.9550   -1.6940   -1.6531 C   0  0  0  0  0  0  0  0  0  0  0  0
    6.1378   -2.2377   -2.9374 N   0  0  0  0  0  0  0  0  0  0  0  0
    6.8642   -1.6892   -4.0160 C   0  0  0  0  0  0  0  0  0  0  0  0
    8.0028   -0.8928   -3.8584 C   0  0  0  0  0  0  0  0  0  0  0  0
    8.6307   -0.3094   -4.9636 C   0  0  0  0  0  0  0  0  0  0  0  0
    8.1340   -0.5341   -6.2446 C   0  0  0  0  0  0  0  0  0  0  0  0
    8.8930    0.2104   -7.5965 Cl  0  0  0  0  0  0  0  0  0  0  0  0
    7.0275   -1.3533   -6.4356 C   0  0  0  0  0  0  0  0  0  0  0  0
    6.4122   -1.9234   -5.3258 C   0  0  0  0  0  0  0  0  0  0  0  0
    5.3274   -2.6923   -5.5109 F   0  0  0  0  0  0  0  0  0  0  0  0
    6.8398   -0.8067   -1.1303 N   0  0  0  0  0  0  0  0  0  0  0  0
    6.5905   -0.2122    0.0436 C   0  0  0  0  0  0  0  0  0  0  0  0
    7.4615    0.7920    0.4096 N   0  0  0  0  0  0  0  0  0  0  0  0
    5.5662   -0.4662    0.8614 N   0  0  0  0  0  0  0  0  0  0  0  0
    4.6860   -1.3122    0.3140 C   0  0  0  0  0  0  0  0  0  0  0  0
    3.4730   -1.6286    0.8574 N   0  0  0  0  0  0  0  0  0  0  0  0
   -0.4544   -1.6728   -3.5905 H   0  0  0  0  0  0  0  0  0  0  0  0
   -0.1728   -2.9610   -2.4330 H   0  0  0  0  0  0  0  0  0  0  0  0
    1.1959   -1.9758   -3.0363 H   0  0  0  0  0  0  0  0  0  0  0  0
   -1.0898    0.4264   -2.8553 H   0  0  0  0  0  0  0  0  0  0  0  0
   -1.4359    2.0979   -1.0837 H   0  0  0  0  0  0  0  0  0  0  0  0
   -0.5820    1.6783    1.2048 H   0  0  0  0  0  0  0  0  0  0  0  0
    0.6191   -0.4048    1.7171 H   0  0  0  0  0  0  0  0  0  0  0  0
    0.8944   -3.3384   -0.5006 H   0  0  0  0  0  0  0  0  0  0  0  0
    1.0098   -2.7475    1.1328 H   0  0  0  0  0  0  0  0  0  0  0  0
    3.2719   -3.1973   -1.9961 H   0  0  0  0  0  0  0  0  0  0  0  0
    5.3362   -2.7760   -3.2484 H   0  0  0  0  0  0  0  0  0  0  0  0
    8.4192   -0.7057   -2.8732 H   0  0  0  0  0  0  0  0  0  0  0  0
    9.4979    0.3275   -4.8083 H   0  0  0  0  0  0  0  0  0  0  0  0
    6.6287   -1.5407   -7.4262 H   0  0  0  0  0  0  0  0  0  0  0  0
    8.3366    0.7116   -0.0855 H   0  0  0  0  0  0  0  0  0  0  0  0
    7.4712    0.9358    1.4068 H   0  0  0  0  0  0  0  0  0  0  0  0
    3.1500   -1.2610    1.7412 H   0  0  0  0  0  0  0  0  0  0  0  0
  1  2  1  0  0  0  0
  1 28  1  0  0  0  0
  1 29  1  0  0  0  0
  1 30  1  0  0  0  0
  2  3  1  0  0  0  0
  2  7  2  0  0  0  0
  3  4  2  0  0  0  0
  3 31  1  0  0  0  0
  4  5  1  0  0  0  0
  4 32  1  0  0  0  0
  5  6  2  0  0  0  0
  5 33  1  0  0  0  0
  6  7  1  0  0  0  0
  6 34  1  0  0  0  0
  7  8  1  0  0  0  0
  8  9  1  0  0  0  0
  8 35  1  0  0  0  0
  8 36  1  0  0  0  0
  9 10  2  0  0  0  0
  9 27  1  0  0  0  0
 10 11  1  0  0  0  0
 10 37  1  0  0  0  0
 11 12  1  0  0  0  0
 11 26  2  0  0  0  0
 12 13  1  0  0  0  0
 12 22  2  0  0  0  0
 13 14  1  0  0  0  0
 13 38  1  0  0  0  0
 14 15  1  0  0  0  0
 14 20  2  0  0  0  0
 15 16  2  0  0  0  0
 15 39  1  0  0  0  0
 16 17  1  0  0  0  0
 16 40  1  0  0  0  0
 17 18  1  0  0  0  0
 17 19  2  0  0  0  0
 19 20  1  0  0  0  0
 19 41  1  0  0  0  0
 20 21  1  0  0  0  0
 22 23  1  0  0  0  0
 23 24  1  0  0  0  0
 23 25  2  0  0  0  0
 24 42  1  0  0  0  0
 24 43  1  0  0  0  0
 25 26  1  0  0  0  0
 26 27  1  0  0  0  0
 27 44  1  0  0  0  0
M  END
$$$$
