CHEMBL169643
 OpenBabel04072215363D

 58 62  0  0  0  0  0  0  0  0999 V2000
    2.6311    0.5818   -1.1521 C   0  0  0  0  0  0  0  0  0  0  0  0
    2.4427   -0.2629   -0.0216 O   0  0  0  0  0  0  0  0  0  0  0  0
    3.1588   -0.0054    1.1101 C   0  0  0  0  0  0  0  0  0  0  0  0
    4.2932    0.8058    1.1209 C   0  0  0  0  0  0  0  0  0  0  0  0
    4.9442    1.1510    2.3239 C   0  0  0  0  0  0  0  0  0  0  0  0
    6.0384    2.0226    2.4019 C   0  0  0  0  0  0  0  0  0  0  0  0
    6.4807    2.6891    1.2222 N   0  0  0  0  0  0  0  0  0  0  0  0
    7.7649    3.2644    1.0947 C   0  0  0  0  0  0  0  0  0  0  0  0
    8.9679    2.5716    1.3728 C   0  0  0  0  0  0  0  0  0  0  0  0
    8.9799    0.8652    1.7037 Cl  0  0  0  0  0  0  0  0  0  0  0  0
   10.2170    3.2003    1.3247 C   0  0  0  0  0  0  0  0  0  0  0  0
   10.3372    4.5412    0.9484 C   0  0  0  0  0  0  0  0  0  0  0  0
    9.1788    5.2386    0.5710 C   0  0  0  0  0  0  0  0  0  0  0  0
    8.9049    6.5434    0.0928 C   0  0  0  0  0  0  0  0  0  0  0  0
    7.5466    6.6104   -0.1023 C   0  0  0  0  0  0  0  0  0  0  0  0
    6.9549    5.4333    0.2384 O   0  0  0  0  0  0  0  0  0  0  0  0
    7.9506    4.5863    0.6503 C   0  0  0  0  0  0  0  0  0  0  0  0
    6.6681    2.2758    3.5633 N   0  0  0  0  0  0  0  0  0  0  0  0
    6.2043    1.6443    4.6447 C   0  0  0  0  0  0  0  0  0  0  0  0
    5.1439    0.8280    4.6909 N   0  0  0  0  0  0  0  0  0  0  0  0
    4.5182    0.5910    3.5337 C   0  0  0  0  0  0  0  0  0  0  0  0
    3.4181   -0.2565    3.5067 C   0  0  0  0  0  0  0  0  0  0  0  0
    2.7426   -0.5775    2.3180 C   0  0  0  0  0  0  0  0  0  0  0  0
    1.6930   -1.4412    2.5043 O   0  0  0  0  0  0  0  0  0  0  0  0
    1.3902   -2.3957    1.4789 C   0  0  0  0  0  0  0  0  0  0  0  0
    2.5545   -3.3349    1.1442 C   0  0  0  0  0  0  0  0  0  0  0  0
    2.9805   -4.1351    2.3804 C   0  0  0  0  0  0  0  0  0  0  0  0
    4.1283   -5.0332    2.1542 N   0  0  0  0  0  0  0  0  0  0  0  0
    4.3993   -5.8314    3.3763 C   0  0  0  0  0  0  0  0  0  0  0  0
    5.0117   -5.0130    4.5318 C   0  0  0  0  0  0  0  0  0  0  0  0
    6.2103   -4.3420    4.1236 O   0  0  0  0  0  0  0  0  0  0  0  0
    5.9685   -3.5052    2.9849 C   0  0  0  0  0  0  0  0  0  0  0  0
    5.3821   -4.3162    1.8170 C   0  0  0  0  0  0  0  0  0  0  0  0
    3.3161    0.0994   -1.8548 H   0  0  0  0  0  0  0  0  0  0  0  0
    2.9828    1.5897   -0.9061 H   0  0  0  0  0  0  0  0  0  0  0  0
    1.6610    0.7041   -1.6403 H   0  0  0  0  0  0  0  0  0  0  0  0
    4.7154    1.1750    0.1913 H   0  0  0  0  0  0  0  0  0  0  0  0
    5.7627    3.3569    0.9444 H   0  0  0  0  0  0  0  0  0  0  0  0
   11.1139    2.6387    1.5752 H   0  0  0  0  0  0  0  0  0  0  0  0
   11.3108    5.0190    0.9201 H   0  0  0  0  0  0  0  0  0  0  0  0
    9.6179    7.3392   -0.0907 H   0  0  0  0  0  0  0  0  0  0  0  0
    6.8811    7.3835   -0.4608 H   0  0  0  0  0  0  0  0  0  0  0  0
    6.7401    1.8110    5.5729 H   0  0  0  0  0  0  0  0  0  0  0  0
    3.0821   -0.6991    4.4429 H   0  0  0  0  0  0  0  0  0  0  0  0
    0.9813   -1.9060    0.5913 H   0  0  0  0  0  0  0  0  0  0  0  0
    0.5637   -3.0016    1.8709 H   0  0  0  0  0  0  0  0  0  0  0  0
    3.3927   -2.7475    0.7638 H   0  0  0  0  0  0  0  0  0  0  0  0
    2.2522   -4.0186    0.3424 H   0  0  0  0  0  0  0  0  0  0  0  0
    2.1208   -4.7511    2.6759 H   0  0  0  0  0  0  0  0  0  0  0  0
    3.1689   -3.4518    3.2133 H   0  0  0  0  0  0  0  0  0  0  0  0
    5.1019   -6.6276    3.0977 H   0  0  0  0  0  0  0  0  0  0  0  0
    3.4887   -6.3365    3.7151 H   0  0  0  0  0  0  0  0  0  0  0  0
    5.2737   -5.6818    5.3552 H   0  0  0  0  0  0  0  0  0  0  0  0
    4.3031   -4.2746    4.9285 H   0  0  0  0  0  0  0  0  0  0  0  0
    6.9279   -3.0717    2.6858 H   0  0  0  0  0  0  0  0  0  0  0  0
    5.3140   -2.6768    3.2748 H   0  0  0  0  0  0  0  0  0  0  0  0
    6.1193   -5.0759    1.5237 H   0  0  0  0  0  0  0  0  0  0  0  0
    5.2590   -3.6816    0.9351 H   0  0  0  0  0  0  0  0  0  0  0  0
  1  2  1  0  0  0  0
  1 34  1  0  0  0  0
  1 35  1  0  0  0  0
  1 36  1  0  0  0  0
  2  3  1  0  0  0  0
  3  4  1  0  0  0  0
  3 23  2  0  0  0  0
  4  5  2  0  0  0  0
  4 37  1  0  0  0  0
  5  6  1  0  0  0  0
  5 21  1  0  0  0  0
  6  7  1  0  0  0  0
  6 18  2  0  0  0  0
  7  8  1  0  0  0  0
  7 38  1  0  0  0  0
  8  9  1  0  0  0  0
  8 17  2  0  0  0  0
  9 10  1  0  0  0  0
  9 11  2  0  0  0  0
 11 12  1  0  0  0  0
 11 39  1  0  0  0  0
 12 13  2  0  0  0  0
 12 40  1  0  0  0  0
 13 14  1  0  0  0  0
 13 17  1  0  0  0  0
 14 15  2  0  0  0  0
 14 41  1  0  0  0  0
 15 16  1  0  0  0  0
 15 42  1  0  0  0  0
 16 17  1  0  0  0  0
 18 19  1  0  0  0  0
 19 20  2  0  0  0  0
 19 43  1  0  0  0  0
 20 21  1  0  0  0  0
 21 22  2  0  0  0  0
 22 23  1  0  0  0  0
 22 44  1  0  0  0  0
 23 24  1  0  0  0  0
 24 25  1  0  0  0  0
 25 26  1  0  0  0  0
 25 45  1  0  0  0  0
 25 46  1  0  0  0  0
 26 27  1  0  0  0  0
 26 47  1  0  0  0  0
 26 48  1  0  0  0  0
 27 28  1  0  0  0  0
 27 49  1  0  0  0  0
 27 50  1  0  0  0  0
 28 29  1  0  0  0  0
 28 33  1  0  0  0  0
 29 30  1  0  0  0  0
 29 51  1  0  0  0  0
 29 52  1  0  0  0  0
 30 31  1  0  0  0  0
 30 53  1  0  0  0  0
 30 54  1  0  0  0  0
 31 32  1  0  0  0  0
 32 33  1  0  0  0  0
 32 55  1  0  0  0  0
 32 56  1  0  0  0  0
 33 57  1  0  0  0  0
 33 58  1  0  0  0  0
M  END
$$$$
