CHEMBL3949914
 OpenBabel04072215373D

 54 58  0  0  0  0  0  0  0  0999 V2000
   -1.3453    1.0632    3.3682 C   0  0  0  0  0  0  0  0  0  0  0  0
   -2.5023    1.0245    2.4368 C   0  0  0  0  0  0  0  0  0  0  0  0
   -3.2237    2.1379    1.9262 C   0  0  0  0  0  0  0  0  0  0  0  0
   -4.1991    1.6301    1.1038 C   0  0  0  0  0  0  0  0  0  0  0  0
   -4.1325    0.2761    1.0648 O   0  0  0  0  0  0  0  0  0  0  0  0
   -3.1032   -0.1037    1.8889 C   0  0  0  0  0  0  0  0  0  0  0  0
   -2.8185   -1.5210    2.0550 C   0  0  0  0  0  0  0  0  0  0  0  0
   -1.9539   -1.9181    2.8308 O   0  0  0  0  0  0  0  0  0  0  0  0
   -3.5910   -2.3356    1.2390 N   0  0  0  0  0  0  0  0  0  0  0  0
   -3.5490   -3.7434    1.1541 C   0  0  0  0  0  0  0  0  0  0  0  0
   -2.8718   -4.5402    2.0809 C   0  0  0  0  0  0  0  0  0  0  0  0
   -2.7743   -5.9199    1.8990 C   0  0  0  0  0  0  0  0  0  0  0  0
   -3.3769   -6.5214    0.7997 C   0  0  0  0  0  0  0  0  0  0  0  0
   -4.1634   -5.7575   -0.0649 C   0  0  0  0  0  0  0  0  0  0  0  0
   -4.8700   -6.2848   -1.1257 O   0  0  0  0  0  0  0  0  0  0  0  0
   -5.4158   -7.5507   -1.0245 C   0  0  0  0  0  0  0  0  0  0  0  0
   -5.8923   -8.0994    0.1676 C   0  0  0  0  0  0  0  0  0  0  0  0
   -6.3724   -9.3945    0.1688 C   0  0  0  0  0  0  0  0  0  0  0  0
   -6.4871  -10.1785   -0.9159 N   0  0  0  0  0  0  0  0  0  0  0  0
   -6.1182   -9.6118   -2.0952 C   0  0  0  0  0  0  0  0  0  0  0  0
   -6.2285  -10.2415   -3.3676 C   0  0  0  0  0  0  0  0  0  0  0  0
   -5.8029   -9.4356   -4.4063 C   0  0  0  0  0  0  0  0  0  0  0  0
   -5.8140   -9.7678   -5.8271 C   0  0  0  0  0  0  0  0  0  0  0  0
   -6.2571  -10.8273   -6.2651 O   0  0  0  0  0  0  0  0  0  0  0  0
   -5.2929   -8.8026   -6.6642 N   0  0  0  0  0  0  0  0  0  0  0  0
   -5.2869   -8.9302   -8.1112 C   0  0  0  0  0  0  0  0  0  0  0  0
   -6.6002   -8.5105   -8.7711 C   0  0  0  0  0  0  0  0  0  0  0  0
   -6.9051   -7.0753   -8.5673 C   0  0  0  0  0  0  0  0  0  0  0  0
   -7.6553   -6.6185   -7.5173 N   0  0  0  0  0  0  0  0  0  0  0  0
   -7.7175   -5.3010   -7.6469 N   0  0  0  0  0  0  0  0  0  0  0  0
   -7.0179   -5.0343   -8.7576 N   0  0  0  0  0  0  0  0  0  0  0  0
   -6.4665   -6.0948   -9.3722 N   0  0  0  0  0  0  0  0  0  0  0  0
   -5.2289   -7.9331   -3.8216 S   0  0  0  0  0  0  0  0  0  0  0  0
   -5.5867   -8.3254   -2.1867 C   0  0  0  0  0  0  0  0  0  0  0  0
   -4.2194   -4.3660    0.0927 C   0  0  0  0  0  0  0  0  0  0  0  0
   -1.0523    2.0955    3.5861 H   0  0  0  0  0  0  0  0  0  0  0  0
   -0.4795    0.5559    2.9306 H   0  0  0  0  0  0  0  0  0  0  0  0
   -1.5947    0.5764    4.3162 H   0  0  0  0  0  0  0  0  0  0  0  0
   -3.0504    3.1847    2.1362 H   0  0  0  0  0  0  0  0  0  0  0  0
   -4.9799    2.0794    0.5054 H   0  0  0  0  0  0  0  0  0  0  0  0
   -4.1826   -1.8395    0.5792 H   0  0  0  0  0  0  0  0  0  0  0  0
   -2.4022   -4.1169    2.9636 H   0  0  0  0  0  0  0  0  0  0  0  0
   -2.2231   -6.5209    2.6175 H   0  0  0  0  0  0  0  0  0  0  0  0
   -3.2461   -7.5893    0.6507 H   0  0  0  0  0  0  0  0  0  0  0  0
   -5.8725   -7.5430    1.0986 H   0  0  0  0  0  0  0  0  0  0  0  0
   -6.6919   -9.8568    1.1004 H   0  0  0  0  0  0  0  0  0  0  0  0
   -6.6201  -11.2414   -3.5117 H   0  0  0  0  0  0  0  0  0  0  0  0
   -5.0511   -7.9101   -6.2546 H   0  0  0  0  0  0  0  0  0  0  0  0
   -5.0747   -9.9751   -8.3649 H   0  0  0  0  0  0  0  0  0  0  0  0
   -4.4544   -8.3202   -8.4777 H   0  0  0  0  0  0  0  0  0  0  0  0
   -7.4300   -9.1150   -8.3861 H   0  0  0  0  0  0  0  0  0  0  0  0
   -6.5342   -8.7139   -9.8472 H   0  0  0  0  0  0  0  0  0  0  0  0
   -6.9088   -4.0857   -9.1052 H   0  0  0  0  0  0  0  0  0  0  0  0
   -4.7767   -3.7795   -0.6327 H   0  0  0  0  0  0  0  0  0  0  0  0
  1  2  1  0  0  0  0
  1 36  1  0  0  0  0
  1 37  1  0  0  0  0
  1 38  1  0  0  0  0
  2  3  1  0  0  0  0
  2  6  2  0  0  0  0
  3  4  2  0  0  0  0
  3 39  1  0  0  0  0
  4  5  1  0  0  0  0
  4 40  1  0  0  0  0
  5  6  1  0  0  0  0
  6  7  1  0  0  0  0
  7  8  2  0  0  0  0
  7  9  1  0  0  0  0
  9 10  1  0  0  0  0
  9 41  1  0  0  0  0
 10 11  1  0  0  0  0
 10 35  2  0  0  0  0
 11 12  2  0  0  0  0
 11 42  1  0  0  0  0
 12 13  1  0  0  0  0
 12 43  1  0  0  0  0
 13 14  2  0  0  0  0
 13 44  1  0  0  0  0
 14 15  1  0  0  0  0
 14 35  1  0  0  0  0
 15 16  1  0  0  0  0
 16 17  1  0  0  0  0
 16 34  2  0  0  0  0
 17 18  2  0  0  0  0
 17 45  1  0  0  0  0
 18 19  1  0  0  0  0
 18 46  1  0  0  0  0
 19 20  2  0  0  0  0
 20 21  1  0  0  0  0
 20 34  1  0  0  0  0
 21 22  2  0  0  0  0
 21 47  1  0  0  0  0
 22 23  1  0  0  0  0
 22 33  1  0  0  0  0
 23 24  2  0  0  0  0
 23 25  1  0  0  0  0
 25 26  1  0  0  0  0
 25 48  1  0  0  0  0
 26 27  1  0  0  0  0
 26 49  1  0  0  0  0
 26 50  1  0  0  0  0
 27 28  1  0  0  0  0
 27 51  1  0  0  0  0
 27 52  1  0  0  0  0
 28 29  1  0  0  0  0
 28 32  2  0  0  0  0
 29 30  2  0  0  0  0
 30 31  1  0  0  0  0
 31 32  1  0  0  0  0
 31 53  1  0  0  0  0
 33 34  1  0  0  0  0
 35 54  1  0  0  0  0
M  END
$$$$
