CHEMBL1234815
 OpenBabel04072215363D

 34 37  0  0  0  0  0  0  0  0999 V2000
    1.1620    0.0640   -0.0943 C   0  0  0  0  0  0  0  0  0  0  0  0
    2.5964    0.0548   -0.2434 N   0  0  0  0  0  0  0  0  0  0  0  0
    3.2719    1.2179   -0.2710 N   0  0  0  0  0  0  0  0  0  0  0  0
    4.5653    0.8470   -0.2161 C   0  0  0  0  0  0  0  0  0  0  0  0
    5.5866    1.8580    0.0432 C   0  0  0  0  0  0  0  0  0  0  0  0
    5.3382    2.7525    1.0929 C   0  0  0  0  0  0  0  0  0  0  0  0
    6.3300    3.6165    1.5359 C   0  0  0  0  0  0  0  0  0  0  0  0
    7.5550    3.6762    0.8745 C   0  0  0  0  0  0  0  0  0  0  0  0
    8.5419    4.5591    1.3236 C   0  0  0  0  0  0  0  0  0  0  0  0
    9.6574    4.8188    0.5365 C   0  0  0  0  0  0  0  0  0  0  0  0
    9.8405    4.1240   -0.6557 C   0  0  0  0  0  0  0  0  0  0  0  0
    8.9407    3.1196   -1.0301 C   0  0  0  0  0  0  0  0  0  0  0  0
    7.7711    2.8903   -0.2834 C   0  0  0  0  0  0  0  0  0  0  0  0
    6.7945    1.9412   -0.6560 C   0  0  0  0  0  0  0  0  0  0  0  0
    4.7032   -0.5724   -0.2254 C   0  0  0  0  0  0  0  0  0  0  0  0
    5.7141   -1.5355   -0.1470 C   0  0  0  0  0  0  0  0  0  0  0  0
    7.0754   -1.2609   -0.0648 N   0  0  0  0  0  0  0  0  0  0  0  0
    5.3617   -2.8412   -0.1010 N   0  0  0  0  0  0  0  0  0  0  0  0
    4.0619   -3.1604   -0.1224 C   0  0  0  0  0  0  0  0  0  0  0  0
    3.0108   -2.3318   -0.1642 N   0  0  0  0  0  0  0  0  0  0  0  0
    3.4037   -1.0459   -0.2321 C   0  0  0  0  0  0  0  0  0  0  0  0
    0.8058    1.0965   -0.0468 H   0  0  0  0  0  0  0  0  0  0  0  0
    0.9117   -0.4515    0.8361 H   0  0  0  0  0  0  0  0  0  0  0  0
    0.7232   -0.4460   -0.9529 H   0  0  0  0  0  0  0  0  0  0  0  0
    4.3642    2.7703    1.5755 H   0  0  0  0  0  0  0  0  0  0  0  0
    6.1130    4.2772    2.3709 H   0  0  0  0  0  0  0  0  0  0  0  0
    8.4266    5.0774    2.2728 H   0  0  0  0  0  0  0  0  0  0  0  0
   10.3644    5.5845    0.8436 H   0  0  0  0  0  0  0  0  0  0  0  0
   10.6836    4.3693   -1.2964 H   0  0  0  0  0  0  0  0  0  0  0  0
    9.1339    2.5571   -1.9412 H   0  0  0  0  0  0  0  0  0  0  0  0
    6.9812    1.2801   -1.5050 H   0  0  0  0  0  0  0  0  0  0  0  0
    7.3103   -0.4182    0.4460 H   0  0  0  0  0  0  0  0  0  0  0  0
    7.5801   -2.0916    0.2223 H   0  0  0  0  0  0  0  0  0  0  0  0
    3.8273   -4.2220   -0.0639 H   0  0  0  0  0  0  0  0  0  0  0  0
  1  2  1  0  0  0  0
  1 22  1  0  0  0  0
  1 23  1  0  0  0  0
  1 24  1  0  0  0  0
  2  3  1  0  0  0  0
  2 21  1  0  0  0  0
  3  4  2  0  0  0  0
  4  5  1  0  0  0  0
  4 15  1  0  0  0  0
  5  6  1  0  0  0  0
  5 14  2  0  0  0  0
  6  7  2  0  0  0  0
  6 25  1  0  0  0  0
  7  8  1  0  0  0  0
  7 26  1  0  0  0  0
  8  9  1  0  0  0  0
  8 13  2  0  0  0  0
  9 10  2  0  0  0  0
  9 27  1  0  0  0  0
 10 11  1  0  0  0  0
 10 28  1  0  0  0  0
 11 12  2  0  0  0  0
 11 29  1  0  0  0  0
 12 13  1  0  0  0  0
 12 30  1  0  0  0  0
 13 14  1  0  0  0  0
 14 31  1  0  0  0  0
 15 16  1  0  0  0  0
 15 21  2  0  0  0  0
 16 17  1  0  0  0  0
 16 18  2  0  0  0  0
 17 32  1  0  0  0  0
 17 33  1  0  0  0  0
 18 19  1  0  0  0  0
 19 20  2  0  0  0  0
 19 34  1  0  0  0  0
 20 21  1  0  0  0  0
M  END
$$$$
