CHEMBL508643
 OpenBabel04072215383D

 58 62  0  0  0  0  0  0  0  0999 V2000
   10.7378   -0.3784    1.1594 C   0  0  0  0  0  0  0  0  0  0  0  0
   10.0166   -0.3423    2.3969 O   0  0  0  0  0  0  0  0  0  0  0  0
    9.2175   -1.4303    2.6437 C   0  0  0  0  0  0  0  0  0  0  0  0
    9.5599   -2.7030    2.1611 C   0  0  0  0  0  0  0  0  0  0  0  0
    8.7156   -3.7969    2.2652 C   0  0  0  0  0  0  0  0  0  0  0  0
    9.1005   -4.9391    1.6739 N   0  0  0  0  0  0  0  0  0  0  0  0
    8.2724   -5.9993    1.7306 C   0  0  0  0  0  0  0  0  0  0  0  0
    7.0448   -5.9767    2.3545 C   0  0  0  0  0  0  0  0  0  0  0  0
    6.6274   -4.7791    2.9344 C   0  0  0  0  0  0  0  0  0  0  0  0
    5.3794   -4.6728    3.5308 O   0  0  0  0  0  0  0  0  0  0  0  0
    4.2866   -5.2458    2.8961 C   0  0  0  0  0  0  0  0  0  0  0  0
    3.2813   -5.7669    3.7148 C   0  0  0  0  0  0  0  0  0  0  0  0
    2.1271   -6.3647    3.1667 C   0  0  0  0  0  0  0  0  0  0  0  0
    1.9952   -6.4423    1.7633 C   0  0  0  0  0  0  0  0  0  0  0  0
    1.0547   -6.9777    0.8295 C   0  0  0  0  0  0  0  0  0  0  0  0
   -0.1427   -7.5977    1.1254 N   0  0  0  0  0  0  0  0  0  0  0  0
   -1.0121   -8.2032    0.2473 C   0  0  0  0  0  0  0  0  0  0  0  0
   -2.0957   -8.5965    0.6703 O   0  0  0  0  0  0  0  0  0  0  0  0
   -0.5373   -8.3853   -1.0344 N   0  0  0  0  0  0  0  0  0  0  0  0
   -1.1448   -9.0201   -2.1225 C   0  0  0  0  0  0  0  0  0  0  0  0
   -2.5076   -9.3071   -2.1832 C   0  0  0  0  0  0  0  0  0  0  0  0
   -3.0413   -9.9718   -3.2917 C   0  0  0  0  0  0  0  0  0  0  0  0
   -2.2153  -10.3589   -4.3458 C   0  0  0  0  0  0  0  0  0  0  0  0
   -0.8569  -10.0548   -4.3073 C   0  0  0  0  0  0  0  0  0  0  0  0
   -0.3278   -9.3719   -3.2087 C   0  0  0  0  0  0  0  0  0  0  0  0
    1.4786   -6.8147   -0.4288 N   0  0  0  0  0  0  0  0  0  0  0  0
    2.5845   -6.0706   -0.3156 N   0  0  0  0  0  0  0  0  0  0  0  0
    3.2004   -5.5433   -1.5096 C   0  0  0  0  0  0  0  0  0  0  0  0
    3.0002   -5.8834    0.9740 C   0  0  0  0  0  0  0  0  0  0  0  0
    4.1402   -5.2621    1.5035 C   0  0  0  0  0  0  0  0  0  0  0  0
    7.4907   -3.6553    2.9390 C   0  0  0  0  0  0  0  0  0  0  0  0
    7.2048   -2.4111    3.5485 C   0  0  0  0  0  0  0  0  0  0  0  0
    8.0485   -1.2943    3.3999 C   0  0  0  0  0  0  0  0  0  0  0  0
    7.5536   -0.1900    4.0378 O   0  0  0  0  0  0  0  0  0  0  0  0
    8.1463    1.0802    3.8162 C   0  0  0  0  0  0  0  0  0  0  0  0
   10.8031    0.6422    0.7712 H   0  0  0  0  0  0  0  0  0  0  0  0
   10.2472   -0.9796    0.3837 H   0  0  0  0  0  0  0  0  0  0  0  0
   11.7538   -0.7456    1.3365 H   0  0  0  0  0  0  0  0  0  0  0  0
   10.5083   -2.8645    1.6541 H   0  0  0  0  0  0  0  0  0  0  0  0
    8.6309   -6.8926    1.2277 H   0  0  0  0  0  0  0  0  0  0  0  0
    6.4240   -6.8641    2.3602 H   0  0  0  0  0  0  0  0  0  0  0  0
    3.3907   -5.7181    4.7969 H   0  0  0  0  0  0  0  0  0  0  0  0
    1.3655   -6.7752    3.8228 H   0  0  0  0  0  0  0  0  0  0  0  0
   -0.4695   -7.5751    2.0806 H   0  0  0  0  0  0  0  0  0  0  0  0
    0.4184   -8.0538   -1.1598 H   0  0  0  0  0  0  0  0  0  0  0  0
   -3.1785   -9.0045   -1.3852 H   0  0  0  0  0  0  0  0  0  0  0  0
   -4.1052  -10.1892   -3.3245 H   0  0  0  0  0  0  0  0  0  0  0  0
   -2.6319  -10.8960   -5.1938 H   0  0  0  0  0  0  0  0  0  0  0  0
   -0.2092  -10.3569   -5.1262 H   0  0  0  0  0  0  0  0  0  0  0  0
    0.7373   -9.1548   -3.1911 H   0  0  0  0  0  0  0  0  0  0  0  0
    2.6082   -5.8315   -2.3825 H   0  0  0  0  0  0  0  0  0  0  0  0
    4.2091   -5.9540   -1.5880 H   0  0  0  0  0  0  0  0  0  0  0  0
    3.2245   -4.4543   -1.4255 H   0  0  0  0  0  0  0  0  0  0  0  0
    4.8893   -4.8325    0.8471 H   0  0  0  0  0  0  0  0  0  0  0  0
    6.2923   -2.2952    4.1319 H   0  0  0  0  0  0  0  0  0  0  0  0
    7.4564    1.8302    4.2191 H   0  0  0  0  0  0  0  0  0  0  0  0
    8.2634    1.3031    2.7520 H   0  0  0  0  0  0  0  0  0  0  0  0
    9.0895    1.1763    4.3626 H   0  0  0  0  0  0  0  0  0  0  0  0
  1  2  1  0  0  0  0
  1 36  1  0  0  0  0
  1 37  1  0  0  0  0
  1 38  1  0  0  0  0
  2  3  1  0  0  0  0
  3  4  1  0  0  0  0
  3 33  2  0  0  0  0
  4  5  2  0  0  0  0
  4 39  1  0  0  0  0
  5  6  1  0  0  0  0
  5 31  1  0  0  0  0
  6  7  2  0  0  0  0
  7  8  1  0  0  0  0
  7 40  1  0  0  0  0
  8  9  2  0  0  0  0
  8 41  1  0  0  0  0
  9 10  1  0  0  0  0
  9 31  1  0  0  0  0
 10 11  1  0  0  0  0
 11 12  1  0  0  0  0
 11 30  2  0  0  0  0
 12 13  2  0  0  0  0
 12 42  1  0  0  0  0
 13 14  1  0  0  0  0
 13 43  1  0  0  0  0
 14 15  1  0  0  0  0
 14 29  2  0  0  0  0
 15 16  1  0  0  0  0
 15 26  2  0  0  0  0
 16 17  1  0  0  0  0
 16 44  1  0  0  0  0
 17 18  2  0  0  0  0
 17 19  1  0  0  0  0
 19 20  1  0  0  0  0
 19 45  1  0  0  0  0
 20 21  1  0  0  0  0
 20 25  2  0  0  0  0
 21 22  2  0  0  0  0
 21 46  1  0  0  0  0
 22 23  1  0  0  0  0
 22 47  1  0  0  0  0
 23 24  2  0  0  0  0
 23 48  1  0  0  0  0
 24 25  1  0  0  0  0
 24 49  1  0  0  0  0
 25 50  1  0  0  0  0
 26 27  1  0  0  0  0
 27 28  1  0  0  0  0
 27 29  1  0  0  0  0
 28 51  1  0  0  0  0
 28 52  1  0  0  0  0
 28 53  1  0  0  0  0
 29 30  1  0  0  0  0
 30 54  1  0  0  0  0
 31 32  2  0  0  0  0
 32 33  1  0  0  0  0
 32 55  1  0  0  0  0
 33 34  1  0  0  0  0
 34 35  1  0  0  0  0
 35 56  1  0  0  0  0
 35 57  1  0  0  0  0
 35 58  1  0  0  0  0
M  END
$$$$
