CHEMBL2113164
 OpenBabel04072215363D

 61 64  0  0  0  0  0  0  0  0999 V2000
    2.6050    0.9110   -1.0641 C   0  0  0  0  0  0  0  0  0  0  0  0
    2.4095   -0.1532   -0.1355 O   0  0  0  0  0  0  0  0  0  0  0  0
    3.1259   -0.1498    1.0283 C   0  0  0  0  0  0  0  0  0  0  0  0
    4.2462    0.6517    1.2204 C   0  0  0  0  0  0  0  0  0  0  0  0
    4.8825    0.7349    2.4770 C   0  0  0  0  0  0  0  0  0  0  0  0
    5.9828    1.5586    2.7348 C   0  0  0  0  0  0  0  0  0  0  0  0
    6.4391    2.4288    1.7070 N   0  0  0  0  0  0  0  0  0  0  0  0
    7.6970    3.0063    1.7341 C   0  0  0  0  0  0  0  0  0  0  0  0
    8.8368    2.3612    1.9999 C   0  0  0  0  0  0  0  0  0  0  0  0
   10.1445    3.0291    2.0614 C   0  0  0  0  0  0  0  0  0  0  0  0
   11.1525    2.3699    2.2953 O   0  0  0  0  0  0  0  0  0  0  0  0
   10.1889    4.5092    1.8426 C   0  0  0  0  0  0  0  0  0  0  0  0
   11.4301    5.1041    1.9896 O   0  0  0  0  0  0  0  0  0  0  0  0
   11.4814    6.5296    1.8992 C   0  0  0  0  0  0  0  0  0  0  0  0
   12.8839    7.0470    2.1648 C   0  0  0  0  0  0  0  0  0  0  0  0
   12.9142    8.3799    1.8964 F   0  0  0  0  0  0  0  0  0  0  0  0
   13.1858    6.9176    3.4815 F   0  0  0  0  0  0  0  0  0  0  0  0
    9.0500    5.1482    1.5266 C   0  0  0  0  0  0  0  0  0  0  0  0
    7.7562    4.4549    1.4018 C   0  0  0  0  0  0  0  0  0  0  0  0
    6.7501    5.0681    1.0478 O   0  0  0  0  0  0  0  0  0  0  0  0
    6.6083    1.5704    3.9233 N   0  0  0  0  0  0  0  0  0  0  0  0
    6.1019    0.7705    4.8698 C   0  0  0  0  0  0  0  0  0  0  0  0
    5.0373   -0.0314    4.7400 N   0  0  0  0  0  0  0  0  0  0  0  0
    4.4393   -0.0511    3.5445 C   0  0  0  0  0  0  0  0  0  0  0  0
    3.3618   -0.8990    3.3275 C   0  0  0  0  0  0  0  0  0  0  0  0
    2.7253   -0.9889    2.0807 C   0  0  0  0  0  0  0  0  0  0  0  0
    1.7366   -1.9450    2.0355 O   0  0  0  0  0  0  0  0  0  0  0  0
    1.5882   -2.5817    0.7665 C   0  0  0  0  0  0  0  0  0  0  0  0
    1.1523   -4.0344    0.9317 C   0  0  0  0  0  0  0  0  0  0  0  0
    1.0120   -4.6486   -0.4682 C   0  0  0  0  0  0  0  0  0  0  0  0
    0.6941   -6.0820   -0.5035 N   0  0  0  0  0  0  0  0  0  0  0  0
    0.6559   -6.5604   -1.9001 C   0  0  0  0  0  0  0  0  0  0  0  0
   -0.7897   -6.4125   -2.3311 C   0  0  0  0  0  0  0  0  0  0  0  0
   -1.5470   -6.7971   -1.0793 C   0  0  0  0  0  0  0  0  0  0  0  0
   -0.6269   -6.3973    0.0687 C   0  0  0  0  0  0  0  0  0  0  0  0
    3.2640    0.5722   -1.8694 H   0  0  0  0  0  0  0  0  0  0  0  0
    2.9908    1.8353   -0.6230 H   0  0  0  0  0  0  0  0  0  0  0  0
    1.6317    1.1607   -1.4953 H   0  0  0  0  0  0  0  0  0  0  0  0
    4.6719    1.2087    0.3917 H   0  0  0  0  0  0  0  0  0  0  0  0
    5.7159    3.1247    1.4956 H   0  0  0  0  0  0  0  0  0  0  0  0
    8.8428    1.2978    2.2103 H   0  0  0  0  0  0  0  0  0  0  0  0
   10.8003    6.9745    2.6341 H   0  0  0  0  0  0  0  0  0  0  0  0
   11.1833    6.8369    0.8905 H   0  0  0  0  0  0  0  0  0  0  0  0
   13.6498    6.5417    1.5711 H   0  0  0  0  0  0  0  0  0  0  0  0
    8.9938    6.2120    1.3352 H   0  0  0  0  0  0  0  0  0  0  0  0
    6.6049    0.7709    5.8284 H   0  0  0  0  0  0  0  0  0  0  0  0
    3.0207   -1.5314    4.1442 H   0  0  0  0  0  0  0  0  0  0  0  0
    2.5326   -2.5875    0.2079 H   0  0  0  0  0  0  0  0  0  0  0  0
    0.8215   -2.0404    0.2002 H   0  0  0  0  0  0  0  0  0  0  0  0
    0.2143   -4.0718    1.4986 H   0  0  0  0  0  0  0  0  0  0  0  0
    1.8940   -4.5836    1.5289 H   0  0  0  0  0  0  0  0  0  0  0  0
    1.9789   -4.5142   -0.9735 H   0  0  0  0  0  0  0  0  0  0  0  0
    0.2751   -4.0708   -1.0408 H   0  0  0  0  0  0  0  0  0  0  0  0
    0.9454   -7.6180   -1.9184 H   0  0  0  0  0  0  0  0  0  0  0  0
    1.3424   -6.0289   -2.5693 H   0  0  0  0  0  0  0  0  0  0  0  0
   -1.0436   -7.0507   -3.1822 H   0  0  0  0  0  0  0  0  0  0  0  0
   -1.0119   -5.3741   -2.6049 H   0  0  0  0  0  0  0  0  0  0  0  0
   -1.7169   -7.8800   -1.0629 H   0  0  0  0  0  0  0  0  0  0  0  0
   -2.5192   -6.2980   -1.0239 H   0  0  0  0  0  0  0  0  0  0  0  0
   -0.5239   -7.2323    0.7709 H   0  0  0  0  0  0  0  0  0  0  0  0
   -1.0708   -5.5679    0.6274 H   0  0  0  0  0  0  0  0  0  0  0  0
  1  2  1  0  0  0  0
  1 36  1  0  0  0  0
  1 37  1  0  0  0  0
  1 38  1  0  0  0  0
  2  3  1  0  0  0  0
  3  4  1  0  0  0  0
  3 26  2  0  0  0  0
  4  5  2  0  0  0  0
  4 39  1  0  0  0  0
  5  6  1  0  0  0  0
  5 24  1  0  0  0  0
  6  7  1  0  0  0  0
  6 21  2  0  0  0  0
  7  8  1  0  0  0  0
  7 40  1  0  0  0  0
  8  9  2  0  0  0  0
  8 19  1  0  0  0  0
  9 10  1  0  0  0  0
  9 41  1  0  0  0  0
 10 11  2  0  0  0  0
 10 12  1  0  0  0  0
 12 13  1  0  0  0  0
 12 18  2  0  0  0  0
 13 14  1  0  0  0  0
 14 15  1  0  0  0  0
 14 42  1  0  0  0  0
 14 43  1  0  0  0  0
 15 16  1  0  0  0  0
 15 17  1  0  0  0  0
 15 44  1  0  0  0  0
 18 19  1  0  0  0  0
 18 45  1  0  0  0  0
 19 20  2  0  0  0  0
 21 22  1  0  0  0  0
 22 23  2  0  0  0  0
 22 46  1  0  0  0  0
 23 24  1  0  0  0  0
 24 25  2  0  0  0  0
 25 26  1  0  0  0  0
 25 47  1  0  0  0  0
 26 27  1  0  0  0  0
 27 28  1  0  0  0  0
 28 29  1  0  0  0  0
 28 48  1  0  0  0  0
 28 49  1  0  0  0  0
 29 30  1  0  0  0  0
 29 50  1  0  0  0  0
 29 51  1  0  0  0  0
 30 31  1  0  0  0  0
 30 52  1  0  0  0  0
 30 53  1  0  0  0  0
 31 32  1  0  0  0  0
 31 35  1  0  0  0  0
 32 33  1  0  0  0  0
 32 54  1  0  0  0  0
 32 55  1  0  0  0  0
 33 34  1  0  0  0  0
 33 56  1  0  0  0  0
 33 57  1  0  0  0  0
 34 35  1  0  0  0  0
 34 58  1  0  0  0  0
 34 59  1  0  0  0  0
 35 60  1  0  0  0  0
 35 61  1  0  0  0  0
M  END
$$$$
