CHEMBL380905
 OpenBabel04072215373D

 36 39  0  0  0  0  0  0  0  0999 V2000
    1.2653   -0.0655    0.1928 C   0  0  0  0  0  0  0  0  0  0  0  0
    2.7314   -0.1742    0.0039 C   0  0  0  0  0  0  0  0  0  0  0  0
    3.5481   -1.2794   -0.1216 C   0  0  0  0  0  0  0  0  0  0  0  0
    4.8366   -0.8242   -0.5159 C   0  0  0  0  0  0  0  0  0  0  0  0
    6.0231   -1.4611   -0.9208 C   0  0  0  0  0  0  0  0  0  0  0  0
    6.0970   -2.8012   -0.9482 F   0  0  0  0  0  0  0  0  0  0  0  0
    7.1015   -0.6893   -1.3654 C   0  0  0  0  0  0  0  0  0  0  0  0
    8.1952   -1.4104   -1.9079 O   0  0  0  0  0  0  0  0  0  0  0  0
    9.5040   -0.9509   -1.9077 C   0  0  0  0  0  0  0  0  0  0  0  0
    9.9138    0.1110   -1.3034 N   0  0  0  0  0  0  0  0  0  0  0  0
   11.2408    0.4279   -1.4355 C   0  0  0  0  0  0  0  0  0  0  0  0
   12.1372   -0.2275   -2.1060 N   0  0  0  0  0  0  0  0  0  0  0  0
   11.6756   -1.3371   -2.7103 N   0  0  0  0  0  0  0  0  0  0  0  0
   12.4202   -2.1974   -3.4695 C   0  0  0  0  0  0  0  0  0  0  0  0
   11.5771   -3.1919   -3.8900 C   0  0  0  0  0  0  0  0  0  0  0  0
   11.9557   -4.2251   -4.6554 O   0  0  0  0  0  0  0  0  0  0  0  0
   10.2751   -2.9468   -3.3870 C   0  0  0  0  0  0  0  0  0  0  0  0
    9.0680   -3.7855   -3.6042 C   0  0  0  0  0  0  0  0  0  0  0  0
   10.3839   -1.7716   -2.6589 C   0  0  0  0  0  0  0  0  0  0  0  0
    7.0252    0.7028   -1.3827 C   0  0  0  0  0  0  0  0  0  0  0  0
    5.8771    1.3601   -0.9254 C   0  0  0  0  0  0  0  0  0  0  0  0
    4.7919    0.5708   -0.5266 C   0  0  0  0  0  0  0  0  0  0  0  0
    3.5261    0.9380   -0.1296 N   0  0  0  0  0  0  0  0  0  0  0  0
    0.8011   -1.0558    0.2347 H   0  0  0  0  0  0  0  0  0  0  0  0
    0.8213    0.4733   -0.6521 H   0  0  0  0  0  0  0  0  0  0  0  0
    1.0227    0.4725    1.1132 H   0  0  0  0  0  0  0  0  0  0  0  0
    3.2348   -2.3130   -0.0443 H   0  0  0  0  0  0  0  0  0  0  0  0
   11.5614    1.3478   -0.9178 H   0  0  0  0  0  0  0  0  0  0  0  0
   13.4709   -2.0126   -3.6268 H   0  0  0  0  0  0  0  0  0  0  0  0
   12.9049   -4.1618   -4.8591 H   0  0  0  0  0  0  0  0  0  0  0  0
    9.2955   -4.6656   -4.2156 H   0  0  0  0  0  0  0  0  0  0  0  0
    8.2892   -3.2145   -4.1194 H   0  0  0  0  0  0  0  0  0  0  0  0
    8.6692   -4.1390   -2.6482 H   0  0  0  0  0  0  0  0  0  0  0  0
    7.8386    1.3075   -1.7713 H   0  0  0  0  0  0  0  0  0  0  0  0
    5.8184    2.4442   -0.9351 H   0  0  0  0  0  0  0  0  0  0  0  0
    3.2052    1.8940   -0.0591 H   0  0  0  0  0  0  0  0  0  0  0  0
  1  2  1  0  0  0  0
  1 24  1  0  0  0  0
  1 25  1  0  0  0  0
  1 26  1  0  0  0  0
  2  3  2  0  0  0  0
  2 23  1  0  0  0  0
  3  4  1  0  0  0  0
  3 27  1  0  0  0  0
  4  5  1  0  0  0  0
  4 22  2  0  0  0  0
  5  6  1  0  0  0  0
  5  7  2  0  0  0  0
  7  8  1  0  0  0  0
  7 20  1  0  0  0  0
  8  9  1  0  0  0  0
  9 10  2  0  0  0  0
  9 19  1  0  0  0  0
 10 11  1  0  0  0  0
 11 12  2  0  0  0  0
 11 28  1  0  0  0  0
 12 13  1  0  0  0  0
 13 14  1  0  0  0  0
 13 19  1  0  0  0  0
 14 15  2  0  0  0  0
 14 29  1  0  0  0  0
 15 16  1  0  0  0  0
 15 17  1  0  0  0  0
 16 30  1  0  0  0  0
 17 18  1  0  0  0  0
 17 19  2  0  0  0  0
 18 31  1  0  0  0  0
 18 32  1  0  0  0  0
 18 33  1  0  0  0  0
 20 21  2  0  0  0  0
 20 34  1  0  0  0  0
 21 22  1  0  0  0  0
 21 35  1  0  0  0  0
 22 23  1  0  0  0  0
 23 36  1  0  0  0  0
M  END
$$$$
