CHEMBL4635626
 OpenBabel04072215383D

103108  0  0  0  0  0  0  0  0999 V2000
    3.6532    2.8119    7.7468 C   0  0  0  0  0  0  0  0  0  0  0  0
    4.3808    1.7153    6.9892 C   0  0  0  0  0  0  0  0  0  0  0  0
    3.9314    0.3820    7.4157 N   0  0  0  0  0  0  0  0  0  0  0  0
    4.6666   -0.9440    6.5992 S   0  0  0  0  0  0  0  0  0  0  0  0
    5.9998   -0.5162    6.2273 O   0  0  0  0  0  0  0  0  0  0  0  0
    4.4285   -2.1033    7.4223 O   0  0  0  0  0  0  0  0  0  0  0  0
    3.6380   -1.1209    5.1595 C   0  0  0  0  0  0  0  0  0  0  0  0
    2.2754   -1.3896    5.4256 C   0  0  0  0  0  0  0  0  0  0  0  0
    1.3479   -1.5095    4.3930 C   0  0  0  0  0  0  0  0  0  0  0  0
    1.7599   -1.3192    3.0856 C   0  0  0  0  0  0  0  0  0  0  0  0
    3.1038   -1.0683    2.8196 C   0  0  0  0  0  0  0  0  0  0  0  0
    4.0919   -1.0613    3.8338 C   0  0  0  0  0  0  0  0  0  0  0  0
    5.4654   -0.9574    3.4293 N   0  0  0  0  0  0  0  0  0  0  0  0
    5.9270   -1.6661    2.2637 C   0  0  0  0  0  0  0  0  0  0  0  0
    5.2136   -2.7423    1.8827 N   0  0  0  0  0  0  0  0  0  0  0  0
    5.4538   -3.2898    0.6916 C   0  0  0  0  0  0  0  0  0  0  0  0
    4.5401   -4.2642    0.3181 N   0  0  0  0  0  0  0  0  0  0  0  0
    3.9724   -4.5184   -0.9366 C   0  0  0  0  0  0  0  0  0  0  0  0
    3.9311   -3.6041   -1.9890 C   0  0  0  0  0  0  0  0  0  0  0  0
    3.3875   -3.9800   -3.2287 C   0  0  0  0  0  0  0  0  0  0  0  0
    2.9026   -5.2804   -3.4647 C   0  0  0  0  0  0  0  0  0  0  0  0
    2.5470   -5.6062   -4.7916 N   0  0  0  0  0  0  0  0  0  0  0  0
    2.8197   -6.9684   -5.2364 C   0  0  0  0  0  0  0  0  0  0  0  0
    2.9884   -6.9211   -6.7483 C   0  0  0  0  0  0  0  0  0  0  0  0
    1.7155   -6.4354   -7.4827 C   0  0  0  0  0  0  0  0  0  0  0  0
    0.6229   -7.4364   -7.6625 N   0  0  0  0  0  0  0  0  0  0  0  0
    1.0723   -8.8239   -7.9330 C   0  0  0  0  0  0  0  0  0  0  0  0
    1.7554   -9.0299   -9.3064 C   0  0  0  0  0  0  0  0  0  0  0  0
    0.8647   -8.6874  -10.4262 N   0  0  0  0  0  0  0  0  0  0  0  0
    1.5836   -8.7626  -11.7003 C   0  0  0  0  0  0  0  0  0  0  0  0
    0.2705   -7.3516  -10.2345 C   0  0  0  0  0  0  0  0  0  0  0  0
   -0.2770   -7.0773   -8.8002 C   0  0  0  0  0  0  0  0  0  0  0  0
    1.2040   -5.1333   -6.7855 C   0  0  0  0  0  0  0  0  0  0  0  0
    1.2318   -5.1341   -5.2439 C   0  0  0  0  0  0  0  0  0  0  0  0
    2.8887   -6.1812   -2.3727 C   0  0  0  0  0  0  0  0  0  0  0  0
    2.4061   -7.4471   -2.5748 O   0  0  0  0  0  0  0  0  0  0  0  0
    2.0437   -8.1928   -1.4199 C   0  0  0  0  0  0  0  0  0  0  0  0
    3.4161   -5.7790   -1.1340 C   0  0  0  0  0  0  0  0  0  0  0  0
    6.4705   -2.9353   -0.0991 N   0  0  0  0  0  0  0  0  0  0  0  0
    7.2762   -1.9643    0.3654 C   0  0  0  0  0  0  0  0  0  0  0  0
    7.0582   -1.2743    1.5424 C   0  0  0  0  0  0  0  0  0  0  0  0
    7.8899   -0.1660    1.8438 N   0  0  0  0  0  0  0  0  0  0  0  0
    7.3182    1.0934    1.9287 C   0  0  0  0  0  0  0  0  0  0  0  0
    6.1041    1.2466    1.8133 O   0  0  0  0  0  0  0  0  0  0  0  0
    8.2109    2.2696    2.1223 C   0  0  0  0  0  0  0  0  0  0  0  0
    9.5112    2.2622    1.5866 C   0  0  0  0  0  0  0  0  0  0  0  0
   10.3077    3.4070    1.6408 C   0  0  0  0  0  0  0  0  0  0  0  0
    9.8202    4.5754    2.2235 C   0  0  0  0  0  0  0  0  0  0  0  0
    8.5325    4.6060    2.7621 C   0  0  0  0  0  0  0  0  0  0  0  0
    7.9552    5.7117    3.3353 O   0  0  0  0  0  0  0  0  0  0  0  0
    8.6352    6.9516    3.2223 C   0  0  0  0  0  0  0  0  0  0  0  0
    7.7289    3.4461    2.7315 C   0  0  0  0  0  0  0  0  0  0  0  0
    6.4487    3.6255    3.1967 O   0  0  0  0  0  0  0  0  0  0  0  0
    5.9889    2.6933    4.1629 C   0  0  0  0  0  0  0  0  0  0  0  0
    4.0713    3.7895    7.4786 H   0  0  0  0  0  0  0  0  0  0  0  0
    3.7459    2.6880    8.8302 H   0  0  0  0  0  0  0  0  0  0  0  0
    2.5885    2.8236    7.4942 H   0  0  0  0  0  0  0  0  0  0  0  0
    5.4545    1.8142    7.1790 H   0  0  0  0  0  0  0  0  0  0  0  0
    4.1711    1.8307    5.9253 H   0  0  0  0  0  0  0  0  0  0  0  0
    2.9147    0.2865    7.4221 H   0  0  0  0  0  0  0  0  0  0  0  0
    1.9332   -1.5410    6.4481 H   0  0  0  0  0  0  0  0  0  0  0  0
    0.3102   -1.7486    4.6074 H   0  0  0  0  0  0  0  0  0  0  0  0
    1.0555   -1.3978    2.2618 H   0  0  0  0  0  0  0  0  0  0  0  0
    3.3952   -0.9383    1.7775 H   0  0  0  0  0  0  0  0  0  0  0  0
    5.6142    0.0255    3.1776 H   0  0  0  0  0  0  0  0  0  0  0  0
    3.8825   -4.3626    1.0857 H   0  0  0  0  0  0  0  0  0  0  0  0
    4.3280   -2.5997   -1.8682 H   0  0  0  0  0  0  0  0  0  0  0  0
    3.4031   -3.2585   -4.0429 H   0  0  0  0  0  0  0  0  0  0  0  0
    2.0063   -7.6526   -4.9655 H   0  0  0  0  0  0  0  0  0  0  0  0
    3.7552   -7.3442   -4.8038 H   0  0  0  0  0  0  0  0  0  0  0  0
    3.3410   -7.8901   -7.1107 H   0  0  0  0  0  0  0  0  0  0  0  0
    3.8013   -6.2202   -6.9846 H   0  0  0  0  0  0  0  0  0  0  0  0
    2.0577   -6.1464   -8.4847 H   0  0  0  0  0  0  0  0  0  0  0  0
    0.1913   -9.4800   -7.8866 H   0  0  0  0  0  0  0  0  0  0  0  0
    1.7162   -9.1963   -7.1300 H   0  0  0  0  0  0  0  0  0  0  0  0
    2.0366  -10.0873   -9.3909 H   0  0  0  0  0  0  0  0  0  0  0  0
    2.6817   -8.4449   -9.3556 H   0  0  0  0  0  0  0  0  0  0  0  0
    2.0346   -9.7524  -11.8368 H   0  0  0  0  0  0  0  0  0  0  0  0
    2.3842   -8.0162  -11.7676 H   0  0  0  0  0  0  0  0  0  0  0  0
    0.8999   -8.6086  -12.5421 H   0  0  0  0  0  0  0  0  0  0  0  0
   -0.5650   -7.2449  -10.9391 H   0  0  0  0  0  0  0  0  0  0  0  0
    0.9995   -6.5714  -10.4855 H   0  0  0  0  0  0  0  0  0  0  0  0
   -1.2040   -7.6536   -8.6771 H   0  0  0  0  0  0  0  0  0  0  0  0
   -0.5848   -6.0279   -8.7433 H   0  0  0  0  0  0  0  0  0  0  0  0
    0.1929   -4.8694   -7.1143 H   0  0  0  0  0  0  0  0  0  0  0  0
    1.8464   -4.3108   -7.1293 H   0  0  0  0  0  0  0  0  0  0  0  0
    0.4352   -5.7743   -4.8440 H   0  0  0  0  0  0  0  0  0  0  0  0
    1.0349   -4.1142   -4.8933 H   0  0  0  0  0  0  0  0  0  0  0  0
    1.6201   -9.1425   -1.7536 H   0  0  0  0  0  0  0  0  0  0  0  0
    1.2795   -7.6612   -0.8421 H   0  0  0  0  0  0  0  0  0  0  0  0
    2.9146   -8.4324   -0.7988 H   0  0  0  0  0  0  0  0  0  0  0  0
    3.4683   -6.4691   -0.3005 H   0  0  0  0  0  0  0  0  0  0  0  0
    8.0685   -1.6840   -0.3213 H   0  0  0  0  0  0  0  0  0  0  0  0
    8.8484   -0.2272    1.5316 H   0  0  0  0  0  0  0  0  0  0  0  0
    9.9173    1.4019    1.0652 H   0  0  0  0  0  0  0  0  0  0  0  0
   11.3013    3.4002    1.1964 H   0  0  0  0  0  0  0  0  0  0  0  0
   10.4603    5.4516    2.2247 H   0  0  0  0  0  0  0  0  0  0  0  0
    7.9478    7.7370    3.5514 H   0  0  0  0  0  0  0  0  0  0  0  0
    8.9134    7.1728    2.1867 H   0  0  0  0  0  0  0  0  0  0  0  0
    9.5086    6.9693    3.8811 H   0  0  0  0  0  0  0  0  0  0  0  0
    5.6058    3.2633    5.0114 H   0  0  0  0  0  0  0  0  0  0  0  0
    6.7479    1.9931    4.5285 H   0  0  0  0  0  0  0  0  0  0  0  0
    5.1380    2.1445    3.7468 H   0  0  0  0  0  0  0  0  0  0  0  0
  1  2  1  0  0  0  0
  1 55  1  0  0  0  0
  1 56  1  0  0  0  0
  1 57  1  0  0  0  0
  2  3  1  0  0  0  0
  2 58  1  0  0  0  0
  2 59  1  0  0  0  0
  3  4  1  0  0  0  0
  3 60  1  0  0  0  0
  4  5  2  0  0  0  0
  4  6  2  0  0  0  0
  4  7  1  0  0  0  0
  7  8  1  0  0  0  0
  7 12  2  0  0  0  0
  8  9  2  0  0  0  0
  8 61  1  0  0  0  0
  9 10  1  0  0  0  0
  9 62  1  0  0  0  0
 10 11  2  0  0  0  0
 10 63  1  0  0  0  0
 11 12  1  0  0  0  0
 11 64  1  0  0  0  0
 12 13  1  0  0  0  0
 13 14  1  0  0  0  0
 13 65  1  0  0  0  0
 14 15  1  0  0  0  0
 14 41  2  0  0  0  0
 15 16  2  0  0  0  0
 16 17  1  0  0  0  0
 16 39  1  0  0  0  0
 17 18  1  0  0  0  0
 17 66  1  0  0  0  0
 18 19  1  0  0  0  0
 18 38  2  0  0  0  0
 19 20  2  0  0  0  0
 19 67  1  0  0  0  0
 20 21  1  0  0  0  0
 20 68  1  0  0  0  0
 21 22  1  0  0  0  0
 21 35  2  0  0  0  0
 22 23  1  0  0  0  0
 22 34  1  0  0  0  0
 23 24  1  0  0  0  0
 23 69  1  0  0  0  0
 23 70  1  0  0  0  0
 24 25  1  0  0  0  0
 24 71  1  0  0  0  0
 24 72  1  0  0  0  0
 25 26  1  0  0  0  0
 25 33  1  0  0  0  0
 25 73  1  0  0  0  0
 26 27  1  0  0  0  0
 26 32  1  0  0  0  0
 27 28  1  0  0  0  0
 27 74  1  0  0  0  0
 27 75  1  0  0  0  0
 28 29  1  0  0  0  0
 28 76  1  0  0  0  0
 28 77  1  0  0  0  0
 29 30  1  0  0  0  0
 29 31  1  0  0  0  0
 30 78  1  0  0  0  0
 30 79  1  0  0  0  0
 30 80  1  0  0  0  0
 31 32  1  0  0  0  0
 31 81  1  0  0  0  0
 31 82  1  0  0  0  0
 32 83  1  0  0  0  0
 32 84  1  0  0  0  0
 33 34  1  0  0  0  0
 33 85  1  0  0  0  0
 33 86  1  0  0  0  0
 34 87  1  0  0  0  0
 34 88  1  0  0  0  0
 35 36  1  0  0  0  0
 35 38  1  0  0  0  0
 36 37  1  0  0  0  0
 37 89  1  0  0  0  0
 37 90  1  0  0  0  0
 37 91  1  0  0  0  0
 38 92  1  0  0  0  0
 39 40  2  0  0  0  0
 40 41  1  0  0  0  0
 40 93  1  0  0  0  0
 41 42  1  0  0  0  0
 42 43  1  0  0  0  0
 42 94  1  0  0  0  0
 43 44  2  0  0  0  0
 43 45  1  0  0  0  0
 45 46  1  0  0  0  0
 45 52  2  0  0  0  0
 46 47  2  0  0  0  0
 46 95  1  0  0  0  0
 47 48  1  0  0  0  0
 47 96  1  0  0  0  0
 48 49  2  0  0  0  0
 48 97  1  0  0  0  0
 49 50  1  0  0  0  0
 49 52  1  0  0  0  0
 50 51  1  0  0  0  0
 51 98  1  0  0  0  0
 51 99  1  0  0  0  0
 51100  1  0  0  0  0
 52 53  1  0  0  0  0
 53 54  1  0  0  0  0
 54101  1  0  0  0  0
 54102  1  0  0  0  0
 54103  1  0  0  0  0
M  END
$$$$
