CHEMBL3644545
 OpenBabel04072215373D

 53 56  0  0  0  0  0  0  0  0999 V2000
   -0.2756   -1.0742   -1.3275 C   0  0  0  0  0  0  0  0  0  0  0  0
    0.9925   -0.3363   -0.8959 C   0  0  0  0  0  0  0  0  0  0  0  0
    1.6162   -0.9813    0.3424 C   0  0  0  0  0  0  0  0  0  0  0  0
    1.9969   -0.2059   -2.0293 C   0  0  0  0  0  0  0  0  0  0  0  0
    2.3446    1.0794   -2.4651 C   0  0  0  0  0  0  0  0  0  0  0  0
    3.2640    1.2512   -3.4918 C   0  0  0  0  0  0  0  0  0  0  0  0
    3.8627    0.1424   -4.0890 C   0  0  0  0  0  0  0  0  0  0  0  0
    3.5625   -1.1562   -3.6665 C   0  0  0  0  0  0  0  0  0  0  0  0
    4.1955   -2.3134   -4.2006 N   0  0  0  0  0  0  0  0  0  0  0  0
    5.2320   -2.3125   -5.1238 C   0  0  0  0  0  0  0  0  0  0  0  0
    5.7328   -1.3289   -5.6581 O   0  0  0  0  0  0  0  0  0  0  0  0
    5.8346   -3.6177   -5.4806 C   0  0  0  0  0  0  0  0  0  0  0  0
    7.1873   -3.6272   -5.8002 C   0  0  0  0  0  0  0  0  0  0  0  0
    7.8598   -4.7276   -6.1969 N   0  0  0  0  0  0  0  0  0  0  0  0
    7.1253   -5.8564   -6.3323 C   0  0  0  0  0  0  0  0  0  0  0  0
    5.7511   -5.9781   -6.0732 C   0  0  0  0  0  0  0  0  0  0  0  0
    5.0697   -7.1547   -6.3455 N   0  0  0  0  0  0  0  0  0  0  0  0
    3.6477   -7.1512   -6.6951 C   0  0  0  0  0  0  0  0  0  0  0  0
    3.4285   -8.1125   -7.8622 C   0  0  0  0  0  0  0  0  0  0  0  0
    4.0438   -9.4567   -7.5915 C   0  0  0  0  0  0  0  0  0  0  0  0
    3.5621  -10.4962   -8.3092 N   0  0  0  0  0  0  0  0  0  0  0  0
    4.1137  -11.6924   -8.0943 C   0  0  0  0  0  0  0  0  0  0  0  0
    3.6337  -12.7545   -8.8314 N   0  0  0  0  0  0  0  0  0  0  0  0
    5.1226  -11.9249   -7.2519 N   0  0  0  0  0  0  0  0  0  0  0  0
    5.5823  -10.8647   -6.5588 C   0  0  0  0  0  0  0  0  0  0  0  0
    5.0846   -9.5854   -6.6896 C   0  0  0  0  0  0  0  0  0  0  0  0
    5.6077   -8.4406   -5.8728 C   0  0  0  0  0  0  0  0  0  0  0  0
    5.1158   -4.8119   -5.6136 C   0  0  0  0  0  0  0  0  0  0  0  0
    2.6102   -1.3201   -2.6439 C   0  0  0  0  0  0  0  0  0  0  0  0
   -1.0049   -1.0924   -0.5113 H   0  0  0  0  0  0  0  0  0  0  0  0
   -0.0685   -2.1102   -1.6159 H   0  0  0  0  0  0  0  0  0  0  0  0
   -0.7443   -0.5749   -2.1828 H   0  0  0  0  0  0  0  0  0  0  0  0
    0.6781    0.6732   -0.5966 H   0  0  0  0  0  0  0  0  0  0  0  0
    1.8827   -2.0288    0.1674 H   0  0  0  0  0  0  0  0  0  0  0  0
    0.9153   -0.9496    1.1841 H   0  0  0  0  0  0  0  0  0  0  0  0
    2.5245   -0.4488    0.6460 H   0  0  0  0  0  0  0  0  0  0  0  0
    1.9046    1.9617   -2.0049 H   0  0  0  0  0  0  0  0  0  0  0  0
    3.5295    2.2503   -3.8276 H   0  0  0  0  0  0  0  0  0  0  0  0
    4.5727    0.3418   -4.8834 H   0  0  0  0  0  0  0  0  0  0  0  0
    3.9294   -3.1932   -3.7786 H   0  0  0  0  0  0  0  0  0  0  0  0
    7.7849   -2.7193   -5.7552 H   0  0  0  0  0  0  0  0  0  0  0  0
    7.6939   -6.6886   -6.7398 H   0  0  0  0  0  0  0  0  0  0  0  0
    3.2990   -6.1627   -7.0155 H   0  0  0  0  0  0  0  0  0  0  0  0
    3.0531   -7.4480   -5.8223 H   0  0  0  0  0  0  0  0  0  0  0  0
    3.8930   -7.7056   -8.7681 H   0  0  0  0  0  0  0  0  0  0  0  0
    2.3550   -8.2207   -8.0529 H   0  0  0  0  0  0  0  0  0  0  0  0
    3.2239  -12.4086   -9.6878 H   0  0  0  0  0  0  0  0  0  0  0  0
    4.3507  -13.4609   -8.9136 H   0  0  0  0  0  0  0  0  0  0  0  0
    6.3942  -11.0919   -5.8732 H   0  0  0  0  0  0  0  0  0  0  0  0
    6.7024   -8.4644   -5.9094 H   0  0  0  0  0  0  0  0  0  0  0  0
    5.3054   -8.5859   -4.8280 H   0  0  0  0  0  0  0  0  0  0  0  0
    4.0537   -4.8212   -5.3958 H   0  0  0  0  0  0  0  0  0  0  0  0
    2.3463   -2.3184   -2.3055 H   0  0  0  0  0  0  0  0  0  0  0  0
  1  2  1  0  0  0  0
  1 30  1  0  0  0  0
  1 31  1  0  0  0  0
  1 32  1  0  0  0  0
  2  3  1  0  0  0  0
  2  4  1  0  0  0  0
  2 33  1  0  0  0  0
  3 34  1  0  0  0  0
  3 35  1  0  0  0  0
  3 36  1  0  0  0  0
  4  5  1  0  0  0  0
  4 29  2  0  0  0  0
  5  6  2  0  0  0  0
  5 37  1  0  0  0  0
  6  7  1  0  0  0  0
  6 38  1  0  0  0  0
  7  8  2  0  0  0  0
  7 39  1  0  0  0  0
  8  9  1  0  0  0  0
  8 29  1  0  0  0  0
  9 10  1  0  0  0  0
  9 40  1  0  0  0  0
 10 11  2  0  0  0  0
 10 12  1  0  0  0  0
 12 13  1  0  0  0  0
 12 28  2  0  0  0  0
 13 14  2  0  0  0  0
 13 41  1  0  0  0  0
 14 15  1  0  0  0  0
 15 16  2  0  0  0  0
 15 42  1  0  0  0  0
 16 17  1  0  0  0  0
 16 28  1  0  0  0  0
 17 18  1  0  0  0  0
 17 27  1  0  0  0  0
 18 19  1  0  0  0  0
 18 43  1  0  0  0  0
 18 44  1  0  0  0  0
 19 20  1  0  0  0  0
 19 45  1  0  0  0  0
 19 46  1  0  0  0  0
 20 21  1  0  0  0  0
 20 26  2  0  0  0  0
 21 22  2  0  0  0  0
 22 23  1  0  0  0  0
 22 24  1  0  0  0  0
 23 47  1  0  0  0  0
 23 48  1  0  0  0  0
 24 25  2  0  0  0  0
 25 26  1  0  0  0  0
 25 49  1  0  0  0  0
 26 27  1  0  0  0  0
 27 50  1  0  0  0  0
 27 51  1  0  0  0  0
 28 52  1  0  0  0  0
 29 53  1  0  0  0  0
M  END
$$$$
