CHEMBL197592
 OpenBabel04072215363D

 44 47  0  0  0  0  0  0  0  0999 V2000
    5.4669    1.5800   -1.6960 C   0  0  0  0  0  0  0  0  0  0  0  0
    4.4852    0.7660   -0.9096 C   0  0  0  0  0  0  0  0  0  0  0  0
    4.8046   -0.9143   -0.7925 S   0  0  0  0  0  0  0  0  0  0  0  0
    3.4614   -1.1812    0.1986 C   0  0  0  0  0  0  0  0  0  0  0  0
    3.2429   -2.4219    0.6603 N   0  0  0  0  0  0  0  0  0  0  0  0
    2.1580   -2.5002    1.4227 C   0  0  0  0  0  0  0  0  0  0  0  0
    1.3103   -1.5109    1.7162 N   0  0  0  0  0  0  0  0  0  0  0  0
    1.5482   -0.2813    1.2202 C   0  0  0  0  0  0  0  0  0  0  0  0
    0.5838    0.6577    1.5636 N   0  0  0  0  0  0  0  0  0  0  0  0
    2.7002   -0.0476    0.4239 C   0  0  0  0  0  0  0  0  0  0  0  0
    3.3186    1.1229   -0.2347 C   0  0  0  0  0  0  0  0  0  0  0  0
    2.8665    2.5297   -0.1541 C   0  0  0  0  0  0  0  0  0  0  0  0
    2.3406    3.0203    1.0394 C   0  0  0  0  0  0  0  0  0  0  0  0
    1.7950    4.3032    1.1214 C   0  0  0  0  0  0  0  0  0  0  0  0
    1.8722    5.1942    0.0521 C   0  0  0  0  0  0  0  0  0  0  0  0
    1.3507    6.5083    0.0947 N   0  0  0  0  0  0  0  0  0  0  0  0
    0.7061    7.0721    1.1773 C   0  0  0  0  0  0  0  0  0  0  0  0
    0.5605    6.5305    2.2678 O   0  0  0  0  0  0  0  0  0  0  0  0
    0.1706    8.3229    0.8842 N   0  0  0  0  0  0  0  0  0  0  0  0
   -0.5845    8.9803    1.8872 C   0  0  0  0  0  0  0  0  0  0  0  0
   -0.1093    9.0737    3.2013 C   0  0  0  0  0  0  0  0  0  0  0  0
   -0.9341    9.5496    4.2177 C   0  0  0  0  0  0  0  0  0  0  0  0
   -2.2363    9.9418    3.9203 C   0  0  0  0  0  0  0  0  0  0  0  0
   -2.6955    9.9010    2.6022 C   0  0  0  0  0  0  0  0  0  0  0  0
   -1.8620    9.4456    1.5774 C   0  0  0  0  0  0  0  0  0  0  0  0
    2.4817    4.7526   -1.1214 C   0  0  0  0  0  0  0  0  0  0  0  0
    2.9358    3.4249   -1.2337 C   0  0  0  0  0  0  0  0  0  0  0  0
    6.3839    1.0249   -1.9164 H   0  0  0  0  0  0  0  0  0  0  0  0
    5.7536    2.4787   -1.1451 H   0  0  0  0  0  0  0  0  0  0  0  0
    5.0370    1.8680   -2.6610 H   0  0  0  0  0  0  0  0  0  0  0  0
    1.9312   -3.4725    1.8493 H   0  0  0  0  0  0  0  0  0  0  0  0
   -0.2230    0.2057    1.9789 H   0  0  0  0  0  0  0  0  0  0  0  0
    0.3866    1.3549    0.8587 H   0  0  0  0  0  0  0  0  0  0  0  0
    2.3067    2.4079    1.9373 H   0  0  0  0  0  0  0  0  0  0  0  0
    1.3196    4.5561    2.0624 H   0  0  0  0  0  0  0  0  0  0  0  0
    1.5295    7.1079   -0.6964 H   0  0  0  0  0  0  0  0  0  0  0  0
   -0.1738    8.4144   -0.0597 H   0  0  0  0  0  0  0  0  0  0  0  0
    0.8920    8.7298    3.4526 H   0  0  0  0  0  0  0  0  0  0  0  0
   -0.5704    9.5724    5.2415 H   0  0  0  0  0  0  0  0  0  0  0  0
   -2.8981   10.2642    4.7194 H   0  0  0  0  0  0  0  0  0  0  0  0
   -3.7196   10.1884    2.3797 H   0  0  0  0  0  0  0  0  0  0  0  0
   -2.2553    9.3733    0.5685 H   0  0  0  0  0  0  0  0  0  0  0  0
    2.5919    5.4143   -1.9763 H   0  0  0  0  0  0  0  0  0  0  0  0
    3.3351    3.1151   -2.1936 H   0  0  0  0  0  0  0  0  0  0  0  0
  1  2  1  0  0  0  0
  1 28  1  0  0  0  0
  1 29  1  0  0  0  0
  1 30  1  0  0  0  0
  2  3  1  0  0  0  0
  2 11  2  0  0  0  0
  3  4  1  0  0  0  0
  4  5  1  0  0  0  0
  4 10  2  0  0  0  0
  5  6  2  0  0  0  0
  6  7  1  0  0  0  0
  6 31  1  0  0  0  0
  7  8  2  0  0  0  0
  8  9  1  0  0  0  0
  8 10  1  0  0  0  0
  9 32  1  0  0  0  0
  9 33  1  0  0  0  0
 10 11  1  0  0  0  0
 11 12  1  0  0  0  0
 12 13  1  0  0  0  0
 12 27  2  0  0  0  0
 13 14  2  0  0  0  0
 13 34  1  0  0  0  0
 14 15  1  0  0  0  0
 14 35  1  0  0  0  0
 15 16  1  0  0  0  0
 15 26  2  0  0  0  0
 16 17  1  0  0  0  0
 16 36  1  0  0  0  0
 17 18  2  0  0  0  0
 17 19  1  0  0  0  0
 19 20  1  0  0  0  0
 19 37  1  0  0  0  0
 20 21  1  0  0  0  0
 20 25  2  0  0  0  0
 21 22  2  0  0  0  0
 21 38  1  0  0  0  0
 22 23  1  0  0  0  0
 22 39  1  0  0  0  0
 23 24  2  0  0  0  0
 23 40  1  0  0  0  0
 24 25  1  0  0  0  0
 24 41  1  0  0  0  0
 25 42  1  0  0  0  0
 26 27  1  0  0  0  0
 26 43  1  0  0  0  0
 27 44  1  0  0  0  0
M  END
$$$$
