CHEMBL225193
 OpenBabel04072215363D

 63 67  0  0  0  0  0  0  0  0999 V2000
   -0.2224   -1.6346   -0.8236 C   0  0  0  0  0  0  0  0  0  0  0  0
    1.1886   -1.4518   -0.9572 O   0  0  0  0  0  0  0  0  0  0  0  0
    1.9386   -2.5954   -0.5262 C   0  0  0  0  0  0  0  0  0  0  0  0
    3.4355   -2.2931   -0.6849 C   0  0  0  0  0  0  0  0  0  0  0  0
    4.2718   -3.3759   -0.2348 O   0  0  0  0  0  0  0  0  0  0  0  0
    5.6620   -3.0046   -0.3174 C   0  0  0  0  0  0  0  0  0  0  0  0
    6.5730   -4.1175    0.0184 C   0  0  0  0  0  0  0  0  0  0  0  0
    7.3432   -5.0396    0.2071 C   0  0  0  0  0  0  0  0  0  0  0  0
    8.0860   -6.2762    0.3798 C   0  0  0  0  0  0  0  0  0  0  0  0
    9.1347   -6.8146   -0.3918 C   0  0  0  0  0  0  0  0  0  0  0  0
    9.4387   -8.1900   -0.0485 C   0  0  0  0  0  0  0  0  0  0  0  0
   10.3873   -9.2376   -0.6853 C   0  0  0  0  0  0  0  0  0  0  0  0
   10.5519  -10.3513    0.0845 N   0  0  0  0  0  0  0  0  0  0  0  0
    9.6352  -11.1853   -0.4952 N   0  0  0  0  0  0  0  0  0  0  0  0
    9.3133  -10.7669   -1.7555 C   0  0  0  0  0  0  0  0  0  0  0  0
   10.3227   -9.8192   -2.0138 C   0  0  0  0  0  0  0  0  0  0  0  0
   10.1767   -9.3820   -3.4355 C   0  0  0  0  0  0  0  0  0  0  0  0
    8.6579   -9.3200   -3.3927 C   0  0  0  0  0  0  0  0  0  0  0  0
    8.0419   -8.1487   -3.7896 C   0  0  0  0  0  0  0  0  0  0  0  0
    6.9366   -7.7314   -3.0616 C   0  0  0  0  0  0  0  0  0  0  0  0
    6.6938   -6.2281   -2.9267 C   0  0  0  0  0  0  0  0  0  0  0  0
    7.4533   -5.3525   -3.8402 N   0  0  0  0  0  0  0  0  0  0  0  0
    6.8702   -5.3913   -5.1772 C   0  0  0  0  0  0  0  0  0  0  0  0
    7.6086   -4.4420   -6.1245 C   0  0  0  0  0  0  0  0  0  0  0  0
    7.6049   -3.0232   -5.6939 N   0  0  0  0  0  0  0  0  0  0  0  0
    6.2488   -2.4610   -5.7714 C   0  0  0  0  0  0  0  0  0  0  0  0
    8.1395   -2.9427   -4.3313 C   0  0  0  0  0  0  0  0  0  0  0  0
    7.5229   -3.9613   -3.3405 C   0  0  0  0  0  0  0  0  0  0  0  0
    6.3170   -8.6384   -2.1590 C   0  0  0  0  0  0  0  0  0  0  0  0
    6.8897   -9.9039   -1.8501 C   0  0  0  0  0  0  0  0  0  0  0  0
    8.1145  -10.2132   -2.4191 C   0  0  0  0  0  0  0  0  0  0  0  0
    8.6424   -8.5682    1.0249 C   0  0  0  0  0  0  0  0  0  0  0  0
    7.5703   -7.3805    1.5800 S   0  0  0  0  0  0  0  0  0  0  0  0
   -0.7195   -0.7217   -1.1356 H   0  0  0  0  0  0  0  0  0  0  0  0
   -0.4798   -1.8387    0.2225 H   0  0  0  0  0  0  0  0  0  0  0  0
   -0.5578   -2.4592   -1.4601 H   0  0  0  0  0  0  0  0  0  0  0  0
    1.6607   -3.4674   -1.1288 H   0  0  0  0  0  0  0  0  0  0  0  0
    1.7081   -2.8165    0.5219 H   0  0  0  0  0  0  0  0  0  0  0  0
    3.6719   -1.3806   -0.1226 H   0  0  0  0  0  0  0  0  0  0  0  0
    3.6402   -2.0846   -1.7430 H   0  0  0  0  0  0  0  0  0  0  0  0
    5.8408   -2.1521    0.3463 H   0  0  0  0  0  0  0  0  0  0  0  0
    5.8567   -2.6732   -1.3398 H   0  0  0  0  0  0  0  0  0  0  0  0
    9.5969   -6.2686   -1.2050 H   0  0  0  0  0  0  0  0  0  0  0  0
    9.5152  -12.1059   -0.0920 H   0  0  0  0  0  0  0  0  0  0  0  0
   10.4561  -10.1915   -4.1277 H   0  0  0  0  0  0  0  0  0  0  0  0
   10.6763   -8.4572   -3.7100 H   0  0  0  0  0  0  0  0  0  0  0  0
    8.6163   -7.4469   -4.3896 H   0  0  0  0  0  0  0  0  0  0  0  0
    7.1022   -6.0166   -1.9481 H   0  0  0  0  0  0  0  0  0  0  0  0
    5.6288   -5.9789   -2.8782 H   0  0  0  0  0  0  0  0  0  0  0  0
    5.8059   -5.1381   -5.1429 H   0  0  0  0  0  0  0  0  0  0  0  0
    6.9471   -6.3949   -5.6028 H   0  0  0  0  0  0  0  0  0  0  0  0
    7.2113   -4.5207   -7.1250 H   0  0  0  0  0  0  0  0  0  0  0  0
    8.6693   -4.7589   -6.2065 H   0  0  0  0  0  0  0  0  0  0  0  0
    5.8171   -2.6226   -6.7667 H   0  0  0  0  0  0  0  0  0  0  0  0
    6.2775   -1.3796   -5.6100 H   0  0  0  0  0  0  0  0  0  0  0  0
    5.5555   -2.8904   -5.0377 H   0  0  0  0  0  0  0  0  0  0  0  0
    8.0193   -1.9239   -3.9325 H   0  0  0  0  0  0  0  0  0  0  0  0
    9.2293   -3.1043   -4.3815 H   0  0  0  0  0  0  0  0  0  0  0  0
    6.5131   -3.6241   -3.0953 H   0  0  0  0  0  0  0  0  0  0  0  0
    8.1258   -3.9237   -2.4242 H   0  0  0  0  0  0  0  0  0  0  0  0
    5.4733   -8.2944   -1.5536 H   0  0  0  0  0  0  0  0  0  0  0  0
    6.4923  -10.4725   -1.0157 H   0  0  0  0  0  0  0  0  0  0  0  0
    8.6115   -9.5385    1.4982 H   0  0  0  0  0  0  0  0  0  0  0  0
  1  2  1  0  0  0  0
  1 34  1  0  0  0  0
  1 35  1  0  0  0  0
  1 36  1  0  0  0  0
  2  3  1  0  0  0  0
  3  4  1  0  0  0  0
  3 37  1  0  0  0  0
  3 38  1  0  0  0  0
  4  5  1  0  0  0  0
  4 39  1  0  0  0  0
  4 40  1  0  0  0  0
  5  6  1  0  0  0  0
  6  7  1  0  0  0  0
  6 41  1  0  0  0  0
  6 42  1  0  0  0  0
  7  8  3  0  0  0  0
  8  9  1  0  0  0  0
  9 10  2  0  0  0  0
  9 33  1  0  0  0  0
 10 11  1  0  0  0  0
 10 43  1  0  0  0  0
 11 12  1  0  0  0  0
 11 32  2  0  0  0  0
 12 13  2  0  0  0  0
 12 16  1  0  0  0  0
 13 14  1  0  0  0  0
 14 15  1  0  0  0  0
 14 44  1  0  0  0  0
 15 16  2  0  0  0  0
 15 31  1  0  0  0  0
 16 17  1  0  0  0  0
 17 18  1  0  0  0  0
 17 45  1  0  0  0  0
 17 46  1  0  0  0  0
 18 19  1  0  0  0  0
 18 31  2  0  0  0  0
 19 20  2  0  0  0  0
 19 47  1  0  0  0  0
 20 21  1  0  0  0  0
 20 29  1  0  0  0  0
 21 22  1  0  0  0  0
 21 48  1  0  0  0  0
 21 49  1  0  0  0  0
 22 23  1  0  0  0  0
 22 28  1  0  0  0  0
 23 24  1  0  0  0  0
 23 50  1  0  0  0  0
 23 51  1  0  0  0  0
 24 25  1  0  0  0  0
 24 52  1  0  0  0  0
 24 53  1  0  0  0  0
 25 26  1  0  0  0  0
 25 27  1  0  0  0  0
 26 54  1  0  0  0  0
 26 55  1  0  0  0  0
 26 56  1  0  0  0  0
 27 28  1  0  0  0  0
 27 57  1  0  0  0  0
 27 58  1  0  0  0  0
 28 59  1  0  0  0  0
 28 60  1  0  0  0  0
 29 30  2  0  0  0  0
 29 61  1  0  0  0  0
 30 31  1  0  0  0  0
 30 62  1  0  0  0  0
 32 33  1  0  0  0  0
 32 63  1  0  0  0  0
M  END
$$$$
