CHEMBL3889890
 OpenBabel04072215373D

 60 63  0  0  0  0  0  0  0  0999 V2000
    6.2986    2.9195   -2.8914 C   0  0  0  0  0  0  0  0  0  0  0  0
    5.9261    2.0447   -1.8187 O   0  0  0  0  0  0  0  0  0  0  0  0
    6.3216    0.7085   -2.0997 C   0  0  0  0  0  0  0  0  0  0  0  0
    6.0397   -0.3643   -1.0153 C   0  0  0  0  0  0  0  0  0  0  0  0
    4.7457   -0.2135   -0.2002 C   0  0  0  0  0  0  0  0  0  0  0  0
    4.1798   -1.5040    0.4169 N   0  0  0  0  0  0  0  0  0  0  0  0
    2.7588   -1.5950    0.1872 C   0  0  0  0  0  0  0  0  0  0  0  0
    2.1790   -1.1671   -1.0366 C   0  0  0  0  0  0  0  0  0  0  0  0
    0.7963   -1.0343   -1.2051 C   0  0  0  0  0  0  0  0  0  0  0  0
    0.1766   -0.4837   -2.2977 O   0  0  0  0  0  0  0  0  0  0  0  0
    0.9755    0.3388   -3.1468 C   0  0  0  0  0  0  0  0  0  0  0  0
   -0.0551   -1.4769   -0.1981 C   0  0  0  0  0  0  0  0  0  0  0  0
    0.4795   -2.0023    0.9809 C   0  0  0  0  0  0  0  0  0  0  0  0
   -0.2632   -2.4623    2.0377 O   0  0  0  0  0  0  0  0  0  0  0  0
   -1.5925   -2.8771    1.7427 C   0  0  0  0  0  0  0  0  0  0  0  0
    1.8683   -2.0331    1.1748 C   0  0  0  0  0  0  0  0  0  0  0  0
    4.9195   -2.0099    1.5540 C   0  0  0  0  0  0  0  0  0  0  0  0
    5.8234   -1.1788    2.2009 C   0  0  0  0  0  0  0  0  0  0  0  0
    6.7443   -1.6528    3.1151 C   0  0  0  0  0  0  0  0  0  0  0  0
    6.7438   -2.9431    3.5321 C   0  0  0  0  0  0  0  0  0  0  0  0
    7.7513   -3.2206    4.3712 N   0  0  0  0  0  0  0  0  0  0  0  0
    7.7318   -4.4223    4.9453 C   0  0  0  0  0  0  0  0  0  0  0  0
    6.7249   -5.3237    4.7184 C   0  0  0  0  0  0  0  0  0  0  0  0
    6.7332   -6.5103    5.5715 C   0  0  0  0  0  0  0  0  0  0  0  0
    6.0234   -6.7993    6.7657 C   0  0  0  0  0  0  0  0  0  0  0  0
    6.4867   -7.8872    7.3965 N   0  0  0  0  0  0  0  0  0  0  0  0
    7.4993   -8.2941    6.6125 N   0  0  0  0  0  0  0  0  0  0  0  0
    8.0750   -9.6087    6.7719 C   0  0  0  0  0  0  0  0  0  0  0  0
    7.7901   -7.4076    5.6144 C   0  0  0  0  0  0  0  0  0  0  0  0
    5.7153   -5.0767    3.8068 N   0  0  0  0  0  0  0  0  0  0  0  0
    5.7285   -3.8462    3.1365 C   0  0  0  0  0  0  0  0  0  0  0  0
    4.8520   -3.3546    2.0825 C   0  0  0  0  0  0  0  0  0  0  0  0
    6.8591   -1.3573   -0.8017 N   0  0  0  0  0  0  0  0  0  0  0  0
    7.9599   -1.3203   -1.6661 O   0  0  0  0  0  0  0  0  0  0  0  0
    5.5162    2.9186   -3.6564 H   0  0  0  0  0  0  0  0  0  0  0  0
    7.2530    2.6327   -3.3504 H   0  0  0  0  0  0  0  0  0  0  0  0
    6.4061    3.9361   -2.5011 H   0  0  0  0  0  0  0  0  0  0  0  0
    7.3998    0.7419   -2.2812 H   0  0  0  0  0  0  0  0  0  0  0  0
    5.8247    0.3749   -3.0173 H   0  0  0  0  0  0  0  0  0  0  0  0
    4.0436    0.2822   -0.8753 H   0  0  0  0  0  0  0  0  0  0  0  0
    4.8829    0.5622    0.5591 H   0  0  0  0  0  0  0  0  0  0  0  0
    2.8220   -0.9088   -1.8707 H   0  0  0  0  0  0  0  0  0  0  0  0
    0.3097    0.8518   -3.8500 H   0  0  0  0  0  0  0  0  0  0  0  0
    1.6681   -0.2717   -3.7338 H   0  0  0  0  0  0  0  0  0  0  0  0
    1.5120    1.1100   -2.5820 H   0  0  0  0  0  0  0  0  0  0  0  0
   -1.1253   -1.3761   -0.3449 H   0  0  0  0  0  0  0  0  0  0  0  0
   -1.9899   -3.3722    2.6330 H   0  0  0  0  0  0  0  0  0  0  0  0
   -1.6144   -3.6020    0.9224 H   0  0  0  0  0  0  0  0  0  0  0  0
   -2.2382   -2.0169    1.5305 H   0  0  0  0  0  0  0  0  0  0  0  0
    2.2363   -2.3813    2.1352 H   0  0  0  0  0  0  0  0  0  0  0  0
    5.8903   -0.1176    2.0088 H   0  0  0  0  0  0  0  0  0  0  0  0
    7.4858   -0.9612    3.5153 H   0  0  0  0  0  0  0  0  0  0  0  0
    8.5540   -4.6235    5.6229 H   0  0  0  0  0  0  0  0  0  0  0  0
    5.2156   -6.2440    7.2239 H   0  0  0  0  0  0  0  0  0  0  0  0
    7.6269  -10.1134    7.6317 H   0  0  0  0  0  0  0  0  0  0  0  0
    9.1561   -9.5204    6.9021 H   0  0  0  0  0  0  0  0  0  0  0  0
    7.8479  -10.1681    5.8597 H   0  0  0  0  0  0  0  0  0  0  0  0
    8.6840   -7.5129    5.0151 H   0  0  0  0  0  0  0  0  0  0  0  0
    4.1314   -4.0522    1.6714 H   0  0  0  0  0  0  0  0  0  0  0  0
    8.5487   -2.0022   -1.2928 H   0  0  0  0  0  0  0  0  0  0  0  0
  1  2  1  0  0  0  0
  1 35  1  0  0  0  0
  1 36  1  0  0  0  0
  1 37  1  0  0  0  0
  2  3  1  0  0  0  0
  3  4  1  0  0  0  0
  3 38  1  0  0  0  0
  3 39  1  0  0  0  0
  4  5  1  0  0  0  0
  4 33  2  0  0  0  0
  5  6  1  0  0  0  0
  5 40  1  0  0  0  0
  5 41  1  0  0  0  0
  6  7  1  0  0  0  0
  6 17  1  0  0  0  0
  7  8  1  0  0  0  0
  7 16  2  0  0  0  0
  8  9  2  0  0  0  0
  8 42  1  0  0  0  0
  9 10  1  0  0  0  0
  9 12  1  0  0  0  0
 10 11  1  0  0  0  0
 11 43  1  0  0  0  0
 11 44  1  0  0  0  0
 11 45  1  0  0  0  0
 12 13  2  0  0  0  0
 12 46  1  0  0  0  0
 13 14  1  0  0  0  0
 13 16  1  0  0  0  0
 14 15  1  0  0  0  0
 15 47  1  0  0  0  0
 15 48  1  0  0  0  0
 15 49  1  0  0  0  0
 16 50  1  0  0  0  0
 17 18  1  0  0  0  0
 17 32  2  0  0  0  0
 18 19  2  0  0  0  0
 18 51  1  0  0  0  0
 19 20  1  0  0  0  0
 19 52  1  0  0  0  0
 20 21  1  0  0  0  0
 20 31  2  0  0  0  0
 21 22  2  0  0  0  0
 22 23  1  0  0  0  0
 22 53  1  0  0  0  0
 23 24  1  0  0  0  0
 23 30  2  0  0  0  0
 24 25  1  0  0  0  0
 24 29  2  0  0  0  0
 25 26  2  0  0  0  0
 25 54  1  0  0  0  0
 26 27  1  0  0  0  0
 27 28  1  0  0  0  0
 27 29  1  0  0  0  0
 28 55  1  0  0  0  0
 28 56  1  0  0  0  0
 28 57  1  0  0  0  0
 29 58  1  0  0  0  0
 30 31  1  0  0  0  0
 31 32  1  0  0  0  0
 32 59  1  0  0  0  0
 33 34  1  0  0  0  0
 34 60  1  0  0  0  0
M  END
$$$$
