CHEMBL3896185
 OpenBabel04072215373D

 58 61  0  0  0  0  0  0  0  0999 V2000
    2.6096    0.2092    0.1480 C   0  0  0  0  0  0  0  0  0  0  0  0
    1.1105    0.0768    0.1588 C   0  0  0  0  0  0  0  0  0  0  0  0
    0.3674    1.2773    0.1722 C   0  0  0  0  0  0  0  0  0  0  0  0
   -1.0202    1.2851    0.0104 C   0  0  0  0  0  0  0  0  0  0  0  0
   -1.7818    2.4307   -0.0849 O   0  0  0  0  0  0  0  0  0  0  0  0
   -1.2462    3.5303   -0.7246 C   0  0  0  0  0  0  0  0  0  0  0  0
   -0.3669    3.4347   -1.7991 C   0  0  0  0  0  0  0  0  0  0  0  0
    0.1864    4.5990   -2.2771 C   0  0  0  0  0  0  0  0  0  0  0  0
   -0.1395    5.8156   -1.8092 N   0  0  0  0  0  0  0  0  0  0  0  0
   -1.0625    5.9164   -0.8366 C   0  0  0  0  0  0  0  0  0  0  0  0
   -1.4507    7.1889   -0.3823 N   0  0  0  0  0  0  0  0  0  0  0  0
   -0.9119    8.3669   -0.8511 C   0  0  0  0  0  0  0  0  0  0  0  0
   -0.0312    8.5004   -1.6956 O   0  0  0  0  0  0  0  0  0  0  0  0
   -1.4285    9.6352   -0.2538 C   0  0  0  0  0  0  0  0  0  0  0  0
   -1.2256    9.8902    1.2250 C   0  0  0  0  0  0  0  0  0  0  0  0
   -2.6137    9.7948    0.6577 C   0  0  0  0  0  0  0  0  0  0  0  0
   -1.6420    4.7895   -0.2647 C   0  0  0  0  0  0  0  0  0  0  0  0
   -1.6939    0.0765   -0.0490 C   0  0  0  0  0  0  0  0  0  0  0  0
   -0.9769   -1.1233    0.0052 C   0  0  0  0  0  0  0  0  0  0  0  0
    0.4247   -1.1542    0.1082 C   0  0  0  0  0  0  0  0  0  0  0  0
    1.1393   -2.3852    0.1771 N   0  0  0  0  0  0  0  0  0  0  0  0
    0.5708   -3.6339    0.4095 C   0  0  0  0  0  0  0  0  0  0  0  0
   -0.6245   -3.8556    0.5472 O   0  0  0  0  0  0  0  0  0  0  0  0
    1.5246   -4.6365    0.5592 N   0  0  0  0  0  0  0  0  0  0  0  0
    1.1153   -5.9657    0.8635 C   0  0  0  0  0  0  0  0  0  0  0  0
    1.7361   -6.6331    1.9173 C   0  0  0  0  0  0  0  0  0  0  0  0
    1.2811   -7.8950    2.2904 C   0  0  0  0  0  0  0  0  0  0  0  0
    1.8307   -8.5023    3.3505 F   0  0  0  0  0  0  0  0  0  0  0  0
    0.2562   -8.5321    1.5995 C   0  0  0  0  0  0  0  0  0  0  0  0
   -0.3421   -7.9031    0.5002 C   0  0  0  0  0  0  0  0  0  0  0  0
   -1.4179   -8.6176   -0.2907 C   0  0  0  0  0  0  0  0  0  0  0  0
   -2.8110   -8.3793    0.2693 C   0  0  0  0  0  0  0  0  0  0  0  0
   -1.4276   -8.2462   -1.6047 F   0  0  0  0  0  0  0  0  0  0  0  0
   -1.2150   -9.9706   -0.3088 F   0  0  0  0  0  0  0  0  0  0  0  0
    0.0867   -6.6078    0.1511 C   0  0  0  0  0  0  0  0  0  0  0  0
    2.9168    1.2459    0.3407 H   0  0  0  0  0  0  0  0  0  0  0  0
    2.9991   -0.0598   -0.8395 H   0  0  0  0  0  0  0  0  0  0  0  0
    3.0751   -0.4093    0.9177 H   0  0  0  0  0  0  0  0  0  0  0  0
    0.8948    2.2241    0.2730 H   0  0  0  0  0  0  0  0  0  0  0  0
   -0.0787    2.4855   -2.2337 H   0  0  0  0  0  0  0  0  0  0  0  0
    0.9356    4.5917   -3.0617 H   0  0  0  0  0  0  0  0  0  0  0  0
   -2.1507    7.2321    0.3385 H   0  0  0  0  0  0  0  0  0  0  0  0
   -1.2363   10.4828   -0.9082 H   0  0  0  0  0  0  0  0  0  0  0  0
   -0.8407   10.8646    1.5063 H   0  0  0  0  0  0  0  0  0  0  0  0
   -0.8675    9.0802    1.8494 H   0  0  0  0  0  0  0  0  0  0  0  0
   -3.1804   10.7174    0.5671 H   0  0  0  0  0  0  0  0  0  0  0  0
   -3.2252    8.9446    0.9219 H   0  0  0  0  0  0  0  0  0  0  0  0
   -2.3756    4.8663    0.5294 H   0  0  0  0  0  0  0  0  0  0  0  0
   -2.7752    0.0468   -0.1508 H   0  0  0  0  0  0  0  0  0  0  0  0
   -1.5653   -2.0316   -0.0732 H   0  0  0  0  0  0  0  0  0  0  0  0
    2.1439   -2.3411    0.1132 H   0  0  0  0  0  0  0  0  0  0  0  0
    2.3858   -4.3331    0.9887 H   0  0  0  0  0  0  0  0  0  0  0  0
    2.5244   -6.1723    2.5017 H   0  0  0  0  0  0  0  0  0  0  0  0
   -0.0617   -9.5224    1.9178 H   0  0  0  0  0  0  0  0  0  0  0  0
   -3.0946   -7.3244    0.2048 H   0  0  0  0  0  0  0  0  0  0  0  0
   -2.8874   -8.7054    1.3118 H   0  0  0  0  0  0  0  0  0  0  0  0
   -3.5449   -8.9549   -0.3066 H   0  0  0  0  0  0  0  0  0  0  0  0
   -0.3819   -6.1037   -0.6942 H   0  0  0  0  0  0  0  0  0  0  0  0
  1  2  1  0  0  0  0
  1 36  1  0  0  0  0
  1 37  1  0  0  0  0
  1 38  1  0  0  0  0
  2  3  1  0  0  0  0
  2 20  2  0  0  0  0
  3  4  2  0  0  0  0
  3 39  1  0  0  0  0
  4  5  1  0  0  0  0
  4 18  1  0  0  0  0
  5  6  1  0  0  0  0
  6  7  1  0  0  0  0
  6 17  2  0  0  0  0
  7  8  2  0  0  0  0
  7 40  1  0  0  0  0
  8  9  1  0  0  0  0
  8 41  1  0  0  0  0
  9 10  2  0  0  0  0
 10 11  1  0  0  0  0
 10 17  1  0  0  0  0
 11 12  1  0  0  0  0
 11 42  1  0  0  0  0
 12 13  2  0  0  0  0
 12 14  1  0  0  0  0
 14 15  1  0  0  0  0
 14 16  1  0  0  0  0
 14 43  1  0  0  0  0
 15 16  1  0  0  0  0
 15 44  1  0  0  0  0
 15 45  1  0  0  0  0
 16 46  1  0  0  0  0
 16 47  1  0  0  0  0
 17 48  1  0  0  0  0
 18 19  2  0  0  0  0
 18 49  1  0  0  0  0
 19 20  1  0  0  0  0
 19 50  1  0  0  0  0
 20 21  1  0  0  0  0
 21 22  1  0  0  0  0
 21 51  1  0  0  0  0
 22 23  2  0  0  0  0
 22 24  1  0  0  0  0
 24 25  1  0  0  0  0
 24 52  1  0  0  0  0
 25 26  1  0  0  0  0
 25 35  2  0  0  0  0
 26 27  2  0  0  0  0
 26 53  1  0  0  0  0
 27 28  1  0  0  0  0
 27 29  1  0  0  0  0
 29 30  2  0  0  0  0
 29 54  1  0  0  0  0
 30 31  1  0  0  0  0
 30 35  1  0  0  0  0
 31 32  1  0  0  0  0
 31 33  1  0  0  0  0
 31 34  1  0  0  0  0
 32 55  1  0  0  0  0
 32 56  1  0  0  0  0
 32 57  1  0  0  0  0
 35 58  1  0  0  0  0
M  END
$$$$
