CHEMBL1242566
 OpenBabel04072215363D

 36 39  0  0  0  0  0  0  0  0999 V2000
    1.1796    0.3709    0.0963 N   0  0  0  0  0  0  0  0  0  0  0  0
    2.5528    0.1649    0.0706 C   0  0  0  0  0  0  0  0  0  0  0  0
    3.3089    1.2813    0.0934 N   0  0  0  0  0  0  0  0  0  0  0  0
    4.6479    1.1577    0.0977 C   0  0  0  0  0  0  0  0  0  0  0  0
    5.3671    0.0278    0.0928 N   0  0  0  0  0  0  0  0  0  0  0  0
    4.5784   -1.0635    0.0586 C   0  0  0  0  0  0  0  0  0  0  0  0
    3.1904   -1.0853    0.0324 C   0  0  0  0  0  0  0  0  0  0  0  0
    2.8483   -2.4748   -0.0427 C   0  0  0  0  0  0  0  0  0  0  0  0
    1.5310   -3.1172   -0.1528 C   0  0  0  0  0  0  0  0  0  0  0  0
    0.4898   -2.5186   -0.8783 C   0  0  0  0  0  0  0  0  0  0  0  0
   -0.7680   -3.1224   -0.9591 C   0  0  0  0  0  0  0  0  0  0  0  0
   -0.9667   -4.3592   -0.3636 C   0  0  0  0  0  0  0  0  0  0  0  0
   -2.1621   -4.9590   -0.4527 F   0  0  0  0  0  0  0  0  0  0  0  0
    0.0700   -4.9899    0.3146 C   0  0  0  0  0  0  0  0  0  0  0  0
   -0.1060   -6.2291    0.8610 O   0  0  0  0  0  0  0  0  0  0  0  0
    1.3130   -4.3729    0.4355 C   0  0  0  0  0  0  0  0  0  0  0  0
    3.9501   -3.2449   -0.0157 N   0  0  0  0  0  0  0  0  0  0  0  0
    4.9777   -2.3751    0.0246 N   0  0  0  0  0  0  0  0  0  0  0  0
    6.3608   -2.7859   -0.0185 C   0  0  0  0  0  0  0  0  0  0  0  0
    6.6664   -3.6471   -1.2828 C   0  0  0  0  0  0  0  0  0  0  0  0
    7.5383   -4.5429   -0.3864 C   0  0  0  0  0  0  0  0  0  0  0  0
    6.6656   -4.0798    0.7948 C   0  0  0  0  0  0  0  0  0  0  0  0
    0.9784    1.3410    0.3180 H   0  0  0  0  0  0  0  0  0  0  0  0
    0.6615   -0.3080    0.6399 H   0  0  0  0  0  0  0  0  0  0  0  0
    5.2103    2.0864    0.1109 H   0  0  0  0  0  0  0  0  0  0  0  0
    0.6450   -1.5810   -1.4089 H   0  0  0  0  0  0  0  0  0  0  0  0
   -1.5793   -2.6402   -1.4954 H   0  0  0  0  0  0  0  0  0  0  0  0
   -0.9990   -6.5279    0.6050 H   0  0  0  0  0  0  0  0  0  0  0  0
    2.1090   -4.8835    0.9706 H   0  0  0  0  0  0  0  0  0  0  0  0
    7.0873   -1.9772    0.1261 H   0  0  0  0  0  0  0  0  0  0  0  0
    7.2028   -3.1270   -2.0819 H   0  0  0  0  0  0  0  0  0  0  0  0
    5.8143   -4.1764   -1.7258 H   0  0  0  0  0  0  0  0  0  0  0  0
    8.5837   -4.2217   -0.3205 H   0  0  0  0  0  0  0  0  0  0  0  0
    7.5053   -5.6120   -0.6113 H   0  0  0  0  0  0  0  0  0  0  0  0
    7.2065   -3.9258    1.7334 H   0  0  0  0  0  0  0  0  0  0  0  0
    5.8201   -4.7488    0.9913 H   0  0  0  0  0  0  0  0  0  0  0  0
  1  2  1  0  0  0  0
  1 23  1  0  0  0  0
  1 24  1  0  0  0  0
  2  3  1  0  0  0  0
  2  7  2  0  0  0  0
  3  4  2  0  0  0  0
  4  5  1  0  0  0  0
  4 25  1  0  0  0  0
  5  6  2  0  0  0  0
  6  7  1  0  0  0  0
  6 18  1  0  0  0  0
  7  8  1  0  0  0  0
  8  9  1  0  0  0  0
  8 17  2  0  0  0  0
  9 10  1  0  0  0  0
  9 16  2  0  0  0  0
 10 11  2  0  0  0  0
 10 26  1  0  0  0  0
 11 12  1  0  0  0  0
 11 27  1  0  0  0  0
 12 13  1  0  0  0  0
 12 14  2  0  0  0  0
 14 15  1  0  0  0  0
 14 16  1  0  0  0  0
 15 28  1  0  0  0  0
 16 29  1  0  0  0  0
 17 18  1  0  0  0  0
 18 19  1  0  0  0  0
 19 20  1  0  0  0  0
 19 22  1  0  0  0  0
 19 30  1  0  0  0  0
 20 21  1  0  0  0  0
 20 31  1  0  0  0  0
 20 32  1  0  0  0  0
 21 22  1  0  0  0  0
 21 33  1  0  0  0  0
 21 34  1  0  0  0  0
 22 35  1  0  0  0  0
 22 36  1  0  0  0  0
M  END
$$$$
