CHEMBL3910155
 OpenBabel04072215373D

 54 56  0  0  0  0  0  0  0  0999 V2000
    2.2176   -0.3490   -1.2842 C   0  0  0  0  0  0  0  0  0  0  0  0
    0.7548   -0.1819   -0.9958 C   0  0  0  0  0  0  0  0  0  0  0  0
    0.1485    1.0576   -1.1850 C   0  0  0  0  0  0  0  0  0  0  0  0
   -1.2120    1.2319   -0.9130 C   0  0  0  0  0  0  0  0  0  0  0  0
   -2.0138    0.1864   -0.4485 C   0  0  0  0  0  0  0  0  0  0  0  0
   -3.4029    0.3335   -0.1516 N   0  0  0  0  0  0  0  0  0  0  0  0
   -4.1013    1.5315   -0.2107 C   0  0  0  0  0  0  0  0  0  0  0  0
   -3.5853    2.6061   -0.5005 O   0  0  0  0  0  0  0  0  0  0  0  0
   -5.4519    1.4134    0.1095 N   0  0  0  0  0  0  0  0  0  0  0  0
   -6.3630    2.5109    0.0233 C   0  0  0  0  0  0  0  0  0  0  0  0
   -6.1152    3.6111   -0.8121 C   0  0  0  0  0  0  0  0  0  0  0  0
   -6.9422    4.7319   -0.8024 C   0  0  0  0  0  0  0  0  0  0  0  0
   -8.0581    4.7579    0.0202 C   0  0  0  0  0  0  0  0  0  0  0  0
   -8.3613    3.6503    0.8204 C   0  0  0  0  0  0  0  0  0  0  0  0
   -9.5000    3.7496    1.6855 C   0  0  0  0  0  0  0  0  0  0  0  0
  -10.4316    4.0065    2.4058 C   0  0  0  0  0  0  0  0  0  0  0  0
  -11.4855    4.4645    3.2610 C   0  0  0  0  0  0  0  0  0  0  0  0
  -12.7612    4.7252    2.7711 C   0  0  0  0  0  0  0  0  0  0  0  0
  -13.7691    5.2428    3.5198 N   0  0  0  0  0  0  0  0  0  0  0  0
  -13.4939    5.4901    4.8262 C   0  0  0  0  0  0  0  0  0  0  0  0
  -12.2636    5.2336    5.4173 C   0  0  0  0  0  0  0  0  0  0  0  0
  -12.0734    5.4952    6.8717 C   0  0  0  0  0  0  0  0  0  0  0  0
  -13.0820    5.6635    7.5503 O   0  0  0  0  0  0  0  0  0  0  0  0
  -10.7804    5.6437    7.4003 N   0  0  0  0  0  0  0  0  0  0  0  0
  -10.4451    5.2246    8.8444 S   0  0  0  0  0  0  0  0  0  0  0  0
  -11.1010    6.4287    9.9806 C   0  0  0  0  0  0  0  0  0  0  0  0
   -8.6940    5.4818    9.0303 C   0  0  0  0  0  0  0  0  0  0  0  0
  -10.7248    3.9128    9.3954 O   0  0  0  0  0  0  0  0  0  0  0  0
  -11.2382    4.7249    4.6099 C   0  0  0  0  0  0  0  0  0  0  0  0
   -7.5269    2.5185    0.8082 C   0  0  0  0  0  0  0  0  0  0  0  0
   -1.4049   -1.0652   -0.2695 C   0  0  0  0  0  0  0  0  0  0  0  0
   -0.0329   -1.2435   -0.5387 C   0  0  0  0  0  0  0  0  0  0  0  0
    2.6662    0.5912   -1.6256 H   0  0  0  0  0  0  0  0  0  0  0  0
    2.3676   -1.0904   -2.0742 H   0  0  0  0  0  0  0  0  0  0  0  0
    2.7529   -0.6585   -0.3819 H   0  0  0  0  0  0  0  0  0  0  0  0
    0.7215    1.9102   -1.5390 H   0  0  0  0  0  0  0  0  0  0  0  0
   -1.5983    2.2279   -1.0987 H   0  0  0  0  0  0  0  0  0  0  0  0
   -3.9033   -0.4978    0.1203 H   0  0  0  0  0  0  0  0  0  0  0  0
   -5.7173    0.6428    0.7015 H   0  0  0  0  0  0  0  0  0  0  0  0
   -5.2628    3.6335   -1.4857 H   0  0  0  0  0  0  0  0  0  0  0  0
   -6.6902    5.5891   -1.4251 H   0  0  0  0  0  0  0  0  0  0  0  0
   -8.6778    5.6502    0.0417 H   0  0  0  0  0  0  0  0  0  0  0  0
  -13.0242    4.5332    1.7333 H   0  0  0  0  0  0  0  0  0  0  0  0
  -14.3167    5.9241    5.3907 H   0  0  0  0  0  0  0  0  0  0  0  0
  -10.8799    7.4330    9.6149 H   0  0  0  0  0  0  0  0  0  0  0  0
  -10.6285    6.2746   10.9547 H   0  0  0  0  0  0  0  0  0  0  0  0
  -12.1776    6.2801   10.0781 H   0  0  0  0  0  0  0  0  0  0  0  0
   -8.4321    6.4659    8.6365 H   0  0  0  0  0  0  0  0  0  0  0  0
   -8.1729    4.6978    8.4768 H   0  0  0  0  0  0  0  0  0  0  0  0
   -8.4386    5.4171   10.0898 H   0  0  0  0  0  0  0  0  0  0  0  0
  -10.2534    4.5350    5.0296 H   0  0  0  0  0  0  0  0  0  0  0  0
   -7.7694    1.6747    1.4482 H   0  0  0  0  0  0  0  0  0  0  0  0
   -1.9745   -1.9181    0.0881 H   0  0  0  0  0  0  0  0  0  0  0  0
    0.4191   -2.2210   -0.3838 H   0  0  0  0  0  0  0  0  0  0  0  0
  1  2  1  0  0  0  0
  1 33  1  0  0  0  0
  1 34  1  0  0  0  0
  1 35  1  0  0  0  0
  2  3  1  0  0  0  0
  2 32  2  0  0  0  0
  3  4  2  0  0  0  0
  3 36  1  0  0  0  0
  4  5  1  0  0  0  0
  4 37  1  0  0  0  0
  5  6  1  0  0  0  0
  5 31  2  0  0  0  0
  6  7  1  0  0  0  0
  6 38  1  0  0  0  0
  7  8  2  0  0  0  0
  7  9  1  0  0  0  0
  9 10  1  0  0  0  0
  9 39  1  0  0  0  0
 10 11  1  0  0  0  0
 10 30  2  0  0  0  0
 11 12  2  0  0  0  0
 11 40  1  0  0  0  0
 12 13  1  0  0  0  0
 12 41  1  0  0  0  0
 13 14  2  0  0  0  0
 13 42  1  0  0  0  0
 14 15  1  0  0  0  0
 14 30  1  0  0  0  0
 15 16  3  0  0  0  0
 16 17  1  0  0  0  0
 17 18  1  0  0  0  0
 17 29  2  0  0  0  0
 18 19  2  0  0  0  0
 18 43  1  0  0  0  0
 19 20  1  0  0  0  0
 20 21  2  0  0  0  0
 20 44  1  0  0  0  0
 21 22  1  0  0  0  0
 21 29  1  0  0  0  0
 22 23  2  0  0  0  0
 22 24  1  0  0  0  0
 24 25  2  0  0  0  0
 25 26  1  0  0  0  0
 25 27  1  0  0  0  0
 25 28  2  0  0  0  0
 26 45  1  0  0  0  0
 26 46  1  0  0  0  0
 26 47  1  0  0  0  0
 27 48  1  0  0  0  0
 27 49  1  0  0  0  0
 27 50  1  0  0  0  0
 29 51  1  0  0  0  0
 30 52  1  0  0  0  0
 31 32  1  0  0  0  0
 31 53  1  0  0  0  0
 32 54  1  0  0  0  0
M  END
$$$$
