CHEMBL3922586
 OpenBabel04072215373D

 53 56  0  0  0  0  0  0  0  0999 V2000
    1.6942   -0.3404    1.4431 C   0  0  0  0  0  0  0  0  0  0  0  0
    3.0521   -0.0780    1.0865 O   0  0  0  0  0  0  0  0  0  0  0  0
    3.3409    1.2304    0.7980 C   0  0  0  0  0  0  0  0  0  0  0  0
    2.6403    2.3183    1.3052 C   0  0  0  0  0  0  0  0  0  0  0  0
    2.9499    3.6141    0.8885 C   0  0  0  0  0  0  0  0  0  0  0  0
    2.1092    4.5641    1.4156 O   0  0  0  0  0  0  0  0  0  0  0  0
    2.7253    5.7652    1.8758 C   0  0  0  0  0  0  0  0  0  0  0  0
    3.9672    3.8148   -0.0680 C   0  0  0  0  0  0  0  0  0  0  0  0
    4.0488    5.3483   -0.8969 Cl  0  0  0  0  0  0  0  0  0  0  0  0
    4.8015    2.7347   -0.4924 C   0  0  0  0  0  0  0  0  0  0  0  0
    5.9629    2.9287   -1.3018 N   0  0  0  0  0  0  0  0  0  0  0  0
    6.3161    1.8969   -2.3212 C   0  0  0  0  0  0  0  0  0  0  0  0
    7.7725    1.3836   -2.2117 C   0  0  0  0  0  0  0  0  0  0  0  0
    8.0124    0.6807   -0.9966 O   0  0  0  0  0  0  0  0  0  0  0  0
    6.8660    4.0177   -1.2004 C   0  0  0  0  0  0  0  0  0  0  0  0
    7.4809    4.5793   -2.3292 C   0  0  0  0  0  0  0  0  0  0  0  0
    8.4736    5.5494   -2.1953 C   0  0  0  0  0  0  0  0  0  0  0  0
    8.8434    6.0191   -0.9506 C   0  0  0  0  0  0  0  0  0  0  0  0
    9.8296    6.9241   -0.8650 N   0  0  0  0  0  0  0  0  0  0  0  0
   10.1221    7.3690    0.3797 C   0  0  0  0  0  0  0  0  0  0  0  0
    9.4376    6.9496    1.5117 C   0  0  0  0  0  0  0  0  0  0  0  0
    9.6996    7.5317    2.8136 C   0  0  0  0  0  0  0  0  0  0  0  0
   10.5962    8.5505    3.2092 C   0  0  0  0  0  0  0  0  0  0  0  0
   10.5003    8.8520    4.5056 N   0  0  0  0  0  0  0  0  0  0  0  0
    9.5279    8.0340    4.9464 N   0  0  0  0  0  0  0  0  0  0  0  0
    9.0867    8.1146    6.3174 C   0  0  0  0  0  0  0  0  0  0  0  0
    9.0296    7.2118    3.9776 C   0  0  0  0  0  0  0  0  0  0  0  0
    8.4622    6.0113    1.4309 N   0  0  0  0  0  0  0  0  0  0  0  0
    8.1727    5.5378    0.2015 C   0  0  0  0  0  0  0  0  0  0  0  0
    7.2071    4.5499    0.0518 C   0  0  0  0  0  0  0  0  0  0  0  0
    4.4416    1.4461   -0.0426 C   0  0  0  0  0  0  0  0  0  0  0  0
    1.5422   -1.4242    1.4294 H   0  0  0  0  0  0  0  0  0  0  0  0
    0.9948    0.1011    0.7230 H   0  0  0  0  0  0  0  0  0  0  0  0
    1.4815    0.0106    2.4581 H   0  0  0  0  0  0  0  0  0  0  0  0
    1.8356    2.1870    2.0219 H   0  0  0  0  0  0  0  0  0  0  0  0
    2.1932    6.0929    2.7754 H   0  0  0  0  0  0  0  0  0  0  0  0
    2.5961    6.5517    1.1273 H   0  0  0  0  0  0  0  0  0  0  0  0
    3.7812    5.6414    2.1400 H   0  0  0  0  0  0  0  0  0  0  0  0
    6.1611    2.3184   -3.3217 H   0  0  0  0  0  0  0  0  0  0  0  0
    5.6508    1.0307   -2.2749 H   0  0  0  0  0  0  0  0  0  0  0  0
    8.5231    2.1752   -2.2979 H   0  0  0  0  0  0  0  0  0  0  0  0
    7.9678    0.6891   -3.0346 H   0  0  0  0  0  0  0  0  0  0  0  0
    8.1913    1.3564   -0.3173 H   0  0  0  0  0  0  0  0  0  0  0  0
    7.2120    4.2644   -3.3296 H   0  0  0  0  0  0  0  0  0  0  0  0
    8.9722    5.9354   -3.0799 H   0  0  0  0  0  0  0  0  0  0  0  0
   10.9231    8.0967    0.4214 H   0  0  0  0  0  0  0  0  0  0  0  0
   11.3100    9.0992    2.6088 H   0  0  0  0  0  0  0  0  0  0  0  0
    9.6762    8.8680    6.8468 H   0  0  0  0  0  0  0  0  0  0  0  0
    9.2248    7.1361    6.7826 H   0  0  0  0  0  0  0  0  0  0  0  0
    8.0316    8.3992    6.3204 H   0  0  0  0  0  0  0  0  0  0  0  0
    8.2407    6.4999    4.1823 H   0  0  0  0  0  0  0  0  0  0  0  0
    6.7360    4.1645    0.9520 H   0  0  0  0  0  0  0  0  0  0  0  0
    5.0184    0.5717   -0.3354 H   0  0  0  0  0  0  0  0  0  0  0  0
  1  2  1  0  0  0  0
  1 32  1  0  0  0  0
  1 33  1  0  0  0  0
  1 34  1  0  0  0  0
  2  3  1  0  0  0  0
  3  4  1  0  0  0  0
  3 31  2  0  0  0  0
  4  5  2  0  0  0  0
  4 35  1  0  0  0  0
  5  6  1  0  0  0  0
  5  8  1  0  0  0  0
  6  7  1  0  0  0  0
  7 36  1  0  0  0  0
  7 37  1  0  0  0  0
  7 38  1  0  0  0  0
  8  9  1  0  0  0  0
  8 10  2  0  0  0  0
 10 11  1  0  0  0  0
 10 31  1  0  0  0  0
 11 12  1  0  0  0  0
 11 15  1  0  0  0  0
 12 13  1  0  0  0  0
 12 39  1  0  0  0  0
 12 40  1  0  0  0  0
 13 14  1  0  0  0  0
 13 41  1  0  0  0  0
 13 42  1  0  0  0  0
 14 43  1  0  0  0  0
 15 16  1  0  0  0  0
 15 30  2  0  0  0  0
 16 17  2  0  0  0  0
 16 44  1  0  0  0  0
 17 18  1  0  0  0  0
 17 45  1  0  0  0  0
 18 19  1  0  0  0  0
 18 29  2  0  0  0  0
 19 20  2  0  0  0  0
 20 21  1  0  0  0  0
 20 46  1  0  0  0  0
 21 22  1  0  0  0  0
 21 28  2  0  0  0  0
 22 23  1  0  0  0  0
 22 27  2  0  0  0  0
 23 24  2  0  0  0  0
 23 47  1  0  0  0  0
 24 25  1  0  0  0  0
 25 26  1  0  0  0  0
 25 27  1  0  0  0  0
 26 48  1  0  0  0  0
 26 49  1  0  0  0  0
 26 50  1  0  0  0  0
 27 51  1  0  0  0  0
 28 29  1  0  0  0  0
 29 30  1  0  0  0  0
 30 52  1  0  0  0  0
 31 53  1  0  0  0  0
M  END
$$$$
