CHEMBL259380
 OpenBabel04072215363D

 33 35  0  0  0  0  0  0  0  0999 V2000
    1.2217    0.1137    0.2984 N   0  0  0  0  0  0  0  0  0  0  0  0
    2.5983    0.1235    0.2005 C   0  0  0  0  0  0  0  0  0  0  0  0
    3.1839    1.2929   -0.0486 N   0  0  0  0  0  0  0  0  0  0  0  0
    4.5232    1.2816   -0.1167 C   0  0  0  0  0  0  0  0  0  0  0  0
    5.1335    2.5139   -0.4146 N   0  0  0  0  0  0  0  0  0  0  0  0
    5.3044    0.1308    0.0209 C   0  0  0  0  0  0  0  0  0  0  0  0
    4.5739   -1.0406    0.2391 C   0  0  0  0  0  0  0  0  0  0  0  0
    3.2291   -1.0470    0.3233 N   0  0  0  0  0  0  0  0  0  0  0  0
    5.1394   -2.2921    0.4399 N   0  0  0  0  0  0  0  0  0  0  0  0
    6.2562   -2.7863   -0.3514 C   0  0  0  0  0  0  0  0  0  0  0  0
    6.8592   -1.8008   -1.3354 C   0  0  0  0  0  0  0  0  0  0  0  0
    7.4528   -0.6388   -0.5677 C   0  0  0  0  0  0  0  0  0  0  0  0
    8.9384   -0.5031   -0.5024 C   0  0  0  0  0  0  0  0  0  0  0  0
    9.5008    0.7747   -0.3940 C   0  0  0  0  0  0  0  0  0  0  0  0
   10.8871    0.9298   -0.3218 C   0  0  0  0  0  0  0  0  0  0  0  0
   11.7154   -0.1910   -0.3482 C   0  0  0  0  0  0  0  0  0  0  0  0
   11.1607   -1.4667   -0.4413 C   0  0  0  0  0  0  0  0  0  0  0  0
    9.7753   -1.6255   -0.5150 C   0  0  0  0  0  0  0  0  0  0  0  0
    6.7191    0.2492    0.0326 N   0  0  0  0  0  0  0  0  0  0  0  0
    0.8384    0.9082   -0.1938 H   0  0  0  0  0  0  0  0  0  0  0  0
    0.8652   -0.8011    0.0630 H   0  0  0  0  0  0  0  0  0  0  0  0
    4.4435    3.2490   -0.3086 H   0  0  0  0  0  0  0  0  0  0  0  0
    5.9648    2.6232    0.1599 H   0  0  0  0  0  0  0  0  0  0  0  0
    4.3737   -2.9540    0.5435 H   0  0  0  0  0  0  0  0  0  0  0  0
    5.9159   -3.6670   -0.9088 H   0  0  0  0  0  0  0  0  0  0  0  0
    7.0248   -3.1403    0.3457 H   0  0  0  0  0  0  0  0  0  0  0  0
    6.1125   -1.4254   -2.0451 H   0  0  0  0  0  0  0  0  0  0  0  0
    7.6209   -2.2968   -1.9447 H   0  0  0  0  0  0  0  0  0  0  0  0
    8.8626    1.6551   -0.3690 H   0  0  0  0  0  0  0  0  0  0  0  0
   11.3178    1.9243   -0.2397 H   0  0  0  0  0  0  0  0  0  0  0  0
   12.7944   -0.0702   -0.2877 H   0  0  0  0  0  0  0  0  0  0  0  0
   11.8088   -2.3396   -0.4469 H   0  0  0  0  0  0  0  0  0  0  0  0
    9.3737   -2.6330   -0.5571 H   0  0  0  0  0  0  0  0  0  0  0  0
  1  2  1  0  0  0  0
  1 20  1  0  0  0  0
  1 21  1  0  0  0  0
  2  3  1  0  0  0  0
  2  8  2  0  0  0  0
  3  4  2  0  0  0  0
  4  5  1  0  0  0  0
  4  6  1  0  0  0  0
  5 22  1  0  0  0  0
  5 23  1  0  0  0  0
  6  7  2  0  0  0  0
  6 19  1  0  0  0  0
  7  8  1  0  0  0  0
  7  9  1  0  0  0  0
  9 10  1  0  0  0  0
  9 24  1  0  0  0  0
 10 11  1  0  0  0  0
 10 25  1  0  0  0  0
 10 26  1  0  0  0  0
 11 12  1  0  0  0  0
 11 27  1  0  0  0  0
 11 28  1  0  0  0  0
 12 13  1  0  0  0  0
 12 19  2  0  0  0  0
 13 14  1  0  0  0  0
 13 18  2  0  0  0  0
 14 15  2  0  0  0  0
 14 29  1  0  0  0  0
 15 16  1  0  0  0  0
 15 30  1  0  0  0  0
 16 17  2  0  0  0  0
 16 31  1  0  0  0  0
 17 18  1  0  0  0  0
 17 32  1  0  0  0  0
 18 33  1  0  0  0  0
M  END
$$$$
