CHEMBL3594105
 OpenBabel04072215363D

 84 89  0  0  0  0  0  0  0  0999 V2000
    2.4390   -1.0120   -0.5263 C   0  0  0  0  0  0  0  0  0  0  0  0
    2.3598    0.2988    0.0211 O   0  0  0  0  0  0  0  0  0  0  0  0
    3.1840    1.2728   -0.4697 C   0  0  0  0  0  0  0  0  0  0  0  0
    4.3694    0.9824   -1.1602 C   0  0  0  0  0  0  0  0  0  0  0  0
    5.1297    1.9905   -1.7905 C   0  0  0  0  0  0  0  0  0  0  0  0
    6.2840    1.7365   -2.5738 C   0  0  0  0  0  0  0  0  0  0  0  0
    6.6608    0.4242   -2.8034 O   0  0  0  0  0  0  0  0  0  0  0  0
    7.2304    0.0749   -4.0139 C   0  0  0  0  0  0  0  0  0  0  0  0
    8.2115   -0.9119   -3.9641 C   0  0  0  0  0  0  0  0  0  0  0  0
    8.7972   -1.3907   -5.1455 C   0  0  0  0  0  0  0  0  0  0  0  0
    8.4026   -0.9184   -6.4053 C   0  0  0  0  0  0  0  0  0  0  0  0
    8.8818   -1.4752   -7.6271 N   0  0  0  0  0  0  0  0  0  0  0  0
    9.4128   -2.7521   -7.7268 C   0  0  0  0  0  0  0  0  0  0  0  0
    9.5620   -3.5252   -6.7850 O   0  0  0  0  0  0  0  0  0  0  0  0
    9.7534   -3.2178   -9.1075 C   0  0  0  0  0  0  0  0  0  0  0  0
   10.1887   -2.4338  -10.1366 N   0  0  0  0  0  0  0  0  0  0  0  0
   10.5820   -3.2640  -11.2157 C   0  0  0  0  0  0  0  0  0  0  0  0
   11.0833   -2.8786  -12.2574 O   0  0  0  0  0  0  0  0  0  0  0  0
   10.2620   -4.5844  -10.7897 N   0  0  0  0  0  0  0  0  0  0  0  0
   10.5307   -5.7427  -11.5548 C   0  0  0  0  0  0  0  0  0  0  0  0
   11.8583   -6.0323  -11.9014 C   0  0  0  0  0  0  0  0  0  0  0  0
   12.1802   -7.2411  -12.5283 C   0  0  0  0  0  0  0  0  0  0  0  0
   11.1777   -8.1563  -12.8452 C   0  0  0  0  0  0  0  0  0  0  0  0
    9.8485   -7.8609  -12.5451 C   0  0  0  0  0  0  0  0  0  0  0  0
    9.5234   -6.6620  -11.9005 C   0  0  0  0  0  0  0  0  0  0  0  0
    7.8464   -6.3381  -11.6183 Cl  0  0  0  0  0  0  0  0  0  0  0  0
    9.7941   -4.5153   -9.4780 C   0  0  0  0  0  0  0  0  0  0  0  0
    9.5317   -5.7225   -8.6391 C   0  0  0  0  0  0  0  0  0  0  0  0
    7.4593    0.1100   -6.4514 C   0  0  0  0  0  0  0  0  0  0  0  0
    6.8579    0.5702   -5.2686 C   0  0  0  0  0  0  0  0  0  0  0  0
    5.8908    1.4922   -5.3822 F   0  0  0  0  0  0  0  0  0  0  0  0
    7.0367    2.7984   -3.0595 C   0  0  0  0  0  0  0  0  0  0  0  0
    6.5475    4.0705   -2.8653 C   0  0  0  0  0  0  0  0  0  0  0  0
    5.4140    4.3496   -2.1877 N   0  0  0  0  0  0  0  0  0  0  0  0
    4.7245    3.3317   -1.6445 C   0  0  0  0  0  0  0  0  0  0  0  0
    3.5842    3.6149   -0.8973 C   0  0  0  0  0  0  0  0  0  0  0  0
    2.8237    2.6160   -0.2736 C   0  0  0  0  0  0  0  0  0  0  0  0
    1.7716    3.0999    0.4826 O   0  0  0  0  0  0  0  0  0  0  0  0
    1.3615    2.2634    1.5735 C   0  0  0  0  0  0  0  0  0  0  0  0
    0.7296    3.0786    2.7085 C   0  0  0  0  0  0  0  0  0  0  0  0
    0.3254    2.1751    3.8938 C   0  0  0  0  0  0  0  0  0  0  0  0
    1.4115    1.3250    4.3970 N   0  0  0  0  0  0  0  0  0  0  0  0
    2.5285    2.0728    4.9981 C   0  0  0  0  0  0  0  0  0  0  0  0
    3.6839    1.1129    5.3712 C   0  0  0  0  0  0  0  0  0  0  0  0
    3.3156    0.0218    6.2951 N   0  0  0  0  0  0  0  0  0  0  0  0
    3.1806    0.5005    7.6668 C   0  0  0  0  0  0  0  0  0  0  0  0
    2.0822   -0.6357    5.8152 C   0  0  0  0  0  0  0  0  0  0  0  0
    0.9397    0.3128    5.3606 C   0  0  0  0  0  0  0  0  0  0  0  0
    2.8454   -1.6841    0.2346 H   0  0  0  0  0  0  0  0  0  0  0  0
    3.0208   -1.0998   -1.4473 H   0  0  0  0  0  0  0  0  0  0  0  0
    1.4236   -1.3382   -0.7696 H   0  0  0  0  0  0  0  0  0  0  0  0
    4.7438   -0.0362   -1.2004 H   0  0  0  0  0  0  0  0  0  0  0  0
    8.5226   -1.3321   -3.0104 H   0  0  0  0  0  0  0  0  0  0  0  0
    9.5678   -2.1506   -5.0421 H   0  0  0  0  0  0  0  0  0  0  0  0
    8.6058   -1.0165   -8.4867 H   0  0  0  0  0  0  0  0  0  0  0  0
   10.3656   -1.4434  -10.1283 H   0  0  0  0  0  0  0  0  0  0  0  0
   12.6586   -5.3441  -11.6389 H   0  0  0  0  0  0  0  0  0  0  0  0
   13.2177   -7.4738  -12.7585 H   0  0  0  0  0  0  0  0  0  0  0  0
   11.4296   -9.0959  -13.3320 H   0  0  0  0  0  0  0  0  0  0  0  0
    9.0685   -8.5683  -12.8166 H   0  0  0  0  0  0  0  0  0  0  0  0
    9.7873   -6.6591   -9.1392 H   0  0  0  0  0  0  0  0  0  0  0  0
    8.4764   -5.7703   -8.3545 H   0  0  0  0  0  0  0  0  0  0  0  0
   10.1442   -5.7000   -7.7323 H   0  0  0  0  0  0  0  0  0  0  0  0
    7.1250    0.5359   -7.3920 H   0  0  0  0  0  0  0  0  0  0  0  0
    7.9608    2.6478   -3.6035 H   0  0  0  0  0  0  0  0  0  0  0  0
    7.0694    4.9316   -3.2711 H   0  0  0  0  0  0  0  0  0  0  0  0
    3.2838    4.6552   -0.7883 H   0  0  0  0  0  0  0  0  0  0  0  0
    2.2286    1.7369    1.9832 H   0  0  0  0  0  0  0  0  0  0  0  0
    0.6159    1.5515    1.2028 H   0  0  0  0  0  0  0  0  0  0  0  0
   -0.1600    3.6026    2.3350 H   0  0  0  0  0  0  0  0  0  0  0  0
    1.4141    3.8709    3.0337 H   0  0  0  0  0  0  0  0  0  0  0  0
   -0.4830    1.5248    3.5329 H   0  0  0  0  0  0  0  0  0  0  0  0
   -0.0998    2.7859    4.6996 H   0  0  0  0  0  0  0  0  0  0  0  0
    2.1925    2.6266    5.8843 H   0  0  0  0  0  0  0  0  0  0  0  0
    2.9307    2.8066    4.2926 H   0  0  0  0  0  0  0  0  0  0  0  0
    4.5252    1.6877    5.7776 H   0  0  0  0  0  0  0  0  0  0  0  0
    4.0634    0.6549    4.4472 H   0  0  0  0  0  0  0  0  0  0  0  0
    4.1140    0.9691    8.0000 H   0  0  0  0  0  0  0  0  0  0  0  0
    3.0019   -0.3408    8.3457 H   0  0  0  0  0  0  0  0  0  0  0  0
    2.3694    1.2234    7.7953 H   0  0  0  0  0  0  0  0  0  0  0  0
    1.7015   -1.3290    6.5761 H   0  0  0  0  0  0  0  0  0  0  0  0
    2.3605   -1.2665    4.9602 H   0  0  0  0  0  0  0  0  0  0  0  0
    0.4933    0.7969    6.2386 H   0  0  0  0  0  0  0  0  0  0  0  0
    0.1602   -0.3033    4.8962 H   0  0  0  0  0  0  0  0  0  0  0  0
  1  2  1  0  0  0  0
  1 49  1  0  0  0  0
  1 50  1  0  0  0  0
  1 51  1  0  0  0  0
  2  3  1  0  0  0  0
  3  4  1  0  0  0  0
  3 37  2  0  0  0  0
  4  5  2  0  0  0  0
  4 52  1  0  0  0  0
  5  6  1  0  0  0  0
  5 35  1  0  0  0  0
  6  7  1  0  0  0  0
  6 32  2  0  0  0  0
  7  8  1  0  0  0  0
  8  9  1  0  0  0  0
  8 30  2  0  0  0  0
  9 10  2  0  0  0  0
  9 53  1  0  0  0  0
 10 11  1  0  0  0  0
 10 54  1  0  0  0  0
 11 12  1  0  0  0  0
 11 29  2  0  0  0  0
 12 13  1  0  0  0  0
 12 55  1  0  0  0  0
 13 14  2  0  0  0  0
 13 15  1  0  0  0  0
 15 16  1  0  0  0  0
 15 27  2  0  0  0  0
 16 17  1  0  0  0  0
 16 56  1  0  0  0  0
 17 18  2  0  0  0  0
 17 19  1  0  0  0  0
 19 20  1  0  0  0  0
 19 27  1  0  0  0  0
 20 21  1  0  0  0  0
 20 25  2  0  0  0  0
 21 22  2  0  0  0  0
 21 57  1  0  0  0  0
 22 23  1  0  0  0  0
 22 58  1  0  0  0  0
 23 24  2  0  0  0  0
 23 59  1  0  0  0  0
 24 25  1  0  0  0  0
 24 60  1  0  0  0  0
 25 26  1  0  0  0  0
 27 28  1  0  0  0  0
 28 61  1  0  0  0  0
 28 62  1  0  0  0  0
 28 63  1  0  0  0  0
 29 30  1  0  0  0  0
 29 64  1  0  0  0  0
 30 31  1  0  0  0  0
 32 33  1  0  0  0  0
 32 65  1  0  0  0  0
 33 34  2  0  0  0  0
 33 66  1  0  0  0  0
 34 35  1  0  0  0  0
 35 36  2  0  0  0  0
 36 37  1  0  0  0  0
 36 67  1  0  0  0  0
 37 38  1  0  0  0  0
 38 39  1  0  0  0  0
 39 40  1  0  0  0  0
 39 68  1  0  0  0  0
 39 69  1  0  0  0  0
 40 41  1  0  0  0  0
 40 70  1  0  0  0  0
 40 71  1  0  0  0  0
 41 42  1  0  0  0  0
 41 72  1  0  0  0  0
 41 73  1  0  0  0  0
 42 43  1  0  0  0  0
 42 48  1  0  0  0  0
 43 44  1  0  0  0  0
 43 74  1  0  0  0  0
 43 75  1  0  0  0  0
 44 45  1  0  0  0  0
 44 76  1  0  0  0  0
 44 77  1  0  0  0  0
 45 46  1  0  0  0  0
 45 47  1  0  0  0  0
 46 78  1  0  0  0  0
 46 79  1  0  0  0  0
 46 80  1  0  0  0  0
 47 48  1  0  0  0  0
 47 81  1  0  0  0  0
 47 82  1  0  0  0  0
 48 83  1  0  0  0  0
 48 84  1  0  0  0  0
M  END
$$$$
