CHEMBL462562
 OpenBabel04072215383D

 56 60  0  0  0  0  0  0  0  0999 V2000
   10.8338   -4.4609   -7.9972 C   0  0  0  0  0  0  0  0  0  0  0  0
    9.5032   -3.9990   -8.2456 O   0  0  0  0  0  0  0  0  0  0  0  0
    8.6507   -4.0845   -7.1758 C   0  0  0  0  0  0  0  0  0  0  0  0
    9.1143   -3.9552   -5.8523 C   0  0  0  0  0  0  0  0  0  0  0  0
    8.2890   -4.1135   -4.7470 C   0  0  0  0  0  0  0  0  0  0  0  0
    8.8504   -4.0621   -3.5269 N   0  0  0  0  0  0  0  0  0  0  0  0
    8.0699   -4.2968   -2.4537 C   0  0  0  0  0  0  0  0  0  0  0  0
    6.7182   -4.5525   -2.5343 C   0  0  0  0  0  0  0  0  0  0  0  0
    6.1251   -4.5680   -3.7960 C   0  0  0  0  0  0  0  0  0  0  0  0
    4.8045   -4.9688   -3.7929 O   0  0  0  0  0  0  0  0  0  0  0  0
    3.8414   -4.3038   -4.5212 C   0  0  0  0  0  0  0  0  0  0  0  0
    2.7214   -5.0732   -4.8560 C   0  0  0  0  0  0  0  0  0  0  0  0
    1.6652   -4.5414   -5.6131 C   0  0  0  0  0  0  0  0  0  0  0  0
    1.7385   -3.1984   -6.0349 C   0  0  0  0  0  0  0  0  0  0  0  0
    0.9103   -2.2965   -6.7803 C   0  0  0  0  0  0  0  0  0  0  0  0
   -0.3272   -2.6069   -7.3228 N   0  0  0  0  0  0  0  0  0  0  0  0
   -1.1517   -1.6955   -7.9545 C   0  0  0  0  0  0  0  0  0  0  0  0
   -0.9192   -0.5046   -8.1447 O   0  0  0  0  0  0  0  0  0  0  0  0
   -2.4468   -2.2066   -8.4962 C   0  0  0  0  0  0  0  0  0  0  0  0
   -2.9347   -1.5471   -9.6462 C   0  0  0  0  0  0  0  0  0  0  0  0
   -4.1454   -1.9090  -10.2410 C   0  0  0  0  0  0  0  0  0  0  0  0
   -4.8998   -2.9362   -9.6758 C   0  0  0  0  0  0  0  0  0  0  0  0
   -4.4406   -3.5941   -8.5313 C   0  0  0  0  0  0  0  0  0  0  0  0
   -3.2193   -3.2335   -7.9380 C   0  0  0  0  0  0  0  0  0  0  0  0
   -2.7808   -4.0894   -6.5011 Cl  0  0  0  0  0  0  0  0  0  0  0  0
    1.4870   -1.0981   -6.8763 N   0  0  0  0  0  0  0  0  0  0  0  0
    2.6290   -1.2053   -6.1919 N   0  0  0  0  0  0  0  0  0  0  0  0
    3.4515   -0.0351   -6.0057 C   0  0  0  0  0  0  0  0  0  0  0  0
    2.8552   -2.4495   -5.6659 C   0  0  0  0  0  0  0  0  0  0  0  0
    3.9152   -2.9612   -4.8989 C   0  0  0  0  0  0  0  0  0  0  0  0
    6.9204   -4.3667   -4.9492 C   0  0  0  0  0  0  0  0  0  0  0  0
    6.4514   -4.4347   -6.2790 C   0  0  0  0  0  0  0  0  0  0  0  0
    7.2901   -4.2880   -7.3894 C   0  0  0  0  0  0  0  0  0  0  0  0
    6.5783   -4.3782   -8.5466 O   0  0  0  0  0  0  0  0  0  0  0  0
    7.2333   -4.5762   -9.7846 C   0  0  0  0  0  0  0  0  0  0  0  0
   11.2640   -4.7898   -8.9475 H   0  0  0  0  0  0  0  0  0  0  0  0
   10.8625   -5.3198   -7.3150 H   0  0  0  0  0  0  0  0  0  0  0  0
   11.4477   -3.6414   -7.6100 H   0  0  0  0  0  0  0  0  0  0  0  0
   10.1596   -3.7439   -5.6522 H   0  0  0  0  0  0  0  0  0  0  0  0
    8.5857   -4.2955   -1.4970 H   0  0  0  0  0  0  0  0  0  0  0  0
    6.1422   -4.7653   -1.6415 H   0  0  0  0  0  0  0  0  0  0  0  0
    2.6707   -6.1104   -4.5303 H   0  0  0  0  0  0  0  0  0  0  0  0
    0.8095   -5.1620   -5.8588 H   0  0  0  0  0  0  0  0  0  0  0  0
   -0.6481   -3.5526   -7.1787 H   0  0  0  0  0  0  0  0  0  0  0  0
   -2.3612   -0.7295  -10.0853 H   0  0  0  0  0  0  0  0  0  0  0  0
   -4.5025   -1.3817  -11.1129 H   0  0  0  0  0  0  0  0  0  0  0  0
   -5.8479   -3.2235  -10.1213 H   0  0  0  0  0  0  0  0  0  0  0  0
   -5.0492   -4.3843   -8.0983 H   0  0  0  0  0  0  0  0  0  0  0  0
    3.0127    0.8117   -6.5395 H   0  0  0  0  0  0  0  0  0  0  0  0
    4.4508   -0.2448   -6.3938 H   0  0  0  0  0  0  0  0  0  0  0  0
    3.4892    0.1818   -4.9351 H   0  0  0  0  0  0  0  0  0  0  0  0
    4.7659   -2.3391   -4.6451 H   0  0  0  0  0  0  0  0  0  0  0  0
    5.4047   -4.6278   -6.4852 H   0  0  0  0  0  0  0  0  0  0  0  0
    6.5076   -5.0630  -10.4433 H   0  0  0  0  0  0  0  0  0  0  0  0
    8.0932   -5.2449   -9.7177 H   0  0  0  0  0  0  0  0  0  0  0  0
    7.4920   -3.6109  -10.2321 H   0  0  0  0  0  0  0  0  0  0  0  0
  1  2  1  0  0  0  0
  1 36  1  0  0  0  0
  1 37  1  0  0  0  0
  1 38  1  0  0  0  0
  2  3  1  0  0  0  0
  3  4  1  0  0  0  0
  3 33  2  0  0  0  0
  4  5  2  0  0  0  0
  4 39  1  0  0  0  0
  5  6  1  0  0  0  0
  5 31  1  0  0  0  0
  6  7  2  0  0  0  0
  7  8  1  0  0  0  0
  7 40  1  0  0  0  0
  8  9  2  0  0  0  0
  8 41  1  0  0  0  0
  9 10  1  0  0  0  0
  9 31  1  0  0  0  0
 10 11  1  0  0  0  0
 11 12  1  0  0  0  0
 11 30  2  0  0  0  0
 12 13  2  0  0  0  0
 12 42  1  0  0  0  0
 13 14  1  0  0  0  0
 13 43  1  0  0  0  0
 14 15  1  0  0  0  0
 14 29  2  0  0  0  0
 15 16  1  0  0  0  0
 15 26  2  0  0  0  0
 16 17  1  0  0  0  0
 16 44  1  0  0  0  0
 17 18  2  0  0  0  0
 17 19  1  0  0  0  0
 19 20  1  0  0  0  0
 19 24  2  0  0  0  0
 20 21  2  0  0  0  0
 20 45  1  0  0  0  0
 21 22  1  0  0  0  0
 21 46  1  0  0  0  0
 22 23  2  0  0  0  0
 22 47  1  0  0  0  0
 23 24  1  0  0  0  0
 23 48  1  0  0  0  0
 24 25  1  0  0  0  0
 26 27  1  0  0  0  0
 27 28  1  0  0  0  0
 27 29  1  0  0  0  0
 28 49  1  0  0  0  0
 28 50  1  0  0  0  0
 28 51  1  0  0  0  0
 29 30  1  0  0  0  0
 30 52  1  0  0  0  0
 31 32  2  0  0  0  0
 32 33  1  0  0  0  0
 32 53  1  0  0  0  0
 33 34  1  0  0  0  0
 34 35  1  0  0  0  0
 35 54  1  0  0  0  0
 35 55  1  0  0  0  0
 35 56  1  0  0  0  0
M  END
$$$$
