CHEMBL3978349
 OpenBabel04072215373D

 63 66  0  0  0  0  0  0  0  0999 V2000
    7.4257   -3.8622   -5.7392 C   0  0  0  0  0  0  0  0  0  0  0  0
    7.5595   -2.6999   -4.9151 O   0  0  0  0  0  0  0  0  0  0  0  0
    6.7508   -1.6273   -5.2109 C   0  0  0  0  0  0  0  0  0  0  0  0
    5.8103   -1.6238   -6.2417 C   0  0  0  0  0  0  0  0  0  0  0  0
    5.0014   -0.5105   -6.4399 C   0  0  0  0  0  0  0  0  0  0  0  0
    4.0234   -0.3929   -7.3910 O   0  0  0  0  0  0  0  0  0  0  0  0
    3.9009   -1.4615   -8.3221 C   0  0  0  0  0  0  0  0  0  0  0  0
    5.1383    0.6047   -5.6059 C   0  0  0  0  0  0  0  0  0  0  0  0
    6.0744    0.6540   -4.5605 C   0  0  0  0  0  0  0  0  0  0  0  0
    6.0873    1.7131   -3.6163 N   0  0  0  0  0  0  0  0  0  0  0  0
    4.7305    2.3320   -3.3008 C   0  0  0  0  0  0  0  0  0  0  0  0
    3.6191    1.3874   -2.8027 C   0  0  0  0  0  0  0  0  0  0  0  0
    3.8896    0.8789   -1.4971 O   0  0  0  0  0  0  0  0  0  0  0  0
    7.0957    2.7165   -3.3424 C   0  0  0  0  0  0  0  0  0  0  0  0
    7.1414    3.1150   -2.0116 C   0  0  0  0  0  0  0  0  0  0  0  0
    7.3500    4.4449   -1.7355 C   0  0  0  0  0  0  0  0  0  0  0  0
    7.7229    5.3214   -2.7137 C   0  0  0  0  0  0  0  0  0  0  0  0
    7.5137    6.5971   -2.3878 N   0  0  0  0  0  0  0  0  0  0  0  0
    8.1399    7.4999   -3.1303 C   0  0  0  0  0  0  0  0  0  0  0  0
    9.1287    7.1365   -4.0220 C   0  0  0  0  0  0  0  0  0  0  0  0
   10.2671    8.0955   -3.9370 C   0  0  0  0  0  0  0  0  0  0  0  0
   10.1179    9.5228   -3.8689 C   0  0  0  0  0  0  0  0  0  0  0  0
   10.9829   10.1175   -3.0461 N   0  0  0  0  0  0  0  0  0  0  0  0
   11.6781    9.0962   -2.5236 N   0  0  0  0  0  0  0  0  0  0  0  0
   12.4682    9.3347   -1.3291 C   0  0  0  0  0  0  0  0  0  0  0  0
   11.3858    7.8825   -3.1198 C   0  0  0  0  0  0  0  0  0  0  0  0
   12.1326    6.6363   -2.7831 C   0  0  0  0  0  0  0  0  0  0  0  0
   13.0096    6.1775   -3.9508 C   0  0  0  0  0  0  0  0  0  0  0  0
   14.1459    7.1431   -4.2852 C   0  0  0  0  0  0  0  0  0  0  0  0
   14.9607    6.5970   -5.3170 O   0  0  0  0  0  0  0  0  0  0  0  0
    9.1653    5.8374   -4.5107 N   0  0  0  0  0  0  0  0  0  0  0  0
    8.2956    4.8886   -3.9014 C   0  0  0  0  0  0  0  0  0  0  0  0
    7.8209    3.5433   -4.2634 C   0  0  0  0  0  0  0  0  0  0  0  0
    6.8838   -0.4880   -4.3844 C   0  0  0  0  0  0  0  0  0  0  0  0
    8.1119   -4.6319   -5.3714 H   0  0  0  0  0  0  0  0  0  0  0  0
    7.7020   -3.6453   -6.7777 H   0  0  0  0  0  0  0  0  0  0  0  0
    6.4128   -4.2796   -5.6859 H   0  0  0  0  0  0  0  0  0  0  0  0
    5.6974   -2.4891   -6.8806 H   0  0  0  0  0  0  0  0  0  0  0  0
    3.1381   -1.1814   -9.0541 H   0  0  0  0  0  0  0  0  0  0  0  0
    3.5670   -2.3785   -7.8248 H   0  0  0  0  0  0  0  0  0  0  0  0
    4.8384   -1.6249   -8.8643 H   0  0  0  0  0  0  0  0  0  0  0  0
    4.4679    1.4395   -5.7835 H   0  0  0  0  0  0  0  0  0  0  0  0
    4.3803    2.8931   -4.1738 H   0  0  0  0  0  0  0  0  0  0  0  0
    4.8162    3.0738   -2.4966 H   0  0  0  0  0  0  0  0  0  0  0  0
    3.4014    0.5598   -3.4813 H   0  0  0  0  0  0  0  0  0  0  0  0
    2.6961    1.9759   -2.7121 H   0  0  0  0  0  0  0  0  0  0  0  0
    3.7366   -0.0818   -1.5295 H   0  0  0  0  0  0  0  0  0  0  0  0
    6.7437    2.4749   -1.2355 H   0  0  0  0  0  0  0  0  0  0  0  0
    7.1417    4.8287   -0.7446 H   0  0  0  0  0  0  0  0  0  0  0  0
    7.9733    8.5246   -2.8158 H   0  0  0  0  0  0  0  0  0  0  0  0
    9.3101   10.1311   -4.2576 H   0  0  0  0  0  0  0  0  0  0  0  0
   12.3161   10.3611   -0.9783 H   0  0  0  0  0  0  0  0  0  0  0  0
   13.5226    9.1742   -1.5619 H   0  0  0  0  0  0  0  0  0  0  0  0
   12.1349    8.6485   -0.5434 H   0  0  0  0  0  0  0  0  0  0  0  0
   11.4174    5.8476   -2.5282 H   0  0  0  0  0  0  0  0  0  0  0  0
   12.7640    6.7716   -1.8971 H   0  0  0  0  0  0  0  0  0  0  0  0
   12.4007    6.0180   -4.8493 H   0  0  0  0  0  0  0  0  0  0  0  0
   13.4384    5.1993   -3.7034 H   0  0  0  0  0  0  0  0  0  0  0  0
   14.7818    7.3303   -3.4139 H   0  0  0  0  0  0  0  0  0  0  0  0
   13.7663    8.1052   -4.6428 H   0  0  0  0  0  0  0  0  0  0  0  0
   15.2739    5.7265   -5.0193 H   0  0  0  0  0  0  0  0  0  0  0  0
    7.9490    3.2041   -5.2903 H   0  0  0  0  0  0  0  0  0  0  0  0
    7.5827   -0.5288   -3.5510 H   0  0  0  0  0  0  0  0  0  0  0  0
  1  2  1  0  0  0  0
  1 35  1  0  0  0  0
  1 36  1  0  0  0  0
  1 37  1  0  0  0  0
  2  3  1  0  0  0  0
  3  4  1  0  0  0  0
  3 34  2  0  0  0  0
  4  5  2  0  0  0  0
  4 38  1  0  0  0  0
  5  6  1  0  0  0  0
  5  8  1  0  0  0  0
  6  7  1  0  0  0  0
  7 39  1  0  0  0  0
  7 40  1  0  0  0  0
  7 41  1  0  0  0  0
  8  9  2  0  0  0  0
  8 42  1  0  0  0  0
  9 10  1  0  0  0  0
  9 34  1  0  0  0  0
 10 11  1  0  0  0  0
 10 14  1  0  0  0  0
 11 12  1  0  0  0  0
 11 43  1  0  0  0  0
 11 44  1  0  0  0  0
 12 13  1  0  0  0  0
 12 45  1  0  0  0  0
 12 46  1  0  0  0  0
 13 47  1  0  0  0  0
 14 15  1  0  0  0  0
 14 33  2  0  0  0  0
 15 16  2  0  0  0  0
 15 48  1  0  0  0  0
 16 17  1  0  0  0  0
 16 49  1  0  0  0  0
 17 18  1  0  0  0  0
 17 32  2  0  0  0  0
 18 19  2  0  0  0  0
 19 20  1  0  0  0  0
 19 50  1  0  0  0  0
 20 21  1  0  0  0  0
 20 31  2  0  0  0  0
 21 22  1  0  0  0  0
 21 26  2  0  0  0  0
 22 23  2  0  0  0  0
 22 51  1  0  0  0  0
 23 24  1  0  0  0  0
 24 25  1  0  0  0  0
 24 26  1  0  0  0  0
 25 52  1  0  0  0  0
 25 53  1  0  0  0  0
 25 54  1  0  0  0  0
 26 27  1  0  0  0  0
 27 28  1  0  0  0  0
 27 55  1  0  0  0  0
 27 56  1  0  0  0  0
 28 29  1  0  0  0  0
 28 57  1  0  0  0  0
 28 58  1  0  0  0  0
 29 30  1  0  0  0  0
 29 59  1  0  0  0  0
 29 60  1  0  0  0  0
 30 61  1  0  0  0  0
 31 32  1  0  0  0  0
 32 33  1  0  0  0  0
 33 62  1  0  0  0  0
 34 63  1  0  0  0  0
M  END
$$$$
