CHEMBL4639539
 OpenBabel04072215383D

 73 78  0  0  0  0  0  0  0  0999 V2000
   19.3508   -2.3104   -5.6833 C   0  0  0  0  0  0  0  0  0  0  0  0
   18.1127   -1.8129   -5.1710 O   0  0  0  0  0  0  0  0  0  0  0  0
   18.2670   -1.1035   -4.0278 C   0  0  0  0  0  0  0  0  0  0  0  0
   19.3200   -0.8701   -3.4626 O   0  0  0  0  0  0  0  0  0  0  0  0
   16.9459   -0.6546   -3.5001 C   0  0  0  0  0  0  0  0  0  0  0  0
   15.7086   -0.9445   -4.1202 C   0  0  0  0  0  0  0  0  0  0  0  0
   14.4861   -0.5617   -3.5278 C   0  0  0  0  0  0  0  0  0  0  0  0
   14.5174    0.0974   -2.3063 C   0  0  0  0  0  0  0  0  0  0  0  0
   15.7625    0.3817   -1.7287 C   0  0  0  0  0  0  0  0  0  0  0  0
   16.9728    0.0440   -2.2920 C   0  0  0  0  0  0  0  0  0  0  0  0
   15.6199    0.9692   -0.4791 N   0  0  0  0  0  0  0  0  0  0  0  0
   14.2905    1.0272   -0.1153 C   0  0  0  0  0  0  0  0  0  0  0  0
   13.9012    1.2549    1.0157 O   0  0  0  0  0  0  0  0  0  0  0  0
   13.5109    0.6087   -1.3503 C   0  0  0  0  0  0  0  0  0  0  0  0
   12.1655    0.7037   -1.3831 C   0  0  0  0  0  0  0  0  0  0  0  0
   11.3702    1.3344   -0.4323 N   0  0  0  0  0  0  0  0  0  0  0  0
   11.4947    2.6360    0.0932 C   0  0  0  0  0  0  0  0  0  0  0  0
   10.9161    2.9166    1.3274 C   0  0  0  0  0  0  0  0  0  0  0  0
   11.0504    4.1804    1.9152 C   0  0  0  0  0  0  0  0  0  0  0  0
   11.7527    5.1828    1.2467 C   0  0  0  0  0  0  0  0  0  0  0  0
   11.8289    6.5093    1.8201 N   0  0  0  0  0  0  0  0  0  0  0  0
   11.3007    6.8789    3.0537 C   0  0  0  0  0  0  0  0  0  0  0  0
   11.5193    8.2143    3.2852 C   0  0  0  0  0  0  0  0  0  0  0  0
   12.1873    8.7115    2.1590 C   0  0  0  0  0  0  0  0  0  0  0  0
   12.4001    7.6648    1.2683 C   0  0  0  0  0  0  0  0  0  0  0  0
   13.0574    7.7300   -0.0851 C   0  0  0  0  0  0  0  0  0  0  0  0
   13.9504    8.8997   -0.2206 N   0  0  0  0  0  0  0  0  0  0  0  0
   15.1527    8.7740    0.6292 C   0  0  0  0  0  0  0  0  0  0  0  0
   16.0657   10.0124    0.4822 C   0  0  0  0  0  0  0  0  0  0  0  0
   16.5110   10.2925   -0.8979 N   0  0  0  0  0  0  0  0  0  0  0  0
   17.5373    9.3464   -1.3272 C   0  0  0  0  0  0  0  0  0  0  0  0
   15.3380   10.2751   -1.7973 C   0  0  0  0  0  0  0  0  0  0  0  0
   14.3795    9.0694   -1.6227 C   0  0  0  0  0  0  0  0  0  0  0  0
   12.3516    4.9316    0.0566 N   0  0  0  0  0  0  0  0  0  0  0  0
   12.2355    3.6733   -0.4660 C   0  0  0  0  0  0  0  0  0  0  0  0
   11.3846   -0.0409   -2.3969 C   0  0  0  0  0  0  0  0  0  0  0  0
   10.9556   -1.3457   -2.1021 C   0  0  0  0  0  0  0  0  0  0  0  0
   10.1945   -2.0739   -3.0226 C   0  0  0  0  0  0  0  0  0  0  0  0
    9.8567   -1.5001   -4.2452 C   0  0  0  0  0  0  0  0  0  0  0  0
   10.2658   -0.2015   -4.5473 C   0  0  0  0  0  0  0  0  0  0  0  0
   11.0233    0.5312   -3.6236 C   0  0  0  0  0  0  0  0  0  0  0  0
   19.1601   -2.7444   -6.6704 H   0  0  0  0  0  0  0  0  0  0  0  0
   19.7414   -3.0930   -5.0271 H   0  0  0  0  0  0  0  0  0  0  0  0
   20.0803   -1.5034   -5.7999 H   0  0  0  0  0  0  0  0  0  0  0  0
   15.6830   -1.4908   -5.0610 H   0  0  0  0  0  0  0  0  0  0  0  0
   13.5513   -0.8127   -4.0152 H   0  0  0  0  0  0  0  0  0  0  0  0
   17.9052    0.2770   -1.7921 H   0  0  0  0  0  0  0  0  0  0  0  0
   16.3618    1.1501    0.1771 H   0  0  0  0  0  0  0  0  0  0  0  0
   10.4447    0.9306   -0.3044 H   0  0  0  0  0  0  0  0  0  0  0  0
   10.3865    2.1391    1.8724 H   0  0  0  0  0  0  0  0  0  0  0  0
   10.5856    4.3278    2.8811 H   0  0  0  0  0  0  0  0  0  0  0  0
   10.8019    6.1700    3.6954 H   0  0  0  0  0  0  0  0  0  0  0  0
   11.2186    8.7653    4.1663 H   0  0  0  0  0  0  0  0  0  0  0  0
   12.5074    9.7344    1.9990 H   0  0  0  0  0  0  0  0  0  0  0  0
   12.2441    7.8206   -0.8185 H   0  0  0  0  0  0  0  0  0  0  0  0
   13.6291    6.8298   -0.3172 H   0  0  0  0  0  0  0  0  0  0  0  0
   15.7101    7.8617    0.3816 H   0  0  0  0  0  0  0  0  0  0  0  0
   14.8811    8.6982    1.6870 H   0  0  0  0  0  0  0  0  0  0  0  0
   16.9322    9.9105    1.1470 H   0  0  0  0  0  0  0  0  0  0  0  0
   15.5194   10.8930    0.8471 H   0  0  0  0  0  0  0  0  0  0  0  0
   18.4022    9.3952   -0.6556 H   0  0  0  0  0  0  0  0  0  0  0  0
   17.9048    9.6123   -2.3240 H   0  0  0  0  0  0  0  0  0  0  0  0
   17.1883    8.3097   -1.3573 H   0  0  0  0  0  0  0  0  0  0  0  0
   15.6642   10.3355   -2.8435 H   0  0  0  0  0  0  0  0  0  0  0  0
   14.7672   11.1955   -1.6155 H   0  0  0  0  0  0  0  0  0  0  0  0
   14.8708    8.1580   -1.9887 H   0  0  0  0  0  0  0  0  0  0  0  0
   13.5024    9.2404   -2.2585 H   0  0  0  0  0  0  0  0  0  0  0  0
   12.7712    3.5382   -1.4000 H   0  0  0  0  0  0  0  0  0  0  0  0
   11.2087   -1.7995   -1.1457 H   0  0  0  0  0  0  0  0  0  0  0  0
    9.8668   -3.0786   -2.7826 H   0  0  0  0  0  0  0  0  0  0  0  0
    9.2636   -2.0655   -4.9623 H   0  0  0  0  0  0  0  0  0  0  0  0
    9.9924    0.2420   -5.4990 H   0  0  0  0  0  0  0  0  0  0  0  0
   11.3229    1.5494   -3.8665 H   0  0  0  0  0  0  0  0  0  0  0  0
  1  2  1  0  0  0  0
  1 42  1  0  0  0  0
  1 43  1  0  0  0  0
  1 44  1  0  0  0  0
  2  3  1  0  0  0  0
  3  4  2  0  0  0  0
  3  5  1  0  0  0  0
  5  6  1  0  0  0  0
  5 10  2  0  0  0  0
  6  7  2  0  0  0  0
  6 45  1  0  0  0  0
  7  8  1  0  0  0  0
  7 46  1  0  0  0  0
  8  9  2  0  0  0  0
  8 14  1  0  0  0  0
  9 10  1  0  0  0  0
  9 11  1  0  0  0  0
 10 47  1  0  0  0  0
 11 12  1  0  0  0  0
 11 48  1  0  0  0  0
 12 13  2  0  0  0  0
 12 14  1  0  0  0  0
 14 15  2  0  0  0  0
 15 16  1  0  0  0  0
 15 36  1  0  0  0  0
 16 17  1  0  0  0  0
 16 49  1  0  0  0  0
 17 18  1  0  0  0  0
 17 35  2  0  0  0  0
 18 19  2  0  0  0  0
 18 50  1  0  0  0  0
 19 20  1  0  0  0  0
 19 51  1  0  0  0  0
 20 21  1  0  0  0  0
 20 34  2  0  0  0  0
 21 22  1  0  0  0  0
 21 25  1  0  0  0  0
 22 23  2  0  0  0  0
 22 52  1  0  0  0  0
 23 24  1  0  0  0  0
 23 53  1  0  0  0  0
 24 25  2  0  0  0  0
 24 54  1  0  0  0  0
 25 26  1  0  0  0  0
 26 27  1  0  0  0  0
 26 55  1  0  0  0  0
 26 56  1  0  0  0  0
 27 28  1  0  0  0  0
 27 33  1  0  0  0  0
 28 29  1  0  0  0  0
 28 57  1  0  0  0  0
 28 58  1  0  0  0  0
 29 30  1  0  0  0  0
 29 59  1  0  0  0  0
 29 60  1  0  0  0  0
 30 31  1  0  0  0  0
 30 32  1  0  0  0  0
 31 61  1  0  0  0  0
 31 62  1  0  0  0  0
 31 63  1  0  0  0  0
 32 33  1  0  0  0  0
 32 64  1  0  0  0  0
 32 65  1  0  0  0  0
 33 66  1  0  0  0  0
 33 67  1  0  0  0  0
 34 35  1  0  0  0  0
 35 68  1  0  0  0  0
 36 37  1  0  0  0  0
 36 41  2  0  0  0  0
 37 38  2  0  0  0  0
 37 69  1  0  0  0  0
 38 39  1  0  0  0  0
 38 70  1  0  0  0  0
 39 40  2  0  0  0  0
 39 71  1  0  0  0  0
 40 41  1  0  0  0  0
 40 72  1  0  0  0  0
 41 73  1  0  0  0  0
M  END
$$$$
