CHEMBL4462301
 OpenBabel04072215383D

 45 48  0  0  0  0  0  0  0  0999 V2000
    8.9457    0.4711    0.2648 C   0  0  0  0  0  0  0  0  0  0  0  0
    9.4027    1.6569    0.9084 O   0  0  0  0  0  0  0  0  0  0  0  0
    8.7169    2.8139    0.6624 C   0  0  0  0  0  0  0  0  0  0  0  0
    7.5995    2.9456   -0.1568 C   0  0  0  0  0  0  0  0  0  0  0  0
    7.0014    4.2022   -0.3444 C   0  0  0  0  0  0  0  0  0  0  0  0
    7.5067    5.3552    0.2820 C   0  0  0  0  0  0  0  0  0  0  0  0
    6.9407    6.7205   -0.0631 C   0  0  0  0  0  0  0  0  0  0  0  0
    6.5467    7.6219    1.1035 C   0  0  0  0  0  0  0  0  0  0  0  0
    7.3318    8.4283    1.5983 O   0  0  0  0  0  0  0  0  0  0  0  0
    5.2443    7.4202    1.5376 N   0  0  0  0  0  0  0  0  0  0  0  0
    4.6749    8.0721    2.6560 C   0  0  0  0  0  0  0  0  0  0  0  0
    4.0459    7.2317    3.5860 C   0  0  0  0  0  0  0  0  0  0  0  0
    3.4475    7.7336    4.7376 C   0  0  0  0  0  0  0  0  0  0  0  0
    3.4725    9.1127    4.8683 C   0  0  0  0  0  0  0  0  0  0  0  0
    2.9508    9.7988    5.9109 O   0  0  0  0  0  0  0  0  0  0  0  0
    3.2419   11.1101    5.6434 C   0  0  0  0  0  0  0  0  0  0  0  0
    2.8881   12.0159    6.7445 C   0  0  0  0  0  0  0  0  0  0  0  0
    2.7200   11.4845    8.0416 C   0  0  0  0  0  0  0  0  0  0  0  0
    2.4432   12.2982    9.1414 C   0  0  0  0  0  0  0  0  0  0  0  0
    2.3168   13.6685    8.9600 C   0  0  0  0  0  0  0  0  0  0  0  0
    2.0166   14.6783   10.3178 Cl  0  0  0  0  0  0  0  0  0  0  0  0
    2.4449   14.2187    7.6826 C   0  0  0  0  0  0  0  0  0  0  0  0
    2.7331   13.3972    6.5768 C   0  0  0  0  0  0  0  0  0  0  0  0
    3.8517   11.2960    4.4793 N   0  0  0  0  0  0  0  0  0  0  0  0
    4.0446   10.0103    3.9888 C   0  0  0  0  0  0  0  0  0  0  0  0
    4.6868    9.4785    2.8411 C   0  0  0  0  0  0  0  0  0  0  0  0
    8.6285    5.2105    1.1048 C   0  0  0  0  0  0  0  0  0  0  0  0
    9.2244    3.9532    1.2927 C   0  0  0  0  0  0  0  0  0  0  0  0
    9.5736   -0.3609    0.6032 H   0  0  0  0  0  0  0  0  0  0  0  0
    9.0530    0.5463   -0.8234 H   0  0  0  0  0  0  0  0  0  0  0  0
    7.9100    0.2409    0.5453 H   0  0  0  0  0  0  0  0  0  0  0  0
    7.1792    2.0939   -0.6830 H   0  0  0  0  0  0  0  0  0  0  0  0
    6.1517    4.2683   -1.0209 H   0  0  0  0  0  0  0  0  0  0  0  0
    6.0628    6.6048   -0.7115 H   0  0  0  0  0  0  0  0  0  0  0  0
    7.6850    7.2580   -0.6633 H   0  0  0  0  0  0  0  0  0  0  0  0
    4.8908    6.4897    1.3460 H   0  0  0  0  0  0  0  0  0  0  0  0
    4.0726    6.1525    3.4536 H   0  0  0  0  0  0  0  0  0  0  0  0
    3.0084    7.0952    5.4942 H   0  0  0  0  0  0  0  0  0  0  0  0
    2.8259   10.4140    8.2136 H   0  0  0  0  0  0  0  0  0  0  0  0
    2.3417   11.8525   10.1271 H   0  0  0  0  0  0  0  0  0  0  0  0
    2.3313   15.2919    7.5449 H   0  0  0  0  0  0  0  0  0  0  0  0
    2.8344   13.8491    5.5921 H   0  0  0  0  0  0  0  0  0  0  0  0
    5.1455   10.1452    2.1187 H   0  0  0  0  0  0  0  0  0  0  0  0
    9.0777    6.0780    1.5847 H   0  0  0  0  0  0  0  0  0  0  0  0
   10.1098    3.8656    1.9204 H   0  0  0  0  0  0  0  0  0  0  0  0
  1  2  1  0  0  0  0
  1 29  1  0  0  0  0
  1 30  1  0  0  0  0
  1 31  1  0  0  0  0
  2  3  1  0  0  0  0
  3  4  1  0  0  0  0
  3 28  2  0  0  0  0
  4  5  2  0  0  0  0
  4 32  1  0  0  0  0
  5  6  1  0  0  0  0
  5 33  1  0  0  0  0
  6  7  1  0  0  0  0
  6 27  2  0  0  0  0
  7  8  1  0  0  0  0
  7 34  1  0  0  0  0
  7 35  1  0  0  0  0
  8  9  2  0  0  0  0
  8 10  1  0  0  0  0
 10 11  1  0  0  0  0
 10 36  1  0  0  0  0
 11 12  1  0  0  0  0
 11 26  2  0  0  0  0
 12 13  2  0  0  0  0
 12 37  1  0  0  0  0
 13 14  1  0  0  0  0
 13 38  1  0  0  0  0
 14 15  1  0  0  0  0
 14 25  2  0  0  0  0
 15 16  1  0  0  0  0
 16 17  1  0  0  0  0
 16 24  2  0  0  0  0
 17 18  1  0  0  0  0
 17 23  2  0  0  0  0
 18 19  2  0  0  0  0
 18 39  1  0  0  0  0
 19 20  1  0  0  0  0
 19 40  1  0  0  0  0
 20 21  1  0  0  0  0
 20 22  2  0  0  0  0
 22 23  1  0  0  0  0
 22 41  1  0  0  0  0
 23 42  1  0  0  0  0
 24 25  1  0  0  0  0
 25 26  1  0  0  0  0
 26 43  1  0  0  0  0
 27 28  1  0  0  0  0
 27 44  1  0  0  0  0
 28 45  1  0  0  0  0
M  END
$$$$
