CHEMBL4068255
 OpenBabel04072215383D

 44 48  0  0  1  0  0  0  0  0999 V2000
    1.7105   -0.7816    0.0539 C   0  0  0  0  0  0  0  0  0  0  0  0
    2.7955    0.2334    0.3855 C   0  0  1  0  0  0  0  0  0  0  0  0
    2.6311    0.9378    1.7163 C   0  0  0  0  0  0  0  0  0  0  0  0
    2.9104    0.2619    2.9015 C   0  0  0  0  0  0  0  0  0  0  0  0
    3.3804    0.9864    3.9909 C   0  0  0  0  0  0  0  0  0  0  0  0
    4.0453    0.3238    5.0208 C   0  0  0  0  0  0  0  0  0  0  0  0
    4.7013    1.0697    5.9841 C   0  0  0  0  0  0  0  0  0  0  0  0
    4.5915    2.4488    5.9279 C   0  0  0  0  0  0  0  0  0  0  0  0
    3.8867    3.1179    4.9871 N   0  0  0  0  0  0  0  0  0  0  0  0
    3.3279    2.3980    4.0024 C   0  0  0  0  0  0  0  0  0  0  0  0
    2.7622    3.0424    2.9167 C   0  0  0  0  0  0  0  0  0  0  0  0
    2.4616    2.3236    1.7666 C   0  0  0  0  0  0  0  0  0  0  0  0
    2.1011    2.9927    0.6619 F   0  0  0  0  0  0  0  0  0  0  0  0
    4.1983   -0.1864    0.2083 N   0  0  0  0  0  0  0  0  0  0  0  0
    5.0570    0.5734   -0.5681 C   0  0  0  0  0  0  0  0  0  0  0  0
    6.3106    0.2084   -0.4602 N   0  0  0  0  0  0  0  0  0  0  0  0
    6.2880   -0.8091    0.4357 C   0  0  0  0  0  0  0  0  0  0  0  0
    7.3913   -1.4357    0.9033 N   0  0  0  0  0  0  0  0  0  0  0  0
    7.1007   -2.3725    1.8310 C   0  0  0  0  0  0  0  0  0  0  0  0
    5.8139   -2.6970    2.2697 C   0  0  0  0  0  0  0  0  0  0  0  0
    5.6537   -3.7192    3.2854 C   0  0  0  0  0  0  0  0  0  0  0  0
    4.7317   -4.7852    3.3698 C   0  0  0  0  0  0  0  0  0  0  0  0
    4.9240   -5.5583    4.4442 N   0  0  0  0  0  0  0  0  0  0  0  0
    5.9649   -4.9831    5.0707 N   0  0  0  0  0  0  0  0  0  0  0  0
    6.4072   -5.4860    6.3512 C   0  0  0  0  0  0  0  0  0  0  0  0
    6.4683   -3.9038    4.3932 C   0  0  0  0  0  0  0  0  0  0  0  0
    4.6801   -2.0916    1.7740 N   0  0  0  0  0  0  0  0  0  0  0  0
    4.9896   -1.1211    0.8643 C   0  0  0  0  0  0  0  0  0  0  0  0
    0.7577   -0.2509   -0.0899 H   0  0  0  0  0  0  0  0  0  0  0  0
    1.5537   -1.5177    0.8450 H   0  0  0  0  0  0  0  0  0  0  0  0
    1.9308   -1.3044   -0.8824 H   0  0  0  0  0  0  0  0  0  0  0  0
    2.6636    1.0026   -0.3902 H   0  0  0  0  0  0  0  0  0  0  0  0
    2.9608   -0.8241    2.9135 H   0  0  0  0  0  0  0  0  0  0  0  0
    4.1358   -0.7607    5.0221 H   0  0  0  0  0  0  0  0  0  0  0  0
    5.3153    0.5902    6.7370 H   0  0  0  0  0  0  0  0  0  0  0  0
    5.1121    3.0764    6.6457 H   0  0  0  0  0  0  0  0  0  0  0  0
    2.6749    4.1249    2.9118 H   0  0  0  0  0  0  0  0  0  0  0  0
    4.7111    1.4113   -1.1609 H   0  0  0  0  0  0  0  0  0  0  0  0
    7.9709   -2.8844    2.2219 H   0  0  0  0  0  0  0  0  0  0  0  0
    3.9368   -5.0378    2.6806 H   0  0  0  0  0  0  0  0  0  0  0  0
    5.7655   -6.3164    6.6630 H   0  0  0  0  0  0  0  0  0  0  0  0
    6.3343   -4.6743    7.0785 H   0  0  0  0  0  0  0  0  0  0  0  0
    7.4411   -5.8290    6.2615 H   0  0  0  0  0  0  0  0  0  0  0  0
    7.3276   -3.3619    4.7725 H   0  0  0  0  0  0  0  0  0  0  0  0
  1  2  1  0  0  0  0
  1 29  1  0  0  0  0
  1 30  1  0  0  0  0
  1 31  1  0  0  0  0
  2  3  1  0  0  0  0
  2 14  1  0  0  0  0
  2 32  1  6  0  0  0
  3  4  1  0  0  0  0
  3 12  2  0  0  0  0
  4  5  2  0  0  0  0
  4 33  1  0  0  0  0
  5  6  1  0  0  0  0
  5 10  1  0  0  0  0
  6  7  2  0  0  0  0
  6 34  1  0  0  0  0
  7  8  1  0  0  0  0
  7 35  1  0  0  0  0
  8  9  2  0  0  0  0
  8 36  1  0  0  0  0
  9 10  1  0  0  0  0
 10 11  2  0  0  0  0
 11 12  1  0  0  0  0
 11 37  1  0  0  0  0
 12 13  1  0  0  0  0
 14 15  1  0  0  0  0
 14 28  1  0  0  0  0
 15 16  2  0  0  0  0
 15 38  1  0  0  0  0
 16 17  1  0  0  0  0
 17 18  1  0  0  0  0
 17 28  2  0  0  0  0
 18 19  2  0  0  0  0
 19 20  1  0  0  0  0
 19 39  1  0  0  0  0
 20 21  1  0  0  0  0
 20 27  2  0  0  0  0
 21 22  1  0  0  0  0
 21 26  2  0  0  0  0
 22 23  2  0  0  0  0
 22 40  1  0  0  0  0
 23 24  1  0  0  0  0
 24 25  1  0  0  0  0
 24 26  1  0  0  0  0
 25 41  1  0  0  0  0
 25 42  1  0  0  0  0
 25 43  1  0  0  0  0
 26 44  1  0  0  0  0
 27 28  1  0  0  0  0
M  END
$$$$
