CHEMBL3690441
 OpenBabel04072215373D

 46 49  0  0  0  0  0  0  0  0999 V2000
    2.4731    0.8408    1.1544 O   0  0  0  0  0  0  0  0  0  0  0  0
    2.1817   -0.1969    0.5765 C   0  0  0  0  0  0  0  0  0  0  0  0
    0.8787   -0.4670    0.2136 N   0  0  0  0  0  0  0  0  0  0  0  0
   -0.1791    0.4426    0.6726 C   0  0  0  0  0  0  0  0  0  0  0  0
   -0.7062    0.1609    2.0861 C   0  0  0  0  0  0  0  0  0  0  0  0
   -0.1215   -0.9313    2.6333 F   0  0  0  0  0  0  0  0  0  0  0  0
   -0.5225    1.2006    2.9233 F   0  0  0  0  0  0  0  0  0  0  0  0
   -2.0386   -0.0952    2.0399 F   0  0  0  0  0  0  0  0  0  0  0  0
    3.0337   -1.2069    0.1866 N   0  0  0  0  0  0  0  0  0  0  0  0
    4.4329   -1.2564    0.3763 C   0  0  0  0  0  0  0  0  0  0  0  0
    5.1505   -0.2414    1.0079 C   0  0  0  0  0  0  0  0  0  0  0  0
    6.5382   -0.3032    1.0874 C   0  0  0  0  0  0  0  0  0  0  0  0
    7.2186   -1.3934    0.5619 C   0  0  0  0  0  0  0  0  0  0  0  0
    6.5234   -2.4904    0.0297 C   0  0  0  0  0  0  0  0  0  0  0  0
    7.2346   -3.7153   -0.3717 C   0  0  0  0  0  0  0  0  0  0  0  0
    6.9570   -4.6100   -1.3954 C   0  0  0  0  0  0  0  0  0  0  0  0
    7.8589   -5.6382   -1.4468 N   0  0  0  0  0  0  0  0  0  0  0  0
    8.7000   -5.4082   -0.4627 C   0  0  0  0  0  0  0  0  0  0  0  0
    9.8503   -6.1385   -0.0363 C   0  0  0  0  0  0  0  0  0  0  0  0
   10.5783   -5.7138    1.0206 C   0  0  0  0  0  0  0  0  0  0  0  0
   11.7485   -6.5000    1.4300 C   0  0  0  0  0  0  0  0  0  0  0  0
   13.0123   -6.2512    0.8900 C   0  0  0  0  0  0  0  0  0  0  0  0
   14.1050   -6.9901    1.3356 C   0  0  0  0  0  0  0  0  0  0  0  0
   13.8953   -7.9509    2.3139 C   0  0  0  0  0  0  0  0  0  0  0  0
   12.6905   -8.2144    2.8643 N   0  0  0  0  0  0  0  0  0  0  0  0
   11.6462   -7.4830    2.4112 C   0  0  0  0  0  0  0  0  0  0  0  0
   10.1767   -4.5172    1.7531 C   0  0  0  0  0  0  0  0  0  0  0  0
    9.0795   -3.8452    1.3754 C   0  0  0  0  0  0  0  0  0  0  0  0
    8.3559   -4.2639    0.2524 N   0  0  0  0  0  0  0  0  0  0  0  0
    5.1276   -2.3864   -0.0983 C   0  0  0  0  0  0  0  0  0  0  0  0
    0.6319   -1.4456    0.1759 H   0  0  0  0  0  0  0  0  0  0  0  0
   -0.9949    0.3513   -0.0512 H   0  0  0  0  0  0  0  0  0  0  0  0
    0.1859    1.4751    0.6190 H   0  0  0  0  0  0  0  0  0  0  0  0
    2.6276   -1.9483   -0.3622 H   0  0  0  0  0  0  0  0  0  0  0  0
    4.6656    0.6307    1.4328 H   0  0  0  0  0  0  0  0  0  0  0  0
    7.0876    0.5073    1.5594 H   0  0  0  0  0  0  0  0  0  0  0  0
    8.3029   -1.3720    0.5839 H   0  0  0  0  0  0  0  0  0  0  0  0
    6.1498   -4.5568   -2.1135 H   0  0  0  0  0  0  0  0  0  0  0  0
   10.1032   -7.0387   -0.5881 H   0  0  0  0  0  0  0  0  0  0  0  0
   13.1506   -5.4837    0.1328 H   0  0  0  0  0  0  0  0  0  0  0  0
   15.0973   -6.8196    0.9348 H   0  0  0  0  0  0  0  0  0  0  0  0
   14.7180   -8.5504    2.6938 H   0  0  0  0  0  0  0  0  0  0  0  0
   10.6932   -7.7127    2.8801 H   0  0  0  0  0  0  0  0  0  0  0  0
   10.7686   -4.1928    2.6041 H   0  0  0  0  0  0  0  0  0  0  0  0
    8.7401   -2.9816    1.9258 H   0  0  0  0  0  0  0  0  0  0  0  0
    4.5705   -3.2017   -0.5515 H   0  0  0  0  0  0  0  0  0  0  0  0
  1  2  2  0  0  0  0
  2  3  1  0  0  0  0
  2  9  1  0  0  0  0
  3  4  1  0  0  0  0
  3 31  1  0  0  0  0
  4  5  1  0  0  0  0
  4 32  1  0  0  0  0
  4 33  1  0  0  0  0
  5  6  1  0  0  0  0
  5  7  1  0  0  0  0
  5  8  1  0  0  0  0
  9 10  1  0  0  0  0
  9 34  1  0  0  0  0
 10 11  1  0  0  0  0
 10 30  2  0  0  0  0
 11 12  2  0  0  0  0
 11 35  1  0  0  0  0
 12 13  1  0  0  0  0
 12 36  1  0  0  0  0
 13 14  2  0  0  0  0
 13 37  1  0  0  0  0
 14 15  1  0  0  0  0
 14 30  1  0  0  0  0
 15 16  2  0  0  0  0
 15 29  1  0  0  0  0
 16 17  1  0  0  0  0
 16 38  1  0  0  0  0
 17 18  2  0  0  0  0
 18 19  1  0  0  0  0
 18 29  1  0  0  0  0
 19 20  2  0  0  0  0
 19 39  1  0  0  0  0
 20 21  1  0  0  0  0
 20 27  1  0  0  0  0
 21 22  1  0  0  0  0
 21 26  2  0  0  0  0
 22 23  2  0  0  0  0
 22 40  1  0  0  0  0
 23 24  1  0  0  0  0
 23 41  1  0  0  0  0
 24 25  2  0  0  0  0
 24 42  1  0  0  0  0
 25 26  1  0  0  0  0
 26 43  1  0  0  0  0
 27 28  2  0  0  0  0
 27 44  1  0  0  0  0
 28 29  1  0  0  0  0
 28 45  1  0  0  0  0
 30 46  1  0  0  0  0
M  END
$$$$
