CHEMBL1992673
 OpenBabel04072215363D

 20 22  0  0  0  0  0  0  0  0999 V2000
    0.9272   -0.1498    0.0842 O   0  0  0  0  0  0  0  0  0  0  0  0
    2.1492   -0.0974    0.0836 C   0  0  0  0  0  0  0  0  0  0  0  0
    2.8867    1.0741    0.0835 N   0  0  0  0  0  0  0  0  0  0  0  0
    4.2921    1.1540    0.0832 C   0  0  0  0  0  0  0  0  0  0  0  0
    4.9128    2.4009    0.0839 C   0  0  0  0  0  0  0  0  0  0  0  0
    6.3077    2.4702    0.0833 C   0  0  0  0  0  0  0  0  0  0  0  0
    7.0681    1.2974    0.0824 C   0  0  0  0  0  0  0  0  0  0  0  0
    8.7855    1.4054    0.0812 Cl  0  0  0  0  0  0  0  0  0  0  0  0
    6.4511    0.0458    0.0823 C   0  0  0  0  0  0  0  0  0  0  0  0
    5.0570   -0.0250    0.0827 C   0  0  0  0  0  0  0  0  0  0  0  0
    4.3259   -1.2752    0.0828 C   0  0  0  0  0  0  0  0  0  0  0  0
    4.7499   -2.5206    0.0820 N   0  0  0  0  0  0  0  0  0  0  0  0
    3.5839   -3.2369    0.0824 C   0  0  0  0  0  0  0  0  0  0  0  0
    2.4601   -2.5175    0.0838 N   0  0  0  0  0  0  0  0  0  0  0  0
    2.9490   -1.2516    0.0835 N   0  0  0  0  0  0  0  0  0  0  0  0
    2.3364    1.9251    0.0838 H   0  0  0  0  0  0  0  0  0  0  0  0
    4.3325    3.3196    0.0847 H   0  0  0  0  0  0  0  0  0  0  0  0
    6.7976    3.4416    0.0834 H   0  0  0  0  0  0  0  0  0  0  0  0
    7.0477   -0.8637    0.0817 H   0  0  0  0  0  0  0  0  0  0  0  0
    3.5525   -4.3198    0.0816 H   0  0  0  0  0  0  0  0  0  0  0  0
  1  2  2  0  0  0  0
  2  3  1  0  0  0  0
  2 15  1  0  0  0  0
  3  4  1  0  0  0  0
  3 16  1  0  0  0  0
  4  5  1  0  0  0  0
  4 10  2  0  0  0  0
  5  6  2  0  0  0  0
  5 17  1  0  0  0  0
  6  7  1  0  0  0  0
  6 18  1  0  0  0  0
  7  8  1  0  0  0  0
  7  9  2  0  0  0  0
  9 10  1  0  0  0  0
  9 19  1  0  0  0  0
 10 11  1  0  0  0  0
 11 12  2  0  0  0  0
 11 15  1  0  0  0  0
 12 13  1  0  0  0  0
 13 14  2  0  0  0  0
 13 20  1  0  0  0  0
 14 15  1  0  0  0  0
M  END
$$$$
