CHEMBL3905015
 OpenBabel04072215373D

 49 52  0  0  0  0  0  0  0  0999 V2000
    3.9843   -5.7280    5.3057 C   0  0  0  0  0  0  0  0  0  0  0  0
    3.9419   -5.3013    3.9491 O   0  0  0  0  0  0  0  0  0  0  0  0
    5.0076   -4.5667    3.5040 C   0  0  0  0  0  0  0  0  0  0  0  0
    5.9252   -3.8947    4.3023 C   0  0  0  0  0  0  0  0  0  0  0  0
    6.9474   -3.1597    3.6972 C   0  0  0  0  0  0  0  0  0  0  0  0
    7.0821   -3.1364    2.2966 C   0  0  0  0  0  0  0  0  0  0  0  0
    6.1860   -3.8277    1.4683 C   0  0  0  0  0  0  0  0  0  0  0  0
    6.2785   -3.7727    0.0633 N   0  0  0  0  0  0  0  0  0  0  0  0
    4.9915   -3.6154   -0.7149 C   0  0  0  0  0  0  0  0  0  0  0  0
    4.0061   -2.5073   -0.2705 C   0  0  0  0  0  0  0  0  0  0  0  0
    4.4866   -1.1874   -0.5243 O   0  0  0  0  0  0  0  0  0  0  0  0
    7.3975   -3.9744   -0.8300 C   0  0  0  0  0  0  0  0  0  0  0  0
    7.5973   -2.9373   -1.7320 C   0  0  0  0  0  0  0  0  0  0  0  0
    8.2562   -3.1889   -2.9287 C   0  0  0  0  0  0  0  0  0  0  0  0
    8.8239   -4.3846   -3.2275 C   0  0  0  0  0  0  0  0  0  0  0  0
    9.2472   -4.3866   -4.4632 N   0  0  0  0  0  0  0  0  0  0  0  0
    9.9201   -5.4646   -4.8749 C   0  0  0  0  0  0  0  0  0  0  0  0
   10.2440   -6.5133   -4.0417 C   0  0  0  0  0  0  0  0  0  0  0  0
   11.1530   -7.4889   -4.6962 C   0  0  0  0  0  0  0  0  0  0  0  0
   12.5752   -7.4087   -4.8652 C   0  0  0  0  0  0  0  0  0  0  0  0
   13.0366   -8.0872   -5.9283 N   0  0  0  0  0  0  0  0  0  0  0  0
   11.9245   -8.5674   -6.5065 N   0  0  0  0  0  0  0  0  0  0  0  0
   12.0007   -9.3403   -7.7297 C   0  0  0  0  0  0  0  0  0  0  0  0
   10.7827   -8.1638   -5.8615 C   0  0  0  0  0  0  0  0  0  0  0  0
    9.7416   -6.5524   -2.7402 N   0  0  0  0  0  0  0  0  0  0  0  0
    8.9423   -5.4519   -2.2918 C   0  0  0  0  0  0  0  0  0  0  0  0
    8.1358   -5.1969   -1.0559 C   0  0  0  0  0  0  0  0  0  0  0  0
    5.1291   -4.5011    2.1084 C   0  0  0  0  0  0  0  0  0  0  0  0
    3.1795   -6.4561    5.4503 H   0  0  0  0  0  0  0  0  0  0  0  0
    3.8015   -4.8890    5.9841 H   0  0  0  0  0  0  0  0  0  0  0  0
    4.9295   -6.2289    5.5412 H   0  0  0  0  0  0  0  0  0  0  0  0
    5.8608   -3.9092    5.3860 H   0  0  0  0  0  0  0  0  0  0  0  0
    7.6403   -2.5976    4.3214 H   0  0  0  0  0  0  0  0  0  0  0  0
    7.8645   -2.5192    1.8607 H   0  0  0  0  0  0  0  0  0  0  0  0
    4.4720   -4.5777   -0.7159 H   0  0  0  0  0  0  0  0  0  0  0  0
    5.2015   -3.3906   -1.7683 H   0  0  0  0  0  0  0  0  0  0  0  0
    3.6839   -2.5802    0.7715 H   0  0  0  0  0  0  0  0  0  0  0  0
    3.0991   -2.6114   -0.8811 H   0  0  0  0  0  0  0  0  0  0  0  0
    4.7539   -0.8139    0.3341 H   0  0  0  0  0  0  0  0  0  0  0  0
    7.1108   -1.9865   -1.5757 H   0  0  0  0  0  0  0  0  0  0  0  0
    8.2494   -2.3998   -3.6705 H   0  0  0  0  0  0  0  0  0  0  0  0
   10.2307   -5.4385   -5.9165 H   0  0  0  0  0  0  0  0  0  0  0  0
   13.2928   -6.8120   -4.3156 H   0  0  0  0  0  0  0  0  0  0  0  0
   13.0429   -9.4694   -8.0390 H   0  0  0  0  0  0  0  0  0  0  0  0
   11.4467   -8.8266   -8.5223 H   0  0  0  0  0  0  0  0  0  0  0  0
   11.5540  -10.3181   -7.5337 H   0  0  0  0  0  0  0  0  0  0  0  0
    9.8193   -8.3073   -6.3296 H   0  0  0  0  0  0  0  0  0  0  0  0
    8.0671   -6.0024   -0.3180 H   0  0  0  0  0  0  0  0  0  0  0  0
    4.3750   -5.0150    1.5196 H   0  0  0  0  0  0  0  0  0  0  0  0
  1  2  1  0  0  0  0
  1 29  1  0  0  0  0
  1 30  1  0  0  0  0
  1 31  1  0  0  0  0
  2  3  1  0  0  0  0
  3  4  1  0  0  0  0
  3 28  2  0  0  0  0
  4  5  2  0  0  0  0
  4 32  1  0  0  0  0
  5  6  1  0  0  0  0
  5 33  1  0  0  0  0
  6  7  2  0  0  0  0
  6 34  1  0  0  0  0
  7  8  1  0  0  0  0
  7 28  1  0  0  0  0
  8  9  1  0  0  0  0
  8 12  1  0  0  0  0
  9 10  1  0  0  0  0
  9 35  1  0  0  0  0
  9 36  1  0  0  0  0
 10 11  1  0  0  0  0
 10 37  1  0  0  0  0
 10 38  1  0  0  0  0
 11 39  1  0  0  0  0
 12 13  1  0  0  0  0
 12 27  2  0  0  0  0
 13 14  2  0  0  0  0
 13 40  1  0  0  0  0
 14 15  1  0  0  0  0
 14 41  1  0  0  0  0
 15 16  1  0  0  0  0
 15 26  2  0  0  0  0
 16 17  2  0  0  0  0
 17 18  1  0  0  0  0
 17 42  1  0  0  0  0
 18 19  1  0  0  0  0
 18 25  2  0  0  0  0
 19 20  1  0  0  0  0
 19 24  2  0  0  0  0
 20 21  2  0  0  0  0
 20 43  1  0  0  0  0
 21 22  1  0  0  0  0
 22 23  1  0  0  0  0
 22 24  1  0  0  0  0
 23 44  1  0  0  0  0
 23 45  1  0  0  0  0
 23 46  1  0  0  0  0
 24 47  1  0  0  0  0
 25 26  1  0  0  0  0
 26 27  1  0  0  0  0
 27 48  1  0  0  0  0
 28 49  1  0  0  0  0
M  END
$$$$
