CHEMBL3656047
 OpenBabel04072215373D

 54 57  0  0  0  0  0  0  0  0999 V2000
   -0.5440    0.9916    2.4716 C   0  0  0  0  0  0  0  0  0  0  0  0
   -1.7528    0.9859    1.6059 C   0  0  0  0  0  0  0  0  0  0  0  0
   -2.3890    2.1252    1.0404 C   0  0  0  0  0  0  0  0  0  0  0  0
   -3.4531    1.6572    0.3129 C   0  0  0  0  0  0  0  0  0  0  0  0
   -3.5234    0.3051    0.3803 O   0  0  0  0  0  0  0  0  0  0  0  0
   -2.4883   -0.1152    1.1769 C   0  0  0  0  0  0  0  0  0  0  0  0
   -2.3283   -1.5401    1.4297 C   0  0  0  0  0  0  0  0  0  0  0  0
   -1.4501   -1.9599    2.1800 O   0  0  0  0  0  0  0  0  0  0  0  0
   -3.2216   -2.3392    0.7242 N   0  0  0  0  0  0  0  0  0  0  0  0
   -3.2983   -3.7485    0.7530 C   0  0  0  0  0  0  0  0  0  0  0  0
   -2.6687   -4.5155    1.7386 C   0  0  0  0  0  0  0  0  0  0  0  0
   -2.6744   -5.9084    1.6777 C   0  0  0  0  0  0  0  0  0  0  0  0
   -3.3321   -6.5544    0.6371 C   0  0  0  0  0  0  0  0  0  0  0  0
   -4.0753   -5.8146   -0.2863 C   0  0  0  0  0  0  0  0  0  0  0  0
   -4.8202   -6.3819   -1.2978 O   0  0  0  0  0  0  0  0  0  0  0  0
   -5.3929   -7.6264   -1.1101 C   0  0  0  0  0  0  0  0  0  0  0  0
   -5.8857   -8.0909    0.1028 C   0  0  0  0  0  0  0  0  0  0  0  0
   -6.3910   -9.3794    0.1524 C   0  0  0  0  0  0  0  0  0  0  0  0
   -6.4792  -10.1957   -0.9179 N   0  0  0  0  0  0  0  0  0  0  0  0
   -6.0489   -9.6970   -2.1025 C   0  0  0  0  0  0  0  0  0  0  0  0
   -6.2107  -10.6018   -3.2311 C   0  0  0  0  0  0  0  0  0  0  0  0
   -5.9036  -10.4595   -4.5740 C   0  0  0  0  0  0  0  0  0  0  0  0
   -6.3510  -11.6170   -5.2715 C   0  0  0  0  0  0  0  0  0  0  0  0
   -6.3217  -11.8175   -6.7114 C   0  0  0  0  0  0  0  0  0  0  0  0
   -5.9033  -10.9720   -7.4924 O   0  0  0  0  0  0  0  0  0  0  0  0
   -6.8854  -13.0000   -7.0892 O   0  0  0  0  0  0  0  0  0  0  0  0
   -7.3429  -13.0493   -8.4509 C   0  0  0  0  0  0  0  0  0  0  0  0
   -6.2116  -13.2482   -9.4540 C   0  0  0  0  0  0  0  0  0  0  0  0
   -5.5313  -14.4743   -9.2025 O   0  0  0  0  0  0  0  0  0  0  0  0
   -6.8810  -12.4609   -4.3116 C   0  0  0  0  0  0  0  0  0  0  0  0
   -6.7825  -11.8465   -3.0950 N   0  0  0  0  0  0  0  0  0  0  0  0
   -5.5043   -8.4253   -2.2418 C   0  0  0  0  0  0  0  0  0  0  0  0
   -4.0326   -4.4119   -0.2451 C   0  0  0  0  0  0  0  0  0  0  0  0
   -0.1488    2.0073    2.5813 H   0  0  0  0  0  0  0  0  0  0  0  0
    0.2469    0.3731    2.0401 H   0  0  0  0  0  0  0  0  0  0  0  0
   -0.7798    0.6153    3.4730 H   0  0  0  0  0  0  0  0  0  0  0  0
   -2.1021    3.1618    1.1508 H   0  0  0  0  0  0  0  0  0  0  0  0
   -4.2205    2.1387   -0.2866 H   0  0  0  0  0  0  0  0  0  0  0  0
   -3.7992   -1.8463    0.0500 H   0  0  0  0  0  0  0  0  0  0  0  0
   -2.1527   -4.0536    2.5789 H   0  0  0  0  0  0  0  0  0  0  0  0
   -2.1594   -6.4825    2.4410 H   0  0  0  0  0  0  0  0  0  0  0  0
   -3.2730   -7.6361    0.5814 H   0  0  0  0  0  0  0  0  0  0  0  0
   -5.8629   -7.4880    1.0024 H   0  0  0  0  0  0  0  0  0  0  0  0
   -6.7407   -9.8006    1.0903 H   0  0  0  0  0  0  0  0  0  0  0  0
   -5.4466   -9.5919   -5.0347 H   0  0  0  0  0  0  0  0  0  0  0  0
   -7.9209  -12.1456   -8.6770 H   0  0  0  0  0  0  0  0  0  0  0  0
   -8.0309  -13.8996   -8.5002 H   0  0  0  0  0  0  0  0  0  0  0  0
   -5.4740  -12.4430   -9.4216 H   0  0  0  0  0  0  0  0  0  0  0  0
   -6.6233  -13.2926  -10.4665 H   0  0  0  0  0  0  0  0  0  0  0  0
   -5.1391  -14.3966   -8.3147 H   0  0  0  0  0  0  0  0  0  0  0  0
   -7.3494  -13.4356   -4.4023 H   0  0  0  0  0  0  0  0  0  0  0  0
   -7.1097  -12.2094   -2.2054 H   0  0  0  0  0  0  0  0  0  0  0  0
   -5.1729   -8.0565   -3.2067 H   0  0  0  0  0  0  0  0  0  0  0  0
   -4.5553   -3.8499   -1.0107 H   0  0  0  0  0  0  0  0  0  0  0  0
  1  2  1  0  0  0  0
  1 34  1  0  0  0  0
  1 35  1  0  0  0  0
  1 36  1  0  0  0  0
  2  3  1  0  0  0  0
  2  6  2  0  0  0  0
  3  4  2  0  0  0  0
  3 37  1  0  0  0  0
  4  5  1  0  0  0  0
  4 38  1  0  0  0  0
  5  6  1  0  0  0  0
  6  7  1  0  0  0  0
  7  8  2  0  0  0  0
  7  9  1  0  0  0  0
  9 10  1  0  0  0  0
  9 39  1  0  0  0  0
 10 11  1  0  0  0  0
 10 33  2  0  0  0  0
 11 12  2  0  0  0  0
 11 40  1  0  0  0  0
 12 13  1  0  0  0  0
 12 41  1  0  0  0  0
 13 14  2  0  0  0  0
 13 42  1  0  0  0  0
 14 15  1  0  0  0  0
 14 33  1  0  0  0  0
 15 16  1  0  0  0  0
 16 17  1  0  0  0  0
 16 32  2  0  0  0  0
 17 18  2  0  0  0  0
 17 43  1  0  0  0  0
 18 19  1  0  0  0  0
 18 44  1  0  0  0  0
 19 20  2  0  0  0  0
 20 21  1  0  0  0  0
 20 32  1  0  0  0  0
 21 22  2  0  0  0  0
 21 31  1  0  0  0  0
 22 23  1  0  0  0  0
 22 45  1  0  0  0  0
 23 24  1  0  0  0  0
 23 30  2  0  0  0  0
 24 25  2  0  0  0  0
 24 26  1  0  0  0  0
 26 27  1  0  0  0  0
 27 28  1  0  0  0  0
 27 46  1  0  0  0  0
 27 47  1  0  0  0  0
 28 29  1  0  0  0  0
 28 48  1  0  0  0  0
 28 49  1  0  0  0  0
 29 50  1  0  0  0  0
 30 31  1  0  0  0  0
 30 51  1  0  0  0  0
 31 52  1  0  0  0  0
 32 53  1  0  0  0  0
 33 54  1  0  0  0  0
M  END
$$$$
