CHEMBL3656036
 OpenBabel04072215373D

 50 53  0  0  0  0  0  0  0  0999 V2000
   -3.7384    5.1847   -5.3883 C   0  0  0  0  0  0  0  0  0  0  0  0
   -2.8520    4.6964   -4.2773 C   0  0  0  0  0  0  0  0  0  0  0  0
   -1.4873    4.9973   -4.2824 C   0  0  0  0  0  0  0  0  0  0  0  0
   -0.6650    4.5102   -3.2713 C   0  0  0  0  0  0  0  0  0  0  0  0
   -1.2023    3.7462   -2.2345 C   0  0  0  0  0  0  0  0  0  0  0  0
   -0.3317    3.2011   -1.3743 F   0  0  0  0  0  0  0  0  0  0  0  0
   -2.5756    3.4762   -2.1704 C   0  0  0  0  0  0  0  0  0  0  0  0
   -3.2122    2.7461   -1.1292 N   0  0  0  0  0  0  0  0  0  0  0  0
   -2.7133    2.5576    0.1479 C   0  0  0  0  0  0  0  0  0  0  0  0
   -1.7164    3.0775    0.6334 O   0  0  0  0  0  0  0  0  0  0  0  0
   -3.4910    1.6380    1.0288 C   0  0  0  0  0  0  0  0  0  0  0  0
   -2.7652    0.8358    1.9237 C   0  0  0  0  0  0  0  0  0  0  0  0
   -3.4213   -0.1007    2.7209 C   0  0  0  0  0  0  0  0  0  0  0  0
   -4.8048   -0.2101    2.6512 C   0  0  0  0  0  0  0  0  0  0  0  0
   -5.3917   -1.1769    3.3715 F   0  0  0  0  0  0  0  0  0  0  0  0
   -5.5538    0.6735    1.8674 C   0  0  0  0  0  0  0  0  0  0  0  0
   -6.9300    0.7173    1.8123 O   0  0  0  0  0  0  0  0  0  0  0  0
   -7.6783    0.3727    2.9165 C   0  0  0  0  0  0  0  0  0  0  0  0
   -7.3138    0.6265    4.2352 C   0  0  0  0  0  0  0  0  0  0  0  0
   -8.1418    0.1554    5.2400 C   0  0  0  0  0  0  0  0  0  0  0  0
   -9.3141   -0.4784    5.0170 N   0  0  0  0  0  0  0  0  0  0  0  0
   -9.6778   -0.6458    3.7218 C   0  0  0  0  0  0  0  0  0  0  0  0
  -10.9637   -1.3134    3.5438 C   0  0  0  0  0  0  0  0  0  0  0  0
  -11.6933   -1.6290    2.4122 C   0  0  0  0  0  0  0  0  0  0  0  0
  -12.9060   -2.2769    2.8040 C   0  0  0  0  0  0  0  0  0  0  0  0
  -13.9401   -2.7482    1.8841 C   0  0  0  0  0  0  0  0  0  0  0  0
  -13.8531   -2.6365    0.6705 O   0  0  0  0  0  0  0  0  0  0  0  0
  -15.0215   -3.3246    2.4658 O   0  0  0  0  0  0  0  0  0  0  0  0
  -12.8657   -2.3444    4.1871 C   0  0  0  0  0  0  0  0  0  0  0  0
  -11.6971   -1.7679    4.6157 N   0  0  0  0  0  0  0  0  0  0  0  0
   -8.9015   -0.2332    2.6516 C   0  0  0  0  0  0  0  0  0  0  0  0
   -4.8893    1.5729    1.0190 C   0  0  0  0  0  0  0  0  0  0  0  0
   -3.3861    3.9309   -3.2242 C   0  0  0  0  0  0  0  0  0  0  0  0
   -3.1775    5.7766   -6.1173 H   0  0  0  0  0  0  0  0  0  0  0  0
   -4.5367    5.8181   -4.9879 H   0  0  0  0  0  0  0  0  0  0  0  0
   -4.1803    4.3348   -5.9182 H   0  0  0  0  0  0  0  0  0  0  0  0
   -1.0504    5.5927   -5.0811 H   0  0  0  0  0  0  0  0  0  0  0  0
    0.4039    4.6998   -3.2869 H   0  0  0  0  0  0  0  0  0  0  0  0
   -4.1364    2.4003   -1.3391 H   0  0  0  0  0  0  0  0  0  0  0  0
   -1.6819    0.9289    1.9884 H   0  0  0  0  0  0  0  0  0  0  0  0
   -2.8654   -0.7471    3.3929 H   0  0  0  0  0  0  0  0  0  0  0  0
   -6.3939    1.1364    4.4940 H   0  0  0  0  0  0  0  0  0  0  0  0
   -7.8668    0.2718    6.2848 H   0  0  0  0  0  0  0  0  0  0  0  0
  -11.4065   -1.4172    1.3890 H   0  0  0  0  0  0  0  0  0  0  0  0
  -14.9541   -3.3399    3.4348 H   0  0  0  0  0  0  0  0  0  0  0  0
  -13.5489   -2.7455    4.9233 H   0  0  0  0  0  0  0  0  0  0  0  0
  -11.3819   -1.6682    5.5739 H   0  0  0  0  0  0  0  0  0  0  0  0
   -9.2223   -0.3883    1.6289 H   0  0  0  0  0  0  0  0  0  0  0  0
   -5.4780    2.2336    0.3902 H   0  0  0  0  0  0  0  0  0  0  0  0
   -4.4529    3.7172   -3.2238 H   0  0  0  0  0  0  0  0  0  0  0  0
  1  2  1  0  0  0  0
  1 34  1  0  0  0  0
  1 35  1  0  0  0  0
  1 36  1  0  0  0  0
  2  3  1  0  0  0  0
  2 33  2  0  0  0  0
  3  4  2  0  0  0  0
  3 37  1  0  0  0  0
  4  5  1  0  0  0  0
  4 38  1  0  0  0  0
  5  6  1  0  0  0  0
  5  7  2  0  0  0  0
  7  8  1  0  0  0  0
  7 33  1  0  0  0  0
  8  9  1  0  0  0  0
  8 39  1  0  0  0  0
  9 10  2  0  0  0  0
  9 11  1  0  0  0  0
 11 12  1  0  0  0  0
 11 32  2  0  0  0  0
 12 13  2  0  0  0  0
 12 40  1  0  0  0  0
 13 14  1  0  0  0  0
 13 41  1  0  0  0  0
 14 15  1  0  0  0  0
 14 16  2  0  0  0  0
 16 17  1  0  0  0  0
 16 32  1  0  0  0  0
 17 18  1  0  0  0  0
 18 19  1  0  0  0  0
 18 31  2  0  0  0  0
 19 20  2  0  0  0  0
 19 42  1  0  0  0  0
 20 21  1  0  0  0  0
 20 43  1  0  0  0  0
 21 22  2  0  0  0  0
 22 23  1  0  0  0  0
 22 31  1  0  0  0  0
 23 24  2  0  0  0  0
 23 30  1  0  0  0  0
 24 25  1  0  0  0  0
 24 44  1  0  0  0  0
 25 26  1  0  0  0  0
 25 29  2  0  0  0  0
 26 27  2  0  0  0  0
 26 28  1  0  0  0  0
 28 45  1  0  0  0  0
 29 30  1  0  0  0  0
 29 46  1  0  0  0  0
 30 47  1  0  0  0  0
 31 48  1  0  0  0  0
 32 49  1  0  0  0  0
 33 50  1  0  0  0  0
M  END
$$$$
