CHEMBL272170
 OpenBabel04072215363D

 49 53  0  0  0  0  0  0  0  0999 V2000
    2.2567    0.7344    1.9152 C   0  0  0  0  0  0  0  0  0  0  0  0
    0.7790    0.7395    1.6685 C   0  0  0  0  0  0  0  0  0  0  0  0
    0.2162    1.7305    0.8663 C   0  0  0  0  0  0  0  0  0  0  0  0
   -1.1512    1.7407    0.6105 C   0  0  0  0  0  0  0  0  0  0  0  0
   -1.9828    0.7542    1.1363 C   0  0  0  0  0  0  0  0  0  0  0  0
   -3.3639    0.6873    0.8663 N   0  0  0  0  0  0  0  0  0  0  0  0
   -4.0190    1.3364   -0.1669 C   0  0  0  0  0  0  0  0  0  0  0  0
   -3.4065    2.0104   -0.9917 O   0  0  0  0  0  0  0  0  0  0  0  0
   -5.4122    1.2075   -0.1644 N   0  0  0  0  0  0  0  0  0  0  0  0
   -6.1961    0.3894    0.7743 C   0  0  0  0  0  0  0  0  0  0  0  0
   -7.2133    1.2719    1.4633 C   0  0  0  0  0  0  0  0  0  0  0  0
   -8.1632    1.7739    0.5259 O   0  0  0  0  0  0  0  0  0  0  0  0
   -7.5799    2.2724   -0.6176 C   0  0  0  0  0  0  0  0  0  0  0  0
   -8.4192    3.0706   -1.3957 C   0  0  0  0  0  0  0  0  0  0  0  0
   -7.9564    3.6328   -2.5850 C   0  0  0  0  0  0  0  0  0  0  0  0
   -8.7213    4.4303   -3.4031 O   0  0  0  0  0  0  0  0  0  0  0  0
  -10.0650    4.0904   -3.5572 C   0  0  0  0  0  0  0  0  0  0  0  0
  -10.4597    2.8052   -3.4148 N   0  0  0  0  0  0  0  0  0  0  0  0
  -11.7656    2.5254   -3.5666 C   0  0  0  0  0  0  0  0  0  0  0  0
  -12.7520    3.3749   -3.8885 N   0  0  0  0  0  0  0  0  0  0  0  0
  -12.3020    4.6241   -4.0549 C   0  0  0  0  0  0  0  0  0  0  0  0
  -13.0755    5.6942   -4.4054 N   0  0  0  0  0  0  0  0  0  0  0  0
  -12.3110    6.8331   -4.4419 C   0  0  0  0  0  0  0  0  0  0  0  0
  -11.0133    6.4740   -4.1319 C   0  0  0  0  0  0  0  0  0  0  0  0
  -10.9969    5.0722   -3.8992 C   0  0  0  0  0  0  0  0  0  0  0  0
   -6.6309    3.4491   -2.9599 C   0  0  0  0  0  0  0  0  0  0  0  0
   -5.7891    2.6514   -2.1791 C   0  0  0  0  0  0  0  0  0  0  0  0
   -6.2447    2.0385   -1.0017 C   0  0  0  0  0  0  0  0  0  0  0  0
   -1.4316   -0.2221    1.9734 C   0  0  0  0  0  0  0  0  0  0  0  0
   -0.0553   -0.2352    2.2292 C   0  0  0  0  0  0  0  0  0  0  0  0
    2.7449    1.5701    1.4037 H   0  0  0  0  0  0  0  0  0  0  0  0
    2.7017   -0.1903    1.5357 H   0  0  0  0  0  0  0  0  0  0  0  0
    2.4640    0.8303    2.9856 H   0  0  0  0  0  0  0  0  0  0  0  0
    0.8334    2.5047    0.4182 H   0  0  0  0  0  0  0  0  0  0  0  0
   -1.5357    2.5462   -0.0058 H   0  0  0  0  0  0  0  0  0  0  0  0
   -3.8486   -0.0272    1.3712 H   0  0  0  0  0  0  0  0  0  0  0  0
   -5.5937   -0.1003    1.5350 H   0  0  0  0  0  0  0  0  0  0  0  0
   -6.6827   -0.4067    0.1935 H   0  0  0  0  0  0  0  0  0  0  0  0
   -6.7273    2.1102    1.9784 H   0  0  0  0  0  0  0  0  0  0  0  0
   -7.7578    0.6892    2.2127 H   0  0  0  0  0  0  0  0  0  0  0  0
   -9.4388    3.2369   -1.0621 H   0  0  0  0  0  0  0  0  0  0  0  0
  -12.0518    1.4925   -3.3975 H   0  0  0  0  0  0  0  0  0  0  0  0
  -14.0662    5.6292   -4.5966 H   0  0  0  0  0  0  0  0  0  0  0  0
  -12.7511    7.7906   -4.6768 H   0  0  0  0  0  0  0  0  0  0  0  0
  -10.1674    7.1482   -4.0683 H   0  0  0  0  0  0  0  0  0  0  0  0
   -6.2424    3.9038   -3.8678 H   0  0  0  0  0  0  0  0  0  0  0  0
   -4.7804    2.5090   -2.5517 H   0  0  0  0  0  0  0  0  0  0  0  0
   -2.0541   -0.9970    2.4139 H   0  0  0  0  0  0  0  0  0  0  0  0
    0.3621   -1.0161    2.8585 H   0  0  0  0  0  0  0  0  0  0  0  0
  1  2  1  0  0  0  0
  1 31  1  0  0  0  0
  1 32  1  0  0  0  0
  1 33  1  0  0  0  0
  2  3  1  0  0  0  0
  2 30  2  0  0  0  0
  3  4  2  0  0  0  0
  3 34  1  0  0  0  0
  4  5  1  0  0  0  0
  4 35  1  0  0  0  0
  5  6  1  0  0  0  0
  5 29  2  0  0  0  0
  6  7  1  0  0  0  0
  6 36  1  0  0  0  0
  7  8  2  0  0  0  0
  7  9  1  0  0  0  0
  9 10  1  0  0  0  0
  9 28  1  0  0  0  0
 10 11  1  0  0  0  0
 10 37  1  0  0  0  0
 10 38  1  0  0  0  0
 11 12  1  0  0  0  0
 11 39  1  0  0  0  0
 11 40  1  0  0  0  0
 12 13  1  0  0  0  0
 13 14  1  0  0  0  0
 13 28  2  0  0  0  0
 14 15  2  0  0  0  0
 14 41  1  0  0  0  0
 15 16  1  0  0  0  0
 15 26  1  0  0  0  0
 16 17  1  0  0  0  0
 17 18  1  0  0  0  0
 17 25  2  0  0  0  0
 18 19  2  0  0  0  0
 19 20  1  0  0  0  0
 19 42  1  0  0  0  0
 20 21  2  0  0  0  0
 21 22  1  0  0  0  0
 21 25  1  0  0  0  0
 22 23  1  0  0  0  0
 22 43  1  0  0  0  0
 23 24  2  0  0  0  0
 23 44  1  0  0  0  0
 24 25  1  0  0  0  0
 24 45  1  0  0  0  0
 26 27  2  0  0  0  0
 26 46  1  0  0  0  0
 27 28  1  0  0  0  0
 27 47  1  0  0  0  0
 29 30  1  0  0  0  0
 29 48  1  0  0  0  0
 30 49  1  0  0  0  0
M  END
$$$$
