CHEMBL3914717
 OpenBabel04072215373D

 74 79  0  0  0  0  0  0  0  0999 V2000
    2.4328   -0.6308   -1.7234 C   0  0  0  0  0  0  0  0  0  0  0  0
    0.9455   -0.4849   -1.6366 C   0  0  0  0  0  0  0  0  0  0  0  0
    0.3578    0.7473   -1.9488 C   0  0  0  0  0  0  0  0  0  0  0  0
   -1.0182    0.9120   -1.8740 C   0  0  0  0  0  0  0  0  0  0  0  0
   -1.8155   -0.1662   -1.4777 C   0  0  0  0  0  0  0  0  0  0  0  0
   -1.2685   -1.4174   -1.1625 C   0  0  0  0  0  0  0  0  0  0  0  0
   -2.0649   -2.5322   -0.7536 N   0  0  0  0  0  0  0  0  0  0  0  0
   -3.4432   -2.5305   -0.7260 C   0  0  0  0  0  0  0  0  0  0  0  0
   -4.1498   -1.5990   -1.0990 O   0  0  0  0  0  0  0  0  0  0  0  0
   -3.9855   -3.6951   -0.1821 N   0  0  0  0  0  0  0  0  0  0  0  0
   -5.4085   -3.7756   -0.0589 C   0  0  0  0  0  0  0  0  0  0  0  0
   -6.1651   -3.4175   -1.1723 C   0  0  0  0  0  0  0  0  0  0  0  0
   -7.5359   -3.2538   -1.0737 C   0  0  0  0  0  0  0  0  0  0  0  0
   -8.2553   -3.6444    0.0610 C   0  0  0  0  0  0  0  0  0  0  0  0
   -9.7461   -3.5120    0.0187 C   0  0  0  0  0  0  0  0  0  0  0  0
  -10.4584   -2.9635    1.1157 C   0  0  0  0  0  0  0  0  0  0  0  0
  -11.8467   -2.9039    1.1657 C   0  0  0  0  0  0  0  0  0  0  0  0
  -12.6118   -3.2937    0.0761 C   0  0  0  0  0  0  0  0  0  0  0  0
  -13.9754   -3.1381    0.2388 O   0  0  0  0  0  0  0  0  0  0  0  0
  -14.7910   -4.0416   -0.4992 C   0  0  0  0  0  0  0  0  0  0  0  0
  -16.0762   -4.2991    0.2791 C   0  0  0  0  0  0  0  0  0  0  0  0
  -17.0055   -5.1824   -0.5579 C   0  0  0  0  0  0  0  0  0  0  0  0
  -18.2540   -5.5606    0.1170 N   0  0  0  0  0  0  0  0  0  0  0  0
  -19.0551   -6.4509   -0.7446 C   0  0  0  0  0  0  0  0  0  0  0  0
  -19.8443   -5.5096   -1.6441 C   0  0  0  0  0  0  0  0  0  0  0  0
  -20.1505   -4.3289   -0.7416 C   0  0  0  0  0  0  0  0  0  0  0  0
  -19.1449   -4.4226    0.4004 C   0  0  0  0  0  0  0  0  0  0  0  0
  -11.9259   -3.6941   -1.0793 C   0  0  0  0  0  0  0  0  0  0  0  0
  -12.3775   -3.9773   -2.3379 N   0  0  0  0  0  0  0  0  0  0  0  0
  -11.4442   -4.3805   -3.1954 N   0  0  0  0  0  0  0  0  0  0  0  0
  -10.3219   -4.3211   -2.4895 C   0  0  0  0  0  0  0  0  0  0  0  0
   -9.1673   -4.6527   -3.0801 N   0  0  0  0  0  0  0  0  0  0  0  0
  -10.5294   -3.8489   -1.1409 C   0  0  0  0  0  0  0  0  0  0  0  0
   -7.4940   -4.0697    1.2134 C   0  0  0  0  0  0  0  0  0  0  0  0
   -8.0829   -4.4258    2.4553 C   0  0  0  0  0  0  0  0  0  0  0  0
   -7.3449   -4.6173    3.6243 C   0  0  0  0  0  0  0  0  0  0  0  0
   -5.9669   -4.5644    3.5745 C   0  0  0  0  0  0  0  0  0  0  0  0
   -5.3346   -4.3431    2.3532 C   0  0  0  0  0  0  0  0  0  0  0  0
   -6.0582   -4.0879    1.1613 C   0  0  0  0  0  0  0  0  0  0  0  0
    0.1225   -1.5655   -1.2440 C   0  0  0  0  0  0  0  0  0  0  0  0
    2.9034    0.3127   -2.0271 H   0  0  0  0  0  0  0  0  0  0  0  0
    2.6987   -1.3860   -2.4671 H   0  0  0  0  0  0  0  0  0  0  0  0
    2.8460   -0.9049   -0.7495 H   0  0  0  0  0  0  0  0  0  0  0  0
    0.9675    1.5933   -2.2538 H   0  0  0  0  0  0  0  0  0  0  0  0
   -1.4776    1.8585   -2.1149 H   0  0  0  0  0  0  0  0  0  0  0  0
   -2.8791    0.0348   -1.4358 H   0  0  0  0  0  0  0  0  0  0  0  0
   -1.5856   -3.4037   -0.5921 H   0  0  0  0  0  0  0  0  0  0  0  0
   -3.4294   -4.1251    0.5390 H   0  0  0  0  0  0  0  0  0  0  0  0
   -5.6858   -3.1770   -2.1197 H   0  0  0  0  0  0  0  0  0  0  0  0
   -8.0408   -2.8010   -1.9255 H   0  0  0  0  0  0  0  0  0  0  0  0
   -9.9186   -2.5721    1.9767 H   0  0  0  0  0  0  0  0  0  0  0  0
  -12.3387   -2.5428    2.0662 H   0  0  0  0  0  0  0  0  0  0  0  0
  -14.2885   -4.9995   -0.6778 H   0  0  0  0  0  0  0  0  0  0  0  0
  -15.0390   -3.5682   -1.4563 H   0  0  0  0  0  0  0  0  0  0  0  0
  -16.5348   -3.3355    0.5238 H   0  0  0  0  0  0  0  0  0  0  0  0
  -15.8366   -4.7777    1.2366 H   0  0  0  0  0  0  0  0  0  0  0  0
  -16.4546   -6.1058   -0.7843 H   0  0  0  0  0  0  0  0  0  0  0  0
  -17.2007   -4.6892   -1.5179 H   0  0  0  0  0  0  0  0  0  0  0  0
  -19.7444   -7.0265   -0.1176 H   0  0  0  0  0  0  0  0  0  0  0  0
  -18.4577   -7.1664   -1.3154 H   0  0  0  0  0  0  0  0  0  0  0  0
  -20.7517   -5.9722   -2.0429 H   0  0  0  0  0  0  0  0  0  0  0  0
  -19.2353   -5.1819   -2.4947 H   0  0  0  0  0  0  0  0  0  0  0  0
  -21.1713   -4.4017   -0.3498 H   0  0  0  0  0  0  0  0  0  0  0  0
  -20.0626   -3.3842   -1.2878 H   0  0  0  0  0  0  0  0  0  0  0  0
  -19.6791   -4.6328    1.3347 H   0  0  0  0  0  0  0  0  0  0  0  0
  -18.6323   -3.4692    0.5559 H   0  0  0  0  0  0  0  0  0  0  0  0
  -13.3248   -3.9184   -2.6825 H   0  0  0  0  0  0  0  0  0  0  0  0
   -9.2163   -4.9947   -4.0325 H   0  0  0  0  0  0  0  0  0  0  0  0
   -8.3683   -4.9822   -2.5550 H   0  0  0  0  0  0  0  0  0  0  0  0
   -9.1597   -4.5246    2.5557 H   0  0  0  0  0  0  0  0  0  0  0  0
   -7.8570   -4.7885    4.5674 H   0  0  0  0  0  0  0  0  0  0  0  0
   -5.3820   -4.6941    4.4812 H   0  0  0  0  0  0  0  0  0  0  0  0
   -4.2493   -4.3209    2.3691 H   0  0  0  0  0  0  0  0  0  0  0  0
    0.5871   -2.5200   -1.0059 H   0  0  0  0  0  0  0  0  0  0  0  0
  1  2  1  0  0  0  0
  1 41  1  0  0  0  0
  1 42  1  0  0  0  0
  1 43  1  0  0  0  0
  2  3  1  0  0  0  0
  2 40  2  0  0  0  0
  3  4  2  0  0  0  0
  3 44  1  0  0  0  0
  4  5  1  0  0  0  0
  4 45  1  0  0  0  0
  5  6  2  0  0  0  0
  5 46  1  0  0  0  0
  6  7  1  0  0  0  0
  6 40  1  0  0  0  0
  7  8  1  0  0  0  0
  7 47  1  0  0  0  0
  8  9  2  0  0  0  0
  8 10  1  0  0  0  0
 10 11  1  0  0  0  0
 10 48  1  0  0  0  0
 11 12  1  0  0  0  0
 11 39  2  0  0  0  0
 12 13  2  0  0  0  0
 12 49  1  0  0  0  0
 13 14  1  0  0  0  0
 13 50  1  0  0  0  0
 14 15  1  0  0  0  0
 14 34  2  0  0  0  0
 15 16  1  0  0  0  0
 15 33  2  0  0  0  0
 16 17  2  0  0  0  0
 16 51  1  0  0  0  0
 17 18  1  0  0  0  0
 17 52  1  0  0  0  0
 18 19  1  0  0  0  0
 18 28  2  0  0  0  0
 19 20  1  0  0  0  0
 20 21  1  0  0  0  0
 20 53  1  0  0  0  0
 20 54  1  0  0  0  0
 21 22  1  0  0  0  0
 21 55  1  0  0  0  0
 21 56  1  0  0  0  0
 22 23  1  0  0  0  0
 22 57  1  0  0  0  0
 22 58  1  0  0  0  0
 23 24  1  0  0  0  0
 23 27  1  0  0  0  0
 24 25  1  0  0  0  0
 24 59  1  0  0  0  0
 24 60  1  0  0  0  0
 25 26  1  0  0  0  0
 25 61  1  0  0  0  0
 25 62  1  0  0  0  0
 26 27  1  0  0  0  0
 26 63  1  0  0  0  0
 26 64  1  0  0  0  0
 27 65  1  0  0  0  0
 27 66  1  0  0  0  0
 28 29  1  0  0  0  0
 28 33  1  0  0  0  0
 29 30  1  0  0  0  0
 29 67  1  0  0  0  0
 30 31  2  0  0  0  0
 31 32  1  0  0  0  0
 31 33  1  0  0  0  0
 32 68  1  0  0  0  0
 32 69  1  0  0  0  0
 34 35  1  0  0  0  0
 34 39  1  0  0  0  0
 35 36  2  0  0  0  0
 35 70  1  0  0  0  0
 36 37  1  0  0  0  0
 36 71  1  0  0  0  0
 37 38  2  0  0  0  0
 37 72  1  0  0  0  0
 38 39  1  0  0  0  0
 38 73  1  0  0  0  0
 40 74  1  0  0  0  0
M  END
$$$$
