CHEMBL4092638
 OpenBabel04072215383D

 57 60  0  0  0  0  0  0  0  0999 V2000
    1.5509   -0.5656   -1.1347 C   0  0  0  0  0  0  0  0  0  0  0  0
    2.6961   -0.1538   -0.2257 C   0  0  0  0  0  0  0  0  0  0  0  0
    3.1138   -1.2223    0.7005 N   0  0  0  0  0  0  0  0  0  0  0  0
    2.1465   -1.7117    1.6978 C   0  0  0  0  0  0  0  0  0  0  0  0
    2.1697   -0.9337    3.0085 C   0  0  0  0  0  0  0  0  0  0  0  0
    4.4626   -1.2130    1.0915 C   0  0  0  0  0  0  0  0  0  0  0  0
    5.2385   -0.0548    1.0180 C   0  0  0  0  0  0  0  0  0  0  0  0
    6.5987   -0.0602    1.3181 C   0  0  0  0  0  0  0  0  0  0  0  0
    7.2469   -1.2220    1.7258 C   0  0  0  0  0  0  0  0  0  0  0  0
    8.6358   -1.2726    1.9861 N   0  0  0  0  0  0  0  0  0  0  0  0
    9.4932   -0.1855    1.9502 C   0  0  0  0  0  0  0  0  0  0  0  0
    9.1463    0.9801    1.7934 O   0  0  0  0  0  0  0  0  0  0  0  0
   10.8273   -0.5568    2.0687 N   0  0  0  0  0  0  0  0  0  0  0  0
   11.8336    0.4413    2.0419 C   0  0  0  0  0  0  0  0  0  0  0  0
   11.6820    1.6496    2.7216 C   0  0  0  0  0  0  0  0  0  0  0  0
   12.5973    2.6907    2.5353 C   0  0  0  0  0  0  0  0  0  0  0  0
   13.7213    2.5414    1.6994 C   0  0  0  0  0  0  0  0  0  0  0  0
   14.6509    3.6646    1.4692 C   0  0  0  0  0  0  0  0  0  0  0  0
   14.9647    4.5694    2.5089 C   0  0  0  0  0  0  0  0  0  0  0  0
   15.8341    5.6280    2.2967 C   0  0  0  0  0  0  0  0  0  0  0  0
   16.4590    5.8958    1.1405 N   0  0  0  0  0  0  0  0  0  0  0  0
   16.1418    5.0239    0.1652 C   0  0  0  0  0  0  0  0  0  0  0  0
   16.6346    5.0783   -1.0992 N   0  0  0  0  0  0  0  0  0  0  0  0
   16.1634    4.1336   -1.9139 N   0  0  0  0  0  0  0  0  0  0  0  0
   15.3121    3.4391   -1.1394 C   0  0  0  0  0  0  0  0  0  0  0  0
   14.5742    2.3281   -1.7939 C   0  0  0  0  0  0  0  0  0  0  0  0
   15.2759    3.9314    0.2137 C   0  0  0  0  0  0  0  0  0  0  0  0
   13.9169    1.2698    1.1418 C   0  0  0  0  0  0  0  0  0  0  0  0
   12.9778    0.2370    1.2804 C   0  0  0  0  0  0  0  0  0  0  0  0
    6.4809   -2.3862    1.8524 C   0  0  0  0  0  0  0  0  0  0  0  0
    5.1082   -2.3752    1.5410 C   0  0  0  0  0  0  0  0  0  0  0  0
    1.4533    0.1599   -1.9507 H   0  0  0  0  0  0  0  0  0  0  0  0
    0.5978   -0.5854   -0.6001 H   0  0  0  0  0  0  0  0  0  0  0  0
    1.7253   -1.5515   -1.5780 H   0  0  0  0  0  0  0  0  0  0  0  0
    2.4378    0.7597    0.3228 H   0  0  0  0  0  0  0  0  0  0  0  0
    3.5227    0.0868   -0.9076 H   0  0  0  0  0  0  0  0  0  0  0  0
    2.3240   -2.7740    1.9013 H   0  0  0  0  0  0  0  0  0  0  0  0
    1.1305   -1.6618    1.2904 H   0  0  0  0  0  0  0  0  0  0  0  0
    3.1328   -1.0298    3.5219 H   0  0  0  0  0  0  0  0  0  0  0  0
    1.4010   -1.3224    3.6852 H   0  0  0  0  0  0  0  0  0  0  0  0
    1.9749    0.1312    2.8506 H   0  0  0  0  0  0  0  0  0  0  0  0
    4.8083    0.8996    0.7271 H   0  0  0  0  0  0  0  0  0  0  0  0
    7.1125    0.8877    1.1969 H   0  0  0  0  0  0  0  0  0  0  0  0
    9.0190   -2.1515    2.2991 H   0  0  0  0  0  0  0  0  0  0  0  0
   11.0578   -1.4413    1.6413 H   0  0  0  0  0  0  0  0  0  0  0  0
   10.8270    1.8143    3.3759 H   0  0  0  0  0  0  0  0  0  0  0  0
   12.3941    3.6314    3.0438 H   0  0  0  0  0  0  0  0  0  0  0  0
   14.5334    4.4503    3.4982 H   0  0  0  0  0  0  0  0  0  0  0  0
   16.0590    6.3219    3.1053 H   0  0  0  0  0  0  0  0  0  0  0  0
   17.2938    5.7613   -1.4552 H   0  0  0  0  0  0  0  0  0  0  0  0
   14.6370    2.3994   -2.8881 H   0  0  0  0  0  0  0  0  0  0  0  0
   13.5165    2.3392   -1.5268 H   0  0  0  0  0  0  0  0  0  0  0  0
   15.0167    1.3627   -1.5289 H   0  0  0  0  0  0  0  0  0  0  0  0
   14.8138    1.0654    0.5665 H   0  0  0  0  0  0  0  0  0  0  0  0
   13.1296   -0.6876    0.7318 H   0  0  0  0  0  0  0  0  0  0  0  0
    6.9361   -3.3201    2.1706 H   0  0  0  0  0  0  0  0  0  0  0  0
    4.5523   -3.3066    1.6125 H   0  0  0  0  0  0  0  0  0  0  0  0
  1  2  1  0  0  0  0
  1 32  1  0  0  0  0
  1 33  1  0  0  0  0
  1 34  1  0  0  0  0
  2  3  1  0  0  0  0
  2 35  1  0  0  0  0
  2 36  1  0  0  0  0
  3  4  1  0  0  0  0
  3  6  1  0  0  0  0
  4  5  1  0  0  0  0
  4 37  1  0  0  0  0
  4 38  1  0  0  0  0
  5 39  1  0  0  0  0
  5 40  1  0  0  0  0
  5 41  1  0  0  0  0
  6  7  1  0  0  0  0
  6 31  2  0  0  0  0
  7  8  2  0  0  0  0
  7 42  1  0  0  0  0
  8  9  1  0  0  0  0
  8 43  1  0  0  0  0
  9 10  1  0  0  0  0
  9 30  2  0  0  0  0
 10 11  1  0  0  0  0
 10 44  1  0  0  0  0
 11 12  2  0  0  0  0
 11 13  1  0  0  0  0
 13 14  1  0  0  0  0
 13 45  1  0  0  0  0
 14 15  1  0  0  0  0
 14 29  2  0  0  0  0
 15 16  2  0  0  0  0
 15 46  1  0  0  0  0
 16 17  1  0  0  0  0
 16 47  1  0  0  0  0
 17 18  1  0  0  0  0
 17 28  2  0  0  0  0
 18 19  1  0  0  0  0
 18 27  2  0  0  0  0
 19 20  2  0  0  0  0
 19 48  1  0  0  0  0
 20 21  1  0  0  0  0
 20 49  1  0  0  0  0
 21 22  2  0  0  0  0
 22 23  1  0  0  0  0
 22 27  1  0  0  0  0
 23 24  1  0  0  0  0
 23 50  1  0  0  0  0
 24 25  2  0  0  0  0
 25 26  1  0  0  0  0
 25 27  1  0  0  0  0
 26 51  1  0  0  0  0
 26 52  1  0  0  0  0
 26 53  1  0  0  0  0
 28 29  1  0  0  0  0
 28 54  1  0  0  0  0
 29 55  1  0  0  0  0
 30 31  1  0  0  0  0
 30 56  1  0  0  0  0
 31 57  1  0  0  0  0
M  END
$$$$
