CHEMBL3690510
 OpenBabel04072215373D

 43 47  0  0  0  0  0  0  0  0999 V2000
    1.1401   -0.5021    0.2675 O   0  0  0  0  0  0  0  0  0  0  0  0
    2.2764   -0.0637    0.1221 C   0  0  0  0  0  0  0  0  0  0  0  0
    2.8600    0.9594    0.8476 N   0  0  0  0  0  0  0  0  0  0  0  0
    2.2768    1.6760    1.9158 C   0  0  0  0  0  0  0  0  0  0  0  0
    1.0879    1.2893    2.5329 C   0  0  0  0  0  0  0  0  0  0  0  0
    0.5222    2.0769    3.5314 C   0  0  0  0  0  0  0  0  0  0  0  0
    1.1571    3.2470    3.9372 C   0  0  0  0  0  0  0  0  0  0  0  0
    2.4074    3.6048    3.4161 C   0  0  0  0  0  0  0  0  0  0  0  0
    3.1518    4.7496    3.9572 C   0  0  0  0  0  0  0  0  0  0  0  0
    3.9269    5.7055    3.3188 C   0  0  0  0  0  0  0  0  0  0  0  0
    4.4668    6.6083    4.2032 N   0  0  0  0  0  0  0  0  0  0  0  0
    4.0506    6.2240    5.3890 C   0  0  0  0  0  0  0  0  0  0  0  0
    4.2966    6.7698    6.6883 C   0  0  0  0  0  0  0  0  0  0  0  0
    3.7927    6.1833    7.8049 C   0  0  0  0  0  0  0  0  0  0  0  0
    4.1136    6.7764    9.0773 C   0  0  0  0  0  0  0  0  0  0  0  0
    4.4307    8.0389    9.3194 N   0  0  0  0  0  0  0  0  0  0  0  0
    4.6652    8.3029   10.6516 N   0  0  0  0  0  0  0  0  0  0  0  0
    4.5395    7.2260   11.3949 C   0  0  0  0  0  0  0  0  0  0  0  0
    4.1365    5.8122   10.5304 S   0  0  0  0  0  0  0  0  0  0  0  0
    2.9605    4.9809    7.6509 C   0  0  0  0  0  0  0  0  0  0  0  0
    2.7431    4.4547    6.4379 C   0  0  0  0  0  0  0  0  0  0  0  0
    3.2660    5.0770    5.3045 N   0  0  0  0  0  0  0  0  0  0  0  0
    2.9435    2.8246    2.3780 C   0  0  0  0  0  0  0  0  0  0  0  0
    3.1368   -0.5566   -0.8416 N   0  0  0  0  0  0  0  0  0  0  0  0
    2.7592   -1.5965   -1.7476 C   0  0  0  0  0  0  0  0  0  0  0  0
    3.4685   -2.9220   -1.7443 C   0  0  0  0  0  0  0  0  0  0  0  0
    3.6663   -1.9704   -2.8877 C   0  0  0  0  0  0  0  0  0  0  0  0
    3.7331    1.3154    0.4929 H   0  0  0  0  0  0  0  0  0  0  0  0
    0.5692    0.3767    2.2560 H   0  0  0  0  0  0  0  0  0  0  0  0
   -0.4152    1.7745    3.9910 H   0  0  0  0  0  0  0  0  0  0  0  0
    0.6616    3.8645    4.6823 H   0  0  0  0  0  0  0  0  0  0  0  0
    4.1151    5.7976    2.2567 H   0  0  0  0  0  0  0  0  0  0  0  0
    4.9213    7.6581    6.7360 H   0  0  0  0  0  0  0  0  0  0  0  0
    4.6811    7.2332   12.4664 H   0  0  0  0  0  0  0  0  0  0  0  0
    2.5164    4.5176    8.5257 H   0  0  0  0  0  0  0  0  0  0  0  0
    2.1609    3.5536    6.3145 H   0  0  0  0  0  0  0  0  0  0  0  0
    3.8915    3.1139    1.9318 H   0  0  0  0  0  0  0  0  0  0  0  0
    4.0737   -0.1897   -0.8973 H   0  0  0  0  0  0  0  0  0  0  0  0
    1.6897   -1.6220   -1.9541 H   0  0  0  0  0  0  0  0  0  0  0  0
    2.8728   -3.8108   -1.9205 H   0  0  0  0  0  0  0  0  0  0  0  0
    4.2857   -3.0696   -1.0489 H   0  0  0  0  0  0  0  0  0  0  0  0
    3.2013   -2.2090   -3.8374 H   0  0  0  0  0  0  0  0  0  0  0  0
    4.6262   -1.4773   -2.9758 H   0  0  0  0  0  0  0  0  0  0  0  0
  1  2  2  0  0  0  0
  2  3  1  0  0  0  0
  2 24  1  0  0  0  0
  3  4  1  0  0  0  0
  3 28  1  0  0  0  0
  4  5  1  0  0  0  0
  4 23  2  0  0  0  0
  5  6  2  0  0  0  0
  5 29  1  0  0  0  0
  6  7  1  0  0  0  0
  6 30  1  0  0  0  0
  7  8  2  0  0  0  0
  7 31  1  0  0  0  0
  8  9  1  0  0  0  0
  8 23  1  0  0  0  0
  9 10  2  0  0  0  0
  9 22  1  0  0  0  0
 10 11  1  0  0  0  0
 10 32  1  0  0  0  0
 11 12  2  0  0  0  0
 12 13  1  0  0  0  0
 12 22  1  0  0  0  0
 13 14  2  0  0  0  0
 13 33  1  0  0  0  0
 14 15  1  0  0  0  0
 14 20  1  0  0  0  0
 15 16  2  0  0  0  0
 15 19  1  0  0  0  0
 16 17  1  0  0  0  0
 17 18  2  0  0  0  0
 18 19  1  0  0  0  0
 18 34  1  0  0  0  0
 20 21  2  0  0  0  0
 20 35  1  0  0  0  0
 21 22  1  0  0  0  0
 21 36  1  0  0  0  0
 23 37  1  0  0  0  0
 24 25  1  0  0  0  0
 24 38  1  0  0  0  0
 25 26  1  0  0  0  0
 25 27  1  0  0  0  0
 25 39  1  0  0  0  0
 26 27  1  0  0  0  0
 26 40  1  0  0  0  0
 26 41  1  0  0  0  0
 27 42  1  0  0  0  0
 27 43  1  0  0  0  0
M  END
$$$$
