CHEMBL4069394
 OpenBabel04072215383D

 65 69  0  0  0  0  0  0  0  0999 V2000
    0.9787    0.9352   -0.3484 C   0  0  0  0  0  0  0  0  0  0  0  0
    2.4115    0.9384   -0.3583 O   0  0  0  0  0  0  0  0  0  0  0  0
    2.9582    0.6636    0.8532 C   0  0  0  0  0  0  0  0  0  0  0  0
    2.3334    0.4422    1.8785 O   0  0  0  0  0  0  0  0  0  0  0  0
    4.4516    0.6520    0.8007 C   0  0  0  0  0  0  0  0  0  0  0  0
    5.1982    0.9866   -0.3498 C   0  0  0  0  0  0  0  0  0  0  0  0
    6.6108    0.9836   -0.3324 C   0  0  0  0  0  0  0  0  0  0  0  0
    7.2718    0.6467    0.8407 C   0  0  0  0  0  0  0  0  0  0  0  0
    6.5068    0.3008    1.9619 C   0  0  0  0  0  0  0  0  0  0  0  0
    5.1245    0.2960    1.9759 C   0  0  0  0  0  0  0  0  0  0  0  0
    7.3227   -0.0075    3.0405 N   0  0  0  0  0  0  0  0  0  0  0  0
    8.6591    0.1470    2.7294 C   0  0  0  0  0  0  0  0  0  0  0  0
    9.5908    0.0610    3.5053 O   0  0  0  0  0  0  0  0  0  0  0  0
    8.6901    0.5460    1.2709 C   0  0  0  0  0  0  0  0  0  0  0  0
    9.8721    0.7754    0.6552 C   0  0  0  0  0  0  0  0  0  0  0  0
   11.1546    0.6899    1.2238 N   0  0  0  0  0  0  0  0  0  0  0  0
   11.9092   -0.5248    1.3314 C   0  0  0  0  0  0  0  0  0  0  0  0
   11.5985   -1.7054    0.6590 C   0  0  0  0  0  0  0  0  0  0  0  0
   12.3112   -2.8897    0.9213 C   0  0  0  0  0  0  0  0  0  0  0  0
   13.3544   -2.9155    1.8634 C   0  0  0  0  0  0  0  0  0  0  0  0
   13.9416   -4.1685    2.2444 N   0  0  0  0  0  0  0  0  0  0  0  0
   13.9837   -5.2800    1.4092 C   0  0  0  0  0  0  0  0  0  0  0  0
   14.5654   -6.3410    2.0583 C   0  0  0  0  0  0  0  0  0  0  0  0
   14.8959   -5.8933    3.3449 C   0  0  0  0  0  0  0  0  0  0  0  0
   14.4923   -4.5688    3.4703 C   0  0  0  0  0  0  0  0  0  0  0  0
   14.5539   -3.7817    4.7498 C   0  0  0  0  0  0  0  0  0  0  0  0
   13.2549   -3.2936    5.2296 N   0  0  0  0  0  0  0  0  0  0  0  0
   12.2919   -4.3736    5.4568 C   0  0  0  0  0  0  0  0  0  0  0  0
   13.4290   -2.5368    6.4725 C   0  0  0  0  0  0  0  0  0  0  0  0
   13.7632   -1.7060    2.4217 C   0  0  0  0  0  0  0  0  0  0  0  0
   13.0547   -0.5246    2.1458 C   0  0  0  0  0  0  0  0  0  0  0  0
    9.8854    1.4261   -0.6725 C   0  0  0  0  0  0  0  0  0  0  0  0
    9.8703    2.8296   -0.7400 C   0  0  0  0  0  0  0  0  0  0  0  0
    9.9012    3.4804   -1.9734 C   0  0  0  0  0  0  0  0  0  0  0  0
    9.9528    2.7337   -3.1484 C   0  0  0  0  0  0  0  0  0  0  0  0
    9.9717    1.3397   -3.0904 C   0  0  0  0  0  0  0  0  0  0  0  0
    9.9378    0.6861   -1.8565 C   0  0  0  0  0  0  0  0  0  0  0  0
    0.6258    1.0807   -1.3733 H   0  0  0  0  0  0  0  0  0  0  0  0
    0.5985    1.7565    0.2685 H   0  0  0  0  0  0  0  0  0  0  0  0
    0.5932   -0.0247    0.0128 H   0  0  0  0  0  0  0  0  0  0  0  0
    4.6882    1.2603   -1.2721 H   0  0  0  0  0  0  0  0  0  0  0  0
    7.1494    1.2527   -1.2357 H   0  0  0  0  0  0  0  0  0  0  0  0
    4.5740    0.0348    2.8750 H   0  0  0  0  0  0  0  0  0  0  0  0
    7.0073   -0.2543    3.9646 H   0  0  0  0  0  0  0  0  0  0  0  0
   11.0952    1.0074    2.2002 H   0  0  0  0  0  0  0  0  0  0  0  0
   10.7630   -1.7492   -0.0299 H   0  0  0  0  0  0  0  0  0  0  0  0
   11.9687   -3.7961    0.4301 H   0  0  0  0  0  0  0  0  0  0  0  0
   13.6224   -5.2229    0.3930 H   0  0  0  0  0  0  0  0  0  0  0  0
   14.7249   -7.3295    1.6477 H   0  0  0  0  0  0  0  0  0  0  0  0
   15.3448   -6.4836    4.1347 H   0  0  0  0  0  0  0  0  0  0  0  0
   15.2558   -2.9511    4.6141 H   0  0  0  0  0  0  0  0  0  0  0  0
   15.0080   -4.4154    5.5263 H   0  0  0  0  0  0  0  0  0  0  0  0
   12.0558   -4.9080    4.5313 H   0  0  0  0  0  0  0  0  0  0  0  0
   11.3409   -3.9640    5.8171 H   0  0  0  0  0  0  0  0  0  0  0  0
   12.6511   -5.1001    6.1951 H   0  0  0  0  0  0  0  0  0  0  0  0
   14.2056   -1.7711    6.3682 H   0  0  0  0  0  0  0  0  0  0  0  0
   13.7012   -3.1839    7.3156 H   0  0  0  0  0  0  0  0  0  0  0  0
   12.5023   -2.0114    6.7292 H   0  0  0  0  0  0  0  0  0  0  0  0
   14.6302   -1.6401    3.0678 H   0  0  0  0  0  0  0  0  0  0  0  0
   13.3878    0.4007    2.6105 H   0  0  0  0  0  0  0  0  0  0  0  0
    9.8506    3.4210    0.1735 H   0  0  0  0  0  0  0  0  0  0  0  0
    9.9007    4.5667   -2.0154 H   0  0  0  0  0  0  0  0  0  0  0  0
    9.9933    3.2385   -4.1100 H   0  0  0  0  0  0  0  0  0  0  0  0
   10.0278    0.7597   -4.0076 H   0  0  0  0  0  0  0  0  0  0  0  0
    9.9645   -0.3987   -1.8258 H   0  0  0  0  0  0  0  0  0  0  0  0
  1  2  1  0  0  0  0
  1 38  1  0  0  0  0
  1 39  1  0  0  0  0
  1 40  1  0  0  0  0
  2  3  1  0  0  0  0
  3  4  2  0  0  0  0
  3  5  1  0  0  0  0
  5  6  1  0  0  0  0
  5 10  2  0  0  0  0
  6  7  2  0  0  0  0
  6 41  1  0  0  0  0
  7  8  1  0  0  0  0
  7 42  1  0  0  0  0
  8  9  2  0  0  0  0
  8 14  1  0  0  0  0
  9 10  1  0  0  0  0
  9 11  1  0  0  0  0
 10 43  1  0  0  0  0
 11 12  1  0  0  0  0
 11 44  1  0  0  0  0
 12 13  2  0  0  0  0
 12 14  1  0  0  0  0
 14 15  2  0  0  0  0
 15 16  1  0  0  0  0
 15 32  1  0  0  0  0
 16 17  1  0  0  0  0
 16 45  1  0  0  0  0
 17 18  1  0  0  0  0
 17 31  2  0  0  0  0
 18 19  2  0  0  0  0
 18 46  1  0  0  0  0
 19 20  1  0  0  0  0
 19 47  1  0  0  0  0
 20 21  1  0  0  0  0
 20 30  2  0  0  0  0
 21 22  1  0  0  0  0
 21 25  1  0  0  0  0
 22 23  2  0  0  0  0
 22 48  1  0  0  0  0
 23 24  1  0  0  0  0
 23 49  1  0  0  0  0
 24 25  2  0  0  0  0
 24 50  1  0  0  0  0
 25 26  1  0  0  0  0
 26 27  1  0  0  0  0
 26 51  1  0  0  0  0
 26 52  1  0  0  0  0
 27 28  1  0  0  0  0
 27 29  1  0  0  0  0
 28 53  1  0  0  0  0
 28 54  1  0  0  0  0
 28 55  1  0  0  0  0
 29 56  1  0  0  0  0
 29 57  1  0  0  0  0
 29 58  1  0  0  0  0
 30 31  1  0  0  0  0
 30 59  1  0  0  0  0
 31 60  1  0  0  0  0
 32 33  1  0  0  0  0
 32 37  2  0  0  0  0
 33 34  2  0  0  0  0
 33 61  1  0  0  0  0
 34 35  1  0  0  0  0
 34 62  1  0  0  0  0
 35 36  2  0  0  0  0
 35 63  1  0  0  0  0
 36 37  1  0  0  0  0
 36 64  1  0  0  0  0
 37 65  1  0  0  0  0
M  END
$$$$
