CHEMBL4239930
 OpenBabel04072215383D

 33 35  0  0  0  0  0  0  0  0999 V2000
    1.3415   -0.1673    1.9793 N   0  0  0  0  0  0  0  0  0  0  0  0
    0.5043   -0.0558    0.8519 C   0  0  0  0  0  0  0  0  0  0  0  0
   -0.0678    1.1924    0.5616 C   0  0  0  0  0  0  0  0  0  0  0  0
   -0.8372    1.3808   -0.5879 C   0  0  0  0  0  0  0  0  0  0  0  0
   -0.9947    0.3370   -1.4945 C   0  0  0  0  0  0  0  0  0  0  0  0
   -0.3850   -0.8945   -1.2489 C   0  0  0  0  0  0  0  0  0  0  0  0
    0.3814   -1.0983   -0.0901 C   0  0  0  0  0  0  0  0  0  0  0  0
    1.0050   -2.7575    0.2107 S   0  0  0  0  0  0  0  0  0  0  0  0
    2.8086   -2.5095    0.0337 C   0  0  0  0  0  0  0  0  0  0  0  0
    3.5324   -3.8544    0.0255 C   0  0  0  0  0  0  0  0  0  0  0  0
    4.6640   -3.9966    0.6436 N   0  0  0  0  0  0  0  0  0  0  0  0
    5.2946   -5.2557    0.5960 C   0  0  0  0  0  0  0  0  0  0  0  0
    6.5147   -5.4274    1.2548 C   0  0  0  0  0  0  0  0  0  0  0  0
    7.1581   -6.6696    1.2556 C   0  0  0  0  0  0  0  0  0  0  0  0
    6.5867   -7.7580    0.5947 C   0  0  0  0  0  0  0  0  0  0  0  0
    5.3742   -7.6024   -0.0760 C   0  0  0  0  0  0  0  0  0  0  0  0
    4.7428   -6.3524   -0.0724 C   0  0  0  0  0  0  0  0  0  0  0  0
    3.4634   -6.1431   -0.7680 C   0  0  0  0  0  0  0  0  0  0  0  0
    2.8841   -7.0445   -1.3563 O   0  0  0  0  0  0  0  0  0  0  0  0
    2.9574   -4.8690   -0.6992 N   0  0  0  0  0  0  0  0  0  0  0  0
    1.1116    0.4865    2.7214 H   0  0  0  0  0  0  0  0  0  0  0  0
    1.3902   -1.1271    2.3165 H   0  0  0  0  0  0  0  0  0  0  0  0
    0.0585    2.0254    1.2486 H   0  0  0  0  0  0  0  0  0  0  0  0
   -1.3111    2.3419   -0.7731 H   0  0  0  0  0  0  0  0  0  0  0  0
   -1.5974    0.4805   -2.3877 H   0  0  0  0  0  0  0  0  0  0  0  0
   -0.5259   -1.6989   -1.9670 H   0  0  0  0  0  0  0  0  0  0  0  0
    3.1860   -1.9141    0.8707 H   0  0  0  0  0  0  0  0  0  0  0  0
    3.0365   -1.9913   -0.9038 H   0  0  0  0  0  0  0  0  0  0  0  0
    6.9644   -4.5855    1.7759 H   0  0  0  0  0  0  0  0  0  0  0  0
    8.1054   -6.7874    1.7773 H   0  0  0  0  0  0  0  0  0  0  0  0
    7.0847   -8.7244    0.6024 H   0  0  0  0  0  0  0  0  0  0  0  0
    4.9230   -8.4453   -0.5927 H   0  0  0  0  0  0  0  0  0  0  0  0
    2.0477   -4.7305   -1.1178 H   0  0  0  0  0  0  0  0  0  0  0  0
  1  2  1  0  0  0  0
  1 21  1  0  0  0  0
  1 22  1  0  0  0  0
  2  3  1  0  0  0  0
  2  7  2  0  0  0  0
  3  4  2  0  0  0  0
  3 23  1  0  0  0  0
  4  5  1  0  0  0  0
  4 24  1  0  0  0  0
  5  6  2  0  0  0  0
  5 25  1  0  0  0  0
  6  7  1  0  0  0  0
  6 26  1  0  0  0  0
  7  8  1  0  0  0  0
  8  9  1  0  0  0  0
  9 10  1  0  0  0  0
  9 27  1  0  0  0  0
  9 28  1  0  0  0  0
 10 11  2  0  0  0  0
 10 20  1  0  0  0  0
 11 12  1  0  0  0  0
 12 13  1  0  0  0  0
 12 17  2  0  0  0  0
 13 14  2  0  0  0  0
 13 29  1  0  0  0  0
 14 15  1  0  0  0  0
 14 30  1  0  0  0  0
 15 16  2  0  0  0  0
 15 31  1  0  0  0  0
 16 17  1  0  0  0  0
 16 32  1  0  0  0  0
 17 18  1  0  0  0  0
 18 19  2  0  0  0  0
 18 20  1  0  0  0  0
 20 33  1  0  0  0  0
M  END
$$$$
