CHEMBL4237913
 OpenBabel04072215383D

 54 56  0  0  1  0  0  0  0  0999 V2000
    1.9269    4.0985    0.6673 O   0  0  0  0  0  0  0  0  0  0  0  0
    1.6019    3.3850    1.6017 C   0  0  0  0  0  0  0  0  0  0  0  0
    2.2773    3.3004    2.8148 N   0  0  0  0  0  0  0  0  0  0  0  0
    1.8238    2.1442    3.5430 C   0  0  0  0  0  0  0  0  0  0  0  0
    0.4348    1.9055    2.9758 C   0  0  0  0  0  0  0  0  0  0  0  0
    0.5509    2.4799    1.6533 N   0  0  0  0  0  0  0  0  0  0  0  0
   -0.3117    2.1252    0.5456 C   0  0  0  0  0  0  0  0  0  0  0  0
   -1.8123    2.3591    0.8086 C   0  0  0  0  0  0  0  0  0  0  0  0
   -2.2602    3.7529    1.0495 N   0  0  0  0  0  0  0  0  0  0  0  0
   -1.9198    4.6260   -0.1127 C   0  0  0  0  0  0  0  0  0  0  0  0
   -2.2283    6.1501    0.0264 C   0  0  3  0  0  0  0  0  0  0  0  0
   -1.5798    6.7232    1.1653 O   0  0  0  0  0  0  0  0  0  0  0  0
   -1.8099    6.9366   -1.2000 C   0  0  0  0  0  0  0  0  0  0  0  0
   -2.7673    7.6168   -1.9724 C   0  0  0  0  0  0  0  0  0  0  0  0
   -2.3907    8.3232   -3.1196 C   0  0  0  0  0  0  0  0  0  0  0  0
   -1.0532    8.3631   -3.5069 C   0  0  0  0  0  0  0  0  0  0  0  0
   -0.0903    7.7076   -2.7439 C   0  0  0  0  0  0  0  0  0  0  0  0
   -0.4649    7.0025   -1.5993 C   0  0  0  0  0  0  0  0  0  0  0  0
   -3.7282    3.7743    1.2916 C   0  0  0  0  0  0  0  0  0  0  0  0
   -4.2901    2.9510    2.4937 C   0  0  3  0  0  0  0  0  0  0  0  0
   -3.6821    3.3767    3.7159 O   0  0  0  0  0  0  0  0  0  0  0  0
   -5.8006    3.0224    2.6699 C   0  0  0  0  0  0  0  0  0  0  0  0
   -6.6444    3.7611    1.8233 C   0  0  0  0  0  0  0  0  0  0  0  0
   -8.0274    3.7738    2.0198 C   0  0  0  0  0  0  0  0  0  0  0  0
   -8.5905    3.0476    3.0649 C   0  0  0  0  0  0  0  0  0  0  0  0
   -7.7749    2.3094    3.9144 C   0  0  0  0  0  0  0  0  0  0  0  0
   -6.3926    2.2956    3.7181 C   0  0  0  0  0  0  0  0  0  0  0  0
    3.1935    3.7209    2.8917 H   0  0  0  0  0  0  0  0  0  0  0  0
    1.8450    2.3110    4.6219 H   0  0  0  0  0  0  0  0  0  0  0  0
    2.4924    1.3113    3.2861 H   0  0  0  0  0  0  0  0  0  0  0  0
   -0.3242    2.4760    3.5237 H   0  0  0  0  0  0  0  0  0  0  0  0
    0.1597    0.8488    2.9380 H   0  0  0  0  0  0  0  0  0  0  0  0
   -0.1529    1.0548    0.3655 H   0  0  0  0  0  0  0  0  0  0  0  0
    0.0244    2.6370   -0.3611 H   0  0  0  0  0  0  0  0  0  0  0  0
   -2.0571    1.7543    1.6890 H   0  0  0  0  0  0  0  0  0  0  0  0
   -2.3718    1.9317   -0.0340 H   0  0  0  0  0  0  0  0  0  0  0  0
   -2.4120    4.2463   -1.0187 H   0  0  0  0  0  0  0  0  0  0  0  0
   -0.8420    4.5504   -0.2780 H   0  0  0  0  0  0  0  0  0  0  0  0
   -3.3060    6.3006    0.1782 H   0  0  0  0  0  0  0  0  0  0  0  0
   -0.7194    6.2747    1.2514 H   0  0  0  0  0  0  0  0  0  0  0  0
   -3.8158    7.6113   -1.6828 H   0  0  0  0  0  0  0  0  0  0  0  0
   -3.1393    8.8474   -3.7054 H   0  0  0  0  0  0  0  0  0  0  0  0
   -0.7592    8.9134   -4.3969 H   0  0  0  0  0  0  0  0  0  0  0  0
    0.9559    7.7461   -3.0356 H   0  0  0  0  0  0  0  0  0  0  0  0
    0.3089    6.5067   -1.0137 H   0  0  0  0  0  0  0  0  0  0  0  0
   -4.2375    3.4466    0.3751 H   0  0  0  0  0  0  0  0  0  0  0  0
   -4.0133    4.8136    1.4824 H   0  0  0  0  0  0  0  0  0  0  0  0
   -4.0451    1.8916    2.3589 H   0  0  0  0  0  0  0  0  0  0  0  0
   -3.8724    4.3272    3.8026 H   0  0  0  0  0  0  0  0  0  0  0  0
   -6.2532    4.3404    0.9924 H   0  0  0  0  0  0  0  0  0  0  0  0
   -8.6618    4.3526    1.3532 H   0  0  0  0  0  0  0  0  0  0  0  0
   -9.6674    3.0644    3.2175 H   0  0  0  0  0  0  0  0  0  0  0  0
   -8.2115    1.7455    4.7330 H   0  0  0  0  0  0  0  0  0  0  0  0
   -5.7666    1.7143    4.3942 H   0  0  0  0  0  0  0  0  0  0  0  0
  1  2  2  0  0  0  0
  2  3  1  0  0  0  0
  2  6  1  0  0  0  0
  3  4  1  0  0  0  0
  3 28  1  0  0  0  0
  4  5  1  0  0  0  0
  4 29  1  0  0  0  0
  4 30  1  0  0  0  0
  5  6  1  0  0  0  0
  5 31  1  0  0  0  0
  5 32  1  0  0  0  0
  6  7  1  0  0  0  0
  7  8  1  0  0  0  0
  7 33  1  0  0  0  0
  7 34  1  0  0  0  0
  8  9  1  0  0  0  0
  8 35  1  0  0  0  0
  8 36  1  0  0  0  0
  9 10  1  0  0  0  0
  9 19  1  0  0  0  0
 10 11  1  0  0  0  0
 10 37  1  0  0  0  0
 10 38  1  0  0  0  0
 11 12  1  0  0  0  0
 11 13  1  0  0  0  0
 11 39  1  0  0  0  0
 12 40  1  0  0  0  0
 13 14  1  0  0  0  0
 13 18  2  0  0  0  0
 14 15  2  0  0  0  0
 14 41  1  0  0  0  0
 15 16  1  0  0  0  0
 15 42  1  0  0  0  0
 16 17  2  0  0  0  0
 16 43  1  0  0  0  0
 17 18  1  0  0  0  0
 17 44  1  0  0  0  0
 18 45  1  0  0  0  0
 19 20  1  0  0  0  0
 19 46  1  0  0  0  0
 19 47  1  0  0  0  0
 20 21  1  0  0  0  0
 20 22  1  0  0  0  0
 20 48  1  0  0  0  0
 21 49  1  0  0  0  0
 22 23  1  0  0  0  0
 22 27  2  0  0  0  0
 23 24  2  0  0  0  0
 23 50  1  0  0  0  0
 24 25  1  0  0  0  0
 24 51  1  0  0  0  0
 25 26  2  0  0  0  0
 25 52  1  0  0  0  0
 26 27  1  0  0  0  0
 26 53  1  0  0  0  0
 27 54  1  0  0  0  0
M  END
$$$$
