CHEMBL3958277
 OpenBabel04072215373D

 74 77  0  0  0  0  0  0  0  0999 V2000
   -8.2895   16.3306    1.8771 C   0  0  0  0  0  0  0  0  0  0  0  0
   -7.9683   15.0639    1.1378 C   0  0  0  0  0  0  0  0  0  0  0  0
   -7.5675   15.1249   -0.2003 C   0  0  0  0  0  0  0  0  0  0  0  0
   -7.2373   13.9609   -0.8799 C   0  0  0  0  0  0  0  0  0  0  0  0
   -7.3163   12.7275   -0.2415 C   0  0  0  0  0  0  0  0  0  0  0  0
   -6.8551   11.6804   -0.9288 F   0  0  0  0  0  0  0  0  0  0  0  0
   -7.7770   12.6187    1.0799 C   0  0  0  0  0  0  0  0  0  0  0  0
   -7.9676   11.3890    1.7715 N   0  0  0  0  0  0  0  0  0  0  0  0
   -8.0833   10.1410    1.1816 C   0  0  0  0  0  0  0  0  0  0  0  0
   -8.0488    9.9048   -0.0184 O   0  0  0  0  0  0  0  0  0  0  0  0
   -8.3347    9.1418    2.1188 N   0  0  0  0  0  0  0  0  0  0  0  0
   -8.4825    7.8027    1.6673 C   0  0  0  0  0  0  0  0  0  0  0  0
   -7.5248    7.1879    0.8545 C   0  0  0  0  0  0  0  0  0  0  0  0
   -7.7334    5.8848    0.3881 C   0  0  0  0  0  0  0  0  0  0  0  0
   -8.9038    5.1958    0.7197 C   0  0  0  0  0  0  0  0  0  0  0  0
   -9.0387    3.9341    0.1835 O   0  0  0  0  0  0  0  0  0  0  0  0
   -9.7116    2.9589    0.8912 C   0  0  0  0  0  0  0  0  0  0  0  0
   -9.6696    2.8511    2.2817 C   0  0  0  0  0  0  0  0  0  0  0  0
  -10.3856    1.8443    2.8980 C   0  0  0  0  0  0  0  0  0  0  0  0
  -11.1008    0.9014    2.2622 N   0  0  0  0  0  0  0  0  0  0  0  0
  -11.0875    0.9627    0.9043 C   0  0  0  0  0  0  0  0  0  0  0  0
  -11.7477    0.0404    0.0441 C   0  0  0  0  0  0  0  0  0  0  0  0
  -11.5808    0.3340   -1.2945 C   0  0  0  0  0  0  0  0  0  0  0  0
  -12.1406   -0.4009   -2.4229 C   0  0  0  0  0  0  0  0  0  0  0  0
  -12.8825   -1.3699   -2.2841 O   0  0  0  0  0  0  0  0  0  0  0  0
  -11.7906    0.0711   -3.6708 N   0  0  0  0  0  0  0  0  0  0  0  0
  -12.2916   -0.4943   -4.9062 C   0  0  0  0  0  0  0  0  0  0  0  0
  -13.6298    0.1083   -5.3345 C   0  0  0  0  0  0  0  0  0  0  0  0
  -13.5366    1.6187   -5.5494 C   0  0  0  0  0  0  0  0  0  0  0  0
  -14.7522    2.1826   -6.0980 N   0  0  0  0  0  0  0  0  0  0  0  0
  -14.9595    2.2200   -7.4445 C   0  0  0  0  0  0  0  0  0  0  0  0
  -14.1891    1.7341   -8.2593 O   0  0  0  0  0  0  0  0  0  0  0  0
  -16.1093    2.8864   -7.7304 O   0  0  0  0  0  0  0  0  0  0  0  0
  -16.4644    3.0924   -9.1277 C   0  0  0  0  0  0  0  0  0  0  0  0
  -16.7204    1.7541   -9.8319 C   0  0  0  0  0  0  0  0  0  0  0  0
  -17.7795    3.8927   -9.1333 C   0  0  0  0  0  0  0  0  0  0  0  0
  -15.4041    3.9376   -9.8473 C   0  0  0  0  0  0  0  0  0  0  0  0
  -10.6108    1.7317   -1.4985 S   0  0  0  0  0  0  0  0  0  0  0  0
  -10.4157    1.9584    0.1957 C   0  0  0  0  0  0  0  0  0  0  0  0
   -9.8801    5.8250    1.4957 C   0  0  0  0  0  0  0  0  0  0  0  0
   -9.6402    7.0999    2.0005 C   0  0  0  0  0  0  0  0  0  0  0  0
  -10.5736    7.6848    2.7672 F   0  0  0  0  0  0  0  0  0  0  0  0
   -8.0700   13.8078    1.7729 C   0  0  0  0  0  0  0  0  0  0  0  0
   -8.1447   17.2094    1.2380 H   0  0  0  0  0  0  0  0  0  0  0  0
   -7.6310   16.4422    2.7439 H   0  0  0  0  0  0  0  0  0  0  0  0
   -9.3330   16.3279    2.2057 H   0  0  0  0  0  0  0  0  0  0  0  0
   -7.4920   16.0794   -0.7171 H   0  0  0  0  0  0  0  0  0  0  0  0
   -6.8961   13.9946   -1.9098 H   0  0  0  0  0  0  0  0  0  0  0  0
   -8.1665   11.4437    2.7605 H   0  0  0  0  0  0  0  0  0  0  0  0
   -9.0055    9.4130    2.8261 H   0  0  0  0  0  0  0  0  0  0  0  0
   -6.6198    7.7193    0.5672 H   0  0  0  0  0  0  0  0  0  0  0  0
   -6.9865    5.4173   -0.2503 H   0  0  0  0  0  0  0  0  0  0  0  0
   -9.1008    3.5463    2.8889 H   0  0  0  0  0  0  0  0  0  0  0  0
  -10.4003    1.7713    3.9830 H   0  0  0  0  0  0  0  0  0  0  0  0
  -12.3254   -0.8051    0.3978 H   0  0  0  0  0  0  0  0  0  0  0  0
  -11.1887    0.8840   -3.7128 H   0  0  0  0  0  0  0  0  0  0  0  0
  -12.3975   -1.5782   -4.7851 H   0  0  0  0  0  0  0  0  0  0  0  0
  -11.5282   -0.3169   -5.6714 H   0  0  0  0  0  0  0  0  0  0  0  0
  -14.4015   -0.1081   -4.5866 H   0  0  0  0  0  0  0  0  0  0  0  0
  -13.9473   -0.3811   -6.2641 H   0  0  0  0  0  0  0  0  0  0  0  0
  -12.7107    1.8435   -6.2359 H   0  0  0  0  0  0  0  0  0  0  0  0
  -13.3355    2.1377   -4.6074 H   0  0  0  0  0  0  0  0  0  0  0  0
  -15.4547    2.5961   -5.5025 H   0  0  0  0  0  0  0  0  0  0  0  0
  -17.4892    1.1800   -9.3017 H   0  0  0  0  0  0  0  0  0  0  0  0
  -15.8300    1.1211   -9.8625 H   0  0  0  0  0  0  0  0  0  0  0  0
  -17.0491    1.9048  -10.8650 H   0  0  0  0  0  0  0  0  0  0  0  0
  -18.5766    3.3537   -8.6094 H   0  0  0  0  0  0  0  0  0  0  0  0
  -18.1172    4.0927  -10.1572 H   0  0  0  0  0  0  0  0  0  0  0  0
  -17.6608    4.8538   -8.6203 H   0  0  0  0  0  0  0  0  0  0  0  0
  -14.4304    3.4430   -9.8883 H   0  0  0  0  0  0  0  0  0  0  0  0
  -15.2468    4.8872   -9.3222 H   0  0  0  0  0  0  0  0  0  0  0  0
  -15.7023    4.1559  -10.8776 H   0  0  0  0  0  0  0  0  0  0  0  0
  -10.8305    5.3495    1.7102 H   0  0  0  0  0  0  0  0  0  0  0  0
   -8.4043   13.7719    2.8064 H   0  0  0  0  0  0  0  0  0  0  0  0
  1  2  1  0  0  0  0
  1 44  1  0  0  0  0
  1 45  1  0  0  0  0
  1 46  1  0  0  0  0
  2  3  1  0  0  0  0
  2 43  2  0  0  0  0
  3  4  2  0  0  0  0
  3 47  1  0  0  0  0
  4  5  1  0  0  0  0
  4 48  1  0  0  0  0
  5  6  1  0  0  0  0
  5  7  2  0  0  0  0
  7  8  1  0  0  0  0
  7 43  1  0  0  0  0
  8  9  1  0  0  0  0
  8 49  1  0  0  0  0
  9 10  2  0  0  0  0
  9 11  1  0  0  0  0
 11 12  1  0  0  0  0
 11 50  1  0  0  0  0
 12 13  1  0  0  0  0
 12 41  2  0  0  0  0
 13 14  2  0  0  0  0
 13 51  1  0  0  0  0
 14 15  1  0  0  0  0
 14 52  1  0  0  0  0
 15 16  1  0  0  0  0
 15 40  2  0  0  0  0
 16 17  1  0  0  0  0
 17 18  1  0  0  0  0
 17 39  2  0  0  0  0
 18 19  2  0  0  0  0
 18 53  1  0  0  0  0
 19 20  1  0  0  0  0
 19 54  1  0  0  0  0
 20 21  2  0  0  0  0
 21 22  1  0  0  0  0
 21 39  1  0  0  0  0
 22 23  2  0  0  0  0
 22 55  1  0  0  0  0
 23 24  1  0  0  0  0
 23 38  1  0  0  0  0
 24 25  2  0  0  0  0
 24 26  1  0  0  0  0
 26 27  1  0  0  0  0
 26 56  1  0  0  0  0
 27 28  1  0  0  0  0
 27 57  1  0  0  0  0
 27 58  1  0  0  0  0
 28 29  1  0  0  0  0
 28 59  1  0  0  0  0
 28 60  1  0  0  0  0
 29 30  1  0  0  0  0
 29 61  1  0  0  0  0
 29 62  1  0  0  0  0
 30 31  1  0  0  0  0
 30 63  1  0  0  0  0
 31 32  2  0  0  0  0
 31 33  1  0  0  0  0
 33 34  1  0  0  0  0
 34 35  1  0  0  0  0
 34 36  1  0  0  0  0
 34 37  1  0  0  0  0
 35 64  1  0  0  0  0
 35 65  1  0  0  0  0
 35 66  1  0  0  0  0
 36 67  1  0  0  0  0
 36 68  1  0  0  0  0
 36 69  1  0  0  0  0
 37 70  1  0  0  0  0
 37 71  1  0  0  0  0
 37 72  1  0  0  0  0
 38 39  1  0  0  0  0
 40 41  1  0  0  0  0
 40 73  1  0  0  0  0
 41 42  1  0  0  0  0
 43 74  1  0  0  0  0
M  END
$$$$
