CHEMBL1975418
 OpenBabel04072215363D

 41 45  0  0  0  0  0  0  0  0999 V2000
    1.3027    0.0072   -1.2747 C   0  0  0  0  0  0  0  0  0  0  0  0
    0.5428   -1.1515   -1.4065 C   0  0  0  0  0  0  0  0  0  0  0  0
   -0.8302   -1.1241   -1.1526 C   0  0  0  0  0  0  0  0  0  0  0  0
   -1.4662    0.0660   -0.7652 C   0  0  0  0  0  0  0  0  0  0  0  0
   -2.9459    0.1644   -0.4589 C   0  0  0  0  0  0  0  0  0  0  0  0
   -3.6707   -1.0921   -0.5555 N   0  0  0  0  0  0  0  0  0  0  0  0
   -3.6867   -1.8792    0.5410 N   0  0  0  0  0  0  0  0  0  0  0  0
   -4.5111   -2.8808    0.3075 N   0  0  0  0  0  0  0  0  0  0  0  0
   -5.0460   -2.7238   -0.9469 C   0  0  0  0  0  0  0  0  0  0  0  0
   -5.9616   -3.7207   -1.4815 C   0  0  0  0  0  0  0  0  0  0  0  0
   -6.7793   -4.4217   -0.5742 C   0  0  0  0  0  0  0  0  0  0  0  0
   -7.6025   -5.4791   -0.9730 C   0  0  0  0  0  0  0  0  0  0  0  0
   -7.5912   -5.8090   -2.3270 C   0  0  0  0  0  0  0  0  0  0  0  0
   -8.2361   -6.7931   -3.0294 N   0  0  0  0  0  0  0  0  0  0  0  0
   -7.9891   -6.7754   -4.3517 N   0  0  0  0  0  0  0  0  0  0  0  0
   -7.1253   -5.7659   -4.4901 C   0  0  0  0  0  0  0  0  0  0  0  0
   -6.8228   -5.1310   -3.2644 C   0  0  0  0  0  0  0  0  0  0  0  0
   -5.9862   -4.0800   -2.8386 C   0  0  0  0  0  0  0  0  0  0  0  0
   -4.5270   -1.5707   -1.5217 C   0  0  0  0  0  0  0  0  0  0  0  0
   -4.9130   -0.9829   -2.8690 C   0  0  0  0  0  0  0  0  0  0  0  0
   -4.0527   -1.3025   -4.0665 C   0  0  0  0  0  0  0  0  0  0  0  0
   -4.1442    0.1058   -3.5676 C   0  0  0  0  0  0  0  0  0  0  0  0
   -0.6815    1.2246   -0.6293 C   0  0  0  0  0  0  0  0  0  0  0  0
    0.6917    1.1948   -0.8825 C   0  0  0  0  0  0  0  0  0  0  0  0
    2.3716   -0.0193   -1.4689 H   0  0  0  0  0  0  0  0  0  0  0  0
    1.0189   -2.0847   -1.6976 H   0  0  0  0  0  0  0  0  0  0  0  0
   -1.3828   -2.0573   -1.2470 H   0  0  0  0  0  0  0  0  0  0  0  0
   -3.4352    0.8977   -1.1047 H   0  0  0  0  0  0  0  0  0  0  0  0
   -3.0725    0.5183    0.5731 H   0  0  0  0  0  0  0  0  0  0  0  0
   -6.7557   -4.1556    0.4831 H   0  0  0  0  0  0  0  0  0  0  0  0
   -8.2032   -6.0217   -0.2498 H   0  0  0  0  0  0  0  0  0  0  0  0
   -8.8522   -7.5098   -2.6631 H   0  0  0  0  0  0  0  0  0  0  0  0
   -6.7492   -5.5333   -5.4777 H   0  0  0  0  0  0  0  0  0  0  0  0
   -5.3383   -3.6029   -3.5646 H   0  0  0  0  0  0  0  0  0  0  0  0
   -5.9731   -1.1008   -3.0942 H   0  0  0  0  0  0  0  0  0  0  0  0
   -4.5585   -1.5421   -4.9969 H   0  0  0  0  0  0  0  0  0  0  0  0
   -3.1307   -1.8513   -3.9142 H   0  0  0  0  0  0  0  0  0  0  0  0
   -4.7046    0.8176   -4.1650 H   0  0  0  0  0  0  0  0  0  0  0  0
   -3.2119    0.5075   -3.1948 H   0  0  0  0  0  0  0  0  0  0  0  0
   -1.1342    2.1619   -0.3108 H   0  0  0  0  0  0  0  0  0  0  0  0
    1.2866    2.0973   -0.7667 H   0  0  0  0  0  0  0  0  0  0  0  0
  1  2  1  0  0  0  0
  1 24  2  0  0  0  0
  1 25  1  0  0  0  0
  2  3  2  0  0  0  0
  2 26  1  0  0  0  0
  3  4  1  0  0  0  0
  3 27  1  0  0  0  0
  4  5  1  0  0  0  0
  4 23  2  0  0  0  0
  5  6  1  0  0  0  0
  5 28  1  0  0  0  0
  5 29  1  0  0  0  0
  6  7  1  0  0  0  0
  6 19  1  0  0  0  0
  7  8  2  0  0  0  0
  8  9  1  0  0  0  0
  9 10  1  0  0  0  0
  9 19  2  0  0  0  0
 10 11  1  0  0  0  0
 10 18  2  0  0  0  0
 11 12  2  0  0  0  0
 11 30  1  0  0  0  0
 12 13  1  0  0  0  0
 12 31  1  0  0  0  0
 13 14  1  0  0  0  0
 13 17  2  0  0  0  0
 14 15  1  0  0  0  0
 14 32  1  0  0  0  0
 15 16  2  0  0  0  0
 16 17  1  0  0  0  0
 16 33  1  0  0  0  0
 17 18  1  0  0  0  0
 18 34  1  0  0  0  0
 19 20  1  0  0  0  0
 20 21  1  0  0  0  0
 20 22  1  0  0  0  0
 20 35  1  0  0  0  0
 21 22  1  0  0  0  0
 21 36  1  0  0  0  0
 21 37  1  0  0  0  0
 22 38  1  0  0  0  0
 22 39  1  0  0  0  0
 23 24  1  0  0  0  0
 23 40  1  0  0  0  0
 24 41  1  0  0  0  0
M  END
$$$$
