CHEMBL427687
 OpenBabel04072215383D

 73 78  0  0  0  0  0  0  0  0999 V2000
    1.4875   -0.2271    0.0628 C   0  0  0  0  0  0  0  0  0  0  0  0
    1.0196    0.9554   -0.5030 C   0  0  0  0  0  0  0  0  0  0  0  0
   -0.3479    1.2387   -0.4816 C   0  0  0  0  0  0  0  0  0  0  0  0
   -1.2765    0.2893   -0.0313 C   0  0  0  0  0  0  0  0  0  0  0  0
   -2.7216    0.5220   -0.1235 C   0  0  0  0  0  0  0  0  0  0  0  0
   -3.3443    1.1597   -1.1961 C   0  0  0  0  0  0  0  0  0  0  0  0
   -2.8425    1.7379   -2.4420 C   0  0  0  0  0  0  0  0  0  0  0  0
   -1.7807    1.1120   -3.0984 C   0  0  0  0  0  0  0  0  0  0  0  0
   -1.0246    1.7836   -4.0510 C   0  0  0  0  0  0  0  0  0  0  0  0
   -1.3942    3.0560   -4.4761 C   0  0  0  0  0  0  0  0  0  0  0  0
   -0.6802    3.7940   -5.3885 O   0  0  0  0  0  0  0  0  0  0  0  0
    0.0330    2.9805   -6.3319 C   0  0  0  0  0  0  0  0  0  0  0  0
    0.7701    3.8398   -7.3680 C   0  0  0  0  0  0  0  0  0  0  0  0
    1.5504    3.0377   -8.3425 N   0  0  0  0  0  0  0  0  0  0  0  0
    0.6916    2.1355   -9.1335 C   0  0  0  0  0  0  0  0  0  0  0  0
    1.4947    1.3145  -10.1406 C   0  0  0  0  0  0  0  0  0  0  0  0
    2.2932    2.2172  -11.0673 C   0  0  0  0  0  0  0  0  0  0  0  0
    3.1563    3.1660  -10.2483 C   0  0  0  0  0  0  0  0  0  0  0  0
    2.3246    3.9355   -9.2183 C   0  0  0  0  0  0  0  0  0  0  0  0
   -2.5252    3.6496   -3.9136 C   0  0  0  0  0  0  0  0  0  0  0  0
   -3.2518    3.0118   -2.8983 C   0  0  0  0  0  0  0  0  0  0  0  0
   -4.6909    1.2110   -1.0054 O   0  0  0  0  0  0  0  0  0  0  0  0
   -4.9633    0.5397    0.1485 C   0  0  0  0  0  0  0  0  0  0  0  0
   -6.2210    0.3514    0.5886 N   0  0  0  0  0  0  0  0  0  0  0  0
   -6.2811   -0.3797    1.7176 C   0  0  0  0  0  0  0  0  0  0  0  0
   -5.1930   -0.8817    2.4171 C   0  0  0  0  0  0  0  0  0  0  0  0
   -3.8901   -0.6033    1.9878 C   0  0  0  0  0  0  0  0  0  0  0  0
   -2.7931   -0.9383    2.7878 N   0  0  0  0  0  0  0  0  0  0  0  0
   -2.7035   -2.2561    3.4194 C   0  0  0  0  0  0  0  0  0  0  0  0
   -1.2802   -2.4893    3.9559 C   0  0  0  0  0  0  0  0  0  0  0  0
   -1.1751   -3.7496    4.7756 C   0  0  0  0  0  0  0  0  0  0  0  0
   -0.8202   -4.9637    4.1816 C   0  0  0  0  0  0  0  0  0  0  0  0
   -0.7696   -6.1016    4.9727 C   0  0  0  0  0  0  0  0  0  0  0  0
   -1.0515   -6.1121    6.2924 N   0  0  0  0  0  0  0  0  0  0  0  0
   -1.3898   -4.9296    6.8483 C   0  0  0  0  0  0  0  0  0  0  0  0
   -1.4611   -3.7375    6.1435 C   0  0  0  0  0  0  0  0  0  0  0  0
   -3.7824    0.1027    0.7551 C   0  0  0  0  0  0  0  0  0  0  0  0
   -0.7794   -0.9270    0.4552 C   0  0  0  0  0  0  0  0  0  0  0  0
    0.5921   -1.1588    0.5585 C   0  0  0  0  0  0  0  0  0  0  0  0
    2.5565   -0.4252    0.0977 H   0  0  0  0  0  0  0  0  0  0  0  0
    1.7051    1.6582   -0.9663 H   0  0  0  0  0  0  0  0  0  0  0  0
   -0.6705    2.1841   -0.9095 H   0  0  0  0  0  0  0  0  0  0  0  0
   -1.4370    0.1345   -2.7708 H   0  0  0  0  0  0  0  0  0  0  0  0
   -0.1171    1.2928   -4.3842 H   0  0  0  0  0  0  0  0  0  0  0  0
   -0.7000    2.3360   -6.8279 H   0  0  0  0  0  0  0  0  0  0  0  0
    0.7918    2.3751   -5.8246 H   0  0  0  0  0  0  0  0  0  0  0  0
    1.4560    4.4965   -6.8151 H   0  0  0  0  0  0  0  0  0  0  0  0
    0.0570    4.5032   -7.8727 H   0  0  0  0  0  0  0  0  0  0  0  0
   -0.0866    2.7066   -9.6553 H   0  0  0  0  0  0  0  0  0  0  0  0
    0.1909    1.4155   -8.4787 H   0  0  0  0  0  0  0  0  0  0  0  0
    0.8150    0.6858  -10.7273 H   0  0  0  0  0  0  0  0  0  0  0  0
    2.1749    0.6369   -9.6081 H   0  0  0  0  0  0  0  0  0  0  0  0
    1.6057    2.7926  -11.6996 H   0  0  0  0  0  0  0  0  0  0  0  0
    2.9182    1.6141  -11.7349 H   0  0  0  0  0  0  0  0  0  0  0  0
    3.6590    3.8740  -10.9167 H   0  0  0  0  0  0  0  0  0  0  0  0
    3.9415    2.5960   -9.7356 H   0  0  0  0  0  0  0  0  0  0  0  0
    1.6552    4.6283   -9.7443 H   0  0  0  0  0  0  0  0  0  0  0  0
    3.0101    4.5372   -8.6119 H   0  0  0  0  0  0  0  0  0  0  0  0
   -2.8316    4.6474   -4.2409 H   0  0  0  0  0  0  0  0  0  0  0  0
   -4.0876    3.5163   -2.4311 H   0  0  0  0  0  0  0  0  0  0  0  0
   -7.2871   -0.5495    2.0956 H   0  0  0  0  0  0  0  0  0  0  0  0
   -5.3664   -1.4299    3.3363 H   0  0  0  0  0  0  0  0  0  0  0  0
   -1.9128   -0.5599    2.4535 H   0  0  0  0  0  0  0  0  0  0  0  0
   -2.9608   -3.0578    2.7131 H   0  0  0  0  0  0  0  0  0  0  0  0
   -3.4151   -2.2977    4.2499 H   0  0  0  0  0  0  0  0  0  0  0  0
   -0.9590   -1.6304    4.5592 H   0  0  0  0  0  0  0  0  0  0  0  0
   -0.5644   -2.5433    3.1256 H   0  0  0  0  0  0  0  0  0  0  0  0
   -0.5858   -5.0321    3.1246 H   0  0  0  0  0  0  0  0  0  0  0  0
   -0.4956   -7.0646    4.5511 H   0  0  0  0  0  0  0  0  0  0  0  0
   -1.6141   -4.9660    7.9106 H   0  0  0  0  0  0  0  0  0  0  0  0
   -1.7371   -2.8222    6.6574 H   0  0  0  0  0  0  0  0  0  0  0  0
   -1.4594   -1.7180    0.7623 H   0  0  0  0  0  0  0  0  0  0  0  0
    0.9507   -2.0672    1.0342 H   0  0  0  0  0  0  0  0  0  0  0  0
  1  2  1  0  0  0  0
  1 39  2  0  0  0  0
  1 40  1  0  0  0  0
  2  3  2  0  0  0  0
  2 41  1  0  0  0  0
  3  4  1  0  0  0  0
  3 42  1  0  0  0  0
  4  5  1  0  0  0  0
  4 38  2  0  0  0  0
  5  6  2  0  0  0  0
  5 37  1  0  0  0  0
  6  7  1  0  0  0  0
  6 22  1  0  0  0  0
  7  8  1  0  0  0  0
  7 21  2  0  0  0  0
  8  9  2  0  0  0  0
  8 43  1  0  0  0  0
  9 10  1  0  0  0  0
  9 44  1  0  0  0  0
 10 11  1  0  0  0  0
 10 20  2  0  0  0  0
 11 12  1  0  0  0  0
 12 13  1  0  0  0  0
 12 45  1  0  0  0  0
 12 46  1  0  0  0  0
 13 14  1  0  0  0  0
 13 47  1  0  0  0  0
 13 48  1  0  0  0  0
 14 15  1  0  0  0  0
 14 19  1  0  0  0  0
 15 16  1  0  0  0  0
 15 49  1  0  0  0  0
 15 50  1  0  0  0  0
 16 17  1  0  0  0  0
 16 51  1  0  0  0  0
 16 52  1  0  0  0  0
 17 18  1  0  0  0  0
 17 53  1  0  0  0  0
 17 54  1  0  0  0  0
 18 19  1  0  0  0  0
 18 55  1  0  0  0  0
 18 56  1  0  0  0  0
 19 57  1  0  0  0  0
 19 58  1  0  0  0  0
 20 21  1  0  0  0  0
 20 59  1  0  0  0  0
 21 60  1  0  0  0  0
 22 23  1  0  0  0  0
 23 24  1  0  0  0  0
 23 37  2  0  0  0  0
 24 25  2  0  0  0  0
 25 26  1  0  0  0  0
 25 61  1  0  0  0  0
 26 27  2  0  0  0  0
 26 62  1  0  0  0  0
 27 28  1  0  0  0  0
 27 37  1  0  0  0  0
 28 29  1  0  0  0  0
 28 63  1  0  0  0  0
 29 30  1  0  0  0  0
 29 64  1  0  0  0  0
 29 65  1  0  0  0  0
 30 31  1  0  0  0  0
 30 66  1  0  0  0  0
 30 67  1  0  0  0  0
 31 32  1  0  0  0  0
 31 36  2  0  0  0  0
 32 33  2  0  0  0  0
 32 68  1  0  0  0  0
 33 34  1  0  0  0  0
 33 69  1  0  0  0  0
 34 35  2  0  0  0  0
 35 36  1  0  0  0  0
 35 70  1  0  0  0  0
 36 71  1  0  0  0  0
 38 39  1  0  0  0  0
 38 72  1  0  0  0  0
 39 73  1  0  0  0  0
M  END
$$$$
