CHEMBL1933080
 OpenBabel04072215363D

 70 74  0  0  0  0  0  0  0  0999 V2000
    3.1435    1.2540    0.3551 C   0  0  0  0  0  0  0  0  0  0  0  0
    2.5735    0.1591   -0.3525 O   0  0  0  0  0  0  0  0  0  0  0  0
    3.2206   -1.0375   -0.4678 C   0  0  0  0  0  0  0  0  0  0  0  0
    4.2858   -1.3812    0.3565 C   0  0  0  0  0  0  0  0  0  0  0  0
    4.9138   -2.6404    0.2910 C   0  0  0  0  0  0  0  0  0  0  0  0
    5.9483   -3.0228    1.1508 C   0  0  0  0  0  0  0  0  0  0  0  0
    6.3846   -2.1121    2.1569 N   0  0  0  0  0  0  0  0  0  0  0  0
    7.1466   -2.4388    3.2941 C   0  0  0  0  0  0  0  0  0  0  0  0
    8.0733   -1.5259    3.7958 C   0  0  0  0  0  0  0  0  0  0  0  0
    8.9171   -1.8817    4.8514 C   0  0  0  0  0  0  0  0  0  0  0  0
    8.8342   -3.1439    5.4478 C   0  0  0  0  0  0  0  0  0  0  0  0
    9.7577   -3.6221    6.4041 N   0  0  0  0  0  0  0  0  0  0  0  0
   10.8348   -2.9181    6.9050 C   0  0  0  0  0  0  0  0  0  0  0  0
   11.0558   -1.7302    6.7114 O   0  0  0  0  0  0  0  0  0  0  0  0
   11.6981   -3.7366    7.6335 N   0  0  0  0  0  0  0  0  0  0  0  0
   12.8704   -3.1769    8.1990 C   0  0  0  0  0  0  0  0  0  0  0  0
   12.8191   -1.9774    8.9235 C   0  0  0  0  0  0  0  0  0  0  0  0
   13.9892   -1.3756    9.3881 C   0  0  0  0  0  0  0  0  0  0  0  0
   15.2190   -1.9702    9.1226 C   0  0  0  0  0  0  0  0  0  0  0  0
   15.2607   -3.1735    8.4244 C   0  0  0  0  0  0  0  0  0  0  0  0
   16.4484   -3.7271    8.1456 F   0  0  0  0  0  0  0  0  0  0  0  0
   14.0980   -3.7991    7.9816 C   0  0  0  0  0  0  0  0  0  0  0  0
    7.8148   -4.0043    5.0371 C   0  0  0  0  0  0  0  0  0  0  0  0
    6.9708   -3.6445    3.9813 C   0  0  0  0  0  0  0  0  0  0  0  0
    6.5308   -4.2296    1.0583 N   0  0  0  0  0  0  0  0  0  0  0  0
    6.0666   -5.0457    0.1073 C   0  0  0  0  0  0  0  0  0  0  0  0
    5.0614   -4.7893   -0.7375 N   0  0  0  0  0  0  0  0  0  0  0  0
    4.4768   -3.5832   -0.6380 C   0  0  0  0  0  0  0  0  0  0  0  0
    3.4100   -3.2503   -1.4577 C   0  0  0  0  0  0  0  0  0  0  0  0
    2.7644   -1.9986   -1.3991 C   0  0  0  0  0  0  0  0  0  0  0  0
    1.7263   -1.8872   -2.3050 O   0  0  0  0  0  0  0  0  0  0  0  0
    1.0794   -0.6208   -2.3718 C   0  0  0  0  0  0  0  0  0  0  0  0
    0.0396   -0.5222   -3.5031 C   0  0  0  0  0  0  0  0  0  0  0  0
    0.6336   -0.7311   -4.9005 C   0  0  0  0  0  0  0  0  0  0  0  0
    1.5703    0.4082   -5.3135 C   0  0  0  0  0  0  0  0  0  0  0  0
    0.9471    1.7352   -5.1884 N   0  0  0  0  0  0  0  0  0  0  0  0
    1.9277    2.7778   -5.5039 C   0  0  0  0  0  0  0  0  0  0  0  0
    0.3669    1.9749   -3.8616 C   0  0  0  0  0  0  0  0  0  0  0  0
   -0.6175    0.8684   -3.4631 C   0  0  0  0  0  0  0  0  0  0  0  0
    3.6062    1.9433   -0.3569 H   0  0  0  0  0  0  0  0  0  0  0  0
    3.8685    1.0076    1.1303 H   0  0  0  0  0  0  0  0  0  0  0  0
    2.3263    1.7758    0.8602 H   0  0  0  0  0  0  0  0  0  0  0  0
    4.6401   -0.6996    1.1176 H   0  0  0  0  0  0  0  0  0  0  0  0
    6.7138   -1.2614    1.7132 H   0  0  0  0  0  0  0  0  0  0  0  0
    8.1935   -0.5433    3.3483 H   0  0  0  0  0  0  0  0  0  0  0  0
    9.6531   -1.1465    5.1561 H   0  0  0  0  0  0  0  0  0  0  0  0
    9.6083   -4.5525    6.7625 H   0  0  0  0  0  0  0  0  0  0  0  0
   11.7806   -4.6768    7.2724 H   0  0  0  0  0  0  0  0  0  0  0  0
   11.8644   -1.4894    9.1130 H   0  0  0  0  0  0  0  0  0  0  0  0
   13.9367   -0.4360    9.9311 H   0  0  0  0  0  0  0  0  0  0  0  0
   16.1422   -1.4992    9.4436 H   0  0  0  0  0  0  0  0  0  0  0  0
   14.1822   -4.7155    7.4093 H   0  0  0  0  0  0  0  0  0  0  0  0
    7.6746   -4.9773    5.4976 H   0  0  0  0  0  0  0  0  0  0  0  0
    6.1909   -4.3345    3.6697 H   0  0  0  0  0  0  0  0  0  0  0  0
    6.5564   -6.0092    0.0177 H   0  0  0  0  0  0  0  0  0  0  0  0
    3.0480   -3.9950   -2.1692 H   0  0  0  0  0  0  0  0  0  0  0  0
    1.8410    0.1442   -2.5333 H   0  0  0  0  0  0  0  0  0  0  0  0
    0.5492   -0.4501   -1.4273 H   0  0  0  0  0  0  0  0  0  0  0  0
   -0.7237   -1.2935   -3.3399 H   0  0  0  0  0  0  0  0  0  0  0  0
   -0.1887   -0.7928   -5.6276 H   0  0  0  0  0  0  0  0  0  0  0  0
    1.1664   -1.6868   -4.9548 H   0  0  0  0  0  0  0  0  0  0  0  0
    1.8517    0.2474   -6.3619 H   0  0  0  0  0  0  0  0  0  0  0  0
    2.4944    0.3513   -4.7252 H   0  0  0  0  0  0  0  0  0  0  0  0
    2.3076    2.6551   -6.5238 H   0  0  0  0  0  0  0  0  0  0  0  0
    2.7812    2.7597   -4.8150 H   0  0  0  0  0  0  0  0  0  0  0  0
    1.4697    3.7718   -5.4530 H   0  0  0  0  0  0  0  0  0  0  0  0
   -0.1751    2.9284   -3.8649 H   0  0  0  0  0  0  0  0  0  0  0  0
    1.1532    2.0739   -3.1026 H   0  0  0  0  0  0  0  0  0  0  0  0
   -1.4777    0.8878   -4.1444 H   0  0  0  0  0  0  0  0  0  0  0  0
   -1.0094    1.0736   -2.4593 H   0  0  0  0  0  0  0  0  0  0  0  0
  1  2  1  0  0  0  0
  1 40  1  0  0  0  0
  1 41  1  0  0  0  0
  1 42  1  0  0  0  0
  2  3  1  0  0  0  0
  3  4  1  0  0  0  0
  3 30  2  0  0  0  0
  4  5  2  0  0  0  0
  4 43  1  0  0  0  0
  5  6  1  0  0  0  0
  5 28  1  0  0  0  0
  6  7  1  0  0  0  0
  6 25  2  0  0  0  0
  7  8  1  0  0  0  0
  7 44  1  0  0  0  0
  8  9  1  0  0  0  0
  8 24  2  0  0  0  0
  9 10  2  0  0  0  0
  9 45  1  0  0  0  0
 10 11  1  0  0  0  0
 10 46  1  0  0  0  0
 11 12  1  0  0  0  0
 11 23  2  0  0  0  0
 12 13  1  0  0  0  0
 12 47  1  0  0  0  0
 13 14  2  0  0  0  0
 13 15  1  0  0  0  0
 15 16  1  0  0  0  0
 15 48  1  0  0  0  0
 16 17  1  0  0  0  0
 16 22  2  0  0  0  0
 17 18  2  0  0  0  0
 17 49  1  0  0  0  0
 18 19  1  0  0  0  0
 18 50  1  0  0  0  0
 19 20  2  0  0  0  0
 19 51  1  0  0  0  0
 20 21  1  0  0  0  0
 20 22  1  0  0  0  0
 22 52  1  0  0  0  0
 23 24  1  0  0  0  0
 23 53  1  0  0  0  0
 24 54  1  0  0  0  0
 25 26  1  0  0  0  0
 26 27  2  0  0  0  0
 26 55  1  0  0  0  0
 27 28  1  0  0  0  0
 28 29  2  0  0  0  0
 29 30  1  0  0  0  0
 29 56  1  0  0  0  0
 30 31  1  0  0  0  0
 31 32  1  0  0  0  0
 32 33  1  0  0  0  0
 32 57  1  0  0  0  0
 32 58  1  0  0  0  0
 33 34  1  0  0  0  0
 33 39  1  0  0  0  0
 33 59  1  0  0  0  0
 34 35  1  0  0  0  0
 34 60  1  0  0  0  0
 34 61  1  0  0  0  0
 35 36  1  0  0  0  0
 35 62  1  0  0  0  0
 35 63  1  0  0  0  0
 36 37  1  0  0  0  0
 36 38  1  0  0  0  0
 37 64  1  0  0  0  0
 37 65  1  0  0  0  0
 37 66  1  0  0  0  0
 38 39  1  0  0  0  0
 38 67  1  0  0  0  0
 38 68  1  0  0  0  0
 39 69  1  0  0  0  0
 39 70  1  0  0  0  0
M  END
$$$$
