CHEMBL3706814
 OpenBabel04072215373D

 62 65  0  0  0  0  0  0  0  0999 V2000
   10.7164    2.3907    9.7751 C   0  0  0  0  0  0  0  0  0  0  0  0
    9.4397    1.9879    9.8267 C   0  0  0  0  0  0  0  0  0  0  0  0
    8.9770    0.6565    9.3310 C   0  0  0  0  0  0  0  0  0  0  0  0
    8.0296    0.8641    8.2764 O   0  0  0  0  0  0  0  0  0  0  0  0
    7.9170   -0.2080    7.3986 C   0  0  0  0  0  0  0  0  0  0  0  0
    7.5054    0.0147    6.1453 C   0  0  0  0  0  0  0  0  0  0  0  0
    7.4550   -1.0502    5.1223 C   0  0  0  0  0  0  0  0  0  0  0  0
    7.0468   -0.8030    3.9914 O   0  0  0  0  0  0  0  0  0  0  0  0
    7.9664   -2.4105    5.5029 C   0  0  0  0  0  0  0  0  0  0  0  0
    7.9776   -3.3736    4.5105 N   0  0  0  0  0  0  0  0  0  0  0  0
    7.8768   -4.7683    4.7148 C   0  0  0  0  0  0  0  0  0  0  0  0
    7.6092   -5.2177    5.9527 N   0  0  0  0  0  0  0  0  0  0  0  0
    7.4282   -6.5297    6.1118 C   0  0  0  0  0  0  0  0  0  0  0  0
    7.4532   -7.4450    5.1395 N   0  0  0  0  0  0  0  0  0  0  0  0
    7.6794   -6.9915    3.8978 C   0  0  0  0  0  0  0  0  0  0  0  0
    7.6902   -7.8794    2.8242 C   0  0  0  0  0  0  0  0  0  0  0  0
    7.9681   -7.4855    1.4925 C   0  0  0  0  0  0  0  0  0  0  0  0
    7.8929   -8.5644    0.6514 O   0  0  0  0  0  0  0  0  0  0  0  0
    8.8138   -8.6233   -0.4187 C   0  0  0  0  0  0  0  0  0  0  0  0
    9.7135   -9.8416   -0.3558 C   0  0  0  0  0  0  0  0  0  0  0  0
    8.9582  -11.1634   -0.3351 C   0  0  0  0  0  0  0  0  0  0  0  0
    9.8922  -12.2936   -0.4688 N   0  0  0  0  0  0  0  0  0  0  0  0
    9.1662  -13.5705   -0.5269 C   0  0  0  0  0  0  0  0  0  0  0  0
    8.9520  -13.9746    0.9206 C   0  0  0  0  0  0  0  0  0  0  0  0
   10.1441  -13.3927    1.6601 C   0  0  0  0  0  0  0  0  0  0  0  0
   10.8071  -12.4433    0.6740 C   0  0  0  0  0  0  0  0  0  0  0  0
    8.2389   -6.1469    1.2163 C   0  0  0  0  0  0  0  0  0  0  0  0
    8.6084   -5.4401    0.1191 O   0  0  0  0  0  0  0  0  0  0  0  0
    8.4323   -5.7931   -1.2338 C   0  0  0  0  0  0  0  0  0  0  0  0
    8.1913   -5.2521    2.2955 C   0  0  0  0  0  0  0  0  0  0  0  0
    7.9173   -5.6470    3.6227 C   0  0  0  0  0  0  0  0  0  0  0  0
    8.3830   -2.6007    6.7570 C   0  0  0  0  0  0  0  0  0  0  0  0
    8.2647   -1.6010    7.8114 C   0  0  0  0  0  0  0  0  0  0  0  0
    8.4699   -1.9381    8.9664 O   0  0  0  0  0  0  0  0  0  0  0  0
   11.0134    3.3550   10.1717 H   0  0  0  0  0  0  0  0  0  0  0  0
   11.4914    1.7659    9.3393 H   0  0  0  0  0  0  0  0  0  0  0  0
    8.6860    2.6272   10.2768 H   0  0  0  0  0  0  0  0  0  0  0  0
    8.4905    0.1262   10.1570 H   0  0  0  0  0  0  0  0  0  0  0  0
    9.8463    0.0868    8.9765 H   0  0  0  0  0  0  0  0  0  0  0  0
    7.2149    1.0051    5.8132 H   0  0  0  0  0  0  0  0  0  0  0  0
    8.4953   -3.0727    3.6938 H   0  0  0  0  0  0  0  0  0  0  0  0
    7.2430   -6.8734    7.1240 H   0  0  0  0  0  0  0  0  0  0  0  0
    7.4899   -8.9249    3.0461 H   0  0  0  0  0  0  0  0  0  0  0  0
    9.5088   -7.7910   -0.3895 H   0  0  0  0  0  0  0  0  0  0  0  0
    8.2368   -8.6195   -1.3489 H   0  0  0  0  0  0  0  0  0  0  0  0
   10.3275   -9.7383    0.5459 H   0  0  0  0  0  0  0  0  0  0  0  0
   10.3847   -9.8034   -1.2224 H   0  0  0  0  0  0  0  0  0  0  0  0
    8.2763  -11.1744   -1.1968 H   0  0  0  0  0  0  0  0  0  0  0  0
    8.3423  -11.2398    0.5675 H   0  0  0  0  0  0  0  0  0  0  0  0
    9.7982  -14.3107   -1.0324 H   0  0  0  0  0  0  0  0  0  0  0  0
    8.2275  -13.5140   -1.0888 H   0  0  0  0  0  0  0  0  0  0  0  0
    8.8863  -15.0596    1.0405 H   0  0  0  0  0  0  0  0  0  0  0  0
    8.0257  -13.5359    1.3100 H   0  0  0  0  0  0  0  0  0  0  0  0
   10.8446  -14.1786    1.9615 H   0  0  0  0  0  0  0  0  0  0  0  0
    9.8153  -12.8666    2.5628 H   0  0  0  0  0  0  0  0  0  0  0  0
   11.7397  -12.8895    0.3077 H   0  0  0  0  0  0  0  0  0  0  0  0
   11.1012  -11.5109    1.1628 H   0  0  0  0  0  0  0  0  0  0  0  0
    8.3845   -4.8572   -1.8005 H   0  0  0  0  0  0  0  0  0  0  0  0
    7.5197   -6.3583   -1.4243 H   0  0  0  0  0  0  0  0  0  0  0  0
    9.3269   -6.2936   -1.6137 H   0  0  0  0  0  0  0  0  0  0  0  0
    8.3786   -4.2059    2.0634 H   0  0  0  0  0  0  0  0  0  0  0  0
    8.8104   -3.5410    7.0852 H   0  0  0  0  0  0  0  0  0  0  0  0
  1  2  2  0  0  0  0
  1 35  1  0  0  0  0
  1 36  1  0  0  0  0
  2  3  1  0  0  0  0
  2 37  1  0  0  0  0
  3  4  1  0  0  0  0
  3 38  1  0  0  0  0
  3 39  1  0  0  0  0
  4  5  1  0  0  0  0
  5  6  2  0  0  0  0
  5 33  1  0  0  0  0
  6  7  1  0  0  0  0
  6 40  1  0  0  0  0
  7  8  2  0  0  0  0
  7  9  1  0  0  0  0
  9 10  1  0  0  0  0
  9 32  2  0  0  0  0
 10 11  1  0  0  0  0
 10 41  1  0  0  0  0
 11 12  1  0  0  0  0
 11 31  2  0  0  0  0
 12 13  2  0  0  0  0
 13 14  1  0  0  0  0
 13 42  1  0  0  0  0
 14 15  2  0  0  0  0
 15 16  1  0  0  0  0
 15 31  1  0  0  0  0
 16 17  2  0  0  0  0
 16 43  1  0  0  0  0
 17 18  1  0  0  0  0
 17 27  1  0  0  0  0
 18 19  1  0  0  0  0
 19 20  1  0  0  0  0
 19 44  1  0  0  0  0
 19 45  1  0  0  0  0
 20 21  1  0  0  0  0
 20 46  1  0  0  0  0
 20 47  1  0  0  0  0
 21 22  1  0  0  0  0
 21 48  1  0  0  0  0
 21 49  1  0  0  0  0
 22 23  1  0  0  0  0
 22 26  1  0  0  0  0
 23 24  1  0  0  0  0
 23 50  1  0  0  0  0
 23 51  1  0  0  0  0
 24 25  1  0  0  0  0
 24 52  1  0  0  0  0
 24 53  1  0  0  0  0
 25 26  1  0  0  0  0
 25 54  1  0  0  0  0
 25 55  1  0  0  0  0
 26 56  1  0  0  0  0
 26 57  1  0  0  0  0
 27 28  1  0  0  0  0
 27 30  2  0  0  0  0
 28 29  1  0  0  0  0
 29 58  1  0  0  0  0
 29 59  1  0  0  0  0
 29 60  1  0  0  0  0
 30 31  1  0  0  0  0
 30 61  1  0  0  0  0
 32 33  1  0  0  0  0
 32 62  1  0  0  0  0
 33 34  2  0  0  0  0
M  END
$$$$
