CHEMBL3954368
 OpenBabel04072215373D

 59 63  0  0  0  0  0  0  0  0999 V2000
    0.6791   -0.7814   -0.6977 C   0  0  0  0  0  0  0  0  0  0  0  0
    2.0250   -0.7631   -0.2028 O   0  0  0  0  0  0  0  0  0  0  0  0
    2.9824   -1.3123   -1.0192 C   0  0  0  0  0  0  0  0  0  0  0  0
    2.8411   -1.4589   -2.3967 C   0  0  0  0  0  0  0  0  0  0  0  0
    3.8618   -2.0532   -3.1235 C   0  0  0  0  0  0  0  0  0  0  0  0
    3.8209   -2.2065   -4.4883 O   0  0  0  0  0  0  0  0  0  0  0  0
    3.2134   -1.1138   -5.1762 C   0  0  0  0  0  0  0  0  0  0  0  0
    5.0039   -2.5696   -2.4818 C   0  0  0  0  0  0  0  0  0  0  0  0
    5.2285   -2.3898   -1.1163 C   0  0  0  0  0  0  0  0  0  0  0  0
    6.4007   -2.9042   -0.4803 N   0  0  0  0  0  0  0  0  0  0  0  0
    6.8189   -2.2947    0.8299 C   0  0  0  0  0  0  0  0  0  0  0  0
    6.2422   -2.9005    2.1110 C   0  0  0  0  0  0  0  0  0  0  0  0
    6.8147   -2.3625    3.4168 C   0  0  0  0  0  0  0  0  0  0  0  0
    7.0217   -3.7993    3.0635 C   0  0  0  0  0  0  0  0  0  0  0  0
    7.4459   -3.7654   -0.9739 C   0  0  0  0  0  0  0  0  0  0  0  0
    7.7569   -4.8293   -0.1286 C   0  0  0  0  0  0  0  0  0  0  0  0
    9.0137   -5.4073   -0.1742 C   0  0  0  0  0  0  0  0  0  0  0  0
    9.9218   -5.0780   -1.1498 C   0  0  0  0  0  0  0  0  0  0  0  0
   11.1394   -5.5801   -0.9227 N   0  0  0  0  0  0  0  0  0  0  0  0
   12.0202   -5.5113   -1.9244 C   0  0  0  0  0  0  0  0  0  0  0  0
   11.6735   -5.0592   -3.1774 C   0  0  0  0  0  0  0  0  0  0  0  0
   12.4896   -5.6131   -4.2722 C   0  0  0  0  0  0  0  0  0  0  0  0
   13.4735   -5.0731   -5.1412 C   0  0  0  0  0  0  0  0  0  0  0  0
   14.1418   -6.0045   -5.8488 N   0  0  0  0  0  0  0  0  0  0  0  0
   13.5864   -7.1726   -5.4303 N   0  0  0  0  0  0  0  0  0  0  0  0
   13.9529   -8.7648   -6.0245 S   0  0  0  0  0  0  0  0  0  0  0  0
   14.8291   -8.6423   -7.5586 C   0  0  0  0  0  0  0  0  0  0  0  0
   14.8338   -9.3461   -5.0257 O   0  0  0  0  0  0  0  0  0  0  0  0
   12.6495   -9.3457   -6.2977 O   0  0  0  0  0  0  0  0  0  0  0  0
   12.6981   -6.9836   -4.3993 C   0  0  0  0  0  0  0  0  0  0  0  0
   10.4696   -4.3795   -3.3636 N   0  0  0  0  0  0  0  0  0  0  0  0
    9.5646   -4.3118   -2.2834 C   0  0  0  0  0  0  0  0  0  0  0  0
    8.3029   -3.5846   -2.1048 C   0  0  0  0  0  0  0  0  0  0  0  0
    4.1864   -1.7294   -0.4077 C   0  0  0  0  0  0  0  0  0  0  0  0
    0.0133   -0.4283    0.0971 H   0  0  0  0  0  0  0  0  0  0  0  0
    0.3678   -1.7987   -0.9619 H   0  0  0  0  0  0  0  0  0  0  0  0
    0.5493   -0.1023   -1.5478 H   0  0  0  0  0  0  0  0  0  0  0  0
    1.9456   -1.1172   -2.8955 H   0  0  0  0  0  0  0  0  0  0  0  0
    3.5228   -1.1645   -6.2252 H   0  0  0  0  0  0  0  0  0  0  0  0
    3.5397   -0.1453   -4.7804 H   0  0  0  0  0  0  0  0  0  0  0  0
    2.1213   -1.1939   -5.1466 H   0  0  0  0  0  0  0  0  0  0  0  0
    5.7274   -3.0892   -3.0984 H   0  0  0  0  0  0  0  0  0  0  0  0
    6.5942   -1.2214    0.8277 H   0  0  0  0  0  0  0  0  0  0  0  0
    7.9148   -2.3360    0.9190 H   0  0  0  0  0  0  0  0  0  0  0  0
    5.1683   -3.0391    2.0770 H   0  0  0  0  0  0  0  0  0  0  0  0
    6.1513   -2.1446    4.2471 H   0  0  0  0  0  0  0  0  0  0  0  0
    7.6878   -1.7172    3.3845 H   0  0  0  0  0  0  0  0  0  0  0  0
    6.4885   -4.5183    3.6809 H   0  0  0  0  0  0  0  0  0  0  0  0
    8.0250   -4.1167    2.8056 H   0  0  0  0  0  0  0  0  0  0  0  0
    7.0726   -5.1257    0.6554 H   0  0  0  0  0  0  0  0  0  0  0  0
    9.2948   -6.1097    0.5966 H   0  0  0  0  0  0  0  0  0  0  0  0
   12.9918   -5.9513   -1.7147 H   0  0  0  0  0  0  0  0  0  0  0  0
   13.7687   -4.0380   -5.2622 H   0  0  0  0  0  0  0  0  0  0  0  0
   15.8094   -8.1946   -7.3886 H   0  0  0  0  0  0  0  0  0  0  0  0
   14.2404   -8.0532   -8.2636 H   0  0  0  0  0  0  0  0  0  0  0  0
   14.9555   -9.6541   -7.9531 H   0  0  0  0  0  0  0  0  0  0  0  0
   12.2947   -7.8364   -3.8667 H   0  0  0  0  0  0  0  0  0  0  0  0
    8.0594   -2.8381   -2.8557 H   0  0  0  0  0  0  0  0  0  0  0  0
    4.2519   -1.5685    0.6633 H   0  0  0  0  0  0  0  0  0  0  0  0
  1  2  1  0  0  0  0
  1 35  1  0  0  0  0
  1 36  1  0  0  0  0
  1 37  1  0  0  0  0
  2  3  1  0  0  0  0
  3  4  1  0  0  0  0
  3 34  2  0  0  0  0
  4  5  2  0  0  0  0
  4 38  1  0  0  0  0
  5  6  1  0  0  0  0
  5  8  1  0  0  0  0
  6  7  1  0  0  0  0
  7 39  1  0  0  0  0
  7 40  1  0  0  0  0
  7 41  1  0  0  0  0
  8  9  2  0  0  0  0
  8 42  1  0  0  0  0
  9 10  1  0  0  0  0
  9 34  1  0  0  0  0
 10 11  1  0  0  0  0
 10 15  1  0  0  0  0
 11 12  1  0  0  0  0
 11 43  1  0  0  0  0
 11 44  1  0  0  0  0
 12 13  1  0  0  0  0
 12 14  1  0  0  0  0
 12 45  1  0  0  0  0
 13 14  1  0  0  0  0
 13 46  1  0  0  0  0
 13 47  1  0  0  0  0
 14 48  1  0  0  0  0
 14 49  1  0  0  0  0
 15 16  1  0  0  0  0
 15 33  2  0  0  0  0
 16 17  2  0  0  0  0
 16 50  1  0  0  0  0
 17 18  1  0  0  0  0
 17 51  1  0  0  0  0
 18 19  1  0  0  0  0
 18 32  2  0  0  0  0
 19 20  2  0  0  0  0
 20 21  1  0  0  0  0
 20 52  1  0  0  0  0
 21 22  1  0  0  0  0
 21 31  2  0  0  0  0
 22 23  1  0  0  0  0
 22 30  2  0  0  0  0
 23 24  2  0  0  0  0
 23 53  1  0  0  0  0
 24 25  1  0  0  0  0
 25 26  1  0  0  0  0
 25 30  1  0  0  0  0
 26 27  1  0  0  0  0
 26 28  2  0  0  0  0
 26 29  2  0  0  0  0
 27 54  1  0  0  0  0
 27 55  1  0  0  0  0
 27 56  1  0  0  0  0
 30 57  1  0  0  0  0
 31 32  1  0  0  0  0
 32 33  1  0  0  0  0
 33 58  1  0  0  0  0
 34 59  1  0  0  0  0
M  END
$$$$
