CHEMBL3985894
 OpenBabel04072215373D

 35 38  0  0  0  0  0  0  0  0999 V2000
    1.2588   -0.0045    0.1788 N   0  0  0  0  0  0  0  0  0  0  0  0
    2.6358   -0.0044    0.0978 C   0  0  0  0  0  0  0  0  0  0  0  0
    3.2320    1.1966    0.0867 N   0  0  0  0  0  0  0  0  0  0  0  0
    4.5785    1.2632    0.0540 C   0  0  0  0  0  0  0  0  0  0  0  0
    5.2222    2.5177    0.1246 N   0  0  0  0  0  0  0  0  0  0  0  0
    4.6394    3.6581    0.7238 C   0  0  0  0  0  0  0  0  0  0  0  0
    3.8426    3.5344    1.8726 C   0  0  0  0  0  0  0  0  0  0  0  0
    3.2364    4.6425    2.4583 C   0  0  0  0  0  0  0  0  0  0  0  0
    3.4488    5.9060    1.9193 C   0  0  0  0  0  0  0  0  0  0  0  0
    4.2897    6.0579    0.8172 C   0  0  0  0  0  0  0  0  0  0  0  0
    4.8964    4.9411    0.2313 C   0  0  0  0  0  0  0  0  0  0  0  0
    5.3062    0.1159   -0.0196 C   0  0  0  0  0  0  0  0  0  0  0  0
    4.5921   -1.0711   -0.0266 C   0  0  0  0  0  0  0  0  0  0  0  0
    3.2622   -1.1789    0.0224 N   0  0  0  0  0  0  0  0  0  0  0  0
    5.5139   -2.1811   -0.0201 C   0  0  0  0  0  0  0  0  0  0  0  0
    5.2869   -3.5453   -0.0180 C   0  0  0  0  0  0  0  0  0  0  0  0
    6.3945   -4.3968   -0.0006 C   0  0  0  0  0  0  0  0  0  0  0  0
    7.7026   -3.8786    0.0181 C   0  0  0  0  0  0  0  0  0  0  0  0
    7.9309   -2.4997    0.0204 C   0  0  0  0  0  0  0  0  0  0  0  0
    6.8291   -1.6635   -0.0005 C   0  0  0  0  0  0  0  0  0  0  0  0
    6.7854   -0.1457    0.0087 C   0  0  0  0  0  0  0  0  0  0  0  0
    0.8958    0.8739   -0.1574 H   0  0  0  0  0  0  0  0  0  0  0  0
    0.8844   -0.8567   -0.2135 H   0  0  0  0  0  0  0  0  0  0  0  0
    5.6735    2.7233   -0.7598 H   0  0  0  0  0  0  0  0  0  0  0  0
    3.6699    2.5532    2.3126 H   0  0  0  0  0  0  0  0  0  0  0  0
    2.5927    4.5077    3.3227 H   0  0  0  0  0  0  0  0  0  0  0  0
    2.9594    6.7703    2.3605 H   0  0  0  0  0  0  0  0  0  0  0  0
    4.4656    7.0491    0.4070 H   0  0  0  0  0  0  0  0  0  0  0  0
    5.5462    5.0871   -0.6269 H   0  0  0  0  0  0  0  0  0  0  0  0
    4.2755   -3.9403   -0.0240 H   0  0  0  0  0  0  0  0  0  0  0  0
    6.2434   -5.4741    0.0025 H   0  0  0  0  0  0  0  0  0  0  0  0
    8.5471   -4.5643    0.0347 H   0  0  0  0  0  0  0  0  0  0  0  0
    8.9412   -2.1051    0.0420 H   0  0  0  0  0  0  0  0  0  0  0  0
    7.2763    0.2613   -0.8795 H   0  0  0  0  0  0  0  0  0  0  0  0
    7.2337    0.2416    0.9290 H   0  0  0  0  0  0  0  0  0  0  0  0
  1  2  1  0  0  0  0
  1 22  1  0  0  0  0
  1 23  1  0  0  0  0
  2  3  1  0  0  0  0
  2 14  2  0  0  0  0
  3  4  2  0  0  0  0
  4  5  1  0  0  0  0
  4 12  1  0  0  0  0
  5  6  1  0  0  0  0
  5 24  1  0  0  0  0
  6  7  1  0  0  0  0
  6 11  2  0  0  0  0
  7  8  2  0  0  0  0
  7 25  1  0  0  0  0
  8  9  1  0  0  0  0
  8 26  1  0  0  0  0
  9 10  2  0  0  0  0
  9 27  1  0  0  0  0
 10 11  1  0  0  0  0
 10 28  1  0  0  0  0
 11 29  1  0  0  0  0
 12 13  2  0  0  0  0
 12 21  1  0  0  0  0
 13 14  1  0  0  0  0
 13 15  1  0  0  0  0
 15 16  1  0  0  0  0
 15 20  2  0  0  0  0
 16 17  2  0  0  0  0
 16 30  1  0  0  0  0
 17 18  1  0  0  0  0
 17 31  1  0  0  0  0
 18 19  2  0  0  0  0
 18 32  1  0  0  0  0
 19 20  1  0  0  0  0
 19 33  1  0  0  0  0
 20 21  1  0  0  0  0
 21 34  1  0  0  0  0
 21 35  1  0  0  0  0
M  END
$$$$
