CHEMBL3702663
 OpenBabel04072215373D

 57 60  0  0  0  0  0  0  0  0999 V2000
    2.4843    0.0029   -0.0518 C   0  0  0  0  0  0  0  0  0  0  0  0
    0.9776   -0.0507    0.0121 C   0  0  0  0  0  0  0  0  0  0  0  0
    0.2697    1.1709    0.0529 C   0  0  0  0  0  0  0  0  0  0  0  0
   -1.1254    1.2084    0.0539 C   0  0  0  0  0  0  0  0  0  0  0  0
   -1.8327    0.0105    0.0327 C   0  0  0  0  0  0  0  0  0  0  0  0
   -3.3136   -0.0642    0.1096 C   0  0  0  0  0  0  0  0  0  0  0  0
   -3.7769   -1.0279    0.7162 O   0  0  0  0  0  0  0  0  0  0  0  0
   -4.0461    0.9068   -0.5593 N   0  0  0  0  0  0  0  0  0  0  0  0
   -5.4665    0.9400   -0.6294 C   0  0  0  0  0  0  0  0  0  0  0  0
   -6.2779    0.2065    0.2394 C   0  0  0  0  0  0  0  0  0  0  0  0
   -7.6657    0.2047    0.1000 C   0  0  0  0  0  0  0  0  0  0  0  0
   -8.2640    0.9417   -0.9147 C   0  0  0  0  0  0  0  0  0  0  0  0
   -7.4848    1.7039   -1.7976 C   0  0  0  0  0  0  0  0  0  0  0  0
   -8.1360    2.4471   -2.9548 C   0  0  0  0  0  0  0  0  0  0  0  0
   -8.8258    1.4705   -3.9168 C   0  0  0  0  0  0  0  0  0  0  0  0
   -9.1336    3.5090   -2.4812 C   0  0  0  0  0  0  0  0  0  0  0  0
   -6.0824    1.7155   -1.6258 C   0  0  0  0  0  0  0  0  0  0  0  0
   -1.1314   -1.2094    0.0108 C   0  0  0  0  0  0  0  0  0  0  0  0
    0.2696   -1.2766   -0.0142 C   0  0  0  0  0  0  0  0  0  0  0  0
    0.9402   -2.5028   -0.1258 N   0  0  0  0  0  0  0  0  0  0  0  0
    0.2410   -3.6084   -0.8124 C   0  0  0  0  0  0  0  0  0  0  0  0
    1.2883   -4.5579   -1.3910 C   0  0  0  0  0  0  0  0  0  0  0  0
    2.3664   -4.8858   -0.3918 C   0  0  0  0  0  0  0  0  0  0  0  0
    3.1800   -5.9213   -0.7008 N   0  0  0  0  0  0  0  0  0  0  0  0
    4.1674   -6.1944    0.1554 C   0  0  0  0  0  0  0  0  0  0  0  0
    5.0177   -7.2326   -0.1641 N   0  0  0  0  0  0  0  0  0  0  0  0
    4.4253   -5.5049    1.2695 N   0  0  0  0  0  0  0  0  0  0  0  0
    3.5966   -4.4788    1.5452 C   0  0  0  0  0  0  0  0  0  0  0  0
    2.5421   -4.1075    0.7411 C   0  0  0  0  0  0  0  0  0  0  0  0
    1.6198   -2.9758    1.0945 C   0  0  0  0  0  0  0  0  0  0  0  0
    2.8431    1.0329   -0.1560 H   0  0  0  0  0  0  0  0  0  0  0  0
    2.8549   -0.5601   -0.9137 H   0  0  0  0  0  0  0  0  0  0  0  0
    2.9325   -0.3870    0.8647 H   0  0  0  0  0  0  0  0  0  0  0  0
    0.8197    2.1129    0.0771 H   0  0  0  0  0  0  0  0  0  0  0  0
   -1.6357    2.1656    0.1076 H   0  0  0  0  0  0  0  0  0  0  0  0
   -3.5467    1.5300   -1.1792 H   0  0  0  0  0  0  0  0  0  0  0  0
   -5.8616   -0.3837    1.0498 H   0  0  0  0  0  0  0  0  0  0  0  0
   -8.2710   -0.3916    0.7759 H   0  0  0  0  0  0  0  0  0  0  0  0
   -9.3457    0.8997   -1.0191 H   0  0  0  0  0  0  0  0  0  0  0  0
   -7.3540    2.9668   -3.5223 H   0  0  0  0  0  0  0  0  0  0  0  0
   -9.6329    0.9127   -3.4282 H   0  0  0  0  0  0  0  0  0  0  0  0
   -8.1112    0.7409   -4.3128 H   0  0  0  0  0  0  0  0  0  0  0  0
   -9.2651    2.0063   -4.7652 H   0  0  0  0  0  0  0  0  0  0  0  0
   -9.9779    3.0691   -1.9390 H   0  0  0  0  0  0  0  0  0  0  0  0
   -9.5439    4.0568   -3.3375 H   0  0  0  0  0  0  0  0  0  0  0  0
   -8.6510    4.2354   -1.8192 H   0  0  0  0  0  0  0  0  0  0  0  0
   -5.4733    2.3016   -2.3102 H   0  0  0  0  0  0  0  0  0  0  0  0
   -1.7172   -2.1267    0.0238 H   0  0  0  0  0  0  0  0  0  0  0  0
   -0.3888   -3.2492   -1.6349 H   0  0  0  0  0  0  0  0  0  0  0  0
   -0.4061   -4.1456   -0.1038 H   0  0  0  0  0  0  0  0  0  0  0  0
    1.7656   -4.0834   -2.2570 H   0  0  0  0  0  0  0  0  0  0  0  0
    0.8034   -5.4776   -1.7369 H   0  0  0  0  0  0  0  0  0  0  0  0
    5.0130   -7.3690   -1.1651 H   0  0  0  0  0  0  0  0  0  0  0  0
    5.9122   -7.0780    0.2784 H   0  0  0  0  0  0  0  0  0  0  0  0
    3.8256   -3.9465    2.4642 H   0  0  0  0  0  0  0  0  0  0  0  0
    2.1964   -2.1838    1.5775 H   0  0  0  0  0  0  0  0  0  0  0  0
    0.8811   -3.3328    1.8247 H   0  0  0  0  0  0  0  0  0  0  0  0
  1  2  1  0  0  0  0
  1 31  1  0  0  0  0
  1 32  1  0  0  0  0
  1 33  1  0  0  0  0
  2  3  1  0  0  0  0
  2 19  2  0  0  0  0
  3  4  2  0  0  0  0
  3 34  1  0  0  0  0
  4  5  1  0  0  0  0
  4 35  1  0  0  0  0
  5  6  1  0  0  0  0
  5 18  2  0  0  0  0
  6  7  2  0  0  0  0
  6  8  1  0  0  0  0
  8  9  1  0  0  0  0
  8 36  1  0  0  0  0
  9 10  1  0  0  0  0
  9 17  2  0  0  0  0
 10 11  2  0  0  0  0
 10 37  1  0  0  0  0
 11 12  1  0  0  0  0
 11 38  1  0  0  0  0
 12 13  2  0  0  0  0
 12 39  1  0  0  0  0
 13 14  1  0  0  0  0
 13 17  1  0  0  0  0
 14 15  1  0  0  0  0
 14 16  1  0  0  0  0
 14 40  1  0  0  0  0
 15 41  1  0  0  0  0
 15 42  1  0  0  0  0
 15 43  1  0  0  0  0
 16 44  1  0  0  0  0
 16 45  1  0  0  0  0
 16 46  1  0  0  0  0
 17 47  1  0  0  0  0
 18 19  1  0  0  0  0
 18 48  1  0  0  0  0
 19 20  1  0  0  0  0
 20 21  1  0  0  0  0
 20 30  1  0  0  0  0
 21 22  1  0  0  0  0
 21 49  1  0  0  0  0
 21 50  1  0  0  0  0
 22 23  1  0  0  0  0
 22 51  1  0  0  0  0
 22 52  1  0  0  0  0
 23 24  1  0  0  0  0
 23 29  2  0  0  0  0
 24 25  2  0  0  0  0
 25 26  1  0  0  0  0
 25 27  1  0  0  0  0
 26 53  1  0  0  0  0
 26 54  1  0  0  0  0
 27 28  2  0  0  0  0
 28 29  1  0  0  0  0
 28 55  1  0  0  0  0
 29 30  1  0  0  0  0
 30 56  1  0  0  0  0
 30 57  1  0  0  0  0
M  END
$$$$
