CHEMBL2088096
 OpenBabel04072215363D

 57 60  0  0  0  0  0  0  0  0999 V2000
    5.6294   -1.1314    3.3593 C   0  0  0  0  0  0  0  0  0  0  0  0
    5.2221   -0.3972    2.2117 O   0  0  0  0  0  0  0  0  0  0  0  0
    4.5778   -1.0879    1.2210 C   0  0  0  0  0  0  0  0  0  0  0  0
    4.3116   -2.4611    1.2159 C   0  0  0  0  0  0  0  0  0  0  0  0
    3.6134   -3.0466    0.1459 C   0  0  0  0  0  0  0  0  0  0  0  0
    3.2720   -4.5204    0.1447 C   0  0  0  0  0  0  0  0  0  0  0  0
    1.9114   -4.7798    0.8020 C   0  0  0  0  0  0  0  0  0  0  0  0
    1.4638   -6.2031    0.7865 C   0  0  0  0  0  0  0  0  0  0  0  0
    0.1893   -6.7322    0.7717 C   0  0  0  0  0  0  0  0  0  0  0  0
    0.3527   -8.1347    0.7264 C   0  0  0  0  0  0  0  0  0  0  0  0
   -0.6972   -8.9840    0.5815 N   0  0  0  0  0  0  0  0  0  0  0  0
   -0.6741  -10.2633   -0.0011 C   0  0  0  0  0  0  0  0  0  0  0  0
    0.4712  -11.0286   -0.0404 C   0  0  0  0  0  0  0  0  0  0  0  0
    0.4281  -12.1608   -0.8041 C   0  0  0  0  0  0  0  0  0  0  0  0
   -0.6655  -12.5432   -1.4813 N   0  0  0  0  0  0  0  0  0  0  0  0
   -1.7667  -11.8060   -1.3185 C   0  0  0  0  0  0  0  0  0  0  0  0
   -2.8701  -12.2248   -2.0530 N   0  0  0  0  0  0  0  0  0  0  0  0
   -4.1560  -11.8109   -1.5169 C   0  0  0  0  0  0  0  0  0  0  0  0
   -5.2997  -12.1856   -2.3927 C   0  0  0  0  0  0  0  0  0  0  0  0
   -5.7457  -13.3689   -2.9310 C   0  0  0  0  0  0  0  0  0  0  0  0
   -6.8766  -13.0024   -3.6935 C   0  0  0  0  0  0  0  0  0  0  0  0
   -7.7409  -13.8644   -4.5299 C   0  0  0  0  0  0  0  0  0  0  0  0
   -7.1188  -11.6887   -3.6032 N   0  0  0  0  0  0  0  0  0  0  0  0
   -6.1247  -11.1783   -2.7865 O   0  0  0  0  0  0  0  0  0  0  0  0
   -1.8148  -10.6778   -0.5896 N   0  0  0  0  0  0  0  0  0  0  0  0
    1.6475   -8.4535    0.7822 N   0  0  0  0  0  0  0  0  0  0  0  0
    2.2953   -7.2805    0.8113 N   0  0  0  0  0  0  0  0  0  0  0  0
    3.1818   -2.2384   -0.9156 C   0  0  0  0  0  0  0  0  0  0  0  0
    3.4274   -0.8659   -0.9061 C   0  0  0  0  0  0  0  0  0  0  0  0
    3.0240    0.0022   -1.8844 O   0  0  0  0  0  0  0  0  0  0  0  0
    1.8167   -0.3581   -2.5508 C   0  0  0  0  0  0  0  0  0  0  0  0
    4.1463   -0.3026    0.1481 C   0  0  0  0  0  0  0  0  0  0  0  0
    5.9824   -0.4159    4.1088 H   0  0  0  0  0  0  0  0  0  0  0  0
    6.4607   -1.7993    3.1124 H   0  0  0  0  0  0  0  0  0  0  0  0
    4.7967   -1.6846    3.8062 H   0  0  0  0  0  0  0  0  0  0  0  0
    4.6363   -3.0926    2.0359 H   0  0  0  0  0  0  0  0  0  0  0  0
    4.0667   -5.0776    0.6558 H   0  0  0  0  0  0  0  0  0  0  0  0
    3.2686   -4.8868   -0.8909 H   0  0  0  0  0  0  0  0  0  0  0  0
    1.1454   -4.1848    0.2865 H   0  0  0  0  0  0  0  0  0  0  0  0
    1.9249   -4.4373    1.8433 H   0  0  0  0  0  0  0  0  0  0  0  0
   -0.7349   -6.1725    0.7445 H   0  0  0  0  0  0  0  0  0  0  0  0
   -1.6263   -8.6053    0.4652 H   0  0  0  0  0  0  0  0  0  0  0  0
    1.3857  -10.7487    0.4589 H   0  0  0  0  0  0  0  0  0  0  0  0
    1.3012  -12.7898   -0.9141 H   0  0  0  0  0  0  0  0  0  0  0  0
   -2.7131  -11.8926   -2.9988 H   0  0  0  0  0  0  0  0  0  0  0  0
   -4.1941  -10.7310   -1.3307 H   0  0  0  0  0  0  0  0  0  0  0  0
   -4.3033  -12.3161   -0.5540 H   0  0  0  0  0  0  0  0  0  0  0  0
   -5.3040  -14.3462   -2.8046 H   0  0  0  0  0  0  0  0  0  0  0  0
   -7.4263  -14.9115   -4.4734 H   0  0  0  0  0  0  0  0  0  0  0  0
   -7.6893  -13.5539   -5.5787 H   0  0  0  0  0  0  0  0  0  0  0  0
   -8.7838  -13.8062   -4.2024 H   0  0  0  0  0  0  0  0  0  0  0  0
    3.3081   -7.3128    0.8251 H   0  0  0  0  0  0  0  0  0  0  0  0
    2.6600   -2.7017   -1.7467 H   0  0  0  0  0  0  0  0  0  0  0  0
    1.4850    0.5060   -3.1344 H   0  0  0  0  0  0  0  0  0  0  0  0
    1.0224   -0.6032   -1.8365 H   0  0  0  0  0  0  0  0  0  0  0  0
    1.9841   -1.1846   -3.2485 H   0  0  0  0  0  0  0  0  0  0  0  0
    4.3494    0.7659    0.1465 H   0  0  0  0  0  0  0  0  0  0  0  0
  1  2  1  0  0  0  0
  1 33  1  0  0  0  0
  1 34  1  0  0  0  0
  1 35  1  0  0  0  0
  2  3  1  0  0  0  0
  3  4  1  0  0  0  0
  3 32  2  0  0  0  0
  4  5  2  0  0  0  0
  4 36  1  0  0  0  0
  5  6  1  0  0  0  0
  5 28  1  0  0  0  0
  6  7  1  0  0  0  0
  6 37  1  0  0  0  0
  6 38  1  0  0  0  0
  7  8  1  0  0  0  0
  7 39  1  0  0  0  0
  7 40  1  0  0  0  0
  8  9  2  0  0  0  0
  8 27  1  0  0  0  0
  9 10  1  0  0  0  0
  9 41  1  0  0  0  0
 10 11  1  0  0  0  0
 10 26  2  0  0  0  0
 11 12  1  0  0  0  0
 11 42  1  0  0  0  0
 12 13  1  0  0  0  0
 12 25  2  0  0  0  0
 13 14  2  0  0  0  0
 13 43  1  0  0  0  0
 14 15  1  0  0  0  0
 14 44  1  0  0  0  0
 15 16  2  0  0  0  0
 16 17  1  0  0  0  0
 16 25  1  0  0  0  0
 17 18  1  0  0  0  0
 17 45  1  0  0  0  0
 18 19  1  0  0  0  0
 18 46  1  0  0  0  0
 18 47  1  0  0  0  0
 19 20  2  0  0  0  0
 19 24  1  0  0  0  0
 20 21  1  0  0  0  0
 20 48  1  0  0  0  0
 21 22  1  0  0  0  0
 21 23  2  0  0  0  0
 22 49  1  0  0  0  0
 22 50  1  0  0  0  0
 22 51  1  0  0  0  0
 23 24  1  0  0  0  0
 26 27  1  0  0  0  0
 27 52  1  0  0  0  0
 28 29  2  0  0  0  0
 28 53  1  0  0  0  0
 29 30  1  0  0  0  0
 29 32  1  0  0  0  0
 30 31  1  0  0  0  0
 31 54  1  0  0  0  0
 31 55  1  0  0  0  0
 31 56  1  0  0  0  0
 32 57  1  0  0  0  0
M  END
$$$$
