CHEMBL4109002
 OpenBabel04072215383D

 76 80  0  0  1  0  0  0  0  0999 V2000
    8.0125   -2.0641   -9.2101 C   0  0  0  0  0  0  0  0  0  0  0  0
    6.7816   -1.3552   -9.0632 O   0  0  0  0  0  0  0  0  0  0  0  0
    6.9305   -0.0045   -8.9151 C   0  0  0  0  0  0  0  0  0  0  0  0
    8.0067    0.5796   -8.9557 O   0  0  0  0  0  0  0  0  0  0  0  0
    5.5627    0.6758   -8.7813 C   0  0  2  0  0  0  0  0  0  0  0  0
    5.6815    2.1954   -8.6596 C   0  0  0  0  0  0  0  0  0  0  0  0
    4.4798    2.5777   -7.8264 C   0  0  1  0  0  0  0  0  0  0  0  0
    3.3175    2.6828   -8.6500 O   0  0  0  0  0  0  0  0  0  0  0  0
    4.3619    1.4200   -6.8436 C   0  0  0  0  0  0  0  0  0  0  0  0
    4.8396    0.2178   -7.5537 N   0  0  0  0  0  0  0  0  0  0  0  0
    3.7944   -0.7598   -7.8799 C   0  0  0  0  0  0  0  0  0  0  0  0
    3.0976   -1.3747   -6.6575 C   0  0  0  0  0  0  0  0  0  0  0  0
    1.9974   -2.3527   -7.0746 C   0  0  0  0  0  0  0  0  0  0  0  0
    2.5032   -3.5010   -7.7937 N   0  0  0  0  0  0  0  0  0  0  0  0
    3.0094   -4.6075   -7.1349 C   0  0  0  0  0  0  0  0  0  0  0  0
    3.0301   -4.6683   -5.9088 O   0  0  0  0  0  0  0  0  0  0  0  0
    3.5026   -5.6542   -8.0175 C   0  0  0  0  0  0  0  0  0  0  0  0
    3.2079   -5.8893   -9.3461 C   0  0  0  0  0  0  0  0  0  0  0  0
    3.8733   -7.0329   -9.8670 C   0  0  0  0  0  0  0  0  0  0  0  0
    3.7362   -7.4824  -11.1424 N   0  0  0  0  0  0  0  0  0  0  0  0
    4.4534   -8.5746  -11.4558 C   0  0  0  0  0  0  0  0  0  0  0  0
    5.2914   -9.2490  -10.5902 C   0  0  0  0  0  0  0  0  0  0  0  0
    5.3770   -8.8251   -9.2602 C   0  0  0  0  0  0  0  0  0  0  0  0
    6.1336   -9.4933   -8.3121 O   0  0  0  0  0  0  0  0  0  0  0  0
    6.0320  -10.8683   -8.2538 C   0  0  0  0  0  0  0  0  0  0  0  0
    4.8929  -11.5691   -8.6534 C   0  0  0  0  0  0  0  0  0  0  0  0
    4.9013  -12.9618   -8.6952 C   0  0  0  0  0  0  0  0  0  0  0  0
    6.0346  -13.6781   -8.2990 C   0  0  0  0  0  0  0  0  0  0  0  0
    6.0939  -15.0912   -8.4236 N   0  0  0  0  0  0  0  0  0  0  0  0
    5.4069  -15.7690   -9.4132 C   0  0  0  0  0  0  0  0  0  0  0  0
    4.8218  -15.2031  -10.3386 O   0  0  0  0  0  0  0  0  0  0  0  0
    5.4143  -17.1416   -9.2403 N   0  0  0  0  0  0  0  0  0  0  0  0
    4.6279  -17.9195  -10.1357 C   0  0  0  0  0  0  0  0  0  0  0  0
    4.7200  -17.7348  -11.5211 C   0  0  0  0  0  0  0  0  0  0  0  0
    3.7865  -18.3205  -12.3850 C   0  0  0  0  0  0  0  0  0  0  0  0
    3.8309  -18.0293  -13.8566 C   0  0  0  0  0  0  0  0  0  0  0  0
    2.7631  -19.1100  -11.8455 C   0  0  0  0  0  0  0  0  0  0  0  0
    2.7086  -19.3541  -10.4699 C   0  0  0  0  0  0  0  0  0  0  0  0
    3.6536  -18.7763   -9.6265 C   0  0  0  0  0  0  0  0  0  0  0  0
    3.5554  -18.9643   -8.3015 F   0  0  0  0  0  0  0  0  0  0  0  0
    7.1139  -12.9722   -7.7670 C   0  0  0  0  0  0  0  0  0  0  0  0
    8.1902  -13.6380   -7.3184 F   0  0  0  0  0  0  0  0  0  0  0  0
    7.1285  -11.5737   -7.7525 C   0  0  0  0  0  0  0  0  0  0  0  0
    4.6721   -7.6614   -8.9127 C   0  0  0  0  0  0  0  0  0  0  0  0
    4.5906   -6.8295   -7.4104 S   0  0  0  0  0  0  0  0  0  0  0  0
    7.7803   -3.1274   -9.3167 H   0  0  0  0  0  0  0  0  0  0  0  0
    8.6397   -1.9334   -8.3227 H   0  0  0  0  0  0  0  0  0  0  0  0
    8.5403   -1.7345  -10.1107 H   0  0  0  0  0  0  0  0  0  0  0  0
    4.9906    0.4538   -9.6926 H   0  0  0  0  0  0  0  0  0  0  0  0
    5.6720    2.6720   -9.6458 H   0  0  0  0  0  0  0  0  0  0  0  0
    6.5994    2.4886   -8.1372 H   0  0  0  0  0  0  0  0  0  0  0  0
    4.6154    3.5380   -7.3205 H   0  0  0  0  0  0  0  0  0  0  0  0
    3.0820    1.7899   -8.9519 H   0  0  0  0  0  0  0  0  0  0  0  0
    3.3468    1.3363   -6.4480 H   0  0  0  0  0  0  0  0  0  0  0  0
    5.0408    1.5881   -5.9982 H   0  0  0  0  0  0  0  0  0  0  0  0
    4.2574   -1.5796   -8.4421 H   0  0  0  0  0  0  0  0  0  0  0  0
    3.0413   -0.3143   -8.5407 H   0  0  0  0  0  0  0  0  0  0  0  0
    2.6239   -0.5975   -6.0490 H   0  0  0  0  0  0  0  0  0  0  0  0
    3.8349   -1.8781   -6.0213 H   0  0  0  0  0  0  0  0  0  0  0  0
    1.2710   -1.8573   -7.7282 H   0  0  0  0  0  0  0  0  0  0  0  0
    1.4610   -2.7019   -6.1856 H   0  0  0  0  0  0  0  0  0  0  0  0
    2.6635   -3.4105   -8.7872 H   0  0  0  0  0  0  0  0  0  0  0  0
    2.5209   -5.2975   -9.9356 H   0  0  0  0  0  0  0  0  0  0  0  0
    4.3215   -8.9271  -12.4767 H   0  0  0  0  0  0  0  0  0  0  0  0
    5.8302  -10.1233  -10.9403 H   0  0  0  0  0  0  0  0  0  0  0  0
    3.9919  -11.0562   -8.9780 H   0  0  0  0  0  0  0  0  0  0  0  0
    4.0140  -13.4614   -9.0690 H   0  0  0  0  0  0  0  0  0  0  0  0
    6.9235  -15.5452   -8.0613 H   0  0  0  0  0  0  0  0  0  0  0  0
    5.3524  -17.4252   -8.2685 H   0  0  0  0  0  0  0  0  0  0  0  0
    5.4905  -17.0811  -11.9256 H   0  0  0  0  0  0  0  0  0  0  0  0
    4.7678  -17.5358  -14.1385 H   0  0  0  0  0  0  0  0  0  0  0  0
    3.0037  -17.3681  -14.1343 H   0  0  0  0  0  0  0  0  0  0  0  0
    3.7617  -18.9576  -14.4314 H   0  0  0  0  0  0  0  0  0  0  0  0
    1.9931  -19.5223  -12.4942 H   0  0  0  0  0  0  0  0  0  0  0  0
    1.9075  -19.9529  -10.0488 H   0  0  0  0  0  0  0  0  0  0  0  0
    7.9995  -11.0473   -7.3738 H   0  0  0  0  0  0  0  0  0  0  0  0
  1  2  1  0  0  0  0
  1 46  1  0  0  0  0
  1 47  1  0  0  0  0
  1 48  1  0  0  0  0
  2  3  1  0  0  0  0
  3  4  2  0  0  0  0
  5  6  1  0  0  0  0
  5 10  1  0  0  0  0
  5  3  1  0  0  0  0
  5 49  1  6  0  0  0
  6  7  1  0  0  0  0
  6 50  1  0  0  0  0
  6 51  1  0  0  0  0
  7  8  1  0  0  0  0
  7  9  1  0  0  0  0
  7 52  1  1  0  0  0
  8 53  1  0  0  0  0
  9 10  1  0  0  0  0
  9 54  1  0  0  0  0
  9 55  1  0  0  0  0
 10 11  1  0  0  0  0
 11 12  1  0  0  0  0
 11 56  1  0  0  0  0
 11 57  1  0  0  0  0
 12 13  1  0  0  0  0
 12 58  1  0  0  0  0
 12 59  1  0  0  0  0
 13 14  1  0  0  0  0
 13 60  1  0  0  0  0
 13 61  1  0  0  0  0
 14 15  1  0  0  0  0
 14 62  1  0  0  0  0
 15 16  2  0  0  0  0
 15 17  1  0  0  0  0
 17 18  2  0  0  0  0
 17 45  1  0  0  0  0
 18 19  1  0  0  0  0
 18 63  1  0  0  0  0
 19 20  1  0  0  0  0
 19 44  2  0  0  0  0
 20 21  2  0  0  0  0
 21 22  1  0  0  0  0
 21 64  1  0  0  0  0
 22 23  2  0  0  0  0
 22 65  1  0  0  0  0
 23 24  1  0  0  0  0
 23 44  1  0  0  0  0
 24 25  1  0  0  0  0
 25 26  1  0  0  0  0
 25 43  2  0  0  0  0
 26 27  2  0  0  0  0
 26 66  1  0  0  0  0
 27 28  1  0  0  0  0
 27 67  1  0  0  0  0
 28 29  1  0  0  0  0
 28 41  2  0  0  0  0
 29 30  1  0  0  0  0
 29 68  1  0  0  0  0
 30 31  2  0  0  0  0
 30 32  1  0  0  0  0
 32 33  1  0  0  0  0
 32 69  1  0  0  0  0
 33 34  1  0  0  0  0
 33 39  2  0  0  0  0
 34 35  2  0  0  0  0
 34 70  1  0  0  0  0
 35 36  1  0  0  0  0
 35 37  1  0  0  0  0
 36 71  1  0  0  0  0
 36 72  1  0  0  0  0
 36 73  1  0  0  0  0
 37 38  2  0  0  0  0
 37 74  1  0  0  0  0
 38 39  1  0  0  0  0
 38 75  1  0  0  0  0
 39 40  1  0  0  0  0
 41 42  1  0  0  0  0
 41 43  1  0  0  0  0
 43 76  1  0  0  0  0
 44 45  1  0  0  0  0
M  END
$$$$
