CHEMBL379896
 OpenBabel04072215373D

 43 45  0  0  0  0  0  0  0  0999 V2000
    3.2713    1.9710    3.1472 C   0  0  0  0  0  0  0  0  0  0  0  0
    4.1454    0.9797    2.6217 O   0  0  0  0  0  0  0  0  0  0  0  0
    3.4942    0.1921    1.6260 C   0  0  0  0  0  0  0  0  0  0  0  0
    4.4254   -0.8960    1.0529 C   0  0  0  0  0  0  0  0  0  0  0  0
    4.9683   -1.8946    1.9954 N   0  0  0  0  0  0  0  0  0  0  0  0
    5.8001   -2.8996    1.2868 C   0  0  0  0  0  0  0  0  0  0  0  0
    5.0147   -3.8802    0.3904 C   0  0  0  0  0  0  0  0  0  0  0  0
    3.8884   -4.4883    1.0986 N   0  0  0  0  0  0  0  0  0  0  0  0
    3.8124   -5.8640    1.2140 C   0  0  0  0  0  0  0  0  0  0  0  0
    2.5787   -6.4733    1.3380 C   0  0  0  0  0  0  0  0  0  0  0  0
    2.5160   -7.8463    1.4722 C   0  0  0  0  0  0  0  0  0  0  0  0
    1.3056   -8.5303    1.6272 N   0  0  0  0  0  0  0  0  0  0  0  0
    0.1911   -8.0444    2.2206 C   0  0  0  0  0  0  0  0  0  0  0  0
    0.0209   -6.8202    2.6765 N   0  0  0  0  0  0  0  0  0  0  0  0
   -1.2044   -6.6858    3.2835 C   0  0  0  0  0  0  0  0  0  0  0  0
   -1.9869   -7.8097    3.2625 C   0  0  0  0  0  0  0  0  0  0  0  0
   -3.2927   -7.9114    3.8325 C   0  0  0  0  0  0  0  0  0  0  0  0
   -4.3517   -7.9721    4.3023 N   0  0  0  0  0  0  0  0  0  0  0  0
   -1.1684   -9.0810    2.4741 S   0  0  0  0  0  0  0  0  0  0  0  0
    3.6254   -8.5982    1.4424 N   0  0  0  0  0  0  0  0  0  0  0  0
    4.7802   -7.9295    1.3076 C   0  0  0  0  0  0  0  0  0  0  0  0
    4.9297   -6.6036    1.1808 N   0  0  0  0  0  0  0  0  0  0  0  0
    3.0860   -3.6375    1.9897 C   0  0  0  0  0  0  0  0  0  0  0  0
    3.9506   -2.6229    2.7742 C   0  0  0  0  0  0  0  0  0  0  0  0
    3.8219    2.5742    3.8738 H   0  0  0  0  0  0  0  0  0  0  0  0
    2.4230    1.5005    3.6542 H   0  0  0  0  0  0  0  0  0  0  0  0
    2.9116    2.6284    2.3491 H   0  0  0  0  0  0  0  0  0  0  0  0
    3.2020    0.8544    0.8015 H   0  0  0  0  0  0  0  0  0  0  0  0
    2.5813   -0.2531    2.0355 H   0  0  0  0  0  0  0  0  0  0  0  0
    5.2835   -0.3774    0.6059 H   0  0  0  0  0  0  0  0  0  0  0  0
    3.8803   -1.3820    0.2364 H   0  0  0  0  0  0  0  0  0  0  0  0
    6.3474   -3.4811    2.0406 H   0  0  0  0  0  0  0  0  0  0  0  0
    6.5672   -2.3941    0.6881 H   0  0  0  0  0  0  0  0  0  0  0  0
    5.7065   -4.6215   -0.0257 H   0  0  0  0  0  0  0  0  0  0  0  0
    4.6103   -3.3439   -0.4768 H   0  0  0  0  0  0  0  0  0  0  0  0
    1.6791   -5.8762    1.2857 H   0  0  0  0  0  0  0  0  0  0  0  0
    1.4659   -9.5296    1.6388 H   0  0  0  0  0  0  0  0  0  0  0  0
   -1.4698   -5.7319    3.7297 H   0  0  0  0  0  0  0  0  0  0  0  0
    5.6894   -8.5221    1.3085 H   0  0  0  0  0  0  0  0  0  0  0  0
    2.5412   -4.2308    2.7362 H   0  0  0  0  0  0  0  0  0  0  0  0
    2.3356   -3.1083    1.3922 H   0  0  0  0  0  0  0  0  0  0  0  0
    4.4804   -3.1730    3.5646 H   0  0  0  0  0  0  0  0  0  0  0  0
    3.2993   -1.9279    3.3157 H   0  0  0  0  0  0  0  0  0  0  0  0
  1  2  1  0  0  0  0
  1 25  1  0  0  0  0
  1 26  1  0  0  0  0
  1 27  1  0  0  0  0
  2  3  1  0  0  0  0
  3  4  1  0  0  0  0
  3 28  1  0  0  0  0
  3 29  1  0  0  0  0
  4  5  1  0  0  0  0
  4 30  1  0  0  0  0
  4 31  1  0  0  0  0
  5  6  1  0  0  0  0
  5 24  1  0  0  0  0
  6  7  1  0  0  0  0
  6 32  1  0  0  0  0
  6 33  1  0  0  0  0
  7  8  1  0  0  0  0
  7 34  1  0  0  0  0
  7 35  1  0  0  0  0
  8  9  1  0  0  0  0
  8 23  1  0  0  0  0
  9 10  1  0  0  0  0
  9 22  2  0  0  0  0
 10 11  2  0  0  0  0
 10 36  1  0  0  0  0
 11 12  1  0  0  0  0
 11 20  1  0  0  0  0
 12 13  1  0  0  0  0
 12 37  1  0  0  0  0
 13 14  2  0  0  0  0
 13 19  1  0  0  0  0
 14 15  1  0  0  0  0
 15 16  2  0  0  0  0
 15 38  1  0  0  0  0
 16 17  1  0  0  0  0
 16 19  1  0  0  0  0
 17 18  3  0  0  0  0
 20 21  2  0  0  0  0
 21 22  1  0  0  0  0
 21 39  1  0  0  0  0
 23 24  1  0  0  0  0
 23 40  1  0  0  0  0
 23 41  1  0  0  0  0
 24 42  1  0  0  0  0
 24 43  1  0  0  0  0
M  END
$$$$
