CHEMBL3221266
 OpenBabel04072215363D

 57 58  0  0  0  0  0  0  0  0999 V2000
    8.5568    2.6667    0.1951 C   0  0  0  0  0  0  0  0  0  0  0  0
    8.4535    1.1824    0.5159 C   0  0  0  0  0  0  0  0  0  0  0  0
    6.9916    0.7470    0.3837 C   0  0  0  0  0  0  0  0  0  0  0  0
    6.7712   -0.7270    0.7300 C   0  0  0  0  0  0  0  0  0  0  0  0
    7.2144   -1.0226    2.1305 C   0  0  0  0  0  0  0  0  0  0  0  0
    8.1168   -1.8249    2.3219 O   0  0  0  0  0  0  0  0  0  0  0  0
    6.6270   -0.3868    3.1821 N   0  0  0  0  0  0  0  0  0  0  0  0
    7.0551   -0.6044    4.5007 C   0  0  0  0  0  0  0  0  0  0  0  0
    8.0876    0.1797    5.0346 C   0  0  0  0  0  0  0  0  0  0  0  0
    8.5367   -0.0082    6.3417 C   0  0  0  0  0  0  0  0  0  0  0  0
    7.9219   -0.9659    7.1630 C   0  0  0  0  0  0  0  0  0  0  0  0
    8.3594   -1.1360    8.5069 N   0  0  0  0  0  0  0  0  0  0  0  0
    7.4908   -1.6553    9.5181 C   0  0  0  0  0  0  0  0  0  0  0  0
    6.1575   -1.4070    9.4070 N   0  0  0  0  0  0  0  0  0  0  0  0
    5.2670   -1.8543   10.3252 C   0  0  0  0  0  0  0  0  0  0  0  0
    5.6926   -2.6071   11.3656 N   0  0  0  0  0  0  0  0  0  0  0  0
    7.0045   -2.9045   11.5284 C   0  0  0  0  0  0  0  0  0  0  0  0
    7.4027   -3.7110   12.5916 C   0  0  0  0  0  0  0  0  0  0  0  0
    8.7605   -4.0541   12.8100 C   0  0  0  0  0  0  0  0  0  0  0  0
    9.0865   -4.8612   13.8702 O   0  0  0  0  0  0  0  0  0  0  0  0
    8.1593   -5.3733   14.8003 C   0  0  0  0  0  0  0  0  0  0  0  0
    9.7389   -3.5248   11.8721 C   0  0  0  0  0  0  0  0  0  0  0  0
   11.0922   -3.7055   11.8443 O   0  0  0  0  0  0  0  0  0  0  0  0
   12.0242   -4.3742   12.5934 C   0  0  0  0  0  0  0  0  0  0  0  0
    9.3026   -2.7252   10.8149 C   0  0  0  0  0  0  0  0  0  0  0  0
    7.9573   -2.4114   10.6174 C   0  0  0  0  0  0  0  0  0  0  0  0
    6.8966   -1.7767    6.6283 C   0  0  0  0  0  0  0  0  0  0  0  0
    6.4710   -1.6335    5.3009 C   0  0  0  0  0  0  0  0  0  0  0  0
    5.4433   -2.5956    4.7617 C   0  0  0  0  0  0  0  0  0  0  0  0
   -1.0150    1.5286   -0.8524 Cl  0  0  0  0  0  0  0  0  0  0  0  0
    9.6115    2.9977    0.2670 H   0  0  0  0  0  0  0  0  0  0  0  0
    7.9385    3.2508    0.9127 H   0  0  0  0  0  0  0  0  0  0  0  0
    8.1842    2.8550   -0.8339 H   0  0  0  0  0  0  0  0  0  0  0  0
    8.8219    1.0122    1.5532 H   0  0  0  0  0  0  0  0  0  0  0  0
    9.0872    0.5992   -0.1864 H   0  0  0  0  0  0  0  0  0  0  0  0
    6.6592    0.9183   -0.6619 H   0  0  0  0  0  0  0  0  0  0  0  0
    6.3714    1.3778    1.0558 H   0  0  0  0  0  0  0  0  0  0  0  0
    7.3235   -1.3735    0.0148 H   0  0  0  0  0  0  0  0  0  0  0  0
    5.6868   -0.9508    0.6414 H   0  0  0  0  0  0  0  0  0  0  0  0
    5.8794    0.3054    3.0141 H   0  0  0  0  0  0  0  0  0  0  0  0
    8.5616    0.9434    4.4197 H   0  0  0  0  0  0  0  0  0  0  0  0
    9.3399    0.5996    6.7284 H   0  0  0  0  0  0  0  0  0  0  0  0
    9.3012   -0.8078    8.7694 H   0  0  0  0  0  0  0  0  0  0  0  0
    4.2217   -1.6036   10.2145 H   0  0  0  0  0  0  0  0  0  0  0  0
    6.6271   -4.0796   13.2486 H   0  0  0  0  0  0  0  0  0  0  0  0
    8.6822   -6.0114   15.5383 H   0  0  0  0  0  0  0  0  0  0  0  0
    7.3870   -6.0120   14.3117 H   0  0  0  0  0  0  0  0  0  0  0  0
    7.6481   -4.5645   15.3738 H   0  0  0  0  0  0  0  0  0  0  0  0
   13.0150   -4.1985   12.1050 H   0  0  0  0  0  0  0  0  0  0  0  0
   11.8487   -5.4662   12.5665 H   0  0  0  0  0  0  0  0  0  0  0  0
   12.0955   -3.9482   13.6124 H   0  0  0  0  0  0  0  0  0  0  0  0
   10.0523   -2.3574   10.1272 H   0  0  0  0  0  0  0  0  0  0  0  0
    6.4524   -2.5564    7.2207 H   0  0  0  0  0  0  0  0  0  0  0  0
    5.1941   -3.3789    5.5190 H   0  0  0  0  0  0  0  0  0  0  0  0
    5.8525   -3.1387    3.8804 H   0  0  0  0  0  0  0  0  0  0  0  0
    4.4827   -2.1084    4.4771 H   0  0  0  0  0  0  0  0  0  0  0  0
    0.2031    1.7163   -1.4634 H   0  0  0  0  0  0  0  0  0  0  0  0
  1  2  1  0  0  0  0
  1 31  1  0  0  0  0
  1 32  1  0  0  0  0
  1 33  1  0  0  0  0
  2  3  1  0  0  0  0
  2 34  1  0  0  0  0
  2 35  1  0  0  0  0
  3  4  1  0  0  0  0
  3 36  1  0  0  0  0
  3 37  1  0  0  0  0
  4  5  1  0  0  0  0
  4 38  1  0  0  0  0
  4 39  1  0  0  0  0
  5  6  2  0  0  0  0
  5  7  1  0  0  0  0
  7  8  1  0  0  0  0
  7 40  1  0  0  0  0
  8  9  1  0  0  0  0
  8 28  2  0  0  0  0
  9 10  2  0  0  0  0
  9 41  1  0  0  0  0
 10 11  1  0  0  0  0
 10 42  1  0  0  0  0
 11 12  1  0  0  0  0
 11 27  2  0  0  0  0
 12 13  1  0  0  0  0
 12 43  1  0  0  0  0
 13 14  1  0  0  0  0
 13 26  2  0  0  0  0
 14 15  2  0  0  0  0
 15 16  1  0  0  0  0
 15 44  1  0  0  0  0
 16 17  2  0  0  0  0
 17 18  1  0  0  0  0
 17 26  1  0  0  0  0
 18 19  2  0  0  0  0
 18 45  1  0  0  0  0
 19 20  1  0  0  0  0
 19 22  1  0  0  0  0
 20 21  1  0  0  0  0
 21 46  1  0  0  0  0
 21 47  1  0  0  0  0
 21 48  1  0  0  0  0
 22 23  1  0  0  0  0
 22 25  2  0  0  0  0
 23 24  1  0  0  0  0
 24 49  1  0  0  0  0
 24 50  1  0  0  0  0
 24 51  1  0  0  0  0
 25 26  1  0  0  0  0
 25 52  1  0  0  0  0
 27 28  1  0  0  0  0
 27 53  1  0  0  0  0
 28 29  1  0  0  0  0
 29 54  1  0  0  0  0
 29 55  1  0  0  0  0
 29 56  1  0  0  0  0
 30 57  1  0  0  0  0
M  END
$$$$
