CHEMBL187684
 OpenBabel04072215363D

 54 57  0  0  0  0  0  0  0  0999 V2000
    2.6341    0.3616   -4.7153 Cl  0  0  0  0  0  0  0  0  0  0  0  0
    3.4545    1.1167   -3.4057 C   0  0  0  0  0  0  0  0  0  0  0  0
    3.7874    2.4712   -3.4963 C   0  0  0  0  0  0  0  0  0  0  0  0
    4.4488    3.0793   -2.4305 C   0  0  0  0  0  0  0  0  0  0  0  0
    4.7675    2.3442   -1.2869 C   0  0  0  0  0  0  0  0  0  0  0  0
    4.4400    0.9719   -1.1936 C   0  0  0  0  0  0  0  0  0  0  0  0
    4.6851    0.2511    0.0043 N   0  0  0  0  0  0  0  0  0  0  0  0
    4.9398   -1.1550    0.0218 C   0  0  0  0  0  0  0  0  0  0  0  0
    4.5720   -1.9044    1.1412 C   0  0  0  0  0  0  0  0  0  0  0  0
    4.8519   -3.2259    1.2923 N   0  0  0  0  0  0  0  0  0  0  0  0
    5.5460   -3.7662    0.2744 C   0  0  0  0  0  0  0  0  0  0  0  0
    5.9187   -3.0582   -0.8626 C   0  0  0  0  0  0  0  0  0  0  0  0
    6.6721   -3.6715   -1.9538 C   0  0  0  0  0  0  0  0  0  0  0  0
    7.5223   -4.7500   -1.7188 C   0  0  0  0  0  0  0  0  0  0  0  0
    8.2593   -5.3776   -2.6532 N   0  0  0  0  0  0  0  0  0  0  0  0
    8.1398   -4.9064   -3.9163 C   0  0  0  0  0  0  0  0  0  0  0  0
    7.3391   -3.8244   -4.2994 C   0  0  0  0  0  0  0  0  0  0  0  0
    7.3914   -3.3559   -5.6029 N   0  0  0  0  0  0  0  0  0  0  0  0
    7.0937   -1.9669   -5.9143 C   0  0  0  0  0  0  0  0  0  0  0  0
    7.8793   -1.5270   -7.1522 C   0  0  0  0  0  0  0  0  0  0  0  0
    7.4934   -2.3688   -8.3690 C   0  0  0  0  0  0  0  0  0  0  0  0
    8.2597   -1.9471   -9.6154 C   0  0  0  0  0  0  0  0  0  0  0  0
    7.8748   -2.7900  -10.8021 C   0  0  0  0  0  0  0  0  0  0  0  0
    6.8158   -2.4083  -11.6288 C   0  0  0  0  0  0  0  0  0  0  0  0
    6.4849   -3.2176  -12.7033 C   0  0  0  0  0  0  0  0  0  0  0  0
    7.1233   -4.3698  -13.0004 N   0  0  0  0  0  0  0  0  0  0  0  0
    8.1365   -4.7261  -12.1823 C   0  0  0  0  0  0  0  0  0  0  0  0
    8.5430   -3.9842  -11.0841 C   0  0  0  0  0  0  0  0  0  0  0  0
    6.6038   -3.2186   -3.2817 C   0  0  0  0  0  0  0  0  0  0  0  0
    5.6124   -1.7336   -0.9893 N   0  0  0  0  0  0  0  0  0  0  0  0
    3.7606    0.3843   -2.2673 C   0  0  0  0  0  0  0  0  0  0  0  0
    3.5308    3.0450   -4.3810 H   0  0  0  0  0  0  0  0  0  0  0  0
    4.7158    4.1356   -2.4951 H   0  0  0  0  0  0  0  0  0  0  0  0
    5.3072    2.8477   -0.4929 H   0  0  0  0  0  0  0  0  0  0  0  0
    3.9782    0.4761    0.6995 H   0  0  0  0  0  0  0  0  0  0  0  0
    4.0072   -1.4685    1.9556 H   0  0  0  0  0  0  0  0  0  0  0  0
    5.7921   -4.8113    0.3998 H   0  0  0  0  0  0  0  0  0  0  0  0
    7.6588   -5.1566   -0.7164 H   0  0  0  0  0  0  0  0  0  0  0  0
    8.7708   -5.4097   -4.6399 H   0  0  0  0  0  0  0  0  0  0  0  0
    7.2245   -4.0473   -6.3270 H   0  0  0  0  0  0  0  0  0  0  0  0
    7.3961   -1.3298   -5.0750 H   0  0  0  0  0  0  0  0  0  0  0  0
    6.0223   -1.8234   -6.0934 H   0  0  0  0  0  0  0  0  0  0  0  0
    8.9589   -1.6101   -6.9636 H   0  0  0  0  0  0  0  0  0  0  0  0
    7.6757   -0.4671   -7.3577 H   0  0  0  0  0  0  0  0  0  0  0  0
    6.4129   -2.2834   -8.5368 H   0  0  0  0  0  0  0  0  0  0  0  0
    7.6951   -3.4263   -8.1663 H   0  0  0  0  0  0  0  0  0  0  0  0
    9.3395   -2.0246   -9.4398 H   0  0  0  0  0  0  0  0  0  0  0  0
    8.0606   -0.8933   -9.8411 H   0  0  0  0  0  0  0  0  0  0  0  0
    6.2559   -1.4970  -11.4445 H   0  0  0  0  0  0  0  0  0  0  0  0
    5.6719   -2.9533  -13.3730 H   0  0  0  0  0  0  0  0  0  0  0  0
    8.6314   -5.6582  -12.4398 H   0  0  0  0  0  0  0  0  0  0  0  0
    9.3636   -4.3335  -10.4667 H   0  0  0  0  0  0  0  0  0  0  0  0
    5.9578   -2.3685   -3.5013 H   0  0  0  0  0  0  0  0  0  0  0  0
    3.4816   -0.6676   -2.2138 H   0  0  0  0  0  0  0  0  0  0  0  0
  1  2  1  0  0  0  0
  2  3  1  0  0  0  0
  2 31  2  0  0  0  0
  3  4  2  0  0  0  0
  3 32  1  0  0  0  0
  4  5  1  0  0  0  0
  4 33  1  0  0  0  0
  5  6  2  0  0  0  0
  5 34  1  0  0  0  0
  6  7  1  0  0  0  0
  6 31  1  0  0  0  0
  7  8  1  0  0  0  0
  7 35  1  0  0  0  0
  8  9  1  0  0  0  0
  8 30  2  0  0  0  0
  9 10  2  0  0  0  0
  9 36  1  0  0  0  0
 10 11  1  0  0  0  0
 11 12  2  0  0  0  0
 11 37  1  0  0  0  0
 12 13  1  0  0  0  0
 12 30  1  0  0  0  0
 13 14  1  0  0  0  0
 13 29  2  0  0  0  0
 14 15  2  0  0  0  0
 14 38  1  0  0  0  0
 15 16  1  0  0  0  0
 16 17  2  0  0  0  0
 16 39  1  0  0  0  0
 17 18  1  0  0  0  0
 17 29  1  0  0  0  0
 18 19  1  0  0  0  0
 18 40  1  0  0  0  0
 19 20  1  0  0  0  0
 19 41  1  0  0  0  0
 19 42  1  0  0  0  0
 20 21  1  0  0  0  0
 20 43  1  0  0  0  0
 20 44  1  0  0  0  0
 21 22  1  0  0  0  0
 21 45  1  0  0  0  0
 21 46  1  0  0  0  0
 22 23  1  0  0  0  0
 22 47  1  0  0  0  0
 22 48  1  0  0  0  0
 23 24  1  0  0  0  0
 23 28  2  0  0  0  0
 24 25  2  0  0  0  0
 24 49  1  0  0  0  0
 25 26  1  0  0  0  0
 25 50  1  0  0  0  0
 26 27  2  0  0  0  0
 27 28  1  0  0  0  0
 27 51  1  0  0  0  0
 28 52  1  0  0  0  0
 29 53  1  0  0  0  0
 31 54  1  0  0  0  0
M  END
$$$$
