CHEMBL365411
 OpenBabel04072215373D

 49 51  0  0  0  0  0  0  0  0999 V2000
    1.6387    2.0083    0.6284 C   0  0  0  0  0  0  0  0  0  0  0  0
    2.0616    1.2092    1.7837 N   0  0  0  0  0  0  0  0  0  0  0  0
    0.9162    0.4222    2.2629 C   0  0  0  0  0  0  0  0  0  0  0  0
    3.1701    0.2929    1.4284 C   0  0  0  0  0  0  0  0  0  0  0  0
    4.4754    0.9898    1.0066 C   0  0  0  0  0  0  0  0  0  0  0  0
    5.0047    1.8587    2.0415 N   0  0  0  0  0  0  0  0  0  0  0  0
    6.3409    2.2005    2.0404 C   0  0  0  0  0  0  0  0  0  0  0  0
    7.1488    1.7684    1.2222 O   0  0  0  0  0  0  0  0  0  0  0  0
    6.8024    3.1304    3.0918 C   0  0  0  0  0  0  0  0  0  0  0  0
    7.9265    3.9087    2.8590 C   0  0  0  0  0  0  0  0  0  0  0  0
    8.4455    4.7620    3.7723 N   0  0  0  0  0  0  0  0  0  0  0  0
    7.8301    4.8122    4.9817 C   0  0  0  0  0  0  0  0  0  0  0  0
    6.7211    4.0435    5.3476 C   0  0  0  0  0  0  0  0  0  0  0  0
    6.1492    4.1129    6.6987 C   0  0  0  0  0  0  0  0  0  0  0  0
    5.5110    3.0405    7.3161 C   0  0  0  0  0  0  0  0  0  0  0  0
    4.9358    3.1193    8.5371 N   0  0  0  0  0  0  0  0  0  0  0  0
    5.0305    4.3323    9.1313 C   0  0  0  0  0  0  0  0  0  0  0  0
    5.6994    5.4206    8.5696 C   0  0  0  0  0  0  0  0  0  0  0  0
    5.7272    6.6648    9.2370 N   0  0  0  0  0  0  0  0  0  0  0  0
    6.7735    7.6133    9.1452 C   0  0  0  0  0  0  0  0  0  0  0  0
    8.1008    7.2380    8.8926 C   0  0  0  0  0  0  0  0  0  0  0  0
    9.1228    8.1877    8.8566 C   0  0  0  0  0  0  0  0  0  0  0  0
    8.8296    9.5292    9.0834 C   0  0  0  0  0  0  0  0  0  0  0  0
    7.5172    9.9095    9.3581 C   0  0  0  0  0  0  0  0  0  0  0  0
    7.1562   11.5675    9.6486 Cl  0  0  0  0  0  0  0  0  0  0  0  0
    6.4948    8.9604    9.4039 C   0  0  0  0  0  0  0  0  0  0  0  0
    6.2603    5.3043    7.3408 N   0  0  0  0  0  0  0  0  0  0  0  0
    6.1989    3.2006    4.3508 C   0  0  0  0  0  0  0  0  0  0  0  0
    0.8007    2.6602    0.8997 H   0  0  0  0  0  0  0  0  0  0  0  0
    1.3285    1.3817   -0.2159 H   0  0  0  0  0  0  0  0  0  0  0  0
    2.4385    2.6749    0.2930 H   0  0  0  0  0  0  0  0  0  0  0  0
    0.0737    1.0767    2.5146 H   0  0  0  0  0  0  0  0  0  0  0  0
    1.1754   -0.1210    3.1783 H   0  0  0  0  0  0  0  0  0  0  0  0
    0.5714   -0.3042    1.5164 H   0  0  0  0  0  0  0  0  0  0  0  0
    2.8633   -0.3908    0.6265 H   0  0  0  0  0  0  0  0  0  0  0  0
    3.4011   -0.3255    2.3061 H   0  0  0  0  0  0  0  0  0  0  0  0
    4.3389    1.5975    0.1061 H   0  0  0  0  0  0  0  0  0  0  0  0
    5.2260    0.2293    0.7673 H   0  0  0  0  0  0  0  0  0  0  0  0
    4.3285    2.4328    2.5317 H   0  0  0  0  0  0  0  0  0  0  0  0
    8.4553    3.8701    1.9094 H   0  0  0  0  0  0  0  0  0  0  0  0
    8.2841    5.5100    5.6830 H   0  0  0  0  0  0  0  0  0  0  0  0
    5.4424    2.0649    6.8473 H   0  0  0  0  0  0  0  0  0  0  0  0
    4.5551    4.4008   10.1037 H   0  0  0  0  0  0  0  0  0  0  0  0
    5.4202    6.5896   10.2016 H   0  0  0  0  0  0  0  0  0  0  0  0
    8.3560    6.1943    8.7255 H   0  0  0  0  0  0  0  0  0  0  0  0
   10.1435    7.8767    8.6499 H   0  0  0  0  0  0  0  0  0  0  0  0
    9.6238   10.2694    9.0454 H   0  0  0  0  0  0  0  0  0  0  0  0
    5.4753    9.2733    9.6111 H   0  0  0  0  0  0  0  0  0  0  0  0
    5.3334    2.5789    4.5590 H   0  0  0  0  0  0  0  0  0  0  0  0
  1  2  1  0  0  0  0
  1 29  1  0  0  0  0
  1 30  1  0  0  0  0
  1 31  1  0  0  0  0
  2  3  1  0  0  0  0
  2  4  1  0  0  0  0
  3 32  1  0  0  0  0
  3 33  1  0  0  0  0
  3 34  1  0  0  0  0
  4  5  1  0  0  0  0
  4 35  1  0  0  0  0
  4 36  1  0  0  0  0
  5  6  1  0  0  0  0
  5 37  1  0  0  0  0
  5 38  1  0  0  0  0
  6  7  1  0  0  0  0
  6 39  1  0  0  0  0
  7  8  2  0  0  0  0
  7  9  1  0  0  0  0
  9 10  1  0  0  0  0
  9 28  2  0  0  0  0
 10 11  2  0  0  0  0
 10 40  1  0  0  0  0
 11 12  1  0  0  0  0
 12 13  2  0  0  0  0
 12 41  1  0  0  0  0
 13 14  1  0  0  0  0
 13 28  1  0  0  0  0
 14 15  1  0  0  0  0
 14 27  2  0  0  0  0
 15 16  2  0  0  0  0
 15 42  1  0  0  0  0
 16 17  1  0  0  0  0
 17 18  2  0  0  0  0
 17 43  1  0  0  0  0
 18 19  1  0  0  0  0
 18 27  1  0  0  0  0
 19 20  1  0  0  0  0
 19 44  1  0  0  0  0
 20 21  1  0  0  0  0
 20 26  2  0  0  0  0
 21 22  2  0  0  0  0
 21 45  1  0  0  0  0
 22 23  1  0  0  0  0
 22 46  1  0  0  0  0
 23 24  2  0  0  0  0
 23 47  1  0  0  0  0
 24 25  1  0  0  0  0
 24 26  1  0  0  0  0
 26 48  1  0  0  0  0
 28 49  1  0  0  0  0
M  END
$$$$
