CHEMBL3896004
 OpenBabel04072215373D

 68 71  0  0  0  0  0  0  0  0999 V2000
   10.1444   -5.4777    3.0502 C   0  0  0  0  0  0  0  0  0  0  0  0
    9.4588   -4.2853    2.6668 O   0  0  0  0  0  0  0  0  0  0  0  0
   10.2472   -3.1706    2.6614 C   0  0  0  0  0  0  0  0  0  0  0  0
   11.4477   -3.1586    2.9070 O   0  0  0  0  0  0  0  0  0  0  0  0
    9.4264   -1.9551    2.2345 C   0  0  0  0  0  0  0  0  0  0  0  0
    9.9668   -0.7301    2.8513 N   0  0  0  0  0  0  0  0  0  0  0  0
    9.2303    0.4530    2.4184 C   0  0  0  0  0  0  0  0  0  0  0  0
    9.8197    1.7057    3.0696 C   0  0  0  0  0  0  0  0  0  0  0  0
    9.0251    2.9419    2.6533 C   0  0  0  0  0  0  0  0  0  0  0  0
    9.5583    4.1518    3.2398 N   0  0  0  0  0  0  0  0  0  0  0  0
   10.5701    4.8782    2.6390 C   0  0  0  0  0  0  0  0  0  0  0  0
   11.0669    4.5274    1.5646 O   0  0  0  0  0  0  0  0  0  0  0  0
   10.9915    6.0805    3.3414 C   0  0  0  0  0  0  0  0  0  0  0  0
   11.9145    7.0056    2.9045 C   0  0  0  0  0  0  0  0  0  0  0  0
   12.0854    8.0939    3.8020 C   0  0  0  0  0  0  0  0  0  0  0  0
   12.9182    9.1502    3.5992 N   0  0  0  0  0  0  0  0  0  0  0  0
   12.9093   10.0937    4.5560 C   0  0  0  0  0  0  0  0  0  0  0  0
   12.1531   10.0474    5.7096 C   0  0  0  0  0  0  0  0  0  0  0  0
   11.3676    8.9204    5.9549 C   0  0  0  0  0  0  0  0  0  0  0  0
   10.6431    8.7413    7.1084 O   0  0  0  0  0  0  0  0  0  0  0  0
   11.1978    9.1334    8.3035 C   0  0  0  0  0  0  0  0  0  0  0  0
   10.3063    9.5421    9.2839 C   0  0  0  0  0  0  0  0  0  0  0  0
   10.7878   10.0236   10.5015 C   0  0  0  0  0  0  0  0  0  0  0  0
   12.1639   10.0982   10.7632 C   0  0  0  0  0  0  0  0  0  0  0  0
   12.7038   10.6130   11.9659 N   0  0  0  0  0  0  0  0  0  0  0  0
   11.9660   11.0042   13.0625 C   0  0  0  0  0  0  0  0  0  0  0  0
   10.7457   10.9297   13.1443 O   0  0  0  0  0  0  0  0  0  0  0  0
   12.7534   11.5228   14.0849 N   0  0  0  0  0  0  0  0  0  0  0  0
   12.0606   11.9567   15.2479 C   0  0  0  0  0  0  0  0  0  0  0  0
   11.1752   11.0950   15.9083 C   0  0  0  0  0  0  0  0  0  0  0  0
   10.3131   11.5799   16.8979 C   0  0  0  0  0  0  0  0  0  0  0  0
    9.3093   10.6679   17.5399 C   0  0  0  0  0  0  0  0  0  0  0  0
   10.3525   12.9418   17.2242 C   0  0  0  0  0  0  0  0  0  0  0  0
   11.2790   13.7914   16.6108 C   0  0  0  0  0  0  0  0  0  0  0  0
   12.1437   13.2893   15.6431 C   0  0  0  0  0  0  0  0  0  0  0  0
   12.9870   14.1222   15.0138 F   0  0  0  0  0  0  0  0  0  0  0  0
   13.0510    9.6406    9.7883 C   0  0  0  0  0  0  0  0  0  0  0  0
   12.5695    9.1266    8.5806 C   0  0  0  0  0  0  0  0  0  0  0  0
   11.2999    7.9514    4.9420 C   0  0  0  0  0  0  0  0  0  0  0  0
   10.3585    6.5171    4.8691 S   0  0  0  0  0  0  0  0  0  0  0  0
    9.4441   -6.3132    2.9644 H   0  0  0  0  0  0  0  0  0  0  0  0
   10.4755   -5.4082    4.0911 H   0  0  0  0  0  0  0  0  0  0  0  0
   10.9918   -5.6684    2.3844 H   0  0  0  0  0  0  0  0  0  0  0  0
    8.3900   -2.0972    2.5591 H   0  0  0  0  0  0  0  0  0  0  0  0
    9.4640   -1.8992    1.1410 H   0  0  0  0  0  0  0  0  0  0  0  0
   10.9570   -0.6500    2.6045 H   0  0  0  0  0  0  0  0  0  0  0  0
    8.1776    0.3578    2.7112 H   0  0  0  0  0  0  0  0  0  0  0  0
    9.2704    0.5522    1.3271 H   0  0  0  0  0  0  0  0  0  0  0  0
   10.8726    1.8200    2.7814 H   0  0  0  0  0  0  0  0  0  0  0  0
    9.8015    1.6082    4.1628 H   0  0  0  0  0  0  0  0  0  0  0  0
    7.9864    2.8598    2.9878 H   0  0  0  0  0  0  0  0  0  0  0  0
    9.0264    3.0442    1.5644 H   0  0  0  0  0  0  0  0  0  0  0  0
    9.2213    4.4587    4.1435 H   0  0  0  0  0  0  0  0  0  0  0  0
   12.4465    6.9157    1.9621 H   0  0  0  0  0  0  0  0  0  0  0  0
   13.5739   10.9353    4.3731 H   0  0  0  0  0  0  0  0  0  0  0  0
   12.2110   10.8635    6.4225 H   0  0  0  0  0  0  0  0  0  0  0  0
    9.2334    9.5038    9.1101 H   0  0  0  0  0  0  0  0  0  0  0  0
   10.0401   10.3435   11.2181 H   0  0  0  0  0  0  0  0  0  0  0  0
   13.7081   10.5877   12.0745 H   0  0  0  0  0  0  0  0  0  0  0  0
   13.4665   12.1637   13.7580 H   0  0  0  0  0  0  0  0  0  0  0  0
   11.1143   10.0519   15.6025 H   0  0  0  0  0  0  0  0  0  0  0  0
    9.4932    9.6208   17.2746 H   0  0  0  0  0  0  0  0  0  0  0  0
    8.2975   10.9268   17.2121 H   0  0  0  0  0  0  0  0  0  0  0  0
    9.3695   10.7467   18.6296 H   0  0  0  0  0  0  0  0  0  0  0  0
    9.6473   13.3494   17.9452 H   0  0  0  0  0  0  0  0  0  0  0  0
   11.2987   14.8492   16.8511 H   0  0  0  0  0  0  0  0  0  0  0  0
   14.1253    9.6754    9.9447 H   0  0  0  0  0  0  0  0  0  0  0  0
   13.2812    8.7472    7.8529 H   0  0  0  0  0  0  0  0  0  0  0  0
  1  2  1  0  0  0  0
  1 41  1  0  0  0  0
  1 42  1  0  0  0  0
  1 43  1  0  0  0  0
  2  3  1  0  0  0  0
  3  4  2  0  0  0  0
  3  5  1  0  0  0  0
  5  6  1  0  0  0  0
  5 44  1  0  0  0  0
  5 45  1  0  0  0  0
  6  7  1  0  0  0  0
  6 46  1  0  0  0  0
  7  8  1  0  0  0  0
  7 47  1  0  0  0  0
  7 48  1  0  0  0  0
  8  9  1  0  0  0  0
  8 49  1  0  0  0  0
  8 50  1  0  0  0  0
  9 10  1  0  0  0  0
  9 51  1  0  0  0  0
  9 52  1  0  0  0  0
 10 11  1  0  0  0  0
 10 53  1  0  0  0  0
 11 12  2  0  0  0  0
 11 13  1  0  0  0  0
 13 14  2  0  0  0  0
 13 40  1  0  0  0  0
 14 15  1  0  0  0  0
 14 54  1  0  0  0  0
 15 16  1  0  0  0  0
 15 39  2  0  0  0  0
 16 17  2  0  0  0  0
 17 18  1  0  0  0  0
 17 55  1  0  0  0  0
 18 19  2  0  0  0  0
 18 56  1  0  0  0  0
 19 20  1  0  0  0  0
 19 39  1  0  0  0  0
 20 21  1  0  0  0  0
 21 22  1  0  0  0  0
 21 38  2  0  0  0  0
 22 23  2  0  0  0  0
 22 57  1  0  0  0  0
 23 24  1  0  0  0  0
 23 58  1  0  0  0  0
 24 25  1  0  0  0  0
 24 37  2  0  0  0  0
 25 26  1  0  0  0  0
 25 59  1  0  0  0  0
 26 27  2  0  0  0  0
 26 28  1  0  0  0  0
 28 29  1  0  0  0  0
 28 60  1  0  0  0  0
 29 30  1  0  0  0  0
 29 35  2  0  0  0  0
 30 31  2  0  0  0  0
 30 61  1  0  0  0  0
 31 32  1  0  0  0  0
 31 33  1  0  0  0  0
 32 62  1  0  0  0  0
 32 63  1  0  0  0  0
 32 64  1  0  0  0  0
 33 34  2  0  0  0  0
 33 65  1  0  0  0  0
 34 35  1  0  0  0  0
 34 66  1  0  0  0  0
 35 36  1  0  0  0  0
 37 38  1  0  0  0  0
 37 67  1  0  0  0  0
 38 68  1  0  0  0  0
 39 40  1  0  0  0  0
M  END
$$$$
