CHEMBL3971560
 OpenBabel04072215373D

 48 51  0  0  1  0  0  0  0  0999 V2000
    3.5065   -0.5504   -1.2750 C   0  0  0  0  0  0  0  0  0  0  0  0
    2.9300   -0.2882    0.0067 O   0  0  0  0  0  0  0  0  0  0  0  0
    3.4735    0.7639    0.6828 C   0  0  0  0  0  0  0  0  0  0  0  0
    4.7282    1.2602    0.3112 C   0  0  0  0  0  0  0  0  0  0  0  0
    5.1675    2.5318    0.7105 C   0  0  0  0  0  0  0  0  0  0  0  0
    6.2335    3.2134    0.0955 C   0  0  0  0  0  0  0  0  0  0  0  0
    6.8401    2.6580   -1.0590 N   0  0  0  0  0  0  0  0  0  0  0  0
    7.1153    3.2309   -2.3176 C   0  0  0  0  0  0  0  0  0  0  0  0
    6.6522    4.4965   -2.6960 C   0  0  0  0  0  0  0  0  0  0  0  0
    6.8628    4.9877   -3.9929 C   0  0  0  0  0  0  0  0  0  0  0  0
    7.5537    4.2220   -4.9328 C   0  0  0  0  0  0  0  0  0  0  0  0
    7.7411    4.9311   -6.6845 Br  0  0  0  0  0  0  0  0  0  0  0  0
    8.0525    2.9708   -4.5652 C   0  0  0  0  0  0  0  0  0  0  0  0
    8.9322    1.9582   -5.6565 Cl  0  0  0  0  0  0  0  0  0  0  0  0
    7.8307    2.4832   -3.2679 C   0  0  0  0  0  0  0  0  0  0  0  0
    6.6204    4.4338    0.5005 N   0  0  0  0  0  0  0  0  0  0  0  0
    5.9438    4.9509    1.5325 C   0  0  0  0  0  0  0  0  0  0  0  0
    4.8741    4.4014    2.1439 N   0  0  0  0  0  0  0  0  0  0  0  0
    4.4646    3.2116    1.6978 C   0  0  0  0  0  0  0  0  0  0  0  0
    3.2897    2.6221    2.1849 C   0  0  0  0  0  0  0  0  0  0  0  0
    2.7534    1.4198    1.6748 C   0  0  0  0  0  0  0  0  0  0  0  0
    1.5333    1.1096    2.2014 O   0  0  0  0  0  0  0  0  0  0  0  0
    0.8653   -0.1557    2.2213 C   0  0  3  0  0  0  0  0  0  0  0  0
    1.6567   -1.4338    2.4494 C   0  0  0  0  0  0  0  0  0  0  0  0
    1.2719   -2.3676    1.3054 C   0  0  0  0  0  0  0  0  0  0  0  0
    0.0382   -1.8483    0.7143 N   0  0  0  0  0  0  0  0  0  0  0  0
   -0.0869   -2.1267   -0.7141 C   0  0  0  0  0  0  0  0  0  0  0  0
   -0.0723   -0.4215    1.0407 C   0  0  0  0  0  0  0  0  0  0  0  0
    2.8150   -1.1761   -1.8379 H   0  0  0  0  0  0  0  0  0  0  0  0
    4.4461   -1.1036   -1.1658 H   0  0  0  0  0  0  0  0  0  0  0  0
    3.6525    0.3693   -1.8616 H   0  0  0  0  0  0  0  0  0  0  0  0
    5.3528    0.7028   -0.3724 H   0  0  0  0  0  0  0  0  0  0  0  0
    7.1613    1.7101   -0.9317 H   0  0  0  0  0  0  0  0  0  0  0  0
    6.0968    5.1116   -1.9943 H   0  0  0  0  0  0  0  0  0  0  0  0
    6.4754    5.9700   -4.2555 H   0  0  0  0  0  0  0  0  0  0  0  0
    8.2142    1.5006   -3.0057 H   0  0  0  0  0  0  0  0  0  0  0  0
    6.2829    5.9063    1.9066 H   0  0  0  0  0  0  0  0  0  0  0  0
    2.7312    3.1562    2.9488 H   0  0  0  0  0  0  0  0  0  0  0  0
    0.2172   -0.0605    3.1046 H   0  0  0  0  0  0  0  0  0  0  0  0
    1.3334   -1.8891    3.3945 H   0  0  0  0  0  0  0  0  0  0  0  0
    2.7361   -1.2863    2.5222 H   0  0  0  0  0  0  0  0  0  0  0  0
    1.1080   -3.3857    1.6772 H   0  0  0  0  0  0  0  0  0  0  0  0
    2.0958   -2.4318    0.5894 H   0  0  0  0  0  0  0  0  0  0  0  0
    0.8030   -2.6049   -1.1405 H   0  0  0  0  0  0  0  0  0  0  0  0
   -0.2742   -1.2266   -1.3121 H   0  0  0  0  0  0  0  0  0  0  0  0
   -0.9288   -2.8049   -0.8822 H   0  0  0  0  0  0  0  0  0  0  0  0
   -1.1098   -0.2454    1.3597 H   0  0  0  0  0  0  0  0  0  0  0  0
    0.1248    0.2590    0.2089 H   0  0  0  0  0  0  0  0  0  0  0  0
  1  2  1  0  0  0  0
  1 29  1  0  0  0  0
  1 30  1  0  0  0  0
  1 31  1  0  0  0  0
  2  3  1  0  0  0  0
  3  4  1  0  0  0  0
  3 21  2  0  0  0  0
  4  5  2  0  0  0  0
  4 32  1  0  0  0  0
  5  6  1  0  0  0  0
  5 19  1  0  0  0  0
  6  7  1  0  0  0  0
  6 16  2  0  0  0  0
  7  8  1  0  0  0  0
  7 33  1  0  0  0  0
  8  9  1  0  0  0  0
  8 15  2  0  0  0  0
  9 10  2  0  0  0  0
  9 34  1  0  0  0  0
 10 11  1  0  0  0  0
 10 35  1  0  0  0  0
 11 12  1  0  0  0  0
 11 13  2  0  0  0  0
 13 14  1  0  0  0  0
 13 15  1  0  0  0  0
 15 36  1  0  0  0  0
 16 17  1  0  0  0  0
 17 18  2  0  0  0  0
 17 37  1  0  0  0  0
 18 19  1  0  0  0  0
 19 20  2  0  0  0  0
 20 21  1  0  0  0  0
 20 38  1  0  0  0  0
 21 22  1  0  0  0  0
 22 23  1  0  0  0  0
 23 24  1  0  0  0  0
 23 28  1  0  0  0  0
 23 39  1  0  0  0  0
 24 25  1  0  0  0  0
 24 40  1  0  0  0  0
 24 41  1  0  0  0  0
 25 26  1  0  0  0  0
 25 42  1  0  0  0  0
 25 43  1  0  0  0  0
 26 27  1  0  0  0  0
 26 28  1  0  0  0  0
 27 44  1  0  0  0  0
 27 45  1  0  0  0  0
 27 46  1  0  0  0  0
 28 47  1  0  0  0  0
 28 48  1  0  0  0  0
M  END
$$$$
