CHEMBL3690397
 OpenBabel04072215373D

 64 67  0  0  1  0  0  0  0  0999 V2000
    0.1805    8.9329    4.6901 C   0  0  0  0  0  0  0  0  0  0  0  0
    1.1101    8.4421    3.5647 C   0  0  0  0  0  0  0  0  0  0  0  0
    1.9113    9.6464    3.0461 C   0  0  0  0  0  0  0  0  0  0  0  0
    2.0111    7.3642    4.0152 N   0  0  0  0  0  0  0  0  0  0  0  0
    2.8974    6.8787    2.9113 C   0  0  0  0  0  0  0  0  0  0  0  0
    2.5906    5.4241    3.3229 C   0  0  0  0  0  0  0  0  0  0  0  0
    3.5760    4.8992    4.2723 N   0  0  0  0  0  0  0  0  0  0  0  0
    3.3746    3.6718    4.6303 C   0  0  0  0  0  0  0  0  0  0  0  0
    4.2912    2.9812    5.6150 C   0  0  3  0  0  0  0  0  0  0  0  0
    5.7112    3.5136    5.5858 C   0  0  0  0  0  0  0  0  0  0  0  0
    6.7524    2.7849    5.8429 N   0  0  0  0  0  0  0  0  0  0  0  0
    3.7107    3.0086    7.0171 C   0  0  0  0  0  0  0  0  0  0  0  0
    3.3909    4.2911    7.6528 C   0  0  0  0  0  0  0  0  0  0  0  0
    2.9097    4.3041    8.9139 C   0  0  0  0  0  0  0  0  0  0  0  0
    2.7019    3.1092    9.6037 N   0  0  0  0  0  0  0  0  0  0  0  0
    2.2115    2.8507   10.8802 C   0  0  0  0  0  0  0  0  0  0  0  0
    1.7898    3.8156   11.9078 C   0  0  0  0  0  0  0  0  0  0  0  0
    0.7920    3.4325   12.8141 C   0  0  0  0  0  0  0  0  0  0  0  0
    0.3924    4.2805   13.8392 C   0  0  0  0  0  0  0  0  0  0  0  0
    1.0061    5.5219   13.9831 C   0  0  0  0  0  0  0  0  0  0  0  0
    2.0322    5.9252   13.1369 C   0  0  0  0  0  0  0  0  0  0  0  0
    2.7569    7.1347   13.3183 N   0  0  0  0  0  0  0  0  0  0  0  0
    2.5784    8.0161   14.3614 C   0  0  0  0  0  0  0  0  0  0  0  0
    1.7632    7.9141   15.2770 O   0  0  0  0  0  0  0  0  0  0  0  0
    3.3873    9.1256   14.2933 N   0  0  0  0  0  0  0  0  0  0  0  0
    3.2555   10.1135   15.3814 C   0  0  0  0  0  0  0  0  0  0  0  0
    4.0724    9.8488   16.6550 C   0  0  0  0  0  0  0  0  0  0  0  0
    4.8616    8.7566   16.5444 F   0  0  0  0  0  0  0  0  0  0  0  0
    4.8927   10.9022   16.9017 F   0  0  0  0  0  0  0  0  0  0  0  0
    3.2888    9.6932   17.7436 F   0  0  0  0  0  0  0  0  0  0  0  0
    2.3981    5.0761   12.0794 C   0  0  0  0  0  0  0  0  0  0  0  0
    2.1824    1.4611   10.9457 C   0  0  0  0  0  0  0  0  0  0  0  0
    2.6382    0.8712    9.8066 N   0  0  0  0  0  0  0  0  0  0  0  0
    2.9514    1.8691    9.0132 C   0  0  0  0  0  0  0  0  0  0  0  0
    3.4693    1.8570    7.6888 C   0  0  0  0  0  0  0  0  0  0  0  0
    1.3425    6.0324    4.0045 C   0  0  0  0  0  0  0  0  0  0  0  0
   -0.3960    9.8046    4.3519 H   0  0  0  0  0  0  0  0  0  0  0  0
    0.7282    9.2440    5.5884 H   0  0  0  0  0  0  0  0  0  0  0  0
   -0.5456    8.1665    4.9810 H   0  0  0  0  0  0  0  0  0  0  0  0
    0.4719    8.0955    2.7409 H   0  0  0  0  0  0  0  0  0  0  0  0
    2.5426   10.0903    3.8235 H   0  0  0  0  0  0  0  0  0  0  0  0
    1.2314   10.4221    2.6767 H   0  0  0  0  0  0  0  0  0  0  0  0
    2.5532    9.3683    2.2044 H   0  0  0  0  0  0  0  0  0  0  0  0
    3.9417    7.1967    2.9983 H   0  0  0  0  0  0  0  0  0  0  0  0
    2.5599    7.0900    1.8875 H   0  0  0  0  0  0  0  0  0  0  0  0
    2.4000    4.7486    2.4808 H   0  0  0  0  0  0  0  0  0  0  0  0
    2.5207    3.0816    4.2505 H   0  0  0  0  0  0  0  0  0  0  0  0
    4.3484    1.9385    5.2745 H   0  0  0  0  0  0  0  0  0  0  0  0
    5.8632    4.5803    5.3456 H   0  0  0  0  0  0  0  0  0  0  0  0
    6.4844    1.8232    6.0739 H   0  0  0  0  0  0  0  0  0  0  0  0
    3.5177    5.2163    7.1084 H   0  0  0  0  0  0  0  0  0  0  0  0
    2.6541    5.2337    9.3980 H   0  0  0  0  0  0  0  0  0  0  0  0
    0.3135    2.4528   12.7522 H   0  0  0  0  0  0  0  0  0  0  0  0
   -0.3811    3.9798   14.5374 H   0  0  0  0  0  0  0  0  0  0  0  0
    0.6498    6.1362   14.8053 H   0  0  0  0  0  0  0  0  0  0  0  0
    3.5042    7.3337   12.6674 H   0  0  0  0  0  0  0  0  0  0  0  0
    4.2807    9.0295   13.8415 H   0  0  0  0  0  0  0  0  0  0  0  0
    2.1989   10.1837   15.6627 H   0  0  0  0  0  0  0  0  0  0  0  0
    3.5290   11.0830   14.9547 H   0  0  0  0  0  0  0  0  0  0  0  0
    3.1989    5.3866   11.4167 H   0  0  0  0  0  0  0  0  0  0  0  0
    1.8470    0.8525   11.7796 H   0  0  0  0  0  0  0  0  0  0  0  0
    3.6748    0.8841    7.2541 H   0  0  0  0  0  0  0  0  0  0  0  0
    1.1116    5.6303    4.9960 H   0  0  0  0  0  0  0  0  0  0  0  0
    0.4481    5.9414    3.3757 H   0  0  0  0  0  0  0  0  0  0  0  0
  1  2  1  0  0  0  0
  1 37  1  0  0  0  0
  1 38  1  0  0  0  0
  1 39  1  0  0  0  0
  2  3  1  0  0  0  0
  2  4  1  0  0  0  0
  2 40  1  0  0  0  0
  3 41  1  0  0  0  0
  3 42  1  0  0  0  0
  3 43  1  0  0  0  0
  4  5  1  0  0  0  0
  4 36  1  0  0  0  0
  5  6  1  0  0  0  0
  5 44  1  0  0  0  0
  5 45  1  0  0  0  0
  6  7  1  0  0  0  0
  6 36  1  0  0  0  0
  6 46  1  0  0  0  0
  7  8  2  0  0  0  0
  8  9  1  0  0  0  0
  8 47  1  0  0  0  0
  9 10  1  0  0  0  0
  9 12  1  0  0  0  0
  9 48  1  0  0  0  0
 10 11  2  0  0  0  0
 10 49  1  0  0  0  0
 11 50  1  0  0  0  0
 12 13  1  0  0  0  0
 12 35  2  0  0  0  0
 13 14  2  0  0  0  0
 13 51  1  0  0  0  0
 14 15  1  0  0  0  0
 14 52  1  0  0  0  0
 15 16  1  0  0  0  0
 15 34  1  0  0  0  0
 16 17  1  0  0  0  0
 16 32  2  0  0  0  0
 17 18  1  0  0  0  0
 17 31  2  0  0  0  0
 18 19  2  0  0  0  0
 18 53  1  0  0  0  0
 19 20  1  0  0  0  0
 19 54  1  0  0  0  0
 20 21  2  0  0  0  0
 20 55  1  0  0  0  0
 21 22  1  0  0  0  0
 21 31  1  0  0  0  0
 22 23  1  0  0  0  0
 22 56  1  0  0  0  0
 23 24  2  0  0  0  0
 23 25  1  0  0  0  0
 25 26  1  0  0  0  0
 25 57  1  0  0  0  0
 26 27  1  0  0  0  0
 26 58  1  0  0  0  0
 26 59  1  0  0  0  0
 27 28  1  0  0  0  0
 27 29  1  0  0  0  0
 27 30  1  0  0  0  0
 31 60  1  0  0  0  0
 32 33  1  0  0  0  0
 32 61  1  0  0  0  0
 33 34  2  0  0  0  0
 34 35  1  0  0  0  0
 35 62  1  0  0  0  0
 36 63  1  0  0  0  0
 36 64  1  0  0  0  0
M  END
$$$$
