CHEMBL3099459
 OpenBabel04072215363D

 77 80  0  0  0  0  0  0  0  0999 V2000
    2.5343   -1.7443    1.0403 C   0  0  0  0  0  0  0  0  0  0  0  0
    3.0897   -0.7324    0.2039 O   0  0  0  0  0  0  0  0  0  0  0  0
    3.3385    0.4980    0.7528 C   0  0  0  0  0  0  0  0  0  0  0  0
    2.9398    0.8733    2.0409 C   0  0  0  0  0  0  0  0  0  0  0  0
    3.3729    2.0721    2.6715 C   0  0  0  0  0  0  0  0  0  0  0  0
    3.0552    2.3250    4.1154 C   0  0  0  0  0  0  0  0  0  0  0  0
    2.9670    1.1902    4.9491 C   0  0  0  0  0  0  0  0  0  0  0  0
    2.6521    1.2183    6.3051 C   0  0  0  0  0  0  0  0  0  0  0  0
    2.4972    0.0311    7.0708 N   0  0  0  0  0  0  0  0  0  0  0  0
    2.6524   -1.2598    6.5855 C   0  0  0  0  0  0  0  0  0  0  0  0
    3.0135   -1.5579    5.4538 O   0  0  0  0  0  0  0  0  0  0  0  0
    2.3070   -2.2321    7.5196 N   0  0  0  0  0  0  0  0  0  0  0  0
    2.4378   -3.5994    7.1622 C   0  0  0  0  0  0  0  0  0  0  0  0
    3.6058   -4.0769    6.5573 C   0  0  0  0  0  0  0  0  0  0  0  0
    3.6854   -5.3986    6.1091 C   0  0  0  0  0  0  0  0  0  0  0  0
    2.5970   -6.2576    6.2569 C   0  0  0  0  0  0  0  0  0  0  0  0
    2.5435   -7.5556    5.8074 O   0  0  0  0  0  0  0  0  0  0  0  0
    3.8181   -8.1994    5.6901 C   0  0  0  0  0  0  0  0  0  0  0  0
    3.6571   -9.6352    5.1572 C   0  0  0  0  0  0  0  0  0  0  0  0
    4.9173  -10.4155    5.1475 N   0  0  0  0  0  0  0  0  0  0  0  0
    4.6670  -11.7752    4.6372 C   0  0  0  0  0  0  0  0  0  0  0  0
    5.9335  -12.6356    4.6725 C   0  0  0  0  0  0  0  0  0  0  0  0
    7.0780  -11.9772    3.9122 C   0  0  0  0  0  0  0  0  0  0  0  0
    7.2851  -10.5546    4.4074 C   0  0  0  0  0  0  0  0  0  0  0  0
    5.9812   -9.7577    4.3713 C   0  0  0  0  0  0  0  0  0  0  0  0
    1.4349   -5.7801    6.8691 C   0  0  0  0  0  0  0  0  0  0  0  0
    1.3637   -4.4659    7.3519 C   0  0  0  0  0  0  0  0  0  0  0  0
    2.4623    2.4643    6.8937 C   0  0  0  0  0  0  0  0  0  0  0  0
    2.5836    3.6394    6.1231 C   0  0  0  0  0  0  0  0  0  0  0  0
    2.3065    4.8582    6.6987 O   0  0  0  0  0  0  0  0  0  0  0  0
    2.9937    5.1008    7.9248 C   0  0  0  0  0  0  0  0  0  0  0  0
    2.8657    3.5810    4.7335 C   0  0  0  0  0  0  0  0  0  0  0  0
    2.9124    4.6762    3.9034 O   0  0  0  0  0  0  0  0  0  0  0  0
    3.3820    5.9014    4.4550 C   0  0  0  0  0  0  0  0  0  0  0  0
    4.1907    2.9197    1.9166 C   0  0  0  0  0  0  0  0  0  0  0  0
    4.5196    2.6035    0.5857 C   0  0  0  0  0  0  0  0  0  0  0  0
    4.0783    1.4134   -0.0045 C   0  0  0  0  0  0  0  0  0  0  0  0
    4.4318    1.1848   -1.4328 C   0  0  0  0  0  0  0  0  0  0  0  0
    3.4686    0.4566   -2.3404 C   0  0  0  0  0  0  0  0  0  0  0  0
    5.4816    1.6517   -1.8768 O   0  0  0  0  0  0  0  0  0  0  0  0
    2.5272   -2.6794    0.4706 H   0  0  0  0  0  0  0  0  0  0  0  0
    1.4976   -1.5041    1.2947 H   0  0  0  0  0  0  0  0  0  0  0  0
    3.1388   -1.9099    1.9388 H   0  0  0  0  0  0  0  0  0  0  0  0
    2.2890    0.2034    2.5963 H   0  0  0  0  0  0  0  0  0  0  0  0
    3.1771    0.2393    4.4811 H   0  0  0  0  0  0  0  0  0  0  0  0
    2.3222    0.1324    8.0584 H   0  0  0  0  0  0  0  0  0  0  0  0
    1.5052   -1.9943    8.0836 H   0  0  0  0  0  0  0  0  0  0  0  0
    4.4564   -3.4199    6.4001 H   0  0  0  0  0  0  0  0  0  0  0  0
    4.6036   -5.6987    5.6145 H   0  0  0  0  0  0  0  0  0  0  0  0
    4.2976   -8.2248    6.6763 H   0  0  0  0  0  0  0  0  0  0  0  0
    4.4360   -7.6473    4.9778 H   0  0  0  0  0  0  0  0  0  0  0  0
    3.2158   -9.5925    4.1521 H   0  0  0  0  0  0  0  0  0  0  0  0
    2.9193  -10.1489    5.7878 H   0  0  0  0  0  0  0  0  0  0  0  0
    4.2818  -11.7380    3.6095 H   0  0  0  0  0  0  0  0  0  0  0  0
    3.9054  -12.2692    5.2526 H   0  0  0  0  0  0  0  0  0  0  0  0
    5.7252  -13.6205    4.2397 H   0  0  0  0  0  0  0  0  0  0  0  0
    6.2358  -12.8012    5.7143 H   0  0  0  0  0  0  0  0  0  0  0  0
    6.8494  -11.9625    2.8396 H   0  0  0  0  0  0  0  0  0  0  0  0
    7.9995  -12.5561    4.0384 H   0  0  0  0  0  0  0  0  0  0  0  0
    8.0407  -10.0522    3.7927 H   0  0  0  0  0  0  0  0  0  0  0  0
    7.6727  -10.5756    5.4342 H   0  0  0  0  0  0  0  0  0  0  0  0
    5.6646   -9.6045    3.3316 H   0  0  0  0  0  0  0  0  0  0  0  0
    6.2134   -8.7751    4.7942 H   0  0  0  0  0  0  0  0  0  0  0  0
    0.5703   -6.4328    6.9578 H   0  0  0  0  0  0  0  0  0  0  0  0
    0.4385   -4.1201    7.8019 H   0  0  0  0  0  0  0  0  0  0  0  0
    2.1879    2.5335    7.9408 H   0  0  0  0  0  0  0  0  0  0  0  0
    3.1619    6.1799    8.0033 H   0  0  0  0  0  0  0  0  0  0  0  0
    3.9719    4.6083    7.9678 H   0  0  0  0  0  0  0  0  0  0  0  0
    2.3690    4.7942    8.7688 H   0  0  0  0  0  0  0  0  0  0  0  0
    3.7724    6.5101    3.6332 H   0  0  0  0  0  0  0  0  0  0  0  0
    4.2025    5.7553    5.1664 H   0  0  0  0  0  0  0  0  0  0  0  0
    2.5547    6.4600    4.9026 H   0  0  0  0  0  0  0  0  0  0  0  0
    4.5987    3.8289    2.3416 H   0  0  0  0  0  0  0  0  0  0  0  0
    5.1456    3.2940    0.0200 H   0  0  0  0  0  0  0  0  0  0  0  0
    2.5191    0.2204   -1.8586 H   0  0  0  0  0  0  0  0  0  0  0  0
    3.9315   -0.4696   -2.6952 H   0  0  0  0  0  0  0  0  0  0  0  0
    3.2301    1.1042   -3.1895 H   0  0  0  0  0  0  0  0  0  0  0  0
  1  2  1  0  0  0  0
  1 41  1  0  0  0  0
  1 42  1  0  0  0  0
  1 43  1  0  0  0  0
  2  3  1  0  0  0  0
  3  4  1  0  0  0  0
  3 37  2  0  0  0  0
  4  5  2  0  0  0  0
  4 44  1  0  0  0  0
  5  6  1  0  0  0  0
  5 35  1  0  0  0  0
  6  7  1  0  0  0  0
  6 32  2  0  0  0  0
  7  8  2  0  0  0  0
  7 45  1  0  0  0  0
  8  9  1  0  0  0  0
  8 28  1  0  0  0  0
  9 10  1  0  0  0  0
  9 46  1  0  0  0  0
 10 11  2  0  0  0  0
 10 12  1  0  0  0  0
 12 13  1  0  0  0  0
 12 47  1  0  0  0  0
 13 14  1  0  0  0  0
 13 27  2  0  0  0  0
 14 15  2  0  0  0  0
 14 48  1  0  0  0  0
 15 16  1  0  0  0  0
 15 49  1  0  0  0  0
 16 17  1  0  0  0  0
 16 26  2  0  0  0  0
 17 18  1  0  0  0  0
 18 19  1  0  0  0  0
 18 50  1  0  0  0  0
 18 51  1  0  0  0  0
 19 20  1  0  0  0  0
 19 52  1  0  0  0  0
 19 53  1  0  0  0  0
 20 21  1  0  0  0  0
 20 25  1  0  0  0  0
 21 22  1  0  0  0  0
 21 54  1  0  0  0  0
 21 55  1  0  0  0  0
 22 23  1  0  0  0  0
 22 56  1  0  0  0  0
 22 57  1  0  0  0  0
 23 24  1  0  0  0  0
 23 58  1  0  0  0  0
 23 59  1  0  0  0  0
 24 25  1  0  0  0  0
 24 60  1  0  0  0  0
 24 61  1  0  0  0  0
 25 62  1  0  0  0  0
 25 63  1  0  0  0  0
 26 27  1  0  0  0  0
 26 64  1  0  0  0  0
 27 65  1  0  0  0  0
 28 29  2  0  0  0  0
 28 66  1  0  0  0  0
 29 30  1  0  0  0  0
 29 32  1  0  0  0  0
 30 31  1  0  0  0  0
 31 67  1  0  0  0  0
 31 68  1  0  0  0  0
 31 69  1  0  0  0  0
 32 33  1  0  0  0  0
 33 34  1  0  0  0  0
 34 70  1  0  0  0  0
 34 71  1  0  0  0  0
 34 72  1  0  0  0  0
 35 36  2  0  0  0  0
 35 73  1  0  0  0  0
 36 37  1  0  0  0  0
 36 74  1  0  0  0  0
 37 38  1  0  0  0  0
 38 39  1  0  0  0  0
 38 40  2  0  0  0  0
 39 75  1  0  0  0  0
 39 76  1  0  0  0  0
 39 77  1  0  0  0  0
M  END
$$$$
