CHEMBL445394
 OpenBabel04072215383D

 48 51  0  0  0  0  0  0  0  0999 V2000
    6.9066    2.5044    3.0086 C   0  0  0  0  0  0  0  0  0  0  0  0
    5.9881    2.4490    1.9156 O   0  0  0  0  0  0  0  0  0  0  0  0
    4.8751    1.6602    2.1133 C   0  0  0  0  0  0  0  0  0  0  0  0
    4.5037    1.1399    3.3672 C   0  0  0  0  0  0  0  0  0  0  0  0
    3.3554    0.3587    3.5135 C   0  0  0  0  0  0  0  0  0  0  0  0
    2.5765    0.0741    2.4075 C   0  0  0  0  0  0  0  0  0  0  0  0
    2.9442    0.5674    1.1607 C   0  0  0  0  0  0  0  0  0  0  0  0
    4.0712    1.4021    0.9928 C   0  0  0  0  0  0  0  0  0  0  0  0
    4.4081    1.9679   -0.2828 N   0  0  0  0  0  0  0  0  0  0  0  0
    3.4961    2.0858   -1.3120 C   0  0  0  0  0  0  0  0  0  0  0  0
    2.3102    1.7886   -1.1683 O   0  0  0  0  0  0  0  0  0  0  0  0
    4.0148    2.5435   -2.5166 N   0  0  0  0  0  0  0  0  0  0  0  0
    3.2098    2.6994   -3.6847 C   0  0  0  0  0  0  0  0  0  0  0  0
    1.8156    2.7258   -3.6167 C   0  0  0  0  0  0  0  0  0  0  0  0
    1.0176    2.6316   -4.7540 C   0  0  0  0  0  0  0  0  0  0  0  0
    1.5695    2.6924   -6.0292 C   0  0  0  0  0  0  0  0  0  0  0  0
    0.6939    2.5790   -7.2149 C   0  0  0  0  0  0  0  0  0  0  0  0
   -0.5692    3.1847   -7.2589 C   0  0  0  0  0  0  0  0  0  0  0  0
   -1.3201    4.0516   -6.2879 C   0  0  0  0  0  0  0  0  0  0  0  0
   -1.4034    2.8323   -8.7138 S   0  0  0  0  0  0  0  0  0  0  0  0
   -0.1230    1.9089   -9.3135 C   0  0  0  0  0  0  0  0  0  0  0  0
   -0.2434    1.3525  -10.5296 N   0  0  0  0  0  0  0  0  0  0  0  0
    0.8279    0.6476  -10.8746 C   0  0  0  0  0  0  0  0  0  0  0  0
    1.9295    0.4446  -10.1440 N   0  0  0  0  0  0  0  0  0  0  0  0
    2.0093    1.0015   -8.9200 C   0  0  0  0  0  0  0  0  0  0  0  0
    3.1698    0.6832   -8.2239 N   0  0  0  0  0  0  0  0  0  0  0  0
    0.9524    1.8105   -8.4409 C   0  0  0  0  0  0  0  0  0  0  0  0
    2.9644    2.8305   -6.1103 C   0  0  0  0  0  0  0  0  0  0  0  0
    3.7835    2.7839   -4.9538 C   0  0  0  0  0  0  0  0  0  0  0  0
    7.7696    3.1015    2.7018 H   0  0  0  0  0  0  0  0  0  0  0  0
    7.2681    1.5023    3.2667 H   0  0  0  0  0  0  0  0  0  0  0  0
    6.4617    2.9979    3.8804 H   0  0  0  0  0  0  0  0  0  0  0  0
    5.0778    1.3330    4.2667 H   0  0  0  0  0  0  0  0  0  0  0  0
    3.0731   -0.0282    4.4882 H   0  0  0  0  0  0  0  0  0  0  0  0
    1.6772   -0.5303    2.4979 H   0  0  0  0  0  0  0  0  0  0  0  0
    2.3083    0.2884    0.3287 H   0  0  0  0  0  0  0  0  0  0  0  0
    5.2318    2.5532   -0.2905 H   0  0  0  0  0  0  0  0  0  0  0  0
    5.0173    2.4914   -2.6362 H   0  0  0  0  0  0  0  0  0  0  0  0
    1.2810    2.7840   -2.6751 H   0  0  0  0  0  0  0  0  0  0  0  0
   -0.0486    2.5032   -4.5935 H   0  0  0  0  0  0  0  0  0  0  0  0
   -0.7034    4.4283   -5.4710 H   0  0  0  0  0  0  0  0  0  0  0  0
   -2.1564    3.4889   -5.8532 H   0  0  0  0  0  0  0  0  0  0  0  0
   -1.7316    4.9337   -6.7901 H   0  0  0  0  0  0  0  0  0  0  0  0
    0.8039    0.1789  -11.8528 H   0  0  0  0  0  0  0  0  0  0  0  0
    3.6518   -0.0677   -8.7076 H   0  0  0  0  0  0  0  0  0  0  0  0
    3.0151    0.5221   -7.2361 H   0  0  0  0  0  0  0  0  0  0  0  0
    3.4484    2.9311   -7.0807 H   0  0  0  0  0  0  0  0  0  0  0  0
    4.8628    2.7879   -5.0847 H   0  0  0  0  0  0  0  0  0  0  0  0
  1  2  1  0  0  0  0
  1 30  1  0  0  0  0
  1 31  1  0  0  0  0
  1 32  1  0  0  0  0
  2  3  1  0  0  0  0
  3  4  1  0  0  0  0
  3  8  2  0  0  0  0
  4  5  2  0  0  0  0
  4 33  1  0  0  0  0
  5  6  1  0  0  0  0
  5 34  1  0  0  0  0
  6  7  2  0  0  0  0
  6 35  1  0  0  0  0
  7  8  1  0  0  0  0
  7 36  1  0  0  0  0
  8  9  1  0  0  0  0
  9 10  1  0  0  0  0
  9 37  1  0  0  0  0
 10 11  2  0  0  0  0
 10 12  1  0  0  0  0
 12 13  1  0  0  0  0
 12 38  1  0  0  0  0
 13 14  1  0  0  0  0
 13 29  2  0  0  0  0
 14 15  2  0  0  0  0
 14 39  1  0  0  0  0
 15 16  1  0  0  0  0
 15 40  1  0  0  0  0
 16 17  1  0  0  0  0
 16 28  2  0  0  0  0
 17 18  2  0  0  0  0
 17 27  1  0  0  0  0
 18 19  1  0  0  0  0
 18 20  1  0  0  0  0
 19 41  1  0  0  0  0
 19 42  1  0  0  0  0
 19 43  1  0  0  0  0
 20 21  1  0  0  0  0
 21 22  1  0  0  0  0
 21 27  2  0  0  0  0
 22 23  2  0  0  0  0
 23 24  1  0  0  0  0
 23 44  1  0  0  0  0
 24 25  2  0  0  0  0
 25 26  1  0  0  0  0
 25 27  1  0  0  0  0
 26 45  1  0  0  0  0
 26 46  1  0  0  0  0
 28 29  1  0  0  0  0
 28 47  1  0  0  0  0
 29 48  1  0  0  0  0
M  END
$$$$
