CHEMBL429455
 OpenBabel04072215383D

 43 45  0  0  0  0  0  0  0  0999 V2000
    2.3572    0.0604    0.0392 C   0  0  0  0  0  0  0  0  0  0  0  0
    0.8943   -0.1275    0.0676 C   0  0  0  0  0  0  0  0  0  0  0  0
    0.0974    0.9457    0.0562 N   0  0  0  0  0  0  0  0  0  0  0  0
   -1.1871    0.4599   -0.0380 O   0  0  0  0  0  0  0  0  0  0  0  0
   -1.1719   -0.9005   -0.0733 C   0  0  0  0  0  0  0  0  0  0  0  0
   -2.3605   -1.5459   -0.1742 N   0  0  0  0  0  0  0  0  0  0  0  0
   -3.5345   -0.8833   -0.7293 C   0  0  0  0  0  0  0  0  0  0  0  0
   -3.7445   -1.1145   -2.2084 C   0  0  0  0  0  0  0  0  0  0  0  0
   -2.9632   -1.9689   -2.9946 C   0  0  0  0  0  0  0  0  0  0  0  0
   -3.2632   -2.1043   -4.3431 C   0  0  0  0  0  0  0  0  0  0  0  0
   -4.2781   -1.4619   -4.9611 N   0  0  0  0  0  0  0  0  0  0  0  0
   -5.0236   -0.6418   -4.1941 C   0  0  0  0  0  0  0  0  0  0  0  0
   -4.8008   -0.4401   -2.8408 C   0  0  0  0  0  0  0  0  0  0  0  0
    0.1357   -1.3362    0.0295 C   0  0  0  0  0  0  0  0  0  0  0  0
    0.5654   -2.7176   -0.0302 C   0  0  0  0  0  0  0  0  0  0  0  0
   -0.0421   -3.5267   -0.7347 O   0  0  0  0  0  0  0  0  0  0  0  0
    1.6240   -3.0582    0.8050 N   0  0  0  0  0  0  0  0  0  0  0  0
    2.0931   -4.3905    0.8741 C   0  0  0  0  0  0  0  0  0  0  0  0
    2.3558   -5.1283   -0.2854 C   0  0  0  0  0  0  0  0  0  0  0  0
    2.7438   -6.4721   -0.2092 C   0  0  0  0  0  0  0  0  0  0  0  0
    2.8888   -7.0865    1.0310 C   0  0  0  0  0  0  0  0  0  0  0  0
    3.2225   -8.3870    1.2524 O   0  0  0  0  0  0  0  0  0  0  0  0
    4.0429   -9.0788    0.3208 C   0  0  0  0  0  0  0  0  0  0  0  0
    4.6268   -8.2854   -0.6006 F   0  0  0  0  0  0  0  0  0  0  0  0
    5.0285   -9.7017    1.0071 F   0  0  0  0  0  0  0  0  0  0  0  0
    3.3131  -10.0227   -0.3120 F   0  0  0  0  0  0  0  0  0  0  0  0
    2.6195   -6.3471    2.1890 C   0  0  0  0  0  0  0  0  0  0  0  0
    2.2607   -4.9957    2.1182 C   0  0  0  0  0  0  0  0  0  0  0  0
    2.6160    1.1228   -0.0354 H   0  0  0  0  0  0  0  0  0  0  0  0
    2.7889   -0.4466   -0.8295 H   0  0  0  0  0  0  0  0  0  0  0  0
    2.8196   -0.3349    0.9471 H   0  0  0  0  0  0  0  0  0  0  0  0
   -2.3712   -2.5631   -0.2409 H   0  0  0  0  0  0  0  0  0  0  0  0
   -3.5074    0.1971   -0.5435 H   0  0  0  0  0  0  0  0  0  0  0  0
   -4.4157   -1.2677   -0.1998 H   0  0  0  0  0  0  0  0  0  0  0  0
   -2.1280   -2.5272   -2.5840 H   0  0  0  0  0  0  0  0  0  0  0  0
   -2.6763   -2.7573   -4.9825 H   0  0  0  0  0  0  0  0  0  0  0  0
   -5.8317   -0.1327   -4.7115 H   0  0  0  0  0  0  0  0  0  0  0  0
   -5.4436    0.2378   -2.2879 H   0  0  0  0  0  0  0  0  0  0  0  0
    1.7471   -2.4808    1.6283 H   0  0  0  0  0  0  0  0  0  0  0  0
    2.2625   -4.6652   -1.2654 H   0  0  0  0  0  0  0  0  0  0  0  0
    2.8974   -7.0071   -1.1419 H   0  0  0  0  0  0  0  0  0  0  0  0
    2.6742   -6.8341    3.1608 H   0  0  0  0  0  0  0  0  0  0  0  0
    2.0403   -4.4614    3.0376 H   0  0  0  0  0  0  0  0  0  0  0  0
  1  2  1  0  0  0  0
  1 29  1  0  0  0  0
  1 30  1  0  0  0  0
  1 31  1  0  0  0  0
  2  3  2  0  0  0  0
  2 14  1  0  0  0  0
  3  4  1  0  0  0  0
  4  5  1  0  0  0  0
  5  6  1  0  0  0  0
  5 14  2  0  0  0  0
  6  7  1  0  0  0  0
  6 32  1  0  0  0  0
  7  8  1  0  0  0  0
  7 33  1  0  0  0  0
  7 34  1  0  0  0  0
  8  9  1  0  0  0  0
  8 13  2  0  0  0  0
  9 10  2  0  0  0  0
  9 35  1  0  0  0  0
 10 11  1  0  0  0  0
 10 36  1  0  0  0  0
 11 12  2  0  0  0  0
 12 13  1  0  0  0  0
 12 37  1  0  0  0  0
 13 38  1  0  0  0  0
 14 15  1  0  0  0  0
 15 16  2  0  0  0  0
 15 17  1  0  0  0  0
 17 18  1  0  0  0  0
 17 39  1  0  0  0  0
 18 19  1  0  0  0  0
 18 28  2  0  0  0  0
 19 20  2  0  0  0  0
 19 40  1  0  0  0  0
 20 21  1  0  0  0  0
 20 41  1  0  0  0  0
 21 22  1  0  0  0  0
 21 27  2  0  0  0  0
 22 23  1  0  0  0  0
 23 24  1  0  0  0  0
 23 25  1  0  0  0  0
 23 26  1  0  0  0  0
 27 28  1  0  0  0  0
 27 42  1  0  0  0  0
 28 43  1  0  0  0  0
M  END
$$$$
