CHEMBL3985222
 OpenBabel04072215373D

 66 69  0  0  0  0  0  0  0  0999 V2000
    0.7665   -0.9156   -4.6677 C   0  0  0  0  0  0  0  0  0  0  0  0
    2.1332   -1.1317   -4.6125 O   0  0  0  0  0  0  0  0  0  0  0  0
    2.9781   -0.7257   -3.6244 C   0  0  0  0  0  0  0  0  0  0  0  0
    2.5368    0.0615   -2.5399 C   0  0  0  0  0  0  0  0  0  0  0  0
    3.4140    0.4231   -1.5144 C   0  0  0  0  0  0  0  0  0  0  0  0
    2.9412    1.1498   -0.4628 O   0  0  0  0  0  0  0  0  0  0  0  0
    3.7156    1.7582    0.5095 C   0  0  0  0  0  0  0  0  0  0  0  0
    4.7471   -0.0030   -1.5852 C   0  0  0  0  0  0  0  0  0  0  0  0
    5.2229   -0.7994   -2.6498 C   0  0  0  0  0  0  0  0  0  0  0  0
    6.5438   -1.3704   -2.5659 N   0  0  0  0  0  0  0  0  0  0  0  0
    6.9542   -1.8564   -1.1640 C   0  0  0  0  0  0  0  0  0  0  0  0
    5.8399   -2.5091   -0.2147 C   0  0  0  0  0  0  0  0  0  0  0  0
    6.3309   -2.9960    1.1258 N   0  0  0  0  0  0  0  0  0  0  0  0
    5.1933   -3.4177    1.9826 C   0  0  0  0  0  0  0  0  0  0  0  0
    4.7040   -2.1420    2.6593 C   0  0  0  0  0  0  0  0  0  0  0  0
    6.0201   -1.5542    3.0907 C   0  0  0  0  0  0  0  0  0  0  0  0
    6.9748   -1.9398    1.9519 C   0  0  0  0  0  0  0  0  0  0  0  0
    7.3741   -1.8501   -3.6999 C   0  0  0  0  0  0  0  0  0  0  0  0
    7.7101   -3.1494   -3.5085 C   0  0  0  0  0  0  0  0  0  0  0  0
    8.7811   -3.7017   -4.0499 C   0  0  0  0  0  0  0  0  0  0  0  0
    9.5153   -3.0337   -4.9510 C   0  0  0  0  0  0  0  0  0  0  0  0
   10.6845   -3.6032   -5.1081 N   0  0  0  0  0  0  0  0  0  0  0  0
   11.5331   -3.2278   -6.0119 C   0  0  0  0  0  0  0  0  0  0  0  0
   11.1468   -2.4180   -7.0569 C   0  0  0  0  0  0  0  0  0  0  0  0
   12.1183   -2.8548   -8.2776 C   0  0  0  0  0  0  0  0  0  0  0  0
   12.5401   -4.2241   -8.2333 C   0  0  0  0  0  0  0  0  0  0  0  0
   13.3801   -4.5408   -9.1937 N   0  0  0  0  0  0  0  0  0  0  0  0
   13.5494   -3.4954   -9.9537 N   0  0  0  0  0  0  0  0  0  0  0  0
   14.4853   -3.6620  -11.0776 C   0  0  0  0  0  0  0  0  0  0  0  0
   12.7745   -2.4356   -9.4869 C   0  0  0  0  0  0  0  0  0  0  0  0
   10.0004   -1.5737   -6.7665 N   0  0  0  0  0  0  0  0  0  0  0  0
    9.1756   -1.8522   -5.6049 C   0  0  0  0  0  0  0  0  0  0  0  0
    8.0306   -1.1453   -4.8941 C   0  0  0  0  0  0  0  0  0  0  0  0
    4.3249   -1.1441   -3.6745 C   0  0  0  0  0  0  0  0  0  0  0  0
   -0.6118   -0.7888   -1.1541 Cl  0  0  0  0  0  0  0  0  0  0  0  0
    0.3559   -1.3969   -5.5796 H   0  0  0  0  0  0  0  0  0  0  0  0
    0.5377    0.1704   -4.7085 H   0  0  0  0  0  0  0  0  0  0  0  0
    0.2614   -1.3775   -3.7935 H   0  0  0  0  0  0  0  0  0  0  0  0
    1.5098    0.3909   -2.4839 H   0  0  0  0  0  0  0  0  0  0  0  0
    3.0601    2.2307    1.2693 H   0  0  0  0  0  0  0  0  0  0  0  0
    4.3344    2.5466    0.0338 H   0  0  0  0  0  0  0  0  0  0  0  0
    4.3690    1.0294    1.0372 H   0  0  0  0  0  0  0  0  0  0  0  0
    5.4203    0.2417   -0.7764 H   0  0  0  0  0  0  0  0  0  0  0  0
    7.4984   -1.0386   -0.6776 H   0  0  0  0  0  0  0  0  0  0  0  0
    7.7463   -2.6308   -1.1702 H   0  0  0  0  0  0  0  0  0  0  0  0
    5.3790   -3.3770   -0.7380 H   0  0  0  0  0  0  0  0  0  0  0  0
    5.0202   -1.8122   -0.0322 H   0  0  0  0  0  0  0  0  0  0  0  0
    5.5710   -4.1080    2.7785 H   0  0  0  0  0  0  0  0  0  0  0  0
    4.3893   -3.9596    1.4395 H   0  0  0  0  0  0  0  0  0  0  0  0
    3.9809   -2.2813    3.4925 H   0  0  0  0  0  0  0  0  0  0  0  0
    4.2290   -1.4777    1.9109 H   0  0  0  0  0  0  0  0  0  0  0  0
    6.3294   -2.0999    4.0103 H   0  0  0  0  0  0  0  0  0  0  0  0
    5.9948   -0.4650    3.3158 H   0  0  0  0  0  0  0  0  0  0  0  0
    7.9191   -2.3261    2.4006 H   0  0  0  0  0  0  0  0  0  0  0  0
    7.2246   -1.0406    1.3747 H   0  0  0  0  0  0  0  0  0  0  0  0
    7.2297   -3.7739   -2.7798 H   0  0  0  0  0  0  0  0  0  0  0  0
    9.0946   -4.6479   -3.7214 H   0  0  0  0  0  0  0  0  0  0  0  0
   12.4513   -3.7661   -5.9460 H   0  0  0  0  0  0  0  0  0  0  0  0
   12.2790   -4.9986   -7.5271 H   0  0  0  0  0  0  0  0  0  0  0  0
   14.9366   -4.6969  -11.0413 H   0  0  0  0  0  0  0  0  0  0  0  0
   15.3499   -2.9731  -11.0085 H   0  0  0  0  0  0  0  0  0  0  0  0
   13.9650   -3.5995  -12.0485 H   0  0  0  0  0  0  0  0  0  0  0  0
   12.7652   -1.4698   -9.9742 H   0  0  0  0  0  0  0  0  0  0  0  0
    7.7532   -0.1164   -5.1446 H   0  0  0  0  0  0  0  0  0  0  0  0
    4.6456   -1.7939   -4.4764 H   0  0  0  0  0  0  0  0  0  0  0  0
    0.5762   -0.4834   -0.5295 H   0  0  0  0  0  0  0  0  0  0  0  0
  1  2  1  0  0  0  0
  1 36  1  0  0  0  0
  1 37  1  0  0  0  0
  1 38  1  0  0  0  0
  2  3  1  0  0  0  0
  3  4  1  0  0  0  0
  3 34  2  0  0  0  0
  4  5  2  0  0  0  0
  4 39  1  0  0  0  0
  5  6  1  0  0  0  0
  5  8  1  0  0  0  0
  6  7  1  0  0  0  0
  7 40  1  0  0  0  0
  7 41  1  0  0  0  0
  7 42  1  0  0  0  0
  8  9  2  0  0  0  0
  8 43  1  0  0  0  0
  9 10  1  0  0  0  0
  9 34  1  0  0  0  0
 10 11  1  0  0  0  0
 10 18  1  0  0  0  0
 11 12  1  0  0  0  0
 11 44  1  0  0  0  0
 11 45  1  0  0  0  0
 12 13  1  0  0  0  0
 12 46  1  0  0  0  0
 12 47  1  0  0  0  0
 13 14  1  0  0  0  0
 13 17  1  0  0  0  0
 14 15  1  0  0  0  0
 14 48  1  0  0  0  0
 14 49  1  0  0  0  0
 15 16  1  0  0  0  0
 15 50  1  0  0  0  0
 15 51  1  0  0  0  0
 16 17  1  0  0  0  0
 16 52  1  0  0  0  0
 16 53  1  0  0  0  0
 17 54  1  0  0  0  0
 17 55  1  0  0  0  0
 18 19  1  0  0  0  0
 18 33  2  0  0  0  0
 19 20  2  0  0  0  0
 19 56  1  0  0  0  0
 20 21  1  0  0  0  0
 20 57  1  0  0  0  0
 21 22  1  0  0  0  0
 21 32  2  0  0  0  0
 22 23  2  0  0  0  0
 23 24  1  0  0  0  0
 23 58  1  0  0  0  0
 24 25  1  0  0  0  0
 24 31  2  0  0  0  0
 25 26  1  0  0  0  0
 25 30  2  0  0  0  0
 26 27  2  0  0  0  0
 26 59  1  0  0  0  0
 27 28  1  0  0  0  0
 28 29  1  0  0  0  0
 28 30  1  0  0  0  0
 29 60  1  0  0  0  0
 29 61  1  0  0  0  0
 29 62  1  0  0  0  0
 30 63  1  0  0  0  0
 31 32  1  0  0  0  0
 32 33  1  0  0  0  0
 33 64  1  0  0  0  0
 34 65  1  0  0  0  0
 35 66  1  0  0  0  0
M  END
$$$$
