CHEMBL271600
 OpenBabel04072215363D

 42 45  0  0  0  0  0  0  0  0999 V2000
    3.4560    2.9418   -1.8881 N   0  0  0  0  0  0  0  0  0  0  0  0
    3.1384    1.6387   -1.7456 C   0  0  0  0  0  0  0  0  0  0  0  0
    3.8707    0.6738   -2.3052 N   0  0  0  0  0  0  0  0  0  0  0  0
    3.3025   -0.5132   -1.9044 O   0  0  0  0  0  0  0  0  0  0  0  0
    2.2217   -0.2602   -1.1254 C   0  0  0  0  0  0  0  0  0  0  0  0
    1.4310   -1.2462   -0.5400 C   0  0  0  0  0  0  0  0  0  0  0  0
    0.3605   -0.8048    0.2252 C   0  0  0  0  0  0  0  0  0  0  0  0
    0.1045    0.5605    0.3568 C   0  0  0  0  0  0  0  0  0  0  0  0
    0.9133    1.5687   -0.2462 C   0  0  0  0  0  0  0  0  0  0  0  0
    0.5706    2.9976   -0.0709 C   0  0  0  0  0  0  0  0  0  0  0  0
    0.0173    3.4454    1.1357 C   0  0  0  0  0  0  0  0  0  0  0  0
   -0.3848    4.7716    1.3133 C   0  0  0  0  0  0  0  0  0  0  0  0
   -0.2208    5.7227    0.3062 C   0  0  0  0  0  0  0  0  0  0  0  0
   -0.6507    7.0675    0.4296 N   0  0  0  0  0  0  0  0  0  0  0  0
   -1.4948    7.5270    1.4248 C   0  0  0  0  0  0  0  0  0  0  0  0
   -1.9944    6.8074    2.2859 O   0  0  0  0  0  0  0  0  0  0  0  0
   -1.7550    8.8861    1.3455 N   0  0  0  0  0  0  0  0  0  0  0  0
   -2.5058    9.5820    2.3344 C   0  0  0  0  0  0  0  0  0  0  0  0
   -2.5981    9.1213    3.6567 C   0  0  0  0  0  0  0  0  0  0  0  0
   -3.4203    9.7562    4.5836 C   0  0  0  0  0  0  0  0  0  0  0  0
   -4.1374   10.8846    4.2072 C   0  0  0  0  0  0  0  0  0  0  0  0
   -4.0069   11.3795    2.9094 C   0  0  0  0  0  0  0  0  0  0  0  0
   -4.8870   12.7876    2.4542 Cl  0  0  0  0  0  0  0  0  0  0  0  0
   -3.1901   10.7441    1.9721 C   0  0  0  0  0  0  0  0  0  0  0  0
    0.3757    5.3138   -0.8838 C   0  0  0  0  0  0  0  0  0  0  0  0
    0.7128    3.9622   -1.0819 C   0  0  0  0  0  0  0  0  0  0  0  0
    2.0311    1.1124   -1.0023 C   0  0  0  0  0  0  0  0  0  0  0  0
    4.3456    3.1376   -2.3356 H   0  0  0  0  0  0  0  0  0  0  0  0
    3.2436    3.5879   -1.1353 H   0  0  0  0  0  0  0  0  0  0  0  0
    1.6468   -2.2991   -0.6756 H   0  0  0  0  0  0  0  0  0  0  0  0
   -0.2908   -1.5260    0.7151 H   0  0  0  0  0  0  0  0  0  0  0  0
   -0.7700    0.8452    0.9425 H   0  0  0  0  0  0  0  0  0  0  0  0
   -0.1395    2.7655    1.9712 H   0  0  0  0  0  0  0  0  0  0  0  0
   -0.8259    5.0120    2.2747 H   0  0  0  0  0  0  0  0  0  0  0  0
   -0.4142    7.6994   -0.3199 H   0  0  0  0  0  0  0  0  0  0  0  0
   -1.6994    9.3083    0.4272 H   0  0  0  0  0  0  0  0  0  0  0  0
   -2.0384    8.2531    3.9928 H   0  0  0  0  0  0  0  0  0  0  0  0
   -3.5025    9.3548    5.5906 H   0  0  0  0  0  0  0  0  0  0  0  0
   -4.7912   11.3688    4.9265 H   0  0  0  0  0  0  0  0  0  0  0  0
   -3.1273   11.1352    0.9626 H   0  0  0  0  0  0  0  0  0  0  0  0
    0.5491    6.0150   -1.6953 H   0  0  0  0  0  0  0  0  0  0  0  0
    1.0770    3.6731   -2.0658 H   0  0  0  0  0  0  0  0  0  0  0  0
  1  2  1  0  0  0  0
  1 28  1  0  0  0  0
  1 29  1  0  0  0  0
  2  3  2  0  0  0  0
  2 27  1  0  0  0  0
  3  4  1  0  0  0  0
  4  5  1  0  0  0  0
  5  6  1  0  0  0  0
  5 27  2  0  0  0  0
  6  7  2  0  0  0  0
  6 30  1  0  0  0  0
  7  8  1  0  0  0  0
  7 31  1  0  0  0  0
  8  9  2  0  0  0  0
  8 32  1  0  0  0  0
  9 10  1  0  0  0  0
  9 27  1  0  0  0  0
 10 11  1  0  0  0  0
 10 26  2  0  0  0  0
 11 12  2  0  0  0  0
 11 33  1  0  0  0  0
 12 13  1  0  0  0  0
 12 34  1  0  0  0  0
 13 14  1  0  0  0  0
 13 25  2  0  0  0  0
 14 15  1  0  0  0  0
 14 35  1  0  0  0  0
 15 16  2  0  0  0  0
 15 17  1  0  0  0  0
 17 18  1  0  0  0  0
 17 36  1  0  0  0  0
 18 19  1  0  0  0  0
 18 24  2  0  0  0  0
 19 20  2  0  0  0  0
 19 37  1  0  0  0  0
 20 21  1  0  0  0  0
 20 38  1  0  0  0  0
 21 22  2  0  0  0  0
 21 39  1  0  0  0  0
 22 23  1  0  0  0  0
 22 24  1  0  0  0  0
 24 40  1  0  0  0  0
 25 26  1  0  0  0  0
 25 41  1  0  0  0  0
 26 42  1  0  0  0  0
M  END
$$$$
