CHEMBL2023482
 OpenBabel04072215363D

 55 58  0  0  0  0  0  0  0  0999 V2000
    1.2451    0.0829    0.8934 C   0  0  0  0  0  0  0  0  0  0  0  0
    0.7518   -1.2687    0.3924 C   0  0  0  0  0  0  0  0  0  0  0  0
    1.2966   -1.5724   -0.9571 C   0  0  0  0  0  0  0  0  0  0  0  0
    2.4460   -2.2106   -1.3249 C   0  0  0  0  0  0  0  0  0  0  0  0
    2.3961   -2.3324   -2.7312 C   0  0  0  0  0  0  0  0  0  0  0  0
    3.3555   -2.9547   -3.5323 N   0  0  0  0  0  0  0  0  0  0  0  0
    3.2444   -2.9415   -4.9160 C   0  0  0  0  0  0  0  0  0  0  0  0
    2.3195   -2.3924   -5.5169 O   0  0  0  0  0  0  0  0  0  0  0  0
    4.3039   -3.7214   -5.6919 C   0  0  0  0  0  0  0  0  0  0  0  0
    4.3329   -5.2225   -5.3562 C   0  0  0  0  0  0  0  0  0  0  0  0
    3.4786   -6.0141   -6.1742 C   0  0  0  0  0  0  0  0  0  0  0  0
    3.3273   -7.4200   -6.1063 C   0  0  0  0  0  0  0  0  0  0  0  0
    4.0768   -8.1666   -5.2107 C   0  0  0  0  0  0  0  0  0  0  0  0
    3.9771   -9.5522   -5.3037 O   0  0  0  0  0  0  0  0  0  0  0  0
    4.5204  -10.7132   -4.6387 C   0  0  0  0  0  0  0  0  0  0  0  0
    5.4749  -11.1067   -3.5101 C   0  0  0  0  0  0  0  0  0  0  0  0
    5.6830  -12.3855   -3.0536 C   0  0  0  0  0  0  0  0  0  0  0  0
    4.5189  -12.9440   -3.3111 N   0  0  0  0  0  0  0  0  0  0  0  0
    4.0964  -12.9471   -4.5399 C   0  0  0  0  0  0  0  0  0  0  0  0
    3.8602  -14.1982   -4.9859 C   0  0  0  0  0  0  0  0  0  0  0  0
    2.9782  -14.4200   -6.0095 C   0  0  0  0  0  0  0  0  0  0  0  0
    2.5892  -15.7022   -6.3028 O   0  0  0  0  0  0  0  0  0  0  0  0
    2.2640  -15.8944   -7.6968 C   0  0  0  0  0  0  0  0  0  0  0  0
    2.4307  -13.3029   -6.6415 C   0  0  0  0  0  0  0  0  0  0  0  0
    2.8471  -11.9975   -6.2667 C   0  0  0  0  0  0  0  0  0  0  0  0
    3.8144  -11.8101   -5.2164 C   0  0  0  0  0  0  0  0  0  0  0  0
    4.9666   -7.3606   -4.3374 C   0  0  0  0  0  0  0  0  0  0  0  0
    5.1007   -5.8819   -4.3584 C   0  0  0  0  0  0  0  0  0  0  0  0
    5.9367   -5.2250   -3.4490 O   0  0  0  0  0  0  0  0  0  0  0  0
    6.7177   -5.9184   -2.4313 C   0  0  0  0  0  0  0  0  0  0  0  0
    1.3194   -1.6895   -3.2071 N   0  0  0  0  0  0  0  0  0  0  0  0
    0.6175   -1.2212   -2.0857 O   0  0  0  0  0  0  0  0  0  0  0  0
    0.7604    0.3480    1.8392 H   0  0  0  0  0  0  0  0  0  0  0  0
    1.0202    0.8789    0.1731 H   0  0  0  0  0  0  0  0  0  0  0  0
    2.3277    0.0723    1.0529 H   0  0  0  0  0  0  0  0  0  0  0  0
   -0.3417   -1.2202    0.3213 H   0  0  0  0  0  0  0  0  0  0  0  0
    0.9834   -2.0564    1.1198 H   0  0  0  0  0  0  0  0  0  0  0  0
    3.1958   -2.5491   -0.6325 H   0  0  0  0  0  0  0  0  0  0  0  0
    4.1299   -3.4001   -3.0562 H   0  0  0  0  0  0  0  0  0  0  0  0
    5.3100   -3.2912   -5.6003 H   0  0  0  0  0  0  0  0  0  0  0  0
    4.0595   -3.5865   -6.7534 H   0  0  0  0  0  0  0  0  0  0  0  0
    2.8810   -5.5196   -6.9238 H   0  0  0  0  0  0  0  0  0  0  0  0
    2.6629   -7.8941   -6.8091 H   0  0  0  0  0  0  0  0  0  0  0  0
    6.0484  -10.4870   -2.8030 H   0  0  0  0  0  0  0  0  0  0  0  0
    5.8426  -13.4299   -2.7019 H   0  0  0  0  0  0  0  0  0  0  0  0
    4.3380  -14.9722   -4.4031 H   0  0  0  0  0  0  0  0  0  0  0  0
    2.0018  -16.9371   -7.8791 H   0  0  0  0  0  0  0  0  0  0  0  0
    3.1206  -15.6593   -8.3487 H   0  0  0  0  0  0  0  0  0  0  0  0
    1.3957  -15.2832   -7.9823 H   0  0  0  0  0  0  0  0  0  0  0  0
    1.6838  -13.4354   -7.4202 H   0  0  0  0  0  0  0  0  0  0  0  0
    2.3825  -11.1312   -6.7344 H   0  0  0  0  0  0  0  0  0  0  0  0
    5.6175   -7.8626   -3.6054 H   0  0  0  0  0  0  0  0  0  0  0  0
    7.3170   -5.2273   -1.8155 H   0  0  0  0  0  0  0  0  0  0  0  0
    7.4822   -6.5734   -2.8583 H   0  0  0  0  0  0  0  0  0  0  0  0
    6.0929   -6.4453   -1.7007 H   0  0  0  0  0  0  0  0  0  0  0  0
  1  2  1  0  0  0  0
  1 33  1  0  0  0  0
  1 34  1  0  0  0  0
  1 35  1  0  0  0  0
  2  3  1  0  0  0  0
  2 36  1  0  0  0  0
  2 37  1  0  0  0  0
  3  4  2  0  0  0  0
  3 32  1  0  0  0  0
  4  5  1  0  0  0  0
  4 38  1  0  0  0  0
  5  6  1  0  0  0  0
  5 31  2  0  0  0  0
  6  7  1  0  0  0  0
  6 39  1  0  0  0  0
  7  8  2  0  0  0  0
  7  9  1  0  0  0  0
  9 10  1  0  0  0  0
  9 40  1  0  0  0  0
  9 41  1  0  0  0  0
 10 11  1  0  0  0  0
 10 28  2  0  0  0  0
 11 12  2  0  0  0  0
 11 42  1  0  0  0  0
 12 13  1  0  0  0  0
 12 43  1  0  0  0  0
 13 14  1  0  0  0  0
 13 27  2  0  0  0  0
 14 15  1  0  0  0  0
 15 16  1  0  0  0  0
 15 26  2  0  0  0  0
 16 17  2  0  0  0  0
 16 44  1  0  0  0  0
 17 18  1  0  0  0  0
 17 45  1  0  0  0  0
 18 19  2  0  0  0  0
 19 20  1  0  0  0  0
 19 26  1  0  0  0  0
 20 21  2  0  0  0  0
 20 46  1  0  0  0  0
 21 22  1  0  0  0  0
 21 24  1  0  0  0  0
 22 23  1  0  0  0  0
 23 47  1  0  0  0  0
 23 48  1  0  0  0  0
 23 49  1  0  0  0  0
 24 25  2  0  0  0  0
 24 50  1  0  0  0  0
 25 26  1  0  0  0  0
 25 51  1  0  0  0  0
 27 28  1  0  0  0  0
 27 52  1  0  0  0  0
 28 29  1  0  0  0  0
 29 30  1  0  0  0  0
 30 53  1  0  0  0  0
 30 54  1  0  0  0  0
 30 55  1  0  0  0  0
 31 32  1  0  0  0  0
M  END
$$$$
