CHEMBL225278
 OpenBabel04072215363D

 62 67  0  0  0  0  0  0  0  0999 V2000
    1.1442    0.1724   -1.2585 C   0  0  0  0  0  0  0  0  0  0  0  0
    2.5814    0.0519   -1.1469 N   0  0  0  0  0  0  0  0  0  0  0  0
    3.4240    1.2057   -1.4185 C   0  0  0  0  0  0  0  0  0  0  0  0
    4.7509    0.7926   -2.0602 C   0  0  0  0  0  0  0  0  0  0  0  0
    5.4593   -0.2543   -1.3034 N   0  0  0  0  0  0  0  0  0  0  0  0
    5.9366    0.1502    0.0288 C   0  0  0  0  0  0  0  0  0  0  0  0
    6.9246    1.3037    0.0187 C   0  0  0  0  0  0  0  0  0  0  0  0
    6.4563    2.6386    0.1359 C   0  0  0  0  0  0  0  0  0  0  0  0
    7.3227    3.7336    0.1009 C   0  0  0  0  0  0  0  0  0  0  0  0
    8.6637    3.4627   -0.0124 C   0  0  0  0  0  0  0  0  0  0  0  0
    9.1739    2.1389   -0.0914 C   0  0  0  0  0  0  0  0  0  0  0  0
    8.3051    1.0569   -0.0985 C   0  0  0  0  0  0  0  0  0  0  0  0
   10.7142    2.0882   -0.1438 C   0  0  0  0  0  0  0  0  0  0  0  0
   10.9567    3.5601   -0.1264 C   0  0  0  0  0  0  0  0  0  0  0  0
   11.9926    4.5070   -0.1274 C   0  0  0  0  0  0  0  0  0  0  0  0
   13.4207    4.1901   -0.1829 C   0  0  0  0  0  0  0  0  0  0  0  0
   13.9705    3.0836   -0.7848 C   0  0  0  0  0  0  0  0  0  0  0  0
   15.6720    3.0386   -0.6214 S   0  0  0  0  0  0  0  0  0  0  0  0
   15.6890    4.5129    0.2433 C   0  0  0  0  0  0  0  0  0  0  0  0
   16.8930    5.0899    0.7407 C   0  0  0  0  0  0  0  0  0  0  0  0
   17.9305    5.5244    1.1705 C   0  0  0  0  0  0  0  0  0  0  0  0
   19.1974    6.0030    1.7355 C   0  0  0  0  0  0  0  0  0  0  0  0
   19.9682    6.6479    0.7218 O   0  0  0  0  0  0  0  0  0  0  0  0
   21.1769    7.1682    1.1039 C   0  0  0  0  0  0  0  0  0  0  0  0
   21.7173    7.1322    2.3913 C   0  0  0  0  0  0  0  0  0  0  0  0
   22.9630    7.7144    2.6493 C   0  0  0  0  0  0  0  0  0  0  0  0
   23.6757    8.3320    1.6242 C   0  0  0  0  0  0  0  0  0  0  0  0
   23.1457    8.3664    0.3368 C   0  0  0  0  0  0  0  0  0  0  0  0
   21.9013    7.7862    0.0801 C   0  0  0  0  0  0  0  0  0  0  0  0
   14.4190    5.0312    0.4026 C   0  0  0  0  0  0  0  0  0  0  0  0
   11.5005    5.7608   -0.0552 N   0  0  0  0  0  0  0  0  0  0  0  0
   10.1498    5.5995   -0.0366 N   0  0  0  0  0  0  0  0  0  0  0  0
    9.8090    4.2987   -0.0508 C   0  0  0  0  0  0  0  0  0  0  0  0
    4.5682   -1.4365   -1.1863 C   0  0  0  0  0  0  0  0  0  0  0  0
    3.1359   -1.1425   -0.7044 C   0  0  0  0  0  0  0  0  0  0  0  0
    2.4759   -1.9996   -0.1163 O   0  0  0  0  0  0  0  0  0  0  0  0
    0.8510    1.1990   -1.4914 H   0  0  0  0  0  0  0  0  0  0  0  0
    0.6513   -0.1655   -0.3442 H   0  0  0  0  0  0  0  0  0  0  0  0
    0.8369   -0.4799   -2.0836 H   0  0  0  0  0  0  0  0  0  0  0  0
    3.5821    1.7176   -0.4630 H   0  0  0  0  0  0  0  0  0  0  0  0
    2.8955    1.9005   -2.0791 H   0  0  0  0  0  0  0  0  0  0  0  0
    5.3861    1.6666   -2.2333 H   0  0  0  0  0  0  0  0  0  0  0  0
    4.5342    0.3995   -3.0633 H   0  0  0  0  0  0  0  0  0  0  0  0
    6.4556   -0.7067    0.4817 H   0  0  0  0  0  0  0  0  0  0  0  0
    5.1127    0.3835    0.7140 H   0  0  0  0  0  0  0  0  0  0  0  0
    5.3933    2.8289    0.2546 H   0  0  0  0  0  0  0  0  0  0  0  0
    6.9443    4.7453    0.1755 H   0  0  0  0  0  0  0  0  0  0  0  0
    8.6850    0.0424   -0.1797 H   0  0  0  0  0  0  0  0  0  0  0  0
   11.0594    1.6168   -1.0659 H   0  0  0  0  0  0  0  0  0  0  0  0
   11.1149    1.6007    0.7491 H   0  0  0  0  0  0  0  0  0  0  0  0
   13.4669    2.2965   -1.3277 H   0  0  0  0  0  0  0  0  0  0  0  0
   19.7541    5.1453    2.1326 H   0  0  0  0  0  0  0  0  0  0  0  0
   18.9789    6.7075    2.5471 H   0  0  0  0  0  0  0  0  0  0  0  0
   21.2003    6.6628    3.2211 H   0  0  0  0  0  0  0  0  0  0  0  0
   23.3763    7.6852    3.6546 H   0  0  0  0  0  0  0  0  0  0  0  0
   24.6422    8.7855    1.8285 H   0  0  0  0  0  0  0  0  0  0  0  0
   23.6982    8.8449   -0.4674 H   0  0  0  0  0  0  0  0  0  0  0  0
   21.4922    7.8171   -0.9270 H   0  0  0  0  0  0  0  0  0  0  0  0
   14.2091    5.9577    0.9243 H   0  0  0  0  0  0  0  0  0  0  0  0
    9.5578    6.4233   -0.0110 H   0  0  0  0  0  0  0  0  0  0  0  0
    5.0163   -2.2001   -0.5408 H   0  0  0  0  0  0  0  0  0  0  0  0
    4.4592   -1.8905   -2.1801 H   0  0  0  0  0  0  0  0  0  0  0  0
  1  2  1  0  0  0  0
  1 37  1  0  0  0  0
  1 38  1  0  0  0  0
  1 39  1  0  0  0  0
  2  3  1  0  0  0  0
  2 35  1  0  0  0  0
  3  4  1  0  0  0  0
  3 40  1  0  0  0  0
  3 41  1  0  0  0  0
  4  5  1  0  0  0  0
  4 42  1  0  0  0  0
  4 43  1  0  0  0  0
  5  6  1  0  0  0  0
  5 34  1  0  0  0  0
  6  7  1  0  0  0  0
  6 44  1  0  0  0  0
  6 45  1  0  0  0  0
  7  8  1  0  0  0  0
  7 12  2  0  0  0  0
  8  9  2  0  0  0  0
  8 46  1  0  0  0  0
  9 10  1  0  0  0  0
  9 47  1  0  0  0  0
 10 11  2  0  0  0  0
 10 33  1  0  0  0  0
 11 12  1  0  0  0  0
 11 13  1  0  0  0  0
 12 48  1  0  0  0  0
 13 14  1  0  0  0  0
 13 49  1  0  0  0  0
 13 50  1  0  0  0  0
 14 15  1  0  0  0  0
 14 33  2  0  0  0  0
 15 16  1  0  0  0  0
 15 31  2  0  0  0  0
 16 17  2  0  0  0  0
 16 30  1  0  0  0  0
 17 18  1  0  0  0  0
 17 51  1  0  0  0  0
 18 19  1  0  0  0  0
 19 20  1  0  0  0  0
 19 30  2  0  0  0  0
 20 21  3  0  0  0  0
 21 22  1  0  0  0  0
 22 23  1  0  0  0  0
 22 52  1  0  0  0  0
 22 53  1  0  0  0  0
 23 24  1  0  0  0  0
 24 25  1  0  0  0  0
 24 29  2  0  0  0  0
 25 26  2  0  0  0  0
 25 54  1  0  0  0  0
 26 27  1  0  0  0  0
 26 55  1  0  0  0  0
 27 28  2  0  0  0  0
 27 56  1  0  0  0  0
 28 29  1  0  0  0  0
 28 57  1  0  0  0  0
 29 58  1  0  0  0  0
 30 59  1  0  0  0  0
 31 32  1  0  0  0  0
 32 33  1  0  0  0  0
 32 60  1  0  0  0  0
 34 35  1  0  0  0  0
 34 61  1  0  0  0  0
 34 62  1  0  0  0  0
 35 36  2  0  0  0  0
M  END
$$$$
