CHEMBL255902
 OpenBabel04072215363D

 42 45  0  0  1  0  0  0  0  0999 V2000
    0.9823   -0.2781    0.0210 C   0  0  0  0  0  0  0  0  0  0  0  0
    2.4690   -0.2251    0.0518 C   0  0  0  0  0  0  0  0  0  0  0  0
    3.3044    0.9304   -0.0076 C   0  0  0  0  0  0  0  0  0  0  0  0
    2.8742    2.2086   -0.1456 O   0  0  0  0  0  0  0  0  0  0  0  0
    3.8915    3.1048   -0.6278 C   0  0  0  0  0  0  0  0  0  0  0  0
    3.2577    4.3807   -1.1942 C   0  0  1  0  0  0  0  0  0  0  0  0
    2.2250    4.0836   -2.2721 C   0  0  0  0  0  0  0  0  0  0  0  0
    2.6367    5.1350   -0.1542 O   0  0  0  0  0  0  0  0  0  0  0  0
    4.6142    0.5147    0.0927 C   0  0  0  0  0  0  0  0  0  0  0  0
    4.6180   -0.8473    0.1199 N   0  0  0  0  0  0  0  0  0  0  0  0
    5.7147   -1.6251    0.1265 N   0  0  0  0  0  0  0  0  0  0  0  0
    5.4697   -2.8983    0.0981 C   0  0  0  0  0  0  0  0  0  0  0  0
    4.2361   -3.4978    0.0545 N   0  0  0  0  0  0  0  0  0  0  0  0
    3.2088   -2.7168    0.0484 C   0  0  0  0  0  0  0  0  0  0  0  0
    1.8952   -3.1390   -0.0560 O   0  0  0  0  0  0  0  0  0  0  0  0
    1.6651   -4.4201   -0.5781 C   0  0  0  0  0  0  0  0  0  0  0  0
    2.3262   -4.8936   -1.7074 C   0  0  0  0  0  0  0  0  0  0  0  0
    2.1115   -6.0907   -2.3033 N   0  0  0  0  0  0  0  0  0  0  0  0
    1.1466   -6.8086   -1.7002 C   0  0  0  0  0  0  0  0  0  0  0  0
    0.7434   -8.0493   -2.1091 N   0  0  0  0  0  0  0  0  0  0  0  0
   -0.2704   -8.4954   -1.3002 C   0  0  0  0  0  0  0  0  0  0  0  0
   -0.5146   -7.5227   -0.3518 C   0  0  0  0  0  0  0  0  0  0  0  0
    0.3884   -6.4489   -0.5920 C   0  0  0  0  0  0  0  0  0  0  0  0
    0.6583   -5.1984   -0.0152 C   0  0  0  0  0  0  0  0  0  0  0  0
   -0.0349   -4.7616    1.0445 F   0  0  0  0  0  0  0  0  0  0  0  0
    3.3383   -1.3056    0.0871 C   0  0  0  0  0  0  0  0  0  0  0  0
    0.5367    0.7213    0.0263 H   0  0  0  0  0  0  0  0  0  0  0  0
    0.6036   -0.8183    0.8963 H   0  0  0  0  0  0  0  0  0  0  0  0
    0.6364   -0.7987   -0.8787 H   0  0  0  0  0  0  0  0  0  0  0  0
    4.4708    2.6351   -1.4334 H   0  0  0  0  0  0  0  0  0  0  0  0
    4.5524    3.3627    0.2087 H   0  0  0  0  0  0  0  0  0  0  0  0
    4.0509    5.0087   -1.6158 H   0  0  0  0  0  0  0  0  0  0  0  0
    1.3766    3.5217   -1.8674 H   0  0  0  0  0  0  0  0  0  0  0  0
    2.6661    3.5110   -3.0939 H   0  0  0  0  0  0  0  0  0  0  0  0
    1.8181    5.0168   -2.6748 H   0  0  0  0  0  0  0  0  0  0  0  0
    2.0115    4.5330    0.2924 H   0  0  0  0  0  0  0  0  0  0  0  0
    5.5509    1.0521    0.1092 H   0  0  0  0  0  0  0  0  0  0  0  0
    6.3339   -3.5841    0.0933 H   0  0  0  0  0  0  0  0  0  0  0  0
    3.0833   -4.2921   -2.2036 H   0  0  0  0  0  0  0  0  0  0  0  0
    1.1464   -8.5353   -2.8969 H   0  0  0  0  0  0  0  0  0  0  0  0
   -0.7277   -9.4608   -1.4714 H   0  0  0  0  0  0  0  0  0  0  0  0
   -1.2613   -7.5752    0.4303 H   0  0  0  0  0  0  0  0  0  0  0  0
  1  2  1  0  0  0  0
  1 27  1  0  0  0  0
  1 28  1  0  0  0  0
  1 29  1  0  0  0  0
  2  3  1  0  0  0  0
  2 26  2  0  0  0  0
  3  4  1  0  0  0  0
  3  9  2  0  0  0  0
  4  5  1  0  0  0  0
  5  6  1  0  0  0  0
  5 30  1  0  0  0  0
  5 31  1  0  0  0  0
  6  7  1  0  0  0  0
  6  8  1  0  0  0  0
  6 32  1  6  0  0  0
  7 33  1  0  0  0  0
  7 34  1  0  0  0  0
  7 35  1  0  0  0  0
  8 36  1  0  0  0  0
  9 10  1  0  0  0  0
  9 37  1  0  0  0  0
 10 11  1  0  0  0  0
 10 26  1  0  0  0  0
 11 12  2  0  0  0  0
 12 13  1  0  0  0  0
 12 38  1  0  0  0  0
 13 14  2  0  0  0  0
 14 15  1  0  0  0  0
 14 26  1  0  0  0  0
 15 16  1  0  0  0  0
 16 17  1  0  0  0  0
 16 24  2  0  0  0  0
 17 18  2  0  0  0  0
 17 39  1  0  0  0  0
 18 19  1  0  0  0  0
 19 20  1  0  0  0  0
 19 23  2  0  0  0  0
 20 21  1  0  0  0  0
 20 40  1  0  0  0  0
 21 22  2  0  0  0  0
 21 41  1  0  0  0  0
 22 23  1  0  0  0  0
 22 42  1  0  0  0  0
 23 24  1  0  0  0  0
 24 25  1  0  0  0  0
M  END
$$$$
