CHEMBL3287597
 OpenBabel04072215363D

 61 65  0  0  0  0  0  0  0  0999 V2000
    5.3380    1.8194   -0.1666 O   0  0  0  0  0  0  0  0  0  0  0  0
    4.5397    0.8956   -0.2282 C   0  0  0  0  0  0  0  0  0  0  0  0
    4.7140   -0.3312   -0.8430 N   0  0  0  0  0  0  0  0  0  0  0  0
    5.8633   -0.7555   -1.5352 C   0  0  0  0  0  0  0  0  0  0  0  0
    7.0955   -0.1011   -1.4376 C   0  0  0  0  0  0  0  0  0  0  0  0
    8.1824   -0.5180   -2.2086 C   0  0  0  0  0  0  0  0  0  0  0  0
    8.0358   -1.5909   -3.0741 C   0  0  0  0  0  0  0  0  0  0  0  0
    9.0665   -1.9644   -3.8430 F   0  0  0  0  0  0  0  0  0  0  0  0
    6.8325   -2.2810   -3.1550 C   0  0  0  0  0  0  0  0  0  0  0  0
    5.7481   -1.8734   -2.3722 C   0  0  0  0  0  0  0  0  0  0  0  0
    3.1932    1.0924    0.3973 C   0  0  0  0  0  0  0  0  0  0  0  0
    3.1130    0.6744    1.8284 C   0  0  0  0  0  0  0  0  0  0  0  0
    2.8890   -0.5144    2.0469 O   0  0  0  0  0  0  0  0  0  0  0  0
    3.2903    1.6689    2.7793 N   0  0  0  0  0  0  0  0  0  0  0  0
    3.3256    1.4505    4.1783 C   0  0  0  0  0  0  0  0  0  0  0  0
    3.5276    0.1827    4.7380 C   0  0  0  0  0  0  0  0  0  0  0  0
    3.4802   -0.0155    6.1211 C   0  0  0  0  0  0  0  0  0  0  0  0
    3.2401    1.0572    6.9739 C   0  0  0  0  0  0  0  0  0  0  0  0
    3.2464    0.7596    8.3155 O   0  0  0  0  0  0  0  0  0  0  0  0
    2.3343    1.3986    9.1461 C   0  0  0  0  0  0  0  0  0  0  0  0
    2.6662    1.4301   10.4796 C   0  0  0  0  0  0  0  0  0  0  0  0
    1.7803    2.0999   11.2745 C   0  0  0  0  0  0  0  0  0  0  0  0
    0.6755    2.6949   10.7973 N   0  0  0  0  0  0  0  0  0  0  0  0
    0.4317    2.6060    9.4806 C   0  0  0  0  0  0  0  0  0  0  0  0
   -0.6553    3.2700    8.9075 N   0  0  0  0  0  0  0  0  0  0  0  0
   -1.3090    4.4469    9.3087 C   0  0  0  0  0  0  0  0  0  0  0  0
   -0.9467    5.1730   10.4503 C   0  0  0  0  0  0  0  0  0  0  0  0
   -1.6638    6.2976   10.8630 C   0  0  0  0  0  0  0  0  0  0  0  0
   -2.7662    6.7205   10.1320 C   0  0  0  0  0  0  0  0  0  0  0  0
   -3.1576    6.0241    8.9819 C   0  0  0  0  0  0  0  0  0  0  0  0
   -4.3306    6.4887    8.1596 C   0  0  0  0  0  0  0  0  0  0  0  0
   -4.9244    7.6150    8.6455 F   0  0  0  0  0  0  0  0  0  0  0  0
   -3.9784    6.7804    6.8762 F   0  0  0  0  0  0  0  0  0  0  0  0
   -5.3163    5.5542    8.0735 F   0  0  0  0  0  0  0  0  0  0  0  0
   -2.4322    4.8806    8.5918 C   0  0  0  0  0  0  0  0  0  0  0  0
    1.2015    1.9169    8.6342 N   0  0  0  0  0  0  0  0  0  0  0  0
    3.1236    2.3365    6.4264 C   0  0  0  0  0  0  0  0  0  0  0  0
    2.9939    3.4149    7.2144 F   0  0  0  0  0  0  0  0  0  0  0  0
    3.1611    2.5382    5.0395 C   0  0  0  0  0  0  0  0  0  0  0  0
    1.9312    0.8212   -0.4359 C   0  0  0  0  0  0  0  0  0  0  0  0
    2.3487    2.2303   -0.1676 C   0  0  0  0  0  0  0  0  0  0  0  0
    3.9107   -0.9500   -0.8614 H   0  0  0  0  0  0  0  0  0  0  0  0
    7.2459    0.7327   -0.7590 H   0  0  0  0  0  0  0  0  0  0  0  0
    9.1337    0.0008   -2.1407 H   0  0  0  0  0  0  0  0  0  0  0  0
    6.7429   -3.1207   -3.8377 H   0  0  0  0  0  0  0  0  0  0  0  0
    4.8105   -2.4162   -2.4579 H   0  0  0  0  0  0  0  0  0  0  0  0
    3.3361    2.6239    2.4499 H   0  0  0  0  0  0  0  0  0  0  0  0
    3.7491   -0.6817    4.1195 H   0  0  0  0  0  0  0  0  0  0  0  0
    3.6299   -1.0145    6.5220 H   0  0  0  0  0  0  0  0  0  0  0  0
    3.5639    0.9749   10.8696 H   0  0  0  0  0  0  0  0  0  0  0  0
    1.9371    2.2035   12.3441 H   0  0  0  0  0  0  0  0  0  0  0  0
   -0.6676    3.0758    7.9165 H   0  0  0  0  0  0  0  0  0  0  0  0
   -0.0832    4.8907   11.0421 H   0  0  0  0  0  0  0  0  0  0  0  0
   -1.3520    6.8338   11.7546 H   0  0  0  0  0  0  0  0  0  0  0  0
   -3.3178    7.5985   10.4649 H   0  0  0  0  0  0  0  0  0  0  0  0
   -2.7567    4.3242    7.7132 H   0  0  0  0  0  0  0  0  0  0  0  0
    3.0340    3.5496    4.6684 H   0  0  0  0  0  0  0  0  0  0  0  0
    1.0444    0.4566    0.0771 H   0  0  0  0  0  0  0  0  0  0  0  0
    2.0393    0.4309   -1.4400 H   0  0  0  0  0  0  0  0  0  0  0  0
    1.7401    2.8242    0.5056 H   0  0  0  0  0  0  0  0  0  0  0  0
    2.7459    2.7912   -1.0069 H   0  0  0  0  0  0  0  0  0  0  0  0
  1  2  2  0  0  0  0
  2  3  1  0  0  0  0
  2 11  1  0  0  0  0
  3  4  1  0  0  0  0
  3 42  1  0  0  0  0
  4  5  1  0  0  0  0
  4 10  2  0  0  0  0
  5  6  2  0  0  0  0
  5 43  1  0  0  0  0
  6  7  1  0  0  0  0
  6 44  1  0  0  0  0
  7  8  1  0  0  0  0
  7  9  2  0  0  0  0
  9 10  1  0  0  0  0
  9 45  1  0  0  0  0
 10 46  1  0  0  0  0
 11 12  1  0  0  0  0
 11 40  1  0  0  0  0
 11 41  1  0  0  0  0
 12 13  2  0  0  0  0
 12 14  1  0  0  0  0
 14 15  1  0  0  0  0
 14 47  1  0  0  0  0
 15 16  1  0  0  0  0
 15 39  2  0  0  0  0
 16 17  2  0  0  0  0
 16 48  1  0  0  0  0
 17 18  1  0  0  0  0
 17 49  1  0  0  0  0
 18 19  1  0  0  0  0
 18 37  2  0  0  0  0
 19 20  1  0  0  0  0
 20 21  1  0  0  0  0
 20 36  2  0  0  0  0
 21 22  2  0  0  0  0
 21 50  1  0  0  0  0
 22 23  1  0  0  0  0
 22 51  1  0  0  0  0
 23 24  2  0  0  0  0
 24 25  1  0  0  0  0
 24 36  1  0  0  0  0
 25 26  1  0  0  0  0
 25 52  1  0  0  0  0
 26 27  1  0  0  0  0
 26 35  2  0  0  0  0
 27 28  2  0  0  0  0
 27 53  1  0  0  0  0
 28 29  1  0  0  0  0
 28 54  1  0  0  0  0
 29 30  2  0  0  0  0
 29 55  1  0  0  0  0
 30 31  1  0  0  0  0
 30 35  1  0  0  0  0
 31 32  1  0  0  0  0
 31 33  1  0  0  0  0
 31 34  1  0  0  0  0
 35 56  1  0  0  0  0
 37 38  1  0  0  0  0
 37 39  1  0  0  0  0
 39 57  1  0  0  0  0
 40 41  1  0  0  0  0
 40 58  1  0  0  0  0
 40 59  1  0  0  0  0
 41 60  1  0  0  0  0
 41 61  1  0  0  0  0
M  END
$$$$
