CHEMBL3694670
 OpenBabel04072215373D

 52 55  0  0  1  0  0  0  0  0999 V2000
    2.5121   -1.5628    0.4175 C   0  0  0  0  0  0  0  0  0  0  0  0
    2.4428   -0.0841    0.0467 C   0  0  3  0  0  0  0  0  0  0  0  0
    3.1880    0.6663    1.0053 O   0  0  0  0  0  0  0  0  0  0  0  0
    2.9325    0.1924   -1.3439 C   0  0  0  0  0  0  0  0  0  0  0  0
    2.3476   -0.3829   -2.4550 C   0  0  0  0  0  0  0  0  0  0  0  0
    2.7491   -0.1665   -3.7216 N   0  0  0  0  0  0  0  0  0  0  0  0
    3.7809    0.6803   -3.8861 C   0  0  0  0  0  0  0  0  0  0  0  0
    4.2643    0.9665   -5.2607 C   0  0  0  0  0  0  0  0  0  0  0  0
    5.3634    1.9111   -5.5076 C   0  0  0  0  0  0  0  0  0  0  0  0
    5.7798    2.1556   -6.7585 C   0  0  0  0  0  0  0  0  0  0  0  0
    5.1921    1.4810   -7.8277 N   0  0  0  0  0  0  0  0  0  0  0  0
    5.4750    1.5032   -9.1893 C   0  0  0  0  0  0  0  0  0  0  0  0
    6.5331    2.2652   -9.8694 C   0  0  0  0  0  0  0  0  0  0  0  0
    6.2810    2.7642  -11.1520 C   0  0  0  0  0  0  0  0  0  0  0  0
    7.2560    3.4822  -11.8397 C   0  0  0  0  0  0  0  0  0  0  0  0
    8.4851    3.7463  -11.2365 C   0  0  0  0  0  0  0  0  0  0  0  0
    8.7634    3.2847   -9.9490 C   0  0  0  0  0  0  0  0  0  0  0  0
    9.9708    3.5780   -9.2660 N   0  0  0  0  0  0  0  0  0  0  0  0
   10.9875    4.3862   -9.7228 C   0  0  0  0  0  0  0  0  0  0  0  0
   11.0247    4.9951  -10.7888 O   0  0  0  0  0  0  0  0  0  0  0  0
   12.0632    4.4319   -8.8665 N   0  0  0  0  0  0  0  0  0  0  0  0
   13.2180    5.2578   -9.2587 C   0  0  0  0  0  0  0  0  0  0  0  0
   13.0703    6.7749   -9.0579 C   0  0  0  0  0  0  0  0  0  0  0  0
   11.9539    7.0934   -8.3641 F   0  0  0  0  0  0  0  0  0  0  0  0
   14.1224    7.2442   -8.3393 F   0  0  0  0  0  0  0  0  0  0  0  0
   13.0522    7.4517  -10.2247 F   0  0  0  0  0  0  0  0  0  0  0  0
    7.7993    2.5001   -9.2964 C   0  0  0  0  0  0  0  0  0  0  0  0
    4.4958    0.6864   -9.7394 C   0  0  0  0  0  0  0  0  0  0  0  0
    3.6792    0.1355   -8.7925 N   0  0  0  0  0  0  0  0  0  0  0  0
    4.1217    0.6058   -7.6487 C   0  0  0  0  0  0  0  0  0  0  0  0
    3.6718    0.3634   -6.3193 C   0  0  0  0  0  0  0  0  0  0  0  0
    4.4181    1.3042   -2.8781 N   0  0  0  0  0  0  0  0  0  0  0  0
    3.9705    1.0537   -1.6334 C   0  0  0  0  0  0  0  0  0  0  0  0
    2.1866   -1.7107    1.4527 H   0  0  0  0  0  0  0  0  0  0  0  0
    3.5406   -1.9370    0.3515 H   0  0  0  0  0  0  0  0  0  0  0  0
    1.8840   -2.1797   -0.2328 H   0  0  0  0  0  0  0  0  0  0  0  0
    1.4060    0.2629    0.1197 H   0  0  0  0  0  0  0  0  0  0  0  0
    4.0011    0.1726    1.2089 H   0  0  0  0  0  0  0  0  0  0  0  0
    1.5019   -1.0606   -2.3656 H   0  0  0  0  0  0  0  0  0  0  0  0
    5.8170    2.4162   -4.6598 H   0  0  0  0  0  0  0  0  0  0  0  0
    6.5584    2.8744   -6.9614 H   0  0  0  0  0  0  0  0  0  0  0  0
    5.3215    2.6076  -11.6385 H   0  0  0  0  0  0  0  0  0  0  0  0
    7.0601    3.8521  -12.8442 H   0  0  0  0  0  0  0  0  0  0  0  0
    9.2035    4.3147  -11.8134 H   0  0  0  0  0  0  0  0  0  0  0  0
   10.0845    3.1828   -8.3464 H   0  0  0  0  0  0  0  0  0  0  0  0
   11.8710    4.3468   -7.8797 H   0  0  0  0  0  0  0  0  0  0  0  0
   13.4379    5.0613  -10.3141 H   0  0  0  0  0  0  0  0  0  0  0  0
   14.0679    4.8883   -8.6789 H   0  0  0  0  0  0  0  0  0  0  0  0
    8.0440    2.0644   -8.3343 H   0  0  0  0  0  0  0  0  0  0  0  0
    4.3460    0.4577  -10.7877 H   0  0  0  0  0  0  0  0  0  0  0  0
    2.8412   -0.3260   -6.2029 H   0  0  0  0  0  0  0  0  0  0  0  0
    4.4989    1.5954   -0.8530 H   0  0  0  0  0  0  0  0  0  0  0  0
  1  2  1  0  0  0  0
  1 34  1  0  0  0  0
  1 35  1  0  0  0  0
  1 36  1  0  0  0  0
  2  3  1  0  0  0  0
  2  4  1  0  0  0  0
  2 37  1  0  0  0  0
  3 38  1  0  0  0  0
  4  5  1  0  0  0  0
  4 33  2  0  0  0  0
  5  6  2  0  0  0  0
  5 39  1  0  0  0  0
  6  7  1  0  0  0  0
  7  8  1  0  0  0  0
  7 32  2  0  0  0  0
  8  9  1  0  0  0  0
  8 31  2  0  0  0  0
  9 10  2  0  0  0  0
  9 40  1  0  0  0  0
 10 11  1  0  0  0  0
 10 41  1  0  0  0  0
 11 12  1  0  0  0  0
 11 30  1  0  0  0  0
 12 13  1  0  0  0  0
 12 28  2  0  0  0  0
 13 14  1  0  0  0  0
 13 27  2  0  0  0  0
 14 15  2  0  0  0  0
 14 42  1  0  0  0  0
 15 16  1  0  0  0  0
 15 43  1  0  0  0  0
 16 17  2  0  0  0  0
 16 44  1  0  0  0  0
 17 18  1  0  0  0  0
 17 27  1  0  0  0  0
 18 19  1  0  0  0  0
 18 45  1  0  0  0  0
 19 20  2  0  0  0  0
 19 21  1  0  0  0  0
 21 22  1  0  0  0  0
 21 46  1  0  0  0  0
 22 23  1  0  0  0  0
 22 47  1  0  0  0  0
 22 48  1  0  0  0  0
 23 24  1  0  0  0  0
 23 25  1  0  0  0  0
 23 26  1  0  0  0  0
 27 49  1  0  0  0  0
 28 29  1  0  0  0  0
 28 50  1  0  0  0  0
 29 30  2  0  0  0  0
 30 31  1  0  0  0  0
 31 51  1  0  0  0  0
 32 33  1  0  0  0  0
 33 52  1  0  0  0  0
M  END
$$$$
