CHEMBL3671512
 OpenBabel04072215373D

 53 55  0  0  0  0  0  0  0  0999 V2000
   12.5677    3.6288    3.5087 C   0  0  0  0  0  0  0  0  0  0  0  0
   12.1554    2.5013    2.9226 C   0  0  0  0  0  0  0  0  0  0  0  0
   10.8729    2.0223    3.0355 N   0  0  0  0  0  0  0  0  0  0  0  0
   10.4638    0.8546    2.4271 C   0  0  0  0  0  0  0  0  0  0  0  0
   11.1890    0.1511    1.7333 O   0  0  0  0  0  0  0  0  0  0  0  0
    9.1555    0.5275    2.7192 N   0  0  0  0  0  0  0  0  0  0  0  0
    8.5564   -0.6935    2.1700 C   0  0  0  0  0  0  0  0  0  0  0  0
    9.2496   -1.9649    2.6716 C   0  0  0  0  0  0  0  0  0  0  0  0
    8.6985   -3.1897    2.1391 O   0  0  0  0  0  0  0  0  0  0  0  0
    9.2922   -4.3335    2.6610 C   0  0  0  0  0  0  0  0  0  0  0  0
   10.3817   -4.2772    3.5546 C   0  0  0  0  0  0  0  0  0  0  0  0
   10.9484   -5.3974    4.1315 C   0  0  0  0  0  0  0  0  0  0  0  0
   11.9706   -5.2198    4.9708 N   0  0  0  0  0  0  0  0  0  0  0  0
   12.5175   -6.3226    5.4803 C   0  0  0  0  0  0  0  0  0  0  0  0
   12.1439   -7.5720    5.2104 N   0  0  0  0  0  0  0  0  0  0  0  0
   11.1112   -7.7379    4.3588 C   0  0  0  0  0  0  0  0  0  0  0  0
   10.7553   -9.0590    3.9841 N   0  0  0  0  0  0  0  0  0  0  0  0
   11.5902  -10.1755    4.2047 C   0  0  0  0  0  0  0  0  0  0  0  0
   12.9584  -10.1097    3.9003 C   0  0  0  0  0  0  0  0  0  0  0  0
   13.8193  -11.1551    4.2389 C   0  0  0  0  0  0  0  0  0  0  0  0
   13.3051  -12.2829    4.8667 C   0  0  0  0  0  0  0  0  0  0  0  0
   14.4863  -13.6552    5.4088 Br  0  0  0  0  0  0  0  0  0  0  0  0
   11.9413  -12.4009    5.1218 C   0  0  0  0  0  0  0  0  0  0  0  0
   11.0950  -11.3468    4.7854 C   0  0  0  0  0  0  0  0  0  0  0  0
    9.7843  -11.4480    5.0571 F   0  0  0  0  0  0  0  0  0  0  0  0
   10.4404   -6.6468    3.7920 C   0  0  0  0  0  0  0  0  0  0  0  0
    9.3587   -6.7333    2.8874 C   0  0  0  0  0  0  0  0  0  0  0  0
    8.7737   -5.5950    2.3138 C   0  0  0  0  0  0  0  0  0  0  0  0
    7.7398   -5.7287    1.3471 N   0  0  0  0  0  0  0  0  0  0  0  0
    7.0106   -6.8869    1.1272 C   0  0  0  0  0  0  0  0  0  0  0  0
    6.9603   -7.8589    1.8754 O   0  0  0  0  0  0  0  0  0  0  0  0
    6.2331   -6.8879   -0.1432 C   0  0  0  0  0  0  0  0  0  0  0  0
    5.5367   -7.9817   -0.4897 C   0  0  0  0  0  0  0  0  0  0  0  0
   13.5974    3.9543    3.3848 H   0  0  0  0  0  0  0  0  0  0  0  0
   11.9177    4.2532    4.1077 H   0  0  0  0  0  0  0  0  0  0  0  0
   12.8433    1.9048    2.3238 H   0  0  0  0  0  0  0  0  0  0  0  0
   10.2255    2.5093    3.6375 H   0  0  0  0  0  0  0  0  0  0  0  0
    8.5371    1.3107    2.8702 H   0  0  0  0  0  0  0  0  0  0  0  0
    8.5879   -0.6390    1.0771 H   0  0  0  0  0  0  0  0  0  0  0  0
    7.5034   -0.7045    2.4719 H   0  0  0  0  0  0  0  0  0  0  0  0
    9.1577   -1.9687    3.7669 H   0  0  0  0  0  0  0  0  0  0  0  0
   10.3058   -1.9198    2.3906 H   0  0  0  0  0  0  0  0  0  0  0  0
   10.8528   -3.3393    3.8348 H   0  0  0  0  0  0  0  0  0  0  0  0
   13.3440   -6.1916    6.1684 H   0  0  0  0  0  0  0  0  0  0  0  0
    9.7763   -9.2503    4.1867 H   0  0  0  0  0  0  0  0  0  0  0  0
   13.3643   -9.2167    3.4290 H   0  0  0  0  0  0  0  0  0  0  0  0
   14.8793  -11.0505    4.0310 H   0  0  0  0  0  0  0  0  0  0  0  0
   11.5272  -13.2781    5.6025 H   0  0  0  0  0  0  0  0  0  0  0  0
    9.0192   -7.7260    2.6113 H   0  0  0  0  0  0  0  0  0  0  0  0
    7.5476   -4.8993    0.7983 H   0  0  0  0  0  0  0  0  0  0  0  0
    6.2754   -6.0246   -0.7919 H   0  0  0  0  0  0  0  0  0  0  0  0
    5.5113   -8.8647    0.1476 H   0  0  0  0  0  0  0  0  0  0  0  0
    4.9819   -8.0355   -1.4198 H   0  0  0  0  0  0  0  0  0  0  0  0
  1  2  2  0  0  0  0
  1 34  1  0  0  0  0
  1 35  1  0  0  0  0
  2  3  1  0  0  0  0
  2 36  1  0  0  0  0
  3  4  1  0  0  0  0
  3 37  1  0  0  0  0
  4  5  2  0  0  0  0
  4  6  1  0  0  0  0
  6  7  1  0  0  0  0
  6 38  1  0  0  0  0
  7  8  1  0  0  0  0
  7 39  1  0  0  0  0
  7 40  1  0  0  0  0
  8  9  1  0  0  0  0
  8 41  1  0  0  0  0
  8 42  1  0  0  0  0
  9 10  1  0  0  0  0
 10 11  1  0  0  0  0
 10 28  2  0  0  0  0
 11 12  2  0  0  0  0
 11 43  1  0  0  0  0
 12 13  1  0  0  0  0
 12 26  1  0  0  0  0
 13 14  2  0  0  0  0
 14 15  1  0  0  0  0
 14 44  1  0  0  0  0
 15 16  2  0  0  0  0
 16 17  1  0  0  0  0
 16 26  1  0  0  0  0
 17 18  1  0  0  0  0
 17 45  1  0  0  0  0
 18 19  1  0  0  0  0
 18 24  2  0  0  0  0
 19 20  2  0  0  0  0
 19 46  1  0  0  0  0
 20 21  1  0  0  0  0
 20 47  1  0  0  0  0
 21 22  1  0  0  0  0
 21 23  2  0  0  0  0
 23 24  1  0  0  0  0
 23 48  1  0  0  0  0
 24 25  1  0  0  0  0
 26 27  2  0  0  0  0
 27 28  1  0  0  0  0
 27 49  1  0  0  0  0
 28 29  1  0  0  0  0
 29 30  1  0  0  0  0
 29 50  1  0  0  0  0
 30 31  2  0  0  0  0
 30 32  1  0  0  0  0
 32 33  2  0  0  0  0
 32 51  1  0  0  0  0
 33 52  1  0  0  0  0
 33 53  1  0  0  0  0
M  END
$$$$
