CHEMBL3696085
 OpenBabel04072215373D

 40 41  0  0  0  0  0  0  0  0999 V2000
    1.6201   -0.1633    1.1519 N   0  0  0  0  0  0  0  0  0  0  0  0
    2.0760   -0.1579   -0.1403 C   0  0  0  0  0  0  0  0  0  0  0  0
    1.7573   -1.0615   -0.9026 O   0  0  0  0  0  0  0  0  0  0  0  0
    2.9776    0.9268   -0.4791 C   0  0  0  0  0  0  0  0  0  0  0  0
    4.2142    0.8059   -1.2507 C   0  0  0  0  0  0  0  0  0  0  0  0
    4.8019   -0.4117   -1.8335 C   0  0  0  0  0  0  0  0  0  0  0  0
    5.4965   -0.3425   -3.0509 C   0  0  0  0  0  0  0  0  0  0  0  0
    5.9988   -1.4984   -3.6606 C   0  0  0  0  0  0  0  0  0  0  0  0
    5.7688   -2.7504   -3.0945 C   0  0  0  0  0  0  0  0  0  0  0  0
    6.3044   -3.9047   -3.6779 N   0  0  0  0  0  0  0  0  0  0  0  0
    5.1876   -2.8100   -1.8273 C   0  0  0  0  0  0  0  0  0  0  0  0
    4.7071   -1.6545   -1.2026 C   0  0  0  0  0  0  0  0  0  0  0  0
    4.8714    1.9555   -1.4351 N   0  0  0  0  0  0  0  0  0  0  0  0
    4.0440    3.1912   -0.7510 S   0  0  0  0  0  0  0  0  0  0  0  0
    2.7320    2.2652   -0.1815 C   0  0  0  0  0  0  0  0  0  0  0  0
    1.6650    2.8568    0.4895 N   0  0  0  0  0  0  0  0  0  0  0  0
    1.3540    4.1954    0.3603 C   0  0  0  0  0  0  0  0  0  0  0  0
    1.8670    4.9851   -0.4251 O   0  0  0  0  0  0  0  0  0  0  0  0
    0.3837    4.6141    1.2496 N   0  0  0  0  0  0  0  0  0  0  0  0
    0.0086    6.0198    1.3051 C   0  0  0  0  0  0  0  0  0  0  0  0
    0.4172    6.7032    2.6063 C   0  0  0  0  0  0  0  0  0  0  0  0
    1.9112    6.6291    2.8944 C   0  0  0  0  0  0  0  0  0  0  0  0
    2.1934    7.3377    4.0976 O   0  0  0  0  0  0  0  0  0  0  0  0
    1.1875   -1.0385    1.4307 H   0  0  0  0  0  0  0  0  0  0  0  0
    2.1325    0.3376    1.8659 H   0  0  0  0  0  0  0  0  0  0  0  0
    5.6575    0.6177   -3.5399 H   0  0  0  0  0  0  0  0  0  0  0  0
    6.5493   -1.4061   -4.5931 H   0  0  0  0  0  0  0  0  0  0  0  0
    6.4048   -3.8291   -4.6858 H   0  0  0  0  0  0  0  0  0  0  0  0
    5.8018   -4.7472   -3.4140 H   0  0  0  0  0  0  0  0  0  0  0  0
    5.0809   -3.7642   -1.3190 H   0  0  0  0  0  0  0  0  0  0  0  0
    4.2559   -1.7552   -0.2215 H   0  0  0  0  0  0  0  0  0  0  0  0
    0.9437    2.2450    0.8454 H   0  0  0  0  0  0  0  0  0  0  0  0
   -0.0726    3.9597    1.8613 H   0  0  0  0  0  0  0  0  0  0  0  0
   -1.0782    6.0625    1.1894 H   0  0  0  0  0  0  0  0  0  0  0  0
    0.4428    6.5699    0.4628 H   0  0  0  0  0  0  0  0  0  0  0  0
   -0.1347    6.2706    3.4494 H   0  0  0  0  0  0  0  0  0  0  0  0
    0.1140    7.7576    2.5633 H   0  0  0  0  0  0  0  0  0  0  0  0
    2.5076    7.0616    2.0848 H   0  0  0  0  0  0  0  0  0  0  0  0
    2.2314    5.5939    3.0443 H   0  0  0  0  0  0  0  0  0  0  0  0
    2.0756    8.2853    3.9116 H   0  0  0  0  0  0  0  0  0  0  0  0
  1  2  1  0  0  0  0
  1 24  1  0  0  0  0
  1 25  1  0  0  0  0
  2  3  2  0  0  0  0
  2  4  1  0  0  0  0
  4  5  1  0  0  0  0
  4 15  2  0  0  0  0
  5  6  1  0  0  0  0
  5 13  2  0  0  0  0
  6  7  1  0  0  0  0
  6 12  2  0  0  0  0
  7  8  2  0  0  0  0
  7 26  1  0  0  0  0
  8  9  1  0  0  0  0
  8 27  1  0  0  0  0
  9 10  1  0  0  0  0
  9 11  2  0  0  0  0
 10 28  1  0  0  0  0
 10 29  1  0  0  0  0
 11 12  1  0  0  0  0
 11 30  1  0  0  0  0
 12 31  1  0  0  0  0
 13 14  1  0  0  0  0
 14 15  1  0  0  0  0
 15 16  1  0  0  0  0
 16 17  1  0  0  0  0
 16 32  1  0  0  0  0
 17 18  2  0  0  0  0
 17 19  1  0  0  0  0
 19 20  1  0  0  0  0
 19 33  1  0  0  0  0
 20 21  1  0  0  0  0
 20 34  1  0  0  0  0
 20 35  1  0  0  0  0
 21 22  1  0  0  0  0
 21 36  1  0  0  0  0
 21 37  1  0  0  0  0
 22 23  1  0  0  0  0
 22 38  1  0  0  0  0
 22 39  1  0  0  0  0
 23 40  1  0  0  0  0
M  END
$$$$
