CHEMBL3946469
 OpenBabel04072215373D

 56 59  0  0  1  0  0  0  0  0999 V2000
    3.7163   -6.9518   -4.7958 C   0  0  0  0  0  0  0  0  0  0  0  0
    4.3666   -5.7802   -4.8304 C   0  0  0  0  0  0  0  0  0  0  0  0
    4.2072   -4.6988   -3.8032 C   0  0  0  0  0  0  0  0  0  0  0  0
    5.4895   -4.2415   -3.2696 N   0  0  0  0  0  0  0  0  0  0  0  0
    6.1643   -5.2285   -2.4072 C   0  0  0  0  0  0  0  0  0  0  0  0
    5.5710   -5.3468   -0.9956 C   0  0  0  0  0  0  0  0  0  0  0  0
    5.4503   -4.0813   -0.3271 O   0  0  0  0  0  0  0  0  0  0  0  0
    4.7932   -3.0452   -1.1005 C   0  0  3  0  0  0  0  0  0  0  0  0
    3.2642   -3.1576   -0.9803 C   0  0  0  0  0  0  0  0  0  0  0  0
    2.4730   -2.1670   -1.6931 O   0  0  0  0  0  0  0  0  0  0  0  0
    1.0975   -2.3119   -1.5272 C   0  0  0  0  0  0  0  0  0  0  0  0
    0.5718   -3.3978   -0.7816 C   0  0  0  0  0  0  0  0  0  0  0  0
   -0.7777   -3.6254   -0.5638 C   0  0  0  0  0  0  0  0  0  0  0  0
   -1.1348   -4.6741    0.1815 N   0  0  0  0  0  0  0  0  0  0  0  0
   -2.4425   -4.8536    0.3721 C   0  0  0  0  0  0  0  0  0  0  0  0
   -3.4152   -4.0918   -0.1317 N   0  0  0  0  0  0  0  0  0  0  0  0
   -3.0414   -3.0534   -0.8993 C   0  0  0  0  0  0  0  0  0  0  0  0
   -4.0464   -2.2410   -1.4896 N   0  0  0  0  0  0  0  0  0  0  0  0
   -5.3976   -2.2964   -1.1245 C   0  0  0  0  0  0  0  0  0  0  0  0
   -5.7657   -2.2372    0.2289 C   0  0  0  0  0  0  0  0  0  0  0  0
   -7.0904   -2.4111    0.6133 C   0  0  0  0  0  0  0  0  0  0  0  0
   -8.0733   -2.6466   -0.3510 C   0  0  0  0  0  0  0  0  0  0  0  0
   -9.6848   -2.9346    0.1989 Cl  0  0  0  0  0  0  0  0  0  0  0  0
   -7.7246   -2.6612   -1.7066 C   0  0  0  0  0  0  0  0  0  0  0  0
   -8.8877   -2.9311   -2.9572 Cl  0  0  0  0  0  0  0  0  0  0  0  0
   -6.3912   -2.4779   -2.0915 C   0  0  0  0  0  0  0  0  0  0  0  0
   -1.6930   -2.7482   -1.1284 C   0  0  0  0  0  0  0  0  0  0  0  0
   -1.2057   -1.6349   -1.8450 C   0  0  0  0  0  0  0  0  0  0  0  0
    0.1688   -1.4016   -2.0564 C   0  0  0  0  0  0  0  0  0  0  0  0
    0.2939   -0.2331   -2.7416 O   0  0  0  0  0  0  0  0  0  0  0  0
    1.4662    0.1531   -3.4179 C   0  0  0  0  0  0  0  0  0  0  0  0
    5.3729   -2.9700   -2.5248 C   0  0  0  0  0  0  0  0  0  0  0  0
    3.8628   -7.6910   -5.5770 H   0  0  0  0  0  0  0  0  0  0  0  0
    3.0232   -7.1986   -3.9971 H   0  0  0  0  0  0  0  0  0  0  0  0
    5.0435   -5.5701   -5.6548 H   0  0  0  0  0  0  0  0  0  0  0  0
    3.5293   -5.0421   -3.0191 H   0  0  0  0  0  0  0  0  0  0  0  0
    3.7103   -3.8613   -4.3094 H   0  0  0  0  0  0  0  0  0  0  0  0
    7.2115   -4.9113   -2.3118 H   0  0  0  0  0  0  0  0  0  0  0  0
    6.2065   -6.2166   -2.8824 H   0  0  0  0  0  0  0  0  0  0  0  0
    6.2476   -5.9612   -0.3882 H   0  0  0  0  0  0  0  0  0  0  0  0
    4.6040   -5.8603   -1.0051 H   0  0  0  0  0  0  0  0  0  0  0  0
    5.0650   -2.1080   -0.6007 H   0  0  0  0  0  0  0  0  0  0  0  0
    3.0394   -3.0735    0.0928 H   0  0  0  0  0  0  0  0  0  0  0  0
    2.9736   -4.1616   -1.2983 H   0  0  0  0  0  0  0  0  0  0  0  0
    1.2094   -4.1372   -0.3070 H   0  0  0  0  0  0  0  0  0  0  0  0
   -2.7440   -5.6944    0.9860 H   0  0  0  0  0  0  0  0  0  0  0  0
   -3.8977   -2.2107   -2.4900 H   0  0  0  0  0  0  0  0  0  0  0  0
   -5.0060   -2.0741    0.9887 H   0  0  0  0  0  0  0  0  0  0  0  0
   -7.3435   -2.3930    1.6702 H   0  0  0  0  0  0  0  0  0  0  0  0
   -6.1288   -2.5198   -3.1451 H   0  0  0  0  0  0  0  0  0  0  0  0
   -1.9150   -0.9043   -2.2387 H   0  0  0  0  0  0  0  0  0  0  0  0
    1.1473    0.8709   -4.1869 H   0  0  0  0  0  0  0  0  0  0  0  0
    1.9600   -0.6740   -3.9292 H   0  0  0  0  0  0  0  0  0  0  0  0
    2.1323    0.6881   -2.7387 H   0  0  0  0  0  0  0  0  0  0  0  0
    6.4012   -2.5954   -2.4192 H   0  0  0  0  0  0  0  0  0  0  0  0
    4.8484   -2.2131   -3.1166 H   0  0  0  0  0  0  0  0  0  0  0  0
  1  2  2  0  0  0  0
  1 33  1  0  0  0  0
  1 34  1  0  0  0  0
  2  3  1  0  0  0  0
  2 35  1  0  0  0  0
  3  4  1  0  0  0  0
  3 36  1  0  0  0  0
  3 37  1  0  0  0  0
  4  5  1  0  0  0  0
  4 32  1  0  0  0  0
  5  6  1  0  0  0  0
  5 38  1  0  0  0  0
  5 39  1  0  0  0  0
  6  7  1  0  0  0  0
  6 40  1  0  0  0  0
  6 41  1  0  0  0  0
  7  8  1  0  0  0  0
  8  9  1  0  0  0  0
  8 32  1  0  0  0  0
  8 42  1  0  0  0  0
  9 10  1  0  0  0  0
  9 43  1  0  0  0  0
  9 44  1  0  0  0  0
 10 11  1  0  0  0  0
 11 12  1  0  0  0  0
 11 29  2  0  0  0  0
 12 13  2  0  0  0  0
 12 45  1  0  0  0  0
 13 14  1  0  0  0  0
 13 27  1  0  0  0  0
 14 15  2  0  0  0  0
 15 16  1  0  0  0  0
 15 46  1  0  0  0  0
 16 17  2  0  0  0  0
 17 18  1  0  0  0  0
 17 27  1  0  0  0  0
 18 19  1  0  0  0  0
 18 47  1  0  0  0  0
 19 20  1  0  0  0  0
 19 26  2  0  0  0  0
 20 21  2  0  0  0  0
 20 48  1  0  0  0  0
 21 22  1  0  0  0  0
 21 49  1  0  0  0  0
 22 23  1  0  0  0  0
 22 24  2  0  0  0  0
 24 25  1  0  0  0  0
 24 26  1  0  0  0  0
 26 50  1  0  0  0  0
 27 28  2  0  0  0  0
 28 29  1  0  0  0  0
 28 51  1  0  0  0  0
 29 30  1  0  0  0  0
 30 31  1  0  0  0  0
 31 52  1  0  0  0  0
 31 53  1  0  0  0  0
 31 54  1  0  0  0  0
 32 55  1  0  0  0  0
 32 56  1  0  0  0  0
M  END
$$$$
