CHEMBL1807475
 OpenBabel04072215363D

 65 69  0  0  0  0  0  0  0  0999 V2000
    1.9416   -0.9396   -1.3115 C   0  0  0  0  0  0  0  0  0  0  0  0
    0.8639   -0.1046   -0.7848 N   0  0  0  0  0  0  0  0  0  0  0  0
   -0.3618   -0.2576   -1.6020 C   0  0  0  0  0  0  0  0  0  0  0  0
   -1.5580    0.5623   -1.0533 C   0  0  0  0  0  0  0  0  0  0  0  0
   -1.7965    0.1938    0.3541 N   0  0  0  0  0  0  0  0  0  0  0  0
   -3.0541    0.1498    0.9166 C   0  0  0  0  0  0  0  0  0  0  0  0
   -3.3017   -0.6430    2.0492 C   0  0  0  0  0  0  0  0  0  0  0  0
   -4.5740   -0.7616    2.6194 C   0  0  0  0  0  0  0  0  0  0  0  0
   -5.6459   -0.0669    2.0731 C   0  0  0  0  0  0  0  0  0  0  0  0
   -5.4245    0.7371    0.9543 C   0  0  0  0  0  0  0  0  0  0  0  0
   -6.5180    1.5113    0.3367 C   0  0  0  0  0  0  0  0  0  0  0  0
   -6.5718    1.7009   -0.8668 O   0  0  0  0  0  0  0  0  0  0  0  0
   -7.4608    2.1142    1.2436 N   0  0  0  0  0  0  0  0  0  0  0  0
   -8.5104    2.9119    0.8062 C   0  0  0  0  0  0  0  0  0  0  0  0
   -9.0068    3.0575   -0.4652 C   0  0  0  0  0  0  0  0  0  0  0  0
  -10.0455    4.0224   -0.3766 C   0  0  0  0  0  0  0  0  0  0  0  0
  -10.8673    4.5378   -1.4716 C   0  0  0  0  0  0  0  0  0  0  0  0
  -10.4039    4.4866   -2.7967 C   0  0  0  0  0  0  0  0  0  0  0  0
  -11.2061    4.9329   -3.8478 C   0  0  0  0  0  0  0  0  0  0  0  0
  -12.4800    5.4307   -3.5830 C   0  0  0  0  0  0  0  0  0  0  0  0
  -12.9364    5.5129   -2.2684 C   0  0  0  0  0  0  0  0  0  0  0  0
  -14.2429    6.0119   -2.0193 N   0  0  0  0  0  0  0  0  0  0  0  0
  -15.5595    4.9616   -2.1711 S   0  0  0  0  0  0  0  0  0  0  0  0
  -16.7379    5.7472   -1.8665 O   0  0  0  0  0  0  0  0  0  0  0  0
  -15.4496    4.2214   -3.4095 O   0  0  0  0  0  0  0  0  0  0  0  0
  -15.3346    3.8191   -0.8223 C   0  0  0  0  0  0  0  0  0  0  0  0
  -15.8925    4.1162    0.4282 C   0  0  0  0  0  0  0  0  0  0  0  0
  -15.7736    3.2002    1.4705 C   0  0  0  0  0  0  0  0  0  0  0  0
  -15.1111    1.9895    1.2655 C   0  0  0  0  0  0  0  0  0  0  0  0
  -14.5672    1.6896    0.0148 C   0  0  0  0  0  0  0  0  0  0  0  0
  -14.6827    2.6002   -1.0363 C   0  0  0  0  0  0  0  0  0  0  0  0
  -12.1372    5.0719   -1.2145 C   0  0  0  0  0  0  0  0  0  0  0  0
  -10.2105    4.4169    0.8964 N   0  0  0  0  0  0  0  0  0  0  0  0
   -9.2789    3.7369    1.5822 N   0  0  0  0  0  0  0  0  0  0  0  0
   -4.1486    0.8283    0.3741 C   0  0  0  0  0  0  0  0  0  0  0  0
   -0.5999    0.3579    1.2031 C   0  0  0  0  0  0  0  0  0  0  0  0
    0.5662   -0.4697    0.6185 C   0  0  0  0  0  0  0  0  0  0  0  0
    2.1849   -0.6472   -2.3385 H   0  0  0  0  0  0  0  0  0  0  0  0
    1.6835   -2.0050   -1.3071 H   0  0  0  0  0  0  0  0  0  0  0  0
    2.8531   -0.8039   -0.7194 H   0  0  0  0  0  0  0  0  0  0  0  0
   -0.6569   -1.3155   -1.6412 H   0  0  0  0  0  0  0  0  0  0  0  0
   -0.1627    0.0655   -2.6307 H   0  0  0  0  0  0  0  0  0  0  0  0
   -2.4270    0.3395   -1.6824 H   0  0  0  0  0  0  0  0  0  0  0  0
   -1.3486    1.6364   -1.1302 H   0  0  0  0  0  0  0  0  0  0  0  0
   -2.4978   -1.2394    2.4765 H   0  0  0  0  0  0  0  0  0  0  0  0
   -4.7164   -1.4210    3.4729 H   0  0  0  0  0  0  0  0  0  0  0  0
   -6.6346   -0.2002    2.5015 H   0  0  0  0  0  0  0  0  0  0  0  0
   -7.2957    2.0383    2.2386 H   0  0  0  0  0  0  0  0  0  0  0  0
   -8.6856    2.5467   -1.3611 H   0  0  0  0  0  0  0  0  0  0  0  0
   -9.4125    4.1072   -3.0328 H   0  0  0  0  0  0  0  0  0  0  0  0
  -10.8403    4.8912   -4.8709 H   0  0  0  0  0  0  0  0  0  0  0  0
  -13.1081    5.7677   -4.4046 H   0  0  0  0  0  0  0  0  0  0  0  0
  -14.3551    6.6582   -1.2397 H   0  0  0  0  0  0  0  0  0  0  0  0
  -16.4384    5.0444    0.5878 H   0  0  0  0  0  0  0  0  0  0  0  0
  -16.2176    3.4182    2.4403 H   0  0  0  0  0  0  0  0  0  0  0  0
  -15.0369    1.2685    2.0758 H   0  0  0  0  0  0  0  0  0  0  0  0
  -14.0670    0.7353   -0.1481 H   0  0  0  0  0  0  0  0  0  0  0  0
  -14.2752    2.3543   -2.0143 H   0  0  0  0  0  0  0  0  0  0  0  0
  -12.5053    5.1215   -0.1927 H   0  0  0  0  0  0  0  0  0  0  0  0
   -9.2079    3.9126    2.5775 H   0  0  0  0  0  0  0  0  0  0  0  0
   -4.0152    1.4623   -0.5007 H   0  0  0  0  0  0  0  0  0  0  0  0
   -0.7638    0.0476    2.2398 H   0  0  0  0  0  0  0  0  0  0  0  0
   -0.3234    1.4203    1.2349 H   0  0  0  0  0  0  0  0  0  0  0  0
    0.3086   -1.5360    0.6878 H   0  0  0  0  0  0  0  0  0  0  0  0
    1.4538   -0.3032    1.2393 H   0  0  0  0  0  0  0  0  0  0  0  0
  1  2  1  0  0  0  0
  1 38  1  0  0  0  0
  1 39  1  0  0  0  0
  1 40  1  0  0  0  0
  2  3  1  0  0  0  0
  2 37  1  0  0  0  0
  3  4  1  0  0  0  0
  3 41  1  0  0  0  0
  3 42  1  0  0  0  0
  4  5  1  0  0  0  0
  4 43  1  0  0  0  0
  4 44  1  0  0  0  0
  5  6  1  0  0  0  0
  5 36  1  0  0  0  0
  6  7  1  0  0  0  0
  6 35  2  0  0  0  0
  7  8  2  0  0  0  0
  7 45  1  0  0  0  0
  8  9  1  0  0  0  0
  8 46  1  0  0  0  0
  9 10  2  0  0  0  0
  9 47  1  0  0  0  0
 10 11  1  0  0  0  0
 10 35  1  0  0  0  0
 11 12  2  0  0  0  0
 11 13  1  0  0  0  0
 13 14  1  0  0  0  0
 13 48  1  0  0  0  0
 14 15  2  0  0  0  0
 14 34  1  0  0  0  0
 15 16  1  0  0  0  0
 15 49  1  0  0  0  0
 16 17  1  0  0  0  0
 16 33  2  0  0  0  0
 17 18  1  0  0  0  0
 17 32  2  0  0  0  0
 18 19  2  0  0  0  0
 18 50  1  0  0  0  0
 19 20  1  0  0  0  0
 19 51  1  0  0  0  0
 20 21  2  0  0  0  0
 20 52  1  0  0  0  0
 21 22  1  0  0  0  0
 21 32  1  0  0  0  0
 22 23  1  0  0  0  0
 22 53  1  0  0  0  0
 23 24  2  0  0  0  0
 23 25  2  0  0  0  0
 23 26  1  0  0  0  0
 26 27  1  0  0  0  0
 26 31  2  0  0  0  0
 27 28  2  0  0  0  0
 27 54  1  0  0  0  0
 28 29  1  0  0  0  0
 28 55  1  0  0  0  0
 29 30  2  0  0  0  0
 29 56  1  0  0  0  0
 30 31  1  0  0  0  0
 30 57  1  0  0  0  0
 31 58  1  0  0  0  0
 32 59  1  0  0  0  0
 33 34  1  0  0  0  0
 34 60  1  0  0  0  0
 35 61  1  0  0  0  0
 36 37  1  0  0  0  0
 36 62  1  0  0  0  0
 36 63  1  0  0  0  0
 37 64  1  0  0  0  0
 37 65  1  0  0  0  0
M  END
$$$$
