CHEMBL69068
 OpenBabel04072215383D

 51 54  0  0  0  0  0  0  0  0999 V2000
    3.6329   -0.1147   -0.9029 C   0  0  0  0  0  0  0  0  0  0  0  0
    2.4952   -0.0204    0.1277 C   0  0  0  0  0  0  0  0  0  0  0  0
    1.2065    0.4453   -0.5992 C   0  0  0  0  0  0  0  0  0  0  0  0
    2.1810   -1.4325    0.6683 C   0  0  0  0  0  0  0  0  0  0  0  0
    2.8905    0.9413    1.1843 N   0  0  0  0  0  0  0  0  0  0  0  0
    2.7360    2.3075    1.0886 C   0  0  0  0  0  0  0  0  0  0  0  0
    3.1704    2.9065    2.2575 C   0  0  0  0  0  0  0  0  0  0  0  0
    3.0681    4.3468    2.4666 C   0  0  0  0  0  0  0  0  0  0  0  0
    1.9851    5.0660    1.9427 C   0  0  0  0  0  0  0  0  0  0  0  0
    1.8391    6.4293    2.2052 C   0  0  0  0  0  0  0  0  0  0  0  0
    2.7204    7.0704    3.0762 C   0  0  0  0  0  0  0  0  0  0  0  0
    2.5948    8.3742    3.4968 O   0  0  0  0  0  0  0  0  0  0  0  0
    1.3427    8.9346    3.6099 C   0  0  0  0  0  0  0  0  0  0  0  0
    0.1952    8.2397    3.9973 C   0  0  0  0  0  0  0  0  0  0  0  0
   -1.0453    8.8810    3.9909 C   0  0  0  0  0  0  0  0  0  0  0  0
   -1.1403   10.2464    3.7121 C   0  0  0  0  0  0  0  0  0  0  0  0
   -2.3953   10.8446    3.5573 N   0  0  0  0  0  0  0  0  0  0  0  0
    0.0198   10.9423    3.3620 C   0  0  0  0  0  0  0  0  0  0  0  0
    1.2587   10.2969    3.3298 C   0  0  0  0  0  0  0  0  0  0  0  0
    3.8410    6.3857    3.5403 C   0  0  0  0  0  0  0  0  0  0  0  0
    4.0300    5.0417    3.2069 C   0  0  0  0  0  0  0  0  0  0  0  0
    3.6706    1.8563    3.0965 C   0  0  0  0  0  0  0  0  0  0  0  0
    4.2330    1.7387    4.3840 C   0  0  0  0  0  0  0  0  0  0  0  0
    4.3954    2.7823    5.2874 N   0  0  0  0  0  0  0  0  0  0  0  0
    4.6318    0.5301    4.8193 N   0  0  0  0  0  0  0  0  0  0  0  0
    4.4716   -0.5237    4.0124 C   0  0  0  0  0  0  0  0  0  0  0  0
    3.9243   -0.5486    2.7928 N   0  0  0  0  0  0  0  0  0  0  0  0
    3.5264    0.6678    2.3795 C   0  0  0  0  0  0  0  0  0  0  0  0
    3.3715   -0.7992   -1.7178 H   0  0  0  0  0  0  0  0  0  0  0  0
    4.5583   -0.4781   -0.4422 H   0  0  0  0  0  0  0  0  0  0  0  0
    3.8504    0.8630   -1.3487 H   0  0  0  0  0  0  0  0  0  0  0  0
    0.8769   -0.2998   -1.3338 H   0  0  0  0  0  0  0  0  0  0  0  0
    1.3525    1.3778   -1.1543 H   0  0  0  0  0  0  0  0  0  0  0  0
    0.3851    0.5996    0.1102 H   0  0  0  0  0  0  0  0  0  0  0  0
    1.7709   -2.0740   -0.1210 H   0  0  0  0  0  0  0  0  0  0  0  0
    1.4444   -1.3933    1.4792 H   0  0  0  0  0  0  0  0  0  0  0  0
    3.0741   -1.9466    1.0350 H   0  0  0  0  0  0  0  0  0  0  0  0
    2.3195    2.7564    0.1963 H   0  0  0  0  0  0  0  0  0  0  0  0
    1.2260    4.5752    1.3381 H   0  0  0  0  0  0  0  0  0  0  0  0
    1.0055    6.9616    1.7552 H   0  0  0  0  0  0  0  0  0  0  0  0
    0.2384    7.1872    4.2620 H   0  0  0  0  0  0  0  0  0  0  0  0
   -1.9390    8.2997    4.2007 H   0  0  0  0  0  0  0  0  0  0  0  0
   -3.1350   10.3954    4.0863 H   0  0  0  0  0  0  0  0  0  0  0  0
   -2.3862   11.8517    3.6800 H   0  0  0  0  0  0  0  0  0  0  0  0
   -0.0319   11.9942    3.0950 H   0  0  0  0  0  0  0  0  0  0  0  0
    2.1524   10.8516    3.0570 H   0  0  0  0  0  0  0  0  0  0  0  0
    4.5662    6.8910    4.1730 H   0  0  0  0  0  0  0  0  0  0  0  0
    4.9318    4.5438    3.5555 H   0  0  0  0  0  0  0  0  0  0  0  0
    3.6605    3.4766    5.2414 H   0  0  0  0  0  0  0  0  0  0  0  0
    4.5890    2.4119    6.2106 H   0  0  0  0  0  0  0  0  0  0  0  0
    4.8167   -1.4779    4.3986 H   0  0  0  0  0  0  0  0  0  0  0  0
  1  2  1  0  0  0  0
  1 29  1  0  0  0  0
  1 30  1  0  0  0  0
  1 31  1  0  0  0  0
  2  3  1  0  0  0  0
  2  4  1  0  0  0  0
  2  5  1  0  0  0  0
  3 32  1  0  0  0  0
  3 33  1  0  0  0  0
  3 34  1  0  0  0  0
  4 35  1  0  0  0  0
  4 36  1  0  0  0  0
  4 37  1  0  0  0  0
  5  6  1  0  0  0  0
  5 28  1  0  0  0  0
  6  7  2  0  0  0  0
  6 38  1  0  0  0  0
  7  8  1  0  0  0  0
  7 22  1  0  0  0  0
  8  9  1  0  0  0  0
  8 21  2  0  0  0  0
  9 10  2  0  0  0  0
  9 39  1  0  0  0  0
 10 11  1  0  0  0  0
 10 40  1  0  0  0  0
 11 12  1  0  0  0  0
 11 20  2  0  0  0  0
 12 13  1  0  0  0  0
 13 14  1  0  0  0  0
 13 19  2  0  0  0  0
 14 15  2  0  0  0  0
 14 41  1  0  0  0  0
 15 16  1  0  0  0  0
 15 42  1  0  0  0  0
 16 17  1  0  0  0  0
 16 18  2  0  0  0  0
 17 43  1  0  0  0  0
 17 44  1  0  0  0  0
 18 19  1  0  0  0  0
 18 45  1  0  0  0  0
 19 46  1  0  0  0  0
 20 21  1  0  0  0  0
 20 47  1  0  0  0  0
 21 48  1  0  0  0  0
 22 23  1  0  0  0  0
 22 28  2  0  0  0  0
 23 24  1  0  0  0  0
 23 25  2  0  0  0  0
 24 49  1  0  0  0  0
 24 50  1  0  0  0  0
 25 26  1  0  0  0  0
 26 27  2  0  0  0  0
 26 51  1  0  0  0  0
 27 28  1  0  0  0  0
M  END
$$$$
