CHEMBL4570785
 OpenBabel04072215383D

 39 42  0  0  0  0  0  0  0  0999 V2000
    1.2345   -0.5058    0.6385 O   0  0  0  0  0  0  0  0  0  0  0  0
    2.3711   -0.1866    0.3032 C   0  0  0  0  0  0  0  0  0  0  0  0
    2.9763    1.0444    0.4886 N   0  0  0  0  0  0  0  0  0  0  0  0
    2.3742    2.1517    1.1353 C   0  0  0  0  0  0  0  0  0  0  0  0
    1.2526    2.0161    1.9647 C   0  0  0  0  0  0  0  0  0  0  0  0
    0.6199    3.1167    2.5493 C   0  0  0  0  0  0  0  0  0  0  0  0
    1.1624    4.3620    2.2595 C   0  0  0  0  0  0  0  0  0  0  0  0
    0.7916    5.6250    2.6246 N   0  0  0  0  0  0  0  0  0  0  0  0
    1.6567    6.5263    2.0491 C   0  0  0  0  0  0  0  0  0  0  0  0
    1.5195    7.9728    2.2175 C   0  0  0  0  0  0  0  0  0  0  0  0
    0.9734    8.5184    3.3905 C   0  0  0  0  0  0  0  0  0  0  0  0
    0.8323    9.9007    3.5355 C   0  0  0  0  0  0  0  0  0  0  0  0
    1.2357   10.7482    2.5072 C   0  0  0  0  0  0  0  0  0  0  0  0
    1.0575   12.4491    2.6882 Cl  0  0  0  0  0  0  0  0  0  0  0  0
    1.7850   10.2255    1.3385 C   0  0  0  0  0  0  0  0  0  0  0  0
    1.9315    8.8413    1.1975 C   0  0  0  0  0  0  0  0  0  0  0  0
    2.5653    5.8882    1.3313 N   0  0  0  0  0  0  0  0  0  0  0  0
    2.2814    4.5474    1.4619 C   0  0  0  0  0  0  0  0  0  0  0  0
    2.9239    3.4254    0.9092 C   0  0  0  0  0  0  0  0  0  0  0  0
    3.1533   -1.2026   -0.4389 C   0  0  0  0  0  0  0  0  0  0  0  0
    2.4530   -2.0681   -1.2947 C   0  0  0  0  0  0  0  0  0  0  0  0
    3.1197   -3.0934   -1.9652 C   0  0  0  0  0  0  0  0  0  0  0  0
    4.4890   -3.2617   -1.7692 C   0  0  0  0  0  0  0  0  0  0  0  0
    5.3031   -4.5453   -2.5744 Cl  0  0  0  0  0  0  0  0  0  0  0  0
    5.1799   -2.4015   -0.9130 C   0  0  0  0  0  0  0  0  0  0  0  0
    6.4937   -2.5662   -0.6991 F   0  0  0  0  0  0  0  0  0  0  0  0
    4.5255   -1.3683   -0.2450 C   0  0  0  0  0  0  0  0  0  0  0  0
    3.8327    1.2343   -0.0175 H   0  0  0  0  0  0  0  0  0  0  0  0
    0.8337    1.0387    2.1887 H   0  0  0  0  0  0  0  0  0  0  0  0
   -0.2562    2.9911    3.1754 H   0  0  0  0  0  0  0  0  0  0  0  0
   -0.0078    5.8601    3.1923 H   0  0  0  0  0  0  0  0  0  0  0  0
    0.6708    7.8799    4.2165 H   0  0  0  0  0  0  0  0  0  0  0  0
    0.4145   10.3059    4.4533 H   0  0  0  0  0  0  0  0  0  0  0  0
    2.1025   10.8853    0.5356 H   0  0  0  0  0  0  0  0  0  0  0  0
    2.3631    8.4385    0.2821 H   0  0  0  0  0  0  0  0  0  0  0  0
    3.7952    3.5781    0.2841 H   0  0  0  0  0  0  0  0  0  0  0  0
    1.3771   -1.9493   -1.4283 H   0  0  0  0  0  0  0  0  0  0  0  0
    2.5636   -3.7599   -2.6195 H   0  0  0  0  0  0  0  0  0  0  0  0
    5.0873   -0.7482    0.4456 H   0  0  0  0  0  0  0  0  0  0  0  0
  1  2  2  0  0  0  0
  2  3  1  0  0  0  0
  2 20  1  0  0  0  0
  3  4  1  0  0  0  0
  3 28  1  0  0  0  0
  4  5  1  0  0  0  0
  4 19  2  0  0  0  0
  5  6  2  0  0  0  0
  5 29  1  0  0  0  0
  6  7  1  0  0  0  0
  6 30  1  0  0  0  0
  7  8  1  0  0  0  0
  7 18  2  0  0  0  0
  8  9  1  0  0  0  0
  8 31  1  0  0  0  0
  9 10  1  0  0  0  0
  9 17  2  0  0  0  0
 10 11  1  0  0  0  0
 10 16  2  0  0  0  0
 11 12  2  0  0  0  0
 11 32  1  0  0  0  0
 12 13  1  0  0  0  0
 12 33  1  0  0  0  0
 13 14  1  0  0  0  0
 13 15  2  0  0  0  0
 15 16  1  0  0  0  0
 15 34  1  0  0  0  0
 16 35  1  0  0  0  0
 17 18  1  0  0  0  0
 18 19  1  0  0  0  0
 19 36  1  0  0  0  0
 20 21  1  0  0  0  0
 20 27  2  0  0  0  0
 21 22  2  0  0  0  0
 21 37  1  0  0  0  0
 22 23  1  0  0  0  0
 22 38  1  0  0  0  0
 23 24  1  0  0  0  0
 23 25  2  0  0  0  0
 25 26  1  0  0  0  0
 25 27  1  0  0  0  0
 27 39  1  0  0  0  0
M  END
$$$$
