CHEMBL4216386
 OpenBabel04072215383D

 49 52  0  0  0  0  0  0  0  0999 V2000
    3.0682   -6.1863    0.9822 C   0  0  0  0  0  0  0  0  0  0  0  0
    3.7978   -4.9211    0.6084 C   0  0  0  0  0  0  0  0  0  0  0  0
    3.2234   -4.0537   -0.0422 O   0  0  0  0  0  0  0  0  0  0  0  0
    5.0986   -4.9069    1.0745 N   0  0  0  0  0  0  0  0  0  0  0  0
    5.9265   -3.8150    0.9750 C   0  0  0  0  0  0  0  0  0  0  0  0
    7.2767   -3.8055    1.2533 C   0  0  0  0  0  0  0  0  0  0  0  0
    7.6865   -2.5128    1.0169 N   0  0  0  0  0  0  0  0  0  0  0  0
    8.9551   -1.9437    1.1040 C   0  0  0  0  0  0  0  0  0  0  0  0
    9.1118   -0.6243    0.8508 C   0  0  0  0  0  0  0  0  0  0  0  0
   10.4543   -0.0247    0.9645 C   0  0  0  0  0  0  0  0  0  0  0  0
   10.8219    0.5337    2.2019 C   0  0  0  0  0  0  0  0  0  0  0  0
   12.0822    1.1023    2.3947 C   0  0  0  0  0  0  0  0  0  0  0  0
   12.4778    1.7365    3.5966 N   0  0  0  0  0  0  0  0  0  0  0  0
   11.6271    2.1747    4.5995 C   0  0  0  0  0  0  0  0  0  0  0  0
   10.4021    2.1034    4.5950 O   0  0  0  0  0  0  0  0  0  0  0  0
   12.2736    2.8665    5.7500 C   0  0  0  0  0  0  0  0  0  0  0  0
   11.5585    3.8882    6.3949 C   0  0  0  0  0  0  0  0  0  0  0  0
   12.1121    4.5605    7.4859 C   0  0  0  0  0  0  0  0  0  0  0  0
   13.3784    4.2057    7.9465 C   0  0  0  0  0  0  0  0  0  0  0  0
   14.0799    3.1757    7.3190 C   0  0  0  0  0  0  0  0  0  0  0  0
   15.6310    2.7224    7.9118 Cl  0  0  0  0  0  0  0  0  0  0  0  0
   13.5377    2.5008    6.2227 C   0  0  0  0  0  0  0  0  0  0  0  0
   13.0046    1.0555    1.3465 C   0  0  0  0  0  0  0  0  0  0  0  0
   12.6384    0.5354    0.0994 C   0  0  0  0  0  0  0  0  0  0  0  0
   11.3526    0.0196   -0.1167 C   0  0  0  0  0  0  0  0  0  0  0  0
   10.9663   -0.4605   -1.4895 C   0  0  0  0  0  0  0  0  0  0  0  0
    7.9176    0.1565    0.5160 C   0  0  0  0  0  0  0  0  0  0  0  0
    6.6994   -0.4062    0.4249 C   0  0  0  0  0  0  0  0  0  0  0  0
    6.5486   -1.7984    0.6656 C   0  0  0  0  0  0  0  0  0  0  0  0
    5.4926   -2.5747    0.6174 N   0  0  0  0  0  0  0  0  0  0  0  0
    2.1633   -6.2752    0.3729 H   0  0  0  0  0  0  0  0  0  0  0  0
    2.7830   -6.1422    2.0366 H   0  0  0  0  0  0  0  0  0  0  0  0
    3.6921   -7.0650    0.7985 H   0  0  0  0  0  0  0  0  0  0  0  0
    5.4929   -5.7450    1.4721 H   0  0  0  0  0  0  0  0  0  0  0  0
    7.9659   -4.5718    1.5670 H   0  0  0  0  0  0  0  0  0  0  0  0
    9.7729   -2.6000    1.3761 H   0  0  0  0  0  0  0  0  0  0  0  0
   10.0970    0.5062    3.0117 H   0  0  0  0  0  0  0  0  0  0  0  0
   13.4405    2.0434    3.6366 H   0  0  0  0  0  0  0  0  0  0  0  0
   10.5628    4.1608    6.0474 H   0  0  0  0  0  0  0  0  0  0  0  0
   11.5518    5.3525    7.9779 H   0  0  0  0  0  0  0  0  0  0  0  0
   13.8060    4.7260    8.7998 H   0  0  0  0  0  0  0  0  0  0  0  0
   14.0887    1.6795    5.7754 H   0  0  0  0  0  0  0  0  0  0  0  0
   14.0059    1.4605    1.4642 H   0  0  0  0  0  0  0  0  0  0  0  0
   13.3635    0.5555   -0.7125 H   0  0  0  0  0  0  0  0  0  0  0  0
   11.7429   -0.2291   -2.2267 H   0  0  0  0  0  0  0  0  0  0  0  0
   10.0522    0.0411   -1.8258 H   0  0  0  0  0  0  0  0  0  0  0  0
   10.8117   -1.5432   -1.4913 H   0  0  0  0  0  0  0  0  0  0  0  0
    8.0406    1.2232    0.3476 H   0  0  0  0  0  0  0  0  0  0  0  0
    5.8166    0.1700    0.1834 H   0  0  0  0  0  0  0  0  0  0  0  0
  1  2  1  0  0  0  0
  1 31  1  0  0  0  0
  1 32  1  0  0  0  0
  1 33  1  0  0  0  0
  2  3  2  0  0  0  0
  2  4  1  0  0  0  0
  4  5  1  0  0  0  0
  4 34  1  0  0  0  0
  5  6  2  0  0  0  0
  5 30  1  0  0  0  0
  6  7  1  0  0  0  0
  6 35  1  0  0  0  0
  7  8  1  0  0  0  0
  7 29  1  0  0  0  0
  8  9  2  0  0  0  0
  8 36  1  0  0  0  0
  9 10  1  0  0  0  0
  9 27  1  0  0  0  0
 10 11  1  0  0  0  0
 10 25  2  0  0  0  0
 11 12  2  0  0  0  0
 11 37  1  0  0  0  0
 12 13  1  0  0  0  0
 12 23  1  0  0  0  0
 13 14  1  0  0  0  0
 13 38  1  0  0  0  0
 14 15  2  0  0  0  0
 14 16  1  0  0  0  0
 16 17  1  0  0  0  0
 16 22  2  0  0  0  0
 17 18  2  0  0  0  0
 17 39  1  0  0  0  0
 18 19  1  0  0  0  0
 18 40  1  0  0  0  0
 19 20  2  0  0  0  0
 19 41  1  0  0  0  0
 20 21  1  0  0  0  0
 20 22  1  0  0  0  0
 22 42  1  0  0  0  0
 23 24  2  0  0  0  0
 23 43  1  0  0  0  0
 24 25  1  0  0  0  0
 24 44  1  0  0  0  0
 25 26  1  0  0  0  0
 26 45  1  0  0  0  0
 26 46  1  0  0  0  0
 26 47  1  0  0  0  0
 27 28  2  0  0  0  0
 27 48  1  0  0  0  0
 28 29  1  0  0  0  0
 28 49  1  0  0  0  0
 29 30  2  0  0  0  0
M  END
$$$$
