CHEMBL1956891
 OpenBabel04072215363D

 41 44  0  0  0  0  0  0  0  0999 V2000
    1.2635    0.1550    0.1970 N   0  0  0  0  0  0  0  0  0  0  0  0
    2.6424    0.1398    0.1102 C   0  0  0  0  0  0  0  0  0  0  0  0
    3.2133   -1.0686    0.0681 N   0  0  0  0  0  0  0  0  0  0  0  0
    4.5650   -1.1860    0.0049 C   0  0  0  0  0  0  0  0  0  0  0  0
    5.1568   -2.4589   -0.0201 N   0  0  0  0  0  0  0  0  0  0  0  0
    4.7195   -3.6153    0.6602 C   0  0  0  0  0  0  0  0  0  0  0  0
    3.8344   -3.5573    1.7452 C   0  0  0  0  0  0  0  0  0  0  0  0
    3.4124   -4.7139    2.4001 C   0  0  0  0  0  0  0  0  0  0  0  0
    3.8516   -5.9613    1.9565 C   0  0  0  0  0  0  0  0  0  0  0  0
    4.7138   -6.0316    0.8649 C   0  0  0  0  0  0  0  0  0  0  0  0
    5.2888   -7.7254    0.2463 Br  0  0  0  0  0  0  0  0  0  0  0  0
    5.1512   -4.8738    0.2211 C   0  0  0  0  0  0  0  0  0  0  0  0
    5.3186   -0.0022   -0.0331 C   0  0  0  0  0  0  0  0  0  0  0  0
    6.6998    0.3403   -0.0554 C   0  0  0  0  0  0  0  0  0  0  0  0
    6.7905    1.7164   -0.0272 C   0  0  0  0  0  0  0  0  0  0  0  0
    5.5120    2.2239   -0.0075 N   0  0  0  0  0  0  0  0  0  0  0  0
    5.1733    3.6382    0.0936 C   0  0  0  0  0  0  0  0  0  0  0  0
    5.1905    4.3209   -1.2537 C   0  0  0  0  0  0  0  0  0  0  0  0
    4.2550    3.9760   -2.2425 C   0  0  0  0  0  0  0  0  0  0  0  0
    4.2894    4.5849   -3.4990 C   0  0  0  0  0  0  0  0  0  0  0  0
    5.2511    5.5537   -3.7719 C   0  0  0  0  0  0  0  0  0  0  0  0
    5.3134    6.2825   -5.3292 Cl  0  0  0  0  0  0  0  0  0  0  0  0
    6.1672    5.9317   -2.7930 C   0  0  0  0  0  0  0  0  0  0  0  0
    6.1369    5.3184   -1.5373 C   0  0  0  0  0  0  0  0  0  0  0  0
    4.6072    1.1887    0.0016 C   0  0  0  0  0  0  0  0  0  0  0  0
    3.2718    1.3168    0.0565 N   0  0  0  0  0  0  0  0  0  0  0  0
    0.9039   -0.7293   -0.1445 H   0  0  0  0  0  0  0  0  0  0  0  0
    0.8946    0.9995   -0.2116 H   0  0  0  0  0  0  0  0  0  0  0  0
    6.1564   -2.4421   -0.1731 H   0  0  0  0  0  0  0  0  0  0  0  0
    3.4799   -2.5970    2.1138 H   0  0  0  0  0  0  0  0  0  0  0  0
    2.7397   -4.6389    3.2484 H   0  0  0  0  0  0  0  0  0  0  0  0
    3.5144   -6.8625    2.4611 H   0  0  0  0  0  0  0  0  0  0  0  0
    5.8068   -4.9490   -0.6415 H   0  0  0  0  0  0  0  0  0  0  0  0
    7.5395   -0.3420   -0.0596 H   0  0  0  0  0  0  0  0  0  0  0  0
    7.6527    2.3708   -0.0107 H   0  0  0  0  0  0  0  0  0  0  0  0
    5.9050    4.0896    0.7749 H   0  0  0  0  0  0  0  0  0  0  0  0
    4.1901    3.7391    0.5659 H   0  0  0  0  0  0  0  0  0  0  0  0
    3.4969    3.2200   -2.0427 H   0  0  0  0  0  0  0  0  0  0  0  0
    3.5684    4.2937   -4.2580 H   0  0  0  0  0  0  0  0  0  0  0  0
    6.9096    6.6973   -3.0028 H   0  0  0  0  0  0  0  0  0  0  0  0
    6.8623    5.6245   -0.7861 H   0  0  0  0  0  0  0  0  0  0  0  0
  1  2  1  0  0  0  0
  1 27  1  0  0  0  0
  1 28  1  0  0  0  0
  2  3  1  0  0  0  0
  2 26  2  0  0  0  0
  3  4  2  0  0  0  0
  4  5  1  0  0  0  0
  4 13  1  0  0  0  0
  5  6  1  0  0  0  0
  5 29  1  0  0  0  0
  6  7  1  0  0  0  0
  6 12  2  0  0  0  0
  7  8  2  0  0  0  0
  7 30  1  0  0  0  0
  8  9  1  0  0  0  0
  8 31  1  0  0  0  0
  9 10  2  0  0  0  0
  9 32  1  0  0  0  0
 10 11  1  0  0  0  0
 10 12  1  0  0  0  0
 12 33  1  0  0  0  0
 13 14  1  0  0  0  0
 13 25  2  0  0  0  0
 14 15  2  0  0  0  0
 14 34  1  0  0  0  0
 15 16  1  0  0  0  0
 15 35  1  0  0  0  0
 16 17  1  0  0  0  0
 16 25  1  0  0  0  0
 17 18  1  0  0  0  0
 17 36  1  0  0  0  0
 17 37  1  0  0  0  0
 18 19  1  0  0  0  0
 18 24  2  0  0  0  0
 19 20  2  0  0  0  0
 19 38  1  0  0  0  0
 20 21  1  0  0  0  0
 20 39  1  0  0  0  0
 21 22  1  0  0  0  0
 21 23  2  0  0  0  0
 23 24  1  0  0  0  0
 23 40  1  0  0  0  0
 24 41  1  0  0  0  0
 25 26  1  0  0  0  0
M  END
$$$$
