CHEMBL3671579
 OpenBabel04072215373D

 59 62  0  0  0  0  0  0  0  0999 V2000
    2.4596    1.1262   -2.0601 C   0  0  0  0  0  0  0  0  0  0  0  0
    2.9996    0.6956   -0.9139 C   0  0  0  0  0  0  0  0  0  0  0  0
    3.6125    1.6461    0.0504 C   0  0  0  0  0  0  0  0  0  0  0  0
    3.3663    2.8435    0.0359 O   0  0  0  0  0  0  0  0  0  0  0  0
    4.4939    0.9972    0.9008 N   0  0  0  0  0  0  0  0  0  0  0  0
    5.2354    1.7610    1.8248 C   0  0  0  0  0  0  0  0  0  0  0  0
    6.4135    2.3625    1.3801 C   0  0  0  0  0  0  0  0  0  0  0  0
    7.1366    3.2396    2.2226 C   0  0  0  0  0  0  0  0  0  0  0  0
    8.2652    3.9797    1.8364 C   0  0  0  0  0  0  0  0  0  0  0  0
    8.7295    3.9214    0.4956 N   0  0  0  0  0  0  0  0  0  0  0  0
    9.5653    4.8982   -0.0944 C   0  0  0  0  0  0  0  0  0  0  0  0
    9.3377    6.2667    0.1143 C   0  0  0  0  0  0  0  0  0  0  0  0
   10.2050    7.2275   -0.4110 C   0  0  0  0  0  0  0  0  0  0  0  0
   11.3001    6.8218   -1.1702 C   0  0  0  0  0  0  0  0  0  0  0  0
   12.5099    8.1180   -1.8242 Br  0  0  0  0  0  0  0  0  0  0  0  0
   11.5173    5.4722   -1.4380 C   0  0  0  0  0  0  0  0  0  0  0  0
   10.6434    4.5264   -0.9070 C   0  0  0  0  0  0  0  0  0  0  0  0
   10.8616    3.2254   -1.1575 F   0  0  0  0  0  0  0  0  0  0  0  0
    8.9071    4.7971    2.6922 N   0  0  0  0  0  0  0  0  0  0  0  0
    8.4076    4.8978    3.9239 C   0  0  0  0  0  0  0  0  0  0  0  0
    7.3186    4.2766    4.3824 N   0  0  0  0  0  0  0  0  0  0  0  0
    6.6836    3.4631    3.5339 C   0  0  0  0  0  0  0  0  0  0  0  0
    5.5241    2.8309    3.9626 C   0  0  0  0  0  0  0  0  0  0  0  0
    4.8016    1.9631    3.1412 C   0  0  0  0  0  0  0  0  0  0  0  0
    3.7086    1.3868    3.7438 O   0  0  0  0  0  0  0  0  0  0  0  0
    3.4334    0.0368    3.3556 C   0  0  0  0  0  0  0  0  0  0  0  0
    2.8346   -0.7440    4.5298 C   0  0  0  0  0  0  0  0  0  0  0  0
    2.5778   -2.1387    4.1916 N   0  0  0  0  0  0  0  0  0  0  0  0
    3.5962   -3.0772    4.1674 C   0  0  0  0  0  0  0  0  0  0  0  0
    4.7478   -2.8040    4.4995 O   0  0  0  0  0  0  0  0  0  0  0  0
    3.1626   -4.4825    3.7143 C   0  0  0  0  0  0  0  0  0  0  0  0
    3.9949   -4.9345    2.5846 N   0  0  0  0  0  0  0  0  0  0  0  0
    3.5912   -6.3017    2.1560 C   0  0  0  0  0  0  0  0  0  0  0  0
    5.0893   -6.6370    2.0341 C   0  0  0  0  0  0  0  0  0  0  0  0
    5.2752   -5.5234    3.0820 C   0  0  0  0  0  0  0  0  0  0  0  0
    1.9794    0.4333   -2.7429 H   0  0  0  0  0  0  0  0  0  0  0  0
    2.4827    2.1765   -2.3413 H   0  0  0  0  0  0  0  0  0  0  0  0
    2.9605   -0.3502   -0.6361 H   0  0  0  0  0  0  0  0  0  0  0  0
    5.0152    0.2649    0.4291 H   0  0  0  0  0  0  0  0  0  0  0  0
    6.7410    2.2032    0.3564 H   0  0  0  0  0  0  0  0  0  0  0  0
    9.0116    2.9765    0.2497 H   0  0  0  0  0  0  0  0  0  0  0  0
    8.4867    6.5904    0.7099 H   0  0  0  0  0  0  0  0  0  0  0  0
   10.0196    8.2785   -0.2063 H   0  0  0  0  0  0  0  0  0  0  0  0
   12.3586    5.1435   -2.0372 H   0  0  0  0  0  0  0  0  0  0  0  0
    8.9321    5.5529    4.6122 H   0  0  0  0  0  0  0  0  0  0  0  0
    5.1735    3.0245    4.9761 H   0  0  0  0  0  0  0  0  0  0  0  0
    4.3391   -0.4834    3.0246 H   0  0  0  0  0  0  0  0  0  0  0  0
    2.7022    0.0542    2.5397 H   0  0  0  0  0  0  0  0  0  0  0  0
    1.8847   -0.2964    4.8419 H   0  0  0  0  0  0  0  0  0  0  0  0
    3.5099   -0.7015    5.3918 H   0  0  0  0  0  0  0  0  0  0  0  0
    1.6692   -2.3811    3.8184 H   0  0  0  0  0  0  0  0  0  0  0  0
    2.1184   -4.4447    3.3842 H   0  0  0  0  0  0  0  0  0  0  0  0
    3.2018   -5.1481    4.5862 H   0  0  0  0  0  0  0  0  0  0  0  0
    3.0316   -6.3378    1.2169 H   0  0  0  0  0  0  0  0  0  0  0  0
    3.0648   -6.9043    2.9069 H   0  0  0  0  0  0  0  0  0  0  0  0
    5.5248   -6.4096    1.0537 H   0  0  0  0  0  0  0  0  0  0  0  0
    5.3860   -7.6446    2.3360 H   0  0  0  0  0  0  0  0  0  0  0  0
    6.1596   -4.8962    2.9387 H   0  0  0  0  0  0  0  0  0  0  0  0
    5.2687   -5.8987    4.1137 H   0  0  0  0  0  0  0  0  0  0  0  0
  1  2  2  0  0  0  0
  1 36  1  0  0  0  0
  1 37  1  0  0  0  0
  2  3  1  0  0  0  0
  2 38  1  0  0  0  0
  3  4  2  0  0  0  0
  3  5  1  0  0  0  0
  5  6  1  0  0  0  0
  5 39  1  0  0  0  0
  6  7  1  0  0  0  0
  6 24  2  0  0  0  0
  7  8  2  0  0  0  0
  7 40  1  0  0  0  0
  8  9  1  0  0  0  0
  8 22  1  0  0  0  0
  9 10  1  0  0  0  0
  9 19  2  0  0  0  0
 10 11  1  0  0  0  0
 10 41  1  0  0  0  0
 11 12  1  0  0  0  0
 11 17  2  0  0  0  0
 12 13  2  0  0  0  0
 12 42  1  0  0  0  0
 13 14  1  0  0  0  0
 13 43  1  0  0  0  0
 14 15  1  0  0  0  0
 14 16  2  0  0  0  0
 16 17  1  0  0  0  0
 16 44  1  0  0  0  0
 17 18  1  0  0  0  0
 19 20  1  0  0  0  0
 20 21  2  0  0  0  0
 20 45  1  0  0  0  0
 21 22  1  0  0  0  0
 22 23  2  0  0  0  0
 23 24  1  0  0  0  0
 23 46  1  0  0  0  0
 24 25  1  0  0  0  0
 25 26  1  0  0  0  0
 26 27  1  0  0  0  0
 26 47  1  0  0  0  0
 26 48  1  0  0  0  0
 27 28  1  0  0  0  0
 27 49  1  0  0  0  0
 27 50  1  0  0  0  0
 28 29  1  0  0  0  0
 28 51  1  0  0  0  0
 29 30  2  0  0  0  0
 29 31  1  0  0  0  0
 31 32  1  0  0  0  0
 31 52  1  0  0  0  0
 31 53  1  0  0  0  0
 32 33  1  0  0  0  0
 32 35  1  0  0  0  0
 33 34  1  0  0  0  0
 33 54  1  0  0  0  0
 33 55  1  0  0  0  0
 34 35  1  0  0  0  0
 34 56  1  0  0  0  0
 34 57  1  0  0  0  0
 35 58  1  0  0  0  0
 35 59  1  0  0  0  0
M  END
$$$$
