CHEMBL330621
 OpenBabel04072215363D

 32 34  0  0  0  0  0  0  0  0999 V2000
    2.3442   -0.4982   -1.2874 C   0  0  0  0  0  0  0  0  0  0  0  0
    0.9069   -0.2363   -0.9795 C   0  0  0  0  0  0  0  0  0  0  0  0
    0.3323    0.9987   -1.2368 C   0  0  0  0  0  0  0  0  0  0  0  0
   -1.0099    1.2016   -0.9363 C   0  0  0  0  0  0  0  0  0  0  0  0
   -1.7690    0.1811   -0.3661 C   0  0  0  0  0  0  0  0  0  0  0  0
   -3.1052    0.3399    0.0042 N   0  0  0  0  0  0  0  0  0  0  0  0
   -3.8482    1.4561   -0.1226 C   0  0  0  0  0  0  0  0  0  0  0  0
   -3.6950    2.3690   -1.0555 N   0  0  0  0  0  0  0  0  0  0  0  0
   -4.5049    3.4504   -0.8195 C   0  0  0  0  0  0  0  0  0  0  0  0
   -5.3135    3.3673    0.2959 C   0  0  0  0  0  0  0  0  0  0  0  0
   -6.2344    4.3709    0.8365 C   0  0  0  0  0  0  0  0  0  0  0  0
   -6.8838    5.2595   -0.0368 C   0  0  0  0  0  0  0  0  0  0  0  0
   -7.7432    6.2459    0.4501 C   0  0  0  0  0  0  0  0  0  0  0  0
   -7.9637    6.3611    1.8192 C   0  0  0  0  0  0  0  0  0  0  0  0
   -7.3173    5.4984    2.7015 C   0  0  0  0  0  0  0  0  0  0  0  0
   -6.4545    4.5123    2.2139 C   0  0  0  0  0  0  0  0  0  0  0  0
   -5.1122    1.8096    0.9986 S   0  0  0  0  0  0  0  0  0  0  0  0
   -1.2188   -1.0252   -0.1031 N   0  0  0  0  0  0  0  0  0  0  0  0
    0.0880   -1.2091   -0.4209 C   0  0  0  0  0  0  0  0  0  0  0  0
    2.8288    0.3922   -1.7035 H   0  0  0  0  0  0  0  0  0  0  0  0
    2.4340   -1.3019   -2.0237 H   0  0  0  0  0  0  0  0  0  0  0  0
    2.8833   -0.7736   -0.3760 H   0  0  0  0  0  0  0  0  0  0  0  0
    0.9079    1.8149   -1.6626 H   0  0  0  0  0  0  0  0  0  0  0  0
   -1.4271    2.1832   -1.1291 H   0  0  0  0  0  0  0  0  0  0  0  0
   -3.4216   -0.4449    0.5632 H   0  0  0  0  0  0  0  0  0  0  0  0
   -4.4400    4.3007   -1.4869 H   0  0  0  0  0  0  0  0  0  0  0  0
   -6.7333    5.1906   -1.1117 H   0  0  0  0  0  0  0  0  0  0  0  0
   -8.2393    6.9214   -0.2420 H   0  0  0  0  0  0  0  0  0  0  0  0
   -8.6358    7.1256    2.1994 H   0  0  0  0  0  0  0  0  0  0  0  0
   -7.4797    5.5939    3.7713 H   0  0  0  0  0  0  0  0  0  0  0  0
   -5.9457    3.8707    2.9299 H   0  0  0  0  0  0  0  0  0  0  0  0
    0.4712   -2.2014   -0.1981 H   0  0  0  0  0  0  0  0  0  0  0  0
  1  2  1  0  0  0  0
  1 20  1  0  0  0  0
  1 21  1  0  0  0  0
  1 22  1  0  0  0  0
  2  3  1  0  0  0  0
  2 19  2  0  0  0  0
  3  4  2  0  0  0  0
  3 23  1  0  0  0  0
  4  5  1  0  0  0  0
  4 24  1  0  0  0  0
  5  6  1  0  0  0  0
  5 18  2  0  0  0  0
  6  7  1  0  0  0  0
  6 25  1  0  0  0  0
  7  8  2  0  0  0  0
  7 17  1  0  0  0  0
  8  9  1  0  0  0  0
  9 10  2  0  0  0  0
  9 26  1  0  0  0  0
 10 11  1  0  0  0  0
 10 17  1  0  0  0  0
 11 12  1  0  0  0  0
 11 16  2  0  0  0  0
 12 13  2  0  0  0  0
 12 27  1  0  0  0  0
 13 14  1  0  0  0  0
 13 28  1  0  0  0  0
 14 15  2  0  0  0  0
 14 29  1  0  0  0  0
 15 16  1  0  0  0  0
 15 30  1  0  0  0  0
 16 31  1  0  0  0  0
 18 19  1  0  0  0  0
 19 32  1  0  0  0  0
M  END
$$$$
