CHEMBL3806189
 OpenBabel04072215373D

 74 78  0  0  0  0  0  0  0  0999 V2000
    2.1206   -0.1083   -0.7787 C   0  0  0  0  0  0  0  0  0  0  0  0
    0.6861    0.0521   -1.0136 N   0  0  0  0  0  0  0  0  0  0  0  0
   -0.0400   -1.1678   -0.6217 C   0  0  0  0  0  0  0  0  0  0  0  0
   -1.5728   -0.9999   -0.7483 C   0  0  0  0  0  0  0  0  0  0  0  0
   -2.1410    0.1278    0.0310 N   0  0  0  0  0  0  0  0  0  0  0  0
   -2.0665   -0.0424    1.4974 C   0  0  0  0  0  0  0  0  0  0  0  0
   -2.7687   -1.2834    2.0277 C   0  0  0  0  0  0  0  0  0  0  0  0
   -1.9783   -2.4420    2.1453 C   0  0  0  0  0  0  0  0  0  0  0  0
   -2.5149   -3.6692    2.5088 C   0  0  0  0  0  0  0  0  0  0  0  0
   -3.8583   -3.7802    2.8245 C   0  0  0  0  0  0  0  0  0  0  0  0
   -4.4353   -5.0177    3.1548 N   0  0  0  0  0  0  0  0  0  0  0  0
   -3.9151   -6.2730    2.8606 C   0  0  0  0  0  0  0  0  0  0  0  0
   -2.8903   -6.5007    2.2193 O   0  0  0  0  0  0  0  0  0  0  0  0
   -4.7587   -7.4401    3.3869 C   0  0  0  0  0  0  0  0  0  0  0  0
   -5.9180   -6.9831    4.1475 N   0  0  0  0  0  0  0  0  0  0  0  0
   -7.1700   -6.7239    3.6184 C   0  0  0  0  0  0  0  0  0  0  0  0
   -7.4726   -6.8084    2.2606 C   0  0  0  0  0  0  0  0  0  0  0  0
   -8.7223   -6.4005    1.7757 C   0  0  0  0  0  0  0  0  0  0  0  0
   -9.7136   -5.8831    2.6289 C   0  0  0  0  0  0  0  0  0  0  0  0
  -11.0262   -5.4623    2.1126 C   0  0  0  0  0  0  0  0  0  0  0  0
  -11.7364   -4.3739    2.6343 C   0  0  0  0  0  0  0  0  0  0  0  0
  -12.9908   -4.0282    2.1184 C   0  0  0  0  0  0  0  0  0  0  0  0
  -13.5194   -4.7802    1.0772 C   0  0  0  0  0  0  0  0  0  0  0  0
  -14.7694   -4.4166    0.5600 N   0  0  0  0  0  0  0  0  0  0  0  0
  -15.4094   -5.0937   -0.4570 C   0  0  0  0  0  0  0  0  0  0  0  0
  -15.0526   -6.1145   -1.0242 O   0  0  0  0  0  0  0  0  0  0  0  0
  -16.6762   -4.4301   -0.8967 C   0  0  0  0  0  0  0  0  0  0  0  0
  -17.6026   -5.1183   -1.8670 C   0  0  0  0  0  0  0  0  0  0  0  0
  -16.7781   -3.9523   -2.3280 C   0  0  0  0  0  0  0  0  0  0  0  0
  -12.8580   -5.8199    0.5557 N   0  0  0  0  0  0  0  0  0  0  0  0
  -11.6516   -6.1385    1.0697 C   0  0  0  0  0  0  0  0  0  0  0  0
   -9.4044   -5.7935    3.9909 C   0  0  0  0  0  0  0  0  0  0  0  0
   -8.1613   -6.2034    4.4622 C   0  0  0  0  0  0  0  0  0  0  0  0
   -7.8928   -6.0563    5.7701 F   0  0  0  0  0  0  0  0  0  0  0  0
   -4.6485   -2.6242    2.8126 C   0  0  0  0  0  0  0  0  0  0  0  0
   -4.1318   -1.3687    2.3823 C   0  0  0  0  0  0  0  0  0  0  0  0
   -5.1062   -0.2023    2.3483 C   0  0  0  0  0  0  0  0  0  0  0  0
   -4.6140    0.9832    1.9101 F   0  0  0  0  0  0  0  0  0  0  0  0
   -6.1934   -0.4654    1.5678 F   0  0  0  0  0  0  0  0  0  0  0  0
   -5.6126    0.0548    3.5912 F   0  0  0  0  0  0  0  0  0  0  0  0
   -1.3934    1.3433   -0.3807 C   0  0  0  0  0  0  0  0  0  0  0  0
    0.1545    1.2239   -0.2928 C   0  0  0  0  0  0  0  0  0  0  0  0
    2.5063   -0.9770   -1.3238 H   0  0  0  0  0  0  0  0  0  0  0  0
    2.3568   -0.2411    0.2833 H   0  0  0  0  0  0  0  0  0  0  0  0
    2.6693    0.7657   -1.1473 H   0  0  0  0  0  0  0  0  0  0  0  0
    0.2275   -1.4446    0.4027 H   0  0  0  0  0  0  0  0  0  0  0  0
    0.2690   -2.0011   -1.2646 H   0  0  0  0  0  0  0  0  0  0  0  0
   -2.0786   -1.9417   -0.5118 H   0  0  0  0  0  0  0  0  0  0  0  0
   -1.8098   -0.8280   -1.8080 H   0  0  0  0  0  0  0  0  0  0  0  0
   -2.4794    0.8405    1.9959 H   0  0  0  0  0  0  0  0  0  0  0  0
   -1.0256   -0.0740    1.8432 H   0  0  0  0  0  0  0  0  0  0  0  0
   -0.9178   -2.4144    1.9139 H   0  0  0  0  0  0  0  0  0  0  0  0
   -1.8439   -4.5202    2.5497 H   0  0  0  0  0  0  0  0  0  0  0  0
   -5.3742   -5.0267    3.5426 H   0  0  0  0  0  0  0  0  0  0  0  0
   -4.1133   -8.0239    4.0517 H   0  0  0  0  0  0  0  0  0  0  0  0
   -5.0370   -8.0876    2.5485 H   0  0  0  0  0  0  0  0  0  0  0  0
   -5.8784   -7.1123    5.1569 H   0  0  0  0  0  0  0  0  0  0  0  0
   -6.7534   -7.1850    1.5382 H   0  0  0  0  0  0  0  0  0  0  0  0
   -8.8979   -6.4790    0.7028 H   0  0  0  0  0  0  0  0  0  0  0  0
  -11.3222   -3.7736    3.4414 H   0  0  0  0  0  0  0  0  0  0  0  0
  -13.5261   -3.1845    2.5395 H   0  0  0  0  0  0  0  0  0  0  0  0
  -15.2055   -3.5922    0.9403 H   0  0  0  0  0  0  0  0  0  0  0  0
  -17.1599   -3.8143   -0.1422 H   0  0  0  0  0  0  0  0  0  0  0  0
  -18.6693   -4.9729   -1.7435 H   0  0  0  0  0  0  0  0  0  0  0  0
  -17.3316   -6.1069   -2.2230 H   0  0  0  0  0  0  0  0  0  0  0  0
  -17.2819   -3.0141   -2.5216 H   0  0  0  0  0  0  0  0  0  0  0  0
  -15.9506   -4.1627   -2.9978 H   0  0  0  0  0  0  0  0  0  0  0  0
  -11.1979   -7.0037    0.5928 H   0  0  0  0  0  0  0  0  0  0  0  0
  -10.1181   -5.4079    4.7121 H   0  0  0  0  0  0  0  0  0  0  0  0
   -5.6996   -2.6862    3.0958 H   0  0  0  0  0  0  0  0  0  0  0  0
   -1.7289    2.2071    0.2068 H   0  0  0  0  0  0  0  0  0  0  0  0
   -1.6642    1.5721   -1.4198 H   0  0  0  0  0  0  0  0  0  0  0  0
    0.4539    1.1945    0.7628 H   0  0  0  0  0  0  0  0  0  0  0  0
    0.5925    2.1336   -0.7214 H   0  0  0  0  0  0  0  0  0  0  0  0
  1  2  1  0  0  0  0
  1 43  1  0  0  0  0
  1 44  1  0  0  0  0
  1 45  1  0  0  0  0
  2  3  1  0  0  0  0
  2 42  1  0  0  0  0
  3  4  1  0  0  0  0
  3 46  1  0  0  0  0
  3 47  1  0  0  0  0
  4  5  1  0  0  0  0
  4 48  1  0  0  0  0
  4 49  1  0  0  0  0
  5  6  1  0  0  0  0
  5 41  1  0  0  0  0
  6  7  1  0  0  0  0
  6 50  1  0  0  0  0
  6 51  1  0  0  0  0
  7  8  1  0  0  0  0
  7 36  2  0  0  0  0
  8  9  2  0  0  0  0
  8 52  1  0  0  0  0
  9 10  1  0  0  0  0
  9 53  1  0  0  0  0
 10 11  1  0  0  0  0
 10 35  2  0  0  0  0
 11 12  1  0  0  0  0
 11 54  1  0  0  0  0
 12 13  2  0  0  0  0
 12 14  1  0  0  0  0
 14 15  1  0  0  0  0
 14 55  1  0  0  0  0
 14 56  1  0  0  0  0
 15 16  1  0  0  0  0
 15 57  1  0  0  0  0
 16 17  1  0  0  0  0
 16 33  2  0  0  0  0
 17 18  2  0  0  0  0
 17 58  1  0  0  0  0
 18 19  1  0  0  0  0
 18 59  1  0  0  0  0
 19 20  1  0  0  0  0
 19 32  2  0  0  0  0
 20 21  1  0  0  0  0
 20 31  2  0  0  0  0
 21 22  2  0  0  0  0
 21 60  1  0  0  0  0
 22 23  1  0  0  0  0
 22 61  1  0  0  0  0
 23 24  1  0  0  0  0
 23 30  2  0  0  0  0
 24 25  1  0  0  0  0
 24 62  1  0  0  0  0
 25 26  2  0  0  0  0
 25 27  1  0  0  0  0
 27 28  1  0  0  0  0
 27 29  1  0  0  0  0
 27 63  1  0  0  0  0
 28 29  1  0  0  0  0
 28 64  1  0  0  0  0
 28 65  1  0  0  0  0
 29 66  1  0  0  0  0
 29 67  1  0  0  0  0
 30 31  1  0  0  0  0
 31 68  1  0  0  0  0
 32 33  1  0  0  0  0
 32 69  1  0  0  0  0
 33 34  1  0  0  0  0
 35 36  1  0  0  0  0
 35 70  1  0  0  0  0
 36 37  1  0  0  0  0
 37 38  1  0  0  0  0
 37 39  1  0  0  0  0
 37 40  1  0  0  0  0
 41 42  1  0  0  0  0
 41 71  1  0  0  0  0
 41 72  1  0  0  0  0
 42 73  1  0  0  0  0
 42 74  1  0  0  0  0
M  END
$$$$
