CHEMBL523071
 OpenBabel04072215383D

 53 57  0  0  0  0  0  0  0  0999 V2000
    1.6283    2.0665   -0.8142 C   0  0  0  0  0  0  0  0  0  0  0  0
    2.8532    1.3127   -0.5232 N   0  0  0  0  0  0  0  0  0  0  0  0
    4.0203    2.0106   -1.0877 C   0  0  0  0  0  0  0  0  0  0  0  0
    5.3305    1.4996   -0.4845 C   0  0  0  0  0  0  0  0  0  0  0  0
    5.9882    0.3779   -1.2836 C   0  0  0  0  0  0  0  0  0  0  0  0
    5.0516   -0.6404   -1.7556 N   0  0  0  0  0  0  0  0  0  0  0  0
    5.1941   -1.1736   -3.0339 C   0  0  0  0  0  0  0  0  0  0  0  0
    6.4606   -1.2869   -3.6481 C   0  0  0  0  0  0  0  0  0  0  0  0
    6.6499   -1.7678   -4.9578 C   0  0  0  0  0  0  0  0  0  0  0  0
    5.5006   -2.1200   -5.6558 C   0  0  0  0  0  0  0  0  0  0  0  0
    5.2796   -2.5882   -6.9222 N   0  0  0  0  0  0  0  0  0  0  0  0
    3.9210   -2.7568   -7.1033 C   0  0  0  0  0  0  0  0  0  0  0  0
    3.4028   -3.2713   -8.3355 C   0  0  0  0  0  0  0  0  0  0  0  0
    2.0585   -3.3855   -8.4981 C   0  0  0  0  0  0  0  0  0  0  0  0
    1.1032   -2.9156   -7.5903 N   0  0  0  0  0  0  0  0  0  0  0  0
    1.5329   -4.0935   -9.6971 C   0  0  0  0  0  0  0  0  0  0  0  0
    0.1627   -4.3229   -9.9065 C   0  0  0  0  0  0  0  0  0  0  0  0
   -0.2829   -5.0759  -10.9965 C   0  0  0  0  0  0  0  0  0  0  0  0
    0.6318   -5.5866  -11.9129 C   0  0  0  0  0  0  0  0  0  0  0  0
    1.9915   -5.3330  -11.7493 C   0  0  0  0  0  0  0  0  0  0  0  0
    2.4319   -4.5979  -10.6459 C   0  0  0  0  0  0  0  0  0  0  0  0
    3.7997   -4.3767  -10.4879 N   0  0  0  0  0  0  0  0  0  0  0  0
    4.3397   -3.7394   -9.4102 C   0  0  0  0  0  0  0  0  0  0  0  0
    5.5586   -3.5773   -9.3342 O   0  0  0  0  0  0  0  0  0  0  0  0
    3.2777   -2.4396   -5.9900 N   0  0  0  0  0  0  0  0  0  0  0  0
    4.2365   -2.0459   -5.0964 C   0  0  0  0  0  0  0  0  0  0  0  0
    4.0859   -1.6040   -3.7775 C   0  0  0  0  0  0  0  0  0  0  0  0
    3.9205   -1.0063   -0.8919 C   0  0  0  0  0  0  0  0  0  0  0  0
    2.7068   -0.0616   -1.0493 C   0  0  0  0  0  0  0  0  0  0  0  0
    1.6800    3.0706   -0.3778 H   0  0  0  0  0  0  0  0  0  0  0  0
    0.7581    1.5771   -0.3658 H   0  0  0  0  0  0  0  0  0  0  0  0
    1.4521    2.1689   -1.8919 H   0  0  0  0  0  0  0  0  0  0  0  0
    3.9504    3.0724   -0.8185 H   0  0  0  0  0  0  0  0  0  0  0  0
    4.0325    1.9705   -2.1852 H   0  0  0  0  0  0  0  0  0  0  0  0
    5.1756    1.1846    0.5555 H   0  0  0  0  0  0  0  0  0  0  0  0
    6.0438    2.3326   -0.4320 H   0  0  0  0  0  0  0  0  0  0  0  0
    6.7638   -0.0990   -0.6716 H   0  0  0  0  0  0  0  0  0  0  0  0
    6.4993    0.8582   -2.1276 H   0  0  0  0  0  0  0  0  0  0  0  0
    7.3539   -1.0166   -3.0898 H   0  0  0  0  0  0  0  0  0  0  0  0
    7.6408   -1.8454   -5.3926 H   0  0  0  0  0  0  0  0  0  0  0  0
    5.9830   -2.7971   -7.6228 H   0  0  0  0  0  0  0  0  0  0  0  0
    1.5648   -2.5850   -6.7291 H   0  0  0  0  0  0  0  0  0  0  0  0
    0.4248   -3.6285   -7.3413 H   0  0  0  0  0  0  0  0  0  0  0  0
   -0.5816   -3.9255   -9.2212 H   0  0  0  0  0  0  0  0  0  0  0  0
   -1.3461   -5.2650  -11.1234 H   0  0  0  0  0  0  0  0  0  0  0  0
    0.2849   -6.1804  -12.7544 H   0  0  0  0  0  0  0  0  0  0  0  0
    2.6972   -5.7279  -12.4744 H   0  0  0  0  0  0  0  0  0  0  0  0
    4.4541   -4.7015  -11.1867 H   0  0  0  0  0  0  0  0  0  0  0  0
    3.0780   -1.5638   -3.3918 H   0  0  0  0  0  0  0  0  0  0  0  0
    4.2444   -1.0200    0.1567 H   0  0  0  0  0  0  0  0  0  0  0  0
    3.6043   -2.0369   -1.1004 H   0  0  0  0  0  0  0  0  0  0  0  0
    1.8760   -0.5341   -0.5081 H   0  0  0  0  0  0  0  0  0  0  0  0
    2.4047   -0.0141   -2.1011 H   0  0  0  0  0  0  0  0  0  0  0  0
  1  2  1  0  0  0  0
  1 30  1  0  0  0  0
  1 31  1  0  0  0  0
  1 32  1  0  0  0  0
  2  3  1  0  0  0  0
  2 29  1  0  0  0  0
  3  4  1  0  0  0  0
  3 33  1  0  0  0  0
  3 34  1  0  0  0  0
  4  5  1  0  0  0  0
  4 35  1  0  0  0  0
  4 36  1  0  0  0  0
  5  6  1  0  0  0  0
  5 37  1  0  0  0  0
  5 38  1  0  0  0  0
  6  7  1  0  0  0  0
  6 28  1  0  0  0  0
  7  8  1  0  0  0  0
  7 27  2  0  0  0  0
  8  9  2  0  0  0  0
  8 39  1  0  0  0  0
  9 10  1  0  0  0  0
  9 40  1  0  0  0  0
 10 11  1  0  0  0  0
 10 26  2  0  0  0  0
 11 12  1  0  0  0  0
 11 41  1  0  0  0  0
 12 13  1  0  0  0  0
 12 25  2  0  0  0  0
 13 14  2  0  0  0  0
 13 23  1  0  0  0  0
 14 15  1  0  0  0  0
 14 16  1  0  0  0  0
 15 42  1  0  0  0  0
 15 43  1  0  0  0  0
 16 17  1  0  0  0  0
 16 21  2  0  0  0  0
 17 18  2  0  0  0  0
 17 44  1  0  0  0  0
 18 19  1  0  0  0  0
 18 45  1  0  0  0  0
 19 20  2  0  0  0  0
 19 46  1  0  0  0  0
 20 21  1  0  0  0  0
 20 47  1  0  0  0  0
 21 22  1  0  0  0  0
 22 23  1  0  0  0  0
 22 48  1  0  0  0  0
 23 24  2  0  0  0  0
 25 26  1  0  0  0  0
 26 27  1  0  0  0  0
 27 49  1  0  0  0  0
 28 29  1  0  0  0  0
 28 50  1  0  0  0  0
 28 51  1  0  0  0  0
 29 52  1  0  0  0  0
 29 53  1  0  0  0  0
M  END
$$$$
