CHEMBL4303275
 OpenBabel04072215383D

 48 49  0  0  1  0  0  0  0  0999 V2000
    0.9565    0.1301   -0.0256 C   0  0  0  0  0  0  0  0  0  0  0  0
    2.4833    0.1641    0.0090 C   0  0  0  0  0  0  0  0  0  0  0  0
    3.0341    0.2861   -1.3538 N   0  0  0  0  0  0  0  0  0  0  0  0
    3.3299   -0.8199   -2.1955 C   0  0  0  0  0  0  0  0  0  0  0  0
    3.2214   -2.0966   -1.6579 N   0  0  0  0  0  0  0  0  0  0  0  0
    3.7317   -0.6497   -3.4914 C   0  0  0  0  0  0  0  0  0  0  0  0
    4.0353   -1.8206   -4.4166 C   0  0  0  0  0  0  0  0  0  0  0  0
    3.6285   -2.9559   -4.1770 O   0  0  0  0  0  0  0  0  0  0  0  0
    4.7648   -1.5236   -5.5527 N   0  0  0  0  0  0  0  0  0  0  0  0
    5.1445   -2.5021   -6.5530 C   0  0  0  0  0  0  0  0  0  0  0  0
    3.8595    0.7430   -3.9924 C   0  0  0  0  0  0  0  0  0  0  0  0
    4.3256    0.9982   -5.1064 O   0  0  0  0  0  0  0  0  0  0  0  0
    3.4133    1.8557   -3.1512 C   0  0  0  0  0  0  0  0  0  0  0  0
    3.3604    3.1464   -3.6779 C   0  0  0  0  0  0  0  0  0  0  0  0
    2.9435    4.1986   -2.8721 C   0  0  0  0  0  0  0  0  0  0  0  0
    2.6266    3.9177   -1.5579 C   0  0  0  0  0  0  0  0  0  0  0  0
    2.2714    4.9856   -0.6624 C   0  0  0  0  0  0  0  0  0  0  0  0
    1.9871    5.9875    0.1222 C   0  0  0  0  0  0  0  0  0  0  0  0
    1.6557    7.1554    1.0368 C   0  0  1  0  0  0  0  0  0  0  0  0
    1.9378    8.4740    0.3154 C   0  0  0  0  0  0  0  0  0  0  0  0
    0.2615    7.0816    1.3432 O   0  0  0  0  0  0  0  0  0  0  0  0
    2.4799    7.0345    2.3385 C   0  0  0  0  0  0  0  0  0  0  0  0
    2.2168    8.1352    3.2198 O   0  0  0  0  0  0  0  0  0  0  0  0
    2.9553    8.0270    4.4281 C   0  0  0  0  0  0  0  0  0  0  0  0
    2.6609    2.6677   -1.0309 N   0  0  0  0  0  0  0  0  0  0  0  0
    3.0361    1.6218   -1.8355 C   0  0  0  0  0  0  0  0  0  0  0  0
    0.5596   -0.0891    0.9705 H   0  0  0  0  0  0  0  0  0  0  0  0
    0.5879   -0.6351   -0.7164 H   0  0  0  0  0  0  0  0  0  0  0  0
    0.5423    1.0913   -0.3442 H   0  0  0  0  0  0  0  0  0  0  0  0
    2.8483   -0.7417    0.5063 H   0  0  0  0  0  0  0  0  0  0  0  0
    2.8295    0.9740    0.6663 H   0  0  0  0  0  0  0  0  0  0  0  0
    2.6571   -2.1823   -0.8305 H   0  0  0  0  0  0  0  0  0  0  0  0
    2.9966   -2.8172   -2.3626 H   0  0  0  0  0  0  0  0  0  0  0  0
    4.9800   -0.5478   -5.7429 H   0  0  0  0  0  0  0  0  0  0  0  0
    4.6608   -3.4626   -6.3874 H   0  0  0  0  0  0  0  0  0  0  0  0
    6.2319   -2.6257   -6.5233 H   0  0  0  0  0  0  0  0  0  0  0  0
    4.8689   -2.1132   -7.5374 H   0  0  0  0  0  0  0  0  0  0  0  0
    3.6379    3.3339   -4.7129 H   0  0  0  0  0  0  0  0  0  0  0  0
    2.8845    5.2070   -3.2657 H   0  0  0  0  0  0  0  0  0  0  0  0
    1.3484    8.5530   -0.6059 H   0  0  0  0  0  0  0  0  0  0  0  0
    2.9960    8.5655    0.0457 H   0  0  0  0  0  0  0  0  0  0  0  0
    1.6604    9.3338    0.9348 H   0  0  0  0  0  0  0  0  0  0  0  0
   -0.2226    7.1819    0.5077 H   0  0  0  0  0  0  0  0  0  0  0  0
    3.5523    7.0218    2.1047 H   0  0  0  0  0  0  0  0  0  0  0  0
    2.2243    6.1009    2.8557 H   0  0  0  0  0  0  0  0  0  0  0  0
    2.6577    8.8463    5.0878 H   0  0  0  0  0  0  0  0  0  0  0  0
    4.0260    8.1148    4.2219 H   0  0  0  0  0  0  0  0  0  0  0  0
    2.7444    7.0787    4.9321 H   0  0  0  0  0  0  0  0  0  0  0  0
  1  2  1  0  0  0  0
  1 27  1  0  0  0  0
  1 28  1  0  0  0  0
  1 29  1  0  0  0  0
  2  3  1  0  0  0  0
  2 30  1  0  0  0  0
  2 31  1  0  0  0  0
  3  4  1  0  0  0  0
  3 26  1  0  0  0  0
  4  5  1  0  0  0  0
  4  6  2  0  0  0  0
  5 32  1  0  0  0  0
  5 33  1  0  0  0  0
  6  7  1  0  0  0  0
  6 11  1  0  0  0  0
  7  8  2  0  0  0  0
  7  9  1  0  0  0  0
  9 10  1  0  0  0  0
  9 34  1  0  0  0  0
 10 35  1  0  0  0  0
 10 36  1  0  0  0  0
 10 37  1  0  0  0  0
 11 12  2  0  0  0  0
 11 13  1  0  0  0  0
 13 14  1  0  0  0  0
 13 26  2  0  0  0  0
 14 15  2  0  0  0  0
 14 38  1  0  0  0  0
 15 16  1  0  0  0  0
 15 39  1  0  0  0  0
 16 17  1  0  0  0  0
 16 25  2  0  0  0  0
 17 18  3  0  0  0  0
 19 18  1  6  0  0  0
 19 20  1  0  0  0  0
 19 21  1  0  0  0  0
 19 22  1  0  0  0  0
 20 40  1  0  0  0  0
 20 41  1  0  0  0  0
 20 42  1  0  0  0  0
 21 43  1  0  0  0  0
 22 23  1  0  0  0  0
 22 44  1  0  0  0  0
 22 45  1  0  0  0  0
 23 24  1  0  0  0  0
 24 46  1  0  0  0  0
 24 47  1  0  0  0  0
 24 48  1  0  0  0  0
 25 26  1  0  0  0  0
M  END
$$$$
