CHEMBL2003817
 OpenBabel04072215363D

 34 36  0  0  0  0  0  0  0  0999 V2000
    2.5266   -0.3168    3.3703 O   0  0  0  0  0  0  0  0  0  0  0  0
    2.2681   -0.1014    2.1888 C   0  0  0  0  0  0  0  0  0  0  0  0
    0.9521   -0.1398    1.7985 N   0  0  0  0  0  0  0  0  0  0  0  0
    0.4361   -0.0390    0.5017 C   0  0  0  0  0  0  0  0  0  0  0  0
   -0.9362    0.0838    0.3114 C   0  0  0  0  0  0  0  0  0  0  0  0
   -1.5044    0.1956   -0.9165 N   0  0  0  0  0  0  0  0  0  0  0  0
   -0.6460    0.1484   -1.9585 C   0  0  0  0  0  0  0  0  0  0  0  0
    0.7167    0.0095   -1.7828 C   0  0  0  0  0  0  0  0  0  0  0  0
    1.2836   -0.0580   -0.5562 N   0  0  0  0  0  0  0  0  0  0  0  0
    3.1632    0.2575    1.2189 N   0  0  0  0  0  0  0  0  0  0  0  0
    4.5682    0.3596    1.2875 C   0  0  0  0  0  0  0  0  0  0  0  0
    5.2753   -0.2285    2.3297 C   0  0  0  0  0  0  0  0  0  0  0  0
    6.6522   -0.1856    2.2900 C   0  0  0  0  0  0  0  0  0  0  0  0
    7.3594    0.3977    1.3035 N   0  0  0  0  0  0  0  0  0  0  0  0
    6.6853    0.9921    0.3112 C   0  0  0  0  0  0  0  0  0  0  0  0
    7.4284    1.6038   -0.6918 C   0  0  0  0  0  0  0  0  0  0  0  0
    6.8367    2.2880   -1.7638 C   0  0  0  0  0  0  0  0  0  0  0  0
    7.6798    2.9314   -2.8352 C   0  0  0  0  0  0  0  0  0  0  0  0
    9.0194    2.7665   -2.6547 F   0  0  0  0  0  0  0  0  0  0  0  0
    7.4078    2.4332   -4.0743 F   0  0  0  0  0  0  0  0  0  0  0  0
    7.4764    4.2746   -2.9223 F   0  0  0  0  0  0  0  0  0  0  0  0
    5.4442    2.3647   -1.8142 C   0  0  0  0  0  0  0  0  0  0  0  0
    4.6735    1.7412   -0.8290 C   0  0  0  0  0  0  0  0  0  0  0  0
    5.2752    1.0249    0.2436 C   0  0  0  0  0  0  0  0  0  0  0  0
    0.3131   -0.2710    2.5700 H   0  0  0  0  0  0  0  0  0  0  0  0
   -1.6308    0.1217    1.1431 H   0  0  0  0  0  0  0  0  0  0  0  0
   -1.0841    0.2285   -2.9475 H   0  0  0  0  0  0  0  0  0  0  0  0
    1.3977   -0.0537   -2.6244 H   0  0  0  0  0  0  0  0  0  0  0  0
    2.7328    0.4308    0.3167 H   0  0  0  0  0  0  0  0  0  0  0  0
    4.7913   -0.7547    3.1420 H   0  0  0  0  0  0  0  0  0  0  0  0
    7.2450   -0.6484    3.0715 H   0  0  0  0  0  0  0  0  0  0  0  0
    8.5153    1.5467   -0.6240 H   0  0  0  0  0  0  0  0  0  0  0  0
    4.9525    2.9135   -2.6170 H   0  0  0  0  0  0  0  0  0  0  0  0
    3.5932    1.8467   -0.8935 H   0  0  0  0  0  0  0  0  0  0  0  0
  1  2  2  0  0  0  0
  2  3  1  0  0  0  0
  2 10  1  0  0  0  0
  3  4  1  0  0  0  0
  3 25  1  0  0  0  0
  4  5  1  0  0  0  0
  4  9  2  0  0  0  0
  5  6  2  0  0  0  0
  5 26  1  0  0  0  0
  6  7  1  0  0  0  0
  7  8  2  0  0  0  0
  7 27  1  0  0  0  0
  8  9  1  0  0  0  0
  8 28  1  0  0  0  0
 10 11  1  0  0  0  0
 10 29  1  0  0  0  0
 11 12  1  0  0  0  0
 11 24  2  0  0  0  0
 12 13  2  0  0  0  0
 12 30  1  0  0  0  0
 13 14  1  0  0  0  0
 13 31  1  0  0  0  0
 14 15  2  0  0  0  0
 15 16  1  0  0  0  0
 15 24  1  0  0  0  0
 16 17  2  0  0  0  0
 16 32  1  0  0  0  0
 17 18  1  0  0  0  0
 17 22  1  0  0  0  0
 18 19  1  0  0  0  0
 18 20  1  0  0  0  0
 18 21  1  0  0  0  0
 22 23  2  0  0  0  0
 22 33  1  0  0  0  0
 23 24  1  0  0  0  0
 23 34  1  0  0  0  0
M  END
$$$$
