CHEMBL214665
 OpenBabel04072215363D

 54 58  0  0  0  0  0  0  0  0999 V2000
    3.0185   -1.9893   -0.3244 C   0  0  0  0  0  0  0  0  0  0  0  0
    2.8107   -0.5849   -0.1853 O   0  0  0  0  0  0  0  0  0  0  0  0
    3.4732    0.1984   -1.0915 C   0  0  0  0  0  0  0  0  0  0  0  0
    2.8848    1.4272   -1.3669 C   0  0  0  0  0  0  0  0  0  0  0  0
    3.3957    2.2710   -2.3464 C   0  0  0  0  0  0  0  0  0  0  0  0
    2.8006    3.4257   -2.7474 O   0  0  0  0  0  0  0  0  0  0  0  0
    1.4144    3.8126   -2.7481 C   0  0  0  0  0  0  0  0  0  0  0  0
    0.3111    3.0956   -1.9662 C   0  0  0  0  0  0  0  0  0  0  0  0
   -0.1274    1.7747   -2.6005 C   0  0  0  0  0  0  0  0  0  0  0  0
   -0.4847    1.9121   -4.0181 N   0  0  0  0  0  0  0  0  0  0  0  0
   -0.7362    0.5781   -4.5812 C   0  0  0  0  0  0  0  0  0  0  0  0
    0.5521    2.5970   -4.7998 C   0  0  0  0  0  0  0  0  0  0  0  0
    0.9488    3.9478   -4.2031 C   0  0  0  0  0  0  0  0  0  0  0  0
    4.6726    1.9502   -2.9397 C   0  0  0  0  0  0  0  0  0  0  0  0
    5.4720    2.7469   -3.8148 C   0  0  0  0  0  0  0  0  0  0  0  0
    5.0717    4.0635   -4.1432 N   0  0  0  0  0  0  0  0  0  0  0  0
    5.8445    5.1637   -4.5736 C   0  0  0  0  0  0  0  0  0  0  0  0
    7.1072    5.5432   -4.0697 C   0  0  0  0  0  0  0  0  0  0  0  0
    7.9203    4.6930   -2.7967 Cl  0  0  0  0  0  0  0  0  0  0  0  0
    7.7470    6.7357   -4.5033 C   0  0  0  0  0  0  0  0  0  0  0  0
    7.1412    7.5782   -5.4362 C   0  0  0  0  0  0  0  0  0  0  0  0
    5.9214    7.1881   -5.9380 C   0  0  0  0  0  0  0  0  0  0  0  0
    5.3016    6.0247   -5.5303 C   0  0  0  0  0  0  0  0  0  0  0  0
    4.0977    5.8493   -6.1588 O   0  0  0  0  0  0  0  0  0  0  0  0
    4.0737    6.9983   -7.0342 C   0  0  0  0  0  0  0  0  0  0  0  0
    5.1901    7.8859   -6.8472 O   0  0  0  0  0  0  0  0  0  0  0  0
    6.6392    2.3175   -4.3330 N   0  0  0  0  0  0  0  0  0  0  0  0
    7.0711    1.1199   -3.9388 C   0  0  0  0  0  0  0  0  0  0  0  0
    6.4381    0.3002   -3.1032 N   0  0  0  0  0  0  0  0  0  0  0  0
    5.2742    0.7224   -2.6099 C   0  0  0  0  0  0  0  0  0  0  0  0
    4.6631   -0.1362   -1.7166 C   0  0  0  0  0  0  0  0  0  0  0  0
    2.2610   -2.5019    0.2762 H   0  0  0  0  0  0  0  0  0  0  0  0
    4.0017   -2.2769    0.0608 H   0  0  0  0  0  0  0  0  0  0  0  0
    2.8934   -2.3138   -1.3634 H   0  0  0  0  0  0  0  0  0  0  0  0
    2.0182    1.6819   -0.7765 H   0  0  0  0  0  0  0  0  0  0  0  0
    1.4494    4.8306   -2.3387 H   0  0  0  0  0  0  0  0  0  0  0  0
   -0.5692    3.7545   -1.9518 H   0  0  0  0  0  0  0  0  0  0  0  0
    0.5711    2.9709   -0.9158 H   0  0  0  0  0  0  0  0  0  0  0  0
   -1.0047    1.4130   -2.0473 H   0  0  0  0  0  0  0  0  0  0  0  0
    0.6440    1.0113   -2.4833 H   0  0  0  0  0  0  0  0  0  0  0  0
   -1.6033    0.1142   -4.0986 H   0  0  0  0  0  0  0  0  0  0  0  0
    0.1255   -0.0903   -4.4510 H   0  0  0  0  0  0  0  0  0  0  0  0
   -0.9579    0.6363   -5.6517 H   0  0  0  0  0  0  0  0  0  0  0  0
    0.1570    2.7854   -5.8070 H   0  0  0  0  0  0  0  0  0  0  0  0
    1.4437    1.9696   -4.9123 H   0  0  0  0  0  0  0  0  0  0  0  0
    0.0832    4.6234   -4.2443 H   0  0  0  0  0  0  0  0  0  0  0  0
    1.7362    4.3948   -4.8195 H   0  0  0  0  0  0  0  0  0  0  0  0
    4.1382    4.0533   -4.5434 H   0  0  0  0  0  0  0  0  0  0  0  0
    8.7096    7.0205   -4.0754 H   0  0  0  0  0  0  0  0  0  0  0  0
    7.6049    8.5101   -5.7429 H   0  0  0  0  0  0  0  0  0  0  0  0
    3.1464    7.5539   -6.8533 H   0  0  0  0  0  0  0  0  0  0  0  0
    4.0771    6.6516   -8.0744 H   0  0  0  0  0  0  0  0  0  0  0  0
    8.0283    0.7862   -4.3267 H   0  0  0  0  0  0  0  0  0  0  0  0
    5.1704   -1.0682   -1.4823 H   0  0  0  0  0  0  0  0  0  0  0  0
  1  2  1  0  0  0  0
  1 32  1  0  0  0  0
  1 33  1  0  0  0  0
  1 34  1  0  0  0  0
  2  3  1  0  0  0  0
  3  4  1  0  0  0  0
  3 31  2  0  0  0  0
  4  5  2  0  0  0  0
  4 35  1  0  0  0  0
  5  6  1  0  0  0  0
  5 14  1  0  0  0  0
  6  7  1  0  0  0  0
  7  8  1  0  0  0  0
  7 13  1  0  0  0  0
  7 36  1  0  0  0  0
  8  9  1  0  0  0  0
  8 37  1  0  0  0  0
  8 38  1  0  0  0  0
  9 10  1  0  0  0  0
  9 39  1  0  0  0  0
  9 40  1  0  0  0  0
 10 11  1  0  0  0  0
 10 12  1  0  0  0  0
 11 41  1  0  0  0  0
 11 42  1  0  0  0  0
 11 43  1  0  0  0  0
 12 13  1  0  0  0  0
 12 44  1  0  0  0  0
 12 45  1  0  0  0  0
 13 46  1  0  0  0  0
 13 47  1  0  0  0  0
 14 15  1  0  0  0  0
 14 30  2  0  0  0  0
 15 16  1  0  0  0  0
 15 27  2  0  0  0  0
 16 17  1  0  0  0  0
 16 48  1  0  0  0  0
 17 18  1  0  0  0  0
 17 23  2  0  0  0  0
 18 19  1  0  0  0  0
 18 20  2  0  0  0  0
 20 21  1  0  0  0  0
 20 49  1  0  0  0  0
 21 22  2  0  0  0  0
 21 50  1  0  0  0  0
 22 23  1  0  0  0  0
 22 26  1  0  0  0  0
 23 24  1  0  0  0  0
 24 25  1  0  0  0  0
 25 26  1  0  0  0  0
 25 51  1  0  0  0  0
 25 52  1  0  0  0  0
 27 28  1  0  0  0  0
 28 29  2  0  0  0  0
 28 53  1  0  0  0  0
 29 30  1  0  0  0  0
 30 31  1  0  0  0  0
 31 54  1  0  0  0  0
M  END
$$$$
