CHEMBL189017
 OpenBabel04072215363D

 51 54  0  0  0  0  0  0  0  0999 V2000
  -12.4414    3.0792   -3.7939 Cl  0  0  0  0  0  0  0  0  0  0  0  0
  -10.9827    2.2188   -3.4547 C   0  0  0  0  0  0  0  0  0  0  0  0
  -10.2096    2.6514   -2.3771 C   0  0  0  0  0  0  0  0  0  0  0  0
   -9.0221    1.9887   -2.0566 C   0  0  0  0  0  0  0  0  0  0  0  0
   -8.6011    0.8723   -2.7917 C   0  0  0  0  0  0  0  0  0  0  0  0
   -7.3608    0.2319   -2.5405 N   0  0  0  0  0  0  0  0  0  0  0  0
   -6.8071    0.0588   -1.2482 C   0  0  0  0  0  0  0  0  0  0  0  0
   -5.4292   -0.1018   -1.0907 C   0  0  0  0  0  0  0  0  0  0  0  0
   -4.8282   -0.3296    0.1016 N   0  0  0  0  0  0  0  0  0  0  0  0
   -5.6756   -0.4278    1.1525 C   0  0  0  0  0  0  0  0  0  0  0  0
   -7.0550   -0.2918    1.0406 C   0  0  0  0  0  0  0  0  0  0  0  0
   -7.9759   -0.3709    2.1812 C   0  0  0  0  0  0  0  0  0  0  0  0
   -9.2736   -0.8605    2.0414 C   0  0  0  0  0  0  0  0  0  0  0  0
  -10.1714   -0.9624    3.0517 N   0  0  0  0  0  0  0  0  0  0  0  0
   -9.7714   -0.5081    4.2614 C   0  0  0  0  0  0  0  0  0  0  0  0
   -8.5197    0.0408    4.5330 C   0  0  0  0  0  0  0  0  0  0  0  0
   -8.2466    0.5659    5.7924 N   0  0  0  0  0  0  0  0  0  0  0  0
   -7.1956    1.5553    5.9706 C   0  0  0  0  0  0  0  0  0  0  0  0
   -7.5532    2.4525    7.1526 C   0  0  0  0  0  0  0  0  0  0  0  0
   -6.5073    3.5518    7.3309 C   0  0  0  0  0  0  0  0  0  0  0  0
   -6.8474    4.4618    8.4799 C   0  0  0  0  0  0  0  0  0  0  0  0
   -6.3984    4.1799    9.7717 C   0  0  0  0  0  0  0  0  0  0  0  0
   -6.7533    5.0400   10.7992 C   0  0  0  0  0  0  0  0  0  0  0  0
   -7.5146    6.1421   10.6300 N   0  0  0  0  0  0  0  0  0  0  0  0
   -7.9447    6.3920    9.3750 C   0  0  0  0  0  0  0  0  0  0  0  0
   -7.6455    5.5920    8.2834 C   0  0  0  0  0  0  0  0  0  0  0  0
   -7.6166    0.0732    3.4644 C   0  0  0  0  0  0  0  0  0  0  0  0
   -7.6235   -0.0509   -0.1741 N   0  0  0  0  0  0  0  0  0  0  0  0
   -9.3594    0.4734   -3.8983 C   0  0  0  0  0  0  0  0  0  0  0  0
  -10.5546    1.1290   -4.2199 C   0  0  0  0  0  0  0  0  0  0  0  0
  -11.4503    0.5459   -5.5784 Cl  0  0  0  0  0  0  0  0  0  0  0  0
  -10.5225    3.5033   -1.7781 H   0  0  0  0  0  0  0  0  0  0  0  0
   -8.4321    2.3516   -1.2176 H   0  0  0  0  0  0  0  0  0  0  0  0
   -6.6666    0.6147   -3.1763 H   0  0  0  0  0  0  0  0  0  0  0  0
   -4.7515   -0.0360   -1.9346 H   0  0  0  0  0  0  0  0  0  0  0  0
   -5.1952   -0.6367    2.1032 H   0  0  0  0  0  0  0  0  0  0  0  0
   -9.6442   -1.2005    1.0774 H   0  0  0  0  0  0  0  0  0  0  0  0
  -10.5332   -0.5511    5.0357 H   0  0  0  0  0  0  0  0  0  0  0  0
   -8.3337   -0.1186    6.5417 H   0  0  0  0  0  0  0  0  0  0  0  0
   -7.1076    2.1916    5.0811 H   0  0  0  0  0  0  0  0  0  0  0  0
   -6.2320    1.0602    6.1354 H   0  0  0  0  0  0  0  0  0  0  0  0
   -7.6404    1.8520    8.0665 H   0  0  0  0  0  0  0  0  0  0  0  0
   -8.5417    2.9020    6.9836 H   0  0  0  0  0  0  0  0  0  0  0  0
   -6.4206    4.1463    6.4121 H   0  0  0  0  0  0  0  0  0  0  0  0
   -5.5175    3.1077    7.4959 H   0  0  0  0  0  0  0  0  0  0  0  0
   -5.7848    3.3106    9.9811 H   0  0  0  0  0  0  0  0  0  0  0  0
   -6.4242    4.8581   11.8183 H   0  0  0  0  0  0  0  0  0  0  0  0
   -8.5578    7.2819    9.2648 H   0  0  0  0  0  0  0  0  0  0  0  0
   -8.0303    5.8493    7.3019 H   0  0  0  0  0  0  0  0  0  0  0  0
   -6.6197    0.4666    3.6323 H   0  0  0  0  0  0  0  0  0  0  0  0
   -9.0307   -0.3740   -4.4952 H   0  0  0  0  0  0  0  0  0  0  0  0
  1  2  1  0  0  0  0
  2  3  1  0  0  0  0
  2 30  2  0  0  0  0
  3  4  2  0  0  0  0
  3 32  1  0  0  0  0
  4  5  1  0  0  0  0
  4 33  1  0  0  0  0
  5  6  1  0  0  0  0
  5 29  2  0  0  0  0
  6  7  1  0  0  0  0
  6 34  1  0  0  0  0
  7  8  1  0  0  0  0
  7 28  2  0  0  0  0
  8  9  2  0  0  0  0
  8 35  1  0  0  0  0
  9 10  1  0  0  0  0
 10 11  2  0  0  0  0
 10 36  1  0  0  0  0
 11 12  1  0  0  0  0
 11 28  1  0  0  0  0
 12 13  1  0  0  0  0
 12 27  2  0  0  0  0
 13 14  2  0  0  0  0
 13 37  1  0  0  0  0
 14 15  1  0  0  0  0
 15 16  2  0  0  0  0
 15 38  1  0  0  0  0
 16 17  1  0  0  0  0
 16 27  1  0  0  0  0
 17 18  1  0  0  0  0
 17 39  1  0  0  0  0
 18 19  1  0  0  0  0
 18 40  1  0  0  0  0
 18 41  1  0  0  0  0
 19 20  1  0  0  0  0
 19 42  1  0  0  0  0
 19 43  1  0  0  0  0
 20 21  1  0  0  0  0
 20 44  1  0  0  0  0
 20 45  1  0  0  0  0
 21 22  1  0  0  0  0
 21 26  2  0  0  0  0
 22 23  2  0  0  0  0
 22 46  1  0  0  0  0
 23 24  1  0  0  0  0
 23 47  1  0  0  0  0
 24 25  2  0  0  0  0
 25 26  1  0  0  0  0
 25 48  1  0  0  0  0
 26 49  1  0  0  0  0
 27 50  1  0  0  0  0
 29 30  1  0  0  0  0
 29 51  1  0  0  0  0
 30 31  1  0  0  0  0
M  END
$$$$
