CHEMBL4247248
 OpenBabel04072215383D

 47 50  0  0  0  0  0  0  0  0999 V2000
    1.4310   -0.3969    1.3337 C   0  0  0  0  0  0  0  0  0  0  0  0
    2.7136   -0.1855    0.5742 C   0  0  0  0  0  0  0  0  0  0  0  0
    3.2792    1.1135    0.5326 C   0  0  0  0  0  0  0  0  0  0  0  0
    4.5139    1.4157   -0.0947 C   0  0  0  0  0  0  0  0  0  0  0  0
    5.1118    2.7532   -0.0427 C   0  0  0  0  0  0  0  0  0  0  0  0
    5.0060    3.5018    1.1398 C   0  0  0  0  0  0  0  0  0  0  0  0
    5.5598    4.7742    1.2551 C   0  0  0  0  0  0  0  0  0  0  0  0
    6.2990    5.3303    0.2101 C   0  0  0  0  0  0  0  0  0  0  0  0
    6.9560    6.5740    0.3355 N   0  0  0  0  0  0  0  0  0  0  0  0
    7.2894    7.1464    1.5487 C   0  0  0  0  0  0  0  0  0  0  0  0
    7.1852    6.5841    2.6377 O   0  0  0  0  0  0  0  0  0  0  0  0
    7.7213    8.4570    1.4122 N   0  0  0  0  0  0  0  0  0  0  0  0
    8.0300    9.2055    2.5730 C   0  0  0  0  0  0  0  0  0  0  0  0
    7.4853   10.4753    2.7269 C   0  0  0  0  0  0  0  0  0  0  0  0
    7.6172   11.1334    3.9505 C   0  0  0  0  0  0  0  0  0  0  0  0
    8.3382   10.5557    5.0082 C   0  0  0  0  0  0  0  0  0  0  0  0
    8.3634   11.4360    6.4905 Cl  0  0  0  0  0  0  0  0  0  0  0  0
    8.9731    9.3222    4.8410 C   0  0  0  0  0  0  0  0  0  0  0  0
    9.8190    8.6314    5.8756 C   0  0  0  0  0  0  0  0  0  0  0  0
    9.9563    9.2664    7.0675 F   0  0  0  0  0  0  0  0  0  0  0  0
    9.3496    7.3862    6.1808 F   0  0  0  0  0  0  0  0  0  0  0  0
   11.0939    8.4339    5.4268 F   0  0  0  0  0  0  0  0  0  0  0  0
    8.8024    8.6591    3.6060 C   0  0  0  0  0  0  0  0  0  0  0  0
    6.3721    4.6301   -0.9936 C   0  0  0  0  0  0  0  0  0  0  0  0
    5.7623    3.3675   -1.1225 C   0  0  0  0  0  0  0  0  0  0  0  0
    5.0387    0.2414   -0.6626 C   0  0  0  0  0  0  0  0  0  0  0  0
    6.2296    0.0206   -1.3166 C   0  0  0  0  0  0  0  0  0  0  0  0
    7.3137    0.7574   -1.6326 N   0  0  0  0  0  0  0  0  0  0  0  0
    6.2849   -1.2868   -1.7047 O   0  0  0  0  0  0  0  0  0  0  0  0
    5.1663   -1.9692   -1.2692 N   0  0  0  0  0  0  0  0  0  0  0  0
    4.4251   -1.0606   -0.6318 C   0  0  0  0  0  0  0  0  0  0  0  0
    3.2426   -1.2959   -0.0035 N   0  0  0  0  0  0  0  0  0  0  0  0
    1.0823    0.5252    1.8118 H   0  0  0  0  0  0  0  0  0  0  0  0
    1.5864   -1.1430    2.1201 H   0  0  0  0  0  0  0  0  0  0  0  0
    0.6505   -0.7473    0.6554 H   0  0  0  0  0  0  0  0  0  0  0  0
    2.7318    1.9177    1.0251 H   0  0  0  0  0  0  0  0  0  0  0  0
    4.4908    3.1032    2.0121 H   0  0  0  0  0  0  0  0  0  0  0  0
    5.4012    5.3039    2.1911 H   0  0  0  0  0  0  0  0  0  0  0  0
    7.4456    6.9245   -0.4739 H   0  0  0  0  0  0  0  0  0  0  0  0
    7.2655    8.9553    0.6627 H   0  0  0  0  0  0  0  0  0  0  0  0
    6.8857   10.9296    1.9415 H   0  0  0  0  0  0  0  0  0  0  0  0
    7.1219   12.0891    4.0905 H   0  0  0  0  0  0  0  0  0  0  0  0
    9.2612    7.6777    3.4711 H   0  0  0  0  0  0  0  0  0  0  0  0
    6.9138    5.0366   -1.8417 H   0  0  0  0  0  0  0  0  0  0  0  0
    5.8233    2.8640   -2.0857 H   0  0  0  0  0  0  0  0  0  0  0  0
    7.5602    1.5416   -1.0348 H   0  0  0  0  0  0  0  0  0  0  0  0
    8.1303    0.2514   -1.9649 H   0  0  0  0  0  0  0  0  0  0  0  0
  1  2  1  0  0  0  0
  1 33  1  0  0  0  0
  1 34  1  0  0  0  0
  1 35  1  0  0  0  0
  2  3  1  0  0  0  0
  2 32  2  0  0  0  0
  3  4  2  0  0  0  0
  3 36  1  0  0  0  0
  4  5  1  0  0  0  0
  4 26  1  0  0  0  0
  5  6  1  0  0  0  0
  5 25  2  0  0  0  0
  6  7  2  0  0  0  0
  6 37  1  0  0  0  0
  7  8  1  0  0  0  0
  7 38  1  0  0  0  0
  8  9  1  0  0  0  0
  8 24  2  0  0  0  0
  9 10  1  0  0  0  0
  9 39  1  0  0  0  0
 10 11  2  0  0  0  0
 10 12  1  0  0  0  0
 12 13  1  0  0  0  0
 12 40  1  0  0  0  0
 13 14  1  0  0  0  0
 13 23  2  0  0  0  0
 14 15  2  0  0  0  0
 14 41  1  0  0  0  0
 15 16  1  0  0  0  0
 15 42  1  0  0  0  0
 16 17  1  0  0  0  0
 16 18  2  0  0  0  0
 18 19  1  0  0  0  0
 18 23  1  0  0  0  0
 19 20  1  0  0  0  0
 19 21  1  0  0  0  0
 19 22  1  0  0  0  0
 23 43  1  0  0  0  0
 24 25  1  0  0  0  0
 24 44  1  0  0  0  0
 25 45  1  0  0  0  0
 26 27  2  0  0  0  0
 26 31  1  0  0  0  0
 27 28  1  0  0  0  0
 27 29  1  0  0  0  0
 28 46  1  0  0  0  0
 28 47  1  0  0  0  0
 29 30  1  0  0  0  0
 30 31  2  0  0  0  0
 31 32  1  0  0  0  0
M  END
$$$$
