CHEMBL364626
 OpenBabel04072215373D

 46 49  0  0  0  0  0  0  0  0999 V2000
    1.2275    0.6757    0.1215 O   0  0  0  0  0  0  0  0  0  0  0  0
    2.3612    0.1945    0.0753 C   0  0  0  0  0  0  0  0  0  0  0  0
    2.9476   -0.3097   -1.0767 N   0  0  0  0  0  0  0  0  0  0  0  0
    2.3311   -0.2949   -2.3498 C   0  0  0  0  0  0  0  0  0  0  0  0
    1.2736    0.5528   -2.6726 C   0  0  0  0  0  0  0  0  0  0  0  0
    0.5861    0.4299   -3.8835 C   0  0  0  0  0  0  0  0  0  0  0  0
    0.9223   -0.5716   -4.7955 C   0  0  0  0  0  0  0  0  0  0  0  0
    0.0348   -0.9278   -5.9178 C   0  0  0  0  0  0  0  0  0  0  0  0
    0.5493   -1.2999   -7.1792 C   0  0  0  0  0  0  0  0  0  0  0  0
   -0.2336   -1.9736   -8.1395 C   0  0  0  0  0  0  0  0  0  0  0  0
   -1.5239   -2.3832   -7.8239 C   0  0  0  0  0  0  0  0  0  0  0  0
   -2.0104   -2.0086   -6.5889 C   0  0  0  0  0  0  0  0  0  0  0  0
   -1.3143   -1.1911   -5.6976 C   0  0  0  0  0  0  0  0  0  0  0  0
   -2.1866   -0.9861   -4.5064 C   0  0  0  0  0  0  0  0  0  0  0  0
   -2.9761   -2.1878   -4.5022 N   0  0  0  0  0  0  0  0  0  0  0  0
   -3.0032   -2.7349   -5.7784 C   0  0  0  0  0  0  0  0  0  0  0  0
   -3.5445   -3.7704   -6.1063 O   0  0  0  0  0  0  0  0  0  0  0  0
    2.0484   -1.3674   -4.5012 C   0  0  0  0  0  0  0  0  0  0  0  0
    2.7561   -1.2246   -3.3012 C   0  0  0  0  0  0  0  0  0  0  0  0
    3.1883    0.0723    1.1785 N   0  0  0  0  0  0  0  0  0  0  0  0
    2.8763    0.4726    2.5004 C   0  0  0  0  0  0  0  0  0  0  0  0
    1.6487    1.0248    2.8721 C   0  0  0  0  0  0  0  0  0  0  0  0
    1.4150    1.4255    4.1924 C   0  0  0  0  0  0  0  0  0  0  0  0
    2.4076    1.2916    5.1601 C   0  0  0  0  0  0  0  0  0  0  0  0
    2.1720    1.7506    6.5816 C   0  0  0  0  0  0  0  0  0  0  0  0
    0.9501    2.3221    6.7765 F   0  0  0  0  0  0  0  0  0  0  0  0
    2.2565    0.7321    7.4818 F   0  0  0  0  0  0  0  0  0  0  0  0
    3.0843    2.6781    6.9776 F   0  0  0  0  0  0  0  0  0  0  0  0
    3.6328    0.7131    4.7997 C   0  0  0  0  0  0  0  0  0  0  0  0
    3.8685    0.3158    3.4740 C   0  0  0  0  0  0  0  0  0  0  0  0
    3.7146   -0.9524   -0.9548 H   0  0  0  0  0  0  0  0  0  0  0  0
    0.9156    1.3129   -1.9812 H   0  0  0  0  0  0  0  0  0  0  0  0
   -0.2647    1.0845   -4.0614 H   0  0  0  0  0  0  0  0  0  0  0  0
    1.6043   -1.1415   -7.3993 H   0  0  0  0  0  0  0  0  0  0  0  0
    0.2138   -2.2806   -9.0816 H   0  0  0  0  0  0  0  0  0  0  0  0
   -2.0895   -3.0481   -8.4672 H   0  0  0  0  0  0  0  0  0  0  0  0
   -2.8822   -0.1565   -4.6983 H   0  0  0  0  0  0  0  0  0  0  0  0
   -1.7040   -0.8407   -3.5419 H   0  0  0  0  0  0  0  0  0  0  0  0
   -2.7702   -2.8812   -3.7920 H   0  0  0  0  0  0  0  0  0  0  0  0
    2.3425   -2.1695   -5.1762 H   0  0  0  0  0  0  0  0  0  0  0  0
    3.5852   -1.8947   -3.0998 H   0  0  0  0  0  0  0  0  0  0  0  0
    4.1283   -0.2534    1.0108 H   0  0  0  0  0  0  0  0  0  0  0  0
    0.8345    1.1702    2.1716 H   0  0  0  0  0  0  0  0  0  0  0  0
    0.4470    1.8698    4.4342 H   0  0  0  0  0  0  0  0  0  0  0  0
    4.4169    0.5905    5.5396 H   0  0  0  0  0  0  0  0  0  0  0  0
    4.8330   -0.1184    3.2275 H   0  0  0  0  0  0  0  0  0  0  0  0
  1  2  2  0  0  0  0
  2  3  1  0  0  0  0
  2 20  1  0  0  0  0
  3  4  1  0  0  0  0
  3 31  1  0  0  0  0
  4  5  1  0  0  0  0
  4 19  2  0  0  0  0
  5  6  2  0  0  0  0
  5 32  1  0  0  0  0
  6  7  1  0  0  0  0
  6 33  1  0  0  0  0
  7  8  1  0  0  0  0
  7 18  2  0  0  0  0
  8  9  1  0  0  0  0
  8 13  2  0  0  0  0
  9 10  2  0  0  0  0
  9 34  1  0  0  0  0
 10 11  1  0  0  0  0
 10 35  1  0  0  0  0
 11 12  2  0  0  0  0
 11 36  1  0  0  0  0
 12 13  1  0  0  0  0
 12 16  1  0  0  0  0
 13 14  1  0  0  0  0
 14 15  1  0  0  0  0
 14 37  1  0  0  0  0
 14 38  1  0  0  0  0
 15 16  1  0  0  0  0
 15 39  1  0  0  0  0
 16 17  2  0  0  0  0
 18 19  1  0  0  0  0
 18 40  1  0  0  0  0
 19 41  1  0  0  0  0
 20 21  1  0  0  0  0
 20 42  1  0  0  0  0
 21 22  1  0  0  0  0
 21 30  2  0  0  0  0
 22 23  2  0  0  0  0
 22 43  1  0  0  0  0
 23 24  1  0  0  0  0
 23 44  1  0  0  0  0
 24 25  1  0  0  0  0
 24 29  2  0  0  0  0
 25 26  1  0  0  0  0
 25 27  1  0  0  0  0
 25 28  1  0  0  0  0
 29 30  1  0  0  0  0
 29 45  1  0  0  0  0
 30 46  1  0  0  0  0
M  END
$$$$
