CHEMBL179307
 OpenBabel04072215363D

 52 55  0  0  0  0  0  0  0  0999 V2000
    5.3585    0.1038   -2.2279 C   0  0  0  0  0  0  0  0  0  0  0  0
    4.2426   -0.3598   -1.4639 O   0  0  0  0  0  0  0  0  0  0  0  0
    4.5420   -1.1221   -0.3665 C   0  0  0  0  0  0  0  0  0  0  0  0
    5.7487   -0.9675    0.3372 C   0  0  0  0  0  0  0  0  0  0  0  0
    6.1466   -1.8410    1.3434 C   0  0  0  0  0  0  0  0  0  0  0  0
    7.3725   -1.6780    1.8667 N   0  0  0  0  0  0  0  0  0  0  0  0
    7.8070   -2.5763    2.7722 C   0  0  0  0  0  0  0  0  0  0  0  0
    7.0743   -3.6744    3.1700 C   0  0  0  0  0  0  0  0  0  0  0  0
    5.8001   -3.8477    2.6341 C   0  0  0  0  0  0  0  0  0  0  0  0
    5.1716   -5.0042    3.0773 O   0  0  0  0  0  0  0  0  0  0  0  0
    4.3235   -5.7139    2.2462 C   0  0  0  0  0  0  0  0  0  0  0  0
    4.4835   -5.8213    0.8706 C   0  0  0  0  0  0  0  0  0  0  0  0
    3.4325   -6.3207    0.0935 C   0  0  0  0  0  0  0  0  0  0  0  0
    2.2571   -6.8009    0.6813 C   0  0  0  0  0  0  0  0  0  0  0  0
    1.1135   -7.1896   -0.0629 N   0  0  0  0  0  0  0  0  0  0  0  0
    0.9787   -7.1267   -1.4368 C   0  0  0  0  0  0  0  0  0  0  0  0
    1.8680   -6.8220   -2.2243 O   0  0  0  0  0  0  0  0  0  0  0  0
   -0.3297   -7.3690   -1.8457 N   0  0  0  0  0  0  0  0  0  0  0  0
   -0.6225   -7.3316   -3.2394 C   0  0  0  0  0  0  0  0  0  0  0  0
    0.1586   -7.9984   -4.1908 C   0  0  0  0  0  0  0  0  0  0  0  0
    1.1237   -8.8494   -3.8101 F   0  0  0  0  0  0  0  0  0  0  0  0
   -0.0658   -7.8276   -5.5561 C   0  0  0  0  0  0  0  0  0  0  0  0
   -1.0942   -6.9928   -5.9913 C   0  0  0  0  0  0  0  0  0  0  0  0
   -1.9162   -6.3634   -5.0548 C   0  0  0  0  0  0  0  0  0  0  0  0
   -1.6861   -6.5505   -3.6912 C   0  0  0  0  0  0  0  0  0  0  0  0
   -2.4648   -5.9100   -2.8051 F   0  0  0  0  0  0  0  0  0  0  0  0
    2.1884   -6.8469    2.0783 C   0  0  0  0  0  0  0  0  0  0  0  0
    3.2185   -6.3003    2.8577 C   0  0  0  0  0  0  0  0  0  0  0  0
    5.2772   -2.8715    1.7397 C   0  0  0  0  0  0  0  0  0  0  0  0
    3.9745   -2.8568    1.1916 C   0  0  0  0  0  0  0  0  0  0  0  0
    3.6220   -2.0583    0.0985 C   0  0  0  0  0  0  0  0  0  0  0  0
    2.3792   -2.3790   -0.3670 O   0  0  0  0  0  0  0  0  0  0  0  0
    1.9633   -1.9365   -1.6462 C   0  0  0  0  0  0  0  0  0  0  0  0
    5.0674    0.1172   -3.2824 H   0  0  0  0  0  0  0  0  0  0  0  0
    6.2434   -0.5402   -2.1535 H   0  0  0  0  0  0  0  0  0  0  0  0
    5.6055    1.1258   -1.9251 H   0  0  0  0  0  0  0  0  0  0  0  0
    6.4410   -0.1704    0.0781 H   0  0  0  0  0  0  0  0  0  0  0  0
    8.8039   -2.3915    3.1658 H   0  0  0  0  0  0  0  0  0  0  0  0
    7.4893   -4.3873    3.8748 H   0  0  0  0  0  0  0  0  0  0  0  0
    5.3572   -5.4211    0.3636 H   0  0  0  0  0  0  0  0  0  0  0  0
    3.5568   -6.2662   -0.9826 H   0  0  0  0  0  0  0  0  0  0  0  0
    0.3258   -7.5468    0.4567 H   0  0  0  0  0  0  0  0  0  0  0  0
   -1.0321   -6.9413   -1.2543 H   0  0  0  0  0  0  0  0  0  0  0  0
    0.5760   -8.3405   -6.2666 H   0  0  0  0  0  0  0  0  0  0  0  0
   -1.2525   -6.8356   -7.0555 H   0  0  0  0  0  0  0  0  0  0  0  0
   -2.7189   -5.7081   -5.3795 H   0  0  0  0  0  0  0  0  0  0  0  0
    1.3165   -7.2541    2.5832 H   0  0  0  0  0  0  0  0  0  0  0  0
    3.1275   -6.2844    3.9408 H   0  0  0  0  0  0  0  0  0  0  0  0
    3.2179   -3.5414    1.5631 H   0  0  0  0  0  0  0  0  0  0  0  0
    1.1597   -2.6072   -1.9724 H   0  0  0  0  0  0  0  0  0  0  0  0
    2.7474   -1.9976   -2.4054 H   0  0  0  0  0  0  0  0  0  0  0  0
    1.5442   -0.9303   -1.5689 H   0  0  0  0  0  0  0  0  0  0  0  0
  1  2  1  0  0  0  0
  1 34  1  0  0  0  0
  1 35  1  0  0  0  0
  1 36  1  0  0  0  0
  2  3  1  0  0  0  0
  3  4  1  0  0  0  0
  3 31  2  0  0  0  0
  4  5  2  0  0  0  0
  4 37  1  0  0  0  0
  5  6  1  0  0  0  0
  5 29  1  0  0  0  0
  6  7  2  0  0  0  0
  7  8  1  0  0  0  0
  7 38  1  0  0  0  0
  8  9  2  0  0  0  0
  8 39  1  0  0  0  0
  9 10  1  0  0  0  0
  9 29  1  0  0  0  0
 10 11  1  0  0  0  0
 11 12  1  0  0  0  0
 11 28  2  0  0  0  0
 12 13  2  0  0  0  0
 12 40  1  0  0  0  0
 13 14  1  0  0  0  0
 13 41  1  0  0  0  0
 14 15  1  0  0  0  0
 14 27  2  0  0  0  0
 15 16  1  0  0  0  0
 15 42  1  0  0  0  0
 16 17  2  0  0  0  0
 16 18  1  0  0  0  0
 18 19  1  0  0  0  0
 18 43  1  0  0  0  0
 19 20  1  0  0  0  0
 19 25  2  0  0  0  0
 20 21  1  0  0  0  0
 20 22  2  0  0  0  0
 22 23  1  0  0  0  0
 22 44  1  0  0  0  0
 23 24  2  0  0  0  0
 23 45  1  0  0  0  0
 24 25  1  0  0  0  0
 24 46  1  0  0  0  0
 25 26  1  0  0  0  0
 27 28  1  0  0  0  0
 27 47  1  0  0  0  0
 28 48  1  0  0  0  0
 29 30  2  0  0  0  0
 30 31  1  0  0  0  0
 30 49  1  0  0  0  0
 31 32  1  0  0  0  0
 32 33  1  0  0  0  0
 33 50  1  0  0  0  0
 33 51  1  0  0  0  0
 33 52  1  0  0  0  0
M  END
$$$$
