CHEMBL4060996
 OpenBabel04072215373D

 54 56  0  0  0  0  0  0  0  0999 V2000
    5.0785   -1.3463   -2.3550 C   0  0  0  0  0  0  0  0  0  0  0  0
    4.2540   -1.8484   -1.3658 O   0  0  0  0  0  0  0  0  0  0  0  0
    4.6095   -2.0014   -0.0633 C   0  0  0  0  0  0  0  0  0  0  0  0
    5.8761   -1.6280    0.4073 C   0  0  0  0  0  0  0  0  0  0  0  0
    6.2098   -1.7825    1.7465 C   0  0  0  0  0  0  0  0  0  0  0  0
    5.2903   -2.3184    2.6794 C   0  0  0  0  0  0  0  0  0  0  0  0
    5.6115   -2.4406    4.0878 N   0  0  0  0  0  0  0  0  0  0  0  0
    6.6883   -1.6299    4.6452 C   0  0  0  0  0  0  0  0  0  0  0  0
    5.0318   -3.5246    4.8528 C   0  0  0  0  0  0  0  0  0  0  0  0
    4.8621   -4.7113    4.1817 N   0  0  0  0  0  0  0  0  0  0  0  0
    4.3739   -5.8497    4.7557 C   0  0  0  0  0  0  0  0  0  0  0  0
    4.2259   -7.1036    3.9551 C   0  0  0  0  0  0  0  0  0  0  0  0
    4.0141   -5.8498    6.0604 N   0  0  0  0  0  0  0  0  0  0  0  0
    4.1366   -4.7064    6.7668 C   0  0  0  0  0  0  0  0  0  0  0  0
    3.7690   -4.5004    8.0719 C   0  0  0  0  0  0  0  0  0  0  0  0
    3.1614   -5.4705    9.0394 C   0  0  0  0  0  0  0  0  0  0  0  0
    1.6582   -5.3870    8.9974 C   0  0  0  0  0  0  0  0  0  0  0  0
    0.9685   -5.7356    7.8227 C   0  0  0  0  0  0  0  0  0  0  0  0
   -0.4253   -5.6690    7.7745 C   0  0  0  0  0  0  0  0  0  0  0  0
   -1.1447   -5.2530    8.8967 C   0  0  0  0  0  0  0  0  0  0  0  0
   -0.4697   -4.9039   10.0700 C   0  0  0  0  0  0  0  0  0  0  0  0
    0.9271   -4.9714   10.1238 C   0  0  0  0  0  0  0  0  0  0  0  0
    4.0275   -3.1765    8.3219 C   0  0  0  0  0  0  0  0  0  0  0  0
    4.5595   -2.5740    7.2304 N   0  0  0  0  0  0  0  0  0  0  0  0
    4.8908   -1.1570    7.2773 C   0  0  0  0  0  0  0  0  0  0  0  0
    4.6351   -3.5228    6.2420 C   0  0  0  0  0  0  0  0  0  0  0  0
    4.0205   -2.7078    2.1902 C   0  0  0  0  0  0  0  0  0  0  0  0
    3.6875   -2.5463    0.8377 C   0  0  0  0  0  0  0  0  0  0  0  0
    2.6385    2.6614   -0.2475 Cl  0  0  0  0  0  0  0  0  0  0  0  0
    4.5302   -1.3219   -3.3174 H   0  0  0  0  0  0  0  0  0  0  0  0
    5.9729   -1.9964   -2.4707 H   0  0  0  0  0  0  0  0  0  0  0  0
    5.3979   -0.3111   -2.1036 H   0  0  0  0  0  0  0  0  0  0  0  0
    6.6218   -1.2093   -0.2540 H   0  0  0  0  0  0  0  0  0  0  0  0
    7.2100   -1.4858    2.0105 H   0  0  0  0  0  0  0  0  0  0  0  0
    7.1066   -0.8909    3.9468 H   0  0  0  0  0  0  0  0  0  0  0  0
    7.5110   -2.2730    5.0192 H   0  0  0  0  0  0  0  0  0  0  0  0
    6.3311   -0.9447    5.3840 H   0  0  0  0  0  0  0  0  0  0  0  0
    4.5684   -6.9496    2.9103 H   0  0  0  0  0  0  0  0  0  0  0  0
    3.1594   -7.4134    3.9409 H   0  0  0  0  0  0  0  0  0  0  0  0
    4.8288   -7.9153    4.4146 H   0  0  0  0  0  0  0  0  0  0  0  0
    3.5534   -5.2373   10.0543 H   0  0  0  0  0  0  0  0  0  0  0  0
    3.4794   -6.5066    8.7984 H   0  0  0  0  0  0  0  0  0  0  0  0
    1.5084   -6.0641    6.9453 H   0  0  0  0  0  0  0  0  0  0  0  0
   -0.9464   -5.9418    6.8660 H   0  0  0  0  0  0  0  0  0  0  0  0
   -2.2249   -5.2027    8.8565 H   0  0  0  0  0  0  0  0  0  0  0  0
   -1.0300   -4.5817   10.9380 H   0  0  0  0  0  0  0  0  0  0  0  0
    1.4345   -4.6971   11.0404 H   0  0  0  0  0  0  0  0  0  0  0  0
    3.8351   -2.6766    9.2637 H   0  0  0  0  0  0  0  0  0  0  0  0
    4.5019   -0.6906    8.2077 H   0  0  0  0  0  0  0  0  0  0  0  0
    4.4182   -0.6203    6.4273 H   0  0  0  0  0  0  0  0  0  0  0  0
    5.9881   -1.0369    7.3698 H   0  0  0  0  0  0  0  0  0  0  0  0
    3.2696   -3.1151    2.8555 H   0  0  0  0  0  0  0  0  0  0  0  0
    2.7040   -2.8391    0.4905 H   0  0  0  0  0  0  0  0  0  0  0  0
    1.6985    1.8956    0.4022 H   0  0  0  0  0  0  0  0  0  0  0  0
  1  2  1  0  0  0  0
  1 30  1  0  0  0  0
  1 31  1  0  0  0  0
  1 32  1  0  0  0  0
  2  3  1  0  0  0  0
  3  4  1  0  0  0  0
  3 28  2  0  0  0  0
  4  5  2  0  0  0  0
  4 33  1  0  0  0  0
  5  6  1  0  0  0  0
  5 34  1  0  0  0  0
  6  7  1  0  0  0  0
  6 27  2  0  0  0  0
  7  8  1  0  0  0  0
  7  9  1  0  0  0  0
  8 35  1  0  0  0  0
  8 36  1  0  0  0  0
  8 37  1  0  0  0  0
  9 10  1  0  0  0  0
  9 26  2  0  0  0  0
 10 11  2  0  0  0  0
 11 12  1  0  0  0  0
 11 13  1  0  0  0  0
 12 38  1  0  0  0  0
 12 39  1  0  0  0  0
 12 40  1  0  0  0  0
 13 14  2  0  0  0  0
 14 15  1  0  0  0  0
 14 26  1  0  0  0  0
 15 16  1  0  0  0  0
 15 23  2  0  0  0  0
 16 17  1  0  0  0  0
 16 41  1  0  0  0  0
 16 42  1  0  0  0  0
 17 18  1  0  0  0  0
 17 22  2  0  0  0  0
 18 19  2  0  0  0  0
 18 43  1  0  0  0  0
 19 20  1  0  0  0  0
 19 44  1  0  0  0  0
 20 21  2  0  0  0  0
 20 45  1  0  0  0  0
 21 22  1  0  0  0  0
 21 46  1  0  0  0  0
 22 47  1  0  0  0  0
 23 24  1  0  0  0  0
 23 48  1  0  0  0  0
 24 25  1  0  0  0  0
 24 26  1  0  0  0  0
 25 49  1  0  0  0  0
 25 50  1  0  0  0  0
 25 51  1  0  0  0  0
 27 28  1  0  0  0  0
 27 52  1  0  0  0  0
 28 53  1  0  0  0  0
 29 54  1  0  0  0  0
M  END
$$$$
