CHEMBL4286385
 OpenBabel04072215383D

 86 91  0  0  0  0  0  0  0  0999 V2000
    2.2728    0.0081   -1.6515 C   0  0  0  0  0  0  0  0  0  0  0  0
    0.7739    0.0776   -1.5470 C   0  0  0  0  0  0  0  0  0  0  0  0
    0.2160    1.1004   -0.7603 C   0  0  0  0  0  0  0  0  0  0  0  0
   -1.1631    1.3264   -0.7461 C   0  0  0  0  0  0  0  0  0  0  0  0
   -1.7465    2.3805   -0.0795 O   0  0  0  0  0  0  0  0  0  0  0  0
   -1.1559    3.6291   -0.1260 C   0  0  0  0  0  0  0  0  0  0  0  0
   -0.3567    4.0923   -1.1692 C   0  0  0  0  0  0  0  0  0  0  0  0
    0.1663    5.3696   -1.0678 C   0  0  0  0  0  0  0  0  0  0  0  0
   -0.0983    6.2192   -0.0509 N   0  0  0  0  0  0  0  0  0  0  0  0
   -0.8695    5.7533    0.9538 C   0  0  0  0  0  0  0  0  0  0  0  0
   -1.0603    6.6600    2.0135 N   0  0  0  0  0  0  0  0  0  0  0  0
   -0.9658    6.2667    3.3252 C   0  0  0  0  0  0  0  0  0  0  0  0
   -0.7296    5.1022    3.6510 O   0  0  0  0  0  0  0  0  0  0  0  0
   -1.1315    7.2647    4.2833 N   0  0  0  0  0  0  0  0  0  0  0  0
   -0.8248    6.9283    5.6681 C   0  0  0  0  0  0  0  0  0  0  0  0
   -1.9820    7.3242    6.5747 C   0  0  0  0  0  0  0  0  0  0  0  0
   -2.2445    8.8458    6.5519 C   0  0  0  0  0  0  0  0  0  0  0  0
   -1.2132    9.6972    7.1999 N   0  0  0  0  0  0  0  0  0  0  0  0
   -0.6103    9.1664    8.4484 C   0  0  0  0  0  0  0  0  0  0  0  0
   -1.4767    9.2686    9.7292 C   0  0  0  0  0  0  0  0  0  0  0  0
   -1.8872   10.6546   10.0030 N   0  0  0  0  0  0  0  0  0  0  0  0
   -2.7435   10.7322   11.1859 C   0  0  0  0  0  0  0  0  0  0  0  0
   -2.5566   11.2144    8.8178 C   0  0  0  0  0  0  0  0  0  0  0  0
   -1.7175   11.0653    7.5155 C   0  0  0  0  0  0  0  0  0  0  0  0
   -2.4623    9.2337    5.0558 C   0  0  0  0  0  0  0  0  0  0  0  0
   -1.4184    8.6833    4.0632 C   0  0  0  0  0  0  0  0  0  0  0  0
   -1.4321    4.4801    0.9425 C   0  0  0  0  0  0  0  0  0  0  0  0
   -2.0110    0.4365   -1.3944 C   0  0  0  0  0  0  0  0  0  0  0  0
   -1.4739   -0.5905   -2.1736 C   0  0  0  0  0  0  0  0  0  0  0  0
   -0.0868   -0.7408   -2.2994 C   0  0  0  0  0  0  0  0  0  0  0  0
    0.4391   -1.7226   -3.1585 N   0  0  0  0  0  0  0  0  0  0  0  0
   -0.1285   -2.0954   -4.3670 C   0  0  0  0  0  0  0  0  0  0  0  0
   -1.0788   -1.5742   -4.9344 O   0  0  0  0  0  0  0  0  0  0  0  0
    0.5161   -3.2898   -4.9884 C   0  0  0  0  0  0  0  0  0  0  0  0
   -0.1429   -4.5899   -4.6400 C   0  0  0  0  0  0  0  0  0  0  0  0
    0.4591   -5.3650   -3.9270 O   0  0  0  0  0  0  0  0  0  0  0  0
   -1.4025   -4.7458   -5.1999 N   0  0  0  0  0  0  0  0  0  0  0  0
   -2.2486   -5.8702   -5.0308 C   0  0  0  0  0  0  0  0  0  0  0  0
   -2.0055   -6.8611   -4.0724 C   0  0  0  0  0  0  0  0  0  0  0  0
   -2.8138   -7.9965   -3.9873 C   0  0  0  0  0  0  0  0  0  0  0  0
   -3.8840   -8.1404   -4.8557 C   0  0  0  0  0  0  0  0  0  0  0  0
   -4.6340   -9.2471   -4.7985 F   0  0  0  0  0  0  0  0  0  0  0  0
   -4.1820   -7.1468   -5.7806 C   0  0  0  0  0  0  0  0  0  0  0  0
   -3.3765   -6.0051   -5.8567 C   0  0  0  0  0  0  0  0  0  0  0  0
    2.0377   -3.2101   -5.1645 C   0  0  0  0  0  0  0  0  0  0  0  0
    1.1614   -3.2634   -6.3724 C   0  0  0  0  0  0  0  0  0  0  0  0
    2.7533    0.6849   -0.9347 H   0  0  0  0  0  0  0  0  0  0  0  0
    2.5886    0.3165   -2.6539 H   0  0  0  0  0  0  0  0  0  0  0  0
    2.6392   -0.9997   -1.4403 H   0  0  0  0  0  0  0  0  0  0  0  0
    0.8691    1.7591   -0.1919 H   0  0  0  0  0  0  0  0  0  0  0  0
   -0.1252    3.4878   -2.0385 H   0  0  0  0  0  0  0  0  0  0  0  0
    0.8462    5.7520   -1.8244 H   0  0  0  0  0  0  0  0  0  0  0  0
   -0.6704    7.5634    1.7991 H   0  0  0  0  0  0  0  0  0  0  0  0
    0.1008    7.4510    5.9354 H   0  0  0  0  0  0  0  0  0  0  0  0
   -0.6291    5.8584    5.7869 H   0  0  0  0  0  0  0  0  0  0  0  0
   -1.8180    6.9528    7.5898 H   0  0  0  0  0  0  0  0  0  0  0  0
   -2.8893    6.8131    6.2231 H   0  0  0  0  0  0  0  0  0  0  0  0
   -3.1943    9.0006    7.0800 H   0  0  0  0  0  0  0  0  0  0  0  0
    0.3125    9.7368    8.6263 H   0  0  0  0  0  0  0  0  0  0  0  0
   -0.2588    8.1378    8.3266 H   0  0  0  0  0  0  0  0  0  0  0  0
   -0.8765    8.9052   10.5733 H   0  0  0  0  0  0  0  0  0  0  0  0
   -2.3508    8.6114    9.6421 H   0  0  0  0  0  0  0  0  0  0  0  0
   -2.2323   10.3209   12.0643 H   0  0  0  0  0  0  0  0  0  0  0  0
   -3.6859   10.1884   11.0546 H   0  0  0  0  0  0  0  0  0  0  0  0
   -2.9800   11.7758   11.4240 H   0  0  0  0  0  0  0  0  0  0  0  0
   -2.7337   12.2846    8.9846 H   0  0  0  0  0  0  0  0  0  0  0  0
   -3.5368   10.7429    8.6737 H   0  0  0  0  0  0  0  0  0  0  0  0
   -0.8401   11.7198    7.6046 H   0  0  0  0  0  0  0  0  0  0  0  0
   -2.2977   11.4776    6.6842 H   0  0  0  0  0  0  0  0  0  0  0  0
   -2.5307   10.3190    4.9241 H   0  0  0  0  0  0  0  0  0  0  0  0
   -3.4438    8.8417    4.7564 H   0  0  0  0  0  0  0  0  0  0  0  0
   -0.4715    9.2257    4.1660 H   0  0  0  0  0  0  0  0  0  0  0  0
   -1.7807    8.8493    3.0439 H   0  0  0  0  0  0  0  0  0  0  0  0
   -2.0782    4.1453    1.7468 H   0  0  0  0  0  0  0  0  0  0  0  0
   -3.0902    0.5413   -1.3154 H   0  0  0  0  0  0  0  0  0  0  0  0
   -2.1536   -1.2813   -2.6686 H   0  0  0  0  0  0  0  0  0  0  0  0
    1.3524   -2.0976   -2.9339 H   0  0  0  0  0  0  0  0  0  0  0  0
   -1.7383   -4.0107   -5.8188 H   0  0  0  0  0  0  0  0  0  0  0  0
   -1.1896   -6.7744   -3.3606 H   0  0  0  0  0  0  0  0  0  0  0  0
   -2.5995   -8.7654   -3.2533 H   0  0  0  0  0  0  0  0  0  0  0  0
   -5.0314   -7.2756   -6.4422 H   0  0  0  0  0  0  0  0  0  0  0  0
   -3.6219   -5.2455   -6.6005 H   0  0  0  0  0  0  0  0  0  0  0  0
    2.6189   -4.0790   -4.8815 H   0  0  0  0  0  0  0  0  0  0  0  0
    2.5476   -2.2673   -4.9959 H   0  0  0  0  0  0  0  0  0  0  0  0
    1.2150   -4.1872   -6.9454 H   0  0  0  0  0  0  0  0  0  0  0  0
    1.0507   -2.3778   -6.9821 H   0  0  0  0  0  0  0  0  0  0  0  0
  1  2  1  0  0  0  0
  1 47  1  0  0  0  0
  1 48  1  0  0  0  0
  1 49  1  0  0  0  0
  2  3  1  0  0  0  0
  2 30  2  0  0  0  0
  3  4  2  0  0  0  0
  3 50  1  0  0  0  0
  4  5  1  0  0  0  0
  4 28  1  0  0  0  0
  5  6  1  0  0  0  0
  6  7  1  0  0  0  0
  6 27  2  0  0  0  0
  7  8  2  0  0  0  0
  7 51  1  0  0  0  0
  8  9  1  0  0  0  0
  8 52  1  0  0  0  0
  9 10  2  0  0  0  0
 10 11  1  0  0  0  0
 10 27  1  0  0  0  0
 11 12  1  0  0  0  0
 11 53  1  0  0  0  0
 12 13  2  0  0  0  0
 12 14  1  0  0  0  0
 14 15  1  0  0  0  0
 14 26  1  0  0  0  0
 15 16  1  0  0  0  0
 15 54  1  0  0  0  0
 15 55  1  0  0  0  0
 16 17  1  0  0  0  0
 16 56  1  0  0  0  0
 16 57  1  0  0  0  0
 17 18  1  0  0  0  0
 17 25  1  0  0  0  0
 17 58  1  0  0  0  0
 18 19  1  0  0  0  0
 18 24  1  0  0  0  0
 19 20  1  0  0  0  0
 19 59  1  0  0  0  0
 19 60  1  0  0  0  0
 20 21  1  0  0  0  0
 20 61  1  0  0  0  0
 20 62  1  0  0  0  0
 21 22  1  0  0  0  0
 21 23  1  0  0  0  0
 22 63  1  0  0  0  0
 22 64  1  0  0  0  0
 22 65  1  0  0  0  0
 23 24  1  0  0  0  0
 23 66  1  0  0  0  0
 23 67  1  0  0  0  0
 24 68  1  0  0  0  0
 24 69  1  0  0  0  0
 25 26  1  0  0  0  0
 25 70  1  0  0  0  0
 25 71  1  0  0  0  0
 26 72  1  0  0  0  0
 26 73  1  0  0  0  0
 27 74  1  0  0  0  0
 28 29  2  0  0  0  0
 28 75  1  0  0  0  0
 29 30  1  0  0  0  0
 29 76  1  0  0  0  0
 30 31  1  0  0  0  0
 31 32  1  0  0  0  0
 31 77  1  0  0  0  0
 32 33  2  0  0  0  0
 32 34  1  0  0  0  0
 34 35  1  0  0  0  0
 34 45  1  0  0  0  0
 34 46  1  0  0  0  0
 35 36  2  0  0  0  0
 35 37  1  0  0  0  0
 37 38  1  0  0  0  0
 37 78  1  0  0  0  0
 38 39  1  0  0  0  0
 38 44  2  0  0  0  0
 39 40  2  0  0  0  0
 39 79  1  0  0  0  0
 40 41  1  0  0  0  0
 40 80  1  0  0  0  0
 41 42  1  0  0  0  0
 41 43  2  0  0  0  0
 43 44  1  0  0  0  0
 43 81  1  0  0  0  0
 44 82  1  0  0  0  0
 45 46  1  0  0  0  0
 45 83  1  0  0  0  0
 45 84  1  0  0  0  0
 46 85  1  0  0  0  0
 46 86  1  0  0  0  0
M  END
$$$$
