CHEMBL496575
 OpenBabel04072215383D

 63 67  0  0  0  0  0  0  0  0999 V2000
   10.4552    5.5779    1.7699 C   0  0  0  0  0  0  0  0  0  0  0  0
    9.8899    4.1685    1.7813 C   0  0  0  0  0  0  0  0  0  0  0  0
    8.4241    4.1766    2.2141 C   0  0  0  0  0  0  0  0  0  0  0  0
    7.8513    2.7629    2.2228 C   0  0  0  0  0  0  0  0  0  0  0  0
    6.4048    2.6711    2.6050 C   0  0  0  0  0  0  0  0  0  0  0  0
    5.5672    3.6634    2.2835 N   0  0  0  0  0  0  0  0  0  0  0  0
    4.3773    3.2702    2.7529 N   0  0  0  0  0  0  0  0  0  0  0  0
    3.3063    4.0825    2.6044 N   0  0  0  0  0  0  0  0  0  0  0  0
    2.2164    3.5612    3.0629 C   0  0  0  0  0  0  0  0  0  0  0  0
    2.0732    2.2226    3.6813 C   0  0  0  0  0  0  0  0  0  0  0  0
    3.1848    1.4861    3.7981 C   0  0  0  0  0  0  0  0  0  0  0  0
    4.4108    2.0173    3.3284 C   0  0  0  0  0  0  0  0  0  0  0  0
    5.7298    1.6009    3.2684 C   0  0  0  0  0  0  0  0  0  0  0  0
    6.2414    0.3392    3.7827 C   0  0  0  0  0  0  0  0  0  0  0  0
    7.3221   -0.2753    3.1854 C   0  0  0  0  0  0  0  0  0  0  0  0
    7.7985   -1.3899    3.8148 C   0  0  0  0  0  0  0  0  0  0  0  0
    7.2130   -1.9029    4.8974 N   0  0  0  0  0  0  0  0  0  0  0  0
    6.1073   -1.3019    5.3691 C   0  0  0  0  0  0  0  0  0  0  0  0
    5.3981   -1.9212    6.3904 N   0  0  0  0  0  0  0  0  0  0  0  0
    5.3481   -3.2972    6.6498 C   0  0  0  0  0  0  0  0  0  0  0  0
    5.0779   -3.7554    7.9340 C   0  0  0  0  0  0  0  0  0  0  0  0
    5.1822   -5.1194    8.2319 C   0  0  0  0  0  0  0  0  0  0  0  0
    5.5422   -6.0694    7.2623 C   0  0  0  0  0  0  0  0  0  0  0  0
    5.5952   -7.4109    7.5848 N   0  0  0  0  0  0  0  0  0  0  0  0
    5.4879   -8.4474    6.5486 C   0  0  0  0  0  0  0  0  0  0  0  0
    4.8437   -9.7025    7.1762 C   0  0  0  0  0  0  0  0  0  0  0  0
    5.6008  -10.2051    8.3470 N   0  0  0  0  0  0  0  0  0  0  0  0
    4.9178  -11.3533    8.9346 C   0  0  0  0  0  0  0  0  0  0  0  0
    5.7404   -9.1162    9.3453 C   0  0  0  0  0  0  0  0  0  0  0  0
    6.3839   -7.8414    8.7521 C   0  0  0  0  0  0  0  0  0  0  0  0
    5.7676   -5.6014    5.9695 C   0  0  0  0  0  0  0  0  0  0  0  0
    5.6668   -4.2442    5.6700 C   0  0  0  0  0  0  0  0  0  0  0  0
    5.6179   -0.1598    4.8705 N   0  0  0  0  0  0  0  0  0  0  0  0
   11.5023    5.5664    1.4549 H   0  0  0  0  0  0  0  0  0  0  0  0
   10.4012    6.0257    2.7672 H   0  0  0  0  0  0  0  0  0  0  0  0
    9.8958    6.2145    1.0769 H   0  0  0  0  0  0  0  0  0  0  0  0
   10.4812    3.5437    2.4611 H   0  0  0  0  0  0  0  0  0  0  0  0
    9.9815    3.7327    0.7792 H   0  0  0  0  0  0  0  0  0  0  0  0
    7.8502    4.8143    1.5314 H   0  0  0  0  0  0  0  0  0  0  0  0
    8.3353    4.6134    3.2166 H   0  0  0  0  0  0  0  0  0  0  0  0
    8.4536    2.1707    2.9215 H   0  0  0  0  0  0  0  0  0  0  0  0
    7.9685    2.3110    1.2292 H   0  0  0  0  0  0  0  0  0  0  0  0
    1.2827    4.1443    2.9974 H   0  0  0  0  0  0  0  0  0  0  0  0
    1.0964    1.8921    4.0051 H   0  0  0  0  0  0  0  0  0  0  0  0
    3.1517    0.4946    4.2382 H   0  0  0  0  0  0  0  0  0  0  0  0
    7.7980    0.0798    2.2864 H   0  0  0  0  0  0  0  0  0  0  0  0
    8.6739   -1.9245    3.4608 H   0  0  0  0  0  0  0  0  0  0  0  0
    4.6307   -1.3580    6.7283 H   0  0  0  0  0  0  0  0  0  0  0  0
    4.8230   -3.0593    8.7282 H   0  0  0  0  0  0  0  0  0  0  0  0
    4.9548   -5.4415    9.2440 H   0  0  0  0  0  0  0  0  0  0  0  0
    6.4779   -8.6861    6.1381 H   0  0  0  0  0  0  0  0  0  0  0  0
    4.8447   -8.1248    5.7213 H   0  0  0  0  0  0  0  0  0  0  0  0
    4.7820  -10.4822    6.4087 H   0  0  0  0  0  0  0  0  0  0  0  0
    3.8159   -9.4494    7.4733 H   0  0  0  0  0  0  0  0  0  0  0  0
    4.8368  -12.1630    8.2014 H   0  0  0  0  0  0  0  0  0  0  0  0
    3.9100  -11.1037    9.2856 H   0  0  0  0  0  0  0  0  0  0  0  0
    5.4920  -11.7464    9.7801 H   0  0  0  0  0  0  0  0  0  0  0  0
    6.3586   -9.4608   10.1820 H   0  0  0  0  0  0  0  0  0  0  0  0
    4.7549   -8.8473    9.7505 H   0  0  0  0  0  0  0  0  0  0  0  0
    7.4173   -8.0510    8.4440 H   0  0  0  0  0  0  0  0  0  0  0  0
    6.4350   -7.0788    9.5364 H   0  0  0  0  0  0  0  0  0  0  0  0
    6.0613   -6.2728    5.1687 H   0  0  0  0  0  0  0  0  0  0  0  0
    5.8560   -3.9401    4.6435 H   0  0  0  0  0  0  0  0  0  0  0  0
  1  2  1  0  0  0  0
  1 34  1  0  0  0  0
  1 35  1  0  0  0  0
  1 36  1  0  0  0  0
  2  3  1  0  0  0  0
  2 37  1  0  0  0  0
  2 38  1  0  0  0  0
  3  4  1  0  0  0  0
  3 39  1  0  0  0  0
  3 40  1  0  0  0  0
  4  5  1  0  0  0  0
  4 41  1  0  0  0  0
  4 42  1  0  0  0  0
  5  6  2  0  0  0  0
  5 13  1  0  0  0  0
  6  7  1  0  0  0  0
  7  8  1  0  0  0  0
  7 12  1  0  0  0  0
  8  9  2  0  0  0  0
  9 10  1  0  0  0  0
  9 43  1  0  0  0  0
 10 11  2  0  0  0  0
 10 44  1  0  0  0  0
 11 12  1  0  0  0  0
 11 45  1  0  0  0  0
 12 13  2  0  0  0  0
 13 14  1  0  0  0  0
 14 15  1  0  0  0  0
 14 33  2  0  0  0  0
 15 16  2  0  0  0  0
 15 46  1  0  0  0  0
 16 17  1  0  0  0  0
 16 47  1  0  0  0  0
 17 18  2  0  0  0  0
 18 19  1  0  0  0  0
 18 33  1  0  0  0  0
 19 20  1  0  0  0  0
 19 48  1  0  0  0  0
 20 21  1  0  0  0  0
 20 32  2  0  0  0  0
 21 22  2  0  0  0  0
 21 49  1  0  0  0  0
 22 23  1  0  0  0  0
 22 50  1  0  0  0  0
 23 24  1  0  0  0  0
 23 31  2  0  0  0  0
 24 25  1  0  0  0  0
 24 30  1  0  0  0  0
 25 26  1  0  0  0  0
 25 51  1  0  0  0  0
 25 52  1  0  0  0  0
 26 27  1  0  0  0  0
 26 53  1  0  0  0  0
 26 54  1  0  0  0  0
 27 28  1  0  0  0  0
 27 29  1  0  0  0  0
 28 55  1  0  0  0  0
 28 56  1  0  0  0  0
 28 57  1  0  0  0  0
 29 30  1  0  0  0  0
 29 58  1  0  0  0  0
 29 59  1  0  0  0  0
 30 60  1  0  0  0  0
 30 61  1  0  0  0  0
 31 32  1  0  0  0  0
 31 62  1  0  0  0  0
 32 63  1  0  0  0  0
M  END
$$$$
