CHEMBL424321
 OpenBabel04072215383D

 64 69  0  0  0  0  0  0  0  0999 V2000
    7.8122   -2.3307    3.5576 C   0  0  0  0  0  0  0  0  0  0  0  0
    7.0792   -1.5400    2.4950 C   0  0  0  0  0  0  0  0  0  0  0  0
    7.4512   -2.0129    1.0974 C   0  0  0  0  0  0  0  0  0  0  0  0
    6.6941   -1.1939    0.0735 C   0  0  0  0  0  0  0  0  0  0  0  0
    7.0495   -1.6525   -1.2174 O   0  0  0  0  0  0  0  0  0  0  0  0
    6.3332   -0.9266   -2.2047 C   0  0  0  0  0  0  0  0  0  0  0  0
    6.6993   -1.4964   -3.5361 C   0  0  0  0  0  0  0  0  0  0  0  0
    6.4590   -2.8504   -3.8027 C   0  0  0  0  0  0  0  0  0  0  0  0
    6.7436   -3.4207   -5.0392 C   0  0  0  0  0  0  0  0  0  0  0  0
    7.2486   -2.5665   -6.0321 C   0  0  0  0  0  0  0  0  0  0  0  0
    7.5291   -1.2192   -5.7736 C   0  0  0  0  0  0  0  0  0  0  0  0
    7.2774   -0.6890   -4.5105 C   0  0  0  0  0  0  0  0  0  0  0  0
    8.1639   -0.8515   -6.9251 C   0  0  0  0  0  0  0  0  0  0  0  0
    9.1505    0.1231   -7.0608 C   0  0  0  0  0  0  0  0  0  0  0  0
    9.9931   -0.0671   -8.2532 C   0  0  0  0  0  0  0  0  0  0  0  0
    9.8277   -1.0272   -9.3314 C   0  0  0  0  0  0  0  0  0  0  0  0
    8.4066   -1.0681   -9.1728 C   0  0  0  0  0  0  0  0  0  0  0  0
    7.8757   -1.5908   -8.0026 C   0  0  0  0  0  0  0  0  0  0  0  0
    7.7510   -2.8178   -7.3141 N   0  0  0  0  0  0  0  0  0  0  0  0
    8.1370   -4.1725   -7.6607 C   0  0  0  0  0  0  0  0  0  0  0  0
    9.5983   -4.6194   -7.4281 C   0  0  0  0  0  0  0  0  0  0  0  0
   10.0732   -4.9031   -6.0102 C   0  0  0  0  0  0  0  0  0  0  0  0
   11.3456   -5.5615   -6.0783 O   0  0  0  0  0  0  0  0  0  0  0  0
    7.8456   -0.8663  -10.5119 C   0  0  0  0  0  0  0  0  0  0  0  0
    8.4002   -2.1519  -10.9286 C   0  0  0  0  0  0  0  0  0  0  0  0
    7.5553   -3.1705  -11.3711 C   0  0  0  0  0  0  0  0  0  0  0  0
    7.9915   -4.4559  -11.1956 C   0  0  0  0  0  0  0  0  0  0  0  0
    9.3030   -4.6698  -10.7270 C   0  0  0  0  0  0  0  0  0  0  0  0
   10.1553   -3.6028  -10.2565 C   0  0  0  0  0  0  0  0  0  0  0  0
    9.6477   -2.3012  -10.2114 C   0  0  0  0  0  0  0  0  0  0  0  0
   10.4367    1.3122   -8.5251 C   0  0  0  0  0  0  0  0  0  0  0  0
   11.0043    1.8169   -9.4943 O   0  0  0  0  0  0  0  0  0  0  0  0
    9.9047    2.1285   -7.5125 N   0  0  0  0  0  0  0  0  0  0  0  0
    9.1073    1.4742   -6.5058 C   0  0  0  0  0  0  0  0  0  0  0  0
    7.5323   -1.9709    4.5516 H   0  0  0  0  0  0  0  0  0  0  0  0
    8.8956   -2.2209    3.4433 H   0  0  0  0  0  0  0  0  0  0  0  0
    7.5624   -3.3934    3.4918 H   0  0  0  0  0  0  0  0  0  0  0  0
    7.3186   -0.4752    2.5987 H   0  0  0  0  0  0  0  0  0  0  0  0
    5.9968   -1.6433    2.6428 H   0  0  0  0  0  0  0  0  0  0  0  0
    7.2184   -3.0766    0.9669 H   0  0  0  0  0  0  0  0  0  0  0  0
    8.5305   -1.9165    0.9248 H   0  0  0  0  0  0  0  0  0  0  0  0
    6.9535   -0.1326    0.1641 H   0  0  0  0  0  0  0  0  0  0  0  0
    5.6138   -1.3135    0.2146 H   0  0  0  0  0  0  0  0  0  0  0  0
    6.5961    0.1353   -2.1451 H   0  0  0  0  0  0  0  0  0  0  0  0
    5.2499   -1.0322   -2.0573 H   0  0  0  0  0  0  0  0  0  0  0  0
    6.0583   -3.4891   -3.0141 H   0  0  0  0  0  0  0  0  0  0  0  0
    6.6007   -4.4817   -5.2021 H   0  0  0  0  0  0  0  0  0  0  0  0
    7.4896    0.3614   -4.2931 H   0  0  0  0  0  0  0  0  0  0  0  0
    7.8279   -4.2973   -8.6843 H   0  0  0  0  0  0  0  0  0  0  0  0
    7.4947   -4.8674   -7.1084 H   0  0  0  0  0  0  0  0  0  0  0  0
   10.3043   -3.8878   -7.8214 H   0  0  0  0  0  0  0  0  0  0  0  0
    9.7465   -5.5465   -8.0014 H   0  0  0  0  0  0  0  0  0  0  0  0
    9.3923   -5.5518   -5.4562 H   0  0  0  0  0  0  0  0  0  0  0  0
   10.2275   -3.9743   -5.4558 H   0  0  0  0  0  0  0  0  0  0  0  0
   11.2197   -6.4296   -6.5000 H   0  0  0  0  0  0  0  0  0  0  0  0
    8.4040   -0.0718  -11.0519 H   0  0  0  0  0  0  0  0  0  0  0  0
    6.7880   -0.6771  -10.5858 H   0  0  0  0  0  0  0  0  0  0  0  0
    6.5165   -2.9319  -11.5874 H   0  0  0  0  0  0  0  0  0  0  0  0
    7.2744   -5.2699  -11.3061 H   0  0  0  0  0  0  0  0  0  0  0  0
    9.5983   -5.7121  -10.5770 H   0  0  0  0  0  0  0  0  0  0  0  0
   11.0924   -3.8880   -9.7976 H   0  0  0  0  0  0  0  0  0  0  0  0
    9.8000    3.1167   -7.7020 H   0  0  0  0  0  0  0  0  0  0  0  0
    8.0893    1.8903   -6.5233 H   0  0  0  0  0  0  0  0  0  0  0  0
    9.5545    1.5757   -5.5256 H   0  0  0  0  0  0  0  0  0  0  0  0
  1  2  1  0  0  0  0
  1 35  1  0  0  0  0
  1 36  1  0  0  0  0
  1 37  1  0  0  0  0
  2  3  1  0  0  0  0
  2 38  1  0  0  0  0
  2 39  1  0  0  0  0
  3  4  1  0  0  0  0
  3 40  1  0  0  0  0
  3 41  1  0  0  0  0
  4  5  1  0  0  0  0
  4 42  1  0  0  0  0
  4 43  1  0  0  0  0
  5  6  1  0  0  0  0
  6  7  1  0  0  0  0
  6 44  1  0  0  0  0
  6 45  1  0  0  0  0
  7  8  1  0  0  0  0
  7 12  2  0  0  0  0
  8  9  2  0  0  0  0
  8 46  1  0  0  0  0
  9 10  1  0  0  0  0
  9 47  1  0  0  0  0
 10 11  2  0  0  0  0
 10 19  1  0  0  0  0
 11 12  1  0  0  0  0
 11 13  1  0  0  0  0
 12 48  1  0  0  0  0
 13 14  1  0  0  0  0
 13 18  2  0  0  0  0
 14 15  2  0  0  0  0
 14 34  1  0  0  0  0
 15 16  1  0  0  0  0
 15 31  1  0  0  0  0
 16 17  2  0  0  0  0
 16 30  1  0  0  0  0
 17 18  1  0  0  0  0
 17 24  1  0  0  0  0
 18 19  1  0  0  0  0
 19 20  1  0  0  0  0
 20 21  1  0  0  0  0
 20 49  1  0  0  0  0
 20 50  1  0  0  0  0
 21 22  1  0  0  0  0
 21 51  1  0  0  0  0
 21 52  1  0  0  0  0
 22 23  1  0  0  0  0
 22 53  1  0  0  0  0
 22 54  1  0  0  0  0
 23 55  1  0  0  0  0
 24 25  1  0  0  0  0
 24 56  1  0  0  0  0
 24 57  1  0  0  0  0
 25 26  1  0  0  0  0
 25 30  2  0  0  0  0
 26 27  2  0  0  0  0
 26 58  1  0  0  0  0
 27 28  1  0  0  0  0
 27 59  1  0  0  0  0
 28 29  2  0  0  0  0
 28 60  1  0  0  0  0
 29 30  1  0  0  0  0
 29 61  1  0  0  0  0
 31 32  2  0  0  0  0
 31 33  1  0  0  0  0
 33 34  1  0  0  0  0
 33 62  1  0  0  0  0
 34 63  1  0  0  0  0
 34 64  1  0  0  0  0
M  END
$$$$
