CHEMBL1076721
 OpenBabel04072215353D

 35 37  0  0  0  0  0  0  0  0999 V2000
    1.6716    0.8767    0.6835 C   0  0  0  0  0  0  0  0  0  0  0  0
    2.3874   -0.0421   -0.1308 O   0  0  0  0  0  0  0  0  0  0  0  0
    3.0248    0.4694   -1.2261 C   0  0  0  0  0  0  0  0  0  0  0  0
    3.0350    1.8079   -1.6237 C   0  0  0  0  0  0  0  0  0  0  0  0
    3.7330    2.1968   -2.7738 C   0  0  0  0  0  0  0  0  0  0  0  0
    4.4101    1.2429   -3.5382 C   0  0  0  0  0  0  0  0  0  0  0  0
    5.1307    1.6658   -4.7418 C   0  0  0  0  0  0  0  0  0  0  0  0
    5.6871    2.8366   -4.9246 N   0  0  0  0  0  0  0  0  0  0  0  0
    6.3200    2.8131   -6.1646 N   0  0  0  0  0  0  0  0  0  0  0  0
    6.2375    1.6192   -6.8434 C   0  0  0  0  0  0  0  0  0  0  0  0
    6.7484    1.2406   -7.8731 O   0  0  0  0  0  0  0  0  0  0  0  0
    5.3428    0.8182   -5.9495 C   0  0  0  0  0  0  0  0  0  0  0  0
    4.7594   -0.3185   -6.1539 N   0  0  0  0  0  0  0  0  0  0  0  0
    4.9890   -0.9314   -7.3378 N   0  0  0  0  0  0  0  0  0  0  0  0
    4.3524   -2.1545   -7.5936 C   0  0  0  0  0  0  0  0  0  0  0  0
    4.6180   -2.8551   -8.7714 C   0  0  0  0  0  0  0  0  0  0  0  0
    3.9427   -4.0440   -9.0502 C   0  0  0  0  0  0  0  0  0  0  0  0
    3.0016   -4.4982   -8.1412 C   0  0  0  0  0  0  0  0  0  0  0  0
    2.6938   -3.8512   -7.0005 N   0  0  0  0  0  0  0  0  0  0  0  0
    3.3682   -2.6962   -6.7634 C   0  0  0  0  0  0  0  0  0  0  0  0
    4.4117   -0.0947   -3.1355 C   0  0  0  0  0  0  0  0  0  0  0  0
    3.7189   -0.4750   -1.9844 C   0  0  0  0  0  0  0  0  0  0  0  0
    1.2215    0.3135    1.5065 H   0  0  0  0  0  0  0  0  0  0  0  0
    0.8609    1.3529    0.1224 H   0  0  0  0  0  0  0  0  0  0  0  0
    2.3450    1.6227    1.1180 H   0  0  0  0  0  0  0  0  0  0  0  0
    2.5085    2.5736   -1.0635 H   0  0  0  0  0  0  0  0  0  0  0  0
    3.7300    3.2432   -3.0719 H   0  0  0  0  0  0  0  0  0  0  0  0
    6.8752    3.6050   -6.4686 H   0  0  0  0  0  0  0  0  0  0  0  0
    5.8036   -0.6987   -7.9137 H   0  0  0  0  0  0  0  0  0  0  0  0
    5.3480   -2.4796   -9.4830 H   0  0  0  0  0  0  0  0  0  0  0  0
    4.1430   -4.5992   -9.9594 H   0  0  0  0  0  0  0  0  0  0  0  0
    2.4489   -5.4165   -8.3160 H   0  0  0  0  0  0  0  0  0  0  0  0
    3.0775   -2.1914   -5.8459 H   0  0  0  0  0  0  0  0  0  0  0  0
    4.9498   -0.8588   -3.6898 H   0  0  0  0  0  0  0  0  0  0  0  0
    3.7208   -1.5188   -1.6773 H   0  0  0  0  0  0  0  0  0  0  0  0
  1  2  1  0  0  0  0
  1 23  1  0  0  0  0
  1 24  1  0  0  0  0
  1 25  1  0  0  0  0
  2  3  1  0  0  0  0
  3  4  1  0  0  0  0
  3 22  2  0  0  0  0
  4  5  2  0  0  0  0
  4 26  1  0  0  0  0
  5  6  1  0  0  0  0
  5 27  1  0  0  0  0
  6  7  1  0  0  0  0
  6 21  2  0  0  0  0
  7  8  2  0  0  0  0
  7 12  1  0  0  0  0
  8  9  1  0  0  0  0
  9 10  1  0  0  0  0
  9 28  1  0  0  0  0
 10 11  2  0  0  0  0
 10 12  1  0  0  0  0
 12 13  2  0  0  0  0
 13 14  1  0  0  0  0
 14 15  1  0  0  0  0
 14 29  1  0  0  0  0
 15 16  1  0  0  0  0
 15 20  2  0  0  0  0
 16 17  2  0  0  0  0
 16 30  1  0  0  0  0
 17 18  1  0  0  0  0
 17 31  1  0  0  0  0
 18 19  2  0  0  0  0
 18 32  1  0  0  0  0
 19 20  1  0  0  0  0
 20 33  1  0  0  0  0
 21 22  1  0  0  0  0
 21 34  1  0  0  0  0
 22 35  1  0  0  0  0
M  END
$$$$
