CHEMBL3657547
 OpenBabel04072215373D

 55 59  0  0  0  0  0  0  0  0999 V2000
    2.1146   -1.3836   -1.3946 C   0  0  0  0  0  0  0  0  0  0  0  0
    2.6558   -0.1375   -0.7912 C   0  0  0  0  0  0  0  0  0  0  0  0
    3.9458    0.1806   -0.9616 N   0  0  0  0  0  0  0  0  0  0  0  0
    4.1378    1.2872   -0.2045 N   0  0  0  0  0  0  0  0  0  0  0  0
    5.3577    2.0325   -0.1841 C   0  0  0  0  0  0  0  0  0  0  0  0
    5.4868    3.0426    0.7323 N   0  0  0  0  0  0  0  0  0  0  0  0
    6.6537    3.7184    0.7522 C   0  0  0  0  0  0  0  0  0  0  0  0
    6.8032    4.6962    1.7381 N   0  0  0  0  0  0  0  0  0  0  0  0
    7.9561    5.1979    2.3784 C   0  0  0  0  0  0  0  0  0  0  0  0
    9.2587    4.8155    2.0441 C   0  0  0  0  0  0  0  0  0  0  0  0
   10.3891    5.3097    2.7138 C   0  0  0  0  0  0  0  0  0  0  0  0
   10.1932    6.2285    3.7521 C   0  0  0  0  0  0  0  0  0  0  0  0
    8.9178    6.6823    4.0901 C   0  0  0  0  0  0  0  0  0  0  0  0
    7.8017    6.1788    3.3751 C   0  0  0  0  0  0  0  0  0  0  0  0
    9.0801    7.5962    5.1672 C   0  0  0  0  0  0  0  0  0  0  0  0
    7.7992    8.4218    5.9316 Cl  0  0  0  0  0  0  0  0  0  0  0  0
   10.4205    7.6564    5.5000 C   0  0  0  0  0  0  0  0  0  0  0  0
   11.0973    8.4034    6.5967 C   0  0  0  0  0  0  0  0  0  0  0  0
   11.0910    6.8466    4.6057 N   0  0  0  0  0  0  0  0  0  0  0  0
   12.5233    6.6295    4.5554 C   0  0  0  0  0  0  0  0  0  0  0  0
    7.6417    3.4841   -0.1256 N   0  0  0  0  0  0  0  0  0  0  0  0
    7.4633    2.5065   -1.0327 C   0  0  0  0  0  0  0  0  0  0  0  0
    6.3360    1.7280   -1.1001 C   0  0  0  0  0  0  0  0  0  0  0  0
    6.2492    0.7843   -2.0424 F   0  0  0  0  0  0  0  0  0  0  0  0
    3.0155    1.5633    0.5440 C   0  0  0  0  0  0  0  0  0  0  0  0
    1.9794    0.7988    0.0411 C   0  0  0  0  0  0  0  0  0  0  0  0
    0.5260    0.7998    0.4000 C   0  0  0  0  0  0  0  0  0  0  0  0
   -0.1597    2.0749    0.0882 N   0  0  0  0  0  0  0  0  0  0  0  0
    0.2447    3.2586    0.8954 C   0  0  0  0  0  0  0  0  0  0  0  0
   -0.7293    2.8307    2.0115 C   0  0  0  0  0  0  0  0  0  0  0  0
   -0.1943    2.0189    3.0865 O   0  0  0  0  0  0  0  0  0  0  0  0
   -1.4571    2.1045    0.8464 C   0  0  0  0  0  0  0  0  0  0  0  0
    2.9136   -2.0181   -1.7940 H   0  0  0  0  0  0  0  0  0  0  0  0
    1.4133   -1.1573   -2.2020 H   0  0  0  0  0  0  0  0  0  0  0  0
    1.5877   -1.9700   -0.6325 H   0  0  0  0  0  0  0  0  0  0  0  0
    5.9530    4.7648    2.2785 H   0  0  0  0  0  0  0  0  0  0  0  0
    9.4383    4.0880    1.2576 H   0  0  0  0  0  0  0  0  0  0  0  0
   11.3794    4.9642    2.4344 H   0  0  0  0  0  0  0  0  0  0  0  0
    6.8119    6.5448    3.6351 H   0  0  0  0  0  0  0  0  0  0  0  0
   10.3796    8.9504    7.2153 H   0  0  0  0  0  0  0  0  0  0  0  0
   11.8094    9.1296    6.1923 H   0  0  0  0  0  0  0  0  0  0  0  0
   11.6342    7.7129    7.2561 H   0  0  0  0  0  0  0  0  0  0  0  0
   13.0241    7.1761    5.3559 H   0  0  0  0  0  0  0  0  0  0  0  0
   12.8910    6.9845    3.5890 H   0  0  0  0  0  0  0  0  0  0  0  0
   12.7164    5.5598    4.6734 H   0  0  0  0  0  0  0  0  0  0  0  0
    8.2809    2.3577   -1.7312 H   0  0  0  0  0  0  0  0  0  0  0  0
    3.0582    2.3247    1.3067 H   0  0  0  0  0  0  0  0  0  0  0  0
    0.4155    0.4526    1.4303 H   0  0  0  0  0  0  0  0  0  0  0  0
    0.0213    0.0388   -0.2112 H   0  0  0  0  0  0  0  0  0  0  0  0
   -0.0489    4.2091    0.4241 H   0  0  0  0  0  0  0  0  0  0  0  0
    1.2884    3.3744    1.1764 H   0  0  0  0  0  0  0  0  0  0  0  0
   -1.2997    3.6548    2.4491 H   0  0  0  0  0  0  0  0  0  0  0  0
    0.7670    1.9804    2.9264 H   0  0  0  0  0  0  0  0  0  0  0  0
   -2.2193    2.7317    0.3646 H   0  0  0  0  0  0  0  0  0  0  0  0
   -1.9153    1.1372    1.0742 H   0  0  0  0  0  0  0  0  0  0  0  0
  1  2  1  0  0  0  0
  1 33  1  0  0  0  0
  1 34  1  0  0  0  0
  1 35  1  0  0  0  0
  2  3  2  0  0  0  0
  2 26  1  0  0  0  0
  3  4  1  0  0  0  0
  4  5  1  0  0  0  0
  4 25  1  0  0  0  0
  5  6  1  0  0  0  0
  5 23  2  0  0  0  0
  6  7  2  0  0  0  0
  7  8  1  0  0  0  0
  7 21  1  0  0  0  0
  8  9  1  0  0  0  0
  8 36  1  0  0  0  0
  9 10  1  0  0  0  0
  9 14  2  0  0  0  0
 10 11  2  0  0  0  0
 10 37  1  0  0  0  0
 11 12  1  0  0  0  0
 11 38  1  0  0  0  0
 12 13  2  0  0  0  0
 12 19  1  0  0  0  0
 13 14  1  0  0  0  0
 13 15  1  0  0  0  0
 14 39  1  0  0  0  0
 15 16  1  0  0  0  0
 15 17  2  0  0  0  0
 17 18  1  0  0  0  0
 17 19  1  0  0  0  0
 18 40  1  0  0  0  0
 18 41  1  0  0  0  0
 18 42  1  0  0  0  0
 19 20  1  0  0  0  0
 20 43  1  0  0  0  0
 20 44  1  0  0  0  0
 20 45  1  0  0  0  0
 21 22  2  0  0  0  0
 22 23  1  0  0  0  0
 22 46  1  0  0  0  0
 23 24  1  0  0  0  0
 25 26  2  0  0  0  0
 25 47  1  0  0  0  0
 26 27  1  0  0  0  0
 27 28  1  0  0  0  0
 27 48  1  0  0  0  0
 27 49  1  0  0  0  0
 28 29  1  0  0  0  0
 28 32  1  0  0  0  0
 29 30  1  0  0  0  0
 29 50  1  0  0  0  0
 29 51  1  0  0  0  0
 30 31  1  0  0  0  0
 30 32  1  0  0  0  0
 30 52  1  0  0  0  0
 31 53  1  0  0  0  0
 32 54  1  0  0  0  0
 32 55  1  0  0  0  0
M  END
$$$$
