CHEMBL3929002
 OpenBabel04072215373D

 49 53  0  0  0  0  0  0  0  0999 V2000
    3.3797   -1.0611   -0.5694 C   0  0  0  0  0  0  0  0  0  0  0  0
    2.5626   -0.4376    0.4268 O   0  0  0  0  0  0  0  0  0  0  0  0
    3.2259    0.3937    1.2907 C   0  0  0  0  0  0  0  0  0  0  0  0
    4.3426    1.1392    0.8942 C   0  0  0  0  0  0  0  0  0  0  0  0
    5.0904    1.8842    1.8343 C   0  0  0  0  0  0  0  0  0  0  0  0
    6.2506    2.6175    1.5549 C   0  0  0  0  0  0  0  0  0  0  0  0
    6.7260    2.6948    0.2178 N   0  0  0  0  0  0  0  0  0  0  0  0
    8.0433    3.0863   -0.1023 C   0  0  0  0  0  0  0  0  0  0  0  0
    9.1294    2.5088    0.5702 C   0  0  0  0  0  0  0  0  0  0  0  0
   10.4306    2.9546    0.3461 C   0  0  0  0  0  0  0  0  0  0  0  0
   10.6646    3.9819   -0.5683 C   0  0  0  0  0  0  0  0  0  0  0  0
   12.2894    4.5340   -0.7538 Cl  0  0  0  0  0  0  0  0  0  0  0  0
    9.5926    4.5335   -1.2804 C   0  0  0  0  0  0  0  0  0  0  0  0
    9.8093    5.8007   -2.4362 Cl  0  0  0  0  0  0  0  0  0  0  0  0
    8.2874    4.0786   -1.0555 C   0  0  0  0  0  0  0  0  0  0  0  0
    6.9527    3.2468    2.5247 N   0  0  0  0  0  0  0  0  0  0  0  0
    6.4849    3.1566    3.7682 C   0  0  0  0  0  0  0  0  0  0  0  0
    5.3851    2.5052    4.1412 N   0  0  0  0  0  0  0  0  0  0  0  0
    4.7062    1.8790    3.1779 C   0  0  0  0  0  0  0  0  0  0  0  0
    3.5606    1.2026    3.5364 C   0  0  0  0  0  0  0  0  0  0  0  0
    2.7621    0.5099    2.6079 C   0  0  0  0  0  0  0  0  0  0  0  0
    1.5486   -0.0478    2.9557 O   0  0  0  0  0  0  0  0  0  0  0  0
    0.9988    0.5099    4.1663 C   0  0  0  0  0  0  0  0  0  0  0  0
   -0.4513    0.2320    4.4241 C   0  0  0  0  0  0  0  0  0  0  0  0
   -1.2972   -0.5002    3.6197 C   0  0  0  0  0  0  0  0  0  0  0  0
   -2.8880   -0.5665    4.2292 S   0  0  0  0  0  0  0  0  0  0  0  0
   -2.4888    0.3838    5.6071 C   0  0  0  0  0  0  0  0  0  0  0  0
   -3.3572    0.7825    6.6456 C   0  0  0  0  0  0  0  0  0  0  0  0
   -2.8539    1.5507    7.6992 C   0  0  0  0  0  0  0  0  0  0  0  0
   -1.5171    1.9151    7.7176 C   0  0  0  0  0  0  0  0  0  0  0  0
   -0.9048    2.8523    9.0259 Cl  0  0  0  0  0  0  0  0  0  0  0  0
   -0.6589    1.5280    6.6846 C   0  0  0  0  0  0  0  0  0  0  0  0
   -1.1391    0.7437    5.5992 C   0  0  0  0  0  0  0  0  0  0  0  0
    3.0522   -2.0983   -0.6865 H   0  0  0  0  0  0  0  0  0  0  0  0
    4.4472   -1.0977   -0.3155 H   0  0  0  0  0  0  0  0  0  0  0  0
    3.2456   -0.5448   -1.5257 H   0  0  0  0  0  0  0  0  0  0  0  0
    4.6625    1.1309   -0.1451 H   0  0  0  0  0  0  0  0  0  0  0  0
    6.0212    3.1373   -0.3646 H   0  0  0  0  0  0  0  0  0  0  0  0
    8.9586    1.7219    1.3014 H   0  0  0  0  0  0  0  0  0  0  0  0
   11.2497    2.5095    0.9066 H   0  0  0  0  0  0  0  0  0  0  0  0
    7.4616    4.5318   -1.5967 H   0  0  0  0  0  0  0  0  0  0  0  0
    7.0522    3.6567    4.5456 H   0  0  0  0  0  0  0  0  0  0  0  0
    3.3106    1.2381    4.5910 H   0  0  0  0  0  0  0  0  0  0  0  0
    1.0932    1.6046    4.1390 H   0  0  0  0  0  0  0  0  0  0  0  0
    1.5586    0.1024    5.0178 H   0  0  0  0  0  0  0  0  0  0  0  0
   -1.0518   -0.9966    2.6900 H   0  0  0  0  0  0  0  0  0  0  0  0
   -4.4054    0.4968    6.6287 H   0  0  0  0  0  0  0  0  0  0  0  0
   -3.5183    1.8574    8.5031 H   0  0  0  0  0  0  0  0  0  0  0  0
    0.3852    1.8307    6.7199 H   0  0  0  0  0  0  0  0  0  0  0  0
  1  2  1  0  0  0  0
  1 34  1  0  0  0  0
  1 35  1  0  0  0  0
  1 36  1  0  0  0  0
  2  3  1  0  0  0  0
  3  4  1  0  0  0  0
  3 21  2  0  0  0  0
  4  5  2  0  0  0  0
  4 37  1  0  0  0  0
  5  6  1  0  0  0  0
  5 19  1  0  0  0  0
  6  7  1  0  0  0  0
  6 16  2  0  0  0  0
  7  8  1  0  0  0  0
  7 38  1  0  0  0  0
  8  9  1  0  0  0  0
  8 15  2  0  0  0  0
  9 10  2  0  0  0  0
  9 39  1  0  0  0  0
 10 11  1  0  0  0  0
 10 40  1  0  0  0  0
 11 12  1  0  0  0  0
 11 13  2  0  0  0  0
 13 14  1  0  0  0  0
 13 15  1  0  0  0  0
 15 41  1  0  0  0  0
 16 17  1  0  0  0  0
 17 18  2  0  0  0  0
 17 42  1  0  0  0  0
 18 19  1  0  0  0  0
 19 20  2  0  0  0  0
 20 21  1  0  0  0  0
 20 43  1  0  0  0  0
 21 22  1  0  0  0  0
 22 23  1  0  0  0  0
 23 24  1  0  0  0  0
 23 44  1  0  0  0  0
 23 45  1  0  0  0  0
 24 25  2  0  0  0  0
 24 33  1  0  0  0  0
 25 26  1  0  0  0  0
 25 46  1  0  0  0  0
 26 27  1  0  0  0  0
 27 28  1  0  0  0  0
 27 33  2  0  0  0  0
 28 29  2  0  0  0  0
 28 47  1  0  0  0  0
 29 30  1  0  0  0  0
 29 48  1  0  0  0  0
 30 31  1  0  0  0  0
 30 32  2  0  0  0  0
 32 33  1  0  0  0  0
 32 49  1  0  0  0  0
M  END
$$$$
