CHEMBL3921441
 OpenBabel04072215373D

 56 59  0  0  0  0  0  0  0  0999 V2000
    7.1208   -1.5205    2.1053 H   0  0  0  0  0  0  0  0  0  0  0  0
    6.3804   -1.2545    1.3357 C   0  0  0  0  0  0  0  0  0  0  0  0
    6.1533   -2.1416    0.7250 H   0  0  0  0  0  0  0  0  0  0  0  0
    5.4663   -0.9099    1.8367 H   0  0  0  0  0  0  0  0  0  0  0  0
    6.8558   -0.3047    0.4847 O   0  0  0  0  0  0  0  0  0  0  0  0
    6.0781    0.2548   -0.4828 C   0  0  0  0  0  0  0  0  0  0  0  0
    4.8036   -0.0529   -0.6966 C   0  0  0  0  0  0  0  0  0  0  0  0
    4.0314    0.5941   -1.6584 C   0  0  0  0  0  0  0  0  0  0  0  0
    2.7430    0.2569   -1.8114 O   0  0  0  0  0  0  0  0  0  0  0  0
    1.9525    0.8826   -2.7547 C   0  0  0  0  0  0  0  0  0  0  0  0
    1.9027    1.9663   -2.5235 H   0  0  0  0  0  0  0  0  0  0  0  0
    2.3894    0.7660   -3.7740 H   0  0  0  0  0  0  0  0  0  0  0  0
    0.9424    0.4706   -2.7565 H   0  0  0  0  0  0  0  0  0  0  0  0
    4.5869    1.6165   -2.4129 C   0  0  0  0  0  0  0  0  0  0  0  0
    5.8822    2.0243   -2.1657 C   0  0  0  0  0  0  0  0  0  0  0  0
    6.4057    3.2315   -2.8251 N   0  0  0  0  0  0  0  0  0  0  0  0
    5.5179    4.3539   -3.1878 C   0  0  0  0  0  0  0  0  0  0  0  0
    4.7998    4.9813   -2.0366 C   0  0  0  0  0  0  0  0  0  0  0  0
    3.8918    6.0951   -2.2392 C   0  0  0  0  0  0  0  0  0  0  0  0
    3.3384    6.5103   -1.0076 O   0  0  0  0  0  0  0  0  0  0  0  0
    7.7689    3.2579   -3.4202 C   0  0  0  0  0  0  0  0  0  0  0  0
    8.3502    4.4989   -3.3942 C   0  0  0  0  0  0  0  0  0  0  0  0
    9.5171    4.6769   -3.8141 C   0  0  0  0  0  0  0  0  0  0  0  0
   10.2034    3.7472   -4.3035 C   0  0  0  0  0  0  0  0  0  0  0  0
   11.1007    4.2881   -4.6810 N   0  0  0  0  0  0  0  0  0  0  0  0
   11.9819    4.8769   -5.0363 C   0  0  0  0  0  0  0  0  0  0  0  0
   12.8460    4.0217   -5.5129 C   0  0  0  0  0  0  0  0  0  0  0  0
   14.2182    5.4318   -5.9912 C   0  0  0  0  0  0  0  0  0  0  0  0
   14.6109    6.7899   -5.4964 C   0  0  0  0  0  0  0  0  0  0  0  0
   15.9820    7.0765   -5.7149 N   0  0  0  0  0  0  0  0  0  0  0  0
   16.5804    6.0713   -6.3333 N   0  0  0  0  0  0  0  0  0  0  0  0
   18.0834    6.0653   -6.6223 C   0  0  0  0  0  0  0  0  0  0  0  0
   15.5905    5.0794   -6.5569 C   0  0  0  0  0  0  0  0  0  0  0  0
   11.8776    2.4560   -5.3175 N   0  0  0  0  0  0  0  0  0  0  0  0
   10.2490    2.4894   -4.6176 C   0  0  0  0  0  0  0  0  0  0  0  0
    8.6212    2.1097   -4.0559 C   0  0  0  0  0  0  0  0  0  0  0  0
    6.5967    1.1787   -1.2527 C   0  0  0  0  0  0  0  0  0  0  0  0
    4.4309   -0.8204   -0.1156 H   0  0  0  0  0  0  0  0  0  0  0  0
    4.0238    2.0928   -3.1829 H   0  0  0  0  0  0  0  0  0  0  0  0
    4.7203    4.0409   -3.8905 H   0  0  0  0  0  0  0  0  0  0  0  0
    6.1471    5.1236   -3.6113 H   0  0  0  0  0  0  0  0  0  0  0  0
    5.6463    5.4723   -1.4607 H   0  0  0  0  0  0  0  0  0  0  0  0
    4.1200    4.1671   -1.6033 H   0  0  0  0  0  0  0  0  0  0  0  0
    3.1343    5.7398   -2.9341 H   0  0  0  0  0  0  0  0  0  0  0  0
    4.5263    6.8859   -2.6476 H   0  0  0  0  0  0  0  0  0  0  0  0
    2.7920    5.7660   -0.6315 H   0  0  0  0  0  0  0  0  0  0  0  0
    7.9704    5.4222   -3.0652 H   0  0  0  0  0  0  0  0  0  0  0  0
   10.0083    5.6710   -3.7719 H   0  0  0  0  0  0  0  0  0  0  0  0
   12.0523    5.8909   -4.9241 H   0  0  0  0  0  0  0  0  0  0  0  0
   14.1393    7.4597   -4.8549 H   0  0  0  0  0  0  0  0  0  0  0  0
   18.6059    7.0323   -6.3554 H   0  0  0  0  0  0  0  0  0  0  0  0
   18.3167    5.8838   -7.6965 H   0  0  0  0  0  0  0  0  0  0  0  0
   18.6138    5.2795   -6.0340 H   0  0  0  0  0  0  0  0  0  0  0  0
   15.9575    4.1739   -7.0010 H   0  0  0  0  0  0  0  0  0  0  0  0
    7.8219    1.2695   -4.0629 H   0  0  0  0  0  0  0  0  0  0  0  0
    7.5679    1.1045   -1.0181 H   0  0  0  0  0  0  0  0  0  0  0  0
  1  2  1  0  0  0  0
  2  3  1  0  0  0  0
  2  4  1  0  0  0  0
  2  5  1  0  0  0  0
  5  6  1  0  0  0  0
  6  7  1  0  0  0  0
  6 37  2  0  0  0  0
  7  8  2  0  0  0  0
  7 38  1  0  0  0  0
  8  9  1  0  0  0  0
  8 14  1  0  0  0  0
  9 10  1  0  0  0  0
 10 11  1  0  0  0  0
 10 12  1  0  0  0  0
 10 13  1  0  0  0  0
 14 15  2  0  0  0  0
 14 39  1  0  0  0  0
 15 16  1  0  0  0  0
 15 37  1  0  0  0  0
 16 17  1  0  0  0  0
 16 21  1  0  0  0  0
 17 18  1  0  0  0  0
 17 40  1  0  0  0  0
 17 41  1  0  0  0  0
 18 19  1  0  0  0  0
 18 42  1  0  0  0  0
 18 43  1  0  0  0  0
 19 20  1  0  0  0  0
 19 44  1  0  0  0  0
 19 45  1  0  0  0  0
 20 46  1  0  0  0  0
 21 22  1  0  0  0  0
 21 36  2  0  0  0  0
 22 23  2  0  0  0  0
 22 47  1  0  0  0  0
 23 24  1  0  0  0  0
 23 48  1  0  0  0  0
 24 25  1  0  0  0  0
 24 35  2  0  0  0  0
 25 26  2  0  0  0  0
 26 27  1  0  0  0  0
 26 49  1  0  0  0  0
 27 28  1  0  0  0  0
 27 34  2  0  0  0  0
 28 29  1  0  0  0  0
 28 33  2  0  0  0  0
 29 30  2  0  0  0  0
 29 50  1  0  0  0  0
 30 31  1  0  0  0  0
 31 32  1  0  0  0  0
 31 33  1  0  0  0  0
 32 51  1  0  0  0  0
 32 52  1  0  0  0  0
 32 53  1  0  0  0  0
 33 54  1  0  0  0  0
 34 35  1  0  0  0  0
 35 36  1  0  0  0  0
 36 55  1  0  0  0  0
 37 56  1  0  0  0  0
M  ISO  6   1   2   3   2   4   2  11   2  12   2  13   2
M  END
$$$$
